# generated using pymatgen
data_Tb(ZnP)3
_symmetry_space_group_name_H-M   'P 1'
_cell_length_a   3.97525538
_cell_length_b   3.97525538
_cell_length_c   19.79087006
_cell_angle_alpha   90.00000000
_cell_angle_beta   90.00000000
_cell_angle_gamma   120.00000793
_symmetry_Int_Tables_number   1
_chemical_formula_structural   Tb(ZnP)3
_chemical_formula_sum   'Tb2 Zn6 P6'
_cell_volume   270.84794924
_cell_formula_units_Z   2
loop_
 _symmetry_equiv_pos_site_id
 _symmetry_equiv_pos_as_xyz
  1  'x, y, z'
loop_
 _atom_site_type_symbol
 _atom_site_label
 _atom_site_symmetry_multiplicity
 _atom_site_fract_x
 _atom_site_fract_y
 _atom_site_fract_z
 _atom_site_occupancy
  Tb  Tb0  1  0.00000000  0.00000000  0.00000000  1
  Tb  Tb1  1  0.00000000  0.00000000  0.50000000  1
  Zn  Zn0  1  0.33333300  0.66666700  0.75000000  1
  Zn  Zn1  1  0.66666700  0.33333300  0.25000000  1
  Zn  Zn2  1  0.33333300  0.66666700  0.12882231  1
  Zn  Zn3  1  0.66666700  0.33333300  0.87117769  1
  Zn  Zn4  1  0.66666700  0.33333300  0.62882231  1
  Zn  Zn5  1  0.33333300  0.66666700  0.37117769  1
  P  P0  1  0.33333300  0.66666700  0.58486822  1
  P  P1  1  0.66666700  0.33333300  0.41513178  1
  P  P2  1  0.66666700  0.33333300  0.08486822  1
  P  P3  1  0.33333300  0.66666700  0.91513178  1
  P  P4  1  0.33333300  0.66666700  0.25000000  1
  P  P5  1  0.66666700  0.33333300  0.75000000  1
loop_
_geom_bond_atom_site_label_1
_geom_bond_atom_site_label_2
_geom_bond_distance
_geom_bond_site_symmetry_2
P0 Zn4 2.454434 1_455
P0 Zn4 2.454434 1_565
P0 Zn4 2.454441 1_555
P0 Tb1 2.844055 1_565
P0 Tb1 2.844058 1_555
P0 Tb1 2.844058 1_665
P1 Zn5 2.454434 1_545
P1 Zn5 2.454434 1_655
P1 Zn5 2.454441 1_555
P1 Tb1 2.844055 1_655
P1 Tb1 2.844058 1_555
P1 Tb1 2.844058 1_665
P2 Zn2 2.454434 1_545
P2 Zn2 2.454434 1_655
P2 Zn2 2.454441 1_555
P2 Tb0 2.844055 1_655
P2 Tb0 2.844058 1_555
P2 Tb0 2.844058 1_665
P3 Zn3 2.454434 1_455
P3 Zn3 2.454434 1_565
P3 Zn3 2.454441 1_555
P3 Tb0 2.844055 1_566
P3 Tb0 2.844058 1_556
P3 Tb0 2.844058 1_666
P4 Zn1 2.295112 1_455
P4 Zn1 2.295112 1_565
P4 Zn1 2.295119 1_555
P4 Zn5 2.398212 1_555
P4 Zn2 2.398212 1_555
P5 Zn0 2.295112 1_545
P5 Zn0 2.295112 1_655
P5 Zn0 2.295119 1_555
P5 Zn4 2.398212 1_555
P5 Zn3 2.398212 1_555
