# generated using pymatgen
data_Hf6Ga2Fe
_symmetry_space_group_name_H-M   'P 1'
_cell_length_a   3.29227300
_cell_length_b   7.80076058
_cell_length_c   7.80076058
_cell_angle_alpha   120.00000493
_cell_angle_beta   90.00000000
_cell_angle_gamma   90.00000000
_symmetry_Int_Tables_number   1
_chemical_formula_structural   Hf6Ga2Fe
_chemical_formula_sum   'Hf6 Ga2 Fe1'
_cell_volume   173.50034719
_cell_formula_units_Z   1
loop_
 _symmetry_equiv_pos_site_id
 _symmetry_equiv_pos_as_xyz
  1  'x, y, z'
loop_
 _atom_site_type_symbol
 _atom_site_label
 _atom_site_symmetry_multiplicity
 _atom_site_fract_x
 _atom_site_fract_y
 _atom_site_fract_z
 _atom_site_occupancy
  Hf  Hf0  1  0.50000000  0.74908500  0.74908500  1
  Hf  Hf1  1  0.50000000  0.00000000  0.25091500  1
  Hf  Hf2  1  0.50000000  0.25091500  0.00000000  1
  Hf  Hf3  1  0.00000000  0.39727100  0.39727100  1
  Hf  Hf4  1  0.00000000  0.00000000  0.60272900  1
  Hf  Hf5  1  0.00000000  0.60272900  0.00000000  1
  Ga  Ga0  1  0.50000000  0.66666700  0.33333300  1
  Ga  Ga1  1  0.50000000  0.33333300  0.66666700  1
  Fe  Fe0  1  0.00000000  0.00000000  0.00000000  1
loop_
_geom_bond_atom_site_label_1
_geom_bond_atom_site_label_2
_geom_bond_distance
_geom_bond_site_symmetry_2
Ga0 Hf5 2.902227 1_655
Ga0 Hf5 2.902227 1_555
Ga0 Hf4 2.902229 1_665
Ga0 Hf4 2.902229 1_565
Ga0 Hf3 2.902234 1_655
Ga0 Hf3 2.902234 1_555
Ga0 Hf1 2.974293 1_565
Ga0 Hf2 2.974297 1_555
Ga0 Hf0 2.974300 1_555
Ga1 Hf4 2.902227 1_555
Ga1 Hf4 2.902227 1_655
Ga1 Hf5 2.902229 1_656
Ga1 Hf5 2.902229 1_556
Ga1 Hf3 2.902234 1_655
Ga1 Hf3 2.902234 1_555
Ga1 Hf2 2.974293 1_556
Ga1 Hf1 2.974297 1_555
Ga1 Hf0 2.974300 1_555
Fe0 Hf0 2.557518 1_544
Fe0 Hf0 2.557518 1_444
Fe0 Hf2 2.557518 1_555
Fe0 Hf1 2.557518 1_455
Fe0 Hf2 2.557518 1_455
Fe0 Hf1 2.557518 1_555
Fe0 Hf3 3.099016 1_555
Fe0 Hf5 3.099016 1_545
Fe0 Hf4 3.099016 1_554
