# generated using pymatgen
data_KH13C4(NO)2
_symmetry_space_group_name_H-M   'P 1'
_cell_length_a   5.49106300
_cell_length_b   10.66584100
_cell_length_c   17.02834533
_cell_angle_alpha   85.26829861
_cell_angle_beta   90.00000000
_cell_angle_gamma   90.00000000
_symmetry_Int_Tables_number   1
_chemical_formula_structural   KH13C4(NO)2
_chemical_formula_sum   'K4 H52 C16 N8 O8'
_cell_volume   993.89689307
_cell_formula_units_Z   4
loop_
 _symmetry_equiv_pos_site_id
 _symmetry_equiv_pos_as_xyz
  1  'x, y, z'
loop_
 _atom_site_type_symbol
 _atom_site_label
 _atom_site_symmetry_multiplicity
 _atom_site_fract_x
 _atom_site_fract_y
 _atom_site_fract_z
 _atom_site_occupancy
  K  K0  1  0.40119000  0.64024100  0.73658000  1
  K  K1  1  0.90119000  0.35975900  0.76342000  1
  K  K2  1  0.59881000  0.35975900  0.26342000  1
  K  K3  1  0.09881000  0.64024100  0.23658000  1
  H  H0  1  0.88992900  0.68503500  0.71415600  1
  H  H1  1  0.38992900  0.31496500  0.78584400  1
  H  H2  1  0.11007100  0.31496500  0.28584400  1
  H  H3  1  0.61007100  0.68503500  0.21415600  1
  H  H4  1  0.81103000  0.94239300  0.71845100  1
  H  H5  1  0.31103000  0.05760700  0.78154900  1
  H  H6  1  0.18897000  0.05760700  0.28154900  1
  H  H7  1  0.68897000  0.94239300  0.21845100  1
  H  H8  1  0.74967200  0.95785400  0.61452900  1
  H  H9  1  0.24967200  0.04214600  0.88547100  1
  H  H10  1  0.25032800  0.04214600  0.38547100  1
  H  H11  1  0.75032800  0.95785400  0.11452900  1
  H  H12  1  0.01444000  0.03014800  0.65334900  1
  H  H13  1  0.51444000  0.96985200  0.84665100  1
  H  H14  1  0.98556000  0.96985200  0.34665100  1
  H  H15  1  0.48556000  0.03014800  0.15334900  1
  H  H16  1  0.51446600  0.16983300  0.66833800  1
  H  H17  1  0.01446600  0.83016700  0.83166200  1
  H  H18  1  0.48553400  0.83016700  0.33166200  1
  H  H19  1  0.98553400  0.16983300  0.16833800  1
  H  H20  1  0.62388600  0.29182000  0.59815900  1
  H  H21  1  0.12388600  0.70818000  0.90184100  1
  H  H22  1  0.37611400  0.70818000  0.40184100  1
  H  H23  1  0.87611400  0.29182000  0.09815900  1
  H  H24  1  0.37536000  0.19285100  0.57321200  1
  H  H25  1  0.87536000  0.80714900  0.92678800  1
  H  H26  1  0.62464000  0.80714900  0.42678800  1
  H  H27  1  0.12464000  0.19285100  0.07321200  1
  H  H28  1  0.14388100  0.37507300  0.53838000  1
  H  H29  1  0.64388100  0.62492700  0.96162000  1
  H  H30  1  0.85611900  0.62492700  0.46162000  1
  H  H31  1  0.35611900  0.37507300  0.03838000  1
  H  H32  1  0.26595800  0.92233000  0.56433800  1
  H  H33  1  0.76595800  0.07767000  0.93566200  1
  H  H34  1  0.73404200  0.07767000  0.43566200  1
  H  H35  1  0.23404200  0.92233000  0.06433800  1
  H  H36  1  0.25214800  0.75576700  0.56377000  1
  H  H37  1  0.75214800  0.24423300  0.93623000  1
  H  H38  1  0.74785200  0.24423300  0.43623000  1
  H  H39  1  0.24785200  0.75576700  0.06377000  1
  H  H40  1  0.38151800  0.47734100  0.56774700  1
  H  H41  1  0.88151800  0.52265900  0.93225300  1
  H  H42  1  0.61848200  0.52265900  0.43225300  1
  H  H43  1  0.11848200  0.47734100  0.06774700  1
  H  H44  1  0.08077000  0.48718800  0.60787500  1
  H  H45  1  0.58077000  0.51281200  0.89212500  1
  H  H46  1  0.91923000  0.51281200  0.39212500  1
  H  H47  1  0.41923000  0.48718800  0.10787500  1
  H  H48  1  0.00179500  0.84956900  0.52576700  1
  H  H49  1  0.50179500  0.15043100  0.97423300  1
  H  H50  1  0.99820500  0.15043100  0.47423300  1
  H  H51  1  0.49820500  0.84956900  0.02576700  1
  C  C0  1  0.89500100  0.94728300  0.65971500  1
  C  C1  1  0.39500100  0.05271700  0.84028500  1
  C  C2  1  0.10499900  0.05271700  0.34028500  1
  C  C3  1  0.60499900  0.94728300  0.15971500  1
  C  C4  1  0.45875200  0.24087400  0.62129600  1
  C  C5  1  0.95875200  0.75912600  0.87870400  1
  C  C6  1  0.54124800  0.75912600  0.37870400  1
  C  C7  1  0.04124800  0.24087400  0.12129600  1
  C  C8  1  0.14451000  0.84038400  0.57187000  1
  C  C9  1  0.64451000  0.15961600  0.92813000  1
  C  C10  1  0.85549000  0.15961600  0.42813000  1
  C  C11  1  0.35549000  0.84038400  0.07187000  1
  C  C12  1  0.21865600  0.42214800  0.58831700  1
  C  C13  1  0.71865600  0.57785200  0.91168300  1
  C  C14  1  0.78134400  0.57785200  0.41168300  1
  C  C15  1  0.28134400  0.42214800  0.08831700  1
  N  N0  1  0.28242600  0.32692600  0.65145500  1
  N  N1  1  0.78242600  0.67307400  0.84854500  1
  N  N2  1  0.71757400  0.67307400  0.34854500  1
  N  N3  1  0.21757400  0.32692600  0.15145500  1
  N  N4  1  0.03997500  0.83421000  0.65098800  1
  N  N5  1  0.53997500  0.16579000  0.84901200  1
  N  N6  1  0.96002500  0.16579000  0.34901200  1
  N  N7  1  0.46002500  0.83421000  0.15098800  1
  O  O0  1  0.39880900  0.39159500  0.71251000  1
  O  O1  1  0.89880900  0.60840500  0.78749000  1
  O  O2  1  0.60119100  0.60840500  0.28749000  1
  O  O3  1  0.10119100  0.39159500  0.21251000  1
  O  O4  1  0.87253000  0.72871000  0.65536600  1
  O  O5  1  0.37253000  0.27129000  0.84463400  1
  O  O6  1  0.12747000  0.27129000  0.34463400  1
  O  O7  1  0.62747000  0.72871000  0.15536600  1
loop_
_geom_bond_atom_site_label_1
_geom_bond_atom_site_label_2
_geom_bond_distance
_geom_bond_site_symmetry_2
K0 O0 2.716745 1_555
K1 O1 2.716745 1_555
K2 O2 2.716745 1_555
K3 O3 2.716745 1_555
H0 O4 1.073025 1_555
H0 O1 1.435759 1_555
H1 O5 1.073025 1_555
H1 O0 1.435759 1_555
H2 O6 1.073025 1_555
H2 O3 1.435759 1_555
H3 O7 1.073025 1_555
H3 O2 1.435759 1_555
C0 H4 1.098668 1_555
C0 H12 1.098739 1_665
C0 H8 1.107819 1_555
C0 N4 1.462821 1_655
C1 H5 1.098668 1_555
C1 H13 1.098739 1_545
C1 H9 1.107819 1_555
C1 N5 1.462821 1_555
C2 H6 1.098668 1_555
C2 H14 1.098739 1_445
C2 H10 1.107819 1_555
C2 N6 1.462821 1_455
C3 H7 1.098668 1_555
C3 H15 1.098739 1_565
C3 H11 1.107819 1_555
C3 N7 1.462821 1_555
C4 H16 1.099664 1_555
C4 H24 1.100748 1_555
C4 H20 1.112378 1_555
C4 N0 1.456481 1_555
C5 H17 1.099664 1_655
C5 H25 1.100748 1_555
C5 H21 1.112378 1_655
C5 N1 1.456481 1_555
C6 H18 1.099664 1_555
C6 H26 1.100748 1_555
C6 H22 1.112378 1_555
C6 N2 1.456481 1_555
C7 H19 1.099664 1_455
C7 H27 1.100748 1_555
C7 H23 1.112378 1_455
C7 N3 1.456481 1_555
C8 H36 1.097007 1_555
C8 H32 1.098453 1_555
C8 H48 1.107855 1_555
C8 N4 1.460912 1_555
C9 H37 1.097007 1_555
C9 H33 1.098453 1_555
C9 H49 1.107855 1_555
C9 N5 1.460912 1_555
C10 H38 1.097007 1_555
C10 H34 1.098453 1_555
C10 H50 1.107855 1_555
C10 N6 1.460912 1_555
C11 H39 1.097007 1_555
C11 H35 1.098453 1_555
C11 H51 1.107855 1_555
C11 N7 1.460912 1_555
C12 H44 1.097052 1_555
C12 H28 1.101912 1_555
C12 H40 1.111289 1_555
C12 N0 1.459409 1_555
C13 H45 1.097052 1_555
C13 H29 1.101912 1_555
C13 H41 1.111289 1_555
C13 N1 1.459409 1_555
C14 H46 1.097052 1_555
C14 H30 1.101912 1_555
C14 H42 1.111289 1_555
C14 N2 1.459409 1_555
C15 H47 1.097052 1_555
C15 H31 1.101912 1_555
C15 H43 1.111289 1_555
C15 N3 1.459409 1_555
N0 O0 1.443389 1_555
N1 O1 1.443389 1_555
N2 O2 1.443389 1_555
N3 O3 1.443389 1_555
N4 O4 1.450271 1_455
N5 O5 1.450271 1_555
N6 O6 1.450271 1_655
N7 O7 1.450271 1_555
