# generated using pymatgen
data_VFe4
_symmetry_space_group_name_H-M   'P 1'
_cell_length_a   4.98871140
_cell_length_b   4.98871140
_cell_length_c   20.32038012
_cell_angle_alpha   85.20949837
_cell_angle_beta   85.20949837
_cell_angle_gamma   108.64239474
_symmetry_Int_Tables_number   1
_chemical_formula_structural   VFe4
_chemical_formula_sum   'V8 Fe32'
_cell_volume   474.24655678
_cell_formula_units_Z   8
loop_
 _symmetry_equiv_pos_site_id
 _symmetry_equiv_pos_as_xyz
  1  'x, y, z'
loop_
 _atom_site_type_symbol
 _atom_site_label
 _atom_site_symmetry_multiplicity
 _atom_site_fract_x
 _atom_site_fract_y
 _atom_site_fract_z
 _atom_site_occupancy
  V  V0_0  1  0.00000000  0.00000000  0.00000000  1
  V  V0_1  1  0.00000000  0.00000000  0.50000000  1
  V  V0_2  1  0.00000000  0.50000000  0.00000000  1
  V  V0_3  1  0.00000000  0.50000000  0.50000000  1
  V  V0_4  1  0.50000000  0.00000000  0.00000000  1
  V  V0_5  1  0.50000000  0.00000000  0.50000000  1
  V  V0_6  1  0.50000000  0.50000000  0.00000000  1
  V  V0_7  1  0.50000000  0.50000000  0.50000000  1
  Fe  Fe0_0  1  0.19893391  0.19893391  0.10213168  1
  Fe  Fe0_1  1  0.19893391  0.19893391  0.60213168  1
  Fe  Fe0_2  1  0.19893391  0.69893391  0.10213168  1
  Fe  Fe0_3  1  0.19893391  0.69893391  0.60213168  1
  Fe  Fe0_4  1  0.69893391  0.19893391  0.10213168  1
  Fe  Fe0_5  1  0.69893391  0.19893391  0.60213168  1
  Fe  Fe0_6  1  0.69893391  0.69893391  0.10213168  1
  Fe  Fe0_7  1  0.69893391  0.69893391  0.60213168  1
  Fe  Fe1_0  1  0.39968382  0.39968381  0.20063237  1
  Fe  Fe1_1  1  0.39968381  0.39968381  0.70063237  1
  Fe  Fe1_2  1  0.39968381  0.89968381  0.20063237  1
  Fe  Fe1_3  1  0.39968382  0.89968381  0.70063237  1
  Fe  Fe1_4  1  0.89968381  0.39968381  0.20063237  1
  Fe  Fe1_5  1  0.89968381  0.39968382  0.70063237  1
  Fe  Fe1_6  1  0.89968382  0.89968382  0.20063237  1
  Fe  Fe1_7  1  0.89968382  0.89968382  0.70063237  1
  Fe  Fe2_0  1  0.10031619  0.10031619  0.29936763  1
  Fe  Fe2_1  1  0.10031618  0.10031619  0.79936763  1
  Fe  Fe2_2  1  0.10031619  0.60031619  0.29936763  1
  Fe  Fe2_3  1  0.10031619  0.60031618  0.79936763  1
  Fe  Fe2_4  1  0.60031619  0.10031619  0.29936763  1
  Fe  Fe2_5  1  0.60031618  0.10031619  0.79936763  1
  Fe  Fe2_6  1  0.60031618  0.60031618  0.29936763  1
  Fe  Fe2_7  1  0.60031619  0.60031619  0.79936763  1
  Fe  Fe3_0  1  0.30106609  0.30106609  0.39786832  1
  Fe  Fe3_1  1  0.30106609  0.30106609  0.89786832  1
  Fe  Fe3_2  1  0.30106609  0.80106609  0.39786832  1
  Fe  Fe3_3  1  0.30106609  0.80106609  0.89786832  1
  Fe  Fe3_4  1  0.80106609  0.30106609  0.39786832  1
  Fe  Fe3_5  1  0.80106609  0.30106609  0.89786832  1
  Fe  Fe3_6  1  0.80106609  0.80106609  0.39786832  1
  Fe  Fe3_7  1  0.80106609  0.80106609  0.89786832  1
loop_
_geom_bond_atom_site_label_1
_geom_bond_atom_site_label_2
_geom_bond_distance
_geom_bond_site_symmetry_2
Fe0_0 Fe1_6 2.457767 1_445
Fe0_0 Fe1_0 2.457768 1_555
Fe0_0 V0_0 2.516994 1_555
Fe0_0 V0_6 2.516995 1_555
Fe0_1 Fe1_7 2.457767 1_445
Fe0_1 Fe1_1 2.457768 1_555
Fe0_1 V0_1 2.516994 1_555
Fe0_1 V0_7 2.516995 1_555
Fe0_2 Fe1_4 2.457767 1_455
Fe0_2 Fe1_2 2.457768 1_555
Fe0_2 V0_2 2.516994 1_555
Fe0_2 V0_4 2.516995 1_565
Fe0_3 Fe1_5 2.457767 1_455
Fe0_3 Fe1_3 2.457768 1_555
Fe0_3 V0_3 2.516994 1_555
Fe0_3 V0_5 2.516995 1_565
Fe0_4 Fe1_2 2.457767 1_545
Fe0_4 Fe1_4 2.457768 1_555
Fe0_4 V0_4 2.516994 1_555
Fe0_4 V0_2 2.516995 1_655
Fe0_5 Fe1_3 2.457767 1_545
Fe0_5 Fe1_5 2.457768 1_555
Fe0_5 V0_5 2.516994 1_555
Fe0_5 V0_3 2.516995 1_655
Fe0_6 Fe1_0 2.457767 1_555
Fe0_6 Fe1_6 2.457768 1_555
Fe0_6 V0_6 2.516994 1_555
Fe0_6 V0_0 2.516995 1_665
Fe0_7 Fe1_1 2.457767 1_555
Fe0_7 Fe1_7 2.457768 1_555
Fe0_7 V0_7 2.516994 1_555
Fe0_7 V0_1 2.516995 1_665
Fe1_0 Fe2_0 2.461571 1_555
Fe1_0 Fe2_6 2.461571 1_555
Fe1_0 Fe1_4 2.494356 1_555
Fe1_0 Fe1_2 2.494356 1_555
Fe1_0 Fe1_2 2.494356 1_545
Fe1_0 Fe1_4 2.494356 1_455
Fe1_1 Fe2_1 2.461571 1_555
Fe1_1 Fe2_7 2.461571 1_555
Fe1_1 Fe1_5 2.494356 1_555
Fe1_1 Fe1_3 2.494356 1_555
Fe1_1 Fe1_5 2.494356 1_455
Fe1_1 Fe1_3 2.494356 1_545
Fe1_2 Fe2_4 2.461571 1_565
Fe1_2 Fe2_2 2.461571 1_555
Fe1_2 Fe1_6 2.494356 1_455
Fe1_2 Fe1_6 2.494356 1_555
Fe1_3 Fe2_5 2.461571 1_565
Fe1_3 Fe2_3 2.461571 1_555
Fe1_3 Fe1_7 2.494356 1_555
Fe1_3 Fe1_7 2.494356 1_455
Fe1_4 Fe2_4 2.461571 1_555
Fe1_4 Fe2_2 2.461571 1_655
Fe1_4 Fe1_6 2.494356 1_545
Fe1_4 Fe1_6 2.494356 1_555
Fe1_5 Fe2_5 2.461571 1_555
Fe1_5 Fe2_3 2.461571 1_655
Fe1_5 Fe1_7 2.494356 1_555
Fe1_5 Fe1_7 2.494356 1_545
Fe1_6 Fe2_0 2.461571 1_665
Fe1_6 Fe2_6 2.461571 1_555
Fe1_7 Fe2_1 2.461571 1_665
Fe1_7 Fe2_7 2.461571 1_555
Fe2_0 Fe3_6 2.457767 1_445
Fe2_0 Fe3_0 2.457768 1_555
Fe2_0 Fe2_4 2.494356 1_455
Fe2_0 Fe2_2 2.494356 1_545
Fe2_0 Fe2_4 2.494356 1_555
Fe2_0 Fe2_2 2.494356 1_555
Fe2_1 Fe3_7 2.457767 1_445
Fe2_1 Fe3_1 2.457768 1_555
Fe2_1 Fe2_3 2.494356 1_555
Fe2_1 Fe2_5 2.494356 1_555
Fe2_1 Fe2_5 2.494356 1_455
Fe2_1 Fe2_3 2.494356 1_545
Fe2_2 Fe3_4 2.457767 1_455
Fe2_2 Fe3_2 2.457768 1_555
Fe2_2 Fe2_6 2.494356 1_555
Fe2_2 Fe2_6 2.494356 1_455
Fe2_3 Fe3_5 2.457767 1_455
Fe2_3 Fe3_3 2.457768 1_555
Fe2_3 Fe2_7 2.494356 1_455
Fe2_3 Fe2_7 2.494356 1_555
Fe2_4 Fe3_2 2.457767 1_545
Fe2_4 Fe3_4 2.457768 1_555
Fe2_4 Fe2_6 2.494356 1_555
Fe2_4 Fe2_6 2.494356 1_545
Fe2_5 Fe3_3 2.457767 1_545
Fe2_5 Fe3_5 2.457768 1_555
Fe2_5 Fe2_7 2.494356 1_555
Fe2_5 Fe2_7 2.494356 1_545
Fe2_6 Fe3_0 2.457767 1_555
Fe2_6 Fe3_6 2.457768 1_555
Fe2_7 Fe3_1 2.457767 1_555
Fe2_7 Fe3_7 2.457768 1_555
Fe3_0 V0_7 2.516994 1_555
Fe3_0 V0_1 2.516995 1_555
Fe3_1 V0_6 2.516994 1_556
Fe3_1 V0_0 2.516995 1_556
Fe3_2 V0_5 2.516994 1_565
Fe3_2 V0_3 2.516995 1_555
Fe3_3 V0_4 2.516994 1_566
Fe3_3 V0_2 2.516995 1_556
Fe3_4 V0_3 2.516994 1_655
Fe3_4 V0_5 2.516995 1_555
Fe3_5 V0_2 2.516994 1_656
Fe3_5 V0_4 2.516995 1_556
Fe3_6 V0_1 2.516994 1_665
Fe3_6 V0_7 2.516995 1_555
Fe3_7 V0_0 2.516994 1_666
Fe3_7 V0_6 2.516995 1_556
