# generated using pymatgen
data_SrCrO3
_symmetry_space_group_name_H-M   'P 1'
_cell_length_a   5.55537468
_cell_length_b   5.55537468
_cell_length_c   13.68560700
_cell_angle_alpha   90.00000000
_cell_angle_beta   90.00000000
_cell_angle_gamma   120.28367077
_symmetry_Int_Tables_number   1
_chemical_formula_structural   SrCrO3
_chemical_formula_sum   'Sr6 Cr6 O18'
_cell_volume   364.73117382
_cell_formula_units_Z   6
loop_
 _symmetry_equiv_pos_site_id
 _symmetry_equiv_pos_as_xyz
  1  'x, y, z'
loop_
 _atom_site_type_symbol
 _atom_site_label
 _atom_site_symmetry_multiplicity
 _atom_site_fract_x
 _atom_site_fract_y
 _atom_site_fract_z
 _atom_site_occupancy
  Sr  Sr0  1  0.66653500  0.33270300  0.90701100  1
  Sr  Sr1  1  0.00333100  0.00313600  0.75000000  1
  Sr  Sr2  1  0.00313600  0.00333100  0.25000000  1
  Sr  Sr3  1  0.66653500  0.33270300  0.59298900  1
  Sr  Sr4  1  0.33270300  0.66653500  0.40701100  1
  Sr  Sr5  1  0.33270300  0.66653500  0.09298900  1
  Cr  Cr0  1  0.67630600  0.33913300  0.15508700  1
  Cr  Cr1  1  0.00529600  0.00529600  0.00000000  1
  Cr  Cr2  1  0.00529600  0.00529600  0.50000000  1
  Cr  Cr3  1  0.67630600  0.33913300  0.34491300  1
  Cr  Cr4  1  0.33913300  0.67630600  0.84491300  1
  Cr  Cr5  1  0.33913300  0.67630600  0.65508700  1
  O  O0  1  0.31922500  0.15896500  0.41890600  1
  O  O1  1  0.31922500  0.15896500  0.08109400  1
  O  O2  1  0.51285000  0.03015500  0.25000000  1
  O  O3  1  0.82516500  0.16386700  0.41758100  1
  O  O4  1  0.82516500  0.16386700  0.08241900  1
  O  O5  1  0.51395200  0.48533400  0.25000000  1
  O  O6  1  0.98495400  0.49416200  0.25000000  1
  O  O7  1  0.82842000  0.66722900  0.41858800  1
  O  O8  1  0.82842000  0.66722900  0.08141200  1
  O  O9  1  0.15896500  0.31922500  0.91890600  1
  O  O10  1  0.15896500  0.31922500  0.58109400  1
  O  O11  1  0.03015500  0.51285000  0.75000000  1
  O  O12  1  0.48533400  0.51395200  0.75000000  1
  O  O13  1  0.16386700  0.82516500  0.91758100  1
  O  O14  1  0.16386700  0.82516500  0.58241900  1
  O  O15  1  0.49416200  0.98495400  0.75000000  1
  O  O16  1  0.66722900  0.82842000  0.58141200  1
  O  O17  1  0.66722900  0.82842000  0.91858800  1
loop_
_geom_bond_atom_site_label_1
_geom_bond_atom_site_label_2
_geom_bond_distance
_geom_bond_site_symmetry_2
Cr0 O4 1.852845 1_555
Cr0 O8 1.870699 1_555
Cr0 O6 1.969683 1_555
Cr0 O2 1.971328 1_555
Cr0 O5 1.974649 1_555
Cr0 O1 1.989943 1_555
Cr1 O1 1.870942 1_555
Cr1 O9 1.870942 1_554
Cr1 O8 1.967966 1_445
Cr1 O17 1.967966 1_444
Cr1 O4 1.984635 1_455
Cr1 O13 1.984635 1_544
Cr2 O10 1.870942 1_555
Cr2 O0 1.870942 1_555
Cr2 O16 1.967966 1_445
Cr2 O7 1.967966 1_445
Cr2 O3 1.984635 1_455
Cr2 O14 1.984635 1_545
Cr3 O3 1.852845 1_555
Cr3 O7 1.870699 1_555
Cr3 O6 1.969683 1_555
Cr3 O2 1.971328 1_555
Cr3 O5 1.974649 1_555
Cr3 O0 1.989943 1_555
Cr4 O13 1.852845 1_555
Cr4 O17 1.870699 1_555
Cr4 O15 1.969683 1_555
Cr4 O11 1.971328 1_555
Cr4 O12 1.974649 1_555
Cr4 O9 1.989943 1_555
Cr5 O14 1.852845 1_555
Cr5 O16 1.870699 1_555
Cr5 O15 1.969683 1_555
Cr5 O11 1.971328 1_555
Cr5 O12 1.974649 1_555
Cr5 O10 1.989943 1_555
O0 Sr2 2.764637 1_555
O0 Sr4 2.778917 1_545
O0 Sr4 2.787492 1_555
O0 Sr3 2.907246 1_555
O1 Sr2 2.764637 1_555
O1 Sr5 2.778917 1_545
O1 Sr5 2.787492 1_555
O1 Sr0 2.907246 1_554
O2 Sr2 2.759508 1_555
O2 Sr4 2.767763 1_545
O2 Sr5 2.767763 1_545
O2 Sr2 2.801826 1_655
O3 Sr4 2.741461 1_545
O3 Sr4 2.797837 1_655
O3 Sr2 2.814623 1_655
O3 Sr3 2.872751 1_555
O4 Sr5 2.741461 1_545
O4 Sr5 2.797837 1_655
O4 Sr2 2.814623 1_655
O4 Sr0 2.872751 1_554
O5 Sr2 2.749415 1_555
O5 Sr4 2.768891 1_555
O5 Sr5 2.768891 1_555
O5 Sr2 2.789087 1_665
O6 Sr4 2.720412 1_655
O6 Sr5 2.720412 1_655
O6 Sr2 2.779056 1_655
O6 Sr2 2.779057 1_665
O7 Sr4 2.756509 1_555
O7 Sr4 2.807901 1_655
O7 Sr2 2.814944 1_665
O7 Sr3 2.876387 1_555
O8 Sr5 2.756509 1_555
O8 Sr5 2.807901 1_655
O8 Sr2 2.814944 1_665
O8 Sr0 2.876387 1_554
O9 Sr1 2.764637 1_555
O9 Sr0 2.778917 1_455
O9 Sr0 2.787492 1_555
O9 Sr5 2.907246 1_556
O10 Sr1 2.764637 1_555
O10 Sr3 2.778917 1_455
O10 Sr3 2.787492 1_555
O10 Sr4 2.907246 1_555
O11 Sr1 2.759508 1_555
O11 Sr3 2.767763 1_455
O11 Sr0 2.767763 1_455
O11 Sr1 2.801826 1_565
O12 Sr1 2.749415 1_555
O12 Sr3 2.768891 1_555
O12 Sr0 2.768891 1_555
O12 Sr1 2.789087 1_665
O13 Sr0 2.741461 1_455
O13 Sr0 2.797837 1_565
O13 Sr1 2.814623 1_565
O13 Sr5 2.872751 1_556
O14 Sr3 2.741461 1_455
O14 Sr3 2.797837 1_565
O14 Sr1 2.814623 1_565
O14 Sr4 2.872751 1_555
O15 Sr0 2.720412 1_565
O15 Sr3 2.720412 1_565
O15 Sr1 2.779056 1_565
O15 Sr1 2.779057 1_665
O16 Sr3 2.756509 1_555
O16 Sr3 2.807901 1_565
O16 Sr1 2.814944 1_665
O16 Sr4 2.876387 1_555
O17 Sr0 2.756509 1_555
O17 Sr0 2.807901 1_565
O17 Sr1 2.814944 1_665
O17 Sr5 2.876387 1_556
