# generated using pymatgen
data_LaCrO3
_symmetry_space_group_name_H-M   'P 1'
_cell_length_a   5.45720057
_cell_length_b   5.45720004
_cell_length_c   5.45749681
_cell_angle_alpha   61.13442931
_cell_angle_beta   61.13443016
_cell_angle_gamma   61.13540773
_symmetry_Int_Tables_number   1
_chemical_formula_structural   LaCrO3
_chemical_formula_sum   'La2 Cr2 O6'
_cell_volume   117.86084207
_cell_formula_units_Z   2
loop_
 _symmetry_equiv_pos_site_id
 _symmetry_equiv_pos_as_xyz
  1  'x, y, z'
loop_
 _atom_site_type_symbol
 _atom_site_label
 _atom_site_symmetry_multiplicity
 _atom_site_fract_x
 _atom_site_fract_y
 _atom_site_fract_z
 _atom_site_occupancy
  La  La0  1  0.75001961  0.74998042  0.75000001  1
  La  La1  1  0.24998039  0.25001958  0.24999999  1
  Cr  Cr0  1  0.50000000  0.50000000  0.50000000  1
  Cr  Cr1  1  0.00000000  -0.00000000  -0.00000000  1
  O  O0  1  0.18379098  0.74989540  0.31619697  1
  O  O1  1  0.75010570  0.31620818  0.18380275  1
  O  O2  1  0.31631018  0.18368901  0.75000000  1
  O  O3  1  0.81620902  0.25010460  0.68380303  1
  O  O4  1  0.68368982  0.81631099  0.25000000  1
  O  O5  1  0.24989430  0.68379182  0.81619725  1
loop_
_geom_bond_atom_site_label_1
_geom_bond_atom_site_label_2
_geom_bond_distance
_geom_bond_site_symmetry_2
La0 O2 2.407339 1_565
La0 O0 2.407804 1_655
La0 O1 2.407805 1_556
La0 O5 2.752585 1_655
La0 O3 2.752589 1_555
La0 O4 2.753472 1_555
La0 O4 2.753476 1_556
La0 O3 2.753863 1_565
La0 O5 2.753866 1_555
La1 O4 2.407339 1_545
La1 O3 2.407804 1_455
La1 O5 2.407805 1_554
La1 O1 2.752585 1_455
La1 O0 2.752589 1_555
La1 O2 2.753472 1_555
La1 O2 2.753476 1_554
La1 O0 2.753863 1_545
La1 O1 2.753866 1_555
Cr0 O1 1.980422 1_555
Cr0 O5 1.980422 1_555
Cr0 O0 1.980448 1_555
Cr0 O3 1.980448 1_555
Cr0 O2 1.980468 1_555
Cr0 O4 1.980468 1_555
Cr1 O0 1.980418 1_545
Cr1 O3 1.980418 1_454
Cr1 O5 1.980443 1_544
Cr1 O1 1.980443 1_455
Cr1 O4 1.980462 1_445
Cr1 O2 1.980462 1_554
