# generated using pymatgen
data_Fe5Ni4P3
_symmetry_space_group_name_H-M   'P 1'
_cell_length_a   4.39170300
_cell_length_b   6.69287119
_cell_length_c   19.08938458
_cell_angle_alpha   87.86761163
_cell_angle_beta   83.64408291
_cell_angle_gamma   71.04077167
_symmetry_Int_Tables_number   1
_chemical_formula_structural   Fe5Ni4P3
_chemical_formula_sum   'Fe20 Ni16 P12'
_cell_volume   527.39457141
_cell_formula_units_Z   4
loop_
 _symmetry_equiv_pos_site_id
 _symmetry_equiv_pos_as_xyz
  1  'x, y, z'
loop_
 _atom_site_type_symbol
 _atom_site_label
 _atom_site_symmetry_multiplicity
 _atom_site_fract_x
 _atom_site_fract_y
 _atom_site_fract_z
 _atom_site_occupancy
  Fe  Fe0  1  0.31506100  0.81598900  0.01064500  1
  Fe  Fe1  1  0.64825800  0.81543700  0.34417500  1
  Fe  Fe2  1  0.98096200  0.81546600  0.67739000  1
  Fe  Fe3  1  0.47725300  0.18551400  0.32329200  1
  Fe  Fe4  1  0.81071900  0.18523800  0.65649400  1
  Fe  Fe5  1  0.14200300  0.18440500  0.98883700  1
  Fe  Fe6  1  0.72394100  0.02871800  0.06132900  1
  Fe  Fe7  1  0.05542700  0.03176800  0.39523800  1
  Fe  Fe8  1  0.38866300  0.03210800  0.72858000  1
  Fe  Fe9  1  0.14922900  0.97141600  0.27187500  1
  Fe  Fe10  1  0.48174200  0.97213600  0.60525100  1
  Fe  Fe11  1  0.81404600  0.97238700  0.93844500  1
  Fe  Fe12  1  0.06342000  0.39457500  0.44346200  1
  Fe  Fe13  1  0.39731900  0.39430600  0.77680400  1
  Fe  Fe14  1  0.12156000  0.67102300  0.13240200  1
  Fe  Fe15  1  0.45421100  0.67005700  0.46518900  1
  Fe  Fe16  1  0.78700900  0.67007100  0.79856900  1
  Fe  Fe17  1  0.25759600  0.32889000  0.20101600  1
  Fe  Fe18  1  0.58902900  0.32855500  0.53465400  1
  Fe  Fe19  1  0.92339900  0.32849800  0.86794100  1
  Ni  Ni0  1  0.93336900  0.61207300  0.01693500  1
  Ni  Ni1  1  0.26674800  0.61153700  0.34937400  1
  Ni  Ni2  1  0.59982000  0.61174900  0.68264900  1
  Ni  Ni3  1  0.89803000  0.38921800  0.31631200  1
  Ni  Ni4  1  0.23050600  0.38907300  0.64978500  1
  Ni  Ni5  1  0.56252300  0.38718700  0.98306300  1
  Ni  Ni6  1  0.16222800  0.05158800  0.12936600  1
  Ni  Ni7  1  0.49719600  0.04773000  0.46310100  1
  Ni  Ni8  1  0.83082400  0.04785800  0.79637300  1
  Ni  Ni9  1  0.67532600  0.94832600  0.20396900  1
  Ni  Ni10  1  0.00798900  0.94821400  0.53736100  1
  Ni  Ni11  1  0.34167100  0.94828000  0.87084800  1
  Ni  Ni12  1  0.56461300  0.60398400  0.22298100  1
  Ni  Ni13  1  0.89503000  0.60458900  0.55681000  1
  Ni  Ni14  1  0.22786500  0.60514000  0.89020400  1
  Ni  Ni15  1  0.72569500  0.39556100  0.11051100  1
  P  P0  1  0.02682100  0.65922700  0.25247000  1
  P  P1  1  0.35890700  0.65985700  0.58563500  1
  P  P2  1  0.69341100  0.65837000  0.91938500  1
  P  P3  1  0.27166800  0.34227700  0.08059000  1
  P  P4  1  0.60693000  0.34316000  0.41472900  1
  P  P5  1  0.94006200  0.34307400  0.74797200  1
  P  P6  1  0.58107200  0.75831200  0.11314000  1
  P  P7  1  0.91662200  0.75553200  0.44623900  1
  P  P8  1  0.24977900  0.75545700  0.77961400  1
  P  P9  1  0.78522900  0.24141000  0.22026200  1
  P  P10  1  0.11755100  0.24211100  0.55277300  1
  P  P11  1  0.45166500  0.24255300  0.88596000  1
loop_
_geom_bond_atom_site_label_1
_geom_bond_atom_site_label_2
_geom_bond_distance
_geom_bond_site_symmetry_2
Fe0 P2 2.294678 1_554
Fe0 P6 2.344951 1_555
Fe0 Ni0 2.473209 1_455
Fe0 Ni0 2.627257 1_555
Fe0 Ni6 2.704534 1_565
Fe0 Ni5 2.766554 1_554
Fe0 Ni11 2.782370 1_554
Fe1 P0 2.298699 1_655
Fe1 P7 2.342871 1_555
Fe1 Ni1 2.473512 1_555
Fe1 Ni1 2.625081 1_655
Fe1 Ni7 2.696320 1_565
Fe1 Ni3 2.752108 1_555
Fe1 Ni9 2.790995 1_555
Fe2 P1 2.297038 1_655
Fe2 P8 2.346619 1_655
Fe2 Ni2 2.471128 1_555
Fe2 Ni2 2.626417 1_655
Fe2 Ni8 2.697723 1_565
Fe2 Ni4 2.752213 1_655
Fe2 Ni10 2.787524 1_655
Fe3 P4 2.287326 1_555
Fe3 P9 2.350019 1_555
Fe3 Ni3 2.480988 1_455
Fe3 Ni3 2.619237 1_555
Fe3 Ni9 2.719967 1_545
Fe3 Ni1 2.742893 1_555
Fe3 Ni7 2.792319 1_555
Fe4 P5 2.287975 1_555
Fe4 P10 2.359544 1_655
Fe4 Ni4 2.484130 1_555
Fe4 Ni4 2.616361 1_655
Fe4 Ni10 2.716287 1_645
Fe4 Ni2 2.746172 1_555
Fe4 Ni8 2.792838 1_555
Fe5 P3 2.293038 1_556
Fe5 P11 2.356555 1_555
Fe5 Ni5 2.477358 1_455
Fe5 Ni5 2.614816 1_555
Fe5 Ni11 2.695662 1_545
Fe5 Ni0 2.760692 1_456
Fe5 Ni6 2.796155 1_556
Fe6 P6 2.261523 1_545
Fe6 P3 2.381533 1_555
Fe6 Ni6 2.484949 1_655
Fe6 Ni6 2.618360 1_555
Fe6 Ni5 2.711719 1_554
Fe6 Ni9 2.754310 1_545
Fe6 Ni0 2.770715 1_545
Fe7 P7 2.281345 1_445
Fe7 P4 2.364229 1_455
Fe7 Ni7 2.480958 1_555
Fe7 Ni7 2.614735 1_455
Fe7 Ni3 2.712751 1_455
Fe7 Ni10 2.748521 1_545
Fe7 Ni1 2.800986 1_545
Fe8 P8 2.284192 1_545
Fe8 P5 2.362530 1_455
Fe8 Ni8 2.481164 1_555
Fe8 Ni8 2.613061 1_455
Fe8 Ni4 2.708949 1_555
Fe8 Ni11 2.751497 1_545
Fe8 Ni2 2.802186 1_545
Fe9 P9 2.265118 1_465
Fe9 P0 2.371399 1_555
Fe9 Ni9 2.482386 1_555
Fe9 Ni9 2.618594 1_455
Fe9 Ni1 2.711568 1_555
Fe9 Ni6 2.751126 1_565
Fe9 Ni3 2.778612 1_465
Fe10 P10 2.273490 1_565
Fe10 P1 2.373838 1_555
Fe10 Ni10 2.481596 1_655
Fe10 Ni10 2.619717 1_555
Fe10 Ni2 2.713190 1_555
Fe10 Ni7 2.739222 1_565
Fe10 Ni4 2.774029 1_565
Fe11 P11 2.270345 1_565
Fe11 P2 2.377645 1_555
Fe11 Ni11 2.484140 1_655
Fe11 Ni11 2.611607 1_555
Fe11 Ni0 2.723764 1_556
Fe11 Ni8 2.737494 1_565
Fe11 Ni5 2.761867 1_565
Fe12 P4 2.268069 1_455
Fe12 P7 2.290120 1_455
Fe12 P10 2.290362 1_555
Fe12 P4 2.303729 1_555
Fe12 Ni7 2.525526 1_555
Fe12 Ni1 2.534806 1_555
Fe12 Ni3 2.614187 1_455
Fe13 P5 2.271407 1_455
Fe13 P11 2.285942 1_555
Fe13 P8 2.291185 1_555
Fe13 P5 2.300955 1_555
Fe13 Ni8 2.522924 1_555
Fe13 Ni2 2.536096 1_555
Fe13 Ni4 2.614086 1_555
Fe14 P6 2.266009 1_555
Fe14 P0 2.286800 1_555
Fe14 P3 2.308467 1_555
Fe14 P6 2.320983 1_455
Fe14 Ni0 2.525302 1_455
Fe14 Ni9 2.526663 1_455
Fe14 Ni6 2.608669 1_565
Fe15 P7 2.271344 1_555
Fe15 P4 2.285780 1_555
Fe15 P1 2.293504 1_555
Fe15 P7 2.308288 1_455
Fe15 Ni1 2.529023 1_555
Fe15 Ni10 2.535100 1_555
Fe15 Ni7 2.593738 1_565
Fe16 P8 2.272540 1_655
Fe16 P5 2.287384 1_555
Fe16 P2 2.300372 1_555
Fe16 P8 2.306854 1_555
Fe16 Ni2 2.529903 1_555
Fe16 Ni11 2.534429 1_555
Fe16 Ni8 2.595856 1_565
Fe17 P9 2.266746 1_555
Fe17 P3 2.292032 1_555
Fe17 P0 2.316294 1_555
Fe17 P9 2.320731 1_455
Fe17 Ni6 2.512279 1_555
Fe17 Ni3 2.526465 1_455
Fe17 Ni9 2.613850 1_545
Fe18 P10 2.265432 1_655
Fe18 P4 2.281468 1_555
Fe18 P10 2.312288 1_555
Fe18 P1 2.317728 1_555
Fe18 Ni4 2.521725 1_555
Fe18 Ni7 2.523198 1_555
Fe18 Ni10 2.614545 1_645
Fe19 P11 2.264145 1_655
Fe19 P5 2.282651 1_555
Fe19 P11 2.311503 1_555
Fe19 P2 2.313361 1_555
Fe19 Ni8 2.523861 1_555
Fe19 Ni5 2.526684 1_555
Fe19 Ni11 2.612993 1_645
Ni0 P2 2.203090 1_554
Ni0 P6 2.290223 1_555
Ni0 P3 2.331882 1_655
Ni0 Ni15 2.535351 1_555
Ni0 Ni14 2.608465 1_654
Ni0 Ni5 2.689690 1_554
Ni0 Ni5 2.700468 1_654
Ni1 P0 2.191602 1_555
Ni1 P7 2.291829 1_455
Ni1 P4 2.348834 1_555
Ni1 Ni12 2.608160 1_555
Ni1 Ni3 2.663880 1_455
Ni1 Ni3 2.701945 1_555
Ni2 P1 2.195641 1_555
Ni2 P8 2.292645 1_555
Ni2 P5 2.349676 1_555
Ni2 Ni4 2.666618 1_555
Ni2 Ni4 2.699809 1_655
Ni3 P4 2.222652 1_555
Ni3 P9 2.289198 1_555
Ni3 P0 2.327779 1_655
Ni4 P5 2.217609 1_455
Ni4 P10 2.301973 1_555
Ni4 P1 2.334120 1_555
Ni5 P3 2.206653 1_556
Ni5 P11 2.291207 1_555
Ni5 P2 2.336937 1_555
Ni6 P6 2.214786 1_545
Ni6 P3 2.292775 1_555
Ni6 P9 2.351001 1_455
Ni6 Ni9 2.684920 1_545
Ni6 Ni9 2.700190 1_445
Ni7 P7 2.212676 1_545
Ni7 P4 2.319330 1_555
Ni7 P10 2.350943 1_555
Ni8 P8 2.212255 1_645
Ni8 P5 2.317265 1_555
Ni8 P11 2.349636 1_555
Ni9 P9 2.207105 1_565
Ni9 P0 2.286100 1_655
Ni9 P6 2.336670 1_555
Ni10 P10 2.208309 1_565
Ni10 P1 2.279992 1_555
Ni10 P7 2.346807 1_455
Ni10 Ni13 2.512016 1_455
Ni10 Ni7 2.673626 1_465
Ni10 Ni7 2.693369 1_565
Ni11 P11 2.210649 1_565
Ni11 P2 2.290211 1_555
Ni11 P8 2.350069 1_555
Ni11 Ni14 2.510474 1_555
Ni11 Ni8 2.676323 1_465
Ni11 Ni8 2.695140 1_565
Ni12 P0 2.277167 1_555
Ni12 P9 2.302302 1_555
Ni12 P6 2.307043 1_555
Ni12 P0 2.308716 1_655
Ni12 Ni9 2.511232 1_555
Ni12 Ni3 2.530574 1_555
Ni13 P1 2.268395 1_555
Ni13 P10 2.302872 1_655
Ni13 P1 2.311456 1_655
Ni13 P7 2.311714 1_555
Ni13 Ni4 2.531564 1_655
Ni13 Ni2 2.594668 1_555
Ni14 P2 2.264580 1_455
Ni14 P11 2.304091 1_555
Ni14 P8 2.310412 1_555
Ni14 P2 2.314649 1_555
Ni14 Ni5 2.534059 1_555
Ni15 P3 2.271264 1_555
Ni15 P6 2.302254 1_555
Ni15 P9 2.303757 1_555
Ni15 P3 2.314936 1_655
Ni15 Ni6 2.515576 1_655
Ni15 Ni5 2.618766 1_554
