# generated using pymatgen
data_Dy12(ReC3)5
_symmetry_space_group_name_H-M   'P 1'
_cell_length_a   10.73664497
_cell_length_b   10.73664497
_cell_length_c   5.10419500
_cell_angle_alpha   90.00000000
_cell_angle_beta   90.00000000
_cell_angle_gamma   119.99999366
_symmetry_Int_Tables_number   1
_chemical_formula_structural   Dy12(ReC3)5
_chemical_formula_sum   'Dy12 Re5 C15'
_cell_volume   509.55973405
_cell_formula_units_Z   1
loop_
 _symmetry_equiv_pos_site_id
 _symmetry_equiv_pos_as_xyz
  1  'x, y, z'
loop_
 _atom_site_type_symbol
 _atom_site_label
 _atom_site_symmetry_multiplicity
 _atom_site_fract_x
 _atom_site_fract_y
 _atom_site_fract_z
 _atom_site_occupancy
  Dy  Dy0  1  0.72990200  0.18568700  0.00000000  1
  Dy  Dy1  1  0.81431300  0.54421500  0.00000000  1
  Dy  Dy2  1  0.45578500  0.27009800  0.00000000  1
  Dy  Dy3  1  0.18568700  0.72990200  0.00000000  1
  Dy  Dy4  1  0.54421500  0.81431300  0.00000000  1
  Dy  Dy5  1  0.27009800  0.45578500  0.00000000  1
  Dy  Dy6  1  0.57373100  0.57373100  0.50000000  1
  Dy  Dy7  1  0.42626900  0.00000000  0.50000000  1
  Dy  Dy8  1  0.00000000  0.42626900  0.50000000  1
  Dy  Dy9  1  0.20532400  0.20532400  0.50000000  1
  Dy  Dy10  1  0.79467600  0.00000000  0.50000000  1
  Dy  Dy11  1  0.00000000  0.79467600  0.50000000  1
  Re  Re0  1  0.84825900  0.84825900  0.00000000  1
  Re  Re1  1  0.15174100  0.00000000  0.00000000  1
  Re  Re2  1  0.00000000  0.15174100  0.00000000  1
  Re  Re3  1  0.66666700  0.33333300  0.50000000  1
  Re  Re4  1  0.33333300  0.66666700  0.50000000  1
  C  C0  1  0.72177100  0.18945100  0.50000000  1
  C  C1  1  0.81054900  0.53232000  0.50000000  1
  C  C2  1  0.46768000  0.27822900  0.50000000  1
  C  C3  1  0.18945100  0.72177100  0.50000000  1
  C  C4  1  0.53232000  0.81054900  0.50000000  1
  C  C5  1  0.27822900  0.46768000  0.50000000  1
  C  C6  1  0.66697000  0.66697000  0.00000000  1
  C  C7  1  0.33303000  0.00000000  0.00000000  1
  C  C8  1  0.00000000  0.33303000  0.00000000  1
  C  C9  1  0.54069900  0.54069900  0.00000000  1
  C  C10  1  0.45930100  0.00000000  0.00000000  1
  C  C11  1  0.00000000  0.45930100  0.00000000  1
  C  C12  1  0.21568900  0.21568900  0.00000000  1
  C  C13  1  0.78431100  0.00000000  0.00000000  1
  C  C14  1  0.00000000  0.78431100  0.00000000  1
loop_
_geom_bond_atom_site_label_1
_geom_bond_atom_site_label_2
_geom_bond_distance
_geom_bond_site_symmetry_2
C0 Re3 1.910609 1_555
C0 Dy10 2.518395 1_555
C0 Dy0 2.554601 1_555
C0 Dy0 2.554601 1_556
C0 Dy7 2.783877 1_555
C0 Dy8 2.791621 1_655
C1 Re3 1.910616 1_555
C1 Dy11 2.518396 1_655
C1 Dy1 2.554601 1_556
C1 Dy1 2.554601 1_555
C1 Dy8 2.783877 1_655
C1 Dy6 2.791621 1_555
C2 Re3 1.910619 1_555
C2 Dy9 2.518396 1_555
C2 Dy2 2.554601 1_556
C2 Dy2 2.554601 1_555
C2 Dy6 2.783877 1_555
C2 Dy7 2.791621 1_555
C3 Re4 1.910609 1_555
C3 Dy11 2.518395 1_555
C3 Dy3 2.554601 1_555
C3 Dy3 2.554601 1_556
C3 Dy8 2.783877 1_555
C3 Dy7 2.791621 1_565
C4 Re4 1.910616 1_555
C4 Dy10 2.518396 1_565
C4 Dy4 2.554601 1_555
C4 Dy4 2.554601 1_556
C4 Dy7 2.783877 1_565
C4 Dy6 2.791621 1_555
C5 Re4 1.910619 1_555
C5 Dy9 2.518396 1_555
C5 Dy5 2.554601 1_556
C5 Dy5 2.554601 1_555
C5 Dy6 2.783877 1_555
C5 Dy8 2.791621 1_555
C6 C9 1.355727 1_555
C6 Re0 1.946436 1_555
C6 Dy1 2.514893 1_555
C6 Dy4 2.514893 1_555
C6 Dy6 2.741414 1_555
C6 Dy6 2.741414 1_554
C7 Re1 1.946436 1_555
C7 Dy2 2.514894 1_555
C7 Dy3 2.514894 1_545
C7 Dy7 2.741414 1_555
C7 Dy7 2.741414 1_554
C8 Re2 1.946436 1_555
C8 Dy5 2.514894 1_555
C8 Dy0 2.514894 1_455
C8 Dy8 2.741414 1_555
C8 Dy8 2.741414 1_554
C9 Dy5 2.573605 1_555
C9 Dy2 2.573605 1_555
C9 Dy6 2.576622 1_555
C9 Dy6 2.576622 1_554
C10 C7 1.355727 1_555
C10 Dy4 2.573605 1_545
C10 Dy0 2.573605 1_555
C10 Dy7 2.576622 1_554
C10 Dy7 2.576622 1_555
C11 C8 1.355727 1_555
C11 Dy1 2.573605 1_455
C11 Dy3 2.573605 1_555
C11 Dy8 2.576622 1_555
C11 Dy8 2.576622 1_554
C12 Re2 2.060155 1_555
C12 Re1 2.060155 1_555
C12 Dy2 2.341058 1_555
C12 Dy5 2.341058 1_555
C12 Dy9 2.554523 1_555
C12 Dy9 2.554523 1_554
C13 Re0 2.060155 1_545
C13 Re2 2.060155 1_655
C13 Dy0 2.341058 1_555
C13 Dy4 2.341058 1_545
C13 Dy10 2.554523 1_555
C13 Dy10 2.554523 1_554
C14 Re0 2.060155 1_455
C14 Re1 2.060155 1_565
C14 Dy3 2.341058 1_555
C14 Dy1 2.341058 1_455
C14 Dy11 2.554523 1_554
C14 Dy11 2.554523 1_555
