# generated using pymatgen
data_PuTe2
_symmetry_space_group_name_H-M   'P 1'
_cell_length_a   4.47444307
_cell_length_b   4.47444307
_cell_length_c   9.04899727
_cell_angle_alpha   90.00000000
_cell_angle_beta   90.00000000
_cell_angle_gamma   90.00000000
_symmetry_Int_Tables_number   1
_chemical_formula_structural   PuTe2
_chemical_formula_sum   'Pu2 Te4'
_cell_volume   181.16672382
_cell_formula_units_Z   2
loop_
 _symmetry_equiv_pos_site_id
 _symmetry_equiv_pos_as_xyz
  1  'x, y, z'
loop_
 _atom_site_type_symbol
 _atom_site_label
 _atom_site_symmetry_multiplicity
 _atom_site_fract_x
 _atom_site_fract_y
 _atom_site_fract_z
 _atom_site_occupancy
  Pu  Pu0  1  -0.00000000  0.50000000  0.72501789  1
  Pu  Pu1  1  0.50000000  0.00000000  0.27498211  1
  Te  Te0  1  0.00000000  0.50000000  0.36422450  1
  Te  Te1  1  0.50000000  -0.00000000  0.63577550  1
  Te  Te2  1  0.00000000  -0.00000000  0.00000000  1
  Te  Te3  1  0.50000000  0.50000000  -0.00000000  1
loop_
_geom_bond_atom_site_label_1
_geom_bond_atom_site_label_2
_geom_bond_distance
_geom_bond_site_symmetry_2
Pu0 Te0 3.264818 1_555
Pu0 Te1 3.265343 1_555
Pu0 Te1 3.265343 1_465
Pu0 Te1 3.265343 1_565
Pu0 Te1 3.265343 1_455
Pu0 Te3 3.346171 1_456
Pu0 Te3 3.346171 1_556
Pu0 Te2 3.346171 1_566
Pu0 Te2 3.346171 1_556
Pu1 Te1 3.264818 1_555
Pu1 Te0 3.265343 1_655
Pu1 Te0 3.265343 1_645
Pu1 Te0 3.265343 1_545
Pu1 Te0 3.265343 1_555
Pu1 Te2 3.346171 1_655
Pu1 Te3 3.346171 1_545
Pu1 Te3 3.346171 1_555
Pu1 Te2 3.346171 1_555
Te2 Te3 3.163909 1_455
Te2 Te3 3.163909 1_545
Te2 Te3 3.163909 1_555
Te2 Te3 3.163909 1_445
