# generated using pymatgen
data_NdAgH18C20(NO2)6
_symmetry_space_group_name_H-M   'P 1'
_cell_length_a   7.11559008
_cell_length_b   12.31945547
_cell_length_c   14.75550246
_cell_angle_alpha   80.14479039
_cell_angle_beta   76.78381447
_cell_angle_gamma   83.90636424
_symmetry_Int_Tables_number   1
_chemical_formula_structural   NdAgH18C20(NO2)6
_chemical_formula_sum   'Nd2 Ag2 H36 C40 N12 O24'
_cell_volume   1237.59762256
_cell_formula_units_Z   2
loop_
 _symmetry_equiv_pos_site_id
 _symmetry_equiv_pos_as_xyz
  1  'x, y, z'
loop_
 _atom_site_type_symbol
 _atom_site_label
 _atom_site_symmetry_multiplicity
 _atom_site_fract_x
 _atom_site_fract_y
 _atom_site_fract_z
 _atom_site_occupancy
  Nd  Nd0  1  0.83282500  0.48227100  0.30427300  1
  Nd  Nd1  1  0.16717500  0.51772900  0.69572700  1
  Ag  Ag0  1  0.73540800  0.07683600  0.99033200  1
  Ag  Ag1  1  0.26459200  0.92316400  0.00966800  1
  H  H0  1  0.87350600  0.10638400  0.74854200  1
  H  H1  1  0.12649400  0.89361600  0.25145800  1
  H  H2  1  0.09924100  0.22251800  0.21072100  1
  H  H3  1  0.90075900  0.77748200  0.78927900  1
  H  H4  1  0.18557700  0.33060600  0.39153400  1
  H  H5  1  0.81442300  0.66939400  0.60846600  1
  H  H6  1  0.82071600  0.06400500  0.35030500  1
  H  H7  1  0.17928400  0.93599500  0.64969500  1
  H  H8  1  0.41365500  0.57793700  0.34344500  1
  H  H9  1  0.58634500  0.42206300  0.65655500  1
  H  H10  1  0.34693500  0.32792300  0.17504900  1
  H  H11  1  0.65306500  0.67207700  0.82495100  1
  H  H12  1  0.37051200  0.94197500  0.76235500  1
  H  H13  1  0.62948800  0.05802500  0.23764500  1
  H  H14  1  0.68984000  0.21367800  0.60210600  1
  H  H15  1  0.31016000  0.78632200  0.39789400  1
  H  H16  1  0.43196300  0.57930500  0.44730100  1
  H  H17  1  0.56803700  0.42069500  0.55269900  1
  H  H18  1  0.84857600  0.43524800  0.96697600  1
  H  H19  1  0.15142400  0.56475200  0.03302400  1
  H  H20  1  0.85387400  0.65224700  0.44170400  1
  H  H21  1  0.14612600  0.34775300  0.55829600  1
  H  H22  1  0.29661100  0.40525800  0.30162600  1
  H  H23  1  0.70338900  0.59474200  0.69837400  1
  H  H24  1  0.69426200  0.85957400  0.62159700  1
  H  H25  1  0.30573800  0.14042600  0.37840300  1
  H  H26  1  0.58329700  0.70115300  0.25120300  1
  H  H27  1  0.41670300  0.29884700  0.74879700  1
  H  H28  1  0.15277600  0.21134500  0.92009900  1
  H  H29  1  0.84722400  0.78865500  0.07990100  1
  H  H30  1  0.42525300  0.26809500  0.88812000  1
  H  H31  1  0.57474700  0.73190500  0.11188000  1
  H  H32  1  0.75160700  0.74833000  0.28562200  1
  H  H33  1  0.24839300  0.25167000  0.71437800  1
  H  H34  1  0.05705900  0.60089300  0.39112700  1
  H  H35  1  0.94294100  0.39910700  0.60887300  1
  C  C0  1  0.43076400  0.33233300  0.10308500  1
  C  C1  1  0.56923600  0.66766700  0.89691500  1
  C  C2  1  0.07796800  0.20256800  0.14515900  1
  C  C3  1  0.92203200  0.79743200  0.85484100  1
  C  C4  1  0.67809800  0.42450900  0.15346300  1
  C  C5  1  0.32190200  0.57549100  0.84653700  1
  C  C6  1  0.78225300  0.05519200  0.42692600  1
  C  C7  1  0.21774700  0.94480800  0.57307400  1
  C  C8  1  0.70966200  0.14018300  0.56825800  1
  C  C9  1  0.29033800  0.85981700  0.43174200  1
  C  C10  1  0.71376000  0.39404900  0.98558000  1
  C  C11  1  0.28624000  0.60595100  0.01442000  1
  C  C12  1  0.78318500  0.84636700  0.43487400  1
  C  C13  1  0.21681500  0.15363300  0.56512600  1
  C  C14  1  0.60683600  0.38232800  0.07863800  1
  C  C15  1  0.39316400  0.61767200  0.92136200  1
  C  C16  1  0.64505700  0.35454000  0.91643600  1
  C  C17  1  0.35494300  0.64546000  0.08356400  1
  C  C18  1  0.10587400  0.19689700  0.99634800  1
  C  C19  1  0.89412600  0.80310300  0.00365200  1
  C  C20  1  0.48378900  0.97906600  0.78241900  1
  C  C21  1  0.51621100  0.02093400  0.21758100  1
  C  C22  1  0.36670000  0.29000000  0.03467500  1
  C  C23  1  0.63330000  0.71000000  0.96532500  1
  C  C24  1  0.73949200  0.06533800  0.77616800  1
  C  C25  1  0.26050800  0.93466200  0.22383200  1
  C  C26  1  0.68704300  0.03565300  0.62096200  1
  C  C27  1  0.31295700  0.96434700  0.37903800  1
  C  C28  1  0.47414200  0.30005800  0.94218100  1
  C  C29  1  0.52585800  0.69994200  0.05781900  1
  C  C30  1  0.77779400  0.26318700  0.41324700  1
  C  C31  1  0.22220600  0.73681300  0.58675300  1
  C  C32  1  0.71090200  0.94077800  0.57892000  1
  C  C33  1  0.28909800  0.05922200  0.42108000  1
  C  C34  1  0.75712000  0.15015400  0.47017500  1
  C  C35  1  0.24288000  0.84984600  0.52982500  1
  C  C36  1  0.74678700  0.37292300  0.81340400  1
  C  C37  1  0.25321300  0.62707700  0.18659600  1
  C  C38  1  0.75902900  0.95016300  0.48050100  1
  C  C39  1  0.24097100  0.04983700  0.51949900  1
  N  N0  1  0.63914400  0.02620600  0.72159000  1
  N  N1  1  0.36085600  0.97379400  0.27841000  1
  N  N2  1  0.65095200  0.04285900  0.86546200  1
  N  N3  1  0.34904800  0.95714100  0.13453800  1
  N  N4  1  0.19172800  0.23458200  0.05776700  1
  N  N5  1  0.80827200  0.76541800  0.94223300  1
  N  N6  1  0.93390800  0.14773300  0.13860200  1
  N  N7  1  0.06609200  0.85226700  0.86139800  1
  N  N8  1  0.95254400  0.14450200  0.04397800  1
  N  N9  1  0.04745600  0.85549800  0.95602200  1
  N  N10  1  0.48862700  0.98830400  0.86959500  1
  N  N11  1  0.51137300  0.01169600  0.13040500  1
  O  O0  1  0.72456700  0.69682200  0.24527200  1
  O  O1  1  0.27543300  0.30317800  0.75472800  1
  O  O2  1  0.82532300  0.27273400  0.32396600  1
  O  O3  1  0.17467700  0.72726600  0.67603400  1
  O  O4  1  0.55962400  0.43940500  0.23098700  1
  O  O5  1  0.44037600  0.56059500  0.76901300  1
  O  O6  1  0.74916700  0.34822500  0.45574000  1
  O  O7  1  0.25083300  0.65177500  0.54426000  1
  O  O8  1  0.85531800  0.44438400  0.13896000  1
  O  O9  1  0.14468200  0.55561600  0.86104000  1
  O  O10  1  0.92122200  0.58515600  0.41179300  1
  O  O11  1  0.07877800  0.41484400  0.58820700  1
  O  O12  1  0.77934100  0.75430100  0.49085300  1
  O  O13  1  0.22065900  0.24569900  0.50914700  1
  O  O14  1  0.16995200  0.37546800  0.33116100  1
  O  O15  1  0.83004800  0.62453200  0.66883900  1
  O  O16  1  0.80372900  0.85698200  0.34628800  1
  O  O17  1  0.19627100  0.14301800  0.65371200  1
  O  O18  1  0.48939700  0.54438400  0.39106500  1
  O  O19  1  0.51060300  0.45561600  0.60893500  1
  O  O20  1  0.89509600  0.42838400  0.79381500  1
  O  O21  1  0.10490400  0.57161600  0.20618500  1
  O  O22  1  0.67845100  0.33438800  0.75368900  1
  O  O23  1  0.32154900  0.66561200  0.24631100  1
loop_
_geom_bond_atom_site_label_1
_geom_bond_atom_site_label_2
_geom_bond_distance
_geom_bond_site_symmetry_2
Nd0 O21 2.383323 1_655
Nd0 O10 2.415181 1_555
Nd0 O8 2.527628 1_555
Nd0 O6 2.532476 1_555
Nd0 O2 2.552687 1_555
Nd0 O4 2.569432 1_555
Nd0 O18 2.589349 1_555
Nd0 O14 2.688776 1_655
Nd0 O0 2.724745 1_555
Nd1 O20 2.383323 1_455
Nd1 O11 2.415181 1_555
Nd1 O9 2.527628 1_555
Nd1 O7 2.532476 1_555
Nd1 O3 2.552687 1_555
Nd1 O5 2.569432 1_555
Nd1 O19 2.589349 1_555
Nd1 O15 2.688776 1_455
Nd1 O1 2.724745 1_555
Ag0 N2 2.180584 1_555
Ag0 N8 2.183399 1_556
Ag0 N11 2.377895 1_556
Ag1 N3 2.180584 1_555
Ag1 N9 2.183399 1_554
Ag1 N10 2.377895 1_554
H4 O14 0.987472 1_555
H5 O15 0.987472 1_555
H8 O18 0.990703 1_555
H9 O19 0.990703 1_555
H16 O18 0.985120 1_555
H17 O19 0.985120 1_555
H20 O10 1.025503 1_555
H20 O12 1.543559 1_555
H21 O11 1.025503 1_555
H21 O13 1.543559 1_555
H22 O14 0.986279 1_555
H23 O15 0.986279 1_555
H26 O0 0.985372 1_555
H27 O1 0.985372 1_555
H32 O0 1.000893 1_555
H33 O1 1.000893 1_555
H34 O10 0.974468 1_455
H35 O11 0.974468 1_655
C0 H10 1.088037 1_555
C0 C22 1.392769 1_555
C0 C14 1.400086 1_555
C1 H11 1.088037 1_555
C1 C23 1.392769 1_555
C1 C15 1.400086 1_555
C2 H2 1.084171 1_555
C2 N6 1.315760 1_455
C2 N4 1.374782 1_555
C3 H3 1.084171 1_555
C3 N7 1.315760 1_655
C3 N5 1.374782 1_555
C4 O8 1.272852 1_555
C4 O4 1.284889 1_555
C5 O9 1.272852 1_555
C5 O5 1.284889 1_555
C6 H6 1.089821 1_555
C7 H7 1.089821 1_555
C8 H14 1.088391 1_555
C9 H15 1.088391 1_555
C10 H18 1.090172 1_555
C10 C14 1.401042 1_556
C10 C16 1.401920 1_555
C11 H19 1.090172 1_555
C11 C15 1.401042 1_554
C11 C17 1.401920 1_555
C12 O16 1.266979 1_555
C12 O12 1.282573 1_555
C12 C38 1.520865 1_555
C13 O17 1.266979 1_555
C13 O13 1.282573 1_555
C13 C39 1.520865 1_555
C14 C4 1.501493 1_555
C15 C5 1.501493 1_555
C16 C28 1.395931 1_555
C16 C36 1.516673 1_555
C17 C29 1.395931 1_555
C17 C37 1.516673 1_555
C18 H28 1.086859 1_555
C18 N8 1.320811 1_456
C18 N4 1.366548 1_556
C19 H29 1.086859 1_555
C19 N9 1.320811 1_654
C19 N5 1.366548 1_554
C20 H12 1.086163 1_555
C20 N10 1.319077 1_555
C20 N0 1.367134 1_565
C21 H13 1.086163 1_555
C21 N11 1.319077 1_555
C21 N1 1.367134 1_545
C22 C28 1.395573 1_554
C22 N4 1.427990 1_555
C23 C29 1.395573 1_556
C23 N5 1.427990 1_555
C24 H0 1.088699 1_555
C24 N2 1.319922 1_555
C24 N0 1.363715 1_555
C25 H1 1.088699 1_555
C25 N3 1.319922 1_555
C25 N1 1.363715 1_555
C26 C8 1.390304 1_555
C26 C32 1.392009 1_545
C26 N0 1.432570 1_555
C27 C9 1.390304 1_555
C27 C33 1.392009 1_565
C27 N1 1.432570 1_555
C28 H30 1.084381 1_555
C29 H31 1.084381 1_555
C30 O2 1.270984 1_555
C30 O6 1.285804 1_555
C30 C34 1.500963 1_555
C31 O3 1.270984 1_555
C31 O7 1.285804 1_555
C31 C35 1.500963 1_555
C32 H24 1.089381 1_555
C32 C38 1.401114 1_555
C33 H25 1.089381 1_555
C33 C39 1.401114 1_555
C34 C8 1.395771 1_555
C34 C6 1.402431 1_555
C35 C9 1.395771 1_555
C35 C7 1.402431 1_555
C36 O20 1.268877 1_555
C36 O22 1.275264 1_555
C37 O21 1.268877 1_555
C37 O23 1.275264 1_555
C38 C6 1.400691 1_565
C39 C7 1.400691 1_545
N6 N8 1.379078 1_555
N7 N9 1.379078 1_555
N10 N2 1.381342 1_565
N11 N3 1.381342 1_545
