# generated using pymatgen
data_Na2CaH4(CO4)2
_symmetry_space_group_name_H-M   'P 1'
_cell_length_a   11.61310347
_cell_length_b   10.55471025
_cell_length_c   6.46943958
_cell_angle_alpha   82.26045127
_cell_angle_beta   64.23478718
_cell_angle_gamma   33.50476155
_symmetry_Int_Tables_number   1
_chemical_formula_structural   Na2CaH4(CO4)2
_chemical_formula_sum   'Na4 Ca2 H8 C4 O16'
_cell_volume   350.39295667
_cell_formula_units_Z   2
loop_
 _symmetry_equiv_pos_site_id
 _symmetry_equiv_pos_as_xyz
  1  'x, y, z'
loop_
 _atom_site_type_symbol
 _atom_site_label
 _atom_site_symmetry_multiplicity
 _atom_site_fract_x
 _atom_site_fract_y
 _atom_site_fract_z
 _atom_site_occupancy
  Na  Na0  1  0.56565700  0.71006100  0.80423200  1
  Na  Na1  1  0.92005000  0.80423200  0.71006100  1
  Na  Na2  1  0.44576800  0.32995000  0.68434300  1
  Na  Na3  1  0.53993900  0.68434300  0.32995000  1
  Ca  Ca0  1  0.25176200  0.24823800  0.24823800  1
  Ca  Ca1  1  0.00176200  0.99823800  0.99823800  1
  H  H0  1  0.30579800  0.64970300  0.41424600  1
  H  H1  1  0.63025300  0.41424600  0.64970300  1
  H  H2  1  0.83575400  0.61974700  0.94420200  1
  H  H3  1  0.60029700  0.94420200  0.61974700  1
  H  H4  1  0.08275700  0.94351900  0.47206300  1
  H  H5  1  0.50166100  0.47206300  0.94351900  1
  H  H6  1  0.77793700  0.74833900  0.16724300  1
  H  H7  1  0.30648100  0.16724300  0.74833900  1
  C  C0  1  0.46040600  0.31164300  0.20641800  1
  C  C1  1  0.02153400  0.20641800  0.31164300  1
  C  C2  1  0.04358200  0.22846600  0.78959400  1
  C  C3  1  0.93835700  0.78959400  0.22846600  1
  O  O0  1  0.50041800  0.23198400  0.00918700  1
  O  O1  1  0.25841200  0.00918700  0.23198400  1
  O  O2  1  0.24081300  0.99158800  0.74958200  1
  O  O3  1  0.01801600  0.74958200  0.99158800  1
  O  O4  1  0.33046400  0.35690900  0.42918200  1
  O  O5  1  0.88344500  0.42918200  0.35690900  1
  O  O6  1  0.82081800  0.36655500  0.91953600  1
  O  O7  1  0.89309100  0.91953600  0.36655500  1
  O  O8  1  0.54694300  0.35014400  0.18173700  1
  O  O9  1  0.92117500  0.18173700  0.35014400  1
  O  O10  1  0.06826300  0.32882500  0.70305700  1
  O  O11  1  0.89985600  0.70305700  0.32882500  1
  O  O12  1  0.42548000  0.08575700  0.78937800  1
  O  O13  1  0.69938500  0.78937800  0.08575700  1
  O  O14  1  0.46062200  0.55061500  0.82452000  1
  O  O15  1  0.16424300  0.82452000  0.55061500  1
loop_
_geom_bond_atom_site_label_1
_geom_bond_atom_site_label_2
_geom_bond_distance
_geom_bond_site_symmetry_2
Na0 O1 2.310747 1_566
Na0 O2 2.316973 1_555
Na0 O5 2.358704 1_555
Na0 O6 2.399729 1_555
Na1 O0 2.310746 1_566
Na1 O3 2.316966 1_655
Na1 O4 2.358704 1_655
Na1 O7 2.399729 1_555
Na2 O3 2.310745 1_555
Na2 O0 2.316972 1_556
Na2 O7 2.358704 1_545
Na2 O4 2.399729 1_555
Na3 O2 2.310743 1_555
Na3 O1 2.316969 1_565
Na3 O6 2.358704 1_554
Na3 O5 2.399729 1_555
Ca0 O1 2.474384 1_555
Ca0 O10 2.474386 1_555
Ca0 O11 2.474387 1_455
Ca0 O0 2.474393 1_555
Ca0 O12 2.493657 1_554
Ca0 O13 2.493657 1_545
Ca0 O5 2.561503 1_455
Ca0 O4 2.561503 1_555
Ca1 O9 2.474381 1_466
Ca1 O2 2.474385 1_555
Ca1 O8 2.474389 1_466
Ca1 O3 2.474394 1_555
Ca1 O15 2.493657 1_555
Ca1 O14 2.493657 1_555
Ca1 O7 2.561503 1_456
Ca1 O6 2.561503 1_465
H0 O15 1.002216 1_555
H1 O14 1.002216 1_555
H2 O13 1.002216 1_556
H3 O12 1.002216 1_565
H4 O15 0.997653 1_555
H5 O14 0.997653 1_555
H6 O13 0.997653 1_555
H7 O12 0.997653 1_555
C0 O0 1.293409 1_555
C0 O4 1.294148 1_555
C0 O8 1.313261 1_555
C1 O1 1.293409 1_555
C1 O5 1.294144 1_455
C1 O9 1.313283 1_455
C2 O2 1.293409 1_545
C2 O6 1.294143 1_455
C2 O10 1.313281 1_555
C3 O3 1.293409 1_654
C3 O7 1.294152 1_555
C3 O11 1.313264 1_555
