# generated using pymatgen
data_Cl(OF)2
_symmetry_space_group_name_H-M   'P 1'
_cell_length_a   8.28502906
_cell_length_b   8.28502906
_cell_length_c   5.01062738
_cell_angle_alpha   88.46322688
_cell_angle_beta   88.46322688
_cell_angle_gamma   105.10599706
_symmetry_Int_Tables_number   1
_chemical_formula_structural   Cl(OF)2
_chemical_formula_sum   'Cl4 O8 F8'
_cell_volume   331.73020310
_cell_formula_units_Z   4
loop_
 _symmetry_equiv_pos_site_id
 _symmetry_equiv_pos_as_xyz
  1  'x, y, z'
loop_
 _atom_site_type_symbol
 _atom_site_label
 _atom_site_symmetry_multiplicity
 _atom_site_fract_x
 _atom_site_fract_y
 _atom_site_fract_z
 _atom_site_occupancy
  Cl  Cl0  1  0.70956500  0.70956500  0.43322500  1
  Cl  Cl1  1  0.29043500  0.29043500  0.56677500  1
  Cl  Cl2  1  0.79976900  0.20023100  0.00000000  1
  Cl  Cl3  1  0.20023100  0.79976900  0.00000000  1
  O  O0  1  0.56487400  0.75095400  0.33480000  1
  O  O1  1  0.43512600  0.24904600  0.66520000  1
  O  O2  1  0.24904600  0.43512600  0.66520000  1
  O  O3  1  0.75095400  0.56487400  0.33480000  1
  O  O4  1  0.65763600  0.16926800  0.17882600  1
  O  O5  1  0.34236400  0.83073200  0.82117400  1
  O  O6  1  0.83073200  0.34236400  0.82117400  1
  O  O7  1  0.16926800  0.65763600  0.17882600  1
  F  F0  1  0.35901500  0.35901500  0.22053900  1
  F  F1  1  0.64098500  0.64098500  0.77946100  1
  F  F2  1  0.87963400  0.87963400  0.28021400  1
  F  F3  1  0.12036600  0.12036600  0.71978600  1
  F  F4  1  0.26198600  0.97432400  0.22820100  1
  F  F5  1  0.73801400  0.02567600  0.77179900  1
  F  F6  1  0.02567600  0.73801400  0.77179900  1
  F  F7  1  0.97432400  0.26198600  0.22820100  1
loop_
_geom_bond_atom_site_label_1
_geom_bond_atom_site_label_2
_geom_bond_distance
_geom_bond_site_symmetry_2
Cl0 O0 1.426445 1_555
Cl0 O3 1.426445 1_555
Cl0 F1 1.838859 1_555
Cl0 F2 1.846033 1_555
Cl1 O2 1.426445 1_555
Cl1 O1 1.426445 1_555
Cl1 F0 1.838859 1_555
Cl1 F3 1.846033 1_555
Cl2 O4 1.424426 1_555
Cl2 O6 1.424426 1_554
Cl2 F7 1.842579 1_555
Cl2 F5 1.842579 1_554
Cl3 O7 1.424426 1_555
Cl3 O5 1.424426 1_554
Cl3 F4 1.842579 1_555
Cl3 F6 1.842579 1_554
