# generated using pymatgen
data_Ta8CoSe8
_symmetry_space_group_name_H-M   'P 1'
_cell_length_a   3.44984200
_cell_length_b   17.06125200
_cell_length_c   22.74242500
_cell_angle_alpha   90.00000000
_cell_angle_beta   90.00000000
_cell_angle_gamma   90.00000000
_symmetry_Int_Tables_number   1
_chemical_formula_structural   Ta8CoSe8
_chemical_formula_sum   'Ta32 Co4 Se32'
_cell_volume   1338.58783560
_cell_formula_units_Z   4
loop_
 _symmetry_equiv_pos_site_id
 _symmetry_equiv_pos_as_xyz
  1  'x, y, z'
loop_
 _atom_site_type_symbol
 _atom_site_label
 _atom_site_symmetry_multiplicity
 _atom_site_fract_x
 _atom_site_fract_y
 _atom_site_fract_z
 _atom_site_occupancy
  Ta  Ta0  1  0.25000000  0.33430000  0.51693100  1
  Ta  Ta1  1  0.25000000  0.16570000  0.01693100  1
  Ta  Ta2  1  0.75000000  0.66570000  0.48306900  1
  Ta  Ta3  1  0.75000000  0.83430000  0.98306900  1
  Ta  Ta4  1  0.25000000  0.31725400  0.94259600  1
  Ta  Ta5  1  0.25000000  0.18274600  0.44259600  1
  Ta  Ta6  1  0.75000000  0.68274600  0.05740400  1
  Ta  Ta7  1  0.75000000  0.81725400  0.55740400  1
  Ta  Ta8  1  0.25000000  0.15869600  0.87708300  1
  Ta  Ta9  1  0.25000000  0.34130400  0.37708300  1
  Ta  Ta10  1  0.75000000  0.84130400  0.12291700  1
  Ta  Ta11  1  0.75000000  0.65869600  0.62291700  1
  Ta  Ta12  1  0.25000000  0.54175000  0.54480300  1
  Ta  Ta13  1  0.25000000  0.95825000  0.04480300  1
  Ta  Ta14  1  0.75000000  0.45825000  0.45519700  1
  Ta  Ta15  1  0.75000000  0.04175000  0.95519700  1
  Ta  Ta16  1  0.25000000  0.69653000  0.94587900  1
  Ta  Ta17  1  0.25000000  0.80347000  0.44587900  1
  Ta  Ta18  1  0.75000000  0.30347000  0.05412100  1
  Ta  Ta19  1  0.75000000  0.19653000  0.55412100  1
  Ta  Ta20  1  0.25000000  0.79285700  0.66725200  1
  Ta  Ta21  1  0.25000000  0.70714300  0.16725200  1
  Ta  Ta22  1  0.75000000  0.20714300  0.33274800  1
  Ta  Ta23  1  0.75000000  0.29285700  0.83274800  1
  Ta  Ta24  1  0.25000000  0.43879000  0.81513600  1
  Ta  Ta25  1  0.25000000  0.06121000  0.31513600  1
  Ta  Ta26  1  0.75000000  0.56121000  0.18486400  1
  Ta  Ta27  1  0.75000000  0.93879000  0.68486400  1
  Ta  Ta28  1  0.25000000  0.05205800  0.74544500  1
  Ta  Ta29  1  0.25000000  0.44794200  0.24544500  1
  Ta  Ta30  1  0.75000000  0.94794200  0.25455500  1
  Ta  Ta31  1  0.75000000  0.55205800  0.75455500  1
  Co  Co0  1  0.25000000  0.70907600  0.55442100  1
  Co  Co1  1  0.25000000  0.79092400  0.05442100  1
  Co  Co2  1  0.75000000  0.29092400  0.44557900  1
  Co  Co3  1  0.75000000  0.20907600  0.94557900  1
  Se  Se0  1  0.25000000  0.93112000  0.92608400  1
  Se  Se1  1  0.25000000  0.56888000  0.42608400  1
  Se  Se2  1  0.75000000  0.06888000  0.07391600  1
  Se  Se3  1  0.75000000  0.43112000  0.57391600  1
  Se  Se4  1  0.25000000  0.26803200  0.62095100  1
  Se  Se5  1  0.25000000  0.23196800  0.12095100  1
  Se  Se6  1  0.75000000  0.73196800  0.37904900  1
  Se  Se7  1  0.75000000  0.76803200  0.87904900  1
  Se  Se8  1  0.25000000  0.08731200  0.53094300  1
  Se  Se9  1  0.25000000  0.41268800  0.03094300  1
  Se  Se10  1  0.75000000  0.91268800  0.46905700  1
  Se  Se11  1  0.75000000  0.58731200  0.96905700  1
  Se  Se12  1  0.25000000  0.92434900  0.59789300  1
  Se  Se13  1  0.25000000  0.57565100  0.09789300  1
  Se  Se14  1  0.75000000  0.07565100  0.40210700  1
  Se  Se15  1  0.75000000  0.42434900  0.90210700  1
  Se  Se16  1  0.25000000  0.89576200  0.76365200  1
  Se  Se17  1  0.25000000  0.60423800  0.26365200  1
  Se  Se18  1  0.75000000  0.10423800  0.23634800  1
  Se  Se19  1  0.75000000  0.39576200  0.73634800  1
  Se  Se20  1  0.25000000  0.21290900  0.76890300  1
  Se  Se21  1  0.25000000  0.28709100  0.26890300  1
  Se  Se22  1  0.75000000  0.78709100  0.23109700  1
  Se  Se23  1  0.75000000  0.71290900  0.73109700  1
  Se  Se24  1  0.25000000  0.59065400  0.83515500  1
  Se  Se25  1  0.25000000  0.90934600  0.33515500  1
  Se  Se26  1  0.75000000  0.40934600  0.16484500  1
  Se  Se27  1  0.75000000  0.09065400  0.66484500  1
  Se  Se28  1  0.25000000  0.54971800  0.66248600  1
  Se  Se29  1  0.25000000  0.95028200  0.16248600  1
  Se  Se30  1  0.75000000  0.45028200  0.33751400  1
  Se  Se31  1  0.75000000  0.04971800  0.83751400  1
loop_
_geom_bond_atom_site_label_1
_geom_bond_atom_site_label_2
_geom_bond_distance
_geom_bond_site_symmetry_2
Co0 Ta11 2.478065 1_555
Co0 Ta11 2.478065 1_455
Co0 Ta2 2.481177 1_555
Co0 Ta2 2.481177 1_455
Co0 Ta7 2.527130 1_455
Co0 Ta7 2.527130 1_555
Co0 Ta12 2.863159 1_555
Co0 Ta20 2.937316 1_555
Co0 Ta17 2.947402 1_555
Co1 Ta10 2.478065 1_555
Co1 Ta10 2.478065 1_455
Co1 Ta3 2.481177 1_554
Co1 Ta3 2.481177 1_454
Co1 Ta6 2.527130 1_455
Co1 Ta6 2.527130 1_555
Co1 Ta13 2.863159 1_555
Co1 Ta21 2.937316 1_555
Co1 Ta16 2.947402 1_554
Co2 Ta9 2.478065 1_555
Co2 Ta9 2.478065 1_655
Co2 Ta0 2.481177 1_555
Co2 Ta0 2.481177 1_655
Co2 Ta5 2.527130 1_655
Co2 Ta5 2.527130 1_555
Co2 Ta14 2.863159 1_555
Co2 Ta22 2.937316 1_555
Co2 Ta19 2.947402 1_555
Co3 Ta8 2.478065 1_655
Co3 Ta8 2.478065 1_555
Co3 Ta1 2.481177 1_656
Co3 Ta1 2.481177 1_556
Co3 Ta4 2.527130 1_555
Co3 Ta4 2.527130 1_655
Co3 Ta15 2.863159 1_555
Co3 Ta23 2.937316 1_555
Co3 Ta18 2.947402 1_556
Se0 Ta15 2.641275 1_465
Se0 Ta15 2.641275 1_565
Se0 Ta3 2.717275 1_455
Se0 Ta3 2.717275 1_555
Se0 Ta13 2.739347 1_556
Se1 Ta14 2.641275 1_455
Se1 Ta14 2.641275 1_555
Se1 Ta2 2.717275 1_455
Se1 Ta2 2.717275 1_555
Se1 Ta12 2.739347 1_555
Se2 Ta13 2.641275 1_645
Se2 Ta13 2.641275 1_545
Se2 Ta1 2.717275 1_655
Se2 Ta1 2.717275 1_555
Se2 Ta15 2.739347 1_554
Se3 Ta12 2.641275 1_555
Se3 Ta12 2.641275 1_655
Se3 Ta0 2.717275 1_555
Se3 Ta0 2.717275 1_655
Se3 Ta14 2.739347 1_555
Se4 Ta19 2.602607 1_555
Se4 Ta19 2.602607 1_455
Se4 Ta0 2.621959 1_555
Se5 Ta18 2.602607 1_455
Se5 Ta18 2.602607 1_555
Se5 Ta1 2.621959 1_555
Se6 Ta17 2.602607 1_555
Se6 Ta17 2.602607 1_655
Se6 Ta2 2.621959 1_555
Se7 Ta16 2.602607 1_655
Se7 Ta16 2.602607 1_555
Se7 Ta3 2.621959 1_555
Se8 Ta5 2.586136 1_555
Se8 Ta19 2.593348 1_455
Se8 Ta19 2.593348 1_555
Se9 Ta4 2.586136 1_554
Se9 Ta18 2.593348 1_455
Se9 Ta18 2.593348 1_555
Se10 Ta7 2.586136 1_555
Se10 Ta17 2.593348 1_655
Se10 Ta17 2.593348 1_555
Se11 Ta6 2.586136 1_556
Se11 Ta16 2.593348 1_555
Se11 Ta16 2.593348 1_655
Se12 Ta27 2.635957 1_455
Se12 Ta27 2.635957 1_555
Se12 Ta7 2.676159 1_455
Se12 Ta7 2.676159 1_555
Se12 Ta20 2.742461 1_555
Se13 Ta26 2.635957 1_555
Se13 Ta26 2.635957 1_455
Se13 Ta6 2.676159 1_455
Se13 Ta6 2.676159 1_555
Se13 Ta21 2.742461 1_555
Se14 Ta25 2.635957 1_655
Se14 Ta25 2.635957 1_555
Se14 Ta5 2.676159 1_555
Se14 Ta5 2.676159 1_655
Se14 Ta22 2.742461 1_555
Se15 Ta24 2.635957 1_555
Se15 Ta24 2.635957 1_655
Se15 Ta4 2.676159 1_555
Se15 Ta4 2.676159 1_655
Se15 Ta23 2.742461 1_555
Se16 Ta27 2.593247 1_455
Se16 Ta27 2.593247 1_555
Se16 Ta28 2.698563 1_565
Se16 Ta20 2.808723 1_555
Se17 Ta26 2.593247 1_555
Se17 Ta26 2.593247 1_455
Se17 Ta29 2.698563 1_555
Se17 Ta21 2.808723 1_555
Se18 Ta25 2.593247 1_555
Se18 Ta25 2.593247 1_655
Se18 Ta30 2.698563 1_545
Se18 Ta22 2.808723 1_555
Se19 Ta24 2.593247 1_655
Se19 Ta24 2.593247 1_555
Se19 Ta31 2.698563 1_555
Se19 Ta23 2.808723 1_555
Se20 Ta8 2.628397 1_555
Se20 Ta23 2.635177 1_555
Se20 Ta23 2.635177 1_455
Se20 Ta28 2.795694 1_555
Se21 Ta9 2.628397 1_555
Se21 Ta22 2.635177 1_455
Se21 Ta22 2.635177 1_555
Se21 Ta29 2.795694 1_555
Se22 Ta10 2.628397 1_555
Se22 Ta21 2.635177 1_655
Se22 Ta21 2.635177 1_555
Se22 Ta30 2.795694 1_555
Se23 Ta11 2.628397 1_555
Se23 Ta20 2.635177 1_655
Se23 Ta20 2.635177 1_555
Se23 Ta31 2.795694 1_555
Se24 Ta31 2.601731 1_555
Se24 Ta31 2.601731 1_455
Se24 Ta24 2.630686 1_555
Se24 Ta16 3.099030 1_555
Se25 Ta30 2.601731 1_555
Se25 Ta30 2.601731 1_455
Se25 Ta25 2.630686 1_565
Se25 Ta17 3.099030 1_555
Se26 Ta29 2.601731 1_655
Se26 Ta29 2.601731 1_555
Se26 Ta26 2.630686 1_555
Se26 Ta18 3.099030 1_555
Se27 Ta28 2.601731 1_655
Se27 Ta28 2.601731 1_555
Se27 Ta27 2.630686 1_545
Se27 Ta19 3.099030 1_555
Se28 Ta12 2.679847 1_555
Se28 Ta11 2.691127 1_555
Se28 Ta11 2.691127 1_455
Se28 Ta31 2.713162 1_455
Se28 Ta31 2.713162 1_555
Se29 Ta13 2.679847 1_555
Se29 Ta10 2.691127 1_455
Se29 Ta10 2.691127 1_555
Se29 Ta30 2.713162 1_555
Se29 Ta30 2.713162 1_455
Se30 Ta14 2.679847 1_555
Se30 Ta9 2.691127 1_555
Se30 Ta9 2.691127 1_655
Se30 Ta29 2.713162 1_555
Se30 Ta29 2.713162 1_655
Se31 Ta15 2.679847 1_555
Se31 Ta8 2.691127 1_655
Se31 Ta8 2.691127 1_555
Se31 Ta28 2.713162 1_655
Se31 Ta28 2.713162 1_555
