# generated using pymatgen
data_Li7Mn5O12
_symmetry_space_group_name_H-M   'P 1'
_cell_length_a   6.46069984
_cell_length_b   6.46069984
_cell_length_c   12.10964500
_cell_angle_alpha   76.16010920
_cell_angle_beta   76.16010920
_cell_angle_gamma   26.80213979
_symmetry_Int_Tables_number   1
_chemical_formula_structural   Li7Mn5O12
_chemical_formula_sum   'Li7 Mn5 O12'
_cell_volume   220.92086193
_cell_formula_units_Z   1
loop_
 _symmetry_equiv_pos_site_id
 _symmetry_equiv_pos_as_xyz
  1  'x, y, z'
loop_
 _atom_site_type_symbol
 _atom_site_label
 _atom_site_symmetry_multiplicity
 _atom_site_fract_x
 _atom_site_fract_y
 _atom_site_fract_z
 _atom_site_occupancy
  Li  Li0  1  0.99888300  0.99888300  0.26198500  1
  Li  Li1  1  0.66606700  0.66606700  0.07974100  1
  Li  Li2  1  0.33393300  0.33393300  0.92025900  1
  Li  Li3  1  0.00111700  0.00111700  0.73801500  1
  Li  Li4  1  0.65704000  0.65704000  0.58632300  1
  Li  Li5  1  0.34296000  0.34296000  0.41367700  1
  Li  Li6  1  0.00000000  0.00000000  0.50000000  1
  Mn  Mn0  1  0.33754500  0.33754500  0.65942900  1
  Mn  Mn1  1  0.66245500  0.66245500  0.34057100  1
  Mn  Mn2  1  0.33542000  0.33542000  0.17153100  1
  Mn  Mn3  1  0.00000000  0.00000000  0.00000000  1
  Mn  Mn4  1  0.66458000  0.66458000  0.82846900  1
  O  O0  1  0.84057000  0.84057000  0.04272900  1
  O  O1  1  0.50724600  0.50724600  0.87611800  1
  O  O2  1  0.17266600  0.17266600  0.70826300  1
  O  O3  1  0.83157700  0.83157700  0.55811100  1
  O  O4  1  0.51296300  0.51296300  0.37039000  1
  O  O5  1  0.17560600  0.17560600  0.22220100  1
  O  O6  1  0.16842300  0.16842300  0.44188900  1
  O  O7  1  0.82733400  0.82733400  0.29173700  1
  O  O8  1  0.49275400  0.49275400  0.12388200  1
  O  O9  1  0.15943000  0.15943000  0.95727100  1
  O  O10  1  0.82439400  0.82439400  0.77779900  1
  O  O11  1  0.48703700  0.48703700  0.62961000  1
loop_
_geom_bond_atom_site_label_1
_geom_bond_atom_site_label_2
_geom_bond_distance
_geom_bond_site_symmetry_2
Li0 O4 2.027562 1_565
Li0 O4 2.027562 1_655
Li0 O7 2.096985 1_555
Li0 O5 2.154089 1_665
Li0 O8 2.260148 1_655
Li0 O8 2.260148 1_565
Li1 O8 2.111578 1_555
Li1 O9 2.123539 1_564
Li1 O9 2.123539 1_654
Li1 O0 2.128030 1_555
Li1 O5 2.309618 1_655
Li1 O5 2.309618 1_565
Li2 O1 2.111578 1_555
Li2 O0 2.123539 1_456
Li2 O0 2.123539 1_546
Li2 O9 2.128030 1_555
Li2 O10 2.309618 1_455
Li2 O10 2.309618 1_545
Li3 O11 2.027562 1_545
Li3 O11 2.027562 1_455
Li3 O2 2.096985 1_555
Li3 O10 2.154089 1_445
Li3 O1 2.260148 1_545
Li3 O1 2.260148 1_455
Li4 O11 2.071250 1_555
Li4 O3 2.135674 1_555
Li4 O2 2.145655 1_565
Li4 O2 2.145655 1_655
Li4 O6 2.280060 1_655
Li4 O6 2.280060 1_565
Li5 O4 2.071250 1_555
Li5 O6 2.135674 1_555
Li5 O7 2.145655 1_455
Li5 O7 2.145655 1_545
Li5 O3 2.280060 1_545
Li5 O3 2.280060 1_455
Li6 O6 2.060154 1_555
Li6 O3 2.060154 1_445
Li6 O4 2.146234 1_545
Li6 O4 2.146234 1_455
Li6 O11 2.146234 1_545
Li6 O11 2.146234 1_455
Mn0 O11 1.824148 1_555
Mn0 O3 1.948938 1_545
Mn0 O3 1.948938 1_455
Mn0 O2 2.010483 1_555
Mn0 O10 2.051244 1_545
Mn0 O10 2.051244 1_455
Mn1 O4 1.824148 1_555
Mn1 O6 1.948938 1_655
Mn1 O6 1.948938 1_565
Mn1 O7 2.010483 1_555
Mn1 O5 2.051244 1_565
Mn1 O5 2.051244 1_655
Mn2 O8 1.919041 1_555
Mn2 O5 1.950782 1_555
Mn2 O7 2.073309 1_455
Mn2 O7 2.073309 1_545
Mn2 O0 2.151619 1_545
Mn2 O0 2.151619 1_455
Mn3 O0 1.942589 1_445
Mn3 O9 1.942589 1_554
Mn3 O8 2.105640 1_455
Mn3 O8 2.105640 1_545
Mn3 O1 2.105640 1_544
Mn3 O1 2.105640 1_454
Mn4 O1 1.919041 1_555
Mn4 O10 1.950782 1_555
Mn4 O2 2.073309 1_565
Mn4 O2 2.073309 1_655
Mn4 O9 2.151619 1_655
Mn4 O9 2.151619 1_565
