# generated using pymatgen
data_CaDyV4O12
_symmetry_space_group_name_H-M   'P 1'
_cell_length_a   5.26701463
_cell_length_b   5.26701463
_cell_length_c   7.50699239
_cell_angle_alpha   90.00000000
_cell_angle_beta   90.00000000
_cell_angle_gamma   90.49621024
_symmetry_Int_Tables_number   1
_chemical_formula_structural   CaDyV4O12
_chemical_formula_sum   'Ca1 Dy1 V4 O12'
_cell_volume   208.24699251
_cell_formula_units_Z   1
loop_
 _symmetry_equiv_pos_site_id
 _symmetry_equiv_pos_as_xyz
  1  'x, y, z'
loop_
 _atom_site_type_symbol
 _atom_site_label
 _atom_site_symmetry_multiplicity
 _atom_site_fract_x
 _atom_site_fract_y
 _atom_site_fract_z
 _atom_site_occupancy
  Ca  Ca0  1  0.48562663  0.51437337  0.00000000  1
  Dy  Dy0  1  0.02311659  0.97688341  0.50000000  1
  V  V0  1  0.49994873  0.00682378  0.24748915  1
  V  V1  1  0.49994873  0.00682378  0.75251085  1
  V  V2  1  0.99317622  0.50005127  0.75251085  1
  V  V3  1  0.99317622  0.50005127  0.24748915  1
  O  O0  1  0.28669177  0.28612608  0.24969156  1
  O  O1  1  0.71387392  0.71330823  0.24969156  1
  O  O2  1  0.71387392  0.71330823  0.75030844  1
  O  O3  1  0.28669177  0.28612608  0.75030844  1
  O  O4  1  0.21405385  0.78594615  0.21986176  1
  O  O5  1  0.79603313  0.20396687  0.29415832  1
  O  O6  1  0.79603313  0.20396687  0.70584168  1
  O  O7  1  0.21405385  0.78594615  0.78013824  1
  O  O8  1  0.54053710  0.04000553  0.00000000  1
  O  O9  1  0.45154395  0.97497398  0.50000000  1
  O  O10  1  0.95999447  0.45946290  -0.00000000  1
  O  O11  1  0.02502602  0.54845605  0.50000000  1
loop_
_geom_bond_atom_site_label_1
_geom_bond_atom_site_label_2
_geom_bond_distance
_geom_bond_site_symmetry_2
Ca0 O1 2.456581 1_555
Ca0 O2 2.456581 1_554
Ca0 O0 2.456581 1_555
Ca0 O3 2.456581 1_554
Ca0 O10 2.517673 1_555
Ca0 O8 2.517673 1_555
Ca0 O4 2.617547 1_555
Ca0 O7 2.617547 1_554
Ca0 O8 2.781085 1_565
Ca0 O10 2.781085 1_455
Dy0 O11 2.256643 1_555
Dy0 O9 2.256643 1_555
Dy0 O6 2.296445 1_465
Dy0 O5 2.296445 1_465
Dy0 O4 2.542214 1_555
Dy0 O7 2.542214 1_555
O0 V0 1.858666 1_555
O0 V3 1.920929 1_455
O1 V3 1.858666 1_555
O1 V0 1.920929 1_565
O2 V2 1.858666 1_555
O2 V1 1.920929 1_565
O3 V1 1.858666 1_555
O3 V2 1.920929 1_455
O4 V3 1.906191 1_455
O4 V0 1.906191 1_565
O5 V0 1.898646 1_555
O5 V3 1.898646 1_555
O6 V1 1.898646 1_555
O6 V2 1.898646 1_555
O7 V2 1.906191 1_455
O7 V1 1.906191 1_565
O8 V0 1.878134 1_555
O8 V1 1.878134 1_554
O9 V1 1.919814 1_565
O9 V0 1.919814 1_565
O10 V3 1.878134 1_555
O10 V2 1.878134 1_554
O11 V2 1.919814 1_455
O11 V3 1.919814 1_455
