# generated using pymatgen
data_TbAl4
_symmetry_space_group_name_H-M   'P 1'
_cell_length_a   7.82144679
_cell_length_b   7.82144679
_cell_length_c   7.82144679
_cell_angle_alpha   147.22901145
_cell_angle_beta   132.83403474
_cell_angle_gamma   58.61958620
_symmetry_Int_Tables_number   1
_chemical_formula_structural   TbAl4
_chemical_formula_sum   'Tb2 Al8'
_cell_volume   188.35402659
_cell_formula_units_Z   2
loop_
 _symmetry_equiv_pos_site_id
 _symmetry_equiv_pos_as_xyz
  1  'x, y, z'
loop_
 _atom_site_type_symbol
 _atom_site_label
 _atom_site_symmetry_multiplicity
 _atom_site_fract_x
 _atom_site_fract_y
 _atom_site_fract_z
 _atom_site_occupancy
  Tb  Tb0  1  0.63724099  0.88724099  0.75000000  1
  Tb  Tb1  1  0.36275901  0.11275901  0.25000000  1
  Al  Al0  1  -0.00000000  0.50000000  0.50000000  1
  Al  Al1  1  0.50000000  0.50000000  -0.00000000  1
  Al  Al2  1  0.86339676  0.11339676  0.75000000  1
  Al  Al3  1  0.13660324  0.88660324  0.25000000  1
  Al  Al4  1  0.16105893  0.69825506  0.46280387  1
  Al  Al5  1  0.83894107  0.30174494  0.53719613  1
  Al  Al6  1  0.26454881  0.30174494  0.96280387  1
  Al  Al7  1  0.73545119  0.69825506  0.03719613  1
loop_
_geom_bond_atom_site_label_1
_geom_bond_atom_site_label_2
_geom_bond_distance
_geom_bond_site_symmetry_2
Al0 Al5 2.714275 1_455
Al0 Al4 2.714275 1_555
Al0 Tb0 3.111576 1_455
Al0 Tb1 3.111576 1_555
Al0 Tb0 3.111576 1_444
Al0 Tb1 3.111576 1_566
Al0 Al3 3.115885 1_556
Al0 Al3 3.115885 1_545
Al0 Al2 3.115885 1_454
Al0 Al2 3.115885 1_465
Al0 Al1 3.129180 1_556
Al0 Al1 3.129180 1_455
Al1 Al6 2.714275 1_554
Al1 Al7 2.714275 1_555
Al1 Tb0 3.111576 1_544
Al1 Tb1 3.111576 1_565
Al1 Tb0 3.111576 1_555
Al1 Tb1 3.111576 1_554
Al1 Al2 3.115885 1_554
Al1 Al3 3.115885 1_555
Al1 Al3 3.115885 1_544
Al1 Al2 3.115885 1_565
Al2 Al7 2.825206 1_556
Al2 Al4 2.825206 1_656
Al2 Al4 2.825206 1_645
Al2 Al7 2.825206 1_545
Al2 Al6 2.893818 1_655
Al2 Al5 2.893818 1_555
Al2 Tb0 3.084850 1_545
Al2 Tb1 3.129192 1_555
Al2 Tb1 3.129192 1_656
Al3 Al5 2.825206 1_454
Al3 Al6 2.825206 1_565
Al3 Al5 2.825206 1_465
Al3 Al6 2.825206 1_554
Al3 Al7 2.893818 1_455
Al3 Al4 2.893818 1_555
Al3 Tb1 3.084850 1_565
Al3 Tb0 3.129192 1_555
Al3 Tb0 3.129192 1_454
Al4 Al6 2.619354 1_554
Al4 Al6 2.619354 1_565
Al4 Al7 2.663606 1_455
Al4 Tb1 3.075527 1_555
Al4 Tb1 3.075527 1_566
Al4 Tb0 3.142582 1_555
Al5 Al7 2.619354 1_545
Al5 Al7 2.619354 1_556
Al5 Al6 2.663606 1_655
Al5 Tb0 3.075527 1_555
Al5 Tb0 3.075527 1_544
Al5 Tb1 3.142582 1_555
Al6 Tb0 3.075527 1_545
Al6 Tb0 3.075527 1_556
Al6 Tb1 3.142582 1_556
Al7 Tb1 3.075527 1_554
Al7 Tb1 3.075527 1_565
Al7 Tb0 3.142582 1_554
