# generated using pymatgen
data_Li5Fe3(OF5)2
_symmetry_space_group_name_H-M   'P 1'
_cell_length_a   5.15058700
_cell_length_b   5.56364879
_cell_length_c   8.94044856
_cell_angle_alpha   105.86716347
_cell_angle_beta   90.21232389
_cell_angle_gamma   117.43010513
_symmetry_Int_Tables_number   1
_chemical_formula_structural   Li5Fe3(OF5)2
_chemical_formula_sum   'Li5 Fe3 O2 F10'
_cell_volume   216.19339726
_cell_formula_units_Z   1
loop_
 _symmetry_equiv_pos_site_id
 _symmetry_equiv_pos_as_xyz
  1  'x, y, z'
loop_
 _atom_site_type_symbol
 _atom_site_label
 _atom_site_symmetry_multiplicity
 _atom_site_fract_x
 _atom_site_fract_y
 _atom_site_fract_z
 _atom_site_occupancy
  Li  Li0  1  0.13549200  0.85577700  0.58147300  1
  Li  Li1  1  0.42126100  0.91950500  0.16689300  1
  Li  Li2  1  0.33656100  0.37781500  0.67284600  1
  Li  Li3  1  0.62006500  0.59110600  0.30810400  1
  Li  Li4  1  0.67409500  0.11967000  0.82702400  1
  Fe  Fe0  1  0.15788300  0.39090500  0.07356200  1
  Fe  Fe1  1  0.82760500  0.09384900  0.43643500  1
  Fe  Fe2  1  0.83557400  0.61152500  0.93167300  1
  O  O0  1  0.53963000  0.61736200  0.10839100  1
  O  O1  1  0.79479500  0.26213800  0.02567100  1
  F  F0  1  0.05215700  0.53598700  0.72425300  1
  F  F1  1  0.04929900  0.03611100  0.22623400  1
  F  F2  1  0.45596500  0.88717900  0.38143400  1
  F  F3  1  0.22269700  0.26915100  0.47021900  1
  F  F4  1  0.23825300  0.79617200  0.97283300  1
  F  F5  1  0.75016500  0.73018600  0.52710100  1
  F  F6  1  0.43905100  0.37832200  0.87187000  1
  F  F7  1  0.57697800  0.13044800  0.61984000  1
  F  F8  1  0.92734000  0.44100600  0.29470500  1
  F  F9  1  0.94513200  0.95578700  0.77944000  1
loop_
_geom_bond_atom_site_label_1
_geom_bond_atom_site_label_2
_geom_bond_distance
_geom_bond_site_symmetry_2
Li1 O0 1.984165 1_555
Li3 O0 1.890494 1_555
Li4 O1 1.713757 1_556
Fe0 O1 1.669090 1_455
Fe0 O0 1.746117 1_555
Fe2 O0 2.203657 1_556
F0 Li2 2.025571 1_555
F0 Fe2 2.209308 1_455
F0 Li0 2.349821 1_555
F1 Fe1 2.227667 1_455
F1 Li1 2.310233 1_545
F1 Fe0 2.556211 1_555
F2 Fe1 1.698225 1_565
F2 Li1 1.989746 1_555
F2 Li3 2.133996 1_555
F2 Li0 2.425002 1_555
F3 Li2 1.748665 1_555
F3 Fe1 1.785857 1_455
F4 Li1 1.763655 1_556
F4 Fe2 1.821253 1_455
F5 Li0 1.786858 1_655
F5 Li3 1.888222 1_555
F5 Fe1 2.250679 1_565
F6 Fe2 1.819770 1_555
F6 Li2 1.853032 1_555
F6 Li4 2.233917 1_555
F6 Fe0 2.323242 1_556
F7 Li4 1.940720 1_555
F7 Li0 2.032158 1_545
F7 Fe1 2.114664 1_555
F7 Li2 2.206784 1_555
F8 Li3 2.093065 1_555
F8 Fe0 2.327592 1_655
F8 Fe1 2.455405 1_555
F9 Li4 1.981457 1_565
F9 Li0 2.092963 1_655
F9 Fe2 2.504951 1_555
