# generated using pymatgen
data_K2RbBiF6
_symmetry_space_group_name_H-M   'P 1'
_cell_length_a   6.95921908
_cell_length_b   6.95921908
_cell_length_c   6.95921908
_cell_angle_alpha   60.00000000
_cell_angle_beta   60.00000000
_cell_angle_gamma   60.00000000
_symmetry_Int_Tables_number   1
_chemical_formula_structural   K2RbBiF6
_chemical_formula_sum   'K2 Rb1 Bi1 F6'
_cell_volume   238.32331268
_cell_formula_units_Z   1
loop_
 _symmetry_equiv_pos_site_id
 _symmetry_equiv_pos_as_xyz
  1  'x, y, z'
loop_
 _atom_site_type_symbol
 _atom_site_label
 _atom_site_symmetry_multiplicity
 _atom_site_fract_x
 _atom_site_fract_y
 _atom_site_fract_z
 _atom_site_occupancy
  K  K0  1  0.75000000  0.75000000  0.75000000  1
  K  K1  1  0.25000000  0.25000000  0.25000000  1
  Rb  Rb0  1  0.50000000  0.50000000  0.50000000  1
  Bi  Bi0  1  0.00000000  0.00000000  0.00000000  1
  F  F0  1  0.76972600  0.23027400  0.23027400  1
  F  F1  1  0.23027400  0.23027400  0.76972600  1
  F  F2  1  0.23027400  0.76972600  0.76972600  1
  F  F3  1  0.23027400  0.76972600  0.23027400  1
  F  F4  1  0.76972600  0.23027400  0.76972600  1
  F  F5  1  0.76972600  0.76972600  0.23027400  1
loop_
_geom_bond_atom_site_label_1
_geom_bond_atom_site_label_2
_geom_bond_distance
_geom_bond_site_symmetry_2
Bi0 F1 2.266316 1_554
Bi0 F3 2.266316 1_545
Bi0 F0 2.266316 1_455
Bi0 F5 2.266316 1_445
Bi0 F2 2.266316 1_544
Bi0 F4 2.266316 1_454
F0 Rb0 2.654595 1_555
F1 Rb0 2.654595 1_555
F2 Rb0 2.654595 1_555
F3 Rb0 2.654595 1_555
F4 Rb0 2.654595 1_555
F5 Rb0 2.654595 1_555
