# generated using pymatgen
data_EuAlAg4
_symmetry_space_group_name_H-M   'P 1'
_cell_length_a   5.68808823
_cell_length_b   5.68808823
_cell_length_c   4.48083207
_cell_angle_alpha   90.00000000
_cell_angle_beta   90.00000000
_cell_angle_gamma   120.00001412
_symmetry_Int_Tables_number   1
_chemical_formula_structural   EuAlAg4
_chemical_formula_sum   'Eu1 Al1 Ag4'
_cell_volume   125.55149460
_cell_formula_units_Z   1
loop_
 _symmetry_equiv_pos_site_id
 _symmetry_equiv_pos_as_xyz
  1  'x, y, z'
loop_
 _atom_site_type_symbol
 _atom_site_label
 _atom_site_symmetry_multiplicity
 _atom_site_fract_x
 _atom_site_fract_y
 _atom_site_fract_z
 _atom_site_occupancy
  Eu  Eu0  1  -0.00000000  0.00000000  0.00000000  1
  Al  Al0  1  0.33333300  0.66666700  0.00000000  1
  Ag  Ag0  1  0.66666700  0.33333300  0.00000000  1
  Ag  Ag1  1  0.00453452  0.50226776  0.50000000  1
  Ag  Ag2  1  0.49773224  0.50226776  0.50000000  1
  Ag  Ag3  1  0.49773224  0.99546548  0.50000000  1
loop_
_geom_bond_atom_site_label_1
_geom_bond_atom_site_label_2
_geom_bond_distance
_geom_bond_site_symmetry_2
Al0 Eu0 3.284016 1_565
Al0 Eu0 3.284020 1_555
Al0 Eu0 3.284020 1_665
Ag0 Ag1 2.790969 1_655
Ag0 Ag3 2.790969 1_545
Ag0 Ag1 2.790969 1_654
Ag0 Ag3 2.790969 1_544
Ag0 Ag2 2.790975 1_554
Ag0 Ag2 2.790975 1_555
Ag0 Al0 3.284016 1_545
Ag0 Al0 3.284016 1_655
Ag0 Eu0 3.284016 1_655
Ag0 Eu0 3.284020 1_555
Ag0 Eu0 3.284020 1_665
Ag0 Al0 3.284026 1_555
Ag1 Al0 2.764561 1_555
Ag1 Al0 2.764561 1_556
Ag1 Ag3 2.805352 1_555
Ag1 Ag2 2.805352 1_555
Ag1 Ag3 2.882735 1_445
Ag1 Ag2 2.882736 1_455
Ag1 Eu0 3.620571 1_565
Ag1 Eu0 3.620571 1_566
Ag1 Eu0 3.620575 1_555
Ag1 Eu0 3.620575 1_556
Ag2 Al0 2.764561 1_555
Ag2 Al0 2.764561 1_556
Ag2 Ag3 2.805352 1_555
Ag2 Ag3 2.882736 1_545
Ag2 Eu0 3.620573 1_555
Ag2 Eu0 3.620573 1_556
Ag2 Eu0 3.620573 1_665
Ag2 Eu0 3.620573 1_666
Ag3 Al0 2.764561 1_555
Ag3 Al0 2.764561 1_556
Ag3 Eu0 3.620571 1_565
Ag3 Eu0 3.620571 1_566
Ag3 Eu0 3.620575 1_665
Ag3 Eu0 3.620575 1_666
