# generated using pymatgen
data_Ca2TaCuO6
_symmetry_space_group_name_H-M   'P 1'
_cell_length_a   7.69375700
_cell_length_b   5.47685800
_cell_length_c   5.70409008
_cell_angle_alpha   85.50252648
_cell_angle_beta   90.00000000
_cell_angle_gamma   90.00000000
_symmetry_Int_Tables_number   1
_chemical_formula_structural   Ca2TaCuO6
_chemical_formula_sum   'Ca4 Ta2 Cu2 O12'
_cell_volume   239.61664086
_cell_formula_units_Z   2
loop_
 _symmetry_equiv_pos_site_id
 _symmetry_equiv_pos_as_xyz
  1  'x, y, z'
loop_
 _atom_site_type_symbol
 _atom_site_label
 _atom_site_symmetry_multiplicity
 _atom_site_fract_x
 _atom_site_fract_y
 _atom_site_fract_z
 _atom_site_occupancy
  Ca  Ca0  1  0.75000000  0.97812000  0.04672800  1
  Ca  Ca1  1  0.75000000  0.50495000  0.57124600  1
  Ca  Ca2  1  0.25000000  0.49505000  0.42875400  1
  Ca  Ca3  1  0.25000000  0.02188000  0.95327200  1
  Ta  Ta0  1  0.00000000  0.00000000  0.50000000  1
  Ta  Ta1  1  0.50000000  0.00000000  0.50000000  1
  Cu  Cu0  1  0.00000000  0.50000000  0.00000000  1
  Cu  Cu1  1  0.50000000  0.50000000  0.00000000  1
  O  O0  1  0.45288700  0.20399600  0.20065100  1
  O  O1  1  0.54711900  0.71943100  0.31438300  1
  O  O2  1  0.54711300  0.79600400  0.79934900  1
  O  O3  1  0.04711900  0.28056900  0.68561700  1
  O  O4  1  0.25000000  0.90340400  0.52769200  1
  O  O5  1  0.45288100  0.28056900  0.68561700  1
  O  O6  1  0.95288100  0.71943100  0.31438300  1
  O  O7  1  0.04711300  0.20399600  0.20065100  1
  O  O8  1  0.75000000  0.40465600  0.97256500  1
  O  O9  1  0.95288700  0.79600400  0.79934900  1
  O  O10  1  0.25000000  0.59534400  0.02743500  1
  O  O11  1  0.75000000  0.09659600  0.47230800  1
loop_
_geom_bond_atom_site_label_1
_geom_bond_atom_site_label_2
_geom_bond_distance
_geom_bond_site_symmetry_2
Ca0 O8 2.341202 1_564
Ca0 O9 2.375566 1_554
Ca0 O2 2.375566 1_554
Ca0 O1 2.536820 1_555
Ca0 O6 2.536820 1_555
Ca0 O11 2.561456 1_565
Ca0 O7 2.774349 1_665
Ca0 O0 2.774349 1_565
Ca1 O8 2.311877 1_555
Ca1 O11 2.349118 1_555
Ca1 O6 2.386030 1_555
Ca1 O1 2.386030 1_555
Ca1 O9 2.644963 1_555
Ca1 O2 2.644963 1_555
Ca1 O3 2.652488 1_655
Ca1 O5 2.652488 1_555
Ca2 O10 2.311877 1_555
Ca2 O4 2.349118 1_555
Ca2 O5 2.386030 1_555
Ca2 O3 2.386030 1_555
Ca2 O0 2.644963 1_555
Ca2 O7 2.644963 1_555
Ca2 O1 2.652488 1_555
Ca2 O6 2.652488 1_455
Ca3 O10 2.341202 1_546
Ca3 O0 2.375566 1_556
Ca3 O7 2.375566 1_556
Ca3 O5 2.536820 1_555
Ca3 O3 2.536820 1_555
Ca3 O4 2.561456 1_545
Ca3 O2 2.774349 1_545
Ca3 O9 2.774349 1_445
Cu0 O9 1.943848 1_454
Cu0 O7 1.943848 1_555
Cu0 O10 2.002399 1_555
Cu0 O8 2.002399 1_454
Cu0 O6 2.264847 1_455
Cu0 O3 2.264847 1_554
Cu1 O2 1.943848 1_554
Cu1 O0 1.943848 1_555
Cu1 O10 2.002399 1_555
Cu1 O8 2.002399 1_554
Cu1 O1 2.264847 1_555
Cu1 O5 2.264847 1_554
O0 Ta1 1.999016 1_555
O1 Ta1 1.966936 1_565
O2 Ta1 1.999016 1_565
O3 Ta0 1.966936 1_555
O4 Ta0 1.997836 1_565
O4 Ta1 1.997836 1_565
O5 Ta1 1.966936 1_555
O6 Ta0 1.966936 1_665
O7 Ta0 1.999016 1_555
O9 Ta0 1.999016 1_665
O11 Ta1 1.997836 1_555
O11 Ta0 1.997836 1_655
