# generated using pymatgen
data_LaMg6Nb
_symmetry_space_group_name_H-M   'P 1'
_cell_length_a   5.06493500
_cell_length_b   6.49050000
_cell_length_c   11.54640100
_cell_angle_alpha   90.00000000
_cell_angle_beta   90.00000000
_cell_angle_gamma   90.00000000
_symmetry_Int_Tables_number   1
_chemical_formula_structural   LaMg6Nb
_chemical_formula_sum   'La2 Mg12 Nb2'
_cell_volume   379.57593175
_cell_formula_units_Z   2
loop_
 _symmetry_equiv_pos_site_id
 _symmetry_equiv_pos_as_xyz
  1  'x, y, z'
loop_
 _atom_site_type_symbol
 _atom_site_label
 _atom_site_symmetry_multiplicity
 _atom_site_fract_x
 _atom_site_fract_y
 _atom_site_fract_z
 _atom_site_occupancy
  La  La0  1  0.00000000  0.50000000  0.30737100  1
  La  La1  1  0.00000000  0.00000000  0.80737100  1
  Mg  Mg0  1  0.00000000  0.73609000  0.07423400  1
  Mg  Mg1  1  0.00000000  0.26391000  0.07423400  1
  Mg  Mg2  1  0.00000000  0.00000000  0.33328400  1
  Mg  Mg3  1  0.50000000  0.23924900  0.42717300  1
  Mg  Mg4  1  0.50000000  0.76075100  0.42717300  1
  Mg  Mg5  1  0.50000000  0.00000000  0.16928300  1
  Mg  Mg6  1  0.00000000  0.23609000  0.57423400  1
  Mg  Mg7  1  0.00000000  0.76391000  0.57423400  1
  Mg  Mg8  1  0.00000000  0.50000000  0.83328400  1
  Mg  Mg9  1  0.50000000  0.73924900  0.92717300  1
  Mg  Mg10  1  0.50000000  0.26075100  0.92717300  1
  Mg  Mg11  1  0.50000000  0.50000000  0.66928300  1
  Nb  Nb0  1  0.50000000  0.50000000  0.18724700  1
  Nb  Nb1  1  0.50000000  0.00000000  0.68724700  1
loop_
_geom_bond_atom_site_label_1
_geom_bond_atom_site_label_2
_geom_bond_distance
_geom_bond_site_symmetry_2
La0 Nb0 2.887414 1_455
La0 Nb0 2.887414 1_555
La0 Mg0 3.097477 1_555
La0 Mg1 3.097477 1_555
La0 Mg2 3.259014 1_555
La0 Mg2 3.259014 1_565
La0 Mg3 3.345309 1_455
La0 Mg4 3.345309 1_455
La0 Mg3 3.345309 1_555
La0 Mg4 3.345309 1_555
La0 Mg6 3.525409 1_555
La0 Mg7 3.525409 1_555
La1 Nb1 2.887414 1_555
La1 Nb1 2.887414 1_455
La1 Mg6 3.097477 1_555
La1 Mg7 3.097477 1_545
La1 Mg8 3.259014 1_555
La1 Mg8 3.259014 1_545
La1 Mg9 3.345309 1_545
La1 Mg9 3.345309 1_445
La1 Mg10 3.345309 1_455
La1 Mg10 3.345309 1_555
La1 Mg0 3.525409 1_546
La1 Mg1 3.525409 1_556
Mg0 Mg9 3.049115 1_554
Mg0 Mg9 3.049115 1_454
Mg0 Mg1 3.064684 1_555
Mg0 Mg8 3.176190 1_554
Mg0 Nb0 3.234843 1_455
Mg0 Nb0 3.234843 1_555
Mg0 Mg5 3.248368 1_565
Mg0 Mg5 3.248368 1_465
Mg0 Mg1 3.425816 1_565
Mg0 Mg2 3.446840 1_565
Mg1 Mg10 3.049115 1_454
Mg1 Mg10 3.049115 1_554
Mg1 Mg8 3.176190 1_554
Mg1 Nb0 3.234843 1_455
Mg1 Nb0 3.234843 1_555
Mg1 Mg5 3.248368 1_455
Mg1 Mg5 3.248368 1_555
Mg1 Mg2 3.446840 1_555
Mg2 Mg5 3.162150 1_455
Mg2 Mg5 3.162150 1_555
Mg2 Mg3 3.162270 1_455
Mg2 Mg3 3.162270 1_555
Mg2 Mg4 3.162270 1_445
Mg2 Mg4 3.162270 1_545
Mg2 Mg6 3.176190 1_555
Mg2 Mg7 3.176190 1_545
Mg3 Mg6 3.049115 1_655
Mg3 Mg6 3.049115 1_555
Mg3 Mg4 3.105691 1_545
Mg3 Nb0 3.246335 1_555
Mg3 Mg5 3.358279 1_555
Mg3 Nb1 3.380658 1_555
Mg3 Mg4 3.384809 1_555
Mg4 Mg7 3.049115 1_555
Mg4 Mg7 3.049115 1_655
Mg4 Nb0 3.246335 1_555
Mg4 Mg5 3.358279 1_565
Mg4 Nb1 3.380658 1_565
Mg5 Nb0 3.251872 1_555
Mg5 Nb0 3.251872 1_545
Mg5 Mg9 3.267881 1_544
Mg6 Mg7 3.064684 1_545
Mg6 Nb1 3.234843 1_555
Mg6 Nb1 3.234843 1_455
Mg6 Mg7 3.425816 1_555
Mg6 Mg8 3.446840 1_555
Mg7 Nb1 3.234843 1_465
Mg7 Nb1 3.234843 1_565
Mg7 Mg8 3.446840 1_555
Mg8 Mg9 3.162270 1_455
Mg8 Mg9 3.162270 1_555
Mg9 Nb1 3.246335 1_565
Mg9 Nb0 3.380658 1_556
Mg10 Mg9 3.105691 1_555
Mg10 Mg8 3.162270 1_655
Mg10 Mg8 3.162270 1_555
Mg10 Nb1 3.246335 1_555
Mg10 Mg5 3.267881 1_556
Mg10 Mg11 3.358279 1_555
Mg10 Nb0 3.380658 1_556
Mg10 Mg9 3.384809 1_545
Mg11 Mg8 3.162150 1_555
Mg11 Mg8 3.162150 1_655
Mg11 Mg7 3.248368 1_555
Mg11 Mg7 3.248368 1_655
Mg11 Mg6 3.248368 1_555
Mg11 Mg6 3.248368 1_655
Mg11 Nb1 3.251872 1_555
Mg11 Nb1 3.251872 1_565
Mg11 Mg4 3.267881 1_555
Mg11 Mg3 3.267881 1_555
Mg11 Mg9 3.358279 1_555
