# generated using pymatgen
data_KEuMn4O12
_symmetry_space_group_name_H-M   'P 1'
_cell_length_a   5.22360787
_cell_length_b   5.22360787
_cell_length_c   7.35465398
_cell_angle_alpha   90.00000000
_cell_angle_beta   90.00000000
_cell_angle_gamma   89.99817579
_symmetry_Int_Tables_number   1
_chemical_formula_structural   KEuMn4O12
_chemical_formula_sum   'K1 Eu1 Mn4 O12'
_cell_volume   200.67967110
_cell_formula_units_Z   1
loop_
 _symmetry_equiv_pos_site_id
 _symmetry_equiv_pos_as_xyz
  1  'x, y, z'
loop_
 _atom_site_type_symbol
 _atom_site_label
 _atom_site_symmetry_multiplicity
 _atom_site_fract_x
 _atom_site_fract_y
 _atom_site_fract_z
 _atom_site_occupancy
  K  K0  1  0.00631270  0.00631270  0.00000000  1
  Eu  Eu0  1  0.49522167  0.49522167  0.50000000  1
  Mn  Mn0  1  0.49974802  -0.00084018  0.75460552  1
  Mn  Mn1  1  0.49974802  -0.00084018  0.24539448  1
  Mn  Mn2  1  -0.00084018  0.49974802  0.24539448  1
  Mn  Mn3  1  -0.00084018  0.49974802  0.75460552  1
  O  O0  1  0.77179242  0.22793671  0.74582280  1
  O  O1  1  0.22793671  0.77179242  0.74582280  1
  O  O2  1  0.22793671  0.77179242  0.25417720  1
  O  O3  1  0.77179242  0.22793671  0.25417720  1
  O  O4  1  0.72224964  0.72224964  0.72238342  1
  O  O5  1  0.28076377  0.28076377  0.77299164  1
  O  O6  1  0.28076377  0.28076377  0.22700836  1
  O  O7  1  0.72224964  0.72224964  0.27761658  1
  O  O8  1  0.52365937  0.97189670  0.00000000  1
  O  O9  1  0.47351755  0.02729127  0.50000000  1
  O  O10  1  0.97189670  0.52365937  0.00000000  1
  O  O11  1  0.02729127  0.47351755  0.50000000  1
loop_
_geom_bond_atom_site_label_1
_geom_bond_atom_site_label_2
_geom_bond_distance
_geom_bond_site_symmetry_2
K0 O2 2.517033 1_545
K0 O1 2.517033 1_544
K0 O3 2.517033 1_455
K0 O0 2.517033 1_454
K0 O8 2.527599 1_445
K0 O10 2.527599 1_445
K0 O5 2.626433 1_554
K0 O6 2.626433 1_555
K0 O8 2.708384 1_545
K0 O10 2.708384 1_455
K0 O7 2.927885 1_445
K0 O4 2.927885 1_444
Eu0 O7 2.342619 1_555
Eu0 O4 2.342619 1_555
Eu0 O9 2.446916 1_555
Eu0 O11 2.446916 1_555
Eu0 O5 2.557551 1_555
Eu0 O6 2.557551 1_555
Eu0 O2 2.702781 1_555
Eu0 O0 2.702781 1_555
Eu0 O3 2.702781 1_555
Eu0 O1 2.702781 1_555
Eu0 O9 2.781631 1_565
Eu0 O11 2.781631 1_655
Mn0 O8 1.814705 1_546
Mn0 O1 1.852240 1_545
Mn0 O0 1.857901 1_555
Mn0 O5 1.868279 1_555
Mn0 O4 1.870610 1_545
Mn0 O9 1.883283 1_555
Mn1 O8 1.814705 1_545
Mn1 O2 1.852240 1_545
Mn1 O3 1.857901 1_555
Mn1 O6 1.868279 1_555
Mn1 O7 1.870610 1_545
Mn1 O9 1.883283 1_555
Mn2 O10 1.814705 1_455
Mn2 O3 1.852240 1_455
Mn2 O2 1.857901 1_555
Mn2 O6 1.868279 1_555
Mn2 O7 1.870610 1_455
Mn2 O11 1.883283 1_555
Mn3 O10 1.814705 1_456
Mn3 O0 1.852240 1_455
Mn3 O1 1.857901 1_555
Mn3 O5 1.868279 1_555
Mn3 O4 1.870610 1_455
Mn3 O11 1.883283 1_555
