# generated using pymatgen
data_MnCd(GaSe2)4
_symmetry_space_group_name_H-M   'P 1'
_cell_length_a   5.83024500
_cell_length_b   5.83024500
_cell_length_c   10.98073600
_cell_angle_alpha   90.00000000
_cell_angle_beta   90.00000000
_cell_angle_gamma   90.00000000
_symmetry_Int_Tables_number   1
_chemical_formula_structural   MnCd(GaSe2)4
_chemical_formula_sum   'Mn1 Cd1 Ga4 Se8'
_cell_volume   373.25450716
_cell_formula_units_Z   1
loop_
 _symmetry_equiv_pos_site_id
 _symmetry_equiv_pos_as_xyz
  1  'x, y, z'
loop_
 _atom_site_type_symbol
 _atom_site_label
 _atom_site_symmetry_multiplicity
 _atom_site_fract_x
 _atom_site_fract_y
 _atom_site_fract_z
 _atom_site_occupancy
  Mn  Mn0  1  0.50000000  0.50000000  0.50000000  1
  Cd  Cd0  1  0.00000000  0.00000000  0.00000000  1
  Ga  Ga0  1  0.50000000  0.50000000  0.00000000  1
  Ga  Ga1  1  0.00000000  0.00000000  0.50000000  1
  Ga  Ga2  1  0.00000000  0.50000000  0.25106200  1
  Ga  Ga3  1  0.50000000  0.00000000  0.74893800  1
  Se  Se0  1  0.24549600  0.76119400  0.36886400  1
  Se  Se1  1  0.73848300  0.27204900  0.86234000  1
  Se  Se2  1  0.75450400  0.23880600  0.36886400  1
  Se  Se3  1  0.26151700  0.72795100  0.86234000  1
  Se  Se4  1  0.72795100  0.73848300  0.13766000  1
  Se  Se5  1  0.23880600  0.24549600  0.63113600  1
  Se  Se6  1  0.27204900  0.26151700  0.13766000  1
  Se  Se7  1  0.76119400  0.75450400  0.63113600  1
loop_
_geom_bond_atom_site_label_1
_geom_bond_atom_site_label_2
_geom_bond_distance
_geom_bond_site_symmetry_2
Mn0 Se7 2.567924 1_555
Mn0 Se5 2.567924 1_555
Mn0 Se0 2.567924 1_555
Mn0 Se2 2.567924 1_555
Cd0 Se1 2.669353 1_454
Cd0 Se3 2.669353 1_544
Cd0 Se4 2.669353 1_445
Cd0 Se6 2.669353 1_555
Ga0 Se1 2.446320 1_554
Ga0 Se3 2.446320 1_554
Ga0 Se6 2.446320 1_555
Ga0 Se4 2.446320 1_555
Ga1 Se5 2.461835 1_555
Ga1 Se7 2.461835 1_445
Ga1 Se2 2.461835 1_455
Ga1 Se0 2.461835 1_545
Ga2 Se6 2.449412 1_555
Ga2 Se4 2.449412 1_455
Ga2 Se0 2.457824 1_555
Ga2 Se2 2.457824 1_455
Ga3 Se3 2.449412 1_545
Ga3 Se1 2.449412 1_555
Ga3 Se7 2.457824 1_545
Ga3 Se5 2.457824 1_555
