# generated using pymatgen
data_GdCu4Pd
_symmetry_space_group_name_H-M   'P 1'
_cell_length_a   5.16369288
_cell_length_b   5.16369288
_cell_length_c   5.16369271
_cell_angle_alpha   58.15906853
_cell_angle_beta   58.15906853
_cell_angle_gamma   58.15907469
_symmetry_Int_Tables_number   1
_chemical_formula_structural   GdCu4Pd
_chemical_formula_sum   'Gd1 Cu4 Pd1'
_cell_volume   93.24906370
_cell_formula_units_Z   1
loop_
 _symmetry_equiv_pos_site_id
 _symmetry_equiv_pos_as_xyz
  1  'x, y, z'
loop_
 _atom_site_type_symbol
 _atom_site_label
 _atom_site_symmetry_multiplicity
 _atom_site_fract_x
 _atom_site_fract_y
 _atom_site_fract_z
 _atom_site_occupancy
  Gd  Gd0  1  0.99932000  0.99932000  0.99932000  1
  Cu  Cu0  1  0.62565900  0.12748000  0.62565900  1
  Cu  Cu1  1  0.12748000  0.62565900  0.62565900  1
  Cu  Cu2  1  0.62565900  0.62565900  0.12748000  1
  Cu  Cu3  1  0.24728400  0.24728400  0.24728400  1
  Pd  Pd0  1  0.62459700  0.62459700  0.62459700  1
loop_
_geom_bond_atom_site_label_1
_geom_bond_atom_site_label_2
_geom_bond_distance
_geom_bond_site_symmetry_2
Gd0 Pd0 2.946112 1_556
Gd0 Pd0 2.946112 1_655
Gd0 Pd0 2.946112 1_565
Cu0 Cu2 2.500534 1_555
Cu0 Cu1 2.500535 1_555
Cu0 Cu2 2.518815 1_546
Cu0 Cu1 2.518815 1_645
Cu0 Pd0 2.561185 1_555
Cu0 Pd0 2.602531 1_545
Cu0 Cu3 2.950606 1_655
Cu0 Cu3 2.950606 1_556
Cu0 Gd0 2.991274 1_445
Cu0 Gd0 2.991274 1_544
Cu0 Gd0 3.019471 1_545
Cu0 Cu3 3.081339 1_555
Cu1 Cu2 2.500534 1_555
Cu1 Cu2 2.518815 1_456
Cu1 Pd0 2.561185 1_555
Cu1 Pd0 2.602531 1_455
Cu1 Cu3 2.950606 1_565
Cu1 Cu3 2.950606 1_556
Cu1 Gd0 2.991274 1_445
Cu1 Gd0 2.991274 1_454
Cu1 Gd0 3.019471 1_455
Cu1 Cu3 3.081339 1_555
Cu2 Pd0 2.561185 1_555
Cu2 Pd0 2.602531 1_554
Cu2 Cu3 2.950606 1_565
Cu2 Cu3 2.950606 1_655
Cu2 Gd0 2.991274 1_544
Cu2 Gd0 2.991274 1_454
Cu2 Gd0 3.019471 1_554
Cu2 Cu3 3.081339 1_555
Cu3 Pd0 2.952274 1_554
Cu3 Pd0 2.952275 1_545
Cu3 Pd0 2.952275 1_455
Cu3 Gd0 3.097746 1_445
Cu3 Gd0 3.097746 1_544
Cu3 Gd0 3.097746 1_454
Cu3 Gd0 3.179280 1_444
