# generated using pymatgen
data_K4Ba2SnAs4
_symmetry_space_group_name_H-M   'P 1'
_cell_length_a   10.64956965
_cell_length_b   10.64956965
_cell_length_c   8.05121075
_cell_angle_alpha   89.35379250
_cell_angle_beta   89.35379250
_cell_angle_gamma   119.46475861
_symmetry_Int_Tables_number   1
_chemical_formula_structural   K4Ba2SnAs4
_chemical_formula_sum   'K8 Ba4 Sn2 As8'
_cell_volume   794.81190677
_cell_formula_units_Z   2
loop_
 _symmetry_equiv_pos_site_id
 _symmetry_equiv_pos_as_xyz
  1  'x, y, z'
loop_
 _atom_site_type_symbol
 _atom_site_label
 _atom_site_symmetry_multiplicity
 _atom_site_fract_x
 _atom_site_fract_y
 _atom_site_fract_z
 _atom_site_occupancy
  K  K0  1  0.47544000  0.94975800  0.38100700  1
  K  K1  1  0.94975800  0.47544000  0.88100700  1
  K  K2  1  0.86204100  0.72042400  0.19420400  1
  K  K3  1  0.28236700  0.13496800  0.20847600  1
  K  K4  1  0.85311800  0.13815100  0.20172500  1
  K  K5  1  0.13496800  0.28236700  0.70847600  1
  K  K6  1  0.72042400  0.86204100  0.69420400  1
  K  K7  1  0.13815100  0.85311800  0.70172500  1
  Ba  Ba0  1  0.05297900  0.52909700  0.38002100  1
  Ba  Ba1  1  0.47679000  0.53125300  0.37989300  1
  Ba  Ba2  1  0.52909700  0.05297900  0.88002100  1
  Ba  Ba3  1  0.53125300  0.47679000  0.87989300  1
  Sn  Sn0  1  0.66416100  0.32916800  0.49819300  1
  Sn  Sn1  1  0.32916800  0.66416100  0.99819300  1
  As  As0  1  0.66102300  0.33708400  0.16226600  1
  As  As1  1  0.33708400  0.66102300  0.66226600  1
  As  As2  1  0.20103400  0.39024800  0.11510500  1
  As  As3  1  0.60747400  0.79936000  0.09357500  1
  As  As4  1  0.19702200  0.80684900  0.10320300  1
  As  As5  1  0.79936000  0.60747400  0.59357500  1
  As  As6  1  0.39024800  0.20103400  0.61510500  1
  As  As7  1  0.80684900  0.19702200  0.60320300  1
loop_
_geom_bond_atom_site_label_1
_geom_bond_atom_site_label_2
_geom_bond_distance
_geom_bond_site_symmetry_2
K0 Sn0 3.659965 1_565
K1 Sn1 3.659965 1_655
Ba0 Sn0 3.711667 1_455
Ba2 Sn1 3.711667 1_545
As0 Sn0 2.706077 1_555
As0 Ba3 3.362944 1_554
As0 K1 3.473385 1_554
As0 Ba2 3.512440 1_554
As0 K3 3.527296 1_555
As0 K2 3.571196 1_555
As0 K4 3.610726 1_555
As1 Sn1 2.706077 1_555
As1 Ba1 3.362944 1_555
As1 K0 3.473385 1_555
As1 Ba0 3.512440 1_555
As1 K5 3.527296 1_555
As1 K6 3.571196 1_555
As1 K7 3.610726 1_555
As2 Sn1 2.692661 1_554
As2 K3 3.315331 1_555
As2 Ba1 3.361399 1_555
As2 Ba0 3.392745 1_555
As2 K4 3.396443 1_455
As2 K5 3.445965 1_554
As2 Ba3 3.663969 1_554
As2 K1 3.741654 1_454
As3 Sn1 2.706525 1_554
As3 K2 3.314956 1_555
As3 Ba1 3.357549 1_555
As3 K6 3.362415 1_554
As3 K4 3.384679 1_565
As3 K0 3.481909 1_555
As3 Ba3 3.583445 1_554
As3 Ba2 3.618484 1_564
As4 Sn1 2.666514 1_554
As4 K3 3.273306 1_565
As4 K2 3.287246 1_455
As4 Ba0 3.373436 1_555
As4 K7 3.376073 1_554
As4 K0 3.449252 1_555
As4 Ba2 3.638272 1_564
As4 K1 3.700879 1_454
As5 Sn0 2.706525 1_555
As5 K6 3.314956 1_555
As5 Ba3 3.357549 1_555
As5 K2 3.362415 1_555
As5 K7 3.384679 1_655
As5 K1 3.481909 1_555
As5 Ba1 3.583445 1_555
As5 Ba0 3.618484 1_655
As6 Sn0 2.692661 1_555
As6 K5 3.315331 1_555
As6 Ba3 3.361399 1_555
As6 Ba2 3.392745 1_555
As6 K7 3.396443 1_545
As6 K3 3.445965 1_555
As6 Ba1 3.663969 1_555
As6 K0 3.741654 1_545
As7 Sn0 2.666514 1_555
As7 K5 3.273306 1_655
As7 K6 3.287246 1_545
As7 Ba2 3.373436 1_555
As7 K4 3.376073 1_555
As7 K1 3.449252 1_555
As7 Ba0 3.638272 1_655
As7 K0 3.700879 1_545
