# generated using pymatgen
data_Ba13Si6(Sn4As11)2
_symmetry_space_group_name_H-M   'P 1'
_cell_length_a   12.42867001
_cell_length_b   12.42867001
_cell_length_c   12.42867001
_cell_angle_alpha   108.16469983
_cell_angle_beta   108.16469983
_cell_angle_gamma   112.11710463
_symmetry_Int_Tables_number   1
_chemical_formula_structural   Ba13Si6(Sn4As11)2
_chemical_formula_sum   'Ba13 Si6 Sn8 As22'
_cell_volume   1475.54816936
_cell_formula_units_Z   1
loop_
 _symmetry_equiv_pos_site_id
 _symmetry_equiv_pos_as_xyz
  1  'x, y, z'
loop_
 _atom_site_type_symbol
 _atom_site_label
 _atom_site_symmetry_multiplicity
 _atom_site_fract_x
 _atom_site_fract_y
 _atom_site_fract_z
 _atom_site_occupancy
  Ba  Ba0  1  0.54254912  0.78393765  0.49326778  1
  Ba  Ba1  1  0.29066987  0.04928134  0.50673222  1
  Ba  Ba2  1  0.70933013  0.21606235  0.75861147  1
  Ba  Ba3  1  0.45745088  0.95071866  0.24138853  1
  Ba  Ba4  1  0.95071866  0.45745088  0.24138853  1
  Ba  Ba5  1  0.21606235  0.70933013  0.75861147  1
  Ba  Ba6  1  0.78393765  0.54254912  0.49326778  1
  Ba  Ba7  1  0.04928134  0.29066987  0.50673222  1
  Ba  Ba8  1  0.83999946  0.83999946  0.33464811  1
  Ba  Ba9  1  0.50535135  0.50535135  0.66535189  1
  Ba  Ba10  1  0.49464865  0.16000054  -0.00000000  1
  Ba  Ba11  1  0.16000054  0.49464865  0.00000000  1
  Ba  Ba12  1  -0.00000000  -0.00000000  0.00000000  1
  Si  Si0  1  0.31763669  0.31763669  0.83099207  1
  Si  Si1  1  0.48664463  0.48664463  0.16900793  1
  Si  Si2  1  0.51335537  0.68236331  0.00000000  1
  Si  Si3  1  0.68236331  0.51335537  0.00000000  1
  Si  Si4  1  0.75000000  0.25000000  0.50000000  1
  Si  Si5  1  0.25000000  0.75000000  0.50000000  1
  Sn  Sn0  1  0.94078299  0.11838361  0.72125460  1
  Sn  Sn1  1  0.39712901  0.21952839  0.27874540  1
  Sn  Sn2  1  0.60287099  0.88161539  0.82239838  1
  Sn  Sn3  1  0.05921701  0.78047161  0.17760162  1
  Sn  Sn4  1  0.78047161  0.05921701  0.17760162  1
  Sn  Sn5  1  0.88161639  0.60287099  0.82239838  1
  Sn  Sn6  1  0.11838461  0.94078299  0.72125460  1
  Sn  Sn7  1  0.21952839  0.39712901  0.27874540  1
  As  As0  1  0.74833588  0.05559207  0.49152867  1
  As  As1  1  0.56406340  0.25680721  0.50847133  1
  As  As2  1  0.43593660  0.94440793  0.69274381  1
  As  As3  1  0.25166412  0.74319279  0.30725619  1
  As  As4  1  0.74319279  0.25166412  0.30725619  1
  As  As5  1  0.94440793  0.43593660  0.69274381  1
  As  As6  1  0.05559207  0.74833588  0.49152867  1
  As  As7  1  0.25680721  0.56406340  0.50847133  1
  As  As8  1  0.68635184  0.50000000  0.18635184  1
  As  As9  1  0.31364816  0.50000000  0.81364816  1
  As  As10  1  0.50000000  0.31364816  0.81364816  1
  As  As11  1  0.50000000  0.68635184  0.18635184  1
  As  As12  1  0.12546438  0.12546438  0.64374465  1
  As  As13  1  0.48171973  0.48171973  0.35625535  1
  As  As14  1  0.51828027  0.87453562  -0.00000000  1
  As  As15  1  0.87453562  0.51828027  0.00000000  1
  As  As16  1  0.86116137  0.86116137  0.65980298  1
  As  As17  1  0.20135839  0.20135839  0.34019702  1
  As  As18  1  0.79864161  0.13883863  -0.00000000  1
  As  As19  1  0.13883863  0.79864161  -0.00000000  1
  As  As20  1  0.71115055  0.71115055  -0.00000000  1
  As  As21  1  0.28884945  0.28884945  0.00000000  1
loop_
_geom_bond_atom_site_label_1
_geom_bond_atom_site_label_2
_geom_bond_distance
_geom_bond_site_symmetry_2
Ba0 Si5 3.530188 1_555
Ba0 Sn2 3.616003 1_555
Ba1 Si5 3.530188 1_545
Ba1 Sn3 3.616006 1_545
Ba2 Si4 3.530188 1_555
Ba2 Sn0 3.616013 1_555
Ba3 Si4 3.530188 1_565
Ba3 Sn1 3.616013 1_565
Ba4 Si5 3.530188 1_655
Ba4 Sn7 3.616013 1_655
Ba5 Si5 3.530188 1_555
Ba5 Sn6 3.616006 1_555
Ba6 Si4 3.530188 1_555
Ba6 Sn5 3.616002 1_555
Ba7 Si4 3.530188 1_455
Ba7 Sn4 3.616006 1_455
Ba8 Sn3 3.964071 1_655
Ba8 Sn4 3.964071 1_565
Ba9 Sn2 3.964068 1_555
Ba9 Sn5 3.964079 1_555
Ba10 Sn6 3.964071 1_544
Ba10 Sn1 3.964079 1_555
Ba11 Sn7 3.964079 1_555
Ba11 Sn0 3.964079 1_454
As0 Si4 2.377411 1_555
As0 Sn0 2.725665 1_555
As0 Ba3 3.369250 1_545
As0 Ba0 3.393962 1_545
As0 Ba8 3.564507 1_545
As0 Ba2 3.582641 1_555
As0 Ba7 3.680821 1_655
As1 Si4 2.377411 1_555
As1 Sn1 2.725665 1_555
As1 Ba2 3.369250 1_555
As1 Ba1 3.393962 1_555
As1 Ba9 3.564507 1_555
As1 Ba3 3.582641 1_545
As1 Ba6 3.680821 1_555
As2 Si5 2.377411 1_555
As2 Sn2 2.725669 1_555
As2 Ba1 3.369250 1_565
As2 Ba2 3.393962 1_565
As2 Ba10 3.564507 1_566
As2 Ba0 3.582641 1_555
As2 Ba5 3.680821 1_555
As3 Si5 2.377411 1_555
As3 Sn3 2.725660 1_555
As3 Ba0 3.369250 1_555
As3 Ba3 3.393962 1_555
As3 Ba11 3.564507 1_555
As3 Ba1 3.582641 1_565
As3 Ba4 3.680821 1_455
As4 Si4 2.377411 1_555
As4 Sn4 2.725660 1_555
As4 Ba6 3.369250 1_555
As4 Ba4 3.393962 1_555
As4 Ba10 3.564507 1_555
As4 Ba7 3.582641 1_655
As4 Ba3 3.680821 1_545
As5 Si4 2.377411 1_555
As5 Sn5 2.725660 1_555
As5 Ba7 3.369250 1_655
As5 Ba5 3.393962 1_655
As5 Ba11 3.564507 1_656
As5 Ba6 3.582641 1_555
As5 Ba2 3.680821 1_555
As6 Si5 2.377411 1_555
As6 Sn6 2.725660 1_555
As6 Ba4 3.369250 1_455
As6 Ba6 3.393962 1_455
As6 Ba8 3.564507 1_455
As6 Ba5 3.582641 1_555
As6 Ba1 3.680821 1_565
As7 Si5 2.377411 1_555
As7 Sn7 2.725665 1_555
As7 Ba5 3.369250 1_555
As7 Ba7 3.393962 1_555
As7 Ba9 3.564507 1_555
As7 Ba4 3.582641 1_455
As7 Ba0 3.680821 1_555
As8 Si1 2.359802 1_555
As8 Si3 2.359803 1_555
As8 Ba4 3.417042 1_555
As8 Ba6 3.417042 1_555
As8 Ba10 3.431264 1_555
As8 Ba8 3.431264 1_555
As9 Si2 2.359803 1_556
As9 Si0 2.359803 1_555
As9 Ba7 3.417042 1_555
As9 Ba5 3.417042 1_555
As9 Ba9 3.431264 1_555
As9 Ba11 3.431264 1_556
As10 Si3 2.359803 1_556
As10 Si0 2.359803 1_555
As10 Ba1 3.417042 1_555
As10 Ba2 3.417042 1_555
As10 Ba9 3.431264 1_555
As10 Ba10 3.431264 1_556
As11 Si1 2.359802 1_555
As11 Si2 2.359803 1_555
As11 Ba3 3.417042 1_555
As11 Ba0 3.417042 1_555
As11 Ba11 3.431264 1_555
As11 Ba8 3.431264 1_555
As12 Si0 2.366080 1_555
As12 Sn0 2.735658 1_455
As12 Sn6 2.735660 1_545
As12 Ba1 3.263590 1_555
As12 Ba7 3.263590 1_555
As12 Ba8 3.668636 1_445
As13 Si1 2.366080 1_555
As13 Sn7 2.735658 1_555
As13 Sn1 2.735658 1_555
As13 Ba6 3.263590 1_555
As13 Ba0 3.263590 1_555
As13 Ba9 3.668636 1_555
As14 Si2 2.366080 1_555
As14 Sn4 2.735660 1_565
As14 Sn2 2.735668 1_554
As14 Ba3 3.263590 1_555
As14 Ba5 3.263590 1_554
As14 Ba10 3.668636 1_565
As15 Si3 2.366080 1_555
As15 Sn3 2.735660 1_655
As15 Sn5 2.735669 1_554
As15 Ba4 3.263590 1_555
As15 Ba2 3.263590 1_554
As15 Ba11 3.668636 1_655
As16 Sn0 2.721600 1_565
As16 Sn6 2.721612 1_655
As16 Ba6 3.416926 1_555
As16 Ba0 3.416926 1_555
As16 Ba12 3.534477 1_666
As16 Ba8 3.884902 1_555
As17 Sn1 2.721600 1_555
As17 Sn7 2.721600 1_555
As17 Ba7 3.416926 1_555
As17 Ba1 3.416926 1_555
As17 Ba12 3.534477 1_555
As17 Ba9 3.884902 1_555
As18 Sn2 2.721610 1_544
As18 Sn4 2.721612 1_555
As18 Ba4 3.416926 1_555
As18 Ba2 3.416926 1_554
As18 Ba12 3.534477 1_655
As18 Ba10 3.884902 1_555
As19 Sn5 2.721602 1_454
As19 Sn3 2.721612 1_555
As19 Ba5 3.416926 1_554
As19 Ba3 3.416926 1_555
As19 Ba12 3.534477 1_565
As19 Ba11 3.884902 1_555
As20 Si2 2.347146 1_555
As20 Si3 2.347146 1_555
As20 Ba8 3.491609 1_555
As20 Ba9 3.491609 1_554
As21 Si0 2.347146 1_554
As21 Si1 2.347146 1_555
As21 Ba10 3.491609 1_555
As21 Ba11 3.491609 1_555
