# generated using pymatgen
data_Na5Ni2P2(CO7)2
_symmetry_space_group_name_H-M   'P 1'
_cell_length_a   6.63499000
_cell_length_b   8.93791700
_cell_length_c   10.39800630
_cell_angle_alpha   88.81034730
_cell_angle_beta   90.00000000
_cell_angle_gamma   90.00000000
_symmetry_Int_Tables_number   1
_chemical_formula_structural   Na5Ni2P2(CO7)2
_chemical_formula_sum   'Na10 Ni4 P4 C4 O28'
_cell_volume   616.49994696
_cell_formula_units_Z   2
loop_
 _symmetry_equiv_pos_site_id
 _symmetry_equiv_pos_as_xyz
  1  'x, y, z'
loop_
 _atom_site_type_symbol
 _atom_site_label
 _atom_site_symmetry_multiplicity
 _atom_site_fract_x
 _atom_site_fract_y
 _atom_site_fract_z
 _atom_site_occupancy
  Na  Na0  1  0.75000000  0.91363400  0.85612200  1
  Na  Na1  1  0.99380300  0.74336100  0.61677000  1
  Na  Na2  1  0.50619700  0.74336100  0.61677000  1
  Na  Na3  1  0.98694000  0.73522600  0.13308900  1
  Na  Na4  1  0.51306000  0.73522600  0.13308900  1
  Na  Na5  1  0.49380300  0.25663900  0.38323000  1
  Na  Na6  1  0.00619700  0.25663900  0.38323000  1
  Na  Na7  1  0.48694000  0.26477400  0.86691100  1
  Na  Na8  1  0.01306000  0.26477400  0.86691100  1
  Na  Na9  1  0.25000000  0.08636600  0.14387800  1
  Ni  Ni0  1  0.25000000  0.64509800  0.35810100  1
  Ni  Ni1  1  0.25000000  0.65108500  0.85980800  1
  Ni  Ni2  1  0.75000000  0.35490200  0.64189900  1
  Ni  Ni3  1  0.75000000  0.34891500  0.14019200  1
  P  P0  1  0.75000000  0.57678300  0.39290200  1
  P  P1  1  0.75000000  0.58303400  0.89434300  1
  P  P2  1  0.25000000  0.42321700  0.60709800  1
  P  P3  1  0.25000000  0.41696600  0.10565700  1
  C  C0  1  0.25000000  0.92700100  0.38370300  1
  C  C1  1  0.25000000  0.93193400  0.89594700  1
  C  C2  1  0.75000000  0.07299900  0.61629700  1
  C  C3  1  0.75000000  0.06806600  0.10405300  1
  O  O0  1  0.75000000  0.93069100  0.61365600  1
  O  O1  1  0.75000000  0.92690200  0.08523900  1
  O  O2  1  0.25000000  0.85928600  0.27256200  1
  O  O3  1  0.25000000  0.87418300  0.78296300  1
  O  O4  1  0.25000000  0.83887300  0.48399500  1
  O  O5  1  0.25000000  0.83711400  0.99391400  1
  O  O6  1  0.93827800  0.67007700  0.35575100  1
  O  O7  1  0.56172200  0.67007700  0.35575100  1
  O  O8  1  0.93643100  0.68084200  0.85719000  1
  O  O9  1  0.56356900  0.68084200  0.85719000  1
  O  O10  1  0.25000000  0.57645200  0.67436100  1
  O  O11  1  0.25000000  0.56743500  0.17575500  1
  O  O12  1  0.75000000  0.54925200  0.54267000  1
  O  O13  1  0.75000000  0.55086000  0.04298600  1
  O  O14  1  0.25000000  0.45074800  0.45733000  1
  O  O15  1  0.25000000  0.44914000  0.95701400  1
  O  O16  1  0.75000000  0.42354800  0.32563900  1
  O  O17  1  0.75000000  0.43256500  0.82424500  1
  O  O18  1  0.43827800  0.32992300  0.64424900  1
  O  O19  1  0.06172200  0.32992300  0.64424900  1
  O  O20  1  0.43643100  0.31915800  0.14281000  1
  O  O21  1  0.06356900  0.31915800  0.14281000  1
  O  O22  1  0.75000000  0.16112700  0.51600500  1
  O  O23  1  0.75000000  0.16288600  0.00608600  1
  O  O24  1  0.75000000  0.14071400  0.72743800  1
  O  O25  1  0.75000000  0.12581700  0.21703700  1
  O  O26  1  0.25000000  0.06930900  0.38634400  1
  O  O27  1  0.25000000  0.07309800  0.91476100  1
loop_
_geom_bond_atom_site_label_1
_geom_bond_atom_site_label_2
_geom_bond_distance
_geom_bond_site_symmetry_2
Na0 O1 2.387768 1_556
Na0 O24 2.407695 1_565
Na0 O8 2.420426 1_555
Na0 O9 2.420426 1_555
Na0 O0 2.522607 1_555
Na0 O23 2.745690 1_566
Na1 O0 2.327862 1_555
Na1 O10 2.331645 1_655
Na1 O4 2.339959 1_655
Na1 O12 2.505170 1_555
Na1 O8 2.578486 1_555
Na1 O3 2.706824 1_655
Na1 O6 2.829274 1_555
Na2 O0 2.327862 1_555
Na2 O10 2.331645 1_555
Na2 O4 2.339959 1_555
Na2 O12 2.505170 1_555
Na2 O9 2.578486 1_555
Na2 O3 2.706824 1_555
Na2 O7 2.829274 1_555
Na3 O11 2.337674 1_655
Na3 O1 2.370367 1_555
Na3 O6 2.397431 1_555
Na3 O5 2.432126 1_654
Na3 O13 2.475633 1_555
Na3 O2 2.538881 1_655
Na4 O11 2.337674 1_555
Na4 O1 2.370367 1_555
Na4 O7 2.397431 1_555
Na4 O5 2.432126 1_554
Na4 O13 2.475633 1_555
Na4 O2 2.538881 1_555
Na5 O26 2.327862 1_555
Na5 O16 2.331645 1_555
Na5 O22 2.339959 1_555
Na5 O14 2.505170 1_555
Na5 O20 2.578486 1_555
Na5 O25 2.706824 1_555
Na5 O18 2.829274 1_555
Na6 O26 2.327862 1_555
Na6 O16 2.331645 1_455
Na6 O22 2.339959 1_455
Na6 O14 2.505170 1_555
Na6 O21 2.578486 1_555
Na6 O25 2.706824 1_455
Na6 O19 2.829274 1_555
Na7 O17 2.337674 1_555
Na7 O27 2.370367 1_555
Na7 O18 2.397431 1_555
Na7 O23 2.432126 1_556
Na7 O15 2.475633 1_555
Na7 O24 2.538881 1_555
Na8 O17 2.337674 1_455
Na8 O27 2.370367 1_555
Na8 O19 2.397431 1_555
Na8 O23 2.432126 1_456
Na8 O15 2.475633 1_555
Na8 O24 2.538881 1_455
Na9 O27 2.387768 1_554
Na9 O2 2.407695 1_545
Na9 O20 2.420426 1_555
Na9 O21 2.420426 1_555
Na9 O26 2.522607 1_555
Na9 O5 2.745690 1_544
Ni0 O14 2.001903 1_555
Ni0 O11 2.032594 1_555
Ni0 O6 2.080376 1_455
Ni0 O7 2.080376 1_555
Ni0 O2 2.094110 1_555
Ni0 O4 2.192573 1_555
Ni1 O15 2.050309 1_555
Ni1 O10 2.053447 1_555
Ni1 O9 2.097563 1_555
Ni1 O8 2.097563 1_455
Ni1 O3 2.132711 1_555
Ni1 O5 2.192107 1_555
Ni2 O12 2.001903 1_555
Ni2 O17 2.032594 1_555
Ni2 O19 2.080376 1_655
Ni2 O18 2.080376 1_555
Ni2 O24 2.094110 1_555
Ni2 O22 2.192573 1_555
Ni3 O13 2.050309 1_555
Ni3 O16 2.053447 1_555
Ni3 O21 2.097563 1_655
Ni3 O20 2.097563 1_555
Ni3 O25 2.132711 1_555
Ni3 O23 2.192107 1_555
C0 O26 1.272803 1_565
C0 O4 1.293770 1_555
C0 O2 1.315623 1_555
C1 O27 1.280795 1_565
C1 O3 1.292977 1_555
C1 O5 1.311514 1_555
C2 O0 1.272803 1_545
C2 O22 1.293770 1_555
C2 O24 1.315623 1_555
C3 O1 1.280795 1_545
C3 O25 1.292977 1_555
C3 O23 1.311514 1_555
O6 P0 1.546518 1_555
O7 P0 1.546518 1_555
O8 P1 1.558696 1_555
O9 P1 1.558696 1_555
O10 P2 1.550724 1_555
O11 P3 1.542942 1_555
O12 P0 1.571555 1_555
O13 P1 1.566235 1_554
O14 P2 1.571555 1_555
O15 P3 1.566235 1_556
O16 P0 1.550724 1_555
O17 P1 1.542942 1_555
O18 P2 1.546518 1_555
O19 P2 1.546518 1_555
O20 P3 1.558696 1_555
O21 P3 1.558696 1_555
