# generated using pymatgen
data_Mg4Cu5(TeO6)3
_symmetry_space_group_name_H-M   'P 1'
_cell_length_a   8.75704103
_cell_length_b   8.75704129
_cell_length_c   10.44079969
_cell_angle_alpha   84.36390426
_cell_angle_beta   84.36390344
_cell_angle_gamma   60.85166740
_symmetry_Int_Tables_number   1
_chemical_formula_structural   Mg4Cu5(TeO6)3
_chemical_formula_sum   'Mg8 Cu10 Te6 O36'
_cell_volume   694.71615099
_cell_formula_units_Z   2
loop_
 _symmetry_equiv_pos_site_id
 _symmetry_equiv_pos_as_xyz
  1  'x, y, z'
loop_
 _atom_site_type_symbol
 _atom_site_label
 _atom_site_symmetry_multiplicity
 _atom_site_fract_x
 _atom_site_fract_y
 _atom_site_fract_z
 _atom_site_occupancy
  Mg  Mg0  1  0.86876600  0.53298000  0.33120600  1
  Mg  Mg1  1  0.48073900  0.55608000  0.21535500  1
  Mg  Mg2  1  0.46702000  0.13123400  0.66879400  1
  Mg  Mg3  1  0.44392000  0.51926100  0.78464500  1
  Mg  Mg4  1  0.16460000  0.87268000  0.71548600  1
  Mg  Mg5  1  0.14148800  0.26002900  0.83120000  1
  Mg  Mg6  1  0.73997100  0.85851200  0.16880000  1
  Mg  Mg7  1  0.12732000  0.83540000  0.28451400  1
  Cu  Cu0  1  0.78887100  0.51357200  0.98674800  1
  Cu  Cu1  1  0.12180300  0.18069900  0.48622900  1
  Cu  Cu2  1  0.33405500  0.33646700  0.30419400  1
  Cu  Cu3  1  0.94579000  0.72546700  0.80397800  1
  Cu  Cu4  1  0.66353300  0.66594500  0.69580600  1
  Cu  Cu5  1  0.97270800  0.02729200  0.00000000  1
  Cu  Cu6  1  0.63523900  0.36476100  0.50000000  1
  Cu  Cu7  1  0.27453300  0.05421100  0.19602200  1
  Cu  Cu8  1  0.81930100  0.87819700  0.51377100  1
  Cu  Cu9  1  0.48642800  0.21112900  0.01325200  1
  Te  Te0  1  0.45320100  0.86132300  0.94769900  1
  Te  Te1  1  0.80413900  0.19569500  0.25009900  1
  Te  Te2  1  0.80430500  0.19586100  0.74990100  1
  Te  Te3  1  0.46938800  0.84499500  0.44759800  1
  Te  Te4  1  0.15500500  0.53061200  0.55240200  1
  Te  Te5  1  0.13867700  0.54679900  0.05230100  1
  O  O0  1  0.39007100  0.07656000  0.84401500  1
  O  O1  1  0.70618700  0.43666300  0.80005100  1
  O  O2  1  0.57156100  0.62285400  0.54998700  1
  O  O3  1  0.73989400  0.11220200  0.41626700  1
  O  O4  1  0.56333700  0.29381300  0.19994900  1
  O  O5  1  0.88779800  0.26010600  0.58373300  1
  O  O6  1  0.37926800  0.76690600  0.32201400  1
  O  O7  1  0.03212400  0.10937600  0.82489400  1
  O  O8  1  0.57594400  0.28301400  0.67445000  1
  O  O9  1  0.08387300  0.41922700  0.42429500  1
  O  O10  1  0.55372700  0.64439400  0.05540300  1
  O  O11  1  0.52402400  0.97325000  0.07614000  1
  O  O12  1  0.90219600  0.95457900  0.70014200  1
  O  O13  1  0.69209500  0.74097100  0.86230100  1
  O  O14  1  0.35560600  0.44627300  0.94459700  1
  O  O15  1  0.22907100  0.62484600  0.17785500  1
  O  O16  1  0.05496700  0.74695900  0.44437800  1
  O  O17  1  0.25902900  0.30790500  0.13769900  1
  O  O18  1  0.37714600  0.42843900  0.45001300  1
  O  O19  1  0.25304000  0.94503300  0.55562200  1
  O  O20  1  0.68480400  0.78145300  0.34416100  1
  O  O21  1  0.91641300  0.65025300  0.63770500  1
  O  O22  1  0.89062400  0.96787600  0.17510600  1
  O  O23  1  0.37515400  0.77092900  0.82214500  1
  O  O24  1  0.03661900  0.76872900  0.95000300  1
  O  O25  1  0.71961600  0.13222800  0.91711000  1
  O  O26  1  0.02675000  0.47597600  0.92386000  1
  O  O27  1  0.23309400  0.62073200  0.67798600  1
  O  O28  1  0.04542100  0.09780400  0.29985800  1
  O  O29  1  0.34974700  0.08358700  0.36229500  1
  O  O30  1  0.21854700  0.31519600  0.65583900  1
  O  O31  1  0.86777200  0.28038400  0.08289000  1
  O  O32  1  0.71698600  0.42405600  0.32555000  1
  O  O33  1  0.58077300  0.91612700  0.57570500  1
  O  O34  1  0.23127100  0.96338100  0.04999700  1
  O  O35  1  0.92344000  0.60992900  0.15598500  1
loop_
_geom_bond_atom_site_label_1
_geom_bond_atom_site_label_2
_geom_bond_distance
_geom_bond_site_symmetry_2
Mg0 O9 1.956217 1_655
Mg0 O35 1.982493 1_555
Mg0 O32 1.985309 1_555
Mg0 O20 1.987046 1_555
Mg1 O10 1.952893 1_555
Mg1 O6 2.012353 1_555
Mg1 O15 2.050196 1_555
Mg1 O4 2.062825 1_555
Mg1 O32 2.194686 1_555
Mg2 O33 1.956217 1_545
Mg2 O0 1.982493 1_555
Mg2 O8 1.985309 1_555
Mg2 O30 1.987046 1_555
Mg3 O14 1.952893 1_555
Mg3 O27 2.012353 1_555
Mg3 O23 2.050196 1_555
Mg3 O1 2.062825 1_555
Mg3 O8 2.194686 1_555
Mg4 O19 1.950273 1_555
Mg4 O23 2.010408 1_555
Mg4 O27 2.053122 1_555
Mg4 O12 2.065096 1_455
Mg4 O7 2.193025 1_565
Mg5 O26 1.959356 1_555
Mg5 O7 1.980473 1_555
Mg5 O30 1.985481 1_555
Mg5 O0 1.986424 1_555
Mg6 O11 1.959356 1_555
Mg6 O22 1.980473 1_555
Mg6 O20 1.985481 1_555
Mg6 O35 1.986424 1_555
Mg7 O16 1.950277 1_555
Mg7 O15 2.010408 1_555
Mg7 O6 2.053122 1_555
Mg7 O28 2.065096 1_565
Mg7 O22 2.193025 1_455
Cu0 O10 1.907819 1_556
Cu0 O26 1.996146 1_655
Cu0 O31 2.003520 1_556
Cu0 O13 2.106181 1_555
Cu0 O1 2.405753 1_555
Cu0 O35 2.625523 1_556
Cu1 O19 1.914195 1_545
Cu1 O9 1.998142 1_555
Cu1 O5 2.015013 1_455
Cu1 O29 2.106469 1_555
Cu1 O28 2.401422 1_555
Cu1 O30 2.630071 1_555
Cu2 O18 1.938743 1_555
Cu2 O17 1.996461 1_555
Cu2 O4 2.067742 1_555
Cu2 O29 2.178732 1_555
Cu2 O9 2.233749 1_555
Cu2 O15 2.506951 1_555
Cu3 O24 1.935412 1_655
Cu3 O21 1.997787 1_555
Cu3 O12 2.062623 1_555
Cu3 O13 2.186667 1_555
Cu3 O26 2.229556 1_655
Cu3 O27 2.498115 1_655
Cu4 O2 1.938743 1_555
Cu4 O13 1.996461 1_555
Cu4 O1 2.067742 1_555
Cu4 O21 2.178732 1_555
Cu4 O33 2.233749 1_555
Cu4 O23 2.506950 1_555
Cu5 O22 2.012277 1_545
Cu5 O7 2.012277 1_654
Cu5 O34 2.157045 1_645
Cu5 O24 2.157045 1_644
Cu5 O25 2.177639 1_554
Cu5 O31 2.177639 1_555
Cu6 O32 2.004943 1_555
Cu6 O8 2.004943 1_555
Cu6 O18 2.153677 1_555
Cu6 O2 2.153677 1_555
Cu6 O5 2.177977 1_555
Cu6 O3 2.177977 1_555
Cu7 O34 1.935417 1_545
Cu7 O29 1.997784 1_555
Cu7 O28 2.062625 1_555
Cu7 O17 2.186659 1_555
Cu7 O11 2.229555 1_545
Cu7 O6 2.498122 1_545
Cu8 O16 1.914196 1_655
Cu8 O33 1.998142 1_555
Cu8 O3 2.015013 1_565
Cu8 O21 2.106469 1_555
Cu8 O12 2.401422 1_555
Cu8 O20 2.630071 1_555
Cu9 O14 1.907819 1_554
Cu9 O11 1.996147 1_545
Cu9 O25 2.003520 1_554
Cu9 O17 2.106181 1_555
Cu9 O4 2.405753 1_555
Cu9 O0 2.625523 1_554
O0 Te0 1.931801 1_545
O1 Te2 1.955146 1_555
O2 Te3 1.952287 1_555
O3 Te1 1.954712 1_555
O4 Te1 1.955146 1_555
O5 Te2 1.954712 1_555
O6 Te3 1.927370 1_555
O7 Te2 1.971100 1_455
O8 Te2 1.976536 1_555
O9 Te4 2.034752 1_555
O10 Te0 1.947813 1_554
O11 Te0 2.038971 1_554
O12 Te2 1.957773 1_565
O13 Te0 1.988120 1_555
O14 Te5 1.947813 1_556
O15 Te5 1.928463 1_555
O16 Te4 1.945875 1_555
O17 Te5 1.988121 1_555
O18 Te4 1.952287 1_555
O19 Te3 1.945881 1_555
O20 Te3 1.931276 1_555
O21 Te4 1.985365 1_655
O22 Te1 1.971100 1_565
O23 Te0 1.928463 1_555
O24 Te5 1.950461 1_556
O25 Te2 1.966089 1_555
O26 Te5 2.038971 1_556
O27 Te4 1.927370 1_555
O28 Te1 1.957772 1_455
O29 Te3 1.985365 1_545
O30 Te4 1.931276 1_555
O31 Te1 1.966089 1_555
O32 Te1 1.976537 1_555
O33 Te3 2.034752 1_555
O34 Te0 1.950461 1_554
O35 Te5 1.931801 1_655
