# generated using pymatgen
data_TbH18(BrO6)3
_symmetry_space_group_name_H-M   'P 1'
_cell_length_a   11.80141955
_cell_length_b   11.80141955
_cell_length_c   6.79405400
_cell_angle_alpha   90.00000000
_cell_angle_beta   90.00000000
_cell_angle_gamma   119.99999747
_symmetry_Int_Tables_number   1
_chemical_formula_structural   TbH18(BrO6)3
_chemical_formula_sum   'Tb2 H36 Br6 O36'
_cell_volume   819.46071326
_cell_formula_units_Z   2
loop_
 _symmetry_equiv_pos_site_id
 _symmetry_equiv_pos_as_xyz
  1  'x, y, z'
loop_
 _atom_site_type_symbol
 _atom_site_label
 _atom_site_symmetry_multiplicity
 _atom_site_fract_x
 _atom_site_fract_y
 _atom_site_fract_z
 _atom_site_occupancy
  Tb  Tb0  1  0.33333300  0.66666700  0.74676000  1
  Tb  Tb1  1  0.66666700  0.33333300  0.24676000  1
  H  H0  1  0.11765600  0.74579800  0.75723300  1
  H  H1  1  0.25420200  0.37185800  0.75723300  1
  H  H2  1  0.62814200  0.88234400  0.75723300  1
  H  H3  1  0.25420200  0.88234400  0.75723300  1
  H  H4  1  0.62814200  0.74579800  0.75723300  1
  H  H5  1  0.11765600  0.37185800  0.75723300  1
  H  H6  1  0.88234400  0.25420200  0.25723300  1
  H  H7  1  0.74579800  0.62814200  0.25723300  1
  H  H8  1  0.37185800  0.11765600  0.25723300  1
  H  H9  1  0.74579800  0.11765600  0.25723300  1
  H  H10  1  0.37185800  0.25420200  0.25723300  1
  H  H11  1  0.88234400  0.62814200  0.25723300  1
  H  H12  1  0.37072800  0.49646200  0.06077300  1
  H  H13  1  0.50353800  0.87426600  0.06077300  1
  H  H14  1  0.12573400  0.62927200  0.06077300  1
  H  H15  1  0.50353800  0.62927200  0.06077300  1
  H  H16  1  0.12573400  0.49646200  0.06077300  1
  H  H17  1  0.37072800  0.87426600  0.06077300  1
  H  H18  1  0.62932100  0.50430200  0.93974100  1
  H  H19  1  0.49569800  0.12501900  0.93974100  1
  H  H20  1  0.87498100  0.37067900  0.93974100  1
  H  H21  1  0.49569800  0.37067900  0.93974100  1
  H  H22  1  0.87498100  0.50430200  0.93974100  1
  H  H23  1  0.62932100  0.12501900  0.93974100  1
  H  H24  1  0.62927200  0.50353800  0.56077300  1
  H  H25  1  0.49646200  0.12573400  0.56077300  1
  H  H26  1  0.87426600  0.37072800  0.56077300  1
  H  H27  1  0.49646200  0.37072800  0.56077300  1
  H  H28  1  0.87426600  0.50353800  0.56077300  1
  H  H29  1  0.62927200  0.12573400  0.56077300  1
  H  H30  1  0.37067900  0.49569800  0.43974100  1
  H  H31  1  0.50430200  0.87498100  0.43974100  1
  H  H32  1  0.12501900  0.62932100  0.43974100  1
  H  H33  1  0.50430200  0.62932100  0.43974100  1
  H  H34  1  0.12501900  0.49569800  0.43974100  1
  H  H35  1  0.37067900  0.87498100  0.43974100  1
  Br  Br0  1  0.12990700  0.87009300  0.25730000  1
  Br  Br1  1  0.12990700  0.25981500  0.25730000  1
  Br  Br2  1  0.74018500  0.87009300  0.25730000  1
  Br  Br3  1  0.87009300  0.12990700  0.75730000  1
  Br  Br4  1  0.87009300  0.74018500  0.75730000  1
  Br  Br5  1  0.25981500  0.12990700  0.75730000  1
  O  O0  1  0.29562900  0.93250200  0.25119100  1
  O  O1  1  0.06749800  0.36312700  0.25119100  1
  O  O2  1  0.63687300  0.70437100  0.25119100  1
  O  O3  1  0.06749800  0.70437100  0.25119100  1
  O  O4  1  0.63687300  0.93250200  0.25119100  1
  O  O5  1  0.29562900  0.36312700  0.25119100  1
  O  O6  1  0.70437100  0.06749800  0.75119100  1
  O  O7  1  0.93250200  0.63687300  0.75119100  1
  O  O8  1  0.36312700  0.29562900  0.75119100  1
  O  O9  1  0.93250200  0.29562900  0.75119100  1
  O  O10  1  0.36312700  0.06749800  0.75119100  1
  O  O11  1  0.70437100  0.63687300  0.75119100  1
  O  O12  1  0.42281500  0.57718500  0.98399300  1
  O  O13  1  0.42281500  0.84563000  0.98399300  1
  O  O14  1  0.15437000  0.57718500  0.98399300  1
  O  O15  1  0.57705500  0.42294500  0.01490000  1
  O  O16  1  0.57705500  0.15411000  0.01490000  1
  O  O17  1  0.84589000  0.42294500  0.01490000  1
  O  O18  1  0.57718500  0.42281500  0.48399300  1
  O  O19  1  0.57718500  0.15437000  0.48399300  1
  O  O20  1  0.84563000  0.42281500  0.48399300  1
  O  O21  1  0.42294500  0.57705500  0.51490000  1
  O  O22  1  0.42294500  0.84589000  0.51490000  1
  O  O23  1  0.15411000  0.57705500  0.51490000  1
  O  O24  1  0.21269800  0.78730200  0.73614400  1
  O  O25  1  0.21269800  0.42539600  0.73614400  1
  O  O26  1  0.57460400  0.78730200  0.73614400  1
  O  O27  1  0.78730200  0.21269800  0.23614400  1
  O  O28  1  0.78730200  0.57460400  0.23614400  1
  O  O29  1  0.42539600  0.21269800  0.23614400  1
  O  O30  1  0.09225300  0.90774700  0.04173600  1
  O  O31  1  0.09225300  0.18450700  0.04173600  1
  O  O32  1  0.81549300  0.90774700  0.04173600  1
  O  O33  1  0.90774700  0.09225300  0.54173600  1
  O  O34  1  0.90774700  0.81549300  0.54173600  1
  O  O35  1  0.18450700  0.09225300  0.54173600  1
loop_
_geom_bond_atom_site_label_1
_geom_bond_atom_site_label_2
_geom_bond_distance
_geom_bond_site_symmetry_2
H0 O24 0.984435 1_555
H1 O25 0.984435 1_555
H2 O26 0.984435 1_555
H3 O24 0.984435 1_555
H4 O26 0.984435 1_555
H5 O25 0.984435 1_555
H6 O27 0.984435 1_555
H7 O28 0.984435 1_555
H8 O29 0.984435 1_555
H9 O27 0.984435 1_555
H10 O29 0.984435 1_555
H11 O28 0.984435 1_555
H12 O12 0.985858 1_554
H13 O13 0.985858 1_554
H14 O14 0.985858 1_554
H15 O12 0.985858 1_554
H16 O14 0.985858 1_554
H17 O13 0.985858 1_554
H18 O15 0.985308 1_556
H19 O16 0.985308 1_556
H20 O17 0.985308 1_556
H21 O15 0.985308 1_556
H22 O17 0.985308 1_556
H23 O16 0.985308 1_556
H24 O18 0.985858 1_555
H25 O19 0.985858 1_555
H26 O20 0.985858 1_555
H27 O18 0.985858 1_555
H28 O20 0.985858 1_555
H29 O19 0.985858 1_555
H30 O21 0.985308 1_555
H31 O22 0.985308 1_555
H32 O23 0.985308 1_555
H33 O21 0.985308 1_555
H34 O23 0.985308 1_555
H35 O22 0.985308 1_555
Br0 O30 1.654483 1_555
Br0 O0 1.711348 1_555
Br0 O3 1.711348 1_555
Br1 O31 1.654483 1_555
Br1 O1 1.711337 1_555
Br1 O5 1.711346 1_555
Br2 O32 1.654483 1_555
Br2 O4 1.711337 1_555
Br2 O2 1.711346 1_555
Br3 O33 1.654483 1_555
Br3 O9 1.711348 1_555
Br3 O6 1.711348 1_555
Br4 O34 1.654483 1_555
Br4 O7 1.711337 1_555
Br4 O11 1.711346 1_555
Br5 O35 1.654483 1_555
Br5 O10 1.711337 1_555
Br5 O8 1.711346 1_555
O12 Tb0 2.437892 1_555
O13 Tb0 2.437884 1_555
O14 Tb0 2.437884 1_555
O15 Tb1 2.415927 1_555
O16 Tb1 2.415919 1_555
O17 Tb1 2.415919 1_555
O18 Tb1 2.437892 1_555
O19 Tb1 2.437884 1_555
O20 Tb1 2.437884 1_555
O21 Tb0 2.415927 1_555
O22 Tb0 2.415919 1_555
O23 Tb0 2.415919 1_555
O24 Tb0 2.466913 1_555
O25 Tb0 2.466924 1_555
O26 Tb0 2.466924 1_555
O27 Tb1 2.466913 1_555
O28 Tb1 2.466924 1_555
O29 Tb1 2.466924 1_555
