# generated using pymatgen
data_YCoO3
_symmetry_space_group_name_H-M   'P 1'
_cell_length_a   5.27717852
_cell_length_b   5.70734023
_cell_length_c   7.53543709
_cell_angle_alpha   90.06302224
_cell_angle_beta   90.33811138
_cell_angle_gamma   90.64618665
_symmetry_Int_Tables_number   1
_chemical_formula_structural   YCoO3
_chemical_formula_sum   'Y4 Co4 O12'
_cell_volume   226.93867729
_cell_formula_units_Z   4
loop_
 _symmetry_equiv_pos_site_id
 _symmetry_equiv_pos_as_xyz
  1  'x, y, z'
loop_
 _atom_site_type_symbol
 _atom_site_label
 _atom_site_symmetry_multiplicity
 _atom_site_fract_x
 _atom_site_fract_y
 _atom_site_fract_z
 _atom_site_occupancy
  Y  Y0  1  0.01730100  0.92073800  0.74659700  1
  Y  Y1  1  0.47555900  0.42198200  0.74741300  1
  Y  Y2  1  0.52444100  0.57801800  0.25258700  1
  Y  Y3  1  0.98269900  0.07926200  0.25340300  1
  Co  Co0  1  0.50000100  0.00000000  0.00000000  1
  Co  Co1  1  0.50000000  0.00000000  0.50000000  1
  Co  Co2  1  0.00000000  0.50000000  0.00000000  1
  Co  Co3  1  0.00000000  0.50000000  0.50000000  1
  O  O0  1  0.79947600  0.81562300  0.05110000  1
  O  O1  1  0.30996200  0.68873400  0.55721700  1
  O  O2  1  0.69003800  0.31126600  0.44278300  1
  O  O3  1  0.20052400  0.18437700  0.94890000  1
  O  O4  1  0.29712500  0.68645500  0.94721300  1
  O  O5  1  0.81454500  0.80957800  0.44154600  1
  O  O6  1  0.18545500  0.19042200  0.55845400  1
  O  O7  1  0.70287500  0.31354500  0.05278700  1
  O  O8  1  0.60679400  0.03520700  0.74410100  1
  O  O9  1  0.11964200  0.46084100  0.25303600  1
  O  O10  1  0.39320600  0.96479300  0.25589900  1
  O  O11  1  0.88035700  0.53915900  0.74696400  1
loop_
_geom_bond_atom_site_label_1
_geom_bond_atom_site_label_2
_geom_bond_distance
_geom_bond_site_symmetry_2
Co0 O0 1.945364 1_545
Co0 O3 1.945373 1_554
Co0 O8 2.021754 1_554
Co0 O10 2.021757 1_545
Co0 O7 2.111148 1_555
Co0 O4 2.111153 1_544
Co1 O8 1.930235 1_555
Co1 O10 1.930235 1_545
Co1 O6 2.044194 1_555
Co1 O5 2.044194 1_545
Co1 O2 2.077063 1_555
Co1 O1 2.077063 1_545
Co2 O4 1.928701 1_554
Co2 O7 1.928701 1_455
Co2 O9 2.018449 1_555
Co2 O11 2.018451 1_454
Co2 O0 2.135244 1_455
Co2 O3 2.135244 1_554
Co3 O9 1.981910 1_555
Co3 O11 1.981912 1_455
Co3 O1 1.993162 1_555
Co3 O2 1.993162 1_455
Co3 O5 2.075880 1_455
Co3 O6 2.075880 1_555
O0 Y3 2.338293 1_565
O0 Y2 2.497385 1_555
O0 Y0 2.639108 1_654
O1 Y1 2.270601 1_555
O1 Y0 2.498608 1_555
O1 Y2 2.644500 1_555
O2 Y2 2.270601 1_555
O2 Y3 2.498608 1_555
O2 Y1 2.644500 1_555
O3 Y0 2.338293 1_545
O3 Y1 2.497385 1_555
O3 Y3 2.639108 1_456
O4 Y1 2.340006 1_555
O4 Y0 2.505289 1_555
O4 Y2 2.665429 1_556
O5 Y3 2.270537 1_565
O5 Y2 2.458111 1_555
O5 Y0 2.604572 1_655
O6 Y0 2.270537 1_545
O6 Y1 2.458111 1_555
O6 Y3 2.604572 1_455
O7 Y2 2.340006 1_555
O7 Y3 2.505289 1_555
O7 Y1 2.665429 1_554
O8 Y0 2.269709 1_645
O8 Y1 2.321137 1_555
O9 Y2 2.231248 1_555
O9 Y3 2.286836 1_455
O10 Y3 2.269709 1_465
O10 Y2 2.321137 1_555
O11 Y1 2.231243 1_555
O11 Y0 2.286838 1_655
