# generated using pymatgen
data_Li7Mn4CoO12
_symmetry_space_group_name_H-M   'P 1'
_cell_length_a   2.96876500
_cell_length_b   7.64434385
_cell_length_c   9.76758424
_cell_angle_alpha   92.04793113
_cell_angle_beta   96.50468222
_cell_angle_gamma   98.50478230
_symmetry_Int_Tables_number   1
_chemical_formula_structural   Li7Mn4CoO12
_chemical_formula_sum   'Li7 Mn4 Co1 O12'
_cell_volume   217.50827794
_cell_formula_units_Z   1
loop_
 _symmetry_equiv_pos_site_id
 _symmetry_equiv_pos_as_xyz
  1  'x, y, z'
loop_
 _atom_site_type_symbol
 _atom_site_label
 _atom_site_symmetry_multiplicity
 _atom_site_fract_x
 _atom_site_fract_y
 _atom_site_fract_z
 _atom_site_occupancy
  Li  Li0  1  0.74920200  0.74822700  0.74766900  1
  Li  Li1  1  0.90247500  0.57571200  0.24334500  1
  Li  Li2  1  0.07237300  0.40432400  0.75796500  1
  Li  Li3  1  0.25862300  0.25970200  0.24450400  1
  Li  Li4  1  0.43116900  0.09318800  0.75407600  1
  Li  Li5  1  0.58694700  0.91803300  0.25318400  1
  Li  Li6  1  0.66640700  0.33312100  0.00047100  1
  Mn  Mn0  1  0.99580700  0.00930400  0.99565600  1
  Mn  Mn1  1  0.33750600  0.65750200  0.00398300  1
  Mn  Mn2  1  0.17010600  0.83648100  0.50072100  1
  Mn  Mn3  1  0.49715100  0.49746100  0.49985000  1
  Co  Co0  1  0.83302000  0.16627700  0.49908700  1
  O  O0  1  0.40087700  0.88164700  0.89367200  1
  O  O1  1  0.50480400  0.70340000  0.38364900  1
  O  O2  1  0.75767600  0.56317900  0.89204400  1
  O  O3  1  0.83974600  0.36475700  0.38301700  1
  O  O4  1  0.02940200  0.19157900  0.88188000  1
  O  O5  1  0.17798700  0.04097000  0.38328700  1
  O  O6  1  0.16318800  0.63047000  0.61998300  1
  O  O7  1  0.30506200  0.47576400  0.11844400  1
  O  O8  1  0.48686900  0.29361500  0.61480100  1
  O  O9  1  0.57497000  0.10267800  0.10797600  1
  O  O10  1  0.82660000  0.96736100  0.61498800  1
  O  O11  1  0.93203100  0.78524900  0.10574900  1
loop_
_geom_bond_atom_site_label_1
_geom_bond_atom_site_label_2
_geom_bond_distance
_geom_bond_site_symmetry_2
Li0 O2 2.033557 1_555
Li0 O6 2.087441 1_555
Li0 O6 2.114374 1_655
Li0 O10 2.155737 1_555
Li0 O0 2.164589 1_555
Li0 O0 2.346106 1_655
Li1 O7 2.008586 1_655
Li1 O7 2.063983 1_555
Li1 O11 2.125715 1_555
Li1 O3 2.149970 1_555
Li1 O1 2.199193 1_555
Li1 O1 2.204837 1_655
Li2 O4 2.059214 1_555
Li2 O2 2.135818 1_455
Li2 O8 2.150037 1_455
Li2 O8 2.190707 1_555
Li2 O6 2.233527 1_555
Li2 O2 2.425048 1_555
Li3 O7 2.092731 1_555
Li3 O3 2.106052 1_555
Li3 O9 2.145693 1_555
Li3 O3 2.149583 1_455
Li3 O5 2.192672 1_555
Li3 O9 2.426984 1_455
Li4 O4 2.020471 1_555
Li4 O4 2.076955 1_655
Li4 O8 2.085762 1_555
Li4 O0 2.150490 1_545
Li4 O10 2.179664 1_545
Li4 O10 2.199035 1_445
Li5 O9 2.037580 1_565
Li5 O1 2.115861 1_555
Li5 O5 2.120993 1_665
Li5 O5 2.138653 1_565
Li5 O11 2.165890 1_555
Li5 O11 2.358354 1_455
Li6 O7 2.050333 1_555
Li6 O4 2.052301 1_654
Li6 O9 2.082031 1_555
Li6 O2 2.084480 1_554
Li6 O4 2.213073 1_554
Li6 O7 2.217064 1_655
Mn0 O4 1.811391 1_655
Mn0 O9 1.947402 1_556
Mn0 O9 1.955268 1_656
Mn0 O0 1.984885 1_645
Mn0 O0 2.021428 1_545
Mn0 O11 2.051239 1_546
Mn1 O7 1.812488 1_555
Mn1 O2 1.946799 1_554
Mn1 O2 1.956684 1_454
Mn1 O11 1.984981 1_455
Mn1 O11 2.019960 1_555
Mn1 O0 2.052986 1_554
Mn2 O10 1.940752 1_455
Mn2 O1 1.950168 1_555
Mn2 O5 1.970589 1_565
Mn2 O6 1.991090 1_555
Mn2 O10 2.212641 1_555
Mn2 O1 2.248216 1_455
Mn3 O8 1.951549 1_555
Mn3 O3 1.962456 1_555
Mn3 O6 1.967278 1_555
Mn3 O1 1.972318 1_555
Mn3 O3 2.228779 1_455
Mn3 O6 2.261599 1_655
Co0 O3 1.925326 1_555
Co0 O10 1.927037 1_545
Co0 O5 1.928969 1_655
Co0 O8 1.939444 1_555
Co0 O5 2.202674 1_555
Co0 O8 2.204168 1_655
