# generated using pymatgen
data_Ba3RuF6
_symmetry_space_group_name_H-M   'P 1'
_cell_length_a   6.35486909
_cell_length_b   8.19328137
_cell_length_c   6.86695718
_cell_angle_alpha   131.12081894
_cell_angle_beta   76.95157914
_cell_angle_gamma   100.20603402
_symmetry_Int_Tables_number   1
_chemical_formula_structural   Ba3RuF6
_chemical_formula_sum   'Ba3 Ru1 F6'
_cell_volume   262.19076260
_cell_formula_units_Z   1
loop_
 _symmetry_equiv_pos_site_id
 _symmetry_equiv_pos_as_xyz
  1  'x, y, z'
loop_
 _atom_site_type_symbol
 _atom_site_label
 _atom_site_symmetry_multiplicity
 _atom_site_fract_x
 _atom_site_fract_y
 _atom_site_fract_z
 _atom_site_occupancy
  Ba  Ba0  1  0.50000000  0.00000000  0.00000000  1
  Ba  Ba1  1  0.00000000  0.50000000  0.50000000  1
  Ba  Ba2  1  0.00000000  0.00000000  0.50000000  1
  Ru  Ru0  1  0.00000000  0.00000000  0.00000000  1
  F  F0  1  0.76655400  0.13447800  0.35649100  1
  F  F1  1  0.23344600  0.86552200  0.64350900  1
  F  F2  1  0.72222600  0.72405100  0.50804400  1
  F  F3  1  0.27777400  0.27594900  0.49195600  1
  F  F4  1  0.13523700  0.76653100  0.99098900  1
  F  F5  1  0.86476300  0.23346900  0.00901100  1
loop_
_geom_bond_atom_site_label_1
_geom_bond_atom_site_label_2
_geom_bond_distance
_geom_bond_site_symmetry_2
Ba0 F5 2.715491 1_555
Ba0 F4 2.715491 1_544
Ba0 F2 2.729416 1_544
Ba0 F3 2.729416 1_555
Ba0 F1 2.781986 1_544
Ba0 F0 2.781986 1_555
Ba1 F1 2.710128 1_555
Ba1 F0 2.710128 1_455
Ba1 F3 2.731267 1_555
Ba1 F2 2.731267 1_455
Ba1 F5 2.798961 1_455
Ba1 F4 2.798961 1_555
Ba2 F3 2.633770 1_555
Ba2 F2 2.633770 1_445
Ba2 F4 2.654623 1_544
Ba2 F5 2.654623 1_456
Ba2 F1 2.655850 1_545
Ba2 F0 2.655850 1_455
F0 Ru0 2.190720 1_655
F1 Ru0 2.190720 1_566
F4 Ru0 2.191894 1_566
F5 Ru0 2.191894 1_655
