# generated using pymatgen
data_MgRe(PbO3)2
_symmetry_space_group_name_H-M   'P 1'
_cell_length_a   5.68223797
_cell_length_b   5.68223797
_cell_length_c   5.68223797
_cell_angle_alpha   60.00000000
_cell_angle_beta   60.00000000
_cell_angle_gamma   60.00000000
_symmetry_Int_Tables_number   1
_chemical_formula_structural   MgRe(PbO3)2
_chemical_formula_sum   'Mg1 Re1 Pb2 O6'
_cell_volume   129.73084756
_cell_formula_units_Z   1
loop_
 _symmetry_equiv_pos_site_id
 _symmetry_equiv_pos_as_xyz
  1  'x, y, z'
loop_
 _atom_site_type_symbol
 _atom_site_label
 _atom_site_symmetry_multiplicity
 _atom_site_fract_x
 _atom_site_fract_y
 _atom_site_fract_z
 _atom_site_occupancy
  Mg  Mg0  1  0.50000000  0.50000000  0.50000000  1
  Re  Re0  1  0.00000000  0.00000000  0.00000000  1
  Pb  Pb0  1  0.25000000  0.25000000  0.25000000  1
  Pb  Pb1  1  0.75000000  0.75000000  0.75000000  1
  O  O0  1  0.75918800  0.24081200  0.24081200  1
  O  O1  1  0.24081200  0.75918800  0.75918800  1
  O  O2  1  0.24081200  0.75918800  0.24081200  1
  O  O3  1  0.75918800  0.24081200  0.75918800  1
  O  O4  1  0.24081200  0.24081200  0.75918800  1
  O  O5  1  0.75918800  0.75918800  0.24081200  1
loop_
_geom_bond_atom_site_label_1
_geom_bond_atom_site_label_2
_geom_bond_distance
_geom_bond_site_symmetry_2
Mg0 O0 2.082808 1_555
Mg0 O3 2.082808 1_555
Mg0 O2 2.082808 1_555
Mg0 O4 2.082808 1_555
Mg0 O1 2.082808 1_555
Mg0 O5 2.082808 1_555
O0 Re0 1.935141 1_655
O0 Pb0 2.842078 1_555
O0 Pb1 2.842078 1_554
O0 Pb0 2.842078 1_655
O0 Pb1 2.842078 1_545
O1 Re0 1.935141 1_566
O1 Pb0 2.842078 1_565
O1 Pb1 2.842078 1_555
O1 Pb1 2.842078 1_455
O1 Pb0 2.842078 1_556
O2 Re0 1.935141 1_565
O2 Pb0 2.842078 1_555
O2 Pb1 2.842078 1_554
O2 Pb0 2.842078 1_565
O2 Pb1 2.842078 1_455
O3 Re0 1.935141 1_656
O3 Pb0 2.842078 1_556
O3 Pb0 2.842078 1_655
O3 Pb1 2.842078 1_555
O3 Pb1 2.842078 1_545
O4 Re0 1.935141 1_556
O4 Pb1 2.842078 1_545
O4 Pb1 2.842078 1_455
O4 Pb0 2.842078 1_556
O4 Pb0 2.842078 1_555
O5 Re0 1.935141 1_665
O5 Pb0 2.842078 1_565
O5 Pb0 2.842078 1_655
O5 Pb1 2.842078 1_555
O5 Pb1 2.842078 1_554
