# generated using pymatgen
data_Li7Mn2(CoO4)3
_symmetry_space_group_name_H-M   'P 1'
_cell_length_a   2.98097500
_cell_length_b   7.60520474
_cell_length_c   10.14166200
_cell_angle_alpha   107.17311235
_cell_angle_beta   88.76011050
_cell_angle_gamma   99.21061491
_symmetry_Int_Tables_number   1
_chemical_formula_structural   Li7Mn2(CoO4)3
_chemical_formula_sum   'Li7 Mn2 Co3 O12'
_cell_volume   216.75797554
_cell_formula_units_Z   1
loop_
 _symmetry_equiv_pos_site_id
 _symmetry_equiv_pos_as_xyz
  1  'x, y, z'
loop_
 _atom_site_type_symbol
 _atom_site_label
 _atom_site_symmetry_multiplicity
 _atom_site_fract_x
 _atom_site_fract_y
 _atom_site_fract_z
 _atom_site_occupancy
  Li  Li0  1  0.82395100  0.66175200  0.74855100  1
  Li  Li1  1  0.17460300  0.33633300  0.24584800  1
  Li  Li2  1  0.51442800  0.01156500  0.75473800  1
  Li  Li3  1  0.16601100  0.33185200  0.75966100  1
  Li  Li4  1  0.49275700  0.99702900  0.25102700  1
  Li  Li5  1  0.83197900  0.66857900  0.24605000  1
  Li  Li6  1  0.65496500  0.32706700  0.99132500  1
  Mn  Mn0  1  0.00399300  0.00663200  0.99975200  1
  Mn  Mn1  1  0.33138500  0.66686600  0.49951900  1
  Co  Co0  1  0.00575600  0.00129700  0.50012600  1
  Co  Co1  1  0.33095600  0.65518800  0.00397400  1
  Co  Co2  1  0.65960600  0.32853600  0.49923400  1
  O  O0  1  0.43946100  0.84421600  0.89839400  1
  O  O1  1  0.71217700  0.49351100  0.37993000  1
  O  O2  1  0.07044200  0.15089100  0.88169600  1
  O  O3  1  0.73612000  0.52079400  0.88698000  1
  O  O4  1  0.09029800  0.16420300  0.38579300  1
  O  O5  1  0.38863400  0.83775100  0.38638500  1
  O  O6  1  0.24284500  0.50134600  0.61543600  1
  O  O7  1  0.55415700  0.14398900  0.10916900  1
  O  O8  1  0.94628500  0.83585400  0.61385700  1
  O  O9  1  0.62128600  0.16691600  0.61488700  1
  O  O10  1  0.94123500  0.82814800  0.11049200  1
  O  O11  1  0.26667100  0.51968300  0.11717600  1
loop_
_geom_bond_atom_site_label_1
_geom_bond_atom_site_label_2
_geom_bond_distance
_geom_bond_site_symmetry_2
Li0 O3 1.992906 1_555
Li0 O6 2.076581 1_655
Li0 O8 2.155027 1_555
Li0 O0 2.176505 1_555
Li0 O6 2.182575 1_555
Li0 O0 2.379467 1_655
Li1 O1 2.089783 1_555
Li1 O7 2.146156 1_555
Li1 O11 2.158500 1_555
Li1 O1 2.159796 1_455
Li1 O4 2.183484 1_555
Li1 O7 2.351483 1_455
Li2 O2 2.025293 1_555
Li2 O2 2.062098 1_655
Li2 O9 2.087702 1_555
Li2 O0 2.186820 1_545
Li2 O8 2.197283 1_545
Li2 O8 2.224455 1_445
Li3 O2 2.090936 1_555
Li3 O9 2.174744 1_455
Li3 O3 2.190096 1_455
Li3 O3 2.199509 1_555
Li3 O6 2.204063 1_555
Li3 O9 2.223121 1_555
Li4 O7 2.055504 1_565
Li4 O5 2.071546 1_555
Li4 O4 2.077253 1_565
Li4 O10 2.174487 1_455
Li4 O10 2.203299 1_555
Li4 O4 2.238651 1_665
Li5 O11 2.047465 1_655
Li5 O10 2.075601 1_555
Li5 O11 2.107315 1_555
Li5 O1 2.153622 1_555
Li5 O5 2.184460 1_655
Li5 O5 2.192976 1_555
Li6 O3 2.035830 1_555
Li6 O2 2.038936 1_655
Li6 O7 2.071337 1_556
Li6 O11 2.118845 1_556
Li6 O2 2.127030 1_555
Li6 O11 2.289436 1_656
Mn0 O2 1.836368 1_555
Mn0 O7 1.954552 1_456
Mn0 O7 1.964200 1_556
Mn0 O10 1.987142 1_446
Mn0 O0 1.993308 1_545
Mn0 O0 2.018422 1_445
Mn1 O6 1.946889 1_555
Mn1 O5 1.958480 1_555
Mn1 O8 1.961844 1_455
Mn1 O1 1.993222 1_555
Mn1 O8 2.194090 1_555
Mn1 O1 2.233802 1_455
Co0 O4 1.917993 1_555
Co0 O8 1.929168 1_445
Co0 O5 1.931467 1_545
Co0 O9 1.947653 1_455
Co0 O5 2.184941 1_445
Co0 O9 2.189692 1_555
Co1 O11 1.744331 1_555
Co1 O3 1.878367 1_554
Co1 O10 1.960277 1_455
Co1 O0 2.015682 1_554
Co1 O3 2.095571 1_454
Co1 O10 2.164879 1_555
Co2 O9 1.923588 1_555
Co2 O1 1.971804 1_555
Co2 O4 2.033369 1_655
Co2 O6 2.050427 1_555
Co2 O4 2.078970 1_555
Co2 O6 2.140434 1_655
