# generated using pymatgen
data_Ca2CuWO6
_symmetry_space_group_name_H-M   'P 1'
_cell_length_a   5.56019107
_cell_length_b   5.56019107
_cell_length_c   5.61174586
_cell_angle_alpha   60.50918978
_cell_angle_beta   60.50918978
_cell_angle_gamma   88.82891074
_symmetry_Int_Tables_number   1
_chemical_formula_structural   Ca2CuWO6
_chemical_formula_sum   'Ca2 Cu1 W1 O6'
_cell_volume   125.68252048
_cell_formula_units_Z   1
loop_
 _symmetry_equiv_pos_site_id
 _symmetry_equiv_pos_as_xyz
  1  'x, y, z'
loop_
 _atom_site_type_symbol
 _atom_site_label
 _atom_site_symmetry_multiplicity
 _atom_site_fract_x
 _atom_site_fract_y
 _atom_site_fract_z
 _atom_site_occupancy
  Ca  Ca0  1  0.78529300  0.29205000  0.45881600  1
  Ca  Ca1  1  0.29205000  0.78529300  0.45881600  1
  Cu  Cu0  1  0.49043400  0.49043400  0.00584500  1
  W  W0  1  0.98112800  0.98112800  0.01754700  1
  O  O0  1  0.20773800  0.71151000  0.03686300  1
  O  O1  1  0.71151000  0.20773800  0.03686300  1
  O  O2  1  0.21111300  0.21111300  0.03768400  1
  O  O3  1  0.19569000  0.19569000  0.54912300  1
  O  O4  1  0.72683300  0.72683300  0.50186600  1
  O  O5  1  0.71534500  0.71534500  0.05490300  1
loop_
_geom_bond_atom_site_label_1
_geom_bond_atom_site_label_2
_geom_bond_distance
_geom_bond_site_symmetry_2
Ca0 O0 2.423668 1_655
Ca0 O5 2.531105 1_555
Ca0 O4 2.544365 1_555
Ca0 O3 2.563620 1_655
Ca0 O2 2.624476 1_655
Ca0 O1 2.837639 1_555
Ca0 O1 2.847989 1_556
Ca0 O4 3.042630 1_545
Ca0 O2 3.058752 1_556
Ca0 O3 3.075694 1_555
Ca0 O5 3.135661 1_546
Ca1 O1 2.423668 1_565
Ca1 O5 2.531105 1_555
Ca1 O4 2.544365 1_555
Ca1 O3 2.563620 1_565
Ca1 O2 2.624476 1_565
Ca1 O0 2.837639 1_555
Ca1 O0 2.847989 1_556
Ca1 O4 3.042630 1_455
Ca1 O2 3.058752 1_556
Ca1 O3 3.075694 1_555
Ca1 O5 3.135661 1_456
Cu0 O0 1.968321 1_555
Cu0 O1 1.968321 1_555
Cu0 O5 1.986299 1_555
Cu0 O4 2.050510 1_554
Cu0 O2 2.099572 1_555
Cu0 O3 2.222071 1_555
O0 W0 1.934939 1_455
O1 W0 1.934939 1_545
O2 W0 1.906467 1_445
O3 W0 1.907716 1_446
O4 W0 1.974790 1_555
O5 W0 1.972561 1_555
