# generated using pymatgen
data_Gd(Ga2Fe)4
_symmetry_space_group_name_H-M   'P 1'
_cell_length_a   6.63889292
_cell_length_b   6.63889292
_cell_length_c   6.63889292
_cell_angle_alpha   98.43466338
_cell_angle_beta   98.43466338
_cell_angle_gamma   134.96194670
_symmetry_Int_Tables_number   1
_chemical_formula_structural   Gd(Ga2Fe)4
_chemical_formula_sum   'Gd1 Ga8 Fe4'
_cell_volume   191.25633146
_cell_formula_units_Z   1
loop_
 _symmetry_equiv_pos_site_id
 _symmetry_equiv_pos_as_xyz
  1  'x, y, z'
loop_
 _atom_site_type_symbol
 _atom_site_label
 _atom_site_symmetry_multiplicity
 _atom_site_fract_x
 _atom_site_fract_y
 _atom_site_fract_z
 _atom_site_occupancy
  Gd  Gd0  1  0.00000000  0.00000000  0.00000000  1
  Ga  Ga0  1  0.28114000  0.50000000  0.78114000  1
  Ga  Ga1  1  0.71886000  0.50000000  0.21886000  1
  Ga  Ga2  1  0.50000000  0.28114000  0.78114000  1
  Ga  Ga3  1  0.50000000  0.71886000  0.21886000  1
  Ga  Ga4  1  0.34071500  0.00000000  0.34071500  1
  Ga  Ga5  1  0.65928400  0.00000000  0.65928400  1
  Ga  Ga6  1  0.00000000  0.34071500  0.34071500  1
  Ga  Ga7  1  0.00000000  0.65928500  0.65928400  1
  Fe  Fe0  1  0.50000000  0.50000000  0.50000000  1
  Fe  Fe1  1  0.00000000  0.00000000  0.50000000  1
  Fe  Fe2  1  0.00000000  0.50000000  0.00000000  1
  Fe  Fe3  1  0.50000000  0.00000000  0.00000000  1
loop_
_geom_bond_atom_site_label_1
_geom_bond_atom_site_label_2
_geom_bond_distance
_geom_bond_site_symmetry_2
Ga0 Ga2 2.684402 1_555
Ga0 Ga3 2.684402 1_556
Ga0 Ga5 2.753526 1_455
Ga0 Ga5 2.753526 1_565
Ga0 Ga6 2.802465 1_555
Ga0 Ga7 2.802467 1_555
Ga0 Gd0 3.173008 1_666
Ga0 Gd0 3.173008 1_556
Ga1 Ga2 2.684402 1_554
Ga1 Ga3 2.684402 1_555
Ga1 Ga4 2.753522 1_665
Ga1 Ga4 2.753522 1_555
Ga1 Ga7 2.802459 1_655
Ga1 Ga6 2.802465 1_655
Ga1 Gd0 3.173008 1_665
Ga1 Gd0 3.173008 1_555
Ga2 Ga7 2.753522 1_545
Ga2 Ga7 2.753526 1_655
Ga2 Ga5 2.802461 1_555
Ga2 Ga4 2.802465 1_555
Ga2 Gd0 3.173008 1_666
Ga2 Gd0 3.173008 1_556
Ga3 Ga6 2.753522 1_665
Ga3 Ga6 2.753522 1_555
Ga3 Ga5 2.802461 1_565
Ga3 Ga4 2.802465 1_565
Ga3 Gd0 3.173008 1_665
Ga3 Gd0 3.173008 1_555
Ga4 Ga5 2.762929 1_555
Ga4 Gd0 2.955000 1_555
Ga5 Gd0 2.955009 1_656
Ga6 Ga7 2.762934 1_555
Ga6 Gd0 2.955000 1_555
Ga7 Gd0 2.955004 1_566
Fe0 Ga2 2.527929 1_555
Fe0 Ga0 2.527929 1_555
Fe0 Ga3 2.527929 1_555
Fe0 Ga1 2.527929 1_555
Fe0 Fe1 2.542631 1_665
Fe0 Fe1 2.542631 1_555
Fe0 Ga7 2.633720 1_655
Fe0 Ga6 2.633721 1_555
Fe0 Ga4 2.633721 1_555
Fe0 Ga5 2.633723 1_565
Fe0 Gd0 3.319446 1_666
Fe0 Gd0 3.319446 1_555
Fe1 Ga2 2.527929 1_555
Fe1 Ga0 2.527929 1_555
Fe1 Ga3 2.527929 1_445
Fe1 Ga1 2.527929 1_445
Fe1 Ga7 2.633717 1_545
Fe1 Ga6 2.633721 1_555
Fe1 Ga4 2.633721 1_555
Fe1 Ga5 2.633723 1_455
Fe1 Gd0 3.319446 1_556
Fe1 Gd0 3.319446 1_555
Fe2 Ga1 2.527929 1_455
Fe2 Ga2 2.527929 1_454
Fe2 Ga3 2.527929 1_555
Fe2 Ga0 2.527929 1_554
Fe2 Fe3 2.542631 1_565
Fe2 Fe3 2.542631 1_455
Fe2 Ga6 2.633721 1_555
Fe2 Ga4 2.633721 1_565
Fe2 Ga5 2.633723 1_454
Fe2 Ga7 2.633727 1_554
Fe2 Gd0 3.319446 1_565
Fe2 Gd0 3.319446 1_555
Fe3 Ga3 2.527929 1_545
Fe3 Ga0 2.527929 1_544
Fe3 Ga2 2.527929 1_554
Fe3 Ga1 2.527929 1_555
Fe3 Ga6 2.633721 1_655
Fe3 Ga4 2.633721 1_555
Fe3 Ga5 2.633723 1_554
Fe3 Ga7 2.633724 1_544
Fe3 Gd0 3.319446 1_655
Fe3 Gd0 3.319446 1_555
