# generated using pymatgen
data_NaHfMg6O7
_symmetry_space_group_name_H-M   'P 1'
_cell_length_a   8.87715294
_cell_length_b   4.32153199
_cell_length_c   4.32153199
_cell_angle_alpha   90.00000000
_cell_angle_beta   90.00000000
_cell_angle_gamma   90.00000000
_symmetry_Int_Tables_number   1
_chemical_formula_structural   NaHfMg6O7
_chemical_formula_sum   'Na1 Hf1 Mg6 O7'
_cell_volume   165.78650135
_cell_formula_units_Z   1
loop_
 _symmetry_equiv_pos_site_id
 _symmetry_equiv_pos_as_xyz
  1  'x, y, z'
loop_
 _atom_site_type_symbol
 _atom_site_label
 _atom_site_symmetry_multiplicity
 _atom_site_fract_x
 _atom_site_fract_y
 _atom_site_fract_z
 _atom_site_occupancy
  Na  Na0  1  0.00332232  0.00000000  -0.00000000  1
  Hf  Hf0  1  0.00286951  0.50000000  0.50000000  1
  Mg  Mg0  1  0.50008901  0.00000000  -0.00000000  1
  Mg  Mg1  1  0.50455727  0.50000000  0.50000000  1
  Mg  Mg2  1  0.25811585  0.00000000  0.50000000  1
  Mg  Mg3  1  0.74223270  0.00000000  0.50000000  1
  Mg  Mg4  1  0.25811585  0.50000000  0.00000000  1
  Mg  Mg5  1  0.74223270  0.50000000  0.00000000  1
  O  O0  1  0.26851228  0.00000000  0.00000000  1
  O  O1  1  0.73304873  0.00000000  -0.00000000  1
  O  O2  1  0.74700551  0.50000000  0.50000000  1
  O  O3  1  0.99358186  0.00000000  0.50000000  1
  O  O4  1  0.50136728  0.00000000  0.50000000  1
  O  O5  1  0.99358186  0.50000000  -0.00000000  1
  O  O6  1  0.50136728  0.50000000  0.00000000  1
loop_
_geom_bond_atom_site_label_1
_geom_bond_atom_site_label_2
_geom_bond_distance
_geom_bond_site_symmetry_2
Na0 O5 2.162495 1_455
Na0 O3 2.162495 1_454
Na0 O3 2.162495 1_455
Na0 O5 2.162495 1_445
Na0 O0 2.354132 1_555
Na0 O1 2.399260 1_455
Hf0 O5 2.162338 1_456
Hf0 O5 2.162338 1_455
Hf0 O3 2.162338 1_465
Hf0 O3 2.162338 1_455
Hf0 O2 2.271344 1_455
Mg0 O0 2.055742 1_555
Mg0 O1 2.068019 1_555
Mg0 O6 2.160796 1_555
Mg0 O4 2.160796 1_555
Mg0 O4 2.160796 1_554
Mg0 O6 2.160796 1_545
Mg1 O2 2.152250 1_555
Mg1 O4 2.160952 1_555
Mg1 O4 2.160952 1_565
Mg1 O6 2.160952 1_556
Mg1 O6 2.160952 1_555
Mg2 O4 2.159380 1_555
Mg2 O0 2.162736 1_555
Mg2 O0 2.162736 1_556
Mg2 O3 2.348309 1_455
Mg3 O4 2.138199 1_555
Mg3 O2 2.161181 1_555
Mg3 O2 2.161181 1_545
Mg3 O1 2.162303 1_555
Mg3 O1 2.162303 1_556
Mg3 O3 2.231265 1_555
Mg4 O6 2.159380 1_555
Mg4 O0 2.162736 1_555
Mg4 O0 2.162736 1_565
Mg4 O5 2.348309 1_455
Mg5 O6 2.138199 1_555
Mg5 O2 2.161181 1_555
Mg5 O2 2.161181 1_554
Mg5 O1 2.162303 1_565
Mg5 O1 2.162303 1_555
Mg5 O5 2.231265 1_555
