# generated using pymatgen
data_La3AlNiS7
_symmetry_space_group_name_H-M   'P 1'
_cell_length_a   10.26135243
_cell_length_b   10.26135243
_cell_length_c   5.89491100
_cell_angle_alpha   90.00000000
_cell_angle_beta   90.00000000
_cell_angle_gamma   120.00000274
_symmetry_Int_Tables_number   1
_chemical_formula_structural   La3AlNiS7
_chemical_formula_sum   'La6 Al2 Ni2 S14'
_cell_volume   537.54778868
_cell_formula_units_Z   2
loop_
 _symmetry_equiv_pos_site_id
 _symmetry_equiv_pos_as_xyz
  1  'x, y, z'
loop_
 _atom_site_type_symbol
 _atom_site_label
 _atom_site_symmetry_multiplicity
 _atom_site_fract_x
 _atom_site_fract_y
 _atom_site_fract_z
 _atom_site_occupancy
  La  La0  1  0.76086500  0.12912000  0.23872300  1
  La  La1  1  0.36825500  0.23913500  0.23872300  1
  La  La2  1  0.87088000  0.63174500  0.23872300  1
  La  La3  1  0.23913500  0.87088000  0.73872300  1
  La  La4  1  0.63174500  0.76086500  0.73872300  1
  La  La5  1  0.12912000  0.36825500  0.73872300  1
  Al  Al0  1  0.66666700  0.33333300  0.65657500  1
  Al  Al1  1  0.33333300  0.66666700  0.15657500  1
  Ni  Ni0  1  0.00000000  0.00000000  0.99946000  1
  Ni  Ni1  1  0.00000000  0.00000000  0.49946000  1
  S  S0  1  0.85630700  0.07664800  0.74881300  1
  S  S1  1  0.22034100  0.14369300  0.74881300  1
  S  S2  1  0.92335200  0.77965900  0.74881300  1
  S  S3  1  0.14369300  0.92335200  0.24881300  1
  S  S4  1  0.77965900  0.85630700  0.24881300  1
  S  S5  1  0.07664800  0.22034100  0.24881300  1
  S  S6  1  0.89695800  0.41099000  0.51027100  1
  S  S7  1  0.51403200  0.10304200  0.51027100  1
  S  S8  1  0.58901000  0.48596800  0.51027100  1
  S  S9  1  0.10304200  0.58901000  0.01027100  1
  S  S10  1  0.48596800  0.89695800  0.01027100  1
  S  S11  1  0.41099000  0.51403200  0.01027100  1
  S  S12  1  0.66666700  0.33333300  0.03245800  1
  S  S13  1  0.33333300  0.66666700  0.53245800  1
loop_
_geom_bond_atom_site_label_1
_geom_bond_atom_site_label_2
_geom_bond_distance
_geom_bond_site_symmetry_2
La0 S5 2.889035 1_655
La0 S7 2.893357 1_555
La0 S4 2.901278 1_545
La0 S10 2.953968 1_545
La0 S12 2.971430 1_555
La0 S6 2.973082 1_555
La0 S0 3.180690 1_554
La0 S0 3.289080 1_555
La1 S3 2.889035 1_545
La1 S8 2.893357 1_555
La1 S5 2.901278 1_555
La1 S11 2.953968 1_555
La1 S12 2.971439 1_555
La1 S7 2.973082 1_555
La1 S1 3.180690 1_554
La1 S1 3.289080 1_555
La2 S4 2.889035 1_555
La2 S6 2.893357 1_555
La2 S3 2.901278 1_655
La2 S9 2.953968 1_655
La2 S12 2.971437 1_555
La2 S8 2.973082 1_555
La2 S2 3.180690 1_554
La2 S2 3.289080 1_555
La3 S2 2.889035 1_455
La3 S10 2.893357 1_556
La3 S1 2.901278 1_565
La3 S7 2.953968 1_565
La3 S13 2.971430 1_555
La3 S9 2.973082 1_556
La3 S3 3.180690 1_555
La3 S3 3.289080 1_556
La4 S0 2.889035 1_565
La4 S11 2.893357 1_556
La4 S2 2.901278 1_555
La4 S8 2.953968 1_555
La4 S13 2.971439 1_555
La4 S10 2.973082 1_556
La4 S4 3.180690 1_555
La4 S4 3.289080 1_556
La5 S1 2.889035 1_555
La5 S9 2.893357 1_556
La5 S0 2.901278 1_455
La5 S6 2.953968 1_455
La5 S13 2.971437 1_555
La5 S11 2.973082 1_556
La5 S5 3.180690 1_555
La5 S5 3.289080 1_556
Al0 S12 2.215797 1_556
Al0 S6 2.253879 1_555
Al0 S7 2.253881 1_555
Al0 S8 2.253888 1_555
Al1 S13 2.215797 1_555
Al1 S9 2.253879 1_555
Al1 S10 2.253881 1_555
Al1 S11 2.253888 1_555
Ni0 S4 2.472459 1_446
Ni0 S5 2.472459 1_556
Ni0 S3 2.472459 1_546
Ni0 S1 2.477001 1_555
Ni0 S2 2.477001 1_445
Ni0 S0 2.477001 1_455
Ni1 S1 2.472459 1_555
Ni1 S2 2.472459 1_445
Ni1 S0 2.472459 1_455
Ni1 S4 2.477001 1_445
Ni1 S5 2.477001 1_555
Ni1 S3 2.477001 1_545
