# generated using pymatgen
data_Er4MnGe8
_symmetry_space_group_name_H-M   'P 1'
_cell_length_a   3.98684400
_cell_length_b   4.16512500
_cell_length_c   15.85846600
_cell_angle_alpha   90.00000000
_cell_angle_beta   90.00000000
_cell_angle_gamma   90.00000000
_symmetry_Int_Tables_number   1
_chemical_formula_structural   Er4MnGe8
_chemical_formula_sum   'Er4 Mn1 Ge8'
_cell_volume   263.34098619
_cell_formula_units_Z   1
loop_
 _symmetry_equiv_pos_site_id
 _symmetry_equiv_pos_as_xyz
  1  'x, y, z'
loop_
 _atom_site_type_symbol
 _atom_site_label
 _atom_site_symmetry_multiplicity
 _atom_site_fract_x
 _atom_site_fract_y
 _atom_site_fract_z
 _atom_site_occupancy
  Er  Er0  1  0.25000000  0.00000000  0.10142500  1
  Er  Er1  1  0.25000000  0.50000000  0.60665900  1
  Er  Er2  1  0.75000000  0.50000000  0.39934200  1
  Er  Er3  1  0.75000000  0.00000000  0.89631000  1
  Mn  Mn0  1  0.25000000  0.00000000  0.31087800  1
  Ge  Ge0  1  0.25000000  0.00000000  0.45936800  1
  Ge  Ge1  1  0.25000000  0.50000000  0.94574900  1
  Ge  Ge2  1  0.75000000  0.50000000  0.05478200  1
  Ge  Ge3  1  0.75000000  0.00000000  0.56452400  1
  Ge  Ge4  1  0.25000000  0.50000000  0.24096100  1
  Ge  Ge5  1  0.25000000  0.00000000  0.74878300  1
  Ge  Ge6  1  0.75000000  0.00000000  0.23645900  1
  Ge  Ge7  1  0.75000000  0.50000000  0.75275900  1
loop_
_geom_bond_atom_site_label_1
_geom_bond_atom_site_label_2
_geom_bond_distance
_geom_bond_site_symmetry_2
Er0 Ge6 2.925656 1_455
Er0 Ge6 2.925656 1_555
Er0 Ge2 2.976228 1_545
Er0 Ge2 2.976228 1_445
Er0 Ge2 2.976228 1_455
Er0 Ge2 2.976228 1_555
Er0 Ge4 3.038695 1_555
Er0 Ge4 3.038695 1_545
Er0 Ge1 3.229854 1_554
Er0 Ge1 3.229854 1_544
Er1 Ge3 2.959271 1_455
Er1 Ge3 2.959271 1_565
Er1 Ge3 2.959271 1_465
Er1 Ge3 2.959271 1_555
Er1 Ge7 3.056445 1_455
Er1 Ge7 3.056445 1_555
Er1 Ge5 3.068712 1_565
Er1 Ge5 3.068712 1_555
Er1 Ge0 3.129388 1_555
Er1 Ge0 3.129388 1_565
Er2 Ge0 3.035943 1_665
Er2 Ge0 3.035943 1_555
Er2 Ge0 3.035943 1_655
Er2 Ge0 3.035943 1_565
Er2 Mn0 3.206078 1_655
Er2 Mn0 3.206078 1_665
Er2 Mn0 3.206078 1_565
Er2 Mn0 3.206078 1_555
Er2 Ge4 3.206597 1_655
Er2 Ge4 3.206597 1_555
Er2 Ge6 3.318033 1_555
Er2 Ge6 3.318033 1_565
Er2 Ge3 3.346494 1_565
Er2 Ge3 3.346494 1_555
Er3 Ge1 2.987557 1_545
Er3 Ge1 2.987557 1_555
Er3 Ge1 2.987557 1_655
Er3 Ge1 2.987557 1_645
Er3 Ge5 3.073635 1_555
Er3 Ge5 3.073635 1_655
Er3 Ge7 3.085371 1_555
Er3 Ge7 3.085371 1_545
Er3 Ge2 3.263871 1_546
Er3 Ge2 3.263871 1_556
Ge0 Mn0 2.354824 1_555
Ge0 Ge3 2.598974 1_455
Ge0 Ge3 2.598974 1_555
Ge1 Ge2 2.638845 1_456
Ge1 Ge2 2.638845 1_556
Ge4 Mn0 2.359333 1_565
Ge4 Mn0 2.359333 1_555
Ge5 Ge7 2.883535 1_555
Ge5 Ge7 2.883535 1_445
Ge5 Ge7 2.883535 1_545
Ge5 Ge7 2.883535 1_455
Ge6 Mn0 2.316578 1_555
Ge6 Mn0 2.316578 1_655
