# generated using pymatgen
data_Mo2C4NO7
_symmetry_space_group_name_H-M   'P 1'
_cell_length_a   9.08416400
_cell_length_b   10.51520100
_cell_length_c   11.51469023
_cell_angle_alpha   76.39753258
_cell_angle_beta   82.57147558
_cell_angle_gamma   68.13637936
_symmetry_Int_Tables_number   1
_chemical_formula_structural   Mo2C4NO7
_chemical_formula_sum   'Mo8 C16 N4 O28'
_cell_volume   991.09775245
_cell_formula_units_Z   4
loop_
 _symmetry_equiv_pos_site_id
 _symmetry_equiv_pos_as_xyz
  1  'x, y, z'
loop_
 _atom_site_type_symbol
 _atom_site_label
 _atom_site_symmetry_multiplicity
 _atom_site_fract_x
 _atom_site_fract_y
 _atom_site_fract_z
 _atom_site_occupancy
  Mo  Mo0  1  0.80979900  0.97950500  0.47422100  1
  Mo  Mo1  1  0.19020100  0.02049500  0.52577900  1
  Mo  Mo2  1  0.25315600  0.91701500  0.26255900  1
  Mo  Mo3  1  0.74684400  0.08298500  0.73744100  1
  Mo  Mo4  1  0.93871500  0.19536700  0.25741300  1
  Mo  Mo5  1  0.06128500  0.80463300  0.74258700  1
  Mo  Mo6  1  0.14149200  0.70115500  0.46712000  1
  Mo  Mo7  1  0.85850800  0.29884500  0.53288000  1
  C  C0  1  0.74959100  0.70663400  0.17210300  1
  C  C1  1  0.25040900  0.29336600  0.82789700  1
  C  C2  1  0.61877600  0.83452200  0.15017300  1
  C  C3  1  0.38122400  0.16547800  0.84982700  1
  C  C4  1  0.75303900  0.87317900  0.10758700  1
  C  C5  1  0.24696100  0.12682100  0.89241300  1
  C  C6  1  0.92009400  0.64996000  0.16159700  1
  C  C7  1  0.07990600  0.35004000  0.83840300  1
  C  C8  1  0.57997600  0.66552900  0.83403700  1
  C  C9  1  0.42002400  0.33447100  0.16596300  1
  C  C10  1  0.58387100  0.65019400  0.71727200  1
  C  C11  1  0.41612900  0.34980600  0.28272800  1
  C  C12  1  0.64644800  0.69708700  0.49677300  1
  C  C13  1  0.35355200  0.30291300  0.50322700  1
  C  C14  1  0.48547400  0.60262300  0.80561600  1
  C  C15  1  0.51452600  0.39737700  0.19438400  1
  N  N0  1  0.87418200  0.76140800  0.06569500  1
  N  N1  1  0.12581800  0.23859200  0.93430500  1
  N  N2  1  0.63041800  0.66980200  0.60357600  1
  N  N3  1  0.36958200  0.33019800  0.39642400  1
  O  O0  1  0.06113000  0.95235300  0.37984900  1
  O  O1  1  0.93887000  0.04764700  0.62015100  1
  O  O2  1  0.73593500  0.93354700  0.36768700  1
  O  O3  1  0.26406500  0.06645300  0.63231300  1
  O  O4  1  0.79261500  0.17266000  0.39950700  1
  O  O5  1  0.20738500  0.82734000  0.60049300  1
  O  O6  1  0.94785500  0.79688900  0.56055700  1
  O  O7  1  0.05214500  0.20311100  0.43944300  1
  O  O8  1  0.65818800  0.01551100  0.58775700  1
  O  O9  1  0.34181200  0.98448900  0.41224300  1
  O  O10  1  0.31910200  0.74179300  0.37093500  1
  O  O11  1  0.68089800  0.25820700  0.62906500  1
  O  O12  1  0.16532600  0.11551700  0.21455200  1
  O  O13  1  0.83467400  0.88448300  0.78544800  1
  O  O14  1  0.18112800  0.87353500  0.15346300  1
  O  O15  1  0.81887200  0.12646500  0.84653700  1
  O  O16  1  0.47730500  0.88941500  0.18406700  1
  O  O17  1  0.52269500  0.11058500  0.81593300  1
  O  O18  1  0.85954600  0.14000800  0.15864600  1
  O  O19  1  0.14045400  0.85999200  0.84135400  1
  O  O20  1  0.89284500  0.37194900  0.20590900  1
  O  O21  1  0.10715500  0.62805100  0.79409100  1
  O  O22  1  0.05881700  0.65705900  0.36312300  1
  O  O23  1  0.94118300  0.34294100  0.63687700  1
  O  O24  1  0.23353900  0.54693200  0.56354100  1
  O  O25  1  0.76646100  0.45306800  0.43645900  1
  O  O26  1  0.30191500  0.71524900  0.01064400  1
  O  O27  1  0.69808500  0.28475100  0.98935600  1
loop_
_geom_bond_atom_site_label_1
_geom_bond_atom_site_label_2
_geom_bond_distance
_geom_bond_site_symmetry_2
Mo0 O2 1.709318 1_555
Mo0 O8 1.768664 1_565
Mo0 O4 1.966319 1_565
Mo0 O6 1.969591 1_555
Mo0 O0 2.343917 1_655
Mo0 O1 2.532433 1_565
Mo1 O3 1.709318 1_555
Mo1 O9 1.768664 1_545
Mo1 O5 1.966319 1_545
Mo1 O7 1.969591 1_555
Mo1 O1 2.343917 1_455
Mo1 O0 2.532433 1_545
Mo2 O14 1.709009 1_555
Mo2 O10 1.897544 1_555
Mo2 O12 1.905227 1_565
Mo2 O0 2.036932 1_555
Mo2 O16 2.062670 1_555
Mo2 O9 2.341453 1_555
Mo3 O15 1.709009 1_555
Mo3 O11 1.897544 1_555
Mo3 O13 1.905227 1_545
Mo3 O1 2.036932 1_555
Mo3 O17 2.062670 1_555
Mo3 O8 2.341453 1_555
Mo4 O20 1.715435 1_555
Mo4 O18 1.727471 1_555
Mo4 O12 1.957330 1_655
Mo4 O4 1.996563 1_555
Mo4 O7 2.482525 1_655
Mo4 O0 2.519601 1_645
Mo5 O21 1.715435 1_555
Mo5 O19 1.727471 1_555
Mo5 O13 1.957330 1_455
Mo5 O5 1.996563 1_555
Mo5 O6 2.482525 1_455
Mo5 O1 2.519601 1_465
Mo6 O24 1.716080 1_555
Mo6 O22 1.722246 1_555
Mo6 O10 1.959911 1_555
Mo6 O6 1.991566 1_455
Mo6 O0 2.454534 1_555
Mo6 O5 2.503021 1_555
Mo7 O25 1.716080 1_555
Mo7 O23 1.722246 1_555
Mo7 O11 1.959911 1_555
Mo7 O7 1.991566 1_655
Mo7 O1 2.454534 1_555
Mo7 O4 2.503021 1_555
C0 C2 1.418441 1_555
C0 C6 1.437631 1_555
C0 N0 1.705566 1_555
C0 C4 1.744318 1_555
C1 C3 1.418441 1_555
C1 C7 1.437631 1_555
C1 N1 1.705566 1_555
C1 C5 1.744318 1_555
C2 O16 1.249346 1_555
C3 O17 1.249346 1_555
C4 N0 1.411081 1_555
C5 N1 1.411081 1_555
C6 N0 1.383144 1_555
C7 N1 1.383144 1_555
C10 N2 1.315320 1_555
C10 C8 1.385783 1_555
C10 C14 1.393754 1_555
C11 N3 1.315320 1_555
C11 C9 1.385783 1_555
C11 C15 1.393754 1_555
C12 N2 1.197824 1_555
C13 N3 1.197824 1_555
C14 C8 1.370772 1_555
C15 C9 1.370772 1_555
