# generated using pymatgen
data_NaEuGeO4
_symmetry_space_group_name_H-M   'P 1'
_cell_length_a   5.37953100
_cell_length_b   6.66867900
_cell_length_c   11.76342200
_cell_angle_alpha   90.00000000
_cell_angle_beta   90.00000000
_cell_angle_gamma   90.00000000
_symmetry_Int_Tables_number   1
_chemical_formula_structural   NaEuGeO4
_chemical_formula_sum   'Na4 Eu4 Ge4 O16'
_cell_volume   422.00529929
_cell_formula_units_Z   4
loop_
 _symmetry_equiv_pos_site_id
 _symmetry_equiv_pos_as_xyz
  1  'x, y, z'
loop_
 _atom_site_type_symbol
 _atom_site_label
 _atom_site_symmetry_multiplicity
 _atom_site_fract_x
 _atom_site_fract_y
 _atom_site_fract_z
 _atom_site_occupancy
  Na  Na0  1  0.50000000  0.00000000  0.50000000  1
  Na  Na1  1  0.00000000  0.50000000  0.00000000  1
  Na  Na2  1  0.50000000  0.50000000  0.50000000  1
  Na  Na3  1  0.00000000  0.00000000  0.00000000  1
  Eu  Eu0  1  0.49859800  0.75000000  0.77758700  1
  Eu  Eu1  1  0.00140200  0.75000000  0.27758700  1
  Eu  Eu2  1  0.50140200  0.25000000  0.22241300  1
  Eu  Eu3  1  0.99859800  0.25000000  0.72241300  1
  Ge  Ge0  1  0.94211900  0.75000000  0.59505800  1
  Ge  Ge1  1  0.55788100  0.75000000  0.09505800  1
  Ge  Ge2  1  0.05788100  0.25000000  0.40494200  1
  Ge  Ge3  1  0.44211900  0.25000000  0.90494200  1
  O  O0  1  0.82004000  0.75000000  0.45540900  1
  O  O1  1  0.67996000  0.75000000  0.95540900  1
  O  O2  1  0.17996000  0.25000000  0.54459100  1
  O  O3  1  0.32004000  0.25000000  0.04459100  1
  O  O4  1  0.26656500  0.75000000  0.60648500  1
  O  O5  1  0.23343500  0.75000000  0.10648500  1
  O  O6  1  0.73343500  0.25000000  0.39351500  1
  O  O7  1  0.76656500  0.25000000  0.89351500  1
  O  O8  1  0.79091000  0.54599200  0.66903800  1
  O  O9  1  0.70909000  0.95400800  0.16903800  1
  O  O10  1  0.20909000  0.04599200  0.33096200  1
  O  O11  1  0.29091000  0.45400800  0.83096200  1
  O  O12  1  0.20909000  0.45400800  0.33096200  1
  O  O13  1  0.29091000  0.04599200  0.83096200  1
  O  O14  1  0.79091000  0.95400800  0.66903800  1
  O  O15  1  0.70909000  0.54599200  0.16903800  1
loop_
_geom_bond_atom_site_label_1
_geom_bond_atom_site_label_2
_geom_bond_distance
_geom_bond_site_symmetry_2
Na0 O4 2.434233 1_545
Na0 O6 2.434233 1_555
Na0 O2 2.453310 1_555
Na0 O0 2.453310 1_545
Na0 O10 2.548953 1_555
Na0 O14 2.548953 1_545
Na1 O5 2.434233 1_555
Na1 O7 2.434233 1_454
Na1 O1 2.453310 1_454
Na1 O3 2.453310 1_555
Na1 O15 2.548953 1_455
Na1 O11 2.548953 1_554
Na2 O4 2.434233 1_555
Na2 O6 2.434233 1_555
Na2 O2 2.453310 1_555
Na2 O0 2.453310 1_555
Na2 O8 2.548953 1_555
Na2 O12 2.548953 1_555
Na3 O5 2.434233 1_545
Na3 O7 2.434233 1_454
Na3 O1 2.453310 1_444
Na3 O3 2.453310 1_555
Na3 O9 2.548953 1_445
Na3 O13 2.548953 1_554
Eu0 O1 2.308135 1_555
Eu0 O13 2.353442 1_565
Eu0 O11 2.353442 1_555
Eu0 O4 2.368379 1_555
Eu0 O14 2.440106 1_555
Eu0 O8 2.440106 1_555
Eu1 O0 2.308135 1_455
Eu1 O10 2.353442 1_565
Eu1 O12 2.353442 1_555
Eu1 O5 2.368379 1_555
Eu1 O9 2.440106 1_455
Eu1 O15 2.440106 1_455
Eu2 O3 2.308135 1_555
Eu2 O15 2.353442 1_555
Eu2 O9 2.353442 1_545
Eu2 O6 2.368379 1_555
Eu2 O12 2.440106 1_555
Eu2 O10 2.440106 1_555
Eu3 O2 2.308135 1_655
Eu3 O8 2.353442 1_555
Eu3 O14 2.353442 1_545
Eu3 O7 2.368379 1_555
Eu3 O11 2.440106 1_655
Eu3 O13 2.440106 1_655
Ge0 O4 1.750536 1_655
Ge0 O0 1.769158 1_555
Ge0 O14 1.808282 1_555
Ge0 O8 1.808282 1_555
Ge1 O5 1.750536 1_555
Ge1 O1 1.769158 1_554
Ge1 O9 1.808282 1_555
Ge1 O15 1.808282 1_555
Ge2 O6 1.750536 1_455
Ge2 O2 1.769158 1_555
Ge2 O12 1.808282 1_555
Ge2 O10 1.808282 1_555
Ge3 O7 1.750536 1_555
Ge3 O3 1.769158 1_556
Ge3 O11 1.808282 1_555
Ge3 O13 1.808282 1_555
