# generated using pymatgen
data_Li9Mn2Co5O16
_symmetry_space_group_name_H-M   'P 1'
_cell_length_a   2.96024700
_cell_length_b   9.75428151
_cell_length_c   10.13164123
_cell_angle_alpha   77.62251933
_cell_angle_beta   88.95833497
_cell_angle_gamma   87.83380244
_symmetry_Int_Tables_number   1
_chemical_formula_structural   Li9Mn2Co5O16
_chemical_formula_sum   'Li9 Mn2 Co5 O16'
_cell_volume   285.53265416
_cell_formula_units_Z   1
loop_
 _symmetry_equiv_pos_site_id
 _symmetry_equiv_pos_as_xyz
  1  'x, y, z'
loop_
 _atom_site_type_symbol
 _atom_site_label
 _atom_site_symmetry_multiplicity
 _atom_site_fract_x
 _atom_site_fract_y
 _atom_site_fract_z
 _atom_site_occupancy
  Li  Li0  1  0.00199000  0.75235600  0.87022900  1
  Li  Li1  1  0.50829200  0.50877800  0.50120200  1
  Li  Li2  1  0.00530600  0.24986700  0.12360600  1
  Li  Li3  1  0.48868900  0.00087200  0.74238300  1
  Li  Li4  1  0.49834600  0.49804000  0.00250400  1
  Li  Li5  1  0.99479200  0.24660000  0.62378500  1
  Li  Li6  1  0.49711400  0.99932000  0.25416900  1
  Li  Li7  1  0.00327600  0.74847800  0.38423100  1
  Li  Li8  1  0.48589600  0.74485500  0.61814700  1
  Mn  Mn0  1  0.01068500  0.00207900  0.99890700  1
  Mn  Mn1  1  0.99709300  0.50502300  0.74523600  1
  Co  Co0  1  0.99098100  0.50065400  0.25154200  1
  Co  Co1  1  0.51732100  0.25300000  0.87662900  1
  Co  Co2  1  0.99871300  0.98939100  0.50556200  1
  Co  Co3  1  0.48898600  0.74930900  0.12431400  1
  Co  Co4  1  0.50218700  0.24839100  0.37645800  1
  O  O0  1  0.46800200  0.87346800  0.94385400  1
  O  O1  1  0.99566800  0.61344000  0.57535500  1
  O  O2  1  0.49889000  0.37187800  0.19827600  1
  O  O3  1  0.03352500  0.14133000  0.82475400  1
  O  O4  1  0.94927500  0.62463000  0.07200600  1
  O  O5  1  0.50939000  0.38264200  0.70332000  1
  O  O6  1  0.00734400  0.11940600  0.33096500  1
  O  O7  1  0.47132200  0.88544600  0.44270800  1
  O  O8  1  0.48363900  0.60692900  0.80642100  1
  O  O9  1  0.99714900  0.37452000  0.42764700  1
  O  O10  1  0.54951200  0.12720700  0.05286700  1
  O  O11  1  0.00004700  0.89250700  0.67097500  1
  O  O12  1  0.00016500  0.36584200  0.92384000  1
  O  O13  1  0.53497600  0.12604700  0.55279600  1
  O  O14  1  0.02775400  0.87146500  0.17588400  1
  O  O15  1  0.48367500  0.62623200  0.29943300  1
loop_
_geom_bond_atom_site_label_1
_geom_bond_atom_site_label_2
_geom_bond_distance
_geom_bond_site_symmetry_2
Li0 O0 2.096065 1_555
Li0 O0 2.155113 1_455
Li0 O4 2.160336 1_456
Li0 O8 2.160976 1_555
Li0 O11 2.181982 1_555
Li0 O8 2.319152 1_455
Li1 O1 2.019830 1_455
Li1 O1 2.041516 1_555
Li1 O15 2.119413 1_555
Li1 O9 2.144882 1_555
Li1 O5 2.151059 1_555
Li1 O9 2.273563 1_455
Li2 O10 2.071353 1_455
Li2 O12 2.096336 1_554
Li2 O2 2.108548 1_455
Li2 O2 2.163628 1_555
Li2 O10 2.172642 1_555
Li2 O6 2.210634 1_555
Li3 O11 2.024651 1_645
Li3 O13 2.048612 1_555
Li3 O11 2.052941 1_545
Li3 O0 2.151390 1_545
Li3 O3 2.167667 1_555
Li3 O3 2.425079 1_655
Li4 O8 2.042504 1_554
Li4 O4 2.081818 1_555
Li4 O2 2.098142 1_555
Li4 O12 2.181162 1_654
Li4 O4 2.200425 1_455
Li4 O12 2.258305 1_554
Li5 O13 2.066885 1_555
Li5 O3 2.077664 1_655
Li5 O9 2.107865 1_555
Li5 O13 2.153072 1_655
Li5 O5 2.178793 1_555
Li5 O5 2.320921 1_655
Li6 O7 1.994996 1_555
Li6 O6 2.073840 1_565
Li6 O10 2.156906 1_565
Li6 O14 2.170266 1_555
Li6 O6 2.196812 1_665
Li6 O14 2.209660 1_655
Li7 O1 2.095796 1_455
Li7 O15 2.109251 1_555
Li7 O7 2.136540 1_555
Li7 O7 2.182220 1_455
Li7 O14 2.194467 1_555
Li7 O15 2.269754 1_455
Li8 O7 1.998818 1_555
Li8 O1 2.043673 1_555
Li8 O1 2.082992 1_455
Li8 O8 2.085363 1_555
Li8 O11 2.138965 1_555
Li8 O11 2.281029 1_655
Mn0 O10 1.945580 1_456
Mn0 O14 1.964666 1_546
Mn0 O0 1.965131 1_545
Mn0 O3 1.984437 1_555
Mn0 O10 2.190376 1_556
Mn0 O0 2.224990 1_445
Mn1 O1 1.816709 1_555
Mn1 O8 1.948922 1_555
Mn1 O8 1.962567 1_655
Mn1 O5 1.990546 1_655
Mn1 O5 2.014846 1_555
Mn1 O12 2.015974 1_655
Co0 O9 1.938030 1_555
Co0 O4 1.959653 1_555
Co0 O15 2.019993 1_555
Co0 O2 2.061076 1_655
Co0 O15 2.068494 1_655
Co0 O2 2.109172 1_555
Co1 O5 1.931376 1_555
Co1 O10 1.939340 1_556
Co1 O12 1.962861 1_655
Co1 O12 1.963594 1_555
Co1 O3 1.971848 1_655
Co1 O3 1.975985 1_555
Co2 O11 1.738605 1_655
Co2 O7 1.878305 1_655
Co2 O6 1.943514 1_665
Co2 O13 2.000406 1_565
Co2 O7 2.074494 1_555
Co2 O13 2.233155 1_665
Co3 O14 1.917017 1_555
Co3 O15 1.917476 1_555
Co3 O4 1.934237 1_555
Co3 O0 1.965358 1_554
Co3 O14 2.162705 1_655
Co3 O4 2.183220 1_455
Co4 O13 1.925878 1_555
Co4 O2 1.943589 1_555
Co4 O6 2.028031 1_655
Co4 O9 2.030775 1_455
Co4 O6 2.086550 1_555
Co4 O9 2.089711 1_555
