# generated using pymatgen
data_Li7Mn2(CoO4)3
_symmetry_space_group_name_H-M   'P 1'
_cell_length_a   5.88530500
_cell_length_b   5.89568374
_cell_length_c   7.67771079
_cell_angle_alpha   100.56475775
_cell_angle_beta   100.69470219
_cell_angle_gamma   119.71174119
_symmetry_Int_Tables_number   1
_chemical_formula_structural   Li7Mn2(CoO4)3
_chemical_formula_sum   'Li7 Mn2 Co3 O12'
_cell_volume   215.20176958
_cell_formula_units_Z   1
loop_
 _symmetry_equiv_pos_site_id
 _symmetry_equiv_pos_as_xyz
  1  'x, y, z'
loop_
 _atom_site_type_symbol
 _atom_site_label
 _atom_site_symmetry_multiplicity
 _atom_site_fract_x
 _atom_site_fract_y
 _atom_site_fract_z
 _atom_site_occupancy
  Li  Li0  1  0.16512100  0.49331900  0.66435800  1
  Li  Li1  1  0.33343900  0.50139700  0.33128300  1
  Li  Li2  1  0.65543800  0.48663200  0.65812000  1
  Li  Li3  1  0.83241800  0.49844100  0.33448600  1
  Li  Li4  1  0.01269300  0.51572100  0.01080100  1
  Li  Li5  1  0.50391100  0.50471100  0.00198900  1
  Li  Li6  1  0.33036300  0.00091900  0.33306300  1
  Mn  Mn0  1  0.00691500  0.00708900  0.00212900  1
  Mn  Mn1  1  0.16586200  0.99539800  0.66314600  1
  Co  Co0  1  0.50032600  0.99978300  0.01351900  1
  Co  Co1  1  0.65598200  0.99699900  0.65784300  1
  Co  Co2  1  0.83872900  0.00063700  0.33434900  1
  O  O0  1  0.77404700  0.76449800  0.50610300  1
  O  O1  1  0.91581400  0.77840700  0.15998600  1
  O  O2  1  0.24931600  0.76426200  0.51772900  1
  O  O3  1  0.43135100  0.76999500  0.15941800  1
  O  O4  1  0.61763600  0.78668200  0.83862200  1
  O  O5  1  0.08647100  0.77798600  0.84025700  1
  O  O6  1  0.55033900  0.21749600  0.82323600  1
  O  O7  1  0.75254900  0.22290600  0.50164300  1
  O  O8  1  0.07743200  0.22012900  0.82872300  1
  O  O9  1  0.23382300  0.22572000  0.51066900  1
  O  O10  1  0.39094000  0.23352700  0.15217900  1
  O  O11  1  0.91908600  0.23734800  0.15634900  1
loop_
_geom_bond_atom_site_label_1
_geom_bond_atom_site_label_2
_geom_bond_distance
_geom_bond_site_symmetry_2
Li0 O2 2.036275 1_555
Li0 O9 2.042469 1_555
Li0 O7 2.074766 1_455
Li0 O8 2.148509 1_555
Li0 O5 2.241826 1_555
Li0 O4 2.266511 1_555
Li1 O10 2.098980 1_555
Li1 O11 2.104432 1_455
Li1 O3 2.173658 1_555
Li1 O0 2.211197 1_555
Li1 O2 2.214983 1_555
Li1 O9 2.249041 1_555
Li2 O9 2.083285 1_555
Li2 O0 2.098373 1_555
Li2 O6 2.136161 1_555
Li2 O7 2.153663 1_555
Li2 O4 2.169102 1_555
Li2 O5 2.196446 1_655
Li3 O0 2.063708 1_555
Li3 O2 2.134031 1_655
Li3 O7 2.176782 1_555
Li3 O11 2.182994 1_555
Li3 O10 2.230536 1_555
Li3 O1 2.238796 1_555
Li4 O11 2.061682 1_455
Li4 O3 2.070765 1_555
Li4 O1 2.121971 1_455
Li4 O5 2.140506 1_554
Li4 O8 2.258099 1_554
Li4 O6 2.333267 1_454
Li5 O10 2.057864 1_555
Li5 O3 2.061536 1_555
Li5 O1 2.065221 1_555
Li5 O6 2.138037 1_554
Li5 O8 2.156944 1_554
Li5 O4 2.181295 1_554
Li6 O9 2.076078 1_555
Li6 O10 2.081823 1_555
Li6 O3 2.101153 1_545
Li6 O1 2.103319 1_445
Li6 O2 2.121587 1_545
Li6 O7 2.126860 1_555
Mn0 O10 1.922561 1_555
Mn0 O1 1.922996 1_445
Mn0 O5 1.953342 1_544
Mn0 O8 1.955475 1_554
Mn0 O11 1.960969 1_455
Mn0 O4 1.973973 1_444
Mn1 O9 1.895438 1_565
Mn1 O2 1.911487 1_555
Mn1 O6 1.945753 1_565
Mn1 O0 1.969474 1_455
Mn1 O8 1.988433 1_565
Mn1 O5 1.997914 1_555
Co0 O3 1.853385 1_555
Co0 O10 2.010652 1_565
Co0 O11 2.061589 1_565
Co0 O6 2.083564 1_564
Co0 O5 2.101039 1_554
Co0 O4 2.107976 1_554
Co1 O7 1.903535 1_565
Co1 O4 1.996210 1_555
Co1 O2 2.003981 1_555
Co1 O6 2.043993 1_565
Co1 O0 2.092380 1_555
Co1 O8 2.128119 1_665
Co2 O1 1.971300 1_545
Co2 O7 1.976783 1_555
Co2 O9 2.028447 1_655
Co2 O0 2.038678 1_545
Co2 O3 2.074741 1_545
Co2 O11 2.079417 1_555
