# generated using pymatgen
data_TiCdO3
_symmetry_space_group_name_H-M   'P 1'
_cell_length_a   10.79850890
_cell_length_b   35.11530768
_cell_length_c   5.99884377
_cell_angle_alpha   96.56141878
_cell_angle_beta   89.98172708
_cell_angle_gamma   79.78244496
_symmetry_Int_Tables_number   1
_chemical_formula_structural   TiCdO3
_chemical_formula_sum   'Ti16 Cd16 O48'
_cell_volume   2223.48882272
_cell_formula_units_Z   16
loop_
 _symmetry_equiv_pos_site_id
 _symmetry_equiv_pos_as_xyz
  1  'x, y, z'
loop_
 _atom_site_type_symbol
 _atom_site_label
 _atom_site_symmetry_multiplicity
 _atom_site_fract_x
 _atom_site_fract_y
 _atom_site_fract_z
 _atom_site_occupancy
  Ti  Ti0_0  1  0.47135850  0.01059000  0.41911700  1
  Ti  Ti0_1  1  0.47135850  0.01059000  0.91911700  1
  Ti  Ti0_2  1  0.47135850  0.51059000  0.41911700  1
  Ti  Ti0_3  1  0.47135850  0.51059000  0.91911700  1
  Ti  Ti0_4  1  0.97135850  0.01059000  0.41911700  1
  Ti  Ti0_5  1  0.97135850  0.01059000  0.91911700  1
  Ti  Ti0_6  1  0.97135850  0.51059000  0.41911700  1
  Ti  Ti0_7  1  0.97135850  0.51059000  0.91911700  1
  Ti  Ti1_0  1  0.22121400  0.01058350  0.16910500  1
  Ti  Ti1_1  1  0.22121400  0.01058350  0.66910500  1
  Ti  Ti1_2  1  0.22121400  0.51058350  0.16910500  1
  Ti  Ti1_3  1  0.22121400  0.51058350  0.66910500  1
  Ti  Ti1_4  1  0.72121400  0.01058350  0.16910500  1
  Ti  Ti1_5  1  0.72121400  0.01058350  0.66910500  1
  Ti  Ti1_6  1  0.72121400  0.51058350  0.16910500  1
  Ti  Ti1_7  1  0.72121400  0.51058350  0.66910500  1
  Cd  Cd0_0  1  0.00737050  0.21147950  0.07632650  1
  Cd  Cd0_1  1  0.00737050  0.21147950  0.57632650  1
  Cd  Cd0_2  1  0.00737050  0.71147950  0.07632650  1
  Cd  Cd0_3  1  0.00737050  0.71147950  0.57632650  1
  Cd  Cd0_4  1  0.50737050  0.21147950  0.07632650  1
  Cd  Cd0_5  1  0.50737050  0.21147950  0.57632650  1
  Cd  Cd0_6  1  0.50737050  0.71147950  0.07632650  1
  Cd  Cd0_7  1  0.50737050  0.71147950  0.57632650  1
  Cd  Cd1_0  1  0.21647300  0.31184400  0.39657500  1
  Cd  Cd1_1  1  0.21647300  0.31184400  0.89657500  1
  Cd  Cd1_2  1  0.21647300  0.81184400  0.39657500  1
  Cd  Cd1_3  1  0.21647300  0.81184400  0.89657500  1
  Cd  Cd1_4  1  0.71647300  0.31184400  0.39657500  1
  Cd  Cd1_5  1  0.71647300  0.31184400  0.89657500  1
  Cd  Cd1_6  1  0.71647300  0.81184400  0.39657500  1
  Cd  Cd1_7  1  0.71647300  0.81184400  0.89657500  1
  O  O0_0  1  0.01490900  0.48478800  0.15177800  1
  O  O0_1  1  0.01490900  0.48478800  0.65177800  1
  O  O0_2  1  0.01490900  0.98478800  0.15177800  1
  O  O0_3  1  0.01490900  0.98478800  0.65177800  1
  O  O0_4  1  0.51490900  0.48478800  0.15177800  1
  O  O0_5  1  0.51490900  0.48478800  0.65177800  1
  O  O0_6  1  0.51490900  0.98478800  0.15177800  1
  O  O0_7  1  0.51490900  0.98478800  0.65177800  1
  O  O1_0  1  0.09195450  0.03852050  0.43769600  1
  O  O1_1  1  0.09195450  0.03852050  0.93769600  1
  O  O1_2  1  0.09195450  0.53852050  0.43769600  1
  O  O1_3  1  0.09195450  0.53852050  0.93769600  1
  O  O1_4  1  0.59195450  0.03852050  0.43769600  1
  O  O1_5  1  0.59195450  0.03852050  0.93769600  1
  O  O1_6  1  0.59195450  0.53852050  0.43769600  1
  O  O1_7  1  0.59195450  0.53852050  0.93769600  1
  O  O2_0  1  0.34201950  0.03842800  0.18764650  1
  O  O2_1  1  0.34201950  0.03842800  0.68764650  1
  O  O2_2  1  0.34201950  0.53842800  0.18764650  1
  O  O2_3  1  0.34201950  0.53842800  0.68764650  1
  O  O2_4  1  0.84201950  0.03842800  0.18764650  1
  O  O2_5  1  0.84201950  0.03842800  0.68764650  1
  O  O2_6  1  0.84201950  0.53842800  0.18764650  1
  O  O2_7  1  0.84201950  0.53842800  0.68764650  1
  O  O3_0  1  0.26453200  0.48480350  0.40178800  1
  O  O3_1  1  0.26453200  0.48480350  0.90178800  1
  O  O3_2  1  0.26453200  0.98480350  0.40178800  1
  O  O3_3  1  0.26453200  0.98480350  0.90178800  1
  O  O3_4  1  0.76453200  0.48480350  0.40178800  1
  O  O3_5  1  0.76453200  0.48480350  0.90178800  1
  O  O3_6  1  0.76453200  0.98480350  0.40178800  1
  O  O3_7  1  0.76453200  0.98480350  0.90178800  1
  O  O4_0  1  0.41733050  0.38960900  0.13000900  1
  O  O4_1  1  0.41733050  0.38960900  0.63000900  1
  O  O4_2  1  0.41733050  0.88960900  0.13000900  1
  O  O4_3  1  0.41733050  0.88960900  0.63000900  1
  O  O4_4  1  0.91733050  0.38960900  0.13000900  1
  O  O4_5  1  0.91733050  0.38960900  0.63000900  1
  O  O4_6  1  0.91733050  0.88960900  0.13000900  1
  O  O4_7  1  0.91733050  0.88960900  0.63000900  1
  O  O5_0  1  0.41733800  0.38960550  0.37995900  1
  O  O5_1  1  0.41733800  0.38960550  0.87995900  1
  O  O5_2  1  0.41733800  0.88960550  0.37995900  1
  O  O5_3  1  0.41733800  0.88960550  0.87995900  1
  O  O5_4  1  0.91733800  0.38960550  0.37995900  1
  O  O5_5  1  0.91733800  0.38960550  0.87995900  1
  O  O5_6  1  0.91733800  0.88960550  0.37995900  1
  O  O5_7  1  0.91733800  0.88960550  0.87995900  1
loop_
_geom_bond_atom_site_label_1
_geom_bond_atom_site_label_2
_geom_bond_distance
_geom_bond_site_symmetry_2
Cd0_0 Cd0_1 2.999422 1_555
Cd0_0 Cd0_1 2.999422 1_554
Cd0_2 Cd0_3 2.999422 1_554
Cd0_2 Cd0_3 2.999422 1_555
Cd0_4 Cd0_5 2.999422 1_555
Cd0_4 Cd0_5 2.999422 1_554
Cd0_6 Cd0_7 2.999422 1_555
Cd0_6 Cd0_7 2.999422 1_554
Cd1_0 Cd1_1 2.999422 1_554
Cd1_0 Cd1_1 2.999422 1_555
Cd1_2 Cd1_3 2.999422 1_555
Cd1_2 Cd1_3 2.999422 1_554
Cd1_4 Cd1_5 2.999422 1_554
Cd1_4 Cd1_5 2.999422 1_555
Cd1_6 Cd1_7 2.999422 1_555
Cd1_6 Cd1_7 2.999422 1_554
O0_0 Ti0_7 1.768701 1_454
O0_0 Ti0_6 1.769263 1_455
O0_0 Ti1_2 2.547330 1_555
O0_1 Ti0_6 1.768701 1_455
O0_1 Ti0_7 1.769263 1_455
O0_1 Ti1_3 2.547330 1_555
O0_2 Ti0_5 1.768701 1_464
O0_2 Ti0_4 1.769263 1_465
O0_2 Ti1_0 2.547330 1_565
O0_3 Ti0_4 1.768701 1_465
O0_3 Ti0_5 1.769263 1_465
O0_3 Ti1_1 2.547330 1_565
O0_4 Ti0_3 1.768701 1_554
O0_4 Ti0_2 1.769263 1_555
O0_4 Ti1_6 2.547330 1_555
O0_5 Ti0_2 1.768701 1_555
O0_5 Ti0_3 1.769263 1_555
O0_5 Ti1_7 2.547330 1_555
O0_6 Ti0_1 1.768701 1_564
O0_6 Ti0_0 1.769263 1_565
O0_6 Ti1_4 2.547330 1_565
O0_7 Ti0_0 1.768701 1_565
O0_7 Ti0_1 1.769263 1_565
O0_7 Ti1_5 2.547330 1_565
O1_0 Ti0_4 1.760250 1_455
O1_0 Ti1_0 2.158308 1_555
O1_0 Ti1_1 2.159724 1_555
O1_1 Ti0_5 1.760250 1_455
O1_1 Ti1_1 2.158308 1_555
O1_1 Ti1_0 2.159724 1_556
O1_2 Ti0_6 1.760250 1_455
O1_2 Ti1_2 2.158308 1_555
O1_2 Ti1_3 2.159724 1_555
O1_3 Ti0_7 1.760250 1_455
O1_3 Ti1_3 2.158308 1_555
O1_3 Ti1_2 2.159724 1_556
O1_4 Ti0_0 1.760250 1_555
O1_4 Ti1_4 2.158308 1_555
O1_4 Ti1_5 2.159724 1_555
O1_5 Ti0_1 1.760250 1_555
O1_5 Ti1_5 2.158308 1_555
O1_5 Ti1_4 2.159724 1_556
O1_6 Ti0_2 1.760250 1_555
O1_6 Ti1_6 2.158308 1_555
O1_6 Ti1_7 2.159724 1_555
O1_7 Ti0_3 1.760250 1_555
O1_7 Ti1_7 2.158308 1_555
O1_7 Ti1_6 2.159724 1_556
O2_0 Ti1_0 1.760094 1_555
O2_0 Ti0_1 2.157656 1_554
O2_0 Ti0_0 2.159034 1_555
O2_1 Ti1_1 1.760094 1_555
O2_1 Ti0_0 2.157656 1_555
O2_1 Ti0_1 2.159034 1_555
O2_2 Ti1_2 1.760094 1_555
O2_2 Ti0_3 2.157656 1_554
O2_2 Ti0_2 2.159034 1_555
O2_3 Ti1_3 1.760094 1_555
O2_3 Ti0_2 2.157656 1_555
O2_3 Ti0_3 2.159034 1_555
O2_4 Ti1_4 1.760094 1_555
O2_4 Ti0_5 2.157656 1_554
O2_4 Ti0_4 2.159034 1_555
O2_5 Ti1_5 1.760094 1_555
O2_5 Ti0_4 2.157656 1_555
O2_5 Ti0_5 2.159034 1_555
O2_6 Ti1_6 1.760094 1_555
O2_6 Ti0_7 2.157656 1_554
O2_6 Ti0_6 2.159034 1_555
O2_7 Ti1_7 1.760094 1_555
O2_7 Ti0_6 2.157656 1_555
O2_7 Ti0_7 2.159034 1_555
O3_0 Ti1_2 1.767945 1_555
O3_0 Ti1_3 1.768435 1_555
O3_0 Ti0_2 2.552451 1_555
O3_1 Ti1_3 1.767945 1_555
O3_1 Ti1_2 1.768435 1_556
O3_1 Ti0_3 2.552451 1_555
O3_2 Ti1_0 1.767945 1_565
O3_2 Ti1_1 1.768435 1_565
O3_2 Ti0_0 2.552451 1_565
O3_3 Ti1_1 1.767945 1_565
O3_3 Ti1_0 1.768435 1_566
O3_3 Ti0_1 2.552451 1_565
O3_4 Ti1_6 1.767945 1_555
O3_4 Ti1_7 1.768435 1_555
O3_4 Ti0_6 2.552451 1_555
O3_5 Ti1_7 1.767945 1_555
O3_5 Ti1_6 1.768435 1_556
O3_5 Ti0_7 2.552451 1_555
O3_6 Ti1_4 1.767945 1_565
O3_6 Ti1_5 1.768435 1_565
O3_6 Ti0_4 2.552451 1_565
O3_7 Ti1_5 1.767945 1_565
O3_7 Ti1_4 1.768435 1_566
O3_7 Ti0_5 2.552451 1_565
O4_0 O5_0 1.499425 1_555
O4_0 O5_1 1.499997 1_554
O4_1 O5_1 1.499425 1_555
O4_1 O5_0 1.499997 1_555
O4_2 O5_2 1.499425 1_555
O4_2 O5_3 1.499997 1_554
O4_3 O5_3 1.499425 1_555
O4_3 O5_2 1.499997 1_555
O4_4 O5_4 1.499425 1_555
O4_4 O5_5 1.499997 1_554
O4_5 O5_5 1.499425 1_555
O4_5 O5_4 1.499997 1_555
O4_6 O5_6 1.499425 1_555
O4_6 O5_7 1.499997 1_554
O4_7 O5_7 1.499425 1_555
O4_7 O5_6 1.499997 1_555
