# generated using pymatgen
data_Ho2Fe17C3
_symmetry_space_group_name_H-M   'P 1'
_cell_length_a   8.32656400
_cell_length_b   8.63035553
_cell_length_c   8.63035553
_cell_angle_alpha   119.99999642
_cell_angle_beta   90.00000000
_cell_angle_gamma   90.00000000
_symmetry_Int_Tables_number   1
_chemical_formula_structural   Ho2Fe17C3
_chemical_formula_sum   'Ho4 Fe34 C6'
_cell_volume   537.09838447
_cell_formula_units_Z   2
loop_
 _symmetry_equiv_pos_site_id
 _symmetry_equiv_pos_as_xyz
  1  'x, y, z'
loop_
 _atom_site_type_symbol
 _atom_site_label
 _atom_site_symmetry_multiplicity
 _atom_site_fract_x
 _atom_site_fract_y
 _atom_site_fract_z
 _atom_site_occupancy
  Ho  Ho0  1  0.75000000  0.00000000  0.00000000  1
  Ho  Ho1  1  0.25000000  0.00000000  0.00000000  1
  Ho  Ho2  1  0.75000000  0.66666700  0.33333300  1
  Ho  Ho3  1  0.25000000  0.33333300  0.66666700  1
  Fe  Fe0  1  0.75000000  0.62142500  0.67287400  1
  Fe  Fe1  1  0.25000000  0.37857500  0.32712600  1
  Fe  Fe2  1  0.75000000  0.05144900  0.37857500  1
  Fe  Fe3  1  0.25000000  0.94855100  0.32712600  1
  Fe  Fe4  1  0.25000000  0.94855100  0.62142500  1
  Fe  Fe5  1  0.75000000  0.05144900  0.67287400  1
  Fe  Fe6  1  0.75000000  0.32712600  0.94855100  1
  Fe  Fe7  1  0.25000000  0.67287400  0.62142500  1
  Fe  Fe8  1  0.25000000  0.67287400  0.05144900  1
  Fe  Fe9  1  0.75000000  0.32712600  0.37857500  1
  Fe  Fe10  1  0.25000000  0.37857500  0.05144900  1
  Fe  Fe11  1  0.75000000  0.62142500  0.94855100  1
  Fe  Fe12  1  0.39252100  0.66666700  0.33333300  1
  Fe  Fe13  1  0.60747900  0.33333300  0.66666700  1
  Fe  Fe14  1  0.89252100  0.33333300  0.66666700  1
  Fe  Fe15  1  0.10747900  0.66666700  0.33333300  1
  Fe  Fe16  1  0.98044500  0.83182400  0.16817600  1
  Fe  Fe17  1  0.01955500  0.16817600  0.83182400  1
  Fe  Fe18  1  0.98044500  0.33635200  0.16817600  1
  Fe  Fe19  1  0.48044500  0.16817600  0.83182400  1
  Fe  Fe20  1  0.01955500  0.66364800  0.83182400  1
  Fe  Fe21  1  0.51955500  0.83182400  0.16817600  1
  Fe  Fe22  1  0.98044500  0.83182400  0.66364800  1
  Fe  Fe23  1  0.48044500  0.66364800  0.83182400  1
  Fe  Fe24  1  0.01955500  0.16817600  0.33635200  1
  Fe  Fe25  1  0.51955500  0.33635200  0.16817600  1
  Fe  Fe26  1  0.48044500  0.16817600  0.33635200  1
  Fe  Fe27  1  0.51955500  0.83182400  0.66364800  1
  Fe  Fe28  1  0.00000000  0.50000000  0.50000000  1
  Fe  Fe29  1  0.00000000  0.00000000  0.50000000  1
  Fe  Fe30  1  0.50000000  0.50000000  0.50000000  1
  Fe  Fe31  1  0.00000000  0.50000000  0.00000000  1
  Fe  Fe32  1  0.50000000  0.00000000  0.50000000  1
  Fe  Fe33  1  0.50000000  0.50000000  0.00000000  1
  C  C0  1  0.75000000  0.83411400  0.16588600  1
  C  C1  1  0.25000000  0.16588600  0.83411400  1
  C  C2  1  0.75000000  0.33177200  0.16588600  1
  C  C3  1  0.25000000  0.66822800  0.83411400  1
  C  C4  1  0.75000000  0.83411400  0.66822800  1
  C  C5  1  0.25000000  0.16588600  0.33177200  1
loop_
_geom_bond_atom_site_label_1
_geom_bond_atom_site_label_2
_geom_bond_distance
_geom_bond_site_symmetry_2
Fe0 Fe28 2.468578 1_655
Fe0 Fe30 2.468578 1_555
Fe0 Fe13 2.731269 1_555
Fe0 Fe14 2.731269 1_555
Fe1 Fe30 2.468578 1_555
Fe1 Fe28 2.468578 1_555
Fe1 Fe15 2.731269 1_555
Fe1 Fe12 2.731269 1_555
Fe2 Fe32 2.468578 1_555
Fe2 Fe29 2.468578 1_655
Fe3 Fe32 2.468578 1_565
Fe10 Fe33 2.468578 1_555
Fe10 Fe31 2.468578 1_555
Fe10 Fe15 2.731265 1_555
Fe10 Fe12 2.731265 1_555
Fe11 Fe31 2.468578 1_656
Fe11 Fe33 2.468578 1_556
Fe11 Fe13 2.731265 1_555
Fe11 Fe14 2.731265 1_555
Fe12 Fe15 2.373420 1_555
Fe12 Fe33 2.647227 1_555
Fe12 Fe32 2.647227 1_565
Fe12 Fe30 2.647234 1_555
Fe12 Fe21 2.685858 1_555
Fe12 Fe27 2.685865 1_555
Fe12 Fe25 2.685865 1_555
Fe12 Fe8 2.731261 1_555
Fe12 Fe3 2.731261 1_555
Fe12 Fe4 2.731265 1_555
Fe12 Fe7 2.731269 1_555
Fe12 Ho2 2.976572 1_555
Fe13 Fe14 2.373420 1_555
Fe13 Fe33 2.647227 1_556
Fe13 Fe32 2.647227 1_555
Fe13 Fe30 2.647234 1_555
Fe13 Fe19 2.685858 1_555
Fe13 Fe26 2.685865 1_555
Fe13 Fe23 2.685865 1_555
Fe13 Fe5 2.731261 1_555
Fe13 Fe6 2.731261 1_555
Fe13 Fe2 2.731265 1_555
Fe13 Fe9 2.731269 1_555
Fe13 Ho3 2.976572 1_555
Fe14 Fe29 2.647227 1_655
Fe14 Fe31 2.647227 1_656
Fe14 Fe28 2.647234 1_655
Fe14 Fe17 2.685858 1_655
Fe14 Fe20 2.685865 1_655
Fe14 Fe24 2.685865 1_655
Fe14 Fe5 2.731261 1_555
Fe14 Fe6 2.731261 1_555
Fe14 Fe2 2.731265 1_555
Fe14 Fe9 2.731269 1_555
Fe14 Ho3 2.976572 1_655
Fe15 Fe29 2.647227 1_565
Fe15 Fe31 2.647227 1_555
Fe15 Fe28 2.647234 1_555
Fe15 Fe16 2.685858 1_455
Fe15 Fe18 2.685865 1_455
Fe15 Fe22 2.685865 1_455
Fe15 Fe8 2.731261 1_555
Fe15 Fe3 2.731261 1_555
Fe15 Fe4 2.731265 1_555
Fe15 Fe7 2.731269 1_555
Fe15 Ho2 2.976572 1_455
Fe16 Fe31 2.485504 1_655
Fe16 Fe29 2.485504 1_665
Fe17 Fe31 2.485504 1_556
Fe17 Fe29 2.485504 1_555
Fe18 Fe31 2.485504 1_655
Fe18 Fe28 2.485504 1_655
Fe19 Fe32 2.485504 1_555
Fe19 Fe33 2.485504 1_556
Fe20 Fe31 2.485504 1_556
Fe20 Fe28 2.485504 1_555
Fe21 Fe33 2.485504 1_555
Fe21 Fe32 2.485504 1_565
Fe22 Fe29 2.485504 1_665
Fe22 Fe28 2.485504 1_655
Fe23 Fe33 2.485504 1_556
Fe23 Fe30 2.485504 1_555
Fe24 Fe29 2.485504 1_555
Fe24 Fe28 2.485504 1_555
Fe25 Fe33 2.485504 1_555
Fe25 Fe30 2.485504 1_555
Fe26 Fe32 2.485504 1_555
Fe26 Fe30 2.485504 1_555
Fe27 Fe32 2.485504 1_565
Fe27 Fe30 2.485504 1_555
Fe28 Fe7 2.468578 1_555
Fe28 Fe9 2.468578 1_455
Fe28 Ho2 3.246563 1_455
Fe28 Ho3 3.246563 1_555
Fe29 Fe4 2.468578 1_545
Fe29 Fe5 2.468578 1_455
Fe29 Fe3 2.468578 1_545
Fe29 Ho3 3.246558 1_555
Fe29 Ho2 3.246558 1_445
Fe30 Fe7 2.468578 1_555
Fe30 Fe9 2.468578 1_555
Fe30 Ho3 3.246563 1_555
Fe30 Ho2 3.246563 1_555
Fe31 Fe8 2.468578 1_555
Fe31 Fe6 2.468578 1_454
Fe31 Ho2 3.246558 1_455
Fe31 Ho3 3.246558 1_554
Fe32 Fe4 2.468578 1_545
Fe32 Fe5 2.468578 1_555
Fe32 Ho3 3.246558 1_555
Fe32 Ho2 3.246558 1_545
Fe33 Fe8 2.468578 1_555
Fe33 Fe6 2.468578 1_554
Fe33 Ho2 3.246558 1_555
Fe33 Ho3 3.246558 1_554
C0 Fe11 1.855955 1_554
C0 Fe2 1.855955 1_565
C0 Fe21 1.919120 1_555
C0 Fe16 1.919120 1_555
C0 Ho0 2.479699 1_565
C0 Ho2 2.503034 1_555
C1 Fe4 1.855955 1_545
C1 Fe10 1.855955 1_556
C1 Fe17 1.919120 1_555
C1 Fe19 1.919120 1_555
C1 Ho1 2.479699 1_556
C1 Ho3 2.503034 1_555
C2 Fe9 1.855955 1_555
C2 Fe6 1.855955 1_554
C2 Fe18 1.919120 1_555
C2 Fe25 1.919120 1_555
C2 Ho0 2.479700 1_555
C2 Ho2 2.503041 1_555
C3 Fe7 1.855955 1_555
C3 Fe8 1.855955 1_556
C3 Fe23 1.919120 1_555
C3 Fe20 1.919120 1_555
C3 Ho1 2.479700 1_566
C3 Ho3 2.503041 1_555
C4 Fe0 1.855955 1_555
C4 Fe5 1.855955 1_565
C4 Fe27 1.919120 1_555
C4 Fe22 1.919120 1_555
C4 Ho0 2.479700 1_566
C4 Ho2 2.503041 1_555
C5 Fe1 1.855955 1_555
C5 Fe3 1.855955 1_545
C5 Fe24 1.919120 1_555
C5 Fe26 1.919120 1_555
C5 Ho1 2.479700 1_555
C5 Ho3 2.503041 1_555
