# generated using pymatgen
data_TiMnGe
_symmetry_space_group_name_H-M   'P 1'
_cell_length_a   6.43372900
_cell_length_b   7.29637100
_cell_length_c   7.37125192
_cell_angle_alpha   119.66452884
_cell_angle_beta   115.87484921
_cell_angle_gamma   90.00000000
_symmetry_Int_Tables_number   1
_chemical_formula_structural   TiMnGe
_chemical_formula_sum   'Ti6 Mn6 Ge6'
_cell_volume   260.00535806
_cell_formula_units_Z   6
loop_
 _symmetry_equiv_pos_site_id
 _symmetry_equiv_pos_as_xyz
  1  'x, y, z'
loop_
 _atom_site_type_symbol
 _atom_site_label
 _atom_site_symmetry_multiplicity
 _atom_site_fract_x
 _atom_site_fract_y
 _atom_site_fract_z
 _atom_site_occupancy
  Ti  Ti0  1  0.89360500  0.94764300  0.39528500  1
  Ti  Ti1  1  0.49831900  0.05235700  0.60471500  1
  Ti  Ti2  1  0.50889800  0.52134000  0.54268000  1
  Ti  Ti3  1  0.96621700  0.47866000  0.45732000  1
  Ti  Ti4  1  0.08484500  0.74911300  0.99822500  1
  Ti  Ti5  1  0.08662000  0.25088700  0.00177500  1
  Mn  Mn0  1  0.26257800  0.91910300  0.75786300  1
  Mn  Mn1  1  0.50471500  0.08089700  0.24213700  1
  Mn  Mn2  1  0.26257800  0.33876000  0.75786300  1
  Mn  Mn3  1  0.50471500  0.66124000  0.24213700  1
  Mn  Mn4  1  0.74034200  0.50000000  0.00000000  1
  Mn  Mn5  1  0.74034200  0.00000000  0.00000000  1
  Ge  Ge0  1  0.17184600  0.67175800  0.33317700  1
  Ge  Ge1  1  0.83866900  0.32824200  0.66682300  1
  Ge  Ge2  1  0.17184600  0.16142000  0.33317700  1
  Ge  Ge3  1  0.83866900  0.83858000  0.66682300  1
  Ge  Ge4  1  0.45624500  0.71364800  0.92729700  1
  Ge  Ge5  1  0.52894800  0.28635200  0.07270300  1
loop_
_geom_bond_atom_site_label_1
_geom_bond_atom_site_label_2
_geom_bond_distance
_geom_bond_site_symmetry_2
Ge0 Mn0 2.492067 1_555
Ge0 Mn3 2.499209 1_555
Ge0 Mn4 2.512337 1_455
Ge0 Ti4 2.626986 1_554
Ge0 Ti3 2.627831 1_455
Ge0 Ti1 2.637890 1_565
Ge0 Ti2 2.654533 1_555
Ge0 Ti5 2.665275 1_555
Ge0 Ti0 2.696157 1_455
Ge1 Mn1 2.492067 1_555
Ge1 Mn2 2.499209 1_655
Ge1 Mn4 2.512338 1_556
Ge1 Ti5 2.626986 1_656
Ge1 Ti2 2.627826 1_555
Ge1 Ti0 2.637893 1_545
Ge1 Ti3 2.654529 1_555
Ge1 Ti4 2.665275 1_655
Ge1 Ti1 2.696162 1_555
Ge2 Mn2 2.492068 1_555
Ge2 Mn1 2.499210 1_555
Ge2 Mn5 2.512337 1_455
Ge2 Ti4 2.626985 1_544
Ge2 Ti3 2.627825 1_455
Ge2 Ti1 2.637900 1_555
Ge2 Ti2 2.654528 1_555
Ge2 Ti5 2.665265 1_555
Ge2 Ti0 2.696158 1_445
Ge3 Mn3 2.492068 1_555
Ge3 Mn0 2.499210 1_655
Ge3 Mn5 2.512337 1_566
Ge3 Ti5 2.626985 1_666
Ge3 Ti2 2.627821 1_555
Ge3 Ti0 2.637903 1_555
Ge3 Ti3 2.654524 1_555
Ge3 Ti4 2.665265 1_655
Ge3 Ti1 2.696162 1_565
Ge4 Mn2 2.419618 1_555
Ge4 Mn0 2.419624 1_555
Ge4 Mn3 2.424081 1_556
Ge4 Mn1 2.424085 1_566
Ge4 Mn4 2.455618 1_556
Ge4 Mn5 2.455624 1_566
Ge4 Ti4 2.646968 1_555
Ge4 Ti2 2.649908 1_555
Ge4 Ti0 2.903577 1_556
Ge4 Ti3 3.077090 1_455
Ge5 Mn3 2.419618 1_555
Ge5 Mn1 2.419624 1_555
Ge5 Mn2 2.424081 1_554
Ge5 Mn0 2.424085 1_544
Ge5 Mn4 2.455618 1_555
Ge5 Mn5 2.455624 1_555
Ge5 Ti5 2.646968 1_555
Ge5 Ti3 2.649904 1_555
Ge5 Ti1 2.903574 1_554
Ge5 Ti2 3.077087 1_555
