# generated using pymatgen
data_Sr2LiIn(B2O5)2
_symmetry_space_group_name_H-M   'P 1'
_cell_length_a   5.30810500
_cell_length_b   12.89500000
_cell_length_c   13.98467198
_cell_angle_alpha   62.57743176
_cell_angle_beta   90.00000000
_cell_angle_gamma   90.00000000
_symmetry_Int_Tables_number   1
_chemical_formula_structural   Sr2LiIn(B2O5)2
_chemical_formula_sum   'Sr8 Li4 In4 B16 O40'
_cell_volume   849.66374688
_cell_formula_units_Z   4
loop_
 _symmetry_equiv_pos_site_id
 _symmetry_equiv_pos_as_xyz
  1  'x, y, z'
loop_
 _atom_site_type_symbol
 _atom_site_label
 _atom_site_symmetry_multiplicity
 _atom_site_fract_x
 _atom_site_fract_y
 _atom_site_fract_z
 _atom_site_occupancy
  Sr  Sr0  1  0.37307900  0.32947000  0.35558900  1
  Sr  Sr1  1  0.87307900  0.67053000  0.14441100  1
  Sr  Sr2  1  0.62692100  0.67053000  0.64441100  1
  Sr  Sr3  1  0.12692100  0.32947000  0.85558900  1
  Sr  Sr4  1  0.07565500  0.02492200  0.12403100  1
  Sr  Sr5  1  0.57565500  0.97507800  0.37596900  1
  Sr  Sr6  1  0.42434500  0.02492200  0.62403100  1
  Sr  Sr7  1  0.92434500  0.97507800  0.87596900  1
  Li  Li0  1  0.10200700  0.51718800  0.60246100  1
  Li  Li1  1  0.39799300  0.51718800  0.10246100  1
  Li  Li2  1  0.89799300  0.48281200  0.39753900  1
  Li  Li3  1  0.60200700  0.48281200  0.89753900  1
  In  In0  1  0.42758300  0.74737300  0.88459000  1
  In  In1  1  0.92758300  0.25262700  0.61541000  1
  In  In2  1  0.57241700  0.25262700  0.11541000  1
  In  In3  1  0.07241700  0.74737300  0.38459000  1
  B  B0  1  0.36235400  0.60694000  0.28983300  1
  B  B1  1  0.09733900  0.85236900  0.55350700  1
  B  B2  1  0.40266100  0.85236900  0.05350700  1
  B  B3  1  0.90266100  0.14763100  0.44649300  1
  B  B4  1  0.63764600  0.39306000  0.71016700  1
  B  B5  1  0.13764600  0.60694000  0.78983300  1
  B  B6  1  0.59733900  0.14763100  0.94649300  1
  B  B7  1  0.86235400  0.39306000  0.21016700  1
  B  B8  1  0.92010500  0.62392000  0.94958900  1
  B  B9  1  0.42010500  0.37608000  0.55041100  1
  B  B10  1  0.57989500  0.62392000  0.44958900  1
  B  B11  1  0.07989500  0.37608000  0.05041100  1
  B  B12  1  0.43513600  0.14318900  0.76854000  1
  B  B13  1  0.93513600  0.85681100  0.73146000  1
  B  B14  1  0.56486400  0.85681100  0.23146000  1
  B  B15  1  0.06486400  0.14318900  0.26854000  1
  O  O0  1  0.58371200  0.42669800  0.78592600  1
  O  O1  1  0.57042700  0.60892700  0.35547500  1
  O  O2  1  0.92957300  0.60892700  0.85547500  1
  O  O3  1  0.42957300  0.39107300  0.64452500  1
  O  O4  1  0.20640900  0.13426400  0.72730900  1
  O  O5  1  0.70640900  0.86573600  0.77269100  1
  O  O6  1  0.79359100  0.86573600  0.27269100  1
  O  O7  1  0.29359100  0.13426400  0.22730900  1
  O  O8  1  0.91628800  0.42669800  0.28592600  1
  O  O9  1  0.07042700  0.39107300  0.14452500  1
  O  O10  1  0.41628800  0.57330200  0.21407400  1
  O  O11  1  0.08371200  0.57330200  0.71407400  1
  O  O12  1  0.15392700  0.87591900  0.77353900  1
  O  O13  1  0.65392700  0.12408100  0.72646100  1
  O  O14  1  0.84607300  0.12408100  0.22646100  1
  O  O15  1  0.34607300  0.87591900  0.27353900  1
  O  O16  1  0.18677400  0.38783900  0.50351000  1
  O  O17  1  0.68677400  0.61216100  0.99649000  1
  O  O18  1  0.81322600  0.61216100  0.49649000  1
  O  O19  1  0.31322600  0.38783900  0.00351000  1
  O  O20  1  0.03281800  0.15729900  0.52750900  1
  O  O21  1  0.53281800  0.84270100  0.97249100  1
  O  O22  1  0.96718200  0.84270100  0.47249100  1
  O  O23  1  0.46718200  0.15729900  0.02750900  1
  O  O24  1  0.62419000  0.36197900  0.19299300  1
  O  O25  1  0.12419000  0.63802100  0.30700700  1
  O  O26  1  0.37581000  0.63802100  0.80700700  1
  O  O27  1  0.87581000  0.36197900  0.69299300  1
  O  O28  1  0.65356900  0.12675000  0.44508400  1
  O  O29  1  0.15356900  0.87325000  0.05491600  1
  O  O30  1  0.34643100  0.87325000  0.55491600  1
  O  O31  1  0.84643100  0.12675000  0.94508400  1
  O  O32  1  0.62565900  0.34952200  0.50636800  1
  O  O33  1  0.12565900  0.65047800  0.99363200  1
  O  O34  1  0.42737800  0.15808700  0.86215600  1
  O  O35  1  0.87434100  0.34952200  0.00636800  1
  O  O36  1  0.07262200  0.15808700  0.36215600  1
  O  O37  1  0.57262200  0.84191300  0.13784400  1
  O  O38  1  0.92737800  0.84191300  0.63784400  1
  O  O39  1  0.37434100  0.65047800  0.49363200  1
loop_
_geom_bond_atom_site_label_1
_geom_bond_atom_site_label_2
_geom_bond_distance
_geom_bond_site_symmetry_2
Li0 O11 2.002411 1_555
Li0 O18 2.091424 1_455
Li0 O27 2.171688 1_455
Li0 O39 2.225017 1_555
Li0 O3 2.265577 1_555
Li1 O10 2.002411 1_555
Li1 O17 2.091424 1_554
Li1 O24 2.171688 1_555
Li1 O33 2.225017 1_554
Li1 O9 2.265577 1_555
Li2 O8 2.002411 1_555
Li2 O16 2.091424 1_655
Li2 O25 2.171688 1_655
Li2 O32 2.225017 1_555
Li2 O1 2.265577 1_555
Li3 O0 2.002411 1_555
Li3 O19 2.091424 1_556
Li3 O26 2.171688 1_555
Li3 O35 2.225017 1_556
Li3 O2 2.265577 1_555
In0 O26 2.156445 1_555
In0 O33 2.167948 1_555
In0 O21 2.173948 1_555
In0 O5 2.183781 1_555
In0 O17 2.206475 1_555
In0 O12 2.213223 1_555
In1 O27 2.156445 1_555
In1 O32 2.167948 1_555
In1 O20 2.173948 1_655
In1 O4 2.183781 1_655
In1 O16 2.206475 1_655
In1 O13 2.213223 1_555
In2 O24 2.156445 1_555
In2 O35 2.167948 1_555
In2 O23 2.173948 1_555
In2 O7 2.183781 1_555
In2 O19 2.206475 1_555
In2 O14 2.213223 1_555
In3 O25 2.156445 1_555
In3 O39 2.167948 1_555
In3 O22 2.173948 1_455
In3 O6 2.183781 1_455
In3 O18 2.206475 1_455
In3 O15 2.213223 1_555
B0 O10 1.347543 1_555
B0 O25 1.380282 1_555
B0 O1 1.443909 1_555
B1 O30 1.351298 1_555
B1 O22 1.380804 1_455
B1 O38 1.441062 1_455
B2 O29 1.351298 1_555
B2 O21 1.380804 1_554
B2 O37 1.441062 1_555
B3 O28 1.351298 1_555
B3 O20 1.380804 1_655
B3 O36 1.441062 1_655
B4 O0 1.347543 1_555
B4 O27 1.380282 1_555
B4 O3 1.443909 1_555
B5 O11 1.347543 1_555
B5 O26 1.380282 1_555
B5 O2 1.443909 1_455
B6 O31 1.351298 1_555
B6 O23 1.380804 1_556
B6 O34 1.441062 1_555
B7 O8 1.347543 1_555
B7 O24 1.380282 1_555
B7 O9 1.443909 1_655
B8 O33 1.371657 1_655
B8 O17 1.376800 1_555
B8 O2 1.416526 1_555
B9 O32 1.371657 1_555
B9 O16 1.376800 1_555
B9 O3 1.416526 1_555
B10 O39 1.371657 1_555
B10 O18 1.376800 1_555
B10 O1 1.416526 1_555
B11 O35 1.371657 1_455
B11 O19 1.376800 1_555
B11 O9 1.416526 1_555
B12 O4 1.371457 1_555
B12 O13 1.374527 1_555
B12 O34 1.408631 1_555
B13 O5 1.371457 1_555
B13 O12 1.374527 1_655
B13 O38 1.408631 1_555
B14 O6 1.371457 1_555
B14 O15 1.374527 1_555
B14 O37 1.408631 1_555
B15 O7 1.371457 1_555
B15 O14 1.374527 1_455
B15 O36 1.408631 1_555
O0 Sr3 2.697237 1_555
O0 Sr2 2.850215 1_555
O0 Sr3 3.116087 1_655
O1 Sr1 3.124817 1_555
O2 Sr2 3.124817 1_555
O3 Sr3 3.124817 1_555
O4 Sr7 2.616596 1_445
O4 Sr6 2.699635 1_555
O5 Sr6 2.616596 1_565
O5 Sr7 2.699635 1_555
O6 Sr4 2.616596 1_665
O6 Sr5 2.699635 1_555
O7 Sr5 2.616596 1_545
O7 Sr4 2.699635 1_555
O8 Sr0 2.697237 1_655
O8 Sr1 2.850215 1_555
O8 Sr0 3.116087 1_555
O9 Sr0 3.124817 1_555
O10 Sr1 2.697237 1_555
O10 Sr0 2.850215 1_555
O10 Sr1 3.116087 1_455
O11 Sr2 2.697237 1_455
O11 Sr3 2.850215 1_555
O11 Sr2 3.116087 1_555
O12 Sr6 2.534434 1_565
O12 Sr7 2.618981 1_455
O13 Sr7 2.534434 1_545
O13 Sr6 2.618981 1_555
O14 Sr5 2.534434 1_545
O14 Sr4 2.618981 1_655
O15 Sr4 2.534434 1_565
O15 Sr5 2.618981 1_555
O16 Sr0 2.694038 1_555
O17 Sr1 2.694038 1_556
O18 Sr2 2.694038 1_555
O19 Sr3 2.694038 1_554
O20 Sr6 2.633007 1_555
O20 Sr0 3.009147 1_555
O21 Sr7 2.633007 1_555
O21 Sr1 3.009147 1_556
O22 Sr5 2.633007 1_555
O22 Sr2 3.009147 1_555
O23 Sr4 2.633007 1_555
O23 Sr3 3.009147 1_554
O24 Sr0 2.498964 1_555
O25 Sr1 2.498964 1_455
O26 Sr2 2.498964 1_555
O27 Sr3 2.498964 1_655
O28 Sr6 2.537813 1_555
O28 Sr5 2.582963 1_545
O28 Sr0 2.757352 1_555
O29 Sr7 2.537813 1_454
O29 Sr4 2.582963 1_565
O29 Sr1 2.757352 1_455
O30 Sr5 2.537813 1_555
O30 Sr6 2.582963 1_565
O30 Sr2 2.757352 1_555
O31 Sr4 2.537813 1_656
O31 Sr7 2.582963 1_545
O31 Sr3 2.757352 1_655
O32 Sr0 2.610128 1_555
O33 Sr1 2.610128 1_456
O34 Sr3 2.692413 1_555
O35 Sr3 2.610128 1_654
O36 Sr0 2.692413 1_555
O37 Sr1 2.692413 1_555
O38 Sr2 2.692413 1_555
O39 Sr2 2.610128 1_555
