# generated using pymatgen
data_BaDy2CoO5
_symmetry_space_group_name_H-M   'P 1'
_cell_length_a   3.67335283
_cell_length_b   5.76451461
_cell_length_c   6.72070156
_cell_angle_alpha   115.39114917
_cell_angle_beta   105.86058444
_cell_angle_gamma   90.00056943
_symmetry_Int_Tables_number   1
_chemical_formula_structural   BaDy2CoO5
_chemical_formula_sum   'Ba1 Dy2 Co1 O5'
_cell_volume   122.54007571
_cell_formula_units_Z   1
loop_
 _symmetry_equiv_pos_site_id
 _symmetry_equiv_pos_as_xyz
  1  'x, y, z'
loop_
 _atom_site_type_symbol
 _atom_site_label
 _atom_site_symmetry_multiplicity
 _atom_site_fract_x
 _atom_site_fract_y
 _atom_site_fract_z
 _atom_site_occupancy
  Ba  Ba0  1  0.99999668  0.00000086  0.99999784  1
  Dy  Dy0  1  0.79556001  0.29561567  0.59118713  1
  Dy  Dy1  1  0.20443327  0.70438197  0.40881265  1
  Co  Co0  1  0.50008123  0.50000573  0.00000385  1
  O  O0  1  0.65186948  0.41016319  0.30369026  1
  O  O1  1  0.34825070  0.10605036  0.69663501  1
  O  O2  1  0.34813583  0.58983961  0.69631425  1
  O  O3  1  0.65174381  0.89394797  0.30336006  1
  O  O4  1  -0.00006701  0.49999564  -0.00000006  1
loop_
_geom_bond_atom_site_label_1
_geom_bond_atom_site_label_2
_geom_bond_distance
_geom_bond_site_symmetry_2
Ba0 O4 2.882221 1_656
Ba0 O4 2.882293 1_646
Ba0 O1 2.943034 1_655
Ba0 O3 2.943038 1_546
Ba0 O1 2.943309 1_555
Ba0 O3 2.943320 1_646
Ba0 O2 2.946110 1_645
Ba0 O0 2.946114 1_556
Ba0 O2 2.946140 1_545
Ba0 O0 2.946178 1_656
Dy0 O3 2.232141 1_545
Dy0 O0 2.232631 1_555
Dy0 O4 2.365796 1_656
Dy0 O2 2.384145 1_555
Dy0 O2 2.384176 1_655
Dy0 O1 2.386610 1_655
Dy0 O1 2.386793 1_555
Dy1 O1 2.232132 1_565
Dy1 O2 2.232641 1_555
Dy1 O4 2.365795 1_555
Dy1 O0 2.384133 1_455
Dy1 O0 2.384156 1_555
Dy1 O3 2.386617 1_455
Dy1 O3 2.386820 1_555
Co0 O4 1.836139 1_655
Co0 O4 1.837214 1_555
Co0 O2 2.242578 1_554
Co0 O0 2.242589 1_555
Co0 O3 2.243329 1_555
Co0 O1 2.243411 1_554
