# generated using pymatgen
data_LiBePO5
_symmetry_space_group_name_H-M   'P 1'
_cell_length_a   4.78497900
_cell_length_b   7.85259900
_cell_length_c   9.80383800
_cell_angle_alpha   90.00000000
_cell_angle_beta   90.00000000
_cell_angle_gamma   90.00000000
_symmetry_Int_Tables_number   1
_chemical_formula_structural   LiBePO5
_chemical_formula_sum   'Li4 Be4 P4 O20'
_cell_volume   368.37451985
_cell_formula_units_Z   4
loop_
 _symmetry_equiv_pos_site_id
 _symmetry_equiv_pos_as_xyz
  1  'x, y, z'
loop_
 _atom_site_type_symbol
 _atom_site_label
 _atom_site_symmetry_multiplicity
 _atom_site_fract_x
 _atom_site_fract_y
 _atom_site_fract_z
 _atom_site_occupancy
  Li  Li0  1  0.76167000  0.29247000  0.31555800  1
  Li  Li1  1  0.26167000  0.70753000  0.68444200  1
  Li  Li2  1  0.26167000  0.79247000  0.18444200  1
  Li  Li3  1  0.76167000  0.20753000  0.81555800  1
  Be  Be0  1  0.25691600  0.39180400  0.85375300  1
  Be  Be1  1  0.75691600  0.60819600  0.14624700  1
  Be  Be2  1  0.75691600  0.89180400  0.64624700  1
  Be  Be3  1  0.25691600  0.10819600  0.35375300  1
  P  P0  1  0.25533600  0.40132700  0.15703000  1
  P  P1  1  0.75533600  0.59867300  0.84297000  1
  P  P2  1  0.75533600  0.90132700  0.34297000  1
  P  P3  1  0.25533600  0.09867300  0.65703000  1
  O  O0  1  0.21108200  0.33493100  0.01105700  1
  O  O1  1  0.71108200  0.66506900  0.98894300  1
  O  O2  1  0.71108200  0.83493100  0.48894300  1
  O  O3  1  0.21108200  0.16506900  0.51105700  1
  O  O4  1  0.15117300  0.23226400  0.75965300  1
  O  O5  1  0.65117300  0.76773600  0.24034700  1
  O  O6  1  0.65117300  0.73226400  0.74034700  1
  O  O7  1  0.15117300  0.26773600  0.25965300  1
  O  O8  1  0.56829900  0.43952800  0.18518000  1
  O  O9  1  0.06829900  0.56047200  0.81482000  1
  O  O10  1  0.06829900  0.93952800  0.31482000  1
  O  O11  1  0.56829900  0.06047200  0.68518000  1
  O  O12  1  0.58504900  0.43155900  0.82243500  1
  O  O13  1  0.08504900  0.56844100  0.17756500  1
  O  O14  1  0.08504900  0.93155900  0.67756500  1
  O  O15  1  0.58504900  0.06844100  0.32243500  1
  O  O16  1  0.74377600  0.41360600  0.49641300  1
  O  O17  1  0.24377600  0.58639400  0.50358700  1
  O  O18  1  0.24377600  0.91360600  0.00358700  1
  O  O19  1  0.74377600  0.08639400  0.99641300  1
loop_
_geom_bond_atom_site_label_1
_geom_bond_atom_site_label_2
_geom_bond_distance
_geom_bond_site_symmetry_2
Li0 O7 1.952366 1_655
Li0 O15 1.952846 1_555
Li0 O8 1.955371 1_555
Li0 O16 2.013942 1_555
Li1 O6 1.952366 1_555
Li1 O14 1.952846 1_555
Li1 O9 1.955371 1_555
Li1 O17 2.013942 1_555
Li2 O5 1.952366 1_555
Li2 O13 1.952846 1_555
Li2 O10 1.955371 1_555
Li2 O18 2.013942 1_555
Li3 O4 1.952366 1_655
Li3 O12 1.952846 1_555
Li3 O11 1.955371 1_555
Li3 O19 2.013942 1_555
Be0 O0 1.620457 1_556
Be0 O12 1.630022 1_555
Be0 O4 1.636036 1_555
Be0 O9 1.647574 1_555
Be1 O1 1.620457 1_554
Be1 O13 1.630022 1_655
Be1 O5 1.636036 1_555
Be1 O8 1.647574 1_555
Be2 O2 1.620457 1_555
Be2 O14 1.630022 1_655
Be2 O6 1.636036 1_555
Be2 O11 1.647574 1_565
Be3 O3 1.620457 1_555
Be3 O15 1.630022 1_555
Be3 O7 1.636036 1_555
Be3 O10 1.647574 1_545
O0 P0 1.537762 1_555
O1 P1 1.537762 1_555
O2 P2 1.537762 1_555
O3 P3 1.537762 1_555
O4 P3 1.536598 1_555
O5 P2 1.536598 1_555
O6 P1 1.536598 1_555
O7 P0 1.536598 1_555
O8 P0 1.552005 1_555
O9 P1 1.552005 1_455
O10 P2 1.552005 1_455
O11 P3 1.552005 1_555
O12 P1 1.557735 1_555
O13 P0 1.557735 1_555
O14 P3 1.557735 1_565
O15 P2 1.557735 1_545
