# generated using pymatgen
data_SnMo5O8
_symmetry_space_group_name_H-M   'P 1'
_cell_length_a   8.39900343
_cell_length_b   9.96893200
_cell_length_c   10.69405134
_cell_angle_alpha   90.00000000
_cell_angle_beta   110.41294988
_cell_angle_gamma   90.00000000
_symmetry_Int_Tables_number   1
_chemical_formula_structural   SnMo5O8
_chemical_formula_sum   'Sn4 Mo20 O32'
_cell_volume   839.17475612
_cell_formula_units_Z   4
loop_
 _symmetry_equiv_pos_site_id
 _symmetry_equiv_pos_as_xyz
  1  'x, y, z'
loop_
 _atom_site_type_symbol
 _atom_site_label
 _atom_site_symmetry_multiplicity
 _atom_site_fract_x
 _atom_site_fract_y
 _atom_site_fract_z
 _atom_site_occupancy
  Sn  Sn0  1  0.31106900  0.94368700  0.02183000  1
  Sn  Sn1  1  0.68893100  0.44368700  0.47816900  1
  Sn  Sn2  1  0.68893100  0.05631300  0.97817000  1
  Sn  Sn3  1  0.31106900  0.55631400  0.52183100  1
  Mo  Mo0  1  0.00853500  0.63599600  0.09041500  1
  Mo  Mo1  1  0.99146500  0.13599600  0.40958500  1
  Mo  Mo2  1  0.99146500  0.36400400  0.90958500  1
  Mo  Mo3  1  0.00853500  0.86400400  0.59041500  1
  Mo  Mo4  1  0.79296700  0.64150400  0.76992800  1
  Mo  Mo5  1  0.20703300  0.14150400  0.73007200  1
  Mo  Mo6  1  0.20703300  0.35849600  0.23007100  1
  Mo  Mo7  1  0.79296700  0.85849600  0.26992800  1
  Mo  Mo8  1  0.19025200  0.62398700  0.85757900  1
  Mo  Mo9  1  0.80974900  0.12398800  0.64242100  1
  Mo  Mo10  1  0.80974800  0.37601300  0.14242100  1
  Mo  Mo11  1  0.19025100  0.87601300  0.35757900  1
  Mo  Mo12  1  0.60510500  0.86409700  0.48097900  1
  Mo  Mo13  1  0.58366100  0.12858400  0.30088900  1
  Mo  Mo14  1  0.58366100  0.37141600  0.80089000  1
  Mo  Mo15  1  0.41633900  0.87141600  0.69911100  1
  Mo  Mo16  1  0.60510600  0.63590300  0.98097900  1
  Mo  Mo17  1  0.39489500  0.13590400  0.51902100  1
  Mo  Mo18  1  0.39489400  0.36409600  0.01902100  1
  Mo  Mo19  1  0.41633900  0.62858400  0.19911000  1
  O  O0  1  0.40883000  0.49828900  0.86192700  1
  O  O1  1  0.59116900  0.99828900  0.63807300  1
  O  O2  1  0.59117000  0.50171100  0.13807300  1
  O  O3  1  0.40883100  0.00171100  0.36192700  1
  O  O4  1  0.61078700  0.75643700  0.31117900  1
  O  O5  1  0.38921300  0.25643600  0.18882000  1
  O  O6  1  0.38921300  0.24356300  0.68882100  1
  O  O7  1  0.61078700  0.74356300  0.81118000  1
  O  O8  1  0.21388500  0.75026900  0.70805400  1
  O  O9  1  0.78611400  0.25026900  0.79194600  1
  O  O10  1  0.78611500  0.24973200  0.29194600  1
  O  O11  1  0.21388600  0.74973100  0.20805400  1
  O  O12  1  0.80750800  0.75038400  0.60856800  1
  O  O13  1  0.19249300  0.25038500  0.89143200  1
  O  O14  1  0.19249200  0.24961600  0.39143100  1
  O  O15  1  0.80750700  0.74961500  0.10856800  1
  O  O16  1  0.39478400  0.76617000  0.51210200  1
  O  O17  1  0.60521700  0.26616900  0.98789800  1
  O  O18  1  0.60521700  0.23383000  0.48789700  1
  O  O19  1  0.39478300  0.73383000  0.01210200  1
  O  O20  1  0.96904800  0.50488800  0.75288200  1
  O  O21  1  0.03095300  0.00488700  0.74711900  1
  O  O22  1  0.03095200  0.49511200  0.24711800  1
  O  O23  1  0.96904700  0.99511300  0.25288100  1
  O  O24  1  0.40346200  0.00590400  0.85652600  1
  O  O25  1  0.59653800  0.50590400  0.64347400  1
  O  O26  1  0.59653800  0.99409600  0.14347400  1
  O  O27  1  0.40346200  0.49409600  0.35652500  1
  O  O28  1  0.99583100  0.77145800  0.40554300  1
  O  O29  1  0.00416900  0.22854200  0.59445700  1
  O  O30  1  0.00417000  0.27145700  0.09445800  1
  O  O31  1  0.99583000  0.72854200  0.90554200  1
loop_
_geom_bond_atom_site_label_1
_geom_bond_atom_site_label_2
_geom_bond_distance
_geom_bond_site_symmetry_2
Mo0 O11 2.080712 1_555
Mo0 O15 2.097632 1_455
Mo0 O22 2.143862 1_555
Mo0 O31 2.150367 1_454
Mo1 O10 2.080712 1_555
Mo1 O14 2.097635 1_655
Mo1 O23 2.143861 1_545
Mo1 O29 2.150359 1_655
Mo2 O9 2.080712 1_555
Mo2 O13 2.097632 1_655
Mo2 O20 2.143862 1_555
Mo2 O30 2.150371 1_656
Mo3 O8 2.080707 1_555
Mo3 O12 2.097631 1_455
Mo3 O21 2.143861 1_565
Mo3 O28 2.150359 1_455
Mo4 O31 2.008858 1_555
Mo4 O7 2.010454 1_555
Mo4 O20 2.064767 1_555
Mo4 O12 2.077914 1_555
Mo4 O25 2.195819 1_555
Mo5 O29 2.008868 1_555
Mo5 O6 2.010449 1_555
Mo5 O21 2.064771 1_555
Mo5 O13 2.077916 1_555
Mo5 O24 2.195819 1_555
Mo6 O30 2.008858 1_555
Mo6 O5 2.010454 1_555
Mo6 O22 2.064770 1_555
Mo6 O14 2.077914 1_555
Mo6 O27 2.195819 1_555
Mo7 O28 2.008868 1_555
Mo7 O4 2.010449 1_555
Mo7 O23 2.064771 1_555
Mo7 O15 2.077916 1_555
Mo7 O26 2.195819 1_555
Mo8 O8 2.098218 1_555
Mo8 O31 2.144824 1_455
Mo8 O20 2.159619 1_455
Mo8 O0 2.209776 1_555
Mo8 O19 2.213724 1_556
Mo9 O9 2.098218 1_555
Mo9 O29 2.144810 1_655
Mo9 O21 2.159632 1_655
Mo9 O1 2.209796 1_545
Mo9 O18 2.213729 1_555
Mo10 O10 2.098212 1_555
Mo10 O30 2.144829 1_655
Mo10 O22 2.159619 1_655
Mo10 O2 2.209776 1_555
Mo10 O17 2.213729 1_554
Mo11 O11 2.098224 1_555
Mo11 O28 2.144815 1_455
Mo11 O23 2.159626 1_455
Mo11 O3 2.209790 1_565
Mo11 O16 2.213733 1_555
Mo12 O12 2.102061 1_555
Mo12 O4 2.124127 1_555
Mo12 O16 2.143455 1_555
Mo12 O3 2.180927 1_565
Mo12 O1 2.182373 1_555
Mo13 O5 2.088706 1_555
Mo13 O10 2.114844 1_555
Mo13 O26 2.184040 1_545
Mo13 O3 2.202400 1_555
Mo13 O18 2.209185 1_555
Mo14 O6 2.088713 1_555
Mo14 O9 2.114835 1_555
Mo14 O25 2.184049 1_555
Mo14 O0 2.202401 1_555
Mo14 O17 2.209190 1_555
Mo15 O7 2.088713 1_555
Mo15 O8 2.114838 1_555
Mo15 O24 2.184040 1_565
Mo15 O1 2.202400 1_555
Mo15 O16 2.209197 1_555
Mo16 O15 2.102046 1_556
Mo16 O7 2.124115 1_555
Mo16 O19 2.143470 1_556
Mo16 O0 2.180936 1_555
Mo16 O2 2.182373 1_556
Mo17 O14 2.102060 1_555
Mo17 O6 2.124122 1_555
Mo17 O18 2.143463 1_555
Mo17 O1 2.180933 1_545
Mo17 O3 2.182379 1_555
Mo18 O13 2.102041 1_554
Mo18 O5 2.124115 1_555
Mo18 O17 2.143470 1_554
Mo18 O2 2.180942 1_555
Mo18 O0 2.182379 1_554
Mo19 O4 2.088713 1_555
Mo19 O11 2.114835 1_555
Mo19 O27 2.184040 1_555
Mo19 O2 2.202401 1_555
Mo19 O19 2.209185 1_555
O16 Sn3 2.221006 1_555
O17 Sn2 2.221002 1_555
O18 Sn1 2.221011 1_555
O19 Sn0 2.221011 1_555
O24 Sn0 2.251404 1_546
O24 Sn2 2.349000 1_555
O25 Sn1 2.251414 1_555
O25 Sn3 2.349000 1_555
O26 Sn2 2.251404 1_564
O26 Sn0 2.349000 1_555
O27 Sn3 2.251426 1_555
O27 Sn1 2.349000 1_555
