# generated using pymatgen
data_Er3Cu11Si4
_symmetry_space_group_name_H-M   'P 1'
_cell_length_a   8.40485976
_cell_length_b   8.40485976
_cell_length_c   8.59423700
_cell_angle_alpha   90.00000000
_cell_angle_beta   90.00000000
_cell_angle_gamma   119.99999812
_symmetry_Int_Tables_number   1
_chemical_formula_structural   Er3Cu11Si4
_chemical_formula_sum   'Er6 Cu22 Si8'
_cell_volume   525.77376111
_cell_formula_units_Z   2
loop_
 _symmetry_equiv_pos_site_id
 _symmetry_equiv_pos_as_xyz
  1  'x, y, z'
loop_
 _atom_site_type_symbol
 _atom_site_label
 _atom_site_symmetry_multiplicity
 _atom_site_fract_x
 _atom_site_fract_y
 _atom_site_fract_z
 _atom_site_occupancy
  Er  Er0  1  0.80244200  0.19755800  0.75000000  1
  Er  Er1  1  0.19755800  0.80244200  0.25000000  1
  Er  Er2  1  0.39511500  0.19755800  0.75000000  1
  Er  Er3  1  0.60488500  0.80244200  0.25000000  1
  Er  Er4  1  0.80244200  0.60488500  0.75000000  1
  Er  Er5  1  0.19755800  0.39511500  0.25000000  1
  Cu  Cu0  1  0.84686400  0.15313600  0.41056600  1
  Cu  Cu1  1  0.15313600  0.84686400  0.58943400  1
  Cu  Cu2  1  0.30627100  0.15313600  0.41056600  1
  Cu  Cu3  1  0.15313600  0.84686400  0.91056600  1
  Cu  Cu4  1  0.69372900  0.84686400  0.58943400  1
  Cu  Cu5  1  0.84686400  0.15313600  0.08943400  1
  Cu  Cu6  1  0.84686400  0.69372900  0.41056600  1
  Cu  Cu7  1  0.69372900  0.84686400  0.91056600  1
  Cu  Cu8  1  0.15313600  0.30627100  0.58943400  1
  Cu  Cu9  1  0.30627100  0.15313600  0.08943400  1
  Cu  Cu10  1  0.15313600  0.30627100  0.91056600  1
  Cu  Cu11  1  0.84686400  0.69372900  0.08943400  1
  Cu  Cu12  1  0.43502700  0.56497300  0.75000000  1
  Cu  Cu13  1  0.56497300  0.43502700  0.25000000  1
  Cu  Cu14  1  0.12994600  0.56497300  0.75000000  1
  Cu  Cu15  1  0.87005400  0.43502700  0.25000000  1
  Cu  Cu16  1  0.43502700  0.87005400  0.75000000  1
  Cu  Cu17  1  0.56497300  0.12994600  0.25000000  1
  Cu  Cu18  1  0.66666700  0.33333300  0.00483800  1
  Cu  Cu19  1  0.33333300  0.66666700  0.99516200  1
  Cu  Cu20  1  0.33333300  0.66666700  0.50483800  1
  Cu  Cu21  1  0.66666700  0.33333300  0.49516200  1
  Si  Si0  1  0.50000000  0.50000000  0.00000000  1
  Si  Si1  1  0.00000000  0.50000000  0.00000000  1
  Si  Si2  1  0.50000000  0.50000000  0.50000000  1
  Si  Si3  1  0.50000000  0.00000000  0.00000000  1
  Si  Si4  1  0.00000000  0.50000000  0.50000000  1
  Si  Si5  1  0.50000000  0.00000000  0.50000000  1
  Si  Si6  1  0.00000000  0.00000000  0.75000000  1
  Si  Si7  1  0.00000000  0.00000000  0.25000000  1
loop_
_geom_bond_atom_site_label_1
_geom_bond_atom_site_label_2
_geom_bond_distance
_geom_bond_site_symmetry_2
Er0 Si6 2.875979 1_655
Er0 Si3 3.100684 1_556
Er0 Si5 3.100684 1_555
Er0 Si1 3.100684 1_656
Er0 Si4 3.100684 1_655
Er1 Si7 2.875979 1_565
Er1 Si4 3.100684 1_555
Er1 Si1 3.100684 1_555
Er1 Si5 3.100684 1_565
Er1 Si3 3.100684 1_565
Er2 Si6 2.875972 1_555
Er2 Si2 3.100683 1_555
Er2 Si0 3.100683 1_556
Er2 Si3 3.100688 1_556
Er2 Si5 3.100688 1_555
Er3 Si7 2.875972 1_665
Er3 Si0 3.100683 1_555
Er3 Si2 3.100683 1_555
Er3 Si5 3.100688 1_565
Er3 Si3 3.100688 1_565
Er4 Si6 2.875972 1_665
Er4 Si0 3.100683 1_556
Er4 Si2 3.100683 1_555
Er4 Si4 3.100688 1_655
Er4 Si1 3.100688 1_656
Er5 Si7 2.875972 1_555
Er5 Si2 3.100683 1_555
Er5 Si0 3.100683 1_555
Er5 Si4 3.100688 1_555
Er5 Si1 3.100688 1_555
Cu0 Si7 2.621835 1_655
Cu0 Si5 2.644672 1_555
Cu0 Si4 2.644672 1_655
Cu0 Cu15 2.663420 1_555
Cu0 Cu17 2.663420 1_555
Cu0 Cu8 2.707926 1_655
Cu0 Cu4 2.707926 1_545
Cu0 Cu21 2.722130 1_555
Cu0 Cu5 2.759885 1_555
Cu0 Er5 2.955308 1_655
Cu0 Er3 2.955308 1_545
Cu0 Er0 2.987995 1_555
Cu1 Si6 2.621835 1_565
Cu1 Si4 2.644672 1_555
Cu1 Si5 2.644672 1_565
Cu1 Cu16 2.663420 1_555
Cu1 Cu14 2.663420 1_555
Cu1 Cu2 2.707926 1_565
Cu1 Cu6 2.707926 1_455
Cu1 Cu20 2.722130 1_555
Cu1 Cu3 2.759885 1_555
Cu1 Er2 2.955308 1_565
Cu1 Er4 2.955308 1_455
Cu1 Er1 2.987995 1_555
Cu2 Si7 2.621828 1_555
Cu2 Si2 2.644673 1_555
Cu2 Si5 2.644679 1_555
Cu2 Cu8 2.707914 1_555
Cu2 Cu21 2.722144 1_555
Cu2 Cu9 2.759885 1_555
Cu2 Er5 2.955297 1_555
Cu2 Er1 2.955311 1_545
Cu2 Er2 2.987995 1_555
Cu3 Si6 2.621835 1_565
Cu3 Si1 2.644672 1_556
Cu3 Si3 2.644672 1_566
Cu3 Cu9 2.707926 1_566
Cu3 Er2 2.955308 1_565
Cu3 Er4 2.955308 1_455
Cu3 Er1 2.987995 1_556
Cu4 Si6 2.621828 1_665
Cu4 Si2 2.644673 1_555
Cu4 Si5 2.644679 1_565
Cu4 Cu6 2.707914 1_555
Cu4 Cu7 2.759885 1_555
Cu4 Er4 2.955297 1_555
Cu4 Er0 2.955311 1_565
Cu4 Er3 2.987995 1_555
Cu5 Si7 2.621835 1_655
Cu5 Si3 2.644672 1_555
Cu5 Si1 2.644672 1_655
Cu5 Cu7 2.707926 1_544
Cu5 Er5 2.955308 1_655
Cu5 Er3 2.955308 1_545
Cu5 Er0 2.987995 1_554
Cu6 Si7 2.621828 1_665
Cu6 Si2 2.644673 1_555
Cu6 Si4 2.644679 1_655
Cu6 Er3 2.955297 1_555
Cu6 Er1 2.955311 1_655
Cu6 Er4 2.987995 1_555
Cu7 Si6 2.621828 1_665
Cu7 Si0 2.644673 1_556
Cu7 Si3 2.644679 1_566
Cu7 Er4 2.955297 1_555
Cu7 Er0 2.955311 1_565
Cu7 Er3 2.987995 1_556
Cu8 Si6 2.621828 1_555
Cu8 Si2 2.644673 1_555
Cu8 Si4 2.644679 1_555
Cu8 Er2 2.955297 1_555
Cu8 Er0 2.955311 1_455
Cu8 Er5 2.987995 1_555
Cu9 Si7 2.621828 1_555
Cu9 Si0 2.644673 1_555
Cu9 Si3 2.644679 1_555
Cu9 Er5 2.955297 1_555
Cu9 Er1 2.955311 1_545
Cu9 Er2 2.987995 1_554
Cu10 Si6 2.621828 1_555
Cu10 Si0 2.644673 1_556
Cu10 Si1 2.644679 1_556
Cu10 Cu12 2.663423 1_555
Cu10 Cu14 2.663427 1_555
Cu10 Cu9 2.707914 1_556
Cu10 Cu5 2.707926 1_456
Cu10 Cu19 2.722144 1_555
Cu10 Cu8 2.759885 1_555
Cu10 Er2 2.955297 1_555
Cu10 Er0 2.955311 1_455
Cu10 Er5 2.987995 1_556
Cu11 Si7 2.621828 1_665
Cu11 Si0 2.644673 1_555
Cu11 Si1 2.644679 1_655
Cu11 Cu13 2.663423 1_555
Cu11 Cu15 2.663427 1_555
Cu11 Cu7 2.707914 1_554
Cu11 Cu3 2.707926 1_654
Cu11 Cu18 2.722144 1_555
Cu11 Cu6 2.759885 1_555
Cu11 Er3 2.955297 1_555
Cu11 Er1 2.955311 1_655
Cu11 Er4 2.987995 1_554
Cu12 Si0 2.347540 1_556
Cu12 Si2 2.347540 1_555
Cu12 Cu14 2.564163 1_555
Cu12 Cu16 2.564163 1_555
Cu12 Cu19 2.575078 1_555
Cu12 Cu20 2.575078 1_555
Cu12 Cu7 2.663423 1_555
Cu12 Cu4 2.663423 1_555
Cu12 Cu8 2.663423 1_555
Cu12 Er4 2.934759 1_555
Cu12 Er2 2.934759 1_555
Cu13 Si2 2.347540 1_555
Cu13 Si0 2.347540 1_555
Cu13 Cu17 2.564163 1_555
Cu13 Cu15 2.564163 1_555
Cu13 Cu21 2.575078 1_555
Cu13 Cu18 2.575078 1_555
Cu13 Cu6 2.663423 1_555
Cu13 Cu2 2.663423 1_555
Cu13 Cu9 2.663423 1_555
Cu13 Er3 2.934759 1_555
Cu13 Er5 2.934759 1_555
Cu14 Si4 2.347540 1_555
Cu14 Si1 2.347540 1_556
Cu14 Cu16 2.564163 1_555
Cu14 Cu20 2.575073 1_555
Cu14 Cu19 2.575073 1_555
Cu14 Cu3 2.663420 1_555
Cu14 Cu8 2.663427 1_555
Cu14 Er0 2.934762 1_455
Cu14 Er4 2.934767 1_455
Cu15 Si4 2.347540 1_655
Cu15 Si1 2.347540 1_655
Cu15 Cu17 2.564163 1_555
Cu15 Cu21 2.575073 1_555
Cu15 Cu18 2.575073 1_555
Cu15 Cu5 2.663420 1_555
Cu15 Cu6 2.663427 1_555
Cu15 Er1 2.934762 1_655
Cu15 Er5 2.934767 1_655
Cu16 Si3 2.347540 1_566
Cu16 Si5 2.347540 1_565
Cu16 Cu19 2.575073 1_555
Cu16 Cu20 2.575073 1_555
Cu16 Cu3 2.663420 1_555
Cu16 Cu7 2.663427 1_555
Cu16 Cu4 2.663427 1_555
Cu16 Er0 2.934762 1_565
Cu16 Er2 2.934767 1_565
Cu17 Si3 2.347540 1_555
Cu17 Si5 2.347540 1_555
Cu17 Cu21 2.575073 1_555
Cu17 Cu18 2.575073 1_555
Cu17 Cu5 2.663420 1_555
Cu17 Cu9 2.663427 1_555
Cu17 Cu2 2.663427 1_555
Cu17 Er1 2.934762 1_545
Cu17 Er3 2.934767 1_545
Cu18 Si1 2.426628 1_655
Cu18 Si3 2.426628 1_555
Cu18 Si0 2.426635 1_555
Cu18 Cu5 2.722130 1_555
Cu18 Cu9 2.722144 1_555
Cu18 Er0 2.950171 1_554
Cu18 Er4 2.950181 1_554
Cu18 Er2 2.950181 1_554
Cu19 Si1 2.426628 1_556
Cu19 Si3 2.426628 1_566
Cu19 Si0 2.426635 1_556
Cu19 Cu3 2.722130 1_555
Cu19 Cu7 2.722144 1_555
Cu19 Er1 2.950171 1_556
Cu19 Er5 2.950181 1_556
Cu19 Er3 2.950181 1_556
Cu20 Si4 2.426628 1_555
Cu20 Si5 2.426628 1_565
Cu20 Si2 2.426635 1_555
Cu20 Cu4 2.722144 1_555
Cu20 Cu8 2.722144 1_555
Cu20 Er1 2.950171 1_555
Cu20 Er5 2.950181 1_555
Cu20 Er3 2.950181 1_555
Cu21 Si4 2.426628 1_655
Cu21 Si5 2.426628 1_555
Cu21 Si2 2.426635 1_555
Cu21 Cu6 2.722144 1_555
Cu21 Er0 2.950171 1_555
Cu21 Er4 2.950181 1_555
Cu21 Er2 2.950181 1_555
