# generated using pymatgen
data_Tb2Ni7
_symmetry_space_group_name_H-M   'P 1'
_cell_length_a   4.92425618
_cell_length_b   4.92425618
_cell_length_c   24.10803000
_cell_angle_alpha   90.00000000
_cell_angle_beta   90.00000000
_cell_angle_gamma   120.00000243
_symmetry_Int_Tables_number   1
_chemical_formula_structural   Tb2Ni7
_chemical_formula_sum   'Tb8 Ni28'
_cell_volume   506.26000810
_cell_formula_units_Z   4
loop_
 _symmetry_equiv_pos_site_id
 _symmetry_equiv_pos_as_xyz
  1  'x, y, z'
loop_
 _atom_site_type_symbol
 _atom_site_label
 _atom_site_symmetry_multiplicity
 _atom_site_fract_x
 _atom_site_fract_y
 _atom_site_fract_z
 _atom_site_occupancy
  Tb  Tb0  1  0.33333300  0.66666700  0.47036000  1
  Tb  Tb1  1  0.66666700  0.33333300  0.52964000  1
  Tb  Tb2  1  0.66666700  0.33333300  0.97036000  1
  Tb  Tb3  1  0.33333300  0.66666700  0.02964000  1
  Tb  Tb4  1  0.33333300  0.66666700  0.32580400  1
  Tb  Tb5  1  0.66666700  0.33333300  0.67419600  1
  Tb  Tb6  1  0.66666700  0.33333300  0.82580400  1
  Tb  Tb7  1  0.33333300  0.66666700  0.17419600  1
  Ni  Ni0  1  0.00000000  0.00000000  0.50000000  1
  Ni  Ni1  1  0.00000000  0.00000000  0.00000000  1
  Ni  Ni2  1  0.83310500  0.16689500  0.25000000  1
  Ni  Ni3  1  0.83310500  0.66621100  0.25000000  1
  Ni  Ni4  1  0.33378900  0.16689500  0.25000000  1
  Ni  Ni5  1  0.16689500  0.83310500  0.75000000  1
  Ni  Ni6  1  0.16689500  0.33378900  0.75000000  1
  Ni  Ni7  1  0.66621100  0.83310500  0.75000000  1
  Ni  Ni8  1  0.83315600  0.16684400  0.41394000  1
  Ni  Ni9  1  0.83315600  0.66631300  0.41394000  1
  Ni  Ni10  1  0.33368700  0.16684400  0.41394000  1
  Ni  Ni11  1  0.16684400  0.83315600  0.58606000  1
  Ni  Ni12  1  0.16684400  0.33368700  0.58606000  1
  Ni  Ni13  1  0.66631300  0.83315600  0.58606000  1
  Ni  Ni14  1  0.16684400  0.83315600  0.91394000  1
  Ni  Ni15  1  0.16684400  0.33368700  0.91394000  1
  Ni  Ni16  1  0.66631300  0.83315600  0.91394000  1
  Ni  Ni17  1  0.83315600  0.16684400  0.08606000  1
  Ni  Ni18  1  0.83315600  0.66631300  0.08606000  1
  Ni  Ni19  1  0.33368700  0.16684400  0.08606000  1
  Ni  Ni20  1  0.00000000  0.00000000  0.33194400  1
  Ni  Ni21  1  0.00000000  0.00000000  0.66805600  1
  Ni  Ni22  1  0.00000000  0.00000000  0.83194400  1
  Ni  Ni23  1  0.00000000  0.00000000  0.16805600  1
  Ni  Ni24  1  0.33333300  0.66666700  0.66759600  1
  Ni  Ni25  1  0.66666700  0.33333300  0.33240400  1
  Ni  Ni26  1  0.66666700  0.33333300  0.16759600  1
  Ni  Ni27  1  0.33333300  0.66666700  0.83240400  1
loop_
_geom_bond_atom_site_label_1
_geom_bond_atom_site_label_2
_geom_bond_distance
_geom_bond_site_symmetry_2
Ni0 Ni10 2.515853 1_555
Ni0 Ni12 2.515853 1_555
Ni0 Ni9 2.515853 1_445
Ni0 Ni13 2.515853 1_445
Ni0 Ni8 2.515855 1_455
Ni0 Ni11 2.515855 1_545
Ni0 Tb0 2.931441 1_545
Ni0 Tb1 2.931441 1_455
Ni0 Tb0 2.931446 1_555
Ni0 Tb0 2.931446 1_445
Ni0 Tb1 2.931446 1_555
Ni0 Tb1 2.931446 1_445
Ni1 Ni15 2.515853 1_554
Ni1 Ni19 2.515853 1_555
Ni1 Ni16 2.515853 1_444
Ni1 Ni18 2.515853 1_445
Ni1 Ni14 2.515855 1_544
Ni1 Ni17 2.515855 1_455
Ni1 Tb2 2.931441 1_454
Ni1 Tb3 2.931441 1_545
Ni1 Tb2 2.931446 1_444
Ni1 Tb2 2.931446 1_554
Ni1 Tb3 2.931446 1_555
Ni1 Tb3 2.931446 1_445
Ni2 Ni20 2.434926 1_655
Ni2 Ni23 2.434926 1_655
Ni2 Ni25 2.441664 1_555
Ni2 Ni26 2.441664 1_555
Ni2 Ni3 2.458760 1_555
Ni2 Ni4 2.458760 1_555
Ni2 Ni4 2.465496 1_655
Ni2 Ni3 2.465496 1_545
Ni2 Tb4 3.066232 1_655
Ni2 Tb4 3.066232 1_545
Ni2 Tb7 3.066232 1_545
Ni2 Tb7 3.066232 1_655
Ni3 Ni4 2.458760 1_555
Ni3 Ni4 2.465496 1_665
Ni3 Tb4 3.066232 1_655
Ni3 Tb7 3.066232 1_655
Ni3 Tb4 3.066232 1_555
Ni3 Tb7 3.066232 1_555
Ni4 Tb4 3.066232 1_545
Ni4 Tb7 3.066232 1_545
Ni4 Tb4 3.066232 1_555
Ni4 Tb7 3.066232 1_555
Ni5 Ni6 2.458760 1_555
Ni5 Ni7 2.458760 1_555
Ni5 Ni6 2.465496 1_565
Ni5 Ni7 2.465496 1_455
Ni5 Tb6 3.066232 1_455
Ni5 Tb5 3.066232 1_455
Ni5 Tb6 3.066232 1_565
Ni5 Tb5 3.066232 1_565
Ni6 Ni7 2.458760 1_555
Ni6 Ni7 2.465496 1_445
Ni6 Tb5 3.066232 1_455
Ni6 Tb6 3.066232 1_455
Ni6 Tb6 3.066232 1_555
Ni6 Tb5 3.066232 1_555
Ni7 Tb6 3.066232 1_565
Ni7 Tb5 3.066232 1_565
Ni7 Tb5 3.066232 1_555
Ni7 Tb6 3.066232 1_555
Ni8 Ni9 2.459513 1_555
Ni8 Ni9 2.464743 1_545
Ni8 Tb0 2.812855 1_545
Ni8 Tb0 2.812855 1_655
Ni8 Tb1 3.129948 1_555
Ni8 Tb4 3.252198 1_545
Ni8 Tb4 3.252198 1_655
Ni9 Tb0 2.812855 1_655
Ni9 Tb0 2.812855 1_555
Ni9 Tb1 3.129952 1_555
Ni9 Tb4 3.252198 1_655
Ni9 Tb4 3.252198 1_555
Ni10 Ni25 2.424928 1_555
Ni10 Ni20 2.435687 1_555
Ni10 Ni9 2.459513 1_555
Ni10 Ni8 2.459513 1_555
Ni10 Ni9 2.464743 1_445
Ni10 Ni8 2.464743 1_455
Ni10 Tb0 2.812855 1_545
Ni10 Tb0 2.812855 1_555
Ni10 Tb1 3.129952 1_555
Ni10 Tb4 3.252198 1_545
Ni10 Tb4 3.252198 1_555
Ni11 Ni24 2.424923 1_555
Ni11 Ni21 2.435689 1_565
Ni11 Ni13 2.459513 1_555
Ni11 Ni12 2.459513 1_555
Ni11 Ni12 2.464743 1_565
Ni11 Ni13 2.464743 1_455
Ni11 Tb1 2.812855 1_455
Ni11 Tb1 2.812855 1_565
Ni11 Tb0 3.129948 1_555
Ni11 Tb5 3.252198 1_455
Ni11 Tb5 3.252198 1_565
Ni12 Ni24 2.424928 1_555
Ni12 Ni21 2.435687 1_555
Ni12 Ni13 2.459513 1_555
Ni12 Ni13 2.464743 1_445
Ni12 Tb1 2.812855 1_455
Ni12 Tb1 2.812855 1_555
Ni12 Tb0 3.129952 1_555
Ni12 Tb5 3.252198 1_455
Ni12 Tb5 3.252198 1_555
Ni13 Ni24 2.424928 1_555
Ni13 Ni21 2.435687 1_665
Ni13 Tb1 2.812855 1_565
Ni13 Tb1 2.812855 1_555
Ni13 Tb0 3.129952 1_555
Ni13 Tb5 3.252198 1_565
Ni13 Tb5 3.252198 1_555
Ni14 Ni27 2.424923 1_555
Ni14 Ni22 2.435689 1_565
Ni14 Ni16 2.459513 1_555
Ni14 Ni15 2.459513 1_555
Ni14 Ni15 2.464743 1_565
Ni14 Ni16 2.464743 1_455
Ni14 Tb2 2.812855 1_565
Ni14 Tb2 2.812855 1_455
Ni14 Tb3 3.129948 1_556
Ni14 Tb6 3.252198 1_455
Ni14 Tb6 3.252198 1_565
Ni15 Ni27 2.424928 1_555
Ni15 Ni22 2.435687 1_555
Ni15 Ni16 2.459513 1_555
Ni15 Ni16 2.464743 1_445
Ni15 Tb2 2.812855 1_455
Ni15 Tb2 2.812855 1_555
Ni15 Tb3 3.129952 1_556
Ni15 Tb6 3.252198 1_455
Ni15 Tb6 3.252198 1_555
Ni16 Ni27 2.424928 1_555
Ni16 Ni22 2.435687 1_665
Ni16 Tb2 2.812855 1_565
Ni16 Tb2 2.812855 1_555
Ni16 Tb3 3.129952 1_556
Ni16 Tb6 3.252198 1_565
Ni16 Tb6 3.252198 1_555
Ni17 Ni26 2.424923 1_555
Ni17 Ni23 2.435689 1_655
Ni17 Ni18 2.459513 1_555
Ni17 Ni19 2.459513 1_555
Ni17 Ni19 2.464743 1_655
Ni17 Ni18 2.464743 1_545
Ni17 Tb3 2.812855 1_545
Ni17 Tb3 2.812855 1_655
Ni17 Tb2 3.129948 1_554
Ni17 Tb7 3.252198 1_545
Ni17 Tb7 3.252198 1_655
Ni18 Ni26 2.424928 1_555
Ni18 Ni23 2.435687 1_665
Ni18 Ni19 2.459513 1_555
Ni18 Ni19 2.464743 1_665
Ni18 Tb3 2.812855 1_655
Ni18 Tb3 2.812855 1_555
Ni18 Tb2 3.129952 1_554
Ni18 Tb7 3.252198 1_655
Ni18 Tb7 3.252198 1_555
Ni19 Ni26 2.424928 1_555
Ni19 Ni23 2.435687 1_555
Ni19 Tb3 2.812855 1_545
Ni19 Tb3 2.812855 1_555
Ni19 Tb2 3.129952 1_554
Ni19 Tb7 3.252198 1_545
Ni19 Tb7 3.252198 1_555
Ni20 Ni3 2.434924 1_445
Ni20 Ni4 2.434924 1_555
Ni20 Ni9 2.435687 1_445
Ni20 Ni8 2.435689 1_455
Ni20 Tb4 2.846869 1_545
Ni20 Tb4 2.846873 1_555
Ni20 Tb4 2.846873 1_445
Ni21 Ni6 2.434924 1_555
Ni21 Ni7 2.434924 1_445
Ni21 Ni5 2.434926 1_545
Ni21 Tb5 2.846869 1_455
Ni21 Tb5 2.846873 1_555
Ni21 Tb5 2.846873 1_445
Ni22 Ni6 2.434924 1_555
Ni22 Ni7 2.434924 1_445
Ni22 Ni5 2.434926 1_545
Ni22 Tb6 2.846869 1_455
Ni22 Tb6 2.846873 1_445
Ni22 Tb6 2.846873 1_555
Ni23 Ni4 2.434924 1_555
Ni23 Ni3 2.434924 1_445
Ni23 Tb7 2.846869 1_545
Ni23 Tb7 2.846873 1_445
Ni23 Tb7 2.846873 1_555
Ni24 Ni5 2.441664 1_555
Ni24 Ni6 2.441669 1_555
Ni24 Ni7 2.441669 1_555
Ni24 Tb5 2.847467 1_455
Ni24 Tb5 2.847467 1_565
Ni24 Tb5 2.847475 1_555
Ni25 Ni8 2.424923 1_555
Ni25 Ni9 2.424928 1_555
Ni25 Ni4 2.441669 1_555
Ni25 Ni3 2.441669 1_555
Ni25 Tb4 2.847467 1_545
Ni25 Tb4 2.847467 1_655
Ni25 Tb4 2.847475 1_555
Ni26 Ni3 2.441669 1_555
Ni26 Ni4 2.441669 1_555
Ni26 Tb7 2.847467 1_545
Ni26 Tb7 2.847467 1_655
Ni26 Tb7 2.847475 1_555
Ni27 Ni5 2.441664 1_555
Ni27 Ni6 2.441669 1_555
Ni27 Ni7 2.441669 1_555
Ni27 Tb6 2.847467 1_455
Ni27 Tb6 2.847467 1_565
Ni27 Tb6 2.847475 1_555
