# generated using pymatgen
data_Na3Li3Cr2F12
_symmetry_space_group_name_H-M   'P 1'
_cell_length_a   10.87669883
_cell_length_b   10.87669883
_cell_length_c   10.87669883
_cell_angle_alpha   109.47122063
_cell_angle_beta   109.47122063
_cell_angle_gamma   109.47122063
_symmetry_Int_Tables_number   1
_chemical_formula_structural   Na3Li3Cr2F12
_chemical_formula_sum   'Na12 Li12 Cr8 F48'
_cell_volume   990.53407409
_cell_formula_units_Z   4
loop_
 _symmetry_equiv_pos_site_id
 _symmetry_equiv_pos_as_xyz
  1  'x, y, z'
loop_
 _atom_site_type_symbol
 _atom_site_label
 _atom_site_symmetry_multiplicity
 _atom_site_fract_x
 _atom_site_fract_y
 _atom_site_fract_z
 _atom_site_occupancy
  Na  Na0  1  0.62500000  0.87500000  0.75000000  1
  Na  Na1  1  0.87500000  0.62500000  0.25000000  1
  Na  Na2  1  0.62500000  0.25000000  0.87500000  1
  Na  Na3  1  0.25000000  0.87500000  0.62500000  1
  Na  Na4  1  0.75000000  0.62500000  0.87500000  1
  Na  Na5  1  0.87500000  0.75000000  0.62500000  1
  Na  Na6  1  0.37500000  0.12500000  0.25000000  1
  Na  Na7  1  0.12500000  0.37500000  0.75000000  1
  Na  Na8  1  0.37500000  0.75000000  0.12500000  1
  Na  Na9  1  0.75000000  0.12500000  0.37500000  1
  Na  Na10  1  0.12500000  0.25000000  0.37500000  1
  Na  Na11  1  0.25000000  0.37500000  0.12500000  1
  Li  Li0  1  0.25000000  0.62500000  0.37500000  1
  Li  Li1  1  0.87500000  0.25000000  0.12500000  1
  Li  Li2  1  0.12500000  0.75000000  0.87500000  1
  Li  Li3  1  0.87500000  0.12500000  0.75000000  1
  Li  Li4  1  0.62500000  0.37500000  0.25000000  1
  Li  Li5  1  0.75000000  0.87500000  0.12500000  1
  Li  Li6  1  0.12500000  0.87500000  0.25000000  1
  Li  Li7  1  0.37500000  0.62500000  0.75000000  1
  Li  Li8  1  0.62500000  0.75000000  0.37500000  1
  Li  Li9  1  0.75000000  0.37500000  0.62500000  1
  Li  Li10  1  0.25000000  0.12500000  0.87500000  1
  Li  Li11  1  0.37500000  0.25000000  0.62500000  1
  Cr  Cr0  1  0.50000000  0.50000000  0.50000000  1
  Cr  Cr1  1  0.50000000  0.50000000  0.00000000  1
  Cr  Cr2  1  0.50000000  0.00000000  0.50000000  1
  Cr  Cr3  1  0.00000000  0.50000000  0.50000000  1
  Cr  Cr4  1  0.50000000  0.00000000  0.00000000  1
  Cr  Cr5  1  0.00000000  0.00000000  0.50000000  1
  Cr  Cr6  1  0.00000000  0.50000000  0.00000000  1
  Cr  Cr7  1  0.00000000  0.00000000  0.00000000  1
  F  F0  1  0.80742400  0.42361400  0.82584600  1
  F  F1  1  0.51842200  0.40223200  0.82584600  1
  F  F2  1  0.67415400  0.07638600  0.69257600  1
  F  F3  1  0.42361400  0.09776800  0.61619000  1
  F  F4  1  0.82584600  0.51842200  0.40223200  1
  F  F5  1  0.40223200  0.07638600  0.88381000  1
  F  F6  1  0.09776800  0.98157800  0.67415400  1
  F  F7  1  0.42361400  0.82584600  0.80742400  1
  F  F8  1  0.07638600  0.69257600  0.67415400  1
  F  F9  1  0.98157800  0.80742400  0.88381000  1
  F  F10  1  0.88381000  0.98157800  0.80742400  1
  F  F11  1  0.40223200  0.82584600  0.51842200  1
  F  F12  1  0.61619000  0.69257600  0.51842200  1
  F  F13  1  0.09776800  0.61619000  0.42361400  1
  F  F14  1  0.51842200  0.61619000  0.69257600  1
  F  F15  1  0.69257600  0.67415400  0.07638600  1
  F  F16  1  0.69257600  0.51842200  0.61619000  1
  F  F17  1  0.61619000  0.42361400  0.09776800  1
  F  F18  1  0.67415400  0.09776800  0.98157800  1
  F  F19  1  0.07638600  0.88381000  0.40223200  1
  F  F20  1  0.19257600  0.11619000  0.01842200  1
  F  F21  1  0.11619000  0.59776800  0.92361400  1
  F  F22  1  0.17415400  0.19257600  0.57638600  1
  F  F23  1  0.57638600  0.17415400  0.19257600  1
  F  F24  1  0.01842200  0.32584600  0.90223200  1
  F  F25  1  0.90223200  0.01842200  0.32584600  1
  F  F26  1  0.59776800  0.92361400  0.11619000  1
  F  F27  1  0.17415400  0.48157800  0.59776800  1
  F  F28  1  0.57638600  0.90223200  0.38381000  1
  F  F29  1  0.32584600  0.92361400  0.30742400  1
  F  F30  1  0.48157800  0.59776800  0.17415400  1
  F  F31  1  0.38381000  0.57638600  0.90223200  1
  F  F32  1  0.92361400  0.30742400  0.32584600  1
  F  F33  1  0.01842200  0.19257600  0.11619000  1
  F  F34  1  0.11619000  0.01842200  0.19257600  1
  F  F35  1  0.59776800  0.17415400  0.48157800  1
  F  F36  1  0.38381000  0.30742400  0.48157800  1
  F  F37  1  0.90223200  0.38381000  0.57638600  1
  F  F38  1  0.48157800  0.38381000  0.30742400  1
  F  F39  1  0.30742400  0.32584600  0.92361400  1
  F  F40  1  0.30742400  0.48157800  0.38381000  1
  F  F41  1  0.32584600  0.90223200  0.01842200  1
  F  F42  1  0.92361400  0.11619000  0.59776800  1
  F  F43  1  0.19257600  0.57638600  0.17415400  1
  F  F44  1  0.80742400  0.88381000  0.98157800  1
  F  F45  1  0.88381000  0.40223200  0.07638600  1
  F  F46  1  0.82584600  0.80742400  0.42361400  1
  F  F47  1  0.98157800  0.67415400  0.09776800  1
loop_
_geom_bond_atom_site_label_1
_geom_bond_atom_site_label_2
_geom_bond_distance
_geom_bond_site_symmetry_2
Cr0 F14 1.952239 1_555
Cr0 F12 1.952239 1_555
Cr0 F16 1.952239 1_555
Cr0 F36 1.952239 1_555
Cr0 F40 1.952239 1_555
Cr0 F38 1.952239 1_555
Cr1 F31 1.952239 1_554
Cr1 F30 1.952239 1_555
Cr1 F15 1.952239 1_555
Cr1 F17 1.952239 1_555
Cr1 F39 1.952239 1_554
Cr1 F1 1.952239 1_554
Cr2 F28 1.952239 1_545
Cr2 F35 1.952239 1_555
Cr2 F2 1.952239 1_555
Cr2 F3 1.952239 1_555
Cr2 F29 1.952239 1_545
Cr2 F11 1.952239 1_545
Cr3 F37 1.952239 1_455
Cr3 F8 1.952239 1_555
Cr3 F27 1.952239 1_555
Cr3 F13 1.952239 1_555
Cr3 F32 1.952239 1_455
Cr3 F4 1.952239 1_455
Cr4 F26 1.952239 1_545
Cr4 F7 1.952239 1_544
Cr4 F23 1.952239 1_555
Cr4 F41 1.952239 1_545
Cr4 F5 1.952239 1_554
Cr4 F18 1.952239 1_554
Cr5 F42 1.952239 1_455
Cr5 F25 1.952239 1_455
Cr5 F46 1.952239 1_445
Cr5 F19 1.952239 1_545
Cr5 F22 1.952239 1_555
Cr5 F6 1.952239 1_545
Cr6 F21 1.952239 1_554
Cr6 F0 1.952239 1_454
Cr6 F24 1.952239 1_554
Cr6 F43 1.952239 1_555
Cr6 F45 1.952239 1_455
Cr6 F47 1.952239 1_455
Cr7 F9 1.952239 1_444
Cr7 F44 1.952239 1_444
Cr7 F10 1.952239 1_444
Cr7 F20 1.952239 1_555
Cr7 F33 1.952239 1_555
Cr7 F34 1.952239 1_555
F0 Li9 1.882036 1_555
F0 Na4 2.414088 1_555
F0 Na2 2.582829 1_555
F1 Li11 1.882036 1_555
F1 Na2 2.414088 1_555
F1 Na4 2.582829 1_555
F2 Li3 1.882036 1_555
F2 Na0 2.414088 1_545
F2 Na2 2.582829 1_555
F3 Li11 1.882036 1_555
F3 Na2 2.414088 1_555
F3 Na3 2.582829 1_545
F4 Li4 1.882036 1_555
F4 Na1 2.414088 1_555
F4 Na5 2.582829 1_555
F5 Li10 1.882036 1_555
F5 Na3 2.414088 1_545
F5 Na2 2.582829 1_555
F6 Li10 1.882036 1_565
F6 Na3 2.414088 1_555
F6 Na5 2.582829 1_455
F7 Li7 1.882036 1_555
F7 Na0 2.414088 1_555
F7 Na3 2.582829 1_555
F8 Li2 1.882036 1_555
F8 Na5 2.414088 1_455
F8 Na3 2.582829 1_555
F9 Li2 1.882036 1_655
F9 Na5 2.414088 1_555
F9 Na4 2.582829 1_555
F10 Li3 1.882036 1_565
F10 Na0 2.414088 1_555
F10 Na5 2.582829 1_555
F11 Li0 1.882036 1_555
F11 Na3 2.414088 1_555
F11 Na0 2.582829 1_555
F12 Li8 1.882036 1_555
F12 Na5 2.414088 1_555
F12 Na0 2.582829 1_555
F13 Li0 1.882036 1_555
F13 Na3 2.414088 1_555
F13 Na1 2.582829 1_455
F14 Li7 1.882036 1_555
F14 Na0 2.414088 1_555
F14 Na4 2.582829 1_555
F15 Li5 1.882036 1_555
F15 Na4 2.414088 1_554
F15 Na1 2.582829 1_555
F16 Li9 1.882036 1_555
F16 Na4 2.414088 1_555
F16 Na5 2.582829 1_555
F17 Li4 1.882036 1_555
F17 Na1 2.414088 1_555
F17 Na2 2.582829 1_554
F18 Li1 1.882036 1_556
F18 Na2 2.414088 1_555
F18 Na0 2.582829 1_545
F19 Li6 1.882036 1_555
F19 Na1 2.414088 1_455
F19 Na3 2.582829 1_555
F20 Li10 1.882036 1_554
F20 Na11 2.414088 1_555
F20 Na6 2.582829 1_555
F21 Li2 1.882036 1_555
F21 Na8 2.414088 1_556
F21 Na7 2.582829 1_555
F22 Li11 1.882036 1_555
F22 Na10 2.414088 1_555
F22 Na7 2.582829 1_555
F23 Li4 1.882036 1_555
F23 Na6 2.414088 1_555
F23 Na9 2.582829 1_555
F24 Li3 1.882036 1_455
F24 Na7 2.414088 1_555
F24 Na11 2.582829 1_556
F25 Li5 1.882036 1_545
F25 Na9 2.414088 1_555
F25 Na10 2.582829 1_655
F26 Li5 1.882036 1_555
F26 Na9 2.414088 1_565
F26 Na8 2.582829 1_555
F27 Li7 1.882036 1_555
F27 Na7 2.414088 1_555
F27 Na10 2.582829 1_555
F28 Li8 1.882036 1_555
F28 Na8 2.414088 1_555
F28 Na9 2.582829 1_565
F29 Li6 1.882036 1_555
F29 Na6 2.414088 1_565
F29 Na8 2.582829 1_555
F30 Li8 1.882036 1_555
F30 Na8 2.414088 1_555
F30 Na11 2.582829 1_555
F31 Li7 1.882036 1_555
F31 Na7 2.414088 1_555
F31 Na8 2.582829 1_556
F32 Li1 1.882036 1_555
F32 Na10 2.414088 1_655
F32 Na9 2.582829 1_555
F33 Li1 1.882036 1_455
F33 Na10 2.414088 1_555
F33 Na11 2.582829 1_555
F34 Li6 1.882036 1_545
F34 Na6 2.414088 1_555
F34 Na10 2.582829 1_555
F35 Li9 1.882036 1_555
F35 Na9 2.414088 1_555
F35 Na6 2.582829 1_555
F36 Li11 1.882036 1_555
F36 Na10 2.414088 1_555
F36 Na6 2.582829 1_555
F37 Li9 1.882036 1_555
F37 Na9 2.414088 1_555
F37 Na7 2.582829 1_655
F38 Li4 1.882036 1_555
F38 Na6 2.414088 1_555
F38 Na11 2.582829 1_555
F39 Li10 1.882036 1_555
F39 Na11 2.414088 1_556
F39 Na7 2.582829 1_555
F40 Li0 1.882036 1_555
F40 Na11 2.414088 1_555
F40 Na10 2.582829 1_555
F41 Li2 1.882036 1_554
F41 Na8 2.414088 1_555
F41 Na6 2.582829 1_565
F42 Li3 1.882036 1_555
F42 Na7 2.414088 1_655
F42 Na9 2.582829 1_555
F43 Li0 1.882036 1_555
F43 Na11 2.414088 1_555
F43 Na8 2.582829 1_555
F44 Li5 1.882036 1_556
F44 Na4 2.414088 1_555
F44 Na0 2.582829 1_555
F45 Li1 1.882036 1_555
F45 Na2 2.414088 1_554
F45 Na1 2.582829 1_555
F46 Li8 1.882036 1_555
F46 Na5 2.414088 1_555
F46 Na1 2.582829 1_555
F47 Li6 1.882036 1_655
F47 Na1 2.414088 1_555
F47 Na4 2.582829 1_554
