# generated using pymatgen
data_Tb4FeSn8
_symmetry_space_group_name_H-M   'P 1'
_cell_length_a   4.43016000
_cell_length_b   4.46804200
_cell_length_c   16.71724100
_cell_angle_alpha   90.00000000
_cell_angle_beta   90.00000000
_cell_angle_gamma   90.00000000
_symmetry_Int_Tables_number   1
_chemical_formula_structural   Tb4FeSn8
_chemical_formula_sum   'Tb4 Fe1 Sn8'
_cell_volume   330.90342459
_cell_formula_units_Z   1
loop_
 _symmetry_equiv_pos_site_id
 _symmetry_equiv_pos_as_xyz
  1  'x, y, z'
loop_
 _atom_site_type_symbol
 _atom_site_label
 _atom_site_symmetry_multiplicity
 _atom_site_fract_x
 _atom_site_fract_y
 _atom_site_fract_z
 _atom_site_occupancy
  Tb  Tb0  1  0.00000000  0.00000000  0.09601500  1
  Tb  Tb1  1  0.00000000  0.50000000  0.60319700  1
  Tb  Tb2  1  0.50000000  0.50000000  0.39462500  1
  Tb  Tb3  1  0.50000000  0.00000000  0.90037900  1
  Fe  Fe0  1  0.00000000  0.00000000  0.30635400  1
  Sn  Sn0  1  0.00000000  0.00000000  0.45551000  1
  Sn  Sn1  1  0.00000000  0.50000000  0.93558300  1
  Sn  Sn2  1  0.50000000  0.50000000  0.06139400  1
  Sn  Sn3  1  0.50000000  0.00000000  0.57429300  1
  Sn  Sn4  1  0.00000000  0.50000000  0.23603800  1
  Sn  Sn5  1  0.00000000  0.00000000  0.75037200  1
  Sn  Sn6  1  0.50000000  0.00000000  0.23633700  1
  Sn  Sn7  1  0.50000000  0.50000000  0.75290400  1
loop_
_geom_bond_atom_site_label_1
_geom_bond_atom_site_label_2
_geom_bond_distance
_geom_bond_site_symmetry_2
Fe0 Sn0 2.493477 1_555
Fe0 Sn6 2.505320 1_455
Fe0 Sn6 2.505320 1_555
Fe0 Sn4 2.524406 1_545
Fe0 Sn4 2.524406 1_555
Fe0 Tb2 3.474905 1_455
Fe0 Tb2 3.474905 1_555
Fe0 Tb2 3.474905 1_445
Fe0 Tb2 3.474905 1_545
Sn0 Sn3 2.974841 1_455
Sn0 Sn3 2.974841 1_555
Sn0 Tb2 3.306570 1_445
Sn0 Tb2 3.306570 1_545
Sn0 Tb2 3.306570 1_555
Sn0 Tb2 3.306570 1_455
Sn0 Tb1 3.329626 1_545
Sn0 Tb1 3.329626 1_555
Sn1 Sn2 3.054519 1_456
Sn1 Sn2 3.054519 1_556
Sn1 Tb3 3.200590 1_565
Sn1 Tb3 3.200590 1_455
Sn1 Tb3 3.200590 1_465
Sn1 Tb3 3.200590 1_555
Sn1 Tb0 3.490540 1_566
Sn1 Tb0 3.490540 1_556
Sn2 Tb0 3.198812 1_555
Sn2 Tb0 3.198812 1_565
Sn2 Tb0 3.198812 1_665
Sn2 Tb0 3.198812 1_655
Sn2 Tb3 3.498034 1_554
Sn2 Tb3 3.498034 1_564
Sn3 Tb1 3.182909 1_655
Sn3 Tb1 3.182909 1_545
Sn3 Tb1 3.182909 1_645
Sn3 Tb1 3.182909 1_555
Sn3 Tb2 3.743285 1_545
Sn3 Tb2 3.743285 1_555
Sn4 Sn6 3.146022 1_455
Sn4 Sn6 3.146022 1_555
Sn4 Sn6 3.146022 1_465
Sn4 Sn6 3.146022 1_565
Sn4 Tb0 3.235767 1_565
Sn4 Tb0 3.235767 1_555
Sn4 Tb2 3.454722 1_555
Sn4 Tb2 3.454722 1_455
Sn5 Sn7 3.146303 1_555
Sn5 Sn7 3.146303 1_445
Sn5 Sn7 3.146303 1_545
Sn5 Sn7 3.146303 1_455
Sn5 Tb1 3.323285 1_545
Sn5 Tb1 3.323285 1_555
Sn5 Tb3 3.345916 1_455
Sn5 Tb3 3.345916 1_555
Sn6 Tb0 3.226351 1_655
Sn6 Tb0 3.226351 1_555
Sn6 Tb2 3.463077 1_555
Sn6 Tb2 3.463077 1_545
Sn7 Tb3 3.326999 1_555
Sn7 Tb3 3.326999 1_565
Sn7 Tb1 3.342159 1_655
Sn7 Tb1 3.342159 1_555
