# generated using pymatgen
data_Ca10P6CO27
_symmetry_space_group_name_H-M   'P 1'
_cell_length_a   6.93522400
_cell_length_b   9.47427038
_cell_length_c   9.67028869
_cell_angle_alpha   118.07347575
_cell_angle_beta   89.76928854
_cell_angle_gamma   90.90673552
_symmetry_Int_Tables_number   1
_chemical_formula_structural   Ca10P6CO27
_chemical_formula_sum   'Ca10 P6 C1 O27'
_cell_volume   560.56554010
_cell_formula_units_Z   1
loop_
 _symmetry_equiv_pos_site_id
 _symmetry_equiv_pos_as_xyz
  1  'x, y, z'
loop_
 _atom_site_type_symbol
 _atom_site_label
 _atom_site_symmetry_multiplicity
 _atom_site_fract_x
 _atom_site_fract_y
 _atom_site_fract_z
 _atom_site_occupancy
  Ca  Ca0  1  0.02234200  0.33729500  0.68288000  1
  Ca  Ca1  1  0.49078100  0.67705400  0.34406000  1
  Ca  Ca2  1  0.98966200  0.67813400  0.32035400  1
  Ca  Ca3  1  0.51643100  0.32985100  0.66048500  1
  Ca  Ca4  1  0.24194200  0.01997600  0.25163800  1
  Ca  Ca5  1  0.76386200  0.98117000  0.72445400  1
  Ca  Ca6  1  0.25178700  0.72001400  0.72343100  1
  Ca  Ca7  1  0.25857400  0.24664000  0.99419000  1
  Ca  Ca8  1  0.75808200  0.74285300  0.99862000  1
  Ca  Ca9  1  0.76407300  0.28437200  0.26789200  1
  P  P0  1  0.25615600  0.63707300  0.03522500  1
  P  P1  1  0.76099300  0.35746900  0.96664700  1
  P  P2  1  0.25285500  0.97122500  0.59831900  1
  P  P3  1  0.25685300  0.40649400  0.38002200  1
  P  P4  1  0.76027000  0.59570100  0.62701100  1
  P  P5  1  0.74585900  0.02751500  0.39412400  1
  C  C0  1  0.48948800  0.00410600  0.00132400  1
  O  O0  1  0.25556900  0.52564800  0.85516600  1
  O  O1  1  0.76364100  0.46895100  0.14749700  1
  O  O2  1  0.26691300  0.15750900  0.68123500  1
  O  O3  1  0.25197300  0.34266100  0.50237800  1
  O  O4  1  0.75867600  0.67195700  0.51522200  1
  O  O5  1  0.73747900  0.84185600  0.32731600  1
  O  O6  1  0.25024400  0.53519600  0.12483400  1
  O  O7  1  0.77362600  0.45929900  0.87789100  1
  O  O8  1  0.21580400  0.89739400  0.41731800  1
  O  O9  1  0.17803000  0.58022800  0.45370900  1
  O  O10  1  0.80309800  0.41183200  0.53689600  1
  O  O11  1  0.81628300  0.11035200  0.56926200  1
  O  O12  1  0.07599500  0.74680400  0.08919200  1
  O  O13  1  0.57561300  0.25222400  0.90635200  1
  O  O14  1  0.08808000  0.91736100  0.67180200  1
  O  O15  1  0.12672200  0.29155300  0.23855200  1
  O  O16  1  0.56261700  0.60848000  0.70730900  1
  O  O17  1  0.54587300  0.09827900  0.39836700  1
  O  O18  1  0.93475200  0.24175700  0.91671500  1
  O  O19  1  0.43760600  0.74776400  0.09178400  1
  O  O20  1  0.88788500  0.06263400  0.28839400  1
  O  O21  1  0.91837200  0.67668500  0.75568500  1
  O  O22  1  0.46400000  0.42195700  0.33050700  1
  O  O23  1  0.44319000  0.89521200  0.61589500  1
  O  O24  1  0.49927400  0.12678200  0.13718100  1
  O  O25  1  0.64400800  0.93477300  0.92733300  1
  O  O26  1  0.31516600  0.95770900  0.94533300  1
loop_
_geom_bond_atom_site_label_1
_geom_bond_atom_site_label_2
_geom_bond_distance
_geom_bond_site_symmetry_2
Ca0 O11 2.358884 1_455
Ca0 O3 2.375740 1_555
Ca0 O0 2.389249 1_555
Ca0 O10 2.406893 1_455
Ca0 O2 2.417496 1_555
Ca0 O7 2.419283 1_455
Ca0 O18 2.863484 1_455
Ca1 O5 2.354250 1_555
Ca1 O22 2.362357 1_555
Ca1 O23 2.488355 1_555
Ca1 O4 2.509311 1_555
Ca1 O6 2.521755 1_555
Ca1 O8 2.686953 1_555
Ca1 O9 2.739422 1_555
Ca1 O1 2.764624 1_555
Ca1 O19 2.844235 1_555
Ca2 O9 2.325477 1_655
Ca2 O5 2.335813 1_555
Ca2 O8 2.393664 1_655
Ca2 O1 2.446165 1_555
Ca2 O4 2.489424 1_555
Ca2 O6 2.512919 1_655
Ca2 O12 2.669181 1_655
Ca3 O2 2.432489 1_555
Ca3 O3 2.433208 1_555
Ca3 O17 2.460892 1_555
Ca3 O16 2.474991 1_555
Ca3 O7 2.576794 1_555
Ca3 O10 2.605739 1_555
Ca3 O0 2.655216 1_555
Ca3 O11 2.796932 1_555
Ca3 O13 2.832950 1_555
Ca4 O8 2.385568 1_545
Ca4 O17 2.447542 1_555
Ca4 O20 2.491618 1_455
Ca4 O24 2.532811 1_555
Ca4 O12 2.565971 1_545
Ca4 O19 2.687715 1_545
Ca4 O15 2.765353 1_555
Ca4 O26 2.780716 1_544
Ca4 O3 2.871970 1_555
Ca5 O14 2.329092 1_655
Ca5 O25 2.349510 1_555
Ca5 O11 2.364885 1_565
Ca5 O23 2.422391 1_555
Ca5 O18 2.561535 1_565
Ca5 O4 2.663793 1_555
Ca5 O13 2.688752 1_565
Ca6 O26 2.301584 1_555
Ca6 O9 2.357295 1_555
Ca6 O21 2.386888 1_455
Ca6 O16 2.387927 1_555
Ca6 O14 2.446320 1_555
Ca6 O23 2.672528 1_555
Ca6 O0 2.687814 1_555
Ca7 O13 2.362695 1_555
Ca7 O18 2.363177 1_455
Ca7 O15 2.376922 1_556
Ca7 O6 2.413922 1_556
Ca7 O26 2.585711 1_545
Ca7 O2 2.733148 1_555
Ca7 O24 2.746749 1_556
Ca8 O12 2.368912 1_656
Ca8 O25 2.374244 1_555
Ca8 O7 2.376529 1_555
Ca8 O19 2.387750 1_556
Ca8 O21 2.400545 1_555
Ca8 O5 2.863224 1_556
Ca9 O10 2.310234 1_555
Ca9 O24 2.314104 1_555
Ca9 O20 2.374969 1_555
Ca9 O22 2.393635 1_555
Ca9 O1 2.515971 1_555
Ca9 O15 2.533303 1_655
C0 O24 1.281606 1_555
C0 O25 1.290571 1_544
C0 O26 1.308595 1_544
O0 P0 1.554396 1_556
O1 P1 1.560621 1_554
O2 P2 1.559025 1_545
O3 P3 1.561868 1_555
O4 P4 1.557613 1_555
O5 P5 1.562776 1_565
O6 P0 1.571591 1_555
O7 P1 1.565634 1_555
O8 P2 1.569889 1_555
O9 P3 1.561192 1_555
O10 P4 1.570908 1_555
O11 P5 1.570465 1_555
O12 P0 1.561895 1_555
O13 P1 1.550927 1_555
O14 P2 1.545181 1_555
O15 P3 1.564794 1_555
O16 P4 1.550747 1_555
O17 P5 1.542036 1_555
O18 P1 1.557581 1_555
O19 P0 1.551265 1_555
O20 P5 1.558201 1_555
O21 P4 1.557254 1_555
O22 P3 1.538964 1_555
O23 P2 1.561113 1_555
