# generated using pymatgen
data_Zr2BIr6
_symmetry_space_group_name_H-M   'P 1'
_cell_length_a   5.71591809
_cell_length_b   5.71591809
_cell_length_c   5.71591737
_cell_angle_alpha   60.00000417
_cell_angle_beta   60.00000417
_cell_angle_gamma   59.99999165
_symmetry_Int_Tables_number   1
_chemical_formula_structural   Zr2BIr6
_chemical_formula_sum   'Zr2 B1 Ir6'
_cell_volume   132.05137772
_cell_formula_units_Z   1
loop_
 _symmetry_equiv_pos_site_id
 _symmetry_equiv_pos_as_xyz
  1  'x, y, z'
loop_
 _atom_site_type_symbol
 _atom_site_label
 _atom_site_symmetry_multiplicity
 _atom_site_fract_x
 _atom_site_fract_y
 _atom_site_fract_z
 _atom_site_occupancy
  Zr  Zr0  1  0.75000000  0.75000000  0.75000000  1
  Zr  Zr1  1  0.25000000  0.25000000  0.25000000  1
  B  B0  1  0.00000000  -0.00000000  -0.00000000  1
  Ir  Ir0  1  0.74188375  0.74188375  0.25811625  1
  Ir  Ir1  1  0.25811625  0.74188375  0.25811625  1
  Ir  Ir2  1  0.74188375  0.25811625  0.25811625  1
  Ir  Ir3  1  0.25811625  0.25811625  0.74188375  1
  Ir  Ir4  1  0.74188375  0.25811625  0.74188375  1
  Ir  Ir5  1  0.25811625  0.74188375  0.74188375  1
loop_
_geom_bond_atom_site_label_1
_geom_bond_atom_site_label_2
_geom_bond_distance
_geom_bond_site_symmetry_2
B0 Ir2 2.086490 1_455
B0 Ir1 2.086490 1_545
B0 Ir5 2.086490 1_544
B0 Ir4 2.086490 1_454
B0 Ir3 2.086490 1_554
B0 Ir0 2.086490 1_445
Ir0 Zr0 2.858712 1_554
Ir0 Zr1 2.858712 1_565
Ir0 Zr1 2.858712 1_655
Ir0 Zr0 2.858712 1_555
Ir1 Zr1 2.858712 1_555
Ir1 Zr0 2.858712 1_455
Ir1 Zr1 2.858712 1_565
Ir1 Zr0 2.858712 1_554
Ir2 Zr1 2.858712 1_555
Ir2 Zr1 2.858712 1_655
Ir2 Zr0 2.858712 1_554
Ir2 Zr0 2.858712 1_545
Ir3 Zr1 2.858712 1_555
Ir3 Zr0 2.858712 1_545
Ir3 Zr0 2.858712 1_455
Ir3 Zr1 2.858712 1_556
Ir4 Zr1 2.858712 1_655
Ir4 Zr0 2.858712 1_545
Ir4 Zr0 2.858712 1_555
Ir4 Zr1 2.858712 1_556
Ir5 Zr1 2.858712 1_556
Ir5 Zr1 2.858712 1_565
Ir5 Zr0 2.858712 1_455
Ir5 Zr0 2.858712 1_555
