# generated using pymatgen
data_VH17C4S4(O5F3)4
_symmetry_space_group_name_H-M   'P 1'
_cell_length_a   8.99888000
_cell_length_b   9.01979687
_cell_length_c   9.93805839
_cell_angle_alpha   109.78552594
_cell_angle_beta   103.37098377
_cell_angle_gamma   87.80687333
_symmetry_Int_Tables_number   1
_chemical_formula_structural   VH17C4S4(O5F3)4
_chemical_formula_sum   'V1 H17 C4 S4 O20 F12'
_cell_volume   737.75260890
_cell_formula_units_Z   1
loop_
 _symmetry_equiv_pos_site_id
 _symmetry_equiv_pos_as_xyz
  1  'x, y, z'
loop_
 _atom_site_type_symbol
 _atom_site_label
 _atom_site_symmetry_multiplicity
 _atom_site_fract_x
 _atom_site_fract_y
 _atom_site_fract_z
 _atom_site_occupancy
  V  V0  1  0.00000000  0.00000000  0.00000000  1
  H  H0  1  0.18599900  0.24578900  0.18642800  1
  H  H1  1  0.81400100  0.75421100  0.81357200  1
  H  H2  1  0.98683000  0.68470100  0.84074400  1
  H  H3  1  0.01317000  0.31529900  0.15925600  1
  H  H4  1  0.17680700  0.11246100  0.86527500  1
  H  H5  1  0.82319300  0.88753900  0.13472500  1
  H  H6  1  0.76597300  0.06315000  0.14694700  1
  H  H7  1  0.23402700  0.93685000  0.85305300  1
  H  H8  1  0.87687600  0.17548900  0.83378100  1
  H  H9  1  0.12312400  0.82451100  0.16621900  1
  H  H10  1  0.73585400  0.06067200  0.83365500  1
  H  H11  1  0.26414600  0.93932800  0.16634500  1
  H  H12  1  0.50000000  0.50000000  0.00000000  1
  H  H13  1  0.52466000  0.71566700  0.10900200  1
  H  H14  1  0.47534000  0.28433300  0.89099800  1
  H  H15  1  0.64854100  0.34760700  0.98075700  1
  H  H16  1  0.35145900  0.65239300  0.01924300  1
  C  C0  1  0.42673200  0.78590600  0.54604100  1
  C  C1  1  0.57326800  0.21409400  0.45395900  1
  C  C2  1  0.07648500  0.29716100  0.57656600  1
  C  C3  1  0.92351500  0.70283900  0.42343400  1
  S  S0  1  0.49182500  0.15633200  0.25157900  1
  S  S1  1  0.50817500  0.84366800  0.74842100  1
  S  S2  1  0.08581600  0.36300800  0.77883700  1
  S  S3  1  0.91418400  0.63699200  0.22116300  1
  O  O0  1  0.92630400  0.78107900  0.85499400  1
  O  O1  1  0.07369600  0.21892100  0.14500600  1
  O  O2  1  0.15562900  0.01407400  0.88422100  1
  O  O3  1  0.84437100  0.98592600  0.11577900  1
  O  O4  1  0.84425400  0.10436000  0.88105100  1
  O  O5  1  0.15574600  0.89564000  0.11894900  1
  O  O6  1  0.63080000  0.73555500  0.76384700  1
  O  O7  1  0.36920000  0.26444500  0.23615300  1
  O  O8  1  0.56066200  0.00948200  0.79084800  1
  O  O9  1  0.43933800  0.99051800  0.20915200  1
  O  O10  1  0.93545800  0.31408700  0.78613500  1
  O  O11  1  0.06454200  0.68591300  0.21386500  1
  O  O12  1  0.37907100  0.82159900  0.80600600  1
  O  O13  1  0.62092900  0.17840100  0.19399400  1
  O  O14  1  0.88382000  0.46664800  0.16853700  1
  O  O15  1  0.11618000  0.53335200  0.83146300  1
  O  O16  1  0.78647800  0.72266700  0.16406000  1
  O  O17  1  0.21352200  0.27733300  0.83594000  1
  O  O18  1  0.53975600  0.36635300  0.97366900  1
  O  O19  1  0.46024400  0.63364700  0.02633100  1
  F  F0  1  0.69686900  0.12877300  0.48035600  1
  F  F1  1  0.30313100  0.87122700  0.51964400  1
  F  F2  1  0.61605300  0.36865900  0.51001400  1
  F  F3  1  0.38394700  0.63134100  0.48998600  1
  F  F4  1  0.46914100  0.18636100  0.52273700  1
  F  F5  1  0.53085900  0.81363900  0.47726300  1
  F  F6  1  0.95112300  0.35112400  0.50640900  1
  F  F7  1  0.04887700  0.64887600  0.49359100  1
  F  F8  1  0.06944400  0.13788100  0.52149200  1
  F  F9  1  0.93055600  0.86211900  0.47850800  1
  F  F10  1  0.79813700  0.64846300  0.44784100  1
  F  F11  1  0.20186300  0.35153700  0.55215900  1
loop_
_geom_bond_atom_site_label_1
_geom_bond_atom_site_label_2
_geom_bond_distance
_geom_bond_site_symmetry_2
H0 O1 1.004140 1_555
H0 O7 1.605786 1_555
H1 O0 1.004140 1_555
H1 O6 1.605786 1_555
H2 O0 0.994238 1_555
H3 O1 0.994238 1_555
H4 O2 1.000983 1_555
H4 O17 1.667728 1_555
H5 O3 1.000983 1_555
H5 O16 1.667728 1_555
H6 O3 0.998116 1_545
H6 O13 1.688859 1_555
H7 O2 0.998116 1_565
H7 O12 1.688859 1_555
H8 O4 1.000358 1_555
H8 O10 1.622213 1_555
H9 O5 1.000358 1_555
H9 O11 1.622213 1_555
H10 O4 1.009927 1_555
H10 O8 1.578656 1_555
H11 O5 1.009927 1_555
H11 O9 1.578656 1_555
H12 O19 1.202646 1_555
H12 O18 1.202646 1_554
H13 O19 0.979488 1_555
H14 O18 0.979488 1_555
H15 O18 0.977437 1_555
H16 O19 0.977437 1_555
C0 F3 1.348445 1_555
C0 F1 1.354410 1_555
C0 F5 1.355622 1_555
C1 F2 1.348445 1_555
C1 F0 1.354410 1_555
C1 F4 1.355622 1_555
C2 F6 1.348932 1_455
C2 F11 1.349751 1_555
C2 F8 1.351367 1_555
C3 F7 1.348932 1_655
C3 F10 1.349751 1_555
C3 F9 1.351367 1_555
O0 V0 2.036515 1_666
O1 V0 2.036515 1_555
O2 V0 2.039410 1_556
O3 V0 2.039410 1_665
O4 V0 2.033188 1_656
O5 V0 2.033188 1_565
O6 S1 1.460386 1_555
O7 S0 1.460386 1_555
O8 S1 1.474025 1_545
O9 S0 1.474025 1_565
O10 S2 1.464060 1_655
O11 S3 1.464060 1_455
O12 S1 1.455756 1_555
O13 S0 1.455756 1_555
O14 S3 1.459775 1_555
O15 S2 1.459775 1_555
O16 S3 1.472141 1_555
O17 S2 1.472141 1_555
