# generated using pymatgen
data_PrFeNi4
_symmetry_space_group_name_H-M   'P 1'
_cell_length_a   5.02393359
_cell_length_b   5.02393359
_cell_length_c   3.95655100
_cell_angle_alpha   90.00000000
_cell_angle_beta   90.00000000
_cell_angle_gamma   119.99999463
_symmetry_Int_Tables_number   1
_chemical_formula_structural   PrFeNi4
_chemical_formula_sum   'Pr1 Fe1 Ni4'
_cell_volume   86.48388759
_cell_formula_units_Z   1
loop_
 _symmetry_equiv_pos_site_id
 _symmetry_equiv_pos_as_xyz
  1  'x, y, z'
loop_
 _atom_site_type_symbol
 _atom_site_label
 _atom_site_symmetry_multiplicity
 _atom_site_fract_x
 _atom_site_fract_y
 _atom_site_fract_z
 _atom_site_occupancy
  Pr  Pr0  1  0.33333300  0.66666700  0.00000000  1
  Fe  Fe0  1  0.66666700  0.33333300  0.00000000  1
  Ni  Ni0  1  0.00000000  0.00000000  0.00000000  1
  Ni  Ni1  1  0.33281100  0.16640600  0.50000000  1
  Ni  Ni2  1  0.83359400  0.16640600  0.50000000  1
  Ni  Ni3  1  0.83359400  0.66718900  0.50000000  1
loop_
_geom_bond_atom_site_label_1
_geom_bond_atom_site_label_2
_geom_bond_distance
_geom_bond_site_symmetry_2
Fe0 Ni2 2.454277 1_555
Fe0 Ni2 2.454277 1_554
Fe0 Ni3 2.454282 1_554
Fe0 Ni3 2.454282 1_555
Fe0 Ni1 2.454282 1_555
Fe0 Ni1 2.454282 1_554
Fe0 Ni0 2.900566 1_655
Fe0 Pr0 2.900567 1_545
Fe0 Pr0 2.900567 1_655
Fe0 Ni0 2.900571 1_555
Fe0 Ni0 2.900571 1_665
Fe0 Pr0 2.900575 1_555
Ni0 Ni1 2.451594 1_554
Ni0 Ni1 2.451594 1_555
Ni0 Ni3 2.451594 1_444
Ni0 Ni3 2.451594 1_445
Ni0 Ni2 2.451597 1_454
Ni0 Ni2 2.451597 1_455
Ni0 Pr0 2.900566 1_545
Ni0 Pr0 2.900571 1_445
Ni0 Pr0 2.900571 1_555
Ni1 Ni2 2.508033 1_455
Ni1 Ni3 2.508033 1_445
Ni1 Ni2 2.515901 1_555
Ni1 Ni3 2.515901 1_555
Ni1 Pr0 3.197430 1_545
Ni1 Pr0 3.197430 1_546
Ni1 Pr0 3.197430 1_555
Ni1 Pr0 3.197430 1_556
Ni2 Ni3 2.508033 1_545
Ni2 Ni3 2.515901 1_555
Ni2 Pr0 3.197430 1_546
Ni2 Pr0 3.197430 1_545
Ni2 Pr0 3.197430 1_655
Ni2 Pr0 3.197430 1_656
Ni3 Pr0 3.197430 1_656
Ni3 Pr0 3.197430 1_655
Ni3 Pr0 3.197430 1_556
Ni3 Pr0 3.197430 1_555
