# generated using pymatgen
data_AlCr3O8
_symmetry_space_group_name_H-M   'P 1'
_cell_length_a   5.83335793
_cell_length_b   5.83335793
_cell_length_c   5.83335826
_cell_angle_alpha   60.48004926
_cell_angle_beta   60.48004926
_cell_angle_gamma   60.48005918
_symmetry_Int_Tables_number   1
_chemical_formula_structural   AlCr3O8
_chemical_formula_sum   'Al1 Cr3 O8'
_cell_volume   141.88218032
_cell_formula_units_Z   1
loop_
 _symmetry_equiv_pos_site_id
 _symmetry_equiv_pos_as_xyz
  1  'x, y, z'
loop_
 _atom_site_type_symbol
 _atom_site_label
 _atom_site_symmetry_multiplicity
 _atom_site_fract_x
 _atom_site_fract_y
 _atom_site_fract_z
 _atom_site_occupancy
  Al  Al0  1  0.50000000  0.50000000  0.50000000  1
  Cr  Cr0  1  0.00000000  0.50000000  0.50000000  1
  Cr  Cr1  1  0.50000000  0.50000000  0.00000000  1
  Cr  Cr2  1  0.50000000  0.00000000  0.50000000  1
  O  O0  1  0.26495400  0.26495400  0.26495400  1
  O  O1  1  0.69583200  0.26831000  0.26831000  1
  O  O2  1  0.26831000  0.26831000  0.69583200  1
  O  O3  1  0.26831000  0.69583200  0.26831000  1
  O  O4  1  0.73504600  0.73504600  0.73504600  1
  O  O5  1  0.30416800  0.73169000  0.73169000  1
  O  O6  1  0.73169000  0.73169000  0.30416800  1
  O  O7  1  0.73169000  0.30416800  0.73169000  1
loop_
_geom_bond_atom_site_label_1
_geom_bond_atom_site_label_2
_geom_bond_distance
_geom_bond_site_symmetry_2
Al0 O6 1.927529 1_555
Al0 O2 1.927529 1_555
Al0 O7 1.927530 1_555
Al0 O5 1.927530 1_555
Al0 O3 1.927530 1_555
Al0 O1 1.927530 1_555
Cr0 O3 1.933186 1_555
Cr0 O7 1.933186 1_455
Cr0 O2 1.933187 1_555
Cr0 O6 1.933187 1_455
Cr0 O0 1.955663 1_555
Cr0 O4 1.955663 1_455
Cr1 O3 1.933187 1_555
Cr1 O1 1.933187 1_555
Cr1 O7 1.933187 1_554
Cr1 O5 1.933187 1_554
Cr1 O4 1.955662 1_554
Cr1 O0 1.955662 1_555
Cr2 O1 1.933186 1_555
Cr2 O5 1.933186 1_545
Cr2 O2 1.933187 1_555
Cr2 O6 1.933187 1_545
Cr2 O4 1.955663 1_545
Cr2 O0 1.955663 1_555
