# generated using pymatgen
data_Rb9Fe2S7
_symmetry_space_group_name_H-M   'P 1'
_cell_length_a   13.27098700
_cell_length_b   13.27098700
_cell_length_c   13.27098700
_cell_angle_alpha   90.00000000
_cell_angle_beta   90.00000000
_cell_angle_gamma   90.00000000
_symmetry_Int_Tables_number   1
_chemical_formula_structural   Rb9Fe2S7
_chemical_formula_sum   'Rb36 Fe8 S28'
_cell_volume   2337.27423286
_cell_formula_units_Z   4
loop_
 _symmetry_equiv_pos_site_id
 _symmetry_equiv_pos_as_xyz
  1  'x, y, z'
loop_
 _atom_site_type_symbol
 _atom_site_label
 _atom_site_symmetry_multiplicity
 _atom_site_fract_x
 _atom_site_fract_y
 _atom_site_fract_z
 _atom_site_occupancy
  Rb  Rb0  1  0.95655000  0.29042400  0.32418400  1
  Rb  Rb1  1  0.55811400  0.44188600  0.94188600  1
  Rb  Rb2  1  0.44188600  0.94188600  0.55811400  1
  Rb  Rb3  1  0.05811400  0.05811400  0.05811400  1
  Rb  Rb4  1  0.76443700  0.73556300  0.26443700  1
  Rb  Rb5  1  0.73556300  0.26443700  0.76443700  1
  Rb  Rb6  1  0.26443700  0.76443700  0.73556300  1
  Rb  Rb7  1  0.23556300  0.23556300  0.23556300  1
  Rb  Rb8  1  0.58609400  0.91390600  0.08609400  1
  Rb  Rb9  1  0.91390600  0.08609400  0.58609400  1
  Rb  Rb10  1  0.08609400  0.58609400  0.91390600  1
  Rb  Rb11  1  0.41390600  0.41390600  0.41390600  1
  Rb  Rb12  1  0.32418400  0.95655000  0.29042400  1
  Rb  Rb13  1  0.82418400  0.54345000  0.70957600  1
  Rb  Rb14  1  0.67581600  0.45655000  0.20957600  1
  Rb  Rb15  1  0.54345000  0.70957600  0.82418400  1
  Rb  Rb16  1  0.20957600  0.67581600  0.45655000  1
  Rb  Rb17  1  0.70957600  0.82418400  0.54345000  1
  Rb  Rb18  1  0.94188600  0.55811400  0.44188600  1
  Rb  Rb19  1  0.29042400  0.32418400  0.95655000  1
  Rb  Rb20  1  0.45655000  0.20957600  0.67581600  1
  Rb  Rb21  1  0.04345000  0.79042400  0.17581600  1
  Rb  Rb22  1  0.79042400  0.17581600  0.04345000  1
  Rb  Rb23  1  0.17581600  0.04345000  0.79042400  1
  Rb  Rb24  1  0.66630300  0.99910200  0.79780000  1
  Rb  Rb25  1  0.16630300  0.50089800  0.20220000  1
  Rb  Rb26  1  0.33369700  0.49910200  0.70220000  1
  Rb  Rb27  1  0.50089800  0.20220000  0.16630300  1
  Rb  Rb28  1  0.70220000  0.33369700  0.49910200  1
  Rb  Rb29  1  0.20220000  0.16630300  0.50089800  1
  Rb  Rb30  1  0.99910200  0.79780000  0.66630300  1
  Rb  Rb31  1  0.79780000  0.66630300  0.99910200  1
  Rb  Rb32  1  0.49910200  0.70220000  0.33369700  1
  Rb  Rb33  1  0.00089800  0.29780000  0.83369700  1
  Rb  Rb34  1  0.29780000  0.83369700  0.00089800  1
  Rb  Rb35  1  0.83369700  0.00089800  0.29780000  1
  Fe  Fe0  1  0.09939200  0.40060800  0.59939200  1
  Fe  Fe1  1  0.40060800  0.59939200  0.09939200  1
  Fe  Fe2  1  0.59939200  0.09939200  0.40060800  1
  Fe  Fe3  1  0.90060800  0.90060800  0.90060800  1
  Fe  Fe4  1  0.42757600  0.07242400  0.92757600  1
  Fe  Fe5  1  0.07242400  0.92757600  0.42757600  1
  Fe  Fe6  1  0.92757600  0.42757600  0.07242400  1
  Fe  Fe7  1  0.57242400  0.57242400  0.57242400  1
  S  S0  1  0.20202000  0.29798000  0.70202000  1
  S  S1  1  0.29798000  0.70202000  0.20202000  1
  S  S2  1  0.70202000  0.20202000  0.29798000  1
  S  S3  1  0.79798000  0.79798000  0.79798000  1
  S  S4  1  0.42145800  0.94796400  0.81324200  1
  S  S5  1  0.92145800  0.55203600  0.18675800  1
  S  S6  1  0.57854200  0.44796400  0.68675800  1
  S  S7  1  0.55203600  0.18675800  0.92145800  1
  S  S8  1  0.68675800  0.57854200  0.44796400  1
  S  S9  1  0.18675800  0.92145800  0.55203600  1
  S  S10  1  0.94796400  0.81324200  0.42145800  1
  S  S11  1  0.81324200  0.42145800  0.94796400  1
  S  S12  1  0.44796400  0.68675800  0.57854200  1
  S  S13  1  0.05203600  0.31324200  0.07854200  1
  S  S14  1  0.31324200  0.07854200  0.05203600  1
  S  S15  1  0.07854200  0.05203600  0.31324200  1
  S  S16  1  0.58877200  0.93701500  0.33693300  1
  S  S17  1  0.08877200  0.56298500  0.66306700  1
  S  S18  1  0.91122800  0.06298500  0.83693300  1
  S  S19  1  0.56298500  0.66306700  0.08877200  1
  S  S20  1  0.16306700  0.41122800  0.43701500  1
  S  S21  1  0.66306700  0.08877200  0.56298500  1
  S  S22  1  0.93701500  0.33693300  0.58877200  1
  S  S23  1  0.33693300  0.58877200  0.93701500  1
  S  S24  1  0.43701500  0.16306700  0.41122800  1
  S  S25  1  0.06298500  0.83693300  0.91122800  1
  S  S26  1  0.83693300  0.91122800  0.06298500  1
  S  S27  1  0.41122800  0.43701500  0.16306700  1
loop_
_geom_bond_atom_site_label_1
_geom_bond_atom_site_label_2
_geom_bond_distance
_geom_bond_site_symmetry_2
Rb0 S20 3.510514 1_655
Rb0 S13 3.510627 1_655
Rb0 S15 3.556788 1_655
Rb0 S22 3.574592 1_555
Rb0 S2 3.592676 1_555
Rb1 S11 3.397594 1_555
Rb1 S6 3.397594 1_555
Rb1 S7 3.397594 1_555
Rb1 S19 3.524197 1_556
Rb1 S23 3.524197 1_555
Rb1 S27 3.524197 1_556
Rb2 S4 3.397594 1_555
Rb2 S12 3.397594 1_555
Rb2 S9 3.397594 1_555
Rb2 S21 3.524197 1_565
Rb2 S16 3.524197 1_555
Rb2 S24 3.524197 1_565
Rb3 S15 3.397594 1_555
Rb3 S14 3.397594 1_555
Rb3 S13 3.397594 1_555
Rb3 S26 3.524197 1_445
Rb3 S25 3.524197 1_544
Rb3 S18 3.524197 1_454
Rb4 S8 3.367061 1_555
Rb4 S10 3.367061 1_555
Rb4 S5 3.367061 1_555
Rb4 S16 3.675291 1_555
Rb4 S26 3.675291 1_555
Rb4 S19 3.675291 1_555
Rb5 S6 3.367061 1_555
Rb5 S11 3.367061 1_555
Rb5 S7 3.367061 1_555
Rb5 S22 3.675291 1_555
Rb5 S18 3.675291 1_555
Rb5 S21 3.675291 1_555
Rb6 S12 3.367061 1_555
Rb6 S4 3.367061 1_555
Rb6 S9 3.367061 1_555
Rb6 S23 3.675291 1_555
Rb6 S25 3.675291 1_555
Rb6 S17 3.675291 1_555
Rb7 S14 3.367061 1_555
Rb7 S13 3.367061 1_555
Rb7 S15 3.367061 1_555
Rb7 S20 3.675291 1_555
Rb7 S24 3.675291 1_555
Rb7 S27 3.675291 1_555
Rb8 S26 3.343167 1_555
Rb8 S19 3.343167 1_555
Rb8 S16 3.343167 1_555
Rb9 S18 3.343167 1_555
Rb9 S21 3.343167 1_555
Rb9 S22 3.343167 1_555
Rb10 S25 3.343167 1_555
Rb10 S17 3.343167 1_555
Rb10 S23 3.343167 1_555
Rb11 S24 3.343167 1_555
Rb11 S27 3.343167 1_555
Rb11 S20 3.343167 1_555
Rb12 S24 3.510514 1_565
Rb12 S15 3.510627 1_565
Rb12 S14 3.556788 1_565
Rb12 S16 3.574592 1_555
Rb12 S1 3.592676 1_555
Rb13 S22 3.510514 1_555
Rb13 S6 3.510627 1_555
Rb13 S11 3.556788 1_555
Rb13 S17 3.574592 1_655
Rb13 S3 3.592676 1_555
Rb14 S19 3.510514 1_555
Rb14 S5 3.510627 1_555
Rb14 S8 3.556788 1_555
Rb14 S27 3.574592 1_555
Rb14 S2 3.592676 1_555
Rb15 S23 3.510514 1_555
Rb15 S12 3.510627 1_555
Rb15 S4 3.556788 1_555
Rb15 S19 3.574592 1_556
Rb15 S3 3.592676 1_555
Rb16 S17 3.510514 1_555
Rb16 S9 3.510627 1_555
Rb16 S12 3.556788 1_555
Rb16 S20 3.574592 1_555
Rb16 S1 3.592676 1_555
Rb17 S16 3.510514 1_555
Rb17 S8 3.510627 1_555
Rb17 S10 3.556788 1_555
Rb17 S21 3.574592 1_565
Rb17 S3 3.592676 1_555
Rb18 S10 3.397594 1_555
Rb18 S8 3.397594 1_555
Rb18 S5 3.397594 1_555
Rb18 S17 3.524197 1_655
Rb18 S22 3.524197 1_555
Rb18 S20 3.524197 1_655
Rb19 S27 3.510514 1_556
Rb19 S14 3.510627 1_556
Rb19 S13 3.556788 1_556
Rb19 S23 3.574592 1_555
Rb19 S0 3.592676 1_555
Rb20 S21 3.510514 1_555
Rb20 S7 3.510627 1_555
Rb20 S6 3.556788 1_555
Rb20 S24 3.574592 1_555
Rb20 S0 3.592676 1_555
Rb21 S26 3.510514 1_455
Rb21 S10 3.510627 1_455
Rb21 S5 3.556788 1_455
Rb21 S25 3.574592 1_554
Rb21 S1 3.592676 1_555
Rb22 S18 3.510514 1_554
Rb22 S11 3.510627 1_554
Rb22 S7 3.556788 1_554
Rb22 S26 3.574592 1_545
Rb22 S2 3.592676 1_555
Rb23 S25 3.510514 1_545
Rb23 S4 3.510627 1_545
Rb23 S9 3.556788 1_545
Rb23 S18 3.574592 1_455
Rb23 S0 3.592676 1_555
Rb24 S3 3.190256 1_555
Rb24 S4 3.325769 1_555
Rb24 S21 3.335991 1_565
Rb24 S7 3.345843 1_565
Rb24 S18 3.399049 1_565
Rb25 S1 3.190256 1_555
Rb25 S5 3.325769 1_455
Rb25 S20 3.335991 1_555
Rb25 S13 3.345843 1_555
Rb25 S27 3.399049 1_555
Rb26 S0 3.190256 1_555
Rb26 S6 3.325769 1_555
Rb26 S23 3.335991 1_555
Rb26 S12 3.345843 1_555
Rb26 S17 3.399049 1_555
Rb27 S2 3.190256 1_555
Rb27 S7 3.325769 1_554
Rb27 S27 3.335991 1_555
Rb27 S14 3.345843 1_555
Rb27 S24 3.399049 1_555
Rb28 S2 3.190256 1_555
Rb28 S8 3.325769 1_555
Rb28 S22 3.335991 1_555
Rb28 S6 3.345843 1_555
Rb28 S21 3.399049 1_555
Rb29 S0 3.190256 1_555
Rb29 S9 3.325769 1_545
Rb29 S24 3.335991 1_555
Rb29 S15 3.345843 1_555
Rb29 S20 3.399049 1_555
Rb30 S3 3.190256 1_555
Rb30 S10 3.325769 1_555
Rb30 S17 3.335991 1_655
Rb30 S9 3.345843 1_655
Rb30 S25 3.399049 1_655
Rb31 S3 3.190256 1_555
Rb31 S11 3.325769 1_555
Rb31 S19 3.335991 1_556
Rb31 S5 3.345843 1_556
Rb31 S26 3.399049 1_556
Rb32 S1 3.190256 1_555
Rb32 S12 3.325769 1_555
Rb32 S16 3.335991 1_555
Rb32 S8 3.345843 1_555
Rb32 S19 3.399049 1_555
Rb33 S0 3.190256 1_555
Rb33 S13 3.325769 1_556
Rb33 S18 3.335991 1_455
Rb33 S11 3.345843 1_455
Rb33 S22 3.399049 1_455
Rb34 S1 3.190256 1_555
Rb34 S14 3.325769 1_565
Rb34 S25 3.335991 1_554
Rb34 S4 3.345843 1_554
Rb34 S23 3.399049 1_554
Rb35 S2 3.190256 1_555
Rb35 S15 3.325769 1_655
Rb35 S26 3.335991 1_545
Rb35 S10 3.345843 1_545
Rb35 S16 3.399049 1_545
Fe0 S20 2.318954 1_555
Fe0 S22 2.318954 1_455
Fe0 S17 2.318954 1_555
Fe0 S0 2.359010 1_555
Fe1 S27 2.318954 1_555
Fe1 S23 2.318954 1_554
Fe1 S19 2.318954 1_555
Fe1 S1 2.359010 1_555
Fe2 S24 2.318954 1_555
Fe2 S16 2.318954 1_545
Fe2 S21 2.318954 1_555
Fe2 S2 2.359010 1_555
Fe3 S25 2.318954 1_655
Fe3 S18 2.318954 1_565
Fe3 S26 2.318954 1_556
Fe3 S3 2.359010 1_555
Fe4 S14 2.244327 1_556
Fe4 S7 2.244327 1_555
Fe4 S4 2.244327 1_545
Fe4 Rb8 3.643699 1_546
Fe5 S9 2.244327 1_555
Fe5 S15 2.244327 1_565
Fe5 S10 2.244327 1_455
Fe5 Rb9 3.643699 1_465
Fe6 S13 2.244327 1_655
Fe6 S5 2.244327 1_555
Fe6 S11 2.244327 1_554
Fe6 Rb10 3.643699 1_654
Fe7 S12 2.244327 1_555
Fe7 S8 2.244327 1_555
Fe7 S6 2.244327 1_555
Fe7 Rb11 3.643699 1_555
