# generated using pymatgen
data_ErNi4Au
_symmetry_space_group_name_H-M   'P 1'
_cell_length_a   4.85725435
_cell_length_b   4.85725096
_cell_length_c   4.85725135
_cell_angle_alpha   60.00173113
_cell_angle_beta   60.00176450
_cell_angle_gamma   60.00178271
_symmetry_Int_Tables_number   1
_chemical_formula_structural   ErNi4Au
_chemical_formula_sum   'Er1 Ni4 Au1'
_cell_volume   81.03530896
_cell_formula_units_Z   1
loop_
 _symmetry_equiv_pos_site_id
 _symmetry_equiv_pos_as_xyz
  1  'x, y, z'
loop_
 _atom_site_type_symbol
 _atom_site_label
 _atom_site_symmetry_multiplicity
 _atom_site_fract_x
 _atom_site_fract_y
 _atom_site_fract_z
 _atom_site_occupancy
  Er  Er0  1  0.75000033  0.74999894  0.75000014  1
  Ni  Ni0  1  0.37425642  0.37425695  0.37425643  1
  Ni  Ni1  1  0.87722707  0.37425799  0.37425769  1
  Ni  Ni2  1  0.37425760  0.87722704  0.37425815  1
  Ni  Ni3  1  0.37425762  0.37425809  0.87722742  1
  Au  Au0  1  -0.00000005  0.00000098  0.00000017  1
loop_
_geom_bond_atom_site_label_1
_geom_bond_atom_site_label_2
_geom_bond_distance
_geom_bond_site_symmetry_2
Er0 Ni3 2.849352 1_555
Er0 Ni1 2.849352 1_555
Er0 Ni2 2.849356 1_555
Er0 Ni1 2.849410 1_556
Er0 Ni3 2.849413 1_655
Er0 Ni2 2.849413 1_655
Er0 Ni1 2.849416 1_565
Er0 Ni2 2.849416 1_556
Er0 Ni3 2.849419 1_565
Er0 Ni0 2.849438 1_556
Er0 Ni0 2.849440 1_655
Er0 Ni0 2.849446 1_565
Ni0 Ni3 2.414189 1_554
Ni0 Ni2 2.414192 1_545
Ni0 Ni1 2.414192 1_455
Ni0 Ni2 2.443059 1_555
Ni0 Ni1 2.443062 1_555
Ni0 Ni3 2.443062 1_555
Ni1 Ni3 2.414267 1_654
Ni1 Ni2 2.414269 1_645
Ni1 Ni2 2.443115 1_555
Ni1 Ni3 2.443116 1_555
Ni2 Ni3 2.414267 1_564
Ni2 Ni3 2.443111 1_555
Au0 Ni1 2.846279 1_455
Au0 Ni3 2.846280 1_554
Au0 Ni2 2.846281 1_545
Au0 Ni1 2.846336 1_454
Au0 Ni2 2.846338 1_544
Au0 Ni1 2.846338 1_445
Au0 Ni3 2.846338 1_454
Au0 Ni3 2.846339 1_544
Au0 Ni2 2.846340 1_445
Au0 Ni0 2.846361 1_554
Au0 Ni0 2.846362 1_455
Au0 Ni0 2.846363 1_545
Au0 Er0 2.974415 1_444
Au0 Er0 2.974504 1_454
Au0 Er0 2.974512 1_445
Au0 Er0 2.974517 1_544
