# generated using pymatgen
data_SmCo4B
_symmetry_space_group_name_H-M   'P 1'
_cell_length_a   5.05390703
_cell_length_b   5.05390781
_cell_length_c   6.82150400
_cell_angle_alpha   90.00000000
_cell_angle_beta   90.00000000
_cell_angle_gamma   119.98815346
_symmetry_Int_Tables_number   1
_chemical_formula_structural   SmCo4B
_chemical_formula_sum   'Sm2 Co8 B2'
_cell_volume   150.90970291
_cell_formula_units_Z   2
loop_
 _symmetry_equiv_pos_site_id
 _symmetry_equiv_pos_as_xyz
  1  'x, y, z'
loop_
 _atom_site_type_symbol
 _atom_site_label
 _atom_site_symmetry_multiplicity
 _atom_site_fract_x
 _atom_site_fract_y
 _atom_site_fract_z
 _atom_site_occupancy
  Sm  Sm0  1  0.00002200  0.00002200  0.00000000  1
  Sm  Sm1  1  0.00000800  0.00000800  0.50000000  1
  Co  Co0  1  0.66665800  0.33342300  0.00000000  1
  Co  Co1  1  0.33342300  0.66665800  0.00000000  1
  Co  Co2  1  0.50000100  0.50000100  0.71140800  1
  Co  Co3  1  0.50000600  0.00001500  0.71143500  1
  Co  Co4  1  0.00001600  0.50000700  0.71143500  1
  Co  Co5  1  0.50000100  0.50000100  0.28859200  1
  Co  Co6  1  0.50000600  0.00001500  0.28856600  1
  Co  Co7  1  0.00001600  0.50000700  0.28856600  1
  B  B0  1  0.66669200  0.33335100  0.50000000  1
  B  B1  1  0.33335100  0.66669200  0.50000000  1
loop_
_geom_bond_atom_site_label_1
_geom_bond_atom_site_label_2
_geom_bond_distance
_geom_bond_site_symmetry_2
Co0 Co5 2.450000 1_555
Co0 Co2 2.450000 1_554
Co0 Co4 2.450328 1_654
Co0 Co7 2.450333 1_655
Co0 Co3 2.450458 1_554
Co0 Co6 2.450464 1_555
Co0 Sm0 2.917927 1_665
Co0 Sm0 2.918089 1_555
Co0 Sm0 2.918131 1_655
Co1 Co5 2.450000 1_555
Co1 Co2 2.450000 1_554
Co1 Co3 2.450325 1_564
Co1 Co6 2.450331 1_565
Co1 Co4 2.450455 1_554
Co1 Co7 2.450461 1_555
Co1 Sm0 2.917927 1_665
Co1 Sm0 2.918089 1_555
Co1 Sm0 2.918131 1_565
Co2 Sm1 2.909865 1_555
Co2 Sm1 2.909927 1_665
Co2 Sm0 3.203554 1_556
Co2 Sm0 3.203721 1_666
Co3 Sm1 2.909570 1_555
Co3 Sm1 2.909618 1_655
Co3 Sm0 3.203117 1_556
Co3 Sm0 3.203217 1_656
Co4 Sm1 2.909572 1_555
Co4 Sm1 2.909616 1_565
Co4 Sm0 3.203119 1_556
Co4 Sm0 3.203215 1_566
Co5 Sm1 2.909865 1_555
Co5 Sm1 2.909927 1_665
Co5 Sm0 3.203554 1_555
Co5 Sm0 3.203721 1_665
Co6 Sm1 2.909566 1_555
Co6 Sm1 2.909615 1_655
Co6 Sm0 3.203121 1_555
Co6 Sm0 3.203221 1_655
Co7 Sm1 2.909569 1_555
Co7 Sm1 2.909613 1_565
Co7 Sm0 3.203124 1_555
Co7 Sm0 3.203219 1_565
B0 Co2 2.051354 1_555
B0 Co5 2.051354 1_555
B0 Co7 2.051612 1_655
B0 Co4 2.051616 1_655
B0 Co6 2.051649 1_555
B0 Co3 2.051654 1_555
B0 Sm1 2.917667 1_655
B0 Sm1 2.918181 1_665
B0 Sm1 2.918299 1_555
B1 Co2 2.051354 1_555
B1 Co5 2.051354 1_555
B1 Co6 2.051609 1_565
B1 Co3 2.051613 1_565
B1 Co7 2.051646 1_555
B1 Co4 2.051651 1_555
B1 Sm1 2.917667 1_565
B1 Sm1 2.918181 1_665
B1 Sm1 2.918299 1_555
