# generated using pymatgen
data_BiPO4
_symmetry_space_group_name_H-M   'P 1'
_cell_length_a   4.71743585
_cell_length_b   4.72161726
_cell_length_c   7.16706684
_cell_angle_alpha   90.00000000
_cell_angle_beta   90.00000000
_cell_angle_gamma   95.39782141
_symmetry_Int_Tables_number   1
_chemical_formula_structural   BiPO4
_chemical_formula_sum   'Bi2 P2 O8'
_cell_volume   158.93080917
_cell_formula_units_Z   2
loop_
 _symmetry_equiv_pos_site_id
 _symmetry_equiv_pos_as_xyz
  1  'x, y, z'
loop_
 _atom_site_type_symbol
 _atom_site_label
 _atom_site_symmetry_multiplicity
 _atom_site_fract_x
 _atom_site_fract_y
 _atom_site_fract_z
 _atom_site_occupancy
  Bi  Bi0  1  0.86633662  0.86381993  0.49994199  1
  Bi  Bi1  1  0.13366338  0.13618007  0.99994199  1
  P  P0  1  0.34565109  0.34165564  0.50001336  1
  P  P1  1  0.65434891  0.65834436  0.00001336  1
  O  O0  1  0.19261280  0.18849952  0.33200551  1
  O  O1  1  0.68700523  0.33888556  0.99998695  1
  O  O2  1  0.80738720  0.81150048  0.83200551  1
  O  O3  1  0.80725311  0.81144248  0.16809728  1
  O  O4  1  0.19274689  0.18855752  0.66809728  1
  O  O5  1  0.31299477  0.66111444  0.49998695  1
  O  O6  1  0.66554872  0.30919497  0.49995592  1
  O  O7  1  0.33445128  0.69080503  0.99995592  1
loop_
_geom_bond_atom_site_label_1
_geom_bond_atom_site_label_2
_geom_bond_distance
_geom_bond_site_symmetry_2
Bi0 O6 2.386230 1_565
Bi0 O0 2.392482 1_665
Bi0 O4 2.393799 1_665
Bi0 O5 2.394838 1_655
Bi0 O3 2.404671 1_555
Bi0 O2 2.406130 1_555
Bi0 O5 2.694428 1_555
Bi0 O6 2.699676 1_555
Bi1 O7 2.386230 1_545
Bi1 O2 2.392482 1_445
Bi1 O3 2.393799 1_446
Bi1 O1 2.394838 1_455
Bi1 O4 2.404671 1_555
Bi1 O0 2.406130 1_556
Bi1 O1 2.694428 1_555
Bi1 O7 2.699676 1_555
O0 P0 1.547849 1_555
O1 P1 1.530558 1_556
O2 P1 1.547849 1_556
O3 P1 1.547891 1_555
O4 P0 1.547891 1_555
O5 P0 1.530558 1_555
O6 P0 1.531137 1_555
O7 P1 1.531137 1_556
