# generated using pymatgen
data_Dy9Al5Se21
_symmetry_space_group_name_H-M   'P 1'
_cell_length_a   11.97893354
_cell_length_b   11.97893354
_cell_length_c   11.97893326
_cell_angle_alpha   95.13653319
_cell_angle_beta   95.13653319
_cell_angle_gamma   95.13652767
_symmetry_Int_Tables_number   1
_chemical_formula_structural   Dy9Al5Se21
_chemical_formula_sum   'Dy18 Al10 Se42'
_cell_volume   1696.87340398
_cell_formula_units_Z   2
loop_
 _symmetry_equiv_pos_site_id
 _symmetry_equiv_pos_as_xyz
  1  'x, y, z'
loop_
 _atom_site_type_symbol
 _atom_site_label
 _atom_site_symmetry_multiplicity
 _atom_site_fract_x
 _atom_site_fract_y
 _atom_site_fract_z
 _atom_site_occupancy
  Dy  Dy0  1  0.11567900  0.88081100  0.74471600  1
  Dy  Dy1  1  0.45595400  0.22103000  0.07867200  1
  Dy  Dy2  1  0.77773500  0.54929100  0.40576600  1
  Dy  Dy3  1  0.40576600  0.77773500  0.54929100  1
  Dy  Dy4  1  0.74471600  0.11567900  0.88081100  1
  Dy  Dy5  1  0.07867200  0.45595400  0.22103000  1
  Dy  Dy6  1  0.22103000  0.07867200  0.45595400  1
  Dy  Dy7  1  0.54929100  0.40576600  0.77773500  1
  Dy  Dy8  1  0.88081100  0.74471600  0.11567900  1
  Dy  Dy9  1  0.21232500  0.44379700  0.58288700  1
  Dy  Dy10  1  0.54783000  0.78258700  0.92610100  1
  Dy  Dy11  1  0.87678200  0.10894800  0.24831000  1
  Dy  Dy12  1  0.92610100  0.54783000  0.78258700  1
  Dy  Dy13  1  0.24831000  0.87678200  0.10894800  1
  Dy  Dy14  1  0.58288700  0.21232500  0.44379700  1
  Dy  Dy15  1  0.10894800  0.24831000  0.87678200  1
  Dy  Dy16  1  0.44379700  0.58288700  0.21232500  1
  Dy  Dy17  1  0.78258700  0.92610100  0.54783000  1
  Al  Al0  1  0.72160500  0.38882200  0.05404300  1
  Al  Al1  1  0.05404300  0.72160500  0.38882200  1
  Al  Al2  1  0.38882200  0.05404300  0.72160500  1
  Al  Al3  1  0.88716200  0.22326300  0.55405900  1
  Al  Al4  1  0.22326300  0.55405900  0.88716200  1
  Al  Al5  1  0.55405900  0.88716200  0.22326300  1
  Al  Al6  1  0.85115200  0.85115200  0.85115200  1
  Al  Al7  1  0.16490400  0.16490400  0.16490400  1
  Al  Al8  1  0.66452900  0.66452900  0.66452900  1
  Al  Al9  1  0.35146300  0.35146300  0.35146300  1
  Se  Se0  1  0.84683300  0.51562600  0.18022600  1
  Se  Se1  1  0.18022600  0.84683300  0.51562600  1
  Se  Se2  1  0.51562600  0.18022600  0.84683300  1
  Se  Se3  1  0.68006700  0.01568000  0.34683200  1
  Se  Se4  1  0.01568000  0.34683200  0.68006700  1
  Se  Se5  1  0.34683200  0.68006700  0.01568000  1
  Se  Se6  1  0.53685600  0.44816300  0.01727300  1
  Se  Se7  1  0.86964800  0.78128000  0.35720500  1
  Se  Se8  1  0.20057500  0.10813000  0.69359600  1
  Se  Se9  1  0.69359600  0.20057500  0.10813000  1
  Se  Se10  1  0.01727300  0.53685600  0.44816300  1
  Se  Se11  1  0.35720500  0.86964800  0.78128000  1
  Se  Se12  1  0.78128000  0.35720500  0.86964800  1
  Se  Se13  1  0.10813000  0.69359600  0.20057500  1
  Se  Se14  1  0.44816300  0.01727300  0.53685600  1
  Se  Se15  1  0.96776100  0.06159100  0.47552500  1
  Se  Se16  1  0.30054600  0.38871300  0.81188100  1
  Se  Se17  1  0.63322300  0.72071400  0.15248500  1
  Se  Se18  1  0.81188100  0.30054600  0.38871300  1
  Se  Se19  1  0.15248500  0.63322300  0.72071400  1
  Se  Se20  1  0.47552500  0.96776100  0.06159100  1
  Se  Se21  1  0.72071400  0.15248500  0.63322300  1
  Se  Se22  1  0.06159100  0.47552500  0.96776100  1
  Se  Se23  1  0.38871300  0.81188100  0.30054600  1
  Se  Se24  1  0.55433400  0.39983800  0.30682500  1
  Se  Se25  1  0.89052800  0.74846700  0.65659000  1
  Se  Se26  1  0.23437100  0.08856200  0.99004700  1
  Se  Se27  1  0.99004700  0.23437100  0.08856200  1
  Se  Se28  1  0.30682500  0.55433400  0.39983800  1
  Se  Se29  1  0.65659000  0.89052800  0.74846700  1
  Se  Se30  1  0.74846700  0.65659000  0.89052800  1
  Se  Se31  1  0.08856200  0.99004700  0.23437100  1
  Se  Se32  1  0.39983800  0.30682500  0.55433400  1
  Se  Se33  1  0.13985000  0.28254800  0.37333600  1
  Se  Se34  1  0.47433200  0.61912700  0.71909000  1
  Se  Se35  1  0.78608400  0.94113900  0.03355100  1
  Se  Se36  1  0.71909000  0.47433200  0.61912700  1
  Se  Se37  1  0.03355100  0.78608400  0.94113900  1
  Se  Se38  1  0.37333600  0.13985000  0.28254800  1
  Se  Se39  1  0.94113900  0.03355100  0.78608400  1
  Se  Se40  1  0.28254800  0.37333600  0.13985000  1
  Se  Se41  1  0.61912700  0.71909000  0.47433200  1
loop_
_geom_bond_atom_site_label_1
_geom_bond_atom_site_label_2
_geom_bond_distance
_geom_bond_site_symmetry_2
Dy0 Se11 2.904018 1_555
Dy0 Se37 2.912812 1_555
Dy0 Se1 2.920741 1_555
Dy0 Se39 2.944968 1_465
Dy0 Se8 2.956075 1_565
Dy0 Se19 3.029425 1_555
Dy0 Se25 3.053981 1_455
Dy1 Se9 2.872065 1_555
Dy1 Se38 2.928353 1_555
Dy1 Se2 2.938974 1_554
Dy1 Se40 2.982002 1_555
Dy1 Se6 2.982745 1_555
Dy1 Se26 3.021610 1_554
Dy1 Se20 3.053870 1_545
Dy1 Se24 3.371830 1_555
Dy2 Se10 2.888386 1_655
Dy2 Se0 2.900378 1_555
Dy2 Se36 2.907159 1_555
Dy2 Se41 3.015610 1_555
Dy2 Se7 3.021529 1_555
Dy2 Se18 3.035104 1_555
Dy2 Se24 3.156842 1_555
Dy3 Se14 2.888386 1_565
Dy3 Se1 2.900378 1_555
Dy3 Se41 2.907159 1_555
Dy3 Se34 3.015610 1_555
Dy3 Se11 3.021529 1_555
Dy3 Se23 3.035104 1_555
Dy3 Se28 3.156842 1_555
Dy4 Se12 2.904018 1_555
Dy4 Se39 2.912812 1_555
Dy4 Se2 2.920741 1_555
Dy4 Se35 2.944969 1_546
Dy4 Se9 2.956075 1_556
Dy4 Se21 3.029425 1_555
Dy4 Se29 3.053981 1_545
Dy5 Se13 2.872065 1_555
Dy5 Se40 2.928353 1_555
Dy5 Se0 2.938974 1_455
Dy5 Se33 2.982002 1_555
Dy5 Se10 2.982745 1_555
Dy5 Se27 3.021610 1_455
Dy5 Se22 3.053870 1_554
Dy5 Se28 3.371830 1_555
Dy6 Se8 2.872065 1_555
Dy6 Se33 2.928353 1_555
Dy6 Se1 2.938974 1_545
Dy6 Se38 2.982002 1_555
Dy6 Se14 2.982745 1_555
Dy6 Se31 3.021610 1_545
Dy6 Se15 3.053870 1_455
Dy6 Se32 3.371830 1_555
Dy7 Se6 2.888386 1_556
Dy7 Se2 2.900378 1_555
Dy7 Se34 2.907159 1_555
Dy7 Se36 3.015610 1_555
Dy7 Se12 3.021529 1_555
Dy7 Se16 3.035104 1_555
Dy7 Se32 3.156842 1_555
Dy8 Se7 2.904018 1_555
Dy8 Se35 2.912812 1_555
Dy8 Se0 2.920741 1_555
Dy8 Se37 2.944969 1_654
Dy8 Se13 2.956075 1_655
Dy8 Se17 3.029425 1_555
Dy8 Se30 3.053981 1_554
Dy9 Se19 2.867220 1_555
Dy9 Se4 2.914853 1_555
Dy9 Se28 2.922114 1_555
Dy9 Se32 2.924309 1_555
Dy9 Se16 3.001120 1_555
Dy9 Se33 3.037626 1_555
Dy9 Se10 3.069169 1_555
Dy10 Se20 2.873299 1_556
Dy10 Se29 2.929929 1_555
Dy10 Se5 2.937004 1_556
Dy10 Se17 2.991440 1_556
Dy10 Se30 2.992285 1_555
Dy10 Se34 3.031407 1_555
Dy10 Se11 3.058190 1_555
Dy10 Se35 3.367991 1_556
Dy11 Se27 2.893925 1_555
Dy11 Se3 2.908013 1_555
Dy11 Se18 2.926302 1_555
Dy11 Se15 2.962050 1_555
Dy11 Se9 2.990186 1_555
Dy11 Se31 3.028638 1_645
Dy11 Se35 3.165736 1_545
Dy12 Se22 2.873299 1_655
Dy12 Se30 2.929929 1_555
Dy12 Se4 2.937004 1_655
Dy12 Se19 2.991440 1_655
Dy12 Se25 2.992285 1_555
Dy12 Se36 3.031407 1_555
Dy12 Se12 3.058190 1_555
Dy12 Se37 3.367991 1_655
Dy13 Se31 2.893925 1_555
Dy13 Se5 2.908013 1_555
Dy13 Se23 2.926302 1_555
Dy13 Se20 2.962050 1_555
Dy13 Se13 2.990186 1_555
Dy13 Se26 3.028638 1_564
Dy13 Se37 3.165736 1_554
Dy14 Se21 2.867220 1_555
Dy14 Se3 2.914853 1_555
Dy14 Se32 2.922114 1_555
Dy14 Se24 2.924310 1_555
Dy14 Se18 3.001120 1_555
Dy14 Se38 3.037626 1_555
Dy14 Se14 3.069169 1_555
Dy15 Se26 2.893925 1_555
Dy15 Se4 2.908013 1_555
Dy15 Se16 2.926302 1_555
Dy15 Se22 2.962050 1_555
Dy15 Se8 2.990186 1_555
Dy15 Se27 3.028638 1_456
Dy15 Se39 3.165736 1_455
Dy16 Se17 2.867220 1_555
Dy16 Se5 2.914853 1_555
Dy16 Se24 2.922114 1_555
Dy16 Se28 2.924310 1_555
Dy16 Se23 3.001120 1_555
Dy16 Se40 3.037626 1_555
Dy16 Se6 3.069169 1_555
Dy17 Se15 2.873299 1_565
Dy17 Se25 2.929929 1_555
Dy17 Se3 2.937004 1_565
Dy17 Se21 2.991440 1_565
Dy17 Se29 2.992285 1_555
Dy17 Se41 3.031407 1_555
Dy17 Se7 3.058190 1_555
Dy17 Se39 3.367991 1_565
Al0 Se0 2.370063 1_555
Al0 Se12 2.390585 1_554
Al0 Se6 2.400064 1_555
Al0 Se9 2.404668 1_555
Al1 Se1 2.370063 1_555
Al1 Se7 2.390585 1_455
Al1 Se10 2.400064 1_555
Al1 Se13 2.404668 1_555
Al2 Se2 2.370063 1_555
Al2 Se11 2.390585 1_545
Al2 Se14 2.400064 1_555
Al2 Se8 2.404668 1_555
Al3 Se4 2.369674 1_655
Al3 Se15 2.395631 1_555
Al3 Se18 2.398188 1_555
Al3 Se21 2.402803 1_555
Al4 Se5 2.369674 1_556
Al4 Se22 2.395631 1_555
Al4 Se16 2.398188 1_555
Al4 Se19 2.402802 1_555
Al5 Se3 2.369674 1_565
Al5 Se20 2.395631 1_555
Al5 Se23 2.398188 1_555
Al5 Se17 2.402802 1_555
Al6 Se35 2.564596 1_556
Al6 Se37 2.564596 1_655
Al6 Se39 2.564597 1_565
Al6 Se25 2.637202 1_555
Al6 Se29 2.637202 1_555
Al6 Se30 2.637202 1_555
Al7 Se27 2.453871 1_455
Al7 Se26 2.453871 1_554
Al7 Se31 2.453872 1_545
Al7 Se33 2.808897 1_555
Al7 Se38 2.808897 1_555
Al7 Se40 2.808897 1_555
Al8 Se41 2.454034 1_555
Al8 Se36 2.454034 1_555
Al8 Se34 2.454034 1_555
Al8 Se30 2.815126 1_555
Al8 Se29 2.815126 1_555
Al8 Se25 2.815127 1_555
Al9 Se32 2.561931 1_555
Al9 Se28 2.561931 1_555
Al9 Se24 2.561931 1_555
Al9 Se40 2.637956 1_555
Al9 Se38 2.637956 1_555
Al9 Se33 2.637956 1_555
