# generated using pymatgen
data_Nd2Co5B2
_symmetry_space_group_name_H-M   'P 1'
_cell_length_a   5.18205445
_cell_length_b   5.18205445
_cell_length_c   20.10794100
_cell_angle_alpha   90.00000000
_cell_angle_beta   90.00000000
_cell_angle_gamma   120.01341073
_symmetry_Int_Tables_number   1
_chemical_formula_structural   Nd2Co5B2
_chemical_formula_sum   'Nd8 Co20 B8'
_cell_volume   467.56659337
_cell_formula_units_Z   4
loop_
 _symmetry_equiv_pos_site_id
 _symmetry_equiv_pos_as_xyz
  1  'x, y, z'
loop_
 _atom_site_type_symbol
 _atom_site_label
 _atom_site_symmetry_multiplicity
 _atom_site_fract_x
 _atom_site_fract_y
 _atom_site_fract_z
 _atom_site_occupancy
  Nd  Nd0  1  0.66659600  0.33340400  0.52088500  1
  Nd  Nd1  1  0.33340400  0.66659600  0.47911500  1
  Nd  Nd2  1  0.33340400  0.66659600  0.02088500  1
  Nd  Nd3  1  0.66659600  0.33340400  0.97911500  1
  Nd  Nd4  1  0.66666700  0.33333300  0.67460000  1
  Nd  Nd5  1  0.33333300  0.66666700  0.32540000  1
  Nd  Nd6  1  0.33333300  0.66666700  0.17460000  1
  Nd  Nd7  1  0.66666700  0.33333300  0.82540000  1
  Co  Co0  1  0.00000000  0.00000000  0.50000000  1
  Co  Co1  1  0.00000000  0.00000000  0.00000000  1
  Co  Co2  1  0.16805200  0.33614000  0.75000000  1
  Co  Co3  1  0.16806300  0.83193700  0.75000000  1
  Co  Co4  1  0.66386000  0.83194800  0.75000000  1
  Co  Co5  1  0.83194800  0.66386000  0.25000000  1
  Co  Co6  1  0.83193700  0.16806300  0.25000000  1
  Co  Co7  1  0.33614000  0.16805200  0.25000000  1
  Co  Co8  1  0.16053200  0.32119400  0.60852300  1
  Co  Co9  1  0.16049300  0.83950700  0.60854900  1
  Co  Co10  1  0.67880600  0.83946800  0.60852300  1
  Co  Co11  1  0.83946800  0.67880600  0.39147700  1
  Co  Co12  1  0.83950700  0.16049300  0.39145100  1
  Co  Co13  1  0.32119400  0.16053200  0.39147700  1
  Co  Co14  1  0.83946800  0.67880600  0.10852300  1
  Co  Co15  1  0.83950700  0.16049300  0.10854900  1
  Co  Co16  1  0.32119400  0.16053200  0.10852300  1
  Co  Co17  1  0.16053200  0.32119400  0.89147700  1
  Co  Co18  1  0.16049300  0.83950700  0.89145100  1
  Co  Co19  1  0.67880600  0.83946800  0.89147700  1
  B  B0  1  0.99995400  0.00004600  0.67890300  1
  B  B1  1  0.00004600  0.99995400  0.32109700  1
  B  B2  1  0.00004600  0.99995400  0.17890300  1
  B  B3  1  0.99995400  0.00004600  0.82109700  1
  B  B4  1  0.66667100  0.33332900  0.32539400  1
  B  B5  1  0.33332900  0.66667100  0.67460600  1
  B  B6  1  0.33332900  0.66667100  0.82539400  1
  B  B7  1  0.66667100  0.33332900  0.17460600  1
loop_
_geom_bond_atom_site_label_1
_geom_bond_atom_site_label_2
_geom_bond_distance
_geom_bond_site_symmetry_2
Nd0 Nd4 3.090892 1_555
Nd0 Nd1 3.106492 1_555
Nd0 Nd1 3.107741 1_655
Nd0 Nd1 3.107741 1_545
Nd1 Nd5 3.090892 1_555
Nd2 Nd6 3.090892 1_555
Nd2 Nd3 3.106492 1_554
Nd2 Nd3 3.107741 1_564
Nd2 Nd3 3.107741 1_454
Nd3 Nd7 3.090892 1_555
Nd4 Nd7 3.032278 1_555
Nd5 Nd6 3.032278 1_555
Co0 Co13 2.615168 1_555
Co0 Co11 2.615168 1_445
Co0 Co10 2.615168 1_445
Co0 Co8 2.615168 1_555
Co0 Co12 2.615251 1_455
Co0 Co9 2.615251 1_545
Co0 Nd1 3.020476 1_445
Co0 Nd0 3.020476 1_555
Co0 Nd0 3.020476 1_445
Co0 Nd1 3.020476 1_555
Co0 Nd1 3.022019 1_545
Co0 Nd0 3.022019 1_455
Co1 Co16 2.615168 1_555
Co1 Co14 2.615168 1_445
Co1 Co19 2.615168 1_444
Co1 Co17 2.615168 1_554
Co1 Co18 2.615251 1_544
Co1 Co15 2.615251 1_455
Co1 Nd3 3.020476 1_554
Co1 Nd2 3.020476 1_555
Co1 Nd2 3.020476 1_445
Co1 Nd3 3.020476 1_444
Co1 Nd3 3.022019 1_454
Co1 Nd2 3.022019 1_545
Co2 Nd4 3.001957 1_455
Co2 Nd7 3.001957 1_455
Co2 Nd7 3.002128 1_555
Co2 Nd4 3.002128 1_555
Co3 Nd4 3.001589 1_455
Co3 Nd7 3.001589 1_455
Co3 Nd7 3.001589 1_565
Co3 Nd4 3.001589 1_565
Co4 Nd7 3.001957 1_565
Co4 Nd4 3.001957 1_565
Co4 Nd7 3.002128 1_555
Co4 Nd4 3.002128 1_555
Co5 Nd6 3.001957 1_655
Co5 Nd5 3.001957 1_655
Co5 Nd6 3.002128 1_555
Co5 Nd5 3.002128 1_555
Co6 Nd6 3.001589 1_545
Co6 Nd6 3.001589 1_655
Co6 Nd5 3.001589 1_545
Co6 Nd5 3.001589 1_655
Co7 Nd5 3.001957 1_545
Co7 Nd6 3.001957 1_545
Co7 Nd6 3.002128 1_555
Co7 Nd5 3.002128 1_555
Co8 Nd4 2.912055 1_455
Co8 Nd4 2.912637 1_555
Co8 Nd1 3.028730 1_555
Co8 Nd0 3.133796 1_555
Co8 Nd0 3.134168 1_455
Co9 Nd4 2.911658 1_565
Co9 Nd4 2.911658 1_455
Co9 Nd1 3.030305 1_555
Co9 Nd0 3.133842 1_455
Co9 Nd0 3.133842 1_565
Co10 Nd4 2.912055 1_565
Co10 Nd4 2.912637 1_555
Co10 Nd1 3.028730 1_555
Co10 Nd0 3.133796 1_555
Co10 Nd0 3.134168 1_565
Co11 Nd5 2.912055 1_655
Co11 Nd5 2.912637 1_555
Co11 Nd0 3.028730 1_555
Co11 Nd1 3.133796 1_555
Co11 Nd1 3.134168 1_655
Co12 Nd5 2.911658 1_545
Co12 Nd5 2.911658 1_655
Co12 Nd0 3.030305 1_555
Co12 Nd1 3.133842 1_545
Co12 Nd1 3.133842 1_655
Co13 Nd5 2.912055 1_545
Co13 Nd5 2.912637 1_555
Co13 Nd0 3.028730 1_555
Co13 Nd1 3.133796 1_555
Co13 Nd1 3.134168 1_545
Co14 Nd6 2.912055 1_655
Co14 Nd6 2.912637 1_555
Co14 Nd3 3.028730 1_554
Co14 Nd2 3.133796 1_555
Co14 Nd2 3.134168 1_655
Co15 Nd6 2.911658 1_655
Co15 Nd6 2.911658 1_545
Co15 Nd3 3.030305 1_554
Co15 Nd2 3.133842 1_655
Co15 Nd2 3.133842 1_545
Co16 Nd6 2.912055 1_545
Co16 Nd6 2.912637 1_555
Co16 Nd3 3.028730 1_554
Co16 Nd2 3.133796 1_555
Co16 Nd2 3.134168 1_545
Co17 Nd7 2.912055 1_455
Co17 Nd7 2.912637 1_555
Co17 Nd2 3.028730 1_556
Co17 Nd3 3.133796 1_555
Co17 Nd3 3.134168 1_455
Co18 Nd7 2.911658 1_565
Co18 Nd7 2.911658 1_455
Co18 Nd2 3.030305 1_556
Co18 Nd3 3.133842 1_455
Co18 Nd3 3.133842 1_565
Co19 Nd7 2.912055 1_565
Co19 Nd7 2.912637 1_555
Co19 Nd2 3.028730 1_556
Co19 Nd3 3.133796 1_555
Co19 Nd3 3.134168 1_565
B0 Co9 2.019372 1_645
B0 Co10 2.019754 1_545
B0 Co8 2.019754 1_655
B0 Co2 2.078030 1_655
B0 Co4 2.078030 1_545
B0 Co3 2.078656 1_645
B0 Nd4 2.992898 1_555
B0 Nd4 2.992915 1_655
B0 Nd4 2.992915 1_545
B1 Co12 2.019372 1_465
B1 Co11 2.019754 1_455
B1 Co13 2.019754 1_565
B1 Co7 2.078030 1_565
B1 Co5 2.078030 1_455
B1 Co6 2.078656 1_465
B1 Nd5 2.992898 1_555
B1 Nd5 2.992915 1_565
B1 Nd5 2.992915 1_455
B2 Co15 2.019372 1_465
B2 Co14 2.019754 1_455
B2 Co16 2.019754 1_565
B2 Co5 2.078030 1_455
B2 Co7 2.078030 1_565
B2 Co6 2.078656 1_465
B2 Nd6 2.992898 1_555
B2 Nd6 2.992915 1_565
B2 Nd6 2.992915 1_455
B3 Co18 2.019372 1_645
B3 Co17 2.019754 1_655
B3 Co19 2.019754 1_545
B3 Co2 2.078030 1_655
B3 Co4 2.078030 1_545
B3 Co3 2.078656 1_645
B3 Nd7 2.992898 1_555
B3 Nd7 2.992915 1_655
B3 Nd7 2.992915 1_545
B4 Co11 2.041781 1_555
B4 Co13 2.041781 1_555
B4 Co12 2.042344 1_555
B4 Co7 2.120862 1_555
B4 Co5 2.120862 1_555
B4 Co6 2.121075 1_555
B4 Nd5 2.991435 1_545
B4 Nd5 2.991435 1_655
B4 Nd5 2.992105 1_555
B5 Co10 2.041781 1_555
B5 Co8 2.041781 1_555
B5 Co9 2.042344 1_555
B5 Co4 2.120862 1_555
B5 Co2 2.120862 1_555
B5 Co3 2.121075 1_555
B5 Nd4 2.991435 1_455
B5 Nd4 2.991435 1_565
B5 Nd4 2.992105 1_555
B6 Co19 2.041781 1_555
B6 Co17 2.041781 1_555
B6 Co18 2.042344 1_555
B6 Co4 2.120862 1_555
B6 Co2 2.120862 1_555
B6 Co3 2.121075 1_555
B6 Nd7 2.991435 1_455
B6 Nd7 2.991435 1_565
B6 Nd7 2.992105 1_555
B7 Co14 2.041781 1_555
B7 Co16 2.041781 1_555
B7 Co15 2.042344 1_555
B7 Co7 2.120862 1_555
B7 Co5 2.120862 1_555
B7 Co6 2.121075 1_555
B7 Nd6 2.991435 1_545
B7 Nd6 2.991435 1_655
B7 Nd6 2.992105 1_555
