# generated using pymatgen
data_LiFe2OF3
_symmetry_space_group_name_H-M   'P 1'
_cell_length_a   6.12475304
_cell_length_b   6.17325419
_cell_length_c   10.36117311
_cell_angle_alpha   90.32627474
_cell_angle_beta   90.19713358
_cell_angle_gamma   119.52535316
_symmetry_Int_Tables_number   1
_chemical_formula_structural   LiFe2OF3
_chemical_formula_sum   'Li4 Fe8 O4 F12'
_cell_volume   340.86423108
_cell_formula_units_Z   4
loop_
 _symmetry_equiv_pos_site_id
 _symmetry_equiv_pos_as_xyz
  1  'x, y, z'
loop_
 _atom_site_type_symbol
 _atom_site_label
 _atom_site_symmetry_multiplicity
 _atom_site_fract_x
 _atom_site_fract_y
 _atom_site_fract_z
 _atom_site_occupancy
  Li  Li0  1  0.33176300  0.66301400  0.01249600  1
  Li  Li1  1  0.33111100  0.66221800  0.51251900  1
  Li  Li2  1  0.66885400  0.33778200  0.48747200  1
  Li  Li3  1  0.66826300  0.33699900  0.98749500  1
  Fe  Fe0  1  0.99999800  0.99997100  0.50000900  1
  Fe  Fe1  1  0.49982600  0.99941800  0.24982000  1
  Fe  Fe2  1  0.50018700  0.00059400  0.75021500  1
  Fe  Fe3  1  0.00000000  0.99998500  0.00001500  1
  Fe  Fe4  1  0.99953600  0.50035400  0.25022800  1
  Fe  Fe5  1  0.00053900  0.49969400  0.74974600  1
  Fe  Fe6  1  0.50065600  0.50053700  0.25016200  1
  Fe  Fe7  1  0.49929700  0.49942500  0.74981700  1
  O  O0  1  0.32825500  0.65731100  0.33282100  1
  O  O1  1  0.32930700  0.65861000  0.83277100  1
  O  O2  1  0.67071000  0.34139200  0.16722400  1
  O  O3  1  0.67177500  0.34268100  0.66717500  1
  F  F0  1  0.82688800  0.65392500  0.39436200  1
  F  F1  1  0.83095700  0.65913800  0.89672700  1
  F  F2  1  0.16906600  0.34088000  0.10327100  1
  F  F3  1  0.17309900  0.34606900  0.60563300  1
  F  F4  1  0.18044800  0.83540300  0.10921800  1
  F  F5  1  0.18231100  0.83951900  0.60885900  1
  F  F6  1  0.65120200  0.83552200  0.11078400  1
  F  F7  1  0.65639300  0.83960800  0.60928900  1
  F  F8  1  0.81764100  0.16049000  0.39114300  1
  F  F9  1  0.81957600  0.16460400  0.89079200  1
  F  F10  1  0.34353400  0.16037500  0.39071400  1
  F  F11  1  0.34880900  0.16448000  0.88922200  1
loop_
_geom_bond_atom_site_label_1
_geom_bond_atom_site_label_2
_geom_bond_distance
_geom_bond_site_symmetry_2
Li0 O1 1.862106 1_554
Li1 O0 1.861838 1_555
Li2 O3 1.861888 1_555
Li3 O2 1.862148 1_556
Fe1 O2 2.033104 1_565
Fe1 O0 2.035574 1_555
Fe2 O1 2.032975 1_545
Fe2 O3 2.035652 1_555
Fe4 O0 1.944379 1_655
Fe4 O2 1.946604 1_555
Fe5 O3 1.944492 1_455
Fe5 O1 1.946422 1_555
Fe6 O0 1.946562 1_555
Fe6 O2 1.947699 1_555
Fe7 O3 1.946715 1_555
Fe7 O1 1.947653 1_555
F0 Li2 1.960217 1_555
F0 Fe0 2.149148 1_555
F0 Fe6 2.284694 1_555
F0 Fe4 2.286909 1_555
F1 Li3 1.976552 1_555
F1 Fe3 2.112860 1_656
F1 Fe5 2.316951 1_655
F1 Fe7 2.324443 1_555
F2 Li0 1.976564 1_555
F2 Fe3 2.112917 1_545
F2 Fe4 2.316696 1_455
F2 Fe6 2.324034 1_555
F3 Li1 1.960265 1_555
F3 Fe0 2.149268 1_445
F3 Fe7 2.284452 1_555
F3 Fe5 2.286619 1_555
F4 Li0 1.990492 1_555
F4 Fe3 2.155270 1_555
F4 Fe1 2.232782 1_555
F4 Fe4 2.329616 1_455
F5 Li1 2.000485 1_555
F5 Fe0 2.143384 1_455
F5 Fe2 2.231595 1_565
F5 Fe5 2.348476 1_555
F6 Li0 1.979745 1_555
F6 Fe3 2.191844 1_655
F6 Fe1 2.208095 1_555
F6 Fe6 2.318601 1_555
F7 Li1 1.999271 1_555
F7 Fe0 2.160259 1_555
F7 Fe2 2.228283 1_565
F7 Fe7 2.347103 1_555
F8 Li2 2.000327 1_555
F8 Fe0 2.143972 1_545
F8 Fe1 2.231129 1_545
F8 Fe4 2.348845 1_555
F9 Li3 1.990412 1_555
F9 Fe3 2.155436 1_646
F9 Fe2 2.232657 1_555
F9 Fe5 2.330032 1_655
F10 Li2 1.999384 1_555
F10 Fe0 2.160019 1_445
F10 Fe1 2.228292 1_545
F10 Fe6 2.347165 1_555
F11 Li3 1.979736 1_555
F11 Fe3 2.192023 1_546
F11 Fe2 2.207867 1_555
F11 Fe7 2.318619 1_555
