# generated using pymatgen
data_Al(FeO2)2
_symmetry_space_group_name_H-M   'P 1'
_cell_length_a   5.97035146
_cell_length_b   5.97035146
_cell_length_c   5.97035115
_cell_angle_alpha   59.09041515
_cell_angle_beta   59.09041515
_cell_angle_gamma   59.09041919
_symmetry_Int_Tables_number   1
_chemical_formula_structural   Al(FeO2)2
_chemical_formula_sum   'Al2 Fe4 O8'
_cell_volume   147.36148887
_cell_formula_units_Z   2
loop_
 _symmetry_equiv_pos_site_id
 _symmetry_equiv_pos_as_xyz
  1  'x, y, z'
loop_
 _atom_site_type_symbol
 _atom_site_label
 _atom_site_symmetry_multiplicity
 _atom_site_fract_x
 _atom_site_fract_y
 _atom_site_fract_z
 _atom_site_occupancy
  Al  Al0  1  0.62739000  0.62739000  0.62739000  1
  Al  Al1  1  0.37261000  0.37261000  0.37261000  1
  Fe  Fe0  1  0.50000000  0.00000000  0.00000000  1
  Fe  Fe1  1  0.00000000  0.00000000  0.00000000  1
  Fe  Fe2  1  0.00000000  0.50000000  0.00000000  1
  Fe  Fe3  1  0.00000000  0.00000000  0.50000000  1
  O  O0  1  0.75330100  0.25063800  0.75330100  1
  O  O1  1  0.24669900  0.24669900  0.74936200  1
  O  O2  1  0.74936200  0.24669900  0.24669900  1
  O  O3  1  0.25100600  0.25100600  0.25100600  1
  O  O4  1  0.75330100  0.75330100  0.25063800  1
  O  O5  1  0.24669900  0.74936200  0.24669900  1
  O  O6  1  0.25063800  0.75330100  0.75330100  1
  O  O7  1  0.74899400  0.74899400  0.74899400  1
loop_
_geom_bond_atom_site_label_1
_geom_bond_atom_site_label_2
_geom_bond_distance
_geom_bond_site_symmetry_2
Al0 O7 1.790502 1_555
Al0 O4 1.815474 1_555
Al0 O0 1.815474 1_555
Al0 O6 1.815474 1_555
Al1 O3 1.790502 1_555
Al1 O1 1.815474 1_555
Al1 O5 1.815474 1_555
Al1 O2 1.815474 1_555
Fe0 O3 2.105049 1_555
Fe0 O7 2.105049 1_544
Fe0 O0 2.113722 1_554
Fe0 O5 2.113722 1_545
Fe0 O4 2.113722 1_545
Fe0 O1 2.113722 1_554
Fe1 O4 2.068340 1_445
Fe1 O1 2.068340 1_554
Fe1 O2 2.068340 1_455
Fe1 O0 2.068340 1_454
Fe1 O5 2.068340 1_545
Fe1 O6 2.068340 1_544
Fe2 O3 2.105049 1_555
Fe2 O7 2.105049 1_454
Fe2 O6 2.113722 1_554
Fe2 O2 2.113722 1_455
Fe2 O4 2.113722 1_455
Fe2 O1 2.113722 1_554
Fe3 O3 2.105049 1_555
Fe3 O7 2.105049 1_445
Fe3 O6 2.113722 1_545
Fe3 O0 2.113722 1_455
Fe3 O2 2.113722 1_455
Fe3 O5 2.113722 1_545
