# generated using pymatgen
data_Li9Mn2Co5O16
_symmetry_space_group_name_H-M   'P 1'
_cell_length_a   2.98636500
_cell_length_b   7.79211377
_cell_length_c   12.54385555
_cell_angle_alpha   89.28281370
_cell_angle_beta   89.78720244
_cell_angle_gamma   81.41864629
_symmetry_Int_Tables_number   1
_chemical_formula_structural   Li9Mn2Co5O16
_chemical_formula_sum   'Li9 Mn2 Co5 O16'
_cell_volume   288.60582065
_cell_formula_units_Z   1
loop_
 _symmetry_equiv_pos_site_id
 _symmetry_equiv_pos_as_xyz
  1  'x, y, z'
loop_
 _atom_site_type_symbol
 _atom_site_label
 _atom_site_symmetry_multiplicity
 _atom_site_fract_x
 _atom_site_fract_y
 _atom_site_fract_z
 _atom_site_occupancy
  Li  Li0  1  0.18541100  0.62773700  0.06398500  1
  Li  Li1  1  0.94272400  0.12591600  0.31203900  1
  Li  Li2  1  0.68946200  0.62106300  0.57032200  1
  Li  Li3  1  0.81636000  0.37295400  0.93354700  1
  Li  Li4  1  0.56393300  0.87418200  0.19081600  1
  Li  Li5  1  0.30886900  0.37498600  0.43980700  1
  Li  Li6  1  0.42180200  0.13216000  0.80410500  1
  Li  Li7  1  0.07168300  0.86164000  0.68677200  1
  Li  Li8  1  0.23421800  0.50772400  0.74455400  1
  Mn  Mn0  1  0.00987000  0.00079300  0.00138200  1
  Mn  Mn1  1  0.63793300  0.74048500  0.87044800  1
  Co  Co0  1  0.73876500  0.50008000  0.25107000  1
  Co  Co1  1  0.50285500  0.00086800  0.50200300  1
  Co  Co2  1  0.36363600  0.25281000  0.12466400  1
  Co  Co3  1  0.12037300  0.75038500  0.37732700  1
  Co  Co4  1  0.87245100  0.25901500  0.62863600  1
  O  O0  1  0.63781000  0.81751000  0.02444500  1
  O  O1  1  0.32408200  0.31983700  0.27162700  1
  O  O2  1  0.08991900  0.81617500  0.52519300  1
  O  O3  1  0.20300800  0.58355200  0.90175400  1
  O  O4  1  0.99648700  0.07321300  0.14988600  1
  O  O5  1  0.70182000  0.56737000  0.39865300  1
  O  O6  1  0.85374900  0.29817500  0.76595300  1
  O  O7  1  0.50981700  0.06933000  0.64737200  1
  O  O8  1  0.73439900  0.43121600  0.10131200  1
  O  O9  1  0.54021400  0.93671700  0.35286300  1
  O  O10  1  0.26080100  0.41998200  0.59534200  1
  O  O11  1  0.37591700  0.18639100  0.97410600  1
  O  O12  1  0.15686700  0.68478600  0.22752400  1
  O  O13  1  0.91936700  0.18367200  0.48114700  1
  O  O14  1  0.06611300  0.91549700  0.85277900  1
  O  O15  1  0.64928500  0.69378000  0.72856400  1
loop_
_geom_bond_atom_site_label_1
_geom_bond_atom_site_label_2
_geom_bond_distance
_geom_bond_site_symmetry_2
Li0 O3 2.067337 1_554
Li0 O0 2.091166 1_455
Li0 O12 2.103183 1_555
Li0 O8 2.119099 1_555
Li0 O0 2.197906 1_555
Li0 O8 2.229604 1_455
Li1 O1 2.080238 1_655
Li1 O4 2.080982 1_555
Li1 O9 2.094269 1_545
Li1 O13 2.172695 1_555
Li1 O9 2.195984 1_645
Li1 O1 2.260122 1_555
Li2 O15 2.069212 1_555
Li2 O2 2.139650 1_655
Li2 O10 2.158372 1_655
Li2 O10 2.185302 1_555
Li2 O5 2.197921 1_555
Li2 O2 2.238580 1_555
Li3 O11 2.104133 1_655
Li3 O11 2.156238 1_555
Li3 O8 2.163683 1_556
Li3 O3 2.175056 1_655
Li3 O6 2.186563 1_555
Li3 O3 2.301970 1_555
Li4 O12 2.093327 1_555
Li4 O9 2.094691 1_555
Li4 O0 2.142323 1_555
Li4 O12 2.175919 1_655
Li4 O4 2.177776 1_465
Li4 O4 2.215955 1_565
Li5 O10 1.987459 1_555
Li5 O13 2.082759 1_455
Li5 O5 2.095693 1_555
Li5 O1 2.157176 1_555
Li5 O5 2.230872 1_455
Li5 O13 2.234222 1_555
Li6 O6 2.011051 1_555
Li6 O6 2.028770 1_455
Li6 O7 2.038609 1_555
Li6 O11 2.178962 1_555
Li6 O14 2.203603 1_545
Li6 O14 2.436976 1_645
Li7 O15 2.011758 1_455
Li7 O2 2.061039 1_555
Li7 O15 2.068157 1_555
Li7 O14 2.128892 1_555
Li7 O7 2.203301 1_465
Li7 O7 2.276482 1_565
Li8 O10 1.997927 1_555
Li8 O15 2.050777 1_555
Li8 O3 2.063380 1_555
Li8 O15 2.105472 1_455
Li8 O6 2.137662 1_455
Li8 O6 2.291812 1_555
Mn0 O4 1.951702 1_455
Mn0 O0 1.954156 1_445
Mn0 O11 1.964729 1_554
Mn0 O14 1.984950 1_544
Mn0 O0 2.198723 1_545
Mn0 O11 2.228938 1_454
Mn1 O15 1.820239 1_555
Mn1 O3 1.948005 1_555
Mn1 O3 1.968337 1_655
Mn1 O14 2.013613 1_655
Mn1 O0 2.029952 1_556
Mn1 O14 2.031066 1_555
Co0 O5 1.928673 1_555
Co0 O8 1.960748 1_555
Co0 O1 2.019969 1_555
Co0 O12 2.059272 1_655
Co0 O1 2.087125 1_655
Co0 O12 2.103633 1_555
Co1 O7 1.907372 1_555
Co1 O9 1.940978 1_545
Co1 O13 2.040006 1_555
Co1 O2 2.047676 1_545
Co1 O13 2.094544 1_455
Co1 O2 2.114186 1_645
Co2 O1 1.920738 1_555
Co2 O8 1.921213 1_555
Co2 O4 1.924827 1_455
Co2 O11 1.963215 1_554
Co2 O8 2.182613 1_455
Co2 O4 2.198729 1_555
Co3 O2 1.928738 1_555
Co3 O12 1.951948 1_555
Co3 O5 2.046350 1_455
Co3 O9 2.074489 1_555
Co3 O5 2.091721 1_555
Co3 O9 2.108582 1_455
Co4 O6 1.752296 1_555
Co4 O10 1.873512 1_655
Co4 O13 1.946230 1_555
Co4 O7 1.969708 1_555
Co4 O10 2.095939 1_555
Co4 O7 2.240061 1_655
