# generated using pymatgen
data_Nb4Cr
_symmetry_space_group_name_H-M   'P 1'
_cell_length_a   6.53121865
_cell_length_b   6.53121865
_cell_length_c   6.53121865
_cell_angle_alpha   60.00000000
_cell_angle_beta   60.00000000
_cell_angle_gamma   60.00000000
_symmetry_Int_Tables_number   1
_chemical_formula_structural   Nb4Cr
_chemical_formula_sum   'Nb8 Cr2'
_cell_volume   197.00065611
_cell_formula_units_Z   2
loop_
 _symmetry_equiv_pos_site_id
 _symmetry_equiv_pos_as_xyz
  1  'x, y, z'
loop_
 _atom_site_type_symbol
 _atom_site_label
 _atom_site_symmetry_multiplicity
 _atom_site_fract_x
 _atom_site_fract_y
 _atom_site_fract_z
 _atom_site_occupancy
  Nb  Nb0  1  0.60627100  0.60627100  0.60627100  1
  Nb  Nb1  1  0.18118700  0.60627100  0.60627100  1
  Nb  Nb2  1  0.60627100  0.18118700  0.60627100  1
  Nb  Nb3  1  0.56881300  0.14372900  0.14372900  1
  Nb  Nb4  1  0.14372900  0.14372900  0.14372900  1
  Nb  Nb5  1  0.60627100  0.60627100  0.18118700  1
  Nb  Nb6  1  0.14372900  0.56881300  0.14372900  1
  Nb  Nb7  1  0.14372900  0.14372900  0.56881300  1
  Cr  Cr0  1  0.00000000  0.00000000  0.00000000  1
  Cr  Cr1  1  0.75000000  0.75000000  0.75000000  1
loop_
_geom_bond_atom_site_label_1
_geom_bond_atom_site_label_2
_geom_bond_distance
_geom_bond_site_symmetry_2
Nb0 Nb1 2.776317 1_555
Nb0 Nb2 2.776317 1_555
Nb0 Nb5 2.776317 1_555
Nb0 Nb3 3.283886 1_565
Nb0 Nb6 3.283886 1_655
Nb0 Nb7 3.283886 1_655
Nb0 Nb7 3.283886 1_565
Nb0 Nb6 3.283886 1_556
Nb0 Nb3 3.283886 1_556
Nb1 Nb2 2.776317 1_555
Nb1 Nb5 2.776317 1_555
Nb1 Nb7 3.283886 1_555
Nb1 Nb4 3.283886 1_556
Nb1 Nb7 3.283886 1_565
Nb1 Nb4 3.283886 1_565
Nb1 Nb6 3.283886 1_556
Nb1 Nb6 3.283886 1_555
Nb2 Nb5 2.776317 1_555
Nb2 Nb7 3.283886 1_555
Nb2 Nb4 3.283886 1_655
Nb2 Nb4 3.283886 1_556
Nb2 Nb7 3.283886 1_655
Nb2 Nb3 3.283886 1_555
Nb2 Nb3 3.283886 1_556
Nb3 Nb4 2.776317 1_555
Nb3 Nb6 2.776317 1_555
Nb3 Nb7 2.776317 1_555
Nb3 Nb5 3.283886 1_545
Nb3 Nb5 3.283886 1_555
Nb4 Nb6 2.776317 1_555
Nb4 Nb7 2.776317 1_555
Nb4 Nb5 3.283886 1_455
Nb4 Nb5 3.283886 1_545
Nb5 Nb6 3.283886 1_655
Nb5 Nb6 3.283886 1_555
Nb6 Nb7 2.776317 1_555
Cr0 Nb6 2.299399 1_545
Cr0 Nb3 2.299399 1_455
Cr0 Nb7 2.299399 1_554
Cr0 Nb4 2.299399 1_555
Cr1 Nb1 2.299399 1_655
Cr1 Nb2 2.299399 1_565
Cr1 Nb5 2.299399 1_556
Cr1 Nb0 2.299399 1_555
