# generated using pymatgen
data_Zn3(PO6)2
_symmetry_space_group_name_H-M   'P 1'
_cell_length_a   5.11139700
_cell_length_b   5.96420793
_cell_length_c   7.64334771
_cell_angle_alpha   102.59033453
_cell_angle_beta   96.41100706
_cell_angle_gamma   90.28139775
_symmetry_Int_Tables_number   1
_chemical_formula_structural   Zn3(PO6)2
_chemical_formula_sum   'Zn3 P2 O12'
_cell_volume   225.88279158
_cell_formula_units_Z   1
loop_
 _symmetry_equiv_pos_site_id
 _symmetry_equiv_pos_as_xyz
  1  'x, y, z'
loop_
 _atom_site_type_symbol
 _atom_site_label
 _atom_site_symmetry_multiplicity
 _atom_site_fract_x
 _atom_site_fract_y
 _atom_site_fract_z
 _atom_site_occupancy
  Zn  Zn0  1  0.00000000  0.00000000  0.00000000  1
  Zn  Zn1  1  0.15360800  0.71434400  0.37872600  1
  Zn  Zn2  1  0.84639200  0.28565600  0.62127400  1
  P  P0  1  0.69842700  0.78580200  0.63038100  1
  P  P1  1  0.30157300  0.21419800  0.36961900  1
  O  O0  1  0.79414200  0.60489800  0.74258600  1
  O  O1  1  0.20585800  0.39510200  0.25741400  1
  O  O2  1  0.39393500  0.79533300  0.60741600  1
  O  O3  1  0.60606500  0.20466700  0.39258400  1
  O  O4  1  0.81729800  0.02476700  0.74224900  1
  O  O5  1  0.18270200  0.97523300  0.25775100  1
  O  O6  1  0.79387100  0.72274300  0.44333100  1
  O  O7  1  0.20612900  0.27725700  0.55666900  1
  O  O8  1  0.71738300  0.76267200  0.02654500  1
  O  O9  1  0.28261700  0.23732800  0.97345500  1
  O  O10  1  0.33545700  0.82987200  0.91136100  1
  O  O11  1  0.66454300  0.17012800  0.08863900  1
loop_
_geom_bond_atom_site_label_1
_geom_bond_atom_site_label_2
_geom_bond_distance
_geom_bond_site_symmetry_2
O0 P0 1.566489 1_555
O0 Zn2 1.961383 1_555
O1 P1 1.566489 1_555
O1 Zn1 1.961383 1_555
O2 P0 1.549377 1_555
O2 Zn1 1.986009 1_555
O3 P1 1.549377 1_555
O3 Zn2 1.986009 1_555
O4 P0 1.573460 1_545
O4 Zn2 1.988441 1_555
O4 Zn0 2.119552 1_656
O5 P1 1.573460 1_565
O5 Zn1 1.988441 1_555
O5 Zn0 2.119552 1_565
O6 P0 1.531863 1_555
O6 Zn1 1.954551 1_655
O7 P1 1.531863 1_555
O7 Zn2 1.954551 1_455
O8 Zn0 2.074145 1_665
O9 Zn0 2.074145 1_556
O10 Zn0 2.098913 1_566
O11 Zn0 2.098913 1_655
