# generated using pymatgen
data_BaSrPrSbO6
_symmetry_space_group_name_H-M   'P 1'
_cell_length_a   6.07417498
_cell_length_b   6.09740272
_cell_length_c   8.59730981
_cell_angle_alpha   90.26196403
_cell_angle_beta   90.38782358
_cell_angle_gamma   90.07426567
_symmetry_Int_Tables_number   1
_chemical_formula_structural   BaSrPrSbO6
_chemical_formula_sum   'Ba2 Sr2 Pr2 Sb2 O12'
_cell_volume   318.40500454
_cell_formula_units_Z   2
loop_
 _symmetry_equiv_pos_site_id
 _symmetry_equiv_pos_as_xyz
  1  'x, y, z'
loop_
 _atom_site_type_symbol
 _atom_site_label
 _atom_site_symmetry_multiplicity
 _atom_site_fract_x
 _atom_site_fract_y
 _atom_site_fract_z
 _atom_site_occupancy
  Ba  Ba0  1  0.50501780  0.52264864  0.25005549  1
  Ba  Ba1  1  0.49498220  0.47735136  0.74994451  1
  Sr  Sr0  1  0.99297761  0.03196044  0.25251944  1
  Sr  Sr1  1  0.00702239  0.96803956  0.74748056  1
  Pr  Pr0  1  0.00000000  0.50000000  0.00000000  1
  Pr  Pr1  1  0.50000000  0.00000000  0.50000000  1
  Sb  Sb0  1  0.50000000  0.00000000  0.00000000  1
  Sb  Sb1  1  0.00000000  0.50000000  0.50000000  1
  O  O0  1  0.23770668  0.19690942  0.95613370  1
  O  O1  1  0.26156447  0.70038202  0.52795272  1
  O  O2  1  0.76229332  0.80309058  0.04386630  1
  O  O3  1  0.73843553  0.29961798  0.47204728  1
  O  O4  1  0.29957700  0.73960114  0.96384580  1
  O  O5  1  0.19111791  0.23181500  0.54212158  1
  O  O6  1  0.70042300  0.26039886  0.03615420  1
  O  O7  1  0.80888209  0.76818500  0.45787842  1
  O  O8  1  0.41845893  0.99575172  0.22918834  1
  O  O9  1  0.06000993  0.46507743  0.27025549  1
  O  O10  1  0.58154107  0.00424828  0.77081166  1
  O  O11  1  0.93999007  0.53492257  0.72974451  1
loop_
_geom_bond_atom_site_label_1
_geom_bond_atom_site_label_2
_geom_bond_distance
_geom_bond_site_symmetry_2
Ba0 O6 2.712036 1_555
Ba0 O9 2.732096 1_555
Ba0 O3 2.737546 1_555
Ba0 O2 2.926909 1_555
Ba0 O8 2.938963 1_555
Ba0 O7 2.960440 1_555
Ba0 O1 3.016231 1_555
Ba0 O4 3.058485 1_554
Ba0 O8 3.258705 1_545
Ba1 O4 2.712036 1_555
Ba1 O11 2.732096 1_555
Ba1 O1 2.737546 1_555
Ba1 O0 2.926909 1_555
Ba1 O10 2.938963 1_555
Ba1 O5 2.960440 1_555
Ba1 O3 3.016231 1_555
Ba1 O6 3.058485 1_556
Ba1 O10 3.258705 1_565
O0 Sb0 2.030531 1_556
O0 Pr0 2.377027 1_556
O0 Sr1 2.658344 1_545
O0 Sr0 3.128110 1_456
O1 Sb1 2.015424 1_555
O1 Pr1 2.344083 1_565
O1 Sr1 2.938361 1_555
O2 Sb0 2.030531 1_565
O2 Pr0 2.377027 1_655
O2 Sr0 2.658344 1_565
O2 Sr1 3.128110 1_654
O3 Sb1 2.015424 1_655
O3 Pr1 2.344083 1_555
O3 Sr0 2.938361 1_555
O4 Sb0 2.021142 1_566
O4 Pr0 2.355236 1_556
O4 Sr1 2.922926 1_555
O5 Sb1 2.038975 1_555
O5 Pr1 2.379195 1_555
O5 Sr1 2.646196 1_545
O5 Sr0 3.010061 1_455
O6 Sb0 2.021142 1_555
O6 Pr0 2.355236 1_655
O6 Sr0 2.922926 1_555
O7 Sb1 2.038975 1_655
O7 Pr1 2.379195 1_565
O7 Sr0 2.646196 1_565
O7 Sr1 3.010061 1_655
O8 Sb0 2.035220 1_565
O8 Pr1 2.377088 1_565
O8 Sr0 2.603160 1_465
O9 Sb1 2.021303 1_555
O9 Pr0 2.360081 1_555
O9 Sr0 2.675073 1_455
O10 Sb0 2.035220 1_556
O10 Pr1 2.377088 1_555
O10 Sr1 2.603160 1_645
O11 Sb1 2.021303 1_655
O11 Pr0 2.360081 1_656
O11 Sr1 2.675073 1_655
