# generated using pymatgen
data_TlCr3Se5
_symmetry_space_group_name_H-M   'P 1'
_cell_length_a   10.35330050
_cell_length_b   10.35330050
_cell_length_c   12.73382252
_cell_angle_alpha   58.19035902
_cell_angle_beta   58.19035902
_cell_angle_gamma   20.63800092
_symmetry_Int_Tables_number   1
_chemical_formula_structural   TlCr3Se5
_chemical_formula_sum   'Tl2 Cr6 Se10'
_cell_volume   406.21947810
_cell_formula_units_Z   2
loop_
 _symmetry_equiv_pos_site_id
 _symmetry_equiv_pos_as_xyz
  1  'x, y, z'
loop_
 _atom_site_type_symbol
 _atom_site_label
 _atom_site_symmetry_multiplicity
 _atom_site_fract_x
 _atom_site_fract_y
 _atom_site_fract_z
 _atom_site_occupancy
  Tl  Tl0  1  0.26070900  0.26070900  0.82804300  1
  Tl  Tl1  1  0.73929100  0.73929100  0.17195700  1
  Cr  Cr0  1  0.50000000  0.50000000  0.00000000  1
  Cr  Cr1  1  0.50000000  0.50000000  0.50000000  1
  Cr  Cr2  1  0.16441500  0.16441500  0.61182300  1
  Cr  Cr3  1  0.83558500  0.83558500  0.38817700  1
  Cr  Cr4  1  0.98508700  0.98508700  0.77212300  1
  Cr  Cr5  1  0.01491300  0.01491300  0.22787700  1
  Se  Se0  1  0.07860700  0.07860700  0.84936500  1
  Se  Se1  1  0.92139300  0.92139300  0.15063500  1
  Se  Se2  1  0.40870900  0.40870900  0.91874000  1
  Se  Se3  1  0.59129100  0.59129100  0.08126000  1
  Se  Se4  1  0.57657300  0.57657300  0.60646300  1
  Se  Se5  1  0.42342700  0.42342700  0.39353700  1
  Se  Se6  1  0.74569000  0.74569000  0.61987000  1
  Se  Se7  1  0.25431000  0.25431000  0.38013000  1
  Se  Se8  1  0.91859400  0.91859400  0.65381000  1
  Se  Se9  1  0.08140600  0.08140600  0.34619000  1
loop_
_geom_bond_atom_site_label_1
_geom_bond_atom_site_label_2
_geom_bond_distance
_geom_bond_site_symmetry_2
Cr0 Se1 2.528190 1_455
Cr0 Se1 2.528190 1_545
Cr0 Se0 2.528190 1_654
Cr0 Se0 2.528190 1_564
Cr0 Se2 2.567374 1_554
Cr0 Se3 2.567374 1_555
Cr1 Se4 2.556804 1_555
Cr1 Se5 2.556804 1_555
Cr1 Se8 2.558380 1_455
Cr1 Se8 2.558380 1_545
Cr1 Se9 2.558380 1_565
Cr1 Se9 2.558380 1_655
Cr2 Se7 2.503745 1_555
Cr2 Se6 2.524500 1_455
Cr2 Se6 2.524500 1_545
Cr2 Se0 2.557236 1_555
Cr2 Se4 2.603313 1_455
Cr2 Se4 2.603313 1_545
Cr3 Se6 2.503745 1_555
Cr3 Se7 2.524500 1_655
Cr3 Se7 2.524500 1_565
Cr3 Se1 2.557236 1_555
Cr3 Se5 2.603313 1_565
Cr3 Se5 2.603313 1_655
Cr4 Se2 2.496667 1_565
Cr4 Se2 2.496667 1_655
Cr4 Se8 2.508264 1_555
Cr4 Se0 2.570020 1_665
Cr4 Se4 2.673970 1_565
Cr4 Se4 2.673970 1_655
Cr5 Se3 2.496667 1_545
Cr5 Se3 2.496667 1_455
Cr5 Se9 2.508264 1_555
Cr5 Se1 2.570020 1_445
Cr5 Se5 2.673970 1_455
Cr5 Se5 2.673970 1_545
Se6 Tl0 3.380689 1_565
Se6 Tl0 3.380689 1_655
Se7 Tl1 3.380689 1_455
Se7 Tl1 3.380689 1_545
Se8 Tl0 3.325734 1_565
Se8 Tl0 3.325734 1_655
Se9 Tl1 3.325734 1_545
Se9 Tl1 3.325734 1_455
