# generated using pymatgen
data_SrCa7Mn8O20
_symmetry_space_group_name_H-M   'P 1'
_cell_length_a   11.05731440
_cell_length_b   15.35908043
_cell_length_c   11.18269839
_cell_angle_alpha   90.02132382
_cell_angle_beta   91.45117318
_cell_angle_gamma   90.28348175
_symmetry_Int_Tables_number   1
_chemical_formula_structural   SrCa7Mn8O20
_chemical_formula_sum   'Sr4 Ca28 Mn32 O80'
_cell_volume   1898.52710226
_cell_formula_units_Z   4
loop_
 _symmetry_equiv_pos_site_id
 _symmetry_equiv_pos_as_xyz
  1  'x, y, z'
loop_
 _atom_site_type_symbol
 _atom_site_label
 _atom_site_symmetry_multiplicity
 _atom_site_fract_x
 _atom_site_fract_y
 _atom_site_fract_z
 _atom_site_occupancy
  Sr  Sr0  1  0.00644955  0.11639448  0.50441420  1
  Sr  Sr1  1  0.51411894  0.37636619  0.98884735  1
  Sr  Sr2  1  0.24048309  0.38704754  0.26417339  1
  Sr  Sr3  1  0.22994414  0.12078795  0.24990208  1
  Ca  Ca0  1  0.00242045  0.10945249  0.00708951  1
  Ca  Ca1  1  0.00335929  0.61148051  0.50787574  1
  Ca  Ca2  1  0.00081899  0.61213668  0.00994707  1
  Ca  Ca3  1  0.54123207  0.12928685  0.47996165  1
  Ca  Ca4  1  0.54504635  0.12864159  0.97996010  1
  Ca  Ca5  1  0.54312215  0.62972269  0.48177774  1
  Ca  Ca6  1  0.54412793  0.62860521  0.98262280  1
  Ca  Ca7  1  0.51681384  0.37348370  0.49030630  1
  Ca  Ca8  1  0.51663099  0.87252560  0.98862893  1
  Ca  Ca9  1  0.51813043  0.87381876  0.48947250  1
  Ca  Ca10  1  0.96137714  0.38398047  0.00547939  1
  Ca  Ca11  1  0.95787419  0.38352255  0.50389695  1
  Ca  Ca12  1  0.95809544  0.88206522  0.00587541  1
  Ca  Ca13  1  0.95927069  0.88339414  0.50465042  1
  Ca  Ca14  1  0.23236548  0.39512928  0.76622831  1
  Ca  Ca15  1  0.23191393  0.89223142  0.27372062  1
  Ca  Ca16  1  0.23185456  0.89110422  0.77061409  1
  Ca  Ca17  1  0.76053111  0.37772505  0.25849206  1
  Ca  Ca18  1  0.75685398  0.37354827  0.75661729  1
  Ca  Ca19  1  0.75593532  0.87403717  0.25827698  1
  Ca  Ca20  1  0.75243118  0.87466301  0.75450875  1
  Ca  Ca21  1  0.22852466  0.11730983  0.75123601  1
  Ca  Ca22  1  0.22777681  0.62025576  0.24447785  1
  Ca  Ca23  1  0.22489076  0.62108432  0.74637011  1
  Ca  Ca24  1  0.77679560  0.12254745  0.25062035  1
  Ca  Ca25  1  0.78338502  0.12238486  0.75394805  1
  Ca  Ca26  1  0.78150761  0.62278226  0.25343445  1
  Ca  Ca27  1  0.78090759  0.62230358  0.75412900  1
  Mn  Mn0  1  0.99171551  0.99519982  0.25330633  1
  Mn  Mn1  1  0.99462257  0.99409574  0.75665160  1
  Mn  Mn2  1  0.99640476  0.49769597  0.25569447  1
  Mn  Mn3  1  0.99343957  0.49654948  0.75419785  1
  Mn  Mn4  1  0.50589838  0.98792646  0.23018159  1
  Mn  Mn5  1  0.50694440  0.99010934  0.73647792  1
  Mn  Mn6  1  0.50873244  0.49674812  0.23633803  1
  Mn  Mn7  1  0.50226459  0.49266514  0.73237993  1
  Mn  Mn8  1  0.24278042  0.99774395  0.01795299  1
  Mn  Mn9  1  0.24861620  0.99726051  0.52619721  1
  Mn  Mn10  1  0.24194357  0.50410275  0.01751640  1
  Mn  Mn11  1  0.24312964  0.50246695  0.52087762  1
  Mn  Mn12  1  0.74483983  0.00096581  0.99603581  1
  Mn  Mn13  1  0.74387823  0.00250268  0.49737269  1
  Mn  Mn14  1  0.74874985  0.50334983  0.99823809  1
  Mn  Mn15  1  0.74379465  0.50283299  0.49912953  1
  Mn  Mn16  1  0.26830992  0.24499027  0.95552556  1
  Mn  Mn17  1  0.27150386  0.24708023  0.47676667  1
  Mn  Mn18  1  0.27029770  0.74403056  0.96001716  1
  Mn  Mn19  1  0.27276398  0.74299920  0.46069557  1
  Mn  Mn20  1  0.75921008  0.24690714  0.00251559  1
  Mn  Mn21  1  0.75307084  0.24788367  0.50394998  1
  Mn  Mn22  1  0.75707114  0.74726834  0.00268878  1
  Mn  Mn23  1  0.75658330  0.74683826  0.50331882  1
  Mn  Mn24  1  0.98975021  0.25299140  0.26258440  1
  Mn  Mn25  1  0.99668313  0.25293049  0.76273920  1
  Mn  Mn26  1  0.99503632  0.75246551  0.26218722  1
  Mn  Mn27  1  0.99352279  0.75258831  0.76026386  1
  Mn  Mn28  1  0.51649144  0.25159859  0.25194712  1
  Mn  Mn29  1  0.51347181  0.24733228  0.74861826  1
  Mn  Mn30  1  0.51366762  0.74653432  0.25025377  1
  Mn  Mn31  1  0.51350442  0.74610690  0.75071522  1
  O  O0  1  0.59195061  0.25061289  0.09740908  1
  O  O1  1  0.58958507  0.25483082  0.59407470  1
  O  O2  1  0.58857643  0.75534222  0.09320040  1
  O  O3  1  0.58792753  0.75509352  0.59353419  1
  O  O4  1  0.40027520  0.20107599  0.35806836  1
  O  O5  1  0.40212196  0.18708564  0.85221293  1
  O  O6  1  0.39981020  0.68230008  0.35053145  1
  O  O7  1  0.39932353  0.68410687  0.85289781  1
  O  O8  1  0.89380631  0.23952098  0.41108428  1
  O  O9  1  0.90819793  0.23321050  0.91832950  1
  O  O10  1  0.90556298  0.73358227  0.41842543  1
  O  O11  1  0.90612294  0.73394704  0.91785991  1
  O  O12  1  0.14337574  0.24878892  0.34292971  1
  O  O13  1  0.16574664  0.25454668  0.80071929  1
  O  O14  1  0.16212990  0.75263362  0.31049410  1
  O  O15  1  0.15983275  0.75281402  0.80997867  1
  O  O16  1  0.65600360  0.22636155  0.35701477  1
  O  O17  1  0.65918064  0.22896063  0.85477234  1
  O  O18  1  0.65980313  0.72717088  0.35612939  1
  O  O19  1  0.65956398  0.72545506  0.85636016  1
  O  O20  1  0.85696561  0.27356769  0.14907762  1
  O  O21  1  0.85982751  0.27126770  0.64831359  1
  O  O22  1  0.85680170  0.77299867  0.14970388  1
  O  O23  1  0.85567911  0.77312878  0.64991337  1
  O  O24  1  0.35715659  0.51425201  0.15555040  1
  O  O25  1  0.34536803  0.51132464  0.66657847  1
  O  O26  1  0.34994927  0.00249019  0.16067931  1
  O  O27  1  0.34759878  0.00222360  0.67579465  1
  O  O28  1  0.85807167  0.48394275  0.14500320  1
  O  O29  1  0.84702436  0.48141291  0.64050896  1
  O  O30  1  0.84574818  0.97999363  0.13620416  1
  O  O31  1  0.85631297  0.98252208  0.64571688  1
  O  O32  1  0.15421232  0.00595849  0.38010804  1
  O  O33  1  0.14675923  0.00729167  0.87074362  1
  O  O34  1  0.15074760  0.51209993  0.36958909  1
  O  O35  1  0.15094146  0.51193481  0.87009616  1
  O  O36  1  0.62380871  0.02661620  0.34247450  1
  O  O37  1  0.63362094  0.02645688  0.84514203  1
  O  O38  1  0.63307089  0.52771352  0.34933643  1
  O  O39  1  0.62526866  0.52143497  0.84844937  1
  O  O40  1  0.88000971  0.01389737  0.38744641  1
  O  O41  1  0.88606288  0.01555492  0.89359860  1
  O  O42  1  0.88641388  0.51622603  0.39388208  1
  O  O43  1  0.88632512  0.51813520  0.89138493  1
  O  O44  1  0.09879504  0.47589851  0.12212809  1
  O  O45  1  0.09585849  0.47153919  0.62179923  1
  O  O46  1  0.09838025  0.97172978  0.12369503  1
  O  O47  1  0.09998132  0.96888435  0.62648415  1
  O  O48  1  0.60499757  0.49931355  0.09386288  1
  O  O49  1  0.59111699  0.49659338  0.58501925  1
  O  O50  1  0.59264584  0.99499412  0.08239788  1
  O  O51  1  0.59205496  0.99625841  0.58588718  1
  O  O52  1  0.99082106  0.37747903  0.29498482  1
  O  O53  1  0.99073763  0.37532399  0.79902662  1
  O  O54  1  0.99183745  0.87438127  0.29767284  1
  O  O55  1  0.98969194  0.87499187  0.79994404  1
  O  O56  1  0.48115903  0.37723709  0.28041755  1
  O  O57  1  0.47065855  0.37227266  0.77064966  1
  O  O58  1  0.47739842  0.87265377  0.28559626  1
  O  O59  1  0.48513297  0.87236977  0.78464016  1
  O  O60  1  0.99585828  0.12743483  0.21974327  1
  O  O61  1  0.00307119  0.12557429  0.72832839  1
  O  O62  1  0.99978527  0.62711401  0.22142570  1
  O  O63  1  0.99833231  0.62775870  0.71788280  1
  O  O64  1  0.22000634  0.13114666  0.03019362  1
  O  O65  1  0.23919193  0.12861168  0.54515878  1
  O  O66  1  0.21555586  0.63383856  0.03841337  1
  O  O67  1  0.21830807  0.63231100  0.53975896  1
  O  O68  1  0.75267782  0.12373576  0.03895311  1
  O  O69  1  0.75131046  0.12584327  0.54135147  1
  O  O70  1  0.75454039  0.62694218  0.04146364  1
  O  O71  1  0.75065429  0.62534587  0.54376874  1
  O  O72  1  0.30053200  0.37926568  0.49345066  1
  O  O73  1  0.28596950  0.37711712  0.98824285  1
  O  O74  1  0.30141031  0.87495646  0.48931457  1
  O  O75  1  0.29827844  0.87607610  0.98107612  1
  O  O76  1  0.73807602  0.37683066  0.46644294  1
  O  O77  1  0.74805076  0.37511389  0.96650950  1
  O  O78  1  0.74136910  0.87479154  0.46734415  1
  O  O79  1  0.74037949  0.87527003  0.96223981  1
loop_
_geom_bond_atom_site_label_1
_geom_bond_atom_site_label_2
_geom_bond_distance
_geom_bond_site_symmetry_2
Ca0 O41 2.289870 1_454
Ca0 O9 2.377468 1_454
Ca0 O60 2.396890 1_455
Ca0 O64 2.434487 1_555
Ca0 O46 2.693477 1_545
Ca0 O33 2.735011 1_554
Ca0 O68 2.802972 1_455
Ca1 O42 2.309534 1_455
Ca1 O63 2.363706 1_455
Ca1 O10 2.377737 1_455
Ca1 O67 2.414109 1_555
Ca1 O45 2.691969 1_555
Ca1 O34 2.743680 1_555
Ca1 O71 2.841982 1_455
Ca2 O43 2.310967 1_454
Ca2 O11 2.371348 1_454
Ca2 O62 2.376299 1_455
Ca2 O66 2.409166 1_555
Ca2 O44 2.661102 1_555
Ca2 O70 2.765197 1_455
Ca2 O35 2.779349 1_554
Ca2 O28 2.956563 1_455
Ca3 O4 2.326705 1_555
Ca3 O1 2.363427 1_555
Ca3 O36 2.401622 1_555
Ca3 O69 2.406332 1_555
Ca3 O16 2.407282 1_555
Ca3 O51 2.423430 1_545
Ca4 O5 2.290137 1_555
Ca4 O0 2.336140 1_556
Ca4 O68 2.374201 1_556
Ca4 O37 2.404915 1_555
Ca4 O50 2.405150 1_546
Ca4 O17 2.449174 1_555
Ca5 O6 2.283216 1_555
Ca5 O3 2.339351 1_555
Ca5 O71 2.381583 1_555
Ca5 O38 2.392862 1_555
Ca5 O49 2.403537 1_555
Ca5 O18 2.439931 1_555
Ca6 O7 2.300346 1_555
Ca6 O2 2.348977 1_556
Ca6 O70 2.402026 1_556
Ca6 O39 2.417979 1_555
Ca6 O19 2.430975 1_555
Ca6 O48 2.432388 1_556
Ca7 O1 2.298685 1_555
Ca7 O49 2.304601 1_555
Ca7 O56 2.370906 1_555
Ca7 O72 2.394731 1_555
Ca7 O76 2.468071 1_555
Ca8 O2 2.282177 1_556
Ca8 O50 2.298355 1_556
Ca8 O59 2.298842 1_555
Ca8 O75 2.414617 1_555
Ca8 O79 2.499156 1_555
Ca9 O3 2.290199 1_555
Ca9 O51 2.303425 1_555
Ca9 O58 2.312776 1_555
Ca9 O74 2.396449 1_555
Ca9 O78 2.486992 1_555
Ca10 O53 2.343358 1_554
Ca10 O77 2.391064 1_554
Ca10 O44 2.424975 1_655
Ca10 O28 2.490436 1_555
Ca10 O43 2.554888 1_554
Ca10 O9 2.571728 1_554
Ca10 O20 2.619917 1_555
Ca11 O52 2.375384 1_555
Ca11 O45 2.402105 1_655
Ca11 O76 2.457369 1_555
Ca11 O29 2.491602 1_555
Ca11 O42 2.502147 1_555
Ca11 O8 2.533059 1_555
Ca11 O21 2.613111 1_555
Ca12 O55 2.340514 1_554
Ca12 O46 2.431591 1_655
Ca12 O79 2.445880 1_554
Ca12 O30 2.457264 1_555
Ca12 O41 2.526239 1_564
Ca12 O11 2.535979 1_554
Ca12 O22 2.592731 1_555
Ca13 O54 2.355532 1_555
Ca13 O47 2.423256 1_655
Ca13 O78 2.437752 1_555
Ca13 O31 2.491772 1_555
Ca13 O40 2.542585 1_565
Ca13 O10 2.555916 1_555
Ca13 O23 2.626045 1_555
Ca14 O13 2.313630 1_555
Ca14 O35 2.333593 1_555
Ca14 O25 2.457229 1_555
Ca14 O45 2.481860 1_555
Ca14 O73 2.553303 1_555
Ca14 O57 2.659108 1_555
Ca14 O53 2.721581 1_455
Ca15 O32 2.295593 1_565
Ca15 O14 2.315601 1_555
Ca15 O26 2.496504 1_565
Ca15 O46 2.525779 1_555
Ca15 O74 2.526283 1_555
Ca15 O54 2.687505 1_455
Ca15 O58 2.732373 1_555
Ca16 O15 2.311085 1_555
Ca16 O33 2.322102 1_565
Ca16 O27 2.392387 1_565
Ca16 O75 2.458937 1_555
Ca16 O47 2.459836 1_555
Ca16 O55 2.716010 1_455
Ca16 O59 2.817162 1_555
Ca17 O20 2.296698 1_555
Ca17 O28 2.342825 1_555
Ca17 O76 2.344952 1_555
Ca17 O52 2.568678 1_555
Ca17 O16 2.827409 1_555
Ca18 O21 2.305913 1_555
Ca18 O29 2.339964 1_555
Ca18 O77 2.351759 1_555
Ca18 O53 2.617417 1_555
Ca18 O17 2.709428 1_555
Ca18 O39 2.904733 1_555
Ca19 O22 2.282681 1_555
Ca19 O78 2.347570 1_555
Ca19 O30 2.356368 1_555
Ca19 O54 2.634341 1_555
Ca19 O18 2.729951 1_555
Ca19 O40 2.907104 1_565
Ca20 O23 2.277565 1_555
Ca20 O79 2.330198 1_555
Ca20 O31 2.365865 1_555
Ca20 O55 2.659532 1_555
Ca20 O19 2.764322 1_555
Ca21 O13 2.294358 1_555
Ca21 O65 2.317029 1_555
Ca21 O33 2.346600 1_555
Ca21 O27 2.376536 1_555
Ca21 O5 2.444815 1_555
Ca21 O61 2.503427 1_555
Ca22 O14 2.290510 1_555
Ca22 O66 2.314456 1_555
Ca22 O34 2.343175 1_555
Ca22 O24 2.404205 1_555
Ca22 O6 2.408327 1_555
Ca22 O62 2.530334 1_455
Ca22 O44 2.947807 1_555
Ca23 O15 2.270735 1_555
Ca23 O67 2.316291 1_555
Ca23 O35 2.332130 1_555
Ca23 O25 2.343943 1_555
Ca23 O7 2.437310 1_555
Ca23 O63 2.519882 1_455
Ca24 O68 2.375352 1_555
Ca24 O16 2.417030 1_555
Ca24 O60 2.456158 1_555
Ca24 O36 2.480345 1_555
Ca24 O40 2.522050 1_555
Ca24 O30 2.660095 1_545
Ca24 O20 2.736431 1_555
Ca24 O8 2.824663 1_555
Ca25 O69 2.395459 1_555
Ca25 O17 2.436417 1_555
Ca25 O37 2.452671 1_555
Ca25 O61 2.453422 1_655
Ca25 O41 2.520041 1_555
Ca25 O31 2.606602 1_545
Ca25 O21 2.715204 1_555
Ca25 O9 2.833212 1_555
Ca26 O70 2.382503 1_555
Ca26 O18 2.408045 1_555
Ca26 O62 2.449496 1_555
Ca26 O38 2.458197 1_555
Ca26 O42 2.533612 1_555
Ca26 O28 2.608116 1_555
Ca26 O22 2.719139 1_555
Ca26 O10 2.833417 1_555
Ca27 O71 2.368170 1_555
Ca27 O19 2.390529 1_555
Ca27 O63 2.449196 1_555
Ca27 O43 2.490791 1_555
Ca27 O39 2.557561 1_555
Ca27 O29 2.625296 1_555
Ca27 O23 2.727625 1_555
Ca27 O11 2.838215 1_555
Mn0 O54 1.921018 1_555
Mn0 O46 1.926698 1_655
Mn0 O40 1.988790 1_565
Mn0 O30 2.064798 1_555
Mn0 O60 2.066030 1_565
Mn0 O32 2.265886 1_665
Mn1 O55 1.893355 1_555
Mn1 O47 1.927669 1_655
Mn1 O31 1.952043 1_555
Mn1 O41 1.997871 1_565
Mn1 O61 2.046237 1_665
Mn1 O33 2.094394 1_665
Mn2 O52 1.899206 1_555
Mn2 O44 1.927133 1_655
Mn2 O28 1.953765 1_555
Mn2 O42 2.011573 1_555
Mn2 O62 2.024828 1_555
Mn2 O34 2.114149 1_655
Mn3 O45 1.926389 1_655
Mn3 O53 1.928684 1_555
Mn3 O43 1.990423 1_555
Mn3 O29 2.045289 1_555
Mn3 O63 2.056631 1_555
Mn3 O35 2.156378 1_655
Mn4 O36 1.881136 1_565
Mn4 O26 1.887765 1_565
Mn4 O58 1.903448 1_555
Mn4 O50 1.934524 1_555
Mn5 O27 1.882103 1_565
Mn5 O59 1.903007 1_555
Mn5 O37 1.912010 1_565
Mn5 O51 1.951917 1_555
Mn6 O38 1.902169 1_555
Mn6 O24 1.904061 1_555
Mn6 O56 1.925626 1_555
Mn6 O48 1.938703 1_555
Mn7 O25 1.890432 1_555
Mn7 O39 1.906318 1_555
Mn7 O57 1.930360 1_555
Mn7 O49 1.940597 1_555
Mn8 O33 1.942151 1_564
Mn8 O26 1.964746 1_565
Mn8 O75 2.015513 1_554
Mn8 O46 2.048647 1_555
Mn8 O64 2.070498 1_565
Mn9 O32 1.921335 1_565
Mn9 O27 1.977030 1_565
Mn9 O74 2.015450 1_555
Mn9 O65 2.031930 1_565
Mn9 O47 2.058008 1_555
Mn10 O35 1.913648 1_554
Mn10 O24 1.981962 1_555
Mn10 O66 2.029568 1_555
Mn10 O44 2.036894 1_555
Mn10 O73 2.040865 1_554
Mn11 O34 1.960033 1_555
Mn11 O25 1.963728 1_555
Mn11 O72 2.024571 1_555
Mn11 O67 2.026110 1_555
Mn11 O45 2.058378 1_555
Mn12 O30 1.928987 1_546
Mn12 O68 1.946551 1_556
Mn12 O50 1.963153 1_546
Mn12 O79 1.967217 1_545
Mn12 O41 1.971851 1_555
Mn12 O37 2.100743 1_555
Mn13 O69 1.957827 1_555
Mn13 O51 1.972266 1_545
Mn13 O40 1.974535 1_555
Mn13 O78 1.989878 1_545
Mn13 O31 2.071568 1_545
Mn13 O36 2.188406 1_555
Mn14 O48 1.938829 1_556
Mn14 O70 1.959007 1_556
Mn14 O43 1.970358 1_555
Mn14 O77 2.001102 1_555
Mn14 O28 2.036453 1_556
Mn14 O39 2.153002 1_555
Mn15 O71 1.947216 1_555
Mn15 O29 1.955352 1_555
Mn15 O49 1.965283 1_555
Mn15 O76 1.969773 1_555
Mn15 O42 2.001347 1_555
Mn15 O38 2.086174 1_555
Mn16 O64 2.013525 1_556
Mn16 O13 2.051086 1_555
Mn16 O73 2.069334 1_555
Mn16 O5 2.100898 1_555
Mn17 O65 2.007948 1_555
Mn17 O12 2.034911 1_555
Mn17 O72 2.061546 1_555
Mn17 O4 2.096078 1_555
Mn18 O66 2.004290 1_556
Mn18 O15 2.055057 1_555
Mn18 O75 2.062549 1_555
Mn18 O7 2.101466 1_555
Mn19 O67 2.013073 1_555
Mn19 O14 2.058531 1_555
Mn19 O74 2.073275 1_555
Mn19 O6 2.111872 1_555
Mn20 O9 1.930368 1_554
Mn20 O68 1.936715 1_555
Mn20 O20 1.981824 1_555
Mn20 O17 1.983201 1_554
Mn20 O77 2.013785 1_554
Mn20 O0 2.156419 1_555
Mn21 O8 1.897449 1_555
Mn21 O69 1.920788 1_555
Mn21 O16 1.966696 1_555
Mn21 O21 2.006862 1_555
Mn21 O76 2.031297 1_555
Mn21 O1 2.095008 1_555
Mn22 O70 1.898675 1_555
Mn22 O11 1.934009 1_554
Mn22 O19 1.964430 1_554
Mn22 O22 1.994602 1_555
Mn22 O79 2.025784 1_554
Mn22 O2 2.146788 1_555
Mn23 O71 1.921413 1_555
Mn23 O10 1.933578 1_555
Mn23 O18 1.962874 1_555
Mn23 O23 1.988771 1_555
Mn23 O78 2.013147 1_555
Mn23 O3 2.146898 1_555
Mn24 O12 1.902836 1_655
Mn24 O20 1.943517 1_555
Mn24 O52 1.945833 1_555
Mn24 O60 1.988762 1_555
Mn24 O8 2.003317 1_555
Mn25 O13 1.906550 1_655
Mn25 O53 1.924795 1_555
Mn25 O21 1.978135 1_555
Mn25 O61 1.995363 1_655
Mn25 O9 2.039614 1_555
Mn26 O14 1.911772 1_655
Mn26 O54 1.914639 1_555
Mn26 O62 1.979598 1_555
Mn26 O22 1.981337 1_555
Mn26 O10 2.049530 1_555
Mn27 O15 1.907602 1_655
Mn27 O55 1.932417 1_555
Mn27 O23 1.963475 1_555
Mn27 O63 1.976099 1_555
Mn27 O11 2.050779 1_555
Mn28 O4 1.931279 1_555
Mn28 O0 1.938056 1_555
Mn28 O16 1.955733 1_555
Mn28 O56 1.997751 1_555
Mn29 O5 1.943190 1_555
Mn29 O1 1.944518 1_555
Mn29 O57 1.995443 1_555
Mn29 O17 1.998118 1_555
Mn30 O2 1.965105 1_555
Mn30 O6 1.968713 1_555
Mn30 O18 2.002345 1_555
Mn30 O58 2.021003 1_555
Mn31 O3 1.964206 1_555
Mn31 O7 1.966849 1_555
Mn31 O19 2.003329 1_555
Mn31 O59 2.003660 1_555
O0 Sr1 2.431105 1_554
O4 Sr3 2.528142 1_555
O8 Sr0 2.485126 1_655
O12 Sr3 2.435382 1_555
O12 Sr2 2.542571 1_555
O12 Sr0 3.130341 1_555
O24 Sr2 2.648235 1_555
O26 Sr3 2.479338 1_555
O31 Sr0 3.095497 1_665
O32 Sr3 2.445592 1_555
O32 Sr0 2.760362 1_555
O34 Sr2 2.477829 1_555
O39 Sr1 3.002207 1_555
O40 Sr0 2.455180 1_655
O44 Sr2 2.595521 1_555
O47 Sr0 2.831965 1_565
O48 Sr1 2.423754 1_554
O52 Sr2 2.793811 1_655
O56 Sr2 2.667836 1_555
O57 Sr1 2.475656 1_555
O60 Sr3 2.604266 1_655
O60 Sr0 3.187185 1_655
O61 Sr0 2.509112 1_555
O64 Sr3 2.461849 1_555
O65 Sr0 2.607971 1_555
O69 Sr0 2.865940 1_655
O72 Sr2 2.635094 1_555
O73 Sr1 2.522641 1_555
O73 Sr2 3.142685 1_556
O77 Sr1 2.605145 1_555
