# generated using pymatgen
data_Sr7CaTi3Mn5O20
_symmetry_space_group_name_H-M   'P 1'
_cell_length_a   11.18942934
_cell_length_b   11.34140379
_cell_length_c   17.84619937
_cell_angle_alpha   108.43728845
_cell_angle_beta   108.42607313
_cell_angle_gamma   90.07836604
_symmetry_Int_Tables_number   1
_chemical_formula_structural   Sr7CaTi3Mn5O20
_chemical_formula_sum   'Sr28 Ca4 Ti12 Mn20 O80'
_cell_volume   2025.39306141
_cell_formula_units_Z   4
loop_
 _symmetry_equiv_pos_site_id
 _symmetry_equiv_pos_as_xyz
  1  'x, y, z'
loop_
 _atom_site_type_symbol
 _atom_site_label
 _atom_site_symmetry_multiplicity
 _atom_site_fract_x
 _atom_site_fract_y
 _atom_site_fract_z
 _atom_site_occupancy
  Sr  Sr0  1  0.30521100  0.06500400  0.61190100  1
  Sr  Sr1  1  0.30224200  0.55810000  0.61206700  1
  Sr  Sr2  1  0.81020400  0.06212000  0.60965300  1
  Sr  Sr3  1  0.80913400  0.56499100  0.11310600  1
  Sr  Sr4  1  0.81287000  0.56103000  0.61025300  1
  Sr  Sr5  1  0.19402100  0.43571900  0.38909100  1
  Sr  Sr6  1  0.19560500  0.43817200  0.89015200  1
  Sr  Sr7  1  0.19355200  0.93964100  0.38669500  1
  Sr  Sr8  1  0.19805900  0.93964800  0.89056600  1
  Sr  Sr9  1  0.69897800  0.43875300  0.38893000  1
  Sr  Sr10  1  0.69689900  0.44086800  0.88919900  1
  Sr  Sr11  1  0.69781000  0.93667100  0.38846800  1
  Sr  Sr12  1  0.69351600  0.93939200  0.88807600  1
  Sr  Sr13  1  0.05969100  0.29661900  0.11291700  1
  Sr  Sr14  1  0.06280000  0.30012100  0.61069900  1
  Sr  Sr15  1  0.05871700  0.79996600  0.61119700  1
  Sr  Sr16  1  0.55382600  0.29686300  0.11159900  1
  Sr  Sr17  1  0.55422200  0.29852700  0.61084600  1
  Sr  Sr18  1  0.56042800  0.79920500  0.11181200  1
  Sr  Sr19  1  0.55929100  0.80234300  0.61087800  1
  Sr  Sr20  1  0.44560200  0.19989100  0.38510100  1
  Sr  Sr21  1  0.43850200  0.19964700  0.88765400  1
  Sr  Sr22  1  0.44747300  0.69733400  0.38604600  1
  Sr  Sr23  1  0.44229900  0.69942400  0.88842200  1
  Sr  Sr24  1  0.94802500  0.19946900  0.38694800  1
  Sr  Sr25  1  0.95181700  0.20358400  0.89140600  1
  Sr  Sr26  1  0.94575800  0.69736000  0.38657600  1
  Sr  Sr27  1  0.94892900  0.69904500  0.89084500  1
  Ca  Ca0  1  0.29901800  0.06973600  0.11127600  1
  Ca  Ca1  1  0.30174100  0.56111900  0.11055300  1
  Ca  Ca2  1  0.80275000  0.06417300  0.10696000  1
  Ca  Ca3  1  0.04972700  0.79589100  0.10986100  1
  Ti  Ti0  1  0.00142600  0.99982300  0.99930300  1
  Ti  Ti1  1  0.00614200  0.49995700  0.00390600  1
  Ti  Ti2  1  0.50227200  0.99976700  0.00286000  1
  Ti  Ti3  1  0.50138100  0.00077800  0.49883100  1
  Ti  Ti4  1  0.50037500  0.50228900  0.00245000  1
  Ti  Ti5  1  0.50497000  0.50275100  0.50447100  1
  Ti  Ti6  1  0.25421900  0.75276000  0.00924200  1
  Ti  Ti7  1  0.25312400  0.74989000  0.49991300  1
  Ti  Ti8  1  0.74797300  0.25001100  0.99779000  1
  Ti  Ti9  1  0.75557700  0.24877000  0.49898000  1
  Ti  Ti10  1  0.75258300  0.75083000  0.99751300  1
  Ti  Ti11  1  0.75547000  0.75014000  0.49991000  1
  Mn  Mn0  1  0.00339700  0.99925200  0.49864500  1
  Mn  Mn1  1  0.00276000  0.49934600  0.49853900  1
  Mn  Mn2  1  0.25517000  0.25152500  0.00362700  1
  Mn  Mn3  1  0.25187000  0.24828400  0.49927900  1
  Mn  Mn4  1  0.10500800  0.08886900  0.24376700  1
  Mn  Mn5  1  0.10852100  0.09536400  0.75070800  1
  Mn  Mn6  1  0.11835100  0.59574000  0.24997800  1
  Mn  Mn7  1  0.11244400  0.59934800  0.75495100  1
  Mn  Mn8  1  0.60895100  0.09601500  0.24788000  1
  Mn  Mn9  1  0.61253400  0.09708000  0.74932500  1
  Mn  Mn10  1  0.61061300  0.59287100  0.24793500  1
  Mn  Mn11  1  0.61192600  0.59635900  0.75002300  1
  Mn  Mn12  1  0.36103000  0.40260100  0.25096000  1
  Mn  Mn13  1  0.36656300  0.40549500  0.75267800  1
  Mn  Mn14  1  0.35656900  0.90401200  0.24731400  1
  Mn  Mn15  1  0.36538000  0.90412300  0.75011600  1
  Mn  Mn16  1  0.85752000  0.39828200  0.24556100  1
  Mn  Mn17  1  0.86191200  0.40540100  0.74987100  1
  Mn  Mn18  1  0.85872700  0.90695500  0.24507700  1
  Mn  Mn19  1  0.86238100  0.90525800  0.75030900  1
  O  O0  1  0.12058700  0.11745800  0.49319400  1
  O  O1  1  0.12224700  0.11368600  0.99647900  1
  O  O2  1  0.12662700  0.62274600  0.49226900  1
  O  O3  1  0.12841300  0.62521000  0.99348400  1
  O  O4  1  0.62499300  0.12276200  0.49052800  1
  O  O5  1  0.62842500  0.12345100  0.99170700  1
  O  O6  1  0.62700400  0.62376600  0.49182000  1
  O  O7  1  0.62969900  0.62730700  0.99341400  1
  O  O8  1  0.13322700  0.39215100  0.01547800  1
  O  O9  1  0.12491400  0.37996500  0.50379800  1
  O  O10  1  0.13919600  0.87696700  0.01589400  1
  O  O11  1  0.13469300  0.87303600  0.50509700  1
  O  O12  1  0.63726900  0.37648200  0.00975400  1
  O  O13  1  0.63022400  0.37829400  0.50472800  1
  O  O14  1  0.64134200  0.87987200  0.01137600  1
  O  O15  1  0.63532100  0.87517000  0.50602300  1
  O  O16  1  0.37887800  0.11207200  0.48883500  1
  O  O17  1  0.38273000  0.11345800  0.99566500  1
  O  O18  1  0.37737800  0.61989900  0.49075500  1
  O  O19  1  0.37753100  0.62067900  0.99243300  1
  O  O20  1  0.87068300  0.12210300  0.49041200  1
  O  O21  1  0.87622600  0.11789500  0.99607900  1
  O  O22  1  0.87590400  0.62132300  0.49233100  1
  O  O23  1  0.87909000  0.62620800  0.99729600  1
  O  O24  1  0.38914300  0.39210400  0.01334800  1
  O  O25  1  0.38429200  0.38344800  0.50280400  1
  O  O26  1  0.38534200  0.88119600  0.01207600  1
  O  O27  1  0.38576300  0.87867900  0.50712300  1
  O  O28  1  0.88686200  0.38463000  0.01285300  1
  O  O29  1  0.88000300  0.37922600  0.50596200  1
  O  O30  1  0.88890100  0.88235700  0.01501500  1
  O  O31  1  0.88143000  0.87676400  0.50471800  1
  O  O32  1  0.07854400  0.08182400  0.13026800  1
  O  O33  1  0.07387300  0.08487700  0.63803700  1
  O  O34  1  0.07979500  0.59683800  0.12876500  1
  O  O35  1  0.07989700  0.59056400  0.64271800  1
  O  O36  1  0.58723500  0.08052700  0.12514800  1
  O  O37  1  0.57623000  0.07988700  0.62375000  1
  O  O38  1  0.58180100  0.58544100  0.12596500  1
  O  O39  1  0.57444000  0.58223600  0.62426400  1
  O  O40  1  0.44520400  0.42260500  0.36724300  1
  O  O41  1  0.45207100  0.42002200  0.87829300  1
  O  O42  1  0.44777600  0.91529500  0.37087600  1
  O  O43  1  0.45081400  0.91617300  0.87712400  1
  O  O44  1  0.93500000  0.41199300  0.35790000  1
  O  O45  1  0.94820500  0.42285200  0.87786700  1
  O  O46  1  0.93882400  0.91275100  0.35635500  1
  O  O47  1  0.94880800  0.91598100  0.87778400  1
  O  O48  1  0.32722200  0.29025400  0.14080200  1
  O  O49  1  0.32846800  0.29515600  0.63306700  1
  O  O50  1  0.32770900  0.77906500  0.12636900  1
  O  O51  1  0.32489700  0.79200500  0.62476700  1
  O  O52  1  0.82292200  0.29048300  0.12878000  1
  O  O53  1  0.82152100  0.29614300  0.62456700  1
  O  O54  1  0.82922200  0.79778200  0.13214200  1
  O  O55  1  0.82491200  0.79507600  0.62581200  1
  O  O56  1  0.18269200  0.18768200  0.35815600  1
  O  O57  1  0.18802000  0.20036800  0.86462400  1
  O  O58  1  0.19962400  0.70571600  0.37347900  1
  O  O59  1  0.19289000  0.70442600  0.87292500  1
  O  O60  1  0.69140700  0.20528600  0.37183400  1
  O  O61  1  0.70502600  0.20926600  0.87785900  1
  O  O62  1  0.69482500  0.70233900  0.37136200  1
  O  O63  1  0.70338000  0.71000300  0.87740400  1
  O  O64  1  0.42085700  0.06838200  0.23925400  1
  O  O65  1  0.43248000  0.07389700  0.75188400  1
  O  O66  1  0.42416100  0.55976400  0.23996100  1
  O  O67  1  0.43234400  0.57554900  0.75184400  1
  O  O68  1  0.92475200  0.07068600  0.23964800  1
  O  O69  1  0.93287400  0.07679300  0.75196400  1
  O  O70  1  0.93760500  0.55429800  0.24775100  1
  O  O71  1  0.93377200  0.57651900  0.75198900  1
  O  O72  1  0.18676000  0.42564600  0.25028300  1
  O  O73  1  0.18440300  0.44171300  0.75312700  1
  O  O74  1  0.16941500  0.92477600  0.24084900  1
  O  O75  1  0.18394700  0.93830400  0.75201300  1
  O  O76  1  0.68345400  0.42403000  0.24765500  1
  O  O77  1  0.68071100  0.42919100  0.75064700  1
  O  O78  1  0.68893800  0.92923700  0.24927100  1
  O  O79  1  0.68207200  0.92956100  0.75133700  1
loop_
_geom_bond_atom_site_label_1
_geom_bond_atom_site_label_2
_geom_bond_distance
_geom_bond_site_symmetry_2
Ca0 O64 2.264736 1_555
Ca0 O48 2.385647 1_555
Ca0 O1 2.538680 1_554
Ca0 O10 2.566389 1_545
Ca0 O32 2.592251 1_555
Ca0 O17 2.692158 1_554
Ca0 O26 2.707700 1_545
Ca1 O66 2.287531 1_555
Ca1 O50 2.403922 1_555
Ca1 O8 2.453074 1_555
Ca1 O24 2.571851 1_555
Ca1 O34 2.620494 1_555
Ca1 O3 2.656624 1_554
Ca1 O19 2.765562 1_554
Ca1 O38 3.062134 1_555
Ca2 O68 2.306927 1_555
Ca2 O52 2.470029 1_555
Ca2 O14 2.515455 1_545
Ca2 O36 2.532390 1_555
Ca2 O30 2.595942 1_545
Ca2 O21 2.598563 1_554
Ca2 O5 2.613302 1_554
Ca2 O32 2.978343 1_655
Ca3 O74 2.291065 1_555
Ca3 O34 2.394905 1_555
Ca3 O30 2.488831 1_455
Ca3 O23 2.550383 1_454
Ca3 O10 2.587280 1_555
Ca3 O54 2.619393 1_455
Ca3 O3 2.730101 1_554
Mn0 O0 1.919514 1_565
Mn0 O31 1.996911 1_455
Mn0 O20 2.040908 1_465
Mn0 O11 2.055179 1_555
Mn0 O33 2.232244 1_565
Mn0 O46 2.279289 1_455
Mn1 O9 1.927320 1_555
Mn1 O22 1.985894 1_455
Mn1 O29 1.996066 1_455
Mn1 O2 2.020889 1_555
Mn1 O44 2.253431 1_455
Mn1 O35 2.312075 1_555
Mn2 O1 2.102346 1_554
Mn2 O8 2.103623 1_555
Mn2 O24 2.115051 1_555
Mn2 O17 2.122025 1_554
Mn2 O48 2.215194 1_555
Mn2 O57 2.228242 1_554
Mn3 O0 2.040219 1_555
Mn3 O9 2.063235 1_555
Mn3 O25 2.103157 1_555
Mn3 O16 2.105288 1_555
Mn3 O49 2.149449 1_555
Mn3 O56 2.255150 1_555
Mn4 O56 1.899301 1_555
Mn4 O32 1.927492 1_555
Mn4 O74 1.987880 1_545
Mn4 O68 2.002901 1_455
Mn5 O33 1.887687 1_555
Mn5 O57 1.914412 1_555
Mn5 O75 1.975784 1_545
Mn5 O69 1.984269 1_455
Mn6 O58 2.057040 1_555
Mn6 O70 2.060957 1_455
Mn6 O34 2.071900 1_555
Mn6 O72 2.077366 1_555
Mn7 O35 1.888613 1_555
Mn7 O73 1.956862 1_555
Mn7 O59 1.968528 1_555
Mn7 O71 1.997474 1_455
Mn8 O60 2.062307 1_555
Mn8 O36 2.075424 1_555
Mn8 O64 2.077111 1_555
Mn8 O78 2.097547 1_545
Mn9 O65 2.048060 1_555
Mn9 O79 2.060551 1_545
Mn9 O37 2.091211 1_555
Mn9 O61 2.145051 1_555
Mn10 O62 2.058176 1_555
Mn10 O38 2.071075 1_555
Mn10 O66 2.071286 1_555
Mn10 O76 2.081331 1_555
Mn11 O67 2.034543 1_555
Mn11 O77 2.049133 1_555
Mn11 O39 2.101403 1_555
Mn11 O63 2.132755 1_555
Mn12 O48 1.890902 1_555
Mn12 O40 1.926417 1_555
Mn12 O72 1.964531 1_555
Mn12 O66 2.005037 1_555
Mn13 O49 2.009456 1_555
Mn13 O67 2.069514 1_555
Mn13 O73 2.081791 1_555
Mn13 O41 2.092383 1_555
Mn14 O64 2.060265 1_565
Mn14 O42 2.078206 1_555
Mn14 O74 2.078464 1_555
Mn14 O50 2.096319 1_555
Mn15 O65 2.053000 1_565
Mn15 O75 2.076093 1_555
Mn15 O51 2.094008 1_555
Mn15 O43 2.122264 1_555
Mn16 O44 1.870506 1_555
Mn16 O52 1.965969 1_555
Mn16 O70 1.966019 1_555
Mn16 O76 1.980118 1_555
Mn17 O77 2.049579 1_555
Mn17 O71 2.084339 1_555
Mn17 O53 2.084985 1_555
Mn17 O45 2.123318 1_555
Mn18 O46 1.882405 1_555
Mn18 O54 1.924557 1_555
Mn18 O78 1.938583 1_555
Mn18 O68 2.039291 1_565
Mn19 O79 2.041705 1_555
Mn19 O55 2.080205 1_555
Mn19 O69 2.086274 1_565
Mn19 O47 2.135249 1_555
O0 Sr7 2.628098 1_545
O0 Sr24 2.644724 1_455
O0 Sr0 2.672720 1_555
O0 Sr14 2.687054 1_555
O1 Ti0 1.891378 1_545
O1 Sr8 2.616598 1_545
O1 Sr25 2.673290 1_455
O1 Sr13 2.703491 1_556
O2 Ti7 1.961968 1_555
O2 Sr5 2.621089 1_555
O2 Sr26 2.640245 1_455
O2 Sr1 2.703576 1_555
O2 Sr15 2.728961 1_555
O3 Ti6 1.907928 1_556
O3 Ti1 2.060831 1_556
O3 Sr27 2.595973 1_455
O3 Sr6 2.621486 1_555
O4 Ti9 1.979571 1_555
O4 Ti3 2.025596 1_555
O4 Sr11 2.635714 1_545
O4 Sr20 2.644371 1_555
O4 Sr2 2.725993 1_555
O4 Sr17 2.753751 1_555
O5 Ti8 1.914634 1_555
O5 Ti2 2.085349 1_546
O5 Sr12 2.592704 1_545
O5 Sr21 2.690097 1_555
O5 Sr16 2.759447 1_556
O6 Ti11 1.968159 1_555
O6 Ti5 2.045728 1_555
O6 Sr22 2.626511 1_555
O6 Sr9 2.631625 1_555
O6 Sr4 2.734092 1_555
O6 Sr19 2.736856 1_555
O7 Ti10 1.929998 1_555
O7 Ti4 2.101643 1_556
O7 Sr10 2.626089 1_555
O7 Sr23 2.658393 1_555
O7 Sr18 2.701852 1_556
O7 Sr3 2.709426 1_556
O8 Ti1 1.881092 1_555
O8 Sr13 2.639806 1_555
O8 Sr6 2.736093 1_554
O8 Sr25 2.783589 1_454
O9 Sr1 2.616922 1_555
O9 Sr14 2.621433 1_555
O9 Sr5 2.646969 1_555
O9 Sr24 2.671370 1_455
O10 Ti6 1.910686 1_555
O10 Ti0 2.093761 1_554
O10 Sr27 2.778670 1_454
O10 Sr8 2.806669 1_554
O11 Ti7 1.927722 1_555
O11 Sr15 2.646313 1_555
O11 Sr0 2.660517 1_565
O11 Sr7 2.712426 1_555
O11 Sr26 2.721937 1_455
O12 Ti8 1.901506 1_554
O12 Ti4 2.096792 1_555
O12 Sr3 2.631200 1_555
O12 Sr16 2.664438 1_555
O12 Sr10 2.739896 1_554
O12 Sr21 2.806569 1_554
O13 Ti5 1.990504 1_555
O13 Ti9 2.033982 1_555
O13 Sr4 2.665535 1_555
O13 Sr17 2.688463 1_555
O13 Sr9 2.689343 1_555
O13 Sr20 2.717996 1_555
O14 Ti10 1.929522 1_554
O14 Ti2 2.068957 1_555
O14 Sr18 2.632541 1_555
O14 Sr12 2.718267 1_554
O14 Sr23 2.832152 1_554
O15 Ti11 1.957079 1_555
O15 Ti3 2.071692 1_565
O15 Sr19 2.624817 1_555
O15 Sr2 2.639249 1_565
O15 Sr11 2.688534 1_555
O15 Sr22 2.735363 1_555
O16 Ti3 1.869907 1_555
O16 Sr7 2.606112 1_545
O16 Sr20 2.648503 1_555
O16 Sr17 2.727253 1_555
O16 Sr0 2.769981 1_555
O17 Ti2 1.862563 1_546
O17 Sr8 2.621781 1_545
O17 Sr21 2.647859 1_555
O17 Sr16 2.652450 1_556
O18 Ti5 1.963011 1_555
O18 Ti7 2.032260 1_555
O18 Sr22 2.615530 1_555
O18 Sr5 2.665019 1_555
O18 Sr19 2.728475 1_555
O18 Sr1 2.827353 1_555
O19 Ti4 1.930223 1_556
O19 Ti6 2.054468 1_556
O19 Sr23 2.581760 1_555
O19 Sr6 2.647602 1_555
O19 Sr18 2.707500 1_556
O20 Ti9 1.933036 1_555
O20 Sr11 2.611225 1_545
O20 Sr24 2.638379 1_555
O20 Sr2 2.697021 1_555
O20 Sr14 2.763158 1_655
O21 Ti0 1.939584 1_645
O21 Ti8 2.076095 1_555
O21 Sr12 2.650028 1_545
O21 Sr13 2.698129 1_656
O21 Sr25 2.700782 1_555
O22 Ti11 1.991061 1_555
O22 Sr9 2.621894 1_555
O22 Sr26 2.622367 1_555
O22 Sr4 2.690921 1_555
O22 Sr15 2.704849 1_655
O23 Ti10 2.001728 1_555
O23 Ti1 2.022771 1_656
O23 Sr27 2.613711 1_555
O23 Sr10 2.689448 1_555
O23 Sr3 2.700955 1_556
O24 Ti4 1.857699 1_555
O24 Sr16 2.607238 1_555
O24 Sr6 2.741589 1_554
O24 Sr21 2.791162 1_554
O25 Ti5 1.897148 1_555
O25 Sr5 2.652467 1_555
O25 Sr17 2.668846 1_555
O25 Sr1 2.694857 1_555
O25 Sr20 2.713976 1_555
O26 Ti2 1.954076 1_555
O26 Ti6 2.043934 1_555
O26 Sr18 2.591993 1_555
O26 Sr23 2.746085 1_554
O26 Sr8 2.752038 1_554
O27 Ti3 1.964407 1_565
O27 Ti7 2.026631 1_555
O27 Sr19 2.587275 1_555
O27 Sr0 2.710292 1_565
O27 Sr22 2.740766 1_555
O27 Sr7 2.782908 1_555
O28 Ti1 1.944140 1_655
O28 Ti8 2.070817 1_554
O28 Sr3 2.610620 1_555
O28 Sr13 2.621973 1_655
O28 Sr25 2.761664 1_554
O28 Sr10 2.779105 1_554
O29 Ti9 1.977643 1_555
O29 Sr4 2.596237 1_555
O29 Sr14 2.670424 1_655
O29 Sr9 2.672471 1_555
O29 Sr24 2.744818 1_555
O30 Ti0 1.973233 1_654
O30 Ti10 2.011770 1_554
O30 Sr27 2.777516 1_554
O30 Sr12 2.851300 1_554
O31 Ti11 1.973896 1_555
O31 Sr15 2.640727 1_655
O31 Sr2 2.649401 1_565
O31 Sr11 2.681022 1_555
O31 Sr26 2.711684 1_555
O32 Ti0 2.102406 1_544
O32 Sr13 2.551883 1_555
O33 Sr14 2.632232 1_555
O33 Sr0 2.768979 1_555
O33 Sr2 2.828071 1_455
O33 Sr15 3.109272 1_545
O34 Ti1 2.034601 1_555
O34 Sr3 2.962897 1_455
O35 Sr15 2.602905 1_555
O35 Sr1 2.712916 1_555
O35 Sr4 2.855778 1_455
O35 Sr14 3.154732 1_555
O36 Ti2 1.981707 1_545
O36 Sr16 2.557101 1_555
O36 Sr18 3.130239 1_545
O37 Ti3 2.007184 1_555
O37 Sr17 2.567008 1_555
O37 Sr2 2.709935 1_555
O37 Sr0 2.973247 1_555
O37 Sr19 3.083897 1_545
O38 Ti4 1.997868 1_555
O38 Sr18 2.519793 1_555
O38 Sr3 2.629443 1_555
O39 Ti5 1.927646 1_555
O39 Sr19 2.582672 1_555
O39 Sr4 2.761061 1_555
O39 Sr1 2.989945 1_555
O39 Sr17 3.152498 1_555
O40 Ti5 2.196813 1_555
O40 Sr20 2.643865 1_555
O40 Sr9 2.739631 1_555
O40 Sr5 2.954795 1_555
O40 Sr22 3.025655 1_555
O41 Ti4 2.001506 1_556
O41 Sr21 2.564542 1_555
O41 Sr10 2.688981 1_555
O41 Sr6 2.946249 1_555
O41 Sr23 3.120435 1_555
O42 Ti3 2.060664 1_565
O42 Sr22 2.570579 1_555
O42 Sr11 2.716508 1_555
O42 Sr7 2.950986 1_555
O42 Sr20 3.157376 1_565
O43 Ti2 2.025242 1_556
O43 Sr23 2.533314 1_555
O43 Sr12 2.666927 1_555
O43 Sr8 2.918494 1_555
O43 Sr21 3.166370 1_565
O44 Sr24 2.615946 1_555
O44 Sr5 2.768688 1_655
O44 Sr9 2.862481 1_555
O44 Sr26 3.108603 1_555
O45 Ti1 2.019125 1_656
O45 Sr25 2.572623 1_555
O45 Sr6 2.707853 1_655
O45 Sr10 2.885265 1_555
O45 Sr27 3.066853 1_555
O46 Sr26 2.659280 1_555
O46 Sr7 2.725387 1_655
O46 Sr11 2.924978 1_555
O46 Sr24 3.118229 1_565
O47 Ti0 1.959800 1_655
O47 Sr27 2.543669 1_555
O47 Sr8 2.731212 1_655
O47 Sr12 2.926968 1_555
O47 Sr25 3.192596 1_565
O48 Sr16 2.750617 1_555
O48 Sr13 2.880208 1_555
O49 Sr0 2.517167 1_555
O49 Sr17 2.679977 1_555
O49 Sr14 2.874688 1_555
O49 Sr1 3.124038 1_555
O50 Ti6 1.911210 1_555
O50 Sr18 2.713668 1_555
O51 Ti7 2.008083 1_555
O51 Sr1 2.595104 1_555
O51 Sr19 2.717062 1_555
O51 Sr15 2.914837 1_555
O51 Sr0 3.179185 1_565
O52 Ti8 2.111782 1_554
O52 Sr13 2.754979 1_655
O52 Sr16 2.931988 1_555
O53 Ti9 2.011995 1_555
O53 Sr2 2.581147 1_555
O53 Sr14 2.789478 1_655
O53 Sr17 2.923652 1_555
O53 Sr4 3.093601 1_555
O54 Ti10 2.162989 1_554
O54 Sr3 2.553280 1_555
O54 Sr18 2.914082 1_555
O55 Ti11 2.020610 1_555
O55 Sr4 2.578820 1_555
O55 Sr15 2.712088 1_655
O55 Sr19 2.902636 1_555
O55 Sr2 3.131581 1_565
O56 Sr5 2.684541 1_555
O56 Sr20 2.822618 1_555
O56 Sr24 2.826144 1_455
O56 Sr7 3.009313 1_545
O57 Sr6 2.585820 1_555
O57 Sr21 2.701552 1_555
O57 Sr25 2.828940 1_455
O57 Sr8 3.131188 1_545
O58 Ti7 2.032439 1_555
O58 Sr7 2.591077 1_555
O58 Sr22 2.715048 1_555
O58 Sr26 2.926722 1_455
O58 Sr5 3.163615 1_555
O59 Ti6 2.188546 1_556
O59 Sr8 2.583826 1_555
O59 Sr23 2.718530 1_555
O59 Sr27 2.849822 1_455
O59 Sr6 3.129786 1_555
O60 Ti9 2.041745 1_555
O60 Sr9 2.565812 1_555
O60 Sr24 2.800761 1_555
O60 Sr20 2.836365 1_555
O60 Sr11 3.151734 1_545
O61 Ti8 1.936233 1_555
O61 Sr10 2.573865 1_555
O61 Sr25 2.697501 1_555
O61 Sr21 3.045818 1_555
O61 Sr12 3.128066 1_545
O62 Ti11 2.060449 1_555
O62 Sr11 2.576346 1_555
O62 Sr26 2.736574 1_555
O62 Sr22 2.863511 1_555
O62 Sr9 3.101805 1_555
O63 Ti10 1.933273 1_555
O63 Sr12 2.552921 1_555
O63 Sr27 2.687972 1_555
O63 Sr23 2.994064 1_555
O63 Sr10 3.127615 1_555
O64 Sr20 2.482662 1_555
O65 Sr21 2.370675 1_555
O65 Sr0 2.422860 1_555
O66 Sr22 2.509029 1_555
O67 Sr23 2.364114 1_555
O67 Sr1 2.402546 1_555
O68 Sr24 2.499803 1_555
O69 Sr25 2.389069 1_555
O69 Sr2 2.426970 1_555
O70 Sr3 2.419975 1_555
O70 Sr26 2.468393 1_555
O71 Sr27 2.378247 1_555
O71 Sr4 2.411265 1_555
O72 Sr13 2.386296 1_555
O72 Sr5 2.418654 1_555
O73 Sr6 2.421890 1_555
O73 Sr14 2.473204 1_555
O74 Sr7 2.480695 1_555
O75 Sr8 2.422492 1_555
O75 Sr15 2.452420 1_555
O76 Sr16 2.373257 1_555
O76 Sr9 2.423095 1_555
O77 Sr10 2.381996 1_555
O77 Sr17 2.418105 1_555
O78 Sr18 2.395061 1_555
O78 Sr11 2.428890 1_555
O79 Sr12 2.369404 1_555
O79 Sr19 2.404672 1_555
