# generated using pymatgen
data_S3N3Cl3O
_symmetry_space_group_name_H-M   'P 1'
_cell_length_a   11.76859400
_cell_length_b   11.03094300
_cell_length_c   13.38962102
_cell_angle_alpha   82.00627031
_cell_angle_beta   90.00000000
_cell_angle_gamma   90.00000000
_symmetry_Int_Tables_number   1
_chemical_formula_structural   S3N3Cl3O
_chemical_formula_sum   'S24 N24 Cl24 O8'
_cell_volume   1721.33325154
_cell_formula_units_Z   8
loop_
 _symmetry_equiv_pos_site_id
 _symmetry_equiv_pos_as_xyz
  1  'x, y, z'
loop_
 _atom_site_type_symbol
 _atom_site_label
 _atom_site_symmetry_multiplicity
 _atom_site_fract_x
 _atom_site_fract_y
 _atom_site_fract_z
 _atom_site_occupancy
  S  S0  1  0.47999700  0.16935900  0.21838900  1
  S  S1  1  0.97999700  0.83064100  0.28161100  1
  S  S2  1  0.52000300  0.83064100  0.78161100  1
  S  S3  1  0.02000300  0.16935900  0.71838900  1
  S  S4  1  0.72168000  0.17330800  0.22897100  1
  S  S5  1  0.22168000  0.82669200  0.27102900  1
  S  S6  1  0.27832000  0.82669200  0.77102900  1
  S  S7  1  0.77832000  0.17330800  0.72897100  1
  S  S8  1  0.52402100  0.16485900  0.52557500  1
  S  S9  1  0.02402100  0.83514100  0.97442500  1
  S  S10  1  0.47597900  0.83514100  0.47442500  1
  S  S11  1  0.97597900  0.16485900  0.02557500  1
  S  S12  1  0.28202400  0.16253700  0.51344600  1
  S  S13  1  0.78202400  0.83746300  0.98655400  1
  S  S14  1  0.71797600  0.83746300  0.48655400  1
  S  S15  1  0.21797600  0.16253700  0.01344600  1
  S  S16  1  0.61029500  0.18128900  0.04182500  1
  S  S17  1  0.11029500  0.81871100  0.45817500  1
  S  S18  1  0.38970500  0.81871100  0.95817500  1
  S  S19  1  0.88970500  0.18128900  0.54182500  1
  S  S20  1  0.39176200  0.18285300  0.69742600  1
  S  S21  1  0.89176200  0.81714700  0.80257400  1
  S  S22  1  0.60823800  0.81714700  0.30257400  1
  S  S23  1  0.10823800  0.18285300  0.19742600  1
  N  N0  1  0.49497900  0.15180600  0.10115100  1
  N  N1  1  0.99497900  0.84819400  0.39884900  1
  N  N2  1  0.50502100  0.84819400  0.89884900  1
  N  N3  1  0.00502100  0.15180600  0.60115100  1
  N  N4  1  0.59811500  0.15390400  0.27930100  1
  N  N5  1  0.09811500  0.84609600  0.22069900  1
  N  N6  1  0.40188500  0.84609600  0.72069900  1
  N  N7  1  0.90188500  0.15390400  0.77930100  1
  N  N8  1  0.72012100  0.15825600  0.11031200  1
  N  N9  1  0.22012100  0.84174400  0.38968800  1
  N  N10  1  0.27987900  0.84174400  0.88968800  1
  N  N11  1  0.77987900  0.15825600  0.61031200  1
  N  N12  1  0.40666200  0.14162700  0.46954700  1
  N  N13  1  0.90666200  0.85837300  0.03045300  1
  N  N14  1  0.59333800  0.85837300  0.53045300  1
  N  N15  1  0.09333800  0.14162700  0.96954700  1
  N  N16  1  0.28284900  0.15313400  0.63553500  1
  N  N17  1  0.78284900  0.84686600  0.86446500  1
  N  N18  1  0.71715100  0.84686600  0.36446500  1
  N  N19  1  0.21715100  0.15313400  0.13553500  1
  N  N20  1  0.50800600  0.15072800  0.64732500  1
  N  N21  1  0.00800600  0.84927200  0.85267500  1
  N  N22  1  0.49199400  0.84927200  0.35267500  1
  N  N23  1  0.99199400  0.15072800  0.14732500  1
  Cl  Cl0  1  0.60551900  0.36557600  0.99017700  1
  Cl  Cl1  1  0.10551900  0.63442400  0.50982300  1
  Cl  Cl2  1  0.39448100  0.63442400  0.00982300  1
  Cl  Cl3  1  0.89448100  0.36557600  0.49017700  1
  Cl  Cl4  1  0.43743200  0.35996900  0.21634300  1
  Cl  Cl5  1  0.93743200  0.64003100  0.28365700  1
  Cl  Cl6  1  0.56256800  0.64003100  0.78365700  1
  Cl  Cl7  1  0.06256800  0.35996900  0.71634300  1
  Cl  Cl8  1  0.75982300  0.36404200  0.23104100  1
  Cl  Cl9  1  0.25982300  0.63595800  0.26895900  1
  Cl  Cl10  1  0.24017700  0.63595800  0.76895900  1
  Cl  Cl11  1  0.74017700  0.36404200  0.73104100  1
  Cl  Cl12  1  0.56140000  0.35399200  0.48068100  1
  Cl  Cl13  1  0.06140000  0.64600800  0.01931900  1
  Cl  Cl14  1  0.43860000  0.64600800  0.51931900  1
  Cl  Cl15  1  0.93860000  0.35399200  0.98068100  1
  Cl  Cl16  1  0.24421400  0.35045600  0.46126500  1
  Cl  Cl17  1  0.74421400  0.64954400  0.03873500  1
  Cl  Cl18  1  0.75578600  0.64954400  0.53873500  1
  Cl  Cl19  1  0.25578600  0.35045600  0.96126500  1
  Cl  Cl20  1  0.39347000  0.36825000  0.70003400  1
  Cl  Cl21  1  0.89347000  0.63175000  0.79996600  1
  Cl  Cl22  1  0.60653000  0.63175000  0.29996600  1
  Cl  Cl23  1  0.10653000  0.36825000  0.20003400  1
  O  O0  1  0.61868800  0.12035400  0.95466300  1
  O  O1  1  0.11868800  0.87964600  0.54533700  1
  O  O2  1  0.38131200  0.87964600  0.04533700  1
  O  O3  1  0.88131200  0.12035400  0.45466300  1
  O  O4  1  0.38366400  0.12687600  0.80015200  1
  O  O5  1  0.88366400  0.87312400  0.69984800  1
  O  O6  1  0.61633600  0.87312400  0.19984800  1
  O  O7  1  0.11633600  0.12687600  0.30015200  1
loop_
_geom_bond_atom_site_label_1
_geom_bond_atom_site_label_2
_geom_bond_distance
_geom_bond_site_symmetry_2
N0 S16 1.583242 1_555
N0 S0 1.617808 1_555
N1 S17 1.583242 1_655
N1 S1 1.617808 1_555
N2 S18 1.583242 1_555
N2 S2 1.617808 1_555
N3 S19 1.583242 1_455
N3 S3 1.617808 1_555
N4 S4 1.604523 1_555
N4 S0 1.608697 1_555
N5 S5 1.604523 1_555
N5 S1 1.608697 1_455
N6 S6 1.604523 1_555
N6 S2 1.608697 1_555
N7 S7 1.604523 1_555
N7 S3 1.608697 1_655
N8 S16 1.584683 1_555
N8 S4 1.620357 1_555
N9 S17 1.584683 1_555
N9 S5 1.620357 1_555
N10 S18 1.584683 1_555
N10 S6 1.620357 1_555
N11 S19 1.584683 1_555
N11 S7 1.620357 1_555
N12 S12 1.608711 1_555
N12 S8 1.609196 1_555
N13 S13 1.608711 1_554
N13 S9 1.609196 1_654
N14 S14 1.608711 1_555
N14 S10 1.609196 1_555
N15 S15 1.608711 1_556
N15 S11 1.609196 1_456
N16 S20 1.585137 1_555
N16 S12 1.623583 1_555
N17 S21 1.585137 1_555
N17 S13 1.623583 1_555
N18 S22 1.585137 1_555
N18 S14 1.623583 1_555
N19 S23 1.585137 1_555
N19 S15 1.623583 1_555
N20 S20 1.585312 1_555
N20 S8 1.626854 1_555
N21 S21 1.585312 1_455
N21 S9 1.626854 1_555
N22 S22 1.585312 1_555
N22 S10 1.626854 1_555
N23 S23 1.585312 1_655
N23 S11 1.626854 1_555
Cl0 S16 2.054973 1_556
Cl1 S17 2.054973 1_555
Cl2 S18 2.054973 1_554
Cl3 S19 2.054973 1_555
Cl4 S0 2.157921 1_555
Cl5 S1 2.157921 1_555
Cl6 S2 2.157921 1_555
Cl7 S3 2.157921 1_555
Cl8 S4 2.155273 1_555
Cl9 S5 2.155273 1_555
Cl10 S6 2.155273 1_555
Cl11 S7 2.155273 1_555
Cl12 S8 2.135124 1_555
Cl13 S9 2.135124 1_554
Cl14 S10 2.135124 1_555
Cl15 S11 2.135124 1_556
Cl16 S12 2.140175 1_555
Cl17 S13 2.140175 1_554
Cl18 S14 2.140175 1_555
Cl19 S15 2.140175 1_556
Cl20 S20 2.050350 1_555
Cl21 S21 2.050350 1_555
Cl22 S22 2.050350 1_555
Cl23 S23 2.050350 1_555
O0 S16 1.428914 1_556
O1 S17 1.428914 1_555
O2 S18 1.428914 1_554
O3 S19 1.428914 1_555
O4 S20 1.430398 1_555
O5 S21 1.430398 1_555
O6 S22 1.430398 1_555
O7 S23 1.430398 1_555
