# generated using pymatgen
data_GdGeRu
_symmetry_space_group_name_H-M   'P 1'
_cell_length_a   4.45693009
_cell_length_b   7.13066064
_cell_length_c   7.15675994
_cell_angle_alpha   89.99860107
_cell_angle_beta   90.00000000
_cell_angle_gamma   90.00000000
_symmetry_Int_Tables_number   1
_chemical_formula_structural   GdGeRu
_chemical_formula_sum   'Gd4 Ge4 Ru4'
_cell_volume   227.44795682
_cell_formula_units_Z   4
loop_
 _symmetry_equiv_pos_site_id
 _symmetry_equiv_pos_as_xyz
  1  'x, y, z'
loop_
 _atom_site_type_symbol
 _atom_site_label
 _atom_site_symmetry_multiplicity
 _atom_site_fract_x
 _atom_site_fract_y
 _atom_site_fract_z
 _atom_site_occupancy
  Gd  Gd0  1  0.25000000  0.52027298  0.31093614  1
  Gd  Gd1  1  0.75000000  0.47972702  0.68906386  1
  Gd  Gd2  1  0.25000000  0.02024344  0.18912515  1
  Gd  Gd3  1  0.75000000  0.97975656  0.81087485  1
  Ge  Ge0  1  0.25000000  0.69782415  0.89266423  1
  Ge  Ge1  1  0.75000000  0.30217585  0.10733577  1
  Ge  Ge2  1  0.25000000  0.19780488  0.60727996  1
  Ge  Ge3  1  0.75000000  0.80219512  0.39272004  1
  Ru  Ru0  1  0.75000000  0.15123926  0.43542075  1
  Ru  Ru1  1  0.25000000  0.84876074  0.56457925  1
  Ru  Ru2  1  0.75000000  0.65124146  0.06461475  1
  Ru  Ru3  1  0.25000000  0.34875854  0.93538525  1
loop_
_geom_bond_atom_site_label_1
_geom_bond_atom_site_label_2
_geom_bond_distance
_geom_bond_site_symmetry_2
Gd0 Ru3 2.952930 1_554
Gd0 Ru1 2.963430 1_555
Gd0 Ru2 2.990956 1_555
Gd0 Ru2 2.990956 1_455
Gd0 Ge3 3.057772 1_555
Gd0 Ge3 3.057772 1_455
Gd0 Ge1 3.083494 1_455
Gd0 Ge1 3.083494 1_555
Gd0 Ge2 3.128115 1_555
Gd0 Ge0 3.250167 1_554
Gd1 Ru2 2.952930 1_556
Gd1 Ru0 2.963430 1_555
Gd1 Ru3 2.990956 1_555
Gd1 Ru3 2.990956 1_655
Gd1 Ge2 3.057772 1_555
Gd1 Ge2 3.057772 1_655
Gd1 Ge0 3.083494 1_655
Gd1 Ge0 3.083494 1_555
Gd1 Ge3 3.128115 1_555
Gd1 Ge1 3.250167 1_556
Gd2 Ru1 2.952152 1_545
Gd2 Ru3 2.963939 1_554
Gd2 Ru0 2.990935 1_555
Gd2 Ru0 2.990935 1_455
Gd2 Ge1 3.057809 1_555
Gd2 Ge1 3.057809 1_455
Gd2 Ge3 3.083264 1_545
Gd2 Ge3 3.083264 1_445
Gd2 Ge0 3.128504 1_544
Gd2 Ge2 3.249481 1_555
Gd3 Ru0 2.952152 1_565
Gd3 Ru2 2.963939 1_556
Gd3 Ru1 2.990935 1_655
Gd3 Ru1 2.990935 1_555
Gd3 Ge0 3.057809 1_555
Gd3 Ge0 3.057809 1_655
Gd3 Ge2 3.083264 1_665
Gd3 Ge2 3.083264 1_565
Gd3 Ge1 3.128504 1_566
Gd3 Ge3 3.249481 1_555
Ge0 Ru3 2.507769 1_555
Ge0 Ru2 2.567249 1_456
Ge0 Ru2 2.567249 1_556
Ge0 Ru1 2.582920 1_555
Ge1 Ru2 2.507769 1_555
Ge1 Ru3 2.567249 1_654
Ge1 Ru3 2.567249 1_554
Ge1 Ru0 2.582920 1_555
Ge2 Ru1 2.507614 1_545
Ge2 Ru0 2.566928 1_455
Ge2 Ru0 2.566928 1_555
Ge2 Ru3 2.583150 1_555
Ge3 Ru0 2.507614 1_565
Ge3 Ru1 2.566928 1_555
Ge3 Ru1 2.566928 1_655
Ge3 Ru2 2.583150 1_555
