# generated using pymatgen
data_Mn(CrS2)2
_symmetry_space_group_name_H-M   'P 1'
_cell_length_a   7.16012520
_cell_length_b   7.16012882
_cell_length_c   7.16012312
_cell_angle_alpha   60.00045050
_cell_angle_beta   60.00050662
_cell_angle_gamma   60.00042619
_symmetry_Int_Tables_number   1
_chemical_formula_structural   Mn(CrS2)2
_chemical_formula_sum   'Mn2 Cr4 S8'
_cell_volume   259.56819918
_cell_formula_units_Z   2
loop_
 _symmetry_equiv_pos_site_id
 _symmetry_equiv_pos_as_xyz
  1  'x, y, z'
loop_
 _atom_site_type_symbol
 _atom_site_label
 _atom_site_symmetry_multiplicity
 _atom_site_fract_x
 _atom_site_fract_y
 _atom_site_fract_z
 _atom_site_occupancy
  Mn  Mn0  1  0.75000177  0.75000165  0.75000156  1
  Mn  Mn1  1  0.49999798  0.49999834  0.49999861  1
  Cr  Cr0  1  0.12499962  0.62500062  0.12500024  1
  Cr  Cr1  1  0.12499954  0.12500035  0.62500058  1
  Cr  Cr2  1  0.12499980  0.12500034  0.12500020  1
  Cr  Cr3  1  0.62499951  0.12500035  0.12500053  1
  S  S0  1  0.88604083  0.34187837  0.88603989  1
  S  S1  1  0.36396035  0.36395933  0.90812139  1
  S  S2  1  0.36396019  0.36395998  0.36395927  1
  S  S3  1  0.90812148  0.36395940  0.36395979  1
  S  S4  1  0.88604049  0.88603974  0.88604020  1
  S  S5  1  0.34187853  0.88604032  0.88603965  1
  S  S6  1  0.36395967  0.90812144  0.36395954  1
  S  S7  1  0.88604025  0.88603975  0.34187856  1
loop_
_geom_bond_atom_site_label_1
_geom_bond_atom_site_label_2
_geom_bond_distance
_geom_bond_site_symmetry_2
Mn0 S4 2.385924 1_555
Mn0 S7 2.385990 1_555
Mn0 S5 2.385991 1_555
Mn0 S0 2.385992 1_555
Mn1 S2 2.385924 1_555
Mn1 S1 2.385989 1_555
Mn1 S6 2.385990 1_555
Mn1 S3 2.385993 1_555
Cr0 S7 2.424852 1_455
Cr0 S5 2.424859 1_554
Cr0 S4 2.424859 1_454
Cr0 S2 2.424862 1_555
Cr0 S3 2.424863 1_455
Cr0 S1 2.424866 1_554
Cr1 S0 2.424851 1_455
Cr1 S5 2.424852 1_545
Cr1 S3 2.424857 1_455
Cr1 S6 2.424865 1_545
Cr1 S4 2.424865 1_445
Cr1 S2 2.424869 1_555
Cr2 S3 2.424856 1_455
Cr2 S6 2.424857 1_545
Cr2 S0 2.424857 1_454
Cr2 S1 2.424862 1_554
Cr2 S7 2.424866 1_445
Cr2 S5 2.424866 1_544
Cr3 S1 2.424853 1_554
Cr3 S7 2.424856 1_545
Cr3 S2 2.424858 1_555
Cr3 S6 2.424860 1_545
Cr3 S0 2.424863 1_554
Cr3 S4 2.424871 1_544
