# generated using pymatgen
data_Li(CoO2)4
_symmetry_space_group_name_H-M   'P 1'
_cell_length_a   5.71192959
_cell_length_b   5.70674245
_cell_length_c   9.90697604
_cell_angle_alpha   90.03133357
_cell_angle_beta   73.05643412
_cell_angle_gamma   60.27500952
_symmetry_Int_Tables_number   1
_chemical_formula_structural   Li(CoO2)4
_chemical_formula_sum   'Li2 Co8 O16'
_cell_volume   264.14557331
_cell_formula_units_Z   2
loop_
 _symmetry_equiv_pos_site_id
 _symmetry_equiv_pos_as_xyz
  1  'x, y, z'
loop_
 _atom_site_type_symbol
 _atom_site_label
 _atom_site_symmetry_multiplicity
 _atom_site_fract_x
 _atom_site_fract_y
 _atom_site_fract_z
 _atom_site_occupancy
  Li  Li0  1  0.99750600  0.25099100  0.25007000  1
  Li  Li1  1  0.00249500  0.74900700  0.74992900  1
  Co  Co0  1  0.49999800  0.00000000  0.50000100  1
  Co  Co1  1  0.49999800  0.50000300  0.00000300  1
  Co  Co2  1  0.50151000  0.75779100  0.25265200  1
  Co  Co3  1  0.49849000  0.24221200  0.74735000  1
  Co  Co4  1  0.00000000  0.49999700  0.00000200  1
  Co  Co5  1  0.00000200  0.00000100  0.49999800  1
  Co  Co6  1  0.49999300  0.00000400  0.00000200  1
  Co  Co7  1  0.50000600  0.49999600  0.49999500  1
  O  O0  1  0.73560200  0.85489800  0.11880500  1
  O  O1  1  0.73230800  0.34543800  0.61932400  1
  O  O2  1  0.26770700  0.65457200  0.38066300  1
  O  O3  1  0.26438300  0.14509600  0.88120400  1
  O  O4  1  0.25814700  0.09715700  0.38265200  1
  O  O5  1  0.25596800  0.58393400  0.87503100  1
  O  O6  1  0.73920400  0.12804300  0.39833100  1
  O  O7  1  0.74907800  0.64439200  0.89488100  1
  O  O8  1  0.70718600  0.65119200  0.38184400  1
  O  O9  1  0.70938200  0.13012700  0.87598500  1
  O  O10  1  0.29060700  0.86987400  0.12401600  1
  O  O11  1  0.29282100  0.34881100  0.61815500  1
  O  O12  1  0.25091900  0.35561200  0.10512200  1
  O  O13  1  0.26079800  0.87194700  0.60166400  1
  O  O14  1  0.74403800  0.41605300  0.12496800  1
  O  O15  1  0.74185400  0.90285300  0.61735200  1
loop_
_geom_bond_atom_site_label_1
_geom_bond_atom_site_label_2
_geom_bond_distance
_geom_bond_site_symmetry_2
Li0 O12 2.039651 1_655
Li0 O14 2.052850 1_555
Li0 O10 2.064040 1_645
Li0 O4 2.134781 1_655
Li0 O6 2.142689 1_555
Li0 O8 2.156231 1_555
Li1 O7 2.039663 1_455
Li1 O5 2.052875 1_555
Li1 O9 2.064066 1_465
Li1 O15 2.134745 1_455
Li1 O13 2.142681 1_555
Li1 O11 2.156214 1_555
Co0 O8 1.893943 1_545
Co0 O11 1.893947 1_555
Co0 O13 1.898430 1_545
Co0 O6 1.898436 1_555
Co0 O4 1.935093 1_555
Co0 O15 1.935135 1_545
Co1 O10 2.008086 1_555
Co1 O9 2.008133 1_554
Co1 O14 2.012349 1_555
Co1 O5 2.012374 1_554
Co1 O12 2.021775 1_555
Co1 O7 2.021779 1_554
Co2 O2 1.879506 1_555
Co2 O0 1.885601 1_555
Co2 O8 1.885981 1_555
Co2 O10 1.901579 1_555
Co2 O14 1.902446 1_555
Co2 O4 1.904152 1_565
Co3 O1 1.879659 1_555
Co3 O3 1.885724 1_555
Co3 O11 1.885981 1_555
Co3 O9 1.901529 1_555
Co3 O5 1.902371 1_555
Co3 O15 1.904117 1_545
Co4 O12 1.875484 1_555
Co4 O7 1.875508 1_454
Co4 O14 1.881479 1_455
Co4 O5 1.881500 1_554
Co4 O3 1.922507 1_554
Co4 O0 1.922533 1_455
Co5 O13 1.887676 1_545
Co5 O6 1.887692 1_455
Co5 O1 1.891119 1_455
Co5 O2 1.891131 1_545
Co5 O4 1.909291 1_555
Co5 O15 1.909303 1_445
Co6 O12 1.870271 1_555
Co6 O7 1.870295 1_544
Co6 O9 1.875277 1_554
Co6 O10 1.875280 1_545
Co6 O3 1.923827 1_554
Co6 O0 1.923870 1_545
Co7 O1 1.921200 1_555
Co7 O2 1.921225 1_555
Co7 O6 1.925189 1_555
Co7 O13 1.925197 1_555
Co7 O8 1.929079 1_555
Co7 O11 1.929088 1_555
