# generated using pymatgen
data_Ca2Mn7Si10H12O35
_symmetry_space_group_name_H-M   'P 1'
_cell_length_a   8.99660500
_cell_length_b   9.03390262
_cell_length_c   9.41837955
_cell_angle_alpha   86.30918535
_cell_angle_beta   83.32541467
_cell_angle_gamma   84.61641254
_symmetry_Int_Tables_number   1
_chemical_formula_structural   Ca2Mn7Si10H12O35
_chemical_formula_sum   'Ca2 Mn7 Si10 H12 O35'
_cell_volume   755.82448777
_cell_formula_units_Z   1
loop_
 _symmetry_equiv_pos_site_id
 _symmetry_equiv_pos_as_xyz
  1  'x, y, z'
loop_
 _atom_site_type_symbol
 _atom_site_label
 _atom_site_symmetry_multiplicity
 _atom_site_fract_x
 _atom_site_fract_y
 _atom_site_fract_z
 _atom_site_occupancy
  Ca  Ca0  1  0.71105000  0.89833900  0.25990600  1
  Ca  Ca1  1  0.28894200  0.10209900  0.73893000  1
  Mn  Mn0  1  0.03243900  0.66033300  0.16276600  1
  Mn  Mn1  1  0.97060900  0.33594000  0.85282400  1
  Mn  Mn2  1  0.35175200  0.43893900  0.10921100  1
  Mn  Mn3  1  0.64583200  0.56008400  0.89406200  1
  Mn  Mn4  1  0.99970100  0.99583800  0.99927600  1
  Mn  Mn5  1  0.67309500  0.22346800  0.07803300  1
  Mn  Mn6  1  0.32459100  0.77440700  0.92330000  1
  Si  Si0  1  0.67989000  0.91957700  0.88440300  1
  Si  Si1  1  0.31955800  0.07955600  0.11522100  1
  Si  Si2  1  0.34515400  0.44448000  0.75649300  1
  Si  Si3  1  0.65404800  0.55627000  0.24249900  1
  Si  Si4  1  0.64224300  0.22837900  0.72647200  1
  Si  Si5  1  0.35899200  0.77274400  0.27349400  1
  Si  Si6  1  0.96582100  0.71664100  0.80945700  1
  Si  Si7  1  0.03471500  0.28056900  0.18600000  1
  Si  Si8  1  0.25003800  0.73514500  0.60284400  1
  Si  Si9  1  0.75241400  0.26810900  0.39700600  1
  H  H0  1  0.03149200  0.93926900  0.27429400  1
  H  H1  1  0.96752300  0.06509100  0.72495200  1
  H  H2  1  0.32078700  0.22098300  0.43076300  1
  H  H3  1  0.67506900  0.78199600  0.56944000  1
  H  H4  1  0.31475100  0.04743200  0.42741100  1
  H  H5  1  0.68496900  0.95441800  0.57179700  1
  H  H6  1  0.39614200  0.44738000  0.41097200  1
  H  H7  1  0.60141500  0.55018100  0.58549400  1
  H  H8  1  0.22532000  0.46459700  0.38417700  1
  H  H9  1  0.76588400  0.54268500  0.62579200  1
  H  H10  1  0.98064800  0.47694100  0.40977100  1
  H  H11  1  0.02251700  0.61786000  0.49285900  1
  O  O0  1  0.43252000  0.20906600  0.07613900  1
  O  O1  1  0.56661100  0.79026600  0.92337400  1
  O  O2  1  0.31793000  0.12786800  0.49148200  1
  O  O3  1  0.68496000  0.87349500  0.50767600  1
  O  O4  1  0.60077100  0.46738400  0.11318000  1
  O  O5  1  0.39832300  0.53017100  0.88796700  1
  O  O6  1  0.93242700  0.23306500  0.06594300  1
  O  O7  1  0.06420700  0.75813600  0.93491500  1
  O  O8  1  0.66113000  0.43712100  0.38554900  1
  O  O9  1  0.34015600  0.56610300  0.61568500  1
  O  O10  1  0.11370600  0.43193500  0.13644300  1
  O  O11  1  0.88585500  0.56190500  0.84058100  1
  O  O12  1  0.69020900  0.15281000  0.30124100  1
  O  O13  1  0.31175300  0.84842600  0.70111600  1
  O  O14  1  0.93072300  0.29745900  0.34423700  1
  O  O15  1  0.06929100  0.71244300  0.65023700  1
  O  O16  1  0.16584000  0.14409300  0.21604900  1
  O  O17  1  0.83329200  0.85351000  0.78501800  1
  O  O18  1  0.25971500  0.78641300  0.43086400  1
  O  O19  1  0.74522600  0.22026600  0.56995500  1
  O  O20  1  0.52283100  0.68733700  0.30274000  1
  O  O21  1  0.47757700  0.31281500  0.69783900  1
  O  O22  1  0.97260500  0.89244300  0.21212100  1
  O  O23  1  0.02664400  0.10872400  0.78909900  1
  O  O24  1  0.79906400  0.64617000  0.20114200  1
  O  O25  1  0.19853500  0.35519200  0.79123900  1
  O  O26  1  0.28179300  0.69158800  0.15609100  1
  O  O27  1  0.71986400  0.30960600  0.84365100  1
  O  O28  1  0.39905700  0.94486800  0.22083800  1
  O  O29  1  0.60352600  0.05533000  0.77698600  1
  O  O30  1  0.73551700  0.99378300  0.02049400  1
  O  O31  1  0.26289700  0.00583000  0.97920300  1
  O  O32  1  0.32409100  0.40826000  0.35547800  1
  O  O33  1  0.66643300  0.59503400  0.64480200  1
  O  O34  1  0.04401600  0.56143500  0.40560800  1
loop_
_geom_bond_atom_site_label_1
_geom_bond_atom_site_label_2
_geom_bond_distance
_geom_bond_site_symmetry_2
Ca0 O3 2.316516 1_555
Ca0 O22 2.340061 1_555
Ca0 O12 2.342835 1_565
Ca0 O30 2.355053 1_555
Ca0 O24 2.417619 1_555
Ca0 O20 2.647922 1_555
Ca0 O28 2.861717 1_555
Ca1 O2 2.313864 1_555
Ca1 O13 2.328194 1_545
Ca1 O23 2.348064 1_555
Ca1 O31 2.365151 1_555
Ca1 O25 2.415551 1_555
Ca1 O21 2.648048 1_555
Ca1 O29 2.882512 1_555
Mn0 O24 2.103165 1_455
Mn0 O10 2.143355 1_555
Mn0 O22 2.181326 1_455
Mn0 O7 2.264573 1_554
Mn0 O26 2.280359 1_555
Mn0 O34 2.411450 1_555
Mn1 O25 2.085409 1_655
Mn1 O11 2.111836 1_555
Mn1 O6 2.161056 1_556
Mn1 O23 2.172976 1_655
Mn1 O27 2.302518 1_555
Mn2 O10 2.133521 1_555
Mn2 O0 2.164489 1_555
Mn2 O5 2.199458 1_554
Mn2 O4 2.283686 1_555
Mn2 O32 2.305326 1_555
Mn2 O26 2.365597 1_555
Mn3 O1 2.158317 1_555
Mn3 O11 2.160953 1_555
Mn3 O4 2.184349 1_556
Mn3 O5 2.275812 1_555
Mn3 O33 2.336619 1_555
Mn3 O27 2.360354 1_555
Mn4 O22 2.153739 1_556
Mn4 O23 2.166153 1_665
Mn4 O7 2.273198 1_655
Mn4 O6 2.279230 1_566
Mn4 O31 2.363165 1_665
Mn4 O30 2.363610 1_556
Mn5 O12 2.175932 1_555
Mn5 O0 2.182615 1_555
Mn5 O30 2.183999 1_545
Mn5 O4 2.272273 1_555
Mn5 O27 2.297824 1_554
Mn5 O6 2.332124 1_555
Mn6 O13 2.168189 1_555
Mn6 O31 2.193662 1_565
Mn6 O1 2.195522 1_555
Mn6 O26 2.271952 1_556
Mn6 O5 2.277621 1_555
Mn6 O7 2.350359 1_555
H0 O22 0.973944 1_455
H1 O23 0.973649 1_655
H2 O2 0.986920 1_555
H3 O3 0.984597 1_555
H4 O2 0.978443 1_555
H5 O3 0.977758 1_555
H6 O32 0.981723 1_555
H7 O33 0.983833 1_555
H8 O32 0.999357 1_555
H9 O33 0.974934 1_555
H10 O34 0.990857 1_655
H11 O34 0.985403 1_555
O0 Si1 1.617983 1_555
O1 Si0 1.618404 1_555
O4 Si3 1.640682 1_555
O5 Si2 1.640726 1_555
O6 Si7 1.639531 1_655
O7 Si6 1.637869 1_455
O8 Si9 1.667759 1_555
O8 Si3 1.672797 1_555
O9 Si8 1.664543 1_555
O9 Si2 1.668828 1_555
O10 Si7 1.617344 1_555
O11 Si6 1.626182 1_555
O12 Si9 1.599784 1_555
O13 Si8 1.600080 1_555
O14 Si9 1.663792 1_555
O14 Si7 1.672737 1_655
O15 Si8 1.663610 1_555
O15 Si6 1.671213 1_455
O16 Si7 1.658788 1_555
O16 Si1 1.664014 1_555
O17 Si6 1.659500 1_555
O17 Si0 1.659558 1_555
O18 Si5 1.644670 1_555
O18 Si8 1.650440 1_555
O19 Si4 1.649401 1_555
O19 Si9 1.653608 1_555
O20 Si5 1.642392 1_555
O20 Si3 1.669125 1_555
O21 Si4 1.644251 1_555
O21 Si2 1.674812 1_555
O24 Si3 1.597932 1_555
O25 Si2 1.600939 1_555
O26 Si5 1.618952 1_555
O27 Si4 1.619785 1_555
O28 Si5 1.660748 1_555
O28 Si1 1.681610 1_565
O29 Si4 1.661177 1_555
O29 Si0 1.686197 1_545
O30 Si0 1.632618 1_554
O31 Si1 1.633999 1_556
