# generated using pymatgen
data_Na3LiGa4(SiO3)8
_symmetry_space_group_name_H-M   'P 1'
_cell_length_a   8.78189900
_cell_length_b   5.34190300
_cell_length_c   9.48719256
_cell_angle_alpha   76.16278283
_cell_angle_beta   90.00000000
_cell_angle_gamma   90.00000000
_symmetry_Int_Tables_number   1
_chemical_formula_structural   Na3LiGa4(SiO3)8
_chemical_formula_sum   'Na3 Li1 Ga4 Si8 O24'
_cell_volume   432.14754246
_cell_formula_units_Z   1
loop_
 _symmetry_equiv_pos_site_id
 _symmetry_equiv_pos_as_xyz
  1  'x, y, z'
loop_
 _atom_site_type_symbol
 _atom_site_label
 _atom_site_symmetry_multiplicity
 _atom_site_fract_x
 _atom_site_fract_y
 _atom_site_fract_z
 _atom_site_occupancy
  Na  Na0  1  0.29793500  0.00000000  0.00000000  1
  Na  Na1  1  0.20223800  0.00000000  0.50000000  1
  Na  Na2  1  0.70268300  0.50000000  0.00000000  1
  Li  Li0  1  0.78059000  0.50000000  0.50000000  1
  Ga  Ga0  1  0.40050400  0.50000000  0.50000000  1
  Ga  Ga1  1  0.90149400  0.00000000  0.00000000  1
  Ga  Ga2  1  0.60186700  0.00000000  0.50000000  1
  Ga  Ga3  1  0.09891600  0.50000000  0.00000000  1
  Si  Si0  1  0.08944300  0.69544300  0.29247700  1
  Si  Si1  1  0.59244300  0.19435800  0.79070600  1
  Si  Si2  1  0.08944300  0.30455700  0.70752300  1
  Si  Si3  1  0.59244300  0.80564200  0.20929400  1
  Si  Si4  1  0.90901900  0.80226000  0.70674300  1
  Si  Si5  1  0.40930100  0.30696500  0.20948400  1
  Si  Si6  1  0.90901900  0.19774000  0.29325700  1
  Si  Si7  1  0.40930100  0.69303500  0.79051600  1
  O  O0  1  0.25856500  0.69468600  0.35899600  1
  O  O1  1  0.75906200  0.19340800  0.86023300  1
  O  O2  1  0.25856500  0.30531400  0.64100400  1
  O  O3  1  0.75906200  0.80659200  0.13976700  1
  O  O4  1  0.74239500  0.79473900  0.63630800  1
  O  O5  1  0.24187200  0.30601000  0.14104100  1
  O  O6  1  0.74239500  0.20526100  0.36369200  1
  O  O7  1  0.24187200  0.69399000  0.85895900  1
  O  O8  1  0.07810300  0.77171600  0.11295400  1
  O  O9  1  0.58517400  0.27572800  0.61113400  1
  O  O10  1  0.07810300  0.22828400  0.88704600  1
  O  O11  1  0.58517400  0.72427200  0.38886600  1
  O  O12  1  0.92091200  0.72691600  0.88611200  1
  O  O13  1  0.42179100  0.22812200  0.38867900  1
  O  O14  1  0.92091200  0.27308400  0.11388800  1
  O  O15  1  0.42179100  0.77187800  0.61132100  1
  O  O16  1  0.00573700  0.41521500  0.35541800  1
  O  O17  1  0.50840200  0.91202600  0.85009700  1
  O  O18  1  0.00573700  0.58478500  0.64458200  1
  O  O19  1  0.50840200  0.08797400  0.14990300  1
  O  O20  1  0.99205900  0.08496600  0.64716100  1
  O  O21  1  0.49261000  0.58929800  0.14821800  1
  O  O22  1  0.99205900  0.91503400  0.35283900  1
  O  O23  1  0.49261000  0.41070200  0.85178200  1
loop_
_geom_bond_atom_site_label_1
_geom_bond_atom_site_label_2
_geom_bond_distance
_geom_bond_site_symmetry_2
Na0 O10 2.395284 1_554
Na0 O8 2.395284 1_545
Na0 O5 2.398185 1_555
Na0 O7 2.398185 1_544
Na0 O19 2.445258 1_555
Na0 O17 2.445258 1_544
Na0 O21 2.870152 1_545
Na0 O23 2.870152 1_554
Na1 O15 2.387955 1_545
Na1 O13 2.387955 1_555
Na1 O2 2.395380 1_555
Na1 O0 2.395380 1_545
Na1 O20 2.421819 1_455
Na1 O22 2.421819 1_445
Na1 O16 2.885097 1_555
Na1 O18 2.885097 1_545
Na2 O14 2.383933 1_555
Na2 O12 2.383933 1_554
Na2 O1 2.392599 1_554
Na2 O3 2.392599 1_555
Na2 O23 2.434986 1_554
Na2 O21 2.434986 1_555
Na2 O19 2.877615 1_555
Na2 O17 2.877615 1_554
Li0 O11 2.210844 1_555
Li0 O9 2.210844 1_555
Li0 O4 2.288598 1_555
Li0 O6 2.288598 1_555
Li0 O16 2.508622 1_655
Li0 O18 2.508622 1_655
Ga0 O2 1.938916 1_555
Ga0 O0 1.938916 1_555
Ga0 O15 1.998334 1_555
Ga0 O13 1.998334 1_555
Ga0 O11 2.138418 1_555
Ga0 O9 2.138418 1_555
Ga1 O1 1.932605 1_554
Ga1 O3 1.932605 1_545
Ga1 O12 2.019532 1_544
Ga1 O14 2.019532 1_555
Ga1 O10 2.101398 1_654
Ga1 O8 2.101398 1_645
Ga2 O4 1.928563 1_545
Ga2 O6 1.928563 1_555
Ga2 O9 2.011328 1_555
Ga2 O11 2.011328 1_545
Ga2 O13 2.117934 1_555
Ga2 O15 2.117934 1_545
Ga3 O7 1.943493 1_554
Ga3 O5 1.943493 1_555
Ga3 O10 2.008126 1_554
Ga3 O8 2.008126 1_555
Ga3 O12 2.110434 1_454
Ga3 O14 2.110434 1_455
O0 Si0 1.613354 1_555
O1 Si1 1.604545 1_555
O2 Si2 1.613354 1_555
O3 Si3 1.604545 1_555
O4 Si4 1.613122 1_555
O5 Si5 1.607842 1_555
O6 Si6 1.613122 1_555
O7 Si7 1.607842 1_555
O8 Si0 1.656738 1_555
O9 Si1 1.655648 1_555
O10 Si2 1.656738 1_555
O11 Si3 1.655648 1_555
O12 Si4 1.655627 1_555
O13 Si5 1.654425 1_555
O14 Si6 1.655627 1_555
O15 Si7 1.654425 1_555
O16 Si0 1.646278 1_555
O16 Si6 1.657268 1_455
O17 Si1 1.652374 1_565
O17 Si7 1.661843 1_555
O18 Si2 1.646278 1_555
O18 Si4 1.657268 1_455
O19 Si3 1.652374 1_545
O19 Si5 1.661843 1_555
O20 Si4 1.650354 1_545
O20 Si2 1.660322 1_655
O21 Si5 1.651798 1_555
O21 Si3 1.661422 1_555
O22 Si6 1.650354 1_565
O22 Si0 1.660322 1_655
O23 Si7 1.651798 1_555
O23 Si1 1.661422 1_555
