# generated using pymatgen
data_Rb12Li(ClO)4
_symmetry_space_group_name_H-M   'P 1'
_cell_length_a   7.72172311
_cell_length_b   8.35810371
_cell_length_c   10.93360943
_cell_angle_alpha   90.73079011
_cell_angle_beta   88.51681441
_cell_angle_gamma   88.53768835
_symmetry_Int_Tables_number   1
_chemical_formula_structural   Rb12Li(ClO)4
_chemical_formula_sum   'Rb12 Li1 Cl4 O4'
_cell_volume   705.11412431
_cell_formula_units_Z   1
loop_
 _symmetry_equiv_pos_site_id
 _symmetry_equiv_pos_as_xyz
  1  'x, y, z'
loop_
 _atom_site_type_symbol
 _atom_site_label
 _atom_site_symmetry_multiplicity
 _atom_site_fract_x
 _atom_site_fract_y
 _atom_site_fract_z
 _atom_site_occupancy
  Rb  Rb0  1  0.07805800  0.42784800  0.25934900  1
  Rb  Rb1  1  0.20952200  0.20858700  0.55926300  1
  Rb  Rb2  1  0.22809800  0.24428600  0.94801400  1
  Rb  Rb3  1  0.25323500  0.71136700  0.98451900  1
  Rb  Rb4  1  0.28770400  0.70978800  0.52422600  1
  Rb  Rb5  1  0.44982300  0.00147100  0.24337200  1
  Rb  Rb6  1  0.57882300  0.98677200  0.74598800  1
  Rb  Rb7  1  0.68233100  0.33882600  0.03063400  1
  Rb  Rb8  1  0.69024100  0.30889000  0.48448700  1
  Rb  Rb9  1  0.76810500  0.72805100  0.07391200  1
  Rb  Rb10  1  0.78983900  0.79320100  0.44382300  1
  Rb  Rb11  1  0.92040600  0.54765700  0.74694200  1
  Li  Li0  1  0.84658300  0.02569300  0.97760400  1
  Cl  Cl0  1  0.03413100  0.01324300  0.15447500  1
  Cl  Cl1  1  0.48178900  0.56962100  0.25064800  1
  Cl  Cl2  1  0.48219800  0.48301200  0.76860900  1
  Cl  Cl3  1  0.02307800  0.95653800  0.79652700  1
  O  O0  1  0.00069000  0.48925400  0.00317200  1
  O  O1  1  0.99342300  0.50368700  0.49966300  1
  O  O2  1  0.61535300  0.02393800  0.99777200  1
  O  O3  1  0.50323600  0.01160300  0.49509600  1
loop_
_geom_bond_atom_site_label_1
_geom_bond_atom_site_label_2
_geom_bond_distance
_geom_bond_site_symmetry_2
Li0 O2 1.793841 1_555
Li0 Rb9 2.788460 1_546
Cl0 Li0 2.447497 1_454
Cl0 Rb9 3.311709 1_445
Cl0 Rb2 3.339437 1_554
Cl0 Rb5 3.377191 1_555
Cl0 Rb3 3.490170 1_544
Cl0 Rb0 3.662924 1_555
Cl1 Rb9 3.220072 1_555
Cl1 Rb0 3.362741 1_555
Cl1 Rb7 3.382604 1_555
Cl1 Rb4 3.486356 1_555
Cl1 Rb5 3.613618 1_565
Cl1 Rb3 3.637570 1_554
Cl1 Rb10 3.741309 1_555
Cl1 Rb8 3.748693 1_555
Cl2 Rb2 3.432066 1_555
Cl2 Rb3 3.440664 1_555
Cl2 Rb11 3.442775 1_555
Cl2 Rb7 3.502889 1_556
Cl2 Rb4 3.630324 1_555
Cl2 Rb8 3.722350 1_555
Cl2 Rb1 3.910925 1_555
Cl3 Li0 2.429418 1_465
Cl3 Rb3 3.419505 1_555
Cl3 Rb11 3.565786 1_455
Cl3 Rb1 3.652549 1_565
O0 Rb2 2.714678 1_554
O0 Rb3 2.732149 1_554
O0 Rb9 2.740988 1_455
O0 Rb7 2.800580 1_455
O0 Rb0 2.928006 1_555
O0 Rb11 2.929240 1_454
O1 Rb0 2.753203 1_655
O1 Rb11 2.765475 1_555
O1 Rb8 2.892542 1_555
O1 Rb4 2.902189 1_655
O1 Rb10 2.931312 1_555
O1 Rb1 3.029817 1_655
O2 Rb7 2.716297 1_556
O2 Rb6 2.788803 1_545
O2 Rb9 2.855650 1_546
O2 Rb5 2.954190 1_556
O3 Rb5 2.794060 1_555
O3 Rb6 2.828402 1_545
O3 Rb1 2.836229 1_555
O3 Rb10 2.871866 1_545
O3 Rb8 2.907647 1_555
O3 Rb4 3.072802 1_545
