# generated using pymatgen
data_Nd14Cl33
_symmetry_space_group_name_H-M   'P 1'
_cell_length_a   11.15356400
_cell_length_b   11.16533034
_cell_length_c   21.15818940
_cell_angle_alpha   98.26757449
_cell_angle_beta   101.51233764
_cell_angle_gamma   110.33078438
_symmetry_Int_Tables_number   1
_chemical_formula_structural   Nd14Cl33
_chemical_formula_sum   'Nd28 Cl66'
_cell_volume   2355.00680748
_cell_formula_units_Z   2
loop_
 _symmetry_equiv_pos_site_id
 _symmetry_equiv_pos_as_xyz
  1  'x, y, z'
loop_
 _atom_site_type_symbol
 _atom_site_label
 _atom_site_symmetry_multiplicity
 _atom_site_fract_x
 _atom_site_fract_y
 _atom_site_fract_z
 _atom_site_occupancy
  Nd  Nd0  1  0.69417400  0.39759600  0.54468700  1
  Nd  Nd1  1  0.30582600  0.60240400  0.45531300  1
  Nd  Nd2  1  0.92475300  0.23802400  0.92745600  1
  Nd  Nd3  1  0.07524700  0.76197600  0.07254400  1
  Nd  Nd4  1  0.47249000  0.55056200  0.68482100  1
  Nd  Nd5  1  0.52751000  0.44943800  0.31517900  1
  Nd  Nd6  1  0.08978400  0.25979200  0.57001300  1
  Nd  Nd7  1  0.91021600  0.74020800  0.42998700  1
  Nd  Nd8  1  0.13765600  0.72770800  0.65422200  1
  Nd  Nd9  1  0.86234400  0.27229200  0.34577800  1
  Nd  Nd10  1  0.63001000  0.45802400  0.92892900  1
  Nd  Nd11  1  0.36999000  0.54197600  0.07107100  1
  Nd  Nd12  1  0.23649600  0.64305700  0.88166900  1
  Nd  Nd13  1  0.76350400  0.35694300  0.11833100  1
  Nd  Nd14  1  0.85787400  0.36077200  0.73580000  1
  Nd  Nd15  1  0.14212600  0.63922800  0.26420000  1
  Nd  Nd16  1  0.50592700  0.97863200  0.80263300  1
  Nd  Nd17  1  0.49407300  0.02136800  0.19736700  1
  Nd  Nd18  1  0.30785000  0.09345700  0.96738000  1
  Nd  Nd19  1  0.69215000  0.90654300  0.03262000  1
  Nd  Nd20  1  0.86063000  0.76916600  0.84413600  1
  Nd  Nd21  1  0.13937000  0.23083400  0.15586400  1
  Nd  Nd22  1  0.17857700  0.13543000  0.75978500  1
  Nd  Nd23  1  0.82142300  0.86457000  0.24021500  1
  Nd  Nd24  1  0.37146400  0.04668000  0.57733100  1
  Nd  Nd25  1  0.62853700  0.95332000  0.42266900  1
  Nd  Nd26  1  0.75132200  0.86380600  0.62168900  1
  Nd  Nd27  1  0.24867800  0.13619400  0.37831100  1
  Cl  Cl0  1  0.04456800  0.06310300  0.87433600  1
  Cl  Cl1  1  0.95543200  0.93689700  0.12566400  1
  Cl  Cl2  1  0.35428000  0.28996000  0.88528400  1
  Cl  Cl3  1  0.64572000  0.71004000  0.11471600  1
  Cl  Cl4  1  0.03139600  0.63812900  0.77477600  1
  Cl  Cl5  1  0.96860400  0.36187100  0.22522400  1
  Cl  Cl6  1  0.55452600  0.60727500  0.56770800  1
  Cl  Cl7  1  0.44547400  0.39272500  0.43229200  1
  Cl  Cl8  1  0.47319900  0.61973800  0.96015100  1
  Cl  Cl9  1  0.52680100  0.38026200  0.03984900  1
  Cl  Cl10  1  0.24401100  0.54479400  0.58701500  1
  Cl  Cl11  1  0.75598900  0.45520600  0.41298500  1
  Cl  Cl12  1  0.64188600  0.20417200  0.91479400  1
  Cl  Cl13  1  0.35811400  0.79582800  0.08520600  1
  Cl  Cl14  1  0.45119000  0.89334500  0.93201800  1
  Cl  Cl15  1  0.54881000  0.10665500  0.06798200  1
  Cl  Cl16  1  0.96031600  0.44121300  0.62612200  1
  Cl  Cl17  1  0.03968400  0.55878700  0.37387800  1
  Cl  Cl18  1  0.08130600  0.35697800  0.83088600  1
  Cl  Cl19  1  0.91869400  0.64302200  0.16911400  1
  Cl  Cl20  1  0.58357000  0.58096800  0.82242400  1
  Cl  Cl21  1  0.41643000  0.41903200  0.17757600  1
  Cl  Cl22  1  0.76286600  0.14006500  0.78950500  1
  Cl  Cl23  1  0.23713400  0.85993500  0.21049500  1
  Cl  Cl24  1  0.70695700  0.50199200  0.68057100  1
  Cl  Cl25  1  0.29304300  0.49800800  0.31942900  1
  Cl  Cl26  1  0.86465400  0.46702100  0.01838600  1
  Cl  Cl27  1  0.13534600  0.53297900  0.98161400  1
  Cl  Cl28  1  0.11898900  0.81472200  0.94178900  1
  Cl  Cl29  1  0.88101100  0.18527800  0.05821100  1
  Cl  Cl30  1  0.83431600  0.49215900  0.85749300  1
  Cl  Cl31  1  0.16568400  0.50784100  0.14250700  1
  Cl  Cl32  1  0.81506600  0.72923900  0.97622800  1
  Cl  Cl33  1  0.18493400  0.27076100  0.02377200  1
  Cl  Cl34  1  0.26515700  0.96897500  0.83023400  1
  Cl  Cl35  1  0.73484300  0.03102500  0.16976600  1
  Cl  Cl36  1  0.37349700  0.30366700  0.58724700  1
  Cl  Cl37  1  0.62650300  0.69633300  0.41275300  1
  Cl  Cl38  1  0.87308900  0.68319500  0.56333700  1
  Cl  Cl39  1  0.12691100  0.31680500  0.43666300  1
  Cl  Cl40  1  0.14227300  0.04526500  0.48346000  1
  Cl  Cl41  1  0.85772700  0.95473500  0.51654000  1
  Cl  Cl42  1  0.65298000  0.18724000  0.62277700  1
  Cl  Cl43  1  0.34702000  0.81276000  0.37722300  1
  Cl  Cl44  1  0.74400000  0.95351500  0.90369900  1
  Cl  Cl45  1  0.25600000  0.04648500  0.09630100  1
  Cl  Cl46  1  0.34118800  0.69654900  0.76535400  1
  Cl  Cl47  1  0.65881200  0.30345100  0.23464600  1
  Cl  Cl48  1  0.15286900  0.98022300  0.63534600  1
  Cl  Cl49  1  0.84713100  0.01977700  0.36465400  1
  Cl  Cl50  1  0.94211400  0.14512400  0.67096300  1
  Cl  Cl51  1  0.05788600  0.85487600  0.32903700  1
  Cl  Cl52  1  0.66189600  0.81424400  0.74127700  1
  Cl  Cl53  1  0.33810400  0.18575600  0.25872300  1
  Cl  Cl54  1  0.51852300  0.87057800  0.52905700  1
  Cl  Cl55  1  0.48147700  0.12942200  0.47094300  1
  Cl  Cl56  1  0.17871200  0.77276700  0.51730500  1
  Cl  Cl57  1  0.82128800  0.22723300  0.48269500  1
  Cl  Cl58  1  0.41425300  0.88093600  0.66241800  1
  Cl  Cl59  1  0.58574700  0.11906400  0.33758200  1
  Cl  Cl60  1  0.96349300  0.86917300  0.72540200  1
  Cl  Cl61  1  0.03650700  0.13082700  0.27459800  1
  Cl  Cl62  1  0.24379600  0.36823000  0.70984400  1
  Cl  Cl63  1  0.75620400  0.63177000  0.29015600  1
  Cl  Cl64  1  0.44358000  0.17621000  0.74637600  1
  Cl  Cl65  1  0.55642000  0.82379000  0.25362400  1
loop_
_geom_bond_atom_site_label_1
_geom_bond_atom_site_label_2
_geom_bond_distance
_geom_bond_site_symmetry_2
Cl0 Nd2 2.940296 1_455
Cl0 Nd18 3.069637 1_555
Cl0 Nd20 3.095658 1_445
Cl0 Nd22 3.151293 1_555
Cl1 Nd3 2.940296 1_655
Cl1 Nd19 3.069637 1_555
Cl1 Nd21 3.095658 1_665
Cl1 Nd23 3.151293 1_555
Cl2 Nd22 2.850255 1_555
Cl2 Nd10 2.861794 1_555
Cl2 Nd18 2.960513 1_555
Cl3 Nd23 2.850255 1_555
Cl3 Nd11 2.861794 1_555
Cl3 Nd19 2.960513 1_555
Cl4 Nd12 2.857068 1_555
Cl4 Nd14 2.911974 1_455
Cl4 Nd8 3.166664 1_555
Cl4 Nd20 3.218152 1_455
Cl5 Nd13 2.857068 1_555
Cl5 Nd15 2.911974 1_655
Cl5 Nd9 3.166664 1_555
Cl5 Nd21 3.218152 1_655
Cl6 Nd26 2.831284 1_555
Cl6 Nd4 2.886486 1_555
Cl6 Nd1 3.252321 1_555
Cl6 Nd0 3.263885 1_555
Cl7 Nd27 2.831284 1_555
Cl7 Nd5 2.886486 1_555
Cl7 Nd0 3.252321 1_555
Cl7 Nd1 3.263885 1_555
Cl8 Nd11 2.925170 1_556
Cl8 Nd12 2.940630 1_555
Cl8 Nd10 3.011332 1_555
Cl8 Nd19 3.198207 1_556
Cl9 Nd10 2.925170 1_554
Cl9 Nd13 2.940630 1_555
Cl9 Nd11 3.011332 1_555
Cl9 Nd18 3.198207 1_554
Cl10 Nd4 2.919472 1_555
Cl10 Nd6 2.972301 1_555
Cl10 Nd8 3.020216 1_555
Cl10 Nd1 3.102950 1_555
Cl11 Nd5 2.919472 1_555
Cl11 Nd7 2.972301 1_555
Cl11 Nd9 3.020216 1_555
Cl11 Nd0 3.102950 1_555
Cl12 Nd10 2.858915 1_555
Cl12 Nd16 2.909311 1_545
Cl12 Nd2 2.995558 1_555
Cl13 Nd11 2.858915 1_555
Cl13 Nd17 2.909311 1_565
Cl13 Nd3 2.995558 1_555
Cl14 Nd12 2.855531 1_555
Cl14 Nd19 3.021030 1_556
Cl14 Nd16 3.128348 1_555
Cl14 Nd18 3.253745 1_565
Cl15 Nd13 2.855531 1_555
Cl15 Nd18 3.021030 1_554
Cl15 Nd17 3.128348 1_555
Cl15 Nd19 3.253745 1_545
Cl16 Nd14 2.905511 1_555
Cl16 Nd0 2.954680 1_555
Cl16 Nd8 3.014180 1_655
Cl16 Nd6 3.102095 1_655
Cl17 Nd15 2.905511 1_555
Cl17 Nd1 2.954680 1_555
Cl17 Nd9 3.014180 1_455
Cl17 Nd7 3.102095 1_455
Cl18 Nd14 2.890732 1_455
Cl18 Nd12 2.963445 1_555
Cl18 Nd2 3.095296 1_455
Cl18 Nd22 3.317418 1_555
Cl19 Nd15 2.890732 1_655
Cl19 Nd13 2.963445 1_555
Cl19 Nd3 3.095296 1_655
Cl19 Nd23 3.317418 1_555
Cl20 Nd4 2.847863 1_555
Cl20 Nd10 2.854552 1_555
Cl20 Nd20 2.969754 1_555
Cl21 Nd5 2.847863 1_555
Cl21 Nd11 2.854552 1_555
Cl21 Nd21 2.969754 1_555
Cl22 Nd14 2.821007 1_555
Cl22 Nd16 2.900186 1_545
Cl22 Nd2 2.929473 1_555
Cl23 Nd15 2.821007 1_555
Cl23 Nd17 2.900186 1_565
Cl23 Nd3 2.929473 1_555
Cl24 Nd4 2.864692 1_555
Cl24 Nd14 2.876477 1_555
Cl24 Nd0 2.898632 1_555
Cl25 Nd5 2.864692 1_555
Cl25 Nd15 2.876477 1_555
Cl25 Nd1 2.898632 1_555
Cl26 Nd13 2.826900 1_555
Cl26 Nd10 2.868323 1_554
Cl26 Nd3 3.184495 1_655
Cl26 Nd2 3.313480 1_554
Cl27 Nd12 2.826900 1_555
Cl27 Nd11 2.868323 1_556
Cl27 Nd2 3.184495 1_455
Cl27 Nd3 3.313480 1_556
Cl28 Nd12 2.952859 1_555
Cl28 Nd18 2.986752 1_565
Cl28 Nd3 3.007702 1_556
Cl28 Nd20 3.022284 1_455
Cl29 Nd13 2.952859 1_555
Cl29 Nd19 2.986752 1_545
Cl29 Nd2 3.007702 1_554
Cl29 Nd21 3.022284 1_655
Cl30 Nd14 2.881369 1_555
Cl30 Nd10 2.925641 1_555
Cl30 Nd20 3.063592 1_555
Cl31 Nd15 2.881369 1_555
Cl31 Nd11 2.925641 1_555
Cl31 Nd21 3.063592 1_555
Cl32 Nd10 2.896984 1_555
Cl32 Nd20 3.005976 1_555
Cl32 Nd19 3.013586 1_556
Cl32 Nd3 3.065287 1_656
Cl33 Nd11 2.896984 1_555
Cl33 Nd21 3.005976 1_555
Cl33 Nd18 3.013586 1_554
Cl33 Nd2 3.065287 1_454
Cl34 Nd16 2.829693 1_555
Cl34 Nd22 2.842135 1_565
Cl34 Nd18 2.899554 1_565
Cl35 Nd17 2.829693 1_555
Cl35 Nd23 2.842135 1_545
Cl35 Nd19 2.899554 1_545
Cl36 Nd24 2.838561 1_555
Cl36 Nd4 2.901520 1_555
Cl36 Nd6 2.966025 1_555
Cl37 Nd25 2.838557 1_555
Cl37 Nd5 2.901520 1_555
Cl37 Nd7 2.966025 1_555
Cl38 Nd8 3.015536 1_655
Cl38 Nd0 3.034535 1_555
Cl38 Nd26 3.048251 1_555
Cl38 Nd7 3.055644 1_555
Cl39 Nd9 3.015536 1_455
Cl39 Nd1 3.034535 1_555
Cl39 Nd27 3.048251 1_555
Cl39 Nd6 3.055644 1_555
Cl40 Nd27 2.873156 1_555
Cl40 Nd24 2.901030 1_555
Cl40 Nd6 3.094278 1_555
Cl40 Nd7 3.343258 1_445
Cl41 Nd26 2.873156 1_555
Cl41 Nd25 2.901022 1_555
Cl41 Nd7 3.094278 1_555
Cl41 Nd6 3.343258 1_665
Cl42 Nd14 2.846846 1_555
Cl42 Nd24 2.860644 1_555
Cl42 Nd0 3.021020 1_555
Cl43 Nd15 2.846846 1_555
Cl43 Nd25 2.860653 1_555
Cl43 Nd1 3.021020 1_555
Cl44 Nd19 2.979995 1_556
Cl44 Nd2 3.015664 1_565
Cl44 Nd20 3.047294 1_555
Cl44 Nd16 3.182087 1_555
Cl45 Nd18 2.979995 1_554
Cl45 Nd3 3.015664 1_545
Cl45 Nd21 3.047294 1_555
Cl45 Nd17 3.182087 1_555
Cl46 Nd16 2.933205 1_555
Cl46 Nd12 2.976906 1_555
Cl46 Nd8 3.075175 1_555
Cl46 Nd4 3.092090 1_555
Cl47 Nd17 2.933205 1_555
Cl47 Nd13 2.976906 1_555
Cl47 Nd9 3.075175 1_555
Cl47 Nd5 3.092090 1_555
Cl48 Nd22 2.838778 1_565
Cl48 Nd8 2.855844 1_555
Cl48 Nd24 2.863762 1_565
Cl49 Nd23 2.838778 1_545
Cl49 Nd9 2.855844 1_555
Cl49 Nd25 2.863753 1_545
Cl50 Nd22 2.962747 1_655
Cl50 Nd26 3.001552 1_545
Cl50 Nd6 3.104749 1_655
Cl50 Nd14 3.114276 1_555
Cl51 Nd23 2.962747 1_455
Cl51 Nd27 3.001552 1_565
Cl51 Nd7 3.104749 1_455
Cl51 Nd15 3.114276 1_555
Cl52 Nd4 2.866521 1_555
Cl52 Nd26 2.954628 1_555
Cl52 Nd20 3.011253 1_555
Cl52 Nd16 3.242727 1_555
Cl53 Nd5 2.866521 1_555
Cl53 Nd27 2.954628 1_555
Cl53 Nd21 3.011253 1_555
Cl53 Nd17 3.242727 1_555
Cl54 Nd25 2.887711 1_555
Cl54 Nd26 2.955801 1_555
Cl54 Nd1 3.044820 1_555
Cl54 Nd24 3.151488 1_565
Cl55 Nd24 2.887706 1_555
Cl55 Nd27 2.955801 1_555
Cl55 Nd0 3.044820 1_555
Cl55 Nd25 3.151497 1_545
Cl56 Nd24 2.968594 1_565
Cl56 Nd1 3.040955 1_555
Cl56 Nd7 3.058673 1_455
Cl56 Nd8 3.105397 1_555
Cl57 Nd25 2.968591 1_545
Cl57 Nd0 3.040955 1_555
Cl57 Nd6 3.058673 1_655
Cl57 Nd9 3.105397 1_555
Cl58 Nd16 2.849582 1_555
Cl58 Nd24 2.849977 1_565
Cl58 Nd8 2.916862 1_555
Cl59 Nd17 2.849582 1_555
Cl59 Nd25 2.849980 1_545
Cl59 Nd9 2.916862 1_555
Cl60 Nd26 2.865290 1_555
Cl60 Nd22 2.974519 1_665
Cl60 Nd20 3.152971 1_555
Cl60 Nd8 3.339481 1_655
Cl61 Nd27 2.865290 1_555
Cl61 Nd23 2.974519 1_445
Cl61 Nd21 3.152971 1_555
Cl61 Nd9 3.339481 1_455
Cl62 Nd4 2.858631 1_555
Cl62 Nd22 2.860912 1_555
Cl62 Nd6 2.943781 1_555
Cl63 Nd5 2.858631 1_555
Cl63 Nd23 2.860912 1_555
Cl63 Nd7 2.943781 1_555
Cl64 Nd16 2.873616 1_545
Cl64 Nd22 2.908752 1_555
Cl64 Nd24 3.476630 1_555
Cl65 Nd17 2.873616 1_565
Cl65 Nd23 2.908752 1_555
Cl65 Nd25 3.476629 1_555
