# generated using pymatgen
data_BaSrLiNdTlCu2O7
_symmetry_space_group_name_H-M   'P 1'
_cell_length_a   3.93014100
_cell_length_b   4.02122484
_cell_length_c   13.08154968
_cell_angle_alpha   94.42870016
_cell_angle_beta   90.00000000
_cell_angle_gamma   90.00000000
_symmetry_Int_Tables_number   1
_chemical_formula_structural   BaSrLiNdTlCu2O7
_chemical_formula_sum   'Ba1 Sr1 Li1 Nd1 Tl1 Cu2 O7'
_cell_volume   206.12327105
_cell_formula_units_Z   1
loop_
 _symmetry_equiv_pos_site_id
 _symmetry_equiv_pos_as_xyz
  1  'x, y, z'
loop_
 _atom_site_type_symbol
 _atom_site_label
 _atom_site_symmetry_multiplicity
 _atom_site_fract_x
 _atom_site_fract_y
 _atom_site_fract_z
 _atom_site_occupancy
  Ba  Ba0  1  0.50000000  0.56350000  0.77934900  1
  Sr  Sr0  1  0.50000000  0.41425700  0.24385900  1
  Li  Li0  1  0.50000000  0.88105300  0.08929600  1
  Nd  Nd0  1  0.50000000  0.49510600  0.50271700  1
  Tl  Tl0  1  0.00000000  0.19970600  0.99443500  1
  Cu  Cu0  1  0.00000000  0.02475700  0.61949600  1
  Cu  Cu1  1  0.00000000  0.95956000  0.37729400  1
  O  O0  1  0.50000000  0.02328900  0.61412600  1
  O  O1  1  0.00000000  0.52432100  0.61710300  1
  O  O2  1  0.50000000  0.95769500  0.37427400  1
  O  O3  1  0.00000000  0.46015100  0.37778200  1
  O  O4  1  0.00000000  0.06634700  0.83073900  1
  O  O5  1  0.00000000  0.98614100  0.14936500  1
  O  O6  1  0.50000000  0.44178600  0.03433400  1
loop_
_geom_bond_atom_site_label_1
_geom_bond_atom_site_label_2
_geom_bond_distance
_geom_bond_site_symmetry_2
Ba0 O4 2.862208 1_565
Ba0 O4 2.862208 1_665
Ba0 O1 2.887800 1_555
Ba0 O1 2.887800 1_655
Ba0 O4 2.918501 1_555
Ba0 O4 2.918501 1_655
Ba0 O0 2.943698 1_555
Ba0 O0 2.950793 1_565
Ba0 O6 3.408504 1_556
Li0 O6 1.854979 1_555
Li0 O5 2.146222 1_555
Li0 O5 2.146222 1_655
Li0 O6 2.419006 1_565
Nd0 O1 2.467227 1_555
Nd0 O1 2.467227 1_655
Nd0 O0 2.480068 1_555
Nd0 O0 2.481351 1_565
Nd0 O3 2.552814 1_655
Nd0 O3 2.552814 1_555
Nd0 O2 2.601179 1_555
Nd0 O2 2.632974 1_545
Cu0 O0 1.966318 1_555
Cu0 O0 1.966318 1_455
Cu0 O1 2.010191 1_545
Cu0 O1 2.011519 1_555
Cu1 O2 1.965470 1_555
Cu1 O2 1.965470 1_455
Cu1 O3 2.008739 1_555
Cu1 O3 2.012506 1_565
O2 Sr0 2.600948 1_565
O2 Sr0 2.666505 1_555
O3 Sr0 2.629611 1_555
O3 Sr0 2.629611 1_455
O4 Tl0 2.166983 1_555
O5 Tl0 2.261402 1_564
O5 Sr0 2.832773 1_565
O5 Sr0 2.832773 1_465
O6 Tl0 2.236756 1_554
O6 Tl0 2.236756 1_654
O6 Sr0 2.751674 1_555
