# generated using pymatgen
data_Li2TiV5O12
_symmetry_space_group_name_H-M   'P 1'
_cell_length_a   5.72463555
_cell_length_b   6.83887664
_cell_length_c   13.12205220
_cell_angle_alpha   99.55998573
_cell_angle_beta   96.78560923
_cell_angle_gamma   108.17020910
_symmetry_Int_Tables_number   1
_chemical_formula_structural   Li2TiV5O12
_chemical_formula_sum   'Li4 Ti2 V10 O24'
_cell_volume   473.34898629
_cell_formula_units_Z   2
loop_
 _symmetry_equiv_pos_site_id
 _symmetry_equiv_pos_as_xyz
  1  'x, y, z'
loop_
 _atom_site_type_symbol
 _atom_site_label
 _atom_site_symmetry_multiplicity
 _atom_site_fract_x
 _atom_site_fract_y
 _atom_site_fract_z
 _atom_site_occupancy
  Li  Li0  1  0.40715900  0.30843400  0.15540700  1
  Li  Li1  1  0.89185100  0.30298900  0.65268800  1
  Li  Li2  1  0.08363900  0.69521500  0.35438100  1
  Li  Li3  1  0.60034900  0.68745900  0.84754800  1
  Ti  Ti0  1  0.71694800  0.92450100  0.46106200  1
  Ti  Ti1  1  0.21355400  0.92383900  0.96330300  1
  V  V0  1  0.49948500  0.16624000  0.81656900  1
  V  V1  1  0.90645400  0.62947200  0.08644400  1
  V  V2  1  0.57565900  0.37654500  0.41865500  1
  V  V3  1  0.09875200  0.36013000  0.91570500  1
  V  V4  1  0.99199800  0.83882300  0.68224400  1
  V  V5  1  0.79033600  0.07292500  0.03787900  1
  V  V6  1  0.30082200  0.09210800  0.54255400  1
  V  V7  1  0.97305300  0.16266100  0.31546300  1
  V  V8  1  0.38168900  0.65910900  0.60075900  1
  V  V9  1  0.49325200  0.81975400  0.17456400  1
  O  O0  1  0.05601300  0.99777300  0.40558600  1
  O  O1  1  0.54453600  0.97302400  0.90402800  1
  O  O2  1  0.36685800  0.80609800  0.48816200  1
  O  O3  1  0.84988100  0.80314900  0.98744600  1
  O  O4  1  0.88697200  0.02588400  0.17314300  1
  O  O5  1  0.37749400  0.00445200  0.67749500  1
  O  O6  1  0.81572200  0.34996500  0.01218700  1
  O  O7  1  0.34447800  0.38905200  0.52097800  1
  O  O8  1  0.13997300  0.18325200  0.01936500  1
  O  O9  1  0.64768800  0.19817500  0.50667600  1
  O  O10  1  0.47790200  0.04090900  0.09409400  1
  O  O11  1  0.95799800  0.03915300  0.59411200  1
  O  O12  1  0.87608000  0.38136700  0.34736600  1
  O  O13  1  0.39849700  0.38765500  0.84560400  1
  O  O14  1  0.14238700  0.69007500  0.19909600  1
  O  O15  1  0.64190200  0.69849900  0.69937000  1
  O  O16  1  0.33626800  0.29924600  0.30604400  1
  O  O17  1  0.82927400  0.28563100  0.79919900  1
  O  O18  1  0.61019400  0.58897500  0.13987700  1
  O  O19  1  0.08421400  0.59068800  0.64620100  1
  O  O20  1  0.74085000  0.66215600  0.46720700  1
  O  O21  1  0.20310200  0.65775000  0.99002400  1
  O  O22  1  0.62839000  0.95692000  0.32096400  1
  O  O23  1  0.11833200  0.96995100  0.83055000  1
loop_
_geom_bond_atom_site_label_1
_geom_bond_atom_site_label_2
_geom_bond_distance
_geom_bond_site_symmetry_2
Li0 O18 1.966847 1_555
Li0 O10 2.051538 1_555
Li0 O8 2.071143 1_555
Li0 O16 2.071417 1_555
Li1 O19 1.953863 1_655
Li1 O11 2.006011 1_555
Li1 O17 2.012599 1_555
Li1 O9 2.103465 1_555
Li2 O12 2.084497 1_455
Li2 O2 2.098545 1_555
Li2 O14 2.100455 1_555
Li2 O0 2.127273 1_555
Li2 O20 2.571931 1_455
Li3 O15 1.997457 1_555
Li3 O13 2.009416 1_555
Li3 O3 2.056576 1_555
Li3 O1 2.104688 1_555
O0 V7 1.881467 1_465
O0 V6 2.016504 1_565
O0 Ti0 2.096913 1_455
O1 V0 1.943180 1_565
O1 V5 1.987333 1_566
O1 Ti1 2.084679 1_555
O2 V8 1.928123 1_555
O2 Ti0 2.012619 1_555
O2 V6 2.130592 1_565
O3 V1 1.963721 1_556
O3 V5 1.999508 1_566
O3 Ti1 2.070487 1_655
O4 V7 1.876239 1_555
O4 V5 1.904883 1_555
O4 V9 2.259358 1_545
O5 V0 1.894345 1_555
O5 V6 2.005100 1_555
O5 V4 2.157296 1_445
O5 V8 2.417346 1_545
O6 V1 1.875002 1_555
O6 V5 1.943313 1_555
O6 V3 2.162547 1_654
O7 V8 1.900539 1_555
O7 V2 2.003484 1_555
O7 V6 2.039064 1_555
O8 V5 1.966826 1_455
O8 Ti1 1.992940 1_544
O8 V3 2.004464 1_554
O9 V2 1.913447 1_555
O9 V6 2.031444 1_555
O9 Ti0 2.040890 1_545
O10 V5 1.977939 1_555
O10 V9 2.000415 1_545
O10 Ti1 2.012653 1_544
O11 Ti0 1.966795 1_545
O11 V4 1.972738 1_545
O11 V6 2.095784 1_655
O12 V7 1.756515 1_555
O12 V2 2.046688 1_555
O13 V0 1.782882 1_555
O13 V3 2.013721 1_555
O14 V1 1.776711 1_455
O14 V9 2.015231 1_555
O15 V8 1.773240 1_555
O15 V4 1.991652 1_555
O16 V2 1.775174 1_555
O16 V7 2.024579 1_455
O17 V0 1.866810 1_555
O17 V3 1.915823 1_655
O18 V1 1.870086 1_555
O18 V9 1.907519 1_555
O19 V8 1.819387 1_555
O19 V4 1.932145 1_455
O20 V2 1.845983 1_555
O20 Ti0 1.855462 1_555
O21 Ti1 1.893939 1_555
O21 V3 1.973675 1_555
O21 V1 2.215011 1_456
O21 V9 2.619338 1_556
O22 Ti0 1.915993 1_555
O22 V9 1.940764 1_555
O22 V7 2.052780 1_565
O23 Ti1 1.869871 1_555
O23 V4 1.948768 1_455
O23 V0 2.224015 1_565
