# generated using pymatgen
data_HgC4Br3N
_symmetry_space_group_name_H-M   'P 1'
_cell_length_a   18.99189800
_cell_length_b   8.43048200
_cell_length_c   8.66629429
_cell_angle_alpha   86.89149796
_cell_angle_beta   90.00000000
_cell_angle_gamma   90.00000000
_symmetry_Int_Tables_number   1
_chemical_formula_structural   HgC4Br3N
_chemical_formula_sum   'Hg4 C16 Br12 N4'
_cell_volume   1385.52616189
_cell_formula_units_Z   4
loop_
 _symmetry_equiv_pos_site_id
 _symmetry_equiv_pos_as_xyz
  1  'x, y, z'
loop_
 _atom_site_type_symbol
 _atom_site_label
 _atom_site_symmetry_multiplicity
 _atom_site_fract_x
 _atom_site_fract_y
 _atom_site_fract_z
 _atom_site_occupancy
  Hg  Hg0  1  0.46394800  0.25923100  0.93733400  1
  Hg  Hg1  1  0.96394800  0.74076900  0.06266600  1
  Hg  Hg2  1  0.47921100  0.17898500  0.44450500  1
  Hg  Hg3  1  0.97921100  0.82101500  0.55549500  1
  C  C0  1  0.69775200  0.65400800  0.53031400  1
  C  C1  1  0.19775200  0.34599200  0.46968600  1
  C  C2  1  0.75502000  0.57843100  0.52865700  1
  C  C3  1  0.25502000  0.42156900  0.47134300  1
  C  C4  1  0.57865400  0.80887500  0.52926200  1
  C  C5  1  0.07865400  0.19112500  0.47073800  1
  C  C6  1  0.64001200  0.73440800  0.53178300  1
  C  C7  1  0.14001200  0.26559200  0.46821700  1
  C  C8  1  0.29723200  0.67982600  0.93908000  1
  C  C9  1  0.79723200  0.32017400  0.06092000  1
  C  C10  1  0.42494900  0.62983600  0.90020700  1
  C  C11  1  0.92494900  0.37016400  0.09979300  1
  C  C12  1  0.24518300  0.77628700  0.96009900  1
  C  C13  1  0.74518300  0.22371300  0.03990100  1
  C  C14  1  0.19357600  0.86508700  0.98308800  1
  C  C15  1  0.69357600  0.13491300  0.01691200  1
  Br  Br0  1  0.54817300  0.38137500  0.11035800  1
  Br  Br1  1  0.04817300  0.61862500  0.88964200  1
  Br  Br2  1  0.63335600  0.97696800  0.99914100  1
  Br  Br3  1  0.13335600  0.02303200  0.00085900  1
  Br  Br4  1  0.38079800  0.12455800  0.77023000  1
  Br  Br5  1  0.88079800  0.87544200  0.22977000  1
  Br  Br6  1  0.57435900  0.29165900  0.59938700  1
  Br  Br7  1  0.07435900  0.70834100  0.40061300  1
  Br  Br8  1  0.32562800  0.55729100  0.47187900  1
  Br  Br9  1  0.82562800  0.44270900  0.52812100  1
  Br  Br10  1  0.38135100  0.11175700  0.27103800  1
  Br  Br11  1  0.88135100  0.88824300  0.72896200  1
  N  N0  1  0.52338900  0.87610100  0.52631800  1
  N  N1  1  0.02338900  0.12389900  0.47368200  1
  N  N2  1  0.36300900  0.65494300  0.92087600  1
  N  N3  1  0.86300900  0.34505700  0.07912400  1
loop_
_geom_bond_atom_site_label_1
_geom_bond_atom_site_label_2
_geom_bond_distance
_geom_bond_site_symmetry_2
Hg2 N0 2.744169 1_545
Hg3 N1 2.744169 1_665
C0 C2 1.260989 1_555
C0 C6 1.289589 1_555
C1 C3 1.260989 1_555
C1 C7 1.289589 1_555
C4 N0 1.192442 1_555
C4 C6 1.323272 1_555
C5 N1 1.192442 1_555
C5 C7 1.323272 1_555
C8 N2 1.277912 1_555
C9 N3 1.277912 1_555
C10 N2 1.210296 1_555
C11 N3 1.210296 1_555
C12 C14 1.255761 1_555
C12 C8 1.299120 1_555
C13 C15 1.255761 1_555
C13 C9 1.299120 1_555
Br0 Hg0 2.456611 1_554
Br1 Hg1 2.456611 1_456
Br2 C15 1.768339 1_566
Br3 C14 1.768339 1_544
Br4 Hg0 2.461373 1_555
Br5 Hg1 2.461373 1_555
Br6 Hg2 2.471360 1_555
Br7 Hg3 2.471360 1_455
Br8 C3 1.762959 1_555
Br9 C2 1.762959 1_555
Br10 Hg2 2.475436 1_555
Br11 Hg3 2.475436 1_555
