# generated using pymatgen
data_KLaMg14
_symmetry_space_group_name_H-M   'P 1'
_cell_length_a   6.66935308
_cell_length_b   6.66935308
_cell_length_c   10.53379100
_cell_angle_alpha   90.00000000
_cell_angle_beta   90.00000000
_cell_angle_gamma   117.20825691
_symmetry_Int_Tables_number   1
_chemical_formula_structural   KLaMg14
_chemical_formula_sum   'K1 La1 Mg14'
_cell_volume   416.70150246
_cell_formula_units_Z   1
loop_
 _symmetry_equiv_pos_site_id
 _symmetry_equiv_pos_as_xyz
  1  'x, y, z'
loop_
 _atom_site_type_symbol
 _atom_site_label
 _atom_site_symmetry_multiplicity
 _atom_site_fract_x
 _atom_site_fract_y
 _atom_site_fract_z
 _atom_site_occupancy
  K  K0  1  0.83583100  0.16416900  0.50000000  1
  La  La0  1  0.34530500  0.65469500  0.50000000  1
  Mg  Mg0  1  0.83345100  0.16654900  0.00000000  1
  Mg  Mg1  1  0.33283800  0.66716200  0.00000000  1
  Mg  Mg2  1  0.32571600  0.15291700  0.50000000  1
  Mg  Mg3  1  0.33499000  0.16187900  0.00000000  1
  Mg  Mg4  1  0.84708300  0.67428400  0.50000000  1
  Mg  Mg5  1  0.83812100  0.66501000  0.00000000  1
  Mg  Mg6  1  0.16865900  0.33643300  0.22874500  1
  Mg  Mg7  1  0.16865900  0.33643300  0.77125500  1
  Mg  Mg8  1  0.66356700  0.83134100  0.22874500  1
  Mg  Mg9  1  0.66356700  0.83134100  0.77125500  1
  Mg  Mg10  1  0.65880700  0.34119300  0.24102700  1
  Mg  Mg11  1  0.65880700  0.34119300  0.75897300  1
  Mg  Mg12  1  0.16230300  0.83769700  0.24500700  1
  Mg  Mg13  1  0.16230300  0.83769700  0.75499300  1
loop_
_geom_bond_atom_site_label_1
_geom_bond_atom_site_label_2
_geom_bond_distance
_geom_bond_site_symmetry_2
K0 Mg2 3.302202 1_655
K0 Mg4 3.302202 1_545
K0 Mg4 3.368486 1_555
K0 Mg2 3.368486 1_555
K0 Mg10 3.391793 1_555
K0 Mg11 3.391793 1_555
K0 Mg7 3.475566 1_655
K0 Mg6 3.475566 1_655
K0 Mg9 3.475566 1_545
K0 Mg8 3.475566 1_545
K0 La0 3.476061 1_655
K0 La0 3.476061 1_545
La0 Mg4 3.288853 1_555
La0 Mg2 3.288853 1_555
La0 Mg2 3.384548 1_565
La0 Mg4 3.384548 1_455
La0 Mg12 3.399454 1_555
La0 Mg13 3.399454 1_555
La0 Mg6 3.430898 1_555
La0 Mg9 3.430898 1_555
La0 Mg7 3.430898 1_555
La0 Mg8 3.430898 1_555
Mg0 Mg7 3.125918 1_654
Mg0 Mg6 3.125918 1_655
Mg0 Mg8 3.125918 1_545
Mg0 Mg9 3.125918 1_544
Mg0 Mg11 3.224920 1_554
Mg0 Mg10 3.224920 1_555
Mg0 Mg5 3.310288 1_555
Mg0 Mg3 3.310288 1_555
Mg0 Mg5 3.359296 1_545
Mg0 Mg3 3.359296 1_655
Mg0 Mg1 3.474394 1_545
Mg0 Mg1 3.474394 1_655
Mg1 Mg8 3.108314 1_555
Mg1 Mg9 3.108314 1_554
Mg1 Mg7 3.108314 1_554
Mg1 Mg6 3.108314 1_555
Mg1 Mg13 3.229688 1_554
Mg1 Mg12 3.229688 1_555
Mg1 Mg3 3.292905 1_565
Mg1 Mg5 3.292905 1_455
Mg1 Mg5 3.376497 1_555
Mg1 Mg3 3.376497 1_555
Mg2 Mg4 3.325913 1_445
Mg2 Mg6 3.454268 1_555
Mg2 Mg7 3.454268 1_555
Mg3 Mg6 3.093987 1_555
Mg3 Mg7 3.093987 1_554
Mg3 Mg5 3.452630 1_445
Mg3 Mg5 3.496144 1_555
Mg4 Mg9 3.454268 1_555
Mg4 Mg8 3.454268 1_555
Mg5 Mg9 3.093987 1_554
Mg5 Mg8 3.093987 1_555
Mg6 Mg8 3.439004 1_555
Mg6 Mg8 3.509770 1_445
Mg7 Mg9 3.439004 1_555
Mg7 Mg9 3.509770 1_445
Mg10 Mg5 3.190399 1_555
Mg10 Mg3 3.190399 1_555
Mg10 Mg8 3.257148 1_555
Mg10 Mg6 3.257148 1_555
Mg10 Mg2 3.376795 1_555
Mg10 Mg4 3.376795 1_555
Mg10 Mg6 3.417465 1_655
Mg10 Mg8 3.417465 1_545
Mg10 Mg12 3.474868 1_655
Mg10 Mg12 3.474868 1_545
Mg11 Mg3 3.190399 1_556
Mg11 Mg5 3.190399 1_556
Mg11 Mg9 3.257148 1_555
Mg11 Mg7 3.257148 1_555
Mg11 Mg2 3.376795 1_555
Mg11 Mg4 3.376795 1_555
Mg11 Mg7 3.417465 1_655
Mg11 Mg9 3.417465 1_545
Mg11 Mg13 3.474868 1_545
Mg11 Mg13 3.474868 1_655
Mg12 Mg5 3.222541 1_455
Mg12 Mg3 3.222541 1_565
Mg12 Mg4 3.275229 1_455
Mg12 Mg2 3.275229 1_565
Mg12 Mg8 3.311513 1_455
Mg12 Mg6 3.311513 1_565
Mg12 Mg6 3.367060 1_555
Mg12 Mg8 3.367060 1_555
Mg13 Mg3 3.222541 1_566
Mg13 Mg5 3.222541 1_456
Mg13 Mg4 3.275229 1_455
Mg13 Mg2 3.275229 1_565
Mg13 Mg9 3.311513 1_455
Mg13 Mg7 3.311513 1_565
Mg13 Mg7 3.367060 1_555
Mg13 Mg9 3.367060 1_555
