# generated using pymatgen
data_Li4MnCo2O7
_symmetry_space_group_name_H-M   'P 1'
_cell_length_a   5.00021600
_cell_length_b   5.07417067
_cell_length_c   10.56846759
_cell_angle_alpha   102.17325146
_cell_angle_beta   94.19046798
_cell_angle_gamma   101.08394466
_symmetry_Int_Tables_number   1
_chemical_formula_structural   Li4MnCo2O7
_chemical_formula_sum   'Li8 Mn2 Co4 O14'
_cell_volume   255.41362680
_cell_formula_units_Z   2
loop_
 _symmetry_equiv_pos_site_id
 _symmetry_equiv_pos_as_xyz
  1  'x, y, z'
loop_
 _atom_site_type_symbol
 _atom_site_label
 _atom_site_symmetry_multiplicity
 _atom_site_fract_x
 _atom_site_fract_y
 _atom_site_fract_z
 _atom_site_occupancy
  Li  Li0  1  0.00000000  0.50000000  0.00000000  1
  Li  Li1  1  0.14521800  0.78191600  0.28824700  1
  Li  Li2  1  0.57350600  0.64041600  0.14405200  1
  Li  Li3  1  0.71785600  0.93195900  0.43006300  1
  Li  Li4  1  0.28214400  0.06804100  0.56993700  1
  Li  Li5  1  0.85478200  0.21808400  0.71175300  1
  Li  Li6  1  0.42649400  0.35958400  0.85594800  1
  Li  Li7  1  0.00000000  0.50000000  0.50000000  1
  Mn  Mn0  1  0.71353500  0.92614600  0.92505500  1
  Mn  Mn1  1  0.28646500  0.07385400  0.07494500  1
  Co  Co0  1  0.85967500  0.21603200  0.21839600  1
  Co  Co1  1  0.14032500  0.78396800  0.78160400  1
  Co  Co2  1  0.42944700  0.35700200  0.36634500  1
  Co  Co3  1  0.57055300  0.64299800  0.63365500  1
  O  O0  1  0.80122100  0.58965800  0.82165600  1
  O  O1  1  0.93728800  0.88386600  0.11399400  1
  O  O2  1  0.36662500  0.73497500  0.96867800  1
  O  O3  1  0.51866300  0.02985000  0.25597700  1
  O  O4  1  0.10333700  0.15788500  0.38909300  1
  O  O5  1  0.62754700  0.30962400  0.53674200  1
  O  O6  1  0.24442900  0.46420100  0.68389100  1
  O  O7  1  0.19877900  0.41034200  0.17834400  1
  O  O8  1  0.37245300  0.69037600  0.46325800  1
  O  O9  1  0.75557100  0.53579900  0.31610900  1
  O  O10  1  0.89666300  0.84211500  0.61090700  1
  O  O11  1  0.48133700  0.97015000  0.74402300  1
  O  O12  1  0.06271200  0.11613400  0.88600600  1
  O  O13  1  0.63337500  0.26502500  0.03132200  1
loop_
_geom_bond_atom_site_label_1
_geom_bond_atom_site_label_2
_geom_bond_distance
_geom_bond_site_symmetry_2
Li0 O13 2.075220 1_455
Li0 O2 2.075220 1_554
Li0 O1 2.155010 1_455
Li0 O12 2.155010 1_554
Li0 O7 2.238112 1_555
Li0 O0 2.238112 1_454
Li1 O4 2.036647 1_565
Li1 O7 2.071642 1_555
Li1 O3 2.134626 1_565
Li1 O9 2.178453 1_455
Li1 O1 2.251394 1_455
Li1 O8 2.277253 1_555
Li2 O1 2.078845 1_555
Li2 O7 2.107529 1_555
Li2 O13 2.109873 1_555
Li2 O3 2.156192 1_565
Li2 O9 2.183584 1_555
Li2 O2 2.240805 1_554
Li3 O8 2.016054 1_555
Li3 O5 2.154834 1_565
Li3 O9 2.164428 1_555
Li3 O4 2.167627 1_665
Li3 O3 2.220705 1_565
Li3 O10 2.221373 1_555
Li4 O5 2.016054 1_555
Li4 O8 2.154834 1_545
Li4 O6 2.164428 1_555
Li4 O10 2.167627 1_445
Li4 O11 2.220705 1_545
Li4 O4 2.221373 1_555
Li5 O10 2.036647 1_545
Li5 O0 2.071642 1_555
Li5 O11 2.134626 1_545
Li5 O6 2.178453 1_655
Li5 O12 2.251394 1_655
Li5 O5 2.277253 1_555
Li6 O12 2.078845 1_555
Li6 O0 2.107529 1_555
Li6 O2 2.109873 1_555
Li6 O11 2.156192 1_545
Li6 O6 2.183584 1_555
Li6 O13 2.240805 1_556
Li7 O5 2.030871 1_455
Li7 O8 2.030871 1_555
Li7 O10 2.056608 1_455
Li7 O4 2.056608 1_555
Li7 O6 2.278346 1_555
Li7 O9 2.278346 1_455
Mn0 O12 1.942671 1_665
Mn0 O2 1.954725 1_555
Mn0 O0 1.967885 1_555
Mn0 O13 1.973597 1_566
Mn0 O11 2.239090 1_555
Mn0 O1 2.287230 1_556
Mn1 O1 1.942671 1_445
Mn1 O13 1.954725 1_555
Mn1 O7 1.967885 1_555
Mn1 O2 1.973597 1_544
Mn1 O3 2.239090 1_555
Mn1 O12 2.287230 1_554
Co0 O3 1.896198 1_555
Co0 O7 1.914272 1_655
Co0 O9 1.914868 1_555
Co0 O1 1.933547 1_545
Co0 O4 2.206213 1_655
Co0 O13 2.289009 1_555
Co1 O11 1.896198 1_555
Co1 O0 1.914272 1_455
Co1 O6 1.914868 1_555
Co1 O12 1.933547 1_565
Co1 O10 2.206213 1_455
Co1 O2 2.289009 1_555
Co2 O4 1.806602 1_555
Co2 O8 1.867905 1_555
Co2 O9 1.877485 1_555
Co2 O3 1.964535 1_555
Co2 O5 2.072541 1_555
Co2 O7 2.315853 1_555
Co3 O10 1.806602 1_555
Co3 O5 1.867905 1_555
Co3 O6 1.877485 1_555
Co3 O11 1.964535 1_555
Co3 O8 2.072541 1_555
Co3 O0 2.315853 1_555
