# generated using pymatgen
data_Co3Mo3C
_symmetry_space_group_name_H-M   'P 1'
_cell_length_a   7.82472202
_cell_length_b   7.82472202
_cell_length_c   7.82472202
_cell_angle_alpha   60.00000000
_cell_angle_beta   60.00000000
_cell_angle_gamma   60.00000000
_symmetry_Int_Tables_number   1
_chemical_formula_structural   Co3Mo3C
_chemical_formula_sum   'Co12 Mo12 C4'
_cell_volume   338.75971225
_cell_formula_units_Z   4
loop_
 _symmetry_equiv_pos_site_id
 _symmetry_equiv_pos_as_xyz
  1  'x, y, z'
loop_
 _atom_site_type_symbol
 _atom_site_label
 _atom_site_symmetry_multiplicity
 _atom_site_fract_x
 _atom_site_fract_y
 _atom_site_fract_z
 _atom_site_occupancy
  Co  Co0  1  0.12500000  0.62500000  0.62500000  1
  Co  Co1  1  0.62500000  0.12500000  0.62500000  1
  Co  Co2  1  0.62500000  0.62500000  0.12500000  1
  Co  Co3  1  0.62500000  0.62500000  0.62500000  1
  Co  Co4  1  0.73895600  0.42034800  0.42034800  1
  Co  Co5  1  0.42034800  0.73895600  0.42034800  1
  Co  Co6  1  0.42034800  0.42034800  0.73895600  1
  Co  Co7  1  0.42034800  0.42034800  0.42034800  1
  Co  Co8  1  0.51104400  0.82965200  0.82965200  1
  Co  Co9  1  0.82965200  0.51104400  0.82965200  1
  Co  Co10  1  0.82965200  0.82965200  0.51104400  1
  Co  Co11  1  0.82965200  0.82965200  0.82965200  1
  Mo  Mo0  1  0.79770500  0.79770500  0.20229500  1
  Mo  Mo1  1  0.20229500  0.20229500  0.79770500  1
  Mo  Mo2  1  0.79770500  0.20229500  0.79770500  1
  Mo  Mo3  1  0.20229500  0.79770500  0.20229500  1
  Mo  Mo4  1  0.20229500  0.79770500  0.79770500  1
  Mo  Mo5  1  0.79770500  0.20229500  0.20229500  1
  Mo  Mo6  1  0.45229500  0.45229500  0.04770500  1
  Mo  Mo7  1  0.04770500  0.04770500  0.45229500  1
  Mo  Mo8  1  0.45229500  0.04770500  0.45229500  1
  Mo  Mo9  1  0.04770500  0.45229500  0.04770500  1
  Mo  Mo10  1  0.04770500  0.45229500  0.45229500  1
  Mo  Mo11  1  0.45229500  0.04770500  0.04770500  1
  C  C0  1  0.62500000  0.12500000  0.12500000  1
  C  C1  1  0.12500000  0.62500000  0.12500000  1
  C  C2  1  0.12500000  0.12500000  0.62500000  1
  C  C3  1  0.12500000  0.12500000  0.12500000  1
loop_
_geom_bond_atom_site_label_1
_geom_bond_atom_site_label_2
_geom_bond_distance
_geom_bond_site_symmetry_2
Co0 Co11 2.373235 1_455
Co0 Co7 2.373235 1_555
Co0 Co6 2.373235 1_555
Co0 Co5 2.373235 1_555
Co0 Co9 2.373235 1_455
Co0 Co10 2.373235 1_455
Co0 Mo4 2.734783 1_555
Co0 Mo3 2.734783 1_555
Co0 Mo1 2.734783 1_555
Co0 Mo10 2.734783 1_555
Co0 Mo7 2.734783 1_565
Co0 Mo9 2.734783 1_556
Co1 Co11 2.373235 1_545
Co1 Co7 2.373235 1_555
Co1 Co6 2.373235 1_555
Co1 Co4 2.373235 1_555
Co1 Co10 2.373235 1_545
Co1 Co8 2.373235 1_545
Co1 Mo1 2.734783 1_555
Co1 Mo8 2.734783 1_555
Co1 Mo2 2.734783 1_555
Co1 Mo5 2.734783 1_555
Co1 Mo11 2.734783 1_556
Co1 Mo7 2.734783 1_655
Co2 Co9 2.373235 1_554
Co2 Co7 2.373235 1_555
Co2 Co4 2.373235 1_555
Co2 Co5 2.373235 1_555
Co2 Co8 2.373235 1_554
Co2 Mo3 2.734783 1_555
Co2 Mo5 2.734783 1_555
Co2 Mo0 2.734783 1_555
Co2 Mo6 2.734783 1_555
Co2 Mo9 2.734783 1_655
Co2 Mo11 2.734783 1_565
Co3 Co8 2.373235 1_555
Co3 Co9 2.373235 1_555
Co3 Co4 2.373235 1_555
Co3 Co5 2.373235 1_555
Co3 Co6 2.373235 1_555
Co3 Mo4 2.734783 1_555
Co3 Mo2 2.734783 1_555
Co3 Mo0 2.734783 1_555
Co3 Mo10 2.734783 1_655
Co3 Mo6 2.734783 1_556
Co3 Mo8 2.734783 1_565
Co4 Co5 2.493019 1_555
Co4 Co6 2.493019 1_555
Co4 Co7 2.493019 1_555
Co4 Mo9 2.689190 1_655
Co4 Mo7 2.689190 1_655
Co4 Mo10 2.689190 1_655
Co4 Mo2 2.715889 1_555
Co4 Mo0 2.715889 1_555
Co4 Mo5 2.715889 1_555
Co5 Co6 2.493019 1_555
Co5 Co7 2.493019 1_555
Co5 Mo7 2.689190 1_565
Co5 Mo11 2.689190 1_565
Co5 Mo8 2.689190 1_565
Co5 Mo3 2.715889 1_555
Co5 Mo4 2.715889 1_555
Co5 Mo0 2.715889 1_555
Co6 Co7 2.493019 1_555
Co6 Mo11 2.689190 1_556
Co6 Mo9 2.689190 1_556
Co6 Mo6 2.689190 1_556
Co6 Mo1 2.715889 1_555
Co6 Mo2 2.715889 1_555
Co6 Mo4 2.715889 1_555
Co7 Mo6 2.689190 1_555
Co7 Mo8 2.689190 1_555
Co7 Mo10 2.689190 1_555
Co7 Mo3 2.715889 1_555
Co7 Mo5 2.715889 1_555
Co7 Mo1 2.715889 1_555
Co8 Co9 2.493019 1_555
Co8 Mo1 2.689190 1_565
Co8 Mo4 2.689190 1_555
Co8 Mo3 2.689190 1_556
Co8 Mo6 2.715889 1_556
Co8 Mo8 2.715889 1_565
Co8 Mo11 2.715889 1_566
Co9 Mo5 2.689190 1_556
Co9 Mo1 2.689190 1_655
Co9 Mo2 2.689190 1_555
Co9 Mo6 2.715889 1_556
Co9 Mo10 2.715889 1_655
Co9 Mo9 2.715889 1_656
Co10 Co3 2.373235 1_555
Co10 Co11 2.493019 1_555
Co10 Co8 2.493019 1_555
Co10 Co9 2.493019 1_555
Co10 Mo0 2.689190 1_555
Co10 Mo5 2.689190 1_565
Co10 Mo3 2.689190 1_655
Co10 Mo10 2.715889 1_655
Co10 Mo8 2.715889 1_565
Co10 Mo7 2.715889 1_665
Co11 Co2 2.373235 1_556
Co11 Co8 2.493019 1_555
Co11 Co9 2.493019 1_555
Co11 Mo0 2.689190 1_556
Co11 Mo2 2.689190 1_565
Co11 Mo4 2.689190 1_655
Co11 Mo7 2.715889 1_665
Co11 Mo9 2.715889 1_656
Co11 Mo11 2.715889 1_566
C0 Mo6 2.135003 1_555
C0 Mo11 2.135003 1_555
C0 Mo8 2.135003 1_555
C0 Mo5 2.135003 1_555
C0 Mo0 2.135003 1_545
C0 Mo2 2.135003 1_554
C1 Mo0 2.135003 1_455
C1 Mo6 2.135003 1_555
C1 Mo10 2.135003 1_555
C1 Mo9 2.135003 1_555
C1 Mo4 2.135003 1_554
C1 Mo3 2.135003 1_555
C2 Mo4 2.135003 1_545
C2 Mo7 2.135003 1_555
C2 Mo10 2.135003 1_555
C2 Mo2 2.135003 1_455
C2 Mo8 2.135003 1_555
C2 Mo1 2.135003 1_555
C3 Mo1 2.135003 1_554
C3 Mo7 2.135003 1_555
C3 Mo11 2.135003 1_555
C3 Mo9 2.135003 1_555
C3 Mo3 2.135003 1_545
C3 Mo5 2.135003 1_455
