# generated using pymatgen
data_CaMg14Sb
_symmetry_space_group_name_H-M   'P 1'
_cell_length_a   6.48162869
_cell_length_b   6.48162815
_cell_length_c   10.50291299
_cell_angle_alpha   90.00000000
_cell_angle_beta   90.00000000
_cell_angle_gamma   120.00000279
_symmetry_Int_Tables_number   1
_chemical_formula_structural   CaMg14Sb
_chemical_formula_sum   'Ca1 Mg14 Sb1'
_cell_volume   382.12781187
_cell_formula_units_Z   1
loop_
 _symmetry_equiv_pos_site_id
 _symmetry_equiv_pos_as_xyz
  1  'x, y, z'
loop_
 _atom_site_type_symbol
 _atom_site_label
 _atom_site_symmetry_multiplicity
 _atom_site_fract_x
 _atom_site_fract_y
 _atom_site_fract_z
 _atom_site_occupancy
  Ca  Ca0  1  0.16666700  0.33333300  0.12500000  1
  Mg  Mg0  1  0.17256954  0.83628427  0.12500000  1
  Mg  Mg1  1  0.16149666  0.83074783  0.62500000  1
  Mg  Mg2  1  0.66371573  0.32743046  0.12500000  1
  Mg  Mg3  1  0.66925217  0.33850334  0.62500000  1
  Mg  Mg4  1  0.66371573  0.83628427  0.12500000  1
  Mg  Mg5  1  0.66925217  0.83074783  0.62500000  1
  Mg  Mg6  1  0.33552364  0.16447636  0.37886120  1
  Mg  Mg7  1  0.33552364  0.16447636  0.87113880  1
  Mg  Mg8  1  0.33552364  0.67104828  0.37886120  1
  Mg  Mg9  1  0.33552364  0.67104828  0.87113880  1
  Mg  Mg10  1  0.82895172  0.16447636  0.37886120  1
  Mg  Mg11  1  0.82895172  0.16447636  0.87113880  1
  Mg  Mg12  1  0.83333300  0.66666700  0.36964130  1
  Mg  Mg13  1  0.83333300  0.66666700  0.88035870  1
  Sb  Sb0  1  0.16666700  0.33333300  0.62500000  1
loop_
_geom_bond_atom_site_label_1
_geom_bond_atom_site_label_2
_geom_bond_distance
_geom_bond_site_symmetry_2
Ca0 Mg4 3.240983 1_555
Ca0 Mg0 3.240983 1_555
Ca0 Mg4 3.240983 1_445
Ca0 Mg0 3.240983 1_545
Ca0 Mg2 3.240984 1_455
Ca0 Mg2 3.240984 1_555
Ca0 Mg7 3.271487 1_554
Ca0 Mg6 3.271487 1_555
Ca0 Mg9 3.271494 1_554
Ca0 Mg8 3.271494 1_555
Ca0 Mg11 3.271494 1_454
Ca0 Mg10 3.271494 1_455
Mg0 Mg2 3.183427 1_565
Mg0 Mg4 3.183427 1_555
Mg0 Mg13 3.198142 1_454
Mg0 Mg12 3.198142 1_455
Mg0 Mg8 3.240813 1_555
Mg0 Mg9 3.240813 1_554
Mg0 Mg7 3.240819 1_564
Mg0 Mg6 3.240819 1_565
Mg0 Mg2 3.298201 1_455
Mg0 Mg4 3.298201 1_455
Mg1 Mg3 3.190546 1_455
Mg1 Mg5 3.190546 1_455
Mg1 Mg8 3.192884 1_555
Mg1 Mg9 3.192884 1_555
Mg1 Mg6 3.192890 1_565
Mg1 Mg7 3.192890 1_565
Mg1 Sb0 3.240944 1_565
Mg1 Sb0 3.240944 1_555
Mg1 Mg12 3.253673 1_455
Mg1 Mg13 3.253673 1_455
Mg1 Mg3 3.291082 1_565
Mg1 Mg5 3.291083 1_555
Mg2 Mg4 3.183427 1_545
Mg2 Mg7 3.240820 1_554
Mg2 Mg6 3.240820 1_555
Mg2 Mg4 3.298201 1_555
Mg3 Mg5 3.190546 1_555
Mg3 Mg6 3.192890 1_555
Mg3 Mg7 3.192890 1_555
Mg3 Sb0 3.240944 1_555
Mg3 Sb0 3.240944 1_655
Mg3 Mg5 3.291082 1_545
Mg4 Mg9 3.240819 1_554
Mg4 Mg8 3.240819 1_555
Mg5 Mg9 3.192890 1_555
Mg5 Mg8 3.192890 1_555
Mg5 Sb0 3.240944 1_665
Mg5 Sb0 3.240944 1_555
Mg6 Mg8 3.198217 1_545
Mg6 Sb0 3.205728 1_555
Mg6 Mg8 3.283411 1_555
Mg7 Mg9 3.198217 1_545
Mg7 Sb0 3.205728 1_555
Mg7 Mg9 3.283411 1_555
Mg8 Sb0 3.205735 1_555
Mg9 Sb0 3.205735 1_555
Mg10 Mg3 3.192884 1_555
Mg10 Mg5 3.192890 1_545
Mg10 Mg8 3.198217 1_545
Mg10 Mg6 3.198218 1_555
Mg10 Sb0 3.205735 1_655
Mg10 Mg2 3.240813 1_555
Mg10 Mg4 3.240819 1_545
Mg10 Mg12 3.242354 1_555
Mg10 Mg12 3.242354 1_545
Mg10 Mg8 3.283411 1_655
Mg10 Mg6 3.283411 1_655
Mg11 Mg3 3.192884 1_555
Mg11 Mg5 3.192890 1_545
Mg11 Mg9 3.198217 1_545
Mg11 Mg7 3.198218 1_555
Mg11 Sb0 3.205735 1_655
Mg11 Mg2 3.240813 1_556
Mg11 Mg4 3.240819 1_546
Mg11 Mg13 3.242354 1_555
Mg11 Mg13 3.242354 1_545
Mg11 Mg9 3.283411 1_655
Mg11 Mg7 3.283411 1_655
Mg12 Mg4 3.198135 1_555
Mg12 Mg2 3.198142 1_555
Mg12 Mg6 3.242354 1_555
Mg12 Mg6 3.242354 1_665
Mg12 Mg8 3.242354 1_655
Mg12 Mg8 3.242354 1_555
Mg12 Mg5 3.253666 1_555
Mg12 Mg3 3.253673 1_555
Mg13 Mg4 3.198135 1_556
Mg13 Mg2 3.198142 1_556
Mg13 Mg7 3.242354 1_555
Mg13 Mg7 3.242354 1_665
Mg13 Mg9 3.242354 1_655
Mg13 Mg9 3.242354 1_555
Mg13 Mg5 3.253666 1_555
Mg13 Mg3 3.253673 1_555
