# generated using pymatgen
data_Li7Mn2(CoO4)3
_symmetry_space_group_name_H-M   'P 1'
_cell_length_a   2.95810500
_cell_length_b   5.09392900
_cell_length_c   14.42132848
_cell_angle_alpha   88.02815801
_cell_angle_beta   90.00000000
_cell_angle_gamma   90.00000000
_symmetry_Int_Tables_number   1
_chemical_formula_structural   Li7Mn2(CoO4)3
_chemical_formula_sum   'Li7 Mn2 Co3 O12'
_cell_volume   217.17733603
_cell_formula_units_Z   1
loop_
 _symmetry_equiv_pos_site_id
 _symmetry_equiv_pos_as_xyz
  1  'x, y, z'
loop_
 _atom_site_type_symbol
 _atom_site_label
 _atom_site_symmetry_multiplicity
 _atom_site_fract_x
 _atom_site_fract_y
 _atom_site_fract_z
 _atom_site_occupancy
  Li  Li0  1  0.00000000  0.65532000  0.82382900  1
  Li  Li1  1  0.50000000  0.81976600  0.65856200  1
  Li  Li2  1  0.00000000  0.00434500  0.49909200  1
  Li  Li3  1  0.50000000  0.16606800  0.33500900  1
  Li  Li4  1  0.00000000  0.33545500  0.17808800  1
  Li  Li5  1  0.50000000  0.50863800  0.00523700  1
  Li  Li6  1  0.00000000  0.34679500  0.66413200  1
  Mn  Mn0  1  0.00000000  0.99600000  0.99973500  1
  Mn  Mn1  1  0.50000000  0.17559900  0.82709300  1
  Co  Co0  1  0.50000000  0.49783800  0.50604400  1
  Co  Co1  1  0.00000000  0.66077600  0.33335500  1
  Co  Co2  1  0.50000000  0.82942200  0.17161400  1
  O  O0  1  0.00000000  0.02111900  0.76141000  1
  O  O1  1  0.50000000  0.20708500  0.57339000  1
  O  O2  1  0.00000000  0.35527300  0.41894000  1
  O  O3  1  0.50000000  0.50030000  0.25271000  1
  O  O4  1  0.00000000  0.69067700  0.07561400  1
  O  O5  1  0.50000000  0.86289500  0.92230100  1
  O  O6  1  0.00000000  0.30073500  0.91034100  1
  O  O7  1  0.50000000  0.47944200  0.75838600  1
  O  O8  1  0.00000000  0.66527300  0.57790800  1
  O  O9  1  0.50000000  0.79363600  0.42107600  1
  O  O10  1  0.00000000  0.97886000  0.25587200  1
  O  O11  1  0.50000000  0.14868300  0.07026300  1
loop_
_geom_bond_atom_site_label_1
_geom_bond_atom_site_label_2
_geom_bond_distance
_geom_bond_site_symmetry_2
Li0 O7 1.984729 1_455
Li0 O7 1.984729 1_555
Li0 O0 2.041313 1_565
Li0 O6 2.159616 1_555
Li0 O5 2.329301 1_555
Li0 O5 2.329301 1_455
Li1 O8 2.054948 1_555
Li1 O8 2.054948 1_655
Li1 O7 2.214952 1_555
Li1 O1 2.287918 1_565
Li1 O0 2.354612 1_665
Li1 O0 2.354612 1_565
Li2 O8 2.034719 1_545
Li2 O2 2.095096 1_555
Li2 O1 2.116215 1_555
Li2 O1 2.116215 1_455
Li2 O9 2.165315 1_545
Li2 O9 2.165315 1_445
Li3 O3 2.041635 1_555
Li3 O10 2.115270 1_645
Li3 O10 2.115270 1_545
Li3 O2 2.159130 1_655
Li3 O2 2.159130 1_555
Li3 O9 2.231072 1_545
Li4 O3 2.028050 1_455
Li4 O3 2.028050 1_555
Li4 O10 2.101823 1_545
Li4 O4 2.296543 1_555
Li4 O11 2.369079 1_455
Li4 O11 2.369079 1_555
Li5 O11 2.030543 1_555
Li5 O4 2.035269 1_655
Li5 O4 2.035269 1_555
Li5 O5 2.130361 1_554
Li5 O6 2.298210 1_554
Li5 O6 2.298210 1_654
Li6 O8 2.009789 1_555
Li6 O1 2.114391 1_555
Li6 O1 2.114391 1_455
Li6 O7 2.134238 1_455
Li6 O7 2.134238 1_555
Li6 O0 2.135437 1_555
Mn0 O4 1.870630 1_556
Mn0 O11 1.970139 1_466
Mn0 O11 1.970139 1_566
Mn0 O6 1.983406 1_565
Mn0 O5 1.986566 1_455
Mn0 O5 1.986566 1_555
Mn1 O7 1.808807 1_555
Mn1 O0 1.937879 1_555
Mn1 O0 1.937879 1_655
Mn1 O6 2.021854 1_655
Mn1 O6 2.021854 1_555
Mn1 O5 2.066881 1_545
Co0 O1 1.742946 1_555
Co0 O9 1.909135 1_555
Co0 O8 2.012446 1_555
Co0 O8 2.012446 1_655
Co0 O2 2.087029 1_655
Co0 O2 2.087029 1_555
Co1 O10 1.936329 1_555
Co1 O2 1.952686 1_555
Co1 O3 2.067326 1_455
Co1 O3 2.067326 1_555
Co1 O9 2.074826 1_455
Co1 O9 2.074826 1_555
Co2 O3 2.010861 1_555
Co2 O10 2.075383 1_555
Co2 O10 2.075383 1_655
Co2 O11 2.148854 1_565
Co2 O4 2.161280 1_655
Co2 O4 2.161280 1_555
