# generated using pymatgen
data_Zn(SbO2)2
_symmetry_space_group_name_H-M   'P 1'
_cell_length_a   3.12187200
_cell_length_b   9.63103500
_cell_length_c   14.29225800
_cell_angle_alpha   90.00000000
_cell_angle_beta   90.00000000
_cell_angle_gamma   90.00000000
_symmetry_Int_Tables_number   1
_chemical_formula_structural   Zn(SbO2)2
_chemical_formula_sum   'Zn4 Sb8 O16'
_cell_volume   429.72329890
_cell_formula_units_Z   4
loop_
 _symmetry_equiv_pos_site_id
 _symmetry_equiv_pos_as_xyz
  1  'x, y, z'
loop_
 _atom_site_type_symbol
 _atom_site_label
 _atom_site_symmetry_multiplicity
 _atom_site_fract_x
 _atom_site_fract_y
 _atom_site_fract_z
 _atom_site_occupancy
  Zn  Zn0  1  0.25000000  0.74492400  0.37206400  1
  Zn  Zn1  1  0.75000000  0.25507600  0.62793600  1
  Zn  Zn2  1  0.25000000  0.24492400  0.12793600  1
  Zn  Zn3  1  0.75000000  0.75507600  0.87206400  1
  Sb  Sb0  1  0.75000000  0.92547400  0.12185700  1
  Sb  Sb1  1  0.25000000  0.57452600  0.62185700  1
  Sb  Sb2  1  0.75000000  0.42547400  0.37814300  1
  Sb  Sb3  1  0.25000000  0.07452600  0.87814300  1
  Sb  Sb4  1  0.25000000  0.06625600  0.35363000  1
  Sb  Sb5  1  0.75000000  0.93374400  0.64637000  1
  Sb  Sb6  1  0.25000000  0.56625600  0.14637000  1
  Sb  Sb7  1  0.75000000  0.43374400  0.85363000  1
  O  O0  1  0.75000000  0.39670200  0.13114000  1
  O  O1  1  0.25000000  0.60329800  0.86886000  1
  O  O2  1  0.75000000  0.89670200  0.36886000  1
  O  O3  1  0.25000000  0.10329800  0.63114000  1
  O  O4  1  0.75000000  0.53899500  0.71111000  1
  O  O5  1  0.25000000  0.46100500  0.28889000  1
  O  O6  1  0.75000000  0.03899500  0.78889000  1
  O  O7  1  0.25000000  0.96100500  0.21111000  1
  O  O8  1  0.75000000  0.12303600  0.07870700  1
  O  O9  1  0.25000000  0.87696400  0.92129300  1
  O  O10  1  0.75000000  0.62303600  0.42129300  1
  O  O11  1  0.25000000  0.37696400  0.57870700  1
  O  O12  1  0.25000000  0.32679900  0.78392000  1
  O  O13  1  0.75000000  0.67320100  0.21608000  1
  O  O14  1  0.75000000  0.17320100  0.28392000  1
  O  O15  1  0.25000000  0.82679900  0.71608000  1
loop_
_geom_bond_atom_site_label_1
_geom_bond_atom_site_label_2
_geom_bond_distance
_geom_bond_site_symmetry_2
O0 Zn2 2.139022 1_555
O0 Zn2 2.139022 1_655
O0 Sb6 2.269477 1_555
O0 Sb6 2.269477 1_655
O1 Zn3 2.139022 1_555
O1 Zn3 2.139022 1_455
O1 Sb7 2.269477 1_555
O1 Sb7 2.269477 1_455
O2 Zn0 2.139022 1_555
O2 Zn0 2.139022 1_655
O2 Sb4 2.269477 1_665
O2 Sb4 2.269477 1_565
O3 Zn1 2.139022 1_555
O3 Zn1 2.139022 1_455
O3 Sb5 2.269477 1_545
O3 Sb5 2.269477 1_445
O4 Sb1 2.044712 1_655
O4 Sb1 2.044712 1_555
O4 Sb7 2.275222 1_555
O5 Sb2 2.044712 1_555
O5 Sb2 2.044712 1_455
O5 Sb6 2.275222 1_555
O6 Sb3 2.044712 1_655
O6 Sb3 2.044712 1_555
O6 Sb5 2.275222 1_545
O7 Sb0 2.044712 1_555
O7 Sb0 2.044712 1_455
O7 Sb4 2.275222 1_565
O8 Sb0 2.000175 1_545
O8 Zn2 2.075963 1_655
O8 Zn2 2.075963 1_555
O9 Sb3 2.000175 1_565
O9 Zn3 2.075963 1_455
O9 Zn3 2.075963 1_555
O10 Sb2 2.000175 1_555
O10 Zn0 2.075963 1_555
O10 Zn0 2.075963 1_655
O11 Sb1 2.000175 1_555
O11 Zn1 2.075963 1_555
O11 Zn1 2.075963 1_455
O12 Sb7 2.118972 1_555
O12 Sb7 2.118972 1_455
O13 Sb6 2.118972 1_555
O13 Sb6 2.118972 1_655
O14 Sb4 2.118972 1_655
O14 Sb4 2.118972 1_555
O15 Sb5 2.118972 1_455
O15 Sb5 2.118972 1_555
