# generated using pymatgen
data_LiIn(CN2)2
_symmetry_space_group_name_H-M   'P 1'
_cell_length_a   5.98506000
_cell_length_b   6.95464500
_cell_length_c   9.56882900
_cell_angle_alpha   90.00000000
_cell_angle_beta   90.00000000
_cell_angle_gamma   90.00000000
_symmetry_Int_Tables_number   1
_chemical_formula_structural   LiIn(CN2)2
_chemical_formula_sum   'Li4 In4 C8 N16'
_cell_volume   398.29262830
_cell_formula_units_Z   4
loop_
 _symmetry_equiv_pos_site_id
 _symmetry_equiv_pos_as_xyz
  1  'x, y, z'
loop_
 _atom_site_type_symbol
 _atom_site_label
 _atom_site_symmetry_multiplicity
 _atom_site_fract_x
 _atom_site_fract_y
 _atom_site_fract_z
 _atom_site_occupancy
  Li  Li0  1  0.25000000  0.61412600  0.00000000  1
  Li  Li1  1  0.75000000  0.88587400  0.50000000  1
  Li  Li2  1  0.75000000  0.38587400  0.00000000  1
  Li  Li3  1  0.25000000  0.11412600  0.50000000  1
  In  In0  1  0.25000000  0.12917700  0.00000000  1
  In  In1  1  0.75000000  0.37082300  0.50000000  1
  In  In2  1  0.75000000  0.87082300  0.00000000  1
  In  In3  1  0.25000000  0.62917700  0.50000000  1
  C  C0  1  0.42002800  0.38304000  0.75522100  1
  C  C1  1  0.92002800  0.11696000  0.74477900  1
  C  C2  1  0.57997200  0.11696000  0.25522100  1
  C  C3  1  0.07997200  0.38304000  0.24477900  1
  C  C4  1  0.57997200  0.61696000  0.24477900  1
  C  C5  1  0.07997200  0.88304000  0.25522100  1
  C  C6  1  0.42002800  0.88304000  0.74477900  1
  C  C7  1  0.92002800  0.61696000  0.75522100  1
  N  N0  1  0.41044200  0.37053800  0.88235200  1
  N  N1  1  0.91044200  0.12946200  0.61764800  1
  N  N2  1  0.58955800  0.12946200  0.38235200  1
  N  N3  1  0.08955800  0.37053800  0.11764800  1
  N  N4  1  0.58955800  0.62946200  0.11764800  1
  N  N5  1  0.08955800  0.87053800  0.38235200  1
  N  N6  1  0.41044200  0.87053800  0.61764800  1
  N  N7  1  0.91044200  0.62946200  0.88235200  1
  N  N8  1  0.43150700  0.39845100  0.62557900  1
  N  N9  1  0.93150700  0.10154900  0.87442100  1
  N  N10  1  0.56849300  0.10154900  0.12557900  1
  N  N11  1  0.06849300  0.39845100  0.37442100  1
  N  N12  1  0.56849300  0.60154900  0.37442100  1
  N  N13  1  0.06849300  0.89845100  0.12557900  1
  N  N14  1  0.43150700  0.89845100  0.87442100  1
  N  N15  1  0.93150700  0.60154900  0.62557900  1
loop_
_geom_bond_atom_site_label_1
_geom_bond_atom_site_label_2
_geom_bond_distance
_geom_bond_site_symmetry_2
Li0 N3 2.249284 1_555
Li0 N0 2.249284 1_554
Li0 N4 2.325691 1_555
Li0 N7 2.325691 1_454
Li0 N13 2.556187 1_555
Li0 N14 2.556187 1_554
Li1 N2 2.249284 1_565
Li1 N1 2.249284 1_565
Li1 N5 2.325691 1_655
Li1 N6 2.325691 1_555
Li1 N15 2.556187 1_555
Li1 N12 2.556187 1_555
Li2 N7 2.249284 1_554
Li2 N4 2.249284 1_555
Li2 N3 2.325691 1_655
Li2 N0 2.325691 1_554
Li2 N10 2.556187 1_555
Li2 N9 2.556187 1_554
Li3 N6 2.249284 1_545
Li3 N5 2.249284 1_545
Li3 N2 2.325691 1_555
Li3 N1 2.325691 1_455
Li3 N8 2.556187 1_555
Li3 N11 2.556187 1_555
In0 N0 2.237642 1_554
In0 N3 2.237642 1_555
In0 N10 2.261518 1_555
In0 N9 2.261518 1_454
In0 N13 2.280101 1_545
In0 N14 2.280101 1_544
In1 N1 2.237642 1_555
In1 N2 2.237642 1_555
In1 N11 2.261518 1_655
In1 N8 2.261518 1_555
In1 N15 2.280101 1_555
In1 N12 2.280101 1_555
In2 N7 2.237642 1_554
In2 N4 2.237642 1_555
In2 N13 2.261518 1_655
In2 N14 2.261518 1_554
In2 N10 2.280101 1_565
In2 N9 2.280101 1_564
In3 N6 2.237642 1_555
In3 N5 2.237642 1_555
In3 N12 2.261518 1_555
In3 N15 2.261518 1_455
In3 N11 2.280101 1_555
In3 N8 2.280101 1_555
C0 N0 1.220947 1_555
C0 N8 1.247037 1_555
C1 N1 1.220947 1_555
C1 N9 1.247037 1_555
C2 N2 1.220947 1_555
C2 N10 1.247037 1_555
C3 N3 1.220947 1_555
C3 N11 1.247037 1_555
C4 N4 1.220947 1_555
C4 N12 1.247037 1_555
C5 N5 1.220947 1_555
C5 N13 1.247037 1_555
C6 N6 1.220947 1_555
C6 N14 1.247037 1_555
C7 N7 1.220947 1_555
C7 N15 1.247037 1_555
