# generated using pymatgen
data_GaSe2NO8
_symmetry_space_group_name_H-M   'P 1'
_cell_length_a   5.11914645
_cell_length_b   5.11914645
_cell_length_c   9.13204200
_cell_angle_alpha   90.00000000
_cell_angle_beta   90.00000000
_cell_angle_gamma   120.00000580
_symmetry_Int_Tables_number   1
_chemical_formula_structural   GaSe2NO8
_chemical_formula_sum   'Ga1 Se2 N1 O8'
_cell_volume   207.24955878
_cell_formula_units_Z   1
loop_
 _symmetry_equiv_pos_site_id
 _symmetry_equiv_pos_as_xyz
  1  'x, y, z'
loop_
 _atom_site_type_symbol
 _atom_site_label
 _atom_site_symmetry_multiplicity
 _atom_site_fract_x
 _atom_site_fract_y
 _atom_site_fract_z
 _atom_site_occupancy
  Ga  Ga0  1  0.00000000  0.00000000  0.00000000  1
  Se  Se0  1  0.66666700  0.33333300  0.79813000  1
  Se  Se1  1  0.33333300  0.66666700  0.20187000  1
  N  N0  1  0.00000000  0.00000000  0.50000000  1
  O  O0  1  0.93496200  0.26272500  0.86049000  1
  O  O1  1  0.32776300  0.06503800  0.86049000  1
  O  O2  1  0.67223700  0.73727500  0.13951000  1
  O  O3  1  0.73727500  0.67223700  0.86049000  1
  O  O4  1  0.26272500  0.93496200  0.13951000  1
  O  O5  1  0.06503800  0.32776300  0.13951000  1
  O  O6  1  0.66666700  0.33333300  0.61791700  1
  O  O7  1  0.33333300  0.66666700  0.38208300  1
loop_
_geom_bond_atom_site_label_1
_geom_bond_atom_site_label_2
_geom_bond_distance
_geom_bond_site_symmetry_2
Ga0 O3 1.997639 1_444
Ga0 O2 1.997639 1_445
Ga0 O1 1.997639 1_554
Ga0 O5 1.997639 1_555
Ga0 O0 1.997639 1_454
Ga0 O4 1.997639 1_545
O0 Se0 1.684555 1_555
O1 Se0 1.684558 1_555
O2 Se1 1.684559 1_555
O3 Se0 1.684559 1_555
O4 Se1 1.684555 1_555
O5 Se1 1.684558 1_555
O6 Se0 1.645713 1_555
O7 Se1 1.645713 1_555
