# generated using pymatgen
data_YZrO14
_symmetry_space_group_name_H-M   'P 1'
_cell_length_a   8.39474201
_cell_length_b   8.39474201
_cell_length_c   8.39474201
_cell_angle_alpha   60.00000000
_cell_angle_beta   60.00000000
_cell_angle_gamma   60.00000000
_symmetry_Int_Tables_number   1
_chemical_formula_structural   YZrO14
_chemical_formula_sum   'Y2 Zr2 O28'
_cell_volume   418.31849198
_cell_formula_units_Z   2
loop_
 _symmetry_equiv_pos_site_id
 _symmetry_equiv_pos_as_xyz
  1  'x, y, z'
loop_
 _atom_site_type_symbol
 _atom_site_label
 _atom_site_symmetry_multiplicity
 _atom_site_fract_x
 _atom_site_fract_y
 _atom_site_fract_z
 _atom_site_occupancy
  Y  Y0  1  0.00000000  0.00000000  0.00000000  1
  Y  Y1  1  0.75000000  0.75000000  0.75000000  1
  Zr  Zr0  1  0.50000000  0.50000000  0.50000000  1
  Zr  Zr1  1  0.25000000  0.25000000  0.25000000  1
  O  O0  1  0.87500000  0.87500000  0.87500000  1
  O  O1  1  0.37500000  0.87500000  0.87500000  1
  O  O2  1  0.87500000  0.37500000  0.87500000  1
  O  O3  1  0.87500000  0.87500000  0.37500000  1
  O  O4  1  0.45424200  0.45424200  0.16603600  1
  O  O5  1  0.92547900  0.16603600  0.45424200  1
  O  O6  1  0.16603600  0.92547900  0.45424200  1
  O  O7  1  0.45424200  0.16603600  0.45424200  1
  O  O8  1  0.82452100  0.29575800  0.58396400  1
  O  O9  1  0.29575800  0.29575800  0.58396400  1
  O  O10  1  0.45424200  0.45424200  0.92547900  1
  O  O11  1  0.16603600  0.45424200  0.92547900  1
  O  O12  1  0.29575800  0.58396400  0.29575800  1
  O  O13  1  0.82452100  0.58396400  0.29575800  1
  O  O14  1  0.92547900  0.45424200  0.16603600  1
  O  O15  1  0.29575800  0.82452100  0.29575800  1
  O  O16  1  0.58396400  0.82452100  0.29575800  1
  O  O17  1  0.45424200  0.92547900  0.45424200  1
  O  O18  1  0.58396400  0.29575800  0.82452100  1
  O  O19  1  0.29575800  0.29575800  0.82452100  1
  O  O20  1  0.16603600  0.45424200  0.45424200  1
  O  O21  1  0.45424200  0.16603600  0.92547900  1
  O  O22  1  0.92547900  0.45424200  0.45424200  1
  O  O23  1  0.45424200  0.92547900  0.16603600  1
  O  O24  1  0.29575800  0.58396400  0.82452100  1
  O  O25  1  0.58396400  0.29575800  0.29575800  1
  O  O26  1  0.29575800  0.82452100  0.58396400  1
  O  O27  1  0.82452100  0.29575800  0.29575800  1
loop_
_geom_bond_atom_site_label_1
_geom_bond_atom_site_label_2
_geom_bond_distance
_geom_bond_site_symmetry_2
O0 Y0 2.570354 1_666
O0 Y1 2.570354 1_555
O1 Y0 2.570354 1_566
O1 Y1 2.570354 1_555
O2 Y0 2.570354 1_656
O2 Y1 2.570354 1_555
O3 Y0 2.570354 1_665
O3 Y1 2.570354 1_555
O4 Zr1 2.626580 1_555
O5 O8 1.558869 1_555
O5 O6 2.019414 1_645
O5 Zr1 2.626587 1_655
O6 Zr1 2.626587 1_565
O7 O9 1.558866 1_555
O7 Zr1 2.626580 1_555
O8 Zr0 2.626587 1_555
O9 Zr0 2.626580 1_555
O10 O18 1.558856 1_555
O10 O24 1.558856 1_555
O10 O4 2.019414 1_556
O10 Zr1 2.626584 1_556
O11 O19 1.558856 1_555
O11 O24 1.558869 1_555
O11 O14 2.019414 1_456
O11 Zr1 2.626587 1_556
O12 O20 1.558866 1_555
O12 O4 1.558866 1_555
O12 O15 2.019414 1_555
O12 Zr0 2.626580 1_555
O13 O22 1.558856 1_555
O13 O14 1.558869 1_555
O13 O16 2.019414 1_555
O13 Zr0 2.626587 1_555
O14 O27 1.558856 1_555
O14 Zr1 2.626587 1_655
O15 O6 1.558856 1_555
O15 O23 1.558856 1_555
O15 Zr0 2.626584 1_555
O16 O17 1.558856 1_555
O16 O23 1.558869 1_555
O16 Zr0 2.626587 1_555
O17 O26 1.558856 1_555
O17 O7 2.019414 1_565
O17 Zr1 2.626584 1_565
O18 O21 1.558869 1_555
O18 O8 2.019414 1_555
O18 Zr0 2.626587 1_555
O19 O21 1.558856 1_555
O19 O9 2.019414 1_555
O19 Zr0 2.626584 1_555
O20 O9 1.558866 1_555
O20 O22 2.019414 1_455
O20 Zr1 2.626580 1_555
O21 O23 2.019414 1_546
O21 Zr1 2.626587 1_556
O22 O8 1.558856 1_555
O22 Zr1 2.626584 1_655
O23 Zr1 2.626587 1_565
O24 O26 2.019414 1_555
O24 Zr0 2.626587 1_555
O25 O4 1.558866 1_555
O25 O7 1.558866 1_555
O25 O27 2.019414 1_555
O25 Zr0 2.626580 1_555
O26 O6 1.558869 1_555
O26 Zr0 2.626587 1_555
O27 O5 1.558856 1_555
O27 Zr0 2.626584 1_555
