# generated using pymatgen
data_Sc13Zn58
_symmetry_space_group_name_H-M   'P 1'
_cell_length_a   13.73507907
_cell_length_b   13.89899704
_cell_length_c   13.89899704
_cell_angle_alpha   119.99999998
_cell_angle_beta   90.00000000
_cell_angle_gamma   90.00000000
_symmetry_Int_Tables_number   1
_chemical_formula_structural   Sc13Zn58
_chemical_formula_sum   'Sc26 Zn116'
_cell_volume   2297.88727595
_cell_formula_units_Z   2
loop_
 _symmetry_equiv_pos_site_id
 _symmetry_equiv_pos_as_xyz
  1  'x, y, z'
loop_
 _atom_site_type_symbol
 _atom_site_label
 _atom_site_symmetry_multiplicity
 _atom_site_fract_x
 _atom_site_fract_y
 _atom_site_fract_z
 _atom_site_occupancy
  Sc  Sc0  1  0.75000000  0.12793553  0.87206447  1
  Sc  Sc1  1  0.25000000  0.87206447  0.12793553  1
  Sc  Sc2  1  0.75000000  0.74412894  0.87206447  1
  Sc  Sc3  1  0.25000000  0.25587106  0.12793553  1
  Sc  Sc4  1  0.75000000  0.12793553  0.25587106  1
  Sc  Sc5  1  0.25000000  0.87206447  0.74412894  1
  Sc  Sc6  1  0.00000000  -0.00000000  -0.00000000  1
  Sc  Sc7  1  0.50000000  -0.00000000  -0.00000000  1
  Sc  Sc8  1  0.94798161  0.79331485  0.20668515  1
  Sc  Sc9  1  0.05201839  0.20668515  0.79331485  1
  Sc  Sc10  1  0.94798161  0.41337031  0.20668515  1
  Sc  Sc11  1  0.44798161  0.20668515  0.79331485  1
  Sc  Sc12  1  0.05201839  0.58662969  0.79331485  1
  Sc  Sc13  1  0.55201839  0.79331485  0.20668515  1
  Sc  Sc14  1  0.94798161  0.79331485  0.58662969  1
  Sc  Sc15  1  0.44798161  0.58662969  0.79331485  1
  Sc  Sc16  1  0.05201839  0.20668515  0.41337031  1
  Sc  Sc17  1  0.55201839  0.41337031  0.20668515  1
  Sc  Sc18  1  0.44798161  0.20668515  0.41337031  1
  Sc  Sc19  1  0.55201839  0.79331485  0.58662969  1
  Sc  Sc20  1  0.75000000  0.45576694  0.54423306  1
  Sc  Sc21  1  0.25000000  0.54423306  0.45576694  1
  Sc  Sc22  1  0.75000000  0.08846613  0.54423306  1
  Sc  Sc23  1  0.25000000  0.91153387  0.45576694  1
  Sc  Sc24  1  0.75000000  0.45576694  0.91153387  1
  Sc  Sc25  1  0.25000000  0.54423306  0.08846613  1
  Zn  Zn0  1  0.94788369  0.39943523  0.60056477  1
  Zn  Zn1  1  0.05211631  0.60056477  0.39943523  1
  Zn  Zn2  1  0.94788369  0.20112954  0.60056477  1
  Zn  Zn3  1  0.44788369  0.60056477  0.39943523  1
  Zn  Zn4  1  0.05211631  0.79887046  0.39943523  1
  Zn  Zn5  1  0.55211631  0.39943523  0.60056477  1
  Zn  Zn6  1  0.94788369  0.39943523  0.79887046  1
  Zn  Zn7  1  0.44788369  0.79887046  0.39943523  1
  Zn  Zn8  1  0.05211631  0.60056477  0.20112954  1
  Zn  Zn9  1  0.55211631  0.20112954  0.60056477  1
  Zn  Zn10  1  0.44788369  0.60056477  0.20112954  1
  Zn  Zn11  1  0.55211631  0.39943523  0.79887046  1
  Zn  Zn12  1  0.90488910  0.66666700  0.33333300  1
  Zn  Zn13  1  0.09511090  0.33333300  0.66666700  1
  Zn  Zn14  1  0.40488910  0.33333300  0.66666700  1
  Zn  Zn15  1  0.59511090  0.66666700  0.33333300  1
  Zn  Zn16  1  0.00000000  0.80279960  0.80279960  1
  Zn  Zn17  1  0.00000000  0.19720040  0.19720040  1
  Zn  Zn18  1  0.00000000  1.00000000  0.19720040  1
  Zn  Zn19  1  0.50000000  0.19720040  0.19720040  1
  Zn  Zn20  1  0.00000000  0.00000000  0.80279960  1
  Zn  Zn21  1  0.50000000  0.80279960  0.80279960  1
  Zn  Zn22  1  0.00000000  0.19720040  1.00000000  1
  Zn  Zn23  1  0.50000000  0.00000000  0.80279960  1
  Zn  Zn24  1  0.00000000  0.80279960  0.00000000  1
  Zn  Zn25  1  0.50000000  1.00000000  0.19720040  1
  Zn  Zn26  1  0.50000000  0.80279960  0.00000000  1
  Zn  Zn27  1  0.50000000  0.19720040  1.00000000  1
  Zn  Zn28  1  0.75000000  -0.00000000  -0.00000000  1
  Zn  Zn29  1  0.25000000  -0.00000000  -0.00000000  1
  Zn  Zn30  1  0.75000000  0.73089386  0.26910614  1
  Zn  Zn31  1  0.25000000  0.26910614  0.73089386  1
  Zn  Zn32  1  0.75000000  0.53821228  0.26910614  1
  Zn  Zn33  1  0.25000000  0.46178772  0.73089386  1
  Zn  Zn34  1  0.75000000  0.73089386  0.46178772  1
  Zn  Zn35  1  0.25000000  0.26910614  0.53821228  1
  Zn  Zn36  1  0.34168979  0.76550274  0.23449726  1
  Zn  Zn37  1  0.65831021  0.23449726  0.76550274  1
  Zn  Zn38  1  0.34168979  0.46899452  0.23449726  1
  Zn  Zn39  1  0.84168979  0.23449726  0.76550274  1
  Zn  Zn40  1  0.65831021  0.53100548  0.76550274  1
  Zn  Zn41  1  0.15831021  0.76550274  0.23449726  1
  Zn  Zn42  1  0.34168979  0.76550274  0.53100548  1
  Zn  Zn43  1  0.84168979  0.53100548  0.76550274  1
  Zn  Zn44  1  0.65831021  0.23449726  0.46899452  1
  Zn  Zn45  1  0.15831021  0.46899452  0.23449726  1
  Zn  Zn46  1  0.84168979  0.23449726  0.46899452  1
  Zn  Zn47  1  0.15831021  0.76550274  0.53100548  1
  Zn  Zn48  1  0.84234790  0.90370628  0.09629372  1
  Zn  Zn49  1  0.15765210  0.09629372  0.90370628  1
  Zn  Zn50  1  0.84234790  0.19258745  0.09629372  1
  Zn  Zn51  1  0.34234790  0.09629372  0.90370628  1
  Zn  Zn52  1  0.15765210  0.80741255  0.90370628  1
  Zn  Zn53  1  0.65765210  0.90370628  0.09629372  1
  Zn  Zn54  1  0.84234790  0.90370628  0.80741255  1
  Zn  Zn55  1  0.34234790  0.80741255  0.90370628  1
  Zn  Zn56  1  0.15765210  0.09629372  0.19258745  1
  Zn  Zn57  1  0.65765210  0.19258745  0.09629372  1
  Zn  Zn58  1  0.34234790  0.09629372  0.19258745  1
  Zn  Zn59  1  0.65765210  0.90370628  0.80741255  1
  Zn  Zn60  1  0.00000000  0.50000000  0.50000000  1
  Zn  Zn61  1  0.00000000  -0.00000000  0.50000000  1
  Zn  Zn62  1  0.50000000  0.50000000  0.50000000  1
  Zn  Zn63  1  0.00000000  0.50000000  -0.00000000  1
  Zn  Zn64  1  0.50000000  -0.00000000  0.50000000  1
  Zn  Zn65  1  0.50000000  0.50000000  -0.00000000  1
  Zn  Zn66  1  0.35731396  0.43808079  0.56191921  1
  Zn  Zn67  1  0.64268604  0.56191921  0.43808079  1
  Zn  Zn68  1  0.35731396  0.12383843  0.56191921  1
  Zn  Zn69  1  0.85731396  0.56191921  0.43808079  1
  Zn  Zn70  1  0.64268604  0.87616157  0.43808079  1
  Zn  Zn71  1  0.14268604  0.43808079  0.56191921  1
  Zn  Zn72  1  0.35731396  0.43808079  0.87616157  1
  Zn  Zn73  1  0.85731396  0.87616157  0.43808079  1
  Zn  Zn74  1  0.64268604  0.56191921  0.12383843  1
  Zn  Zn75  1  0.14268604  0.12383843  0.56191921  1
  Zn  Zn76  1  0.85731396  0.56191921  0.12383843  1
  Zn  Zn77  1  0.14268604  0.43808079  0.87616157  1
  Zn  Zn78  1  0.89887877  0.63655533  0.67244554  1
  Zn  Zn79  1  0.10112123  0.36344467  0.32755446  1
  Zn  Zn80  1  0.89887877  0.03589021  0.36344467  1
  Zn  Zn81  1  0.39887877  0.36344467  0.32755446  1
  Zn  Zn82  1  0.10112123  0.96410979  0.32755446  1
  Zn  Zn83  1  0.10112123  0.96410979  0.63655533  1
  Zn  Zn84  1  0.60112123  0.63655533  0.67244554  1
  Zn  Zn85  1  0.89887877  0.03589021  0.67244554  1
  Zn  Zn86  1  0.89887877  0.32755446  0.96410979  1
  Zn  Zn87  1  0.39887877  0.96410979  0.63655533  1
  Zn  Zn88  1  0.10112123  0.67244554  0.63655533  1
  Zn  Zn89  1  0.10112123  0.67244554  0.03589021  1
  Zn  Zn90  1  0.60112123  0.03589021  0.36344467  1
  Zn  Zn91  1  0.89887877  0.32755446  0.36344467  1
  Zn  Zn92  1  0.60112123  0.03589021  0.67244554  1
  Zn  Zn93  1  0.39887877  0.96410979  0.32755446  1
  Zn  Zn94  1  0.39887877  0.67244554  0.03589021  1
  Zn  Zn95  1  0.60112123  0.32755446  0.36344467  1
  Zn  Zn96  1  0.60112123  0.32755446  0.96410979  1
  Zn  Zn97  1  0.39887877  0.67244554  0.63655533  1
  Zn  Zn98  1  0.10112123  0.36344467  0.03589021  1
  Zn  Zn99  1  0.89887877  0.63655533  0.96410979  1
  Zn  Zn100  1  0.60112123  0.63655533  0.96410979  1
  Zn  Zn101  1  0.39887877  0.36344467  0.03589021  1
  Zn  Zn102  1  0.25000000  0.66666700  0.33333300  1
  Zn  Zn103  1  0.75000000  0.33333300  0.66666700  1
  Zn  Zn104  1  0.75000000  0.91723442  0.28188582  1
  Zn  Zn105  1  0.25000000  0.08276558  0.71811418  1
  Zn  Zn106  1  0.75000000  0.36465140  0.08276558  1
  Zn  Zn107  1  0.25000000  0.63534860  0.71811418  1
  Zn  Zn108  1  0.25000000  0.63534860  0.91723442  1
  Zn  Zn109  1  0.75000000  0.36465140  0.28188582  1
  Zn  Zn110  1  0.75000000  0.71811418  0.63534860  1
  Zn  Zn111  1  0.25000000  0.28188582  0.91723442  1
  Zn  Zn112  1  0.25000000  0.28188582  0.36465140  1
  Zn  Zn113  1  0.75000000  0.71811418  0.08276558  1
  Zn  Zn114  1  0.25000000  0.08276558  0.36465140  1
  Zn  Zn115  1  0.75000000  0.91723442  0.63534860  1
loop_
_geom_bond_atom_site_label_1
_geom_bond_atom_site_label_2
_geom_bond_distance
_geom_bond_site_symmetry_2
Sc0 Zn39 2.857794 1_555
Sc0 Zn37 2.857794 1_555
Sc0 Zn54 3.054301 1_545
Sc0 Zn50 3.054301 1_556
Sc0 Zn57 3.054301 1_556
Sc0 Zn59 3.054301 1_545
Sc0 Zn28 3.079890 1_556
Sc0 Zn115 3.125052 1_545
Sc0 Zn106 3.125052 1_556
Sc0 Zn96 3.156977 1_555
Sc0 Zn86 3.156977 1_555
Sc0 Zn85 3.156977 1_555
Sc0 Zn92 3.156977 1_555
Sc1 Zn36 2.857794 1_555
Sc1 Zn41 2.857794 1_555
Sc1 Zn55 3.054301 1_554
Sc1 Zn52 3.054301 1_554
Sc1 Zn58 3.054301 1_565
Sc1 Zn56 3.054301 1_565
Sc1 Zn29 3.079890 1_565
Sc1 Zn108 3.125052 1_554
Sc1 Zn114 3.125052 1_565
Sc1 Zn93 3.156977 1_555
Sc1 Zn94 3.156977 1_555
Sc1 Zn89 3.156977 1_555
Sc1 Zn82 3.156977 1_555
Sc2 Zn40 2.857794 1_555
Sc2 Zn43 2.857794 1_555
Sc2 Zn48 3.054301 1_556
Sc2 Zn53 3.054301 1_556
Sc2 Zn54 3.054301 1_555
Sc2 Zn59 3.054301 1_555
Sc2 Zn28 3.079890 1_566
Sc2 Zn113 3.125052 1_556
Sc2 Zn110 3.125052 1_555
Sc2 Zn99 3.156977 1_555
Sc2 Zn100 3.156977 1_555
Sc2 Zn84 3.156977 1_555
Sc2 Zn78 3.156977 1_555
Sc3 Zn45 2.857794 1_555
Sc3 Zn38 2.857794 1_555
Sc3 Zn51 3.054301 1_554
Sc3 Zn49 3.054301 1_554
Sc3 Zn58 3.054301 1_555
Sc3 Zn56 3.054301 1_555
Sc3 Zn29 3.079890 1_555
Sc3 Zn111 3.125052 1_554
Sc3 Zn112 3.125052 1_555
Sc3 Zn101 3.156977 1_555
Sc3 Zn98 3.156977 1_555
Sc3 Zn81 3.156977 1_555
Sc3 Zn79 3.156977 1_555
Sc4 Zn44 2.857794 1_555
Sc4 Zn46 2.857794 1_555
Sc4 Zn53 3.054301 1_545
Sc4 Zn48 3.054301 1_545
Sc4 Zn57 3.054301 1_555
Sc4 Zn50 3.054301 1_555
Sc4 Zn28 3.079890 1_555
Sc4 Zn104 3.125052 1_545
Sc4 Zn109 3.125052 1_555
Sc4 Zn80 3.156977 1_555
Sc4 Zn90 3.156977 1_555
Sc4 Zn95 3.156977 1_555
Sc4 Zn91 3.156977 1_555
Sc5 Zn42 2.857794 1_555
Sc5 Zn47 2.857794 1_555
Sc5 Zn51 3.054301 1_565
Sc5 Zn49 3.054301 1_565
Sc5 Zn55 3.054301 1_555
Sc5 Zn52 3.054301 1_555
Sc5 Zn29 3.079890 1_566
Sc5 Zn105 3.125052 1_565
Sc5 Zn107 3.125052 1_555
Sc5 Zn87 3.156977 1_555
Sc5 Zn83 3.156977 1_555
Sc5 Zn88 3.156977 1_555
Sc5 Zn97 3.156977 1_555
Sc6 Zn22 2.740888 1_554
Sc6 Zn18 2.740888 1_545
Sc6 Zn24 2.740888 1_545
Sc6 Zn20 2.740888 1_554
Sc6 Zn17 2.740888 1_555
Sc6 Zn16 2.740888 1_544
Sc6 Zn48 3.172165 1_445
Sc6 Zn49 3.172165 1_554
Sc6 Zn54 3.172166 1_444
Sc6 Zn50 3.172166 1_455
Sc6 Zn52 3.172166 1_544
Sc6 Zn56 3.172166 1_555
Sc6 Zn28 3.433770 1_455
Sc6 Zn29 3.433770 1_555
Sc7 Zn25 2.740888 1_545
Sc7 Zn27 2.740888 1_554
Sc7 Zn26 2.740888 1_545
Sc7 Zn23 2.740888 1_554
Sc7 Zn19 2.740888 1_555
Sc7 Zn21 2.740888 1_544
Sc7 Zn53 3.172165 1_545
Sc7 Zn51 3.172165 1_554
Sc7 Zn57 3.172166 1_555
Sc7 Zn59 3.172166 1_544
Sc7 Zn58 3.172166 1_555
Sc7 Zn55 3.172166 1_544
Sc7 Zn28 3.433770 1_555
Sc7 Zn29 3.433770 1_555
Sc8 Zn41 2.965453 1_655
Sc8 Zn82 2.982243 1_655
Sc8 Zn89 2.982243 1_655
Sc8 Zn4 3.003675 1_655
Sc8 Zn8 3.003675 1_655
Sc8 Zn24 3.026394 1_655
Sc8 Zn18 3.026394 1_655
Sc8 Zn48 3.027801 1_555
Sc8 Zn80 3.037015 1_565
Sc8 Zn99 3.037015 1_554
Sc8 Zn76 3.084983 1_555
Sc8 Zn73 3.084983 1_555
Sc8 Zn12 3.105810 1_555
Sc8 Zn30 3.106877 1_555
Sc8 Zn113 3.106978 1_555
Sc8 Zn104 3.106978 1_555
Sc9 Zn39 2.965453 1_455
Sc9 Zn86 2.982243 1_455
Sc9 Zn85 2.982243 1_455
Sc9 Zn6 3.003675 1_455
Sc9 Zn2 3.003675 1_455
Sc9 Zn20 3.026394 1_555
Sc9 Zn22 3.026394 1_555
Sc9 Zn49 3.027801 1_555
Sc9 Zn98 3.037015 1_556
Sc9 Zn83 3.037015 1_545
Sc9 Zn77 3.084983 1_555
Sc9 Zn75 3.084983 1_555
Sc9 Zn13 3.105810 1_555
Sc9 Zn31 3.106877 1_555
Sc9 Zn111 3.106978 1_555
Sc9 Zn105 3.106978 1_555
Sc10 Zn45 2.965453 1_655
Sc10 Zn98 2.982243 1_655
Sc10 Zn79 2.982243 1_655
Sc10 Zn8 3.003675 1_655
Sc10 Zn1 3.003675 1_655
Sc10 Zn22 3.026394 1_654
Sc10 Zn17 3.026394 1_655
Sc10 Zn50 3.027801 1_555
Sc10 Zn86 3.037015 1_554
Sc10 Zn91 3.037016 1_555
Sc10 Zn76 3.084983 1_555
Sc10 Zn69 3.084983 1_555
Sc10 Zn12 3.105822 1_555
Sc10 Zn32 3.106877 1_555
Sc10 Zn106 3.106978 1_555
Sc10 Zn109 3.106978 1_555
Sc11 Zn37 2.965453 1_555
Sc11 Zn96 2.982243 1_555
Sc11 Zn92 2.982243 1_555
Sc11 Zn11 3.003675 1_555
Sc11 Zn9 3.003675 1_555
Sc11 Zn23 3.026394 1_555
Sc11 Zn27 3.026394 1_555
Sc11 Zn51 3.027801 1_555
Sc11 Zn101 3.037015 1_556
Sc11 Zn87 3.037015 1_545
Sc11 Zn72 3.084983 1_555
Sc11 Zn68 3.084983 1_555
Sc11 Zn14 3.105810 1_555
Sc11 Zn31 3.106877 1_555
Sc11 Zn105 3.106978 1_555
Sc11 Zn111 3.106978 1_555
Sc12 Zn43 2.965453 1_455
Sc12 Zn99 2.982243 1_455
Sc12 Zn78 2.982243 1_455
Sc12 Zn6 3.003675 1_455
Sc12 Zn0 3.003675 1_455
Sc12 Zn24 3.026394 1_556
Sc12 Zn16 3.026394 1_555
Sc12 Zn52 3.027801 1_555
Sc12 Zn89 3.037015 1_556
Sc12 Zn88 3.037016 1_555
Sc12 Zn77 3.084983 1_555
Sc12 Zn71 3.084983 1_555
Sc12 Zn13 3.105822 1_555
Sc12 Zn33 3.106877 1_555
Sc12 Zn108 3.106978 1_555
Sc12 Zn107 3.106978 1_555
Sc13 Zn36 2.965453 1_555
Sc13 Zn93 2.982243 1_555
Sc13 Zn94 2.982243 1_555
Sc13 Zn7 3.003675 1_555
Sc13 Zn10 3.003675 1_555
Sc13 Zn25 3.026394 1_555
Sc13 Zn26 3.026394 1_555
Sc13 Zn53 3.027801 1_555
Sc13 Zn90 3.037015 1_565
Sc13 Zn100 3.037015 1_554
Sc13 Zn74 3.084983 1_555
Sc13 Zn70 3.084983 1_555
Sc13 Zn15 3.105810 1_555
Sc13 Zn30 3.106877 1_555
Sc13 Zn113 3.106978 1_555
Sc13 Zn104 3.106978 1_555
Sc14 Zn47 2.965453 1_655
Sc14 Zn83 2.982243 1_655
Sc14 Zn88 2.982243 1_655
Sc14 Zn4 3.003675 1_655
Sc14 Zn1 3.003675 1_655
Sc14 Zn20 3.026394 1_665
Sc14 Zn16 3.026394 1_655
Sc14 Zn54 3.027801 1_555
Sc14 Zn85 3.037015 1_565
Sc14 Zn78 3.037016 1_555
Sc14 Zn73 3.084983 1_555
Sc14 Zn69 3.084983 1_555
Sc14 Zn12 3.105822 1_555
Sc14 Zn34 3.106877 1_555
Sc14 Zn115 3.106978 1_555
Sc14 Zn110 3.106978 1_555
Sc15 Zn40 2.965453 1_555
Sc15 Zn100 2.982243 1_555
Sc15 Zn84 2.982243 1_555
Sc15 Zn11 3.003675 1_555
Sc15 Zn5 3.003675 1_555
Sc15 Zn26 3.026394 1_556
Sc15 Zn21 3.026394 1_555
Sc15 Zn55 3.027801 1_555
Sc15 Zn94 3.037015 1_556
Sc15 Zn97 3.037016 1_555
Sc15 Zn72 3.084983 1_555
Sc15 Zn66 3.084983 1_555
Sc15 Zn14 3.105822 1_555
Sc15 Zn33 3.106877 1_555
Sc15 Zn108 3.106978 1_555
Sc15 Zn107 3.106978 1_555
Sc16 Zn46 2.965453 1_455
Sc16 Zn80 2.982243 1_455
Sc16 Zn91 2.982243 1_455
Sc16 Zn2 3.003675 1_455
Sc16 Zn0 3.003675 1_455
Sc16 Zn18 3.026394 1_545
Sc16 Zn17 3.026394 1_555
Sc16 Zn56 3.027801 1_555
Sc16 Zn82 3.037015 1_545
Sc16 Zn79 3.037016 1_555
Sc16 Zn75 3.084983 1_555
Sc16 Zn71 3.084983 1_555
Sc16 Zn13 3.105822 1_555
Sc16 Zn35 3.106877 1_555
Sc16 Zn114 3.106978 1_555
Sc16 Zn112 3.106978 1_555
Sc17 Zn38 2.965453 1_555
Sc17 Zn101 2.982243 1_555
Sc17 Zn81 2.982243 1_555
Sc17 Zn10 3.003675 1_555
Sc17 Zn3 3.003675 1_555
Sc17 Zn27 3.026394 1_554
Sc17 Zn19 3.026394 1_555
Sc17 Zn57 3.027801 1_555
Sc17 Zn96 3.037015 1_554
Sc17 Zn95 3.037016 1_555
Sc17 Zn74 3.084983 1_555
Sc17 Zn67 3.084983 1_555
Sc17 Zn15 3.105822 1_555
Sc17 Zn32 3.106877 1_555
Sc17 Zn106 3.106978 1_555
Sc17 Zn109 3.106978 1_555
Sc18 Zn44 2.965453 1_555
Sc18 Zn90 2.982243 1_555
Sc18 Zn95 2.982243 1_555
Sc18 Zn9 3.003675 1_555
Sc18 Zn5 3.003675 1_555
Sc18 Zn25 3.026394 1_545
Sc18 Zn19 3.026394 1_555
Sc18 Zn58 3.027801 1_555
Sc18 Zn93 3.037015 1_545
Sc18 Zn81 3.037016 1_555
Sc18 Zn68 3.084983 1_555
Sc18 Zn66 3.084983 1_555
Sc18 Zn14 3.105822 1_555
Sc18 Zn35 3.106877 1_555
Sc18 Zn114 3.106978 1_555
Sc18 Zn112 3.106978 1_555
Sc19 Zn42 2.965453 1_555
Sc19 Zn87 2.982243 1_555
Sc19 Zn97 2.982243 1_555
Sc19 Zn7 3.003675 1_555
Sc19 Zn3 3.003675 1_555
Sc19 Zn23 3.026394 1_565
Sc19 Zn21 3.026394 1_555
Sc19 Zn59 3.027801 1_555
Sc19 Zn92 3.037015 1_565
Sc19 Zn84 3.037016 1_555
Sc19 Zn70 3.084983 1_555
Sc19 Zn67 3.084983 1_555
Sc19 Zn15 3.105822 1_555
Sc19 Zn34 3.106877 1_555
Sc19 Zn115 3.106978 1_555
Sc19 Zn110 3.106978 1_555
Sc20 Zn103 2.947446 1_555
Sc20 Zn67 2.950098 1_555
Sc20 Zn69 2.950098 1_555
Sc20 Zn40 2.986926 1_555
Sc20 Zn43 2.986926 1_555
Sc20 Zn46 2.986926 1_555
Sc20 Zn44 2.986926 1_555
Sc20 Zn78 3.032044 1_555
Sc20 Zn84 3.032044 1_555
Sc20 Zn95 3.032044 1_555
Sc20 Zn91 3.032044 1_555
Sc20 Zn5 3.037482 1_555
Sc20 Zn0 3.037482 1_555
Sc20 Zn109 3.206550 1_555
Sc20 Zn110 3.206550 1_555
Sc21 Zn102 2.947446 1_555
Sc21 Zn71 2.950098 1_555
Sc21 Zn66 2.950098 1_555
Sc21 Zn42 2.986926 1_555
Sc21 Zn47 2.986926 1_555
Sc21 Zn38 2.986926 1_555
Sc21 Zn45 2.986926 1_555
Sc21 Zn79 3.032044 1_555
Sc21 Zn97 3.032044 1_555
Sc21 Zn88 3.032044 1_555
Sc21 Zn81 3.032044 1_555
Sc21 Zn3 3.037482 1_555
Sc21 Zn1 3.037482 1_555
Sc21 Zn107 3.206550 1_555
Sc21 Zn112 3.206550 1_555
Sc22 Zn103 2.947434 1_555
Sc22 Zn70 2.950098 1_545
Sc22 Zn73 2.950098 1_545
Sc22 Zn44 2.986926 1_555
Sc22 Zn46 2.986926 1_555
Sc22 Zn37 2.986926 1_555
Sc22 Zn39 2.986926 1_555
Sc22 Zn90 3.032044 1_555
Sc22 Zn80 3.032044 1_555
Sc22 Zn85 3.032044 1_555
Sc22 Zn92 3.032044 1_555
Sc22 Zn2 3.037482 1_555
Sc22 Zn9 3.037482 1_555
Sc22 Zn104 3.206550 1_545
Sc22 Zn115 3.206550 1_545
Sc23 Zn102 2.947434 1_555
Sc23 Zn68 2.950098 1_565
Sc23 Zn75 2.950098 1_565
Sc23 Zn42 2.986926 1_555
Sc23 Zn47 2.986926 1_555
Sc23 Zn36 2.986926 1_555
Sc23 Zn41 2.986926 1_555
Sc23 Zn87 3.032044 1_555
Sc23 Zn83 3.032044 1_555
Sc23 Zn82 3.032044 1_555
Sc23 Zn93 3.032044 1_555
Sc23 Zn7 3.037482 1_555
Sc23 Zn4 3.037482 1_555
Sc23 Zn105 3.206550 1_565
Sc23 Zn114 3.206550 1_565
Sc24 Zn103 2.947434 1_555
Sc24 Zn76 2.950098 1_556
Sc24 Zn74 2.950098 1_556
Sc24 Zn40 2.986926 1_555
Sc24 Zn43 2.986926 1_555
Sc24 Zn39 2.986926 1_555
Sc24 Zn37 2.986926 1_555
Sc24 Zn99 3.032044 1_555
Sc24 Zn100 3.032044 1_555
Sc24 Zn96 3.032044 1_555
Sc24 Zn86 3.032044 1_555
Sc24 Zn11 3.037482 1_555
Sc24 Zn6 3.037482 1_555
Sc24 Zn113 3.206550 1_556
Sc24 Zn106 3.206550 1_556
Sc25 Zn102 2.947434 1_555
Sc25 Zn72 2.950098 1_554
Sc25 Zn77 2.950098 1_554
Sc25 Zn45 2.986926 1_555
Sc25 Zn38 2.986926 1_555
Sc25 Zn36 2.986926 1_555
Sc25 Zn41 2.986926 1_555
Sc25 Zn101 3.032044 1_555
Sc25 Zn98 3.032044 1_555
Sc25 Zn94 3.032044 1_555
Sc25 Zn89 3.032044 1_555
Sc25 Zn10 3.037482 1_555
Sc25 Zn8 3.037482 1_555
Sc25 Zn111 3.206550 1_554
Sc25 Zn108 3.206550 1_554
Zn0 Zn60 2.524581 1_655
Zn0 Zn46 2.556322 1_555
Zn0 Zn43 2.556322 1_555
Zn0 Zn13 2.573234 1_655
Zn0 Zn2 2.756250 1_555
Zn0 Zn6 2.756250 1_555
Zn0 Zn71 2.832757 1_655
Zn0 Zn91 3.003392 1_555
Zn0 Zn78 3.003392 1_555
Zn1 Zn60 2.524581 1_555
Zn1 Zn45 2.556322 1_555
Zn1 Zn47 2.556322 1_555
Zn1 Zn12 2.573234 1_455
Zn1 Zn4 2.756250 1_555
Zn1 Zn8 2.756250 1_555
Zn1 Zn69 2.832757 1_455
Zn1 Zn79 3.003392 1_555
Zn1 Zn88 3.003392 1_555
Zn2 Zn61 2.524581 1_655
Zn2 Zn46 2.556322 1_555
Zn2 Zn39 2.556322 1_555
Zn2 Zn6 2.756250 1_555
Zn2 Zn75 2.832757 1_655
Zn2 Zn85 3.003392 1_555
Zn2 Zn80 3.003392 1_555
Zn3 Zn62 2.524581 1_555
Zn3 Zn38 2.556322 1_555
Zn3 Zn42 2.556322 1_555
Zn3 Zn7 2.756250 1_555
Zn3 Zn67 2.832757 1_555
Zn3 Zn81 3.003392 1_555
Zn3 Zn97 3.003392 1_555
Zn4 Zn61 2.524581 1_565
Zn4 Zn47 2.556322 1_555
Zn4 Zn41 2.556322 1_555
Zn4 Zn8 2.756250 1_555
Zn4 Zn73 2.832757 1_455
Zn4 Zn82 3.003392 1_555
Zn4 Zn83 3.003392 1_555
Zn5 Zn62 2.524581 1_555
Zn5 Zn9 2.756250 1_555
Zn5 Zn66 2.832757 1_555
Zn5 Zn95 3.003392 1_555
Zn5 Zn84 3.003392 1_555
Zn6 Zn63 2.524581 1_656
Zn6 Zn77 2.832757 1_655
Zn6 Zn86 3.003392 1_555
Zn6 Zn99 3.003392 1_555
Zn7 Zn70 2.832757 1_555
Zn7 Zn93 3.003392 1_555
Zn7 Zn87 3.003392 1_555
Zn8 Zn89 3.003392 1_555
Zn8 Zn98 3.003392 1_555
Zn9 Zn92 3.003392 1_555
Zn9 Zn90 3.003392 1_555
Zn10 Zn65 2.524581 1_555
Zn10 Zn38 2.556322 1_555
Zn10 Zn36 2.556322 1_555
Zn10 Zn15 2.573226 1_555
Zn10 Zn3 2.756250 1_555
Zn10 Zn7 2.756250 1_555
Zn10 Zn74 2.832757 1_555
Zn10 Zn94 3.003392 1_555
Zn10 Zn101 3.003392 1_555
Zn11 Zn65 2.524581 1_556
Zn11 Zn40 2.556322 1_555
Zn11 Zn37 2.556322 1_555
Zn11 Zn14 2.573226 1_555
Zn11 Zn5 2.756250 1_555
Zn11 Zn9 2.756250 1_555
Zn11 Zn72 2.832757 1_555
Zn11 Zn96 3.003392 1_555
Zn12 Zn4 2.573226 1_655
Zn12 Zn8 2.573226 1_655
Zn12 Zn73 2.604952 1_555
Zn12 Zn76 2.604952 1_555
Zn12 Zn69 2.604964 1_555
Zn12 Zn30 2.629937 1_555
Zn12 Zn34 2.629945 1_555
Zn12 Zn32 2.629945 1_555
Zn13 Zn6 2.573226 1_455
Zn13 Zn2 2.573226 1_455
Zn13 Zn77 2.604952 1_555
Zn13 Zn75 2.604952 1_555
Zn13 Zn71 2.604964 1_555
Zn13 Zn31 2.629937 1_555
Zn13 Zn35 2.629945 1_555
Zn13 Zn33 2.629945 1_555
Zn14 Zn9 2.573226 1_555
Zn14 Zn5 2.573234 1_555
Zn14 Zn72 2.604952 1_555
Zn14 Zn68 2.604952 1_555
Zn14 Zn66 2.604964 1_555
Zn14 Zn31 2.629937 1_555
Zn14 Zn35 2.629945 1_555
Zn14 Zn33 2.629945 1_555
Zn15 Zn7 2.573226 1_555
Zn15 Zn3 2.573234 1_555
Zn15 Zn70 2.604952 1_555
Zn15 Zn74 2.604952 1_555
Zn15 Zn67 2.604964 1_555
Zn15 Zn30 2.629937 1_555
Zn15 Zn34 2.629945 1_555
Zn15 Zn32 2.629945 1_555
Zn16 Zn78 2.522753 1_455
Zn16 Zn88 2.522753 1_555
Zn16 Zn54 2.563201 1_455
Zn16 Zn52 2.563201 1_555
Zn16 Zn20 2.740888 1_565
Zn16 Zn24 2.740888 1_556
Zn17 Zn91 2.522753 1_455
Zn17 Zn79 2.522753 1_555
Zn17 Zn50 2.563201 1_455
Zn17 Zn56 2.563201 1_555
Zn17 Zn22 2.740888 1_554
Zn17 Zn18 2.740888 1_545
Zn18 Zn82 2.522753 1_555
Zn18 Zn80 2.522753 1_465
Zn18 Zn56 2.563201 1_565
Zn18 Zn48 2.563201 1_455
Zn18 Zn24 2.740888 1_555
Zn19 Zn95 2.522753 1_555
Zn19 Zn81 2.522753 1_555
Zn19 Zn57 2.563201 1_555
Zn19 Zn58 2.563201 1_555
Zn19 Zn25 2.740888 1_545
Zn19 Zn27 2.740888 1_554
Zn20 Zn85 2.522753 1_455
Zn20 Zn83 2.522753 1_545
Zn20 Zn54 2.563201 1_445
Zn20 Zn49 2.563201 1_555
Zn20 Zn22 2.740888 1_555
Zn21 Zn84 2.522753 1_555
Zn21 Zn97 2.522753 1_555
Zn21 Zn59 2.563201 1_555
Zn21 Zn55 2.563201 1_555
Zn21 Zn26 2.740888 1_556
Zn21 Zn23 2.740888 1_565
Zn22 Zn86 2.522753 1_455
Zn22 Zn98 2.522753 1_556
Zn22 Zn50 2.563201 1_456
Zn22 Zn49 2.563201 1_555
Zn23 Zn92 2.522753 1_555
Zn23 Zn87 2.522753 1_545
Zn23 Zn59 2.563201 1_545
Zn23 Zn51 2.563201 1_555
Zn23 Zn27 2.740888 1_555
Zn24 Zn89 2.522753 1_555
Zn24 Zn99 2.522753 1_454
Zn24 Zn52 2.563201 1_554
Zn24 Zn48 2.563201 1_455
Zn25 Zn93 2.522753 1_555
Zn25 Zn90 2.522753 1_565
Zn25 Zn58 2.563201 1_565
Zn25 Zn53 2.563201 1_555
Zn25 Zn26 2.740888 1_555
Zn26 Zn94 2.522753 1_555
Zn26 Zn55 2.563201 1_554
Zn26 Zn53 2.563201 1_555
Zn27 Zn96 2.522753 1_555
Zn27 Zn57 2.563201 1_556
Zn27 Zn51 2.563201 1_555
Zn28 Zn53 2.642477 1_545
Zn28 Zn48 2.642477 1_545
Zn28 Zn57 2.642477 1_555
Zn28 Zn50 2.642477 1_555
Zn28 Zn54 2.642477 1_544
Zn28 Zn59 2.642477 1_544
Zn29 Zn49 2.642477 1_554
Zn29 Zn51 2.642477 1_554
Zn29 Zn52 2.642477 1_544
Zn29 Zn55 2.642477 1_544
Zn29 Zn58 2.642477 1_555
Zn29 Zn56 2.642477 1_555
Zn30 Zn76 2.650114 1_555
Zn30 Zn74 2.650114 1_555
Zn30 Zn70 2.650114 1_555
Zn30 Zn73 2.650114 1_555
Zn30 Zn32 2.678081 1_555
Zn30 Zn34 2.678081 1_555
Zn31 Zn72 2.650114 1_555
Zn31 Zn77 2.650114 1_555
Zn31 Zn68 2.650114 1_555
Zn31 Zn75 2.650114 1_555
Zn31 Zn33 2.678081 1_555
Zn31 Zn35 2.678081 1_555
Zn32 Zn76 2.650114 1_555
Zn32 Zn74 2.650114 1_555
Zn32 Zn69 2.650114 1_555
Zn32 Zn67 2.650114 1_555
Zn32 Zn34 2.678081 1_555
Zn33 Zn72 2.650114 1_555
Zn33 Zn77 2.650114 1_555
Zn33 Zn66 2.650114 1_555
Zn33 Zn71 2.650114 1_555
Zn33 Zn35 2.678081 1_555
Zn34 Zn70 2.650114 1_555
Zn34 Zn73 2.650114 1_555
Zn34 Zn69 2.650114 1_555
Zn34 Zn67 2.650114 1_555
Zn35 Zn75 2.650114 1_555
Zn35 Zn68 2.650114 1_555
Zn35 Zn66 2.650114 1_555
Zn35 Zn71 2.650114 1_555
Zn36 Zn93 2.517848 1_555
Zn36 Zn94 2.517848 1_555
Zn36 Zn41 2.518733 1_555
Zn36 Zn7 2.556322 1_555
Zn37 Zn92 2.517848 1_555
Zn37 Zn96 2.517848 1_555
Zn37 Zn39 2.518733 1_555
Zn37 Zn9 2.556322 1_555
Zn38 Zn81 2.517848 1_555
Zn38 Zn45 2.518733 1_555
Zn39 Zn86 2.517848 1_555
Zn39 Zn85 2.517848 1_555
Zn39 Zn6 2.556322 1_555
Zn40 Zn84 2.517848 1_555
Zn40 Zn43 2.518733 1_555
Zn40 Zn5 2.556322 1_555
Zn41 Zn89 2.517848 1_555
Zn41 Zn82 2.517848 1_555
Zn41 Zn8 2.556322 1_555
Zn42 Zn97 2.517848 1_555
Zn42 Zn87 2.517848 1_555
Zn42 Zn47 2.518733 1_555
Zn42 Zn7 2.556322 1_555
Zn43 Zn78 2.517848 1_555
Zn43 Zn99 2.517848 1_555
Zn43 Zn6 2.556322 1_555
Zn44 Zn95 2.517848 1_555
Zn44 Zn90 2.517848 1_555
Zn44 Zn46 2.518733 1_555
Zn44 Zn9 2.556322 1_555
Zn44 Zn5 2.556322 1_555
Zn45 Zn79 2.517848 1_555
Zn45 Zn98 2.517848 1_555
Zn45 Zn8 2.556322 1_555
Zn46 Zn91 2.517848 1_555
Zn46 Zn80 2.517848 1_555
Zn47 Zn88 2.517848 1_555
Zn47 Zn83 2.517848 1_555
Zn48 Zn53 2.536811 1_555
Zn49 Zn51 2.536811 1_555
Zn50 Zn57 2.536811 1_555
Zn52 Zn55 2.536811 1_555
Zn54 Zn59 2.536811 1_555
Zn56 Zn58 2.536811 1_555
Zn60 Zn71 2.462277 1_555
Zn60 Zn69 2.462277 1_455
Zn60 Zn78 2.593651 1_455
Zn60 Zn91 2.593651 1_455
Zn60 Zn79 2.593651 1_555
Zn60 Zn88 2.593651 1_555
Zn61 Zn73 2.462277 1_445
Zn61 Zn75 2.462277 1_555
Zn61 Zn80 2.593651 1_455
Zn61 Zn83 2.593651 1_545
Zn61 Zn85 2.593651 1_455
Zn61 Zn82 2.593651 1_545
Zn62 Zn67 2.462277 1_555
Zn62 Zn66 2.462277 1_555
Zn62 Zn84 2.593651 1_555
Zn62 Zn95 2.593651 1_555
Zn62 Zn97 2.593651 1_555
Zn62 Zn81 2.593651 1_555
Zn63 Zn76 2.462277 1_455
Zn63 Zn77 2.462277 1_554
Zn63 Zn8 2.524581 1_555
Zn63 Zn99 2.593651 1_454
Zn63 Zn98 2.593651 1_555
Zn63 Zn86 2.593651 1_454
Zn63 Zn89 2.593651 1_555
Zn64 Zn70 2.462277 1_545
Zn64 Zn68 2.462277 1_555
Zn64 Zn9 2.524581 1_555
Zn64 Zn7 2.524581 1_545
Zn64 Zn90 2.593651 1_555
Zn64 Zn87 2.593651 1_545
Zn64 Zn92 2.593651 1_555
Zn64 Zn93 2.593651 1_545
Zn65 Zn74 2.462277 1_555
Zn65 Zn72 2.462277 1_554
Zn65 Zn96 2.593651 1_554
Zn65 Zn94 2.593651 1_555
Zn66 Zn81 2.938329 1_555
Zn66 Zn97 2.938329 1_555
Zn66 Zn71 2.947931 1_555
Zn67 Zn84 2.938329 1_555
Zn67 Zn95 2.938329 1_555
Zn67 Zn69 2.947931 1_555
Zn68 Zn9 2.832757 1_555
Zn68 Zn93 2.938329 1_545
Zn68 Zn87 2.938329 1_545
Zn68 Zn75 2.947931 1_555
Zn69 Zn91 2.938329 1_555
Zn69 Zn78 2.938329 1_555
Zn70 Zn92 2.938329 1_565
Zn70 Zn90 2.938329 1_565
Zn70 Zn73 2.947931 1_555
Zn71 Zn79 2.938329 1_555
Zn71 Zn88 2.938329 1_555
Zn72 Zn94 2.938329 1_556
Zn72 Zn77 2.947931 1_555
Zn73 Zn85 2.938329 1_565
Zn73 Zn80 2.938329 1_565
Zn74 Zn96 2.938329 1_554
Zn74 Zn76 2.947931 1_555
Zn75 Zn82 2.938329 1_545
Zn75 Zn83 2.938329 1_545
Zn76 Zn8 2.832757 1_655
Zn76 Zn86 2.938329 1_554
Zn76 Zn99 2.938329 1_554
Zn77 Zn89 2.938329 1_556
Zn77 Zn98 2.938329 1_556
Zn78 Zn88 2.909086 1_655
Zn79 Zn91 2.909086 1_455
Zn80 Zn82 2.909086 1_645
Zn81 Zn95 2.909086 1_555
Zn83 Zn85 2.909086 1_465
Zn84 Zn97 2.909086 1_555
Zn86 Zn98 2.909086 1_656
Zn87 Zn92 2.909086 1_565
Zn89 Zn99 2.909086 1_454
Zn90 Zn93 2.909086 1_545
Zn100 Zn113 2.513328 1_556
Zn100 Zn40 2.517848 1_555
Zn100 Zn26 2.522753 1_556
Zn100 Zn65 2.593651 1_556
Zn100 Zn94 2.909086 1_556
Zn100 Zn74 2.938329 1_556
Zn100 Zn11 3.003392 1_555
Zn101 Zn111 2.513328 1_554
Zn101 Zn38 2.517848 1_555
Zn101 Zn27 2.522753 1_554
Zn101 Zn65 2.593651 1_555
Zn101 Zn96 2.909086 1_554
Zn101 Zn72 2.938329 1_554
Zn102 Zn41 2.692082 1_555
Zn102 Zn36 2.692082 1_555
Zn102 Zn38 2.692092 1_555
Zn102 Zn45 2.692092 1_555
Zn102 Zn42 2.692092 1_555
Zn102 Zn47 2.692092 1_555
Zn103 Zn37 2.692082 1_555
Zn103 Zn39 2.692082 1_555
Zn103 Zn46 2.692092 1_555
Zn103 Zn44 2.692092 1_555
Zn103 Zn40 2.692092 1_555
Zn103 Zn43 2.692092 1_555
Zn104 Zn30 2.505860 1_555
Zn104 Zn90 2.513328 1_565
Zn104 Zn80 2.513328 1_565
Zn104 Zn113 2.767572 1_555
Zn104 Zn48 2.795215 1_555
Zn104 Zn53 2.795215 1_555
Zn104 Zn73 2.907033 1_555
Zn104 Zn70 2.907033 1_555
Zn105 Zn31 2.505860 1_555
Zn105 Zn87 2.513328 1_545
Zn105 Zn83 2.513328 1_545
Zn105 Zn111 2.767572 1_555
Zn105 Zn51 2.795215 1_555
Zn105 Zn49 2.795215 1_555
Zn105 Zn75 2.907033 1_555
Zn105 Zn68 2.907033 1_555
Zn106 Zn32 2.505860 1_555
Zn106 Zn86 2.513328 1_554
Zn106 Zn96 2.513328 1_554
Zn106 Zn109 2.767572 1_555
Zn106 Zn50 2.795215 1_555
Zn106 Zn57 2.795215 1_555
Zn106 Zn76 2.907033 1_555
Zn106 Zn74 2.907033 1_555
Zn107 Zn33 2.505860 1_555
Zn107 Zn88 2.513328 1_555
Zn107 Zn97 2.513328 1_555
Zn107 Zn108 2.767572 1_555
Zn107 Zn52 2.795215 1_555
Zn107 Zn55 2.795215 1_555
Zn107 Zn66 2.907033 1_555
Zn107 Zn71 2.907033 1_555
Zn108 Zn33 2.505860 1_555
Zn108 Zn89 2.513328 1_556
Zn108 Zn94 2.513328 1_556
Zn108 Zn55 2.795215 1_555
Zn108 Zn52 2.795215 1_555
Zn108 Zn72 2.907033 1_555
Zn108 Zn77 2.907033 1_555
Zn109 Zn32 2.505860 1_555
Zn109 Zn95 2.513328 1_555
Zn109 Zn91 2.513328 1_555
Zn109 Zn57 2.795215 1_555
Zn109 Zn50 2.795215 1_555
Zn109 Zn69 2.907033 1_555
Zn109 Zn67 2.907033 1_555
Zn110 Zn34 2.505860 1_555
Zn110 Zn84 2.513328 1_555
Zn110 Zn78 2.513328 1_555
Zn110 Zn115 2.767572 1_555
Zn110 Zn54 2.795215 1_555
Zn110 Zn59 2.795215 1_555
Zn110 Zn67 2.907033 1_555
Zn110 Zn69 2.907033 1_555
Zn111 Zn31 2.505860 1_555
Zn111 Zn98 2.513328 1_556
Zn111 Zn51 2.795215 1_555
Zn111 Zn49 2.795215 1_555
Zn111 Zn72 2.907033 1_555
Zn111 Zn77 2.907033 1_555
Zn112 Zn35 2.505860 1_555
Zn112 Zn81 2.513328 1_555
Zn112 Zn79 2.513328 1_555
Zn112 Zn114 2.767572 1_555
Zn112 Zn58 2.795215 1_555
Zn112 Zn56 2.795215 1_555
Zn112 Zn71 2.907033 1_555
Zn112 Zn66 2.907033 1_555
Zn113 Zn30 2.505860 1_555
Zn113 Zn99 2.513328 1_554
Zn113 Zn48 2.795215 1_555
Zn113 Zn53 2.795215 1_555
Zn113 Zn74 2.907033 1_555
Zn113 Zn76 2.907033 1_555
Zn114 Zn35 2.505860 1_555
Zn114 Zn82 2.513328 1_545
Zn114 Zn93 2.513328 1_545
Zn114 Zn56 2.795215 1_555
Zn114 Zn58 2.795215 1_555
Zn114 Zn75 2.907033 1_555
Zn114 Zn68 2.907033 1_555
Zn115 Zn34 2.505860 1_555
Zn115 Zn92 2.513328 1_565
Zn115 Zn85 2.513328 1_565
Zn115 Zn54 2.795215 1_555
Zn115 Zn59 2.795215 1_555
Zn115 Zn73 2.907033 1_555
Zn115 Zn70 2.907033 1_555
