# generated using pymatgen
data_Nb3(Cl3O4)2
_symmetry_space_group_name_H-M   'P 1'
_cell_length_a   11.77013461
_cell_length_b   11.77013461
_cell_length_c   11.77013461
_cell_angle_alpha   60.00000000
_cell_angle_beta   60.00000000
_cell_angle_gamma   60.00000000
_symmetry_Int_Tables_number   1
_chemical_formula_structural   Nb3(Cl3O4)2
_chemical_formula_sum   'Nb6 Cl12 O16'
_cell_volume   1152.99995829
_cell_formula_units_Z   2
loop_
 _symmetry_equiv_pos_site_id
 _symmetry_equiv_pos_as_xyz
  1  'x, y, z'
loop_
 _atom_site_type_symbol
 _atom_site_label
 _atom_site_symmetry_multiplicity
 _atom_site_fract_x
 _atom_site_fract_y
 _atom_site_fract_z
 _atom_site_occupancy
  Nb  Nb0  1  0.86285600  0.13714400  0.13714400  1
  Nb  Nb1  1  0.86285600  0.86285600  0.13714400  1
  Nb  Nb2  1  0.13714400  0.86285600  0.13714400  1
  Nb  Nb3  1  0.13714400  0.13714400  0.86285600  1
  Nb  Nb4  1  0.86285600  0.13714400  0.86285600  1
  Nb  Nb5  1  0.13714400  0.86285600  0.86285600  1
  Cl  Cl0  1  0.58441500  0.00000000  0.41558500  1
  Cl  Cl1  1  0.00000000  0.58441500  0.41558500  1
  Cl  Cl2  1  0.00000000  0.00000000  0.41558500  1
  Cl  Cl3  1  0.00000000  0.41558500  0.00000000  1
  Cl  Cl4  1  0.00000000  0.41558500  0.58441500  1
  Cl  Cl5  1  0.58441500  0.41558500  0.00000000  1
  Cl  Cl6  1  0.41558500  0.00000000  0.58441500  1
  Cl  Cl7  1  0.41558500  0.00000000  0.00000000  1
  Cl  Cl8  1  0.41558500  0.58441500  0.00000000  1
  Cl  Cl9  1  0.00000000  0.58441500  0.00000000  1
  Cl  Cl10  1  0.58441500  0.00000000  0.00000000  1
  Cl  Cl11  1  0.00000000  0.00000000  0.58441500  1
  O  O0  1  0.75880400  0.24119600  0.24119600  1
  O  O1  1  0.75880400  0.75880400  0.24119600  1
  O  O2  1  0.24119600  0.75880400  0.24119600  1
  O  O3  1  0.24119600  0.24119600  0.75880400  1
  O  O4  1  0.75880400  0.24119600  0.75880400  1
  O  O5  1  0.24119600  0.75880400  0.75880400  1
  O  O6  1  0.75000000  0.75000000  0.75000000  1
  O  O7  1  0.25000000  0.25000000  0.25000000  1
  O  O8  1  0.92053600  0.92053600  0.23839100  1
  O  O9  1  0.92053600  0.23839100  0.92053600  1
  O  O10  1  0.23839100  0.92053600  0.92053600  1
  O  O11  1  0.92053600  0.92053600  0.92053600  1
  O  O12  1  0.07946400  0.07946400  0.76160900  1
  O  O13  1  0.07946400  0.76160900  0.07946400  1
  O  O14  1  0.76160900  0.07946400  0.07946400  1
  O  O15  1  0.07946400  0.07946400  0.07946400  1
loop_
_geom_bond_atom_site_label_1
_geom_bond_atom_site_label_2
_geom_bond_distance
_geom_bond_site_symmetry_2
Nb0 O0 1.731996 1_555
Nb0 O14 2.102601 1_555
Nb0 O9 2.102610 1_554
Nb0 O8 2.102610 1_545
Nb0 O15 2.102611 1_655
Nb1 O1 1.731996 1_555
Nb1 O8 2.102601 1_555
Nb1 O14 2.102610 1_565
Nb1 O13 2.102610 1_655
Nb1 O11 2.102611 1_554
Nb2 O2 1.731996 1_555
Nb2 O13 2.102601 1_555
Nb2 O10 2.102610 1_554
Nb2 O8 2.102610 1_455
Nb2 O15 2.102611 1_565
Nb3 O3 1.731996 1_555
Nb3 O12 2.102601 1_555
Nb3 O10 2.102610 1_545
Nb3 O9 2.102610 1_455
Nb3 O15 2.102611 1_556
Nb4 O4 1.731996 1_555
Nb4 O9 2.102601 1_555
Nb4 O12 2.102610 1_655
Nb4 O14 2.102610 1_556
Nb4 O11 2.102611 1_545
Nb5 O5 1.731996 1_555
Nb5 O10 2.102601 1_555
Nb5 O13 2.102610 1_556
Nb5 O12 2.102610 1_565
Nb5 O11 2.102611 1_455
Cl0 Cl6 1.987152 1_555
Cl1 Cl4 1.987152 1_555
Cl3 Cl9 1.987152 1_555
Cl5 Cl8 1.987152 1_555
Cl10 Cl7 1.987152 1_555
Cl11 Cl2 1.987152 1_555
