# generated using pymatgen
data_CsTi2(CuTe4)2
_symmetry_space_group_name_H-M   'P 1'
_cell_length_a   10.24326070
_cell_length_b   10.24326070
_cell_length_c   13.45251638
_cell_angle_alpha   51.25184076
_cell_angle_beta   51.25184076
_cell_angle_gamma   22.70438927
_symmetry_Int_Tables_number   1
_chemical_formula_structural   CsTi2(CuTe4)2
_chemical_formula_sum   'Cs1 Ti2 Cu2 Te8'
_cell_volume   419.34443476
_cell_formula_units_Z   1
loop_
 _symmetry_equiv_pos_site_id
 _symmetry_equiv_pos_as_xyz
  1  'x, y, z'
loop_
 _atom_site_type_symbol
 _atom_site_label
 _atom_site_symmetry_multiplicity
 _atom_site_fract_x
 _atom_site_fract_y
 _atom_site_fract_z
 _atom_site_occupancy
  Cs  Cs0  1  0.98949300  0.98949300  0.36877700  1
  Ti  Ti0  1  0.70340400  0.70340400  0.80248000  1
  Ti  Ti1  1  0.29795400  0.29795400  0.19251400  1
  Cu  Cu0  1  0.75924100  0.75924100  0.06532800  1
  Cu  Cu1  1  0.24162200  0.24162200  0.93613000  1
  Te  Te0  1  0.63145700  0.63145700  0.05148700  1
  Te  Te1  1  0.37047400  0.37047400  0.94414100  1
  Te  Te2  1  0.67679100  0.67679100  0.31229800  1
  Te  Te3  1  0.32401000  0.32401000  0.69059200  1
  Te  Te4  1  0.91879400  0.91879400  0.14661500  1
  Te  Te5  1  0.08165600  0.08165600  0.84859000  1
  Te  Te6  1  0.68886600  0.68886600  0.60179000  1
  Te  Te7  1  0.30573700  0.30573700  0.40245800  1
loop_
_geom_bond_atom_site_label_1
_geom_bond_atom_site_label_2
_geom_bond_distance
_geom_bond_site_symmetry_2
Cs0 Te0 3.856854 1_565
Cs0 Te0 3.856854 1_655
Cs0 Te2 3.891782 1_565
Cs0 Te2 3.891782 1_655
Cs0 Te3 3.934857 1_565
Cs0 Te3 3.934857 1_655
Cs0 Te7 3.969638 1_655
Cs0 Te7 3.969638 1_565
Cs0 Te4 4.045626 1_555
Cu0 Te2 2.599189 1_555
Cu0 Te1 2.657880 1_564
Cu0 Te1 2.657880 1_654
Cu0 Te0 2.689320 1_555
Cu0 Cu1 2.827844 1_564
Cu0 Cu1 2.827844 1_654
Cu0 Ti1 3.048945 1_565
Cu0 Ti1 3.048945 1_655
Cu1 Te3 2.582636 1_555
Cu1 Te0 2.643027 1_456
Cu1 Te0 2.643027 1_546
Cu1 Te1 2.658177 1_555
Cu1 Ti0 3.106338 1_545
Cu1 Ti0 3.106338 1_455
Te0 Ti0 2.669964 1_554
Te1 Ti1 2.659263 1_556
Te2 Ti1 2.752751 1_565
Te2 Ti1 2.752751 1_655
Te3 Ti0 2.746601 1_455
Te3 Ti0 2.746601 1_545
Te4 Ti1 2.902458 1_655
Te4 Ti1 2.902458 1_565
Te5 Ti0 2.914344 1_545
Te5 Ti0 2.914344 1_455
Te6 Ti0 2.894937 1_555
Te7 Ti1 2.926547 1_555
