# generated using pymatgen
data_KRb2Mo(OF)3
_symmetry_space_group_name_H-M   'P 1'
_cell_length_a   6.51993281
_cell_length_b   6.43501268
_cell_length_c   6.39253183
_cell_angle_alpha   61.09705929
_cell_angle_beta   59.77296847
_cell_angle_gamma   59.12997223
_symmetry_Int_Tables_number   1
_chemical_formula_structural   KRb2Mo(OF)3
_chemical_formula_sum   'K1 Rb2 Mo1 O3 F3'
_cell_volume   189.53192701
_cell_formula_units_Z   1
loop_
 _symmetry_equiv_pos_site_id
 _symmetry_equiv_pos_as_xyz
  1  'x, y, z'
loop_
 _atom_site_type_symbol
 _atom_site_label
 _atom_site_symmetry_multiplicity
 _atom_site_fract_x
 _atom_site_fract_y
 _atom_site_fract_z
 _atom_site_occupancy
  K  K0  1  0.50391900  0.50391900  0.49608100  1
  Rb  Rb0  1  0.75996600  0.75996600  0.74003400  1
  Rb  Rb1  1  0.25996600  0.25996600  0.24003400  1
  Mo  Mo0  1  0.01906700  0.01906700  0.98093300  1
  O  O0  1  0.18050100  0.77825600  0.81949900  1
  O  O1  1  0.21128700  0.21128700  0.78871300  1
  O  O2  1  0.77825600  0.18050100  0.22174400  1
  F  F0  1  0.22577900  0.78316800  0.21683200  1
  F  F1  1  0.77809200  0.77809200  0.22190800  1
  F  F2  1  0.78316800  0.22577900  0.77422100  1
loop_
_geom_bond_atom_site_label_1
_geom_bond_atom_site_label_2
_geom_bond_distance
_geom_bond_site_symmetry_2
K0 O0 2.675065 1_555
K0 O2 2.675065 1_555
K0 O1 2.715475 1_555
Mo0 O1 1.783703 1_555
Mo0 O2 1.831008 1_456
Mo0 O0 1.831008 1_545
O0 Rb0 3.095321 1_455
O0 Rb1 3.095321 1_556
O0 Rb1 3.494977 1_565
O0 Rb0 3.494977 1_555
O1 Rb1 3.228028 1_555
O1 Rb0 3.228028 1_455
O1 Rb0 3.228028 1_545
O1 Rb1 3.228028 1_556
O2 Rb1 3.095321 1_555
O2 Rb0 3.095321 1_545
O2 Rb1 3.494977 1_655
O2 Rb0 3.494977 1_554
F0 Mo0 2.031961 1_564
F0 K0 2.553206 1_555
F0 Rb1 3.191798 1_555
F0 Rb0 3.191798 1_455
F0 Rb1 3.265046 1_565
F0 Rb0 3.265046 1_554
F1 Mo0 2.236125 1_664
F1 K0 2.544185 1_555
F1 Rb0 3.200689 1_555
F1 Rb0 3.200689 1_554
F1 Rb1 3.200689 1_655
F1 Rb1 3.200689 1_565
F2 Mo0 2.031961 1_655
F2 K0 2.553206 1_555
F2 Rb1 3.191798 1_556
F2 Rb0 3.191798 1_545
F2 Rb0 3.265046 1_555
F2 Rb1 3.265046 1_655
