# generated using pymatgen
data_RbErBeF6
_symmetry_space_group_name_H-M   'P 1'
_cell_length_a   5.77897408
_cell_length_b   6.40831114
_cell_length_c   7.08173647
_cell_angle_alpha   66.23964749
_cell_angle_beta   90.00000000
_cell_angle_gamma   90.00000000
_symmetry_Int_Tables_number   1
_chemical_formula_structural   RbErBeF6
_chemical_formula_sum   'Rb2 Er2 Be2 F12'
_cell_volume   240.03162785
_cell_formula_units_Z   2
loop_
 _symmetry_equiv_pos_site_id
 _symmetry_equiv_pos_as_xyz
  1  'x, y, z'
loop_
 _atom_site_type_symbol
 _atom_site_label
 _atom_site_symmetry_multiplicity
 _atom_site_fract_x
 _atom_site_fract_y
 _atom_site_fract_z
 _atom_site_occupancy
  Rb  Rb0  1  0.25000000  0.08001742  0.78578178  1
  Rb  Rb1  1  0.75000000  0.91998258  0.21421822  1
  Er  Er0  1  0.25000000  0.39100329  0.17844344  1
  Er  Er1  1  0.75000000  0.60899671  0.82155656  1
  Be  Be0  1  0.25000000  0.76864218  0.46319892  1
  Be  Be1  1  0.75000000  0.23135782  0.53680108  1
  F  F0  1  0.46653565  0.76025063  0.59653716  1
  F  F1  1  0.53346435  0.23974937  0.40346284  1
  F  F2  1  0.96653565  0.23974937  0.40346284  1
  F  F3  1  0.03346435  0.76025063  0.59653716  1
  F  F4  1  0.25000000  0.56883380  0.39606430  1
  F  F5  1  0.75000000  0.43116620  0.60393570  1
  F  F6  1  0.49873016  0.67552821  0.03147479  1
  F  F7  1  0.50126984  0.32447179  0.96852521  1
  F  F8  1  0.99873016  0.32447179  0.96852521  1
  F  F9  1  0.00126984  0.67552821  0.03147479  1
  F  F10  1  0.25000000  0.99811964  0.26741695  1
  F  F11  1  0.75000000  0.00188036  0.73258305  1
loop_
_geom_bond_atom_site_label_1
_geom_bond_atom_site_label_2
_geom_bond_distance
_geom_bond_site_symmetry_2
Er0 F1 2.217580 1_555
Er0 F2 2.217580 1_455
Er0 F9 2.223664 1_555
Er0 F6 2.223664 1_555
Er0 F8 2.238526 1_454
Er0 F7 2.238526 1_554
Er0 F4 2.255883 1_555
Er0 F10 2.336147 1_545
Er1 F3 2.217580 1_655
Er1 F0 2.217580 1_555
Er1 F7 2.223664 1_555
Er1 F8 2.223664 1_555
Er1 F9 2.238526 1_656
Er1 F6 2.238526 1_556
Er1 F5 2.255883 1_555
Er1 F11 2.336147 1_565
Be0 F4 1.534958 1_555
Be0 F3 1.555474 1_555
Be0 F0 1.555474 1_555
Be0 F10 1.562651 1_555
Be1 F5 1.534958 1_555
Be1 F2 1.555474 1_555
Be1 F1 1.555474 1_555
Be1 F11 1.562651 1_555
F0 Rb1 2.971271 1_555
F0 Rb0 3.126347 1_565
F1 Rb0 2.971271 1_555
F1 Rb1 3.126347 1_545
F2 Rb0 2.971271 1_655
F2 Rb1 3.126347 1_545
F3 Rb1 2.971271 1_455
F3 Rb0 3.126347 1_565
F4 Rb0 3.234629 1_555
F5 Rb1 3.234629 1_555
F6 Rb1 2.805540 1_555
F6 Rb0 2.859742 1_564
F7 Rb0 2.805540 1_555
F7 Rb1 2.859742 1_546
F8 Rb0 2.805540 1_655
F8 Rb1 2.859742 1_546
F9 Rb1 2.805540 1_455
F9 Rb0 2.859742 1_564
F10 Rb1 2.982249 1_555
F10 Rb1 2.982249 1_455
F10 Rb0 3.235212 1_564
F11 Rb0 2.982249 1_655
F11 Rb0 2.982249 1_555
F11 Rb1 3.235212 1_546
