# generated using pymatgen
data_MoWSe4
_symmetry_space_group_name_H-M   'P 1'
_cell_length_a   3.32287101
_cell_length_b   3.32287101
_cell_length_c   37.84942800
_cell_angle_alpha   90.00000000
_cell_angle_beta   90.00000000
_cell_angle_gamma   120.00002011
_symmetry_Int_Tables_number   1
_chemical_formula_structural   MoWSe4
_chemical_formula_sum   'Mo2 W2 Se8'
_cell_volume   361.92353900
_cell_formula_units_Z   2
loop_
 _symmetry_equiv_pos_site_id
 _symmetry_equiv_pos_as_xyz
  1  'x, y, z'
loop_
 _atom_site_type_symbol
 _atom_site_label
 _atom_site_symmetry_multiplicity
 _atom_site_fract_x
 _atom_site_fract_y
 _atom_site_fract_z
 _atom_site_occupancy
  Mo  Mo0  1  0.00000000  0.00000000  0.09391900  1
  Mo  Mo1  1  0.33333300  0.66666700  0.28180100  1
  W  W0  1  0.00000000  0.00000000  0.46965800  1
  W  W1  1  0.33333300  0.66666700  0.65753800  1
  Se  Se0  1  0.00000000  0.00000000  0.32609700  1
  Se  Se1  1  0.00000000  0.00000000  0.70204400  1
  Se  Se2  1  0.33333300  0.66666700  0.04963800  1
  Se  Se3  1  0.33333300  0.66666700  0.42516200  1
  Se  Se4  1  0.33333300  0.66666700  0.13821100  1
  Se  Se5  1  0.33333300  0.66666700  0.51414900  1
  Se  Se6  1  0.00000000  0.00000000  0.23750600  1
  Se  Se7  1  0.00000000  0.00000000  0.61302500  1
loop_
_geom_bond_atom_site_label_1
_geom_bond_atom_site_label_2
_geom_bond_distance
_geom_bond_site_symmetry_2
Mo0 Se2 2.547449 1_545
Mo0 Se2 2.547450 1_445
Mo0 Se2 2.547450 1_555
Mo0 Se4 2.547723 1_545
Mo0 Se4 2.547724 1_445
Mo0 Se4 2.547724 1_555
Mo1 Se6 2.547797 1_565
Mo1 Se6 2.547799 1_665
Mo1 Se6 2.547799 1_555
Mo1 Se0 2.547822 1_565
Mo1 Se0 2.547824 1_665
Mo1 Se0 2.547824 1_555
Se1 W1 2.553060 1_545
Se1 W1 2.553061 1_445
Se1 W1 2.553061 1_555
Se3 W0 2.552810 1_565
Se3 W0 2.552812 1_665
Se3 W0 2.552812 1_555
Se5 W0 2.552685 1_565
Se5 W0 2.552687 1_665
Se5 W0 2.552687 1_555
Se7 W1 2.553235 1_545
Se7 W1 2.553236 1_445
Se7 W1 2.553236 1_555
