# generated using pymatgen
data_Fe11Si5
_symmetry_space_group_name_H-M   'P 1'
_cell_length_a   5.53220503
_cell_length_b   5.53220096
_cell_length_c   5.53221317
_cell_angle_alpha   90.00000000
_cell_angle_beta   90.00000000
_cell_angle_gamma   89.99997887
_symmetry_Int_Tables_number   1
_chemical_formula_structural   Fe11Si5
_chemical_formula_sum   'Fe11 Si5'
_cell_volume   169.31487764
_cell_formula_units_Z   1
loop_
 _symmetry_equiv_pos_site_id
 _symmetry_equiv_pos_as_xyz
  1  'x, y, z'
loop_
 _atom_site_type_symbol
 _atom_site_label
 _atom_site_symmetry_multiplicity
 _atom_site_fract_x
 _atom_site_fract_y
 _atom_site_fract_z
 _atom_site_occupancy
  Fe  Fe0  1  0.25281933  0.74718067  0.74718067  1
  Fe  Fe1  1  0.74717967  0.25281833  0.74718067  1
  Fe  Fe2  1  0.74718067  0.74718167  0.74717967  1
  Fe  Fe3  1  0.50000000  -0.00000000  0.00000000  1
  Fe  Fe4  1  0.00000000  -0.00000000  0.50000000  1
  Fe  Fe5  1  0.00000000  0.50000000  0.00000000  1
  Fe  Fe6  1  0.74718067  0.74718167  0.25282033  1
  Fe  Fe7  1  0.74718067  0.25281933  0.25281933  1
  Fe  Fe8  1  0.25281933  0.25281833  0.74717967  1
  Fe  Fe9  1  0.25282033  0.74718167  0.25281933  1
  Fe  Fe10  1  0.25281933  0.25281833  0.25282033  1
  Si  Si0  1  0.50000000  0.50000000  0.50000000  1
  Si  Si1  1  0.00000000  0.50000000  0.50000000  1
  Si  Si2  1  0.50000000  -0.00000000  0.50000000  1
  Si  Si3  1  0.50000000  0.50000000  0.00000000  1
  Si  Si4  1  0.00000000  -0.00000000  0.00000000  1
loop_
_geom_bond_atom_site_label_1
_geom_bond_atom_site_label_2
_geom_bond_distance
_geom_bond_site_symmetry_2
Fe0 Si0 2.368500 1_555
Fe0 Si3 2.386646 1_556
Fe0 Si2 2.386647 1_565
Fe0 Si1 2.386647 1_555
Fe0 Fe4 2.404655 1_565
Fe0 Fe3 2.404656 1_566
Fe0 Fe5 2.404656 1_556
Fe0 Si4 2.422530 1_566
Fe1 Si0 2.368500 1_555
Fe1 Si2 2.386640 1_555
Fe1 Si3 2.386646 1_556
Fe1 Si1 2.386653 1_655
Fe1 Fe3 2.404649 1_556
Fe1 Fe4 2.404655 1_655
Fe1 Fe5 2.404662 1_656
Fe1 Si4 2.422530 1_656
Fe2 Si0 2.368501 1_555
Fe2 Si2 2.386640 1_565
Fe2 Si1 2.386646 1_655
Fe2 Si3 2.386653 1_556
Fe2 Fe4 2.404649 1_665
Fe2 Fe3 2.404655 1_566
Fe2 Fe5 2.404662 1_656
Fe2 Si4 2.422531 1_666
Fe3 Fe9 2.404649 1_545
Fe3 Fe6 2.404655 1_545
Fe3 Fe8 2.404655 1_554
Fe3 Fe7 2.404656 1_555
Fe3 Si3 2.766100 1_555
Fe3 Si3 2.766100 1_545
Fe3 Si4 2.766103 1_555
Fe3 Si4 2.766103 1_655
Fe3 Si2 2.766107 1_555
Fe3 Si2 2.766107 1_554
Fe4 Fe6 2.404649 1_445
Fe4 Fe8 2.404649 1_555
Fe4 Fe7 2.404655 1_455
Fe4 Fe9 2.404655 1_545
Fe4 Si1 2.766100 1_545
Fe4 Si1 2.766100 1_555
Fe4 Si2 2.766103 1_455
Fe4 Si2 2.766103 1_555
Fe4 Si4 2.766107 1_555
Fe4 Si4 2.766107 1_556
Fe5 Fe7 2.404656 1_455
Fe5 Fe8 2.404662 1_554
Fe5 Fe6 2.404662 1_455
Fe5 Fe9 2.404662 1_555
Fe5 Si4 2.766100 1_555
Fe5 Si4 2.766100 1_565
Fe5 Si3 2.766103 1_555
Fe5 Si3 2.766103 1_455
Fe5 Si1 2.766107 1_554
Fe5 Si1 2.766107 1_555
Fe6 Si0 2.368501 1_555
Fe6 Si2 2.386640 1_565
Fe6 Si1 2.386646 1_655
Fe6 Si3 2.386653 1_555
Fe6 Si4 2.422531 1_665
Fe7 Si0 2.368500 1_555
Fe7 Si3 2.386646 1_555
Fe7 Si2 2.386647 1_555
Fe7 Si1 2.386647 1_655
Fe7 Si4 2.422530 1_655
Fe8 Si0 2.368501 1_555
Fe8 Si2 2.386640 1_555
Fe8 Si1 2.386646 1_555
Fe8 Si3 2.386653 1_556
Fe8 Si4 2.422531 1_556
Fe9 Si0 2.368500 1_555
Fe9 Si2 2.386640 1_565
Fe9 Si3 2.386646 1_555
Fe9 Si1 2.386653 1_555
Fe9 Si4 2.422530 1_565
Fe10 Si0 2.368501 1_555
Fe10 Si2 2.386640 1_555
Fe10 Si1 2.386646 1_555
Fe10 Si3 2.386653 1_555
Fe10 Fe4 2.404649 1_555
Fe10 Fe3 2.404655 1_555
Fe10 Fe5 2.404662 1_555
Fe10 Si4 2.422531 1_555
