# generated using pymatgen
data_BaBPd4
_symmetry_space_group_name_H-M   'P 1'
_cell_length_a   6.25780600
_cell_length_b   5.70780300
_cell_length_c   12.14817600
_cell_angle_alpha   90.00000000
_cell_angle_beta   90.00000000
_cell_angle_gamma   90.00000000
_symmetry_Int_Tables_number   1
_chemical_formula_structural   BaBPd4
_chemical_formula_sum   'Ba4 B4 Pd16'
_cell_volume   433.91248468
_cell_formula_units_Z   4
loop_
 _symmetry_equiv_pos_site_id
 _symmetry_equiv_pos_as_xyz
  1  'x, y, z'
loop_
 _atom_site_type_symbol
 _atom_site_label
 _atom_site_symmetry_multiplicity
 _atom_site_fract_x
 _atom_site_fract_y
 _atom_site_fract_z
 _atom_site_occupancy
  Ba  Ba0  1  0.18547100  0.25000000  0.33577100  1
  Ba  Ba1  1  0.68547100  0.25000000  0.16422900  1
  Ba  Ba2  1  0.81452900  0.75000000  0.66422900  1
  Ba  Ba3  1  0.31452900  0.75000000  0.83577100  1
  B  B0  1  0.09923300  0.25000000  0.94849500  1
  B  B1  1  0.59923300  0.25000000  0.55150500  1
  B  B2  1  0.90076700  0.75000000  0.05150500  1
  B  B3  1  0.40076700  0.75000000  0.44849500  1
  Pd  Pd0  1  0.11053900  0.25000000  0.76822100  1
  Pd  Pd1  1  0.61053900  0.25000000  0.73177900  1
  Pd  Pd2  1  0.88946100  0.75000000  0.23177900  1
  Pd  Pd3  1  0.38946100  0.75000000  0.26822100  1
  Pd  Pd4  1  0.43649300  0.25000000  0.94094200  1
  Pd  Pd5  1  0.93649300  0.25000000  0.55905800  1
  Pd  Pd6  1  0.56350700  0.75000000  0.05905800  1
  Pd  Pd7  1  0.06350700  0.75000000  0.44094200  1
  Pd  Pd8  1  0.33470700  0.00598600  0.58159600  1
  Pd  Pd9  1  0.83470700  0.49401400  0.91840400  1
  Pd  Pd10  1  0.66529300  0.50598600  0.41840400  1
  Pd  Pd11  1  0.16529300  0.99401400  0.08159600  1
  Pd  Pd12  1  0.66529300  0.99401400  0.41840400  1
  Pd  Pd13  1  0.16529300  0.50598600  0.08159600  1
  Pd  Pd14  1  0.33470700  0.49401400  0.58159600  1
  Pd  Pd15  1  0.83470700  0.00598600  0.91840400  1
loop_
_geom_bond_atom_site_label_1
_geom_bond_atom_site_label_2
_geom_bond_distance
_geom_bond_site_symmetry_2
Ba0 Pd5 3.128155 1_455
Ba0 Pd7 3.218637 1_555
Ba0 Pd7 3.218637 1_545
Ba0 Pd3 3.232287 1_545
Ba0 Pd3 3.232287 1_555
Ba0 Pd13 3.418346 1_555
Ba0 Pd11 3.418346 1_545
Ba1 Pd4 3.128155 1_554
Ba1 Pd6 3.218637 1_555
Ba1 Pd6 3.218637 1_545
Ba1 Pd2 3.232287 1_555
Ba1 Pd2 3.232287 1_545
Ba1 Pd10 3.418346 1_555
Ba1 Pd12 3.418346 1_545
Ba2 Pd7 3.128155 1_655
Ba2 Pd5 3.218637 1_555
Ba2 Pd5 3.218637 1_565
Ba2 Pd1 3.232287 1_555
Ba2 Pd1 3.232287 1_565
Ba2 Pd15 3.418346 1_565
Ba2 Pd9 3.418346 1_555
Ba3 Pd6 3.128155 1_556
Ba3 Pd4 3.218637 1_555
Ba3 Pd4 3.218637 1_565
Ba3 Pd0 3.232287 1_565
Ba3 Pd0 3.232287 1_555
Ba3 Pd8 3.418346 1_565
Ba3 Pd14 3.418346 1_555
B0 Pd4 2.112501 1_555
B0 Pd0 2.191143 1_555
B0 Pd9 2.194007 1_455
B0 Pd15 2.194007 1_455
B0 Pd13 2.218160 1_556
B0 Pd11 2.218160 1_546
B1 Pd5 2.112501 1_555
B1 Pd1 2.191143 1_555
B1 Pd14 2.194007 1_555
B1 Pd8 2.194007 1_555
B1 Pd10 2.218160 1_555
B1 Pd12 2.218160 1_545
B2 Pd6 2.112501 1_555
B2 Pd2 2.191143 1_555
B2 Pd11 2.194007 1_655
B2 Pd13 2.194007 1_655
B2 Pd15 2.218160 1_564
B2 Pd9 2.218160 1_554
B3 Pd7 2.112501 1_555
B3 Pd3 2.191143 1_555
B3 Pd12 2.194007 1_555
B3 Pd10 2.194007 1_555
B3 Pd8 2.218160 1_565
B3 Pd14 2.218160 1_555
