# generated using pymatgen
data_MgNiWS4
_symmetry_space_group_name_H-M   'P 1'
_cell_length_a   7.23827388
_cell_length_b   7.30511150
_cell_length_c   7.30469836
_cell_angle_alpha   56.12141547
_cell_angle_beta   60.33858865
_cell_angle_gamma   60.34202183
_symmetry_Int_Tables_number   1
_chemical_formula_structural   MgNiWS4
_chemical_formula_sum   'Mg2 Ni2 W2 S8'
_cell_volume   265.50621061
_cell_formula_units_Z   2
loop_
 _symmetry_equiv_pos_site_id
 _symmetry_equiv_pos_as_xyz
  1  'x, y, z'
loop_
 _atom_site_type_symbol
 _atom_site_label
 _atom_site_symmetry_multiplicity
 _atom_site_fract_x
 _atom_site_fract_y
 _atom_site_fract_z
 _atom_site_occupancy
  Mg  Mg0  1  0.86628500  0.88419700  0.88396900  1
  Mg  Mg1  1  0.13360000  0.11592600  0.11614900  1
  Ni  Ni0  1  0.49994700  0.49999100  0.49997900  1
  Ni  Ni1  1  0.00007900  0.49998400  0.49999100  1
  W  W0  1  0.50000700  0.50074500  0.99923700  1
  W  W1  1  0.50000600  0.99923400  0.50075000  1
  S  S0  1  0.75043000  0.73741900  0.73731900  1
  S  S1  1  0.27054200  0.26116200  0.69750800  1
  S  S2  1  0.27052900  0.69757600  0.26111400  1
  S  S3  1  0.72473100  0.26262200  0.26271500  1
  S  S4  1  0.72947200  0.30254000  0.73875400  1
  S  S5  1  0.27478300  0.73734100  0.73725600  1
  S  S6  1  0.25012200  0.26254500  0.26265600  1
  S  S7  1  0.72947100  0.73871300  0.30260400  1
loop_
_geom_bond_atom_site_label_1
_geom_bond_atom_site_label_2
_geom_bond_distance
_geom_bond_site_symmetry_2
Mg0 S4 2.424014 1_565
Mg0 S7 2.425396 1_556
Mg0 S5 2.459361 1_655
Mg0 S0 2.461700 1_555
Mg1 S2 2.424173 1_545
Mg1 S1 2.425547 1_554
Mg1 S3 2.461245 1_455
Mg1 S6 2.463560 1_555
Ni0 S1 2.360549 1_555
Ni0 S2 2.360787 1_555
Ni0 S7 2.360794 1_555
Ni0 S4 2.361036 1_555
Ni0 S5 2.534682 1_555
Ni0 S3 2.534809 1_555
Ni1 S1 2.359486 1_555
Ni1 S2 2.359656 1_555
Ni1 S7 2.359719 1_455
Ni1 S4 2.359878 1_455
Ni1 S0 2.535580 1_455
Ni1 S6 2.535741 1_555
S0 W1 2.431963 1_555
S0 W0 2.432385 1_555
S1 W1 2.458389 1_545
S2 W0 2.458423 1_554
S3 W1 2.437104 1_545
S3 W0 2.437580 1_554
S4 W0 2.457471 1_555
S5 W1 2.432416 1_555
S5 W0 2.432889 1_555
S6 W1 2.436593 1_545
S6 W0 2.437033 1_554
S7 W1 2.457431 1_555
