# generated using pymatgen
data_Mg14CrCu
_symmetry_space_group_name_H-M   'P 1'
_cell_length_a   6.25037329
_cell_length_b   6.26618775
_cell_length_c   9.99665054
_cell_angle_alpha   90.00000000
_cell_angle_beta   90.00000000
_cell_angle_gamma   120.08373762
_symmetry_Int_Tables_number   1
_chemical_formula_structural   Mg14CrCu
_chemical_formula_sum   'Mg14 Cr1 Cu1'
_cell_volume   338.78753799
_cell_formula_units_Z   1
loop_
 _symmetry_equiv_pos_site_id
 _symmetry_equiv_pos_as_xyz
  1  'x, y, z'
loop_
 _atom_site_type_symbol
 _atom_site_label
 _atom_site_symmetry_multiplicity
 _atom_site_fract_x
 _atom_site_fract_y
 _atom_site_fract_z
 _atom_site_occupancy
  Mg  Mg0  1  0.16905358  0.33452629  0.62500000  1
  Mg  Mg1  1  0.16927156  0.83463528  0.62500000  1
  Mg  Mg2  1  0.67084964  0.33918737  0.12500000  1
  Mg  Mg3  1  0.66489597  0.33208044  0.62500000  1
  Mg  Mg4  1  0.67084964  0.83166127  0.12500000  1
  Mg  Mg5  1  0.66489597  0.83281453  0.62500000  1
  Mg  Mg6  1  0.32598739  0.16444643  0.36128054  1
  Mg  Mg7  1  0.32598739  0.16444643  0.88871946  1
  Mg  Mg8  1  0.32598739  0.66154196  0.36128054  1
  Mg  Mg9  1  0.32598739  0.66154196  0.88871946  1
  Mg  Mg10  1  0.83907785  0.16953942  0.36904680  1
  Mg  Mg11  1  0.83907785  0.16953942  0.88095320  1
  Mg  Mg12  1  0.83833305  0.66916703  0.37314518  1
  Mg  Mg13  1  0.83833305  0.66916703  0.87685482  1
  Cr  Cr0  1  0.16409656  0.83204778  0.12500000  1
  Cu  Cu0  1  0.16731572  0.33365736  0.12500000  1
loop_
_geom_bond_atom_site_label_1
_geom_bond_atom_site_label_2
_geom_bond_distance
_geom_bond_site_symmetry_2
Mg0 Mg5 3.106911 1_555
Mg0 Mg3 3.106911 1_555
Mg0 Mg10 3.119578 1_455
Mg0 Mg11 3.119578 1_455
Mg0 Mg1 3.133094 1_555
Mg0 Mg1 3.133094 1_545
Mg0 Mg5 3.143519 1_445
Mg0 Mg3 3.143519 1_455
Mg0 Mg7 3.177445 1_555
Mg0 Mg6 3.177445 1_555
Mg0 Mg9 3.177451 1_555
Mg0 Mg8 3.177451 1_555
Mg1 Mg12 3.089078 1_455
Mg1 Mg13 3.089078 1_455
Mg1 Mg3 3.103572 1_565
Mg1 Mg5 3.103572 1_555
Mg1 Mg3 3.146832 1_455
Mg1 Mg5 3.146832 1_455
Mg1 Mg9 3.186091 1_555
Mg1 Mg8 3.186091 1_555
Mg1 Mg7 3.186098 1_565
Mg1 Mg6 3.186098 1_565
Mg2 Mg6 3.009672 1_555
Mg2 Mg7 3.009672 1_554
Mg2 Mg4 3.085934 1_555
Mg2 Mg4 3.180254 1_545
Mg3 Mg5 3.128494 1_545
Mg3 Mg5 3.137694 1_555
Mg3 Mg6 3.210918 1_555
Mg3 Mg7 3.210918 1_555
Mg4 Mg9 3.009672 1_554
Mg4 Mg8 3.009672 1_555
Mg5 Mg9 3.210918 1_555
Mg5 Mg8 3.210918 1_555
Mg10 Mg2 3.050934 1_555
Mg10 Mg4 3.050941 1_545
Mg10 Mg12 3.133364 1_545
Mg10 Mg12 3.133364 1_555
Mg10 Mg3 3.143425 1_555
Mg10 Mg5 3.143431 1_545
Mg11 Mg2 3.050934 1_556
Mg11 Mg4 3.050941 1_546
Mg11 Mg13 3.133364 1_545
Mg11 Mg13 3.133364 1_555
Mg11 Mg3 3.143425 1_555
Mg11 Mg5 3.143431 1_545
Mg12 Mg4 3.058548 1_555
Mg12 Mg2 3.058554 1_555
Mg12 Mg6 3.074539 1_665
Mg12 Mg8 3.074539 1_655
Mg12 Mg5 3.111266 1_555
Mg12 Mg3 3.111272 1_555
Mg12 Mg6 3.180882 1_555
Mg12 Mg8 3.180882 1_555
Mg13 Mg4 3.058548 1_556
Mg13 Mg2 3.058554 1_556
Mg13 Mg7 3.074539 1_665
Mg13 Mg9 3.074539 1_655
Mg13 Mg5 3.111266 1_555
Mg13 Mg3 3.111272 1_555
Mg13 Mg7 3.180882 1_555
Mg13 Mg9 3.180882 1_555
Cr0 Mg8 2.971259 1_555
Cr0 Mg9 2.971259 1_554
Cr0 Mg7 2.971266 1_564
Cr0 Mg6 2.971266 1_565
Cr0 Mg13 3.042637 1_454
Cr0 Mg12 3.042637 1_455
Cr0 Mg2 3.081764 1_455
Cr0 Mg4 3.081764 1_455
Cr0 Cu0 3.133142 1_565
Cr0 Cu0 3.133142 1_555
Cr0 Mg2 3.168610 1_565
Cr0 Mg4 3.168611 1_555
Cu0 Mg7 2.956547 1_554
Cu0 Mg6 2.956547 1_555
Cu0 Mg9 2.956554 1_554
Cu0 Mg8 2.956554 1_555
Cu0 Mg11 3.017182 1_454
Cu0 Mg10 3.017182 1_455
Cu0 Mg4 3.120612 1_445
Cu0 Mg2 3.120612 1_455
Cu0 Mg4 3.130048 1_555
Cu0 Mg2 3.130049 1_555
