# generated using pymatgen
data_PrS2
_symmetry_space_group_name_H-M   'P 1'
_cell_length_a   5.62273210
_cell_length_b   5.62273210
_cell_length_c   5.62273210
_cell_angle_alpha   60.00000000
_cell_angle_beta   60.00000000
_cell_angle_gamma   60.00000000
_symmetry_Int_Tables_number   1
_chemical_formula_structural   PrS2
_chemical_formula_sum   'Pr2 S4'
_cell_volume   125.69765576
_cell_formula_units_Z   2
loop_
 _symmetry_equiv_pos_site_id
 _symmetry_equiv_pos_as_xyz
  1  'x, y, z'
loop_
 _atom_site_type_symbol
 _atom_site_label
 _atom_site_symmetry_multiplicity
 _atom_site_fract_x
 _atom_site_fract_y
 _atom_site_fract_z
 _atom_site_occupancy
  Pr  Pr0  1  0.50000000  0.50000000  0.50000000  1
  Pr  Pr1  1  0.75000000  0.75000000  0.75000000  1
  S  S0  1  0.12500000  0.12500000  0.12500000  1
  S  S1  1  0.62500000  0.12500000  0.12500000  1
  S  S2  1  0.12500000  0.62500000  0.12500000  1
  S  S3  1  0.12500000  0.12500000  0.62500000  1
loop_
_geom_bond_atom_site_label_1
_geom_bond_atom_site_label_2
_geom_bond_distance
_geom_bond_site_symmetry_2
Pr0 S2 3.296619 1_655
Pr0 S1 3.296619 1_556
Pr0 S1 3.296619 1_555
Pr0 S3 3.296619 1_565
Pr0 S0 3.296619 1_565
Pr0 S3 3.296619 1_655
Pr0 S0 3.296619 1_655
Pr0 S2 3.296619 1_556
Pr0 S1 3.296619 1_565
Pr0 S3 3.296619 1_555
Pr0 S2 3.296619 1_555
Pr0 S0 3.296619 1_556
Pr1 S2 3.296619 1_655
Pr1 S0 3.296619 1_656
Pr1 S0 3.296619 1_566
Pr1 S3 3.296619 1_565
Pr1 S3 3.296619 1_655
Pr1 S1 3.296619 1_565
Pr1 S1 3.296619 1_566
Pr1 S2 3.296619 1_556
Pr1 S3 3.296619 1_665
Pr1 S0 3.296619 1_665
Pr1 S2 3.296619 1_656
Pr1 S1 3.296619 1_556
