# generated using pymatgen
data_AlTlFe2F2
_symmetry_space_group_name_H-M   'P 1'
_cell_length_a   7.66212151
_cell_length_b   7.66212151
_cell_length_c   7.66212151
_cell_angle_alpha   129.45696293
_cell_angle_beta   129.45696293
_cell_angle_gamma   74.27640392
_symmetry_Int_Tables_number   1
_chemical_formula_structural   AlTlFe2F2
_chemical_formula_sum   'Al2 Tl2 Fe4 F4'
_cell_volume   261.41694398
_cell_formula_units_Z   2
loop_
 _symmetry_equiv_pos_site_id
 _symmetry_equiv_pos_as_xyz
  1  'x, y, z'
loop_
 _atom_site_type_symbol
 _atom_site_label
 _atom_site_symmetry_multiplicity
 _atom_site_fract_x
 _atom_site_fract_y
 _atom_site_fract_z
 _atom_site_occupancy
  Al  Al0  1  0.00000000  0.00000000  0.00000000  1
  Al  Al1  1  0.50000000  0.50000000  0.00000000  1
  Tl  Tl0  1  0.75000000  0.25000000  0.50000000  1
  Tl  Tl1  1  0.25000000  0.75000000  0.50000000  1
  Fe  Fe0  1  0.64281800  0.14281800  0.78563600  1
  Fe  Fe1  1  0.35718200  0.85718200  0.21436400  1
  Fe  Fe2  1  0.14281800  0.35718200  0.50000000  1
  Fe  Fe3  1  0.85718200  0.64281800  0.50000000  1
  F  F0  1  0.14437600  0.14437600  0.00000000  1
  F  F1  1  0.85562400  0.85562400  0.00000000  1
  F  F2  1  0.35562400  0.35562400  0.00000000  1
  F  F3  1  0.64437600  0.64437600  0.00000000  1
loop_
_geom_bond_atom_site_label_1
_geom_bond_atom_site_label_2
_geom_bond_distance
_geom_bond_site_symmetry_2
Al0 F1 1.763727 1_445
Al0 F0 1.763727 1_555
Al0 Fe3 2.516572 1_444
Al0 Fe0 2.516572 1_454
Al0 Fe2 2.516572 1_555
Al0 Fe1 2.516572 1_545
Al1 F3 1.763727 1_555
Al1 F2 1.763727 1_555
Al1 Fe3 2.516572 1_555
Al1 Fe1 2.516572 1_555
Al1 Fe2 2.516572 1_554
Al1 Fe0 2.516572 1_554
Fe0 Fe1 2.642662 1_545
Fe0 Tl0 3.327633 1_555
Fe0 Tl1 3.327633 1_545
Fe1 Tl1 3.327633 1_555
Fe1 Tl0 3.327633 1_565
Fe2 Fe3 2.642662 1_455
Fe2 Tl0 3.327633 1_455
Fe2 Tl1 3.327633 1_555
Fe3 Tl0 3.327633 1_555
Fe3 Tl1 3.327633 1_655
