# generated using pymatgen
data_Ca8(MnN3)3
_symmetry_space_group_name_H-M   'P 1'
_cell_length_a   7.18957669
_cell_length_b   10.12009202
_cell_length_c   18.02270303
_cell_angle_alpha   90.00000000
_cell_angle_beta   106.15314677
_cell_angle_gamma   90.00000000
_symmetry_Int_Tables_number   1
_chemical_formula_structural   Ca8(MnN3)3
_chemical_formula_sum   'Ca32 Mn12 N36'
_cell_volume   1259.54823280
_cell_formula_units_Z   4
loop_
 _symmetry_equiv_pos_site_id
 _symmetry_equiv_pos_as_xyz
  1  'x, y, z'
loop_
 _atom_site_type_symbol
 _atom_site_label
 _atom_site_symmetry_multiplicity
 _atom_site_fract_x
 _atom_site_fract_y
 _atom_site_fract_z
 _atom_site_occupancy
  Ca  Ca0  1  0.51684289  0.87329944  0.07610498  1
  Ca  Ca1  1  0.48315711  0.37329944  0.42389502  1
  Ca  Ca2  1  0.48315711  0.12670056  0.92389502  1
  Ca  Ca3  1  0.51684289  0.62670056  0.57610498  1
  Ca  Ca4  1  0.52242954  0.12661631  0.58107223  1
  Ca  Ca5  1  0.47757046  0.62661631  0.91892777  1
  Ca  Ca6  1  0.47757046  0.87338369  0.41892777  1
  Ca  Ca7  1  0.52242954  0.37338369  0.08107223  1
  Ca  Ca8  1  0.72152882  0.87504182  0.71661946  1
  Ca  Ca9  1  0.27847118  0.37504182  0.78338054  1
  Ca  Ca10  1  0.27847118  0.12495818  0.28338054  1
  Ca  Ca11  1  0.72152882  0.62495818  0.21661946  1
  Ca  Ca12  1  0.74974112  0.36476668  0.72996912  1
  Ca  Ca13  1  0.25025888  0.86476668  0.77003088  1
  Ca  Ca14  1  0.25025888  0.63523332  0.27003088  1
  Ca  Ca15  1  0.74974112  0.13523332  0.22996912  1
  Ca  Ca16  1  0.77591301  0.38118023  0.92925090  1
  Ca  Ca17  1  0.22408699  0.88118023  0.57074910  1
  Ca  Ca18  1  0.22408699  0.61881977  0.07074910  1
  Ca  Ca19  1  0.77591301  0.11881977  0.42925090  1
  Ca  Ca20  1  0.92410656  0.12090805  0.85423008  1
  Ca  Ca21  1  0.07589344  0.62090805  0.64576992  1
  Ca  Ca22  1  0.07589344  0.87909195  0.14576992  1
  Ca  Ca23  1  0.92410656  0.37909195  0.35423008  1
  Ca  Ca24  1  0.01618298  0.12034644  0.64613723  1
  Ca  Ca25  1  0.98381702  0.62034644  0.85386277  1
  Ca  Ca26  1  0.98381702  0.87965356  0.35386277  1
  Ca  Ca27  1  0.01618298  0.37965356  0.14613723  1
  Ca  Ca28  1  0.18888397  0.37090477  0.54971124  1
  Ca  Ca29  1  0.81111603  0.87090477  0.95028876  1
  Ca  Ca30  1  0.81111603  0.62909523  0.45028876  1
  Ca  Ca31  1  0.18888397  0.12909523  0.04971124  1
  Mn  Mn0  1  0.54111089  0.12400000  0.74507350  1
  Mn  Mn1  1  0.45888911  0.62400000  0.75492650  1
  Mn  Mn2  1  0.45888911  0.87600000  0.25492650  1
  Mn  Mn3  1  0.54111089  0.37600000  0.24507350  1
  Mn  Mn4  1  0.79947498  0.86747359  0.56155574  1
  Mn  Mn5  1  0.20052502  0.36747359  0.93844426  1
  Mn  Mn6  1  0.20052502  0.13252641  0.43844426  1
  Mn  Mn7  1  0.79947498  0.63252641  0.06155574  1
  Mn  Mn8  1  0.79546244  0.38286526  0.56972180  1
  Mn  Mn9  1  0.20453756  0.88286526  0.93027820  1
  Mn  Mn10  1  0.20453756  0.61713474  0.43027820  1
  Mn  Mn11  1  0.79546244  0.11713474  0.06972180  1
  N  N0  1  0.55998092  0.37769597  0.57812663  1
  N  N1  1  0.44001908  0.87769597  0.92187337  1
  N  N2  1  0.44001908  0.62230403  0.42187337  1
  N  N3  1  0.55998092  0.12230403  0.07812663  1
  N  N4  1  0.57507781  0.23267147  0.81910169  1
  N  N5  1  0.42492219  0.73267147  0.68089831  1
  N  N6  1  0.42492219  0.76732853  0.18089831  1
  N  N7  1  0.57507781  0.26732853  0.31910169  1
  N  N8  1  0.82908576  0.11602801  0.97784376  1
  N  N9  1  0.17091424  0.61602801  0.52215624  1
  N  N10  1  0.17091424  0.88397199  0.02215624  1
  N  N11  1  0.82908576  0.38397199  0.47784376  1
  N  N12  1  0.56358859  0.88069511  0.56404874  1
  N  N13  1  0.43641141  0.38069511  0.93595126  1
  N  N14  1  0.43641141  0.11930489  0.43595126  1
  N  N15  1  0.56358859  0.61930489  0.06404874  1
  N  N16  1  0.75322350  0.11551809  0.71345825  1
  N  N17  1  0.24677650  0.61551809  0.78654175  1
  N  N18  1  0.24677650  0.88448191  0.28654175  1
  N  N19  1  0.75322350  0.38448191  0.21345825  1
  N  N20  1  0.00512855  0.37410339  0.65082663  1
  N  N21  1  0.99487145  0.87410339  0.84917337  1
  N  N22  1  0.99487145  0.62589661  0.34917337  1
  N  N23  1  0.00512855  0.12589661  0.15082663  1
  N  N24  1  0.02126859  0.35500746  0.84966142  1
  N  N25  1  0.97873141  0.85500746  0.65033858  1
  N  N26  1  0.97873141  0.64499254  0.15033858  1
  N  N27  1  0.02126859  0.14499254  0.34966142  1
  N  N28  1  0.14993693  0.12920411  0.52552296  1
  N  N29  1  0.85006307  0.62920411  0.97447704  1
  N  N30  1  0.85006307  0.87079589  0.47447704  1
  N  N31  1  0.14993693  0.37079589  0.02552296  1
  N  N32  1  0.34199711  0.04206728  0.69322792  1
  N  N33  1  0.65800289  0.54206728  0.80677208  1
  N  N34  1  0.65800289  0.95793272  0.30677208  1
  N  N35  1  0.34199711  0.45793272  0.19322792  1
loop_
_geom_bond_atom_site_label_1
_geom_bond_atom_site_label_2
_geom_bond_distance
_geom_bond_site_symmetry_2
Ca0 N10 2.407716 1_555
Ca0 N6 2.418345 1_555
Ca0 N3 2.537986 1_565
Ca0 N15 2.609215 1_555
Ca0 N1 2.679433 1_554
Ca1 N11 2.407716 1_555
Ca1 N7 2.418345 1_555
Ca1 N2 2.537986 1_555
Ca1 N14 2.609215 1_555
Ca1 N0 2.679433 1_555
Ca2 N8 2.407716 1_555
Ca2 N4 2.418345 1_555
Ca2 N1 2.537986 1_545
Ca2 N13 2.609215 1_555
Ca2 N3 2.679433 1_556
Ca3 N9 2.407716 1_555
Ca3 N5 2.418345 1_555
Ca3 N0 2.537986 1_555
Ca3 N12 2.609215 1_555
Ca3 N2 2.679433 1_555
Ca4 N16 2.501169 1_555
Ca4 N14 2.515678 1_555
Ca4 N12 2.534969 1_545
Ca4 N0 2.557363 1_555
Ca4 N28 2.585188 1_555
Ca4 N32 2.821310 1_555
Ca5 N17 2.501169 1_555
Ca5 N15 2.515678 1_556
Ca5 N13 2.534969 1_555
Ca5 N1 2.557363 1_555
Ca5 N29 2.585188 1_555
Ca5 N33 2.821310 1_555
Ca6 N18 2.501169 1_555
Ca6 N12 2.515678 1_555
Ca6 N14 2.534969 1_565
Ca6 N2 2.557363 1_555
Ca6 N30 2.585188 1_555
Ca6 N34 2.821310 1_555
Ca7 N19 2.501169 1_555
Ca7 N13 2.515678 1_554
Ca7 N15 2.534969 1_555
Ca7 N3 2.557363 1_555
Ca7 N31 2.585188 1_555
Ca7 N35 2.821310 1_555
Ca8 N16 2.446428 1_565
Ca8 N25 2.473182 1_555
Ca8 N5 2.504785 1_555
Ca8 N21 2.637635 1_555
Ca8 N12 2.667659 1_555
Ca9 N17 2.446428 1_555
Ca9 N24 2.473182 1_555
Ca9 N4 2.504785 1_555
Ca9 N20 2.637635 1_555
Ca9 N13 2.667659 1_555
Ca10 N18 2.446428 1_545
Ca10 N27 2.473182 1_555
Ca10 N7 2.504785 1_555
Ca10 N23 2.637635 1_555
Ca10 N14 2.667659 1_555
Ca11 N19 2.446428 1_555
Ca11 N26 2.473182 1_555
Ca11 N6 2.504785 1_555
Ca11 N22 2.637635 1_555
Ca11 N15 2.667659 1_555
Ca12 N33 2.465463 1_555
Ca12 N24 2.476083 1_655
Ca12 N16 2.540850 1_555
Ca12 N20 2.621456 1_655
Ca12 N4 2.658378 1_555
Ca12 N0 2.700015 1_555
Ca13 N32 2.465463 1_565
Ca13 N25 2.476083 1_455
Ca13 N17 2.540850 1_555
Ca13 N21 2.621456 1_455
Ca13 N5 2.658378 1_555
Ca13 N1 2.700015 1_555
Ca14 N35 2.465463 1_555
Ca14 N26 2.476083 1_455
Ca14 N18 2.540850 1_555
Ca14 N22 2.621456 1_455
Ca14 N6 2.658378 1_555
Ca14 N2 2.700015 1_555
Ca15 N34 2.465463 1_545
Ca15 N27 2.476083 1_655
Ca15 N19 2.540850 1_555
Ca15 N23 2.621456 1_655
Ca15 N7 2.658378 1_555
Ca15 N3 2.700015 1_555
Ca16 N13 2.477190 1_555
Ca16 N24 2.578238 1_655
Ca16 N4 2.586449 1_555
Ca16 N29 2.647080 1_555
Ca16 N33 2.683480 1_555
Ca16 N31 2.767054 1_656
Ca16 N8 2.815544 1_555
Ca17 N12 2.477190 1_555
Ca17 N25 2.578238 1_455
Ca17 N5 2.586449 1_555
Ca17 N28 2.647080 1_565
Ca17 N32 2.683480 1_565
Ca17 N30 2.767054 1_455
Ca17 N9 2.815544 1_555
Ca18 N15 2.477190 1_555
Ca18 N26 2.578238 1_455
Ca18 N6 2.586449 1_555
Ca18 N31 2.647080 1_555
Ca18 N35 2.683480 1_555
Ca18 N29 2.767054 1_454
Ca18 N10 2.815544 1_555
Ca19 N14 2.477190 1_555
Ca19 N27 2.578238 1_655
Ca19 N7 2.586449 1_555
Ca19 N30 2.647080 1_545
Ca19 N34 2.683480 1_545
Ca19 N28 2.767054 1_655
Ca19 N11 2.815544 1_555
Ca20 N24 2.477788 1_655
Ca20 N16 2.492962 1_555
Ca20 N8 2.505857 1_555
Ca20 N21 2.555658 1_545
Ca20 N4 2.663283 1_555
Ca21 N25 2.477788 1_455
Ca21 N17 2.492962 1_555
Ca21 N9 2.505857 1_555
Ca21 N20 2.555658 1_555
Ca21 N5 2.663283 1_555
Ca22 N26 2.477788 1_455
Ca22 N18 2.492962 1_555
Ca22 N10 2.505857 1_555
Ca22 N23 2.555658 1_565
Ca22 N6 2.663283 1_555
Ca23 N27 2.477788 1_655
Ca23 N19 2.492962 1_555
Ca23 N11 2.505857 1_555
Ca23 N22 2.555658 1_555
Ca23 N7 2.663283 1_555
Ca24 N32 2.393498 1_555
Ca24 N16 2.514968 1_455
Ca24 N20 2.571390 1_555
Ca24 N28 2.611758 1_555
Ca24 N25 2.701883 1_445
Ca25 N33 2.393498 1_555
Ca25 N17 2.514968 1_655
Ca25 N21 2.571390 1_555
Ca25 N29 2.611758 1_555
Ca25 N24 2.701883 1_655
Ca26 N34 2.393498 1_555
Ca26 N18 2.514968 1_655
Ca26 N22 2.571390 1_555
Ca26 N30 2.611758 1_555
Ca26 N27 2.701883 1_665
Ca27 N35 2.393498 1_555
Ca27 N19 2.514968 1_455
Ca27 N23 2.571390 1_555
Ca27 N31 2.611758 1_555
Ca27 N26 2.701883 1_455
Ca28 N28 2.486686 1_555
Ca28 N9 2.526132 1_555
Ca28 N20 2.531218 1_555
Ca28 N11 2.553897 1_455
Ca28 N0 2.573931 1_555
Ca29 N29 2.486686 1_555
Ca29 N8 2.526132 1_565
Ca29 N21 2.531218 1_555
Ca29 N10 2.553897 1_656
Ca29 N1 2.573931 1_555
Ca30 N30 2.486686 1_555
Ca30 N11 2.526132 1_555
Ca30 N22 2.531218 1_555
Ca30 N9 2.553897 1_655
Ca30 N2 2.573931 1_555
Ca31 N31 2.486686 1_555
Ca31 N10 2.526132 1_545
Ca31 N23 2.531218 1_555
Ca31 N8 2.553897 1_454
Ca31 N3 2.573931 1_555
Mn0 N32 1.692826 1_555
Mn0 N4 1.693484 1_555
Mn0 N16 1.772326 1_555
Mn1 N33 1.692826 1_555
Mn1 N5 1.693484 1_555
Mn1 N17 1.772326 1_555
Mn2 N34 1.692826 1_555
Mn2 N6 1.693484 1_555
Mn2 N18 1.772326 1_555
Mn3 N35 1.692826 1_555
Mn3 N7 1.693484 1_555
Mn3 N19 1.772326 1_555
Mn4 N30 1.707047 1_555
Mn4 N12 1.714198 1_555
Mn4 N25 1.757778 1_555
Mn5 N31 1.707047 1_556
Mn5 N13 1.714198 1_555
Mn5 N24 1.757778 1_555
Mn6 N28 1.707047 1_555
Mn6 N14 1.714198 1_555
Mn6 N27 1.757778 1_555
Mn7 N29 1.707047 1_554
Mn7 N15 1.714198 1_555
Mn7 N26 1.757778 1_555
Mn8 N11 1.738753 1_555
Mn8 N0 1.742030 1_555
Mn8 N20 1.786278 1_655
Mn9 N10 1.738753 1_556
Mn9 N1 1.742030 1_555
Mn9 N21 1.786278 1_455
Mn10 N9 1.738753 1_555
Mn10 N2 1.742030 1_555
Mn10 N22 1.786278 1_455
Mn11 N8 1.738753 1_554
Mn11 N3 1.742030 1_555
Mn11 N23 1.786278 1_655
