# generated using pymatgen
data_YMg2Ti3S8
_symmetry_space_group_name_H-M   'P 1'
_cell_length_a   7.58669410
_cell_length_b   7.58759196
_cell_length_c   7.58679512
_cell_angle_alpha   58.20694206
_cell_angle_beta   58.20635407
_cell_angle_gamma   58.19687473
_symmetry_Int_Tables_number   1
_chemical_formula_structural   YMg2Ti3S8
_chemical_formula_sum   'Y1 Mg2 Ti3 S8'
_cell_volume   296.10314608
_cell_formula_units_Z   1
loop_
 _symmetry_equiv_pos_site_id
 _symmetry_equiv_pos_as_xyz
  1  'x, y, z'
loop_
 _atom_site_type_symbol
 _atom_site_label
 _atom_site_symmetry_multiplicity
 _atom_site_fract_x
 _atom_site_fract_y
 _atom_site_fract_z
 _atom_site_occupancy
  Y  Y0  1  0.50000300  0.50001400  0.49998100  1
  Mg  Mg0  1  0.87284800  0.87310100  0.87295700  1
  Mg  Mg1  1  0.12715100  0.12689400  0.12704600  1
  Ti  Ti0  1  0.50001000  0.49999300  0.99999000  1
  Ti  Ti1  1  0.99999400  0.50000000  0.50001400  1
  Ti  Ti2  1  0.49999800  0.99999600  0.50001200  1
  S  S0  1  0.74088300  0.74078700  0.74083300  1
  S  S1  1  0.24588500  0.24590500  0.72679600  1
  S  S2  1  0.24589500  0.72678000  0.24589300  1
  S  S3  1  0.72676100  0.24591500  0.24589800  1
  S  S4  1  0.75409400  0.27321700  0.75409800  1
  S  S5  1  0.27323900  0.75408400  0.75409800  1
  S  S6  1  0.25911700  0.25920500  0.25918000  1
  S  S7  1  0.75412700  0.75410400  0.27320600  1
loop_
_geom_bond_atom_site_label_1
_geom_bond_atom_site_label_2
_geom_bond_distance
_geom_bond_site_symmetry_2
Mg0 S4 2.435188 1_565
Mg0 S7 2.435903 1_556
Mg0 S5 2.436462 1_655
Mg0 S0 2.488446 1_555
Mg1 S2 2.435191 1_545
Mg1 S1 2.435891 1_554
Mg1 S3 2.436458 1_455
Mg1 S6 2.488496 1_555
S0 Ti1 2.547080 1_555
S0 Ti2 2.547493 1_555
S0 Ti0 2.547794 1_555
S1 Ti1 2.500677 1_455
S1 Ti2 2.500914 1_545
S1 Y0 2.705844 1_555
S2 Ti0 2.500898 1_554
S2 Ti1 2.501224 1_455
S2 Y0 2.705171 1_555
S3 Ti0 2.500625 1_554
S3 Ti2 2.501251 1_545
S3 Y0 2.705270 1_555
S4 Ti0 2.500779 1_555
S4 Ti1 2.501230 1_555
S4 Y0 2.705212 1_555
S5 Ti0 2.500644 1_555
S5 Ti2 2.501190 1_555
S5 Y0 2.705294 1_555
S6 Ti1 2.547202 1_455
S6 Ti2 2.547529 1_545
S6 Ti0 2.547871 1_554
S7 Ti1 2.500683 1_555
S7 Ti2 2.500938 1_555
S7 Y0 2.705804 1_555
