# generated using pymatgen
data_Li3Co5OF11
_symmetry_space_group_name_H-M   'P 1'
_cell_length_a   5.18107800
_cell_length_b   5.55201493
_cell_length_c   9.13375145
_cell_angle_alpha   106.53637131
_cell_angle_beta   89.09425784
_cell_angle_gamma   116.90830595
_symmetry_Int_Tables_number   1
_chemical_formula_structural   Li3Co5OF11
_chemical_formula_sum   'Li3 Co5 O1 F11'
_cell_volume   222.62883722
_cell_formula_units_Z   1
loop_
 _symmetry_equiv_pos_site_id
 _symmetry_equiv_pos_as_xyz
  1  'x, y, z'
loop_
 _atom_site_type_symbol
 _atom_site_label
 _atom_site_symmetry_multiplicity
 _atom_site_fract_x
 _atom_site_fract_y
 _atom_site_fract_z
 _atom_site_occupancy
  Li  Li0  1  0.02187200  0.03520000  0.99939000  1
  Li  Li1  1  0.79676100  0.29890100  0.26623000  1
  Li  Li2  1  0.26936700  0.76430300  0.76095900  1
  Co  Co0  1  0.47609100  0.49542200  0.49802000  1
  Co  Co1  1  0.45884600  0.77182900  0.14608400  1
  Co  Co2  1  0.95070200  0.23260300  0.64761500  1
  Co  Co3  1  0.17201300  0.00475500  0.40110200  1
  Co  Co4  1  0.71503100  0.50741500  0.90652100  1
  O  O0  1  0.05988300  0.25386500  0.45706000  1
  F  F0  1  0.43187600  0.85477400  0.35222400  1
  F  F1  1  0.51227500  0.42394400  0.28868800  1
  F  F2  1  0.01084700  0.89864300  0.80281600  1
  F  F3  1  0.44909900  0.15927200  0.04214400  1
  F  F4  1  0.91984000  0.63819800  0.54260600  1
  F  F5  1  0.94514900  0.34656400  0.84706700  1
  F  F6  1  0.01505900  0.59967200  0.10310400  1
  F  F7  1  0.54671200  0.74982100  0.95067200  1
  F  F8  1  0.90461200  0.00233200  0.19511200  1
  F  F9  1  0.41811000  0.50628500  0.70909000  1
  F  F10  1  0.50049300  0.08060200  0.60837300  1
loop_
_geom_bond_atom_site_label_1
_geom_bond_atom_site_label_2
_geom_bond_distance
_geom_bond_site_symmetry_2
Li1 O0 2.364478 1_655
Co0 F1 1.863440 1_555
Co0 O0 1.926375 1_555
Co0 F9 1.934536 1_555
Co0 F4 2.067926 1_555
Co1 F7 1.818889 1_554
Co1 F0 1.825651 1_555
Co1 F6 2.044551 1_555
Co1 F8 2.050254 1_565
Co2 F5 1.754591 1_555
Co2 O0 1.840812 1_655
Co2 F10 2.086636 1_555
Co2 F9 2.171485 1_655
Co3 O0 1.681393 1_555
Co3 F0 1.868031 1_545
Co3 F8 2.347470 1_455
Co3 F10 2.378478 1_555
Co4 F5 1.783565 1_555
Co4 F7 1.864587 1_555
Co4 F6 2.178698 1_656
Co4 F9 2.385580 1_555
F1 Li1 1.879395 1_555
F2 Li0 1.729422 1_565
F2 Li2 1.795053 1_555
F3 Li0 2.005160 1_554
F6 Li1 2.437464 1_455
F7 Li0 2.207220 1_665
F7 Li2 2.310076 1_555
F8 Li0 1.910288 1_654
F8 Li1 1.912536 1_555
F9 Li2 1.863282 1_555
F10 Li2 2.428423 1_545
