# generated using pymatgen
data_SmFe3
_symmetry_space_group_name_H-M   'P 1'
_cell_length_a   5.18314814
_cell_length_b   5.18314800
_cell_length_c   8.70360880
_cell_angle_alpha   72.67697349
_cell_angle_beta   72.67697333
_cell_angle_gamma   60.00000089
_symmetry_Int_Tables_number   1
_chemical_formula_structural   SmFe3
_chemical_formula_sum   'Sm3 Fe9'
_cell_volume   190.15114323
_cell_formula_units_Z   3
loop_
 _symmetry_equiv_pos_site_id
 _symmetry_equiv_pos_as_xyz
  1  'x, y, z'
loop_
 _atom_site_type_symbol
 _atom_site_label
 _atom_site_symmetry_multiplicity
 _atom_site_fract_x
 _atom_site_fract_y
 _atom_site_fract_z
 _atom_site_occupancy
  Sm  Sm0  1  0.85794900  0.85794900  0.42615300  1
  Sm  Sm1  1  0.14205100  0.14205100  0.57384700  1
  Sm  Sm2  1  0.00000000  0.00000000  0.00000000  1
  Fe  Fe0  1  0.42142900  0.42142900  0.24083000  1
  Fe  Fe1  1  0.91631200  0.42142900  0.24083000  1
  Fe  Fe2  1  0.42142900  0.91631200  0.24083000  1
  Fe  Fe3  1  0.57857100  0.57857100  0.75917000  1
  Fe  Fe4  1  0.08368800  0.57857100  0.75917000  1
  Fe  Fe5  1  0.57857100  0.08368800  0.75917000  1
  Fe  Fe6  1  0.66728300  0.66728300  0.99815100  1
  Fe  Fe7  1  0.33271700  0.33271700  0.00184900  1
  Fe  Fe8  1  0.50000000  0.50000000  0.50000000  1
loop_
_geom_bond_atom_site_label_1
_geom_bond_atom_site_label_2
_geom_bond_distance
_geom_bond_site_symmetry_2
Fe0 Fe7 2.469769 1_555
Fe0 Fe6 2.475297 1_554
Fe0 Fe2 2.565052 1_555
Fe0 Fe1 2.565052 1_555
Fe0 Fe8 2.584552 1_555
Fe0 Fe2 2.618096 1_545
Fe0 Fe1 2.618096 1_455
Fe0 Sm0 3.001772 1_545
Fe0 Sm0 3.001772 1_455
Fe0 Sm1 3.113311 1_555
Fe0 Sm2 3.254336 1_655
Fe0 Sm2 3.254336 1_565
Fe1 Fe7 2.469769 1_655
Fe1 Fe6 2.475297 1_554
Fe1 Fe2 2.565052 1_555
Fe1 Fe8 2.584552 1_555
Fe1 Fe2 2.618096 1_645
Fe1 Sm0 3.001772 1_555
Fe1 Sm0 3.001772 1_545
Fe1 Sm1 3.113311 1_655
Fe1 Sm2 3.254336 1_665
Fe1 Sm2 3.254336 1_655
Fe2 Fe7 2.469769 1_565
Fe2 Fe6 2.475297 1_554
Fe2 Fe8 2.584552 1_555
Fe2 Sm0 3.001772 1_555
Fe2 Sm0 3.001772 1_455
Fe2 Sm1 3.113311 1_565
Fe2 Sm2 3.254336 1_665
Fe2 Sm2 3.254336 1_565
Fe3 Fe6 2.469769 1_555
Fe3 Fe7 2.475297 1_556
Fe3 Fe5 2.565052 1_555
Fe3 Fe4 2.565052 1_555
Fe3 Fe8 2.584552 1_555
Fe3 Fe5 2.618096 1_565
Fe3 Fe4 2.618096 1_655
Fe3 Sm1 3.001772 1_565
Fe3 Sm1 3.001772 1_655
Fe3 Sm0 3.113311 1_555
Fe3 Sm2 3.254336 1_566
Fe3 Sm2 3.254336 1_656
Fe4 Fe6 2.469769 1_455
Fe4 Fe7 2.475297 1_556
Fe4 Fe5 2.565052 1_555
Fe4 Fe8 2.584552 1_555
Fe4 Fe5 2.618096 1_465
Fe4 Sm1 3.001772 1_555
Fe4 Sm1 3.001772 1_565
Fe4 Sm0 3.113311 1_455
Fe4 Sm2 3.254336 1_556
Fe4 Sm2 3.254336 1_566
Fe5 Fe6 2.469769 1_545
Fe5 Fe7 2.475297 1_556
Fe5 Fe8 2.584552 1_555
Fe5 Sm1 3.001772 1_555
Fe5 Sm1 3.001772 1_655
Fe5 Sm0 3.113311 1_545
Fe5 Sm2 3.254336 1_556
Fe5 Sm2 3.254336 1_656
Fe6 Sm2 2.992530 1_656
Fe6 Sm2 2.992530 1_666
Fe6 Sm2 2.992530 1_566
Fe7 Sm2 2.992530 1_555
Fe7 Sm2 2.992530 1_565
Fe7 Sm2 2.992530 1_655
Fe8 Sm0 3.052750 1_555
Fe8 Sm1 3.052750 1_555
Fe8 Sm1 3.052750 1_565
Fe8 Sm0 3.052750 1_545
Fe8 Sm1 3.052750 1_655
Fe8 Sm0 3.052750 1_455
