# generated using pymatgen
data_Ca2CeNiO6
_symmetry_space_group_name_H-M   'P 1'
_cell_length_a   5.68458602
_cell_length_b   5.68458602
_cell_length_c   5.68458602
_cell_angle_alpha   60.00000000
_cell_angle_beta   60.00000000
_cell_angle_gamma   60.00000000
_symmetry_Int_Tables_number   1
_chemical_formula_structural   Ca2CeNiO6
_chemical_formula_sum   'Ca2 Ce1 Ni1 O6'
_cell_volume   129.89173841
_cell_formula_units_Z   1
loop_
 _symmetry_equiv_pos_site_id
 _symmetry_equiv_pos_as_xyz
  1  'x, y, z'
loop_
 _atom_site_type_symbol
 _atom_site_label
 _atom_site_symmetry_multiplicity
 _atom_site_fract_x
 _atom_site_fract_y
 _atom_site_fract_z
 _atom_site_occupancy
  Ca  Ca0  1  0.25000000  0.25000000  0.25000000  1
  Ca  Ca1  1  0.75000000  0.75000000  0.75000000  1
  Ce  Ce0  1  0.00000000  0.00000000  -0.00000000  1
  Ni  Ni0  1  0.50000000  0.50000000  0.50000000  1
  O  O0  1  0.73120251  0.26879749  0.26879749  1
  O  O1  1  0.26879749  0.73120251  0.73120251  1
  O  O2  1  0.73120251  0.26879749  0.73120251  1
  O  O3  1  0.26879749  0.73120251  0.26879749  1
  O  O4  1  0.73120251  0.73120251  0.26879749  1
  O  O5  1  0.26879749  0.26879749  0.73120251  1
loop_
_geom_bond_atom_site_label_1
_geom_bond_atom_site_label_2
_geom_bond_distance
_geom_bond_site_symmetry_2
Ca0 O0 2.846307 1_455
Ca0 O4 2.846307 1_455
Ca0 O1 2.846307 1_554
Ca0 O3 2.846307 1_545
Ca0 O2 2.846307 1_455
Ca0 O2 2.846307 1_554
Ca0 O4 2.846307 1_545
Ca0 O5 2.846307 1_554
Ca0 O1 2.846307 1_545
Ca0 O5 2.846307 1_555
Ca0 O3 2.846307 1_555
Ca0 O0 2.846307 1_555
Ca1 O1 2.846307 1_555
Ca1 O2 2.846307 1_555
Ca1 O4 2.846307 1_555
Ca1 O3 2.846307 1_655
Ca1 O0 2.846307 1_565
Ca1 O5 2.846307 1_655
Ca1 O5 2.846307 1_565
Ca1 O0 2.846307 1_556
Ca1 O3 2.846307 1_556
Ca1 O1 2.846307 1_655
Ca1 O4 2.846307 1_556
Ca1 O2 2.846307 1_565
Ce0 O2 2.160922 1_454
Ce0 O4 2.160922 1_445
Ce0 O1 2.160922 1_544
Ce0 O0 2.160922 1_455
Ce0 O3 2.160922 1_545
Ce0 O5 2.160922 1_554
Ni0 O0 1.858688 1_555
Ni0 O3 1.858688 1_555
Ni0 O5 1.858688 1_555
Ni0 O1 1.858688 1_555
Ni0 O2 1.858688 1_555
Ni0 O4 1.858688 1_555
