# generated using pymatgen
data_NaCr2BiO6
_symmetry_space_group_name_H-M   'P 1'
_cell_length_a   5.48289511
_cell_length_b   5.48289511
_cell_length_c   5.48289543
_cell_angle_alpha   59.64308963
_cell_angle_beta   59.64308963
_cell_angle_gamma   59.64308967
_symmetry_Int_Tables_number   1
_chemical_formula_structural   NaCr2BiO6
_chemical_formula_sum   'Na1 Cr2 Bi1 O6'
_cell_volume   115.60545966
_cell_formula_units_Z   1
loop_
 _symmetry_equiv_pos_site_id
 _symmetry_equiv_pos_as_xyz
  1  'x, y, z'
loop_
 _atom_site_type_symbol
 _atom_site_label
 _atom_site_symmetry_multiplicity
 _atom_site_fract_x
 _atom_site_fract_y
 _atom_site_fract_z
 _atom_site_occupancy
  Na  Na0  1  0.72939700  0.72939700  0.72939700  1
  Cr  Cr0  1  0.98915200  0.98915200  0.98915200  1
  Cr  Cr1  1  0.49140300  0.49140300  0.49140300  1
  Bi  Bi0  1  0.21271600  0.21271600  0.21271600  1
  O  O0  1  0.67261700  0.24587300  0.83027300  1
  O  O1  1  0.24587300  0.83027300  0.67261700  1
  O  O2  1  0.83027300  0.67261700  0.24587300  1
  O  O3  1  0.16814400  0.32018400  0.77444100  1
  O  O4  1  0.77444100  0.16814400  0.32018400  1
  O  O5  1  0.32018400  0.77444100  0.16814400  1
loop_
_geom_bond_atom_site_label_1
_geom_bond_atom_site_label_2
_geom_bond_distance
_geom_bond_site_symmetry_2
Na0 O3 2.338140 1_655
Na0 O4 2.338140 1_565
Na0 O5 2.338140 1_556
Na0 O0 2.570857 1_555
Na0 O1 2.570857 1_555
Na0 O2 2.570857 1_555
Cr0 O2 1.889904 1_556
Cr0 O0 1.889904 1_565
Cr0 O1 1.889904 1_655
Cr0 O3 2.028850 1_665
Cr0 O5 2.028851 1_656
Cr0 O4 2.028851 1_566
Cr1 O3 1.964711 1_555
Cr1 O4 1.964711 1_555
Cr1 O5 1.964711 1_555
Cr1 O2 2.058491 1_555
Cr1 O1 2.058491 1_555
Cr1 O0 2.058491 1_555
Bi0 O4 2.279966 1_455
Bi0 O5 2.279966 1_545
Bi0 O3 2.279967 1_554
Bi0 O2 2.349897 1_455
Bi0 O0 2.349897 1_554
Bi0 O1 2.349897 1_545
