# generated using pymatgen
data_NaTi2SiO9
_symmetry_space_group_name_H-M   'P 1'
_cell_length_a   7.90517100
_cell_length_b   7.90517100
_cell_length_c   12.37861900
_cell_angle_alpha   90.00000000
_cell_angle_beta   90.00000000
_cell_angle_gamma   90.00000000
_symmetry_Int_Tables_number   1
_chemical_formula_structural   NaTi2SiO9
_chemical_formula_sum   'Na4 Ti8 Si4 O36'
_cell_volume   773.56129824
_cell_formula_units_Z   4
loop_
 _symmetry_equiv_pos_site_id
 _symmetry_equiv_pos_as_xyz
  1  'x, y, z'
loop_
 _atom_site_type_symbol
 _atom_site_label
 _atom_site_symmetry_multiplicity
 _atom_site_fract_x
 _atom_site_fract_y
 _atom_site_fract_z
 _atom_site_occupancy
  Na  Na0  1  0.50000000  0.00000000  0.00000000  1
  Na  Na1  1  0.50000000  0.00000000  0.50000000  1
  Na  Na2  1  0.00000000  0.50000000  0.00000000  1
  Na  Na3  1  0.00000000  0.50000000  0.50000000  1
  Ti  Ti0  1  0.85059500  0.14940500  0.35278300  1
  Ti  Ti1  1  0.14940500  0.85059500  0.35278300  1
  Ti  Ti2  1  0.85059500  0.85059500  0.85278300  1
  Ti  Ti3  1  0.14940500  0.14940500  0.85278300  1
  Ti  Ti4  1  0.85059500  0.14940500  0.64721700  1
  Ti  Ti5  1  0.14940500  0.85059500  0.64721700  1
  Ti  Ti6  1  0.85059500  0.85059500  0.14721700  1
  Ti  Ti7  1  0.14940500  0.14940500  0.14721700  1
  Si  Si0  1  0.50000000  0.00000000  0.25000000  1
  Si  Si1  1  0.50000000  0.00000000  0.75000000  1
  Si  Si2  1  0.00000000  0.50000000  0.25000000  1
  Si  Si3  1  0.00000000  0.50000000  0.75000000  1
  O  O0  1  0.61844400  0.11634600  0.32936800  1
  O  O1  1  0.38155600  0.88365400  0.32936800  1
  O  O2  1  0.61844400  0.88365400  0.82936800  1
  O  O3  1  0.38155600  0.11634600  0.82936800  1
  O  O4  1  0.61844400  0.11634600  0.67063200  1
  O  O5  1  0.38155600  0.88365400  0.67063200  1
  O  O6  1  0.61844400  0.88365400  0.17063200  1
  O  O7  1  0.38155600  0.11634600  0.17063200  1
  O  O8  1  0.11634600  0.61844400  0.32936800  1
  O  O9  1  0.88365400  0.38155600  0.32936800  1
  O  O10  1  0.88365400  0.61844400  0.82936800  1
  O  O11  1  0.11634600  0.38155600  0.82936800  1
  O  O12  1  0.11634600  0.61844400  0.67063200  1
  O  O13  1  0.88365400  0.38155600  0.67063200  1
  O  O14  1  0.88365400  0.61844400  0.17063200  1
  O  O15  1  0.11634600  0.38155600  0.17063200  1
  O  O16  1  0.90047500  0.09952500  0.16819200  1
  O  O17  1  0.09952500  0.90047500  0.16819200  1
  O  O18  1  0.90047500  0.90047500  0.66819200  1
  O  O19  1  0.09952500  0.09952500  0.66819200  1
  O  O20  1  0.90047500  0.09952500  0.83180800  1
  O  O21  1  0.09952500  0.90047500  0.83180800  1
  O  O22  1  0.90047500  0.90047500  0.33180800  1
  O  O23  1  0.09952500  0.09952500  0.33180800  1
  O  O24  1  0.84795600  0.15204400  0.50000000  1
  O  O25  1  0.15204400  0.84795600  0.50000000  1
  O  O26  1  0.84795600  0.84795600  0.00000000  1
  O  O27  1  0.15204400  0.15204400  0.00000000  1
  O  O28  1  0.75827600  0.24172400  0.00000000  1
  O  O29  1  0.24172400  0.75827600  0.00000000  1
  O  O30  1  0.75827600  0.75827600  0.50000000  1
  O  O31  1  0.24172400  0.24172400  0.50000000  1
  O  O32  1  0.50000000  0.50000000  0.45039300  1
  O  O33  1  0.50000000  0.50000000  0.95039300  1
  O  O34  1  0.50000000  0.50000000  0.54960700  1
  O  O35  1  0.50000000  0.50000000  0.04960700  1
loop_
_geom_bond_atom_site_label_1
_geom_bond_atom_site_label_2
_geom_bond_distance
_geom_bond_site_symmetry_2
Na0 O2 2.486755 1_544
Na0 O6 2.486755 1_545
Na0 O3 2.486755 1_554
Na0 O7 2.486755 1_555
Na0 O28 2.796431 1_555
Na0 O29 2.796431 1_545
Na1 O5 2.486755 1_545
Na1 O1 2.486755 1_545
Na1 O0 2.486755 1_555
Na1 O4 2.486755 1_555
Na1 O31 2.796431 1_555
Na1 O30 2.796431 1_545
Na2 O14 2.486755 1_455
Na2 O10 2.486755 1_454
Na2 O15 2.486755 1_555
Na2 O11 2.486755 1_554
Na2 O29 2.796431 1_555
Na2 O28 2.796431 1_455
Na3 O13 2.486755 1_455
Na3 O9 2.486755 1_455
Na3 O8 2.486755 1_555
Na3 O12 2.486755 1_555
Na3 O31 2.796431 1_555
Na3 O30 2.796431 1_455
O0 Si0 1.639466 1_555
O0 Ti0 1.876231 1_555
O1 Si0 1.639466 1_565
O1 Ti1 1.876231 1_555
O2 Si1 1.639466 1_565
O2 Ti2 1.876231 1_555
O3 Si1 1.639466 1_555
O3 Ti3 1.876231 1_555
O4 Si1 1.639466 1_555
O4 Ti4 1.876231 1_555
O5 Si1 1.639466 1_565
O5 Ti5 1.876231 1_555
O6 Si0 1.639466 1_565
O6 Ti6 1.876231 1_555
O7 Si0 1.639466 1_555
O7 Ti7 1.876231 1_555
O8 Si2 1.639466 1_555
O8 Ti1 1.876231 1_555
O9 Si2 1.639466 1_655
O9 Ti0 1.876231 1_555
O10 Si3 1.639466 1_655
O10 Ti2 1.876231 1_555
O11 Si3 1.639466 1_555
O11 Ti3 1.876231 1_555
O12 Si3 1.639466 1_555
O12 Ti5 1.876231 1_555
O13 Si3 1.639466 1_655
O13 Ti4 1.876231 1_555
O14 Si2 1.639466 1_655
O14 Ti6 1.876231 1_555
O15 Si2 1.639466 1_555
O15 Ti7 1.876231 1_555
O16 Ti6 2.023676 1_545
O16 Ti7 2.023676 1_655
O16 Ti0 2.352042 1_555
O17 Ti7 2.023676 1_565
O17 Ti6 2.023676 1_455
O17 Ti1 2.352042 1_555
O18 Ti4 2.023676 1_565
O18 Ti5 2.023676 1_655
O18 Ti2 2.352042 1_555
O19 Ti4 2.023676 1_455
O19 Ti5 2.023676 1_545
O19 Ti3 2.352042 1_555
O20 Ti3 2.023676 1_655
O20 Ti2 2.023676 1_545
O20 Ti4 2.352042 1_555
O21 Ti3 2.023676 1_565
O21 Ti2 2.023676 1_455
O21 Ti5 2.352042 1_555
O22 Ti1 2.023676 1_655
O22 Ti0 2.023676 1_565
O22 Ti6 2.352042 1_555
O23 Ti1 2.023676 1_545
O23 Ti0 2.023676 1_455
O23 Ti7 2.352042 1_555
O24 Ti0 1.822582 1_555
O24 Ti4 1.822582 1_555
O25 Ti1 1.822582 1_555
O25 Ti5 1.822582 1_555
O26 Ti6 1.822582 1_555
O26 Ti2 1.822582 1_554
O27 Ti7 1.822582 1_555
O27 Ti3 1.822582 1_554
O32 O34 1.228132 1_555
O33 O35 1.228132 1_556
