# generated using pymatgen
data_Na2VNiF7
_symmetry_space_group_name_H-M   'P 1'
_cell_length_a   7.41857699
_cell_length_b   7.41857699
_cell_length_c   7.41857699
_cell_angle_alpha   120.73947924
_cell_angle_beta   118.99525683
_cell_angle_gamma   90.23648983
_symmetry_Int_Tables_number   1
_chemical_formula_structural   Na2VNiF7
_chemical_formula_sum   'Na4 V2 Ni2 F14'
_cell_volume   289.19276959
_cell_formula_units_Z   2
loop_
 _symmetry_equiv_pos_site_id
 _symmetry_equiv_pos_as_xyz
  1  'x, y, z'
loop_
 _atom_site_type_symbol
 _atom_site_label
 _atom_site_symmetry_multiplicity
 _atom_site_fract_x
 _atom_site_fract_y
 _atom_site_fract_z
 _atom_site_occupancy
  Na  Na0  1  0.50000000  0.00000000  0.00000000  1
  Na  Na1  1  0.50000000  0.50000000  0.50000000  1
  Na  Na2  1  0.00000000  0.00000000  0.00000000  1
  Na  Na3  1  0.50000000  0.50000000  0.00000000  1
  V  V0  1  0.50000000  0.00000000  0.50000000  1
  V  V1  1  0.00000000  0.50000000  0.50000000  1
  Ni  Ni0  1  0.00000000  0.00000000  0.50000000  1
  Ni  Ni1  1  0.00000000  0.50000000  0.00000000  1
  F  F0  1  0.10049200  0.25000000  0.85049200  1
  F  F1  1  0.89950800  0.75000000  0.14950800  1
  F  F2  1  0.67725000  0.40829600  0.26895300  1
  F  F3  1  0.32275000  0.59170400  0.73104700  1
  F  F4  1  0.63934300  0.90829600  0.73104700  1
  F  F5  1  0.36065700  0.09170400  0.26895300  1
  F  F6  1  0.94635500  0.18191100  0.36195300  1
  F  F7  1  0.05364500  0.41559800  0.23555600  1
  F  F8  1  0.31995800  0.68191100  0.23555600  1
  F  F9  1  0.68004200  0.91559800  0.36195300  1
  F  F10  1  0.05364500  0.81808900  0.63804700  1
  F  F11  1  0.94635500  0.58440200  0.76444400  1
  F  F12  1  0.68004200  0.31808900  0.76444400  1
  F  F13  1  0.31995800  0.08440200  0.63804700  1
loop_
_geom_bond_atom_site_label_1
_geom_bond_atom_site_label_2
_geom_bond_distance
_geom_bond_site_symmetry_2
F0 Ni1 1.983897 1_556
F0 Ni0 1.983897 1_555
F0 Na2 2.849342 1_556
F0 Na3 2.849342 1_556
F1 Ni0 1.983897 1_665
F1 Ni1 1.983897 1_655
F1 Na3 2.849342 1_555
F1 Na2 2.849342 1_665
F2 V1 1.987316 1_655
F2 Na3 2.241512 1_555
F2 Na0 2.475924 1_555
F2 Na1 2.475930 1_555
F3 V1 1.987316 1_555
F3 Na3 2.241512 1_556
F3 Na0 2.475924 1_566
F3 Na1 2.475930 1_555
F4 V0 1.987321 1_565
F4 Na2 2.241511 1_666
F4 Na0 2.475923 1_566
F4 Na1 2.475923 1_555
F5 V0 1.987321 1_555
F5 Na2 2.241511 1_555
F5 Na1 2.475923 1_555
F5 Na0 2.475923 1_555
F6 V1 1.975430 1_655
F6 Ni0 2.012596 1_655
F6 Na2 2.554562 1_655
F6 Na0 2.763125 1_555
F7 V1 1.975430 1_555
F7 Ni1 2.012596 1_555
F7 Na2 2.554562 1_555
F7 Na1 2.763125 1_555
F8 V0 1.975430 1_565
F8 Ni1 2.012596 1_555
F8 Na3 2.554562 1_555
F8 Na1 2.763125 1_555
F9 V0 1.975430 1_565
F9 Ni0 2.012596 1_665
F9 Na3 2.554562 1_555
F9 Na0 2.763125 1_565
F10 V1 1.975430 1_555
F10 Ni0 2.012596 1_565
F10 Na2 2.554562 1_566
F10 Na0 2.763125 1_566
F11 V1 1.975430 1_655
F11 Ni1 2.012596 1_656
F11 Na2 2.554562 1_666
F11 Na1 2.763125 1_555
F12 V0 1.975430 1_555
F12 Ni1 2.012596 1_656
F12 Na3 2.554562 1_556
F12 Na1 2.763125 1_555
F13 V0 1.975430 1_555
F13 Ni0 2.012596 1_555
F13 Na3 2.554562 1_556
F13 Na0 2.763125 1_556
