# generated using pymatgen
data_Ba2Na2U(S2O)2
_symmetry_space_group_name_H-M   'P 1'
_cell_length_a   6.44813734
_cell_length_b   6.82573937
_cell_length_c   6.88011008
_cell_angle_alpha   81.18773571
_cell_angle_beta   66.77046553
_cell_angle_gamma   71.84876920
_symmetry_Int_Tables_number   1
_chemical_formula_structural   Ba2Na2U(S2O)2
_chemical_formula_sum   'Ba2 Na2 U1 S4 O2'
_cell_volume   264.26091141
_cell_formula_units_Z   1
loop_
 _symmetry_equiv_pos_site_id
 _symmetry_equiv_pos_as_xyz
  1  'x, y, z'
loop_
 _atom_site_type_symbol
 _atom_site_label
 _atom_site_symmetry_multiplicity
 _atom_site_fract_x
 _atom_site_fract_y
 _atom_site_fract_z
 _atom_site_occupancy
  Ba  Ba0  1  0.41891200  0.81143900  0.32640400  1
  Ba  Ba1  1  0.58108800  0.18856100  0.67359600  1
  Na  Na0  1  0.86319700  0.59306800  0.78977200  1
  Na  Na1  1  0.13680300  0.40693200  0.21022800  1
  U  U0  1  0.00000000  0.00000000  0.00000000  1
  S  S0  1  0.90100000  0.80351600  0.37807600  1
  S  S1  1  0.09900000  0.19648400  0.62192400  1
  S  S2  1  0.32326300  0.65877300  0.81681200  1
  S  S3  1  0.67673700  0.34122700  0.18318800  1
  O  O0  1  0.76371600  0.91599000  0.95595900  1
  O  O1  1  0.23628400  0.08401000  0.04404100  1
loop_
_geom_bond_atom_site_label_1
_geom_bond_atom_site_label_2
_geom_bond_distance
_geom_bond_site_symmetry_2
Ba0 O0 2.812416 1_554
Ba0 O1 2.820354 1_565
Ba0 S1 3.201190 1_565
Ba0 S3 3.223075 1_555
Ba0 S0 3.232974 1_455
Ba0 S2 3.245332 1_555
Ba0 S0 3.248637 1_555
Ba1 O1 2.812416 1_556
Ba1 O0 2.820354 1_545
Ba1 S0 3.201190 1_545
Ba1 S2 3.223075 1_555
Ba1 S1 3.232974 1_655
Ba1 S3 3.245332 1_555
Ba1 S1 3.248637 1_555
Na0 O0 2.426913 1_555
Na0 S1 2.825153 1_655
Na0 S0 2.927940 1_555
Na0 S3 3.003656 1_556
Na0 S2 3.213432 1_655
Na0 S2 3.301341 1_555
Na1 O1 2.426913 1_555
Na1 S0 2.825153 1_455
Na1 S1 2.927940 1_555
Na1 S2 3.003656 1_554
Na1 S3 3.213432 1_455
Na1 S3 3.301341 1_555
S0 U0 2.669666 1_665
S1 U0 2.669666 1_556
S2 U0 2.675895 1_566
S3 U0 2.675895 1_655
O0 U0 1.924505 1_666
O1 U0 1.924505 1_555
