# generated using pymatgen
data_Pr2Al3Ge4
_symmetry_space_group_name_H-M   'P 1'
_cell_length_a   8.12985164
_cell_length_b   8.12985164
_cell_length_c   8.04496464
_cell_angle_alpha   90.00000000
_cell_angle_beta   90.00000000
_cell_angle_gamma   136.44923630
_symmetry_Int_Tables_number   1
_chemical_formula_structural   Pr2Al3Ge4
_chemical_formula_sum   'Pr4 Al6 Ge8'
_cell_volume   366.35886062
_cell_formula_units_Z   2
loop_
 _symmetry_equiv_pos_site_id
 _symmetry_equiv_pos_as_xyz
  1  'x, y, z'
loop_
 _atom_site_type_symbol
 _atom_site_label
 _atom_site_symmetry_multiplicity
 _atom_site_fract_x
 _atom_site_fract_y
 _atom_site_fract_z
 _atom_site_occupancy
  Pr  Pr0  1  0.11469876  0.88530124  0.41884012  1
  Pr  Pr1  1  0.88530124  0.11469876  0.58115988  1
  Pr  Pr2  1  0.38530124  0.61469876  0.91884012  1
  Pr  Pr3  1  0.61469876  0.38530124  0.08115988  1
  Al  Al0  1  -0.00000000  0.00000000  0.00000000  1
  Al  Al1  1  0.50000000  0.50000000  0.50000000  1
  Al  Al2  1  0.03428346  0.46571654  0.25000000  1
  Al  Al3  1  0.46571654  0.03428346  0.75000000  1
  Al  Al4  1  0.96571654  0.53428346  0.75000000  1
  Al  Al5  1  0.53428346  0.96571654  0.25000000  1
  Ge  Ge0  1  0.20202889  0.29797111  0.25000000  1
  Ge  Ge1  1  0.29797111  0.20202889  0.75000000  1
  Ge  Ge2  1  0.79797111  0.70202889  0.75000000  1
  Ge  Ge3  1  0.70202889  0.79797111  0.25000000  1
  Ge  Ge4  1  0.18675769  0.81324231  0.05430203  1
  Ge  Ge5  1  0.81324231  0.18675769  0.94569797  1
  Ge  Ge6  1  0.31324231  0.68675769  0.55430203  1
  Ge  Ge7  1  0.68675769  0.31324231  0.44569797  1
loop_
_geom_bond_atom_site_label_1
_geom_bond_atom_site_label_2
_geom_bond_distance
_geom_bond_site_symmetry_2
Al0 Ge2 2.616048 1_444
Al0 Ge0 2.616048 1_555
Al0 Ge3 2.616048 1_445
Al0 Ge1 2.616048 1_554
Al0 Ge5 2.853585 1_454
Al0 Ge4 2.853585 1_545
Al1 Ge0 2.616048 1_555
Al1 Ge1 2.616048 1_555
Al1 Ge3 2.616048 1_555
Al1 Ge2 2.616048 1_555
Al1 Ge6 2.853585 1_555
Al1 Ge7 2.853585 1_555
Al2 Ge0 2.532872 1_555
Al2 Ge7 2.630808 1_455
Al2 Ge4 2.630808 1_555
Al2 Ge5 2.908322 1_454
Al2 Ge6 2.908322 1_555
Al3 Ge1 2.532872 1_555
Al3 Ge5 2.630808 1_555
Al3 Ge6 2.630808 1_545
Al3 Ge7 2.908322 1_555
Al3 Ge4 2.908322 1_546
Al4 Ge2 2.532872 1_555
Al4 Ge5 2.630808 1_555
Al4 Ge6 2.630808 1_655
Al4 Ge4 2.908322 1_656
Al4 Ge7 2.908322 1_555
Al5 Ge3 2.532872 1_555
Al5 Ge4 2.630808 1_555
Al5 Ge7 2.630808 1_565
Al5 Ge5 2.908322 1_564
Al5 Ge6 2.908322 1_555
Ge0 Pr0 3.186227 1_545
Ge0 Pr3 3.186227 1_555
Ge0 Pr1 3.222873 1_455
Ge0 Pr2 3.222873 1_554
Ge1 Pr2 3.186227 1_555
Ge1 Pr1 3.186227 1_455
Ge1 Pr3 3.222873 1_556
Ge1 Pr0 3.222873 1_545
Ge2 Pr1 3.186227 1_565
Ge2 Pr2 3.186227 1_555
Ge2 Pr3 3.222873 1_556
Ge2 Pr0 3.222873 1_655
Ge3 Pr0 3.186227 1_655
Ge3 Pr3 3.186227 1_555
Ge3 Pr2 3.222873 1_554
Ge3 Pr1 3.222873 1_565
Ge4 Pr0 3.128029 1_555
Ge4 Pr2 3.189841 1_554
Ge4 Pr3 3.213461 1_455
Ge4 Pr3 3.213461 1_565
Ge5 Pr1 3.128029 1_555
Ge5 Pr3 3.189841 1_556
Ge5 Pr2 3.213461 1_655
Ge5 Pr2 3.213461 1_545
Ge6 Pr2 3.128029 1_555
Ge6 Pr0 3.189841 1_555
Ge6 Pr1 3.213461 1_455
Ge6 Pr1 3.213461 1_565
Ge7 Pr3 3.128029 1_555
Ge7 Pr1 3.189841 1_555
Ge7 Pr0 3.213461 1_655
Ge7 Pr0 3.213461 1_545
