# generated using pymatgen
data_Sr2Ca(H4O3)2
_symmetry_space_group_name_H-M   'P 1'
_cell_length_a   3.88290329
_cell_length_b   7.59865929
_cell_length_c   8.56245889
_cell_angle_alpha   83.12915037
_cell_angle_beta   89.22100839
_cell_angle_gamma   94.81782201
_symmetry_Int_Tables_number   1
_chemical_formula_structural   Sr2Ca(H4O3)2
_chemical_formula_sum   'Sr2 Ca1 H8 O6'
_cell_volume   249.86222476
_cell_formula_units_Z   1
loop_
 _symmetry_equiv_pos_site_id
 _symmetry_equiv_pos_as_xyz
  1  'x, y, z'
loop_
 _atom_site_type_symbol
 _atom_site_label
 _atom_site_symmetry_multiplicity
 _atom_site_fract_x
 _atom_site_fract_y
 _atom_site_fract_z
 _atom_site_occupancy
  Sr  Sr0  1  0.99532600  0.79851700  0.68249100  1
  Sr  Sr1  1  0.01622000  0.19605300  0.13433600  1
  Ca  Ca0  1  0.58983400  0.50408200  0.39249600  1
  H  H0  1  0.23787900  0.11975500  0.78832400  1
  H  H1  1  0.82536200  0.11893700  0.78658700  1
  H  H2  1  0.73579900  0.86940200  0.31339100  1
  H  H3  1  0.14423300  0.85153400  0.31263700  1
  H  H4  1  0.54157600  0.10251400  0.58461800  1
  H  H5  1  0.46767200  0.88659100  0.11404700  1
  H  H6  1  0.42025100  0.48584800  0.70587800  1
  H  H7  1  0.55336800  0.50776400  0.06925200  1
  O  O0  1  0.03415000  0.15055700  0.85152600  1
  O  O1  1  0.92471100  0.80358700  0.37575100  1
  O  O2  1  0.52425900  0.01922600  0.68299200  1
  O  O3  1  0.47101100  0.96178500  0.20051000  1
  O  O4  1  0.47155200  0.59550200  0.63431000  1
  O  O5  1  0.54679800  0.40334400  0.15005900  1
loop_
_geom_bond_atom_site_label_1
_geom_bond_atom_site_label_2
_geom_bond_distance
_geom_bond_site_symmetry_2
Ca0 O5 2.300260 1_555
Ca0 O4 2.313534 1_555
Ca0 O1 2.512077 1_555
H0 O0 1.011525 1_555
H1 O0 1.017669 1_655
H2 O1 1.040026 1_555
H2 O3 1.571618 1_555
H3 O1 1.019578 1_455
H4 O2 0.989104 1_555
H5 O3 0.987401 1_555
H6 O4 0.977801 1_555
H7 O5 0.986771 1_555
O0 Sr1 2.487573 1_556
O1 Sr0 2.640463 1_555
O2 Sr0 2.540496 1_445
O2 Sr0 2.583617 1_545
O3 Sr1 2.631014 1_565
O3 Sr1 2.657929 1_665
O4 Sr0 2.516787 1_555
O4 Sr0 2.565140 1_455
O5 Sr1 2.501342 1_555
O5 Sr1 2.519486 1_655
