# generated using pymatgen
data_Rb3CrO8
_symmetry_space_group_name_H-M   'P 1'
_cell_length_a   6.41849631
_cell_length_b   6.41849631
_cell_length_c   6.41849631
_cell_angle_alpha   112.64494988
_cell_angle_beta   112.64494988
_cell_angle_gamma   103.29477751
_symmetry_Int_Tables_number   1
_chemical_formula_structural   Rb3CrO8
_chemical_formula_sum   'Rb3 Cr1 O8'
_cell_volume   201.80531189
_cell_formula_units_Z   1
loop_
 _symmetry_equiv_pos_site_id
 _symmetry_equiv_pos_as_xyz
  1  'x, y, z'
loop_
 _atom_site_type_symbol
 _atom_site_label
 _atom_site_symmetry_multiplicity
 _atom_site_fract_x
 _atom_site_fract_y
 _atom_site_fract_z
 _atom_site_occupancy
  Rb  Rb0  1  0.75000000  0.25000000  0.50000000  1
  Rb  Rb1  1  0.25000000  0.75000000  0.50000000  1
  Rb  Rb2  1  0.50000000  0.50000000  0.00000000  1
  Cr  Cr0  1  0.00000000  0.00000000  0.00000000  1
  O  O0  1  0.21467000  0.21467000  0.39764300  1
  O  O1  1  0.81702700  0.81702700  0.60235700  1
  O  O2  1  0.78533000  0.18297300  0.00000000  1
  O  O3  1  0.18297300  0.78533000  0.00000000  1
  O  O4  1  0.30539400  0.30539400  0.26002400  1
  O  O5  1  0.04537000  0.04537000  0.73997600  1
  O  O6  1  0.69460600  0.95463000  0.00000000  1
  O  O7  1  0.95463000  0.69460600  0.00000000  1
loop_
_geom_bond_atom_site_label_1
_geom_bond_atom_site_label_2
_geom_bond_distance
_geom_bond_site_symmetry_2
Cr0 O4 1.914298 1_555
Cr0 O5 1.914298 1_554
Cr0 O6 1.914298 1_445
Cr0 O7 1.914298 1_445
Cr0 O0 2.005485 1_555
Cr0 O3 2.005485 1_545
Cr0 O2 2.005485 1_455
Cr0 O1 2.005485 1_444
O0 O4 1.447275 1_555
O0 Rb2 3.034548 1_556
O0 Rb0 3.174568 1_555
O0 Rb1 3.174568 1_555
O0 Rb1 3.329176 1_545
O0 Rb0 3.329176 1_455
O1 O5 1.447275 1_665
O1 Rb2 3.034548 1_555
O1 Rb0 3.174568 1_565
O1 Rb1 3.174568 1_655
O1 Rb0 3.329176 1_555
O1 Rb1 3.329176 1_555
O2 O6 1.447275 1_545
O2 Rb2 3.034548 1_555
O2 Rb1 3.174568 1_544
O2 Rb0 3.174568 1_555
O2 Rb1 3.329176 1_655
O2 Rb0 3.329176 1_554
O3 O7 1.447275 1_455
O3 Rb2 3.034548 1_555
O3 Rb0 3.174568 1_454
O3 Rb1 3.174568 1_555
O3 Rb0 3.329176 1_565
O3 Rb1 3.329176 1_554
O4 Rb1 2.854145 1_555
O4 Rb0 2.854145 1_555
O4 Rb2 2.898070 1_555
O5 Rb1 2.854145 1_545
O5 Rb0 2.854145 1_455
O5 Rb2 2.898070 1_556
O6 Rb0 2.854145 1_565
O6 Rb1 2.854145 1_554
O6 Rb2 2.898070 1_555
O7 Rb1 2.854145 1_655
O7 Rb0 2.854145 1_554
O7 Rb2 2.898070 1_555
