# generated using pymatgen
data_SrLaVO4
_symmetry_space_group_name_H-M   'P 1'
_cell_length_a   5.54832114
_cell_length_b   8.90032222
_cell_length_c   8.90027612
_cell_angle_alpha   79.24404720
_cell_angle_beta   71.83760228
_cell_angle_gamma   71.84037994
_symmetry_Int_Tables_number   1
_chemical_formula_structural   SrLaVO4
_chemical_formula_sum   'Sr4 La4 V4 O16'
_cell_volume   394.86012709
_cell_formula_units_Z   4
loop_
 _symmetry_equiv_pos_site_id
 _symmetry_equiv_pos_as_xyz
  1  'x, y, z'
loop_
 _atom_site_type_symbol
 _atom_site_label
 _atom_site_symmetry_multiplicity
 _atom_site_fract_x
 _atom_site_fract_y
 _atom_site_fract_z
 _atom_site_occupancy
  Sr  Sr0  1  0.35680000  0.64888400  0.63738500  1
  Sr  Sr1  1  0.85668000  0.38768400  0.89904800  1
  Sr  Sr2  1  0.35650700  0.14902000  0.13770300  1
  Sr  Sr3  1  0.85688900  0.88741100  0.39886200  1
  La  La0  1  0.14268300  0.61688300  0.09716900  1
  La  La1  1  0.64314300  0.34716600  0.36688600  1
  La  La2  1  0.14268400  0.11589100  0.59799700  1
  La  La3  1  0.64337200  0.84800200  0.86587500  1
  V  V0  1  0.49723900  0.25301100  0.75250700  1
  V  V1  1  0.99723300  0.00251200  0.00297700  1
  V  V2  1  0.49760300  0.75275900  0.25201400  1
  V  V3  1  0.99760600  0.50201700  0.50278100  1
  O  O0  1  0.16505800  0.80729400  0.86113600  1
  O  O1  1  0.66650800  0.61245800  0.05574800  1
  O  O2  1  0.16556900  0.30571200  0.36246400  1
  O  O3  1  0.66653500  0.11121100  0.55724000  1
  O  O4  1  0.32670400  0.40564500  0.94081800  1
  O  O5  1  0.82709900  0.19069000  0.15571400  1
  O  O6  1  0.32697200  0.90482200  0.44112100  1
  O  O7  1  0.82716700  0.69110900  0.65488000  1
  O  O8  1  0.74046600  0.88455800  0.13430000  1
  O  O9  1  0.26989500  0.60508200  0.35505800  1
  O  O10  1  0.74057000  0.38434200  0.63450600  1
  O  O11  1  0.26895800  0.10600000  0.85596500  1
  O  O12  1  0.24083100  0.88425500  0.13404200  1
  O  O13  1  0.76977000  0.60520700  0.35521400  1
  O  O14  1  0.24075600  0.38409400  0.63432600  1
  O  O15  1  0.76870600  0.10628100  0.85626600  1
loop_
_geom_bond_atom_site_label_1
_geom_bond_atom_site_label_2
_geom_bond_distance
_geom_bond_site_symmetry_2
La0 O4 2.325483 1_554
La0 O0 2.437289 1_554
La0 O13 2.578551 1_455
La0 O9 2.579013 1_555
La0 O12 2.697754 1_555
La0 O8 2.699123 1_455
La0 O1 2.791945 1_455
La0 O1 2.801862 1_555
La1 O5 2.325692 1_555
La1 O3 2.436526 1_555
La1 O13 2.578799 1_555
La1 O9 2.579089 1_555
La1 O14 2.698116 1_555
La1 O10 2.698783 1_555
La1 O2 2.794131 1_655
La1 O2 2.799748 1_555
La2 O6 2.327171 1_545
La2 O2 2.431210 1_555
La2 O11 2.580523 1_555
La2 O15 2.580765 1_455
La2 O14 2.703010 1_555
La2 O10 2.703150 1_455
La2 O3 2.790026 1_455
La2 O3 2.802483 1_555
La3 O7 2.326736 1_555
La3 O1 2.431548 1_556
La3 O15 2.580926 1_565
La3 O11 2.580950 1_565
La3 O12 2.702578 1_556
La3 O8 2.702849 1_556
La3 O0 2.790515 1_655
La3 O0 2.801919 1_555
O0 V1 2.134732 1_466
O0 Sr0 2.424400 1_555
O1 V2 2.133802 1_555
O1 Sr1 2.422584 1_554
O2 V3 2.134174 1_455
O2 Sr2 2.422432 1_555
O3 V0 2.134842 1_555
O3 Sr3 2.424592 1_545
O4 V0 2.147043 1_555
O4 Sr2 2.601189 1_556
O4 Sr1 2.801975 1_455
O4 Sr1 2.803185 1_555
O4 Sr0 3.125712 1_555
O5 V1 2.146739 1_555
O5 Sr1 2.601955 1_554
O5 Sr2 2.800130 1_655
O5 Sr2 2.804866 1_555
O5 Sr3 3.124300 1_545
O6 V2 2.149192 1_555
O6 Sr0 2.593783 1_555
O6 Sr3 2.802372 1_455
O6 Sr3 2.803267 1_555
O6 Sr2 3.130301 1_565
O7 V3 2.149304 1_555
O7 Sr3 2.594468 1_555
O7 Sr0 2.801589 1_655
O7 Sr0 2.804068 1_555
O7 Sr1 3.130214 1_555
O8 V1 1.983433 1_565
O8 V2 1.983899 1_555
O8 Sr2 2.634455 1_565
O8 Sr3 2.634989 1_555
O9 V2 2.006903 1_555
O9 V3 2.006942 1_455
O9 Sr3 2.817214 1_455
O9 Sr0 2.817223 1_555
O10 V0 1.983312 1_555
O10 V3 1.983839 1_555
O10 Sr0 2.634709 1_555
O10 Sr1 2.635004 1_555
O11 V1 2.004814 1_456
O11 V0 2.005083 1_555
O11 Sr1 2.811089 1_455
O11 Sr2 2.811405 1_556
O12 V1 1.983226 1_465
O12 V2 1.984038 1_555
O12 Sr2 2.636375 1_565
O12 Sr3 2.636526 1_455
O13 V2 2.006726 1_555
O13 V3 2.006885 1_555
O13 Sr0 2.816036 1_555
O13 Sr3 2.816249 1_555
O14 V0 1.983134 1_555
O14 V3 1.983871 1_455
O14 Sr1 2.636070 1_455
O14 Sr0 2.636303 1_555
O15 V1 2.004441 1_556
O15 V0 2.004449 1_555
O15 Sr1 2.808914 1_555
O15 Sr2 2.809177 1_556
