# generated using pymatgen
data_MgP2(H4O5)2
_symmetry_space_group_name_H-M   'P 1'
_cell_length_a   5.39637307
_cell_length_b   7.31064728
_cell_length_c   9.98232400
_cell_angle_alpha   90.00000000
_cell_angle_beta   90.00000000
_cell_angle_gamma   94.64582112
_symmetry_Int_Tables_number   1
_chemical_formula_structural   MgP2(H4O5)2
_chemical_formula_sum   'Mg2 P4 H16 O20'
_cell_volume   392.51856424
_cell_formula_units_Z   2
loop_
 _symmetry_equiv_pos_site_id
 _symmetry_equiv_pos_as_xyz
  1  'x, y, z'
loop_
 _atom_site_type_symbol
 _atom_site_label
 _atom_site_symmetry_multiplicity
 _atom_site_fract_x
 _atom_site_fract_y
 _atom_site_fract_z
 _atom_site_occupancy
  Mg  Mg0  1  0.00000000  0.00000000  0.00000000  1
  Mg  Mg1  1  0.50000000  0.50000000  0.50000000  1
  P  P0  1  0.76549500  0.66382700  0.78355400  1
  P  P1  1  0.26549500  0.16382700  0.71644600  1
  P  P2  1  0.23450500  0.33617300  0.21644600  1
  P  P3  1  0.73450500  0.83617300  0.28355400  1
  H  H0  1  0.57931500  0.16260600  0.92039000  1
  H  H1  1  0.07931500  0.66260600  0.57961000  1
  H  H2  1  0.42068500  0.83739400  0.07961000  1
  H  H3  1  0.92068500  0.33739400  0.42039000  1
  H  H4  1  0.69163600  0.26840200  0.04311200  1
  H  H5  1  0.19163600  0.76840200  0.45688800  1
  H  H6  1  0.30836400  0.73159800  0.95688800  1
  H  H7  1  0.80836400  0.23159800  0.54311200  1
  H  H8  1  0.86459700  0.40725900  0.88575300  1
  H  H9  1  0.36459700  0.90725900  0.61424700  1
  H  H10  1  0.13540300  0.59274100  0.11424700  1
  H  H11  1  0.63540300  0.09274100  0.38575300  1
  H  H12  1  0.40490300  0.51137300  0.78447400  1
  H  H13  1  0.90490300  0.01137300  0.71552600  1
  H  H14  1  0.59509700  0.48862700  0.21552600  1
  H  H15  1  0.09509700  0.98862700  0.28447400  1
  O  O0  1  0.74383600  0.20497300  0.96122600  1
  O  O1  1  0.24383600  0.70497300  0.53877400  1
  O  O2  1  0.25616400  0.79502700  0.03877400  1
  O  O3  1  0.75616400  0.29502700  0.46122600  1
  O  O4  1  0.85436300  0.85680200  0.82886500  1
  O  O5  1  0.35436300  0.35680200  0.67113500  1
  O  O6  1  0.14563700  0.14319800  0.17113500  1
  O  O7  1  0.64563700  0.64319800  0.32886500  1
  O  O8  1  0.76861200  0.63389600  0.63238000  1
  O  O9  1  0.26861200  0.13389600  0.86762000  1
  O  O10  1  0.23138800  0.36610400  0.36762000  1
  O  O11  1  0.73138800  0.86610400  0.13238000  1
  O  O12  1  0.93948700  0.53016700  0.85596700  1
  O  O13  1  0.43948700  0.03016700  0.64403300  1
  O  O14  1  0.06051300  0.46983300  0.14403300  1
  O  O15  1  0.56051300  0.96983300  0.35596700  1
  O  O16  1  0.49013100  0.61649000  0.83880200  1
  O  O17  1  0.99013100  0.11649000  0.66119800  1
  O  O18  1  0.50986900  0.38351000  0.16119800  1
  O  O19  1  0.00986900  0.88351000  0.33880200  1
loop_
_geom_bond_atom_site_label_1
_geom_bond_atom_site_label_2
_geom_bond_distance
_geom_bond_site_symmetry_2
Mg0 O6 2.121011 1_555
Mg0 O4 2.121011 1_444
Mg0 O11 2.139094 1_445
Mg0 O9 2.139094 1_554
Mg0 O0 2.154469 1_454
Mg0 O2 2.154469 1_545
Mg1 O7 2.121011 1_555
Mg1 O5 2.121011 1_555
Mg1 O10 2.139094 1_555
Mg1 O8 2.139094 1_555
Mg1 O1 2.154469 1_555
Mg1 O3 2.154469 1_555
H0 O0 1.002883 1_555
H1 O1 1.002883 1_555
H2 O2 1.002883 1_555
H3 O3 1.002883 1_555
H4 O0 0.991815 1_554
H5 O1 0.991815 1_555
H6 O2 0.991815 1_556
H7 O3 0.991815 1_555
H8 O12 1.000138 1_555
H9 O13 1.000138 1_565
H10 O14 1.000138 1_555
H11 O15 1.000138 1_545
H12 O16 1.019282 1_555
H12 O5 1.606682 1_555
H13 O17 1.019282 1_555
H13 O4 1.606682 1_545
H14 O18 1.019282 1_555
H14 O7 1.606682 1_555
H15 O19 1.019282 1_555
H15 O6 1.606682 1_565
O4 P0 1.521594 1_555
O5 P1 1.521594 1_555
O6 P2 1.521594 1_555
O7 P3 1.521594 1_555
O8 P0 1.525138 1_555
O9 P1 1.525138 1_555
O10 P2 1.525138 1_555
O11 P3 1.525138 1_555
O12 P0 1.583515 1_555
O13 P1 1.583515 1_555
O14 P2 1.583515 1_555
O15 P3 1.583515 1_555
O16 P0 1.596468 1_555
O17 P1 1.596468 1_655
O18 P2 1.596468 1_555
O19 P3 1.596468 1_455
