# generated using pymatgen
data_UCd(MoO4)4
_symmetry_space_group_name_H-M   'P 1'
_cell_length_a   6.71963100
_cell_length_b   8.26068400
_cell_length_c   14.22428111
_cell_angle_alpha   54.96015254
_cell_angle_beta   90.00000000
_cell_angle_gamma   90.00000000
_symmetry_Int_Tables_number   1
_chemical_formula_structural   UCd(MoO4)4
_chemical_formula_sum   'U2 Cd2 Mo8 O32'
_cell_volume   646.46443006
_cell_formula_units_Z   2
loop_
 _symmetry_equiv_pos_site_id
 _symmetry_equiv_pos_as_xyz
  1  'x, y, z'
loop_
 _atom_site_type_symbol
 _atom_site_label
 _atom_site_symmetry_multiplicity
 _atom_site_fract_x
 _atom_site_fract_y
 _atom_site_fract_z
 _atom_site_occupancy
  U  U0  1  0.29825700  0.00000000  0.75000000  1
  U  U1  1  0.70174300  0.00000000  0.25000000  1
  Cd  Cd0  1  0.69918100  0.50000000  0.25000000  1
  Cd  Cd1  1  0.30081900  0.50000000  0.75000000  1
  Mo  Mo0  1  0.83046400  0.80223700  0.90745000  1
  Mo  Mo1  1  0.16953600  0.19776300  0.09255000  1
  Mo  Mo2  1  0.83046400  0.19776300  0.59255000  1
  Mo  Mo3  1  0.16953600  0.80223700  0.40745000  1
  Mo  Mo4  1  0.82829000  0.30435400  0.90338700  1
  Mo  Mo5  1  0.17171000  0.69564600  0.09661300  1
  Mo  Mo6  1  0.82829000  0.69564600  0.59661300  1
  Mo  Mo7  1  0.17171000  0.30435400  0.40338700  1
  O  O0  1  0.84814200  0.81473400  0.43212700  1
  O  O1  1  0.15185800  0.18526600  0.56787300  1
  O  O2  1  0.84778300  0.90904700  0.59600500  1
  O  O3  1  0.15221700  0.09095300  0.40399500  1
  O  O4  1  0.84267800  0.59538200  0.90281700  1
  O  O5  1  0.15732200  0.40461800  0.09718300  1
  O  O6  1  0.93428500  0.50000000  0.75000000  1
  O  O7  1  0.06571500  0.50000000  0.25000000  1
  O  O8  1  0.29861700  0.77988400  0.74749200  1
  O  O9  1  0.70138300  0.22011600  0.25250800  1
  O  O10  1  0.42413100  0.36281700  0.37448100  1
  O  O11  1  0.57586900  0.63718300  0.62551900  1
  O  O12  1  0.15185800  0.81473400  0.93212700  1
  O  O13  1  0.84814200  0.18526600  0.06787300  1
  O  O14  1  0.29861700  0.22011600  0.75250800  1
  O  O15  1  0.70138300  0.77988400  0.24749200  1
  O  O16  1  0.85068800  0.68865200  0.06319600  1
  O  O17  1  0.14931200  0.31134800  0.93680400  1
  O  O18  1  0.57414600  0.87627900  0.87104100  1
  O  O19  1  0.42585400  0.12372100  0.12895900  1
  O  O20  1  0.57586900  0.36281700  0.87448100  1
  O  O21  1  0.42413100  0.63718300  0.12551900  1
  O  O22  1  0.15732200  0.59538200  0.40281700  1
  O  O23  1  0.84267800  0.40461800  0.59718300  1
  O  O24  1  0.94195300  0.00000000  0.75000000  1
  O  O25  1  0.05804700  0.00000000  0.25000000  1
  O  O26  1  0.57414600  0.12372100  0.62895900  1
  O  O27  1  0.42585400  0.87627900  0.37104100  1
  O  O28  1  0.84778300  0.09095300  0.90399500  1
  O  O29  1  0.15221700  0.90904700  0.09600500  1
  O  O30  1  0.85068800  0.31134800  0.43680400  1
  O  O31  1  0.14931200  0.68865200  0.56319600  1
loop_
_geom_bond_atom_site_label_1
_geom_bond_atom_site_label_2
_geom_bond_distance
_geom_bond_site_symmetry_2
Cd0 O15 2.291785 1_555
Cd0 O9 2.291785 1_555
Cd0 O21 2.351867 1_555
Cd0 O10 2.351867 1_555
Cd0 O16 2.402201 1_555
Cd0 O30 2.402201 1_555
Cd0 O7 2.462973 1_655
Cd1 O14 2.291785 1_555
Cd1 O8 2.291785 1_555
Cd1 O11 2.351867 1_555
Cd1 O20 2.351867 1_555
Cd1 O31 2.402201 1_555
Cd1 O17 2.402201 1_555
Cd1 O6 2.462973 1_455
Mo0 O4 1.749360 1_555
Mo0 O18 1.801419 1_555
Mo0 O16 1.849278 1_556
Mo0 O24 2.011126 1_565
Mo0 O12 2.199900 1_655
Mo0 O28 2.359990 1_565
Mo1 O5 1.749360 1_555
Mo1 O19 1.801419 1_555
Mo1 O17 1.849278 1_554
Mo1 O25 2.011126 1_555
Mo1 O13 2.199900 1_455
Mo1 O29 2.359990 1_545
Mo2 O23 1.749360 1_555
Mo2 O26 1.801419 1_555
Mo2 O30 1.849278 1_555
Mo2 O24 2.011126 1_555
Mo2 O1 2.199900 1_655
Mo2 O2 2.359990 1_545
Mo3 O22 1.749360 1_555
Mo3 O27 1.801419 1_555
Mo3 O31 1.849278 1_555
Mo3 O25 2.011126 1_565
Mo3 O0 2.199900 1_455
Mo3 O3 2.359990 1_565
Mo4 O20 1.746794 1_555
Mo4 O28 1.762760 1_555
Mo4 O13 1.953647 1_556
Mo4 O6 1.957177 1_555
Mo4 O17 2.216779 1_655
Mo4 O4 2.401391 1_555
Mo5 O21 1.746794 1_555
Mo5 O29 1.762760 1_555
Mo5 O12 1.953647 1_554
Mo5 O7 1.957177 1_555
Mo5 O16 2.216779 1_455
Mo5 O5 2.401391 1_555
Mo6 O11 1.746794 1_555
Mo6 O2 1.762760 1_555
Mo6 O0 1.953647 1_555
Mo6 O6 1.957177 1_555
Mo6 O31 2.216779 1_655
Mo6 O23 2.401391 1_555
Mo7 O10 1.746794 1_555
Mo7 O3 1.762760 1_555
Mo7 O1 1.953647 1_555
Mo7 O7 1.957177 1_555
Mo7 O30 2.216779 1_455
Mo7 O22 2.401391 1_555
O0 U1 2.338504 1_565
O1 U0 2.338504 1_555
O8 U0 1.839025 1_565
O9 U1 1.839025 1_555
O12 U0 2.338504 1_565
O13 U1 2.338504 1_555
O14 U0 1.839025 1_555
O15 U1 1.839025 1_565
O18 U0 2.329188 1_565
O19 U1 2.329188 1_555
O24 U0 2.394231 1_655
O25 U1 2.394231 1_455
O26 U0 2.329188 1_555
O27 U1 2.329188 1_565
