# generated using pymatgen
data_UAl7GaFe4
_symmetry_space_group_name_H-M   'P 1'
_cell_length_a   6.68483976
_cell_length_b   6.68483976
_cell_length_c   6.68483976
_cell_angle_alpha   134.86549306
_cell_angle_beta   98.60690376
_cell_angle_gamma   98.33152788
_symmetry_Int_Tables_number   1
_chemical_formula_structural   UAl7GaFe4
_chemical_formula_sum   'U1 Al7 Ga1 Fe4'
_cell_volume   195.51375438
_cell_formula_units_Z   1
loop_
 _symmetry_equiv_pos_site_id
 _symmetry_equiv_pos_as_xyz
  1  'x, y, z'
loop_
 _atom_site_type_symbol
 _atom_site_label
 _atom_site_symmetry_multiplicity
 _atom_site_fract_x
 _atom_site_fract_y
 _atom_site_fract_z
 _atom_site_occupancy
  U  U0  1  0.99875300  0.00000000  0.99875300  1
  Al  Al0  1  0.00090700  0.49759300  0.00030800  1
  Al  Al1  1  0.00090700  0.00059800  0.50331300  1
  Al  Al2  1  0.50271500  0.50240700  0.50331300  1
  Al  Al3  1  0.50271500  0.99940200  0.00030800  1
  Al  Al4  1  0.64750600  0.64547100  0.00203600  1
  Al  Al5  1  0.35656500  0.35452900  0.00203600  1
  Al  Al6  1  0.64128300  0.00000000  0.64128300  1
  Ga  Ga0  1  0.35274200  0.00000000  0.35274200  1
  Fe  Fe0  1  0.20324200  0.70079500  0.50244700  1
  Fe  Fe1  1  0.80165200  0.29920500  0.50244700  1
  Fe  Fe2  1  0.20529800  0.50000000  0.70529800  1
  Fe  Fe3  1  0.78571400  0.50000000  0.28571400  1
loop_
_geom_bond_atom_site_label_1
_geom_bond_atom_site_label_2
_geom_bond_distance
_geom_bond_site_symmetry_2
Al0 Fe3 2.548442 1_455
Al0 Al1 2.550007 1_554
Al0 Fe1 2.557991 1_454
Al0 Fe2 2.569268 1_554
Al0 Fe0 2.572474 1_555
Al0 Al1 2.580843 1_565
Al0 Al4 2.688357 1_455
Al0 Al5 2.689544 1_555
Al0 Ga0 2.692674 1_565
Al0 Al6 2.701124 1_454
Al0 U0 3.316937 1_454
Al0 U0 3.367957 1_464
Al1 Fe3 2.548439 1_445
Al1 Fe1 2.557993 1_455
Al1 Fe2 2.569271 1_555
Al1 Fe0 2.572471 1_545
Al1 Al4 2.688352 1_445
Al1 Al5 2.689547 1_556
Al1 Ga0 2.692672 1_555
Al1 Al6 2.701126 1_455
Al1 U0 3.316939 1_455
Al1 U0 3.367955 1_454
Al2 Fe3 2.548437 1_555
Al2 Al3 2.550007 1_556
Al2 Fe0 2.557989 1_555
Al2 Fe2 2.569273 1_555
Al2 Fe1 2.572475 1_555
Al2 Al3 2.580843 1_545
Al2 Al5 2.688345 1_555
Al2 Al4 2.689550 1_556
Al2 Ga0 2.692678 1_555
Al2 Al6 2.701120 1_565
Al2 U0 3.316938 1_565
Al2 U0 3.367956 1_454
Al3 Fe3 2.548437 1_565
Al3 Fe0 2.557989 1_554
Al3 Fe2 2.569273 1_554
Al3 Fe1 2.572475 1_565
Al3 Al5 2.688345 1_565
Al3 Al4 2.689547 1_555
Al3 Ga0 2.692678 1_565
Al3 Al6 2.701120 1_564
Al3 U0 3.316938 1_564
Al3 U0 3.367956 1_464
Al4 Al5 2.543431 1_555
Al4 Fe3 2.780855 1_555
Al4 Fe2 2.882568 1_554
Al4 Fe1 2.896140 1_565
Al4 Fe1 2.896145 1_554
Al4 U0 3.099454 1_564
Al4 Al6 3.110025 1_565
Al4 Al6 3.110029 1_554
Al5 Fe3 2.780853 1_555
Al5 Fe2 2.882574 1_554
Al5 Fe0 2.896140 1_555
Al5 Fe0 2.896140 1_544
Al5 U0 3.099449 1_454
Al5 Al6 3.110027 1_565
Al5 Al6 3.110027 1_554
Al6 Ga0 2.515424 1_555
Al6 Fe3 2.857756 1_545
Al6 Fe3 2.857756 1_556
Al6 Fe1 2.882125 1_555
Al6 Fe0 2.882125 1_545
Al6 U0 3.116329 1_555
Ga0 U0 3.085983 1_454
Fe0 Fe2 2.491695 1_555
Fe0 Fe3 2.578995 1_455
Fe0 Ga0 2.923182 1_565
Fe0 U0 3.108656 1_465
Fe0 U0 3.108656 1_454
Fe1 Fe2 2.491695 1_655
Fe1 Fe3 2.578995 1_555
Fe1 Ga0 2.923182 1_555
Fe1 U0 3.108656 1_565
Fe1 U0 3.108656 1_554
Fe2 Ga0 2.869425 1_566
Fe2 Ga0 2.869425 1_555
Fe2 U0 3.134260 1_465
Fe2 U0 3.134260 1_454
Fe3 U0 3.167122 1_565
Fe3 U0 3.167122 1_554
