# generated using pymatgen
data_CeGaPd
_symmetry_space_group_name_H-M   'P 1'
_cell_length_a   4.58952823
_cell_length_b   7.14555525
_cell_length_c   7.67574166
_cell_angle_alpha   90.00429312
_cell_angle_beta   90.00029478
_cell_angle_gamma   89.99980609
_symmetry_Int_Tables_number   1
_chemical_formula_structural   CeGaPd
_chemical_formula_sum   'Ce4 Ga4 Pd4'
_cell_volume   251.72385572
_cell_formula_units_Z   4
loop_
 _symmetry_equiv_pos_site_id
 _symmetry_equiv_pos_as_xyz
  1  'x, y, z'
loop_
 _atom_site_type_symbol
 _atom_site_label
 _atom_site_symmetry_multiplicity
 _atom_site_fract_x
 _atom_site_fract_y
 _atom_site_fract_z
 _atom_site_occupancy
  Ce  Ce0  1  0.24999943  0.97507438  0.29951742  1
  Ce  Ce1  1  0.24999953  0.47506722  0.20050584  1
  Ce  Ce2  1  0.74999957  0.02487172  0.70046968  1
  Ce  Ce3  1  0.74999896  0.52489129  0.79947825  1
  Ga  Ga0  1  0.24999870  0.32746936  0.57976103  1
  Ga  Ga1  1  0.25000705  0.82750355  0.92026413  1
  Ga  Ga2  1  0.74999978  0.67252305  0.42018449  1
  Ga  Ga3  1  0.74999835  0.17252942  0.07983820  1
  Pd  Pd0  1  0.25000197  0.21403527  0.90797806  1
  Pd  Pd1  1  0.24999759  0.71402247  0.59203108  1
  Pd  Pd2  1  0.74999774  0.78601229  0.09199634  1
  Pd  Pd3  1  0.75000133  0.28599996  0.40797549  1
loop_
_geom_bond_atom_site_label_1
_geom_bond_atom_site_label_2
_geom_bond_distance
_geom_bond_site_symmetry_2
Ce0 Pd1 2.919142 1_555
Ce0 Ga1 3.096074 1_554
Ce0 Pd2 3.102892 1_555
Ce0 Pd2 3.102898 1_455
Ce0 Ga3 3.178088 1_465
Ce0 Ga3 3.178101 1_565
Ce0 Ga2 3.286009 1_555
Ce0 Ga2 3.286024 1_455
Ce0 Pd3 3.300723 1_465
Ce0 Pd3 3.300739 1_565
Ce0 Ga0 3.311637 1_565
Ce0 Pd0 3.456662 1_564
Ce1 Pd0 2.918919 1_554
Ce1 Ga0 3.096302 1_555
Ce1 Pd3 3.102809 1_555
Ce1 Pd3 3.102816 1_455
Ce1 Ga2 3.177980 1_555
Ce1 Ga2 3.177984 1_455
Ce1 Ga3 3.285857 1_555
Ce1 Ga3 3.285869 1_455
Ce1 Pd2 3.301006 1_455
Ce1 Pd2 3.301011 1_555
Ce1 Ga1 3.312097 1_554
Ce1 Pd1 3.456325 1_555
Ce2 Pd3 2.919375 1_555
Ce2 Ga3 3.097117 1_556
Ce2 Pd0 3.103155 1_555
Ce2 Pd0 3.103166 1_655
Ce2 Ga1 3.178273 1_545
Ce2 Ga1 3.178303 1_645
Ce2 Ga0 3.286319 1_555
Ce2 Ga0 3.286330 1_655
Ce2 Pd1 3.300318 1_645
Ce2 Pd1 3.300335 1_545
Ce2 Ga2 3.311592 1_545
Ce2 Pd2 3.456219 1_546
Ce3 Pd2 2.919268 1_556
Ce3 Ga2 3.096663 1_555
Ce3 Pd1 3.102918 1_555
Ce3 Pd1 3.102927 1_655
Ce3 Ga0 3.178030 1_555
Ce3 Ga0 3.178034 1_655
Ce3 Ga1 3.286441 1_555
Ce3 Ga1 3.286497 1_655
Ce3 Pd0 3.300560 1_555
Ce3 Pd0 3.300563 1_655
Ce3 Ga3 3.312282 1_556
Ce3 Pd3 3.455950 1_555
Ga0 Pd0 2.646548 1_555
Ga0 Pd3 2.663131 1_455
Ga0 Pd3 2.663162 1_555
Ga0 Pd1 2.763735 1_555
Ga1 Pd1 2.646652 1_555
Ga1 Pd2 2.662939 1_556
Ga1 Pd2 2.663026 1_456
Ga1 Pd0 2.763600 1_565
Ga2 Pd2 2.646458 1_555
Ga2 Pd1 2.663388 1_655
Ga2 Pd1 2.663416 1_555
Ga2 Pd3 2.763504 1_555
Ga3 Pd3 2.645929 1_555
Ga3 Pd0 2.663460 1_554
Ga3 Pd0 2.663502 1_654
Ga3 Pd2 2.763463 1_545
