# generated using pymatgen
data_Lu6Fe23
_symmetry_space_group_name_H-M   'P 1'
_cell_length_a   8.40244523
_cell_length_b   8.40244523
_cell_length_c   8.40244523
_cell_angle_alpha   60.00000000
_cell_angle_beta   60.00000000
_cell_angle_gamma   60.00000000
_symmetry_Int_Tables_number   1
_chemical_formula_structural   Lu6Fe23
_chemical_formula_sum   'Lu6 Fe23'
_cell_volume   419.47112696
_cell_formula_units_Z   1
loop_
 _symmetry_equiv_pos_site_id
 _symmetry_equiv_pos_as_xyz
  1  'x, y, z'
loop_
 _atom_site_type_symbol
 _atom_site_label
 _atom_site_symmetry_multiplicity
 _atom_site_fract_x
 _atom_site_fract_y
 _atom_site_fract_z
 _atom_site_occupancy
  Lu  Lu0  1  0.70750200  0.29249800  0.29249800  1
  Lu  Lu1  1  0.70750200  0.29249800  0.70750200  1
  Lu  Lu2  1  0.70750200  0.70750200  0.29249800  1
  Lu  Lu3  1  0.29249800  0.70750200  0.70750200  1
  Lu  Lu4  1  0.29249800  0.70750200  0.29249800  1
  Lu  Lu5  1  0.29249800  0.29249800  0.70750200  1
  Fe  Fe0  1  0.00000000  0.00000000  0.00000000  1
  Fe  Fe1  1  0.50000000  0.00000000  0.00000000  1
  Fe  Fe2  1  0.50000000  0.00000000  0.50000000  1
  Fe  Fe3  1  0.50000000  0.50000000  0.00000000  1
  Fe  Fe4  1  0.00000000  0.50000000  0.50000000  1
  Fe  Fe5  1  0.00000000  0.50000000  0.00000000  1
  Fe  Fe6  1  0.00000000  0.00000000  0.50000000  1
  Fe  Fe7  1  0.63712500  0.12095800  0.12095800  1
  Fe  Fe8  1  0.12095800  0.63712500  0.12095800  1
  Fe  Fe9  1  0.12095800  0.12095800  0.63712500  1
  Fe  Fe10  1  0.12095800  0.12095800  0.12095800  1
  Fe  Fe11  1  0.36287500  0.87904200  0.87904200  1
  Fe  Fe12  1  0.87904200  0.36287500  0.87904200  1
  Fe  Fe13  1  0.87904200  0.87904200  0.36287500  1
  Fe  Fe14  1  0.87904200  0.87904200  0.87904200  1
  Fe  Fe15  1  0.02346700  0.32551100  0.32551100  1
  Fe  Fe16  1  0.32551100  0.02346700  0.32551100  1
  Fe  Fe17  1  0.32551100  0.32551100  0.02346700  1
  Fe  Fe18  1  0.32551100  0.32551100  0.32551100  1
  Fe  Fe19  1  0.97653300  0.67448900  0.67448900  1
  Fe  Fe20  1  0.67448900  0.97653300  0.67448900  1
  Fe  Fe21  1  0.67448900  0.67448900  0.97653300  1
  Fe  Fe22  1  0.67448900  0.67448900  0.67448900  1
loop_
_geom_bond_atom_site_label_1
_geom_bond_atom_site_label_2
_geom_bond_distance
_geom_bond_site_symmetry_2
Lu0 Lu5 3.487048 1_555
Lu0 Lu2 3.487048 1_555
Lu0 Lu4 3.487048 1_555
Lu0 Lu1 3.487048 1_555
Lu1 Lu5 3.487048 1_555
Lu1 Lu2 3.487048 1_555
Lu1 Lu3 3.487048 1_555
Lu2 Lu3 3.487048 1_555
Lu2 Lu4 3.487048 1_555
Lu3 Lu5 3.487048 1_555
Lu3 Lu4 3.487048 1_555
Lu4 Lu5 3.487048 1_555
Fe0 Fe10 2.489522 1_555
Fe0 Fe14 2.489522 1_444
Fe0 Fe13 2.489529 1_445
Fe0 Fe12 2.489529 1_454
Fe0 Fe11 2.489529 1_544
Fe0 Fe8 2.489529 1_545
Fe0 Fe7 2.489529 1_455
Fe0 Fe9 2.489529 1_554
Fe1 Fe16 2.430914 1_555
Fe1 Fe21 2.430914 1_544
Fe1 Fe17 2.430914 1_555
Fe1 Fe20 2.430914 1_544
Fe1 Fe7 2.601619 1_555
Fe1 Fe11 2.601619 1_544
Fe1 Fe14 2.601626 1_544
Fe1 Fe10 2.601626 1_555
Fe1 Lu1 3.013330 1_554
Fe1 Lu2 3.013330 1_545
Fe1 Lu4 3.013330 1_545
Fe1 Lu5 3.013330 1_554
Fe2 Fe22 2.430914 1_545
Fe2 Fe20 2.430914 1_545
Fe2 Fe9 2.601626 1_555
Fe2 Fe7 2.601626 1_555
Fe2 Lu5 3.013330 1_555
Fe2 Lu0 3.013330 1_555
Fe2 Lu3 3.013330 1_545
Fe2 Lu2 3.013330 1_545
Fe3 Fe7 2.601626 1_555
Fe3 Fe8 2.601626 1_555
Fe3 Lu0 3.013330 1_555
Fe3 Lu4 3.013330 1_555
Fe3 Lu1 3.013330 1_554
Fe3 Lu3 3.013330 1_554
Fe4 Fe9 2.601626 1_555
Fe4 Fe8 2.601626 1_555
Fe4 Lu5 3.013330 1_555
Fe4 Lu4 3.013330 1_555
Fe4 Lu1 3.013330 1_455
Fe4 Lu2 3.013330 1_455
Fe5 Fe8 2.601619 1_555
Fe5 Lu3 3.013330 1_554
Fe5 Lu2 3.013330 1_455
Fe5 Lu0 3.013330 1_455
Fe5 Lu5 3.013330 1_554
Fe6 Fe9 2.601619 1_555
Fe6 Lu3 3.013330 1_545
Fe6 Lu1 3.013330 1_455
Fe6 Lu0 3.013330 1_455
Fe6 Lu4 3.013330 1_545
Fe7 Lu1 2.878683 1_554
Fe7 Lu2 2.878683 1_545
Fe7 Lu0 2.878690 1_555
Fe8 Lu2 2.878683 1_455
Fe8 Lu3 2.878683 1_554
Fe8 Lu4 2.878690 1_555
Fe9 Lu1 2.878683 1_455
Fe9 Lu3 2.878683 1_545
Fe9 Lu5 2.878690 1_555
Fe10 Fe16 2.591799 1_555
Fe10 Fe17 2.591799 1_555
Fe10 Fe15 2.591799 1_555
Fe10 Fe5 2.601626 1_555
Fe10 Fe6 2.601626 1_555
Fe10 Fe13 2.874652 1_445
Fe10 Fe12 2.874652 1_454
Fe10 Fe11 2.874652 1_544
Fe10 Lu0 2.878684 1_455
Fe10 Lu5 2.878684 1_554
Fe10 Lu4 2.878684 1_545
Fe11 Fe20 2.591792 1_555
Fe11 Fe21 2.591792 1_555
Fe11 Fe22 2.591796 1_555
Fe11 Fe2 2.601626 1_565
Fe11 Fe3 2.601626 1_556
Fe11 Fe8 2.874664 1_556
Fe11 Fe9 2.874664 1_565
Fe11 Lu4 2.878683 1_556
Fe11 Lu5 2.878683 1_565
Fe11 Lu3 2.878690 1_555
Fe12 Fe19 2.591792 1_555
Fe12 Fe21 2.591792 1_555
Fe12 Fe22 2.591796 1_555
Fe12 Fe5 2.601619 1_656
Fe12 Fe3 2.601626 1_556
Fe12 Fe4 2.601626 1_655
Fe12 Fe7 2.874664 1_556
Fe12 Fe9 2.874664 1_655
Fe12 Lu5 2.878683 1_655
Fe12 Lu0 2.878683 1_556
Fe12 Lu1 2.878690 1_555
Fe13 Fe20 2.591792 1_555
Fe13 Fe19 2.591792 1_555
Fe13 Fe22 2.591796 1_555
Fe13 Fe6 2.601619 1_665
Fe13 Fe2 2.601626 1_565
Fe13 Fe4 2.601626 1_655
Fe13 Fe8 2.874664 1_655
Fe13 Fe7 2.874664 1_565
Fe13 Lu4 2.878683 1_655
Fe13 Lu0 2.878683 1_565
Fe13 Lu2 2.878690 1_555
Fe14 Fe20 2.591799 1_555
Fe14 Fe19 2.591799 1_555
Fe14 Fe21 2.591799 1_555
Fe14 Fe6 2.601626 1_665
Fe14 Fe5 2.601626 1_656
Fe14 Fe9 2.874652 1_665
Fe14 Fe7 2.874652 1_566
Fe14 Fe8 2.874652 1_656
Fe14 Lu3 2.878684 1_655
Fe14 Lu1 2.878684 1_565
Fe14 Lu2 2.878684 1_556
Fe15 Fe4 2.430914 1_555
Fe15 Fe5 2.430914 1_555
Fe15 Fe6 2.430914 1_555
Fe15 Fe16 2.537908 1_555
Fe15 Fe17 2.537908 1_555
Fe15 Fe18 2.537908 1_555
Fe15 Fe9 2.591792 1_555
Fe15 Fe8 2.591792 1_555
Fe15 Lu1 2.958393 1_455
Fe15 Lu2 2.958393 1_455
Fe15 Lu0 2.958393 1_455
Fe16 Fe2 2.430914 1_555
Fe16 Fe6 2.430914 1_555
Fe16 Fe17 2.537908 1_555
Fe16 Fe18 2.537908 1_555
Fe16 Fe7 2.591792 1_555
Fe16 Fe9 2.591792 1_555
Fe16 Lu2 2.958393 1_545
Fe16 Lu3 2.958393 1_545
Fe16 Lu4 2.958393 1_545
Fe17 Fe3 2.430914 1_555
Fe17 Fe5 2.430914 1_555
Fe17 Fe18 2.537908 1_555
Fe17 Fe8 2.591792 1_555
Fe17 Fe7 2.591792 1_555
Fe17 Lu3 2.958393 1_554
Fe17 Lu1 2.958393 1_554
Fe17 Lu5 2.958393 1_554
Fe18 Fe3 2.430914 1_555
Fe18 Fe4 2.430914 1_555
Fe18 Fe2 2.430914 1_555
Fe18 Fe9 2.591796 1_555
Fe18 Fe7 2.591796 1_555
Fe18 Fe8 2.591796 1_555
Fe18 Lu0 2.958393 1_555
Fe18 Lu5 2.958393 1_555
Fe18 Lu4 2.958393 1_555
Fe19 Fe5 2.430914 1_656
Fe19 Fe6 2.430914 1_665
Fe19 Fe4 2.430914 1_655
Fe19 Fe22 2.537908 1_555
Fe19 Fe20 2.537908 1_555
Fe19 Fe21 2.537908 1_555
Fe19 Lu3 2.958393 1_655
Fe19 Lu4 2.958393 1_655
Fe19 Lu5 2.958393 1_655
Fe20 Fe6 2.430914 1_665
Fe20 Fe22 2.537908 1_555
Fe20 Fe21 2.537908 1_555
Fe20 Lu1 2.958393 1_565
Fe20 Lu5 2.958393 1_565
Fe20 Lu0 2.958393 1_565
Fe21 Fe5 2.430914 1_656
Fe21 Fe3 2.430914 1_556
Fe21 Fe22 2.537908 1_555
Fe21 Lu2 2.958393 1_556
Fe21 Lu0 2.958393 1_556
Fe21 Lu4 2.958393 1_556
Fe22 Fe3 2.430914 1_556
Fe22 Fe4 2.430914 1_655
Fe22 Lu1 2.958393 1_555
Fe22 Lu2 2.958393 1_555
Fe22 Lu3 2.958393 1_555
