# generated using pymatgen
data_Sm3Lu
_symmetry_space_group_name_H-M   'P 1'
_cell_length_a   7.33024053
_cell_length_b   7.33024053
_cell_length_c   5.70535683
_cell_angle_alpha   90.00000000
_cell_angle_beta   90.00000000
_cell_angle_gamma   119.99999702
_symmetry_Int_Tables_number   1
_chemical_formula_structural   Sm3Lu
_chemical_formula_sum   'Sm6 Lu2'
_cell_volume   265.49106370
_cell_formula_units_Z   2
loop_
 _symmetry_equiv_pos_site_id
 _symmetry_equiv_pos_as_xyz
  1  'x, y, z'
loop_
 _atom_site_type_symbol
 _atom_site_label
 _atom_site_symmetry_multiplicity
 _atom_site_fract_x
 _atom_site_fract_y
 _atom_site_fract_z
 _atom_site_occupancy
  Sm  Sm0  1  0.16830406  0.33660611  0.25000000  1
  Sm  Sm1  1  0.66339389  0.83169594  0.25000000  1
  Sm  Sm2  1  0.16830406  0.83169594  0.25000000  1
  Sm  Sm3  1  0.83169594  0.66339389  0.75000000  1
  Sm  Sm4  1  0.33660611  0.16830406  0.75000000  1
  Sm  Sm5  1  0.83169594  0.16830406  0.75000000  1
  Lu  Lu0  1  0.33333300  0.66666700  0.75000000  1
  Lu  Lu1  1  0.66666700  0.33333300  0.25000000  1
loop_
_geom_bond_atom_site_label_1
_geom_bond_atom_site_label_2
_geom_bond_distance
_geom_bond_site_symmetry_2
Sm0 Sm4 3.564236 1_555
Sm0 Sm4 3.564236 1_554
Sm0 Sm5 3.564252 1_454
Sm0 Sm5 3.564252 1_455
Sm0 Sm2 3.629128 1_555
Sm0 Sm1 3.629128 1_555
Sm0 Sm2 3.701113 1_545
Sm0 Sm1 3.701113 1_445
Sm1 Sm3 3.564236 1_554
Sm1 Sm3 3.564236 1_555
Sm1 Sm5 3.564252 1_565
Sm1 Sm5 3.564252 1_564
Sm1 Sm2 3.629128 1_555
Sm1 Sm2 3.701113 1_655
Sm2 Sm3 3.564252 1_455
Sm2 Sm3 3.564252 1_454
Sm2 Sm4 3.564252 1_564
Sm2 Sm4 3.564252 1_565
Sm3 Sm5 3.629128 1_555
Sm3 Sm4 3.629128 1_555
Sm3 Sm5 3.701113 1_565
Sm3 Sm4 3.701113 1_665
Sm4 Sm5 3.629128 1_555
Sm4 Sm5 3.701113 1_455
Lu0 Sm2 3.539479 1_556
Lu0 Sm2 3.539479 1_555
Lu0 Sm0 3.539490 1_556
Lu0 Sm0 3.539490 1_555
Lu0 Sm1 3.539490 1_556
Lu0 Sm1 3.539490 1_555
Lu0 Sm3 3.665175 1_555
Lu0 Sm4 3.665175 1_555
Lu0 Sm5 3.665179 1_455
Lu0 Sm5 3.665179 1_565
Lu0 Sm3 3.665183 1_455
Lu0 Sm4 3.665183 1_565
Lu1 Sm5 3.539479 1_554
Lu1 Sm5 3.539479 1_555
Lu1 Sm4 3.539490 1_555
Lu1 Sm4 3.539490 1_554
Lu1 Sm3 3.539490 1_555
Lu1 Sm3 3.539490 1_554
Lu1 Sm1 3.665175 1_555
Lu1 Sm0 3.665175 1_555
Lu1 Sm2 3.665179 1_545
Lu1 Sm2 3.665179 1_655
Lu1 Sm1 3.665183 1_545
Lu1 Sm0 3.665183 1_655
