# generated using pymatgen
data_Zr6P2O
_symmetry_space_group_name_H-M   'P 1'
_cell_length_a   5.68911764
_cell_length_b   5.68911764
_cell_length_c   8.37801783
_cell_angle_alpha   88.13742065
_cell_angle_beta   88.13742065
_cell_angle_gamma   36.16943298
_symmetry_Int_Tables_number   1
_chemical_formula_structural   Zr6P2O
_chemical_formula_sum   'Zr6 P2 O1'
_cell_volume   159.94032169
_cell_formula_units_Z   1
loop_
 _symmetry_equiv_pos_site_id
 _symmetry_equiv_pos_as_xyz
  1  'x, y, z'
loop_
 _atom_site_type_symbol
 _atom_site_label
 _atom_site_symmetry_multiplicity
 _atom_site_fract_x
 _atom_site_fract_y
 _atom_site_fract_z
 _atom_site_occupancy
  Zr  Zr0  1  0.86222017  0.86222017  0.54896099  1
  Zr  Zr1  1  0.13777983  0.13777983  0.45103901  1
  Zr  Zr2  1  0.85959308  0.85959308  0.94123846  1
  Zr  Zr3  1  0.14040692  0.14040692  0.05876154  1
  Zr  Zr4  1  0.56283267  0.56283267  0.75425363  1
  Zr  Zr5  1  0.43716733  0.43716733  0.24574637  1
  P  P0  1  0.25280059  0.25280059  0.75029754  1
  P  P1  1  0.74719941  0.74719941  0.24970246  1
  O  O0  1  0.50000000  0.50000000  0.50000000  1
loop_
_geom_bond_atom_site_label_1
_geom_bond_atom_site_label_2
_geom_bond_distance
_geom_bond_site_symmetry_2
P0 Zr2 2.671798 1_545
P0 Zr2 2.671798 1_455
P0 Zr0 2.688553 1_545
P0 Zr0 2.688553 1_455
P0 Zr4 2.708723 1_545
P0 Zr4 2.708723 1_455
P0 Zr3 2.818102 1_556
P0 Zr1 2.836732 1_555
P1 Zr3 2.671798 1_565
P1 Zr3 2.671798 1_655
P1 Zr1 2.688553 1_565
P1 Zr1 2.688553 1_655
P1 Zr5 2.708723 1_565
P1 Zr5 2.708723 1_655
P1 Zr2 2.818102 1_554
P1 Zr0 2.836732 1_555
O0 Zr4 2.257955 1_555
O0 Zr5 2.257955 1_555
O0 Zr0 2.337982 1_545
O0 Zr0 2.337982 1_455
O0 Zr1 2.337982 1_565
O0 Zr1 2.337982 1_655
