# generated using pymatgen
data_Te3W2Se
_symmetry_space_group_name_H-M   'P 1'
_cell_length_a   3.49748984
_cell_length_b   3.49748984
_cell_length_c   39.69917000
_cell_angle_alpha   90.00000000
_cell_angle_beta   90.00000000
_cell_angle_gamma   119.99999690
_symmetry_Int_Tables_number   1
_chemical_formula_structural   Te3W2Se
_chemical_formula_sum   'Te6 W4 Se2'
_cell_volume   420.55712427
_cell_formula_units_Z   2
loop_
 _symmetry_equiv_pos_site_id
 _symmetry_equiv_pos_as_xyz
  1  'x, y, z'
loop_
 _atom_site_type_symbol
 _atom_site_label
 _atom_site_symmetry_multiplicity
 _atom_site_fract_x
 _atom_site_fract_y
 _atom_site_fract_z
 _atom_site_occupancy
  Te  Te0  1  0.00000000  0.00000000  0.32819800  1
  Te  Te1  1  0.00000000  0.00000000  0.70395300  1
  Te  Te2  1  0.33333300  0.66666700  0.42325900  1
  Te  Te3  1  0.33333300  0.66666700  0.51607600  1
  Te  Te4  1  0.00000000  0.00000000  0.23537700  1
  Te  Te5  1  0.00000000  0.00000000  0.61111500  1
  W  W0  1  0.00000000  0.00000000  0.09391300  1
  W  W1  1  0.00000000  0.00000000  0.46966100  1
  W  W2  1  0.33333300  0.66666700  0.28177600  1
  W  W3  1  0.33333300  0.66666700  0.65755000  1
  Se  Se0  1  0.33333300  0.66666700  0.05304800  1
  Se  Se1  1  0.33333300  0.66666700  0.13482300  1
loop_
_geom_bond_atom_site_label_1
_geom_bond_atom_site_label_2
_geom_bond_distance
_geom_bond_site_symmetry_2
Te0 W2 2.733826 1_545
Te0 W2 2.733828 1_445
Te0 W2 2.733828 1_555
Te1 W3 2.733318 1_545
Te1 W3 2.733320 1_445
Te1 W3 2.733320 1_555
Te2 W1 2.733291 1_565
Te2 W1 2.733293 1_555
Te2 W1 2.733293 1_665
Te3 W1 2.733639 1_565
Te3 W1 2.733641 1_555
Te3 W1 2.733641 1_665
Te4 W2 2.733211 1_545
Te4 W2 2.733213 1_555
Te4 W2 2.733213 1_445
Te5 W3 2.734174 1_545
Te5 W3 2.734176 1_555
Te5 W3 2.734176 1_445
Se0 W0 2.590241 1_565
Se0 W0 2.590243 1_665
Se0 W0 2.590243 1_555
Se1 W0 2.591360 1_565
Se1 W0 2.591363 1_665
Se1 W0 2.591363 1_555
