# generated using pymatgen
data_BaFe3Si4SO11
_symmetry_space_group_name_H-M   'P 1'
_cell_length_a   5.34980700
_cell_length_b   9.30648300
_cell_length_c   20.02552000
_cell_angle_alpha   90.00000000
_cell_angle_beta   90.00000000
_cell_angle_gamma   90.00000000
_symmetry_Int_Tables_number   1
_chemical_formula_structural   BaFe3Si4SO11
_chemical_formula_sum   'Ba4 Fe12 Si16 S4 O44'
_cell_volume   997.02834487
_cell_formula_units_Z   4
loop_
 _symmetry_equiv_pos_site_id
 _symmetry_equiv_pos_as_xyz
  1  'x, y, z'
loop_
 _atom_site_type_symbol
 _atom_site_label
 _atom_site_symmetry_multiplicity
 _atom_site_fract_x
 _atom_site_fract_y
 _atom_site_fract_z
 _atom_site_occupancy
  Ba  Ba0  1  0.66799600  0.00000000  0.24881100  1
  Ba  Ba1  1  0.33200400  0.00000000  0.75118900  1
  Ba  Ba2  1  0.83200400  0.50000000  0.74881100  1
  Ba  Ba3  1  0.16799600  0.50000000  0.25118900  1
  Fe  Fe0  1  0.00000000  0.33428500  0.50000000  1
  Fe  Fe1  1  0.00000000  0.66571500  0.50000000  1
  Fe  Fe2  1  0.50000000  0.16571500  0.00000000  1
  Fe  Fe3  1  0.50000000  0.83428500  0.00000000  1
  Fe  Fe4  1  0.00000000  0.35048600  0.00000000  1
  Fe  Fe5  1  0.00000000  0.64951400  0.00000000  1
  Fe  Fe6  1  0.50000000  0.14951400  0.50000000  1
  Fe  Fe7  1  0.50000000  0.85048600  0.50000000  1
  Fe  Fe8  1  0.00000000  0.00000000  0.50000000  1
  Fe  Fe9  1  0.50000000  0.50000000  0.00000000  1
  Fe  Fe10  1  0.00000000  0.00000000  0.00000000  1
  Fe  Fe11  1  0.50000000  0.50000000  0.50000000  1
  Si  Si0  1  0.16777900  0.16657300  0.13832100  1
  Si  Si1  1  0.83222100  0.83342700  0.86167900  1
  Si  Si2  1  0.83222100  0.16657300  0.86167900  1
  Si  Si3  1  0.33222100  0.33342700  0.63832100  1
  Si  Si4  1  0.16777900  0.83342700  0.13832100  1
  Si  Si5  1  0.66777900  0.66657300  0.36167900  1
  Si  Si6  1  0.66777900  0.33342700  0.36167900  1
  Si  Si7  1  0.33222100  0.66657300  0.63832100  1
  Si  Si8  1  0.16824600  0.16787800  0.36087600  1
  Si  Si9  1  0.83175400  0.83212200  0.63912400  1
  Si  Si10  1  0.83175400  0.16787800  0.63912400  1
  Si  Si11  1  0.33175400  0.33212200  0.86087600  1
  Si  Si12  1  0.16824600  0.83212200  0.36087600  1
  Si  Si13  1  0.66824600  0.66787800  0.13912400  1
  Si  Si14  1  0.66824600  0.33212200  0.13912400  1
  Si  Si15  1  0.33175400  0.66787800  0.86087600  1
  S  S0  1  0.66449400  0.00000000  0.08687700  1
  S  S1  1  0.33550600  0.00000000  0.91312300  1
  S  S2  1  0.83550600  0.50000000  0.58687700  1
  S  S3  1  0.16449400  0.50000000  0.41312300  1
  O  O0  1  0.16818900  0.00000000  0.17369800  1
  O  O1  1  0.83181100  0.00000000  0.82630200  1
  O  O2  1  0.33181100  0.50000000  0.67369800  1
  O  O3  1  0.66818900  0.50000000  0.32630200  1
  O  O4  1  0.16053400  0.17092000  0.05867700  1
  O  O5  1  0.83946600  0.82908000  0.94132300  1
  O  O6  1  0.83946600  0.17092000  0.94132300  1
  O  O7  1  0.33946600  0.32908000  0.55867700  1
  O  O8  1  0.16053400  0.82908000  0.05867700  1
  O  O9  1  0.66053400  0.67092000  0.44132300  1
  O  O10  1  0.66053400  0.32908000  0.44132300  1
  O  O11  1  0.33946600  0.67092000  0.55867700  1
  O  O12  1  0.41350600  0.25411300  0.17370800  1
  O  O13  1  0.58649400  0.74588700  0.82629200  1
  O  O14  1  0.58649400  0.25411300  0.82629200  1
  O  O15  1  0.08649400  0.24588700  0.67370800  1
  O  O16  1  0.41350600  0.74588700  0.17370800  1
  O  O17  1  0.91350600  0.75411300  0.32629200  1
  O  O18  1  0.91350600  0.24588700  0.32629200  1
  O  O19  1  0.08649400  0.75411300  0.67370800  1
  O  O20  1  0.16596500  0.17137100  0.43997300  1
  O  O21  1  0.83403500  0.82862900  0.56002700  1
  O  O22  1  0.83403500  0.17137100  0.56002700  1
  O  O23  1  0.33403500  0.32862900  0.93997300  1
  O  O24  1  0.16596500  0.82862900  0.43997300  1
  O  O25  1  0.66596500  0.67137100  0.06002700  1
  O  O26  1  0.66596500  0.32862900  0.06002700  1
  O  O27  1  0.33403500  0.67137100  0.93997300  1
  O  O28  1  0.17034300  0.00000000  0.32826500  1
  O  O29  1  0.82965700  0.00000000  0.67173500  1
  O  O30  1  0.32965700  0.50000000  0.82826500  1
  O  O31  1  0.67034300  0.50000000  0.17173500  1
  O  O32  1  0.31577700  0.00000000  0.55668200  1
  O  O33  1  0.68422300  0.00000000  0.44331800  1
  O  O34  1  0.18422300  0.50000000  0.05668200  1
  O  O35  1  0.81577700  0.50000000  0.94331800  1
  O  O36  1  0.42347400  0.24505700  0.32604000  1
  O  O37  1  0.57652600  0.75494300  0.67396000  1
  O  O38  1  0.57652600  0.24505700  0.67396000  1
  O  O39  1  0.07652600  0.25494300  0.82604000  1
  O  O40  1  0.42347400  0.75494300  0.32604000  1
  O  O41  1  0.92347400  0.74505700  0.17396000  1
  O  O42  1  0.92347400  0.25494300  0.17396000  1
  O  O43  1  0.07652600  0.74505700  0.82604000  1
loop_
_geom_bond_atom_site_label_1
_geom_bond_atom_site_label_2
_geom_bond_distance
_geom_bond_site_symmetry_2
Ba0 O36 3.050293 1_555
Ba0 O40 3.050293 1_545
Ba0 O18 3.060894 1_555
Ba0 O17 3.060894 1_545
Ba0 O0 3.067920 1_555
Ba0 O0 3.069720 1_655
Ba0 O28 3.101567 1_555
Ba0 O12 3.115814 1_555
Ba0 O16 3.115814 1_545
Ba0 O42 3.121563 1_555
Ba0 O41 3.121563 1_545
Ba0 O28 3.123149 1_655
Ba0 S0 3.242867 1_555
Ba1 O38 3.050293 1_555
Ba1 O37 3.050293 1_545
Ba1 O15 3.060894 1_555
Ba1 O19 3.060894 1_545
Ba1 O1 3.067920 1_555
Ba1 O1 3.069720 1_455
Ba1 O29 3.101567 1_555
Ba1 O13 3.115814 1_545
Ba1 O14 3.115814 1_555
Ba1 O43 3.121563 1_545
Ba1 O39 3.121563 1_555
Ba1 O29 3.123149 1_455
Ba1 S1 3.242867 1_555
Ba2 O43 3.050293 1_655
Ba2 O39 3.050293 1_655
Ba2 O13 3.060894 1_555
Ba2 O14 3.060894 1_555
Ba2 O2 3.067920 1_655
Ba2 O2 3.069720 1_555
Ba2 O30 3.101567 1_655
Ba2 O19 3.115814 1_655
Ba2 O15 3.115814 1_655
Ba2 O37 3.121563 1_555
Ba2 O38 3.121563 1_555
Ba2 O30 3.123149 1_555
Ba2 S2 3.242867 1_555
Ba3 O41 3.050293 1_455
Ba3 O42 3.050293 1_455
Ba3 O16 3.060894 1_555
Ba3 O12 3.060894 1_555
Ba3 O3 3.067920 1_455
Ba3 O3 3.069720 1_555
Ba3 O31 3.101567 1_455
Ba3 O17 3.115814 1_455
Ba3 O18 3.115814 1_455
Ba3 O40 3.121563 1_555
Ba3 O36 3.121563 1_555
Ba3 O31 3.123149 1_555
Ba3 S3 3.242867 1_555
Fe0 O22 2.128859 1_455
Fe0 O20 2.128859 1_555
Fe0 O7 2.163607 1_555
Fe0 O10 2.163607 1_455
Fe0 S2 2.485886 1_455
Fe0 S3 2.485886 1_555
Fe1 O21 2.128859 1_455
Fe1 O24 2.128859 1_555
Fe1 O11 2.163607 1_555
Fe1 O9 2.163607 1_455
Fe1 S2 2.485886 1_455
Fe1 S3 2.485886 1_555
Fe2 O26 2.128859 1_555
Fe2 O23 2.128859 1_554
Fe2 O4 2.163607 1_555
Fe2 O6 2.163607 1_554
Fe2 S0 2.485886 1_555
Fe2 S1 2.485886 1_554
Fe3 O25 2.128859 1_555
Fe3 O27 2.128859 1_554
Fe3 O8 2.163607 1_555
Fe3 O5 2.163607 1_554
Fe3 S0 2.485886 1_565
Fe3 S1 2.485886 1_564
Fe4 O34 2.048384 1_555
Fe4 O35 2.048384 1_454
Fe4 O23 2.163285 1_554
Fe4 O26 2.163285 1_455
Fe4 O4 2.216069 1_555
Fe4 O6 2.216069 1_454
Fe5 O34 2.048384 1_555
Fe5 O35 2.048384 1_454
Fe5 O27 2.163285 1_554
Fe5 O25 2.163285 1_455
Fe5 O8 2.216069 1_555
Fe5 O5 2.216069 1_454
Fe6 O33 2.048384 1_555
Fe6 O32 2.048384 1_555
Fe6 O22 2.163285 1_555
Fe6 O20 2.163285 1_555
Fe6 O7 2.216069 1_555
Fe6 O10 2.216069 1_555
Fe7 O33 2.048384 1_565
Fe7 O32 2.048384 1_565
Fe7 O21 2.163285 1_555
Fe7 O24 2.163285 1_555
Fe7 O11 2.216069 1_555
Fe7 O9 2.216069 1_555
Fe8 O32 2.035267 1_555
Fe8 O33 2.035267 1_455
Fe8 O22 2.185610 1_455
Fe8 O21 2.185610 1_445
Fe8 O20 2.185610 1_555
Fe8 O24 2.185610 1_545
Fe9 O34 2.035267 1_555
Fe9 O35 2.035267 1_554
Fe9 O25 2.185610 1_555
Fe9 O27 2.185610 1_554
Fe9 O26 2.185610 1_555
Fe9 O23 2.185610 1_554
Fe10 O8 2.156040 1_545
Fe10 O4 2.156040 1_555
Fe10 O5 2.156040 1_444
Fe10 O6 2.156040 1_454
Fe10 S0 2.499679 1_455
Fe10 S1 2.499679 1_554
Fe11 O7 2.156040 1_555
Fe11 O11 2.156040 1_555
Fe11 O10 2.156040 1_555
Fe11 O9 2.156040 1_555
Fe11 S2 2.499679 1_555
Fe11 S3 2.499679 1_555
O0 Si0 1.704419 1_555
O0 Si4 1.704419 1_545
O1 Si2 1.704419 1_555
O1 Si1 1.704419 1_545
O2 Si7 1.704419 1_555
O2 Si3 1.704419 1_555
O3 Si5 1.704419 1_555
O3 Si6 1.704419 1_555
O4 Si0 1.595896 1_555
O5 Si1 1.595896 1_555
O6 Si2 1.595896 1_555
O7 Si3 1.595896 1_555
O8 Si4 1.595896 1_555
O9 Si5 1.595896 1_555
O10 Si6 1.595896 1_555
O11 Si7 1.595896 1_555
O12 Si14 1.692322 1_555
O12 Si0 1.701190 1_555
O13 Si15 1.692322 1_555
O13 Si1 1.701190 1_555
O14 Si11 1.692322 1_555
O14 Si2 1.701190 1_555
O15 Si10 1.692322 1_455
O15 Si3 1.701190 1_555
O16 Si13 1.692322 1_555
O16 Si4 1.701190 1_555
O17 Si12 1.692322 1_655
O17 Si5 1.701190 1_555
O18 Si8 1.692322 1_655
O18 Si6 1.701190 1_555
O19 Si9 1.692322 1_455
O19 Si7 1.701190 1_555
O20 Si8 1.584339 1_555
O21 Si9 1.584339 1_555
O22 Si10 1.584339 1_555
O23 Si11 1.584339 1_555
O24 Si12 1.584339 1_555
O25 Si13 1.584339 1_555
O26 Si14 1.584339 1_555
O27 Si15 1.584339 1_555
O28 Si8 1.693385 1_555
O28 Si12 1.693385 1_545
O29 Si10 1.693385 1_555
O29 Si9 1.693385 1_545
O30 Si15 1.693385 1_555
O30 Si11 1.693385 1_555
O31 Si13 1.693385 1_555
O31 Si14 1.693385 1_555
O36 Si8 1.693203 1_555
O36 Si6 1.701154 1_555
O37 Si9 1.693203 1_555
O37 Si7 1.701154 1_555
O38 Si10 1.693203 1_555
O38 Si3 1.701154 1_555
O39 Si11 1.693203 1_555
O39 Si2 1.701154 1_455
O40 Si12 1.693203 1_555
O40 Si5 1.701154 1_555
O41 Si13 1.693203 1_555
O41 Si4 1.701154 1_655
O42 Si14 1.693203 1_555
O42 Si0 1.701154 1_655
O43 Si15 1.693203 1_555
O43 Si1 1.701154 1_455
