# generated using pymatgen
data_K6Rh2(C4O11)3
_symmetry_space_group_name_H-M   'P 1'
_cell_length_a   6.89269400
_cell_length_b   10.39212600
_cell_length_c   12.58063732
_cell_angle_alpha   78.07676154
_cell_angle_beta   88.49234477
_cell_angle_gamma   86.64953164
_symmetry_Int_Tables_number   1
_chemical_formula_structural   K6Rh2(C4O11)3
_chemical_formula_sum   'K6 Rh2 C12 O33'
_cell_volume   880.10524492
_cell_formula_units_Z   1
loop_
 _symmetry_equiv_pos_site_id
 _symmetry_equiv_pos_as_xyz
  1  'x, y, z'
loop_
 _atom_site_type_symbol
 _atom_site_label
 _atom_site_symmetry_multiplicity
 _atom_site_fract_x
 _atom_site_fract_y
 _atom_site_fract_z
 _atom_site_occupancy
  K  K0  1  0.27963900  0.31767000  0.32191400  1
  K  K1  1  0.73941800  0.70441400  0.65526700  1
  K  K2  1  0.45132500  0.86500100  0.91980600  1
  K  K3  1  0.55062200  0.14495100  0.08188500  1
  K  K4  1  0.73975900  0.25213800  0.54465500  1
  K  K5  1  0.26233500  0.75006500  0.44967700  1
  Rh  Rh0  1  0.16365100  0.18495400  0.71119400  1
  Rh  Rh1  1  0.83961100  0.81417400  0.28591800  1
  C  C0  1  0.99850400  0.15574100  0.92151400  1
  C  C1  1  0.00148200  0.84061700  0.07485000  1
  C  C2  1  0.84515200  0.10703100  0.85091600  1
  C  C3  1  0.15319500  0.89518000  0.14361700  1
  C  C4  1  0.36089000  0.42205200  0.64603500  1
  C  C5  1  0.64703400  0.57702200  0.35707900  1
  C  C6  1  0.31094200  0.95872000  0.63775700  1
  C  C7  1  0.69140100  0.04258700  0.35734400  1
  C  C8  1  0.13959300  0.46292300  0.64745700  1
  C  C9  1  0.86791300  0.53697800  0.35276400  1
  C  C10  1  0.22505700  0.05430000  0.53634600  1
  C  C11  1  0.78009100  0.94928600  0.45868200  1
  O  O0  1  0.68335100  0.07693600  0.88928200  1
  O  O1  1  0.31206800  0.93023800  0.10414300  1
  O  O2  1  0.22754400  0.02282000  0.44678400  1
  O  O3  1  0.77722400  0.98081600  0.54827400  1
  O  O4  1  0.48320900  0.50625500  0.62287800  1
  O  O5  1  0.52607200  0.49254300  0.38506000  1
  O  O6  1  0.15711500  0.16954300  0.55199900  1
  O  O7  1  0.84993100  0.83394900  0.44382300  1
  O  O8  1  0.02564900  0.36686100  0.68196300  1
  O  O9  1  0.98080200  0.63355000  0.31734900  1
  O  O10  1  0.90642900  0.10033400  0.75327500  1
  O  O11  1  0.09353200  0.90067000  0.24164500  1
  O  O12  1  0.30436200  0.00365300  0.72724100  1
  O  O13  1  0.69559100  0.99529800  0.26896700  1
  O  O14  1  0.08162700  0.57947300  0.61664800  1
  O  O15  1  0.92784900  0.42078400  0.38281300  1
  O  O16  1  0.95242100  0.15838800  0.01766500  1
  O  O17  1  0.04592900  0.83765800  0.97861900  1
  O  O18  1  0.40218600  0.29483600  0.66922500  1
  O  O19  1  0.60293900  0.70360900  0.33132400  1
  O  O20  1  0.38323400  0.84872800  0.63038700  1
  O  O21  1  0.61843700  0.15239700  0.36426700  1
  O  O22  1  0.26551400  0.39309300  0.96735500  1
  O  O23  1  0.53750700  0.51953000  0.10452500  1
  O  O24  1  0.82693100  0.78296900  0.85705100  1
  O  O25  1  0.16302400  0.20794400  0.14274700  1
  O  O26  1  0.49404100  0.59991100  0.85021900  1
  O  O27  1  0.57818600  0.39542300  0.15198600  1
  O  O28  1  0.62746900  0.51408800  0.86959500  1
  O  O29  1  0.36680400  0.57003600  0.12785700  1
  O  O30  1  0.16253200  0.18634600  0.87410100  1
  O  O31  1  0.84013200  0.80610600  0.12402000  1
  O  O32  1  0.11974500  0.45441400  0.99423200  1
loop_
_geom_bond_atom_site_label_1
_geom_bond_atom_site_label_2
_geom_bond_distance
_geom_bond_site_symmetry_2
K0 O15 2.748196 1_455
K0 O5 2.801293 1_555
K0 O21 2.811701 1_555
K0 O25 2.879498 1_555
K0 O27 2.950714 1_555
K0 O6 3.105444 1_555
K0 O2 3.177353 1_555
K0 O29 3.265072 1_555
K1 O14 2.707018 1_655
K1 O20 2.791168 1_555
K1 O7 2.828794 1_555
K1 O4 2.887047 1_555
K1 O24 2.910167 1_555
K1 O3 2.932896 1_555
K1 O26 2.991841 1_555
K1 O28 3.105348 1_555
K2 O1 2.686170 1_556
K2 O12 2.736309 1_565
K2 O0 2.754253 1_565
K2 O24 2.822270 1_555
K2 O17 2.886744 1_555
K2 O26 3.054579 1_555
K3 O13 2.717768 1_545
K3 O0 2.779078 1_554
K3 O1 2.811996 1_545
K3 O25 2.836772 1_555
K3 O16 2.867595 1_555
K3 O27 2.933310 1_555
K3 O22 3.257166 1_554
K4 O15 2.747755 1_555
K4 O3 2.807390 1_545
K4 O18 2.835776 1_555
K4 O21 2.845517 1_555
K4 O6 2.951834 1_655
K4 O10 2.988785 1_555
K4 O8 3.097280 1_655
K4 O5 3.177276 1_555
K5 O14 2.772814 1_555
K5 O19 2.818202 1_555
K5 O2 2.823407 1_565
K5 O20 2.842006 1_555
K5 O7 2.922400 1_455
K5 O11 2.984586 1_555
K5 O9 3.046435 1_455
C0 O16 1.247954 1_556
C0 O30 1.289710 1_655
C1 O17 1.247090 1_554
C1 O31 1.291075 1_455
C2 O0 1.234756 1_555
C2 O10 1.302595 1_555
C3 O1 1.233602 1_555
C3 O11 1.301128 1_555
C4 O4 1.236683 1_555
C4 O18 1.309561 1_555
C5 O5 1.237827 1_555
C5 O19 1.307763 1_555
C6 O20 1.240257 1_555
C6 O12 1.303647 1_565
C7 O21 1.238724 1_555
C7 O13 1.304205 1_545
C8 O14 1.238741 1_555
C8 O8 1.302493 1_555
C9 O15 1.238117 1_555
C9 O9 1.303621 1_555
C10 O2 1.235926 1_555
C10 O6 1.311267 1_555
C11 O3 1.236462 1_555
C11 O7 1.312904 1_555
O6 Rh0 2.043749 1_555
O7 Rh1 2.042422 1_555
O8 Rh0 2.033376 1_555
O9 Rh1 2.031469 1_555
O10 Rh0 2.034066 1_655
O11 Rh1 2.026605 1_455
O12 Rh0 2.042255 1_555
O13 Rh1 2.049560 1_555
O18 Rh0 2.051975 1_555
O19 Rh1 2.050984 1_555
O22 O32 1.235414 1_555
O23 O29 1.311237 1_555
O23 O27 1.321700 1_555
O26 O28 1.235626 1_555
O30 Rh0 2.052320 1_555
O31 Rh1 2.055641 1_555
