# generated using pymatgen
data_Sr16Mn8O29
_symmetry_space_group_name_H-M   'P 1'
_cell_length_a   9.49186800
_cell_length_b   9.52975981
_cell_length_c   9.75549161
_cell_angle_alpha   79.79225115
_cell_angle_beta   79.38948271
_cell_angle_gamma   78.48173735
_symmetry_Int_Tables_number   1
_chemical_formula_structural   Sr16Mn8O29
_chemical_formula_sum   'Sr16 Mn8 O29'
_cell_volume   840.79393760
_cell_formula_units_Z   1
loop_
 _symmetry_equiv_pos_site_id
 _symmetry_equiv_pos_as_xyz
  1  'x, y, z'
loop_
 _atom_site_type_symbol
 _atom_site_label
 _atom_site_symmetry_multiplicity
 _atom_site_fract_x
 _atom_site_fract_y
 _atom_site_fract_z
 _atom_site_occupancy
  Sr  Sr0  1  0.69740900  0.63079300  0.00994000  1
  Sr  Sr1  1  0.29668000  0.76583600  0.89147800  1
  Sr  Sr2  1  0.06158800  0.14857000  0.21791400  1
  Sr  Sr3  1  0.52916900  0.06047800  0.23961600  1
  Sr  Sr4  1  0.03571700  0.51910300  0.17315700  1
  Sr  Sr5  1  0.40998600  0.50212200  0.24732900  1
  Sr  Sr6  1  0.72339600  0.21871700  0.42601100  1
  Sr  Sr7  1  0.24346400  0.19830200  0.47427600  1
  Sr  Sr8  1  0.74343100  0.83433600  0.53098300  1
  Sr  Sr9  1  0.34060400  0.82661400  0.51725200  1
  Sr  Sr10  1  0.58598400  0.53936300  0.73718700  1
  Sr  Sr11  1  0.04332500  0.53791900  0.79527400  1
  Sr  Sr12  1  0.50208000  0.05824100  0.70746000  1
  Sr  Sr13  1  0.95769200  0.94652500  0.73008200  1
  Sr  Sr14  1  0.77928600  0.24850200  0.96913000  1
  Sr  Sr15  1  0.36099500  0.30604000  0.97014100  1
  Mn  Mn0  1  0.23928400  0.86358600  0.16104600  1
  Mn  Mn1  1  0.52055300  0.92375600  0.00351200  1
  Mn  Mn2  1  0.08685600  0.64534600  0.44158700  1
  Mn  Mn3  1  0.73620600  0.56366100  0.39098700  1
  Mn  Mn4  1  0.32904500  0.43565800  0.60774400  1
  Mn  Mn5  1  0.92337900  0.33624100  0.62215400  1
  Mn  Mn6  1  0.15761800  0.13447800  0.85573300  1
  Mn  Mn7  1  0.87613800  0.88725200  0.10513300  1
  O  O0  1  0.56278400  0.78743500  0.80987200  1
  O  O1  1  0.94973400  0.72668100  0.98066100  1
  O  O2  1  0.80271300  0.06216200  0.20509300  1
  O  O3  1  0.25922500  0.97930100  0.31187500  1
  O  O4  1  0.43360400  0.75489000  0.10190200  1
  O  O5  1  0.16987500  0.68386000  0.23676700  1
  O  O6  1  0.67809300  0.85349600  0.11695200  1
  O  O7  1  0.77485600  0.47207800  0.23420200  1
  O  O8  1  0.25372800  0.33123000  0.21770600  1
  O  O9  1  0.28391100  0.60440600  0.47158000  1
  O  O10  1  0.58350400  0.66983400  0.48154500  1
  O  O11  1  0.89631700  0.65549800  0.36428800  1
  O  O12  1  0.98140100  0.22891700  0.46792500  1
  O  O13  1  0.45525500  0.33173800  0.46811400  1
  O  O14  1  0.51201300  0.99617600  0.47692800  1
  O  O15  1  0.00503800  0.74756300  0.59708300  1
  O  O16  1  0.08624400  0.43372300  0.56613600  1
  O  O17  1  0.30708500  0.26323000  0.73780600  1
  O  O18  1  0.74843900  0.42143100  0.54277500  1
  O  O19  1  0.83148700  0.44983600  0.77783100  1
  O  O20  1  0.31295200  0.55176900  0.76456600  1
  O  O21  1  0.06438500  0.94352900  0.06816100  1
  O  O22  1  0.58012900  0.10549200  0.94880000  1
  O  O23  1  0.98267300  0.18485100  0.76510700  1
  O  O24  1  0.31573200  0.01567500  0.99404000  1
  O  O25  1  0.75559100  0.04339100  0.62104000  1
  O  O26  1  0.22660900  0.98038200  0.72913800  1
  O  O27  1  0.07893600  0.28534300  0.97848300  1
  O  O28  1  0.55720600  0.43394600  0.00459500  1
loop_
_geom_bond_atom_site_label_1
_geom_bond_atom_site_label_2
_geom_bond_distance
_geom_bond_site_symmetry_2
Mn0 O5 1.932924 1_555
Mn0 O4 1.965916 1_555
Mn0 O21 1.990399 1_555
Mn0 O3 2.043997 1_555
Mn0 O24 2.104589 1_564
Mn1 O22 1.885860 1_564
Mn1 O6 1.963676 1_555
Mn1 O4 1.970617 1_555
Mn1 O24 1.978098 1_564
Mn1 O0 2.408292 1_554
Mn2 O9 1.898934 1_555
Mn2 O15 1.908110 1_555
Mn2 O5 2.005960 1_555
Mn2 O11 2.062875 1_455
Mn2 O16 2.162653 1_555
Mn3 O10 1.778942 1_555
Mn3 O18 1.825487 1_555
Mn3 O7 1.836940 1_555
Mn3 O11 1.856891 1_555
Mn4 O17 1.911509 1_555
Mn4 O13 1.916966 1_555
Mn4 O9 1.926505 1_555
Mn4 O20 2.008645 1_555
Mn4 O16 2.416726 1_555
Mn5 O23 1.895962 1_555
Mn5 O12 1.904849 1_555
Mn5 O16 1.906281 1_655
Mn5 O18 1.930902 1_555
Mn5 O19 1.989203 1_555
Mn6 O23 1.959948 1_455
Mn6 O27 1.977573 1_555
Mn6 O26 2.017786 1_545
Mn6 O17 2.106076 1_555
Mn6 O24 2.209160 1_555
Mn6 O21 2.649564 1_546
Mn7 O21 1.920216 1_655
Mn7 O6 1.949108 1_555
Mn7 O2 2.019146 1_565
Mn7 O1 2.055068 1_554
O0 Sr1 2.542631 1_555
O0 Sr10 2.543390 1_555
O0 Sr12 2.587383 1_565
O0 Sr0 2.606649 1_556
O0 Sr8 2.949433 1_555
O1 Sr4 2.590120 1_656
O1 Sr0 2.679996 1_556
O1 Sr11 2.686842 1_655
O1 Sr13 2.924150 1_555
O2 Sr3 2.558886 1_555
O2 Sr14 2.661523 1_554
O2 Sr6 2.744255 1_555
O2 Sr2 2.772962 1_655
O3 Sr9 2.411617 1_555
O3 Sr2 2.421185 1_565
O3 Sr3 2.755679 1_565
O3 Sr7 2.801435 1_565
O4 Sr5 2.598592 1_555
O4 Sr1 2.601234 1_554
O4 Sr0 2.615264 1_555
O5 Sr4 2.430362 1_555
O5 Sr5 2.579018 1_555
O6 Sr0 2.487376 1_555
O6 Sr3 2.533970 1_565
O7 Sr4 2.547913 1_655
O7 Sr0 2.567078 1_555
O7 Sr6 2.846522 1_555
O8 Sr15 2.475763 1_554
O8 Sr5 2.494961 1_555
O8 Sr4 2.500460 1_555
O8 Sr7 2.591279 1_555
O8 Sr2 2.760689 1_555
O9 Sr9 2.418690 1_555
O9 Sr5 2.548330 1_555
O10 Sr9 2.486424 1_555
O10 Sr8 2.546072 1_555
O10 Sr10 2.583986 1_555
O11 Sr4 2.486067 1_655
O11 Sr8 2.603947 1_555
O12 Sr7 2.457026 1_655
O12 Sr6 2.579130 1_555
O12 Sr2 2.619112 1_655
O13 Sr5 2.506565 1_555
O13 Sr6 2.546303 1_555
O13 Sr7 2.571222 1_555
O14 Sr3 2.271538 1_565
O14 Sr12 2.405746 1_565
O14 Sr9 2.449871 1_555
O14 Sr8 2.503422 1_555
O14 Sr7 2.873029 1_565
O14 Sr6 3.119138 1_565
O15 Sr13 2.407770 1_455
O15 Sr11 2.541936 1_555
O15 Sr8 2.616532 1_455
O16 Sr11 2.537430 1_555
O16 Sr7 2.635606 1_555
O17 Sr12 2.426671 1_555
O17 Sr15 2.530557 1_555
O17 Sr7 2.939664 1_555
O18 Sr6 2.479714 1_555
O18 Sr10 2.494847 1_555
O19 Sr11 2.372197 1_655
O19 Sr10 2.396187 1_555
O19 Sr14 2.485873 1_555
O19 Sr0 3.027705 1_556
O20 Sr1 2.533239 1_555
O20 Sr10 2.536837 1_555
O20 Sr11 2.548635 1_555
O20 Sr15 2.821248 1_555
O21 Sr2 2.632458 1_565
O22 Sr15 2.533042 1_555
O22 Sr14 2.594792 1_555
O22 Sr12 2.728746 1_555
O22 Sr3 2.759167 1_556
O23 Sr13 2.418933 1_545
O23 Sr14 2.569351 1_555
O24 Sr15 2.846938 1_555
O25 Sr13 2.315146 1_545
O25 Sr6 2.321293 1_555
O25 Sr8 2.346007 1_545
O25 Sr12 2.383327 1_555
O26 Sr1 2.414111 1_555
O26 Sr13 2.634153 1_455
O26 Sr9 2.684681 1_555
O26 Sr12 2.819154 1_565
O26 Sr7 2.945541 1_565
O27 Sr2 2.459027 1_556
O27 Sr15 2.708919 1_555
O27 Sr11 2.734053 1_555
O27 Sr14 2.954148 1_455
O27 Sr4 3.095997 1_556
O28 Sr14 2.479256 1_554
O28 Sr15 2.519846 1_554
O28 Sr0 2.519908 1_555
O28 Sr10 2.609106 1_554
O28 Sr5 2.635588 1_555
