# generated using pymatgen
data_Sc2ZnCo
_symmetry_space_group_name_H-M   'P 1'
_cell_length_a   10.99315892
_cell_length_b   10.99315892
_cell_length_c   10.99315892
_cell_angle_alpha   126.24215303
_cell_angle_beta   118.42087905
_cell_angle_gamma   86.15004001
_symmetry_Int_Tables_number   1
_chemical_formula_structural   Sc2ZnCo
_chemical_formula_sum   'Sc2 Zn1 Co1'
_cell_volume   898.33523218
_cell_formula_units_Z   1
loop_
 _symmetry_equiv_pos_site_id
 _symmetry_equiv_pos_as_xyz
  1  'x, y, z'
loop_
 _atom_site_type_symbol
 _atom_site_label
 _atom_site_symmetry_multiplicity
 _atom_site_fract_x
 _atom_site_fract_y
 _atom_site_fract_z
 _atom_site_occupancy
  Sc  Sc0  1  0.00000000  0.20664300  0.20664300  1
  Sc  Sc1  1  0.00000000  0.79335700  0.79335700  1
  Zn  Zn0  1  0.00000000  0.50000000  0.50000000  1
  Co  Co0  1  0.00000000  0.00000000  0.00000000  1
loop_
_geom_bond_atom_site_label_1
_geom_bond_atom_site_label_2
_geom_bond_distance
_geom_bond_site_symmetry_2
Sc0 Zn0 2.916016 1_555
Sc1 Zn0 2.916016 1_555
Co0 Sc0 2.054064 1_555
Co0 Sc1 2.054064 1_544
