# generated using pymatgen
data_Cs2LaCl5
_symmetry_space_group_name_H-M   'P 1'
_cell_length_a   8.59100865
_cell_length_b   9.23679713
_cell_length_c   13.88469198
_cell_angle_alpha   90.00000000
_cell_angle_beta   90.00000000
_cell_angle_gamma   90.00000000
_symmetry_Int_Tables_number   1
_chemical_formula_structural   Cs2LaCl5
_chemical_formula_sum   'Cs8 La4 Cl20'
_cell_volume   1101.79757269
_cell_formula_units_Z   4
loop_
 _symmetry_equiv_pos_site_id
 _symmetry_equiv_pos_as_xyz
  1  'x, y, z'
loop_
 _atom_site_type_symbol
 _atom_site_label
 _atom_site_symmetry_multiplicity
 _atom_site_fract_x
 _atom_site_fract_y
 _atom_site_fract_z
 _atom_site_occupancy
  Cs  Cs0  1  0.94646311  0.00534888  0.82912934  1
  Cs  Cs1  1  0.05353689  0.99465112  0.17087066  1
  Cs  Cs2  1  0.44646311  0.99465112  0.67087066  1
  Cs  Cs3  1  0.05353689  0.50534888  0.17087066  1
  Cs  Cs4  1  0.55353689  0.00534888  0.32912934  1
  Cs  Cs5  1  0.94646311  0.49465112  0.82912934  1
  Cs  Cs6  1  0.55353689  0.49465112  0.32912934  1
  Cs  Cs7  1  0.44646311  0.50534888  0.67087066  1
  La  La0  1  0.93346029  0.75000000  0.50359166  1
  La  La1  1  0.06653971  0.25000000  0.49640834  1
  La  La2  1  0.43346029  0.25000000  0.99640834  1
  La  La3  1  0.56653971  0.75000000  0.00359166  1
  Cl  Cl0  1  0.11661990  0.75000000  0.67077789  1
  Cl  Cl1  1  0.88338010  0.25000000  0.32922211  1
  Cl  Cl2  1  0.61661990  0.25000000  0.82922211  1
  Cl  Cl3  1  0.38338010  0.75000000  0.17077789  1
  Cl  Cl4  1  0.84337597  0.04051793  0.57090779  1
  Cl  Cl5  1  0.15662403  0.95948207  0.42909221  1
  Cl  Cl6  1  0.34337597  0.95948207  0.92909221  1
  Cl  Cl7  1  0.15662403  0.54051793  0.42909221  1
  Cl  Cl8  1  0.65662403  0.04051793  0.07090779  1
  Cl  Cl9  1  0.84337597  0.45948207  0.57090779  1
  Cl  Cl10  1  0.65662403  0.45948207  0.07090779  1
  Cl  Cl11  1  0.34337597  0.54051793  0.92909221  1
  Cl  Cl12  1  0.60501975  0.75000000  0.51235700  1
  Cl  Cl13  1  0.39498025  0.25000000  0.48764300  1
  Cl  Cl14  1  0.10501975  0.25000000  0.98764300  1
  Cl  Cl15  1  0.89498025  0.75000000  0.01235700  1
  Cl  Cl16  1  0.65212491  0.75000000  0.80767204  1
  Cl  Cl17  1  0.34787509  0.25000000  0.19232796  1
  Cl  Cl18  1  0.15212491  0.25000000  0.69232796  1
  Cl  Cl19  1  0.84787509  0.75000000  0.30767204  1
loop_
_geom_bond_atom_site_label_1
_geom_bond_atom_site_label_2
_geom_bond_distance
_geom_bond_site_symmetry_2
Cl0 La0 2.804381 1_455
Cl0 Cs5 3.540345 1_455
Cl0 Cs0 3.540345 1_465
Cl0 Cs2 3.624423 1_555
Cl0 Cs7 3.624423 1_555
Cl1 La1 2.804381 1_655
Cl1 Cs1 3.540345 1_645
Cl1 Cs3 3.540345 1_655
Cl1 Cs6 3.624423 1_555
Cl1 Cs4 3.624423 1_555
Cl2 La2 2.804381 1_555
Cl2 Cs2 3.540345 1_545
Cl2 Cs7 3.540345 1_555
Cl2 Cs5 3.624423 1_555
Cl2 Cs0 3.624423 1_555
Cl3 La3 2.804381 1_555
Cl3 Cs6 3.540345 1_555
Cl3 Cs4 3.540345 1_565
Cl3 Cs3 3.624423 1_555
Cl3 Cs1 3.624423 1_555
Cl4 La1 2.913701 1_655
Cl4 La0 2.945076 1_545
Cl4 Cs2 3.705833 1_545
Cl4 Cs0 3.707347 1_555
Cl5 La0 2.913701 1_455
Cl5 La1 2.945076 1_565
Cl5 Cs4 3.705833 1_565
Cl5 Cs1 3.707347 1_555
Cl6 La3 2.913701 1_556
Cl6 La2 2.945076 1_565
Cl6 Cs0 3.705833 1_465
Cl6 Cs2 3.707347 1_555
Cl7 La0 2.913701 1_455
Cl7 La1 2.945076 1_555
Cl7 Cs6 3.705833 1_555
Cl7 Cs3 3.707347 1_555
Cl8 La2 2.913701 1_554
Cl8 La3 2.945076 1_545
Cl8 Cs1 3.705833 1_645
Cl8 Cs4 3.707347 1_555
Cl9 La1 2.913701 1_655
Cl9 La0 2.945076 1_555
Cl9 Cs7 3.705833 1_555
Cl9 Cs5 3.707347 1_555
Cl10 La2 2.913701 1_554
Cl10 La3 2.945076 1_555
Cl10 Cs3 3.705833 1_655
Cl10 Cs6 3.707347 1_555
Cl11 La3 2.913701 1_556
Cl11 La2 2.945076 1_555
Cl11 Cs5 3.705833 1_455
Cl11 Cs7 3.707347 1_555
Cl12 La0 2.824259 1_555
Cl12 Cs7 3.436010 1_555
Cl12 Cs2 3.436010 1_555
Cl12 Cs6 3.497268 1_555
Cl12 Cs4 3.497268 1_565
Cl13 La1 2.824259 1_555
Cl13 Cs4 3.436010 1_555
Cl13 Cs6 3.436010 1_555
Cl13 Cs2 3.497268 1_545
Cl13 Cs7 3.497268 1_555
Cl14 La2 2.824259 1_555
Cl14 Cs5 3.436010 1_455
Cl14 Cs0 3.436010 1_455
Cl14 Cs1 3.497268 1_546
Cl14 Cs3 3.497268 1_556
Cl15 La3 2.824259 1_555
Cl15 Cs3 3.436010 1_655
Cl15 Cs1 3.436010 1_655
Cl15 Cs5 3.497268 1_554
Cl15 Cs0 3.497268 1_564
Cl16 La3 2.817899 1_556
Cl16 Cs2 3.440390 1_555
Cl16 Cs7 3.440390 1_555
Cl16 Cs5 3.470722 1_555
Cl16 Cs0 3.470722 1_565
Cl17 La2 2.817899 1_554
Cl17 Cs6 3.440390 1_555
Cl17 Cs4 3.440390 1_555
Cl17 Cs3 3.470722 1_555
Cl17 Cs1 3.470722 1_545
Cl18 La1 2.817899 1_555
Cl18 Cs0 3.440390 1_455
Cl18 Cs5 3.440390 1_455
Cl18 Cs2 3.470722 1_545
Cl18 Cs7 3.470722 1_555
Cl19 La0 2.817899 1_555
Cl19 Cs1 3.440390 1_655
Cl19 Cs3 3.440390 1_655
Cl19 Cs6 3.470722 1_555
Cl19 Cs4 3.470722 1_565
