# generated using pymatgen
data_Mg(BH3)2
_symmetry_space_group_name_H-M   'P 1'
_cell_length_a   8.30631507
_cell_length_b   8.32120700
_cell_length_c   9.21849431
_cell_angle_alpha   90.00009180
_cell_angle_beta   89.91900229
_cell_angle_gamma   90.00027570
_symmetry_Int_Tables_number   1
_chemical_formula_structural   Mg(BH3)2
_chemical_formula_sum   'Mg4 B8 H24'
_cell_volume   637.16848077
_cell_formula_units_Z   4
loop_
 _symmetry_equiv_pos_site_id
 _symmetry_equiv_pos_as_xyz
  1  'x, y, z'
loop_
 _atom_site_type_symbol
 _atom_site_label
 _atom_site_symmetry_multiplicity
 _atom_site_fract_x
 _atom_site_fract_y
 _atom_site_fract_z
 _atom_site_occupancy
  Mg  Mg0  1  0.11046200  0.47403300  0.19206600  1
  Mg  Mg1  1  0.39002000  0.80389500  0.05788100  1
  Mg  Mg2  1  0.88958000  0.97401900  0.05792900  1
  Mg  Mg3  1  0.60996400  0.30388100  0.19210400  1
  B  B0  1  0.14601400  0.87945600  0.98060400  1
  B  B1  1  0.57413400  0.01619200  0.12718500  1
  B  B2  1  0.07315900  0.76162700  0.12800200  1
  B  B3  1  0.92685900  0.26162000  0.12200100  1
  B  B4  1  0.85400600  0.37950300  0.26935700  1
  B  B5  1  0.42580100  0.51612300  0.12279800  1
  B  B6  1  0.35393200  0.39813400  0.27059200  1
  B  B7  1  0.64608600  0.89816600  0.97945600  1
  H  H0  1  0.46937300  0.96058500  0.20942900  1
  H  H1  1  0.22081600  0.79388300  0.89399700  1
  H  H2  1  0.82143200  0.22737700  0.03245100  1
  H  H3  1  0.96813900  0.81760400  0.20980000  1
  H  H4  1  0.48711200  0.63833900  0.17694300  1
  H  H5  1  0.76477400  0.48954600  0.22896200  1
  H  H6  1  0.72091900  0.98355700  0.89278400  1
  H  H7  1  0.44965700  0.33263400  0.35314800  1
  H  H8  1  0.23522900  0.98952700  0.02096900  1
  H  H9  1  0.68006100  0.05030700  0.21631800  1
  H  H10  1  0.01166400  0.63959500  0.07378600  1
  H  H11  1  0.98832200  0.13959700  0.17625600  1
  H  H12  1  0.05097300  0.94549000  0.89780400  1
  H  H13  1  0.51284200  0.13838400  0.07300400  1
  H  H14  1  0.03192700  0.31755500  0.04021000  1
  H  H15  1  0.17860800  0.72738600  0.21753200  1
  H  H16  1  0.77919700  0.29394000  0.35599300  1
  H  H17  1  0.31985000  0.55021700  0.03368700  1
  H  H18  1  0.27911300  0.48355000  0.35726100  1
  H  H19  1  0.55040000  0.83262500  0.89688900  1
  H  H20  1  0.94902700  0.44557100  0.35214300  1
  H  H21  1  0.53054100  0.46051500  0.04054600  1
  H  H22  1  0.73512600  0.78780800  0.01944600  1
  H  H23  1  0.26488000  0.28775700  0.23066300  1
loop_
_geom_bond_atom_site_label_1
_geom_bond_atom_site_label_2
_geom_bond_distance
_geom_bond_site_symmetry_2
B0 H12 1.228605 1_555
B0 H8 1.235841 1_556
B0 H1 1.236574 1_555
B1 H9 1.237712 1_555
B1 H13 1.242271 1_555
B1 H0 1.242684 1_545
B2 H15 1.237574 1_555
B2 H10 1.242000 1_555
B2 H3 1.242846 1_455
B3 H2 1.237569 1_555
B3 H11 1.241980 1_555
B3 H14 1.242953 1_655
B4 H20 1.228540 1_555
B4 H5 1.235842 1_555
B4 H16 1.236725 1_555
B5 H17 1.237682 1_555
B5 H4 1.242361 1_555
B5 H21 1.242613 1_555
B6 H7 1.228897 1_555
B6 H23 1.235712 1_555
B6 H18 1.236262 1_555
B7 H19 1.228897 1_555
B7 H22 1.235709 1_556
B7 H6 1.236216 1_555
H0 Mg1 2.022078 1_555
H1 Mg1 2.066561 1_556
H2 Mg2 2.195602 1_545
H2 Mg3 2.376848 1_555
H3 Mg2 2.020526 1_555
H4 Mg1 1.937896 1_555
H5 Mg3 2.038895 1_555
H6 Mg2 2.071874 1_556
H7 Mg3 2.007162 1_555
H8 Mg1 2.038681 1_555
H9 Mg3 2.200340 1_555
H9 Mg2 2.357217 1_545
H10 Mg0 1.939817 1_555
H11 Mg2 1.939950 1_545
H12 Mg2 2.006695 1_456
H13 Mg3 1.937842 1_555
H14 Mg0 2.020696 1_555
H15 Mg0 2.195540 1_555
H15 Mg1 2.376501 1_555
H16 Mg3 2.066735 1_555
H17 Mg1 2.201305 1_555
H17 Mg0 2.356121 1_555
H18 Mg0 2.072149 1_555
H19 Mg1 2.007186 1_556
H20 Mg0 2.006536 1_655
H21 Mg3 2.022039 1_555
H22 Mg2 2.043040 1_555
H23 Mg0 2.043456 1_555
