# generated using pymatgen
data_YGaAg
_symmetry_space_group_name_H-M   'P 1'
_cell_length_a   5.71046534
_cell_length_b   5.71046534
_cell_length_c   7.18729277
_cell_angle_alpha   51.96173823
_cell_angle_beta   51.96173823
_cell_angle_gamma   46.52034177
_symmetry_Int_Tables_number   1
_chemical_formula_structural   YGaAg
_chemical_formula_sum   'Y2 Ga2 Ag2'
_cell_volume   126.14241946
_cell_formula_units_Z   2
loop_
 _symmetry_equiv_pos_site_id
 _symmetry_equiv_pos_as_xyz
  1  'x, y, z'
loop_
 _atom_site_type_symbol
 _atom_site_label
 _atom_site_symmetry_multiplicity
 _atom_site_fract_x
 _atom_site_fract_y
 _atom_site_fract_z
 _atom_site_occupancy
  Y  Y0  1  0.53497530  0.53497530  0.70920797  1
  Y  Y1  1  0.46502470  0.46502470  0.29079203  1
  Ga  Ga0  1  0.84202815  0.84202815  0.11620784  1
  Ga  Ga1  1  0.15797185  0.15797185  0.88379216  1
  Ag  Ag0  1  0.17327493  0.17327493  0.27820214  1
  Ag  Ag1  1  0.82672507  0.82672507  0.72179786  1
loop_
_geom_bond_atom_site_label_1
_geom_bond_atom_site_label_2
_geom_bond_distance
_geom_bond_site_symmetry_2
Ga0 Ga1 2.520307 1_664
Ga0 Y0 3.130031 1_564
Ga0 Y0 3.130031 1_654
Ga0 Y0 3.182089 1_555
Ga0 Y1 3.240025 1_655
Ga0 Y1 3.240025 1_565
Ga0 Y1 3.250280 1_555
Ga1 Y1 3.130031 1_546
Ga1 Y1 3.130031 1_456
Ga1 Y1 3.182089 1_555
Ga1 Y0 3.240025 1_545
Ga1 Y0 3.240025 1_455
Ga1 Y0 3.250280 1_555
Ag0 Ga0 2.609775 1_545
Ag0 Ga0 2.609775 1_455
Ag0 Ag1 2.799274 1_445
Ag0 Ga1 2.944844 1_554
Ag0 Y1 3.098886 1_545
Ag0 Y1 3.098886 1_455
Ag0 Y1 3.122640 1_555
Ag0 Y0 3.210674 1_554
Ag0 Y0 3.279857 1_545
Ag0 Y0 3.279857 1_455
Ag1 Ga1 2.609775 1_565
Ag1 Ga1 2.609775 1_655
Ag1 Ga0 2.944844 1_556
Ag1 Y0 3.098886 1_655
Ag1 Y0 3.098886 1_565
Ag1 Y0 3.122640 1_555
Ag1 Y1 3.210674 1_556
Ag1 Y1 3.279857 1_655
Ag1 Y1 3.279857 1_565
