# generated using pymatgen
data_Li2V5O10
_symmetry_space_group_name_H-M   'P 1'
_cell_length_a   5.15552046
_cell_length_b   15.30986469
_cell_length_c   5.18850181
_cell_angle_alpha   79.75920612
_cell_angle_beta   103.66877716
_cell_angle_gamma   101.15510240
_symmetry_Int_Tables_number   1
_chemical_formula_structural   Li2V5O10
_chemical_formula_sum   'Li4 V10 O20'
_cell_volume   386.64879677
_cell_formula_units_Z   2
loop_
 _symmetry_equiv_pos_site_id
 _symmetry_equiv_pos_as_xyz
  1  'x, y, z'
loop_
 _atom_site_type_symbol
 _atom_site_label
 _atom_site_symmetry_multiplicity
 _atom_site_fract_x
 _atom_site_fract_y
 _atom_site_fract_z
 _atom_site_occupancy
  Li  Li0  1  0.74627700  0.19662200  0.00490700  1
  Li  Li1  1  0.24088000  0.69980500  0.51276300  1
  Li  Li2  1  0.75357300  0.30357000  0.49665000  1
  Li  Li3  1  0.25915300  0.79978300  0.98550000  1
  V  V0  1  0.99941100  0.50118200  0.50075200  1
  V  V1  1  0.50063500  0.99857700  0.00243400  1
  V  V2  1  0.35790400  0.34243800  0.79544500  1
  V  V3  1  0.85291500  0.84268200  0.28523400  1
  V  V4  1  0.14139400  0.15750800  0.70542400  1
  V  V5  1  0.64701600  0.65712200  0.21348100  1
  V  V6  1  0.40316900  0.44702100  0.24601000  1
  V  V7  1  0.90895200  0.94837700  0.74688100  1
  V  V8  1  0.09895400  0.05289700  0.25582300  1
  V  V9  1  0.58947400  0.55121600  0.75239600  1
  O  O0  1  0.64261500  0.43001100  0.61741600  1
  O  O1  1  0.15099100  0.93625100  0.13306800  1
  O  O2  1  0.85656700  0.06923200  0.88283900  1
  O  O3  1  0.35096900  0.56367300  0.36681000  1
  O  O4  1  0.03291200  0.25511900  0.80367000  1
  O  O5  1  0.53341300  0.75248000  0.31235000  1
  O  O6  1  0.46629800  0.24507300  0.69652800  1
  O  O7  1  0.96715500  0.74769300  0.18696800  1
  O  O8  1  0.24993700  0.46611300  0.85515100  1
  O  O9  1  0.76565300  0.97699900  0.34507900  1
  O  O10  1  0.24914200  0.03411800  0.64573600  1
  O  O11  1  0.73544600  0.52318800  0.15324100  1
  O  O12  1  0.37558100  0.10939700  0.09017300  1
  O  O13  1  0.88532900  0.60910900  0.57167100  1
  O  O14  1  0.12275500  0.39140700  0.40806700  1
  O  O15  1  0.61501400  0.89063800  0.92704500  1
  O  O16  1  0.50863000  0.34262000  0.14281800  1
  O  O17  1  0.00611200  0.84482500  0.63322800  1
  O  O18  1  0.99211000  0.15738100  0.35782500  1
  O  O19  1  0.49366800  0.65587400  0.86661600  1
loop_
_geom_bond_atom_site_label_1
_geom_bond_atom_site_label_2
_geom_bond_distance
_geom_bond_site_symmetry_2
Li0 O4 1.990139 1_654
Li0 O6 2.023506 1_554
Li0 O18 2.031463 1_555
Li0 O12 2.198515 1_555
Li0 O2 2.359388 1_554
Li1 O5 1.994638 1_555
Li1 O7 2.053936 1_455
Li1 O19 2.071437 1_555
Li1 O13 2.123814 1_455
Li1 O3 2.541921 1_555
Li2 O6 1.988350 1_555
Li2 O4 2.017611 1_655
Li2 O16 2.031910 1_555
Li2 O14 2.201275 1_655
Li2 O0 2.344425 1_555
Li3 O7 1.994415 1_456
Li3 O5 2.055705 1_556
Li3 O17 2.071503 1_555
Li3 O15 2.125626 1_555
Li3 O1 2.546326 1_556
O0 V6 2.031471 1_555
O0 V2 2.060169 1_555
O0 V0 2.110332 1_555
O0 V9 2.181375 1_555
O1 V1 2.073933 1_555
O1 V8 2.082644 1_565
O1 V3 2.087222 1_455
O1 V7 2.093364 1_454
O2 V8 2.043312 1_656
O2 V4 2.063680 1_655
O2 V1 2.110420 1_546
O2 V7 2.177511 1_545
O3 V6 2.078100 1_555
O3 V5 2.081715 1_555
O3 V9 2.084040 1_555
O3 V0 2.090756 1_455
O4 V4 1.880134 1_555
O4 V2 1.934711 1_555
O5 V5 1.864582 1_555
O5 V3 1.949471 1_555
O6 V2 1.878194 1_555
O6 V4 1.936699 1_555
O7 V3 1.859760 1_555
O7 V5 1.954407 1_555
O8 V6 1.985850 1_556
O8 V0 2.032851 1_455
O8 V9 2.087496 1_555
O8 V2 2.165365 1_555
O9 V8 1.982309 1_665
O9 V1 1.988558 1_555
O9 V7 2.038755 1_555
O9 V3 2.275632 1_555
O10 V8 1.978376 1_555
O10 V1 2.045286 1_546
O10 V7 2.091362 1_445
O10 V4 2.160669 1_555
O11 V6 1.985761 1_555
O11 V0 2.004557 1_555
O11 V9 2.035653 1_554
O11 V5 2.273122 1_555
O12 V8 1.832617 1_555
O12 V1 2.082804 1_545
O12 V4 2.160442 1_554
O13 V9 1.961810 1_555
O13 V0 1.976380 1_555
O13 V5 2.070823 1_555
O14 V6 1.834559 1_555
O14 V0 2.074997 1_455
O14 V2 2.176189 1_555
O15 V7 1.951674 1_555
O15 V1 1.986831 1_556
O15 V3 2.069594 1_556
O16 V2 1.786427 1_554
O16 V6 1.978683 1_555
O17 V3 1.794996 1_455
O17 V7 1.972643 1_455
O18 V4 1.785965 1_655
O18 V8 1.980426 1_655
O19 V5 1.788373 1_556
O19 V9 1.986140 1_555
