# generated using pymatgen
data_Yb10Ni28As19
_symmetry_space_group_name_H-M   'P 1'
_cell_length_a   16.01866404
_cell_length_b   16.01866404
_cell_length_c   3.93799400
_cell_angle_alpha   90.00000000
_cell_angle_beta   90.00000000
_cell_angle_gamma   120.00000015
_symmetry_Int_Tables_number   1
_chemical_formula_structural   Yb10Ni28As19
_chemical_formula_sum   'Yb10 Ni28 As19'
_cell_volume   875.10117493
_cell_formula_units_Z   1
loop_
 _symmetry_equiv_pos_site_id
 _symmetry_equiv_pos_as_xyz
  1  'x, y, z'
loop_
 _atom_site_type_symbol
 _atom_site_label
 _atom_site_symmetry_multiplicity
 _atom_site_fract_x
 _atom_site_fract_y
 _atom_site_fract_z
 _atom_site_occupancy
  Yb  Yb0  1  0.72754200  0.03262100  0.50000000  1
  Yb  Yb1  1  0.96737900  0.69492100  0.50000000  1
  Yb  Yb2  1  0.30507900  0.27245800  0.50000000  1
  Yb  Yb3  1  0.18640100  0.52651900  0.00000000  1
  Yb  Yb4  1  0.47348100  0.65988100  0.00000000  1
  Yb  Yb5  1  0.34011900  0.81359900  0.00000000  1
  Yb  Yb6  1  0.66666700  0.33333300  0.00000000  1
  Yb  Yb7  1  0.01955400  0.15202900  0.50000000  1
  Yb  Yb8  1  0.84797100  0.86752500  0.50000000  1
  Yb  Yb9  1  0.13247500  0.98044600  0.50000000  1
  Ni  Ni0  1  0.32713700  0.43330800  0.00000000  1
  Ni  Ni1  1  0.56669200  0.89382900  0.00000000  1
  Ni  Ni2  1  0.10617100  0.67286300  0.00000000  1
  Ni  Ni3  1  0.62435100  0.16135500  0.50000000  1
  Ni  Ni4  1  0.83864500  0.46299600  0.50000000  1
  Ni  Ni5  1  0.53700400  0.37564900  0.50000000  1
  Ni  Ni6  1  0.03417400  0.31359100  0.00000000  1
  Ni  Ni7  1  0.68640900  0.72058300  0.00000000  1
  Ni  Ni8  1  0.27941700  0.96582600  0.00000000  1
  Ni  Ni9  1  0.17417100  0.37445700  0.50000000  1
  Ni  Ni10  1  0.62554300  0.79971400  0.50000000  1
  Ni  Ni11  1  0.20028600  0.82582900  0.50000000  1
  Ni  Ni12  1  0.86196300  0.01191100  0.00000000  1
  Ni  Ni13  1  0.98808900  0.85005200  0.00000000  1
  Ni  Ni14  1  0.14994800  0.13803700  0.00000000  1
  Ni  Ni15  1  0.75756500  0.20262500  0.00000000  1
  Ni  Ni16  1  0.79737500  0.55494000  0.00000000  1
  Ni  Ni17  1  0.44506000  0.24243500  0.00000000  1
  Ni  Ni18  1  0.45921800  0.48774200  0.50000000  1
  Ni  Ni19  1  0.51225800  0.97147600  0.50000000  1
  Ni  Ni20  1  0.02852400  0.54078200  0.50000000  1
  Ni  Ni21  1  0.89808900  0.24976400  0.50000000  1
  Ni  Ni22  1  0.75023600  0.64832500  0.50000000  1
  Ni  Ni23  1  0.35167500  0.10191100  0.50000000  1
  Ni  Ni24  1  0.33333300  0.66666700  0.50000000  1
  Ni  Ni25  1  0.91445100  0.38040500  0.00000000  1
  Ni  Ni26  1  0.61959500  0.53404600  0.00000000  1
  Ni  Ni27  1  0.46595400  0.08554900  0.00000000  1
  As  As0  1  0.00000000  0.00000000  0.00000000  1
  As  As1  1  0.03794400  0.40001100  0.50000000  1
  As  As2  1  0.59998900  0.63793300  0.50000000  1
  As  As3  1  0.36206700  0.96205600  0.50000000  1
  As  As4  1  0.32756900  0.51780300  0.50000000  1
  As  As5  1  0.48219700  0.80976600  0.50000000  1
  As  As6  1  0.19023400  0.67243100  0.50000000  1
  As  As7  1  0.78329400  0.29771200  0.50000000  1
  As  As8  1  0.70228800  0.48558200  0.50000000  1
  As  As9  1  0.51441800  0.21670600  0.50000000  1
  As  As10  1  0.60083300  0.06062800  0.00000000  1
  As  As11  1  0.93937200  0.54020400  0.00000000  1
  As  As12  1  0.45979600  0.39916700  0.00000000  1
  As  As13  1  0.88198600  0.16266900  0.00000000  1
  As  As14  1  0.83733100  0.71931700  0.00000000  1
  As  As15  1  0.28068300  0.11801400  0.00000000  1
  As  As16  1  0.17001800  0.29033000  0.00000000  1
  As  As17  1  0.70967000  0.87968800  0.00000000  1
  As  As18  1  0.12031200  0.82998200  0.00000000  1
loop_
_geom_bond_atom_site_label_1
_geom_bond_atom_site_label_2
_geom_bond_distance
_geom_bond_site_symmetry_2
Ni0 Yb2 3.119337 1_554
Ni0 Yb2 3.119337 1_555
Ni0 Yb4 3.187444 1_555
Ni0 Yb3 3.267692 1_555
Ni1 Yb0 3.119337 1_565
Ni1 Yb0 3.119337 1_564
Ni1 Yb5 3.187441 1_555
Ni1 Yb4 3.267707 1_555
Ni2 Yb1 3.119337 1_455
Ni2 Yb1 3.119337 1_454
Ni2 Yb3 3.187456 1_555
Ni2 Yb5 3.267705 1_555
Ni3 Yb6 3.171482 1_555
Ni3 Yb6 3.171482 1_556
Ni3 Yb0 3.223894 1_555
Ni4 Yb6 3.171485 1_555
Ni4 Yb6 3.171485 1_556
Ni4 Yb1 3.223894 1_555
Ni5 Yb6 3.171494 1_555
Ni5 Yb6 3.171494 1_556
Ni5 Yb2 3.223894 1_555
Ni6 Yb3 3.043462 1_555
Ni6 Yb7 3.165989 1_555
Ni6 Yb7 3.165989 1_554
Ni7 Yb4 3.043458 1_555
Ni7 Yb8 3.165989 1_554
Ni7 Yb8 3.165989 1_555
Ni8 Yb5 3.043473 1_555
Ni8 Yb9 3.165989 1_555
Ni8 Yb9 3.165989 1_554
Ni9 Yb3 3.061274 1_555
Ni9 Yb3 3.061274 1_556
Ni9 Yb7 3.163006 1_555
Ni9 Yb2 3.239304 1_555
Ni10 Yb4 3.061279 1_555
Ni10 Yb4 3.061279 1_556
Ni10 Yb8 3.163006 1_555
Ni10 Yb0 3.239304 1_565
Ni11 Yb5 3.061286 1_555
Ni11 Yb5 3.061286 1_556
Ni11 Yb9 3.163006 1_555
Ni11 Yb1 3.239304 1_455
Ni12 Yb8 2.959420 1_544
Ni12 Yb8 2.959420 1_545
Ni12 Yb0 3.055781 1_555
Ni12 Yb0 3.055781 1_554
Ni12 Yb7 3.101823 1_654
Ni12 Yb7 3.101823 1_655
Ni13 Yb9 2.959420 1_654
Ni13 Yb9 2.959420 1_655
Ni13 Yb1 3.055781 1_555
Ni13 Yb1 3.055781 1_554
Ni13 Yb8 3.101823 1_554
Ni13 Yb8 3.101823 1_555
Ni14 Yb7 2.959420 1_555
Ni14 Yb7 2.959420 1_554
Ni14 Yb2 3.055781 1_554
Ni14 Yb2 3.055781 1_555
Ni14 Yb9 3.101823 1_545
Ni14 Yb9 3.101823 1_544
Ni15 Yb6 3.090736 1_555
Ni15 Yb0 3.196025 1_554
Ni15 Yb0 3.196025 1_555
Ni16 Yb6 3.090749 1_555
Ni16 Yb1 3.196025 1_555
Ni16 Yb1 3.196025 1_554
Ni17 Yb6 3.090750 1_555
Ni17 Yb2 3.196025 1_554
Ni17 Yb2 3.196025 1_555
Ni18 Yb2 3.078018 1_555
Ni18 Yb4 3.301909 1_556
Ni18 Yb4 3.301909 1_555
Ni19 Yb0 3.078018 1_565
Ni19 Yb5 3.301915 1_556
Ni19 Yb5 3.301915 1_555
Ni20 Yb1 3.078018 1_455
Ni20 Yb3 3.301922 1_555
Ni20 Yb3 3.301922 1_556
Ni21 Yb7 3.046801 1_655
Ni21 Yb0 3.171707 1_555
Ni22 Yb8 3.046801 1_555
Ni22 Yb1 3.171707 1_555
Ni23 Yb9 3.046801 1_545
Ni23 Yb2 3.171707 1_555
Ni24 Yb5 3.028631 1_556
Ni24 Yb5 3.028631 1_555
Ni24 Yb3 3.028642 1_555
Ni24 Yb3 3.028642 1_556
Ni24 Yb4 3.028655 1_555
Ni24 Yb4 3.028655 1_556
As0 Ni14 2.312478 1_555
As0 Ni13 2.312478 1_445
As0 Ni12 2.312478 1_455
As0 Yb8 3.023731 1_444
As0 Yb8 3.023731 1_445
As0 Yb7 3.023731 1_555
As0 Yb7 3.023731 1_554
As0 Yb9 3.023731 1_544
As0 Yb9 3.023731 1_545
As1 Ni21 2.327991 1_455
As1 Ni20 2.334072 1_555
As1 Ni6 2.390266 1_556
As1 Ni6 2.390266 1_555
As1 Ni9 2.413027 1_555
As1 Ni25 2.695841 1_455
As1 Ni25 2.695841 1_456
As1 Yb3 2.969802 1_555
As1 Yb3 2.969802 1_556
As2 Ni22 2.327991 1_555
As2 Ni18 2.334072 1_555
As2 Ni7 2.390266 1_556
As2 Ni7 2.390266 1_555
As2 Ni10 2.413027 1_555
As2 Ni26 2.695841 1_555
As2 Ni26 2.695841 1_556
As2 Yb4 2.969795 1_555
As2 Yb4 2.969795 1_556
As3 Ni23 2.327991 1_565
As3 Ni19 2.334072 1_555
As3 Ni8 2.390266 1_555
As3 Ni8 2.390266 1_556
As3 Ni11 2.413027 1_555
As3 Ni27 2.695841 1_566
As3 Ni27 2.695841 1_565
As3 Yb5 2.969807 1_556
As3 Yb5 2.969807 1_555
As4 Ni24 2.339803 1_555
As4 Ni9 2.380809 1_555
As4 Ni18 2.386331 1_555
As4 Ni0 2.387380 1_555
As4 Ni0 2.387380 1_556
As4 Yb4 3.033186 1_555
As4 Yb4 3.033186 1_556
As4 Yb3 3.053808 1_555
As4 Yb3 3.053808 1_556
As5 Ni24 2.339796 1_555
As5 Ni10 2.380809 1_555
As5 Ni19 2.386331 1_555
As5 Ni1 2.387380 1_555
As5 Ni1 2.387380 1_556
As5 Yb5 3.033180 1_556
As5 Yb5 3.033180 1_555
As5 Yb4 3.053821 1_555
As5 Yb4 3.053821 1_556
As6 Ni24 2.339787 1_555
As6 Ni11 2.380809 1_555
As6 Ni20 2.386331 1_555
As6 Ni2 2.387380 1_556
As6 Ni2 2.387380 1_555
As6 Yb3 3.033192 1_555
As6 Yb3 3.033192 1_556
As6 Yb5 3.053815 1_556
As6 Yb5 3.053815 1_555
As7 Ni21 2.320280 1_555
As7 Ni4 2.334217 1_555
As7 Ni3 2.385820 1_555
As7 Ni15 2.395639 1_555
As7 Ni15 2.395639 1_556
As7 Ni25 2.694927 1_556
As7 Ni25 2.694927 1_555
As7 Yb6 2.959517 1_555
As7 Yb6 2.959517 1_556
As8 Ni22 2.320280 1_555
As8 Ni5 2.334217 1_555
As8 Ni4 2.385820 1_555
As8 Ni16 2.395639 1_556
As8 Ni16 2.395639 1_555
As8 Ni26 2.694927 1_555
As8 Ni26 2.694927 1_556
As8 Yb6 2.959528 1_555
As8 Yb6 2.959528 1_556
As9 Ni23 2.320280 1_555
As9 Ni3 2.334217 1_555
As9 Ni5 2.385820 1_555
As9 Ni17 2.395639 1_555
As9 Ni17 2.395639 1_556
As9 Ni27 2.694927 1_556
As9 Ni27 2.694927 1_555
As9 Yb6 2.959525 1_555
As9 Yb6 2.959525 1_556
As10 Ni27 2.385368 1_555
As10 Ni15 2.401336 1_555
As10 Ni19 2.429669 1_545
As10 Ni19 2.429669 1_544
As10 Ni1 2.444767 1_545
As10 Ni3 2.452435 1_555
As10 Ni3 2.452435 1_554
As10 Yb0 3.018036 1_555
As10 Yb0 3.018036 1_554
As11 Ni25 2.385352 1_555
As11 Ni16 2.401345 1_555
As11 Ni20 2.429665 1_655
As11 Ni20 2.429665 1_654
As11 Ni2 2.444772 1_655
As11 Ni4 2.452433 1_555
As11 Ni4 2.452433 1_554
As11 Yb1 3.018047 1_555
As11 Yb1 3.018047 1_554
As12 Ni26 2.385358 1_555
As12 Ni17 2.401329 1_555
As12 Ni18 2.429674 1_555
As12 Ni18 2.429674 1_554
As12 Ni0 2.444782 1_555
As12 Ni5 2.452426 1_554
As12 Ni5 2.452426 1_555
As12 Yb2 3.018043 1_555
As12 Yb2 3.018043 1_554
As13 Ni12 2.271618 1_555
As13 Ni21 2.351604 1_554
As13 Ni21 2.351604 1_555
As13 Ni15 2.378566 1_555
As13 Ni6 2.427772 1_655
As13 Yb7 3.022860 1_654
As13 Yb7 3.022860 1_655
As13 Yb0 3.030423 1_555
As13 Yb0 3.030423 1_554
As14 Ni13 2.271618 1_555
As14 Ni22 2.351604 1_555
As14 Ni22 2.351604 1_554
As14 Ni16 2.378566 1_555
As14 Ni7 2.427772 1_555
As14 Yb8 3.022860 1_555
As14 Yb8 3.022860 1_554
As14 Yb1 3.030423 1_555
As14 Yb1 3.030423 1_554
As15 Ni14 2.271618 1_555
As15 Ni23 2.351604 1_554
As15 Ni23 2.351604 1_555
As15 Ni17 2.378566 1_555
As15 Ni8 2.427772 1_545
As15 Yb9 3.022860 1_545
As15 Yb9 3.022860 1_544
As15 Yb2 3.030423 1_554
As15 Yb2 3.030423 1_555
As16 Ni14 2.295729 1_555
As16 Ni9 2.368070 1_555
As16 Ni9 2.368070 1_554
As16 Ni6 2.384282 1_555
As16 Ni0 2.411569 1_555
As16 Yb7 3.042126 1_555
As16 Yb7 3.042126 1_554
As16 Yb2 3.042861 1_555
As16 Yb2 3.042861 1_554
As17 Ni12 2.295729 1_565
As17 Ni10 2.368070 1_555
As17 Ni10 2.368070 1_554
As17 Ni7 2.384282 1_555
As17 Ni1 2.411569 1_555
As17 Yb8 3.042126 1_555
As17 Yb8 3.042126 1_554
As17 Yb0 3.042861 1_564
As17 Yb0 3.042861 1_565
As18 Ni13 2.295729 1_455
As18 Ni11 2.368070 1_555
As18 Ni11 2.368070 1_554
As18 Ni8 2.384282 1_555
As18 Ni2 2.411569 1_555
As18 Yb9 3.042126 1_554
As18 Yb9 3.042126 1_555
As18 Yb1 3.042861 1_455
As18 Yb1 3.042861 1_454
