# generated using pymatgen
data_CuAg2P2O7
_symmetry_space_group_name_H-M   'P 1'
_cell_length_a   8.42452691
_cell_length_b   8.42452691
_cell_length_c   8.40263239
_cell_angle_alpha   64.58502062
_cell_angle_beta   64.58502062
_cell_angle_gamma   39.62064898
_symmetry_Int_Tables_number   1
_chemical_formula_structural   CuAg2P2O7
_chemical_formula_sum   'Cu2 Ag4 P4 O14'
_cell_volume   338.42482146
_cell_formula_units_Z   2
loop_
 _symmetry_equiv_pos_site_id
 _symmetry_equiv_pos_as_xyz
  1  'x, y, z'
loop_
 _atom_site_type_symbol
 _atom_site_label
 _atom_site_symmetry_multiplicity
 _atom_site_fract_x
 _atom_site_fract_y
 _atom_site_fract_z
 _atom_site_occupancy
  Cu  Cu0  1  0.00000000  0.00000000  0.50000000  1
  Cu  Cu1  1  0.00000000  0.00000000  0.00000000  1
  Ag  Ag0  1  0.37192900  0.09492400  0.70610600  1
  Ag  Ag1  1  0.62807100  0.90507600  0.29389400  1
  Ag  Ag2  1  0.90507600  0.62807100  0.79389400  1
  Ag  Ag3  1  0.09492400  0.37192900  0.20610600  1
  P  P0  1  0.56434000  0.23509800  0.84394000  1
  P  P1  1  0.43566000  0.76490200  0.15606000  1
  P  P2  1  0.76490200  0.43566000  0.65606000  1
  P  P3  1  0.23509800  0.56434000  0.34394000  1
  O  O0  1  0.52159100  0.47840900  0.75000000  1
  O  O1  1  0.47840900  0.52159100  0.25000000  1
  O  O2  1  0.70011700  0.10052400  0.00278200  1
  O  O3  1  0.29988300  0.89947600  0.99721800  1
  O  O4  1  0.89947600  0.29988300  0.49721800  1
  O  O5  1  0.10052400  0.70011700  0.50278200  1
  O  O6  1  0.72833000  0.06783800  0.69944200  1
  O  O7  1  0.27167000  0.93216200  0.30055800  1
  O  O8  1  0.93216200  0.27167000  0.80055800  1
  O  O9  1  0.06783800  0.72833000  0.19944200  1
  O  O10  1  0.66819300  0.69256500  0.59425500  1
  O  O11  1  0.33180700  0.30743500  0.40574500  1
  O  O12  1  0.30743500  0.33180700  0.90574500  1
  O  O13  1  0.69256500  0.66819300  0.09425500  1
loop_
_geom_bond_atom_site_label_1
_geom_bond_atom_site_label_2
_geom_bond_distance
_geom_bond_site_symmetry_2
Cu0 O4 1.941789 1_455
Cu0 O5 1.941789 1_545
Cu0 O7 1.971808 1_545
Cu0 O6 1.971808 1_455
Cu1 O3 1.941789 1_544
Cu1 O2 1.941789 1_455
Cu1 O9 1.971808 1_545
Cu1 O8 1.971808 1_454
Ag0 O11 2.368702 1_555
Ag0 O3 2.423042 1_545
Ag0 O10 2.508015 1_545
Ag0 O8 2.562179 1_455
Ag0 O12 2.740878 1_555
Ag0 O6 2.807389 1_555
Ag1 O10 2.368702 1_555
Ag1 O2 2.423042 1_565
Ag1 O11 2.508015 1_565
Ag1 O9 2.562179 1_655
Ag1 O13 2.740878 1_555
Ag1 O7 2.807389 1_555
Ag2 O13 2.368702 1_556
Ag2 O5 2.423042 1_655
Ag2 O12 2.508015 1_655
Ag2 O6 2.562179 1_565
Ag2 O10 2.740878 1_555
Ag2 O8 2.807389 1_555
Ag3 O12 2.368702 1_554
Ag3 O4 2.423042 1_455
Ag3 O13 2.508015 1_455
Ag3 O7 2.562179 1_545
Ag3 O11 2.740878 1_555
Ag3 O9 2.807389 1_555
O0 P0 1.634725 1_555
O0 P2 1.634725 1_555
O1 P3 1.634725 1_555
O1 P1 1.634725 1_555
O2 P0 1.545611 1_554
O3 P1 1.545611 1_556
O4 P2 1.545611 1_555
O5 P3 1.545611 1_555
O6 P0 1.548562 1_555
O7 P1 1.548562 1_555
O8 P2 1.548562 1_555
O9 P3 1.548562 1_555
O10 P2 1.516441 1_555
O11 P3 1.516441 1_555
O12 P0 1.516441 1_555
O13 P1 1.516441 1_555
