# generated using pymatgen
data_Ti2Be17
_symmetry_space_group_name_H-M   'P 1'
_cell_length_a   7.16998013
_cell_length_b   7.34361351
_cell_length_c   7.34361351
_cell_angle_alpha   119.99701208
_cell_angle_beta   90.00000000
_cell_angle_gamma   90.00000000
_symmetry_Int_Tables_number   1
_chemical_formula_structural   Ti2Be17
_chemical_formula_sum   'Ti4 Be34'
_cell_volume   334.87388672
_cell_formula_units_Z   2
loop_
 _symmetry_equiv_pos_site_id
 _symmetry_equiv_pos_as_xyz
  1  'x, y, z'
loop_
 _atom_site_type_symbol
 _atom_site_label
 _atom_site_symmetry_multiplicity
 _atom_site_fract_x
 _atom_site_fract_y
 _atom_site_fract_z
 _atom_site_occupancy
  Ti  Ti0  1  0.75000000  0.99994652  0.00005348  1
  Ti  Ti1  1  0.25000000  0.00005348  0.99994652  1
  Ti  Ti2  1  0.25000000  0.66661989  0.33338011  1
  Ti  Ti3  1  0.75000000  0.33338011  0.66661989  1
  Be  Be0  1  0.60213961  0.66667939  0.33332061  1
  Be  Be1  1  0.39786039  0.33332061  0.66667939  1
  Be  Be2  1  0.10213961  0.33332061  0.66667939  1
  Be  Be3  1  0.89786039  0.66667939  0.33332061  1
  Be  Be4  1  0.50000000  0.50000000  0.00000000  1
  Be  Be5  1  0.50000000  0.50000000  0.50000000  1
  Be  Be6  1  0.50000000  -0.00000000  0.50000000  1
  Be  Be7  1  0.00000000  0.50000000  0.00000000  1
  Be  Be8  1  0.00000000  0.50000000  0.50000000  1
  Be  Be9  1  -0.00000000  -0.00000000  0.50000000  1
  Be  Be10  1  0.75000000  0.66959520  0.03922867  1
  Be  Be11  1  0.75000000  0.36949374  0.33020800  1
  Be  Be12  1  0.75000000  0.96084522  0.63079449  1
  Be  Be13  1  0.75000000  0.36920551  0.03915478  1
  Be  Be14  1  0.75000000  0.96077133  0.33040480  1
  Be  Be15  1  0.75000000  0.66979200  0.63050626  1
  Be  Be16  1  0.25000000  0.33040480  0.96077133  1
  Be  Be17  1  0.25000000  0.63050626  0.66979200  1
  Be  Be18  1  0.25000000  0.03915478  0.36920551  1
  Be  Be19  1  0.25000000  0.63079449  0.96084522  1
  Be  Be20  1  0.25000000  0.03922867  0.66959520  1
  Be  Be21  1  0.25000000  0.33020800  0.36949374  1
  Be  Be22  1  0.48492473  0.83578264  0.67157081  1
  Be  Be23  1  0.48501120  0.83578839  0.16421161  1
  Be  Be24  1  0.48492473  0.32842919  0.16421736  1
  Be  Be25  1  0.51507527  0.16421736  0.32842919  1
  Be  Be26  1  0.51498880  0.16421161  0.83578839  1
  Be  Be27  1  0.51507527  0.67157081  0.83578264  1
  Be  Be28  1  0.98492473  0.16421736  0.32842919  1
  Be  Be29  1  0.98501120  0.16421161  0.83578839  1
  Be  Be30  1  0.98492473  0.67157081  0.83578264  1
  Be  Be31  1  0.01507527  0.83578264  0.67157081  1
  Be  Be32  1  0.01498880  0.83578839  0.16421161  1
  Be  Be33  1  0.01507527  0.32842919  0.16421736  1
loop_
_geom_bond_atom_site_label_1
_geom_bond_atom_site_label_2
_geom_bond_distance
_geom_bond_site_symmetry_2
Be0 Be3 2.120312 1_555
Be0 Be4 2.242834 1_555
Be0 Be6 2.242834 1_565
Be0 Be5 2.242973 1_555
Be0 Be23 2.309084 1_555
Be0 Be22 2.309591 1_555
Be0 Be24 2.309591 1_555
Be0 Be10 2.415559 1_555
Be0 Be14 2.415559 1_555
Be0 Be11 2.416095 1_555
Be0 Be15 2.416095 1_555
Be0 Be13 2.417450 1_555
Be0 Be12 2.417450 1_555
Be0 Ti2 2.524834 1_555
Be1 Be2 2.120312 1_555
Be1 Be4 2.242834 1_556
Be1 Be6 2.242834 1_555
Be1 Be5 2.242973 1_555
Be1 Be26 2.309084 1_555
Be1 Be27 2.309591 1_555
Be1 Be25 2.309591 1_555
Be1 Be20 2.415559 1_555
Be1 Be16 2.415559 1_555
Be1 Be21 2.416095 1_555
Be1 Be17 2.416095 1_555
Be1 Be18 2.417450 1_555
Be1 Be19 2.417450 1_555
Be1 Ti3 2.524834 1_555
Be2 Be7 2.242834 1_556
Be2 Be9 2.242834 1_555
Be2 Be8 2.242973 1_555
Be2 Be29 2.309084 1_455
Be2 Be30 2.309591 1_455
Be2 Be28 2.309591 1_455
Be2 Be20 2.415559 1_555
Be2 Be21 2.416095 1_555
Be2 Ti3 2.524834 1_455
Be3 Be9 2.242834 1_665
Be3 Be7 2.242834 1_655
Be3 Be8 2.242973 1_655
Be3 Be32 2.309084 1_655
Be3 Be31 2.309591 1_655
Be3 Be33 2.309591 1_655
Be3 Ti2 2.524834 1_655
Be4 Ti3 2.776441 1_554
Be4 Ti2 2.776441 1_555
Be5 Ti3 2.775687 1_555
Be5 Ti2 2.775687 1_555
Be6 Ti2 2.776441 1_545
Be6 Ti3 2.776441 1_555
Be7 Ti3 2.776441 1_454
Be7 Ti2 2.776441 1_555
Be8 Ti3 2.775687 1_455
Be8 Ti2 2.775687 1_555
Be9 Ti3 2.776441 1_455
Be9 Ti2 2.776441 1_545
Be10 Be7 2.118584 1_655
Be10 Be4 2.118584 1_555
Be10 Be14 2.138382 1_555
Be10 Be32 2.195842 1_655
Be10 Be23 2.195842 1_555
Be10 Be13 2.205675 1_555
Be10 Be30 2.256375 1_554
Be10 Be27 2.256375 1_554
Be10 Be3 2.415559 1_555
Be10 Ti0 2.581853 1_555
Be10 Ti3 2.613052 1_554
Be11 Be8 2.119287 1_655
Be11 Be5 2.119287 1_555
Be11 Be13 2.136325 1_555
Be11 Be24 2.195789 1_555
Be11 Be33 2.195789 1_655
Be11 Be15 2.205374 1_555
Be11 Be28 2.256140 1_555
Be11 Be25 2.256140 1_555
Be11 Be3 2.416095 1_555
Be11 Ti0 2.581471 1_545
Be11 Ti3 2.613182 1_555
Be12 Be9 2.120010 1_665
Be12 Be6 2.120010 1_565
Be12 Be15 2.136325 1_555
Be12 Be22 2.195531 1_555
Be12 Be31 2.195531 1_655
Be12 Be14 2.205675 1_555
Be12 Be29 2.255633 1_565
Be12 Be26 2.255633 1_565
Be12 Be3 2.417450 1_555
Be12 Ti0 2.580148 1_556
Be12 Ti3 2.614169 1_565
Be13 Be4 2.120010 1_555
Be13 Be7 2.120010 1_655
Be13 Be24 2.195531 1_555
Be13 Be33 2.195531 1_655
Be13 Be26 2.255633 1_554
Be13 Be29 2.255633 1_554
Be13 Be3 2.417450 1_555
Be13 Ti0 2.580148 1_545
Be13 Ti3 2.614169 1_554
Be14 Be9 2.118584 1_665
Be14 Be6 2.118584 1_565
Be14 Be32 2.195842 1_655
Be14 Be23 2.195842 1_555
Be14 Be25 2.256375 1_565
Be14 Be28 2.256375 1_565
Be14 Be3 2.415559 1_555
Be14 Ti0 2.581853 1_555
Be14 Ti3 2.613052 1_565
Be15 Be8 2.119287 1_655
Be15 Be5 2.119287 1_555
Be15 Be22 2.195789 1_555
Be15 Be31 2.195789 1_655
Be15 Be27 2.256140 1_555
Be15 Be30 2.256140 1_555
Be15 Be3 2.416095 1_555
Be15 Ti0 2.581471 1_556
Be15 Ti3 2.613182 1_555
Be16 Be7 2.118584 1_556
Be16 Be4 2.118584 1_556
Be16 Be20 2.138382 1_555
Be16 Be26 2.195842 1_555
Be16 Be29 2.195842 1_455
Be16 Be19 2.205675 1_555
Be16 Be33 2.256375 1_556
Be16 Be24 2.256375 1_556
Be16 Be2 2.415559 1_555
Be16 Ti1 2.581853 1_555
Be16 Ti2 2.613052 1_556
Be17 Be5 2.119287 1_555
Be17 Be8 2.119287 1_555
Be17 Be19 2.136325 1_555
Be17 Be27 2.195789 1_555
Be17 Be30 2.195789 1_455
Be17 Be21 2.205374 1_555
Be17 Be31 2.256140 1_555
Be17 Be22 2.256140 1_555
Be17 Be2 2.416095 1_555
Be17 Ti1 2.581471 1_565
Be17 Ti2 2.613182 1_555
Be18 Be6 2.120010 1_555
Be18 Be9 2.120010 1_555
Be18 Be21 2.136325 1_555
Be18 Be28 2.195531 1_455
Be18 Be25 2.195531 1_555
Be18 Be20 2.205675 1_555
Be18 Be23 2.255633 1_545
Be18 Be32 2.255633 1_545
Be18 Be2 2.417450 1_555
Be18 Ti1 2.580148 1_554
Be18 Ti2 2.614169 1_545
Be19 Be4 2.120010 1_556
Be19 Be7 2.120010 1_556
Be19 Be30 2.195531 1_455
Be19 Be27 2.195531 1_555
Be19 Be23 2.255633 1_556
Be19 Be32 2.255633 1_556
Be19 Be2 2.417450 1_555
Be19 Ti1 2.580148 1_565
Be19 Ti2 2.614169 1_556
Be20 Be6 2.118584 1_555
Be20 Be9 2.118584 1_555
Be20 Be26 2.195842 1_555
Be20 Be29 2.195842 1_455
Be20 Be31 2.256375 1_545
Be20 Be22 2.256375 1_545
Be20 Ti1 2.581853 1_555
Be20 Ti2 2.613052 1_545
Be21 Be5 2.119287 1_555
Be21 Be8 2.119287 1_555
Be21 Be28 2.195789 1_455
Be21 Be25 2.195789 1_555
Be21 Be33 2.256140 1_555
Be21 Be24 2.256140 1_555
Be21 Ti1 2.581471 1_554
Be21 Ti2 2.613182 1_555
Be22 Be27 2.099820 1_555
Be22 Be26 2.099884 1_565
Be22 Be6 2.138403 1_565
Be22 Be5 2.138466 1_555
Be22 Ti1 2.683068 1_565
Be22 Ti2 2.731938 1_555
Be22 Ti0 2.824304 1_556
Be23 Be27 2.099884 1_554
Be23 Be25 2.099884 1_565
Be23 Be4 2.138468 1_555
Be23 Be6 2.138468 1_565
Be23 Ti1 2.684149 1_564
Be23 Ti2 2.732976 1_555
Be23 Ti0 2.823035 1_555
Be24 Be25 2.099820 1_555
Be24 Be26 2.099884 1_554
Be24 Be4 2.138403 1_555
Be24 Be5 2.138466 1_555
Be24 Ti1 2.683068 1_554
Be24 Ti2 2.731938 1_555
Be24 Ti0 2.824304 1_545
Be25 Be6 2.138403 1_555
Be25 Be5 2.138466 1_555
Be25 Ti0 2.683068 1_545
Be25 Ti3 2.731938 1_555
Be25 Ti1 2.824304 1_554
Be26 Be4 2.138468 1_556
Be26 Be6 2.138468 1_555
Be26 Ti0 2.684149 1_546
Be26 Ti3 2.732976 1_555
Be26 Ti1 2.823035 1_555
Be27 Be4 2.138403 1_556
Be27 Be5 2.138466 1_555
Be27 Ti0 2.683068 1_556
Be27 Ti3 2.731938 1_555
Be27 Ti1 2.824304 1_565
Be28 Be33 2.099820 1_655
Be28 Be32 2.099884 1_645
Be28 Be9 2.138403 1_655
Be28 Be8 2.138466 1_655
Be28 Ti0 2.683068 1_545
Be28 Ti3 2.731938 1_555
Be28 Ti1 2.824304 1_654
Be29 Be31 2.099884 1_645
Be29 Be33 2.099884 1_656
Be29 Be7 2.138468 1_656
Be29 Be9 2.138468 1_655
Be29 Ti0 2.684149 1_546
Be29 Ti3 2.732976 1_555
Be29 Ti1 2.823035 1_655
Be30 Be31 2.099820 1_655
Be30 Be32 2.099884 1_656
Be30 Be7 2.138403 1_656
Be30 Be8 2.138466 1_655
Be30 Ti0 2.683068 1_556
Be30 Ti3 2.731938 1_555
Be30 Ti1 2.824304 1_665
Be31 Be9 2.138403 1_565
Be31 Be8 2.138466 1_555
Be31 Ti1 2.683068 1_565
Be31 Ti2 2.731938 1_555
Be31 Ti0 2.824304 1_456
Be32 Be7 2.138468 1_555
Be32 Be9 2.138468 1_565
Be32 Ti1 2.684149 1_564
Be32 Ti2 2.732976 1_555
Be32 Ti0 2.823035 1_455
Be33 Be7 2.138403 1_555
Be33 Be8 2.138466 1_555
Be33 Ti1 2.683068 1_554
Be33 Ti2 2.731938 1_555
Be33 Ti0 2.824304 1_445
