# generated using pymatgen
data_Eu2P3(HO3)3
_symmetry_space_group_name_H-M   'P 1'
_cell_length_a   7.23492993
_cell_length_b   8.46558326
_cell_length_c   9.66594307
_cell_angle_alpha   89.15851102
_cell_angle_beta   68.28147063
_cell_angle_gamma   115.80587430
_symmetry_Int_Tables_number   1
_chemical_formula_structural   Eu2P3(HO3)3
_chemical_formula_sum   'Eu4 P6 H6 O18'
_cell_volume   484.08575270
_cell_formula_units_Z   2
loop_
 _symmetry_equiv_pos_site_id
 _symmetry_equiv_pos_as_xyz
  1  'x, y, z'
loop_
 _atom_site_type_symbol
 _atom_site_label
 _atom_site_symmetry_multiplicity
 _atom_site_fract_x
 _atom_site_fract_y
 _atom_site_fract_z
 _atom_site_occupancy
  Eu  Eu0  1  0.92903300  0.77182500  0.90597300  1
  Eu  Eu1  1  0.07096700  0.22817500  0.09402700  1
  Eu  Eu2  1  0.52950200  0.75301500  0.68179100  1
  Eu  Eu3  1  0.47049800  0.24698500  0.31820900  1
  P  P0  1  0.66171600  0.28411200  0.96075000  1
  P  P1  1  0.33828400  0.71588800  0.03925000  1
  P  P2  1  0.12081600  0.79223300  0.54713100  1
  P  P3  1  0.87918400  0.20776700  0.45286900  1
  P  P4  1  0.23065000  0.26875000  0.72690500  1
  P  P5  1  0.76935000  0.73125000  0.27309500  1
  H  H0  1  0.65021400  0.16753900  0.85868000  1
  H  H1  1  0.34978600  0.83246100  0.14132000  1
  H  H2  1  0.06722900  0.62952600  0.49698700  1
  H  H3  1  0.93277100  0.37047400  0.50301300  1
  H  H4  1  0.04186100  0.26217200  0.71163800  1
  H  H5  1  0.95813900  0.73782800  0.28836200  1
  O  O0  1  0.80332400  0.47662000  0.86892700  1
  O  O1  1  0.19667600  0.52338000  0.13107300  1
  O  O2  1  0.26713400  0.94028900  0.40350400  1
  O  O3  1  0.73286600  0.05971100  0.59649600  1
  O  O4  1  0.13737100  0.10108400  0.84993100  1
  O  O5  1  0.86262900  0.89891600  0.15006900  1
  O  O6  1  0.89747900  0.79175400  0.64839800  1
  O  O7  1  0.23500900  0.79507800  0.65465500  1
  O  O8  1  0.10252100  0.20824600  0.35160200  1
  O  O9  1  0.76499100  0.20492200  0.34534500  1
  O  O10  1  0.32384400  0.43354300  0.79649800  1
  O  O11  1  0.67615600  0.56645700  0.20350200  1
  O  O12  1  0.41749800  0.23917800  0.06966100  1
  O  O13  1  0.76149100  0.24138900  0.06402300  1
  O  O14  1  0.58250200  0.76082200  0.93033900  1
  O  O15  1  0.23850900  0.75861100  0.93597700  1
  O  O16  1  0.39583700  0.27880500  0.56875600  1
  O  O17  1  0.60416300  0.72119500  0.43124400  1
loop_
_geom_bond_atom_site_label_1
_geom_bond_atom_site_label_2
_geom_bond_distance
_geom_bond_site_symmetry_2
Eu0 O0 2.342913 1_555
Eu0 O14 2.389321 1_555
Eu0 O15 2.409899 1_655
Eu0 O4 2.455249 1_665
Eu0 O7 2.543036 1_655
Eu0 O5 2.576994 1_556
Eu0 O6 2.592501 1_555
Eu0 O11 2.798277 1_556
Eu1 O1 2.342913 1_555
Eu1 O12 2.389321 1_555
Eu1 O13 2.409899 1_455
Eu1 O5 2.455249 1_445
Eu1 O9 2.543036 1_455
Eu1 O4 2.576994 1_554
Eu1 O8 2.592501 1_555
Eu1 O10 2.798277 1_554
Eu2 O3 2.301961 1_565
Eu2 O17 2.325298 1_555
Eu2 O7 2.409694 1_555
Eu2 O6 2.429047 1_555
Eu2 O10 2.438245 1_555
Eu2 O14 2.566625 1_555
Eu2 O15 2.594839 1_555
Eu3 O2 2.301961 1_545
Eu3 O16 2.325298 1_555
Eu3 O9 2.409694 1_555
Eu3 O8 2.429047 1_555
Eu3 O11 2.438245 1_555
Eu3 O12 2.566625 1_555
Eu3 O13 2.594839 1_555
H0 P0 1.404301 1_555
H1 P1 1.404301 1_555
H2 P2 1.405785 1_555
H3 P3 1.405785 1_555
H4 P4 1.404880 1_555
H5 P5 1.404880 1_555
O0 P0 1.524516 1_555
O1 P1 1.524516 1_555
O2 P2 1.524783 1_555
O3 P3 1.524783 1_555
O4 P4 1.551356 1_555
O5 P5 1.551356 1_555
O6 P2 1.546823 1_655
O7 P2 1.543451 1_555
O8 P3 1.546823 1_455
O9 P3 1.543451 1_555
O10 P4 1.548425 1_555
O11 P5 1.548425 1_555
O12 P0 1.549616 1_554
O13 P0 1.548667 1_554
O14 P1 1.549616 1_556
O15 P1 1.548667 1_556
O16 P4 1.525732 1_555
O17 P5 1.525732 1_555
