# generated using pymatgen
data_K30Ga9As19
_symmetry_space_group_name_H-M   'P 1'
_cell_length_a   15.83599105
_cell_length_b   17.76110965
_cell_length_c   17.76069183
_cell_angle_alpha   111.55714186
_cell_angle_beta   107.29471383
_cell_angle_gamma   107.29032741
_symmetry_Int_Tables_number   1
_chemical_formula_structural   K30Ga9As19
_chemical_formula_sum   'K60 Ga18 As38'
_cell_volume   3944.03962794
_cell_formula_units_Z   2
loop_
 _symmetry_equiv_pos_site_id
 _symmetry_equiv_pos_as_xyz
  1  'x, y, z'
loop_
 _atom_site_type_symbol
 _atom_site_label
 _atom_site_symmetry_multiplicity
 _atom_site_fract_x
 _atom_site_fract_y
 _atom_site_fract_z
 _atom_site_occupancy
  K  K0  1  0.58631859  0.11688710  0.39313102  1
  K  K1  1  0.25339143  0.11658891  0.39349331  1
  K  K2  1  0.92059627  0.11691562  0.39312229  1
  K  K3  1  0.80372739  0.27626058  0.88315666  1
  K  K4  1  0.46941867  0.27627795  0.88315244  1
  K  K5  1  0.13682933  0.27698600  0.88348065  1
  K  K6  1  0.85994085  0.60648666  0.72308007  1
  K  K7  1  0.52763527  0.60690258  0.72382542  1
  K  K8  1  0.19326709  0.60688577  0.72379359  1
  K  K9  1  0.08035035  0.88311194  0.60687010  1
  K  K10  1  0.74606631  0.88308609  0.60688024  1
  K  K11  1  0.41327460  0.88341205  0.60650466  1
  K  K12  1  0.86294181  0.72374397  0.11684916  1
  K  K13  1  0.52983484  0.72301245  0.11652100  1
  K  K14  1  0.19725273  0.72372567  0.11685174  1
  K  K15  1  0.80672392  0.39351233  0.27692218  1
  K  K16  1  0.47340440  0.39311777  0.27620853  1
  K  K17  1  0.13903346  0.39309641  0.27617825  1
  K  K18  1  0.74988481  0.33309314  0.66662354  1
  K  K19  1  0.41672088  0.33336010  0.66685643  1
  K  K20  1  0.08329564  0.33334751  0.66657287  1
  K  K21  1  0.91677973  0.66690520  0.33337307  1
  K  K22  1  0.58336999  0.66664861  0.33342438  1
  K  K23  1  0.24995039  0.66664324  0.33314872  1
  K  K24  1  0.69835604  0.00846567  0.81864978  1
  K  K25  1  0.35319393  0.00852072  0.81871618  1
  K  K26  1  0.02397363  0.00933583  0.81314159  1
  K  K27  1  0.01472163  0.80375360  0.99064463  1
  K  K28  1  0.68980518  0.81013253  0.99149311  1
  K  K29  1  0.34465524  0.81019611  0.99145611  1
  K  K30  1  0.53445805  0.18129609  0.18983554  1
  K  K31  1  0.21099743  0.18681274  0.19618179  1
  K  K32  1  0.87966358  0.18138108  0.18989701  1
  K  K33  1  0.96830643  0.99153241  0.18134398  1
  K  K34  1  0.64269757  0.99066942  0.18687109  1
  K  K35  1  0.31347542  0.99148273  0.18128933  1
  K  K36  1  0.65193989  0.19623947  0.00934428  1
  K  K37  1  0.32200939  0.18980668  0.00854138  1
  K  K38  1  0.97686352  0.18987042  0.00851045  1
  K  K39  1  0.13221164  0.81870274  0.81016504  1
  K  K40  1  0.78700316  0.81862324  0.81010179  1
  K  K41  1  0.45566115  0.81317592  0.80380606  1
  K  K42  1  0.97510370  0.06455689  0.61089984  1
  K  K43  1  0.30865896  0.06445987  0.61186123  1
  K  K44  1  0.64219563  0.06438810  0.61179566  1
  K  K45  1  0.24422300  0.54740836  0.93555494  1
  K  K46  1  0.57784526  0.54738217  0.93561360  1
  K  K47  1  0.91057839  0.54624851  0.93546332  1
  K  K48  1  0.03037017  0.38810347  0.45249705  1
  K  K49  1  0.36416571  0.38900216  0.45356771  1
  K  K50  1  0.69671168  0.38801886  0.45247798  1
  K  K51  1  0.35801133  0.93554057  0.38813768  1
  K  K52  1  0.69156904  0.93544692  0.38910087  1
  K  K53  1  0.02446359  0.93560994  0.38820315  1
  K  K54  1  0.08881980  0.45261864  0.06438744  1
  K  K55  1  0.42244448  0.45258906  0.06444261  1
  K  K56  1  0.75609161  0.45374880  0.06453804  1
  K  K57  1  0.30249764  0.61099393  0.54643450  1
  K  K58  1  0.63629310  0.61189621  0.54749879  1
  K  K59  1  0.96996035  0.61198067  0.54752334  1
  Ga  Ga0  1  0.76760889  0.77517638  0.28044152  1
  Ga  Ga1  1  0.43589273  0.77478114  0.28024399  1
  Ga  Ga2  1  0.10162203  0.77539682  0.27930881  1
  Ga  Ga3  1  0.66112626  0.50556054  0.22525277  1
  Ga  Ga4  1  0.32621063  0.50398888  0.22464598  1
  Ga  Ga5  1  0.99244350  0.50529201  0.22481852  1
  Ga  Ga6  1  0.82224920  0.72066145  0.49602180  1
  Ga  Ga7  1  0.48717454  0.71952983  0.49471456  1
  Ga  Ga8  1  0.15560563  0.71972183  0.49447395  1
  Ga  Ga9  1  0.89905628  0.22482294  0.71955643  1
  Ga  Ga10  1  0.56504607  0.22460351  0.72069316  1
  Ga  Ga11  1  0.23077422  0.22521927  0.71975574  1
  Ga  Ga12  1  0.00554020  0.49443937  0.77474666  1
  Ga  Ga13  1  0.67422202  0.49470754  0.77517878  1
  Ga  Ga14  1  0.34045578  0.49601117  0.77535387  1
  Ga  Ga15  1  0.84441799  0.27934029  0.50398016  1
  Ga  Ga16  1  0.51106294  0.28027869  0.50552741  1
  Ga  Ga17  1  0.17949159  0.28047001  0.50528510  1
  As  As0  1  0.78547672  0.88271580  0.22804668  1
  As  As1  1  0.45484563  0.88245026  0.22794430  1
  As  As2  1  0.12002885  0.88343718  0.22663500  1
  As  As3  1  0.57232103  0.34559450  0.11758444  1
  As  As4  1  0.23652249  0.34327750  0.11666342  1
  As  As5  1  0.90274370  0.34532458  0.11732251  1
  As  As6  1  0.89335747  0.77333402  0.65675695  1
  As  As7  1  0.55745080  0.77192057  0.65467921  1
  As  As8  1  0.22683009  0.77204391  0.65446853  1
  As  As9  1  0.88118920  0.11728551  0.77195411  1
  As  As10  1  0.54663913  0.11656553  0.77336553  1
  As  As11  1  0.21182034  0.11754690  0.77205528  1
  As  As12  1  0.09434618  0.65440195  0.88241364  1
  As  As13  1  0.76392338  0.65467640  0.88267794  1
  As  As14  1  0.43014344  0.65672252  0.88333807  1
  As  As15  1  0.77330840  0.22666574  0.34324272  1
  As  As16  1  0.43983533  0.22795726  0.34553005  1
  As  As17  1  0.10921392  0.22807755  0.34531997  1
  As  As18  1  0.84408665  0.83507179  0.44667076  1
  As  As19  1  0.51009925  0.83460597  0.44622691  1
  As  As20  1  0.17700086  0.83509657  0.44574239  1
  As  As21  1  0.67549328  0.61162938  0.16531013  1
  As  As22  1  0.34194929  0.61067960  0.16488710  1
  As  As23  1  0.00904930  0.61162459  0.16492325  1
  As  As24  1  0.73115693  0.55425364  0.38934366  1
  As  As25  1  0.39732740  0.55333344  0.38839424  1
  As  As26  1  0.06378735  0.55376455  0.38839545  1
  As  As27  1  0.82258010  0.16492693  0.55332967  1
  As  As28  1  0.48966623  0.16490335  0.55425747  1
  As  As29  1  0.15656850  0.16539417  0.55377231  1
  As  As30  1  0.99117358  0.38836936  0.83468807  1
  As  As31  1  0.65761801  0.38837630  0.83507720  1
  As  As32  1  0.32471728  0.38931997  0.83511305  1
  As  As33  1  0.93550860  0.44574595  0.61065770  1
  As  As34  1  0.60287822  0.44623378  0.61160221  1
  As  As35  1  0.26933844  0.44666647  0.61160535  1
  As  As36  1  0.83333389  0.00000452  -0.00000025  1
  As  As37  1  0.33333117  0.00000215  -0.00000145  1
loop_
_geom_bond_atom_site_label_1
_geom_bond_atom_site_label_2
_geom_bond_distance
_geom_bond_site_symmetry_2
Ga0 K52 3.558053 1_555
Ga0 K22 3.568726 1_555
Ga0 K53 3.577920 1_655
Ga0 K21 3.587544 1_555
Ga0 K13 3.597035 1_555
Ga0 K12 3.610130 1_555
Ga1 K52 3.563413 1_555
Ga1 K22 3.566884 1_555
Ga1 K51 3.580985 1_555
Ga1 K23 3.584943 1_555
Ga1 K13 3.596451 1_555
Ga1 K14 3.610246 1_555
Ga2 K51 3.569366 1_555
Ga2 K53 3.571883 1_555
Ga2 K21 3.589066 1_455
Ga2 K23 3.589108 1_555
Ga2 K14 3.597112 1_555
Ga2 K12 3.600370 1_455
Ga3 K56 3.563811 1_555
Ga3 K21 3.567555 1_555
Ga3 K55 3.580772 1_555
Ga3 K22 3.585324 1_555
Ga3 K15 3.595884 1_555
Ga3 K16 3.611584 1_555
Ga4 K55 3.570443 1_555
Ga4 K54 3.571707 1_555
Ga4 K23 3.589490 1_555
Ga4 K22 3.590276 1_555
Ga4 K16 3.596422 1_555
Ga4 K17 3.601445 1_555
Ga5 K56 3.558633 1_555
Ga5 K21 3.569796 1_555
Ga5 K54 3.577561 1_655
Ga5 K23 3.588888 1_655
Ga5 K15 3.597939 1_555
Ga5 K17 3.608100 1_655
Ga6 K59 3.569826 1_555
Ga6 K58 3.571649 1_555
Ga6 K22 3.589123 1_555
Ga6 K21 3.590463 1_555
Ga6 K9 3.596942 1_655
Ga6 K10 3.600220 1_555
Ga7 K57 3.558114 1_555
Ga7 K23 3.569506 1_555
Ga7 K58 3.576873 1_555
Ga7 K22 3.588422 1_555
Ga7 K11 3.597706 1_555
Ga7 K10 3.609363 1_555
Ga8 K57 3.563079 1_555
Ga8 K23 3.567643 1_555
Ga8 K59 3.580537 1_455
Ga8 K21 3.585411 1_455
Ga8 K11 3.596031 1_555
Ga8 K9 3.611086 1_555
Ga9 K42 3.558069 1_555
Ga9 K20 3.568718 1_655
Ga9 K44 3.577997 1_555
Ga9 K18 3.587543 1_555
Ga9 K5 3.597055 1_655
Ga9 K3 3.610208 1_555
Ga10 K43 3.569335 1_555
Ga10 K44 3.571827 1_555
Ga10 K18 3.589078 1_555
Ga10 K19 3.589100 1_555
Ga10 K4 3.597111 1_555
Ga10 K3 3.600384 1_555
Ga11 K42 3.563331 1_455
Ga11 K20 3.566848 1_555
Ga11 K43 3.581029 1_555
Ga11 K19 3.584946 1_555
Ga11 K5 3.596509 1_555
Ga11 K4 3.610309 1_555
Ga12 K47 3.563795 1_455
Ga12 K18 3.567580 1_455
Ga12 K45 3.580786 1_555
Ga12 K20 3.585375 1_555
Ga12 K6 3.595876 1_455
Ga12 K8 3.611634 1_555
Ga13 K47 3.558728 1_555
Ga13 K18 3.569804 1_555
Ga13 K46 3.577623 1_555
Ga13 K19 3.588816 1_555
Ga13 K6 3.597865 1_555
Ga13 K7 3.608024 1_555
Ga14 K45 3.570392 1_555
Ga14 K46 3.571695 1_555
Ga14 K19 3.589473 1_555
Ga14 K20 3.590300 1_555
Ga14 K8 3.596404 1_555
Ga14 K7 3.601417 1_555
Ga15 K50 3.569739 1_555
Ga15 K48 3.571665 1_655
Ga15 K20 3.589106 1_655
Ga15 K18 3.590410 1_555
Ga15 K0 3.596933 1_555
Ga15 K2 3.600163 1_555
Ga16 K49 3.563071 1_555
Ga16 K19 3.567672 1_555
Ga16 K50 3.580571 1_555
Ga16 K18 3.585344 1_555
Ga16 K1 3.596053 1_555
Ga16 K0 3.611110 1_555
Ga17 K49 3.558024 1_555
Ga17 K19 3.569583 1_555
Ga17 K48 3.576922 1_555
Ga17 K20 3.588386 1_555
Ga17 K1 3.597701 1_555
Ga17 K2 3.609400 1_455
As0 Ga0 2.394918 1_555
As0 K34 3.456554 1_555
As0 K33 3.476462 1_555
As0 K2 3.534721 1_565
As0 K13 3.554692 1_555
As0 K52 3.557978 1_555
As0 K28 3.561309 1_554
As0 K12 3.574797 1_555
As0 K53 3.580351 1_655
As1 Ga1 2.395788 1_555
As1 K34 3.463806 1_555
As1 K35 3.478799 1_555
As1 K0 3.538045 1_565
As1 K13 3.552977 1_555
As1 K52 3.560137 1_555
As1 K29 3.561398 1_554
As1 K14 3.573764 1_555
As1 K51 3.580174 1_555
As2 Ga2 2.406506 1_555
As2 K27 3.526121 1_554
As2 K1 3.528847 1_565
As2 K14 3.572013 1_555
As2 K12 3.574009 1_455
As2 K35 3.581051 1_555
As2 K33 3.582409 1_455
As2 K51 3.582729 1_555
As2 K53 3.583989 1_555
As3 Ga3 2.395865 1_555
As3 K36 3.464697 1_555
As3 K37 3.478147 1_555
As3 K4 3.537474 1_554
As3 K15 3.552214 1_555
As3 K56 3.561455 1_555
As3 K30 3.562416 1_555
As3 K16 3.572899 1_555
As3 K55 3.578067 1_555
As4 Ga4 2.406399 1_555
As4 K31 3.526557 1_555
As4 K5 3.529142 1_554
As4 K16 3.570390 1_555
As4 K17 3.572562 1_555
As4 K38 3.580455 1_455
As4 K54 3.583072 1_555
As4 K37 3.583716 1_555
As4 K55 3.584306 1_555
As5 Ga5 2.395318 1_555
As5 K36 3.457164 1_555
As5 K38 3.477053 1_555
As5 K3 3.534195 1_554
As5 K15 3.554311 1_555
As5 K56 3.559693 1_555
As5 K32 3.560804 1_555
As5 K17 3.571878 1_655
As5 K54 3.581107 1_655
As6 Ga6 2.406820 1_555
As6 K26 3.526725 1_665
As6 K6 3.528871 1_555
As6 K9 3.571124 1_655
As6 K10 3.573273 1_555
As6 K40 3.581047 1_555
As6 K39 3.581538 1_655
As6 K59 3.581678 1_555
As6 K58 3.582592 1_555
As7 Ga7 2.395394 1_555
As7 K41 3.459005 1_555
As7 K40 3.475798 1_555
As7 K7 3.533911 1_555
As7 K11 3.554892 1_555
As7 K57 3.557200 1_555
As7 K24 3.561417 1_565
As7 K10 3.574147 1_555
As7 K58 3.578737 1_555
As8 Ga8 2.396098 1_555
As8 K41 3.462370 1_555
As8 K39 3.477978 1_555
As8 K8 3.538326 1_555
As8 K11 3.552163 1_555
As8 K57 3.559601 1_555
As8 K25 3.561511 1_565
As8 K9 3.573037 1_555
As8 K59 3.577787 1_455
As9 Ga9 2.394923 1_555
As9 K26 3.456606 1_655
As9 K24 3.476438 1_555
As9 K10 3.534709 1_545
As9 K5 3.554658 1_655
As9 K42 3.558054 1_555
As9 K38 3.561347 1_556
As9 K3 3.574830 1_555
As9 K44 3.580424 1_555
As10 Ga10 2.406449 1_555
As10 K36 3.525966 1_556
As10 K11 3.528879 1_545
As10 K4 3.572007 1_555
As10 K3 3.574024 1_555
As10 K25 3.581090 1_555
As10 K24 3.582383 1_555
As10 K43 3.582699 1_555
As10 K44 3.583919 1_555
As11 Ga11 2.395839 1_555
As11 K26 3.463845 1_555
As11 K25 3.478772 1_555
As11 K9 3.538016 1_545
As11 K5 3.553027 1_555
As11 K42 3.560091 1_455
As11 K37 3.561342 1_556
As11 K4 3.573850 1_555
As11 K43 3.580228 1_555
As12 Ga12 2.395816 1_555
As12 K27 3.464663 1_555
As12 K29 3.478146 1_555
As12 K14 3.537545 1_556
As12 K6 3.552229 1_455
As12 K47 3.561458 1_455
As12 K39 3.562423 1_555
As12 K8 3.572880 1_555
As12 K45 3.578053 1_555
As13 Ga13 2.395346 1_555
As13 K27 3.457081 1_655
As13 K28 3.477079 1_555
As13 K12 3.534269 1_556
As13 K6 3.554260 1_555
As13 K47 3.559785 1_555
As13 K40 3.560879 1_555
As13 K7 3.571823 1_555
As13 K46 3.581139 1_555
As14 Ga14 2.406404 1_555
As14 K41 3.526551 1_555
As14 K13 3.529151 1_556
As14 K8 3.570343 1_555
As14 K7 3.572565 1_555
As14 K28 3.580497 1_555
As14 K46 3.583049 1_555
As14 K29 3.583739 1_555
As14 K45 3.584257 1_555
As15 Ga15 2.406850 1_555
As15 K34 3.526613 1_545
As15 K15 3.528827 1_555
As15 K0 3.571110 1_555
As15 K2 3.573219 1_555
As15 K32 3.581063 1_555
As15 K30 3.581480 1_555
As15 K50 3.581613 1_555
As15 K48 3.582567 1_655
As16 Ga16 2.396145 1_555
As16 K31 3.462439 1_555
As16 K30 3.478001 1_555
As16 K16 3.538321 1_555
As16 K1 3.552149 1_555
As16 K49 3.559584 1_555
As16 K35 3.561457 1_545
As16 K0 3.573121 1_555
As16 K50 3.577852 1_555
As17 Ga17 2.395396 1_555
As17 K31 3.459109 1_555
As17 K32 3.475817 1_455
As17 K17 3.533869 1_555
As17 K1 3.554860 1_555
As17 K49 3.557169 1_555
As17 K33 3.561438 1_445
As17 K2 3.574188 1_455
As17 K48 3.578754 1_555
As18 Ga6 2.467483 1_555
As18 Ga0 2.472855 1_555
As18 K42 3.473332 1_565
As18 K52 3.533836 1_555
As18 K53 3.538435 1_655
As18 K9 3.579236 1_655
As18 K10 3.586506 1_555
As18 K21 3.646904 1_555
As18 K22 3.652354 1_555
As19 Ga7 2.467617 1_555
As19 Ga1 2.469141 1_555
As19 K44 3.482496 1_565
As19 K52 3.536264 1_555
As19 K51 3.539380 1_555
As19 K11 3.574604 1_555
As19 K10 3.576138 1_555
As19 K23 3.643814 1_555
As19 K22 3.647860 1_555
As20 Ga8 2.475486 1_555
As20 Ga2 2.476566 1_555
As20 K43 3.479740 1_565
As20 K51 3.534300 1_555
As20 K53 3.535919 1_555
As20 K11 3.581548 1_555
As20 K9 3.584154 1_555
As20 K21 3.646888 1_455
As20 K23 3.649178 1_555
As21 Ga0 2.467743 1_555
As21 Ga3 2.469284 1_555
As21 K46 3.480741 1_554
As21 K56 3.534574 1_555
As21 K55 3.539922 1_555
As21 K13 3.573361 1_555
As21 K12 3.575264 1_555
As21 K22 3.645758 1_555
As21 K21 3.648147 1_555
As22 Ga1 2.475470 1_555
As22 Ga4 2.476675 1_555
As22 K45 3.478899 1_554
As22 K55 3.534153 1_555
As22 K54 3.536927 1_555
As22 K13 3.580740 1_555
As22 K14 3.583440 1_555
As22 K23 3.648006 1_555
As22 K22 3.648920 1_555
As23 Ga2 2.467640 1_555
As23 Ga5 2.472854 1_455
As23 K47 3.472213 1_454
As23 K56 3.534253 1_455
As23 K54 3.537780 1_555
As23 K14 3.579200 1_555
As23 K12 3.586325 1_455
As23 K23 3.646481 1_555
As23 K21 3.652837 1_455
As24 Ga3 2.475355 1_555
As24 Ga6 2.476221 1_555
As24 K50 3.480148 1_555
As24 K58 3.536245 1_555
As24 K59 3.536471 1_555
As24 K15 3.582176 1_555
As24 K16 3.583664 1_555
As24 K22 3.647020 1_555
As24 K21 3.651734 1_555
As25 Ga4 2.467258 1_555
As25 Ga7 2.472523 1_555
As25 K49 3.473832 1_555
As25 K57 3.534220 1_555
As25 K58 3.539758 1_555
As25 K16 3.580157 1_555
As25 K17 3.587151 1_555
As25 K22 3.648718 1_555
As25 K23 3.652583 1_555
As26 Ga5 2.467845 1_455
As26 Ga8 2.468740 1_555
As26 K48 3.482494 1_555
As26 K57 3.537280 1_555
As26 K59 3.539347 1_455
As26 K15 3.573832 1_455
As26 K17 3.576217 1_555
As26 K21 3.644718 1_455
As26 K23 3.650422 1_555
As27 Ga15 2.467513 1_555
As27 Ga9 2.472814 1_555
As27 K52 3.473269 1_545
As27 K42 3.533835 1_555
As27 K44 3.538507 1_555
As27 K0 3.579208 1_555
As27 K2 3.586422 1_555
As27 K18 3.646901 1_555
As27 K20 3.652334 1_655
As28 Ga16 2.475477 1_555
As28 Ga10 2.476598 1_555
As28 K51 3.479738 1_545
As28 K43 3.534247 1_555
As28 K44 3.535848 1_555
As28 K1 3.581580 1_555
As28 K0 3.584158 1_555
As28 K18 3.646856 1_555
As28 K19 3.649205 1_555
As29 Ga17 2.467606 1_555
As29 Ga11 2.469148 1_555
As29 K53 3.482523 1_545
As29 K42 3.536200 1_455
As29 K43 3.539404 1_555
As29 K1 3.574602 1_555
As29 K2 3.576185 1_455
As29 K19 3.643861 1_555
As29 K20 3.647822 1_555
As30 Ga9 2.467737 1_555
As30 Ga12 2.469286 1_655
As30 K54 3.480779 1_656
As30 K47 3.534536 1_555
As30 K45 3.539925 1_655
As30 K5 3.573349 1_655
As30 K3 3.575289 1_555
As30 K20 3.645762 1_655
As30 K18 3.648183 1_555
As31 Ga10 2.467642 1_555
As31 Ga13 2.472874 1_555
As31 K56 3.472242 1_556
As31 K47 3.534265 1_555
As31 K46 3.537809 1_555
As31 K4 3.579179 1_555
As31 K3 3.586317 1_555
As31 K19 3.646416 1_555
As31 K18 3.652867 1_555
As32 Ga11 2.475461 1_555
As32 Ga14 2.476687 1_555
As32 K55 3.478866 1_556
As32 K45 3.534100 1_555
As32 K46 3.536913 1_555
As32 K5 3.580794 1_555
As32 K4 3.583454 1_555
As32 K19 3.647979 1_555
As32 K20 3.648931 1_555
As33 Ga12 2.475322 1_655
As33 Ga15 2.476191 1_555
As33 K59 3.480147 1_555
As33 K48 3.536298 1_655
As33 K50 3.536394 1_555
As33 K6 3.582184 1_555
As33 K8 3.583750 1_655
As33 K20 3.647052 1_655
As33 K18 3.651695 1_555
As34 Ga13 2.467834 1_555
As34 Ga16 2.468701 1_555
As34 K58 3.482539 1_555
As34 K49 3.537264 1_555
As34 K50 3.539367 1_555
As34 K6 3.573820 1_555
As34 K7 3.576227 1_555
As34 K18 3.644701 1_555
As34 K19 3.650415 1_555
As35 Ga14 2.467262 1_555
As35 Ga17 2.472524 1_555
As35 K57 3.473737 1_555
As35 K49 3.534161 1_555
As35 K48 3.539812 1_555
As35 K8 3.580152 1_555
As35 K7 3.587175 1_555
As35 K20 3.648719 1_555
As35 K19 3.652621 1_555
As36 K24 3.379187 1_554
As36 K33 3.379191 1_545
As36 K38 3.380229 1_555
As36 K28 3.380346 1_544
As36 K32 3.380938 1_555
As36 K40 3.380983 1_544
As37 K37 3.379250 1_555
As37 K29 3.379292 1_544
As37 K25 3.379370 1_554
As37 K35 3.379484 1_545
As37 K39 3.379510 1_544
As37 K30 3.379545 1_555
