# generated using pymatgen
data_U3Ga2Ge3
_symmetry_space_group_name_H-M   'P 1'
_cell_length_a   7.79162728
_cell_length_b   7.79162728
_cell_length_c   7.79162728
_cell_angle_alpha   120.37082799
_cell_angle_beta   120.37082799
_cell_angle_gamma   89.35889821
_symmetry_Int_Tables_number   1
_chemical_formula_structural   U3Ga2Ge3
_chemical_formula_sum   'U6 Ga4 Ge6'
_cell_volume   332.58215683
_cell_formula_units_Z   2
loop_
 _symmetry_equiv_pos_site_id
 _symmetry_equiv_pos_as_xyz
  1  'x, y, z'
loop_
 _atom_site_type_symbol
 _atom_site_label
 _atom_site_symmetry_multiplicity
 _atom_site_fract_x
 _atom_site_fract_y
 _atom_site_fract_z
 _atom_site_occupancy
  U  U0  1  0.36282600  0.17451300  0.50000000  1
  U  U1  1  0.67451300  0.86282600  0.50000000  1
  U  U2  1  0.17451300  0.67451300  0.81168700  1
  U  U3  1  0.86282600  0.36282600  0.18831300  1
  U  U4  1  0.74919100  0.74919100  0.00000000  1
  U  U5  1  0.24919100  0.24919100  0.00000000  1
  Ga  Ga0  1  0.69295200  0.47335300  0.50000000  1
  Ga  Ga1  1  0.97335300  0.19295200  0.50000000  1
  Ga  Ga2  1  0.47335300  0.97335300  0.78040100  1
  Ga  Ga3  1  0.19295200  0.69295200  0.21959900  1
  Ge  Ge0  1  0.35281400  0.55440600  0.50000000  1
  Ge  Ge1  1  0.05440600  0.85281400  0.50000000  1
  Ge  Ge2  1  0.55440600  0.05440600  0.20159200  1
  Ge  Ge3  1  0.85281400  0.35281400  0.79840800  1
  Ge  Ge4  1  0.99928800  0.99928800  0.00000000  1
  Ge  Ge5  1  0.49928800  0.49928800  0.00000000  1
loop_
_geom_bond_atom_site_label_1
_geom_bond_atom_site_label_2
_geom_bond_distance
_geom_bond_site_symmetry_2
Ga0 Ge2 2.663278 1_555
Ga0 Ge3 2.663278 1_555
Ga0 Ge0 2.717553 1_555
Ga0 U1 3.036421 1_555
Ga0 U3 3.082440 1_555
Ga0 U2 3.082440 1_655
Ga0 U4 3.133167 1_556
Ga0 U5 3.133167 1_555
Ga1 Ge3 2.663278 1_555
Ga1 Ge2 2.663278 1_555
Ga1 Ge1 2.717553 1_645
Ga1 U0 3.036421 1_655
Ga1 U3 3.082440 1_555
Ga1 U2 3.082440 1_655
Ga1 U4 3.133167 1_545
Ga1 U5 3.133167 1_656
Ga2 Ge1 2.663278 1_555
Ga2 Ge0 2.663278 1_555
Ga2 Ge2 2.717553 1_566
Ga2 U3 3.036421 1_566
Ga2 U0 3.082440 1_565
Ga2 U1 3.082440 1_555
Ga2 U5 3.133167 1_566
Ga2 U4 3.133167 1_556
Ga3 Ge1 2.663278 1_555
Ga3 Ge0 2.663278 1_555
Ga3 Ge3 2.717553 1_454
Ga3 U2 3.036421 1_554
Ga3 U0 3.082440 1_565
Ga3 U1 3.082440 1_555
Ga3 U5 3.133167 1_555
Ga3 U4 3.133167 1_455
Ge0 U0 2.960140 1_555
Ge0 U5 2.996440 1_555
Ge0 U4 2.996440 1_556
Ge0 U3 3.128586 1_455
Ge0 U2 3.128586 1_555
Ge1 U1 2.960140 1_455
Ge1 U5 2.996440 1_566
Ge1 U4 2.996440 1_455
Ge1 U3 3.128586 1_455
Ge1 U2 3.128586 1_555
Ge2 U2 2.960140 1_544
Ge2 U5 2.996440 1_555
Ge2 U4 2.996440 1_545
Ge2 U0 3.128586 1_555
Ge2 U1 3.128586 1_545
Ge3 U3 2.960140 1_556
Ge3 U5 2.996440 1_656
Ge3 U4 2.996440 1_556
Ge3 U0 3.128586 1_555
Ge3 U1 3.128586 1_545
Ge4 U5 2.769050 1_665
Ge4 U4 2.771200 1_555
Ge4 U2 2.935009 1_654
Ge4 U0 2.935009 1_665
Ge4 U1 2.935009 1_554
Ge4 U3 2.935009 1_565
Ge5 U4 2.769050 1_555
Ge5 U5 2.771200 1_555
Ge5 U1 2.935009 1_555
Ge5 U0 2.935009 1_554
Ge5 U3 2.935009 1_555
Ge5 U2 2.935009 1_554
