# generated using pymatgen
data_Li5Mn3O8
_symmetry_space_group_name_H-M   'P 1'
_cell_length_a   9.82920483
_cell_length_b   9.82920483
_cell_length_c   5.24270963
_cell_angle_alpha   84.76044373
_cell_angle_beta   84.76044373
_cell_angle_gamma   16.84721081
_symmetry_Int_Tables_number   1
_chemical_formula_structural   Li5Mn3O8
_chemical_formula_sum   'Li5 Mn3 O8'
_cell_volume   146.17166248
_cell_formula_units_Z   1
loop_
 _symmetry_equiv_pos_site_id
 _symmetry_equiv_pos_as_xyz
  1  'x, y, z'
loop_
 _atom_site_type_symbol
 _atom_site_label
 _atom_site_symmetry_multiplicity
 _atom_site_fract_x
 _atom_site_fract_y
 _atom_site_fract_z
 _atom_site_occupancy
  Li  Li0  1  0.61805100  0.61805100  0.11904800  1
  Li  Li1  1  0.88623000  0.88623000  0.39202000  1
  Li  Li2  1  0.11377000  0.11377000  0.60798000  1
  Li  Li3  1  0.38194900  0.38194900  0.88095200  1
  Li  Li4  1  0.50000000  0.50000000  0.50000000  1
  Mn  Mn0  1  0.00000000  0.00000000  0.00000000  1
  Mn  Mn1  1  0.24916300  0.24916300  0.25126100  1
  Mn  Mn2  1  0.75083700  0.75083700  0.74873900  1
  O  O0  1  0.55600600  0.55600600  0.82928300  1
  O  O1  1  0.80529300  0.80529300  0.08919700  1
  O  O2  1  0.05821000  0.05821000  0.28069100  1
  O  O3  1  0.30726600  0.30726600  0.58426000  1
  O  O4  1  0.69273400  0.69273400  0.41574000  1
  O  O5  1  0.94179000  0.94179000  0.71930900  1
  O  O6  1  0.19470700  0.19470700  0.91080300  1
  O  O7  1  0.44399400  0.44399400  0.17071700  1
loop_
_geom_bond_atom_site_label_1
_geom_bond_atom_site_label_2
_geom_bond_distance
_geom_bond_site_symmetry_2
Li0 O2 1.990862 1_565
Li0 O2 1.990862 1_655
Li0 O0 2.025340 1_554
Li0 O4 2.223911 1_555
Li0 O6 2.277469 1_654
Li0 O6 2.277469 1_564
Li1 O7 2.107266 1_655
Li1 O7 2.107266 1_565
Li1 O5 2.110423 1_555
Li1 O3 2.271840 1_565
Li1 O3 2.271840 1_655
Li1 O1 2.336476 1_555
Li2 O0 2.107266 1_455
Li2 O0 2.107266 1_545
Li2 O2 2.110423 1_555
Li2 O4 2.271840 1_455
Li2 O4 2.271840 1_545
Li2 O6 2.336476 1_555
Li3 O5 1.990862 1_455
Li3 O5 1.990862 1_545
Li3 O7 2.025340 1_556
Li3 O3 2.223911 1_555
Li3 O1 2.277469 1_546
Li3 O1 2.277469 1_456
Li4 O5 2.106255 1_545
Li4 O5 2.106255 1_455
Li4 O2 2.106255 1_655
Li4 O2 2.106255 1_565
Li4 O0 2.124509 1_555
Li4 O7 2.124509 1_555
Mn0 O2 1.937645 1_555
Mn0 O5 1.937645 1_444
Mn0 O7 1.969904 1_545
Mn0 O7 1.969904 1_455
Mn0 O0 1.969904 1_454
Mn0 O0 1.969904 1_544
Mn1 O1 1.953299 1_545
Mn1 O1 1.953299 1_455
Mn1 O4 1.961199 1_545
Mn1 O4 1.961199 1_455
Mn1 O6 2.157858 1_554
Mn1 O3 2.165348 1_555
Mn2 O6 1.953299 1_655
Mn2 O6 1.953299 1_565
Mn2 O3 1.961199 1_655
Mn2 O3 1.961199 1_565
Mn2 O1 2.157858 1_556
Mn2 O4 2.165348 1_555
