# generated using pymatgen
data_RbAlP2(HO4)2
_symmetry_space_group_name_H-M   'P 1'
_cell_length_a   8.23529863
_cell_length_b   8.23529900
_cell_length_c   17.82336652
_cell_angle_alpha   76.64255572
_cell_angle_beta   76.64255537
_cell_angle_gamma   60.00000252
_symmetry_Int_Tables_number   1
_chemical_formula_structural   RbAlP2(HO4)2
_chemical_formula_sum   'Rb6 Al6 P12 H12 O48'
_cell_volume   1008.90138224
_cell_formula_units_Z   6
loop_
 _symmetry_equiv_pos_site_id
 _symmetry_equiv_pos_as_xyz
  1  'x, y, z'
loop_
 _atom_site_type_symbol
 _atom_site_label
 _atom_site_symmetry_multiplicity
 _atom_site_fract_x
 _atom_site_fract_y
 _atom_site_fract_z
 _atom_site_occupancy
  Rb  Rb0  1  0.25000000  0.25000000  0.25000000  1
  Rb  Rb1  1  0.75000000  0.75000000  0.75000000  1
  Rb  Rb2  1  0.33335500  0.33335500  0.99993400  1
  Rb  Rb3  1  0.83335500  0.83335500  0.49993400  1
  Rb  Rb4  1  0.66664500  0.66664500  0.00006600  1
  Rb  Rb5  1  0.16664500  0.16664500  0.50006600  1
  Al  Al0  1  0.00000000  0.00000000  0.00000000  1
  Al  Al1  1  0.50000000  0.50000000  0.50000000  1
  Al  Al2  1  0.91234300  0.91234300  0.26297200  1
  Al  Al3  1  0.41234300  0.41234300  0.76297200  1
  Al  Al4  1  0.08765700  0.08765700  0.73702800  1
  Al  Al5  1  0.58765700  0.58765700  0.23702800  1
  P  P0  1  0.71593800  0.25296200  0.13861500  1
  P  P1  1  0.89248500  0.71593800  0.13861500  1
  P  P2  1  0.25296200  0.89248500  0.13861500  1
  P  P3  1  0.75296200  0.21593800  0.63861500  1
  P  P4  1  0.39248500  0.75296200  0.63861500  1
  P  P5  1  0.21593800  0.39248500  0.63861500  1
  P  P6  1  0.28406200  0.74703800  0.86138500  1
  P  P7  1  0.10751500  0.28406200  0.86138500  1
  P  P8  1  0.74703800  0.10751500  0.86138500  1
  P  P9  1  0.24703800  0.78406200  0.36138500  1
  P  P10  1  0.60751500  0.24703800  0.36138500  1
  P  P11  1  0.78406200  0.60751500  0.36138500  1
  H  H0  1  0.43740700  0.50015900  0.13560300  1
  H  H1  1  0.92683100  0.43740700  0.13560300  1
  H  H2  1  0.50015900  0.92683100  0.13560300  1
  H  H3  1  0.00015900  0.93740700  0.63560300  1
  H  H4  1  0.42683100  0.00015900  0.63560300  1
  H  H5  1  0.93740700  0.42683100  0.63560300  1
  H  H6  1  0.56259300  0.49984100  0.86439700  1
  H  H7  1  0.07316900  0.56259300  0.86439700  1
  H  H8  1  0.49984100  0.07316900  0.86439700  1
  H  H9  1  0.99984100  0.06259300  0.36439700  1
  H  H10  1  0.57316900  0.99984100  0.36439700  1
  H  H11  1  0.06259300  0.57316900  0.36439700  1
  O  O0  1  0.84414000  0.19876700  0.06251800  1
  O  O1  1  0.89457500  0.84414000  0.06251800  1
  O  O2  1  0.19876700  0.89457500  0.06251800  1
  O  O3  1  0.69876700  0.34414000  0.56251800  1
  O  O4  1  0.39457500  0.69876700  0.56251800  1
  O  O5  1  0.34414000  0.39457500  0.56251800  1
  O  O6  1  0.15586000  0.80123300  0.93748200  1
  O  O7  1  0.10542500  0.15586000  0.93748200  1
  O  O8  1  0.80123300  0.10542500  0.93748200  1
  O  O9  1  0.30123300  0.65586000  0.43748200  1
  O  O10  1  0.60542500  0.30123300  0.43748200  1
  O  O11  1  0.65586000  0.60542500  0.43748200  1
  O  O12  1  0.72117500  0.08820900  0.20082500  1
  O  O13  1  0.98979100  0.72117500  0.20082500  1
  O  O14  1  0.08820900  0.98979100  0.20082500  1
  O  O15  1  0.58820900  0.22117500  0.70082500  1
  O  O16  1  0.48979100  0.58820900  0.70082500  1
  O  O17  1  0.22117500  0.48979100  0.70082500  1
  O  O18  1  0.27882500  0.91179100  0.79917500  1
  O  O19  1  0.01020900  0.27882500  0.79917500  1
  O  O20  1  0.91179100  0.01020900  0.79917500  1
  O  O21  1  0.41179100  0.77882500  0.29917500  1
  O  O22  1  0.51020900  0.41179100  0.29917500  1
  O  O23  1  0.77882500  0.51020900  0.29917500  1
  O  O24  1  0.74892600  0.39811500  0.16734800  1
  O  O25  1  0.68561100  0.74892600  0.16734800  1
  O  O26  1  0.39811500  0.68561100  0.16734800  1
  O  O27  1  0.89811500  0.24892600  0.66734800  1
  O  O28  1  0.18561100  0.89811500  0.66734800  1
  O  O29  1  0.24892600  0.18561100  0.66734800  1
  O  O30  1  0.25107400  0.60188500  0.83265200  1
  O  O31  1  0.31438900  0.25107400  0.83265200  1
  O  O32  1  0.60188500  0.31438900  0.83265200  1
  O  O33  1  0.10188500  0.75107400  0.33265200  1
  O  O34  1  0.81438900  0.10188500  0.33265200  1
  O  O35  1  0.75107400  0.81438900  0.33265200  1
  O  O36  1  0.50007300  0.36935600  0.11907400  1
  O  O37  1  0.01149800  0.50007300  0.11907400  1
  O  O38  1  0.36935600  0.01149800  0.11907400  1
  O  O39  1  0.86935600  0.00007200  0.61907400  1
  O  O40  1  0.51149800  0.86935600  0.61907400  1
  O  O41  1  0.00007200  0.51149800  0.61907400  1
  O  O42  1  0.49992700  0.63064400  0.88092600  1
  O  O43  1  0.98850200  0.49992800  0.88092600  1
  O  O44  1  0.63064400  0.98850200  0.88092600  1
  O  O45  1  0.13064400  0.99992800  0.38092600  1
  O  O46  1  0.48850200  0.13064400  0.38092600  1
  O  O47  1  0.99992800  0.48850200  0.38092600  1
loop_
_geom_bond_atom_site_label_1
_geom_bond_atom_site_label_2
_geom_bond_distance
_geom_bond_site_symmetry_2
Al0 O8 1.910356 1_454
Al0 O2 1.910356 1_545
Al0 O1 1.910356 1_445
Al0 O7 1.910356 1_554
Al0 O6 1.910356 1_544
Al0 O0 1.910356 1_455
Al1 O5 1.910356 1_555
Al1 O11 1.910356 1_555
Al1 O3 1.910356 1_555
Al1 O9 1.910356 1_555
Al1 O4 1.910356 1_555
Al1 O10 1.910356 1_555
Al2 O14 1.894043 1_655
Al2 O12 1.894047 1_565
Al2 O13 1.894049 1_555
Al2 O34 1.950202 1_565
Al2 O33 1.950204 1_655
Al2 O35 1.950208 1_555
Al3 O16 1.894043 1_555
Al3 O15 1.894047 1_555
Al3 O17 1.894049 1_555
Al3 O32 1.950202 1_555
Al3 O30 1.950204 1_555
Al3 O31 1.950209 1_555
Al4 O20 1.894043 1_455
Al4 O18 1.894047 1_545
Al4 O19 1.894049 1_555
Al4 O28 1.950202 1_545
Al4 O27 1.950204 1_455
Al4 O29 1.950208 1_555
Al5 O22 1.894043 1_555
Al5 O21 1.894047 1_555
Al5 O23 1.894049 1_555
Al5 O26 1.950202 1_555
Al5 O24 1.950204 1_555
Al5 O25 1.950209 1_555
H0 O36 1.016835 1_555
H0 O26 1.605560 1_555
H1 O37 1.016842 1_655
H1 O24 1.605560 1_555
H2 O38 1.016835 1_565
H2 O25 1.605560 1_555
H3 O39 1.016835 1_465
H3 O28 1.605560 1_555
H4 O40 1.016835 1_545
H4 O29 1.605560 1_555
H5 O41 1.016835 1_655
H5 O27 1.605560 1_555
H6 O42 1.016835 1_555
H6 O32 1.605560 1_555
H7 O43 1.016835 1_455
H7 O30 1.605560 1_555
H8 O44 1.016835 1_545
H8 O31 1.605560 1_555
H9 O45 1.016835 1_645
H9 O34 1.605560 1_555
H10 O46 1.016835 1_565
H10 O35 1.605560 1_555
H11 O47 1.016835 1_455
H11 O33 1.605560 1_555
O0 P0 1.516668 1_555
O1 P1 1.516668 1_555
O2 P2 1.516668 1_555
O3 P3 1.516668 1_555
O4 P4 1.516668 1_555
O5 P5 1.516668 1_555
O6 P6 1.516668 1_555
O7 P7 1.516668 1_555
O8 P8 1.516668 1_555
O9 P9 1.516668 1_555
O10 P10 1.516668 1_555
O11 P11 1.516668 1_555
O12 P0 1.529912 1_555
O12 Rb0 3.376103 1_555
O13 P1 1.529912 1_555
O13 Rb0 3.376103 1_655
O14 P2 1.529912 1_555
O14 Rb0 3.376103 1_565
O15 P3 1.529912 1_555
O15 Rb1 3.376103 1_545
O16 P4 1.529912 1_555
O16 Rb1 3.376103 1_555
O17 P5 1.529912 1_555
O17 Rb1 3.376103 1_455
O18 P6 1.529912 1_555
O18 Rb1 3.376103 1_555
O19 P7 1.529912 1_555
O19 Rb1 3.376103 1_455
O20 P8 1.529912 1_555
O20 Rb1 3.376103 1_545
O21 P9 1.529912 1_555
O21 Rb0 3.376103 1_565
O22 P10 1.529912 1_555
O22 Rb0 3.376103 1_555
O23 P11 1.529912 1_555
O23 Rb0 3.376103 1_655
O24 P0 1.561051 1_555
O25 P1 1.561051 1_555
O26 P2 1.561051 1_555
O27 P3 1.561051 1_555
O28 P4 1.561051 1_555
O29 P5 1.561051 1_555
O30 P6 1.561051 1_555
O31 P7 1.561051 1_555
O32 P8 1.561051 1_555
O33 P9 1.561051 1_555
O34 P10 1.561051 1_555
O35 P11 1.561051 1_555
O36 P0 1.621167 1_555
O36 Rb2 2.920128 1_554
O36 Rb0 3.065415 1_555
O37 P1 1.621167 1_455
O37 Rb2 2.920120 1_554
O37 Rb0 3.065411 1_555
O38 P2 1.621174 1_545
O38 Rb2 2.920117 1_554
O38 Rb0 3.065410 1_555
O39 P3 1.621174 1_555
O39 Rb3 2.920123 1_545
O39 Rb1 3.065410 1_545
O40 P4 1.621174 1_555
O40 Rb3 2.920117 1_555
O40 Rb1 3.065410 1_555
O41 P5 1.621174 1_555
O41 Rb3 2.920119 1_455
O41 Rb1 3.065410 1_455
O42 P6 1.621167 1_555
O42 Rb4 2.920128 1_556
O42 Rb1 3.065415 1_555
O43 P7 1.621174 1_655
O43 Rb4 2.920118 1_556
O43 Rb1 3.065410 1_555
O44 P8 1.621174 1_565
O44 Rb4 2.920117 1_556
O44 Rb1 3.065410 1_555
O45 P9 1.621174 1_555
O45 Rb5 2.920123 1_565
O45 Rb0 3.065410 1_565
O46 P10 1.621174 1_555
O46 Rb5 2.920117 1_555
O46 Rb0 3.065410 1_555
O47 P11 1.621174 1_555
O47 Rb5 2.920119 1_655
O47 Rb0 3.065410 1_655
