# generated using pymatgen
data_CaNiO2
_symmetry_space_group_name_H-M   'P 1'
_cell_length_a   3.02210300
_cell_length_b   8.54345837
_cell_length_c   9.33180477
_cell_angle_alpha   81.66484749
_cell_angle_beta   80.70736824
_cell_angle_gamma   80.35386026
_symmetry_Int_Tables_number   1
_chemical_formula_structural   CaNiO2
_chemical_formula_sum   'Ca4 Ni4 O8'
_cell_volume   232.68830011
_cell_formula_units_Z   4
loop_
 _symmetry_equiv_pos_site_id
 _symmetry_equiv_pos_as_xyz
  1  'x, y, z'
loop_
 _atom_site_type_symbol
 _atom_site_label
 _atom_site_symmetry_multiplicity
 _atom_site_fract_x
 _atom_site_fract_y
 _atom_site_fract_z
 _atom_site_occupancy
  Ca  Ca0  1  0.83972400  0.23767700  0.56546000  1
  Ca  Ca1  1  0.16027600  0.76232300  0.43454000  1
  Ca  Ca2  1  0.58474300  0.14121900  0.18519700  1
  Ca  Ca3  1  0.41525700  0.85878100  0.81480300  1
  Ni  Ni0  1  0.13210600  0.54372600  0.69704400  1
  Ni  Ni1  1  0.71547500  0.19781300  0.86889400  1
  Ni  Ni2  1  0.28452500  0.80218700  0.13110600  1
  Ni  Ni3  1  0.86789400  0.45627400  0.30295600  1
  O  O0  1  0.32263800  0.59401000  0.26254300  1
  O  O1  1  0.85114700  0.81472800  0.98450000  1
  O  O2  1  0.14885300  0.18527200  0.01550000  1
  O  O3  1  0.67736200  0.40599000  0.73745700  1
  O  O4  1  0.59411100  0.69441400  0.63134000  1
  O  O5  1  0.32162200  0.11323700  0.71899500  1
  O  O6  1  0.40588900  0.30558600  0.36866000  1
  O  O7  1  0.67837800  0.88676300  0.28100500  1
loop_
_geom_bond_atom_site_label_1
_geom_bond_atom_site_label_2
_geom_bond_distance
_geom_bond_site_symmetry_2
Ca0 O5 2.239953 1_655
Ca0 O5 2.241966 1_555
Ca0 O3 2.250122 1_555
Ca0 O6 2.375307 1_555
Ca0 O6 2.376098 1_655
Ca1 O7 2.239953 1_455
Ca1 O7 2.241966 1_555
Ca1 O0 2.250122 1_555
Ca1 O4 2.375307 1_555
Ca1 O4 2.376098 1_455
Ca2 O2 2.172422 1_555
Ca2 O2 2.173952 1_655
Ca2 O7 2.217532 1_545
Ca2 O6 2.310627 1_555
Ca3 O1 2.172422 1_555
Ca3 O1 2.173952 1_455
Ca3 O5 2.217532 1_565
Ca3 O4 2.310627 1_555
Ni0 O3 1.913508 1_455
Ni0 O3 1.914278 1_555
Ni0 O4 2.017034 1_455
Ni0 O4 2.019860 1_555
Ni1 O3 2.006347 1_555
Ni1 O2 2.019369 1_556
Ni1 O2 2.021799 1_656
Ni1 O5 2.203719 1_655
Ni1 O5 2.239317 1_555
Ni2 O0 2.006347 1_555
Ni2 O1 2.019369 1_554
Ni2 O1 2.021799 1_454
Ni2 O7 2.203719 1_455
Ni2 O7 2.239317 1_555
Ni3 O0 1.913508 1_655
Ni3 O0 1.914278 1_555
Ni3 O6 2.017034 1_655
Ni3 O6 2.019860 1_555
