# generated using pymatgen
data_Ba2NdTlCu2O7
_symmetry_space_group_name_H-M   'P 1'
_cell_length_a   3.92903900
_cell_length_b   3.94818700
_cell_length_c   12.88166800
_cell_angle_alpha   90.00000000
_cell_angle_beta   90.00000000
_cell_angle_gamma   90.00000000
_symmetry_Int_Tables_number   1
_chemical_formula_structural   Ba2NdTlCu2O7
_chemical_formula_sum   'Ba2 Nd1 Tl1 Cu2 O7'
_cell_volume   199.82791443
_cell_formula_units_Z   1
loop_
 _symmetry_equiv_pos_site_id
 _symmetry_equiv_pos_as_xyz
  1  'x, y, z'
loop_
 _atom_site_type_symbol
 _atom_site_label
 _atom_site_symmetry_multiplicity
 _atom_site_fract_x
 _atom_site_fract_y
 _atom_site_fract_z
 _atom_site_occupancy
  Ba  Ba0  1  0.50000000  0.49616500  0.79489800  1
  Ba  Ba1  1  0.50000000  0.49616500  0.20510200  1
  Nd  Nd0  1  0.50000000  0.49988400  0.50000000  1
  Tl  Tl0  1  0.00000000  0.93162000  0.00000000  1
  Cu  Cu0  1  0.00000000  0.99991100  0.63591800  1
  Cu  Cu1  1  0.00000000  0.99991100  0.36408200  1
  O  O0  1  0.50000000  0.99861600  0.61920800  1
  O  O1  1  0.00000000  0.50004500  0.61978700  1
  O  O2  1  0.50000000  0.99861600  0.38079200  1
  O  O3  1  0.00000000  0.50004500  0.38021300  1
  O  O4  1  0.00000000  0.00779000  0.83345700  1
  O  O5  1  0.00000000  0.00779000  0.16654300  1
  O  O6  1  0.50000000  0.61164300  0.00000000  1
loop_
_geom_bond_atom_site_label_1
_geom_bond_atom_site_label_2
_geom_bond_distance
_geom_bond_site_symmetry_2
Ba0 O6 2.681106 1_556
Ba0 O4 2.797140 1_555
Ba0 O4 2.797140 1_655
Ba0 O4 2.861191 1_565
Ba0 O4 2.861191 1_665
Ba0 O1 2.991296 1_555
Ba0 O1 2.991296 1_655
Ba0 O0 2.996818 1_545
Ba0 O0 3.009540 1_555
Ba1 O6 2.681106 1_555
Ba1 O5 2.797140 1_555
Ba1 O5 2.797140 1_655
Ba1 O5 2.861191 1_665
Ba1 O5 2.861191 1_565
Ba1 O3 2.991296 1_555
Ba1 O3 2.991296 1_655
Ba1 O2 2.996818 1_545
Ba1 O2 3.009540 1_555
Nd0 O0 2.497071 1_555
Nd0 O2 2.497071 1_555
Nd0 O1 2.498071 1_655
Nd0 O1 2.498071 1_555
Nd0 O3 2.498071 1_555
Nd0 O3 2.498071 1_655
Nd0 O0 2.504974 1_545
Nd0 O2 2.504974 1_545
Cu0 O0 1.976284 1_555
Cu0 O0 1.976284 1_455
Cu0 O1 1.984473 1_555
Cu0 O1 1.985526 1_565
Cu0 O4 2.544822 1_565
Cu1 O2 1.976284 1_555
Cu1 O2 1.976284 1_455
Cu1 O3 1.984473 1_555
Cu1 O3 1.985526 1_565
Cu1 O5 2.544822 1_565
O4 Tl0 2.166327 1_546
O5 Tl0 2.166327 1_545
O6 Tl0 2.335666 1_655
O6 Tl0 2.335666 1_555
