# generated using pymatgen
data_La(P3Os)4
_symmetry_space_group_name_H-M   'P 1'
_cell_length_a   7.01881299
_cell_length_b   7.01881299
_cell_length_c   7.01881299
_cell_angle_alpha   109.47122063
_cell_angle_beta   109.47122063
_cell_angle_gamma   109.47122063
_symmetry_Int_Tables_number   1
_chemical_formula_structural   La(P3Os)4
_chemical_formula_sum   'La1 P12 Os4'
_cell_volume   266.17614017
_cell_formula_units_Z   1
loop_
 _symmetry_equiv_pos_site_id
 _symmetry_equiv_pos_as_xyz
  1  'x, y, z'
loop_
 _atom_site_type_symbol
 _atom_site_label
 _atom_site_symmetry_multiplicity
 _atom_site_fract_x
 _atom_site_fract_y
 _atom_site_fract_z
 _atom_site_occupancy
  La  La0  1  -0.00000000  -0.00000000  -0.00000000  1
  P  P0  1  0.85654031  0.64227918  0.49881850  1
  P  P1  1  0.14345969  0.35772082  0.50118150  1
  P  P2  1  0.14345969  0.64227918  0.78573987  1
  P  P3  1  0.85654031  0.35772082  0.21426013  1
  P  P4  1  0.64227918  0.49881850  0.85654031  1
  P  P5  1  0.35772082  0.50118150  0.14345969  1
  P  P6  1  0.64227918  0.78573987  0.14345969  1
  P  P7  1  0.35772082  0.21426013  0.85654031  1
  P  P8  1  0.49881850  0.85654031  0.64227918  1
  P  P9  1  0.50118150  0.14345969  0.35772082  1
  P  P10  1  0.78573987  0.14345969  0.64227918  1
  P  P11  1  0.21426013  0.85654031  0.35772082  1
  Os  Os0  1  0.50000000  0.50000000  0.50000000  1
  Os  Os1  1  0.50000000  -0.00000000  -0.00000000  1
  Os  Os2  1  -0.00000000  0.50000000  -0.00000000  1
  Os  Os3  1  -0.00000000  -0.00000000  0.50000000  1
loop_
_geom_bond_atom_site_label_1
_geom_bond_atom_site_label_2
_geom_bond_distance
_geom_bond_site_symmetry_2
La0 P6 3.123644 1_445
La0 P10 3.123644 1_454
La0 P2 3.123644 1_544
La0 P3 3.123644 1_455
La0 P11 3.123644 1_545
La0 P7 3.123644 1_554
La0 P8 3.123652 1_444
La0 P0 3.123652 1_444
La0 P9 3.123652 1_555
La0 P1 3.123652 1_555
La0 P5 3.123652 1_555
La0 P4 3.123652 1_444
P0 P3 2.306239 1_555
P0 P2 2.325383 1_655
P1 P2 2.306239 1_555
P1 P3 2.325383 1_455
P4 P7 2.306239 1_555
P4 P6 2.325383 1_556
P5 P6 2.306239 1_555
P5 P7 2.325383 1_554
P10 P9 2.306239 1_555
P10 P8 2.325383 1_545
P11 P8 2.306239 1_555
P11 P9 2.325383 1_565
Os0 P0 2.369198 1_555
Os0 P4 2.369198 1_555
Os0 P1 2.369198 1_555
Os0 P9 2.369198 1_555
Os0 P8 2.369198 1_555
Os0 P5 2.369198 1_555
Os1 P7 2.369188 1_554
Os1 P6 2.369188 1_545
Os1 P8 2.369192 1_544
Os1 P9 2.369192 1_555
Os1 P2 2.369195 1_544
Os1 P3 2.369195 1_555
Os2 P3 2.369188 1_455
Os2 P2 2.369188 1_554
Os2 P4 2.369192 1_454
Os2 P5 2.369192 1_555
Os2 P10 2.369195 1_454
Os2 P11 2.369195 1_555
Os3 P11 2.369188 1_545
Os3 P10 2.369188 1_455
Os3 P0 2.369192 1_445
Os3 P1 2.369192 1_555
Os3 P6 2.369195 1_445
Os3 P7 2.369195 1_555
