# generated using pymatgen
data_Li7FeNi3(PO4)6
_symmetry_space_group_name_H-M   'P 1'
_cell_length_a   8.81214909
_cell_length_b   8.81214909
_cell_length_c   8.81214898
_cell_angle_alpha   59.74429120
_cell_angle_beta   59.74429120
_cell_angle_gamma   59.74429201
_symmetry_Int_Tables_number   1
_chemical_formula_structural   Li7FeNi3(PO4)6
_chemical_formula_sum   'Li7 Fe1 Ni3 P6 O24'
_cell_volume   481.06226421
_cell_formula_units_Z   1
loop_
 _symmetry_equiv_pos_site_id
 _symmetry_equiv_pos_as_xyz
  1  'x, y, z'
loop_
 _atom_site_type_symbol
 _atom_site_label
 _atom_site_symmetry_multiplicity
 _atom_site_fract_x
 _atom_site_fract_y
 _atom_site_fract_z
 _atom_site_occupancy
  Li  Li0  1  0.27757600  0.10846800  0.77552400  1
  Li  Li1  1  0.77552400  0.27757600  0.10846800  1
  Li  Li2  1  0.10846800  0.77552400  0.27757600  1
  Li  Li3  1  0.47580200  0.47580200  0.47580200  1
  Li  Li4  1  0.84861200  0.29202900  0.65786500  1
  Li  Li5  1  0.29202900  0.65786500  0.84861200  1
  Li  Li6  1  0.65786500  0.84861200  0.29202900  1
  Fe  Fe0  1  0.85578600  0.85578600  0.85578600  1
  Ni  Ni0  1  0.35182100  0.35182100  0.35182100  1
  Ni  Ni1  1  0.14688000  0.14688000  0.14688000  1
  Ni  Ni2  1  0.64900500  0.64900500  0.64900500  1
  P  P0  1  0.75562700  0.03978200  0.45759000  1
  P  P1  1  0.03978200  0.45759000  0.75562700  1
  P  P2  1  0.45759000  0.75562700  0.03978200  1
  P  P3  1  0.54146900  0.25339800  0.95602400  1
  P  P4  1  0.95602400  0.54146900  0.25339800  1
  P  P5  1  0.25339800  0.95602400  0.54146900  1
  O  O0  1  0.87532500  0.47244200  0.72022900  1
  O  O1  1  0.47244200  0.72022900  0.87532500  1
  O  O2  1  0.72022900  0.87532500  0.47244200  1
  O  O3  1  0.92833800  0.04923700  0.27434400  1
  O  O4  1  0.79845300  0.00182900  0.62312400  1
  O  O5  1  0.59515600  0.22741200  0.42644600  1
  O  O6  1  0.04923700  0.27434400  0.92833800  1
  O  O7  1  0.22741200  0.42644600  0.59515600  1
  O  O8  1  0.42644600  0.59515600  0.22741200  1
  O  O9  1  0.37522600  0.21598500  0.98571700  1
  O  O10  1  0.73584400  0.10899900  0.89181700  1
  O  O11  1  0.98571700  0.37522600  0.21598500  1
  O  O12  1  0.00182900  0.62312400  0.79845300  1
  O  O13  1  0.27434400  0.92833800  0.04923700  1
  O  O14  1  0.62312400  0.79845300  0.00182900  1
  O  O15  1  0.53504200  0.44114400  0.78677300  1
  O  O16  1  0.78677300  0.53504200  0.44114400  1
  O  O17  1  0.89181700  0.73584400  0.10899900  1
  O  O18  1  0.44114400  0.78677300  0.53504200  1
  O  O19  1  0.21598500  0.98571700  0.37522600  1
  O  O20  1  0.10899900  0.89181700  0.73584400  1
  O  O21  1  0.26525900  0.12712100  0.53648000  1
  O  O22  1  0.53648000  0.26525900  0.12712100  1
  O  O23  1  0.12712100  0.53648000  0.26525900  1
loop_
_geom_bond_atom_site_label_1
_geom_bond_atom_site_label_2
_geom_bond_distance
_geom_bond_site_symmetry_2
Li0 O6 2.070731 1_555
Li0 O21 2.083172 1_555
Li0 O13 2.110997 1_546
Li0 O7 2.354788 1_555
Li1 O3 2.070731 1_555
Li1 O22 2.083172 1_555
Li1 O6 2.110997 1_654
Li1 O5 2.354788 1_555
Li2 O13 2.070731 1_555
Li2 O23 2.083172 1_555
Li2 O3 2.110997 1_465
Li2 O8 2.354788 1_555
Li3 O8 2.065159 1_555
Li3 O7 2.065159 1_555
Li3 O5 2.065159 1_555
Li4 O10 2.009723 1_555
Li4 O0 2.067106 1_555
Li4 O16 2.069192 1_555
Li4 O15 2.309666 1_555
Li5 O20 2.009723 1_555
Li5 O1 2.067106 1_555
Li5 O15 2.069192 1_555
Li5 O18 2.309666 1_555
Li6 O17 2.009723 1_555
Li6 O2 2.067106 1_555
Li6 O18 2.069192 1_555
Li6 O16 2.309666 1_555
Fe0 O4 1.960792 1_565
Fe0 O14 1.960792 1_556
Fe0 O12 1.960792 1_655
Fe0 O17 2.048417 1_556
Fe0 O20 2.048417 1_655
Fe0 O10 2.048417 1_565
Ni0 O21 2.043233 1_555
Ni0 O22 2.043233 1_555
Ni0 O23 2.043233 1_555
Ni0 O7 2.134924 1_555
Ni0 O8 2.134924 1_555
Ni0 O5 2.134924 1_555
Ni1 O19 1.979978 1_545
Ni1 O9 1.979978 1_554
Ni1 O11 1.979978 1_455
Ni1 O6 2.055939 1_554
Ni1 O3 2.055939 1_455
Ni1 O13 2.055939 1_545
Ni2 O1 1.985593 1_555
Ni2 O2 1.985593 1_555
Ni2 O0 1.985593 1_555
Ni2 O16 2.054682 1_555
Ni2 O15 2.054682 1_555
Ni2 O18 2.054682 1_555
O0 P1 1.561391 1_655
O1 P2 1.561391 1_556
O2 P0 1.561391 1_565
O3 P0 1.564107 1_555
O4 P0 1.522513 1_555
O5 P0 1.544816 1_555
O6 P1 1.564107 1_555
O7 P1 1.544816 1_555
O8 P2 1.544816 1_555
O9 P3 1.528647 1_555
O10 P3 1.557469 1_555
O11 P4 1.528647 1_555
O12 P1 1.522513 1_555
O13 P2 1.564107 1_555
O14 P2 1.522513 1_555
O15 P3 1.571295 1_555
O16 P4 1.571295 1_555
O17 P4 1.557469 1_555
O18 P5 1.571295 1_555
O19 P5 1.528647 1_555
O20 P5 1.557469 1_555
O21 P5 1.540614 1_545
O22 P3 1.540614 1_554
O23 P4 1.540614 1_455
