# generated using pymatgen
data_KNaSi5SnW3O13
_symmetry_space_group_name_H-M   'P 1'
_cell_length_a   9.76475293
_cell_length_b   9.76475293
_cell_length_c   9.35149282
_cell_angle_alpha   81.47981402
_cell_angle_beta   81.47981402
_cell_angle_gamma   113.74044972
_symmetry_Int_Tables_number   1
_chemical_formula_structural   KNaSi5SnW3O13
_chemical_formula_sum   'K2 Na2 Si10 Sn2 W6 O26'
_cell_volume   785.65160942
_cell_formula_units_Z   2
loop_
 _symmetry_equiv_pos_site_id
 _symmetry_equiv_pos_as_xyz
  1  'x, y, z'
loop_
 _atom_site_type_symbol
 _atom_site_label
 _atom_site_symmetry_multiplicity
 _atom_site_fract_x
 _atom_site_fract_y
 _atom_site_fract_z
 _atom_site_occupancy
  K  K0  1  0.60209600  0.60209600  0.11628200  1
  K  K1  1  0.39790400  0.39790400  0.88371800  1
  Na  Na0  1  0.87374800  0.12625200  0.00000000  1
  Na  Na1  1  0.12625200  0.87374800  0.00000000  1
  Si  Si0  1  0.31610400  0.11680900  0.24480400  1
  Si  Si1  1  0.68389600  0.88319100  0.75519600  1
  Si  Si2  1  0.88319100  0.68389600  0.75519600  1
  Si  Si3  1  0.11680900  0.31610400  0.24480400  1
  Si  Si4  1  0.81101200  0.18898800  0.50000000  1
  Si  Si5  1  0.18898800  0.81101200  0.50000000  1
  Si  Si6  1  0.65742500  0.23103100  0.22803300  1
  Si  Si7  1  0.34257500  0.76896900  0.77196700  1
  Si  Si8  1  0.76896900  0.34257500  0.77196700  1
  Si  Si9  1  0.23103100  0.65742500  0.22803300  1
  Sn  Sn0  1  0.50000000  0.00000000  0.00000000  1
  Sn  Sn1  1  0.00000000  0.50000000  0.00000000  1
  W  W0  1  0.89815900  0.89815900  0.27259100  1
  W  W1  1  0.10184100  0.10184100  0.72740900  1
  W  W2  1  0.55116200  0.73629700  0.42409200  1
  W  W3  1  0.44883800  0.26370300  0.57590800  1
  W  W4  1  0.26370300  0.44883800  0.57590800  1
  W  W5  1  0.73629700  0.55116200  0.42409200  1
  O  O0  1  0.68753300  0.18215400  0.39622600  1
  O  O1  1  0.31246700  0.81784600  0.60377400  1
  O  O2  1  0.81784600  0.31246700  0.60377400  1
  O  O3  1  0.18215400  0.68753300  0.39622600  1
  O  O4  1  0.78042100  0.78042100  0.76735400  1
  O  O5  1  0.21957900  0.21957900  0.23264600  1
  O  O6  1  0.40394300  0.78389200  0.14334000  1
  O  O7  1  0.59605700  0.21610800  0.85666000  1
  O  O8  1  0.21610800  0.59605700  0.85666000  1
  O  O9  1  0.78389200  0.40394300  0.14334000  1
  O  O10  1  0.64053700  0.09244000  0.14400400  1
  O  O11  1  0.35946300  0.90756000  0.85599600  1
  O  O12  1  0.90756000  0.35946300  0.85599600  1
  O  O13  1  0.09244000  0.64053700  0.14400400  1
  O  O14  1  0.32252300  0.04764400  0.09825200  1
  O  O15  1  0.67747700  0.95235600  0.90174800  1
  O  O16  1  0.95235600  0.67747700  0.90174800  1
  O  O17  1  0.04764400  0.32252300  0.09825200  1
  O  O18  1  0.75731300  0.01722900  0.60043000  1
  O  O19  1  0.24268700  0.98277100  0.39957000  1
  O  O20  1  0.98277100  0.24268700  0.39957000  1
  O  O21  1  0.01722900  0.75731300  0.60043000  1
  O  O22  1  0.48897700  0.24031200  0.25300200  1
  O  O23  1  0.51102300  0.75968800  0.74699800  1
  O  O24  1  0.75968800  0.51102300  0.74699800  1
  O  O25  1  0.24031200  0.48897700  0.25300200  1
loop_
_geom_bond_atom_site_label_1
_geom_bond_atom_site_label_2
_geom_bond_distance
_geom_bond_site_symmetry_2
K0 O9 3.116562 1_555
K0 O6 3.116562 1_555
K0 O22 3.230496 1_555
K0 O25 3.230496 1_555
K0 O4 3.301927 1_554
K0 W5 3.386529 1_555
K0 W2 3.386529 1_555
K0 W0 3.824520 1_555
K1 O8 3.116562 1_555
K1 O7 3.116562 1_555
K1 O23 3.230496 1_555
K1 O24 3.230496 1_555
K1 O5 3.301927 1_556
K1 W3 3.386529 1_555
K1 W4 3.386529 1_555
K1 W1 3.824520 1_555
Na0 O12 2.337198 1_554
Na0 O10 2.337198 1_555
Na0 O15 2.400916 1_544
Na0 O17 2.400916 1_655
Na0 W1 3.231223 1_654
Na0 W0 3.231223 1_545
Na1 O13 2.337198 1_555
Na1 O11 2.337198 1_554
Na1 O14 2.400916 1_565
Na1 O16 2.400916 1_454
Na1 W0 3.231223 1_455
Na1 W1 3.231223 1_564
W0 W2 3.096462 1_555
W0 W5 3.096462 1_555
W1 W4 3.096462 1_555
W1 W3 3.096462 1_555
O0 Si4 1.643516 1_555
O0 Si6 1.677993 1_555
O1 Si5 1.643516 1_555
O1 Si7 1.677993 1_555
O2 Si4 1.643516 1_555
O2 Si8 1.677993 1_555
O3 Si5 1.643516 1_555
O3 Si9 1.677993 1_555
O4 Si1 1.633376 1_555
O4 Si2 1.633376 1_555
O5 Si0 1.633376 1_555
O5 Si3 1.633376 1_555
O6 Si9 1.624248 1_555
O6 Sn0 2.079716 1_565
O7 Si8 1.624248 1_555
O7 Sn0 2.079716 1_556
O8 Si7 1.624248 1_555
O8 Sn1 2.079716 1_556
O9 Si6 1.624248 1_555
O9 Sn1 2.079716 1_655
O10 Si6 1.627858 1_555
O10 Sn0 2.102825 1_555
O11 Si7 1.627858 1_555
O11 Sn0 2.102825 1_566
O12 Si8 1.627858 1_555
O12 Sn1 2.102825 1_656
O13 Si9 1.627858 1_555
O13 Sn1 2.102825 1_555
O14 Si0 1.619006 1_555
O14 Sn0 2.089981 1_555
O15 Si1 1.619006 1_555
O15 Sn0 2.089981 1_566
O16 Si2 1.619006 1_555
O16 Sn1 2.089981 1_656
O17 Si3 1.619006 1_555
O17 Sn1 2.089981 1_555
O18 Si4 1.627621 1_555
O18 Si1 1.642381 1_545
O19 Si5 1.627621 1_555
O19 Si0 1.642381 1_565
O20 Si4 1.627621 1_555
O20 Si3 1.642381 1_655
O21 Si5 1.627621 1_555
O21 Si2 1.642381 1_455
O22 Si0 1.654201 1_555
O22 Si6 1.667564 1_555
O23 Si1 1.654201 1_555
O23 Si7 1.667564 1_555
O24 Si2 1.654201 1_555
O24 Si8 1.667564 1_555
O25 Si3 1.654201 1_555
O25 Si9 1.667564 1_555
