# generated using pymatgen
data_LiLa4Ga2(FeO6)2
_symmetry_space_group_name_H-M   'P 1'
_cell_length_a   5.70415076
_cell_length_b   5.62807399
_cell_length_c   8.20017851
_cell_angle_alpha   90.51658217
_cell_angle_beta   86.88027926
_cell_angle_gamma   89.29641731
_symmetry_Int_Tables_number   1
_chemical_formula_structural   LiLa4Ga2(FeO6)2
_chemical_formula_sum   'Li1 La4 Ga2 Fe2 O12'
_cell_volume   262.83114240
_cell_formula_units_Z   1
loop_
 _symmetry_equiv_pos_site_id
 _symmetry_equiv_pos_as_xyz
  1  'x, y, z'
loop_
 _atom_site_type_symbol
 _atom_site_label
 _atom_site_symmetry_multiplicity
 _atom_site_fract_x
 _atom_site_fract_y
 _atom_site_fract_z
 _atom_site_occupancy
  Li  Li0  1  0.71350500  0.53745900  0.41978300  1
  La  La0  1  0.47131800  0.48182400  0.74332300  1
  La  La1  1  0.96593200  0.00734900  0.73994900  1
  La  La2  1  0.43026700  0.48161400  0.18908600  1
  La  La3  1  0.95458800  0.01064000  0.23534800  1
  Ga  Ga0  1  0.97045600  0.50580900  0.99363000  1
  Ga  Ga1  1  0.51459200  0.99479300  0.49925500  1
  Fe  Fe0  1  0.06677100  0.50027400  0.51486700  1
  Fe  Fe1  1  0.48362100  0.98983800  0.98940000  1
  O  O0  1  0.51810300  0.90805600  0.75289700  1
  O  O1  1  0.03387400  0.58178100  0.76326600  1
  O  O2  1  0.51932100  0.07923600  0.25536800  1
  O  O3  1  0.97836800  0.43432100  0.24453100  1
  O  O4  1  0.72987100  0.27334300  0.55772800  1
  O  O5  1  0.23933100  0.25642600  0.96985900  1
  O  O6  1  0.21925600  0.76840400  0.04383400  1
  O  O7  1  0.85376300  0.81728200  0.48003600  1
  O  O8  1  0.39469700  0.66960300  0.45702600  1
  O  O9  1  0.72477900  0.74513800  0.04314000  1
  O  O10  1  0.72959700  0.25781800  0.95572900  1
  O  O11  1  0.23799100  0.18708600  0.55194400  1
loop_
_geom_bond_atom_site_label_1
_geom_bond_atom_site_label_2
_geom_bond_distance
_geom_bond_site_symmetry_2
Li0 O7 1.850498 1_555
Li0 O4 1.880492 1_555
Li0 O8 1.963586 1_555
Li0 O3 2.100443 1_555
La0 O4 2.355644 1_555
La0 O0 2.417963 1_555
La0 O1 2.547338 1_555
La0 O5 2.574354 1_555
La0 O8 2.639058 1_555
La0 O10 2.658376 1_555
La0 O11 2.687095 1_555
La1 O11 2.369513 1_655
La1 O1 2.432472 1_645
La1 O7 2.494067 1_545
La1 O4 2.548891 1_555
La1 O10 2.565950 1_555
La1 O0 2.618312 1_545
La1 O5 2.877082 1_655
La2 O6 2.369744 1_555
La2 O2 2.388708 1_555
La2 O8 2.427416 1_555
La2 O5 2.496015 1_554
La2 O9 2.515658 1_555
La2 O3 2.610281 1_455
La2 O10 2.776973 1_554
La3 O7 2.338833 1_545
La3 O3 2.390767 1_555
La3 O6 2.501390 1_645
La3 O2 2.504273 1_555
La3 O9 2.581847 1_545
La3 O5 3.002630 1_654
La3 O10 3.028829 1_554
Ga0 O9 1.955722 1_556
Ga0 O1 1.956038 1_655
Ga0 O10 2.004481 1_555
Ga0 O5 2.066360 1_655
Ga0 O3 2.102744 1_556
Ga0 O6 2.114692 1_656
Ga1 O11 1.929436 1_565
Ga1 O8 1.995577 1_555
Ga1 O2 2.058602 1_565
Ga1 O4 2.072040 1_565
Ga1 O0 2.141805 1_555
Ga1 O7 2.163892 1_555
Fe0 O11 2.037876 1_555
Fe0 O1 2.081851 1_555
Fe0 O8 2.141833 1_555
Fe0 O7 2.175953 1_455
Fe0 Li0 2.208143 1_455
Fe0 O3 2.327598 1_455
Fe0 O4 2.332943 1_455
Fe1 O0 1.987925 1_555
Fe1 O6 2.002322 1_556
Fe1 O9 2.003379 1_556
Fe1 O5 2.048378 1_565
Fe1 O10 2.082521 1_565
Fe1 O2 2.254414 1_566
