# generated using pymatgen
data_HoSbPt
_symmetry_space_group_name_H-M   'P 1'
_cell_length_a   4.63132270
_cell_length_b   4.63132320
_cell_length_c   4.63132316
_cell_angle_alpha   60.00000759
_cell_angle_beta   60.00000398
_cell_angle_gamma   60.00000214
_symmetry_Int_Tables_number   1
_chemical_formula_structural   HoSbPt
_chemical_formula_sum   'Ho1 Sb1 Pt1'
_cell_volume   70.24254935
_cell_formula_units_Z   1
loop_
 _symmetry_equiv_pos_site_id
 _symmetry_equiv_pos_as_xyz
  1  'x, y, z'
loop_
 _atom_site_type_symbol
 _atom_site_label
 _atom_site_symmetry_multiplicity
 _atom_site_fract_x
 _atom_site_fract_y
 _atom_site_fract_z
 _atom_site_occupancy
  Ho  Ho0  1  0.50000000  0.50000000  0.50000000  1
  Sb  Sb0  1  0.00000000  0.00000000  -0.00000000  1
  Pt  Pt0  1  0.25000000  0.25000000  0.25000000  1
loop_
_geom_bond_atom_site_label_1
_geom_bond_atom_site_label_2
_geom_bond_distance
_geom_bond_site_symmetry_2
Ho0 Pt0 2.836094 1_655
Ho0 Pt0 2.836094 1_555
Ho0 Pt0 2.836095 1_565
Ho0 Pt0 2.836095 1_556
Ho0 Sb0 3.274840 1_565
Ho0 Sb0 3.274840 1_566
Ho0 Sb0 3.274840 1_656
Ho0 Sb0 3.274840 1_655
Ho0 Sb0 3.274840 1_556
Ho0 Sb0 3.274840 1_665
Pt0 Sb0 2.836094 1_655
Pt0 Sb0 2.836094 1_555
Pt0 Sb0 2.836095 1_565
Pt0 Sb0 2.836095 1_556
