# generated using pymatgen
data_Li4MnCo2O7
_symmetry_space_group_name_H-M   'P 1'
_cell_length_a   14.83596841
_cell_length_b   14.83596841
_cell_length_c   5.94359287
_cell_angle_alpha   83.83805263
_cell_angle_beta   83.83805263
_cell_angle_gamma   11.15767400
_symmetry_Int_Tables_number   1
_chemical_formula_structural   Li4MnCo2O7
_chemical_formula_sum   'Li8 Mn2 Co4 O14'
_cell_volume   251.67662460
_cell_formula_units_Z   2
loop_
 _symmetry_equiv_pos_site_id
 _symmetry_equiv_pos_as_xyz
  1  'x, y, z'
loop_
 _atom_site_type_symbol
 _atom_site_label
 _atom_site_symmetry_multiplicity
 _atom_site_fract_x
 _atom_site_fract_y
 _atom_site_fract_z
 _atom_site_occupancy
  Li  Li0  1  0.93304700  0.93304700  0.79090500  1
  Li  Li1  1  0.06695300  0.06695300  0.20909500  1
  Li  Li2  1  0.21446200  0.21446200  0.64665600  1
  Li  Li3  1  0.50000000  0.50000000  0.50000000  1
  Li  Li4  1  0.64024000  0.64024000  0.92737200  1
  Li  Li5  1  0.78553800  0.78553800  0.35334400  1
  Li  Li6  1  0.35976000  0.35976000  0.07262800  1
  Li  Li7  1  0.50000000  0.50000000  0.00000000  1
  Mn  Mn0  1  0.35726400  0.35726400  0.56702700  1
  Mn  Mn1  1  0.64273600  0.64273600  0.43297300  1
  Co  Co0  1  0.78498600  0.78498600  0.86236400  1
  Co  Co1  1  0.93632000  0.93632000  0.26982500  1
  Co  Co2  1  0.06368000  0.06368000  0.73017500  1
  Co  Co3  1  0.21501400  0.21501400  0.13763600  1
  O  O0  1  0.85694600  0.85694600  0.79071100  1
  O  O1  1  0.99677500  0.99677500  0.25799900  1
  O  O2  1  0.14471100  0.14471100  0.64817500  1
  O  O3  1  0.42211700  0.42211700  0.51728600  1
  O  O4  1  0.57284000  0.57284000  0.94393700  1
  O  O5  1  0.70989600  0.70989600  0.38269300  1
  O  O6  1  0.28477000  0.28477000  0.10024500  1
  O  O7  1  0.00322500  0.00322500  0.74200100  1
  O  O8  1  0.14305400  0.14305400  0.20928900  1
  O  O9  1  0.29010400  0.29010400  0.61730700  1
  O  O10  1  0.57788300  0.57788300  0.48271400  1
  O  O11  1  0.71523000  0.71523000  0.89975500  1
  O  O12  1  0.85528900  0.85528900  0.35182500  1
  O  O13  1  0.42716000  0.42716000  0.05606300  1
loop_
_geom_bond_atom_site_label_1
_geom_bond_atom_site_label_2
_geom_bond_distance
_geom_bond_site_symmetry_2
Li0 O7 2.061460 1_665
Li0 O13 2.129567 1_566
Li0 O13 2.129567 1_656
Li0 O3 2.223146 1_565
Li0 O3 2.223146 1_655
Li0 O0 2.247493 1_555
Li1 O1 2.061460 1_445
Li1 O4 2.129567 1_544
Li1 O4 2.129567 1_454
Li1 O10 2.223146 1_455
Li1 O10 2.223146 1_545
Li1 O8 2.247493 1_555
Li2 O2 2.058890 1_555
Li2 O11 2.085911 1_545
Li2 O11 2.085911 1_455
Li2 O5 2.146021 1_545
Li2 O5 2.146021 1_455
Li2 O9 2.221779 1_555
Li3 O7 2.046379 1_655
Li3 O7 2.046379 1_565
Li3 O1 2.046379 1_545
Li3 O1 2.046379 1_455
Li3 O3 2.291191 1_555
Li3 O10 2.291191 1_555
Li4 O4 1.982216 1_555
Li4 O2 2.191819 1_655
Li4 O2 2.191819 1_565
Li4 O11 2.202909 1_555
Li4 O8 2.219179 1_656
Li4 O8 2.219179 1_566
Li5 O12 2.058890 1_555
Li5 O6 2.085911 1_655
Li5 O6 2.085911 1_565
Li5 O9 2.146021 1_565
Li5 O9 2.146021 1_655
Li5 O5 2.221779 1_555
Li6 O13 1.982216 1_555
Li6 O12 2.191819 1_545
Li6 O12 2.191819 1_455
Li6 O6 2.202909 1_555
Li6 O0 2.219179 1_454
Li6 O0 2.219179 1_544
Li7 O1 2.099807 1_545
Li7 O7 2.099807 1_564
Li7 O1 2.099807 1_455
Li7 O7 2.099807 1_654
Li7 O13 2.140914 1_555
Li7 O4 2.140914 1_554
Mn0 O3 1.906111 1_555
Mn0 O12 1.932796 1_455
Mn0 O12 1.932796 1_545
Mn0 O0 1.960895 1_545
Mn0 O0 1.960895 1_455
Mn0 O9 1.973589 1_555
Mn1 O10 1.906111 1_555
Mn1 O2 1.932796 1_655
Mn1 O2 1.932796 1_565
Mn1 O8 1.960895 1_655
Mn1 O8 1.960895 1_565
Mn1 O5 1.973589 1_555
Co0 O6 2.019232 1_566
Co0 O6 2.019232 1_656
Co0 O9 2.043768 1_655
Co0 O9 2.043768 1_565
Co0 O11 2.047976 1_555
Co0 O0 2.121820 1_555
Co1 O1 1.779113 1_555
Co1 O13 1.960024 1_565
Co1 O13 1.960024 1_655
Co1 O3 2.070341 1_655
Co1 O3 2.070341 1_565
Co1 O12 2.390025 1_555
Co2 O7 1.779113 1_555
Co2 O4 1.960024 1_455
Co2 O4 1.960024 1_545
Co2 O10 2.070341 1_545
Co2 O10 2.070341 1_455
Co2 O2 2.390025 1_555
Co3 O11 2.019232 1_544
Co3 O11 2.019232 1_454
Co3 O5 2.043768 1_455
Co3 O5 2.043768 1_545
Co3 O6 2.047976 1_555
Co3 O8 2.121820 1_555
