# generated using pymatgen
data_CaTi2O4
_symmetry_space_group_name_H-M   'P 1'
_cell_length_a   6.26781346
_cell_length_b   6.26781346
_cell_length_c   6.26781346
_cell_angle_alpha   121.23133166
_cell_angle_beta   119.18332247
_cell_angle_gamma   89.65048039
_symmetry_Int_Tables_number   1
_chemical_formula_structural   CaTi2O4
_chemical_formula_sum   'Ca2 Ti4 O8'
_cell_volume   173.49484052
_cell_formula_units_Z   2
loop_
 _symmetry_equiv_pos_site_id
 _symmetry_equiv_pos_as_xyz
  1  'x, y, z'
loop_
 _atom_site_type_symbol
 _atom_site_label
 _atom_site_symmetry_multiplicity
 _atom_site_fract_x
 _atom_site_fract_y
 _atom_site_fract_z
 _atom_site_occupancy
  Ca  Ca0  1  0.00000000  0.50000000  0.50000000  1
  Ca  Ca1  1  0.50000000  0.50000000  0.00000000  1
  Ti  Ti0  1  0.36823900  0.11823900  0.25000000  1
  Ti  Ti1  1  0.63176100  0.88176100  0.75000000  1
  Ti  Ti2  1  0.00000000  0.50000000  0.00000000  1
  Ti  Ti3  1  0.00000000  0.00000000  0.50000000  1
  O  O0  1  0.76879100  0.76244500  0.00634600  1
  O  O1  1  0.25609800  0.76244500  0.49365400  1
  O  O2  1  0.76317100  0.78035300  0.51718200  1
  O  O3  1  0.23120900  0.23755500  0.99365400  1
  O  O4  1  0.23682900  0.75401100  0.01718200  1
  O  O5  1  0.74390200  0.23755500  0.50634600  1
  O  O6  1  0.76317100  0.24598900  0.98281800  1
  O  O7  1  0.23682900  0.21964700  0.48281800  1
loop_
_geom_bond_atom_site_label_1
_geom_bond_atom_site_label_2
_geom_bond_distance
_geom_bond_site_symmetry_2
Ca0 O2 2.287057 1_455
Ca0 O7 2.287057 1_555
Ca0 O6 2.287057 1_454
Ca0 O4 2.287057 1_556
Ca0 O1 2.333747 1_555
Ca0 O5 2.333747 1_455
Ca1 O4 2.287057 1_555
Ca1 O2 2.287057 1_555
Ca1 O6 2.287057 1_554
Ca1 O7 2.287057 1_554
Ca1 O0 2.333752 1_555
Ca1 O3 2.333752 1_554
O0 Ti1 1.941895 1_554
O0 Ti3 2.183312 1_665
O0 Ti2 2.183312 1_655
O1 Ti1 1.941900 1_555
O1 Ti3 2.183307 1_565
O1 Ti2 2.183312 1_555
O2 Ti1 1.848177 1_555
O2 Ti3 2.108302 1_665
O3 Ti0 1.941895 1_556
O3 Ti2 2.183312 1_556
O3 Ti3 2.183312 1_555
O4 Ti0 1.848177 1_565
O4 Ti2 2.108302 1_555
O5 Ti0 1.941900 1_555
O5 Ti3 2.183307 1_655
O5 Ti2 2.183312 1_656
O6 Ti1 1.848177 1_545
O6 Ti2 2.108302 1_656
O7 Ti0 1.848177 1_555
O7 Ti3 2.108302 1_555
