# generated using pymatgen
data_Er3(Al3Ru)4
_symmetry_space_group_name_H-M   'P 1'
_cell_length_a   8.73682261
_cell_length_b   8.73683200
_cell_length_c   9.46278422
_cell_angle_alpha   89.99992903
_cell_angle_beta   90.00006469
_cell_angle_gamma   119.99988486
_symmetry_Int_Tables_number   1
_chemical_formula_structural   Er3(Al3Ru)4
_chemical_formula_sum   'Er6 Al24 Ru8'
_cell_volume   625.54358585
_cell_formula_units_Z   2
loop_
 _symmetry_equiv_pos_site_id
 _symmetry_equiv_pos_as_xyz
  1  'x, y, z'
loop_
 _atom_site_type_symbol
 _atom_site_label
 _atom_site_symmetry_multiplicity
 _atom_site_fract_x
 _atom_site_fract_y
 _atom_site_fract_z
 _atom_site_occupancy
  Er  Er0  1  0.19334752  0.38669142  0.24999546  1
  Er  Er1  1  0.80665388  0.61330938  0.75000442  1
  Er  Er2  1  0.61330831  0.80665284  0.24999616  1
  Er  Er3  1  0.38669134  0.19334660  0.75000446  1
  Er  Er4  1  0.19334624  0.80665431  0.24999413  1
  Er  Er5  1  0.80665576  0.19334542  0.75000446  1
  Al  Al0  1  0.33333311  0.66666765  0.00984371  1
  Al  Al1  1  0.66666653  0.33333229  0.99015567  1
  Al  Al2  1  0.66666634  0.33333229  0.50985383  1
  Al  Al3  1  0.33333267  0.66666837  0.49014673  1
  Al  Al4  1  0.16229536  0.32458942  0.57707985  1
  Al  Al5  1  0.83770508  0.67541059  0.42292015  1
  Al  Al6  1  0.67540983  0.83770443  0.57707980  1
  Al  Al7  1  0.83770564  0.67541046  0.07707954  1
  Al  Al8  1  0.32458953  0.16229513  0.42292065  1
  Al  Al9  1  0.16229338  0.32458919  0.92292049  1
  Al  Al10  1  0.16229455  0.83770538  0.57707857  1
  Al  Al11  1  0.32458951  0.16229408  0.07707937  1
  Al  Al12  1  0.83770547  0.16229444  0.42292067  1
  Al  Al13  1  0.67540995  0.83770599  0.92292114  1
  Al  Al14  1  0.83770479  0.16229491  0.07707994  1
  Al  Al15  1  0.16229457  0.83770513  0.92291968  1
  Al  Al16  1  0.56074092  0.12147913  0.25000214  1
  Al  Al17  1  0.43926008  0.87852176  0.74999840  1
  Al  Al18  1  0.87852212  0.43926007  0.25000159  1
  Al  Al19  1  0.12147850  0.56074029  0.74999824  1
  Al  Al20  1  0.56074244  0.43925794  0.25000117  1
  Al  Al21  1  0.43925800  0.56074169  0.74999928  1
  Al  Al22  1  -0.00000056  -0.00000044  0.25000272  1
  Al  Al23  1  0.00000015  -0.00000063  0.74999827  1
  Ru  Ru0  1  0.50000177  -0.00000009  -0.00000022  1
  Ru  Ru1  1  0.00000028  0.49999872  -0.00000007  1
  Ru  Ru2  1  0.50000005  -0.00000000  0.50000005  1
  Ru  Ru3  1  0.49999973  0.49999981  -0.00000070  1
  Ru  Ru4  1  -0.00000102  0.50000018  0.49999996  1
  Ru  Ru5  1  0.49999982  0.49999999  0.50000056  1
  Ru  Ru6  1  -0.00000039  0.00000096  0.00000045  1
  Ru  Ru7  1  -0.00000022  -0.00000007  0.49999932  1
loop_
_geom_bond_atom_site_label_1
_geom_bond_atom_site_label_2
_geom_bond_distance
_geom_bond_site_symmetry_2
Er0 Ru3 3.331974 1_555
Er0 Ru1 3.331979 1_555
Er0 Ru5 3.332032 1_555
Er0 Ru4 3.332058 1_555
Er0 Er2 3.669134 1_555
Er0 Er4 3.669151 1_555
Er1 Ru3 3.331975 1_556
Er1 Ru1 3.331990 1_656
Er1 Ru5 3.332033 1_555
Er1 Ru4 3.332040 1_655
Er1 Er3 3.669148 1_555
Er1 Er5 3.669163 1_555
Er2 Ru0 3.331981 1_565
Er2 Ru3 3.331985 1_555
Er2 Ru5 3.332032 1_555
Er2 Ru2 3.332044 1_565
Er2 Er4 3.669141 1_555
Er3 Ru3 3.331973 1_556
Er3 Ru0 3.331990 1_556
Er3 Ru5 3.332032 1_555
Er3 Ru2 3.332047 1_555
Er3 Er5 3.669160 1_555
Er4 Ru0 3.331980 1_565
Er4 Ru1 3.331981 1_555
Er4 Ru2 3.332048 1_565
Er4 Ru4 3.332052 1_555
Er5 Ru1 3.331978 1_656
Er5 Ru0 3.331979 1_556
Er5 Ru4 3.332042 1_655
Er5 Ru2 3.332047 1_555
Al0 Ru0 2.523821 1_565
Al0 Ru1 2.523822 1_555
Al0 Ru3 2.523832 1_555
Al0 Al15 2.715810 1_554
Al0 Al13 2.715817 1_554
Al0 Al9 2.715833 1_554
Al0 Al21 2.935191 1_554
Al0 Al17 2.935210 1_554
Al0 Al19 2.935213 1_554
Al0 Er4 3.106720 1_555
Al0 Er2 3.106741 1_555
Al0 Er0 3.106743 1_555
Al1 Ru0 2.523821 1_556
Al1 Ru1 2.523829 1_656
Al1 Ru3 2.523830 1_556
Al1 Al14 2.715808 1_556
Al1 Al11 2.715821 1_556
Al1 Al7 2.715833 1_556
Al1 Al20 2.935195 1_556
Al1 Al16 2.935216 1_556
Al1 Al18 2.935221 1_556
Al1 Er3 3.106733 1_555
Al1 Er5 3.106739 1_555
Al1 Er1 3.106744 1_555
Al2 Ru4 2.523824 1_655
Al2 Ru2 2.523824 1_555
Al2 Ru5 2.523833 1_555
Al2 Al8 2.715846 1_555
Al2 Al5 2.715861 1_555
Al2 Al20 2.935247 1_555
Al2 Er3 3.106729 1_555
Al2 Er5 3.106731 1_555
Al2 Er1 3.106742 1_555
Al3 Ru2 2.523819 1_565
Al3 Ru4 2.523832 1_555
Al3 Ru5 2.523843 1_555
Al3 Al6 2.715848 1_555
Al3 Al4 2.715864 1_555
Al3 Er4 3.106725 1_555
Al3 Er2 3.106732 1_555
Al3 Er0 3.106746 1_555
Al4 Ru7 2.561975 1_555
Al4 Ru5 2.657862 1_555
Al4 Ru4 2.657879 1_555
Al4 Al8 2.856512 1_555
Al4 Er0 3.130593 1_555
Al4 Er3 3.175534 1_555
Al4 Er5 3.175543 1_455
Al5 Ru7 2.561970 1_665
Al5 Ru4 2.657858 1_655
Al5 Ru5 2.657871 1_555
Al5 Al6 2.856518 1_555
Al5 Er1 3.130591 1_555
Al5 Er2 3.175533 1_555
Al5 Er4 3.175561 1_655
Al6 Ru7 2.561975 1_665
Al6 Ru5 2.657865 1_555
Al6 Ru2 2.657865 1_565
Al6 Er2 3.130585 1_555
Al6 Er1 3.175535 1_555
Al6 Er5 3.175554 1_565
Al7 Ru6 2.561977 1_665
Al7 Ru3 2.657874 1_555
Al7 Ru1 2.657875 1_655
Al7 Er1 3.130506 1_554
Al7 Er4 3.175499 1_655
Al7 Er2 3.175505 1_555
Al8 Ru7 2.561969 1_555
Al8 Ru2 2.657866 1_555
Al8 Ru5 2.657869 1_555
Al8 Er3 3.130587 1_555
Al8 Er0 3.175535 1_555
Al8 Er4 3.175565 1_545
Al9 Ru6 2.561963 1_556
Al9 Ru1 2.657847 1_556
Al9 Ru3 2.657874 1_556
Al9 Er0 3.130506 1_556
Al9 Er5 3.175486 1_455
Al9 Er3 3.175508 1_555
Al10 Ru7 2.561963 1_565
Al10 Ru2 2.657867 1_565
Al10 Ru4 2.657868 1_555
Al10 Al3 2.715829 1_555
Al10 Al19 2.792339 1_555
Al10 Al17 2.792340 1_555
Al10 Al5 2.856515 1_455
Al10 Al8 2.856516 1_565
Al10 Al23 2.951122 1_565
Al10 Er4 3.130595 1_555
Al10 Er1 3.175557 1_455
Al10 Er3 3.175564 1_565
Al11 Ru6 2.561970 1_555
Al11 Ru0 2.657875 1_555
Al11 Ru3 2.657875 1_555
Al11 Al20 2.792359 1_555
Al11 Al16 2.792365 1_555
Al11 Al15 2.856522 1_544
Al11 Al9 2.856525 1_554
Al11 Al22 2.951153 1_555
Al11 Er3 3.130505 1_554
Al11 Er4 3.175498 1_545
Al11 Er0 3.175501 1_555
Al12 Ru7 2.561958 1_655
Al12 Ru2 2.657869 1_555
Al12 Ru4 2.657874 1_655
Al12 Al2 2.715846 1_555
Al12 Al16 2.792329 1_555
Al12 Al18 2.792338 1_555
Al12 Al4 2.856521 1_655
Al12 Al6 2.856524 1_545
Al12 Al22 2.951115 1_655
Al12 Er5 3.130587 1_555
Al12 Er2 3.175560 1_545
Al12 Er0 3.175563 1_655
Al13 Ru6 2.561969 1_666
Al13 Ru0 2.657841 1_566
Al13 Ru3 2.657873 1_556
Al13 Al17 2.792357 1_555
Al13 Al21 2.792359 1_555
Al13 Al14 2.856517 1_566
Al13 Al7 2.856523 1_556
Al13 Al23 2.951151 1_665
Al13 Er2 3.130505 1_556
Al13 Er5 3.175502 1_565
Al13 Er1 3.175511 1_555
Al14 Ru6 2.561962 1_655
Al14 Ru0 2.657853 1_555
Al14 Ru1 2.657860 1_655
Al14 Al16 2.792346 1_555
Al14 Al18 2.792350 1_555
Al14 Al9 2.856516 1_654
Al14 Al22 2.951144 1_655
Al14 Er5 3.130506 1_554
Al14 Er0 3.175518 1_655
Al14 Er2 3.175520 1_545
Al15 Ru6 2.561980 1_566
Al15 Ru1 2.657880 1_556
Al15 Ru0 2.657883 1_566
Al15 Al17 2.792350 1_555
Al15 Al19 2.792350 1_555
Al15 Al7 2.856520 1_456
Al15 Al23 2.951128 1_565
Al15 Er4 3.130500 1_556
Al15 Er1 3.175504 1_455
Al15 Er3 3.175511 1_565
Al16 Ru2 2.537964 1_555
Al16 Ru0 2.538004 1_555
Al16 Al20 2.776373 1_555
Al16 Al18 2.776403 1_555
Al16 Al8 2.792349 1_555
Al16 Al2 2.935259 1_555
Al16 Er2 3.006644 1_545
Al16 Er4 3.006648 1_545
Al17 Ru2 2.537965 1_565
Al17 Ru0 2.537993 1_566
Al17 Al21 2.776382 1_555
Al17 Al19 2.776407 1_555
Al17 Al6 2.792344 1_555
Al17 Al3 2.935260 1_555
Al17 Er3 3.006638 1_565
Al17 Er5 3.006650 1_565
Al18 Ru4 2.537961 1_655
Al18 Ru1 2.537995 1_655
Al18 Al20 2.776375 1_555
Al18 Al5 2.792349 1_555
Al18 Al7 2.792362 1_555
Al18 Al2 2.935273 1_555
Al18 Er0 3.006640 1_655
Al18 Er4 3.006645 1_655
Al19 Ru4 2.537968 1_555
Al19 Ru1 2.537995 1_556
Al19 Al21 2.776377 1_555
Al19 Al4 2.792350 1_555
Al19 Al9 2.792361 1_555
Al19 Al3 2.935261 1_555
Al19 Er1 3.006636 1_455
Al19 Er5 3.006643 1_455
Al20 Ru5 2.537993 1_555
Al20 Ru3 2.538012 1_555
Al20 Al5 2.792337 1_555
Al20 Al8 2.792341 1_555
Al20 Al7 2.792354 1_555
Al20 Er0 3.006656 1_555
Al20 Er2 3.006662 1_555
Al21 Ru5 2.537984 1_555
Al21 Ru3 2.537993 1_556
Al21 Al6 2.792338 1_555
Al21 Al4 2.792338 1_555
Al21 Al9 2.792357 1_555
Al21 Al3 2.935256 1_555
Al21 Er1 3.006660 1_555
Al21 Er3 3.006661 1_555
Al22 Ru7 2.365664 1_555
Al22 Ru6 2.365718 1_555
Al22 Er2 2.925828 1_445
Al22 Er4 2.925832 1_545
Al22 Er0 2.925837 1_555
Al22 Al5 2.951115 1_445
Al22 Al8 2.951123 1_555
Al22 Al7 2.951148 1_445
Al23 Ru7 2.365686 1_555
Al23 Ru6 2.365717 1_556
Al23 Er5 2.925820 1_455
Al23 Er1 2.925823 1_445
Al23 Er3 2.925829 1_555
Al23 Al4 2.951127 1_555
Al23 Al6 2.951127 1_445
Al23 Al9 2.951148 1_555
