# generated using pymatgen
data_TbAu3
_symmetry_space_group_name_H-M   'P 1'
_cell_length_a   5.00920306
_cell_length_b   6.24779167
_cell_length_c   5.09560479
_cell_angle_alpha   90.00000000
_cell_angle_beta   90.00000000
_cell_angle_gamma   90.00000000
_symmetry_Int_Tables_number   1
_chemical_formula_structural   TbAu3
_chemical_formula_sum   'Tb2 Au6'
_cell_volume   159.47437697
_cell_formula_units_Z   2
loop_
 _symmetry_equiv_pos_site_id
 _symmetry_equiv_pos_as_xyz
  1  'x, y, z'
loop_
 _atom_site_type_symbol
 _atom_site_label
 _atom_site_symmetry_multiplicity
 _atom_site_fract_x
 _atom_site_fract_y
 _atom_site_fract_z
 _atom_site_occupancy
  Tb  Tb0  1  -0.00000000  0.00000000  0.34421642  1
  Tb  Tb1  1  0.50000000  0.50000000  0.65578358  1
  Au  Au0  1  0.50000000  0.00000000  0.66850464  1
  Au  Au1  1  0.00000000  0.50000000  0.33149536  1
  Au  Au2  1  -0.00000000  0.74158416  0.83891359  1
  Au  Au3  1  0.00000000  0.25841584  0.83891359  1
  Au  Au4  1  0.50000000  0.75841584  0.16108641  1
  Au  Au5  1  0.50000000  0.24158416  0.16108641  1
loop_
_geom_bond_atom_site_label_1
_geom_bond_atom_site_label_2
_geom_bond_distance
_geom_bond_site_symmetry_2
Au0 Tb0 3.000600 1_555
Au0 Tb0 3.000600 1_655
Au0 Tb1 3.124568 1_555
Au0 Tb1 3.124568 1_545
Au1 Tb1 3.000600 1_555
Au1 Tb1 3.000600 1_455
Au1 Tb0 3.124568 1_565
Au1 Tb0 3.124568 1_555
Au2 Tb0 2.993500 1_565
Au2 Tb0 3.039148 1_566
Au2 Tb1 3.069528 1_455
Au2 Tb1 3.069528 1_555
Au3 Tb0 2.993500 1_555
Au3 Tb0 3.039148 1_556
Au3 Tb1 3.069528 1_555
Au3 Tb1 3.069528 1_455
Au4 Tb1 2.993500 1_555
Au4 Tb1 3.039148 1_554
Au4 Tb0 3.069528 1_565
Au4 Tb0 3.069528 1_665
Au5 Tb1 2.993500 1_555
Au5 Tb1 3.039148 1_554
Au5 Tb0 3.069528 1_655
Au5 Tb0 3.069528 1_555
