# generated using pymatgen
data_Li2MnSnS4
_symmetry_space_group_name_H-M   'P 1'
_cell_length_a   6.42421065
_cell_length_b   7.97614211
_cell_length_c   13.66477446
_cell_angle_alpha   90.00000000
_cell_angle_beta   90.00000000
_cell_angle_gamma   90.00000000
_symmetry_Int_Tables_number   1
_chemical_formula_structural   Li2MnSnS4
_chemical_formula_sum   'Li8 Mn4 Sn4 S16'
_cell_volume   700.18874276
_cell_formula_units_Z   4
loop_
 _symmetry_equiv_pos_site_id
 _symmetry_equiv_pos_as_xyz
  1  'x, y, z'
loop_
 _atom_site_type_symbol
 _atom_site_label
 _atom_site_symmetry_multiplicity
 _atom_site_fract_x
 _atom_site_fract_y
 _atom_site_fract_z
 _atom_site_occupancy
  Li  Li0  1  0.63883566  0.49942155  0.66460619  1
  Li  Li1  1  0.13883566  0.50057845  0.33539381  1
  Li  Li2  1  0.13883566  0.99942155  0.83539381  1
  Li  Li3  1  0.63883566  0.00057845  0.16460619  1
  Li  Li4  1  0.64080110  0.25471567  0.42035137  1
  Li  Li5  1  0.14080010  0.74528433  0.57964863  1
  Li  Li6  1  0.14080110  0.75471567  0.07964863  1
  Li  Li7  1  0.64080010  0.24528433  0.92035137  1
  Mn  Mn0  1  0.13623914  0.49286606  0.83431167  1
  Mn  Mn1  1  0.63623814  0.50713294  0.16568833  1
  Mn  Mn2  1  0.63623914  0.99286606  0.66568833  1
  Mn  Mn3  1  0.13623814  0.00713294  0.33431167  1
  Sn  Sn0  1  0.13560677  0.24357706  0.58578813  1
  Sn  Sn1  1  0.63560677  0.75642294  0.41421087  1
  Sn  Sn2  1  0.63560677  0.74357706  0.91421187  1
  Sn  Sn3  1  0.13560677  0.25642294  0.08578913  1
  S  S0  1  0.25966322  0.25157065  0.42000134  1
  S  S1  1  0.75966322  0.74842935  0.57999766  1
  S  S2  1  0.75966322  0.75157065  0.07999866  1
  S  S3  1  0.25966322  0.24842935  0.92000234  1
  S  S4  1  0.76069586  0.24435107  0.58920630  1
  S  S5  1  0.26069586  0.75564993  0.41079370  1
  S  S6  1  0.26069586  0.74435107  0.91079370  1
  S  S7  1  0.76069586  0.25564993  0.08920630  1
  S  S8  1  0.26115036  0.99652955  0.66727892  1
  S  S9  1  0.76115036  0.00347045  0.33272108  1
  S  S10  1  0.76115036  0.49652955  0.83272108  1
  S  S11  1  0.26115036  0.50347045  0.16727892  1
  S  S12  1  0.25906789  0.49185680  0.66731974  1
  S  S13  1  0.75906789  0.50814320  0.33268026  1
  S  S14  1  0.75906789  0.99185680  0.83268026  1
  S  S15  1  0.25906789  0.00814320  0.16731974  1
loop_
_geom_bond_atom_site_label_1
_geom_bond_atom_site_label_2
_geom_bond_distance
_geom_bond_site_symmetry_2
Li0 S4 2.411126 1_555
Li0 S1 2.425675 1_555
Li0 S10 2.428033 1_555
Li0 S12 2.440736 1_555
Li1 S5 2.411133 1_555
Li1 S0 2.425668 1_555
Li1 S11 2.428033 1_555
Li1 S13 2.440736 1_455
Li2 S6 2.411126 1_555
Li2 S3 2.425675 1_565
Li2 S8 2.428033 1_555
Li2 S14 2.440736 1_455
Li3 S7 2.411133 1_555
Li3 S2 2.425668 1_545
Li3 S9 2.428033 1_555
Li3 S15 2.440736 1_555
Li4 S4 2.433931 1_555
Li4 S0 2.448643 1_555
Li4 S9 2.459172 1_555
Li4 S13 2.469498 1_555
Li5 S5 2.433933 1_555
Li5 S1 2.448637 1_455
Li5 S8 2.459174 1_555
Li5 S12 2.469500 1_555
Li6 S6 2.433931 1_554
Li6 S2 2.448643 1_455
Li6 S11 2.459172 1_555
Li6 S15 2.469498 1_565
Li7 S7 2.433933 1_556
Li7 S3 2.448637 1_555
Li7 S10 2.459174 1_555
Li7 S14 2.469500 1_545
Mn0 S6 2.398972 1_555
Mn0 S3 2.408523 1_555
Mn0 S10 2.409925 1_455
Mn0 S12 2.414500 1_555
Mn1 S7 2.398961 1_555
Mn1 S2 2.408525 1_555
Mn1 S11 2.409918 1_555
Mn1 S13 2.414502 1_555
Mn2 S4 2.398972 1_565
Mn2 S1 2.408523 1_555
Mn2 S8 2.409925 1_555
Mn2 S14 2.414500 1_555
Mn3 S5 2.398961 1_545
Mn3 S0 2.408525 1_555
Mn3 S9 2.409918 1_455
Mn3 S15 2.414502 1_555
S0 Sn0 2.402381 1_555
S1 Sn1 2.402381 1_555
S2 Sn2 2.402381 1_554
S3 Sn3 2.402381 1_556
S4 Sn0 2.408967 1_655
S5 Sn1 2.408967 1_555
S6 Sn2 2.408967 1_555
S7 Sn3 2.408967 1_655
S8 Sn0 2.402767 1_565
S9 Sn1 2.402760 1_545
S10 Sn2 2.402767 1_555
S11 Sn3 2.402760 1_555
S12 Sn0 2.406649 1_555
S13 Sn1 2.406643 1_555
S14 Sn2 2.406649 1_555
S15 Sn3 2.406643 1_555
