# generated using pymatgen
data_CdNCl3
_symmetry_space_group_name_H-M   'P 1'
_cell_length_a   3.77505400
_cell_length_b   9.82651100
_cell_length_c   16.86768900
_cell_angle_alpha   90.00000000
_cell_angle_beta   90.00000000
_cell_angle_gamma   90.00000000
_symmetry_Int_Tables_number   1
_chemical_formula_structural   CdNCl3
_chemical_formula_sum   'Cd4 N4 Cl12'
_cell_volume   625.71720695
_cell_formula_units_Z   4
loop_
 _symmetry_equiv_pos_site_id
 _symmetry_equiv_pos_as_xyz
  1  'x, y, z'
loop_
 _atom_site_type_symbol
 _atom_site_label
 _atom_site_symmetry_multiplicity
 _atom_site_fract_x
 _atom_site_fract_y
 _atom_site_fract_z
 _atom_site_occupancy
  Cd  Cd0  1  0.75000000  0.66155100  0.53491400  1
  Cd  Cd1  1  0.75000000  0.16155100  0.96508600  1
  Cd  Cd2  1  0.25000000  0.33844900  0.46508600  1
  Cd  Cd3  1  0.25000000  0.83844900  0.03491400  1
  N  N0  1  0.25000000  0.71709400  0.73708700  1
  N  N1  1  0.25000000  0.21709400  0.76291300  1
  N  N2  1  0.75000000  0.28290600  0.26291300  1
  N  N3  1  0.75000000  0.78290600  0.23708700  1
  Cl  Cl0  1  0.75000000  0.69226300  0.76163500  1
  Cl  Cl1  1  0.75000000  0.19226300  0.73836500  1
  Cl  Cl2  1  0.25000000  0.30773700  0.23836500  1
  Cl  Cl3  1  0.25000000  0.80773700  0.26163500  1
  Cl  Cl4  1  0.25000000  0.49110700  0.59386100  1
  Cl  Cl5  1  0.25000000  0.99110700  0.90613900  1
  Cl  Cl6  1  0.75000000  0.50889300  0.40613900  1
  Cl  Cl7  1  0.75000000  0.00889300  0.09386100  1
  Cl  Cl8  1  0.25000000  0.82962200  0.52190400  1
  Cl  Cl9  1  0.25000000  0.32962200  0.97809600  1
  Cl  Cl10  1  0.75000000  0.17037800  0.47809600  1
  Cl  Cl11  1  0.75000000  0.67037800  0.02190400  1
loop_
_geom_bond_atom_site_label_1
_geom_bond_atom_site_label_2
_geom_bond_distance
_geom_bond_site_symmetry_2
Cd0 Cl8 2.517645 1_555
Cd0 Cl8 2.517645 1_655
Cd0 Cl6 2.639785 1_555
Cd0 Cl4 2.712301 1_655
Cd0 Cl4 2.712301 1_555
Cd1 Cl9 2.517645 1_555
Cd1 Cl9 2.517645 1_655
Cd1 Cl7 2.639785 1_556
Cd1 Cl5 2.712301 1_645
Cd1 Cl5 2.712301 1_545
Cd2 Cl10 2.517645 1_555
Cd2 Cl10 2.517645 1_455
Cd2 Cl4 2.639785 1_555
Cd2 Cl6 2.712301 1_555
Cd2 Cl6 2.712301 1_455
Cd3 Cl11 2.517645 1_555
Cd3 Cl11 2.517645 1_455
Cd3 Cl5 2.639785 1_554
Cd3 Cl7 2.712301 1_465
Cd3 Cl7 2.712301 1_565
Cl0 N0 1.947754 1_655
Cl0 N0 1.947754 1_555
Cl1 N1 1.947754 1_555
Cl1 N1 1.947754 1_655
Cl2 N2 1.947754 1_455
Cl2 N2 1.947754 1_555
Cl3 N3 1.947754 1_455
Cl3 N3 1.947754 1_555
