# generated using pymatgen
data_TbCo4B
_symmetry_space_group_name_H-M   'P 1'
_cell_length_a   5.00377898
_cell_length_b   5.00142847
_cell_length_c   6.82886300
_cell_angle_alpha   90.00000000
_cell_angle_beta   90.00000000
_cell_angle_gamma   120.01556468
_symmetry_Int_Tables_number   1
_chemical_formula_structural   TbCo4B
_chemical_formula_sum   'Tb2 Co8 B2'
_cell_volume   147.98001826
_cell_formula_units_Z   2
loop_
 _symmetry_equiv_pos_site_id
 _symmetry_equiv_pos_as_xyz
  1  'x, y, z'
loop_
 _atom_site_type_symbol
 _atom_site_label
 _atom_site_symmetry_multiplicity
 _atom_site_fract_x
 _atom_site_fract_y
 _atom_site_fract_z
 _atom_site_occupancy
  Tb  Tb0  1  0.99997700  0.00000000  0.00000000  1
  Tb  Tb1  1  0.99998400  0.00000000  0.50000000  1
  Co  Co0  1  0.33329400  0.66664800  0.00000000  1
  Co  Co1  1  0.66664600  0.33335200  0.00000000  1
  Co  Co2  1  0.50000000  0.00000000  0.28795600  1
  Co  Co3  1  0.49998600  0.50001100  0.28795200  1
  Co  Co4  1  0.99997400  0.49998900  0.28795200  1
  Co  Co5  1  0.50000000  0.00000000  0.71204400  1
  Co  Co6  1  0.49998600  0.50001100  0.71204800  1
  Co  Co7  1  0.99997400  0.49998900  0.71204800  1
  B  B0  1  0.33334100  0.66670400  0.50000000  1
  B  B1  1  0.66663700  0.33329600  0.50000000  1
loop_
_geom_bond_atom_site_label_1
_geom_bond_atom_site_label_2
_geom_bond_distance
_geom_bond_site_symmetry_2
Co0 Co2 2.439443 1_565
Co0 Co5 2.439443 1_564
Co0 Co7 2.439740 1_454
Co0 Co4 2.439740 1_455
Co0 Co3 2.439763 1_555
Co0 Co6 2.439763 1_554
Co0 Tb0 2.887042 1_455
Co0 Tb0 2.888491 1_465
Co0 Tb0 2.888551 1_565
Co1 Co5 2.439443 1_554
Co1 Co2 2.439443 1_555
Co1 Co3 2.439738 1_555
Co1 Co6 2.439738 1_554
Co1 Co7 2.439761 1_554
Co1 Co4 2.439761 1_555
Co1 Tb0 2.887042 1_565
Co1 Tb0 2.888490 1_455
Co1 Tb0 2.888552 1_555
Co2 Tb1 2.890642 1_555
Co2 Tb1 2.890781 1_455
Co2 Tb0 3.182083 1_555
Co2 Tb0 3.182264 1_455
Co3 Tb1 2.889679 1_565
Co3 Tb1 2.889735 1_455
Co3 Tb0 3.181193 1_565
Co3 Tb0 3.181271 1_455
Co4 Tb1 2.889682 1_555
Co4 Tb1 2.889734 1_565
Co4 Tb0 3.181195 1_555
Co4 Tb0 3.181270 1_565
Co5 Tb1 2.890642 1_555
Co5 Tb1 2.890781 1_455
Co5 Tb0 3.182083 1_556
Co5 Tb0 3.182264 1_456
Co6 Tb1 2.889679 1_565
Co6 Tb1 2.889735 1_455
Co6 Tb0 3.181193 1_566
Co6 Tb0 3.181271 1_456
Co7 Tb1 2.889682 1_555
Co7 Tb1 2.889734 1_565
Co7 Tb0 3.181195 1_556
Co7 Tb0 3.181270 1_566
B0 Co2 2.044545 1_565
B0 Co5 2.044545 1_565
B0 Co6 2.045172 1_555
B0 Co3 2.045172 1_555
B0 Co4 2.045260 1_455
B0 Co7 2.045260 1_455
B0 Tb1 2.887285 1_455
B0 Tb1 2.888378 1_565
B0 Tb1 2.888422 1_465
B1 Co5 2.044545 1_555
B1 Co2 2.044545 1_555
B1 Co7 2.045169 1_555
B1 Co4 2.045169 1_555
B1 Co6 2.045258 1_555
B1 Co3 2.045258 1_555
B1 Tb1 2.887285 1_565
B1 Tb1 2.888379 1_555
B1 Tb1 2.888421 1_455
