# generated using pymatgen
data_Y6Mg(SiS7)2
_symmetry_space_group_name_H-M   'P 1'
_cell_length_a   9.95619853
_cell_length_b   9.95619853
_cell_length_c   5.62041100
_cell_angle_alpha   90.00000000
_cell_angle_beta   90.00000000
_cell_angle_gamma   120.00000349
_symmetry_Int_Tables_number   1
_chemical_formula_structural   Y6Mg(SiS7)2
_chemical_formula_sum   'Y6 Mg1 Si2 S14'
_cell_volume   482.48718975
_cell_formula_units_Z   1
loop_
 _symmetry_equiv_pos_site_id
 _symmetry_equiv_pos_as_xyz
  1  'x, y, z'
loop_
 _atom_site_type_symbol
 _atom_site_label
 _atom_site_symmetry_multiplicity
 _atom_site_fract_x
 _atom_site_fract_y
 _atom_site_fract_z
 _atom_site_occupancy
  Y  Y0  1  0.97643200  0.43288600  0.75214400  1
  Y  Y1  1  0.45645400  0.02356800  0.75214400  1
  Y  Y2  1  0.56711400  0.54354600  0.75214400  1
  Y  Y3  1  0.68980100  0.90048400  0.24889200  1
  Y  Y4  1  0.21068300  0.31019900  0.24889200  1
  Y  Y5  1  0.09951600  0.78931700  0.24889200  1
  Mg  Mg0  1  0.33333300  0.66666700  0.51295500  1
  Si  Si0  1  0.66666700  0.33333300  0.16516500  1
  Si  Si1  1  0.00000000  0.00000000  0.66065700  1
  S  S0  1  0.66666700  0.33333300  0.53968000  1
  S  S1  1  0.00000000  0.00000000  0.03625300  1
  S  S2  1  0.08256700  0.50359100  0.27418200  1
  S  S3  1  0.42102400  0.91743300  0.27418200  1
  S  S4  1  0.49640900  0.57897600  0.27418200  1
  S  S5  1  0.58351000  0.83192100  0.75727400  1
  S  S6  1  0.24841100  0.41649000  0.75727400  1
  S  S7  1  0.16807900  0.75158900  0.75727400  1
  S  S8  1  0.81335000  0.55797000  0.01353800  1
  S  S9  1  0.74462000  0.18665000  0.01353800  1
  S  S10  1  0.44203000  0.25538000  0.01353800  1
  S  S11  1  0.85312900  0.77536700  0.51041200  1
  S  S12  1  0.92223900  0.14687100  0.51041200  1
  S  S13  1  0.22463300  0.07776100  0.51041200  1
loop_
_geom_bond_atom_site_label_1
_geom_bond_atom_site_label_2
_geom_bond_distance
_geom_bond_site_symmetry_2
Mg0 S3 2.572322 1_555
Mg0 S2 2.572323 1_555
Mg0 S4 2.572330 1_555
Mg0 S7 2.588165 1_555
Mg0 S5 2.588171 1_555
Mg0 S6 2.588172 1_555
S0 Si0 2.104928 1_555
S0 Y0 2.977094 1_555
S0 Y1 2.977096 1_555
S0 Y2 2.977103 1_555
S1 Si1 2.111004 1_554
S1 Y4 2.981314 1_555
S1 Y3 2.981314 1_445
S1 Y5 2.981314 1_545
S2 Y5 2.767889 1_555
S2 Y4 2.794742 1_555
S2 Y0 2.843367 1_455
S2 Y0 3.078483 1_454
S3 Y3 2.767889 1_555
S3 Y5 2.794742 1_555
S3 Y1 2.843367 1_565
S3 Y1 3.078483 1_564
S4 Y4 2.767889 1_555
S4 Y3 2.794742 1_555
S4 Y2 2.843367 1_555
S4 Y2 3.078483 1_554
S5 Y1 2.766858 1_565
S5 Y2 2.793227 1_555
S5 Y3 2.915164 1_556
S5 Y3 3.004620 1_555
S6 Y2 2.766858 1_555
S6 Y0 2.793227 1_455
S6 Y4 2.915164 1_556
S6 Y4 3.004620 1_555
S7 Y0 2.766858 1_455
S7 Y1 2.793227 1_565
S7 Y5 2.915164 1_556
S7 Y5 3.004620 1_555
S8 Si0 2.143564 1_555
S8 Y2 2.799491 1_554
S8 Y0 2.892696 1_554
S8 Y5 2.934305 1_655
S9 Si0 2.143557 1_555
S9 Y0 2.799491 1_554
S9 Y1 2.892696 1_554
S9 Y3 2.934305 1_545
S10 Si0 2.143566 1_555
S10 Y1 2.799491 1_554
S10 Y2 2.892696 1_554
S10 Y4 2.934305 1_555
S11 Si1 2.140760 1_665
S11 Y5 2.802969 1_655
S11 Y3 2.895192 1_555
S11 Y2 2.951184 1_555
S12 Si1 2.140753 1_655
S12 Y3 2.802973 1_545
S12 Y4 2.895185 1_655
S12 Y0 2.951187 1_555
S13 Si1 2.140761 1_555
S13 Y4 2.802977 1_555
S13 Y5 2.895184 1_545
S13 Y1 2.951178 1_555
