# generated using pymatgen
data_MgCu2
_symmetry_space_group_name_H-M   'P 1'
_cell_length_a   4.92312043
_cell_length_b   4.92311095
_cell_length_c   4.92311092
_cell_angle_alpha   60.00000020
_cell_angle_beta   60.00006388
_cell_angle_gamma   60.00005056
_symmetry_Int_Tables_number   1
_chemical_formula_structural   MgCu2
_chemical_formula_sum   'Mg2 Cu4'
_cell_volume   84.37330902
_cell_formula_units_Z   2
loop_
 _symmetry_equiv_pos_site_id
 _symmetry_equiv_pos_as_xyz
  1  'x, y, z'
loop_
 _atom_site_type_symbol
 _atom_site_label
 _atom_site_symmetry_multiplicity
 _atom_site_fract_x
 _atom_site_fract_y
 _atom_site_fract_z
 _atom_site_occupancy
  Mg  Mg0  1  0.87499900  0.87500000  0.87500000  1
  Mg  Mg1  1  0.12500100  0.12500000  0.12500000  1
  Cu  Cu0  1  0.00000000  0.50000000  0.50000000  1
  Cu  Cu1  1  0.50000000  -0.00000000  0.50000000  1
  Cu  Cu2  1  0.50000000  0.50000000  0.00000000  1
  Cu  Cu3  1  0.50000000  0.50000000  0.50000000  1
loop_
_geom_bond_atom_site_label_1
_geom_bond_atom_site_label_2
_geom_bond_distance
_geom_bond_site_symmetry_2
Cu0 Cu1 2.461560 1_465
Cu0 Cu1 2.461560 1_555
Cu0 Cu2 2.461560 1_555
Cu0 Cu3 2.461560 1_555
Cu0 Cu2 2.461560 1_456
Cu0 Cu3 2.461560 1_455
Cu0 Mg1 2.886428 1_555
Cu0 Mg0 2.886428 1_455
Cu0 Mg0 2.886432 1_454
Cu0 Mg1 2.886432 1_556
Cu0 Mg1 2.886432 1_565
Cu0 Mg0 2.886432 1_445
Cu1 Cu3 2.461555 1_555
Cu1 Cu3 2.461555 1_545
Cu1 Cu2 2.461555 1_546
Cu1 Cu2 2.461555 1_555
Cu1 Mg1 2.886428 1_555
Cu1 Mg0 2.886428 1_545
Cu1 Mg0 2.886432 1_544
Cu1 Mg1 2.886432 1_556
Cu1 Mg1 2.886440 1_655
Cu1 Mg0 2.886440 1_445
Cu2 Cu3 2.461555 1_554
Cu2 Cu3 2.461555 1_555
Cu2 Mg1 2.886428 1_555
Cu2 Mg0 2.886428 1_554
Cu2 Mg1 2.886432 1_565
Cu2 Mg0 2.886432 1_544
Cu2 Mg1 2.886440 1_655
Cu2 Mg0 2.886440 1_454
Cu3 Mg1 2.886429 1_565
Cu3 Mg0 2.886429 1_545
Cu3 Mg1 2.886430 1_556
Cu3 Mg0 2.886430 1_554
Cu3 Mg1 2.886438 1_655
Cu3 Mg0 2.886438 1_455
