# generated using pymatgen
data_Ta3Zn2Bi3O14
_symmetry_space_group_name_H-M   'P 1'
_cell_length_a   7.31623153
_cell_length_b   7.31623153
_cell_length_c   7.31623174
_cell_angle_alpha   62.23253271
_cell_angle_beta   62.23253271
_cell_angle_gamma   62.23253600
_symmetry_Int_Tables_number   1
_chemical_formula_structural   Ta3Zn2Bi3O14
_chemical_formula_sum   'Ta3 Zn2 Bi3 O14'
_cell_volume   290.72022230
_cell_formula_units_Z   1
loop_
 _symmetry_equiv_pos_site_id
 _symmetry_equiv_pos_as_xyz
  1  'x, y, z'
loop_
 _atom_site_type_symbol
 _atom_site_label
 _atom_site_symmetry_multiplicity
 _atom_site_fract_x
 _atom_site_fract_y
 _atom_site_fract_z
 _atom_site_occupancy
  Ta  Ta0  1  0.50000000  0.00000000  0.50000000  1
  Ta  Ta1  1  0.00000000  0.50000000  0.50000000  1
  Ta  Ta2  1  0.50000000  0.50000000  0.00000000  1
  Zn  Zn0  1  0.50000000  0.50000000  0.50000000  1
  Zn  Zn1  1  0.00000000  0.00000000  0.00000000  1
  Bi  Bi0  1  0.00000000  0.50000000  0.00000000  1
  Bi  Bi1  1  0.50000000  0.00000000  0.00000000  1
  Bi  Bi2  1  0.00000000  0.00000000  0.50000000  1
  O  O0  1  0.40623000  0.40623000  0.85118300  1
  O  O1  1  0.85118300  0.40623000  0.40623000  1
  O  O2  1  0.40623000  0.85118300  0.40623000  1
  O  O3  1  0.81085600  0.81085600  0.42890500  1
  O  O4  1  0.42890500  0.81085600  0.81085600  1
  O  O5  1  0.81085600  0.42890500  0.81085600  1
  O  O6  1  0.59377000  0.59377000  0.14881700  1
  O  O7  1  0.14881700  0.59377000  0.59377000  1
  O  O8  1  0.59377000  0.14881700  0.59377000  1
  O  O9  1  0.18914400  0.18914400  0.57109500  1
  O  O10  1  0.57109500  0.18914400  0.18914400  1
  O  O11  1  0.18914400  0.57109500  0.18914400  1
  O  O12  1  0.10742200  0.10742200  0.10742200  1
  O  O13  1  0.89257800  0.89257800  0.89257800  1
loop_
_geom_bond_atom_site_label_1
_geom_bond_atom_site_label_2
_geom_bond_distance
_geom_bond_site_symmetry_2
Bi0 O13 2.419455 1_454
Bi0 O12 2.419455 1_555
Bi0 O6 2.504058 1_455
Bi0 O0 2.504058 1_554
Bi0 O1 2.504058 1_455
Bi0 O7 2.504058 1_554
Bi0 O5 2.688147 1_454
Bi0 O11 2.688147 1_555
Bi1 O13 2.419455 1_544
Bi1 O12 2.419455 1_555
Bi1 O0 2.504058 1_554
Bi1 O6 2.504058 1_545
Bi1 O2 2.504058 1_545
Bi1 O8 2.504058 1_554
Bi1 O4 2.688147 1_544
Bi1 O10 2.688147 1_555
Bi2 O13 2.419455 1_445
Bi2 O12 2.419455 1_555
Bi2 O1 2.504059 1_455
Bi2 O2 2.504059 1_545
Bi2 O8 2.504059 1_455
Bi2 O7 2.504059 1_545
Bi2 O3 2.688147 1_445
Bi2 O9 2.688147 1_555
O0 Ta2 1.989287 1_556
O0 Zn0 2.167148 1_555
O1 Ta1 1.989287 1_655
O1 Zn0 2.167148 1_555
O2 Ta0 1.989287 1_565
O2 Zn0 2.167148 1_555
O3 Ta0 1.998469 1_565
O3 Ta1 1.998469 1_655
O4 Ta0 1.998469 1_565
O4 Ta2 1.998469 1_556
O5 Ta1 1.998469 1_655
O5 Ta2 1.998469 1_556
O6 Ta2 1.989287 1_555
O6 Zn0 2.167148 1_555
O7 Ta1 1.989287 1_555
O7 Zn0 2.167148 1_555
O8 Ta0 1.989287 1_555
O8 Zn0 2.167148 1_555
O9 Ta0 1.998469 1_555
O9 Ta1 1.998469 1_555
O10 Ta0 1.998469 1_555
O10 Ta2 1.998469 1_555
O11 Ta1 1.998469 1_555
O11 Ta2 1.998469 1_555
O12 Zn1 1.891990 1_555
O13 Zn1 1.891990 1_666
