# generated using pymatgen
data_Si3Mo5
_symmetry_space_group_name_H-M   'P 1'
_cell_length_a   5.06771000
_cell_length_b   7.31965373
_cell_length_c   7.31997345
_cell_angle_alpha   119.99855920
_cell_angle_beta   90.00000000
_cell_angle_gamma   90.00000000
_symmetry_Int_Tables_number   1
_chemical_formula_structural   Si3Mo5
_chemical_formula_sum   'Si6 Mo10'
_cell_volume   235.15203061
_cell_formula_units_Z   2
loop_
 _symmetry_equiv_pos_site_id
 _symmetry_equiv_pos_as_xyz
  1  'x, y, z'
loop_
 _atom_site_type_symbol
 _atom_site_label
 _atom_site_symmetry_multiplicity
 _atom_site_fract_x
 _atom_site_fract_y
 _atom_site_fract_z
 _atom_site_occupancy
  Si  Si0  1  0.74998000  0.60722100  0.00000000  1
  Si  Si1  1  0.75001000  0.39279400  0.39287100  1
  Si  Si2  1  0.75001000  0.99992300  0.60712900  1
  Si  Si3  1  0.24998000  0.39277900  0.00000000  1
  Si  Si4  1  0.25001000  0.60720600  0.60712900  1
  Si  Si5  1  0.25001000  0.00007700  0.39287100  1
  Mo  Mo0  1  0.50000000  0.33333400  0.66668800  1
  Mo  Mo1  1  0.50000000  0.66664700  0.33331200  1
  Mo  Mo2  1  0.00000000  0.66666600  0.33331200  1
  Mo  Mo3  1  0.00000000  0.33335300  0.66668800  1
  Mo  Mo4  1  0.75000400  0.23988900  0.00000000  1
  Mo  Mo5  1  0.74999800  0.76014400  0.76009800  1
  Mo  Mo6  1  0.74999800  0.00004600  0.23990200  1
  Mo  Mo7  1  0.25000400  0.76011100  0.00000000  1
  Mo  Mo8  1  0.24999800  0.23985600  0.23990200  1
  Mo  Mo9  1  0.24999800  0.99995400  0.76009800  1
loop_
_geom_bond_atom_site_label_1
_geom_bond_atom_site_label_2
_geom_bond_distance
_geom_bond_site_symmetry_2
Mo0 Mo3 2.533855 1_655
Mo0 Mo3 2.533855 1_555
Mo0 Si5 2.585272 1_555
Mo0 Si1 2.585403 1_555
Mo0 Si0 2.585659 1_556
Mo0 Si3 2.585714 1_556
Mo0 Si2 2.585961 1_545
Mo0 Si4 2.586038 1_555
Mo1 Mo2 2.533855 1_655
Mo1 Mo2 2.533855 1_555
Mo1 Si4 2.585276 1_555
Mo1 Si2 2.585399 1_555
Mo1 Si0 2.585657 1_555
Mo1 Si3 2.585716 1_555
Mo1 Si1 2.585968 1_555
Mo1 Si5 2.586031 1_565
Mo2 Si2 2.585272 1_455
Mo2 Si4 2.585403 1_555
Mo2 Si3 2.585659 1_555
Mo2 Si0 2.585714 1_455
Mo2 Si5 2.585961 1_565
Mo2 Si1 2.586038 1_455
Mo3 Si1 2.585276 1_455
Mo3 Si5 2.585399 1_555
Mo3 Si3 2.585657 1_556
Mo3 Si0 2.585716 1_456
Mo3 Si4 2.585968 1_555
Mo3 Si2 2.586031 1_445
Mo4 Si2 2.510856 1_544
Mo4 Si1 2.510856 1_555
Mo4 Si0 2.688743 1_555
Mo4 Si3 2.769873 1_655
Mo4 Si3 2.770095 1_555
Mo5 Si2 2.509844 1_555
Mo5 Si0 2.510438 1_556
Mo5 Si1 2.688542 1_555
Mo5 Si4 2.770136 1_555
Mo5 Si4 2.770247 1_655
Mo6 Si1 2.509844 1_555
Mo6 Si0 2.510438 1_545
Mo6 Si2 2.688542 1_545
Mo6 Si5 2.770136 1_555
Mo6 Si5 2.770247 1_655
Mo7 Si5 2.510856 1_565
Mo7 Si4 2.510856 1_554
Mo7 Si3 2.688743 1_555
Mo7 Si0 2.769873 1_555
Mo7 Si0 2.770095 1_455
Mo8 Si5 2.509844 1_555
Mo8 Si3 2.510438 1_555
Mo8 Si4 2.688542 1_555
Mo8 Si1 2.770136 1_455
Mo8 Si1 2.770247 1_555
Mo9 Si4 2.509844 1_555
Mo9 Si3 2.510438 1_566
Mo9 Si5 2.688542 1_565
Mo9 Si2 2.770136 1_455
Mo9 Si2 2.770247 1_555
