# generated using pymatgen
data_HoAsPt
_symmetry_space_group_name_H-M   'P 1'
_cell_length_a   4.25218002
_cell_length_b   4.25218002
_cell_length_c   15.24200327
_cell_angle_alpha   90.00000000
_cell_angle_beta   90.00000000
_cell_angle_gamma   119.99999808
_symmetry_Int_Tables_number   1
_chemical_formula_structural   HoAsPt
_chemical_formula_sum   'Ho4 As4 Pt4'
_cell_volume   238.66897878
_cell_formula_units_Z   4
loop_
 _symmetry_equiv_pos_site_id
 _symmetry_equiv_pos_as_xyz
  1  'x, y, z'
loop_
 _atom_site_type_symbol
 _atom_site_label
 _atom_site_symmetry_multiplicity
 _atom_site_fract_x
 _atom_site_fract_y
 _atom_site_fract_z
 _atom_site_occupancy
  Ho  Ho0  1  -0.00000000  -0.00000000  0.50000000  1
  Ho  Ho1  1  -0.00000000  -0.00000000  -0.00000000  1
  Ho  Ho2  1  -0.00000000  -0.00000000  0.25000000  1
  Ho  Ho3  1  -0.00000000  -0.00000000  0.75000000  1
  As  As0  1  0.33333300  0.66666700  0.88399276  1
  As  As1  1  0.66666700  0.33333300  0.11600724  1
  As  As2  1  0.66666700  0.33333300  0.38399276  1
  As  As3  1  0.33333300  0.66666700  0.61600724  1
  Pt  Pt0  1  0.33333300  0.66666700  0.36404509  1
  Pt  Pt1  1  0.66666700  0.33333300  0.63595491  1
  Pt  Pt2  1  0.66666700  0.33333300  0.86404509  1
  Pt  Pt3  1  0.33333300  0.66666700  0.13595491  1
loop_
_geom_bond_atom_site_label_1
_geom_bond_atom_site_label_2
_geom_bond_distance
_geom_bond_site_symmetry_2
Ho0 Pt0 3.212649 1_545
Ho0 Pt1 3.212649 1_455
Ho0 Pt0 3.212652 1_445
Ho0 Pt0 3.212652 1_555
Ho0 Pt1 3.212652 1_445
Ho0 Pt1 3.212652 1_555
Ho1 Pt3 3.212649 1_545
Ho1 Pt2 3.212649 1_454
Ho1 Pt3 3.212652 1_445
Ho1 Pt3 3.212652 1_555
Ho1 Pt2 3.212652 1_554
Ho1 Pt2 3.212652 1_444
Ho2 Pt3 3.008089 1_545
Ho2 Pt0 3.008089 1_545
Ho2 Pt3 3.008092 1_555
Ho2 Pt0 3.008092 1_555
Ho2 Pt0 3.008092 1_445
Ho2 Pt3 3.008092 1_445
Ho3 Pt2 3.008089 1_455
Ho3 Pt1 3.008089 1_455
Ho3 Pt2 3.008092 1_445
Ho3 Pt1 3.008092 1_555
Ho3 Pt1 3.008092 1_445
Ho3 Pt2 3.008092 1_555
As0 Pt2 2.473751 1_565
As0 Pt2 2.473751 1_455
As0 Pt2 2.473758 1_555
As0 Ho1 3.025470 1_566
As0 Ho1 3.025473 1_666
As0 Ho1 3.025473 1_556
As0 Ho3 3.193441 1_565
As0 Ho3 3.193443 1_665
As0 Ho3 3.193443 1_555
As1 Pt3 2.473751 1_545
As1 Pt3 2.473751 1_655
As1 Pt3 2.473758 1_555
As1 Ho1 3.025470 1_655
As1 Ho1 3.025473 1_665
As1 Ho1 3.025473 1_555
As1 Ho2 3.193441 1_655
As1 Ho2 3.193443 1_555
As1 Ho2 3.193443 1_665
As2 Pt0 2.473751 1_545
As2 Pt0 2.473751 1_655
As2 Pt0 2.473758 1_555
As2 Ho0 3.025470 1_655
As2 Ho0 3.025473 1_665
As2 Ho0 3.025473 1_555
As2 Ho2 3.193441 1_655
As2 Ho2 3.193443 1_555
As2 Ho2 3.193443 1_665
As3 Pt1 2.473751 1_455
As3 Pt1 2.473751 1_565
As3 Pt1 2.473758 1_555
As3 Ho0 3.025470 1_565
As3 Ho0 3.025473 1_555
As3 Ho0 3.025473 1_665
As3 Ho3 3.193441 1_565
As3 Ho3 3.193443 1_665
As3 Ho3 3.193443 1_555
