# generated using pymatgen
data_La4GeO8
_symmetry_space_group_name_H-M   'P 1'
_cell_length_a   5.84592851
_cell_length_b   7.66857879
_cell_length_c   18.29072347
_cell_angle_alpha   90.00000000
_cell_angle_beta   90.00000000
_cell_angle_gamma   90.00000000
_symmetry_Int_Tables_number   1
_chemical_formula_structural   La4GeO8
_chemical_formula_sum   'La16 Ge4 O32'
_cell_volume   819.97246335
_cell_formula_units_Z   4
loop_
 _symmetry_equiv_pos_site_id
 _symmetry_equiv_pos_as_xyz
  1  'x, y, z'
loop_
 _atom_site_type_symbol
 _atom_site_label
 _atom_site_symmetry_multiplicity
 _atom_site_fract_x
 _atom_site_fract_y
 _atom_site_fract_z
 _atom_site_occupancy
  La  La0  1  0.53514974  0.25000000  0.28263662  1
  La  La1  1  0.96485026  0.25000000  0.78263662  1
  La  La2  1  0.48142438  0.49086814  0.89621202  1
  La  La3  1  0.01857562  0.00913186  0.39621202  1
  La  La4  1  0.01857562  0.49086814  0.39621202  1
  La  La5  1  0.48142438  0.00913186  0.89621202  1
  La  La6  1  0.98505322  0.25000000  0.98867176  1
  La  La7  1  0.51494678  0.25000000  0.48867176  1
  La  La8  1  0.01494678  0.75000000  0.01132824  1
  La  La9  1  0.48505322  0.75000000  0.51132824  1
  La  La10  1  0.51857562  0.50913186  0.10378798  1
  La  La11  1  0.98142438  0.99086814  0.60378798  1
  La  La12  1  0.98142438  0.50913186  0.60378798  1
  La  La13  1  0.51857562  0.99086814  0.10378798  1
  La  La14  1  0.46485026  0.75000000  0.71736338  1
  La  La15  1  0.03514974  0.75000000  0.21736338  1
  Ge  Ge0  1  0.49875694  0.25000000  0.69169306  1
  Ge  Ge1  1  0.00124306  0.25000000  0.19169306  1
  Ge  Ge2  1  0.50124306  0.75000000  0.30830694  1
  Ge  Ge3  1  0.99875694  0.75000000  0.80830694  1
  O  O0  1  0.19838874  0.75000000  0.88218491  1
  O  O1  1  0.30161126  0.75000000  0.38218491  1
  O  O2  1  0.72617407  0.75000000  0.62512888  1
  O  O3  1  0.77382593  0.75000000  0.12512888  1
  O  O4  1  0.21102405  0.25000000  0.66178676  1
  O  O5  1  0.28897595  0.25000000  0.16178676  1
  O  O6  1  0.74041812  0.51791507  0.99470207  1
  O  O7  1  0.75958188  0.98208493  0.49470207  1
  O  O8  1  0.75958188  0.51791507  0.49470207  1
  O  O9  1  0.74041812  0.98208493  0.99470207  1
  O  O10  1  0.71102405  0.75000000  0.83821324  1
  O  O11  1  0.78897595  0.75000000  0.33821324  1
  O  O12  1  0.22617407  0.25000000  0.87487112  1
  O  O13  1  0.27382593  0.25000000  0.37487112  1
  O  O14  1  0.57690455  0.43606418  0.74324647  1
  O  O15  1  0.92309545  0.06393582  0.24324647  1
  O  O16  1  0.92309545  0.43606418  0.24324647  1
  O  O17  1  0.57690455  0.06393582  0.74324647  1
  O  O18  1  0.69838874  0.25000000  0.61781509  1
  O  O19  1  0.80161126  0.25000000  0.11781509  1
  O  O20  1  0.42309545  0.56393582  0.25675353  1
  O  O21  1  0.07690455  0.93606418  0.75675353  1
  O  O22  1  0.07690455  0.56393582  0.75675353  1
  O  O23  1  0.42309545  0.93606418  0.25675353  1
  O  O24  1  0.23445799  0.75000000  0.61579616  1
  O  O25  1  0.26554201  0.75000000  0.11579616  1
  O  O26  1  0.73445799  0.25000000  0.88420384  1
  O  O27  1  0.76554201  0.25000000  0.38420384  1
  O  O28  1  0.25958188  0.48208493  0.00529793  1
  O  O29  1  0.24041812  0.01791507  0.50529793  1
  O  O30  1  0.24041812  0.48208493  0.50529793  1
  O  O31  1  0.25958188  0.01791507  0.00529793  1
loop_
_geom_bond_atom_site_label_1
_geom_bond_atom_site_label_2
_geom_bond_distance
_geom_bond_site_symmetry_2
La0 O13 2.275939 1_555
La0 O27 2.294605 1_555
La0 O23 2.539490 1_545
La0 O20 2.539490 1_555
La0 O5 2.637623 1_555
La0 O16 2.774592 1_555
La0 O15 2.774592 1_555
La1 O12 2.275939 1_655
La1 O26 2.294605 1_555
La1 O22 2.539490 1_655
La1 O21 2.539490 1_645
La1 O4 2.637623 1_655
La1 O14 2.774592 1_555
La1 O17 2.774592 1_555
La2 O6 2.362336 1_555
La2 O26 2.376586 1_555
La2 O28 2.380648 1_556
La2 O12 2.406406 1_555
La2 O0 2.598539 1_555
La2 O10 2.622175 1_555
La2 O14 2.883773 1_555
La3 O7 2.362336 1_445
La3 O27 2.376586 1_455
La3 O29 2.380648 1_555
La3 O13 2.406406 1_555
La3 O1 2.598539 1_545
La3 O11 2.622175 1_445
La3 O15 2.883773 1_455
La4 O8 2.362336 1_455
La4 O27 2.376586 1_455
La4 O30 2.380648 1_555
La4 O13 2.406406 1_555
La4 O1 2.598539 1_555
La4 O11 2.622175 1_455
La4 O16 2.883773 1_455
La5 O9 2.362336 1_545
La5 O26 2.376586 1_555
La5 O31 2.380648 1_556
La5 O12 2.406406 1_555
La5 O0 2.598539 1_545
La5 O10 2.622175 1_545
La5 O17 2.883773 1_555
La6 O26 2.407747 1_555
La6 O28 2.415710 1_656
La6 O31 2.415710 1_656
La6 O9 2.505692 1_545
La6 O6 2.505692 1_555
La6 O12 2.513867 1_655
La6 O19 2.594157 1_556
La7 O27 2.407747 1_555
La7 O29 2.415710 1_555
La7 O30 2.415710 1_555
La7 O8 2.505692 1_555
La7 O7 2.505692 1_545
La7 O13 2.513867 1_555
La7 O18 2.594157 1_555
La8 O25 2.407747 1_555
La8 O9 2.415710 1_454
La8 O6 2.415710 1_454
La8 O31 2.505692 1_565
La8 O28 2.505692 1_555
La8 O3 2.513867 1_455
La8 O0 2.594157 1_554
La9 O24 2.407747 1_555
La9 O7 2.415710 1_555
La9 O8 2.415710 1_555
La9 O29 2.505692 1_565
La9 O30 2.505692 1_555
La9 O2 2.513867 1_555
La9 O1 2.594157 1_555
La10 O28 2.362336 1_555
La10 O25 2.376586 1_555
La10 O6 2.380648 1_554
La10 O3 2.406406 1_555
La10 O19 2.598539 1_555
La10 O5 2.622175 1_555
La10 O20 2.883773 1_555
La11 O29 2.362336 1_665
La11 O24 2.376586 1_655
La11 O7 2.380648 1_555
La11 O2 2.406406 1_555
La11 O18 2.598539 1_565
La11 O4 2.622175 1_665
La11 O21 2.883773 1_655
La12 O30 2.362336 1_655
La12 O24 2.376586 1_655
La12 O8 2.380648 1_555
La12 O2 2.406406 1_555
La12 O18 2.598539 1_555
La12 O4 2.622175 1_655
La12 O22 2.883773 1_655
La13 O31 2.362336 1_565
La13 O25 2.376586 1_555
La13 O9 2.380648 1_554
La13 O3 2.406406 1_555
La13 O19 2.598539 1_565
La13 O5 2.622175 1_565
La13 O23 2.883773 1_555
La14 O2 2.275939 1_555
La14 O24 2.294605 1_555
La14 O17 2.539490 1_565
La14 O14 2.539490 1_555
La14 O10 2.637623 1_555
La14 O22 2.774592 1_555
La14 O21 2.774592 1_555
La15 O3 2.275939 1_455
La15 O25 2.294605 1_555
La15 O15 2.539490 1_465
La15 O16 2.539490 1_455
La15 O11 2.637623 1_455
La15 O23 2.774592 1_555
La15 O20 2.774592 1_555
Ge0 O4 1.768775 1_555
Ge0 O17 1.770242 1_555
Ge0 O14 1.770242 1_555
Ge0 O18 1.785477 1_555
Ge1 O5 1.768775 1_555
Ge1 O15 1.770242 1_455
Ge1 O16 1.770242 1_455
Ge1 O19 1.785477 1_455
Ge2 O11 1.768775 1_555
Ge2 O20 1.770242 1_555
Ge2 O23 1.770242 1_555
Ge2 O1 1.785477 1_555
Ge3 O10 1.768775 1_555
Ge3 O21 1.770242 1_655
Ge3 O22 1.770242 1_655
Ge3 O0 1.785477 1_655
