# generated using pymatgen
data_TmMgS3
_symmetry_space_group_name_H-M   'P 1'
_cell_length_a   6.96529322
_cell_length_b   6.96529322
_cell_length_c   6.62172083
_cell_angle_alpha   76.52364243
_cell_angle_beta   76.52364243
_cell_angle_gamma   118.69260436
_symmetry_Int_Tables_number   1
_chemical_formula_structural   TmMgS3
_chemical_formula_sum   'Tm2 Mg2 S6'
_cell_volume   250.64586918
_cell_formula_units_Z   2
loop_
 _symmetry_equiv_pos_site_id
 _symmetry_equiv_pos_as_xyz
  1  'x, y, z'
loop_
 _atom_site_type_symbol
 _atom_site_label
 _atom_site_symmetry_multiplicity
 _atom_site_fract_x
 _atom_site_fract_y
 _atom_site_fract_z
 _atom_site_occupancy
  Tm  Tm0  1  0.20029500  0.20029500  0.68640600  1
  Tm  Tm1  1  0.79970500  0.79970500  0.31359400  1
  Mg  Mg0  1  0.33696300  0.66303700  0.00000000  1
  Mg  Mg1  1  0.66303700  0.33696300  0.00000000  1
  S  S0  1  0.11100800  0.77888900  0.80385900  1
  S  S1  1  0.88899200  0.22111100  0.19614100  1
  S  S2  1  0.22111100  0.88899200  0.19614100  1
  S  S3  1  0.77888900  0.11100800  0.80385900  1
  S  S4  1  0.46195900  0.46195900  0.25989000  1
  S  S5  1  0.53804100  0.53804100  0.74011000  1
loop_
_geom_bond_atom_site_label_1
_geom_bond_atom_site_label_2
_geom_bond_distance
_geom_bond_site_symmetry_2
Mg0 S4 2.535147 1_555
Mg0 S5 2.535147 1_554
Mg0 S0 2.549259 1_554
Mg0 S2 2.549259 1_555
Mg0 S1 2.814795 1_455
Mg0 S3 2.814795 1_564
Mg1 S5 2.535147 1_554
Mg1 S4 2.535147 1_555
Mg1 S3 2.549259 1_554
Mg1 S1 2.549259 1_555
Mg1 S2 2.814795 1_545
Mg1 S0 2.814795 1_654
S0 Tm0 2.562202 1_565
S1 Tm1 2.562202 1_545
S2 Tm1 2.562202 1_455
S3 Tm0 2.562202 1_655
S4 Tm0 2.575283 1_555
S4 Tm1 2.580834 1_555
S5 Tm1 2.575283 1_555
S5 Tm0 2.580834 1_555
