# generated using pymatgen
data_AlCoF5
_symmetry_space_group_name_H-M   'P 1'
_cell_length_a   5.22181678
_cell_length_b   5.22181678
_cell_length_c   5.22181678
_cell_angle_alpha   140.07407965
_cell_angle_beta   105.60649634
_cell_angle_gamma   87.94241531
_symmetry_Int_Tables_number   1
_chemical_formula_structural   AlCoF5
_chemical_formula_sum   'Al1 Co1 F5'
_cell_volume   84.60269950
_cell_formula_units_Z   1
loop_
 _symmetry_equiv_pos_site_id
 _symmetry_equiv_pos_as_xyz
  1  'x, y, z'
loop_
 _atom_site_type_symbol
 _atom_site_label
 _atom_site_symmetry_multiplicity
 _atom_site_fract_x
 _atom_site_fract_y
 _atom_site_fract_z
 _atom_site_occupancy
  Al  Al0  1  0.50000000  0.50000000  0.00000000  1
  Co  Co0  1  0.00000000  0.00000000  0.00000000  1
  F  F0  1  0.79401100  0.50000000  0.29401100  1
  F  F1  1  0.20598900  0.50000000  0.70598900  1
  F  F2  1  0.25927700  0.25927700  0.00000000  1
  F  F3  1  0.74072300  0.74072300  0.00000000  1
  F  F4  1  0.50000000  0.00000000  0.50000000  1
loop_
_geom_bond_atom_site_label_1
_geom_bond_atom_site_label_2
_geom_bond_distance
_geom_bond_site_symmetry_2
Al0 F4 1.782794 1_565
Al0 F4 1.782794 1_554
Al0 F3 1.809314 1_555
Al0 F2 1.809314 1_555
Al0 F0 1.856309 1_555
Al0 F1 1.856309 1_554
Co0 F2 1.948769 1_555
Co0 F3 1.948769 1_445
Co0 F1 2.206765 1_544
Co0 F1 2.206765 1_555
Co0 F0 2.206765 1_444
Co0 F0 2.206765 1_455
