# generated using pymatgen
data_Sr(TbS2)2
_symmetry_space_group_name_H-M   'P 1'
_cell_length_a   4.00512644
_cell_length_b   12.04160878
_cell_length_c   14.38451258
_cell_angle_alpha   90.00000000
_cell_angle_beta   90.00000000
_cell_angle_gamma   90.00000000
_symmetry_Int_Tables_number   1
_chemical_formula_structural   Sr(TbS2)2
_chemical_formula_sum   'Sr4 Tb8 S16'
_cell_volume   693.73865629
_cell_formula_units_Z   4
loop_
 _symmetry_equiv_pos_site_id
 _symmetry_equiv_pos_as_xyz
  1  'x, y, z'
loop_
 _atom_site_type_symbol
 _atom_site_label
 _atom_site_symmetry_multiplicity
 _atom_site_fract_x
 _atom_site_fract_y
 _atom_site_fract_z
 _atom_site_occupancy
  Sr  Sr0  1  0.25000000  0.75755415  0.33872726  1
  Sr  Sr1  1  0.25000000  0.25755415  0.16127274  1
  Sr  Sr2  1  0.75000000  0.24244585  0.66127274  1
  Sr  Sr3  1  0.75000000  0.74244585  0.83872726  1
  Tb  Tb0  1  0.25000000  0.43197406  0.38968238  1
  Tb  Tb1  1  0.25000000  0.93197406  0.11031762  1
  Tb  Tb2  1  0.75000000  0.56802594  0.61031762  1
  Tb  Tb3  1  0.75000000  0.06802594  0.88968238  1
  Tb  Tb4  1  0.25000000  0.41858764  0.89891563  1
  Tb  Tb5  1  0.25000000  0.91858764  0.60108437  1
  Tb  Tb6  1  0.75000000  0.58141236  0.10108437  1
  Tb  Tb7  1  0.75000000  0.08141236  0.39891563  1
  S  S0  1  0.25000000  0.20695968  0.82457690  1
  S  S1  1  0.25000000  0.70695968  0.67542310  1
  S  S2  1  0.75000000  0.79304032  0.17542310  1
  S  S3  1  0.75000000  0.29304032  0.32457690  1
  S  S4  1  0.25000000  0.13002041  0.52725244  1
  S  S5  1  0.25000000  0.63002041  0.97274756  1
  S  S6  1  0.75000000  0.86997959  0.47274756  1
  S  S7  1  0.75000000  0.36997959  0.02725244  1
  S  S8  1  0.25000000  0.02310377  0.28413803  1
  S  S9  1  0.25000000  0.52310377  0.21586197  1
  S  S10  1  0.75000000  0.97689623  0.71586197  1
  S  S11  1  0.75000000  0.47689623  0.78413803  1
  S  S12  1  0.25000000  0.41408409  0.57851079  1
  S  S13  1  0.25000000  0.91408409  0.92148921  1
  S  S14  1  0.75000000  0.58591591  0.42148921  1
  S  S15  1  0.75000000  0.08591591  0.07851079  1
loop_
_geom_bond_atom_site_label_1
_geom_bond_atom_site_label_2
_geom_bond_distance
_geom_bond_site_symmetry_2
S0 Tb4 2.763603 1_555
S0 Tb3 2.772398 1_455
S0 Tb3 2.772398 1_555
S0 Sr2 3.116231 1_555
S0 Sr2 3.116231 1_455
S1 Tb5 2.763603 1_555
S1 Tb2 2.772398 1_555
S1 Tb2 2.772398 1_455
S1 Sr3 3.116231 1_555
S1 Sr3 3.116231 1_455
S2 Tb6 2.763603 1_555
S2 Tb1 2.772398 1_555
S2 Tb1 2.772398 1_655
S2 Sr0 3.116231 1_655
S2 Sr0 3.116231 1_555
S3 Tb7 2.763603 1_555
S3 Tb0 2.772398 1_655
S3 Tb0 2.772398 1_555
S3 Sr1 3.116231 1_555
S3 Sr1 3.116231 1_655
S4 Tb5 2.758621 1_545
S4 Tb7 2.785822 1_555
S4 Tb7 2.785822 1_455
S4 Sr2 3.091839 1_455
S4 Sr2 3.091839 1_555
S5 Tb4 2.758621 1_555
S5 Tb6 2.785822 1_556
S5 Tb6 2.785822 1_456
S5 Sr3 3.091839 1_555
S5 Sr3 3.091839 1_455
S6 Tb7 2.758621 1_565
S6 Tb5 2.785822 1_555
S6 Tb5 2.785822 1_655
S6 Sr0 3.091839 1_555
S6 Sr0 3.091839 1_655
S7 Tb6 2.758621 1_555
S7 Tb4 2.785822 1_554
S7 Tb4 2.785822 1_654
S7 Sr1 3.091839 1_655
S7 Sr1 3.091839 1_555
S8 Tb7 2.688701 1_455
S8 Tb7 2.688701 1_555
S8 Tb1 2.730528 1_545
S8 Sr0 3.292648 1_545
S8 Sr1 3.330733 1_555
S9 Tb6 2.688701 1_455
S9 Tb6 2.688701 1_555
S9 Tb0 2.730528 1_555
S9 Sr1 3.292648 1_555
S9 Sr0 3.330733 1_555
S10 Tb5 2.688701 1_555
S10 Tb5 2.688701 1_655
S10 Tb3 2.730528 1_565
S10 Sr2 3.292648 1_565
S10 Sr3 3.330733 1_555
S11 Tb4 2.688701 1_555
S11 Tb4 2.688701 1_655
S11 Tb2 2.730528 1_555
S11 Sr3 3.292648 1_555
S11 Sr2 3.330733 1_555
S12 Tb0 2.724734 1_555
S12 Tb2 2.766915 1_555
S12 Tb2 2.766915 1_455
S12 Sr2 3.114352 1_455
S12 Sr2 3.114352 1_555
S13 Tb1 2.724734 1_556
S13 Tb3 2.766915 1_565
S13 Tb3 2.766915 1_465
S13 Sr3 3.114352 1_455
S13 Sr3 3.114352 1_555
S14 Tb2 2.724734 1_555
S14 Tb0 2.766915 1_555
S14 Tb0 2.766915 1_655
S14 Sr0 3.114352 1_655
S14 Sr0 3.114352 1_555
S15 Tb3 2.724734 1_554
S15 Tb1 2.766915 1_545
S15 Tb1 2.766915 1_645
S15 Sr1 3.114352 1_655
S15 Sr1 3.114352 1_555
