# generated using pymatgen
data_Ti4Co5Ni
_symmetry_space_group_name_H-M   'P 1'
_cell_length_a   3.03013000
_cell_length_b   3.03013000
_cell_length_c   13.94581000
_cell_angle_alpha   90.00000000
_cell_angle_beta   90.00000000
_cell_angle_gamma   90.00000000
_symmetry_Int_Tables_number   1
_chemical_formula_structural   Ti4Co5Ni
_chemical_formula_sum   'Ti4 Co5 Ni1'
_cell_volume   128.04607377
_cell_formula_units_Z   1
loop_
 _symmetry_equiv_pos_site_id
 _symmetry_equiv_pos_as_xyz
  1  'x, y, z'
loop_
 _atom_site_type_symbol
 _atom_site_label
 _atom_site_symmetry_multiplicity
 _atom_site_fract_x
 _atom_site_fract_y
 _atom_site_fract_z
 _atom_site_occupancy
  Ti  Ti0  1  0.50000000  0.50000000  0.18368700  1
  Ti  Ti1  1  0.50000000  0.50000000  0.39483100  1
  Ti  Ti2  1  0.50000000  0.50000000  0.60516900  1
  Ti  Ti3  1  0.50000000  0.50000000  0.81631300  1
  Co  Co0  1  0.00000000  0.00000000  0.90652900  1
  Co  Co1  1  0.00000000  0.00000000  0.09347100  1
  Co  Co2  1  0.00000000  0.00000000  0.29531800  1
  Co  Co3  1  0.00000000  0.00000000  0.50000000  1
  Co  Co4  1  0.00000000  0.00000000  0.70468200  1
  Ni  Ni0  1  0.50000000  0.50000000  0.00000000  1
loop_
_geom_bond_atom_site_label_1
_geom_bond_atom_site_label_2
_geom_bond_distance
_geom_bond_site_symmetry_2
Co0 Ti3 2.484703 1_545
Co0 Ti3 2.484703 1_445
Co0 Ti3 2.484703 1_455
Co0 Ti3 2.484703 1_555
Co0 Ni0 2.507993 1_456
Co0 Ni0 2.507993 1_556
Co0 Ni0 2.507993 1_446
Co0 Ni0 2.507993 1_546
Co1 Ti0 2.484703 1_555
Co1 Ti0 2.484703 1_545
Co1 Ti0 2.484703 1_445
Co1 Ti0 2.484703 1_455
Co1 Ni0 2.507993 1_555
Co1 Ni0 2.507993 1_545
Co1 Ni0 2.507993 1_455
Co1 Ni0 2.507993 1_445
Co2 Ti1 2.552803 1_545
Co2 Ti1 2.552803 1_445
Co2 Ti1 2.552803 1_555
Co2 Ti1 2.552803 1_455
Co2 Ti0 2.648476 1_455
Co2 Ti0 2.648476 1_555
Co2 Ti0 2.648476 1_545
Co2 Ti0 2.648476 1_445
Co3 Ti2 2.596528 1_455
Co3 Ti2 2.596528 1_555
Co3 Ti2 2.596528 1_445
Co3 Ti2 2.596528 1_545
Co3 Ti1 2.596528 1_545
Co3 Ti1 2.596528 1_455
Co3 Ti1 2.596528 1_445
Co3 Ti1 2.596528 1_555
Co4 Ti2 2.552803 1_545
Co4 Ti2 2.552803 1_555
Co4 Ti2 2.552803 1_455
Co4 Ti2 2.552803 1_445
Co4 Ti3 2.648476 1_455
Co4 Ti3 2.648476 1_545
Co4 Ti3 2.648476 1_555
Co4 Ti3 2.648476 1_445
Ni0 Ti0 2.561664 1_555
Ni0 Ti3 2.561664 1_554
