# generated using pymatgen
data_AlIn(CuS2)2
_symmetry_space_group_name_H-M   'P 1'
_cell_length_a   5.47440800
_cell_length_b   5.47440800
_cell_length_c   6.66096313
_cell_angle_alpha   65.73659460
_cell_angle_beta   65.73659460
_cell_angle_gamma   90.00000000
_symmetry_Int_Tables_number   1
_chemical_formula_structural   AlIn(CuS2)2
_chemical_formula_sum   'Al1 In1 Cu2 S4'
_cell_volume   162.45337356
_cell_formula_units_Z   1
loop_
 _symmetry_equiv_pos_site_id
 _symmetry_equiv_pos_as_xyz
  1  'x, y, z'
loop_
 _atom_site_type_symbol
 _atom_site_label
 _atom_site_symmetry_multiplicity
 _atom_site_fract_x
 _atom_site_fract_y
 _atom_site_fract_z
 _atom_site_occupancy
  Al  Al0  1  0.25000000  0.75000000  0.50000000  1
  In  In0  1  0.50000000  0.50000000  0.00000000  1
  Cu  Cu0  1  0.75000000  0.25000000  0.50000000  1
  Cu  Cu1  1  0.00000000  0.00000000  0.00000000  1
  S  S0  1  0.36499200  0.89068000  0.73358200  1
  S  S1  1  0.90142600  0.37573900  0.73358200  1
  S  S2  1  0.10932000  0.09857400  0.26641800  1
  S  S3  1  0.62426100  0.63500800  0.26641800  1
loop_
_geom_bond_atom_site_label_1
_geom_bond_atom_site_label_2
_geom_bond_distance
_geom_bond_site_symmetry_2
Al0 S3 2.280334 1_555
Al0 S1 2.280334 1_455
Al0 S0 2.280337 1_555
Al0 S2 2.280337 1_565
In0 S3 2.495655 1_555
In0 S1 2.495655 1_554
In0 S2 2.495658 1_555
In0 S0 2.495658 1_554
Cu0 S2 2.349890 1_655
Cu0 S0 2.349890 1_545
Cu0 S1 2.349893 1_555
Cu0 S3 2.349893 1_555
Cu1 S0 2.336335 1_544
Cu1 S2 2.336335 1_555
Cu1 S3 2.336338 1_445
Cu1 S1 2.336338 1_454
