# generated using pymatgen
data_CaCoBiO5
_symmetry_space_group_name_H-M   'P 1'
_cell_length_a   5.56914800
_cell_length_b   11.34785300
_cell_length_c   15.51648500
_cell_angle_alpha   90.00000000
_cell_angle_beta   90.00000000
_cell_angle_gamma   90.00000000
_symmetry_Int_Tables_number   1
_chemical_formula_structural   CaCoBiO5
_chemical_formula_sum   'Ca8 Co8 Bi8 O40'
_cell_volume   980.60884594
_cell_formula_units_Z   8
loop_
 _symmetry_equiv_pos_site_id
 _symmetry_equiv_pos_as_xyz
  1  'x, y, z'
loop_
 _atom_site_type_symbol
 _atom_site_label
 _atom_site_symmetry_multiplicity
 _atom_site_fract_x
 _atom_site_fract_y
 _atom_site_fract_z
 _atom_site_occupancy
  Ca  Ca0  1  0.50327500  0.35944400  0.44917500  1
  Ca  Ca1  1  0.00327500  0.14055600  0.44917500  1
  Ca  Ca2  1  0.00327500  0.64055600  0.05082500  1
  Ca  Ca3  1  0.99672500  0.35944400  0.94917500  1
  Ca  Ca4  1  0.49672500  0.14055600  0.94917500  1
  Ca  Ca5  1  0.99672500  0.85944400  0.55082500  1
  Ca  Ca6  1  0.49672500  0.64055600  0.55082500  1
  Ca  Ca7  1  0.50327500  0.85944400  0.05082500  1
  Co  Co0  1  0.98190500  0.40559400  0.59930300  1
  Co  Co1  1  0.51809500  0.90559400  0.40069700  1
  Co  Co2  1  0.01809500  0.59440600  0.40069700  1
  Co  Co3  1  0.48190500  0.09440600  0.59930300  1
  Co  Co4  1  0.01809500  0.09440600  0.09930300  1
  Co  Co5  1  0.98190500  0.90559400  0.90069700  1
  Co  Co6  1  0.51809500  0.40559400  0.09930300  1
  Co  Co7  1  0.48190500  0.59440600  0.90069700  1
  Bi  Bi0  1  0.94468500  0.84413300  0.23251300  1
  Bi  Bi1  1  0.05531500  0.15586700  0.76748700  1
  Bi  Bi2  1  0.55531500  0.34413300  0.76748700  1
  Bi  Bi3  1  0.05531500  0.65586700  0.73251300  1
  Bi  Bi4  1  0.44468500  0.15586700  0.26748700  1
  Bi  Bi5  1  0.44468500  0.65586700  0.23251300  1
  Bi  Bi6  1  0.55531500  0.84413300  0.73251300  1
  Bi  Bi7  1  0.94468500  0.34413300  0.26748700  1
  O  O0  1  0.92810000  0.32485300  0.69791400  1
  O  O1  1  0.30666200  0.04770300  0.07057100  1
  O  O2  1  0.19333800  0.54770300  0.92942900  1
  O  O3  1  0.23862200  0.77106700  0.15151400  1
  O  O4  1  0.26137800  0.27106700  0.84848600  1
  O  O5  1  0.92810000  0.82485300  0.80208600  1
  O  O6  1  0.26137800  0.77106700  0.65151400  1
  O  O7  1  0.57190000  0.82485300  0.30208600  1
  O  O8  1  0.30666200  0.54770300  0.42942900  1
  O  O9  1  0.07190000  0.67514700  0.30208600  1
  O  O10  1  0.57190000  0.32485300  0.19791400  1
  O  O11  1  0.62427000  0.18027400  0.52346300  1
  O  O12  1  0.80666200  0.95229700  0.42942900  1
  O  O13  1  0.76137800  0.72893300  0.65151400  1
  O  O14  1  0.17382400  0.02596700  0.86866600  1
  O  O15  1  0.80666200  0.45229700  0.07057100  1
  O  O16  1  0.07190000  0.17514700  0.19791400  1
  O  O17  1  0.73862200  0.22893300  0.34848600  1
  O  O18  1  0.12427000  0.81972600  0.97653700  1
  O  O19  1  0.19333800  0.04770300  0.57057100  1
  O  O20  1  0.37573000  0.81972600  0.47653700  1
  O  O21  1  0.82617600  0.97403300  0.13133400  1
  O  O22  1  0.76137800  0.22893300  0.84848600  1
  O  O23  1  0.67382400  0.97403300  0.63133400  1
  O  O24  1  0.37573000  0.31972600  0.02346300  1
  O  O25  1  0.12427000  0.31972600  0.52346300  1
  O  O26  1  0.69333800  0.45229700  0.57057100  1
  O  O27  1  0.69333800  0.95229700  0.92942900  1
  O  O28  1  0.67382400  0.47403300  0.86866600  1
  O  O29  1  0.87573000  0.68027400  0.47653700  1
  O  O30  1  0.87573000  0.18027400  0.02346300  1
  O  O31  1  0.62427000  0.68027400  0.97653700  1
  O  O32  1  0.82617600  0.47403300  0.36866600  1
  O  O33  1  0.73862200  0.72893300  0.15151400  1
  O  O34  1  0.23862200  0.27106700  0.34848600  1
  O  O35  1  0.17382400  0.52596700  0.63133400  1
  O  O36  1  0.32617600  0.52596700  0.13133400  1
  O  O37  1  0.42810000  0.17514700  0.69791400  1
  O  O38  1  0.32617600  0.02596700  0.36866600  1
  O  O39  1  0.42810000  0.67514700  0.80208600  1
loop_
_geom_bond_atom_site_label_1
_geom_bond_atom_site_label_2
_geom_bond_distance
_geom_bond_site_symmetry_2
Ca0 O34 2.370453 1_555
Ca0 O26 2.403901 1_555
Ca0 O8 2.420073 1_555
Ca0 O11 2.432413 1_555
Ca0 O25 2.446842 1_555
Ca0 O17 2.520359 1_555
Ca0 O32 2.546615 1_555
Ca1 O17 2.370453 1_455
Ca1 O19 2.403901 1_555
Ca1 O12 2.420073 1_445
Ca1 O25 2.432413 1_555
Ca1 O11 2.446842 1_455
Ca1 O34 2.520359 1_555
Ca1 O38 2.546615 1_555
Ca2 O33 2.370453 1_455
Ca2 O2 2.403901 1_554
Ca2 O15 2.420073 1_455
Ca2 O18 2.432413 1_554
Ca2 O31 2.446842 1_454
Ca2 O3 2.520359 1_555
Ca2 O36 2.546615 1_555
Ca3 O4 2.370453 1_655
Ca3 O15 2.403901 1_556
Ca3 O2 2.420073 1_655
Ca3 O30 2.432413 1_556
Ca3 O24 2.446842 1_656
Ca3 O22 2.520359 1_555
Ca3 O28 2.546615 1_555
Ca4 O22 2.370453 1_555
Ca4 O1 2.403901 1_556
Ca4 O27 2.420073 1_545
Ca4 O24 2.432413 1_556
Ca4 O30 2.446842 1_556
Ca4 O4 2.520359 1_555
Ca4 O14 2.546615 1_555
Ca5 O6 2.370453 1_655
Ca5 O12 2.403901 1_555
Ca5 O19 2.420073 1_665
Ca5 O29 2.432413 1_555
Ca5 O20 2.446842 1_655
Ca5 O13 2.520359 1_555
Ca5 O23 2.546615 1_555
Ca6 O13 2.370453 1_555
Ca6 O8 2.403901 1_555
Ca6 O26 2.420073 1_555
Ca6 O20 2.432413 1_555
Ca6 O29 2.446842 1_555
Ca6 O6 2.520359 1_555
Ca6 O35 2.546615 1_555
Ca7 O3 2.370453 1_555
Ca7 O27 2.403901 1_554
Ca7 O1 2.420073 1_565
Ca7 O31 2.432413 1_554
Ca7 O18 2.446842 1_554
Ca7 O33 2.520359 1_555
Ca7 O21 2.546615 1_555
Co0 O25 1.721305 1_655
Co0 O26 1.749947 1_555
Co0 O35 1.804243 1_655
Co0 O0 1.808445 1_555
Co1 O20 1.721305 1_555
Co1 O12 1.749947 1_555
Co1 O38 1.804243 1_565
Co1 O7 1.808445 1_555
Co2 O29 1.721305 1_455
Co2 O8 1.749947 1_555
Co2 O32 1.804243 1_455
Co2 O9 1.808445 1_555
Co3 O11 1.721305 1_555
Co3 O19 1.749947 1_555
Co3 O23 1.804243 1_545
Co3 O37 1.808445 1_555
Co4 O30 1.721305 1_455
Co4 O1 1.749947 1_555
Co4 O21 1.804243 1_445
Co4 O16 1.808445 1_555
Co5 O18 1.721305 1_655
Co5 O27 1.749947 1_555
Co5 O14 1.804243 1_665
Co5 O5 1.808445 1_555
Co6 O24 1.721305 1_555
Co6 O15 1.749947 1_555
Co6 O36 1.804243 1_555
Co6 O10 1.808445 1_555
Co7 O31 1.721305 1_555
Co7 O2 1.749947 1_555
Co7 O28 1.804243 1_555
Co7 O39 1.808445 1_555
Bi0 O33 2.146051 1_555
Bi0 O3 2.224134 1_655
Bi0 O21 2.252386 1_555
Bi0 O9 2.311844 1_655
Bi0 O7 2.350196 1_555
Bi1 O4 2.146051 1_555
Bi1 O22 2.224134 1_455
Bi1 O14 2.252386 1_555
Bi1 O0 2.311844 1_455
Bi1 O37 2.350196 1_555
Bi2 O22 2.146051 1_555
Bi2 O4 2.224134 1_555
Bi2 O28 2.252386 1_555
Bi2 O37 2.311844 1_555
Bi2 O0 2.350196 1_555
Bi3 O6 2.146051 1_555
Bi3 O13 2.224134 1_455
Bi3 O35 2.252386 1_555
Bi3 O5 2.311844 1_455
Bi3 O39 2.350196 1_555
Bi4 O34 2.146051 1_555
Bi4 O17 2.224134 1_555
Bi4 O38 2.252386 1_555
Bi4 O10 2.311844 1_555
Bi4 O16 2.350196 1_555
Bi5 O3 2.146051 1_555
Bi5 O33 2.224134 1_555
Bi5 O36 2.252386 1_555
Bi5 O7 2.311844 1_555
Bi5 O9 2.350196 1_555
Bi6 O13 2.146051 1_555
Bi6 O6 2.224134 1_555
Bi6 O23 2.252386 1_555
Bi6 O39 2.311844 1_555
Bi6 O5 2.350196 1_555
Bi7 O17 2.146051 1_555
Bi7 O34 2.224134 1_655
Bi7 O32 2.252386 1_555
Bi7 O16 2.311844 1_655
Bi7 O10 2.350196 1_555
