# generated using pymatgen
data_La2MgSe4
_symmetry_space_group_name_H-M   'P 1'
_cell_length_a   8.59310102
_cell_length_b   8.59310102
_cell_length_c   8.59310102
_cell_angle_alpha   60.00000000
_cell_angle_beta   60.00000000
_cell_angle_gamma   60.00000000
_symmetry_Int_Tables_number   1
_chemical_formula_structural   La2MgSe4
_chemical_formula_sum   'La4 Mg2 Se8'
_cell_volume   448.67797765
_cell_formula_units_Z   2
loop_
 _symmetry_equiv_pos_site_id
 _symmetry_equiv_pos_as_xyz
  1  'x, y, z'
loop_
 _atom_site_type_symbol
 _atom_site_label
 _atom_site_symmetry_multiplicity
 _atom_site_fract_x
 _atom_site_fract_y
 _atom_site_fract_z
 _atom_site_occupancy
  La  La0  1  0.12500000  0.62500000  0.12500000  1
  La  La1  1  0.12500000  0.12500000  0.62500000  1
  La  La2  1  0.62500000  0.12500000  0.12500000  1
  La  La3  1  0.12500000  0.12500000  0.12500000  1
  Mg  Mg0  1  0.50000000  0.50000000  0.50000000  1
  Mg  Mg1  1  0.75000000  0.75000000  0.75000000  1
  Se  Se0  1  0.87682100  0.87682100  0.87682100  1
  Se  Se1  1  0.36953600  0.87682100  0.87682100  1
  Se  Se2  1  0.87682100  0.36953600  0.87682100  1
  Se  Se3  1  0.87682100  0.87682100  0.36953600  1
  Se  Se4  1  0.37317900  0.37317900  0.88046400  1
  Se  Se5  1  0.37317900  0.88046400  0.37317900  1
  Se  Se6  1  0.88046400  0.37317900  0.37317900  1
  Se  Se7  1  0.37317900  0.37317900  0.37317900  1
loop_
_geom_bond_atom_site_label_1
_geom_bond_atom_site_label_2
_geom_bond_distance
_geom_bond_site_symmetry_2
La0 Se1 3.016147 1_554
La0 Se3 3.016147 1_455
La0 Se4 3.016147 1_554
La0 Se6 3.016147 1_455
La0 Se7 3.016153 1_555
La0 Se0 3.016153 1_454
La1 Se1 3.016147 1_545
La1 Se2 3.016147 1_455
La1 Se5 3.016147 1_545
La1 Se6 3.016147 1_455
La1 Se0 3.016153 1_445
La1 Se7 3.016153 1_555
La2 Se2 3.016147 1_554
La2 Se3 3.016147 1_545
La2 Se5 3.016147 1_545
La2 Se4 3.016147 1_554
La2 Se7 3.016153 1_555
La2 Se0 3.016153 1_544
La3 Se6 3.016153 1_455
La3 Se4 3.016153 1_554
La3 Se5 3.016153 1_545
La3 Se3 3.016153 1_445
La3 Se2 3.016153 1_454
La3 Se1 3.016153 1_544
Mg0 Se7 2.669419 1_555
Mg0 Se4 2.669426 1_555
Mg0 Se5 2.669426 1_555
Mg0 Se6 2.669426 1_555
Mg1 Se0 2.669419 1_555
Mg1 Se1 2.669426 1_555
Mg1 Se3 2.669426 1_555
Mg1 Se2 2.669426 1_555
