# generated using pymatgen
data_U2InIr2
_symmetry_space_group_name_H-M   'P 1'
_cell_length_a   7.66465381
_cell_length_b   7.66465381
_cell_length_c   3.61101655
_cell_angle_alpha   90.00000000
_cell_angle_beta   90.00000000
_cell_angle_gamma   89.99751161
_symmetry_Int_Tables_number   1
_chemical_formula_structural   U2InIr2
_chemical_formula_sum   'U4 In2 Ir4'
_cell_volume   212.13609316
_cell_formula_units_Z   2
loop_
 _symmetry_equiv_pos_site_id
 _symmetry_equiv_pos_as_xyz
  1  'x, y, z'
loop_
 _atom_site_type_symbol
 _atom_site_label
 _atom_site_symmetry_multiplicity
 _atom_site_fract_x
 _atom_site_fract_y
 _atom_site_fract_z
 _atom_site_occupancy
  U  U0  1  0.66611479  0.16611479  0.50000000  1
  U  U1  1  0.33388521  0.83388521  0.50000000  1
  U  U2  1  0.16612897  0.33387103  0.50000000  1
  U  U3  1  0.83387103  0.66612897  0.50000000  1
  In  In0  1  0.50000000  0.50000000  0.00000000  1
  In  In1  1  -0.00000000  0.00000000  0.00000000  1
  Ir  Ir0  1  0.13921059  0.63921059  -0.00000000  1
  Ir  Ir1  1  0.86078941  0.36078941  -0.00000000  1
  Ir  Ir2  1  0.63920491  0.86079509  0.00000000  1
  Ir  Ir3  1  0.36079509  0.13920491  0.00000000  1
loop_
_geom_bond_atom_site_label_1
_geom_bond_atom_site_label_2
_geom_bond_distance
_geom_bond_site_symmetry_2
In0 Ir1 2.963994 1_555
In0 Ir0 2.963994 1_555
In0 Ir2 2.964106 1_555
In0 Ir3 2.964106 1_555
In1 Ir0 2.963994 1_545
In1 Ir1 2.963994 1_455
In1 Ir2 2.964106 1_445
In1 Ir3 2.964106 1_555
Ir0 U1 2.777204 1_555
Ir0 U1 2.777204 1_554
Ir0 U3 2.963021 1_455
Ir0 U3 2.963021 1_454
Ir0 U2 2.963021 1_554
Ir0 U2 2.963021 1_555
Ir0 Ir1 3.018000 1_455
Ir1 U0 2.777204 1_554
Ir1 U0 2.777204 1_555
Ir1 U2 2.963021 1_655
Ir1 U2 2.963021 1_654
Ir1 U3 2.963021 1_555
Ir1 U3 2.963021 1_554
Ir2 U3 2.777064 1_555
Ir2 U3 2.777064 1_554
Ir2 U0 2.962910 1_565
Ir2 U0 2.962910 1_564
Ir2 U1 2.962910 1_554
Ir2 U1 2.962910 1_555
Ir2 Ir3 3.017746 1_565
Ir3 U2 2.777064 1_555
Ir3 U2 2.777064 1_554
Ir3 U1 2.962910 1_544
Ir3 U1 2.962910 1_545
Ir3 U0 2.962910 1_555
Ir3 U0 2.962910 1_554
