# generated using pymatgen
data_LuMg2Mo3S8
_symmetry_space_group_name_H-M   'P 1'
_cell_length_a   7.46596908
_cell_length_b   7.46584049
_cell_length_c   7.46584856
_cell_angle_alpha   60.73590207
_cell_angle_beta   60.73538598
_cell_angle_gamma   60.73571383
_symmetry_Int_Tables_number   1
_chemical_formula_structural   LuMg2Mo3S8
_chemical_formula_sum   'Lu1 Mg2 Mo3 S8'
_cell_volume   299.14329166
_cell_formula_units_Z   1
loop_
 _symmetry_equiv_pos_site_id
 _symmetry_equiv_pos_as_xyz
  1  'x, y, z'
loop_
 _atom_site_type_symbol
 _atom_site_label
 _atom_site_symmetry_multiplicity
 _atom_site_fract_x
 _atom_site_fract_y
 _atom_site_fract_z
 _atom_site_occupancy
  Lu  Lu0  1  0.50001269  0.50001323  0.49997156  1
  Mg  Mg0  1  0.87605468  0.87604158  0.87605540  1
  Mg  Mg1  1  0.12394377  0.12395519  0.12392918  1
  Mo  Mo0  1  0.50000282  0.49999050  0.00000241  1
  Mo  Mo1  1  0.00000036  0.49999375  0.50001080  1
  Mo  Mo2  1  0.49999476  0.00000008  0.50000930  1
  S  S0  1  0.73836861  0.73837737  0.73838115  1
  S  S1  1  0.25102682  0.25104476  0.72428620  1
  S  S2  1  0.25103167  0.72428198  0.25103723  1
  S  S3  1  0.72428541  0.25102844  0.25102688  1
  S  S4  1  0.74895034  0.27572218  0.74895266  1
  S  S5  1  0.27571375  0.74896170  0.74898334  1
  S  S6  1  0.26163279  0.26161395  0.26163495  1
  S  S7  1  0.74898554  0.74897027  0.27571996  1
loop_
_geom_bond_atom_site_label_1
_geom_bond_atom_site_label_2
_geom_bond_distance
_geom_bond_site_symmetry_2
Lu0 S2 2.646763 1_555
Lu0 S4 2.646772 1_555
Lu0 S3 2.646794 1_555
Lu0 S7 2.646835 1_555
Lu0 S1 2.646944 1_555
Lu0 S5 2.646953 1_555
Mg0 S7 2.459292 1_556
Mg0 S5 2.459292 1_655
Mg0 S4 2.459387 1_565
Mg0 S0 2.503655 1_555
Mg1 S1 2.459152 1_554
Mg1 S3 2.459285 1_455
Mg1 S2 2.459343 1_545
Mg1 S6 2.503831 1_555
Mo0 S3 2.527963 1_555
Mo0 S5 2.527970 1_554
Mo0 S4 2.527981 1_554
Mo0 S2 2.528026 1_555
Mo0 S6 2.539507 1_555
Mo0 S0 2.539531 1_554
Mo1 S1 2.527935 1_555
Mo1 S7 2.527961 1_455
Mo1 S2 2.528020 1_555
Mo1 S4 2.528024 1_455
Mo1 S0 2.539520 1_455
Mo1 S6 2.539529 1_555
Mo2 S7 2.527997 1_545
Mo2 S1 2.528005 1_555
Mo2 S3 2.528017 1_555
Mo2 S5 2.528019 1_545
Mo2 S6 2.539459 1_555
Mo2 S0 2.539511 1_545
