# generated using pymatgen
data_Mn3Cr8N9
_symmetry_space_group_name_H-M   'P 1'
_cell_length_a   6.37218026
_cell_length_b   7.68618770
_cell_length_c   16.31920428
_cell_angle_alpha   90.00000000
_cell_angle_beta   98.91818387
_cell_angle_gamma   90.00000000
_symmetry_Int_Tables_number   1
_chemical_formula_structural   Mn3Cr8N9
_chemical_formula_sum   'Mn12 Cr32 N36'
_cell_volume   789.61558917
_cell_formula_units_Z   4
loop_
 _symmetry_equiv_pos_site_id
 _symmetry_equiv_pos_as_xyz
  1  'x, y, z'
loop_
 _atom_site_type_symbol
 _atom_site_label
 _atom_site_symmetry_multiplicity
 _atom_site_fract_x
 _atom_site_fract_y
 _atom_site_fract_z
 _atom_site_occupancy
  Mn  Mn0  1  0.53565851  0.09475920  0.74842554  1
  Mn  Mn1  1  0.46434149  0.59475920  0.75157446  1
  Mn  Mn2  1  0.46434149  0.90524080  0.25157446  1
  Mn  Mn3  1  0.53565851  0.40524080  0.24842554  1
  Mn  Mn4  1  0.82409330  0.83522590  0.52955250  1
  Mn  Mn5  1  0.17590670  0.33522590  0.97044750  1
  Mn  Mn6  1  0.17590670  0.16477410  0.47044750  1
  Mn  Mn7  1  0.82409330  0.66477410  0.02955250  1
  Mn  Mn8  1  0.84835526  0.40550559  0.53215696  1
  Mn  Mn9  1  0.15164474  0.90550559  0.96784304  1
  Mn  Mn10  1  0.15164474  0.59449441  0.46784304  1
  Mn  Mn11  1  0.84835526  0.09449441  0.03215696  1
  Cr  Cr0  1  0.56606251  0.86518971  0.09533357  1
  Cr  Cr1  1  0.43393749  0.36518971  0.40466643  1
  Cr  Cr2  1  0.43393749  0.13481029  0.90466643  1
  Cr  Cr3  1  0.56606251  0.63481029  0.59533357  1
  Cr  Cr4  1  0.54037927  0.12592813  0.57648120  1
  Cr  Cr5  1  0.45962073  0.62592813  0.92351880  1
  Cr  Cr6  1  0.45962073  0.87407187  0.42351880  1
  Cr  Cr7  1  0.54037927  0.37407187  0.07648120  1
  Cr  Cr8  1  0.83984528  0.86037199  0.72944945  1
  Cr  Cr9  1  0.16015472  0.36037199  0.77055055  1
  Cr  Cr10  1  0.16015472  0.13962801  0.27055055  1
  Cr  Cr11  1  0.83984528  0.63962801  0.22944945  1
  Cr  Cr12  1  0.74562054  0.34222276  0.68248520  1
  Cr  Cr13  1  0.25437946  0.84222276  0.81751480  1
  Cr  Cr14  1  0.25437946  0.65777724  0.31751480  1
  Cr  Cr15  1  0.74562054  0.15777724  0.18248520  1
  Cr  Cr16  1  0.69192899  0.36714626  0.87398527  1
  Cr  Cr17  1  0.30807101  0.86714626  0.62601473  1
  Cr  Cr18  1  0.30807101  0.63285374  0.12601473  1
  Cr  Cr19  1  0.69192899  0.13285374  0.37398527  1
  Cr  Cr20  1  0.94437104  0.11063372  0.83777253  1
  Cr  Cr21  1  0.05562896  0.61063372  0.66222747  1
  Cr  Cr22  1  0.05562896  0.88936628  0.16222747  1
  Cr  Cr23  1  0.94437104  0.38936628  0.33777253  1
  Cr  Cr24  1  0.03719862  0.10258178  0.66190316  1
  Cr  Cr25  1  0.96280138  0.60258178  0.83809684  1
  Cr  Cr26  1  0.96280138  0.89741822  0.33809684  1
  Cr  Cr27  1  0.03719862  0.39741822  0.16190316  1
  Cr  Cr28  1  0.28484083  0.36705694  0.59851908  1
  Cr  Cr29  1  0.71515917  0.86705694  0.90148092  1
  Cr  Cr30  1  0.71515917  0.63294306  0.40148092  1
  Cr  Cr31  1  0.28484083  0.13294306  0.09851908  1
  N  N0  1  0.58513009  0.38130472  0.57543450  1
  N  N1  1  0.41486991  0.88130472  0.92456550  1
  N  N2  1  0.41486991  0.61869528  0.42456550  1
  N  N3  1  0.58513009  0.11869528  0.07543450  1
  N  N4  1  0.43215785  0.27158487  0.80772779  1
  N  N5  1  0.56784215  0.77158487  0.69227221  1
  N  N6  1  0.56784215  0.72841513  0.19227221  1
  N  N7  1  0.43215785  0.22841513  0.30772779  1
  N  N8  1  0.74318429  0.11999611  0.91767180  1
  N  N9  1  0.25681571  0.61999611  0.58232820  1
  N  N10  1  0.25681571  0.88000389  0.08232820  1
  N  N11  1  0.74318429  0.38000389  0.41767180  1
  N  N12  1  0.53556611  0.87050821  0.54701002  1
  N  N13  1  0.46443389  0.37050821  0.95298998  1
  N  N14  1  0.46443389  0.12949179  0.45298998  1
  N  N15  1  0.53556611  0.62949179  0.04701002  1
  N  N16  1  0.74206247  0.09046545  0.67792396  1
  N  N17  1  0.25793753  0.59046545  0.82207604  1
  N  N18  1  0.25793753  0.90953455  0.32207604  1
  N  N19  1  0.74206247  0.40953455  0.17792396  1
  N  N20  1  0.02899698  0.35865546  0.65553974  1
  N  N21  1  0.97100302  0.85865546  0.84446026  1
  N  N22  1  0.97100302  0.64134454  0.34446026  1
  N  N23  1  0.02899698  0.14134454  0.15553974  1
  N  N24  1  0.00987605  0.34668916  0.86586771  1
  N  N25  1  0.99012395  0.84668916  0.63413229  1
  N  N26  1  0.99012395  0.65331084  0.13413229  1
  N  N27  1  0.00987605  0.15331084  0.36586771  1
  N  N28  1  0.24320839  0.10649690  0.58280397  1
  N  N29  1  0.75679161  0.60649690  0.91719603  1
  N  N30  1  0.75679161  0.89350310  0.41719603  1
  N  N31  1  0.24320839  0.39350310  0.08280397  1
  N  N32  1  0.27531887  0.98755565  0.72854116  1
  N  N33  1  0.72468113  0.48755565  0.77145884  1
  N  N34  1  0.72468113  0.01244435  0.27145884  1
  N  N35  1  0.27531887  0.51244435  0.22854116  1
loop_
_geom_bond_atom_site_label_1
_geom_bond_atom_site_label_2
_geom_bond_distance
_geom_bond_site_symmetry_2
Mn0 N32 1.835593 1_545
Mn0 N4 1.848413 1_555
Mn0 N16 1.877191 1_555
Mn1 N33 1.835593 1_555
Mn1 N5 1.848413 1_555
Mn1 N17 1.877191 1_555
Mn2 N34 1.835593 1_565
Mn2 N6 1.848413 1_555
Mn2 N18 1.877191 1_555
Mn3 N35 1.835593 1_555
Mn3 N7 1.848413 1_555
Mn3 N19 1.877191 1_555
Mn4 N25 1.865460 1_555
Mn4 N30 1.871558 1_555
Mn4 N12 1.922852 1_555
Mn5 N24 1.865460 1_555
Mn5 N31 1.871558 1_556
Mn5 N13 1.922852 1_555
Mn6 N27 1.865460 1_555
Mn6 N28 1.871558 1_555
Mn6 N14 1.922852 1_555
Mn7 N26 1.865460 1_555
Mn7 N29 1.871558 1_554
Mn7 N15 1.922852 1_555
Mn8 N11 1.894706 1_555
Mn8 N0 1.927195 1_555
Mn8 N20 2.188670 1_655
Mn9 N10 1.894706 1_556
Mn9 N1 1.927195 1_555
Mn9 N21 2.188670 1_455
Mn10 N9 1.894706 1_555
Mn10 N2 1.927195 1_555
Mn10 N22 2.188670 1_455
Mn11 N8 1.894706 1_554
Mn11 N3 1.927195 1_555
Mn11 N23 2.188670 1_655
Cr0 N6 1.897985 1_555
Cr0 N10 1.952309 1_555
Cr0 N15 1.973348 1_555
Cr0 N3 1.982188 1_565
Cr1 N7 1.897985 1_555
Cr1 N11 1.952309 1_555
Cr1 N14 1.973348 1_555
Cr1 N2 1.982188 1_555
Cr2 N4 1.897985 1_555
Cr2 N8 1.952309 1_555
Cr2 N13 1.973348 1_555
Cr2 N1 1.982188 1_545
Cr3 N5 1.897985 1_555
Cr3 N9 1.952309 1_555
Cr3 N12 1.973348 1_555
Cr3 N0 1.982188 1_555
Cr4 N28 1.918164 1_555
Cr4 N16 1.951118 1_555
Cr4 N0 1.983932 1_555
Cr4 N14 1.998478 1_555
Cr4 N12 2.020359 1_545
Cr5 N29 1.918164 1_555
Cr5 N17 1.951118 1_555
Cr5 N1 1.983932 1_555
Cr5 N15 1.998478 1_556
Cr5 N13 2.020359 1_555
Cr6 N30 1.918164 1_555
Cr6 N18 1.951118 1_555
Cr6 N2 1.983932 1_555
Cr6 N12 1.998478 1_555
Cr6 N14 2.020359 1_565
Cr7 N31 1.918164 1_555
Cr7 N19 1.951118 1_555
Cr7 N3 1.983932 1_555
Cr7 N13 1.998478 1_554
Cr7 N15 2.020359 1_555
Cr8 N5 1.874016 1_555
Cr8 N21 1.932619 1_555
Cr8 N25 1.951788 1_555
Cr8 N16 2.015087 1_565
Cr9 N4 1.874016 1_555
Cr9 N20 1.932619 1_555
Cr9 N24 1.951788 1_555
Cr9 N17 2.015087 1_555
Cr10 N7 1.874016 1_555
Cr10 N23 1.932619 1_555
Cr10 N27 1.951788 1_555
Cr10 N18 2.015087 1_545
Cr11 N6 1.874016 1_555
Cr11 N22 1.932619 1_555
Cr11 N26 1.951788 1_555
Cr11 N19 2.015087 1_555
Cr12 N33 1.853086 1_555
Cr12 N0 1.906335 1_555
Cr12 N20 1.927731 1_655
Cr12 N16 1.936483 1_555
Cr13 N32 1.853086 1_555
Cr13 N1 1.906335 1_555
Cr13 N21 1.927731 1_455
Cr13 N17 1.936483 1_555
Cr14 N35 1.853086 1_555
Cr14 N2 1.906335 1_555
Cr14 N22 1.927731 1_455
Cr14 N18 1.936483 1_555
Cr15 N34 1.853086 1_555
Cr15 N3 1.906335 1_555
Cr15 N23 1.927731 1_655
Cr15 N19 1.936483 1_555
Cr16 N33 1.951354 1_555
Cr16 N4 1.973259 1_555
Cr16 N29 1.990527 1_555
Cr16 N8 2.037496 1_555
Cr16 N24 2.056752 1_655
Cr16 N13 2.084199 1_555
Cr17 N32 1.951354 1_555
Cr17 N5 1.973259 1_555
Cr17 N28 1.990527 1_565
Cr17 N9 2.037496 1_555
Cr17 N25 2.056752 1_455
Cr17 N12 2.084199 1_555
Cr18 N35 1.951354 1_555
Cr18 N6 1.973259 1_555
Cr18 N31 1.990527 1_555
Cr18 N10 2.037496 1_555
Cr18 N26 2.056752 1_455
Cr18 N15 2.084199 1_555
Cr19 N34 1.951354 1_555
Cr19 N7 1.973259 1_555
Cr19 N30 1.990527 1_545
Cr19 N11 2.037496 1_555
Cr19 N27 2.056752 1_655
Cr19 N14 2.084199 1_555
Cr20 N24 1.901850 1_655
Cr20 N21 1.945759 1_545
Cr20 N8 1.966496 1_555
Cr21 N25 1.901850 1_455
Cr21 N20 1.945759 1_555
Cr21 N9 1.966496 1_555
Cr22 N26 1.901850 1_455
Cr22 N23 1.945759 1_565
Cr22 N10 1.966496 1_555
Cr23 N27 1.901850 1_655
Cr23 N22 1.945759 1_555
Cr23 N11 1.966496 1_555
Cr24 N32 1.937782 1_545
Cr24 N16 1.940711 1_455
Cr24 N20 1.971234 1_555
Cr24 N28 1.978840 1_555
Cr24 N25 2.030191 1_445
Cr25 N33 1.937782 1_555
Cr25 N17 1.940711 1_655
Cr25 N21 1.971234 1_555
Cr25 N29 1.978840 1_555
Cr25 N24 2.030191 1_655
Cr26 N34 1.937782 1_565
Cr26 N18 1.940711 1_655
Cr26 N22 1.971234 1_555
Cr26 N30 1.978840 1_555
Cr26 N27 2.030191 1_665
Cr27 N35 1.937782 1_555
Cr27 N19 1.940711 1_455
Cr27 N23 1.971234 1_555
Cr27 N31 1.978840 1_555
Cr27 N26 2.030191 1_455
Cr28 N9 1.966405 1_555
Cr28 N20 1.999559 1_555
Cr28 N0 2.009697 1_555
Cr28 N28 2.031235 1_555
Cr29 N8 1.966405 1_565
Cr29 N21 1.999559 1_555
Cr29 N1 2.009697 1_555
Cr29 N29 2.031235 1_555
Cr30 N11 1.966405 1_555
Cr30 N22 1.999559 1_555
Cr30 N2 2.009697 1_555
Cr30 N30 2.031235 1_555
Cr31 N10 1.966405 1_545
Cr31 N23 1.999559 1_555
Cr31 N3 2.009697 1_555
Cr31 N31 2.031235 1_555
