# generated using pymatgen
data_Lu(Al5Os)2
_symmetry_space_group_name_H-M   'P 1'
_cell_length_a   6.79652472
_cell_length_b   6.79652472
_cell_length_c   9.04893738
_cell_angle_alpha   90.00000000
_cell_angle_beta   90.00000000
_cell_angle_gamma   96.74531011
_symmetry_Int_Tables_number   1
_chemical_formula_structural   Lu(Al5Os)2
_chemical_formula_sum   'Lu2 Al20 Os4'
_cell_volume   415.10195454
_cell_formula_units_Z   2
loop_
 _symmetry_equiv_pos_site_id
 _symmetry_equiv_pos_as_xyz
  1  'x, y, z'
loop_
 _atom_site_type_symbol
 _atom_site_label
 _atom_site_symmetry_multiplicity
 _atom_site_fract_x
 _atom_site_fract_y
 _atom_site_fract_z
 _atom_site_occupancy
  Lu  Lu0  1  0.86880465  0.13119535  0.75000000  1
  Lu  Lu1  1  0.13119535  0.86880465  0.25000000  1
  Al  Al0  1  0.51908285  0.78324057  0.75000000  1
  Al  Al1  1  0.78324057  0.51908285  0.25000000  1
  Al  Al2  1  0.48091715  0.21675943  0.25000000  1
  Al  Al3  1  0.21675943  0.48091715  0.75000000  1
  Al  Al4  1  0.62391321  0.37608679  0.95325153  1
  Al  Al5  1  0.37608679  0.62391321  0.04674847  1
  Al  Al6  1  0.62391321  0.37608679  0.54674847  1
  Al  Al7  1  0.37608679  0.62391321  0.45325153  1
  Al  Al8  1  0.41502488  0.14637612  0.75000000  1
  Al  Al9  1  0.14637612  0.41502488  0.25000000  1
  Al  Al10  1  0.58497512  0.85362388  0.25000000  1
  Al  Al11  1  0.85362388  0.58497512  0.75000000  1
  Al  Al12  1  0.84535025  0.15464975  0.39940992  1
  Al  Al13  1  0.15464975  0.84535025  0.60059008  1
  Al  Al14  1  0.84535025  0.15464975  0.10059008  1
  Al  Al15  1  0.15464975  0.84535025  0.89940992  1
  Al  Al16  1  0.77584736  0.77584736  0.00000000  1
  Al  Al17  1  0.77584736  0.77584736  0.50000000  1
  Al  Al18  1  0.22415264  0.22415264  0.00000000  1
  Al  Al19  1  0.22415264  0.22415264  0.50000000  1
  Os  Os0  1  0.50000000  0.00000000  0.00000000  1
  Os  Os1  1  -0.00000000  0.50000000  0.00000000  1
  Os  Os2  1  0.50000000  0.00000000  0.50000000  1
  Os  Os3  1  -0.00000000  0.50000000  0.50000000  1
loop_
_geom_bond_atom_site_label_1
_geom_bond_atom_site_label_2
_geom_bond_distance
_geom_bond_site_symmetry_2
Al0 Al8 2.646041 1_565
Al0 Os0 2.711044 1_566
Al0 Os2 2.711044 1_565
Al0 Al3 2.729869 1_555
Al0 Al11 2.775847 1_555
Al0 Al16 2.861158 1_556
Al0 Al17 2.861158 1_555
Al0 Al15 2.895970 1_555
Al0 Al13 2.895970 1_555
Al0 Al7 3.013394 1_555
Al0 Al5 3.013394 1_556
Al0 Lu0 3.149894 1_565
Al1 Al9 2.646041 1_655
Al1 Os3 2.711044 1_655
Al1 Os1 2.711044 1_655
Al1 Al2 2.729869 1_555
Al1 Al10 2.775847 1_555
Al1 Al16 2.861158 1_555
Al1 Al17 2.861158 1_555
Al1 Al14 2.895970 1_555
Al1 Al12 2.895970 1_555
Al1 Al4 3.013394 1_554
Al1 Al6 3.013394 1_555
Al1 Lu1 3.149894 1_655
Al2 Os0 2.711044 1_555
Al2 Os2 2.711044 1_555
Al2 Al9 2.775847 1_555
Al2 Al4 3.013394 1_554
Al2 Al6 3.013394 1_555
Al2 Lu1 3.149894 1_545
Al3 Os1 2.711044 1_556
Al3 Os3 2.711044 1_555
Al3 Al8 2.775847 1_555
Al3 Al7 3.013394 1_555
Al3 Al5 3.013394 1_556
Al3 Lu0 3.149894 1_455
Al4 Os0 2.629845 1_556
Al4 Os1 2.629845 1_656
Al4 Al5 2.656386 1_556
Al4 Al8 2.704635 1_555
Al4 Lu0 3.094186 1_555
Al5 Os0 2.629845 1_565
Al5 Os1 2.629845 1_555
Al5 Al9 2.704635 1_555
Al5 Lu1 3.094186 1_555
Al6 Os3 2.629845 1_655
Al6 Os2 2.629845 1_555
Al6 Al7 2.656386 1_555
Al6 Al8 2.704635 1_555
Al6 Lu0 3.094186 1_555
Al7 Os3 2.629845 1_555
Al7 Os2 2.629845 1_565
Al7 Al9 2.704635 1_555
Al7 Lu1 3.094186 1_555
Al8 Os2 2.564361 1_555
Al8 Os0 2.564361 1_556
Al8 Lu0 3.097939 1_555
Al9 Os1 2.564361 1_555
Al9 Os3 2.564361 1_555
Al9 Lu1 3.097939 1_555
Al10 Os0 2.564361 1_565
Al10 Os2 2.564361 1_565
Al10 Al2 2.646041 1_565
Al10 Al17 2.690934 1_555
Al10 Al16 2.690934 1_555
Al10 Al7 2.704635 1_555
Al10 Al5 2.704635 1_555
Al10 Al14 2.880081 1_565
Al10 Al12 2.880081 1_565
Al10 Lu1 3.097939 1_555
Al11 Os1 2.564361 1_656
Al11 Os3 2.564361 1_655
Al11 Al3 2.646041 1_655
Al11 Al17 2.690934 1_555
Al11 Al16 2.690934 1_556
Al11 Al6 2.704635 1_555
Al11 Al4 2.704635 1_555
Al11 Al13 2.880081 1_655
Al11 Al15 2.880081 1_655
Al11 Lu0 3.097939 1_555
Al12 Al6 2.615286 1_555
Al12 Os3 2.619735 1_655
Al12 Os2 2.619735 1_555
Al12 Al14 2.704002 1_555
Al12 Al17 2.719234 1_545
Al12 Al19 2.719234 1_655
Al12 Al9 2.880081 1_655
Al12 Al2 2.895970 1_555
Al12 Lu0 3.181406 1_555
Al12 Lu1 3.203610 1_645
Al13 Al7 2.615286 1_555
Al13 Os3 2.619735 1_555
Al13 Os2 2.619735 1_565
Al13 Al15 2.704002 1_555
Al13 Al17 2.719234 1_455
Al13 Al19 2.719234 1_565
Al13 Al8 2.880081 1_565
Al13 Al3 2.895970 1_555
Al13 Lu1 3.181406 1_555
Al13 Lu0 3.203610 1_465
Al14 Al4 2.615286 1_554
Al14 Os0 2.619735 1_555
Al14 Os1 2.619735 1_655
Al14 Al16 2.719234 1_545
Al14 Al18 2.719234 1_655
Al14 Al9 2.880081 1_655
Al14 Al2 2.895970 1_555
Al14 Lu0 3.181406 1_554
Al14 Lu1 3.203610 1_645
Al15 Al5 2.615286 1_556
Al15 Os0 2.619735 1_566
Al15 Os1 2.619735 1_556
Al15 Al16 2.719234 1_456
Al15 Al18 2.719234 1_566
Al15 Al8 2.880081 1_565
Al15 Al3 2.895970 1_555
Al15 Lu1 3.181406 1_556
Al15 Lu0 3.203610 1_465
Al16 Os0 2.550837 1_565
Al16 Os1 2.550837 1_655
Al16 Al5 2.822797 1_555
Al16 Al4 2.822797 1_554
Al16 Lu1 3.315310 1_655
Al16 Lu0 3.315310 1_564
Al17 Os3 2.550837 1_655
Al17 Os2 2.550837 1_565
Al17 Al6 2.822797 1_555
Al17 Al7 2.822797 1_555
Al17 Lu1 3.315310 1_655
Al17 Lu0 3.315310 1_565
Al18 Os1 2.550837 1_555
Al18 Os0 2.550837 1_555
Al18 Al9 2.690934 1_555
Al18 Al8 2.690934 1_554
Al18 Al5 2.822797 1_555
Al18 Al4 2.822797 1_554
Al18 Al3 2.861158 1_554
Al18 Al2 2.861158 1_555
Al18 Lu1 3.315310 1_545
Al18 Lu0 3.315310 1_454
Al19 Os2 2.550837 1_555
Al19 Os3 2.550837 1_555
Al19 Al8 2.690934 1_555
Al19 Al9 2.690934 1_555
Al19 Al6 2.822797 1_555
Al19 Al7 2.822797 1_555
Al19 Al3 2.861158 1_555
Al19 Al2 2.861158 1_555
Al19 Lu1 3.315310 1_545
Al19 Lu0 3.315310 1_455
