# generated using pymatgen
data_Ca2SbMoO6
_symmetry_space_group_name_H-M   'P 1'
_cell_length_a   8.03674000
_cell_length_b   5.55375200
_cell_length_c   5.75111244
_cell_angle_alpha   89.90183889
_cell_angle_beta   90.00000000
_cell_angle_gamma   90.00000000
_symmetry_Int_Tables_number   1
_chemical_formula_structural   Ca2SbMoO6
_chemical_formula_sum   'Ca4 Sb2 Mo2 O12'
_cell_volume   256.69512588
_cell_formula_units_Z   2
loop_
 _symmetry_equiv_pos_site_id
 _symmetry_equiv_pos_as_xyz
  1  'x, y, z'
loop_
 _atom_site_type_symbol
 _atom_site_label
 _atom_site_symmetry_multiplicity
 _atom_site_fract_x
 _atom_site_fract_y
 _atom_site_fract_z
 _atom_site_occupancy
  Ca  Ca0  1  0.25000000  0.48502200  0.43364200  1
  Ca  Ca1  1  0.75000000  0.51497800  0.56635800  1
  Ca  Ca2  1  0.25000000  0.00671400  0.95230800  1
  Ca  Ca3  1  0.75000000  0.99328600  0.04769200  1
  Sb  Sb0  1  0.50000000  0.00000000  0.50000000  1
  Sb  Sb1  1  0.00000000  0.00000000  0.50000000  1
  Mo  Mo0  1  0.50000000  0.50000000  0.00000000  1
  Mo  Mo1  1  0.00000000  0.50000000  0.00000000  1
  O  O0  1  0.55324000  0.70536300  0.31607900  1
  O  O1  1  0.94542100  0.81917000  0.79083300  1
  O  O2  1  0.05324000  0.29463700  0.68392100  1
  O  O3  1  0.44542100  0.18083000  0.20916700  1
  O  O4  1  0.55457900  0.81917000  0.79083300  1
  O  O5  1  0.05457900  0.18083000  0.20916700  1
  O  O6  1  0.75000000  0.10445600  0.46045700  1
  O  O7  1  0.94676000  0.70536300  0.31607900  1
  O  O8  1  0.25000000  0.60954900  0.04438600  1
  O  O9  1  0.44676000  0.29463700  0.68392100  1
  O  O10  1  0.25000000  0.89554400  0.53954300  1
  O  O11  1  0.75000000  0.39045100  0.95561400  1
loop_
_geom_bond_atom_site_label_1
_geom_bond_atom_site_label_2
_geom_bond_distance
_geom_bond_site_symmetry_2
Ca0 O8 2.341916 1_555
Ca0 O10 2.360892 1_555
Ca0 O2 2.384353 1_555
Ca0 O9 2.384353 1_555
Ca0 O3 2.644772 1_555
Ca0 O5 2.644772 1_555
Ca0 O7 2.809102 1_455
Ca0 O0 2.809102 1_555
Ca1 O11 2.341916 1_555
Ca1 O6 2.360892 1_555
Ca1 O0 2.384353 1_555
Ca1 O7 2.384353 1_555
Ca1 O1 2.644772 1_555
Ca1 O4 2.644772 1_555
Ca1 O9 2.809102 1_555
Ca1 O2 2.809102 1_655
Ca2 O8 2.267550 1_546
Ca2 O3 2.364063 1_556
Ca2 O5 2.364063 1_556
Ca2 O10 2.453858 1_545
Ca2 O2 2.726081 1_555
Ca2 O9 2.726081 1_555
Ca2 O4 2.818232 1_545
Ca2 O1 2.818232 1_445
Ca3 O11 2.267550 1_564
Ca3 O1 2.364063 1_554
Ca3 O4 2.364063 1_554
Ca3 O6 2.453858 1_565
Ca3 O0 2.726081 1_555
Ca3 O7 2.726081 1_555
Ca3 O5 2.818232 1_665
Ca3 O3 2.818232 1_565
Mo0 O8 2.114871 1_555
Mo0 O11 2.114871 1_554
Mo0 O4 2.185005 1_554
Mo0 O3 2.185005 1_555
Mo0 O0 2.189845 1_555
Mo0 O9 2.189845 1_554
Mo1 O8 2.114871 1_555
Mo1 O11 2.114871 1_454
Mo1 O5 2.185005 1_555
Mo1 O1 2.185005 1_454
Mo1 O7 2.189845 1_455
Mo1 O2 2.189845 1_554
O0 Sb0 1.996361 1_565
O1 Sb1 1.998217 1_665
O2 Sb1 1.996361 1_555
O3 Sb0 1.998217 1_555
O4 Sb0 1.998217 1_565
O5 Sb1 1.998217 1_555
O6 Sb1 2.103481 1_655
O6 Sb0 2.103481 1_555
O7 Sb1 1.996361 1_665
O9 Sb0 1.996361 1_555
O10 Sb0 2.103481 1_565
O10 Sb1 2.103481 1_565
