# generated using pymatgen
data_KRb(InAu2)4
_symmetry_space_group_name_H-M   'P 1'
_cell_length_a   7.66537602
_cell_length_b   7.66537602
_cell_length_c   7.66537602
_cell_angle_alpha   106.96172895
_cell_angle_beta   106.96172895
_cell_angle_gamma   114.61597335
_symmetry_Int_Tables_number   1
_chemical_formula_structural   KRb(InAu2)4
_chemical_formula_sum   'K1 Rb1 In4 Au8'
_cell_volume   344.60387500
_cell_formula_units_Z   1
loop_
 _symmetry_equiv_pos_site_id
 _symmetry_equiv_pos_as_xyz
  1  'x, y, z'
loop_
 _atom_site_type_symbol
 _atom_site_label
 _atom_site_symmetry_multiplicity
 _atom_site_fract_x
 _atom_site_fract_y
 _atom_site_fract_z
 _atom_site_occupancy
  K  K0  1  0.00000000  0.00000000  0.00000000  1
  Rb  Rb0  1  0.50000000  0.50000000  0.00000000  1
  In  In0  1  0.89120300  0.39120300  0.78240600  1
  In  In1  1  0.60879700  0.10879700  0.21759400  1
  In  In2  1  0.10879700  0.89120300  0.50000000  1
  In  In3  1  0.39120300  0.60879700  0.50000000  1
  Au  Au0  1  0.56976400  0.06734600  0.80544100  1
  Au  Au1  1  0.26190500  0.76432200  0.19455900  1
  Au  Au2  1  0.76432200  0.56976400  0.50241800  1
  Au  Au3  1  0.06734600  0.26190500  0.49758200  1
  Au  Au4  1  0.93265400  0.43023600  0.19455900  1
  Au  Au5  1  0.23567800  0.73809500  0.80544100  1
  Au  Au6  1  0.73809500  0.93265400  0.50241800  1
  Au  Au7  1  0.43023600  0.23567800  0.49758200  1
loop_
_geom_bond_atom_site_label_1
_geom_bond_atom_site_label_2
_geom_bond_distance
_geom_bond_site_symmetry_2
Au0 Au5 2.746555 1_545
Au0 In0 2.771086 1_555
Au0 Au4 2.871255 1_556
Au0 In1 2.992536 1_556
Au0 In3 3.005106 1_545
Au0 In2 3.023960 1_545
Au0 Au6 3.096050 1_545
Au0 Au7 3.135515 1_555
Au0 K0 3.516352 1_656
Au0 Rb0 3.544853 1_556
Au1 Au4 2.746555 1_455
Au1 In1 2.771090 1_565
Au1 Au5 2.871259 1_554
Au1 In0 2.992534 1_454
Au1 In2 3.005108 1_555
Au1 In3 3.023954 1_555
Au1 Au7 3.096062 1_565
Au1 Au6 3.135507 1_555
Au1 K0 3.516358 1_565
Au1 Rb0 3.544848 1_555
Au2 Au7 2.746551 1_555
Au2 In2 2.771090 1_655
Au2 Au6 2.871251 1_555
Au2 In3 2.992528 1_555
Au2 In0 3.005108 1_555
Au2 In1 3.023962 1_555
Au2 Au5 3.096062 1_655
Au2 Au4 3.135515 1_555
Au2 K0 3.516350 1_666
Au2 Rb0 3.544852 1_555
Au3 Au6 2.746560 1_445
Au3 In3 2.771086 1_555
Au3 Au7 2.871251 1_555
Au3 In2 2.992536 1_545
Au3 In1 3.005106 1_455
Au3 In0 3.023960 1_455
Au3 Au4 3.096050 1_455
Au3 Au5 3.135507 1_555
Au3 K0 3.516352 1_555
Au3 Rb0 3.544853 1_556
Au4 In1 2.771086 1_555
Au4 In0 2.992536 1_554
Au4 In3 3.005106 1_655
Au4 In2 3.023960 1_655
Au4 K0 3.516352 1_655
Au4 Rb0 3.544853 1_555
Au5 In0 2.771090 1_455
Au5 In1 2.992534 1_566
Au5 In2 3.005108 1_555
Au5 In3 3.023954 1_555
Au5 K0 3.516358 1_566
Au5 Rb0 3.544848 1_556
Au6 In3 2.771086 1_555
Au6 In2 2.992536 1_655
Au6 In0 3.005106 1_565
Au6 In1 3.023960 1_565
Au6 K0 3.516352 1_666
Au6 Rb0 3.544853 1_555
Au7 In2 2.771090 1_545
Au7 In3 2.992528 1_555
Au7 In1 3.005108 1_555
Au7 In0 3.023962 1_555
Au7 K0 3.516350 1_555
Au7 Rb0 3.544852 1_556
