# generated using pymatgen
data_Sm4MgTi2Mn2O12
_symmetry_space_group_name_H-M   'P 1'
_cell_length_a   5.54761406
_cell_length_b   6.09958288
_cell_length_c   8.06463248
_cell_angle_alpha   87.83186343
_cell_angle_beta   92.04006097
_cell_angle_gamma   92.82992903
_symmetry_Int_Tables_number   1
_chemical_formula_structural   Sm4MgTi2Mn2O12
_chemical_formula_sum   'Sm4 Mg1 Ti2 Mn2 O12'
_cell_volume   272.20859159
_cell_formula_units_Z   1
loop_
 _symmetry_equiv_pos_site_id
 _symmetry_equiv_pos_as_xyz
  1  'x, y, z'
loop_
 _atom_site_type_symbol
 _atom_site_label
 _atom_site_symmetry_multiplicity
 _atom_site_fract_x
 _atom_site_fract_y
 _atom_site_fract_z
 _atom_site_occupancy
  Sm  Sm0  1  0.06316700  0.87564200  0.70053400  1
  Sm  Sm1  1  0.43607300  0.41962500  0.74496500  1
  Sm  Sm2  1  0.97909000  0.09551200  0.27047500  1
  Sm  Sm3  1  0.51307200  0.57226100  0.26834400  1
  Mg  Mg0  1  0.86957400  0.22565200  0.86823400  1
  Ti  Ti0  1  0.51368100  0.00356900  0.49328100  1
  Ti  Ti1  1  0.97132600  0.59440000  0.02487000  1
  Mn  Mn0  1  0.99493600  0.49331800  0.48692900  1
  Mn  Mn1  1  0.46715100  0.97785700  0.00803100  1
  O  O0  1  0.86826800  0.52719100  0.77208000  1
  O  O1  1  0.64628900  0.04941000  0.73523600  1
  O  O2  1  0.12394700  0.46929900  0.23660200  1
  O  O3  1  0.37300400  0.95356700  0.26632000  1
  O  O4  1  0.81126600  0.81690200  0.45172400  1
  O  O5  1  0.72104200  0.32907000  0.06453000  1
  O  O6  1  0.20568500  0.18824900  0.53975100  1
  O  O7  1  0.29610600  0.67024300  0.93176600  1
  O  O8  1  0.19424800  0.15436500  0.90012600  1
  O  O9  1  0.33079500  0.68203800  0.54964300  1
  O  O10  1  0.79505500  0.82384700  0.08905300  1
  O  O11  1  0.68872100  0.29673300  0.43083500  1
loop_
_geom_bond_atom_site_label_1
_geom_bond_atom_site_label_2
_geom_bond_distance
_geom_bond_site_symmetry_2
Mg0 O8 1.880242 1_655
Mg0 O1 1.923954 1_555
Mg0 O5 1.950053 1_556
Mg0 O0 1.969075 1_555
Mn0 O11 2.076883 1_555
Mn0 O2 2.178263 1_655
Mn0 O9 2.194906 1_655
Mn0 O6 2.265022 1_655
Mn0 O4 2.269364 1_555
Mn0 O0 2.447479 1_555
Mn1 O8 2.050544 1_564
Mn1 O10 2.157812 1_555
Mn1 O7 2.160835 1_554
Mn1 O3 2.163358 1_555
Mn1 O1 2.461349 1_564
Mn1 O5 2.551651 1_565
O0 Ti1 2.146664 1_556
O0 Sm0 2.396670 1_655
O0 Sm1 2.458703 1_555
O1 Ti0 2.084618 1_555
O1 Sm1 2.597191 1_555
O1 Sm0 2.619309 1_645
O2 Ti1 2.019185 1_455
O2 Sm3 2.226870 1_555
O2 Sm2 2.388755 1_455
O3 Ti0 1.992315 1_565
O3 Sm2 2.391743 1_465
O3 Sm3 2.487593 1_555
O4 Ti0 2.094757 1_565
O4 Sm2 2.375726 1_565
O4 Sm0 2.431634 1_655
O4 Sm3 2.626680 1_555
O5 Ti1 2.102371 1_555
O5 Sm2 2.586581 1_555
O5 Sm3 2.592618 1_555
O6 Ti0 2.143929 1_555
O6 Sm0 2.383119 1_545
O6 Sm1 2.492443 1_555
O6 Sm2 2.538591 1_455
O7 Ti1 2.002956 1_456
O7 Sm1 2.363042 1_555
O7 Sm0 2.555104 1_555
O7 Sm3 2.981521 1_556
O8 Sm1 2.394869 1_555
O8 Sm0 2.451876 1_545
O9 Ti0 2.202546 1_565
O9 Sm1 2.284808 1_555
O9 Sm0 2.343105 1_555
O9 Sm3 2.638641 1_555
O10 Ti1 1.846308 1_555
O10 Sm2 2.416371 1_565
O10 Sm3 2.578532 1_555
O11 Ti0 2.046794 1_555
O11 Sm3 2.322787 1_555
O11 Sm2 2.497479 1_555
