# generated using pymatgen
data_Cu12As4S13
_symmetry_space_group_name_H-M   'P 1'
_cell_length_a   8.77392900
_cell_length_b   8.78224643
_cell_length_c   8.87073282
_cell_angle_alpha   109.49180407
_cell_angle_beta   109.47655788
_cell_angle_gamma   108.99054206
_symmetry_Int_Tables_number   1
_chemical_formula_structural   Cu12As4S13
_chemical_formula_sum   'Cu12 As4 S13'
_cell_volume   529.10631943
_cell_formula_units_Z   1
loop_
 _symmetry_equiv_pos_site_id
 _symmetry_equiv_pos_as_xyz
  1  'x, y, z'
loop_
 _atom_site_type_symbol
 _atom_site_label
 _atom_site_symmetry_multiplicity
 _atom_site_fract_x
 _atom_site_fract_y
 _atom_site_fract_z
 _atom_site_occupancy
  Cu  Cu0  1  0.75009900  0.49951600  0.24896200  1
  Cu  Cu1  1  0.74977200  0.25064600  0.49931500  1
  Cu  Cu2  1  0.49960900  0.24981100  0.74982900  1
  Cu  Cu3  1  0.25124300  0.75087500  0.50146700  1
  Cu  Cu4  1  0.24836000  0.49895900  0.75017500  1
  Cu  Cu5  1  0.49966600  0.74979200  0.24996000  1
  Cu  Cu6  1  0.20187700  0.96242700  0.20271400  1
  Cu  Cu7  1  0.75873600  0.79815000  0.00182700  1
  Cu  Cu8  1  0.04371200  0.24229200  0.24132900  1
  Cu  Cu9  1  0.79918900  0.99424900  0.75572100  1
  Cu  Cu10  1  0.23750600  0.24070100  0.04134700  1
  Cu  Cu11  1  0.99791900  0.80096400  0.75720500  1
  As  As0  1  0.99733000  0.99754500  0.52467200  1
  As  As1  1  0.00261300  0.52840600  0.00274500  1
  As  As2  1  0.47255900  0.47509500  0.47284000  1
  As  As3  1  0.52534200  0.99675600  0.99985900  1
  S  S0  1  0.47925000  0.99926200  0.24051500  1
  S  S1  1  0.52089100  0.52329100  0.76153700  1
  S  S2  1  0.00365500  0.48199000  0.24294900  1
  S  S3  1  0.52118800  0.76229100  0.51814100  1
  S  S4  1  0.48003200  0.24138400  0.00181400  1
  S  S5  1  0.00272500  0.24225000  0.47976700  1
  S  S6  1  0.76253500  0.23893800  0.75927200  1
  S  S7  1  0.75827600  0.75988000  0.23813300  1
  S  S8  1  0.23811500  0.76039000  0.75820000  1
  S  S9  1  0.24076700  0.99921600  0.47874800  1
  S  S10  1  0.24346000  0.48162800  0.00196000  1
  S  S11  1  0.76174500  0.52218200  0.51849900  1
  S  S12  1  0.99823100  0.99751100  0.00049900  1
loop_
_geom_bond_atom_site_label_1
_geom_bond_atom_site_label_2
_geom_bond_distance
_geom_bond_site_symmetry_2
Cu0 S2 2.296139 1_655
Cu0 S11 2.296329 1_555
Cu0 S4 2.298582 1_555
Cu0 S7 2.299400 1_555
Cu1 S11 2.298040 1_555
Cu1 S5 2.305605 1_655
Cu1 S6 2.309614 1_555
Cu1 S0 2.313391 1_545
Cu2 S1 2.311465 1_555
Cu2 S9 2.314591 1_545
Cu2 S6 2.314679 1_555
Cu2 S4 2.321566 1_556
Cu3 S9 2.284126 1_555
Cu3 S3 2.289884 1_555
Cu3 S8 2.293695 1_555
Cu3 S2 2.297783 1_555
Cu4 S5 2.294089 1_555
Cu4 S1 2.294748 1_555
Cu4 S10 2.302228 1_556
Cu4 S8 2.305223 1_555
Cu5 S7 2.280669 1_555
Cu5 S0 2.281905 1_555
Cu5 S3 2.284698 1_555
Cu5 S10 2.288791 1_555
Cu6 S0 2.238481 1_555
Cu6 S9 2.249381 1_555
Cu6 S12 2.257220 1_455
Cu7 S7 2.232036 1_555
Cu7 S1 2.246514 1_554
Cu7 S12 2.262065 1_555
Cu8 S2 2.240493 1_555
Cu8 S5 2.260689 1_555
Cu8 S12 2.270003 1_445
Cu9 S3 2.239214 1_555
Cu9 S6 2.265752 1_565
Cu9 S12 2.272162 1_556
Cu10 S10 2.243955 1_555
Cu10 S4 2.267535 1_555
Cu10 S12 2.271184 1_445
Cu11 S8 2.246527 1_655
Cu11 S11 2.254869 1_555
Cu11 S12 2.268092 1_556
As0 S7 2.296033 1_555
As0 S9 2.300448 1_655
As0 S5 2.301527 1_665
As1 S10 2.281935 1_555
As1 S2 2.296863 1_555
As1 S6 2.319790 1_454
As2 S3 2.283427 1_555
As2 S11 2.300649 1_555
As2 S1 2.313672 1_555
As3 S0 2.295980 1_556
As3 S8 2.297523 1_555
As3 S4 2.304232 1_566
As3 Cu7 3.091446 1_556
