# generated using pymatgen
data_Re8Pb8O27
_symmetry_space_group_name_H-M   'P 1'
_cell_length_a   7.48119700
_cell_length_b   7.48119700
_cell_length_c   10.65285200
_cell_angle_alpha   90.00000000
_cell_angle_beta   90.00000000
_cell_angle_gamma   90.00000000
_symmetry_Int_Tables_number   1
_chemical_formula_structural   Re8Pb8O27
_chemical_formula_sum   'Re8 Pb8 O27'
_cell_volume   596.22210770
_cell_formula_units_Z   1
loop_
 _symmetry_equiv_pos_site_id
 _symmetry_equiv_pos_as_xyz
  1  'x, y, z'
loop_
 _atom_site_type_symbol
 _atom_site_label
 _atom_site_symmetry_multiplicity
 _atom_site_fract_x
 _atom_site_fract_y
 _atom_site_fract_z
 _atom_site_occupancy
  Re  Re0  1  0.74884100  0.50000000  0.87507900  1
  Re  Re1  1  0.24880000  0.00000000  0.37286600  1
  Re  Re2  1  0.75120000  0.00000000  0.37286600  1
  Re  Re3  1  0.25115900  0.50000000  0.87507900  1
  Re  Re4  1  0.50000000  0.25115900  0.12492100  1
  Re  Re5  1  0.00000000  0.75120000  0.62713400  1
  Re  Re6  1  0.50000000  0.74884100  0.12492100  1
  Re  Re7  1  0.00000000  0.24880000  0.62713400  1
  Pb  Pb0  1  0.25279000  0.00000000  0.87582000  1
  Pb  Pb1  1  0.74896500  0.50000000  0.38444700  1
  Pb  Pb2  1  0.25103500  0.50000000  0.38444700  1
  Pb  Pb3  1  0.74721000  0.00000000  0.87582000  1
  Pb  Pb4  1  0.00000000  0.74721000  0.12418000  1
  Pb  Pb5  1  0.50000000  0.25103500  0.61555300  1
  Pb  Pb6  1  0.50000000  0.74896500  0.61555300  1
  Pb  Pb7  1  0.00000000  0.25279000  0.12418000  1
  O  O0  1  0.50000000  0.50000000  0.81234400  1
  O  O1  1  0.00000000  0.00000000  0.31173000  1
  O  O2  1  0.50000000  0.50000000  0.18765600  1
  O  O3  1  0.00000000  0.00000000  0.68827000  1
  O  O4  1  0.68851000  0.31149000  0.00000000  1
  O  O5  1  0.19059500  0.80940500  0.50000000  1
  O  O6  1  0.31149000  0.68851000  0.00000000  1
  O  O7  1  0.80940500  0.19059500  0.50000000  1
  O  O8  1  0.31149000  0.31149000  0.00000000  1
  O  O9  1  0.80940500  0.80940500  0.50000000  1
  O  O10  1  0.68851000  0.68851000  0.00000000  1
  O  O11  1  0.19059500  0.19059500  0.50000000  1
  O  O12  1  0.50000000  0.00000000  0.44315900  1
  O  O13  1  0.00000000  0.50000000  0.93782800  1
  O  O14  1  0.50000000  0.00000000  0.06217200  1
  O  O15  1  0.00000000  0.50000000  0.55684100  1
  O  O16  1  0.31196300  0.18969800  0.25119200  1
  O  O17  1  0.81030200  0.68803700  0.74880800  1
  O  O18  1  0.68803700  0.81030200  0.25119200  1
  O  O19  1  0.18969800  0.31196300  0.74880800  1
  O  O20  1  0.68803700  0.18969800  0.25119200  1
  O  O21  1  0.18969800  0.68803700  0.74880800  1
  O  O22  1  0.31196300  0.81030200  0.25119200  1
  O  O23  1  0.81030200  0.31196300  0.74880800  1
  O  O24  1  0.00000000  0.00000000  0.00000000  1
  O  O25  1  0.50000000  0.00000000  0.71901800  1
  O  O26  1  0.00000000  0.50000000  0.28098200  1
loop_
_geom_bond_atom_site_label_1
_geom_bond_atom_site_label_2
_geom_bond_distance
_geom_bond_site_symmetry_2
O0 Re3 1.977952 1_555
O0 Re0 1.977952 1_555
O0 Pb5 2.804273 1_555
O0 Pb6 2.804273 1_555
O1 Re1 1.971972 1_555
O1 Re2 1.971972 1_455
O1 Pb4 2.751055 1_545
O1 Pb7 2.751055 1_555
O2 Re4 1.977952 1_555
O2 Re6 1.977952 1_555
O2 Pb2 2.804273 1_555
O2 Pb1 2.804273 1_555
O3 Re7 1.971972 1_555
O3 Re5 1.971972 1_545
O3 Pb0 2.751055 1_555
O3 Pb3 2.751055 1_455
O4 Re0 1.990864 1_554
O4 Re4 1.990864 1_555
O4 Pb7 2.715367 1_655
O4 Pb3 2.715367 1_554
O5 Re5 2.014194 1_555
O5 Re1 2.014194 1_565
O5 Pb6 2.660388 1_555
O5 Pb2 2.660388 1_555
O6 Re3 1.990864 1_554
O6 Re6 1.990864 1_555
O6 Pb0 2.715367 1_564
O6 Pb4 2.715367 1_555
O7 Re7 2.014194 1_655
O7 Re2 2.014194 1_555
O7 Pb5 2.660388 1_555
O7 Pb1 2.660388 1_555
O8 Re3 1.990864 1_554
O8 Re4 1.990864 1_555
O8 Pb0 2.715367 1_554
O8 Pb7 2.715367 1_555
O9 Re5 2.014194 1_655
O9 Re2 2.014194 1_565
O9 Pb6 2.660388 1_555
O9 Pb1 2.660388 1_555
O10 Re0 1.990864 1_554
O10 Re6 1.990864 1_555
O10 Pb3 2.715367 1_564
O10 Pb4 2.715367 1_655
O11 Re7 2.014194 1_555
O11 Re1 2.014194 1_555
O11 Pb5 2.660388 1_555
O11 Pb2 2.660388 1_555
O12 Re2 2.022971 1_555
O12 Re1 2.022971 1_555
O12 Pb5 2.626734 1_555
O12 Pb6 2.626734 1_545
O13 Re0 1.994332 1_455
O13 Re3 1.994332 1_555
O13 Pb4 2.713175 1_556
O13 Pb7 2.713175 1_556
O14 Re6 1.994332 1_545
O14 Re4 1.994332 1_555
O14 Pb0 2.713175 1_554
O14 Pb3 2.713175 1_554
O15 Re5 2.022971 1_555
O15 Re7 2.022971 1_555
O15 Pb1 2.626734 1_455
O15 Pb2 2.626734 1_555
O16 Re1 1.979242 1_555
O16 Re4 1.999940 1_555
O16 Pb7 2.738684 1_555
O16 Pb2 2.758970 1_555
O17 Re5 1.979242 1_655
O17 Re0 1.999940 1_555
O17 Pb3 2.738684 1_565
O17 Pb6 2.758970 1_555
O18 Re2 1.979242 1_565
O18 Re6 1.999940 1_555
O18 Pb4 2.738684 1_655
O18 Pb1 2.758970 1_555
O19 Re7 1.979242 1_555
O19 Re3 1.999940 1_555
O19 Pb0 2.738684 1_555
O19 Pb5 2.758970 1_555
O20 Re2 1.979242 1_555
O20 Re4 1.999940 1_555
O20 Pb7 2.738684 1_655
O20 Pb1 2.758970 1_555
O21 Re5 1.979242 1_555
O21 Re3 1.999940 1_555
O21 Pb0 2.738684 1_565
O21 Pb6 2.758970 1_555
O22 Re1 1.979242 1_565
O22 Re6 1.999940 1_555
O22 Pb4 2.738684 1_555
O22 Pb2 2.758970 1_555
O23 Re7 1.979242 1_655
O23 Re0 1.999940 1_555
O23 Pb3 2.738684 1_555
O23 Pb5 2.758970 1_555
O24 Pb3 2.307925 1_454
O24 Pb0 2.307925 1_554
O24 Pb4 2.307925 1_545
O24 Pb7 2.307925 1_555
O25 Pb6 2.177586 1_545
O25 Pb5 2.177586 1_555
O25 Pb0 2.492103 1_555
O25 Pb3 2.492103 1_555
O26 Pb1 2.177586 1_455
O26 Pb2 2.177586 1_555
O26 Pb7 2.492103 1_555
O26 Pb4 2.492103 1_555
