# generated using pymatgen
data_Sm2MgNi2
_symmetry_space_group_name_H-M   'P 1'
_cell_length_a   7.43930059
_cell_length_b   7.43930059
_cell_length_c   3.78338669
_cell_angle_alpha   90.00000000
_cell_angle_beta   90.00000000
_cell_angle_gamma   89.98448663
_symmetry_Int_Tables_number   1
_chemical_formula_structural   Sm2MgNi2
_chemical_formula_sum   'Sm4 Mg2 Ni4'
_cell_volume   209.38469302
_cell_formula_units_Z   2
loop_
 _symmetry_equiv_pos_site_id
 _symmetry_equiv_pos_as_xyz
  1  'x, y, z'
loop_
 _atom_site_type_symbol
 _atom_site_label
 _atom_site_symmetry_multiplicity
 _atom_site_fract_x
 _atom_site_fract_y
 _atom_site_fract_z
 _atom_site_occupancy
  Sm  Sm0  1  0.67399444  0.17399444  0.50000000  1
  Sm  Sm1  1  0.32600556  0.82600556  0.50000000  1
  Sm  Sm2  1  0.17420936  0.32579064  0.50000000  1
  Sm  Sm3  1  0.82579064  0.67420936  0.50000000  1
  Mg  Mg0  1  0.00000000  -0.00000000  0.00000000  1
  Mg  Mg1  1  0.50000000  0.50000000  0.00000000  1
  Ni  Ni0  1  0.11721383  0.61721383  -0.00000000  1
  Ni  Ni1  1  0.88278617  0.38278617  -0.00000000  1
  Ni  Ni2  1  0.61732717  0.88267283  0.00000000  1
  Ni  Ni3  1  0.38267283  0.11732717  0.00000000  1
loop_
_geom_bond_atom_site_label_1
_geom_bond_atom_site_label_2
_geom_bond_distance
_geom_bond_site_symmetry_2
Mg0 Ni2 2.977844 1_445
Mg0 Ni3 2.977844 1_555
Mg0 Ni1 2.977952 1_455
Mg0 Ni0 2.977952 1_545
Mg0 Sm2 3.336752 1_555
Mg0 Sm3 3.336752 1_444
Mg0 Sm3 3.336752 1_445
Mg0 Sm2 3.336752 1_554
Mg0 Sm1 3.336783 1_544
Mg0 Sm1 3.336783 1_545
Mg0 Sm0 3.336783 1_454
Mg0 Sm0 3.336783 1_455
Mg1 Ni2 2.977844 1_555
Mg1 Ni3 2.977844 1_555
Mg1 Ni0 2.977952 1_555
Mg1 Ni1 2.977952 1_555
Mg1 Sm2 3.336752 1_555
Mg1 Sm3 3.336752 1_554
Mg1 Sm3 3.336752 1_555
Mg1 Sm2 3.336752 1_554
Mg1 Sm1 3.336783 1_555
Mg1 Sm0 3.336783 1_555
Mg1 Sm1 3.336783 1_554
Mg1 Sm0 3.336783 1_554
Ni0 Ni1 2.466691 1_455
Ni0 Sm1 2.899150 1_554
Ni0 Sm1 2.899150 1_555
Ni0 Sm2 2.908255 1_555
Ni0 Sm2 2.908255 1_554
Ni0 Sm3 2.908255 1_455
Ni0 Sm3 2.908255 1_454
Ni1 Sm0 2.899150 1_554
Ni1 Sm0 2.899150 1_555
Ni1 Sm2 2.908255 1_655
Ni1 Sm3 2.908255 1_554
Ni1 Sm3 2.908255 1_555
Ni1 Sm2 2.908255 1_654
Ni2 Ni3 2.468408 1_565
Ni2 Sm3 2.896084 1_555
Ni2 Sm3 2.896084 1_554
Ni2 Sm1 2.907507 1_555
Ni2 Sm0 2.907507 1_565
Ni2 Sm0 2.907507 1_564
Ni2 Sm1 2.907507 1_554
Ni3 Sm2 2.896084 1_555
Ni3 Sm2 2.896084 1_554
Ni3 Sm0 2.907507 1_554
Ni3 Sm1 2.907507 1_544
Ni3 Sm1 2.907507 1_545
Ni3 Sm0 2.907507 1_555
