# generated using pymatgen
data_Ag5HgSbO6
_symmetry_space_group_name_H-M   'P 1'
_cell_length_a   6.04307571
_cell_length_b   6.04307571
_cell_length_c   12.55737500
_cell_angle_alpha   90.00000000
_cell_angle_beta   90.00000000
_cell_angle_gamma   119.99999684
_symmetry_Int_Tables_number   1
_chemical_formula_structural   Ag5HgSbO6
_chemical_formula_sum   'Ag10 Hg2 Sb2 O12'
_cell_volume   397.14178191
_cell_formula_units_Z   2
loop_
 _symmetry_equiv_pos_site_id
 _symmetry_equiv_pos_as_xyz
  1  'x, y, z'
loop_
 _atom_site_type_symbol
 _atom_site_label
 _atom_site_symmetry_multiplicity
 _atom_site_fract_x
 _atom_site_fract_y
 _atom_site_fract_z
 _atom_site_occupancy
  Ag  Ag0  1  0.00000000  0.00000000  0.87832000  1
  Ag  Ag1  1  0.00000000  0.00000000  0.37832000  1
  Ag  Ag2  1  0.00000000  0.00000000  0.12168000  1
  Ag  Ag3  1  0.00000000  0.00000000  0.62168000  1
  Ag  Ag4  1  0.50000000  0.50000000  0.00000000  1
  Ag  Ag5  1  0.00000000  0.50000000  0.00000000  1
  Ag  Ag6  1  0.50000000  0.00000000  0.00000000  1
  Ag  Ag7  1  0.00000000  0.50000000  0.50000000  1
  Ag  Ag8  1  0.50000000  0.00000000  0.50000000  1
  Ag  Ag9  1  0.50000000  0.50000000  0.50000000  1
  Hg  Hg0  1  0.66666700  0.33333300  0.75000000  1
  Hg  Hg1  1  0.33333300  0.66666700  0.25000000  1
  Sb  Sb0  1  0.33333300  0.66666700  0.75000000  1
  Sb  Sb1  1  0.66666700  0.33333300  0.25000000  1
  O  O0  1  0.60488300  0.65121000  0.84213800  1
  O  O1  1  0.04632700  0.39511700  0.84213800  1
  O  O2  1  0.34879000  0.95367300  0.84213800  1
  O  O3  1  0.95367300  0.34879000  0.34213800  1
  O  O4  1  0.39511700  0.04632700  0.34213800  1
  O  O5  1  0.65121000  0.60488300  0.34213800  1
  O  O6  1  0.39511700  0.34879000  0.15786200  1
  O  O7  1  0.95367300  0.60488300  0.15786200  1
  O  O8  1  0.65121000  0.04632700  0.15786200  1
  O  O9  1  0.04632700  0.65121000  0.65786200  1
  O  O10  1  0.60488300  0.95367300  0.65786200  1
  O  O11  1  0.34879000  0.39511700  0.65786200  1
loop_
_geom_bond_atom_site_label_1
_geom_bond_atom_site_label_2
_geom_bond_distance
_geom_bond_site_symmetry_2
Ag0 O2 2.305985 1_545
Ag0 O1 2.305985 1_555
Ag0 O0 2.305985 1_445
Ag1 O3 2.305985 1_455
Ag1 O4 2.305985 1_555
Ag1 O5 2.305985 1_445
Ag2 O8 2.305985 1_455
Ag2 O7 2.305985 1_445
Ag2 O6 2.305985 1_555
Ag3 O9 2.305985 1_545
Ag3 O10 2.305985 1_445
Ag3 O11 2.305985 1_555
Ag4 O6 2.141771 1_555
Ag4 O0 2.141771 1_554
Ag5 O7 2.141771 1_455
Ag5 O1 2.141771 1_554
Ag6 O8 2.141771 1_555
Ag6 O2 2.141771 1_544
Ag7 O9 2.141771 1_555
Ag7 O3 2.141771 1_455
Ag8 O10 2.141771 1_545
Ag8 O4 2.141771 1_555
Ag9 O11 2.141771 1_555
Ag9 O5 2.141771 1_555
Hg0 O1 2.425971 1_655
Hg0 O10 2.425971 1_545
Hg0 O2 2.425973 1_545
Hg0 O9 2.425973 1_655
Hg0 O0 2.425977 1_555
Hg0 O11 2.425977 1_555
Hg1 O4 2.425971 1_565
Hg1 O7 2.425971 1_455
Hg1 O3 2.425973 1_455
Hg1 O8 2.425973 1_565
Hg1 O6 2.425977 1_555
Hg1 O5 2.425977 1_555
O0 Sb0 2.047817 1_555
O1 Sb0 2.047814 1_555
O2 Sb0 2.047812 1_555
O3 Sb1 2.047812 1_555
O4 Sb1 2.047814 1_555
O5 Sb1 2.047817 1_555
O6 Sb1 2.047817 1_555
O7 Sb1 2.047814 1_555
O8 Sb1 2.047812 1_555
O9 Sb0 2.047812 1_555
O10 Sb0 2.047814 1_555
O11 Sb0 2.047817 1_555
