# generated using pymatgen
data_FeC4N2O9
_symmetry_space_group_name_H-M   'P 1'
_cell_length_a   10.27028135
_cell_length_b   10.27028135
_cell_length_c   7.69563276
_cell_angle_alpha   89.76922665
_cell_angle_beta   89.76922665
_cell_angle_gamma   59.43512233
_symmetry_Int_Tables_number   1
_chemical_formula_structural   FeC4N2O9
_chemical_formula_sum   'Fe3 C12 N6 O27'
_cell_volume   698.93162017
_cell_formula_units_Z   3
loop_
 _symmetry_equiv_pos_site_id
 _symmetry_equiv_pos_as_xyz
  1  'x, y, z'
loop_
 _atom_site_type_symbol
 _atom_site_label
 _atom_site_symmetry_multiplicity
 _atom_site_fract_x
 _atom_site_fract_y
 _atom_site_fract_z
 _atom_site_occupancy
  Fe  Fe0  1  0.61786200  0.38213800  0.00000000  1
  Fe  Fe1  1  0.38339200  0.99774600  0.97168800  1
  Fe  Fe2  1  0.00225400  0.61660800  0.02831200  1
  C  C0  1  0.65880600  0.40058900  0.40009000  1
  C  C1  1  0.40609900  0.95689900  0.40776000  1
  C  C2  1  0.95686900  0.65204200  0.41731000  1
  C  C3  1  0.59941100  0.34119400  0.59991000  1
  C  C4  1  0.34795800  0.04313100  0.58269000  1
  C  C5  1  0.04310100  0.59390100  0.59224000  1
  C  C6  1  0.30213500  0.61055300  0.99932400  1
  C  C7  1  0.60558400  0.08823600  0.98939500  1
  C  C8  1  0.08865900  0.30363300  0.99652000  1
  C  C9  1  0.38944700  0.69786500  0.00067600  1
  C  C10  1  0.69636700  0.91134100  0.00348000  1
  C  C11  1  0.91176400  0.39441600  0.01060500  1
  N  N0  1  0.58474400  0.71676600  0.30355200  1
  N  N1  1  0.28323400  0.41525600  0.69644800  1
  N  N2  1  0.35005100  0.31722400  0.27930000  1
  N  N3  1  0.68277600  0.64994900  0.72070000  1
  N  N4  1  0.99819100  0.00014500  0.25434400  1
  N  N5  1  0.99985500  0.00180900  0.74565600  1
  O  O0  1  0.61010100  0.37046900  0.26740000  1
  O  O1  1  0.37704100  0.01339700  0.26412300  1
  O  O2  1  0.03995600  0.59666000  0.28012700  1
  O  O3  1  0.62953100  0.38989900  0.73260000  1
  O  O4  1  0.40334000  0.96004400  0.71987300  1
  O  O5  1  0.98660300  0.62295900  0.73587700  1
  O  O6  1  0.72826000  0.46227500  0.44105800  1
  O  O7  1  0.50751500  0.79846500  0.43427500  1
  O  O8  1  0.81990400  0.74089400  0.42853500  1
  O  O9  1  0.53772500  0.27174000  0.55894200  1
  O  O10  1  0.25910600  0.18009600  0.57146500  1
  O  O11  1  0.20153500  0.49248500  0.56572500  1
  O  O12  1  0.38925400  0.46804900  0.00055800  1
  O  O13  1  0.46390000  0.14317800  0.97455200  1
  O  O14  1  0.14481700  0.38871500  0.99608800  1
  O  O15  1  0.53195100  0.61074600  0.99944200  1
  O  O16  1  0.61128500  0.85518300  0.00391200  1
  O  O17  1  0.85682200  0.53610000  0.02544800  1
  O  O18  1  0.15943800  0.68105000  0.99556800  1
  O  O19  1  0.67364500  0.16161100  0.99309100  1
  O  O20  1  0.16110200  0.16095500  0.98770700  1
  O  O21  1  0.31895000  0.84056200  0.00443200  1
  O  O22  1  0.83904500  0.83889800  0.01229300  1
  O  O23  1  0.83838900  0.32635500  0.00690900  1
  O  O24  1  0.75469700  0.99770200  0.49964200  1
  O  O25  1  0.00229800  0.24530300  0.50035800  1
  O  O26  1  0.24523200  0.75476800  0.50000000  1
loop_
_geom_bond_atom_site_label_1
_geom_bond_atom_site_label_2
_geom_bond_distance
_geom_bond_site_symmetry_2
Fe0 O23 2.035135 1_555
Fe0 O19 2.035135 1_554
Fe0 O12 2.045505 1_555
Fe0 O15 2.045505 1_554
Fe0 O3 2.064392 1_554
Fe0 O0 2.064392 1_555
Fe1 O4 1.967088 1_555
Fe1 O20 2.035768 1_565
Fe1 O13 2.042426 1_565
Fe1 O21 2.046841 1_556
Fe1 O16 2.049345 1_556
Fe1 O1 2.255169 1_566
Fe2 O2 1.967088 1_555
Fe2 O22 2.035768 1_455
Fe2 O17 2.042426 1_455
Fe2 O18 2.046841 1_554
Fe2 O14 2.049345 1_554
Fe2 O5 2.255169 1_454
C0 O6 1.213506 1_555
C0 O0 1.246054 1_555
C1 O1 1.212018 1_565
C1 O7 1.431620 1_555
C2 O8 1.230067 1_555
C2 O2 1.292348 1_655
C3 O9 1.213506 1_555
C3 O3 1.246054 1_555
C4 O10 1.230067 1_555
C4 O4 1.292348 1_545
C5 O5 1.212018 1_455
C5 O11 1.431620 1_555
C6 O18 1.262485 1_555
C6 O12 1.269174 1_556
C7 O19 1.262285 1_555
C7 O13 1.270675 1_555
C8 O20 1.263717 1_555
C8 O14 1.268361 1_555
C9 O21 1.262485 1_555
C9 O15 1.269174 1_554
C10 O22 1.263717 1_555
C10 O16 1.268361 1_555
C11 O23 1.262285 1_555
C11 O17 1.270675 1_555
N0 O7 1.291781 1_555
N1 O11 1.291781 1_555
