# generated using pymatgen
data_Ba2PaInO6
_symmetry_space_group_name_H-M   'P 1'
_cell_length_a   6.17055460
_cell_length_b   6.17055460
_cell_length_c   6.17055460
_cell_angle_alpha   60.00000000
_cell_angle_beta   60.00000000
_cell_angle_gamma   60.00000000
_symmetry_Int_Tables_number   1
_chemical_formula_structural   Ba2PaInO6
_chemical_formula_sum   'Ba2 Pa1 In1 O6'
_cell_volume   166.13364754
_cell_formula_units_Z   1
loop_
 _symmetry_equiv_pos_site_id
 _symmetry_equiv_pos_as_xyz
  1  'x, y, z'
loop_
 _atom_site_type_symbol
 _atom_site_label
 _atom_site_symmetry_multiplicity
 _atom_site_fract_x
 _atom_site_fract_y
 _atom_site_fract_z
 _atom_site_occupancy
  Ba  Ba0  1  0.75000000  0.75000000  0.75000000  1
  Ba  Ba1  1  0.25000000  0.25000000  0.25000000  1
  Pa  Pa0  1  0.00000000  0.00000000  0.00000000  1
  In  In0  1  0.50000000  0.50000000  0.50000000  1
  O  O0  1  0.75097200  0.75097200  0.24902800  1
  O  O1  1  0.24902800  0.24902800  0.75097200  1
  O  O2  1  0.75097200  0.24902800  0.75097200  1
  O  O3  1  0.24902800  0.75097200  0.24902800  1
  O  O4  1  0.24902800  0.75097200  0.75097200  1
  O  O5  1  0.75097200  0.24902800  0.24902800  1
loop_
_geom_bond_atom_site_label_1
_geom_bond_atom_site_label_2
_geom_bond_distance
_geom_bond_site_symmetry_2
Ba0 O3 3.085289 1_655
Ba0 O1 3.085289 1_655
Ba0 O0 3.085289 1_555
Ba0 O1 3.085289 1_565
Ba0 O2 3.085289 1_555
Ba0 O2 3.085289 1_565
Ba0 O0 3.085289 1_556
Ba0 O3 3.085289 1_556
Ba0 O4 3.085289 1_555
Ba0 O4 3.085289 1_655
Ba0 O5 3.085289 1_556
Ba0 O5 3.085289 1_565
Ba1 O3 3.085289 1_555
Ba1 O5 3.085289 1_555
Ba1 O2 3.085289 1_554
Ba1 O0 3.085289 1_545
Ba1 O0 3.085289 1_455
Ba1 O1 3.085289 1_555
Ba1 O1 3.085289 1_554
Ba1 O4 3.085289 1_554
Ba1 O2 3.085289 1_455
Ba1 O4 3.085289 1_545
Ba1 O3 3.085289 1_545
Ba1 O5 3.085289 1_455
In0 O3 2.190103 1_555
In0 O0 2.190103 1_555
In0 O2 2.190103 1_555
In0 O4 2.190103 1_555
In0 O1 2.190103 1_555
In0 O5 2.190103 1_555
O0 Pa0 2.173138 1_665
O1 Pa0 2.173138 1_556
O2 Pa0 2.173138 1_656
O3 Pa0 2.173138 1_565
O4 Pa0 2.173138 1_566
O5 Pa0 2.173138 1_655
