# generated using pymatgen
data_CeEr
_symmetry_space_group_name_H-M   'P 1'
_cell_length_a   33.71202815
_cell_length_b   33.71202815
_cell_length_c   33.71202724
_cell_angle_alpha   12.07424410
_cell_angle_beta   12.07424410
_cell_angle_gamma   12.07424344
_symmetry_Int_Tables_number   1
_chemical_formula_structural   CeEr
_chemical_formula_sum   'Ce24 Er24'
_cell_volume   1457.22170406
_cell_formula_units_Z   24
loop_
 _symmetry_equiv_pos_site_id
 _symmetry_equiv_pos_as_xyz
  1  'x, y, z'
loop_
 _atom_site_type_symbol
 _atom_site_label
 _atom_site_symmetry_multiplicity
 _atom_site_fract_x
 _atom_site_fract_y
 _atom_site_fract_z
 _atom_site_occupancy
  Ce  Ce0_0  1  0.49983700  0.49983700  0.49983700  1
  Ce  Ce0_1  1  0.49983700  0.49983700  0.99983700  1
  Ce  Ce0_2  1  0.49983700  0.99983700  0.49983700  1
  Ce  Ce0_3  1  0.49983700  0.99983700  0.99983700  1
  Ce  Ce0_4  1  0.99983700  0.49983700  0.49983700  1
  Ce  Ce0_5  1  0.99983700  0.49983700  0.99983700  1
  Ce  Ce0_6  1  0.99983700  0.99983700  0.49983700  1
  Ce  Ce0_7  1  0.99983700  0.99983700  0.99983700  1
  Ce  Ce1_0  1  0.25005100  0.25005100  0.25005100  1
  Ce  Ce1_1  1  0.25005100  0.25005100  0.75005100  1
  Ce  Ce1_2  1  0.25005100  0.75005100  0.25005100  1
  Ce  Ce1_3  1  0.25005100  0.75005100  0.75005100  1
  Ce  Ce1_4  1  0.75005100  0.25005100  0.25005100  1
  Ce  Ce1_5  1  0.75005100  0.25005100  0.75005100  1
  Ce  Ce1_6  1  0.75005100  0.75005100  0.25005100  1
  Ce  Ce1_7  1  0.75005100  0.75005100  0.75005100  1
  Ce  Ce2_0  1  0.30593850  0.30593850  0.30593850  1
  Ce  Ce2_1  1  0.30593850  0.30593850  0.80593850  1
  Ce  Ce2_2  1  0.30593850  0.80593850  0.30593850  1
  Ce  Ce2_3  1  0.30593850  0.80593850  0.80593850  1
  Ce  Ce2_4  1  0.80593850  0.30593850  0.30593850  1
  Ce  Ce2_5  1  0.80593850  0.30593850  0.80593850  1
  Ce  Ce2_6  1  0.80593850  0.80593850  0.30593850  1
  Ce  Ce2_7  1  0.80593850  0.80593850  0.80593850  1
  Er  Er0_0  1  0.05559350  0.05559350  0.05559350  1
  Er  Er0_1  1  0.05559350  0.05559350  0.55559350  1
  Er  Er0_2  1  0.05559350  0.55559350  0.05559350  1
  Er  Er0_3  1  0.05559350  0.55559350  0.55559350  1
  Er  Er0_4  1  0.55559350  0.05559350  0.05559350  1
  Er  Er0_5  1  0.55559350  0.05559350  0.55559350  1
  Er  Er0_6  1  0.55559350  0.55559350  0.05559350  1
  Er  Er0_7  1  0.55559350  0.55559350  0.55559350  1
  Er  Er1_0  1  0.44429850  0.44429850  0.44429850  1
  Er  Er1_1  1  0.44429850  0.44429850  0.94429850  1
  Er  Er1_2  1  0.44429850  0.94429850  0.44429850  1
  Er  Er1_3  1  0.44429850  0.94429850  0.94429850  1
  Er  Er1_4  1  0.94429850  0.44429850  0.44429850  1
  Er  Er1_5  1  0.94429850  0.44429850  0.94429850  1
  Er  Er1_6  1  0.94429850  0.94429850  0.44429850  1
  Er  Er1_7  1  0.94429850  0.94429850  0.94429850  1
  Er  Er2_0  1  0.19428100  0.19428100  0.19428100  1
  Er  Er2_1  1  0.19428100  0.19428100  0.69428100  1
  Er  Er2_2  1  0.19428100  0.69428100  0.19428100  1
  Er  Er2_3  1  0.19428100  0.69428100  0.69428100  1
  Er  Er2_4  1  0.69428100  0.19428100  0.19428100  1
  Er  Er2_5  1  0.69428100  0.19428100  0.69428100  1
  Er  Er2_6  1  0.69428100  0.69428100  0.19428100  1
  Er  Er2_7  1  0.69428100  0.69428100  0.69428100  1
loop_
_geom_bond_atom_site_label_1
_geom_bond_atom_site_label_2
_geom_bond_distance
_geom_bond_site_symmetry_2
Ce0_0 Ce2_4 3.415217 1_555
Ce0_0 Ce2_2 3.415217 1_555
Ce0_0 Ce2_1 3.415218 1_555
Ce0_0 Er2_5 3.459207 1_555
Ce0_0 Er2_3 3.459207 1_555
Ce0_0 Er2_6 3.459208 1_555
Ce0_0 Ce0_6 3.545588 1_545
Ce0_0 Ce0_6 3.545588 1_455
Ce0_0 Ce0_5 3.545588 1_455
Ce0_0 Ce0_3 3.545588 1_545
Ce0_0 Ce0_5 3.545588 1_554
Ce0_0 Ce0_3 3.545588 1_554
Ce0_1 Ce2_5 3.415217 1_555
Ce0_1 Ce2_3 3.415217 1_555
Ce0_1 Ce2_0 3.415218 1_556
Ce0_1 Er2_2 3.459207 1_556
Ce0_1 Er2_4 3.459207 1_556
Ce0_1 Er2_7 3.459208 1_555
Ce0_1 Ce0_7 3.545588 1_455
Ce0_1 Ce0_7 3.545588 1_545
Ce0_1 Ce0_4 3.545588 1_555
Ce0_1 Ce0_2 3.545588 1_555
Ce0_1 Ce0_2 3.545588 1_546
Ce0_1 Ce0_4 3.545588 1_456
Ce0_2 Ce2_6 3.415217 1_555
Ce0_2 Ce2_0 3.415217 1_565
Ce0_2 Ce2_3 3.415218 1_555
Ce0_2 Er2_1 3.459207 1_565
Ce0_2 Er2_7 3.459207 1_555
Ce0_2 Er2_4 3.459208 1_565
Ce0_2 Ce0_4 3.545588 1_555
Ce0_2 Ce0_4 3.545588 1_465
Ce0_2 Ce0_7 3.545588 1_455
Ce0_2 Ce0_7 3.545588 1_554
Ce0_3 Ce2_1 3.415217 1_565
Ce0_3 Ce2_7 3.415217 1_555
Ce0_3 Ce2_2 3.415218 1_556
Ce0_3 Er2_0 3.459207 1_566
Ce0_3 Er2_6 3.459207 1_556
Ce0_3 Er2_5 3.459208 1_565
Ce0_3 Ce0_5 3.545588 1_465
Ce0_3 Ce0_5 3.545588 1_555
Ce0_3 Ce0_6 3.545588 1_456
Ce0_3 Ce0_6 3.545588 1_555
Ce0_4 Ce2_6 3.415217 1_555
Ce0_4 Ce2_0 3.415217 1_655
Ce0_4 Ce2_5 3.415218 1_555
Ce0_4 Er2_1 3.459207 1_655
Ce0_4 Er2_7 3.459207 1_555
Ce0_4 Er2_2 3.459208 1_655
Ce0_4 Ce0_7 3.545588 1_545
Ce0_4 Ce0_7 3.545588 1_554
Ce0_5 Ce2_1 3.415217 1_655
Ce0_5 Ce2_7 3.415217 1_555
Ce0_5 Ce2_4 3.415218 1_556
Ce0_5 Er2_0 3.459207 1_656
Ce0_5 Er2_6 3.459207 1_556
Ce0_5 Er2_3 3.459208 1_655
Ce0_5 Ce0_6 3.545588 1_546
Ce0_5 Ce0_6 3.545588 1_555
Ce0_6 Ce2_4 3.415217 1_565
Ce0_6 Ce2_2 3.415217 1_655
Ce0_6 Ce2_7 3.415218 1_555
Ce0_6 Er2_5 3.459207 1_565
Ce0_6 Er2_3 3.459207 1_655
Ce0_6 Er2_0 3.459208 1_665
Ce0_7 Ce2_3 3.415217 1_655
Ce0_7 Ce2_5 3.415217 1_565
Ce0_7 Ce2_6 3.415218 1_556
Ce0_7 Er2_2 3.459207 1_656
Ce0_7 Er2_4 3.459207 1_566
Ce0_7 Er2_1 3.459208 1_665
Ce1_0 Er1_4 3.443326 1_455
Ce1_0 Er1_2 3.443326 1_545
Ce1_0 Er1_1 3.443326 1_554
Ce1_0 Er0_4 3.460300 1_555
Ce1_0 Er0_2 3.460300 1_555
Ce1_0 Er0_1 3.460300 1_555
Ce1_0 Ce1_6 3.545588 1_455
Ce1_0 Ce1_6 3.545588 1_545
Ce1_0 Ce1_5 3.545588 1_554
Ce1_0 Ce1_3 3.545588 1_554
Ce1_0 Ce1_3 3.545588 1_545
Ce1_0 Ce1_5 3.545588 1_455
Ce1_1 Er1_3 3.443326 1_545
Ce1_1 Er1_5 3.443326 1_455
Ce1_1 Er1_0 3.443326 1_555
Ce1_1 Er0_5 3.460300 1_555
Ce1_1 Er0_3 3.460300 1_555
Ce1_1 Er0_0 3.460300 1_556
Ce1_1 Ce1_7 3.545588 1_545
Ce1_1 Ce1_7 3.545588 1_455
Ce1_1 Ce1_2 3.545588 1_555
Ce1_1 Ce1_4 3.545588 1_555
Ce1_1 Ce1_4 3.545588 1_456
Ce1_1 Ce1_2 3.545588 1_546
Ce1_2 Er1_6 3.443326 1_455
Ce1_2 Er1_0 3.443326 1_555
Ce1_2 Er1_3 3.443326 1_554
Ce1_2 Er0_0 3.460300 1_565
Ce1_2 Er0_6 3.460300 1_555
Ce1_2 Er0_3 3.460300 1_555
Ce1_2 Ce1_4 3.545588 1_555
Ce1_2 Ce1_4 3.545588 1_465
Ce1_2 Ce1_7 3.545588 1_554
Ce1_2 Ce1_7 3.545588 1_455
Ce1_3 Er1_7 3.443326 1_455
Ce1_3 Er1_1 3.443326 1_555
Ce1_3 Er1_2 3.443326 1_555
Ce1_3 Er0_1 3.460300 1_565
Ce1_3 Er0_7 3.460300 1_555
Ce1_3 Er0_2 3.460300 1_556
Ce1_3 Ce1_5 3.545588 1_555
Ce1_3 Ce1_5 3.545588 1_465
Ce1_3 Ce1_6 3.545588 1_555
Ce1_3 Ce1_6 3.545588 1_456
Ce1_4 Er1_6 3.443326 1_545
Ce1_4 Er1_0 3.443326 1_555
Ce1_4 Er1_5 3.443326 1_554
Ce1_4 Er0_0 3.460300 1_655
Ce1_4 Er0_6 3.460300 1_555
Ce1_4 Er0_5 3.460300 1_555
Ce1_4 Ce1_7 3.545588 1_545
Ce1_4 Ce1_7 3.545588 1_554
Ce1_5 Er1_7 3.443326 1_545
Ce1_5 Er1_1 3.443326 1_555
Ce1_5 Er1_4 3.443326 1_555
Ce1_5 Er0_7 3.460300 1_555
Ce1_5 Er0_1 3.460300 1_655
Ce1_5 Er0_4 3.460300 1_556
Ce1_5 Ce1_6 3.545588 1_555
Ce1_5 Ce1_6 3.545588 1_546
Ce1_6 Er1_4 3.443326 1_555
Ce1_6 Er1_2 3.443326 1_555
Ce1_6 Er1_7 3.443326 1_554
Ce1_6 Er0_4 3.460300 1_565
Ce1_6 Er0_2 3.460300 1_655
Ce1_6 Er0_7 3.460300 1_555
Ce1_7 Er1_5 3.443326 1_555
Ce1_7 Er1_3 3.443326 1_555
Ce1_7 Er1_6 3.443326 1_555
Ce1_7 Er0_5 3.460300 1_565
Ce1_7 Er0_3 3.460300 1_655
Ce1_7 Er0_6 3.460300 1_556
Ce2_0 Er1_1 3.502184 1_554
Ce2_0 Er1_2 3.502184 1_545
Ce2_0 Er1_4 3.502184 1_455
Ce2_0 Ce2_6 3.545588 1_455
Ce2_0 Ce2_6 3.545588 1_545
Ce2_0 Ce2_5 3.545588 1_554
Ce2_0 Ce2_3 3.545588 1_554
Ce2_0 Ce2_3 3.545588 1_545
Ce2_0 Ce2_5 3.545588 1_455
Ce2_1 Er1_0 3.502184 1_555
Ce2_1 Er1_3 3.502184 1_545
Ce2_1 Er1_5 3.502184 1_455
Ce2_1 Ce2_7 3.545588 1_545
Ce2_1 Ce2_7 3.545588 1_455
Ce2_1 Ce2_4 3.545588 1_456
Ce2_1 Ce2_2 3.545588 1_546
Ce2_1 Ce2_4 3.545588 1_555
Ce2_1 Ce2_2 3.545588 1_555
Ce2_2 Er1_3 3.502184 1_554
Ce2_2 Er1_0 3.502184 1_555
Ce2_2 Er1_6 3.502184 1_455
Ce2_2 Ce2_4 3.545588 1_465
Ce2_2 Ce2_4 3.545588 1_555
Ce2_2 Ce2_7 3.545588 1_554
Ce2_2 Ce2_7 3.545588 1_455
Ce2_3 Er1_2 3.502184 1_555
Ce2_3 Er1_1 3.502184 1_555
Ce2_3 Er1_7 3.502184 1_455
Ce2_3 Ce2_5 3.545588 1_555
Ce2_3 Ce2_5 3.545588 1_465
Ce2_3 Ce2_6 3.545588 1_456
Ce2_3 Ce2_6 3.545588 1_555
Ce2_4 Er1_5 3.502184 1_554
Ce2_4 Er1_0 3.502184 1_555
Ce2_4 Er1_6 3.502184 1_545
Ce2_4 Ce2_7 3.545588 1_554
Ce2_4 Ce2_7 3.545588 1_545
Ce2_5 Er1_4 3.502184 1_555
Ce2_5 Er1_1 3.502184 1_555
Ce2_5 Er1_7 3.502184 1_545
Ce2_5 Ce2_6 3.545588 1_546
Ce2_5 Ce2_6 3.545588 1_555
Ce2_6 Er1_7 3.502184 1_554
Ce2_6 Er1_2 3.502184 1_555
Ce2_6 Er1_4 3.502184 1_555
Ce2_7 Er1_6 3.502184 1_555
Ce2_7 Er1_5 3.502184 1_555
Ce2_7 Er1_3 3.502184 1_555
Er0_0 Er2_1 3.475561 1_554
Er0_0 Er2_2 3.475561 1_545
Er0_0 Er2_4 3.475561 1_455
Er0_0 Er0_6 3.545588 1_455
Er0_0 Er0_6 3.545588 1_545
Er0_0 Er0_5 3.545588 1_554
Er0_0 Er0_3 3.545588 1_554
Er0_0 Er0_5 3.545588 1_455
Er0_0 Er0_3 3.545588 1_545
Er0_1 Er2_0 3.475561 1_555
Er0_1 Er2_3 3.475561 1_545
Er0_1 Er2_5 3.475561 1_455
Er0_1 Er0_7 3.545588 1_455
Er0_1 Er0_7 3.545588 1_545
Er0_1 Er0_2 3.545588 1_555
Er0_1 Er0_4 3.545588 1_555
Er0_1 Er0_4 3.545588 1_456
Er0_1 Er0_2 3.545588 1_546
Er0_2 Er2_3 3.475561 1_554
Er0_2 Er2_6 3.475561 1_455
Er0_2 Er2_0 3.475561 1_555
Er0_2 Er0_4 3.545588 1_555
Er0_2 Er0_4 3.545588 1_465
Er0_2 Er0_7 3.545588 1_455
Er0_2 Er0_7 3.545588 1_554
Er0_3 Er2_2 3.475561 1_555
Er0_3 Er2_7 3.475561 1_455
Er0_3 Er2_1 3.475561 1_555
Er0_3 Er0_5 3.545588 1_465
Er0_3 Er0_5 3.545588 1_555
Er0_3 Er0_6 3.545588 1_555
Er0_3 Er0_6 3.545588 1_456
Er0_4 Er2_5 3.475561 1_554
Er0_4 Er2_6 3.475561 1_545
Er0_4 Er2_0 3.475561 1_555
Er0_4 Er0_7 3.545588 1_545
Er0_4 Er0_7 3.545588 1_554
Er0_5 Er2_4 3.475561 1_555
Er0_5 Er2_7 3.475561 1_545
Er0_5 Er2_1 3.475561 1_555
Er0_5 Er0_6 3.545588 1_555
Er0_5 Er0_6 3.545588 1_546
Er0_6 Er2_7 3.475561 1_554
Er0_6 Er2_4 3.475561 1_555
Er0_6 Er2_2 3.475561 1_555
Er0_7 Er2_6 3.475561 1_555
Er0_7 Er2_3 3.475561 1_555
Er0_7 Er2_5 3.475561 1_555
Er1_0 Er1_6 3.545588 1_545
Er1_0 Er1_6 3.545588 1_455
Er1_0 Er1_5 3.545588 1_554
Er1_0 Er1_3 3.545588 1_554
Er1_0 Er1_3 3.545588 1_545
Er1_0 Er1_5 3.545588 1_455
Er1_1 Er1_7 3.545588 1_455
Er1_1 Er1_7 3.545588 1_545
Er1_1 Er1_4 3.545588 1_555
Er1_1 Er1_2 3.545588 1_546
Er1_1 Er1_4 3.545588 1_456
Er1_1 Er1_2 3.545588 1_555
Er1_2 Er1_4 3.545588 1_555
Er1_2 Er1_4 3.545588 1_465
Er1_2 Er1_7 3.545588 1_554
Er1_2 Er1_7 3.545588 1_455
Er1_3 Er1_5 3.545588 1_465
Er1_3 Er1_5 3.545588 1_555
Er1_3 Er1_6 3.545588 1_456
Er1_3 Er1_6 3.545588 1_555
Er1_4 Er1_7 3.545588 1_554
Er1_4 Er1_7 3.545588 1_545
Er1_5 Er1_6 3.545588 1_555
Er1_5 Er1_6 3.545588 1_546
Er2_0 Er2_6 3.545588 1_455
Er2_0 Er2_6 3.545588 1_545
Er2_0 Er2_5 3.545588 1_554
Er2_0 Er2_3 3.545588 1_554
Er2_0 Er2_3 3.545588 1_545
Er2_0 Er2_5 3.545588 1_455
Er2_1 Er2_7 3.545588 1_545
Er2_1 Er2_7 3.545588 1_455
Er2_1 Er2_2 3.545588 1_555
Er2_1 Er2_4 3.545588 1_555
Er2_1 Er2_4 3.545588 1_456
Er2_1 Er2_2 3.545588 1_546
Er2_2 Er2_4 3.545588 1_555
Er2_2 Er2_4 3.545588 1_465
Er2_2 Er2_7 3.545588 1_455
Er2_2 Er2_7 3.545588 1_554
Er2_3 Er2_5 3.545588 1_555
Er2_3 Er2_5 3.545588 1_465
Er2_3 Er2_6 3.545588 1_456
Er2_3 Er2_6 3.545588 1_555
Er2_4 Er2_7 3.545588 1_545
Er2_4 Er2_7 3.545588 1_554
Er2_5 Er2_6 3.545588 1_546
Er2_5 Er2_6 3.545588 1_555
