# generated using pymatgen
data_Co3TeO8
_symmetry_space_group_name_H-M   'P 1'
_cell_length_a   6.03060391
_cell_length_b   5.89606295
_cell_length_c   8.70838810
_cell_angle_alpha   89.78360070
_cell_angle_beta   89.56244575
_cell_angle_gamma   90.16591699
_symmetry_Int_Tables_number   1
_chemical_formula_structural   Co3TeO8
_chemical_formula_sum   'Co6 Te2 O16'
_cell_volume   309.63002832
_cell_formula_units_Z   2
loop_
 _symmetry_equiv_pos_site_id
 _symmetry_equiv_pos_as_xyz
  1  'x, y, z'
loop_
 _atom_site_type_symbol
 _atom_site_label
 _atom_site_symmetry_multiplicity
 _atom_site_fract_x
 _atom_site_fract_y
 _atom_site_fract_z
 _atom_site_occupancy
  Co  Co0  1  0.50320400  0.99978900  0.51568900  1
  Co  Co1  1  0.74524100  0.75361300  0.24939000  1
  Co  Co2  1  0.24913100  0.25106900  0.75133000  1
  Co  Co3  1  0.99995500  0.50245600  0.00096000  1
  Co  Co4  1  0.74833300  0.25240900  0.25089600  1
  Co  Co5  1  0.25239400  0.74720500  0.74857100  1
  Te  Te0  1  0.00321700  0.00169000  0.00214600  1
  Te  Te1  1  0.49354200  0.49871700  0.49562200  1
  O  O0  1  0.04967200  0.49394800  0.78805300  1
  O  O1  1  0.56115100  0.98657200  0.25998200  1
  O  O2  1  0.94356300  0.51611000  0.21864000  1
  O  O3  1  0.45144900  0.00143400  0.72957300  1
  O  O4  1  0.27560500  0.74017900  0.51372100  1
  O  O5  1  0.78855900  0.25624600  0.01265400  1
  O  O6  1  0.28410000  0.24885400  0.49906800  1
  O  O7  1  0.78863700  0.74811500  0.00062100  1
  O  O8  1  0.03387400  0.01272100  0.77741300  1
  O  O9  1  0.52505000  0.51245400  0.26798200  1
  O  O10  1  0.97394300  0.98982700  0.22748600  1
  O  O11  1  0.46908900  0.48516300  0.72393600  1
  O  O12  1  0.71611400  0.74091200  0.49149800  1
  O  O13  1  0.21158700  0.25858800  0.00427300  1
  O  O14  1  0.71933500  0.25701500  0.47753500  1
  O  O15  1  0.21325400  0.74491100  0.99296200  1
loop_
_geom_bond_atom_site_label_1
_geom_bond_atom_site_label_2
_geom_bond_distance
_geom_bond_site_symmetry_2
Co0 O3 1.886268 1_565
Co0 O6 1.983914 1_565
Co0 O12 2.008079 1_555
Co0 O14 2.021761 1_565
Co0 O4 2.053186 1_555
Co0 O1 2.253086 1_555
Co1 O1 1.770828 1_555
Co1 O2 1.862981 1_555
Co1 O9 1.948153 1_555
Co1 O10 1.964984 1_555
Co1 O12 2.115363 1_555
Co1 O7 2.180516 1_555
Co2 O0 1.899318 1_555
Co2 O8 1.922021 1_555
Co2 O3 1.923513 1_555
Co2 O11 1.924468 1_555
Co2 O6 2.205382 1_555
Co2 O13 2.213235 1_556
Co3 O0 1.876782 1_654
Co3 O15 1.921005 1_654
Co3 O2 1.925372 1_555
Co3 O13 1.925621 1_655
Co3 O5 1.931095 1_555
Co3 O7 1.932014 1_555
Co4 O1 1.929939 1_545
Co4 O2 1.965582 1_555
Co4 O14 1.980357 1_555
Co4 O9 2.048594 1_555
Co4 O10 2.073636 1_545
Co4 O5 2.087027 1_555
Co5 O3 1.923514 1_565
Co5 O0 1.954902 1_555
Co5 O11 2.037338 1_555
Co5 O4 2.049466 1_555
Co5 O8 2.064062 1_565
Co5 O15 2.139496 1_555
O4 Te1 1.946387 1_555
O5 Te0 1.986773 1_655
O6 Te1 1.937751 1_555
O7 Te0 1.974651 1_665
O8 Te0 1.965183 1_556
O9 Te1 1.991339 1_555
O10 Te0 1.969891 1_665
O11 Te1 1.993869 1_555
O12 Te1 1.957002 1_555
O13 Te0 1.965502 1_555
O14 Te1 1.979770 1_555
O15 Te0 1.978237 1_566
