# generated using pymatgen
data_CaMn2O5
_symmetry_space_group_name_H-M   'P 1'
_cell_length_a   3.70676400
_cell_length_b   5.49189000
_cell_length_c   10.37982700
_cell_angle_alpha   90.00000000
_cell_angle_beta   90.00000000
_cell_angle_gamma   90.00000000
_symmetry_Int_Tables_number   1
_chemical_formula_structural   CaMn2O5
_chemical_formula_sum   'Ca2 Mn4 O10'
_cell_volume   211.30359291
_cell_formula_units_Z   2
loop_
 _symmetry_equiv_pos_site_id
 _symmetry_equiv_pos_as_xyz
  1  'x, y, z'
loop_
 _atom_site_type_symbol
 _atom_site_label
 _atom_site_symmetry_multiplicity
 _atom_site_fract_x
 _atom_site_fract_y
 _atom_site_fract_z
 _atom_site_occupancy
  Ca  Ca0  1  0.50000000  0.53848000  0.13067100  1
  Ca  Ca1  1  0.50000000  0.46152000  0.63067100  1
  Mn  Mn0  1  0.00000000  0.01027900  0.63725000  1
  Mn  Mn1  1  0.00000000  0.46562000  0.36658300  1
  Mn  Mn2  1  0.00000000  0.98972100  0.13725000  1
  Mn  Mn3  1  0.00000000  0.53438000  0.86658300  1
  O  O0  1  0.00000000  0.29421800  0.52311200  1
  O  O1  1  0.00000000  0.77762800  0.27332800  1
  O  O2  1  0.00000000  0.30937900  0.20817800  1
  O  O3  1  0.00000000  0.22237200  0.77332800  1
  O  O4  1  0.50000000  0.03332800  0.10150700  1
  O  O5  1  0.50000000  0.48105600  0.88813900  1
  O  O6  1  0.00000000  0.69062100  0.70817800  1
  O  O7  1  0.50000000  0.96667200  0.60150700  1
  O  O8  1  0.00000000  0.70578200  0.02311200  1
  O  O9  1  0.50000000  0.51894400  0.38813900  1
loop_
_geom_bond_atom_site_label_1
_geom_bond_atom_site_label_2
_geom_bond_distance
_geom_bond_site_symmetry_2
Ca0 O8 2.350675 1_555
Ca0 O8 2.350675 1_655
Ca0 O2 2.380193 1_555
Ca0 O2 2.380193 1_655
Ca0 O5 2.537117 1_554
Ca0 O9 2.674626 1_555
Ca0 O1 2.711570 1_655
Ca0 O1 2.711570 1_555
Ca0 O4 2.734459 1_565
Ca0 O4 2.790706 1_555
Ca1 O0 2.350675 1_655
Ca1 O0 2.350675 1_555
Ca1 O6 2.380193 1_555
Ca1 O6 2.380193 1_655
Ca1 O9 2.537117 1_555
Ca1 O5 2.674626 1_555
Ca1 O3 2.711570 1_555
Ca1 O3 2.711570 1_655
Ca1 O7 2.734459 1_545
Ca1 O7 2.790706 1_555
Mn0 O3 1.830792 1_555
Mn0 O6 1.903653 1_545
Mn0 O7 1.905262 1_445
Mn0 O7 1.905262 1_545
Mn0 O0 1.958367 1_555
Mn1 O2 1.854646 1_555
Mn1 O0 1.877732 1_555
Mn1 O9 1.889669 1_455
Mn1 O9 1.889669 1_555
Mn1 O1 1.968018 1_555
Mn2 O1 1.830792 1_555
Mn2 O2 1.903653 1_565
Mn2 O4 1.905262 1_465
Mn2 O4 1.905262 1_565
Mn2 O8 1.958367 1_555
Mn3 O6 1.854646 1_555
Mn3 O8 1.877732 1_556
Mn3 O5 1.889669 1_455
Mn3 O5 1.889669 1_555
Mn3 O3 1.968018 1_555
