# generated using pymatgen
data_Ca4Nb6O21
_symmetry_space_group_name_H-M   'P 1'
_cell_length_a   5.51881798
_cell_length_b   5.51881798
_cell_length_c   14.68858900
_cell_angle_alpha   90.00000000
_cell_angle_beta   90.00000000
_cell_angle_gamma   90.02811644
_symmetry_Int_Tables_number   1
_chemical_formula_structural   Ca4Nb6O21
_chemical_formula_sum   'Ca4 Nb6 O21'
_cell_volume   447.37547009
_cell_formula_units_Z   1
loop_
 _symmetry_equiv_pos_site_id
 _symmetry_equiv_pos_as_xyz
  1  'x, y, z'
loop_
 _atom_site_type_symbol
 _atom_site_label
 _atom_site_symmetry_multiplicity
 _atom_site_fract_x
 _atom_site_fract_y
 _atom_site_fract_z
 _atom_site_occupancy
  Ca  Ca0  1  0.50000000  0.50000000  0.15626300  1
  Ca  Ca1  1  0.00000000  0.00000000  0.15630000  1
  Ca  Ca2  1  0.50000000  0.50000000  0.84533600  1
  Ca  Ca3  1  0.00000000  0.00000000  0.84528000  1
  Nb  Nb0  1  0.50000000  0.00000000  0.29764300  1
  Nb  Nb1  1  0.00000000  0.50000000  0.29764300  1
  Nb  Nb2  1  0.50000000  0.00000000  0.70337400  1
  Nb  Nb3  1  0.00000000  0.50000000  0.70337400  1
  Nb  Nb4  1  0.50000000  0.00000000  0.00007200  1
  Nb  Nb5  1  0.00000000  0.50000000  0.00007200  1
  O  O0  1  0.50000000  0.00000000  0.41767800  1
  O  O1  1  0.00000000  0.50000000  0.41767800  1
  O  O2  1  0.50000000  0.00000000  0.58200800  1
  O  O3  1  0.00000000  0.50000000  0.58200800  1
  O  O4  1  0.50000000  0.00000000  0.13232600  1
  O  O5  1  0.00000000  0.50000000  0.13232600  1
  O  O6  1  0.50000000  0.00000000  0.86683400  1
  O  O7  1  0.00000000  0.50000000  0.86683400  1
  O  O8  1  0.82433200  0.82433200  0.99957400  1
  O  O9  1  0.17566800  0.17566800  0.99957400  1
  O  O10  1  0.32439600  0.67560400  0.99960700  1
  O  O11  1  0.67560400  0.32439600  0.99960700  1
  O  O12  1  0.76664400  0.76664400  0.26130000  1
  O  O13  1  0.23335600  0.23335600  0.26130000  1
  O  O14  1  0.26694500  0.73305500  0.26134900  1
  O  O15  1  0.73305500  0.26694500  0.26134900  1
  O  O16  1  0.23292800  0.23292800  0.73802200  1
  O  O17  1  0.76707200  0.76707200  0.73802200  1
  O  O18  1  0.73231200  0.26768800  0.73803000  1
  O  O19  1  0.26768800  0.73231200  0.73803000  1
  O  O20  1  0.50000000  0.50000000  0.52818500  1
loop_
_geom_bond_atom_site_label_1
_geom_bond_atom_site_label_2
_geom_bond_distance
_geom_bond_site_symmetry_2
Ca0 O14 2.385954 1_555
Ca0 O15 2.385954 1_555
Ca0 O12 2.590217 1_555
Ca0 O13 2.590217 1_555
Ca0 O11 2.678468 1_554
Ca0 O10 2.678468 1_554
Ca0 O5 2.781719 1_655
Ca0 O5 2.781719 1_555
Ca0 O4 2.781719 1_555
Ca0 O4 2.781719 1_565
Ca1 O13 2.386248 1_555
Ca1 O12 2.386248 1_445
Ca1 O15 2.593030 1_455
Ca1 O14 2.593030 1_545
Ca1 O9 2.679263 1_554
Ca1 O8 2.679263 1_444
Ca1 O5 2.781788 1_545
Ca1 O4 2.781788 1_455
Ca1 O4 2.781788 1_555
Ca1 O5 2.781788 1_555
Ca2 O18 2.402797 1_555
Ca2 O19 2.402797 1_555
Ca2 O16 2.612939 1_555
Ca2 O17 2.612939 1_555
Ca2 O11 2.648433 1_555
Ca2 O10 2.648433 1_555
Ca2 O7 2.777418 1_655
Ca2 O7 2.777418 1_555
Ca2 O6 2.777418 1_555
Ca2 O6 2.777418 1_565
Ca3 O16 2.405293 1_555
Ca3 O17 2.405293 1_445
Ca3 O19 2.617027 1_545
Ca3 O18 2.617027 1_455
Ca3 O8 2.648632 1_445
Ca3 O9 2.648632 1_555
Ca3 O7 2.777512 1_545
Ca3 O6 2.777512 1_455
Ca3 O6 2.777512 1_555
Ca3 O7 2.777512 1_555
Nb0 O0 1.763145 1_555
Nb0 O15 2.026574 1_555
Nb0 O14 2.026574 1_545
Nb0 O12 2.027529 1_545
Nb0 O13 2.027529 1_555
Nb0 O4 2.428273 1_555
Nb1 O1 1.763145 1_555
Nb1 O15 2.026574 1_455
Nb1 O14 2.026574 1_555
Nb1 O12 2.027529 1_455
Nb1 O13 2.027529 1_555
Nb1 O5 2.428273 1_555
Nb2 O2 1.782695 1_555
Nb2 O18 2.020767 1_555
Nb2 O19 2.020767 1_545
Nb2 O16 2.021334 1_555
Nb2 O17 2.021334 1_545
Nb2 O6 2.400997 1_555
Nb3 O3 1.782695 1_555
Nb3 O19 2.020767 1_555
Nb3 O18 2.020767 1_455
Nb3 O16 2.021334 1_555
Nb3 O17 2.021334 1_455
Nb3 O7 2.400997 1_555
Nb4 O4 1.942625 1_555
Nb4 O6 1.957078 1_554
Nb4 O11 2.035353 1_554
Nb4 O10 2.035353 1_544
Nb4 O8 2.036049 1_544
Nb4 O9 2.036049 1_554
Nb5 O5 1.942625 1_555
Nb5 O7 1.957078 1_554
Nb5 O10 2.035353 1_554
Nb5 O11 2.035353 1_454
Nb5 O8 2.036049 1_454
Nb5 O9 2.036049 1_554
