# generated using pymatgen
data_Mg2CuWO6
_symmetry_space_group_name_H-M   'P 1'
_cell_length_a   5.17574600
_cell_length_b   5.00121900
_cell_length_c   9.81109383
_cell_angle_alpha   60.36299912
_cell_angle_beta   90.00000000
_cell_angle_gamma   90.00000000
_symmetry_Int_Tables_number   1
_chemical_formula_structural   Mg2CuWO6
_chemical_formula_sum   'Mg4 Cu2 W2 O12'
_cell_volume   220.73635460
_cell_formula_units_Z   2
loop_
 _symmetry_equiv_pos_site_id
 _symmetry_equiv_pos_as_xyz
  1  'x, y, z'
loop_
 _atom_site_type_symbol
 _atom_site_label
 _atom_site_symmetry_multiplicity
 _atom_site_fract_x
 _atom_site_fract_y
 _atom_site_fract_z
 _atom_site_occupancy
  Mg  Mg0  1  0.05199400  0.29441000  0.73220300  1
  Mg  Mg1  1  0.55199400  0.70559000  0.76779700  1
  Mg  Mg2  1  0.94800600  0.70559000  0.26779700  1
  Mg  Mg3  1  0.44800600  0.29441000  0.23220300  1
  Cu  Cu0  1  0.00000000  0.50000000  0.00000000  1
  Cu  Cu1  1  0.50000000  0.50000000  0.50000000  1
  W  W0  1  0.00000000  0.00000000  0.50000000  1
  W  W1  1  0.50000000  0.00000000  0.00000000  1
  O  O0  1  0.28970800  0.70077700  0.60887700  1
  O  O1  1  0.78970800  0.29922300  0.89112300  1
  O  O2  1  0.71029200  0.29922300  0.39112300  1
  O  O3  1  0.21029200  0.70077700  0.10887700  1
  O  O4  1  0.20087300  0.36130100  0.44765300  1
  O  O5  1  0.70087300  0.63869900  0.05234700  1
  O  O6  1  0.79912700  0.63869900  0.55234700  1
  O  O7  1  0.29912700  0.36130100  0.94765300  1
  O  O8  1  0.39255900  0.03847900  0.80275900  1
  O  O9  1  0.89255900  0.96152100  0.69724100  1
  O  O10  1  0.10744100  0.03847900  0.30275900  1
  O  O11  1  0.60744100  0.96152100  0.19724100  1
loop_
_geom_bond_atom_site_label_1
_geom_bond_atom_site_label_2
_geom_bond_distance
_geom_bond_site_symmetry_2
Mg0 O9 2.033501 1_445
Mg0 O1 2.076442 1_455
Mg0 O8 2.085244 1_555
Mg0 O0 2.162434 1_555
Mg0 O6 2.187806 1_455
Mg1 O8 2.033501 1_565
Mg1 O0 2.076442 1_555
Mg1 O9 2.085244 1_555
Mg1 O1 2.162434 1_555
Mg1 O7 2.187806 1_555
Mg2 O10 2.033501 1_665
Mg2 O3 2.076442 1_655
Mg2 O11 2.085244 1_555
Mg2 O2 2.162434 1_555
Mg2 O4 2.187806 1_655
Mg3 O11 2.033501 1_545
Mg3 O2 2.076442 1_555
Mg3 O10 2.085244 1_555
Mg3 O3 2.162434 1_555
Mg3 O5 2.187806 1_555
Cu0 O5 1.869281 1_455
Cu0 O7 1.869281 1_554
Cu0 O1 2.096380 1_454
Cu0 O3 2.096380 1_555
Cu1 O4 1.869281 1_555
Cu1 O6 1.869281 1_555
Cu1 O0 2.096380 1_555
Cu1 O2 2.096380 1_555
O0 W0 2.011940 1_565
O1 W1 2.011940 1_556
O2 W0 2.011940 1_655
O3 W1 2.011940 1_565
O4 W0 1.921436 1_555
O5 W1 1.921436 1_565
O6 W0 1.921436 1_665
O7 W1 1.921436 1_556
O8 W1 1.929446 1_556
O9 W0 1.929446 1_665
O10 W0 1.929446 1_555
O11 W1 1.929446 1_565
