# generated using pymatgen
data_Li9Mn7O16
_symmetry_space_group_name_H-M   'P 1'
_cell_length_a   3.01000000
_cell_length_b   9.96361799
_cell_length_c   10.40236555
_cell_angle_alpha   73.68169112
_cell_angle_beta   83.36592804
_cell_angle_gamma   86.00824243
_symmetry_Int_Tables_number   1
_chemical_formula_structural   Li9Mn7O16
_chemical_formula_sum   'Li9 Mn7 O16'
_cell_volume   297.17373404
_cell_formula_units_Z   1
loop_
 _symmetry_equiv_pos_site_id
 _symmetry_equiv_pos_as_xyz
  1  'x, y, z'
loop_
 _atom_site_type_symbol
 _atom_site_label
 _atom_site_symmetry_multiplicity
 _atom_site_fract_x
 _atom_site_fract_y
 _atom_site_fract_z
 _atom_site_occupancy
  Li  Li0  1  0.54340000  0.31407200  0.88878900  1
  Li  Li1  1  0.04451700  0.80094800  0.88084300  1
  Li  Li2  1  0.95548300  0.19905200  0.11915700  1
  Li  Li3  1  0.45660000  0.68592800  0.11121100  1
  Li  Li4  1  0.30536600  0.05638000  0.37549900  1
  Li  Li5  1  0.80653400  0.55984100  0.37503100  1
  Li  Li6  1  0.69463400  0.94362000  0.62450100  1
  Li  Li7  1  0.19346600  0.44015900  0.62496900  1
  Li  Li8  1  0.00000000  0.50000000  0.00000000  1
  Mn  Mn0  1  0.61365000  0.62130000  0.76016900  1
  Mn  Mn1  1  0.38635000  0.37870000  0.23983100  1
  Mn  Mn2  1  0.12690700  0.12713900  0.74957800  1
  Mn  Mn3  1  0.50000000  0.00000000  0.00000000  1
  Mn  Mn4  1  0.87309300  0.87286100  0.25042200  1
  Mn  Mn5  1  0.76602000  0.25436500  0.49784200  1
  Mn  Mn6  1  0.23398000  0.74563500  0.50215800  1
  O  O0  1  0.12563100  0.49146800  0.80436000  1
  O  O1  1  0.55662900  0.97643000  0.81736000  1
  O  O2  1  0.45397400  0.34285900  0.07671600  1
  O  O3  1  0.93011500  0.84644700  0.06883300  1
  O  O4  1  0.88148200  0.23987400  0.31031300  1
  O  O5  1  0.30391400  0.72207400  0.31976900  1
  O  O6  1  0.19007400  0.09894600  0.56634500  1
  O  O7  1  0.67625400  0.60037200  0.57014500  1
  O  O8  1  0.06988500  0.15355300  0.93116700  1
  O  O9  1  0.54602600  0.65714100  0.92328400  1
  O  O10  1  0.44337100  0.02357000  0.18264000  1
  O  O11  1  0.87436900  0.50853200  0.19564000  1
  O  O12  1  0.80992600  0.90105400  0.43365500  1
  O  O13  1  0.32374600  0.39962800  0.42985500  1
  O  O14  1  0.11851800  0.76012600  0.68968700  1
  O  O15  1  0.69608600  0.27792600  0.68023100  1
loop_
_geom_bond_atom_site_label_1
_geom_bond_atom_site_label_2
_geom_bond_distance
_geom_bond_site_symmetry_2
Li0 O2 2.039376 1_556
Li0 O0 2.133095 1_555
Li0 O8 2.135339 1_555
Li0 O8 2.162391 1_655
Li0 O15 2.287637 1_555
Li0 O0 2.483955 1_655
Li1 O9 2.005998 1_555
Li1 O9 2.071255 1_455
Li1 O3 2.114019 1_456
Li1 O14 2.123351 1_555
Li1 O1 2.206240 1_455
Li1 O1 2.315255 1_555
Li2 O2 2.005998 1_555
Li2 O2 2.071255 1_655
Li2 O8 2.114019 1_654
Li2 O4 2.123351 1_555
Li2 O10 2.206240 1_655
Li2 O10 2.315255 1_555
Li3 O9 2.039376 1_554
Li3 O11 2.133095 1_555
Li3 O3 2.135339 1_555
Li3 O3 2.162391 1_455
Li3 O5 2.287637 1_555
Li3 O11 2.483955 1_455
Li4 O12 2.103932 1_545
Li4 O10 2.112180 1_555
Li4 O6 2.129550 1_555
Li4 O12 2.138159 1_445
Li4 O4 2.146794 1_455
Li4 O4 2.506499 1_555
Li5 O11 2.053985 1_555
Li5 O5 2.137856 1_555
Li5 O13 2.145946 1_555
Li5 O13 2.155142 1_655
Li5 O7 2.165866 1_555
Li5 O5 2.191016 1_655
Li6 O6 2.103932 1_565
Li6 O1 2.112180 1_555
Li6 O12 2.129550 1_555
Li6 O6 2.138159 1_665
Li6 O14 2.146794 1_655
Li6 O14 2.506499 1_555
Li7 O0 2.053985 1_555
Li7 O15 2.137856 1_555
Li7 O7 2.145946 1_555
Li7 O7 2.155142 1_455
Li7 O13 2.165866 1_555
Li7 O15 2.191016 1_455
Li8 O11 2.051063 1_455
Li8 O0 2.051063 1_554
Li8 O9 2.051199 1_454
Li8 O2 2.051199 1_555
Li8 O9 2.267718 1_554
Li8 O2 2.267718 1_455
Mn0 O9 1.816206 1_555
Mn0 O0 1.952320 1_655
Mn0 O0 1.953678 1_555
Mn0 O14 2.016811 1_555
Mn0 O7 2.031358 1_555
Mn0 O14 2.055599 1_655
Mn1 O2 1.816206 1_555
Mn1 O11 1.952320 1_455
Mn1 O11 1.953678 1_555
Mn1 O4 2.016811 1_555
Mn1 O13 2.031358 1_555
Mn1 O4 2.055599 1_455
Mn2 O1 1.941742 1_545
Mn2 O15 1.948082 1_455
Mn2 O8 1.965969 1_555
Mn2 O6 1.989426 1_555
Mn2 O15 2.275184 1_555
Mn2 O1 2.276558 1_445
Mn3 O3 1.962740 1_545
Mn3 O8 1.962740 1_554
Mn3 O1 1.965733 1_544
Mn3 O10 1.965733 1_555
Mn3 O8 2.293872 1_654
Mn3 O3 2.293872 1_445
Mn4 O10 1.941742 1_565
Mn4 O5 1.948082 1_655
Mn4 O3 1.965969 1_555
Mn4 O12 1.989426 1_555
Mn4 O5 2.275184 1_555
Mn4 O10 2.276558 1_665
Mn5 O13 1.934234 1_555
Mn5 O6 1.962098 1_655
Mn5 O15 1.962194 1_555
Mn5 O4 1.985366 1_555
Mn5 O13 2.214034 1_655
Mn5 O6 2.319340 1_555
Mn6 O7 1.934234 1_555
Mn6 O12 1.962098 1_455
Mn6 O5 1.962194 1_555
Mn6 O14 1.985366 1_555
Mn6 O7 2.214034 1_455
Mn6 O12 2.319340 1_555
