# generated using pymatgen
data_RbMg6SbO8
_symmetry_space_group_name_H-M   'P 1'
_cell_length_a   9.02173396
_cell_length_b   4.64895206
_cell_length_c   4.64895206
_cell_angle_alpha   90.00000000
_cell_angle_beta   90.00000000
_cell_angle_gamma   90.00000000
_symmetry_Int_Tables_number   1
_chemical_formula_structural   RbMg6SbO8
_chemical_formula_sum   'Rb1 Mg6 Sb1 O8'
_cell_volume   194.98452806
_cell_formula_units_Z   1
loop_
 _symmetry_equiv_pos_site_id
 _symmetry_equiv_pos_as_xyz
  1  'x, y, z'
loop_
 _atom_site_type_symbol
 _atom_site_label
 _atom_site_symmetry_multiplicity
 _atom_site_fract_x
 _atom_site_fract_y
 _atom_site_fract_z
 _atom_site_occupancy
  Rb  Rb0  1  0.00000000  0.00000000  0.00000000  1
  Mg  Mg0  1  0.50000000  0.00000000  0.00000000  1
  Mg  Mg1  1  0.50000000  0.50000000  0.50000000  1
  Mg  Mg2  1  0.27102902  0.00000000  0.50000000  1
  Mg  Mg3  1  0.72897098  -0.00000000  0.50000000  1
  Mg  Mg4  1  0.27102902  0.50000000  0.00000000  1
  Mg  Mg5  1  0.72897098  0.50000000  -0.00000000  1
  Sb  Sb0  1  0.00000000  0.50000000  0.50000000  1
  O  O0  1  0.28403989  0.00000000  0.00000000  1
  O  O1  1  0.71596011  0.00000000  -0.00000000  1
  O  O2  1  0.26548864  0.50000000  0.50000000  1
  O  O3  1  0.73451136  0.50000000  0.50000000  1
  O  O4  1  0.00000000  0.00000000  0.50000000  1
  O  O5  1  0.50000000  0.00000000  0.50000000  1
  O  O6  1  0.00000000  0.50000000  0.00000000  1
  O  O7  1  0.50000000  0.50000000  0.00000000  1
loop_
_geom_bond_atom_site_label_1
_geom_bond_atom_site_label_2
_geom_bond_distance
_geom_bond_site_symmetry_2
Mg0 O0 1.948335 1_555
Mg0 O1 1.948335 1_555
Mg0 O7 2.324476 1_555
Mg0 O5 2.324476 1_554
Mg0 O5 2.324476 1_555
Mg0 O7 2.324476 1_545
Mg1 O3 2.115699 1_555
Mg1 O2 2.115699 1_555
Mg1 O7 2.324476 1_555
Mg1 O7 2.324476 1_556
Mg1 O5 2.324476 1_555
Mg1 O5 2.324476 1_565
Mg2 O5 2.065715 1_555
Mg2 O2 2.325013 1_545
Mg2 O2 2.325013 1_555
Mg2 O0 2.327438 1_555
Mg2 O0 2.327438 1_556
Mg2 O4 2.445152 1_555
Mg3 O5 2.065715 1_555
Mg3 O3 2.325013 1_545
Mg3 O3 2.325013 1_555
Mg3 O1 2.327438 1_555
Mg3 O1 2.327438 1_556
Mg3 O4 2.445152 1_655
Mg4 O7 2.065715 1_555
Mg4 O2 2.325013 1_554
Mg4 O2 2.325013 1_555
Mg4 O0 2.327438 1_565
Mg4 O0 2.327438 1_555
Mg4 O6 2.445152 1_555
Mg5 O7 2.065715 1_555
Mg5 O3 2.325013 1_554
Mg5 O3 2.325013 1_555
Mg5 O1 2.327438 1_555
Mg5 O1 2.327438 1_565
Mg5 O6 2.445152 1_655
O0 Rb0 2.562532 1_555
O1 Rb0 2.562532 1_655
O2 Sb0 2.395168 1_555
O3 Sb0 2.395168 1_655
O4 Sb0 2.324476 1_555
O4 Rb0 2.324476 1_555
O4 Rb0 2.324476 1_556
O4 Sb0 2.324476 1_545
O6 Sb0 2.324476 1_554
O6 Rb0 2.324476 1_565
O6 Sb0 2.324476 1_555
O6 Rb0 2.324476 1_555
