# generated using pymatgen
data_LiCeMg6
_symmetry_space_group_name_H-M   'P 1'
_cell_length_a   6.67060009
_cell_length_b   6.67059953
_cell_length_c   5.17078628
_cell_angle_alpha   90.00000000
_cell_angle_beta   90.00000000
_cell_angle_gamma   120.63352162
_symmetry_Int_Tables_number   1
_chemical_formula_structural   LiCeMg6
_chemical_formula_sum   'Li1 Ce1 Mg6'
_cell_volume   197.97438448
_cell_formula_units_Z   1
loop_
 _symmetry_equiv_pos_site_id
 _symmetry_equiv_pos_as_xyz
  1  'x, y, z'
loop_
 _atom_site_type_symbol
 _atom_site_label
 _atom_site_symmetry_multiplicity
 _atom_site_fract_x
 _atom_site_fract_y
 _atom_site_fract_z
 _atom_site_occupancy
  Li  Li0  1  0.15959239  0.34040761  0.25000000  1
  Ce  Ce0  1  0.33214916  0.16785084  0.75000000  1
  Mg  Mg0  1  0.16589331  0.82442399  0.25000000  1
  Mg  Mg1  1  0.67557601  0.33410669  0.25000000  1
  Mg  Mg2  1  0.66865408  0.83134592  0.25000000  1
  Mg  Mg3  1  0.32029223  0.66225224  0.75000000  1
  Mg  Mg4  1  0.83774776  0.17970777  0.75000000  1
  Mg  Mg5  1  0.84009506  0.65990494  0.75000000  1
loop_
_geom_bond_atom_site_label_1
_geom_bond_atom_site_label_2
_geom_bond_distance
_geom_bond_site_symmetry_2
Li0 Mg3 3.177609 1_555
Li0 Mg3 3.177609 1_554
Li0 Mg4 3.177609 1_455
Li0 Mg4 3.177609 1_454
Li0 Mg0 3.207467 1_555
Li0 Mg1 3.207467 1_455
Li0 Mg2 3.304981 1_445
Li0 Mg2 3.304981 1_555
Ce0 Mg0 3.251634 1_545
Ce0 Mg0 3.251634 1_546
Ce0 Mg1 3.251634 1_556
Ce0 Mg1 3.251634 1_555
Ce0 Li0 3.268692 1_555
Ce0 Li0 3.268692 1_556
Ce0 Mg5 3.304595 1_445
Ce0 Mg5 3.304595 1_555
Ce0 Mg3 3.333039 1_545
Ce0 Mg4 3.333040 1_555
Ce0 Mg3 3.338949 1_555
Ce0 Mg4 3.338949 1_455
Mg0 Mg3 3.170285 1_555
Mg0 Mg3 3.170285 1_554
Mg0 Mg5 3.190795 1_455
Mg0 Mg5 3.190795 1_454
Mg0 Mg1 3.239341 1_455
Mg0 Mg2 3.330426 1_555
Mg0 Mg2 3.340648 1_455
Mg0 Mg1 3.367281 1_565
Mg1 Mg4 3.170285 1_554
Mg1 Mg4 3.170285 1_555
Mg1 Mg5 3.190795 1_555
Mg1 Mg5 3.190795 1_554
Mg1 Mg2 3.330425 1_545
Mg1 Mg2 3.340647 1_555
Mg2 Mg5 3.260795 1_555
Mg2 Mg5 3.260795 1_554
Mg2 Mg4 3.268845 1_565
Mg2 Mg4 3.268845 1_564
Mg2 Mg3 3.268845 1_555
Mg2 Mg3 3.268845 1_554
Mg3 Mg4 3.187989 1_455
Mg3 Mg5 3.195253 1_455
Mg3 Mg4 3.418633 1_565
Mg3 Mg5 3.475401 1_555
Mg4 Mg5 3.195253 1_555
Mg4 Mg5 3.475401 1_545
