# generated using pymatgen
data_Te6MoW3S2
_symmetry_space_group_name_H-M   'P 1'
_cell_length_a   3.45737648
_cell_length_b   3.45737648
_cell_length_c   39.42829100
_cell_angle_alpha   90.00000000
_cell_angle_beta   90.00000000
_cell_angle_gamma   120.00000917
_symmetry_Int_Tables_number   1
_chemical_formula_structural   Te6MoW3S2
_chemical_formula_sum   'Te6 Mo1 W3 S2'
_cell_volume   408.16136255
_cell_formula_units_Z   1
loop_
 _symmetry_equiv_pos_site_id
 _symmetry_equiv_pos_as_xyz
  1  'x, y, z'
loop_
 _atom_site_type_symbol
 _atom_site_label
 _atom_site_symmetry_multiplicity
 _atom_site_fract_x
 _atom_site_fract_y
 _atom_site_fract_z
 _atom_site_occupancy
  Te  Te0  1  0.00000000  0.00000000  0.32889000  1
  Te  Te1  1  0.00000000  0.00000000  0.70470200  1
  Te  Te2  1  0.33333300  0.66666700  0.42252200  1
  Te  Te3  1  0.33333300  0.66666700  0.51678000  1
  Te  Te4  1  0.00000000  0.00000000  0.23458500  1
  Te  Te5  1  0.00000000  0.00000000  0.61042400  1
  Mo  Mo0  1  0.00000000  0.00000000  0.09395500  1
  W  W0  1  0.00000000  0.00000000  0.46966900  1
  W  W1  1  0.33333300  0.66666700  0.28175700  1
  W  W2  1  0.33333300  0.66666700  0.65758200  1
  S  S0  1  0.33333300  0.66666700  0.05612800  1
  S  S1  1  0.33333300  0.66666700  0.13175500  1
loop_
_geom_bond_atom_site_label_1
_geom_bond_atom_site_label_2
_geom_bond_distance
_geom_bond_site_symmetry_2
Te0 W1 2.727275 1_545
Te0 W1 2.727277 1_445
Te0 W1 2.727277 1_555
Te1 W2 2.726926 1_545
Te1 W2 2.726928 1_445
Te1 W2 2.726928 1_555
Te2 W0 2.727651 1_565
Te2 W0 2.727653 1_555
Te2 W0 2.727653 1_665
Te3 W0 2.726684 1_565
Te3 W0 2.726686 1_555
Te3 W0 2.726686 1_665
Te4 W1 2.728323 1_545
Te4 W1 2.728325 1_445
Te4 W1 2.728325 1_555
Te5 W2 2.727947 1_545
Te5 W2 2.727949 1_555
Te5 W2 2.727949 1_445
Mo0 S1 2.491132 1_545
Mo0 S1 2.491134 1_555
Mo0 S1 2.491134 1_445
Mo0 S0 2.491769 1_545
Mo0 S0 2.491771 1_555
Mo0 S0 2.491771 1_445
