# generated using pymatgen
data_Sr3Y3N5
_symmetry_space_group_name_H-M   'P 1'
_cell_length_a   6.64889637
_cell_length_b   8.12992140
_cell_length_c   9.49320877
_cell_angle_alpha   106.23546668
_cell_angle_beta   108.67761030
_cell_angle_gamma   99.97871034
_symmetry_Int_Tables_number   1
_chemical_formula_structural   Sr3Y3N5
_chemical_formula_sum   'Sr6 Y6 N10'
_cell_volume   446.83436650
_cell_formula_units_Z   2
loop_
 _symmetry_equiv_pos_site_id
 _symmetry_equiv_pos_as_xyz
  1  'x, y, z'
loop_
 _atom_site_type_symbol
 _atom_site_label
 _atom_site_symmetry_multiplicity
 _atom_site_fract_x
 _atom_site_fract_y
 _atom_site_fract_z
 _atom_site_occupancy
  Sr  Sr0  1  0.79470900  0.43707900  0.58716700  1
  Sr  Sr1  1  0.20529100  0.56292100  0.41283300  1
  Sr  Sr2  1  0.69182800  0.82003400  0.88044600  1
  Sr  Sr3  1  0.30817200  0.17996600  0.11955400  1
  Sr  Sr4  1  0.67006900  0.60970200  0.20251200  1
  Sr  Sr5  1  0.32993100  0.39029800  0.79748800  1
  Y  Y0  1  0.86996000  0.29902000  0.95524900  1
  Y  Y1  1  0.13004000  0.70098000  0.04475100  1
  Y  Y2  1  0.73731100  0.95908200  0.56784500  1
  Y  Y3  1  0.26268900  0.04091800  0.43215500  1
  Y  Y4  1  0.18279200  0.87181600  0.72995700  1
  Y  Y5  1  0.81720800  0.12818400  0.27004300  1
  N  N0  1  0.01164900  0.08485000  0.82005100  1
  N  N1  1  0.98835100  0.91515000  0.17994900  1
  N  N2  1  0.86611200  0.71115900  0.50570800  1
  N  N3  1  0.13388800  0.28884100  0.49429200  1
  N  N4  1  0.77822600  0.51470900  0.86384000  1
  N  N5  1  0.22177400  0.48529100  0.13616000  1
  N  N6  1  0.42497400  0.90121300  0.61007800  1
  N  N7  1  0.57502600  0.09878700  0.38992200  1
  N  N8  1  0.31358700  0.71898000  0.88505400  1
  N  N9  1  0.68641300  0.28102000  0.11494600  1
loop_
_geom_bond_atom_site_label_1
_geom_bond_atom_site_label_2
_geom_bond_distance
_geom_bond_site_symmetry_2
N0 Y2 2.300571 1_445
N0 Y4 2.346072 1_545
N0 Y0 2.379035 1_455
N0 Sr3 2.687180 1_556
N0 Sr2 3.061069 1_445
N0 Sr5 3.075289 1_555
N1 Y3 2.300571 1_665
N1 Y5 2.346072 1_565
N1 Y1 2.379035 1_655
N1 Sr2 2.687180 1_554
N1 Sr3 3.061069 1_665
N1 Sr4 3.075289 1_555
N2 Y4 2.300553 1_655
N2 Y2 2.323985 1_555
N2 Sr4 2.561426 1_555
N2 Sr0 2.573039 1_555
N2 Sr1 2.989449 1_655
N3 Y5 2.300553 1_455
N3 Y3 2.323985 1_555
N3 Sr5 2.561426 1_555
N3 Sr1 2.573039 1_555
N3 Sr0 2.989449 1_455
N4 Y0 2.254429 1_555
N4 Y1 2.336575 1_656
N4 Sr0 2.567163 1_555
N4 Sr2 2.617226 1_555
N4 Sr5 2.774993 1_555
N5 Y1 2.254429 1_555
N5 Y0 2.336575 1_454
N5 Sr1 2.567163 1_555
N5 Sr3 2.617226 1_555
N5 Sr4 2.774993 1_555
N6 Y2 2.234926 1_555
N6 Y4 2.266615 1_555
N6 Y3 2.374315 1_565
N6 Sr1 2.679579 1_555
N6 Sr2 2.933882 1_555
N7 Y3 2.234926 1_555
N7 Y5 2.266615 1_555
N7 Y2 2.374315 1_545
N7 Sr0 2.679579 1_555
N7 Sr3 2.933882 1_555
N8 Y4 2.246207 1_555
N8 Y1 2.248617 1_556
N8 Sr2 2.525081 1_555
N8 Sr5 2.599937 1_555
N9 Y5 2.246207 1_555
N9 Y0 2.248617 1_554
N9 Sr3 2.525081 1_555
N9 Sr4 2.599937 1_555
