# generated using pymatgen
data_YbGa6
_symmetry_space_group_name_H-M   'P 1'
_cell_length_a   5.87857455
_cell_length_b   5.87857455
_cell_length_c   7.44255900
_cell_angle_alpha   90.00000000
_cell_angle_beta   90.00000000
_cell_angle_gamma   90.00000000
_symmetry_Int_Tables_number   1
_chemical_formula_structural   YbGa6
_chemical_formula_sum   'Yb2 Ga12'
_cell_volume   257.19726553
_cell_formula_units_Z   2
loop_
 _symmetry_equiv_pos_site_id
 _symmetry_equiv_pos_as_xyz
  1  'x, y, z'
loop_
 _atom_site_type_symbol
 _atom_site_label
 _atom_site_symmetry_multiplicity
 _atom_site_fract_x
 _atom_site_fract_y
 _atom_site_fract_z
 _atom_site_occupancy
  Yb  Yb0  1  0.50000000  0.00000000  0.00000000  1
  Yb  Yb1  1  0.00000000  0.50000000  0.00000000  1
  Ga  Ga0  1  0.50000000  0.50000000  0.16120969  1
  Ga  Ga1  1  0.00000000  0.00000000  0.16120969  1
  Ga  Ga2  1  0.00000000  0.00000000  0.83879031  1
  Ga  Ga3  1  0.50000000  0.50000000  0.83879031  1
  Ga  Ga4  1  0.82380170  0.67619830  0.35169059  1
  Ga  Ga5  1  0.32380170  0.82380170  0.35169059  1
  Ga  Ga6  1  0.67619830  0.17619830  0.35169059  1
  Ga  Ga7  1  0.17619830  0.32380170  0.35169059  1
  Ga  Ga8  1  0.67619830  0.82380170  0.64830941  1
  Ga  Ga9  1  0.17619830  0.67619830  0.64830941  1
  Ga  Ga10  1  0.82380170  0.32380170  0.64830941  1
  Ga  Ga11  1  0.32380170  0.17619830  0.64830941  1
loop_
_geom_bond_atom_site_label_1
_geom_bond_atom_site_label_2
_geom_bond_distance
_geom_bond_site_symmetry_2
Ga0 Ga3 2.399625 1_554
Ga0 Ga4 2.589581 1_555
Ga0 Ga5 2.589581 1_555
Ga0 Ga6 2.589581 1_555
Ga0 Ga7 2.589581 1_555
Ga0 Yb0 3.174738 1_555
Ga0 Yb0 3.174738 1_565
Ga0 Yb1 3.174738 1_655
Ga0 Yb1 3.174738 1_555
Ga1 Ga2 2.399625 1_554
Ga1 Ga7 2.589581 1_555
Ga1 Ga5 2.589581 1_545
Ga1 Ga6 2.589581 1_455
Ga1 Ga4 2.589581 1_445
Ga1 Yb0 3.174738 1_455
Ga1 Yb0 3.174738 1_555
Ga1 Yb1 3.174738 1_545
Ga1 Yb1 3.174738 1_555
Ga2 Ga9 2.589581 1_545
Ga2 Ga8 2.589581 1_445
Ga2 Yb1 3.174738 1_556
Ga2 Yb0 3.174738 1_456
Ga2 Yb1 3.174738 1_546
Ga2 Yb0 3.174738 1_556
Ga3 Ga8 2.589581 1_555
Ga3 Ga9 2.589581 1_555
Ga3 Yb1 3.174738 1_556
Ga3 Yb0 3.174738 1_566
Ga3 Yb1 3.174738 1_656
Ga3 Yb0 3.174738 1_556
Ga4 Ga8 2.525730 1_555
Ga4 Ga7 2.929670 1_655
Ga4 Yb1 2.999489 1_655
Ga4 Ga9 3.027374 1_655
Ga4 Ga6 3.064687 1_555
Ga4 Ga5 3.064687 1_555
Ga4 Ga6 3.064687 1_565
Ga4 Ga5 3.064687 1_655
Ga5 Ga9 2.525730 1_555
Ga5 Ga6 2.929670 1_565
Ga5 Yb0 2.999489 1_565
Ga5 Ga8 3.027374 1_555
Ga5 Ga7 3.064687 1_555
Ga5 Ga7 3.064687 1_565
Ga6 Yb0 2.999489 1_555
Ga6 Ga8 3.027374 1_545
Ga6 Ga7 3.064687 1_555
Ga6 Ga7 3.064687 1_655
Ga7 Yb1 2.999489 1_555
Ga7 Ga9 3.027374 1_555
Ga8 Yb0 2.999489 1_566
Ga8 Ga9 3.064687 1_655
Ga8 Ga9 3.064687 1_555
Ga9 Yb1 2.999489 1_556
Ga10 Ga6 2.525730 1_555
Ga10 Ga2 2.589581 1_655
Ga10 Ga3 2.589581 1_555
Ga10 Ga9 2.929670 1_655
Ga10 Yb1 2.999489 1_656
Ga10 Ga7 3.027374 1_655
Ga10 Ga4 3.027374 1_555
Ga10 Ga8 3.064687 1_545
Ga10 Ga8 3.064687 1_555
Ga10 Ga11 3.064687 1_555
Ga10 Ga11 3.064687 1_655
Ga11 Ga7 2.525730 1_555
Ga11 Ga2 2.589581 1_555
Ga11 Ga3 2.589581 1_555
Ga11 Ga8 2.929670 1_545
Ga11 Yb0 2.999489 1_556
Ga11 Ga5 3.027374 1_545
Ga11 Ga6 3.027374 1_555
Ga11 Ga9 3.064687 1_555
Ga11 Ga9 3.064687 1_545
