# generated using pymatgen
data_Li2TiV3O8
_symmetry_space_group_name_H-M   'P 1'
_cell_length_a   8.45487800
_cell_length_b   8.45487800
_cell_length_c   8.48189300
_cell_angle_alpha   90.00000000
_cell_angle_beta   90.00000000
_cell_angle_gamma   90.00000000
_symmetry_Int_Tables_number   1
_chemical_formula_structural   Li2TiV3O8
_chemical_formula_sum   'Li8 Ti4 V12 O32'
_cell_volume   606.32779875
_cell_formula_units_Z   4
loop_
 _symmetry_equiv_pos_site_id
 _symmetry_equiv_pos_as_xyz
  1  'x, y, z'
loop_
 _atom_site_type_symbol
 _atom_site_label
 _atom_site_symmetry_multiplicity
 _atom_site_fract_x
 _atom_site_fract_y
 _atom_site_fract_z
 _atom_site_occupancy
  Li  Li0  1  0.75532500  0.00008800  0.62436800  1
  Li  Li1  1  0.99991200  0.24467500  0.87563200  1
  Li  Li2  1  0.00008800  0.75532500  0.37563200  1
  Li  Li3  1  0.24467500  0.99991200  0.12436800  1
  Li  Li4  1  0.25532500  0.49991200  0.62563200  1
  Li  Li5  1  0.49991200  0.25532500  0.37436800  1
  Li  Li6  1  0.50008800  0.74467500  0.87436800  1
  Li  Li7  1  0.74467500  0.50008800  0.12563200  1
  Ti  Ti0  1  0.87363200  0.87363200  0.00000000  1
  Ti  Ti1  1  0.12636800  0.12636800  0.50000000  1
  Ti  Ti2  1  0.37363200  0.62636800  0.25000000  1
  Ti  Ti3  1  0.62636800  0.37363200  0.75000000  1
  V  V0  1  0.87770200  0.12229800  0.25000000  1
  V  V1  1  0.87541000  0.37457800  0.50015700  1
  V  V2  1  0.87457800  0.62459000  0.75015700  1
  V  V3  1  0.12542200  0.37541000  0.25015700  1
  V  V4  1  0.12459000  0.62542200  0.00015700  1
  V  V5  1  0.12229800  0.87770200  0.75000000  1
  V  V6  1  0.37770200  0.37770200  0.00000000  1
  V  V7  1  0.37541000  0.12542200  0.74984300  1
  V  V8  1  0.37457800  0.87541000  0.49984300  1
  V  V9  1  0.62542200  0.12459000  0.99984300  1
  V  V10  1  0.62459000  0.87457800  0.24984300  1
  V  V11  1  0.62229800  0.62229800  0.50000000  1
  O  O0  1  0.86772600  0.11279800  0.01633200  1
  O  O1  1  0.87943400  0.89203500  0.23575200  1
  O  O2  1  0.85973400  0.61556900  0.50670200  1
  O  O3  1  0.88720200  0.13227400  0.48366800  1
  O  O4  1  0.86039600  0.38427700  0.74003600  1
  O  O5  1  0.88443100  0.35973400  0.25670200  1
  O  O6  1  0.88427700  0.63960400  0.99003600  1
  O  O7  1  0.89203500  0.87943400  0.76424800  1
  O  O8  1  0.10796500  0.12056600  0.26424800  1
  O  O9  1  0.11572300  0.36039600  0.49003600  1
  O  O10  1  0.11556900  0.64026600  0.75670200  1
  O  O11  1  0.13960400  0.61572300  0.24003600  1
  O  O12  1  0.11279800  0.86772600  0.98366800  1
  O  O13  1  0.14026600  0.38443100  0.00670200  1
  O  O14  1  0.12056600  0.10796500  0.73575200  1
  O  O15  1  0.13227400  0.88720200  0.51633200  1
  O  O16  1  0.36772600  0.38720200  0.23366800  1
  O  O17  1  0.37943400  0.60796500  0.01424800  1
  O  O18  1  0.35973400  0.88443100  0.74329800  1
  O  O19  1  0.38720200  0.36772600  0.76633200  1
  O  O20  1  0.36039600  0.11572300  0.50996400  1
  O  O21  1  0.38443100  0.14026600  0.99329800  1
  O  O22  1  0.38427700  0.86039600  0.25996400  1
  O  O23  1  0.39203500  0.62056600  0.48575200  1
  O  O24  1  0.60796500  0.37943400  0.98575200  1
  O  O25  1  0.61572300  0.13960400  0.75996400  1
  O  O26  1  0.61556900  0.85973400  0.49329800  1
  O  O27  1  0.63960400  0.88427700  0.00996400  1
  O  O28  1  0.61279800  0.63227400  0.26633200  1
  O  O29  1  0.64026600  0.11556900  0.24329800  1
  O  O30  1  0.62056600  0.39203500  0.51424800  1
  O  O31  1  0.63227400  0.61279800  0.73366800  1
loop_
_geom_bond_atom_site_label_1
_geom_bond_atom_site_label_2
_geom_bond_distance
_geom_bond_site_symmetry_2
Li0 O7 1.945332 1_545
Li0 O3 1.979017 1_555
Li0 O26 2.010062 1_545
Li0 O25 2.026657 1_555
Li1 O14 1.945332 1_655
Li1 O0 1.979017 1_556
Li1 O13 2.010062 1_656
Li1 O4 2.026657 1_555
Li2 O1 1.945332 1_455
Li2 O15 1.979017 1_555
Li2 O2 2.010062 1_455
Li2 O11 2.026657 1_555
Li3 O8 1.945332 1_565
Li3 O12 1.979017 1_554
Li3 O21 2.010062 1_564
Li3 O22 2.026657 1_555
Li4 O23 1.945332 1_555
Li4 O19 1.979017 1_555
Li4 O10 2.010062 1_555
Li4 O9 2.026657 1_555
Li5 O30 1.945332 1_555
Li5 O16 1.979017 1_555
Li5 O29 2.010062 1_555
Li5 O20 2.026657 1_555
Li6 O17 1.945332 1_556
Li6 O31 1.979017 1_555
Li6 O18 2.010062 1_555
Li6 O27 2.026657 1_556
Li7 O24 1.945332 1_554
Li7 O28 1.979017 1_555
Li7 O5 2.010062 1_555
Li7 O6 2.026657 1_554
O0 V0 1.985366 1_555
O0 Ti0 2.027474 1_545
O0 V9 2.055838 1_554
O1 V0 1.950648 1_565
O1 Ti0 2.006268 1_555
O1 V10 2.163029 1_555
O2 V11 2.009103 1_555
O2 V1 2.042610 1_555
O2 V2 2.070175 1_555
O3 V0 1.985366 1_555
O3 Ti1 2.027474 1_655
O3 V1 2.055838 1_555
O4 Ti3 1.982526 1_555
O4 V2 2.037162 1_555
O4 V1 2.040233 1_555
O5 V0 2.009103 1_555
O5 V3 2.042610 1_655
O5 V1 2.070175 1_555
O6 Ti0 1.982526 1_556
O6 V4 2.037162 1_656
O6 V2 2.040233 1_555
O7 V5 1.950648 1_655
O7 Ti0 2.006268 1_556
O7 V2 2.163029 1_555
O8 V0 1.950648 1_455
O8 Ti1 2.006268 1_555
O8 V3 2.163029 1_555
O9 Ti1 1.982526 1_555
O9 V1 2.037162 1_455
O9 V3 2.040233 1_555
O10 V5 2.009103 1_555
O10 V2 2.042610 1_455
O10 V4 2.070175 1_556
O11 Ti2 1.982526 1_555
O11 V3 2.037162 1_555
O11 V4 2.040233 1_555
O12 V5 1.985366 1_555
O12 Ti0 2.027474 1_456
O12 V4 2.055838 1_556
O13 V6 2.009103 1_555
O13 V4 2.042610 1_555
O13 V3 2.070175 1_555
O14 V5 1.950648 1_545
O14 Ti1 2.006268 1_555
O14 V7 2.163029 1_555
O15 V5 1.985366 1_555
O15 Ti1 2.027474 1_565
O15 V8 2.055838 1_555
O16 V6 1.985366 1_555
O16 Ti2 2.027474 1_555
O16 V3 2.055838 1_555
O17 V6 1.950648 1_555
O17 Ti2 2.006268 1_555
O17 V4 2.163029 1_555
O18 V5 2.009103 1_555
O18 V7 2.042610 1_565
O18 V8 2.070175 1_555
O19 V6 1.985366 1_556
O19 Ti3 2.027474 1_555
O19 V7 2.055838 1_555
O20 Ti1 1.982526 1_555
O20 V8 2.037162 1_545
O20 V7 2.040233 1_555
O21 V6 2.009103 1_556
O21 V9 2.042610 1_555
O21 V7 2.070175 1_555
O22 Ti2 1.982526 1_555
O22 V10 2.037162 1_555
O22 V8 2.040233 1_555
O23 V11 1.950648 1_555
O23 Ti2 2.006268 1_555
O23 V8 2.163029 1_555
O24 V6 1.950648 1_556
O24 Ti3 2.006268 1_555
O24 V9 2.163029 1_555
O25 Ti3 1.982526 1_555
O25 V7 2.037162 1_555
O25 V9 2.040233 1_555
O26 V11 2.009103 1_555
O26 V8 2.042610 1_555
O26 V10 2.070175 1_555
O27 Ti0 1.982526 1_555
O27 V9 2.037162 1_564
O27 V10 2.040233 1_555
O28 V11 1.985366 1_555
O28 Ti2 2.027474 1_555
O28 V10 2.055838 1_555
O29 V0 2.009103 1_555
O29 V10 2.042610 1_545
O29 V9 2.070175 1_554
O30 V11 1.950648 1_555
O30 Ti3 2.006268 1_555
O30 V1 2.163029 1_555
O31 V11 1.985366 1_555
O31 Ti3 2.027474 1_555
O31 V2 2.055838 1_555
