# generated using pymatgen
data_TaNb(Cu3Se4)2
_symmetry_space_group_name_H-M   'P 1'
_cell_length_a   8.04962299
_cell_length_b   8.04962299
_cell_length_c   8.04962299
_cell_angle_alpha   60.00000000
_cell_angle_beta   60.00000000
_cell_angle_gamma   60.00000000
_symmetry_Int_Tables_number   1
_chemical_formula_structural   TaNb(Cu3Se4)2
_chemical_formula_sum   'Ta1 Nb1 Cu6 Se8'
_cell_volume   368.81758748
_cell_formula_units_Z   1
loop_
 _symmetry_equiv_pos_site_id
 _symmetry_equiv_pos_as_xyz
  1  'x, y, z'
loop_
 _atom_site_type_symbol
 _atom_site_label
 _atom_site_symmetry_multiplicity
 _atom_site_fract_x
 _atom_site_fract_y
 _atom_site_fract_z
 _atom_site_occupancy
  Ta  Ta0  1  0.50000000  0.50000000  0.50000000  1
  Nb  Nb0  1  0.00000000  0.00000000  0.00000000  1
  Cu  Cu0  1  0.75006700  0.24993300  0.24993300  1
  Cu  Cu1  1  0.24993300  0.75006700  0.75006700  1
  Cu  Cu2  1  0.75006700  0.24993300  0.75006700  1
  Cu  Cu3  1  0.24993300  0.75006700  0.24993300  1
  Cu  Cu4  1  0.24993300  0.24993300  0.75006700  1
  Cu  Cu5  1  0.75006700  0.75006700  0.24993300  1
  Se  Se0  1  0.87475300  0.87475300  0.37574200  1
  Se  Se1  1  0.37494300  0.37494300  0.87517200  1
  Se  Se2  1  0.87475300  0.87475300  0.87475300  1
  Se  Se3  1  0.37494300  0.37494300  0.37494300  1
  Se  Se4  1  0.37574200  0.87475300  0.87475300  1
  Se  Se5  1  0.87517200  0.37494300  0.37494300  1
  Se  Se6  1  0.87475300  0.37574200  0.87475300  1
  Se  Se7  1  0.37494300  0.87517200  0.37494300  1
loop_
_geom_bond_atom_site_label_1
_geom_bond_atom_site_label_2
_geom_bond_distance
_geom_bond_site_symmetry_2
Nb0 Se2 2.469554 1_444
Nb0 Se4 2.469560 1_544
Nb0 Se0 2.469560 1_445
Nb0 Se6 2.469560 1_454
Cu0 Se3 2.465499 1_555
Cu0 Se5 2.465505 1_555
Cu0 Se0 2.465872 1_545
Cu0 Se6 2.465872 1_554
Cu1 Se7 2.465499 1_555
Cu1 Se1 2.465499 1_555
Cu1 Se2 2.465872 1_455
Cu1 Se4 2.465879 1_555
Cu2 Se1 2.465499 1_555
Cu2 Se5 2.465499 1_555
Cu2 Se2 2.465872 1_545
Cu2 Se6 2.465879 1_555
Cu3 Se3 2.465499 1_555
Cu3 Se7 2.465505 1_555
Cu3 Se4 2.465872 1_554
Cu3 Se0 2.465872 1_455
Cu4 Se3 2.465499 1_555
Cu4 Se1 2.465505 1_555
Cu4 Se4 2.465872 1_545
Cu4 Se6 2.465872 1_455
Cu5 Se7 2.465499 1_555
Cu5 Se5 2.465499 1_555
Cu5 Se2 2.465872 1_554
Cu5 Se0 2.465879 1_555
Se1 Ta0 2.465814 1_555
Se3 Ta0 2.465808 1_555
Se5 Ta0 2.465814 1_555
Se7 Ta0 2.465814 1_555
