# generated using pymatgen
data_RbBi3Se5
_symmetry_space_group_name_H-M   'P 1'
_cell_length_a   18.64438330
_cell_length_b   18.64438330
_cell_length_c   25.07573846
_cell_angle_alpha   60.47604993
_cell_angle_beta   60.47604993
_cell_angle_gamma   13.46874390
_symmetry_Int_Tables_number   1
_chemical_formula_structural   RbBi3Se5
_chemical_formula_sum   'Rb6 Bi18 Se30'
_cell_volume   1762.65691246
_cell_formula_units_Z   6
loop_
 _symmetry_equiv_pos_site_id
 _symmetry_equiv_pos_as_xyz
  1  'x, y, z'
loop_
 _atom_site_type_symbol
 _atom_site_label
 _atom_site_symmetry_multiplicity
 _atom_site_fract_x
 _atom_site_fract_y
 _atom_site_fract_z
 _atom_site_occupancy
  Rb  Rb0  1  0.82656200  0.82656200  0.69250700  1
  Rb  Rb1  1  0.17343800  0.17343800  0.30749300  1
  Rb  Rb2  1  0.52263500  0.52263500  0.28849100  1
  Rb  Rb3  1  0.47736500  0.47736500  0.71150900  1
  Rb  Rb4  1  0.33858400  0.33858400  0.15184900  1
  Rb  Rb5  1  0.66141600  0.66141600  0.84815100  1
  Bi  Bi0  1  0.84312400  0.84312400  0.84014900  1
  Bi  Bi1  1  0.15687600  0.15687600  0.15985100  1
  Bi  Bi2  1  0.61140100  0.61140100  0.06177300  1
  Bi  Bi3  1  0.38859900  0.38859900  0.93822700  1
  Bi  Bi4  1  0.69448300  0.69448300  0.50817800  1
  Bi  Bi5  1  0.30551700  0.30551700  0.49182200  1
  Bi  Bi6  1  0.45640400  0.45640400  0.16046200  1
  Bi  Bi7  1  0.54359600  0.54359600  0.83953800  1
  Bi  Bi8  1  0.77716300  0.77716300  0.05439500  1
  Bi  Bi9  1  0.22283700  0.22283700  0.94560500  1
  Bi  Bi10  1  0.88809500  0.88809500  0.32402000  1
  Bi  Bi11  1  0.11190500  0.11190500  0.67598000  1
  Bi  Bi12  1  0.91130500  0.91130500  0.48500800  1
  Bi  Bi13  1  0.08869500  0.08869500  0.51499200  1
  Bi  Bi14  1  0.50000000  0.50000000  0.50000000  1
  Bi  Bi15  1  0.72505700  0.72505700  0.65806700  1
  Bi  Bi16  1  0.27494300  0.27494300  0.34193300  1
  Bi  Bi17  1  0.00000000  0.00000000  0.00000000  1
  Se  Se0  1  0.81343800  0.81343800  0.56119900  1
  Se  Se1  1  0.18656200  0.18656200  0.43880100  1
  Se  Se2  1  0.60328600  0.60328600  0.59330700  1
  Se  Se3  1  0.39671400  0.39671400  0.40669300  1
  Se  Se4  1  0.62997800  0.62997800  0.24240400  1
  Se  Se5  1  0.37002200  0.37002200  0.75759600  1
  Se  Se6  1  0.97018000  0.97018000  0.23470000  1
  Se  Se7  1  0.02982000  0.02982000  0.76530000  1
  Se  Se8  1  0.85818400  0.85818400  0.03255900  1
  Se  Se9  1  0.14181600  0.14181600  0.96744100  1
  Se  Se10  1  0.78745700  0.78745700  0.42295900  1
  Se  Se11  1  0.21254300  0.21254300  0.57704100  1
  Se  Se12  1  0.59214700  0.59214700  0.43873600  1
  Se  Se13  1  0.40785300  0.40785300  0.56126400  1
  Se  Se14  1  0.76419400  0.76419400  0.28018200  1
  Se  Se15  1  0.23580600  0.23580600  0.71981800  1
  Se  Se16  1  0.92424300  0.92424300  0.12118200  1
  Se  Se17  1  0.07575700  0.07575700  0.87881800  1
  Se  Se18  1  0.53238200  0.53238200  0.04494400  1
  Se  Se19  1  0.46761800  0.46761800  0.95505600  1
  Se  Se20  1  0.99933700  0.99933700  0.41997600  1
  Se  Se21  1  0.00066300  0.00066300  0.58002400  1
  Se  Se22  1  0.24821300  0.24821300  0.13816200  1
  Se  Se23  1  0.75178700  0.75178700  0.86183800  1
  Se  Se24  1  0.91710100  0.91710100  0.84818900  1
  Se  Se25  1  0.08289900  0.08289900  0.15181100  1
  Se  Se26  1  0.69147400  0.69147400  0.05197300  1
  Se  Se27  1  0.30852600  0.30852600  0.94802700  1
  Se  Se28  1  0.36741900  0.36741900  0.26952900  1
  Se  Se29  1  0.63258100  0.63258100  0.73047100  1
loop_
_geom_bond_atom_site_label_1
_geom_bond_atom_site_label_2
_geom_bond_distance
_geom_bond_site_symmetry_2
Rb0 Se5 3.555433 1_565
Rb0 Se5 3.555433 1_655
Rb0 Se0 3.558906 1_555
Rb0 Se23 3.745452 1_555
Rb0 Se15 3.776264 1_565
Rb0 Se15 3.776264 1_655
Rb0 Se13 3.852411 1_655
Rb0 Se13 3.852411 1_565
Rb1 Se4 3.555433 1_455
Rb1 Se4 3.555433 1_545
Rb1 Se1 3.558906 1_555
Rb1 Se22 3.745452 1_555
Rb1 Se14 3.776264 1_455
Rb1 Se14 3.776264 1_545
Rb1 Se12 3.852411 1_455
Rb1 Se12 3.852411 1_545
Rb2 Se4 3.546507 1_555
Rb2 Se6 3.601818 1_455
Rb2 Se6 3.601818 1_545
Rb2 Se20 3.684055 1_545
Rb2 Se20 3.684055 1_455
Rb2 Se25 3.730484 1_655
Rb2 Se25 3.730484 1_565
Rb3 Se5 3.546507 1_555
Rb3 Se7 3.601818 1_565
Rb3 Se7 3.601818 1_655
Rb3 Se21 3.684055 1_655
Rb3 Se21 3.684055 1_565
Rb3 Se24 3.730484 1_455
Rb3 Se24 3.730484 1_545
Rb4 Se8 3.478520 1_455
Rb4 Se8 3.478520 1_545
Rb4 Se22 3.529479 1_555
Rb4 Se28 3.602111 1_555
Rb4 Se16 3.607325 1_455
Rb4 Se16 3.607325 1_545
Rb4 Se14 3.731884 1_455
Rb4 Se14 3.731884 1_545
Rb5 Se9 3.478520 1_655
Rb5 Se9 3.478520 1_565
Rb5 Se23 3.529479 1_555
Rb5 Se29 3.602111 1_555
Rb5 Se17 3.607325 1_655
Rb5 Se17 3.607325 1_565
Rb5 Se15 3.731884 1_565
Rb5 Se15 3.731884 1_655
Bi0 Se5 2.830413 1_655
Bi0 Se5 2.830413 1_565
Bi0 Se24 2.844909 1_555
Bi0 Se23 3.148086 1_555
Bi0 Se27 3.209329 1_565
Bi0 Se27 3.209329 1_655
Bi1 Se4 2.830413 1_455
Bi1 Se4 2.830413 1_545
Bi1 Se25 2.844909 1_555
Bi1 Se22 3.148086 1_555
Bi1 Se26 3.209329 1_545
Bi1 Se26 3.209329 1_455
Bi2 Se26 2.851276 1_555
Bi2 Se25 2.937136 1_565
Bi2 Se25 2.937136 1_655
Bi2 Se9 3.000008 1_654
Bi2 Se9 3.000008 1_564
Bi2 Se18 3.156925 1_555
Bi3 Se27 2.851276 1_555
Bi3 Se24 2.937136 1_455
Bi3 Se24 2.937136 1_545
Bi3 Se8 3.000008 1_546
Bi3 Se8 3.000008 1_456
Bi3 Se19 3.156925 1_555
Bi4 Se1 2.898125 1_655
Bi4 Se1 2.898125 1_565
Bi4 Se2 2.967750 1_555
Bi4 Se10 3.019745 1_555
Bi4 Se11 3.058655 1_655
Bi4 Se11 3.058655 1_565
Bi5 Se0 2.898125 1_545
Bi5 Se0 2.898125 1_455
Bi5 Se3 2.967750 1_555
Bi5 Se11 3.019745 1_555
Bi5 Se10 3.058655 1_455
Bi5 Se10 3.058655 1_545
Bi6 Se18 2.866838 1_555
Bi6 Se16 2.886685 1_545
Bi6 Se16 2.886685 1_455
Bi6 Se28 3.065050 1_555
Bi6 Se6 3.073818 1_545
Bi6 Se6 3.073818 1_455
Bi7 Se19 2.866838 1_555
Bi7 Se17 2.886685 1_655
Bi7 Se17 2.886685 1_565
Bi7 Se29 3.065050 1_555
Bi7 Se7 3.073818 1_565
Bi7 Se7 3.073818 1_655
Bi8 Se8 2.769728 1_555
Bi8 Se22 2.847254 1_565
Bi8 Se22 2.847254 1_655
Bi8 Se27 3.188887 1_564
Bi8 Se27 3.188887 1_654
Bi8 Se26 3.203762 1_555
Bi9 Se9 2.769728 1_555
Bi9 Se23 2.847254 1_545
Bi9 Se23 2.847254 1_455
Bi9 Se26 3.188887 1_546
Bi9 Se26 3.188887 1_456
Bi9 Se27 3.203762 1_555
Bi10 Se6 2.738580 1_555
Bi10 Se28 2.876065 1_655
Bi10 Se28 2.876065 1_565
Bi10 Se3 3.136304 1_565
Bi10 Se3 3.136304 1_655
Bi10 Se10 3.296682 1_555
Bi11 Se7 2.738580 1_555
Bi11 Se29 2.876065 1_455
Bi11 Se29 2.876065 1_545
Bi11 Se2 3.136304 1_545
Bi11 Se2 3.136304 1_455
Bi11 Se11 3.296682 1_555
Bi12 Se20 2.830331 1_555
Bi12 Se13 2.865371 1_565
Bi12 Se13 2.865371 1_655
Bi12 Se0 3.148504 1_555
Bi12 Se3 3.159386 1_565
Bi12 Se3 3.159386 1_655
Bi13 Se21 2.830331 1_555
Bi13 Se12 2.865371 1_545
Bi13 Se12 2.865371 1_455
Bi13 Se1 3.148504 1_555
Bi13 Se2 3.159386 1_455
Bi13 Se2 3.159386 1_545
Bi14 Se12 2.966758 1_555
Bi14 Se13 2.966758 1_555
Bi14 Se20 2.975964 1_545
Bi14 Se20 2.975964 1_455
Bi14 Se21 2.975964 1_565
Bi14 Se21 2.975964 1_655
Bi15 Se15 2.819223 1_565
Bi15 Se15 2.819223 1_655
Bi15 Se0 2.953348 1_555
Bi15 Se29 2.975452 1_555
Bi15 Se11 3.171357 1_655
Bi15 Se11 3.171357 1_565
Bi16 Se14 2.819223 1_545
Bi16 Se14 2.819223 1_455
Bi16 Se1 2.953348 1_555
Bi16 Se28 2.975452 1_555
Bi16 Se10 3.171357 1_545
Bi16 Se10 3.171357 1_455
Bi17 Se16 2.940047 1_445
Bi17 Se17 2.940047 1_554
Bi17 Se18 2.971447 1_455
Bi17 Se19 2.971447 1_454
Bi17 Se18 2.971447 1_545
Bi17 Se19 2.971447 1_544
