# generated using pymatgen
data_Er2BPd6
_symmetry_space_group_name_H-M   'P 1'
_cell_length_a   4.25194517
_cell_length_b   4.25194517
_cell_length_c   7.98138232
_cell_angle_alpha   90.00000000
_cell_angle_beta   90.00000000
_cell_angle_gamma   90.00000000
_symmetry_Int_Tables_number   1
_chemical_formula_structural   Er2BPd6
_chemical_formula_sum   'Er2 B1 Pd6'
_cell_volume   144.29571209
_cell_formula_units_Z   1
loop_
 _symmetry_equiv_pos_site_id
 _symmetry_equiv_pos_as_xyz
  1  'x, y, z'
loop_
 _atom_site_type_symbol
 _atom_site_label
 _atom_site_symmetry_multiplicity
 _atom_site_fract_x
 _atom_site_fract_y
 _atom_site_fract_z
 _atom_site_occupancy
  Er  Er0  1  -0.00000000  -0.00000000  0.99018705  1
  Er  Er1  1  -0.00000000  0.00000000  0.50981295  1
  B  B0  1  0.50000000  0.50000000  0.25000000  1
  Pd  Pd0  1  0.50000000  0.50000000  0.98849247  1
  Pd  Pd1  1  0.50000000  0.50000000  0.51150753  1
  Pd  Pd2  1  0.50000000  0.00000000  0.25000000  1
  Pd  Pd3  1  0.50000000  0.00000000  0.75000000  1
  Pd  Pd4  1  -0.00000000  0.50000000  0.25000000  1
  Pd  Pd5  1  -0.00000000  0.50000000  0.75000000  1
loop_
_geom_bond_atom_site_label_1
_geom_bond_atom_site_label_2
_geom_bond_distance
_geom_bond_site_symmetry_2
Er0 Pd3 2.862646 1_455
Er0 Pd5 2.862646 1_555
Er0 Pd3 2.862646 1_555
Er0 Pd5 2.862646 1_545
Er0 Pd2 2.969824 1_456
Er0 Pd4 2.969824 1_556
Er0 Pd2 2.969824 1_556
Er0 Pd4 2.969824 1_546
Er0 Pd0 3.006610 1_555
Er0 Pd0 3.006610 1_545
Er0 Pd0 3.006610 1_445
Er0 Pd0 3.006610 1_455
Er1 Pd3 2.862646 1_455
Er1 Pd5 2.862646 1_555
Er1 Pd3 2.862646 1_555
Er1 Pd5 2.862646 1_545
Er1 Pd2 2.969824 1_555
Er1 Pd4 2.969824 1_555
Er1 Pd2 2.969824 1_455
Er1 Pd4 2.969824 1_545
Er1 Pd1 3.006610 1_555
Er1 Pd1 3.006610 1_445
Er1 Pd1 3.006610 1_455
Er1 Pd1 3.006610 1_545
B0 Pd1 2.087192 1_555
B0 Pd0 2.087192 1_554
B0 Pd4 2.125973 1_655
B0 Pd2 2.125973 1_565
B0 Pd2 2.125973 1_555
B0 Pd4 2.125973 1_555
