# generated using pymatgen
data_Te2Mo2WSe4
_symmetry_space_group_name_H-M   'P 1'
_cell_length_a   3.39838324
_cell_length_b   3.39838324
_cell_length_c   31.41386700
_cell_angle_alpha   90.00000000
_cell_angle_beta   90.00000000
_cell_angle_gamma   119.99998523
_symmetry_Int_Tables_number   1
_chemical_formula_structural   Te2Mo2WSe4
_chemical_formula_sum   'Te2 Mo2 W1 Se4'
_cell_volume   314.19321619
_cell_formula_units_Z   1
loop_
 _symmetry_equiv_pos_site_id
 _symmetry_equiv_pos_as_xyz
  1  'x, y, z'
loop_
 _atom_site_type_symbol
 _atom_site_label
 _atom_site_symmetry_multiplicity
 _atom_site_fract_x
 _atom_site_fract_y
 _atom_site_fract_z
 _atom_site_occupancy
  Te  Te0  1  0.33333300  0.66666700  0.05604100  1
  Te  Te1  1  0.33333300  0.66666700  0.17528200  1
  Mo  Mo0  1  0.00000000  0.00000000  0.11564600  1
  Mo  Mo1  1  0.33333300  0.66666700  0.34699700  1
  W  W0  1  0.00000000  0.00000000  0.57829900  1
  Se  Se0  1  0.00000000  0.00000000  0.39948300  1
  Se  Se1  1  0.33333300  0.66666700  0.52563500  1
  Se  Se2  1  0.33333300  0.66666700  0.63096100  1
  Se  Se3  1  0.00000000  0.00000000  0.29449700  1
loop_
_geom_bond_atom_site_label_1
_geom_bond_atom_site_label_2
_geom_bond_distance
_geom_bond_site_symmetry_2
Mo0 Te0 2.712127 1_545
Mo0 Te0 2.712129 1_555
Mo0 Te0 2.712129 1_445
Mo0 Te1 2.712799 1_545
Mo0 Te1 2.712802 1_445
Mo0 Te1 2.712802 1_555
Mo1 Se0 2.562843 1_565
Mo1 Se0 2.562846 1_665
Mo1 Se0 2.562846 1_555
Mo1 Se3 2.563126 1_565
Mo1 Se3 2.563128 1_555
Mo1 Se3 2.563128 1_665
Se1 W0 2.566444 1_565
Se1 W0 2.566446 1_555
Se1 W0 2.566446 1_665
Se2 W0 2.566403 1_565
Se2 W0 2.566406 1_555
Se2 W0 2.566406 1_665
