# generated using pymatgen
data_Zn4P3H7(NO6)2
_symmetry_space_group_name_H-M   'P 1'
_cell_length_a   5.31267000
_cell_length_b   8.19616091
_cell_length_c   16.14735823
_cell_angle_alpha   94.45177046
_cell_angle_beta   92.21980823
_cell_angle_gamma   108.46891706
_symmetry_Int_Tables_number   1
_chemical_formula_structural   Zn4P3H7(NO6)2
_chemical_formula_sum   'Zn8 P6 H14 N4 O24'
_cell_volume   663.39473192
_cell_formula_units_Z   2
loop_
 _symmetry_equiv_pos_site_id
 _symmetry_equiv_pos_as_xyz
  1  'x, y, z'
loop_
 _atom_site_type_symbol
 _atom_site_label
 _atom_site_symmetry_multiplicity
 _atom_site_fract_x
 _atom_site_fract_y
 _atom_site_fract_z
 _atom_site_occupancy
  Zn  Zn0  1  0.21342700  0.33490600  0.04377400  1
  Zn  Zn1  1  0.78657300  0.66509400  0.95622600  1
  Zn  Zn2  1  0.61350200  0.13301900  0.12949900  1
  Zn  Zn3  1  0.38649800  0.86698100  0.87050100  1
  Zn  Zn4  1  0.18969300  0.49801600  0.39329600  1
  Zn  Zn5  1  0.81030700  0.50198400  0.60670400  1
  Zn  Zn6  1  0.92082400  0.07664400  0.38638000  1
  Zn  Zn7  1  0.07917600  0.92335600  0.61362000  1
  P  P0  1  0.63654000  0.25894200  0.94150600  1
  P  P1  1  0.36346000  0.74105800  0.05849400  1
  P  P2  1  0.17535600  0.25380000  0.22733400  1
  P  P3  1  0.82464400  0.74620000  0.77266600  1
  P  P4  1  0.79366400  0.70253400  0.44717100  1
  P  P5  1  0.20633600  0.29746600  0.55282900  1
  H  H0  1  0.55150000  0.18443100  0.43724100  1
  H  H1  1  0.44850000  0.81556900  0.56275900  1
  H  H2  1  0.49925200  0.13026400  0.33534600  1
  H  H3  1  0.50074800  0.86973600  0.66465400  1
  H  H4  1  0.41763500  0.97810000  0.40087500  1
  H  H5  1  0.58236500  0.02190000  0.59912500  1
  H  H6  1  0.96883000  0.65030300  0.17614800  1
  H  H7  1  0.03117000  0.34969700  0.82385200  1
  H  H8  1  0.84352300  0.59344900  0.26861000  1
  H  H9  1  0.15647700  0.40655100  0.73139000  1
  H  H10  1  0.64795200  0.61870200  0.18694100  1
  H  H11  1  0.35204800  0.38129800  0.81305900  1
  H  H12  1  0.88166600  0.79329700  0.23798200  1
  H  H13  1  0.11833400  0.20670300  0.76201800  1
  N  N0  1  0.55557800  0.09308800  0.39047300  1
  N  N1  1  0.44442200  0.90691200  0.60952700  1
  N  N2  1  0.83550000  0.66349400  0.21874300  1
  N  N3  1  0.16450000  0.33650600  0.78125700  1
  O  O0  1  0.49300400  0.21678800  0.02536400  1
  O  O1  1  0.50699600  0.78321200  0.97463600  1
  O  O2  1  0.58612600  0.42496000  0.91527300  1
  O  O3  1  0.41387400  0.57504000  0.08472700  1
  O  O4  1  0.93635400  0.28479200  0.95437400  1
  O  O5  1  0.06364600  0.71520800  0.04562600  1
  O  O6  1  0.50638300  0.11462100  0.87167900  1
  O  O7  1  0.49361700  0.88537900  0.12832100  1
  O  O8  1  0.01089700  0.23473400  0.14057000  1
  O  O9  1  0.98910300  0.76526600  0.85943000  1
  O  O10  1  0.03281000  0.09300000  0.27221300  1
  O  O11  1  0.96719000  0.90700000  0.72778700  1
  O  O12  1  0.18199100  0.42589000  0.27491600  1
  O  O13  1  0.81800900  0.57411000  0.72508400  1
  O  O14  1  0.46203900  0.25996200  0.21007500  1
  O  O15  1  0.53796100  0.74003800  0.78992500  1
  O  O16  1  0.84887500  0.70951300  0.54489400  1
  O  O17  1  0.15112500  0.29048700  0.45510600  1
  O  O18  1  0.98453300  0.86990300  0.41847800  1
  O  O19  1  0.01546700  0.13009700  0.58152200  1
  O  O20  1  0.50024500  0.69315300  0.43179100  1
  O  O21  1  0.49975500  0.30684700  0.56820900  1
  O  O22  1  0.84804900  0.54390900  0.40369400  1
  O  O23  1  0.15195100  0.45609100  0.59630600  1
loop_
_geom_bond_atom_site_label_1
_geom_bond_atom_site_label_2
_geom_bond_distance
_geom_bond_site_symmetry_2
H0 N0 1.027149 1_555
H1 N1 1.027149 1_555
H2 N0 1.026647 1_555
H3 N1 1.026647 1_555
H4 N0 1.024703 1_565
H5 N1 1.024703 1_545
H6 N2 1.030153 1_555
H7 N3 1.030153 1_555
H8 N2 1.031696 1_555
H9 N3 1.031696 1_555
H10 N2 1.044314 1_555
H11 N3 1.044314 1_555
H12 N2 1.032466 1_555
H13 N3 1.032466 1_555
N0 Zn6 1.990492 1_555
N1 Zn7 1.990492 1_555
O0 P0 1.587484 1_554
O0 Zn2 2.020639 1_555
O0 Zn0 2.032809 1_555
O1 P1 1.587484 1_556
O1 Zn3 2.020639 1_555
O1 Zn1 2.032809 1_555
O2 P0 1.553799 1_555
O2 Zn1 1.964817 1_555
O3 P1 1.553799 1_555
O3 Zn0 1.964817 1_555
O4 P0 1.542345 1_555
O4 Zn0 1.944135 1_656
O5 P1 1.542345 1_555
O5 Zn1 1.944135 1_454
O6 P0 1.537198 1_555
O6 Zn3 1.923462 1_545
O7 P1 1.537198 1_555
O7 Zn2 1.923462 1_565
O8 P2 1.592265 1_555
O8 Zn2 2.004179 1_455
O8 Zn0 2.011109 1_555
O9 P3 1.592265 1_555
O9 Zn3 2.004179 1_655
O9 Zn1 2.011109 1_555
O10 P2 1.547272 1_555
O10 Zn6 1.960409 1_455
O11 P3 1.547272 1_555
O11 Zn7 1.960409 1_655
O12 P2 1.542458 1_555
O12 Zn4 1.951476 1_555
O13 P3 1.542458 1_555
O13 Zn5 1.951476 1_555
O14 P2 1.544744 1_555
O14 Zn2 1.955571 1_555
O15 P3 1.544744 1_555
O15 Zn3 1.955571 1_555
O16 P4 1.587071 1_555
O16 Zn5 1.997472 1_555
O16 Zn7 2.008641 1_655
O17 P5 1.587071 1_555
O17 Zn4 1.997472 1_555
O17 Zn6 2.008641 1_455
O18 P4 1.542217 1_555
O18 Zn6 1.934059 1_565
O19 P5 1.542217 1_555
O19 Zn7 1.934059 1_545
O20 P4 1.545533 1_555
O20 Zn4 1.939273 1_555
O21 P5 1.545533 1_555
O21 Zn5 1.939273 1_555
O22 P4 1.542291 1_555
O22 Zn4 1.977477 1_655
O23 P5 1.542291 1_555
O23 Zn5 1.977477 1_455
