# generated using pymatgen
data_Mg9Si5
_symmetry_space_group_name_H-M   'P 1'
_cell_length_a   6.88516300
_cell_length_b   7.35885731
_cell_length_c   13.01450183
_cell_angle_alpha   94.64589559
_cell_angle_beta   89.23959858
_cell_angle_gamma   116.67296501
_symmetry_Int_Tables_number   1
_chemical_formula_structural   Mg9Si5
_chemical_formula_sum   'Mg18 Si10'
_cell_volume   587.09978750
_cell_formula_units_Z   2
loop_
 _symmetry_equiv_pos_site_id
 _symmetry_equiv_pos_as_xyz
  1  'x, y, z'
loop_
 _atom_site_type_symbol
 _atom_site_label
 _atom_site_symmetry_multiplicity
 _atom_site_fract_x
 _atom_site_fract_y
 _atom_site_fract_z
 _atom_site_occupancy
  Mg  Mg0  1  0.36941800  0.06498000  0.68148100  1
  Mg  Mg1  1  0.72754900  0.05875300  0.46735400  1
  Mg  Mg2  1  0.12924100  0.64104400  0.53944300  1
  Mg  Mg3  1  0.83251100  0.66571500  0.36192900  1
  Mg  Mg4  1  0.70989600  0.71163700  0.59995200  1
  Mg  Mg5  1  0.46997500  0.31625500  0.47368300  1
  Mg  Mg6  1  0.79386200  0.12463400  0.11872400  1
  Mg  Mg7  1  0.35606600  0.98655000  0.94027800  1
  Mg  Mg8  1  0.83199800  0.57530600  0.03611900  1
  Mg  Mg9  1  0.81884900  0.21674300  0.89167600  1
  Mg  Mg10  1  0.40394100  0.23050000  0.15727100  1
  Mg  Mg11  1  0.28173100  0.48796500  0.01406500  1
  Mg  Mg12  1  0.31289100  0.92236800  0.33300900  1
  Mg  Mg13  1  0.95807300  0.14604300  0.67603900  1
  Mg  Mg14  1  0.10303200  0.28505400  0.32542600  1
  Mg  Mg15  1  0.11714900  0.59299100  0.78109100  1
  Mg  Mg16  1  0.53081300  0.69176200  0.20959500  1
  Mg  Mg17  1  0.61434100  0.49625100  0.80609500  1
  Si  Si0  1  0.98954700  0.90679600  0.20112600  1
  Si  Si1  1  0.08663800  0.99144100  0.50716500  1
  Si  Si2  1  0.96933200  0.87739800  0.83978400  1
  Si  Si3  1  0.66332500  0.82006400  0.95241100  1
  Si  Si4  1  0.70634100  0.26755900  0.30732900  1
  Si  Si5  1  0.55580100  0.84864700  0.77037600  1
  Si  Si6  1  0.25222700  0.81201300  0.11792300  1
  Si  Si7  1  0.21058100  0.23666900  0.84387600  1
  Si  Si8  1  0.76750600  0.37653000  0.62950100  1
  Si  Si9  1  0.43741400  0.64829900  0.41702000  1
loop_
_geom_bond_atom_site_label_1
_geom_bond_atom_site_label_2
_geom_bond_distance
_geom_bond_site_symmetry_2
Mg0 Si5 2.773359 1_545
Mg0 Si8 2.790481 1_555
Mg0 Si7 2.829433 1_555
Mg0 Si1 2.864041 1_545
Mg0 Mg13 3.148185 1_455
Mg1 Si4 2.729049 1_555
Mg1 Si1 2.793131 1_645
Mg1 Si9 2.800000 1_545
Mg1 Si8 2.938669 1_555
Mg1 Mg13 3.037195 1_555
Mg2 Si9 2.620276 1_555
Mg2 Si8 2.702843 1_455
Mg2 Si1 2.787306 1_555
Mg3 Si4 2.690409 1_555
Mg3 Si0 2.741414 1_555
Mg3 Si9 2.753302 1_555
Mg3 Si1 2.822798 1_655
Mg4 Si8 2.724382 1_555
Mg4 Si5 2.756321 1_555
Mg4 Si1 2.819730 1_655
Mg4 Si9 2.925529 1_555
Mg5 Si1 2.709909 1_545
Mg5 Si9 2.711585 1_555
Mg5 Si8 2.766663 1_555
Mg5 Si4 2.787215 1_555
Mg6 Si4 2.757885 1_555
Mg6 Si0 2.791238 1_545
Mg6 Si3 2.823717 1_544
Mg7 Si6 2.668094 1_556
Mg7 Si2 2.729085 1_455
Mg7 Si7 2.833361 1_565
Mg7 Si3 2.892839 1_555
Mg7 Si5 2.935833 1_555
Mg8 Si6 2.792068 1_655
Mg8 Si3 2.830025 1_554
Mg8 Si0 2.928569 1_555
Mg9 Si7 2.701524 1_655
Mg9 Si3 2.799567 1_545
Mg9 Si5 2.844014 1_545
Mg10 Si6 2.776306 1_545
Mg10 Si4 2.781225 1_555
Mg10 Si0 2.866330 1_445
Mg11 Si7 2.667876 1_554
Mg11 Si6 2.731328 1_555
Mg11 Si3 2.831311 1_554
Mg12 Si0 2.784952 1_455
Mg12 Si4 2.799702 1_565
Mg12 Si9 2.816497 1_555
Mg12 Si6 2.833360 1_555
Mg12 Si1 2.872783 1_555
Mg13 Si7 2.657526 1_655
Mg13 Si8 2.674086 1_555
Mg13 Si1 2.712146 1_645
Mg13 Mg4 2.957611 1_545
Mg13 Si5 2.978455 1_545
Mg13 Mg9 3.034024 1_555
Mg13 Si2 3.046323 1_545
Mg13 Mg15 3.156526 1_655
Mg14 Si4 2.688571 1_455
Mg14 Si9 2.810383 1_555
Mg14 Si0 2.885663 1_445
Mg15 Si5 2.758710 1_555
Mg15 Si2 2.762660 1_455
Mg15 Si8 2.898121 1_455
Mg15 Si7 3.135677 1_555
Mg16 Si6 2.764283 1_555
Mg16 Si9 2.777129 1_555
Mg16 Si0 2.832646 1_555
Mg17 Si7 2.639537 1_555
Mg17 Si8 2.759018 1_555
Mg17 Si2 2.776258 1_555
Mg17 Si3 2.824620 1_555
Mg17 Si5 2.870899 1_555
Si0 Si6 2.426580 1_655
Si2 Si7 2.405945 1_665
Si2 Si3 2.446575 1_555
Si3 Si5 2.544014 1_555
