# generated using pymatgen
data_Li4MnCo2O7
_symmetry_space_group_name_H-M   'P 1'
_cell_length_a   5.14559200
_cell_length_b   7.71291738
_cell_length_c   7.73776629
_cell_angle_alpha   119.35199610
_cell_angle_beta   108.87968103
_cell_angle_gamma   83.83869072
_symmetry_Int_Tables_number   1
_chemical_formula_structural   Li4MnCo2O7
_chemical_formula_sum   'Li8 Mn2 Co4 O14'
_cell_volume   252.77899898
_cell_formula_units_Z   2
loop_
 _symmetry_equiv_pos_site_id
 _symmetry_equiv_pos_as_xyz
  1  'x, y, z'
loop_
 _atom_site_type_symbol
 _atom_site_label
 _atom_site_symmetry_multiplicity
 _atom_site_fract_x
 _atom_site_fract_y
 _atom_site_fract_z
 _atom_site_occupancy
  Li  Li0  1  0.50461800  0.42978800  0.64802100  1
  Li  Li1  1  0.50077100  0.70667000  0.06469400  1
  Li  Li2  1  0.50355600  0.85672500  0.78780300  1
  Li  Li3  1  0.49644400  0.14327500  0.21219700  1
  Li  Li4  1  0.49922900  0.29333000  0.93530600  1
  Li  Li5  1  0.49538200  0.57021200  0.35197900  1
  Li  Li6  1  0.50000000  0.00000000  0.50000000  1
  Li  Li7  1  0.00000000  0.50000000  0.00000000  1
  Mn  Mn0  1  0.00364600  0.21561900  0.57335600  1
  Mn  Mn1  1  0.99635400  0.78438100  0.42664400  1
  Co  Co0  1  0.99451000  0.07674100  0.86007600  1
  Co  Co1  1  0.00691600  0.35940000  0.27668600  1
  Co  Co2  1  0.99308400  0.64060000  0.72331400  1
  Co  Co3  1  0.00549000  0.92325900  0.13992400  1
  O  O0  1  0.22214500  0.17844200  0.39611100  1
  O  O1  1  0.23176700  0.44499200  0.79750500  1
  O  O2  1  0.22153100  0.61851700  0.53069000  1
  O  O3  1  0.23200400  0.89429000  0.95665200  1
  O  O4  1  0.22235300  0.03155200  0.66147200  1
  O  O5  1  0.23510600  0.31710600  0.11455900  1
  O  O6  1  0.22014000  0.76447700  0.25613000  1
  O  O7  1  0.76489400  0.68289400  0.88544100  1
  O  O8  1  0.77764700  0.96844800  0.33852800  1
  O  O9  1  0.76799600  0.10571000  0.04334800  1
  O  O10  1  0.77846900  0.38148300  0.46931000  1
  O  O11  1  0.76823300  0.55500800  0.20249500  1
  O  O12  1  0.77785500  0.82155800  0.60388900  1
  O  O13  1  0.77986000  0.23552300  0.74387000  1
loop_
_geom_bond_atom_site_label_1
_geom_bond_atom_site_label_2
_geom_bond_distance
_geom_bond_site_symmetry_2
Li0 O1 2.050718 1_555
Li0 O7 2.105396 1_555
Li0 O10 2.163312 1_555
Li0 O0 2.176491 1_555
Li0 O13 2.180617 1_555
Li0 O2 2.247127 1_555
Li1 O11 2.080106 1_555
Li1 O3 2.171123 1_554
Li1 O7 2.172924 1_554
Li1 O1 2.218286 1_554
Li1 O8 2.250728 1_555
Li1 O6 2.253173 1_555
Li2 O7 2.031064 1_555
Li2 O3 2.113482 1_555
Li2 O9 2.132216 1_566
Li2 O2 2.135430 1_555
Li2 O4 2.196703 1_565
Li2 O12 2.220398 1_555
Li3 O5 2.031064 1_555
Li3 O9 2.113482 1_555
Li3 O3 2.132216 1_544
Li3 O10 2.135430 1_555
Li3 O8 2.196703 1_545
Li3 O0 2.220398 1_555
Li4 O1 2.080106 1_555
Li4 O9 2.171123 1_556
Li4 O5 2.172924 1_556
Li4 O11 2.218286 1_556
Li4 O4 2.250728 1_555
Li4 O13 2.253173 1_555
Li5 O11 2.050718 1_555
Li5 O5 2.105396 1_555
Li5 O2 2.163312 1_555
Li5 O12 2.176491 1_555
Li5 O6 2.180617 1_555
Li5 O10 2.247127 1_555
Li6 O13 2.092100 1_555
Li6 O6 2.092100 1_545
Li6 O4 2.108044 1_555
Li6 O8 2.108044 1_545
Li6 O0 2.122027 1_555
Li6 O12 2.122027 1_545
Li7 O7 2.098749 1_454
Li7 O5 2.098749 1_555
Li7 O13 2.109949 1_454
Li7 O6 2.109949 1_555
Li7 O11 2.122797 1_455
Li7 O1 2.122797 1_554
Mn0 O1 1.906824 1_555
Mn0 O10 1.927459 1_455
Mn0 O0 1.941755 1_555
Mn0 O13 1.958846 1_455
Mn0 O4 1.963749 1_555
Mn0 O8 2.000207 1_445
Mn1 O11 1.906824 1_555
Mn1 O2 1.927459 1_655
Mn1 O12 1.941755 1_555
Mn1 O6 1.958846 1_655
Mn1 O8 1.963749 1_555
Mn1 O4 2.000207 1_665
Co0 O13 1.916960 1_555
Co0 O3 2.025565 1_645
Co0 O9 2.030427 1_556
Co0 O5 2.045312 1_656
Co0 O12 2.064489 1_545
Co0 O4 2.100177 1_655
Co1 O5 1.878492 1_555
Co1 O11 2.027117 1_455
Co1 O9 2.053381 1_455
Co1 O2 2.072420 1_555
Co1 O0 2.073345 1_555
Co1 O10 2.115263 1_455
Co2 O7 1.878492 1_555
Co2 O1 2.027117 1_655
Co2 O3 2.053381 1_655
Co2 O10 2.072420 1_555
Co2 O12 2.073345 1_555
Co2 O2 2.115263 1_655
Co3 O6 1.916960 1_555
Co3 O9 2.025565 1_465
Co3 O3 2.030427 1_554
Co3 O7 2.045312 1_454
Co3 O0 2.064489 1_565
Co3 O8 2.100177 1_455
