# generated using pymatgen
data_K2LiPrI6
_symmetry_space_group_name_H-M   'P 1'
_cell_length_a   8.59032350
_cell_length_b   8.59032350
_cell_length_c   8.59032350
_cell_angle_alpha   60.00000000
_cell_angle_beta   60.00000000
_cell_angle_gamma   60.00000000
_symmetry_Int_Tables_number   1
_chemical_formula_structural   K2LiPrI6
_chemical_formula_sum   'K2 Li1 Pr1 I6'
_cell_volume   448.24304482
_cell_formula_units_Z   1
loop_
 _symmetry_equiv_pos_site_id
 _symmetry_equiv_pos_as_xyz
  1  'x, y, z'
loop_
 _atom_site_type_symbol
 _atom_site_label
 _atom_site_symmetry_multiplicity
 _atom_site_fract_x
 _atom_site_fract_y
 _atom_site_fract_z
 _atom_site_occupancy
  K  K0  1  0.75000000  0.75000000  0.75000000  1
  K  K1  1  0.25000000  0.25000000  0.25000000  1
  Li  Li0  1  0.50000000  0.50000000  0.50000000  1
  Pr  Pr0  1  0.00000000  0.00000000  0.00000000  1
  I  I0  1  0.74343800  0.25656200  0.25656200  1
  I  I1  1  0.25656200  0.25656200  0.74343800  1
  I  I2  1  0.25656200  0.74343800  0.74343800  1
  I  I3  1  0.25656200  0.74343800  0.25656200  1
  I  I4  1  0.74343800  0.25656200  0.74343800  1
  I  I5  1  0.74343800  0.74343800  0.25656200  1
loop_
_geom_bond_atom_site_label_1
_geom_bond_atom_site_label_2
_geom_bond_distance
_geom_bond_site_symmetry_2
I0 Li0 2.957419 1_555
I0 Pr0 3.116857 1_655
I1 Li0 2.957419 1_555
I1 Pr0 3.116857 1_556
I2 Li0 2.957419 1_555
I2 Pr0 3.116857 1_566
I3 Li0 2.957419 1_555
I3 Pr0 3.116857 1_565
I4 Li0 2.957419 1_555
I4 Pr0 3.116857 1_656
I5 Li0 2.957419 1_555
I5 Pr0 3.116857 1_665
