# generated using pymatgen
data_Ba3GdIrRuO9
_symmetry_space_group_name_H-M   'P 1'
_cell_length_a   5.97676463
_cell_length_b   5.97676463
_cell_length_c   14.82660100
_cell_angle_alpha   90.00000000
_cell_angle_beta   90.00000000
_cell_angle_gamma   120.00467823
_symmetry_Int_Tables_number   1
_chemical_formula_structural   Ba3GdIrRuO9
_chemical_formula_sum   'Ba6 Gd2 Ir2 Ru2 O18'
_cell_volume   458.65281545
_cell_formula_units_Z   2
loop_
 _symmetry_equiv_pos_site_id
 _symmetry_equiv_pos_as_xyz
  1  'x, y, z'
loop_
 _atom_site_type_symbol
 _atom_site_label
 _atom_site_symmetry_multiplicity
 _atom_site_fract_x
 _atom_site_fract_y
 _atom_site_fract_z
 _atom_site_occupancy
  Ba  Ba0  1  0.66672000  0.33328000  0.40318200  1
  Ba  Ba1  1  0.33336600  0.66663400  0.59764500  1
  Ba  Ba2  1  0.33328000  0.66672000  0.90318200  1
  Ba  Ba3  1  0.66663400  0.33336600  0.09764500  1
  Ba  Ba4  1  0.99995900  0.00004100  0.74991300  1
  Ba  Ba5  1  0.00004100  0.99995900  0.24991300  1
  Gd  Gd0  1  0.00002400  0.99997600  0.50115200  1
  Gd  Gd1  1  0.99997600  0.00002400  0.00115200  1
  Ir  Ir0  1  0.66669100  0.33330900  0.66525700  1
  Ir  Ir1  1  0.33330900  0.66669100  0.16525700  1
  Ru  Ru0  1  0.33328300  0.66671700  0.33597100  1
  Ru  Ru1  1  0.66671700  0.33328300  0.83597100  1
  O  O0  1  0.51047300  0.02046100  0.75055600  1
  O  O1  1  0.51036600  0.48963400  0.75060600  1
  O  O2  1  0.97953900  0.48952700  0.75055600  1
  O  O3  1  0.48952700  0.97953900  0.25055600  1
  O  O4  1  0.48963400  0.51036600  0.25060600  1
  O  O5  1  0.02046100  0.51047300  0.25055600  1
  O  O6  1  0.82353500  0.64660900  0.90990700  1
  O  O7  1  0.82310100  0.17689900  0.91016100  1
  O  O8  1  0.35339100  0.17646500  0.90990700  1
  O  O9  1  0.17646600  0.35254000  0.08840700  1
  O  O10  1  0.17624000  0.82376000  0.08837300  1
  O  O11  1  0.64746000  0.82353400  0.08840700  1
  O  O12  1  0.17646500  0.35339100  0.40990700  1
  O  O13  1  0.17689900  0.82310100  0.41016100  1
  O  O14  1  0.64660900  0.82353500  0.40990700  1
  O  O15  1  0.82353400  0.64746000  0.58840700  1
  O  O16  1  0.82376000  0.17624000  0.58837300  1
  O  O17  1  0.35254000  0.17646600  0.58840700  1
loop_
_geom_bond_atom_site_label_1
_geom_bond_atom_site_label_2
_geom_bond_distance
_geom_bond_site_symmetry_2
Ba0 O3 2.910839 1_545
Ba0 O5 2.910839 1_655
Ba0 O4 2.911747 1_555
Ba0 O14 2.989994 1_545
Ba0 O12 2.989994 1_655
Ba0 O13 2.991818 1_655
Ba0 O13 2.991818 1_545
Ba0 O12 2.993719 1_555
Ba0 O14 2.993719 1_555
Ba0 O16 3.190947 1_555
Ba0 O17 3.191587 1_555
Ba0 O15 3.191587 1_555
Ba1 O2 2.914404 1_455
Ba1 O0 2.914404 1_565
Ba1 O1 2.915625 1_555
Ba1 O15 2.991711 1_555
Ba1 O17 2.991711 1_555
Ba1 O16 2.992984 1_455
Ba1 O16 2.992984 1_565
Ba1 O17 2.994619 1_565
Ba1 O15 2.994619 1_455
Ba1 O13 3.217257 1_555
Ba1 O12 3.221259 1_555
Ba1 O14 3.221259 1_555
Ba2 O2 2.910839 1_455
Ba2 O0 2.910839 1_565
Ba2 O1 2.911747 1_555
Ba2 O6 2.989994 1_455
Ba2 O8 2.989994 1_565
Ba2 O7 2.991818 1_565
Ba2 O7 2.991818 1_455
Ba2 O6 2.993719 1_555
Ba2 O8 2.993719 1_555
Ba2 O10 3.190947 1_556
Ba2 O11 3.191587 1_556
Ba2 O9 3.191587 1_556
Ba3 O3 2.914404 1_545
Ba3 O5 2.914404 1_655
Ba3 O4 2.915625 1_555
Ba3 O11 2.991711 1_555
Ba3 O9 2.991711 1_555
Ba3 O10 2.992984 1_655
Ba3 O10 2.992984 1_545
Ba3 O9 2.994619 1_655
Ba3 O11 2.994619 1_545
Ba3 O7 3.217257 1_554
Ba3 O8 3.221259 1_554
Ba3 O6 3.221259 1_554
Ba4 O2 2.988459 1_555
Ba4 O0 2.988459 1_555
Ba4 O1 2.990130 1_655
Ba4 O1 2.990130 1_545
Ba4 O2 2.992073 1_545
Ba4 O0 2.992073 1_655
Ba4 O8 2.995576 1_655
Ba4 O6 2.995576 1_545
Ba4 O7 2.999535 1_555
Ba4 O16 3.010593 1_555
Ba4 O15 3.010687 1_545
Ba4 O17 3.010687 1_655
Ba5 O3 2.988459 1_555
Ba5 O5 2.988459 1_555
Ba5 O4 2.990130 1_565
Ba5 O4 2.990130 1_455
Ba5 O3 2.992073 1_455
Ba5 O5 2.992073 1_565
Ba5 O12 2.995576 1_565
Ba5 O14 2.995576 1_455
Ba5 O13 2.999535 1_555
Ba5 O10 3.010593 1_555
Ba5 O9 3.010687 1_565
Ba5 O11 3.010687 1_455
Gd0 O16 2.236518 1_465
Gd0 O15 2.236654 1_455
Gd0 O17 2.236654 1_565
Gd0 O13 2.274386 1_555
Gd0 O12 2.275124 1_565
Gd0 O14 2.275124 1_455
Gd1 O10 2.236518 1_645
Gd1 O9 2.236654 1_655
Gd1 O11 2.236654 1_545
Gd1 O7 2.274386 1_554
Gd1 O8 2.275124 1_654
Gd1 O6 2.275124 1_544
Ir0 O15 1.985471 1_555
Ir0 O17 1.985471 1_555
Ir0 O16 1.985799 1_555
Ir0 O1 2.054337 1_555
Ir0 O0 2.054598 1_555
Ir0 O2 2.054598 1_555
Ir1 O9 1.985471 1_555
Ir1 O11 1.985471 1_555
Ir1 O10 1.985799 1_555
Ir1 O4 2.054337 1_555
Ir1 O5 2.054598 1_555
Ir1 O3 2.054598 1_555
O0 Ru1 2.055551 1_555
O1 Ru1 2.054695 1_555
O2 Ru1 2.055551 1_555
O3 Ru0 2.055551 1_555
O4 Ru0 2.054695 1_555
O5 Ru0 2.055551 1_555
O6 Ru1 1.957456 1_555
O7 Ru1 1.957273 1_555
O8 Ru1 1.957456 1_555
O12 Ru0 1.957456 1_555
O13 Ru0 1.957273 1_555
O14 Ru0 1.957456 1_555
