# generated using pymatgen
data_Mg(CrS2)4
_symmetry_space_group_name_H-M   'P 1'
_cell_length_a   7.01285045
_cell_length_b   7.01209308
_cell_length_c   7.01659777
_cell_angle_alpha   60.03530609
_cell_angle_beta   60.04226833
_cell_angle_gamma   60.01647200
_symmetry_Int_Tables_number   1
_chemical_formula_structural   Mg(CrS2)4
_chemical_formula_sum   'Mg1 Cr4 S8'
_cell_volume   244.15312809
_cell_formula_units_Z   1
loop_
 _symmetry_equiv_pos_site_id
 _symmetry_equiv_pos_as_xyz
  1  'x, y, z'
loop_
 _atom_site_type_symbol
 _atom_site_label
 _atom_site_symmetry_multiplicity
 _atom_site_fract_x
 _atom_site_fract_y
 _atom_site_fract_z
 _atom_site_occupancy
  Mg  Mg0  1  0.12491628  0.12524510  0.12403930  1
  Cr  Cr0  1  0.50708897  0.50726948  0.50671958  1
  Cr  Cr1  1  0.50629414  0.50644148  0.98075704  1
  Cr  Cr2  1  0.97983324  0.50677840  0.50644062  1
  Cr  Cr3  1  0.50684916  0.97940894  0.50656700  1
  S  S0  1  0.74463130  0.74446568  0.74494242  1
  S  S1  1  0.26369358  0.26350015  0.70948571  1
  S  S2  1  0.26320663  0.71026999  0.26357604  1
  S  S3  1  0.71005690  0.26319613  0.26370009  1
  S  S4  1  0.74470748  0.26578343  0.74509624  1
  S  S5  1  0.26554818  0.74470680  0.74518735  1
  S  S6  1  0.26306759  0.26295460  0.26335679  1
  S  S7  1  0.74512255  0.74497381  0.26511582  1
loop_
_geom_bond_atom_site_label_1
_geom_bond_atom_site_label_2
_geom_bond_distance
_geom_bond_site_symmetry_2
Mg0 S1 2.376288 1_554
Mg0 S3 2.376338 1_455
Mg0 S2 2.376575 1_545
Mg0 S6 2.377082 1_555
Cr0 S7 2.360247 1_555
Cr0 S5 2.361008 1_555
Cr0 S4 2.361319 1_555
Cr0 S2 2.432462 1_555
Cr0 S3 2.432919 1_555
Cr0 S1 2.433311 1_555
Cr1 S5 2.362827 1_555
Cr1 S4 2.362958 1_555
Cr1 S0 2.363199 1_555
Cr1 S2 2.430270 1_556
Cr1 S3 2.430464 1_556
Cr1 S6 2.430507 1_556
Cr2 S7 2.361514 1_555
Cr2 S4 2.362062 1_555
Cr2 S0 2.362346 1_555
Cr2 S2 2.431513 1_655
Cr2 S6 2.431625 1_655
Cr2 S1 2.431682 1_655
Cr3 S7 2.360917 1_555
Cr3 S5 2.361511 1_555
Cr3 S0 2.362085 1_555
Cr3 S6 2.432079 1_565
Cr3 S3 2.432331 1_565
Cr3 S1 2.432407 1_565
