# generated using pymatgen
data_La6Sb4(SO4)3
_symmetry_space_group_name_H-M   'P 1'
_cell_length_a   10.92362943
_cell_length_b   10.92362943
_cell_length_c   10.92362943
_cell_angle_alpha   119.92868607
_cell_angle_beta   119.92868607
_cell_angle_gamma   90.12356380
_symmetry_Int_Tables_number   1
_chemical_formula_structural   La6Sb4(SO4)3
_chemical_formula_sum   'La12 Sb8 S6 O24'
_cell_volume   922.68330555
_cell_formula_units_Z   2
loop_
 _symmetry_equiv_pos_site_id
 _symmetry_equiv_pos_as_xyz
  1  'x, y, z'
loop_
 _atom_site_type_symbol
 _atom_site_label
 _atom_site_symmetry_multiplicity
 _atom_site_fract_x
 _atom_site_fract_y
 _atom_site_fract_z
 _atom_site_occupancy
  La  La0  1  0.80093800  0.80347800  0.60572100  1
  La  La1  1  0.80478300  0.19906200  0.00253900  1
  La  La2  1  0.55347800  0.05093800  0.10572100  1
  La  La3  1  0.55224300  0.44652200  0.49746100  1
  La  La4  1  0.19652200  0.80224300  0.99746100  1
  La  La5  1  0.19775700  0.19521700  0.39427900  1
  La  La6  1  0.94906200  0.05478300  0.50253900  1
  La  La7  1  0.94521700  0.44775700  0.89427900  1
  La  La8  1  0.94703500  0.44703500  0.50000000  1
  La  La9  1  0.19703500  0.19703500  0.00000000  1
  La  La10  1  0.80296500  0.80296500  0.00000000  1
  La  La11  1  0.55296500  0.05296500  0.50000000  1
  Sb  Sb0  1  0.58818500  0.41428100  0.17805000  1
  Sb  Sb1  1  0.16428100  0.83818500  0.67805000  1
  Sb  Sb2  1  0.16013500  0.48623100  0.32195000  1
  Sb  Sb3  1  0.23623100  0.41013500  0.82195000  1
  Sb  Sb4  1  0.16181500  0.83986500  0.32609600  1
  Sb  Sb5  1  0.58986500  0.41181500  0.82609600  1
  Sb  Sb6  1  0.58571900  0.76376900  0.17390400  1
  Sb  Sb7  1  0.51376900  0.83571900  0.67390400  1
  S  S0  1  0.75000000  0.25000000  0.50000000  1
  S  S1  1  0.00000000  0.00000000  0.00000000  1
  S  S2  1  0.40663900  0.62500000  0.28163900  1
  S  S3  1  0.37500000  0.65663900  0.78163900  1
  S  S4  1  0.34336100  0.12500000  0.71836100  1
  S  S5  1  0.87500000  0.59336100  0.21836100  1
  O  O0  1  0.02880500  0.71623200  0.68456100  1
  O  O1  1  0.03167200  0.34424400  0.31543900  1
  O  O2  1  0.46623200  0.27880500  0.18456100  1
  O  O3  1  0.09424400  0.28167200  0.81543900  1
  O  O4  1  0.71832800  0.53376800  0.81257200  1
  O  O5  1  0.72119500  0.90575600  0.18742800  1
  O  O6  1  0.28376800  0.96832800  0.31257200  1
  O  O7  1  0.65575600  0.97119500  0.68742800  1
  O  O8  1  0.72241800  0.53356000  0.43990900  1
  O  O9  1  0.71889200  0.27887300  0.18501600  1
  O  O10  1  0.28356000  0.97241800  0.93990900  1
  O  O11  1  0.28387600  0.34385700  0.31498400  1
  O  O12  1  0.09385700  0.53387600  0.81498400  1
  O  O13  1  0.09365100  0.28250900  0.56009100  1
  O  O14  1  0.02887300  0.96889200  0.68501600  1
  O  O15  1  0.03250900  0.34365100  0.06009100  1
  O  O16  1  0.03110800  0.71612400  0.05998100  1
  O  O17  1  0.02758200  0.96749100  0.31114200  1
  O  O18  1  0.46612400  0.28110800  0.55998100  1
  O  O19  1  0.46644000  0.90634900  0.18885800  1
  O  O20  1  0.65634900  0.71644000  0.68885800  1
  O  O21  1  0.65614300  0.97112700  0.94001900  1
  O  O22  1  0.71749100  0.27758200  0.81114200  1
  O  O23  1  0.72112700  0.90614300  0.44001900  1
loop_
_geom_bond_atom_site_label_1
_geom_bond_atom_site_label_2
_geom_bond_distance
_geom_bond_site_symmetry_2
La0 O23 2.397760 1_555
La0 O8 2.412434 1_555
La0 O7 2.541959 1_555
La0 O14 2.545883 1_655
La0 O20 2.551417 1_555
La0 O0 2.556551 1_655
La0 S1 3.048841 1_666
La0 S2 3.570295 1_555
La1 O9 2.397769 1_555
La1 O22 2.412425 1_554
La1 O1 2.541965 1_655
La1 O21 2.545889 1_544
La1 O15 2.551411 1_655
La1 O7 2.556539 1_544
La1 S1 3.048841 1_655
La1 S5 3.570294 1_555
La2 O21 2.397760 1_544
La2 O10 2.412434 1_544
La2 O5 2.541959 1_545
La2 O9 2.545883 1_555
La2 O19 2.551417 1_545
La2 O2 2.556551 1_555
La2 S0 3.048841 1_555
La2 S3 3.570295 1_544
La3 O11 2.397760 1_555
La3 O20 2.412434 1_555
La3 O2 2.541964 1_555
La3 O18 2.545874 1_555
La3 O8 2.551426 1_555
La3 O4 2.556533 1_555
La3 S0 3.048841 1_555
La3 S2 3.570302 1_555
La4 O12 2.397760 1_555
La4 O19 2.412434 1_556
La4 O0 2.541964 1_555
La4 O16 2.545874 1_556
La4 O10 2.551426 1_555
La4 O6 2.556533 1_556
La4 S1 3.048841 1_566
La4 S3 3.570302 1_555
La5 O18 2.397760 1_555
La5 O13 2.412434 1_555
La5 O6 2.541965 1_545
La5 O11 2.545883 1_555
La5 O17 2.551417 1_545
La5 O1 2.556545 1_555
La5 S1 3.048841 1_555
La5 S4 3.570295 1_555
La6 O14 2.397769 1_645
La6 O17 2.412425 1_645
La6 O3 2.541965 1_655
La6 O23 2.545889 1_545
La6 O13 2.551411 1_655
La6 O5 2.556539 1_545
La6 S0 3.048841 1_555
La6 S4 3.570294 1_655
La7 O16 2.397760 1_656
La7 O15 2.412434 1_656
La7 O4 2.541965 1_555
La7 O12 2.545883 1_655
La7 O22 2.551417 1_555
La7 O3 2.556545 1_655
La7 S0 3.048841 1_555
La7 S5 3.570295 1_556
La8 O0 2.405334 1_655
La8 O1 2.405343 1_655
La8 O8 2.523191 1_555
La8 O13 2.523191 1_655
La8 O9 2.557543 1_555
La8 O12 2.557543 1_655
La8 S0 3.040581 1_555
La9 O2 2.405334 1_555
La9 O3 2.405343 1_554
La9 O10 2.523191 1_544
La9 O15 2.523191 1_555
La9 O11 2.557543 1_555
La9 O14 2.557543 1_544
La9 S1 3.040581 1_555
La10 O4 2.405334 1_554
La10 O5 2.405343 1_555
La10 O20 2.523191 1_554
La10 O17 2.523191 1_655
La10 O16 2.557543 1_655
La10 O21 2.557543 1_554
La10 S1 3.040581 1_665
La11 O6 2.405334 1_545
La11 O7 2.405343 1_545
La11 O22 2.523191 1_555
La11 O19 2.523191 1_545
La11 O23 2.557543 1_545
La11 O18 2.557543 1_555
La11 S0 3.040581 1_555
S2 Sb7 3.189282 1_555
S2 Sb0 3.189282 1_555
S3 Sb1 3.189282 1_555
S3 Sb6 3.189282 1_556
S4 Sb3 3.189282 1_555
S4 Sb4 3.189282 1_545
S5 Sb2 3.189282 1_655
S5 Sb5 3.189282 1_554
O0 Sb1 2.039823 1_555
O1 Sb2 2.039815 1_555
O2 Sb0 2.039823 1_555
O3 Sb3 2.039815 1_555
O4 Sb5 2.039823 1_555
O5 Sb6 2.039815 1_555
O6 Sb4 2.039823 1_555
O7 Sb7 2.039815 1_555
O8 Sb0 2.029145 1_555
O9 Sb0 2.060406 1_555
O10 Sb1 2.029145 1_555
O11 Sb2 2.060406 1_555
O12 Sb3 2.060406 1_555
O13 Sb3 2.029145 1_555
O14 Sb1 2.060406 1_555
O15 Sb2 2.029145 1_555
O16 Sb4 2.060406 1_555
O17 Sb4 2.029145 1_555
O18 Sb5 2.060406 1_555
O19 Sb6 2.029145 1_555
O20 Sb7 2.029145 1_555
O21 Sb7 2.060406 1_555
O22 Sb5 2.029145 1_555
O23 Sb6 2.060406 1_555
