# generated using pymatgen
data_KCa2(SiO3)8
_symmetry_space_group_name_H-M   'P 1'
_cell_length_a   23.36096900
_cell_length_b   6.64644300
_cell_length_c   7.12925589
_cell_angle_alpha   89.92637566
_cell_angle_beta   90.00000000
_cell_angle_gamma   90.00000000
_symmetry_Int_Tables_number   1
_chemical_formula_structural   KCa2(SiO3)8
_chemical_formula_sum   'K2 Ca4 Si16 O48'
_cell_volume   1106.93974703
_cell_formula_units_Z   2
loop_
 _symmetry_equiv_pos_site_id
 _symmetry_equiv_pos_as_xyz
  1  'x, y, z'
loop_
 _atom_site_type_symbol
 _atom_site_label
 _atom_site_symmetry_multiplicity
 _atom_site_fract_x
 _atom_site_fract_y
 _atom_site_fract_z
 _atom_site_occupancy
  K  K0  1  0.25000000  0.57654500  0.00153400  1
  K  K1  1  0.75000000  0.42345500  0.99846600  1
  Ca  Ca0  1  0.50000000  0.50000000  0.00000000  1
  Ca  Ca1  1  0.00000000  0.50000000  0.00000000  1
  Ca  Ca2  1  0.50000000  0.50000000  0.50000000  1
  Ca  Ca3  1  0.00000000  0.50000000  0.50000000  1
  Si  Si0  1  0.31689900  0.45420000  0.49968900  1
  Si  Si1  1  0.68310100  0.54580000  0.50031100  1
  Si  Si2  1  0.18310100  0.45420000  0.49968900  1
  Si  Si3  1  0.81689900  0.54580000  0.50031100  1
  Si  Si4  1  0.38321300  0.71112800  0.78088600  1
  Si  Si5  1  0.61689100  0.28804200  0.78180300  1
  Si  Si6  1  0.11678700  0.71112800  0.78088600  1
  Si  Si7  1  0.88310900  0.28804200  0.78180300  1
  Si  Si8  1  0.61678700  0.28887200  0.21911400  1
  Si  Si9  1  0.38310900  0.71195800  0.21819700  1
  Si  Si10  1  0.88321300  0.28887200  0.21911400  1
  Si  Si11  1  0.11689100  0.71195800  0.21819700  1
  Si  Si12  1  0.40209100  0.06696700  0.49909700  1
  Si  Si13  1  0.59790900  0.93303300  0.50090300  1
  Si  Si14  1  0.09790900  0.06696700  0.49909700  1
  Si  Si15  1  0.90209100  0.93303300  0.50090300  1
  O  O0  1  0.32743100  0.59058200  0.68752700  1
  O  O1  1  0.67268000  0.40909700  0.68843500  1
  O  O2  1  0.17256900  0.59058200  0.68752700  1
  O  O3  1  0.82732000  0.40909700  0.68843500  1
  O  O4  1  0.67256900  0.40941800  0.31247300  1
  O  O5  1  0.32732000  0.59090300  0.31156500  1
  O  O6  1  0.82743100  0.40941800  0.31247300  1
  O  O7  1  0.17268000  0.59090300  0.31156500  1
  O  O8  1  0.46680200  0.15801300  0.49911900  1
  O  O9  1  0.53319800  0.84198700  0.50088100  1
  O  O10  1  0.03319800  0.15801300  0.49911900  1
  O  O11  1  0.96680200  0.84198700  0.50088100  1
  O  O12  1  0.20270000  0.17860700  0.94980800  1
  O  O13  1  0.79730000  0.82139300  0.05019200  1
  O  O14  1  0.29730000  0.17860700  0.94980800  1
  O  O15  1  0.70270000  0.82139300  0.05019200  1
  O  O16  1  0.25000000  0.38201200  0.50048300  1
  O  O17  1  0.75000000  0.61798800  0.49951700  1
  O  O18  1  0.48087700  0.06384600  0.99946600  1
  O  O19  1  0.51912300  0.93615400  0.00053400  1
  O  O20  1  0.01912300  0.06384600  0.99946600  1
  O  O21  1  0.98087700  0.93615400  0.00053400  1
  O  O22  1  0.44115400  0.58520200  0.76019400  1
  O  O23  1  0.55887700  0.41345400  0.76014700  1
  O  O24  1  0.05884600  0.58520200  0.76019400  1
  O  O25  1  0.94112300  0.41345400  0.76014700  1
  O  O26  1  0.55884600  0.41479800  0.23980600  1
  O  O27  1  0.44112300  0.58654600  0.23985300  1
  O  O28  1  0.94115400  0.41479800  0.23980600  1
  O  O29  1  0.05887700  0.58654600  0.23985300  1
  O  O30  1  0.36226100  0.74368300  0.99940400  1
  O  O31  1  0.63773900  0.25631700  0.00059600  1
  O  O32  1  0.13773900  0.74368300  0.99940400  1
  O  O33  1  0.86226100  0.25631700  0.00059600  1
  O  O34  1  0.35788300  0.25896700  0.49959600  1
  O  O35  1  0.64211700  0.74103300  0.50040400  1
  O  O36  1  0.14211700  0.25896700  0.49959600  1
  O  O37  1  0.85788300  0.74103300  0.50040400  1
  O  O38  1  0.38693100  0.93411400  0.68565100  1
  O  O39  1  0.61348400  0.06415100  0.68824700  1
  O  O40  1  0.11306900  0.93411400  0.68565100  1
  O  O41  1  0.88651600  0.06415100  0.68824700  1
  O  O42  1  0.61306900  0.06588600  0.31434900  1
  O  O43  1  0.38651600  0.93584900  0.31175300  1
  O  O44  1  0.88693100  0.06588600  0.31434900  1
  O  O45  1  0.11348400  0.93584900  0.31175300  1
  O  O46  1  0.25000000  0.08191900  0.92354900  1
  O  O47  1  0.75000000  0.91808100  0.07645100  1
loop_
_geom_bond_atom_site_label_1
_geom_bond_atom_site_label_2
_geom_bond_distance
_geom_bond_site_symmetry_2
K0 O32 2.848134 1_554
K0 O30 2.848134 1_554
K0 O7 2.856159 1_555
K0 O5 2.856159 1_555
K0 O2 2.879522 1_554
K0 O0 2.879522 1_554
K0 O14 2.890469 1_554
K0 O12 2.890469 1_554
K1 O33 2.848134 1_556
K1 O31 2.848134 1_556
K1 O1 2.856159 1_555
K1 O3 2.856159 1_555
K1 O4 2.879522 1_556
K1 O6 2.879522 1_556
K1 O13 2.890469 1_556
K1 O15 2.890469 1_556
Ca0 O26 2.265140 1_555
Ca0 O22 2.265140 1_554
Ca0 O23 2.269187 1_554
Ca0 O27 2.269187 1_555
Ca0 O18 2.933100 1_554
Ca0 O19 2.933100 1_555
Ca1 O28 2.265140 1_455
Ca1 O24 2.265140 1_554
Ca1 O25 2.269187 1_454
Ca1 O29 2.269187 1_555
Ca1 O20 2.933100 1_554
Ca1 O21 2.933100 1_455
Ca2 O26 2.377850 1_555
Ca2 O22 2.377850 1_555
Ca2 O23 2.379007 1_555
Ca2 O27 2.379007 1_555
Ca2 O8 2.401677 1_555
Ca2 O9 2.401677 1_555
Ca3 O28 2.377850 1_455
Ca3 O24 2.377850 1_555
Ca3 O25 2.379007 1_455
Ca3 O29 2.379007 1_555
Ca3 O10 2.401677 1_555
Ca3 O11 2.401677 1_455
O0 Si0 1.636651 1_555
O0 Si4 1.668658 1_555
O1 Si1 1.637206 1_555
O1 Si5 1.669615 1_555
O2 Si2 1.636651 1_555
O2 Si6 1.668658 1_555
O3 Si3 1.637206 1_555
O3 Si7 1.669615 1_555
O4 Si1 1.636651 1_555
O4 Si8 1.668658 1_555
O5 Si0 1.637206 1_555
O5 Si9 1.669615 1_555
O6 Si3 1.636651 1_555
O6 Si10 1.668658 1_555
O7 Si2 1.637206 1_555
O7 Si11 1.669615 1_555
O8 Si12 1.628330 1_555
O9 Si13 1.628330 1_555
O10 Si14 1.628330 1_555
O11 Si15 1.628330 1_555
O12 O46 1.292013 1_555
O13 O47 1.292013 1_555
O14 O46 1.292013 1_555
O15 O47 1.292013 1_555
O16 Si0 1.634824 1_555
O16 Si2 1.634824 1_555
O17 Si3 1.634824 1_555
O17 Si1 1.634824 1_555
O18 O19 1.232317 1_546
O20 O21 1.232317 1_446
O22 Si4 1.598343 1_555
O23 Si5 1.598449 1_555
O24 Si6 1.598343 1_555
O25 Si7 1.598449 1_555
O26 Si8 1.598343 1_555
O27 Si9 1.598449 1_555
O28 Si10 1.598343 1_555
O29 Si11 1.598449 1_555
O30 Si9 1.647388 1_556
O30 Si4 1.647488 1_555
O31 Si5 1.647388 1_554
O31 Si8 1.647488 1_555
O32 Si11 1.647388 1_556
O32 Si6 1.647488 1_555
O33 Si7 1.647388 1_554
O33 Si10 1.647488 1_555
O34 Si0 1.612590 1_555
O34 Si12 1.641662 1_555
O35 Si1 1.612590 1_555
O35 Si13 1.641662 1_555
O36 Si2 1.612590 1_555
O36 Si14 1.641662 1_555
O37 Si3 1.612590 1_555
O37 Si15 1.641662 1_555
O38 Si4 1.631702 1_555
O38 Si12 1.634311 1_565
O39 Si5 1.633442 1_555
O39 Si13 1.636680 1_545
O40 Si6 1.631702 1_555
O40 Si14 1.634311 1_565
O41 Si7 1.633442 1_555
O41 Si15 1.636680 1_545
O42 Si8 1.631702 1_555
O42 Si13 1.634311 1_545
O43 Si9 1.633442 1_555
O43 Si12 1.636680 1_565
O44 Si10 1.631702 1_555
O44 Si15 1.634311 1_545
O45 Si11 1.633442 1_555
O45 Si14 1.636680 1_565
