# generated using pymatgen
data_KMg14Cu
_symmetry_space_group_name_H-M   'P 1'
_cell_length_a   6.45343141
_cell_length_b   6.42860948
_cell_length_c   10.45803120
_cell_angle_alpha   90.00000000
_cell_angle_beta   90.00000000
_cell_angle_gamma   119.87285177
_symmetry_Int_Tables_number   1
_chemical_formula_structural   KMg14Cu
_chemical_formula_sum   'K1 Mg14 Cu1'
_cell_volume   376.22124306
_cell_formula_units_Z   1
loop_
 _symmetry_equiv_pos_site_id
 _symmetry_equiv_pos_as_xyz
  1  'x, y, z'
loop_
 _atom_site_type_symbol
 _atom_site_label
 _atom_site_symmetry_multiplicity
 _atom_site_fract_x
 _atom_site_fract_y
 _atom_site_fract_z
 _atom_site_occupancy
  K  K0  1  0.16701858  0.83350879  0.12500000  1
  Mg  Mg0  1  0.16411426  0.33205663  0.62500000  1
  Mg  Mg1  1  0.16744163  0.83372031  0.62500000  1
  Mg  Mg2  1  0.66354494  0.34061259  0.12500000  1
  Mg  Mg3  1  0.66529239  0.32943608  0.62500000  1
  Mg  Mg4  1  0.66354494  0.82293134  0.12500000  1
  Mg  Mg5  1  0.66529239  0.83585531  0.62500000  1
  Mg  Mg6  1  0.33536847  0.17746886  0.38206528  1
  Mg  Mg7  1  0.33536847  0.17746886  0.86793472  1
  Mg  Mg8  1  0.33536847  0.65790060  0.38206528  1
  Mg  Mg9  1  0.33536847  0.65790060  0.86793472  1
  Mg  Mg10  1  0.84171810  0.17085955  0.36202435  1
  Mg  Mg11  1  0.84171810  0.17085955  0.88797565  1
  Mg  Mg12  1  0.82611011  0.66305555  0.38964200  1
  Mg  Mg13  1  0.82611011  0.66305555  0.86035800  1
  Cu  Cu0  1  0.16662060  0.33330980  0.12500000  1
loop_
_geom_bond_atom_site_label_1
_geom_bond_atom_site_label_2
_geom_bond_distance
_geom_bond_site_symmetry_2
K0 Mg2 3.215805 1_455
K0 Mg4 3.215805 1_455
K0 Mg2 3.238704 1_565
K0 Mg4 3.238704 1_555
K0 Mg9 3.302127 1_554
K0 Mg8 3.302127 1_555
K0 Mg7 3.302134 1_564
K0 Mg6 3.302134 1_565
K0 Mg12 3.361426 1_455
K0 Mg13 3.361426 1_454
Mg0 Mg6 3.123756 1_555
Mg0 Mg7 3.123756 1_555
Mg0 Mg8 3.123762 1_555
Mg0 Mg9 3.123762 1_555
Mg0 Mg5 3.210755 1_445
Mg0 Mg3 3.210755 1_455
Mg0 Mg1 3.214359 1_555
Mg0 Mg1 3.214359 1_545
Mg0 Mg5 3.242742 1_555
Mg0 Mg3 3.242742 1_555
Mg0 Mg10 3.289149 1_455
Mg0 Mg11 3.289149 1_455
Mg1 Mg13 3.115578 1_455
Mg1 Mg12 3.115578 1_455
Mg1 Mg8 3.182272 1_555
Mg1 Mg9 3.182272 1_555
Mg1 Mg6 3.182279 1_565
Mg1 Mg7 3.182279 1_565
Mg1 Mg3 3.206031 1_565
Mg1 Mg5 3.206032 1_555
Mg1 Mg3 3.247443 1_455
Mg1 Mg5 3.247444 1_455
Mg2 Mg4 3.100639 1_555
Mg2 Mg7 3.255785 1_554
Mg2 Mg6 3.255785 1_555
Mg2 Mg4 3.327971 1_545
Mg3 Mg6 3.141712 1_555
Mg3 Mg7 3.141712 1_555
Mg3 Mg5 3.173038 1_545
Mg3 Mg5 3.255571 1_555
Mg4 Mg9 3.255785 1_554
Mg4 Mg8 3.255785 1_555
Mg5 Mg8 3.141712 1_555
Mg5 Mg9 3.141712 1_555
Mg6 Mg8 3.088508 1_555
Mg6 Mg8 3.340101 1_545
Mg7 Mg9 3.088508 1_555
Mg7 Mg9 3.340101 1_545
Mg10 Mg2 3.147607 1_555
Mg10 Mg4 3.147614 1_545
Mg10 Mg8 3.171723 1_655
Mg10 Mg6 3.171723 1_655
Mg10 Mg12 3.228437 1_555
Mg10 Mg12 3.228437 1_545
Mg10 Mg8 3.295732 1_545
Mg10 Mg6 3.295733 1_555
Mg10 Mg3 3.324963 1_555
Mg10 Mg5 3.324969 1_545
Mg11 Mg2 3.147607 1_556
Mg11 Mg4 3.147614 1_546
Mg11 Mg9 3.171723 1_655
Mg11 Mg7 3.171723 1_655
Mg11 Mg13 3.228437 1_555
Mg11 Mg13 3.228437 1_545
Mg11 Mg9 3.295732 1_545
Mg11 Mg7 3.295733 1_555
Mg11 Mg3 3.324963 1_555
Mg11 Mg5 3.324969 1_545
Mg12 Mg5 3.085116 1_555
Mg12 Mg3 3.085123 1_555
Mg12 Mg6 3.151589 1_555
Mg12 Mg8 3.151589 1_555
Mg12 Mg4 3.300128 1_555
Mg12 Mg2 3.300134 1_555
Mg12 Mg6 3.304045 1_665
Mg12 Mg8 3.304045 1_655
Mg13 Mg5 3.085116 1_555
Mg13 Mg3 3.085123 1_555
Mg13 Mg7 3.151589 1_555
Mg13 Mg9 3.151589 1_555
Mg13 Mg4 3.300128 1_556
Mg13 Mg2 3.300134 1_556
Mg13 Mg7 3.304045 1_665
Mg13 Mg9 3.304045 1_655
Cu0 Mg10 3.074110 1_455
Cu0 Mg11 3.074110 1_454
Cu0 Mg4 3.183744 1_555
Cu0 Mg2 3.183744 1_555
Cu0 K0 3.214306 1_555
Cu0 K0 3.214306 1_545
Cu0 Mg7 3.240972 1_554
Cu0 Mg6 3.240972 1_555
Cu0 Mg9 3.240978 1_554
Cu0 Mg8 3.240978 1_555
Cu0 Mg4 3.270201 1_445
Cu0 Mg2 3.270201 1_455
