# generated using pymatgen
data_Li2Mg2(SO4)3
_symmetry_space_group_name_H-M   'P 1'
_cell_length_a   8.52547599
_cell_length_b   8.68694006
_cell_length_c   12.12013874
_cell_angle_alpha   90.00000000
_cell_angle_beta   90.00000000
_cell_angle_gamma   90.00000000
_symmetry_Int_Tables_number   1
_chemical_formula_structural   Li2Mg2(SO4)3
_chemical_formula_sum   'Li8 Mg8 S12 O48'
_cell_volume   897.62109789
_cell_formula_units_Z   4
loop_
 _symmetry_equiv_pos_site_id
 _symmetry_equiv_pos_as_xyz
  1  'x, y, z'
loop_
 _atom_site_type_symbol
 _atom_site_label
 _atom_site_symmetry_multiplicity
 _atom_site_fract_x
 _atom_site_fract_y
 _atom_site_fract_z
 _atom_site_occupancy
  Li  Li0  1  0.28627912  0.77624138  0.68128663  1
  Li  Li1  1  0.28627912  0.72375862  0.31871337  1
  Li  Li2  1  0.21372088  0.27624138  0.81871337  1
  Li  Li3  1  0.21372088  0.22375862  0.18128663  1
  Li  Li4  1  0.71372088  0.22375862  0.31871337  1
  Li  Li5  1  0.71372088  0.27624138  0.68128663  1
  Li  Li6  1  0.78627912  0.72375862  0.18128663  1
  Li  Li7  1  0.78627912  0.77624138  0.81871337  1
  Mg  Mg0  1  0.24569963  0.04107077  0.38924293  1
  Mg  Mg1  1  0.24569963  0.45892923  0.61075707  1
  Mg  Mg2  1  0.25430037  0.95892923  0.88924293  1
  Mg  Mg3  1  0.25430037  0.54107077  0.11075707  1
  Mg  Mg4  1  0.75430037  0.54107077  0.38924293  1
  Mg  Mg5  1  0.75430037  0.95892923  0.61075707  1
  Mg  Mg6  1  0.74569963  0.04107077  0.11075707  1
  Mg  Mg7  1  0.74569963  0.45892923  0.88924293  1
  S  S0  1  0.95264464  0.25000000  0.50000000  1
  S  S1  1  0.54735536  0.75000000  -0.00000000  1
  S  S2  1  0.60543118  0.60414204  0.64842178  1
  S  S3  1  0.45264464  0.25000000  -0.00000000  1
  S  S4  1  0.04735536  0.75000000  0.50000000  1
  S  S5  1  0.60543118  0.89585796  0.35157822  1
  S  S6  1  0.89456882  0.10414204  0.85157822  1
  S  S7  1  0.89456882  0.39585796  0.14842178  1
  S  S8  1  0.39456882  0.39585796  0.35157822  1
  S  S9  1  0.39456882  0.10414204  0.64842178  1
  S  S10  1  0.10543118  0.89585796  0.14842178  1
  S  S11  1  0.10543118  0.60414204  0.85157822  1
  O  O0  1  0.33210307  0.25607309  0.68155678  1
  O  O1  1  0.16925312  0.48467679  0.77705969  1
  O  O2  1  0.16925312  0.01532321  0.22294031  1
  O  O3  1  0.33074688  0.98467679  0.72294031  1
  O  O4  1  0.33074688  0.51532321  0.27705969  1
  O  O5  1  0.83074688  0.51532321  0.22294031  1
  O  O6  1  0.83074688  0.98467679  0.77705969  1
  O  O7  1  0.66925312  0.01532321  0.27705969  1
  O  O8  1  0.66925312  0.48467679  0.72294031  1
  O  O9  1  0.14920543  0.56807834  0.96415152  1
  O  O10  1  0.14920543  0.93192166  0.03584848  1
  O  O11  1  0.35079457  0.06807834  0.53584848  1
  O  O12  1  0.35079457  0.43192166  0.46415152  1
  O  O13  1  0.85079457  0.43192166  0.03584848  1
  O  O14  1  0.85079457  0.06807834  0.96415152  1
  O  O15  1  0.64920543  0.93192166  0.46415152  1
  O  O16  1  0.64920543  0.56807834  0.53584848  1
  O  O17  1  0.16789693  0.75607309  0.81844322  1
  O  O18  1  0.83210307  0.24392691  0.18155678  1
  O  O19  1  0.33210307  0.24392691  0.31844322  1
  O  O20  1  0.15109096  0.66881734  0.57883090  1
  O  O21  1  0.15109096  0.83118266  0.42116910  1
  O  O22  1  0.34890904  0.16881734  0.92116910  1
  O  O23  1  0.34890904  0.33118266  0.07883090  1
  O  O24  1  0.84890904  0.33118266  0.42116910  1
  O  O25  1  0.84890904  0.16881734  0.57883090  1
  O  O26  1  0.65109096  0.83118266  0.07883090  1
  O  O27  1  0.65109096  0.66881734  0.92116910  1
  O  O28  1  0.95357601  0.85915407  0.56219686  1
  O  O29  1  0.95357601  0.64084593  0.43780314  1
  O  O30  1  0.54642399  0.35915407  0.93780314  1
  O  O31  1  0.54642399  0.14084593  0.06219686  1
  O  O32  1  0.04642399  0.14084593  0.43780314  1
  O  O33  1  0.04642399  0.35915407  0.56219686  1
  O  O34  1  0.45357601  0.64084593  0.06219686  1
  O  O35  1  0.45357601  0.85915407  0.93780314  1
  O  O36  1  0.43324164  0.60745753  0.65954369  1
  O  O37  1  0.43324164  0.89254247  0.34045631  1
  O  O38  1  0.06675836  0.10745753  0.84045631  1
  O  O39  1  0.06675836  0.39254247  0.15954369  1
  O  O40  1  0.56675836  0.39254247  0.34045631  1
  O  O41  1  0.56675836  0.10745753  0.65954369  1
  O  O42  1  0.93324164  0.89254247  0.15954369  1
  O  O43  1  0.93324164  0.60745753  0.84045631  1
  O  O44  1  0.66789693  0.75607309  0.68155678  1
  O  O45  1  0.66789693  0.74392691  0.31844322  1
  O  O46  1  0.83210307  0.25607309  0.81844322  1
  O  O47  1  0.16789693  0.74392691  0.18155678  1
loop_
_geom_bond_atom_site_label_1
_geom_bond_atom_site_label_2
_geom_bond_distance
_geom_bond_site_symmetry_2
Li0 O3 1.917578 1_555
Li0 O20 1.934219 1_555
Li0 O36 1.946550 1_555
Li0 O17 1.952624 1_555
Li1 O4 1.917578 1_555
Li1 O21 1.934219 1_555
Li1 O37 1.946550 1_555
Li1 O47 1.952624 1_555
Li2 O1 1.917578 1_555
Li2 O22 1.934219 1_555
Li2 O38 1.946550 1_555
Li2 O0 1.952624 1_555
Li3 O2 1.917578 1_555
Li3 O23 1.934219 1_555
Li3 O39 1.946550 1_555
Li3 O19 1.952624 1_555
Li4 O7 1.917578 1_555
Li4 O24 1.934219 1_555
Li4 O40 1.946550 1_555
Li4 O18 1.952624 1_555
Li5 O8 1.917578 1_555
Li5 O25 1.934219 1_555
Li5 O41 1.946550 1_555
Li5 O46 1.952624 1_555
Li6 O5 1.917578 1_555
Li6 O26 1.934219 1_555
Li6 O42 1.946550 1_555
Li6 O45 1.952624 1_555
Li7 O6 1.917578 1_555
Li7 O27 1.934219 1_555
Li7 O43 1.946550 1_555
Li7 O44 1.952624 1_555
Mg0 O32 1.995988 1_555
Mg0 O11 2.003780 1_555
Mg0 O21 2.030930 1_545
Mg0 O19 2.093874 1_555
Mg0 O2 2.130137 1_555
Mg0 O37 2.137950 1_545
Mg1 O33 1.995988 1_555
Mg1 O12 2.003780 1_555
Mg1 O20 2.030930 1_555
Mg1 O0 2.093874 1_555
Mg1 O1 2.130137 1_555
Mg1 O36 2.137950 1_555
Mg2 O35 1.995988 1_555
Mg2 O10 2.003780 1_556
Mg2 O22 2.030930 1_565
Mg2 O17 2.093874 1_555
Mg2 O3 2.130137 1_555
Mg2 O38 2.137950 1_565
Mg3 O34 1.995988 1_555
Mg3 O9 2.003780 1_554
Mg3 O23 2.030930 1_555
Mg3 O47 2.093874 1_555
Mg3 O4 2.130137 1_555
Mg3 O39 2.137950 1_555
Mg4 O29 1.995988 1_555
Mg4 O16 2.003780 1_555
Mg4 O24 2.030930 1_555
Mg4 O45 2.093874 1_555
Mg4 O5 2.130137 1_555
Mg4 O40 2.137950 1_555
Mg5 O28 1.995988 1_555
Mg5 O15 2.003780 1_555
Mg5 O25 2.030930 1_565
Mg5 O44 2.093874 1_555
Mg5 O6 2.130137 1_555
Mg5 O41 2.137950 1_565
Mg6 O31 1.995988 1_555
Mg6 O14 2.003780 1_554
Mg6 O26 2.030930 1_545
Mg6 O18 2.093874 1_555
Mg6 O7 2.130137 1_555
Mg6 O42 2.137950 1_545
Mg7 O30 1.995988 1_555
Mg7 O13 2.003780 1_556
Mg7 O27 2.030930 1_555
Mg7 O46 2.093874 1_555
Mg7 O8 2.130137 1_555
Mg7 O43 2.137950 1_555
O0 S9 1.478786 1_555
O1 S11 1.479455 1_555
O2 S10 1.479455 1_545
O3 S9 1.479455 1_565
O4 S8 1.479455 1_555
O5 S7 1.479455 1_555
O6 S6 1.479455 1_565
O7 S5 1.479455 1_545
O8 S2 1.479455 1_555
O9 S11 1.448800 1_555
O10 S10 1.448800 1_555
O11 S9 1.448800 1_555
O12 S8 1.448800 1_555
O13 S7 1.448800 1_555
O14 S6 1.448800 1_555
O15 S5 1.448800 1_555
O16 S2 1.448800 1_555
O17 S11 1.478786 1_555
O18 S7 1.478786 1_555
O19 S8 1.478786 1_555
O20 S4 1.480666 1_555
O21 S4 1.480666 1_555
O22 S3 1.480666 1_556
O23 S3 1.480666 1_555
O24 S0 1.480666 1_555
O25 S0 1.480666 1_555
O26 S1 1.480666 1_555
O27 S1 1.480666 1_556
O28 S4 1.451413 1_655
O29 S4 1.451413 1_655
O30 S3 1.451413 1_556
O31 S3 1.451413 1_555
O32 S0 1.451413 1_455
O33 S0 1.451413 1_455
O34 S1 1.451413 1_555
O35 S1 1.451413 1_556
O36 S2 1.474455 1_555
O37 S5 1.474455 1_555
O38 S6 1.474455 1_455
O39 S7 1.474455 1_455
O40 S8 1.474455 1_555
O41 S9 1.474455 1_555
O42 S10 1.474455 1_655
O43 S11 1.474455 1_655
O44 S2 1.478786 1_555
O45 S5 1.478786 1_555
O46 S6 1.478786 1_555
O47 S10 1.478786 1_555
