# generated using pymatgen
data_Ba3Al2(Sb2O7)3
_symmetry_space_group_name_H-M   'P 1'
_cell_length_a   22.86606423
_cell_length_b   7.64342065
_cell_length_c   7.64342216
_cell_angle_alpha   39.99569048
_cell_angle_beta   43.20651985
_cell_angle_gamma   43.20650770
_symmetry_Int_Tables_number   1
_chemical_formula_structural   Ba3Al2(Sb2O7)3
_chemical_formula_sum   'Ba3 Al2 Sb6 O21'
_cell_volume   541.91340695
_cell_formula_units_Z   1
loop_
 _symmetry_equiv_pos_site_id
 _symmetry_equiv_pos_as_xyz
  1  'x, y, z'
loop_
 _atom_site_type_symbol
 _atom_site_label
 _atom_site_symmetry_multiplicity
 _atom_site_fract_x
 _atom_site_fract_y
 _atom_site_fract_z
 _atom_site_occupancy
  Ba  Ba0  1  0.21621500  0.59734800  0.31570000  1
  Ba  Ba1  1  0.45045200  0.68430000  0.40265200  1
  Ba  Ba2  1  0.83333300  0.40000100  0.59999900  1
  Al  Al0  1  0.66989300  0.89965000  0.98461700  1
  Al  Al1  1  0.99677400  0.01538300  0.10035000  1
  Sb  Sb0  1  0.22851300  0.71318600  0.69874400  1
  Sb  Sb1  1  0.55575700  0.65486100  0.64827400  1
  Sb  Sb2  1  0.90847700  0.67973800  0.74718200  1
  Sb  Sb3  1  0.11091000  0.35172600  0.34513900  1
  Sb  Sb4  1  0.43815300  0.30125600  0.28681400  1
  Sb  Sb5  1  0.75819000  0.25281800  0.32026200  1
  O  O0  1  0.12236800  0.95124400  0.55994700  1
  O  O1  1  0.54771200  0.91710800  0.24838500  1
  O  O2  1  0.79073600  0.95768200  0.30651700  1
  O  O3  1  0.36029700  0.16338900  0.42596300  1
  O  O4  1  0.63201200  0.24671800  0.67077300  1
  O  O5  1  0.97848500  0.65740900  0.34624800  1
  O  O6  1  0.19078600  0.38310400  0.94973500  1
  O  O7  1  0.45109800  0.55540400  0.86505400  1
  O  O8  1  0.71261300  0.58067400  0.00025200  1
  O  O9  1  0.21556800  0.13494600  0.44459600  1
  O  O10  1  0.47588100  0.05026500  0.61689600  1
  O  O11  1  0.95405400  0.99974800  0.41932600  1
  O  O12  1  0.03465500  0.32922700  0.75328200  1
  O  O13  1  0.30636900  0.57403700  0.83661100  1
  O  O14  1  0.68818200  0.65375200  0.34259100  1
  O  O15  1  0.88422800  0.29434300  0.02669500  1
  O  O16  1  0.33333300  0.64222900  0.35777100  1
  O  O17  1  0.78243900  0.97330500  0.70565700  1
  O  O18  1  0.11895400  0.75161500  0.08289200  1
  O  O19  1  0.54429900  0.44005300  0.04875600  1
  O  O20  1  0.87593100  0.69348300  0.04231800  1
loop_
_geom_bond_atom_site_label_1
_geom_bond_atom_site_label_2
_geom_bond_distance
_geom_bond_site_symmetry_2
Ba0 O3 2.529953 1_555
Ba0 O13 2.674028 1_554
Ba0 O9 2.860453 1_555
Ba0 O18 2.869549 1_555
Ba0 O0 2.973620 1_555
Ba0 O16 3.186936 1_555
Ba0 O6 3.409725 1_555
Ba1 O13 2.529967 1_555
Ba1 O3 2.674021 1_565
Ba1 O7 2.860439 1_555
Ba1 O1 2.869528 1_555
Ba1 O19 2.973620 1_555
Ba1 O16 3.186959 1_555
Ba1 O10 3.409724 1_555
Ba2 O20 2.575353 1_555
Ba2 O2 2.575356 1_555
Ba2 O11 2.737047 1_545
Ba2 O8 2.737052 1_556
Al0 O8 1.778926 1_556
Al0 O4 1.863090 1_565
Al0 O1 1.882934 1_556
Al0 O17 1.939013 1_555
Al0 O14 1.958763 1_556
Al1 O11 1.778926 1_545
Al1 O12 1.863090 1_654
Al1 O18 1.882919 1_645
Al1 O15 1.939012 1_555
Al1 O5 1.958763 1_545
O0 Sb3 1.972777 1_565
O0 Sb0 2.164522 1_555
O1 Sb1 2.070977 1_555
O1 Sb4 2.123487 1_565
O2 Sb5 1.858910 1_565
O3 Sb4 1.915282 1_555
O4 Sb5 2.059264 1_555
O4 Sb1 2.118342 1_555
O5 Sb3 2.075432 1_655
O5 Sb2 2.287921 1_555
O6 Sb3 2.002112 1_556
O6 Sb0 2.033264 1_555
O7 Sb1 1.998015 1_555
O7 Sb4 2.026240 1_556
O8 Sb5 1.966227 1_555
O9 Sb3 1.997995 1_555
O9 Sb0 2.026239 1_545
O10 Sb1 2.002111 1_545
O10 Sb4 2.033279 1_555
O11 Sb2 1.966227 1_555
O12 Sb2 2.059263 1_455
O12 Sb3 2.118343 1_555
O13 Sb0 1.915282 1_555
O14 Sb1 2.075432 1_555
O14 Sb5 2.287921 1_555
O15 Sb5 2.063161 1_555
O15 Sb2 2.135582 1_554
O16 Sb4 1.998929 1_555
O16 Sb0 1.998930 1_555
O17 Sb2 2.063161 1_555
O17 Sb5 2.135583 1_565
O18 Sb3 2.070966 1_555
O18 Sb0 2.123488 1_554
O19 Sb1 1.972778 1_554
O19 Sb4 2.164542 1_555
O20 Sb2 1.858910 1_554
