# generated using pymatgen
data_Li(MoSe)3
_symmetry_space_group_name_H-M   'P 1'
_cell_length_a   8.98532190
_cell_length_b   8.98532190
_cell_length_c   4.52641300
_cell_angle_alpha   90.00000000
_cell_angle_beta   90.00000000
_cell_angle_gamma   119.99999928
_symmetry_Int_Tables_number   1
_chemical_formula_structural   Li(MoSe)3
_chemical_formula_sum   'Li2 Mo6 Se6'
_cell_volume   316.48424358
_cell_formula_units_Z   2
loop_
 _symmetry_equiv_pos_site_id
 _symmetry_equiv_pos_as_xyz
  1  'x, y, z'
loop_
 _atom_site_type_symbol
 _atom_site_label
 _atom_site_symmetry_multiplicity
 _atom_site_fract_x
 _atom_site_fract_y
 _atom_site_fract_z
 _atom_site_occupancy
  Li  Li0  1  0.33333300  0.66666700  0.75000000  1
  Li  Li1  1  0.66666700  0.33333300  0.25000000  1
  Mo  Mo0  1  0.96779800  0.81483900  0.75000000  1
  Mo  Mo1  1  0.84704100  0.03220200  0.75000000  1
  Mo  Mo2  1  0.18516100  0.15295900  0.75000000  1
  Mo  Mo3  1  0.03220200  0.18516100  0.25000000  1
  Mo  Mo4  1  0.15295900  0.96779800  0.25000000  1
  Mo  Mo5  1  0.81483900  0.84704100  0.25000000  1
  Se  Se0  1  0.30313500  0.93726200  0.75000000  1
  Se  Se1  1  0.63412700  0.69686500  0.75000000  1
  Se  Se2  1  0.06273800  0.36587300  0.75000000  1
  Se  Se3  1  0.69686500  0.06273800  0.25000000  1
  Se  Se4  1  0.36587300  0.30313500  0.25000000  1
  Se  Se5  1  0.93726200  0.63412700  0.25000000  1
loop_
_geom_bond_atom_site_label_1
_geom_bond_atom_site_label_2
_geom_bond_distance
_geom_bond_site_symmetry_2
Li0 Se0 2.577785 1_555
Li0 Se2 2.577791 1_555
Li0 Se1 2.577794 1_555
Li1 Se3 2.577785 1_555
Li1 Se5 2.577791 1_555
Li1 Se4 2.577794 1_555
Mo0 Se1 2.633323 1_555
Mo0 Se0 2.640910 1_655
Mo0 Mo1 2.666644 1_565
Mo0 Mo2 2.666644 1_665
Mo0 Se5 2.718170 1_555
Mo0 Se5 2.718170 1_556
Mo0 Mo5 2.737231 1_556
Mo0 Mo5 2.737231 1_555
Mo0 Mo4 2.737231 1_655
Mo0 Mo4 2.737231 1_656
Mo1 Se2 2.633323 1_655
Mo1 Se1 2.640910 1_545
Mo1 Mo2 2.666644 1_655
Mo1 Se3 2.718170 1_555
Mo1 Se3 2.718170 1_556
Mo1 Mo5 2.737231 1_545
Mo1 Mo5 2.737231 1_546
Mo1 Mo3 2.737231 1_656
Mo1 Mo3 2.737231 1_655
Mo2 Se0 2.633323 1_545
Mo2 Se2 2.640910 1_555
Mo2 Se4 2.718170 1_556
Mo2 Se4 2.718170 1_555
Mo2 Mo3 2.737231 1_555
Mo2 Mo3 2.737231 1_556
Mo2 Mo4 2.737231 1_546
Mo2 Mo4 2.737231 1_545
Mo3 Se4 2.633323 1_555
Mo3 Se3 2.640910 1_455
Mo3 Mo4 2.666644 1_545
Mo3 Mo5 2.666644 1_445
Mo3 Se2 2.718170 1_555
Mo3 Se2 2.718170 1_554
Mo4 Se5 2.633323 1_455
Mo4 Se4 2.640910 1_565
Mo4 Mo5 2.666644 1_455
Mo4 Se0 2.718170 1_555
Mo4 Se0 2.718170 1_554
Mo5 Se3 2.633323 1_565
Mo5 Se5 2.640910 1_555
Mo5 Se1 2.718170 1_554
Mo5 Se1 2.718170 1_555
