# generated using pymatgen
data_Mn2CrGa3Se8
_symmetry_space_group_name_H-M   'P 1'
_cell_length_a   26.58638399
_cell_length_b   26.58638399
_cell_length_c   26.58638405
_cell_angle_alpha   8.42031679
_cell_angle_beta   8.42031679
_cell_angle_gamma   8.42031748
_symmetry_Int_Tables_number   1
_chemical_formula_structural   Mn2CrGa3Se8
_chemical_formula_sum   'Mn2 Cr1 Ga3 Se8'
_cell_volume   349.60058162
_cell_formula_units_Z   1
loop_
 _symmetry_equiv_pos_site_id
 _symmetry_equiv_pos_as_xyz
  1  'x, y, z'
loop_
 _atom_site_type_symbol
 _atom_site_label
 _atom_site_symmetry_multiplicity
 _atom_site_fract_x
 _atom_site_fract_y
 _atom_site_fract_z
 _atom_site_occupancy
  Mn  Mn0  1  0.88220400  0.88220400  0.88220400  1
  Mn  Mn1  1  0.38232200  0.38232200  0.38232200  1
  Cr  Cr0  1  0.11743500  0.11743500  0.11743500  1
  Ga  Ga0  1  0.00029100  0.00029100  0.00029100  1
  Ga  Ga1  1  0.49985700  0.49985700  0.49985700  1
  Ga  Ga2  1  0.61787700  0.61787700  0.61787700  1
  Se  Se0  1  0.93770900  0.93770900  0.93770900  1
  Se  Se1  1  0.43840000  0.43840000  0.43840000  1
  Se  Se2  1  0.56138600  0.56138600  0.56138600  1
  Se  Se3  1  0.06115200  0.06115200  0.06115200  1
  Se  Se4  1  0.64829500  0.64829500  0.64829500  1
  Se  Se5  1  0.14839800  0.14839800  0.14839800  1
  Se  Se6  1  0.85049800  0.85049800  0.85049800  1
  Se  Se7  1  0.35017500  0.35017500  0.35017500  1
loop_
_geom_bond_atom_site_label_1
_geom_bond_atom_site_label_2
_geom_bond_distance
_geom_bond_site_symmetry_2
Mn0 Se2 2.463501 1_556
Mn0 Se2 2.463501 1_655
Mn0 Se2 2.463501 1_565
Mn0 Se6 2.519741 1_555
Mn1 Se3 2.452341 1_556
Mn1 Se3 2.452341 1_655
Mn1 Se3 2.452341 1_565
Mn1 Se7 2.554788 1_555
Cr0 Se1 2.458808 1_554
Cr0 Se1 2.458808 1_455
Cr0 Se1 2.458808 1_545
Cr0 Se5 2.460693 1_555
Ga0 Se7 2.609526 1_554
Ga0 Se7 2.609526 1_545
Ga0 Se7 2.609526 1_455
Ga0 Se4 2.698024 1_445
Ga0 Se4 2.698025 1_544
Ga0 Se4 2.698025 1_454
Ga1 Se6 2.640361 1_554
Ga1 Se6 2.640361 1_545
Ga1 Se6 2.640361 1_455
Ga1 Se5 2.674802 1_556
Ga1 Se5 2.674802 1_565
Ga1 Se5 2.674802 1_655
Ga2 Se4 2.417381 1_555
Ga2 Se0 2.496168 1_554
Ga2 Se0 2.496168 1_545
Ga2 Se0 2.496168 1_455
