# generated using pymatgen
data_K3MnO4
_symmetry_space_group_name_H-M   'P 1'
_cell_length_a   6.49865786
_cell_length_b   10.83614357
_cell_length_c   9.49372204
_cell_angle_alpha   67.46915070
_cell_angle_beta   89.95728003
_cell_angle_gamma   107.37939279
_symmetry_Int_Tables_number   1
_chemical_formula_structural   K3MnO4
_chemical_formula_sum   'K12 Mn4 O16'
_cell_volume   584.27776482
_cell_formula_units_Z   4
loop_
 _symmetry_equiv_pos_site_id
 _symmetry_equiv_pos_as_xyz
  1  'x, y, z'
loop_
 _atom_site_type_symbol
 _atom_site_label
 _atom_site_symmetry_multiplicity
 _atom_site_fract_x
 _atom_site_fract_y
 _atom_site_fract_z
 _atom_site_occupancy
  K  K0  1  0.87494700  0.74997187  0.37497097  1
  K  K1  1  0.37496009  0.74998855  0.87497250  1
  K  K2  1  0.62493955  0.24999339  0.12497025  1
  K  K3  1  0.12495751  0.24997928  0.62497944  1
  K  K4  1  0.68754250  0.37487474  0.43758700  1
  K  K5  1  0.18753469  0.37487296  0.93759591  1
  K  K6  1  0.43755287  0.87488577  0.18759060  1
  K  K7  1  0.93756468  0.87490034  0.68758142  1
  K  K8  1  0.31231712  0.62491911  0.56258778  1
  K  K9  1  0.81233174  0.62492358  0.06259843  1
  K  K10  1  0.06232618  0.12493460  0.31258807  1
  K  K11  1  0.56232333  0.12495242  0.81257855  1
  Mn  Mn0  1  0.25010459  0.50003657  0.25001566  1
  Mn  Mn1  1  0.50012543  0.00002786  0.50000737  1
  Mn  Mn2  1  0.75010909  0.50003989  0.75001181  1
  Mn  Mn3  1  0.00012182  0.00003286  0.00001014  1
  O  O0  1  0.17106556  0.64620321  0.18258196  1
  O  O1  1  0.67104083  0.64624779  0.68256414  1
  O  O2  1  0.92102512  0.14621470  0.93260112  1
  O  O3  1  0.42103171  0.14620435  0.43260162  1
  O  O4  1  0.27522271  0.85392098  0.56738529  1
  O  O5  1  0.77521068  0.85390513  0.06740274  1
  O  O6  1  0.02524118  0.35394058  0.31737499  1
  O  O7  1  0.52518806  0.35391262  0.81737260  1
  O  O8  1  0.65478538  0.00575937  0.64323397  1
  O  O9  1  0.15479647  0.00575438  0.14325195  1
  O  O10  1  0.40475864  0.50573750  0.39322614  1
  O  O11  1  0.90480255  0.50575492  0.89324742  1
  O  O12  1  0.89902908  0.49428588  0.60660394  1
  O  O13  1  0.39899684  0.49426008  0.10665022  1
  O  O14  1  0.64901243  0.99428640  0.35662659  1
  O  O15  1  0.14903059  0.99428029  0.85663140  1
loop_
_geom_bond_atom_site_label_1
_geom_bond_atom_site_label_2
_geom_bond_distance
_geom_bond_site_symmetry_2
K0 O12 2.850807 1_555
K0 O5 2.851909 1_555
K0 O1 2.852357 1_555
K0 O9 2.852919 1_665
K0 O14 3.341290 1_555
K0 O0 3.341415 1_655
K0 O10 3.344793 1_555
K0 O4 3.347511 1_655
K1 O13 2.851193 1_556
K1 O4 2.852068 1_555
K1 O0 2.852375 1_556
K1 O8 2.852877 1_565
K1 O15 3.341053 1_555
K1 O1 3.341156 1_555
K1 O11 3.344606 1_455
K1 O5 3.347392 1_556
K2 O14 2.851032 1_545
K2 O7 2.852176 1_554
K2 O3 2.852581 1_555
K2 O11 2.852853 1_554
K2 O13 3.340916 1_555
K2 O2 3.341221 1_554
K2 O9 3.344555 1_555
K2 O6 3.347557 1_655
K3 O15 2.850956 1_545
K3 O6 2.852186 1_555
K3 O2 2.852592 1_455
K3 O10 2.852812 1_555
K3 O12 3.341111 1_455
K3 O3 3.341197 1_555
K3 O8 3.344645 1_455
K3 O7 3.347123 1_555
K4 O6 2.581128 1_655
K4 O10 2.581800 1_555
K4 O3 2.582275 1_555
K4 O12 2.582645 1_555
K5 O7 2.581066 1_555
K5 O11 2.581657 1_455
K5 O2 2.582206 1_455
K5 O13 2.582721 1_556
K6 O5 2.581044 1_555
K6 O9 2.581698 1_565
K6 O0 2.582403 1_555
K6 O14 2.582658 1_555
K7 O4 2.581075 1_655
K7 O8 2.581752 1_565
K7 O1 2.582277 1_555
K7 O15 2.582652 1_655
K8 O4 2.581080 1_555
K8 O12 2.581819 1_455
K8 O10 2.582141 1_555
K8 O1 2.582483 1_555
K9 O5 2.580952 1_555
K9 O11 2.582018 1_554
K9 O13 2.582127 1_555
K9 O0 2.582579 1_655
K10 O6 2.581063 1_555
K10 O14 2.581984 1_445
K10 O9 2.582002 1_555
K10 O3 2.582555 1_555
K11 O7 2.580719 1_555
K11 O15 2.581903 1_545
K11 O8 2.582160 1_555
K11 O2 2.582575 1_555
Mn0 O6 1.700399 1_555
Mn0 O10 1.700517 1_555
Mn0 O0 1.700526 1_555
Mn0 O13 1.700645 1_555
Mn1 O14 1.700549 1_545
Mn1 O4 1.700614 1_545
Mn1 O8 1.700719 1_555
Mn1 O3 1.700821 1_555
Mn2 O7 1.700797 1_555
Mn2 O11 1.700885 1_555
Mn2 O12 1.700952 1_555
Mn2 O1 1.701031 1_555
Mn3 O15 1.700677 1_544
Mn3 O5 1.700768 1_445
Mn3 O9 1.700874 1_555
Mn3 O2 1.700883 1_454
