# generated using pymatgen
data_ZrCo3B2
_symmetry_space_group_name_H-M   'P 1'
_cell_length_a   9.65778752
_cell_length_b   9.65778656
_cell_length_c   6.02771078
_cell_angle_alpha   90.00000000
_cell_angle_beta   90.00000000
_cell_angle_gamma   119.99999645
_symmetry_Int_Tables_number   1
_chemical_formula_structural   ZrCo3B2
_chemical_formula_sum   'Zr8 Co24 B16'
_cell_volume   486.89834951
_cell_formula_units_Z   8
loop_
 _symmetry_equiv_pos_site_id
 _symmetry_equiv_pos_as_xyz
  1  'x, y, z'
loop_
 _atom_site_type_symbol
 _atom_site_label
 _atom_site_symmetry_multiplicity
 _atom_site_fract_x
 _atom_site_fract_y
 _atom_site_fract_z
 _atom_site_occupancy
  Zr  Zr0_0  1  0.00000000  0.00000000  0.00000000  1
  Zr  Zr0_1  1  0.00000000  0.00000000  0.50000000  1
  Zr  Zr0_2  1  0.00000000  0.50000000  0.00000000  1
  Zr  Zr0_3  1  0.00000000  0.50000000  0.50000000  1
  Zr  Zr0_4  1  0.50000000  0.00000000  0.00000000  1
  Zr  Zr0_5  1  0.50000000  0.00000000  0.50000000  1
  Zr  Zr0_6  1  0.50000000  0.50000000  0.00000000  1
  Zr  Zr0_7  1  0.50000000  0.50000000  0.50000000  1
  Co  Co0_0  1  0.25000000  0.25000000  0.25000000  1
  Co  Co0_1  1  0.25000000  0.25000000  0.75000000  1
  Co  Co0_2  1  0.25000000  0.75000000  0.25000000  1
  Co  Co0_3  1  0.25000000  0.75000000  0.75000000  1
  Co  Co0_4  1  0.75000000  0.25000000  0.25000000  1
  Co  Co0_5  1  0.75000000  0.25000000  0.75000000  1
  Co  Co0_6  1  0.75000000  0.75000000  0.25000000  1
  Co  Co0_7  1  0.75000000  0.75000000  0.75000000  1
  Co  Co1_0  1  0.25000000  0.00000000  0.25000000  1
  Co  Co1_1  1  0.25000000  0.00000000  0.75000000  1
  Co  Co1_2  1  0.25000000  0.50000000  0.25000000  1
  Co  Co1_3  1  0.25000000  0.50000000  0.75000000  1
  Co  Co1_4  1  0.75000000  0.00000000  0.25000000  1
  Co  Co1_5  1  0.75000000  0.00000000  0.75000000  1
  Co  Co1_6  1  0.75000000  0.50000000  0.25000000  1
  Co  Co1_7  1  0.75000000  0.50000000  0.75000000  1
  Co  Co2_0  1  0.00000000  0.25000000  0.25000000  1
  Co  Co2_1  1  0.00000000  0.25000000  0.75000000  1
  Co  Co2_2  1  0.00000000  0.75000000  0.25000000  1
  Co  Co2_3  1  0.00000000  0.75000000  0.75000000  1
  Co  Co2_4  1  0.50000000  0.25000000  0.25000000  1
  Co  Co2_5  1  0.50000000  0.25000000  0.75000000  1
  Co  Co2_6  1  0.50000000  0.75000000  0.25000000  1
  Co  Co2_7  1  0.50000000  0.75000000  0.75000000  1
  B  B0_0  1  0.33333350  0.16666650  0.00000000  1
  B  B0_1  1  0.33333350  0.16666650  0.50000000  1
  B  B0_2  1  0.33333350  0.66666650  0.00000000  1
  B  B0_3  1  0.33333350  0.66666650  0.50000000  1
  B  B0_4  1  0.83333350  0.16666650  0.00000000  1
  B  B0_5  1  0.83333350  0.16666650  0.50000000  1
  B  B0_6  1  0.83333350  0.66666650  0.00000000  1
  B  B0_7  1  0.83333350  0.66666650  0.50000000  1
  B  B1_0  1  0.16666650  0.33333350  0.00000000  1
  B  B1_1  1  0.16666650  0.33333350  0.50000000  1
  B  B1_2  1  0.16666650  0.83333350  0.00000000  1
  B  B1_3  1  0.16666650  0.83333350  0.50000000  1
  B  B1_4  1  0.66666650  0.33333350  0.00000000  1
  B  B1_5  1  0.66666650  0.33333350  0.50000000  1
  B  B1_6  1  0.66666650  0.83333350  0.00000000  1
  B  B1_7  1  0.66666650  0.83333350  0.50000000  1
loop_
_geom_bond_atom_site_label_1
_geom_bond_atom_site_label_2
_geom_bond_distance
_geom_bond_site_symmetry_2
Zr0_0 Zr0_1 3.013855 1_554
Zr0_0 Zr0_1 3.013855 1_555
Zr0_2 Zr0_3 3.013855 1_554
Zr0_2 Zr0_3 3.013855 1_555
Zr0_4 Zr0_5 3.013855 1_554
Zr0_4 Zr0_5 3.013855 1_555
Zr0_6 Zr0_7 3.013855 1_555
Zr0_6 Zr0_7 3.013855 1_554
Co0_0 Zr0_0 2.846118 1_555
Co0_0 Zr0_1 2.846118 1_555
Co0_0 Zr0_6 2.846118 1_555
Co0_0 Zr0_7 2.846118 1_555
Co0_1 Zr0_6 2.846118 1_556
Co0_1 Zr0_0 2.846118 1_556
Co0_1 Zr0_1 2.846118 1_555
Co0_1 Zr0_7 2.846118 1_555
Co0_2 Zr0_2 2.846118 1_555
Co0_2 Zr0_3 2.846118 1_555
Co0_2 Zr0_5 2.846118 1_565
Co0_2 Zr0_4 2.846118 1_565
Co0_3 Zr0_2 2.846118 1_556
Co0_3 Zr0_3 2.846118 1_555
Co0_3 Zr0_5 2.846118 1_565
Co0_3 Zr0_4 2.846118 1_566
Co0_4 Zr0_3 2.846118 1_655
Co0_4 Zr0_2 2.846118 1_655
Co0_4 Zr0_4 2.846118 1_555
Co0_4 Zr0_5 2.846118 1_555
Co0_5 Zr0_2 2.846118 1_656
Co0_5 Zr0_3 2.846118 1_655
Co0_5 Zr0_4 2.846118 1_556
Co0_5 Zr0_5 2.846118 1_555
Co0_6 Zr0_1 2.846118 1_665
Co0_6 Zr0_6 2.846118 1_555
Co0_6 Zr0_7 2.846118 1_555
Co0_6 Zr0_0 2.846118 1_665
Co0_7 Zr0_6 2.846118 1_556
Co0_7 Zr0_1 2.846118 1_665
Co0_7 Zr0_7 2.846118 1_555
Co0_7 Zr0_0 2.846118 1_666
Co1_0 Zr0_0 2.846117 1_555
Co1_0 Zr0_1 2.846117 1_555
Co1_0 Zr0_4 2.846117 1_555
Co1_0 Zr0_5 2.846117 1_555
Co1_1 Zr0_0 2.846117 1_556
Co1_1 Zr0_1 2.846117 1_555
Co1_1 Zr0_4 2.846117 1_556
Co1_1 Zr0_5 2.846117 1_555
Co1_2 Zr0_3 2.846117 1_555
Co1_2 Zr0_2 2.846117 1_555
Co1_2 Zr0_6 2.846117 1_555
Co1_2 Zr0_7 2.846117 1_555
Co1_3 Zr0_3 2.846117 1_555
Co1_3 Zr0_6 2.846117 1_556
Co1_3 Zr0_7 2.846117 1_555
Co1_3 Zr0_2 2.846117 1_556
Co1_4 Zr0_0 2.846117 1_655
Co1_4 Zr0_4 2.846117 1_555
Co1_4 Zr0_5 2.846117 1_555
Co1_4 Zr0_1 2.846117 1_655
Co1_5 Zr0_1 2.846117 1_655
Co1_5 Zr0_0 2.846117 1_656
Co1_5 Zr0_4 2.846117 1_556
Co1_5 Zr0_5 2.846117 1_555
Co1_6 Zr0_2 2.846117 1_655
Co1_6 Zr0_6 2.846117 1_555
Co1_6 Zr0_7 2.846117 1_555
Co1_6 Zr0_3 2.846117 1_655
Co1_7 Zr0_6 2.846117 1_556
Co1_7 Zr0_2 2.846117 1_656
Co1_7 Zr0_7 2.846117 1_555
Co1_7 Zr0_3 2.846117 1_655
Co2_0 Zr0_2 2.846117 1_555
Co2_0 Zr0_3 2.846117 1_555
Co2_0 Zr0_0 2.846117 1_555
Co2_0 Zr0_1 2.846117 1_555
Co2_1 Zr0_2 2.846117 1_556
Co2_1 Zr0_3 2.846117 1_555
Co2_1 Zr0_0 2.846117 1_556
Co2_1 Zr0_1 2.846117 1_555
Co2_2 Zr0_1 2.846117 1_565
Co2_2 Zr0_2 2.846117 1_555
Co2_2 Zr0_3 2.846117 1_555
Co2_2 Zr0_0 2.846117 1_565
Co2_3 Zr0_2 2.846117 1_556
Co2_3 Zr0_1 2.846117 1_565
Co2_3 Zr0_3 2.846117 1_555
Co2_3 Zr0_0 2.846117 1_566
Co2_4 Zr0_5 2.846117 1_555
Co2_4 Zr0_6 2.846117 1_555
Co2_4 Zr0_7 2.846117 1_555
Co2_4 Zr0_4 2.846117 1_555
Co2_5 Zr0_4 2.846117 1_556
Co2_5 Zr0_5 2.846117 1_555
Co2_5 Zr0_6 2.846117 1_556
Co2_5 Zr0_7 2.846117 1_555
Co2_6 Zr0_5 2.846117 1_565
Co2_6 Zr0_6 2.846117 1_555
Co2_6 Zr0_7 2.846117 1_555
Co2_6 Zr0_4 2.846117 1_565
Co2_7 Zr0_4 2.846117 1_566
Co2_7 Zr0_6 2.846117 1_556
Co2_7 Zr0_5 2.846117 1_565
Co2_7 Zr0_7 2.846117 1_555
B0_0 Co1_1 2.052806 1_554
B0_0 Co1_0 2.052806 1_555
B0_0 Co2_5 2.052806 1_554
B0_0 Co2_4 2.052806 1_555
B0_0 Co0_1 2.052809 1_554
B0_0 Co0_0 2.052809 1_555
B0_0 Zr0_4 2.787960 1_555
B0_0 Zr0_6 2.787964 1_555
B0_0 Zr0_0 2.787965 1_555
B0_1 Co1_1 2.052806 1_555
B0_1 Co1_0 2.052806 1_555
B0_1 Co2_5 2.052806 1_555
B0_1 Co2_4 2.052806 1_555
B0_1 Co0_0 2.052809 1_555
B0_1 Co0_1 2.052809 1_555
B0_1 Zr0_5 2.787960 1_555
B0_1 Zr0_7 2.787964 1_555
B0_1 Zr0_1 2.787965 1_555
B0_2 Co1_2 2.052806 1_555
B0_2 Co1_3 2.052806 1_554
B0_2 Co2_6 2.052806 1_555
B0_2 Co2_7 2.052806 1_554
B0_2 Co0_2 2.052809 1_555
B0_2 Co0_3 2.052809 1_554
B0_2 Zr0_6 2.787960 1_555
B0_2 Zr0_4 2.787964 1_565
B0_2 Zr0_2 2.787965 1_555
B0_3 Co1_2 2.052806 1_555
B0_3 Co1_3 2.052806 1_555
B0_3 Co2_6 2.052806 1_555
B0_3 Co2_7 2.052806 1_555
B0_3 Co0_2 2.052809 1_555
B0_3 Co0_3 2.052809 1_555
B0_3 Zr0_7 2.787960 1_555
B0_3 Zr0_5 2.787964 1_565
B0_3 Zr0_3 2.787965 1_555
B0_4 Co1_4 2.052806 1_555
B0_4 Co1_5 2.052806 1_554
B0_4 Co2_1 2.052806 1_654
B0_4 Co2_0 2.052806 1_655
B0_4 Co0_5 2.052809 1_554
B0_4 Co0_4 2.052809 1_555
B0_4 Zr0_0 2.787960 1_655
B0_4 Zr0_2 2.787964 1_655
B0_4 Zr0_4 2.787965 1_555
B0_5 Co1_4 2.052806 1_555
B0_5 Co1_5 2.052806 1_555
B0_5 Co2_1 2.052806 1_655
B0_5 Co2_0 2.052806 1_655
B0_5 Co0_4 2.052809 1_555
B0_5 Co0_5 2.052809 1_555
B0_5 Zr0_1 2.787960 1_655
B0_5 Zr0_3 2.787964 1_655
B0_5 Zr0_5 2.787965 1_555
B0_6 Co1_7 2.052806 1_554
B0_6 Co1_6 2.052806 1_555
B0_6 Co2_3 2.052806 1_654
B0_6 Co2_2 2.052806 1_655
B0_6 Co0_7 2.052809 1_554
B0_6 Co0_6 2.052809 1_555
B0_6 Zr0_2 2.787960 1_655
B0_6 Zr0_0 2.787964 1_665
B0_6 Zr0_6 2.787965 1_555
B0_7 Co1_7 2.052806 1_555
B0_7 Co1_6 2.052806 1_555
B0_7 Co2_3 2.052806 1_655
B0_7 Co2_2 2.052806 1_655
B0_7 Co0_7 2.052809 1_555
B0_7 Co0_6 2.052809 1_555
B0_7 Zr0_3 2.787960 1_655
B0_7 Zr0_1 2.787964 1_665
B0_7 Zr0_7 2.787965 1_555
B1_0 Co1_3 2.052806 1_554
B1_0 Co1_2 2.052806 1_555
B1_0 Co2_1 2.052806 1_554
B1_0 Co2_0 2.052806 1_555
B1_0 Co0_1 2.052809 1_554
B1_0 Co0_0 2.052809 1_555
B1_0 Zr0_2 2.787960 1_555
B1_0 Zr0_0 2.787964 1_555
B1_0 Zr0_6 2.787965 1_555
B1_1 Co1_3 2.052806 1_555
B1_1 Co1_2 2.052806 1_555
B1_1 Co2_0 2.052806 1_555
B1_1 Co2_1 2.052806 1_555
B1_1 Co0_0 2.052809 1_555
B1_1 Co0_1 2.052809 1_555
B1_1 Zr0_3 2.787960 1_555
B1_1 Zr0_1 2.787964 1_555
B1_1 Zr0_7 2.787965 1_555
B1_2 Co1_1 2.052806 1_564
B1_2 Co1_0 2.052806 1_565
B1_2 Co2_2 2.052806 1_555
B1_2 Co2_3 2.052806 1_554
B1_2 Co0_2 2.052809 1_555
B1_2 Co0_3 2.052809 1_554
B1_2 Zr0_0 2.787960 1_565
B1_2 Zr0_2 2.787964 1_555
B1_2 Zr0_4 2.787965 1_565
B1_3 Co1_1 2.052806 1_565
B1_3 Co1_0 2.052806 1_565
B1_3 Co2_2 2.052806 1_555
B1_3 Co2_3 2.052806 1_555
B1_3 Co0_2 2.052809 1_555
B1_3 Co0_3 2.052809 1_555
B1_3 Zr0_1 2.787960 1_565
B1_3 Zr0_3 2.787964 1_555
B1_3 Zr0_5 2.787965 1_565
B1_4 Co1_7 2.052806 1_554
B1_4 Co1_6 2.052806 1_555
B1_4 Co2_5 2.052806 1_554
B1_4 Co2_4 2.052806 1_555
B1_4 Co0_4 2.052809 1_555
B1_4 Co0_5 2.052809 1_554
B1_4 Zr0_6 2.787960 1_555
B1_4 Zr0_4 2.787964 1_555
B1_4 Zr0_2 2.787965 1_655
B1_5 Co1_7 2.052806 1_555
B1_5 Co1_6 2.052806 1_555
B1_5 Co2_4 2.052806 1_555
B1_5 Co2_5 2.052806 1_555
B1_5 Co0_4 2.052809 1_555
B1_5 Co0_5 2.052809 1_555
B1_5 Zr0_7 2.787960 1_555
B1_5 Zr0_5 2.787964 1_555
B1_5 Zr0_3 2.787965 1_655
B1_6 Co1_4 2.052806 1_565
B1_6 Co1_5 2.052806 1_564
B1_6 Co2_6 2.052806 1_555
B1_6 Co2_7 2.052806 1_554
B1_6 Co0_7 2.052809 1_554
B1_6 Co0_6 2.052809 1_555
B1_6 Zr0_4 2.787960 1_565
B1_6 Zr0_6 2.787964 1_555
B1_6 Zr0_0 2.787965 1_665
B1_7 Co1_4 2.052806 1_565
B1_7 Co1_5 2.052806 1_565
B1_7 Co2_7 2.052806 1_555
B1_7 Co2_6 2.052806 1_555
B1_7 Co0_7 2.052809 1_555
B1_7 Co0_6 2.052809 1_555
B1_7 Zr0_5 2.787960 1_565
B1_7 Zr0_7 2.787964 1_555
B1_7 Zr0_1 2.787965 1_665
