# generated using pymatgen
data_Er8In3Co
_symmetry_space_group_name_H-M   'P 1'
_cell_length_a   10.29824767
_cell_length_b   10.29824767
_cell_length_c   6.91103800
_cell_angle_alpha   90.00000000
_cell_angle_beta   90.00000000
_cell_angle_gamma   119.99999787
_symmetry_Int_Tables_number   1
_chemical_formula_structural   Er8In3Co
_chemical_formula_sum   'Er16 In6 Co2'
_cell_volume   634.74689687
_cell_formula_units_Z   2
loop_
 _symmetry_equiv_pos_site_id
 _symmetry_equiv_pos_as_xyz
  1  'x, y, z'
loop_
 _atom_site_type_symbol
 _atom_site_label
 _atom_site_symmetry_multiplicity
 _atom_site_fract_x
 _atom_site_fract_y
 _atom_site_fract_z
 _atom_site_occupancy
  Er  Er0  1  0.53413200  0.06826400  0.79147000  1
  Er  Er1  1  0.93173600  0.46586800  0.79147000  1
  Er  Er2  1  0.53413200  0.46586800  0.79147000  1
  Er  Er3  1  0.46586800  0.93173600  0.29147000  1
  Er  Er4  1  0.06826400  0.53413200  0.29147000  1
  Er  Er5  1  0.46586800  0.53413200  0.29147000  1
  Er  Er6  1  0.82164300  0.64328600  0.50066600  1
  Er  Er7  1  0.35671400  0.17835700  0.50066600  1
  Er  Er8  1  0.82164300  0.17835700  0.50066600  1
  Er  Er9  1  0.17835700  0.35671400  0.00066600  1
  Er  Er10  1  0.64328600  0.82164300  0.00066600  1
  Er  Er11  1  0.17835700  0.82164300  0.00066600  1
  Er  Er12  1  0.66666700  0.33333300  0.18203500  1
  Er  Er13  1  0.33333300  0.66666700  0.68203500  1
  Er  Er14  1  0.00000000  0.00000000  0.77908000  1
  Er  Er15  1  0.00000000  0.00000000  0.27908000  1
  In  In0  1  0.83674600  0.67349300  0.03691800  1
  In  In1  1  0.32650700  0.16325400  0.03691800  1
  In  In2  1  0.83674600  0.16325400  0.03691800  1
  In  In3  1  0.16325400  0.32650700  0.53691800  1
  In  In4  1  0.67349300  0.83674600  0.53691800  1
  In  In5  1  0.16325400  0.83674600  0.53691800  1
  Co  Co0  1  0.66666700  0.33333300  0.56967600  1
  Co  Co1  1  0.33333300  0.66666700  0.06967600  1
loop_
_geom_bond_atom_site_label_1
_geom_bond_atom_site_label_2
_geom_bond_distance
_geom_bond_site_symmetry_2
Er0 In2 3.240020 1_556
Er0 In1 3.240028 1_556
Er0 In5 3.776355 1_545
Er0 In4 3.776362 1_545
Er1 In2 3.240020 1_556
Er1 In0 3.240028 1_556
Er1 In5 3.776355 1_655
Er1 In3 3.776362 1_655
Er2 In1 3.240022 1_556
Er2 In0 3.240022 1_556
Er2 In4 3.776354 1_555
Er2 In3 3.776354 1_555
Er3 In5 3.240020 1_555
Er3 In4 3.240028 1_555
Er3 In2 3.776355 1_565
Er3 In1 3.776362 1_565
Er4 In5 3.240020 1_555
Er4 In3 3.240028 1_555
Er4 In2 3.776355 1_455
Er4 In0 3.776362 1_455
Er5 In3 3.240022 1_555
Er5 In4 3.240022 1_555
Er5 In0 3.776354 1_555
Er5 In1 3.776354 1_555
Er6 In4 3.065838 1_555
Er6 In5 3.065847 1_655
Er6 In0 3.216283 1_555
Er6 In0 3.715837 1_556
Er7 In3 3.065838 1_555
Er7 In5 3.065847 1_545
Er7 In1 3.216283 1_555
Er7 In1 3.715837 1_556
Er8 In3 3.065847 1_655
Er8 In4 3.065847 1_545
Er8 In2 3.216282 1_555
Er8 In2 3.715836 1_556
Er9 In1 3.065838 1_555
Er9 In2 3.065847 1_455
Er9 In3 3.216283 1_554
Er9 In3 3.715837 1_555
Er10 In0 3.065838 1_555
Er10 In2 3.065847 1_565
Er10 In4 3.216283 1_554
Er10 In4 3.715837 1_555
Er11 In1 3.065847 1_565
Er11 In0 3.065847 1_455
Er11 In5 3.216282 1_554
Er11 In5 3.715836 1_555
Er12 In2 3.195191 1_555
Er12 In1 3.195208 1_555
Er12 In0 3.195208 1_555
Er13 In5 3.195191 1_555
Er13 In3 3.195208 1_555
Er13 In4 3.195208 1_555
Er14 In4 3.358639 1_445
Er14 In3 3.358639 1_555
Er14 In5 3.358647 1_545
Er14 In1 3.413916 1_556
Er14 In0 3.413916 1_446
Er14 In2 3.413923 1_456
Er15 In0 3.358639 1_445
Er15 In1 3.358639 1_555
Er15 In2 3.358647 1_455
Er15 In4 3.413916 1_445
Er15 In3 3.413916 1_555
Er15 In5 3.413923 1_545
Co0 Er12 2.679002 1_555
Co0 Er8 2.805161 1_555
Co0 Er7 2.805170 1_555
Co0 Er6 2.805170 1_555
Co0 Er1 2.817480 1_555
Co0 Er0 2.817480 1_555
Co0 Er2 2.817487 1_555
Co1 Er13 2.679002 1_554
Co1 Er11 2.805161 1_555
Co1 Er9 2.805170 1_555
Co1 Er10 2.805170 1_555
Co1 Er3 2.817480 1_555
Co1 Er4 2.817480 1_555
Co1 Er5 2.817487 1_555
