# generated using pymatgen
data_GaN
_symmetry_space_group_name_H-M   'P 1'
_cell_length_a   11.99074663
_cell_length_b   11.16230563
_cell_length_c   11.21063412
_cell_angle_alpha   91.40534375
_cell_angle_beta   91.97902418
_cell_angle_gamma   89.84953111
_symmetry_Int_Tables_number   1
_chemical_formula_structural   GaN
_chemical_formula_sum   'Ga50 N50'
_cell_volume   1499.13193273
_cell_formula_units_Z   50
loop_
 _symmetry_equiv_pos_site_id
 _symmetry_equiv_pos_as_xyz
  1  'x, y, z'
loop_
 _atom_site_type_symbol
 _atom_site_label
 _atom_site_symmetry_multiplicity
 _atom_site_fract_x
 _atom_site_fract_y
 _atom_site_fract_z
 _atom_site_occupancy
  Ga  Ga0  1  0.04092853  0.63872584  0.59433182  1
  Ga  Ga1  1  0.34925392  0.44166101  0.35539368  1
  Ga  Ga2  1  0.89249538  0.45862183  0.83920915  1
  Ga  Ga3  1  0.77279429  0.75401265  0.58413525  1
  Ga  Ga4  1  0.37157530  0.16069596  0.31082832  1
  Ga  Ga5  1  0.49956327  0.62417376  0.77578326  1
  Ga  Ga6  1  0.63682774  0.84468273  0.84574086  1
  Ga  Ga7  1  0.16770406  0.75864317  0.12583975  1
  Ga  Ga8  1  0.40630267  0.33599691  0.14278504  1
  Ga  Ga9  1  0.91989876  0.81269237  0.07497517  1
  Ga  Ga10  1  0.11309458  0.80558315  0.84099208  1
  Ga  Ga11  1  0.10070931  0.96987300  0.02629790  1
  Ga  Ga12  1  0.71436194  0.49222191  0.64551296  1
  Ga  Ga13  1  0.78795500  0.28180413  0.91988875  1
  Ga  Ga14  1  0.13993888  0.20645486  0.44898791  1
  Ga  Ga15  1  0.38026431  0.82062368  0.96374806  1
  Ga  Ga16  1  0.79387639  0.22089126  0.44849617  1
  Ga  Ga17  1  0.61785377  0.49146083  0.95319554  1
  Ga  Ga18  1  0.84218003  0.61091186  0.16252993  1
  Ga  Ga19  1  0.91553581  0.10110652  0.61035034  1
  Ga  Ga20  1  0.95799707  0.01086955  0.36683413  1
  Ga  Ga21  1  0.47420922  0.65550999  0.18116200  1
  Ga  Ga22  1  0.96661903  0.32156973  0.27701672  1
  Ga  Ga23  1  0.63480020  0.48094846  0.23373043  1
  Ga  Ga24  1  0.29070577  0.56597426  0.54803627  1
  Ga  Ga25  1  0.61455735  0.04677877  0.36731802  1
  Ga  Ga26  1  0.14022042  0.22416237  0.17463295  1
  Ga  Ga27  1  0.08859736  0.55354293  0.23305422  1
  Ga  Ga28  1  0.18128038  0.68711579  0.38629483  1
  Ga  Ga29  1  0.75799215  0.99281223  0.96666555  1
  Ga  Ga30  1  0.01933576  0.40455074  0.02831028  1
  Ga  Ga31  1  0.52342312  0.67428421  0.47564124  1
  Ga  Ga32  1  0.22708673  0.34755212  0.61654117  1
  Ga  Ga33  1  0.96969848  0.43314916  0.53944554  1
  Ga  Ga34  1  0.44784166  0.90853745  0.16397381  1
  Ga  Ga35  1  0.01185942  0.16667125  0.94739212  1
  Ga  Ga36  1  0.88570486  0.93547282  0.77020545  1
  Ga  Ga37  1  0.65435271  0.73781453  0.03798712  1
  Ga  Ga38  1  0.39048821  0.82358809  0.65102355  1
  Ga  Ga39  1  0.90722919  0.79931213  0.42818125  1
  Ga  Ga40  1  0.81850275  0.11667383  0.16378530  1
  Ga  Ga41  1  0.71334085  0.85137993  0.27112737  1
  Ga  Ga42  1  0.13687293  0.12057950  0.72363536  1
  Ga  Ga43  1  0.21368769  0.55534105  0.78690892  1
  Ga  Ga44  1  0.15301529  0.96077198  0.28193644  1
  Ga  Ga45  1  0.24772641  0.57821244  0.01248580  1
  Ga  Ga46  1  0.14031038  0.92051899  0.51063254  1
  Ga  Ga47  1  0.38325837  0.86672111  0.41109077  1
  Ga  Ga48  1  0.74980963  0.54763888  0.40071627  1
  Ga  Ga49  1  0.84316605  0.68256678  0.85858753  1
  N  N0  1  0.39713213  0.07891462  0.65283852  1
  N  N1  1  0.94978508  0.24546106  0.73469817  1
  N  N2  1  0.56613007  0.38274731  0.53729387  1
  N  N3  1  0.06850653  0.07915070  0.54186791  1
  N  N4  1  0.06156374  0.76800342  0.48151621  1
  N  N5  1  0.21503367  0.84219488  0.97476495  1
  N  N6  1  0.94614938  0.47094699  0.18085025  1
  N  N7  1  0.09541480  0.66184853  0.75229180  1
  N  N8  1  0.59693396  0.95840138  0.55649377  1
  N  N9  1  0.46907068  0.57083527  0.93660056  1
  N  N10  1  0.80777340  0.40926978  0.50947724  1
  N  N11  1  0.77217889  0.80275712  0.75039292  1
  N  N12  1  0.21421734  0.34927479  0.88962617  1
  N  N13  1  0.65897525  0.33033519  0.01307030  1
  N  N14  1  0.33336573  0.08453597  0.91646651  1
  N  N15  1  0.29142489  0.31291472  0.93649861  1
  N  N16  1  0.56564286  0.11119877  0.13493598  1
  N  N17  1  0.68903982  0.15261867  0.74689508  1
  N  N18  1  0.05458361  0.34946744  0.42038139  1
  N  N19  1  0.68771752  0.57739033  0.09402195  1
  N  N20  1  0.23675816  0.36503324  0.16626199  1
  N  N21  1  0.17715852  0.45523579  0.11146500  1
  N  N22  1  0.45812994  0.32505555  0.77142314  1
  N  N23  1  0.81463205  0.69986147  0.31445594  1
  N  N24  1  0.23547679  0.89360730  0.65397738  1
  N  N25  1  0.25562174  0.81206194  0.28244320  1
  N  N26  1  0.67492871  0.62121536  0.53619352  1
  N  N27  1  0.57311012  0.79357280  0.17911943  1
  N  N28  1  0.17372964  0.93398480  0.73841244  1
  N  N29  1  0.71212715  0.25185023  0.19911787  1
  N  N30  1  0.65943933  0.17902104  0.65506786  1
  N  N31  1  0.97154468  0.86847994  0.90954879  1
  N  N32  1  0.64163055  0.87431363  0.51674471  1
  N  N33  1  0.89723136  0.16450648  0.30875851  1
  N  N34  1  0.44986121  0.00049687  0.31838060  1
  N  N35  1  0.20974836  0.12864628  0.30389680  1
  N  N36  1  0.40498535  0.64202974  0.01631332  1
  N  N37  1  0.66744401  0.32976944  0.13235772  1
  N  N38  1  0.96700979  0.35094480  0.71007923  1
  N  N39  1  0.85071558  0.14090825  0.99224749  1
  N  N40  1  0.80038980  0.93568434  0.13138633  1
  N  N41  1  0.39293495  0.12939143  0.56744491  1
  N  N42  1  0.48901872  0.33135188  0.50835023  1
  N  N43  1  0.32013728  0.09298402  0.01468221  1
  N  N44  1  0.47796462  0.52331072  0.28118268  1
  N  N45  1  0.42278900  0.64625683  0.61997063  1
  N  N46  1  0.47587554  0.81191856  0.81063821  1
  N  N47  1  0.56585563  0.08565133  0.03702950  1
  N  N48  1  0.48930280  0.25161940  0.83011034  1
  N  N49  1  0.63683691  0.52899207  0.78683100  1
loop_
_geom_bond_atom_site_label_1
_geom_bond_atom_site_label_2
_geom_bond_distance
_geom_bond_site_symmetry_2
Ga0 N7 1.878261 1_555
Ga0 N4 1.963705 1_555
Ga1 N44 2.009464 1_555
Ga1 N20 2.601220 1_555
Ga1 N42 2.675683 1_555
Ga2 N38 2.082525 1_555
Ga3 N11 1.929051 1_555
Ga3 N26 1.946715 1_555
Ga3 N32 2.191832 1_555
Ga4 N35 1.972598 1_555
Ga4 N34 2.019675 1_555
Ga5 N49 1.958745 1_555
Ga5 N9 1.959031 1_555
Ga5 N45 1.966789 1_555
Ga5 N46 2.142321 1_555
Ga6 N46 1.989338 1_555
Ga6 N11 2.021603 1_555
Ga7 N5 2.051085 1_554
Ga7 N25 2.091225 1_555
Ga8 N20 2.082445 1_555
Ga8 N15 2.657923 1_554
Ga9 N40 2.085158 1_555
Ga9 N31 2.085322 1_554
Ga10 N7 1.875326 1_555
Ga10 N5 1.938062 1_555
Ga10 N31 2.005432 1_455
Ga10 N28 2.012306 1_555
Ga11 N5 2.061101 1_554
Ga11 N31 2.277988 1_454
Ga12 N49 1.900078 1_555
Ga12 N26 1.960022 1_555
Ga12 N10 2.116827 1_555
Ga12 N2 2.431885 1_555
Ga13 N39 1.926657 1_555
Ga13 N13 1.963666 1_556
Ga13 N17 2.638225 1_555
Ga14 N18 1.921598 1_555
Ga14 N3 1.994407 1_555
Ga14 N35 2.030184 1_555
Ga14 Ga32 2.613190 1_555
Ga15 N5 2.002866 1_555
Ga15 N46 2.096942 1_555
Ga15 N36 2.109907 1_556
Ga16 N33 2.113693 1_555
Ga16 N10 2.200022 1_555
Ga17 N49 1.942649 1_555
Ga17 N19 1.988176 1_556
Ga17 N13 1.990001 1_556
Ga17 N9 1.994793 1_555
Ga18 N23 1.987451 1_555
Ga18 N6 2.006258 1_555
Ga18 N19 2.012836 1_555
Ga19 N3 2.024736 1_655
Ga19 N1 2.135902 1_555
Ga20 N33 1.977688 1_555
Ga20 N3 2.437113 1_655
Ga21 N44 1.874619 1_555
Ga21 N27 1.948093 1_555
Ga21 N36 2.002000 1_555
Ga22 N18 1.911205 1_655
Ga22 N33 1.987774 1_555
Ga22 N6 2.017540 1_555
Ga23 N44 2.023670 1_555
Ga23 N19 2.041928 1_555
Ga23 N37 2.055626 1_555
Ga24 N45 1.961004 1_555
Ga24 Ga32 2.694087 1_555
Ga25 N34 2.093908 1_555
Ga25 N8 2.377016 1_545
Ga26 N20 1.961028 1_555
Ga26 N35 1.979756 1_555
Ga27 N6 2.005678 1_455
Ga27 N21 2.051904 1_555
Ga28 N4 2.016716 1_555
Ga28 N25 2.062299 1_555
Ga29 N39 2.003869 1_565
Ga29 N40 2.016513 1_556
Ga29 N47 2.660228 1_566
Ga30 N6 2.069250 1_455
Ga30 N21 2.151337 1_555
Ga31 N26 2.010195 1_555
Ga31 N45 2.081733 1_555
Ga32 Ga43 2.975773 1_555
Ga32 Ga42 3.046912 1_555
Ga33 N18 1.928168 1_655
Ga33 N10 1.976617 1_555
Ga33 N38 2.143071 1_555
Ga34 N27 1.978573 1_555
Ga34 N34 1.990146 1_565
Ga35 N39 2.036226 1_455
Ga35 N1 2.643834 1_455
Ga36 N31 2.000267 1_555
Ga36 N11 2.017553 1_555
Ga37 N19 1.948166 1_555
Ga37 N27 1.973481 1_555
Ga38 N24 2.015461 1_555
Ga38 N46 2.037482 1_555
Ga38 N45 2.039807 1_555
Ga39 N4 1.958250 1_655
Ga39 N23 1.982383 1_555
Ga40 N33 1.916185 1_555
Ga40 N39 1.999462 1_554
Ga40 N29 2.013962 1_555
Ga40 N40 2.054607 1_545
Ga41 N27 2.039827 1_555
Ga41 N23 2.135494 1_555
Ga41 N40 2.149330 1_555
Ga42 N28 2.137278 1_545
Ga42 N3 2.208755 1_555
Ga42 N1 2.642978 1_455
Ga43 N7 1.884413 1_555
Ga43 N12 2.597344 1_555
Ga44 N35 2.001811 1_565
Ga44 N25 2.063593 1_555
Ga45 N21 1.994297 1_555
Ga45 N36 2.016168 1_555
Ga46 N4 1.963738 1_555
Ga46 N24 1.967236 1_555
Ga46 N3 1.995413 1_565
Ga47 N34 2.021761 1_565
Ga47 N25 2.145658 1_555
Ga48 N26 1.953594 1_555
Ga48 N10 2.093669 1_555
Ga48 N23 2.136791 1_555
Ga49 N11 1.999532 1_555
N0 N41 1.122244 1_555
N1 N38 1.235457 1_555
N2 N42 1.123507 1_555
N12 N15 1.128181 1_555
N13 N37 1.337805 1_555
N14 N43 1.119499 1_556
N16 N47 1.127331 1_555
N17 N30 1.123244 1_555
N20 N21 1.377721 1_555
N22 N48 1.119093 1_555
N24 N28 1.293461 1_555
N29 N37 1.267071 1_555
N32 N8 1.166250 1_555
N36 N9 1.424776 1_554
