# generated using pymatgen
data_K5In(MoO4)4
_symmetry_space_group_name_H-M   'P 1'
_cell_length_a   9.68745074
_cell_length_b   9.68745074
_cell_length_c   10.70709980
_cell_angle_alpha   71.73105659
_cell_angle_beta   71.73105659
_cell_angle_gamma   79.07666373
_symmetry_Int_Tables_number   1
_chemical_formula_structural   K5In(MoO4)4
_chemical_formula_sum   'K10 In2 Mo8 O32'
_cell_volume   901.43457942
_cell_formula_units_Z   2
loop_
 _symmetry_equiv_pos_site_id
 _symmetry_equiv_pos_as_xyz
  1  'x, y, z'
loop_
 _atom_site_type_symbol
 _atom_site_label
 _atom_site_symmetry_multiplicity
 _atom_site_fract_x
 _atom_site_fract_y
 _atom_site_fract_z
 _atom_site_occupancy
  K  K0  1  0.38926000  0.60885500  0.75017500  1
  K  K1  1  0.60885500  0.38926000  0.25017500  1
  K  K2  1  0.33559900  0.07575200  0.43520100  1
  K  K3  1  0.07575200  0.33559900  0.93520100  1
  K  K4  1  0.82035900  0.61558700  0.44157200  1
  K  K5  1  0.61558700  0.82035900  0.94157200  1
  K  K6  1  0.65022600  0.93040800  0.57371400  1
  K  K7  1  0.93040800  0.65022600  0.07371400  1
  K  K8  1  0.18098400  0.38302200  0.56920200  1
  K  K9  1  0.38302200  0.18098400  0.06920200  1
  In  In0  1  0.88500200  0.11520900  0.75121100  1
  In  In1  1  0.11520900  0.88500200  0.25121100  1
  Mo  Mo0  1  0.53334100  0.26347100  0.66093700  1
  Mo  Mo1  1  0.26347100  0.53334100  0.16093700  1
  Mo  Mo2  1  0.04522600  0.78036000  0.63601500  1
  Mo  Mo3  1  0.78036000  0.04522600  0.13601500  1
  Mo  Mo4  1  0.46918800  0.73799500  0.34345500  1
  Mo  Mo5  1  0.73799500  0.46918800  0.84345500  1
  Mo  Mo6  1  0.95733400  0.21680000  0.37005500  1
  Mo  Mo7  1  0.21680000  0.95733400  0.87005500  1
  O  O0  1  0.62016100  0.42568700  0.57963100  1
  O  O1  1  0.42568700  0.62016100  0.07963100  1
  O  O2  1  0.36831800  0.29992200  0.78735500  1
  O  O3  1  0.29992200  0.36831800  0.28735500  1
  O  O4  1  0.47884800  0.21254600  0.53792100  1
  O  O5  1  0.21254600  0.47884800  0.03792100  1
  O  O6  1  0.66564400  0.12078200  0.73571200  1
  O  O7  1  0.12078200  0.66564400  0.23571200  1
  O  O8  1  0.21299400  0.84568300  0.60375900  1
  O  O9  1  0.84568300  0.21299400  0.10375900  1
  O  O10  1  0.01220700  0.80249000  0.47067700  1
  O  O11  1  0.80249000  0.01220700  0.97067700  1
  O  O12  1  0.90196700  0.88939800  0.73450800  1
  O  O13  1  0.88939800  0.90196700  0.23450800  1
  O  O14  1  0.06330300  0.59131800  0.72355500  1
  O  O15  1  0.59131800  0.06330300  0.22355500  1
  O  O16  1  0.38789800  0.57256500  0.42390300  1
  O  O17  1  0.57256500  0.38789800  0.92390300  1
  O  O18  1  0.63682300  0.70531800  0.21830800  1
  O  O19  1  0.70531800  0.63682300  0.71830800  1
  O  O20  1  0.51822800  0.79014500  0.46880100  1
  O  O21  1  0.79014500  0.51822800  0.96880100  1
  O  O22  1  0.33559400  0.87655900  0.26600900  1
  O  O23  1  0.87655900  0.33559400  0.76600900  1
  O  O24  1  0.78872300  0.15182800  0.40566100  1
  O  O25  1  0.15182800  0.78872300  0.90566100  1
  O  O26  1  0.99725500  0.19449900  0.53261100  1
  O  O27  1  0.19449900  0.99725500  0.03261100  1
  O  O28  1  0.10014700  0.10959900  0.26925100  1
  O  O29  1  0.10959900  0.10014700  0.76925100  1
  O  O30  1  0.94113300  0.40549700  0.28288000  1
  O  O31  1  0.40549700  0.94113300  0.78288000  1
loop_
_geom_bond_atom_site_label_1
_geom_bond_atom_site_label_2
_geom_bond_distance
_geom_bond_site_symmetry_2
K0 O8 2.928428 1_555
K0 O2 2.930674 1_555
K0 O20 2.979288 1_555
K0 O25 2.999544 1_555
K0 O5 3.014394 1_556
K0 O19 3.027521 1_555
K0 O17 3.054378 1_555
K0 O0 3.074543 1_555
K0 O14 3.298342 1_555
K0 O31 3.382599 1_555
K1 O9 2.928428 1_555
K1 O3 2.930674 1_555
K1 O21 2.979288 1_554
K1 O24 2.999544 1_555
K1 O4 3.014394 1_555
K1 O18 3.027521 1_555
K1 O16 3.054378 1_555
K1 O1 3.074543 1_555
K1 O15 3.298342 1_555
K1 O30 3.382599 1_555
K2 O8 2.602461 1_545
K2 O4 2.731143 1_555
K2 O3 2.795896 1_555
K2 O15 2.797355 1_555
K2 O20 2.972295 1_545
K2 O22 3.032674 1_545
K2 O26 3.214704 1_455
K2 O28 3.218628 1_555
K3 O9 2.602461 1_456
K3 O5 2.731143 1_556
K3 O2 2.795896 1_555
K3 O14 2.797355 1_555
K3 O21 2.972295 1_455
K3 O23 3.032674 1_455
K3 O27 3.214704 1_546
K3 O29 3.218628 1_555
K4 O0 2.679657 1_555
K4 O19 2.879045 1_555
K4 O30 2.901273 1_555
K4 O10 2.970138 1_655
K4 O13 2.996106 1_555
K4 O7 3.066993 1_655
K4 O20 3.067490 1_555
K4 O18 3.226087 1_555
K5 O1 2.679657 1_556
K5 O18 2.879045 1_556
K5 O31 2.901273 1_555
K5 O11 2.970138 1_565
K5 O12 2.996106 1_555
K5 O6 3.066993 1_565
K5 O21 3.067490 1_555
K5 O19 3.226087 1_555
K6 O24 2.606938 1_565
K6 O20 2.694309 1_555
K6 O31 2.714922 1_555
K6 O19 2.820058 1_555
K6 O4 2.897586 1_565
K6 O6 2.950338 1_565
K7 O25 2.606938 1_654
K7 O21 2.694309 1_554
K7 O30 2.714922 1_555
K7 O18 2.820058 1_555
K7 O5 2.897586 1_655
K7 O7 2.950338 1_655
K8 O16 2.731046 1_555
K8 O14 2.853151 1_555
K8 O3 2.912403 1_555
K8 O29 2.947054 1_555
K8 O26 2.962185 1_455
K8 O4 3.016742 1_555
K8 O23 3.059260 1_455
K8 O2 3.212859 1_555
K9 O17 2.731046 1_554
K9 O15 2.853151 1_555
K9 O2 2.912403 1_554
K9 O28 2.947054 1_555
K9 O27 2.962185 1_545
K9 O5 3.016742 1_555
K9 O22 3.059260 1_545
K9 O3 3.212859 1_555
In0 O6 2.172132 1_555
In0 O23 2.174319 1_555
In0 O11 2.193394 1_555
In0 O26 2.201015 1_555
In0 O29 2.217675 1_655
In0 O12 2.221462 1_545
In1 O7 2.172132 1_555
In1 O22 2.174319 1_555
In1 O10 2.193394 1_555
In1 O27 2.201015 1_555
In1 O28 2.217675 1_565
In1 O13 2.221462 1_455
Mo0 O0 1.766040 1_555
Mo0 O4 1.788561 1_555
Mo0 O2 1.800442 1_555
Mo0 O6 1.863461 1_555
Mo1 O1 1.766040 1_555
Mo1 O5 1.788561 1_555
Mo1 O3 1.800442 1_555
Mo1 O7 1.863461 1_555
Mo2 O8 1.749856 1_555
Mo2 O14 1.779937 1_555
Mo2 O10 1.836653 1_555
Mo2 O12 1.838249 1_455
Mo3 O9 1.749856 1_555
Mo3 O15 1.779937 1_555
Mo3 O11 1.836653 1_554
Mo3 O13 1.838249 1_545
Mo4 O16 1.765776 1_555
Mo4 O20 1.788275 1_555
Mo4 O18 1.799935 1_555
Mo4 O22 1.865732 1_555
Mo5 O17 1.765776 1_555
Mo5 O21 1.788275 1_555
Mo5 O19 1.799935 1_555
Mo5 O23 1.865732 1_555
Mo6 O24 1.748803 1_555
Mo6 O30 1.775047 1_555
Mo6 O28 1.838343 1_655
Mo6 O26 1.838528 1_555
Mo7 O25 1.748803 1_555
Mo7 O31 1.775047 1_555
Mo7 O29 1.838343 1_565
Mo7 O27 1.838528 1_556
