# generated using pymatgen
data_Li3Co2O5
_symmetry_space_group_name_H-M   'P 1'
_cell_length_a   7.59910102
_cell_length_b   7.59910102
_cell_length_c   5.06438494
_cell_angle_alpha   83.70436872
_cell_angle_beta   83.70436872
_cell_angle_gamma   141.47504204
_symmetry_Int_Tables_number   1
_chemical_formula_structural   Li3Co2O5
_chemical_formula_sum   'Li6 Co4 O10'
_cell_volume   171.79614547
_cell_formula_units_Z   2
loop_
 _symmetry_equiv_pos_site_id
 _symmetry_equiv_pos_as_xyz
  1  'x, y, z'
loop_
 _atom_site_type_symbol
 _atom_site_label
 _atom_site_symmetry_multiplicity
 _atom_site_fract_x
 _atom_site_fract_y
 _atom_site_fract_z
 _atom_site_occupancy
  Li  Li0  1  0.09815800  0.90184200  0.50000000  1
  Li  Li1  1  0.50000000  0.50000000  0.50000000  1
  Li  Li2  1  0.90184200  0.09815800  0.50000000  1
  Li  Li3  1  0.30184500  0.69815500  0.50000000  1
  Li  Li4  1  0.69815500  0.30184500  0.50000000  1
  Li  Li5  1  0.00000000  0.00000000  0.00000000  1
  Co  Co0  1  0.59723500  0.40276500  0.00000000  1
  Co  Co1  1  0.40276500  0.59723500  0.00000000  1
  Co  Co2  1  0.80400900  0.19599100  0.00000000  1
  Co  Co3  1  0.19599100  0.80400900  0.00000000  1
  O  O0  1  0.36716800  0.15856900  0.77802000  1
  O  O1  1  0.71697500  0.71697500  0.77729300  1
  O  O2  1  0.15856900  0.36716800  0.77802000  1
  O  O3  1  0.53738500  0.92544300  0.77324000  1
  O  O4  1  0.92544300  0.53738500  0.77324000  1
  O  O5  1  0.84143100  0.63283200  0.22198000  1
  O  O6  1  0.28302500  0.28302500  0.22270700  1
  O  O7  1  0.63283200  0.84143100  0.22198000  1
  O  O8  1  0.07455700  0.46261500  0.22676000  1
  O  O9  1  0.46261500  0.07455700  0.22676000  1
loop_
_geom_bond_atom_site_label_1
_geom_bond_atom_site_label_2
_geom_bond_distance
_geom_bond_site_symmetry_2
Li0 O4 2.093197 1_455
Li0 O9 2.093197 1_565
Li0 O1 2.155064 1_455
Li0 O6 2.155064 1_565
Li0 O0 2.227327 1_565
Li0 O5 2.227327 1_455
Li1 O6 2.042358 1_555
Li1 O1 2.042358 1_555
Li1 O0 2.126597 1_555
Li1 O7 2.126597 1_555
Li1 O2 2.126597 1_555
Li1 O5 2.126597 1_555
Li2 O3 2.093197 1_545
Li2 O8 2.093197 1_655
Li2 O1 2.155064 1_545
Li2 O6 2.155064 1_655
Li2 O2 2.227327 1_655
Li2 O7 2.227327 1_545
Li3 O7 2.023959 1_555
Li3 O2 2.023959 1_555
Li3 O8 2.081348 1_555
Li3 O3 2.081348 1_555
Li3 O4 2.209594 1_455
Li3 O9 2.209594 1_565
Li4 O5 2.023959 1_555
Li4 O0 2.023959 1_555
Li4 O9 2.081348 1_555
Li4 O4 2.081348 1_555
Li4 O3 2.209594 1_545
Li4 O8 2.209594 1_655
Li5 O0 2.062799 1_554
Li5 O2 2.062799 1_554
Li5 O5 2.062799 1_445
Li5 O7 2.062799 1_445
Li5 O6 2.085616 1_555
Li5 O1 2.085616 1_444
Co0 O0 1.891092 1_554
Co0 O5 1.891092 1_555
Co0 O6 1.893693 1_555
Co0 O1 1.893693 1_554
Co0 O4 1.925570 1_554
Co0 O9 1.925570 1_555
Co1 O2 1.891092 1_554
Co1 O7 1.891092 1_555
Co1 O6 1.893693 1_555
Co1 O1 1.893693 1_554
Co1 O3 1.925570 1_554
Co1 O8 1.925570 1_555
Co2 O7 1.935583 1_545
Co2 O2 1.935583 1_654
Co2 O3 2.039897 1_544
Co2 O8 2.039897 1_655
Co2 O4 2.066172 1_554
Co2 O9 2.066172 1_555
Co3 O5 1.935583 1_455
Co3 O0 1.935583 1_564
Co3 O4 2.039897 1_454
Co3 O9 2.039897 1_565
Co3 O3 2.066172 1_554
Co3 O8 2.066172 1_555
