# generated using pymatgen
data_Cu2SiS3
_symmetry_space_group_name_H-M   'P 1'
_cell_length_a   6.42513233
_cell_length_b   6.42513233
_cell_length_c   6.33687186
_cell_angle_alpha   81.04735880
_cell_angle_beta   81.04735880
_cell_angle_gamma   120.78498183
_symmetry_Int_Tables_number   1
_chemical_formula_structural   Cu2SiS3
_chemical_formula_sum   'Cu4 Si2 S6'
_cell_volume   213.30002513
_cell_formula_units_Z   2
loop_
 _symmetry_equiv_pos_site_id
 _symmetry_equiv_pos_as_xyz
  1  'x, y, z'
loop_
 _atom_site_type_symbol
 _atom_site_label
 _atom_site_symmetry_multiplicity
 _atom_site_fract_x
 _atom_site_fract_y
 _atom_site_fract_z
 _atom_site_occupancy
  Cu  Cu0  1  0.24821600  0.75838100  0.00258100  1
  Cu  Cu1  1  0.75838100  0.24821600  0.50258100  1
  Cu  Cu2  1  0.41309800  0.58818200  0.50083900  1
  Cu  Cu3  1  0.58818200  0.41309800  0.00083900  1
  Si  Si0  1  0.93994400  0.10908200  0.97941300  1
  Si  Si1  1  0.10908200  0.93994400  0.47941300  1
  S  S0  1  0.64668300  0.12391100  0.88184400  1
  S  S1  1  0.12391100  0.64668300  0.38184400  1
  S  S2  1  0.81344400  0.96514500  0.35505300  1
  S  S3  1  0.96514500  0.81344400  0.85505300  1
  S  S4  1  0.29051300  0.45920100  0.88296900  1
  S  S5  1  0.45920100  0.29051300  0.38296900  1
loop_
_geom_bond_atom_site_label_1
_geom_bond_atom_site_label_2
_geom_bond_distance
_geom_bond_site_symmetry_2
Cu0 S1 2.282107 1_555
Cu0 S4 2.295127 1_554
Cu0 S0 2.309107 1_564
Cu0 S3 2.322064 1_454
Cu1 S0 2.282107 1_555
Cu1 S5 2.295127 1_555
Cu1 S1 2.309107 1_655
Cu1 S2 2.322064 1_545
Cu2 S1 2.285837 1_555
Cu2 S5 2.293299 1_555
Cu2 S4 2.298806 1_555
Cu2 S2 2.350089 1_555
Cu3 S0 2.285837 1_554
Cu3 S4 2.293299 1_554
Cu3 S5 2.298806 1_555
Cu3 S3 2.350089 1_554
S0 Si0 2.114175 1_555
S1 Si1 2.114175 1_555
S2 Si1 2.235266 1_655
S2 Si0 2.263926 1_564
S3 Si0 2.235266 1_565
S3 Si1 2.263926 1_655
S4 Si0 2.112923 1_455
S5 Si1 2.112923 1_545
