# generated using pymatgen
data_BeO
_symmetry_space_group_name_H-M   'P 1'
_cell_length_a   9.18743018
_cell_length_b   10.71667164
_cell_length_c   9.24655691
_cell_angle_alpha   91.77530125
_cell_angle_beta   91.79989255
_cell_angle_gamma   90.00095416
_symmetry_Int_Tables_number   1
_chemical_formula_structural   BeO
_chemical_formula_sum   'Be50 O50'
_cell_volume   909.51732605
_cell_formula_units_Z   50
loop_
 _symmetry_equiv_pos_site_id
 _symmetry_equiv_pos_as_xyz
  1  'x, y, z'
loop_
 _atom_site_type_symbol
 _atom_site_label
 _atom_site_symmetry_multiplicity
 _atom_site_fract_x
 _atom_site_fract_y
 _atom_site_fract_z
 _atom_site_occupancy
  Be  Be0  1  0.15721100  0.16223100  0.81027600  1
  Be  Be1  1  0.05263800  0.58789000  0.08567400  1
  Be  Be2  1  0.25022100  0.07742100  0.05870000  1
  Be  Be3  1  0.95311900  0.26029200  0.45421200  1
  Be  Be4  1  0.82416200  0.55738900  0.87328100  1
  Be  Be5  1  0.99639500  0.01735400  0.94658100  1
  Be  Be6  1  0.93798100  0.09307700  0.20134400  1
  Be  Be7  1  0.37907100  0.88450400  0.03738800  1
  Be  Be8  1  0.01086200  0.69107100  0.67637800  1
  Be  Be9  1  0.20035900  0.89221800  0.76969600  1
  Be  Be10  1  0.44451200  0.04268700  0.28511100  1
  Be  Be11  1  0.75478400  0.34997300  0.14968500  1
  Be  Be12  1  0.21599400  0.44971300  0.25426100  1
  Be  Be13  1  0.95484000  0.05844900  0.67412700  1
  Be  Be14  1  0.66359700  0.48653800  0.39586700  1
  Be  Be15  1  0.54376200  0.60256100  0.88149100  1
  Be  Be16  1  0.06830900  0.66885000  0.37290200  1
  Be  Be17  1  0.88879300  0.28913500  0.88737800  1
  Be  Be18  1  0.99447200  0.85310800  0.32446100  1
  Be  Be19  1  0.45964500  0.16679100  0.51790300  1
  Be  Be20  1  0.15966700  0.25696200  0.00725300  1
  Be  Be21  1  0.30016100  0.50983300  0.01713600  1
  Be  Be22  1  0.80421600  0.72309900  0.48942400  1
  Be  Be23  1  0.64057800  0.02538400  0.79332400  1
  Be  Be24  1  0.24082900  0.73816300  0.61736100  1
  Be  Be25  1  0.63365300  0.36911500  0.81702700  1
  Be  Be26  1  0.44546400  0.63294600  0.16728500  1
  Be  Be27  1  0.37285500  0.33344300  0.44158700  1
  Be  Be28  1  0.86350000  0.49751800  0.59454600  1
  Be  Be29  1  0.61756900  0.01421500  0.44873600  1
  Be  Be30  1  0.08091100  0.43853200  0.81081500  1
  Be  Be31  1  0.23241400  0.59699800  0.82858400  1
  Be  Be32  1  0.50419300  0.85609800  0.55710700  1
  Be  Be33  1  0.96527000  0.75918900  0.01238100  1
  Be  Be34  1  0.26180900  0.90086400  0.45821600  1
  Be  Be35  1  0.35177900  0.35636000  0.71516600  1
  Be  Be36  1  0.76600800  0.59150700  0.15487300  1
  Be  Be37  1  0.00210600  0.30198300  0.16361300  1
  Be  Be38  1  0.80911300  0.93572800  0.05201500  1
  Be  Be39  1  0.76371700  0.17121100  0.64660700  1
  Be  Be40  1  0.16566100  0.48524000  0.54037000  1
  Be  Be41  1  0.45601000  0.19827700  0.89833600  1
  Be  Be42  1  0.22885400  0.77943900  0.18690800  1
  Be  Be43  1  0.73672300  0.92473700  0.28434300  1
  Be  Be44  1  0.75548200  0.88351900  0.64955200  1
  Be  Be45  1  0.47230400  0.81504800  0.78819100  1
  Be  Be46  1  0.61137500  0.75588400  0.06429900  1
  Be  Be47  1  0.65935500  0.12932500  0.07835800  1
  Be  Be48  1  0.93264400  0.47918000  0.34112800  1
  Be  Be49  1  0.53942800  0.27824200  0.28861100  1
  O  O0  1  0.28811900  0.17319600  0.93092800  1
  O  O1  1  0.38471900  0.56866800  0.89830500  1
  O  O2  1  0.57338500  0.09826200  0.92453300  1
  O  O3  1  0.35544700  0.25824600  0.59288500  1
  O  O4  1  0.95616100  0.41084100  0.48886100  1
  O  O5  1  0.77988200  0.47048200  0.25744300  1
  O  O6  1  0.18966900  0.88564000  0.60039500  1
  O  O7  1  0.80277000  0.02454900  0.72915000  1
  O  O8  1  0.62116900  0.03746200  0.28132600  1
  O  O9  1  0.87132400  0.77152300  0.64449500  1
  O  O10  1  0.91160400  0.72991600  0.35617200  1
  O  O11  1  0.16366700  0.33214000  0.14531700  1
  O  O12  1  0.21654600  0.45524200  0.70494900  1
  O  O13  1  0.62366500  0.26442700  0.14833700  1
  O  O14  1  0.41348800  0.74561200  0.62338700  1
  O  O15  1  0.05926300  0.54133500  0.25646100  1
  O  O16  1  0.57541000  0.74318400  0.90129000  1
  O  O17  1  0.41851800  0.96017800  0.44663900  1
  O  O18  1  0.76275800  0.28113800  0.77347600  1
  O  O19  1  0.15362000  0.72007200  0.77439600  1
  O  O20  1  0.58307100  0.90751800  0.70952600  1
  O  O21  1  0.16844400  0.81934500  0.33638100  1
  O  O22  1  0.66911900  0.50706600  0.85554600  1
  O  O23  1  0.81932500  0.08089400  0.06181300  1
  O  O24  1  0.41836900  0.19110700  0.34559800  1
  O  O25  1  0.08419900  0.09902200  0.07111900  1
  O  O26  1  0.13715400  0.51592500  0.95494500  1
  O  O27  1  0.11766200  0.63264500  0.53107900  1
  O  O28  1  0.93590200  0.52656000  0.74938900  1
  O  O29  1  0.10583400  0.73016300  0.09024100  1
  O  O30  1  0.94346000  0.22883000  0.28916800  1
  O  O31  1  0.88123600  0.33989900  0.04452800  1
  O  O32  1  0.61802300  0.13055900  0.55937000  1
  O  O33  1  0.92841300  0.16675300  0.57280900  1
  O  O34  1  0.35341400  0.00029100  0.14246200  1
  O  O35  1  0.33898600  0.89221400  0.87469300  1
  O  O36  1  0.74619500  0.57504300  0.50894700  1
  O  O37  1  0.34020000  0.52323700  0.17579500  1
  O  O38  1  0.47409500  0.32587000  0.83161400  1
  O  O39  1  0.24555100  0.42153000  0.41618500  1
  O  O40  1  0.71107900  0.85318300  0.13370400  1
  O  O41  1  0.87683100  0.62313600  0.02523400  1
  O  O42  1  0.68915900  0.87220800  0.46864600  1
  O  O43  1  0.54260100  0.39081100  0.39933400  1
  O  O44  1  0.08235800  0.03428900  0.79117100  1
  O  O45  1  0.38939100  0.76854800  0.14016200  1
  O  O46  1  0.92980100  0.88536400  0.95720200  1
  O  O47  1  0.06218200  0.28290700  0.85115500  1
  O  O48  1  0.60965700  0.62990700  0.15011400  1
  O  O49  1  0.91309700  0.96954900  0.28774000  1
loop_
_geom_bond_atom_site_label_1
_geom_bond_atom_site_label_2
_geom_bond_distance
_geom_bond_site_symmetry_2
Be0 O44 1.536693 1_555
Be0 O47 1.602528 1_555
Be0 O0 1.616323 1_555
Be1 O29 1.600007 1_555
Be1 O26 1.630987 1_554
Be1 O15 1.670104 1_555
Be1 O41 1.737904 1_455
Be2 O34 1.474962 1_555
Be2 O25 1.550074 1_555
Be2 O0 1.634472 1_554
Be3 O33 1.530583 1_555
Be3 O30 1.552454 1_555
Be3 O4 1.635189 1_555
Be4 O22 1.525320 1_555
Be4 O28 1.589291 1_555
Be4 O41 1.612663 1_556
Be5 O46 1.548264 1_545
Be5 O25 1.619254 1_656
Be5 O44 1.676045 1_655
Be5 O23 2.075927 1_556
Be6 O49 1.587423 1_545
Be6 O30 1.643996 1_555
Be6 O23 1.664702 1_555
Be6 O25 1.834392 1_655
Be7 O35 1.542232 1_554
Be7 O34 1.574462 1_565
Be7 O45 1.588645 1_555
Be8 O9 1.570293 1_455
Be8 O19 1.595658 1_555
Be8 O27 1.786218 1_555
Be8 O28 2.034987 1_455
Be9 O6 1.564851 1_555
Be9 O35 1.577029 1_555
Be9 O44 1.878216 1_565
Be9 O19 1.896260 1_555
Be10 O34 1.593808 1_555
Be10 O8 1.625428 1_555
Be10 O24 1.689302 1_555
Be10 O17 1.781540 1_545
Be11 O13 1.513309 1_555
Be11 O31 1.539893 1_555
Be11 O5 1.618533 1_555
Be12 O39 1.552150 1_555
Be12 O37 1.592744 1_555
Be12 O11 1.650570 1_555
Be12 O15 1.743166 1_555
Be13 O33 1.528674 1_555
Be13 O7 1.548838 1_555
Be13 O44 1.596431 1_655
Be14 O43 1.514409 1_555
Be14 O36 1.567626 1_555
Be14 O5 1.697504 1_555
Be15 O1 1.519522 1_555
Be15 O16 1.539054 1_555
Be15 O22 1.559966 1_555
Be16 O27 1.577600 1_555
Be16 O10 1.586599 1_455
Be16 O15 1.713703 1_555
Be16 O21 1.901252 1_555
Be17 O31 1.539359 1_556
Be17 O18 1.541166 1_555
Be17 O47 1.639030 1_655
Be18 O49 1.497240 1_555
Be18 O10 1.564144 1_555
Be18 O21 1.639888 1_655
Be19 O3 1.535367 1_555
Be19 O32 1.545722 1_555
Be19 O24 1.654649 1_555
Be20 O11 1.487787 1_555
Be20 O0 1.646137 1_554
Be20 O47 1.704833 1_554
Be20 O25 1.944726 1_555
Be21 O37 1.503738 1_555
Be21 O1 1.518197 1_554
Be21 O26 1.589349 1_554
Be22 O10 1.605870 1_555
Be22 O9 1.613623 1_555
Be22 O36 1.690569 1_555
Be22 O42 1.927200 1_555
Be23 O20 1.545525 1_545
Be23 O2 1.565682 1_555
Be23 O7 1.621076 1_555
Be24 O14 1.587441 1_555
Be24 O6 1.659565 1_555
Be24 O19 1.696606 1_555
Be24 O27 1.755863 1_555
Be25 O22 1.542301 1_555
Be25 O38 1.548608 1_555
Be25 O18 1.569882 1_555
Be26 O48 1.522039 1_555
Be26 O37 1.527831 1_555
Be26 O45 1.566710 1_555
Be27 O39 1.520124 1_555
Be27 O3 1.648046 1_555
Be27 O43 1.736627 1_555
Be27 O24 1.796894 1_555
Be28 O36 1.570161 1_555
Be28 O28 1.581723 1_555
Be28 O4 1.593293 1_555
Be29 O8 1.576854 1_555
Be29 O32 1.588011 1_555
Be29 O42 1.671014 1_545
Be29 O17 1.917592 1_545
Be30 O26 1.618410 1_555
Be30 O12 1.621926 1_555
Be30 O28 1.724287 1_455
Be30 O47 1.729973 1_555
Be31 O1 1.556045 1_555
Be31 O19 1.591512 1_555
Be31 O26 1.735832 1_555
Be31 O12 1.875606 1_555
Be32 O14 1.596569 1_555
Be32 O20 1.644021 1_555
Be32 O17 1.710891 1_555
Be32 O42 1.919050 1_555
Be33 O46 1.492383 1_554
Be33 O29 1.496103 1_655
Be33 O41 1.678379 1_555
Be34 O6 1.504083 1_555
Be34 O17 1.581855 1_555
Be34 O21 1.626779 1_555
Be35 O3 1.521138 1_555
Be35 O38 1.573150 1_555
Be35 O12 1.635359 1_555
Be36 O48 1.493949 1_555
Be36 O5 1.632956 1_555
Be36 O41 1.640222 1_555
Be37 O30 1.532443 1_455
Be37 O11 1.534747 1_555
Be37 O31 1.600527 1_455
Be38 O40 1.499469 1_555
Be38 O46 1.523528 1_554
Be38 O23 1.558182 1_565
Be39 O32 1.594544 1_555
Be39 O18 1.636787 1_555
Be39 O33 1.679386 1_555
Be39 O7 1.799651 1_555
Be40 O39 1.525723 1_555
Be40 O12 1.619684 1_555
Be40 O27 1.644179 1_555
Be40 O4 2.118043 1_455
Be41 O38 1.528608 1_555
Be41 O2 1.539513 1_555
Be41 O0 1.605159 1_555
Be42 O29 1.504167 1_555
Be42 O21 1.553298 1_555
Be42 O45 1.553312 1_555
Be43 O40 1.580149 1_555
Be43 O8 1.608568 1_565
Be43 O49 1.689150 1_555
Be43 O42 1.875703 1_555
Be44 O9 1.604721 1_555
Be44 O7 1.710460 1_565
Be44 O20 1.711471 1_555
Be44 O42 1.762813 1_555
Be45 O16 1.603684 1_555
Be45 O20 1.624153 1_555
Be45 O35 1.686556 1_555
Be45 O14 1.745249 1_555
Be46 O40 1.503262 1_555
Be46 O16 1.534789 1_554
Be46 O48 1.587352 1_555
Be46 O45 2.180337 1_555
Be47 O23 1.569099 1_555
Be47 O13 1.605540 1_555
Be47 O2 1.630287 1_554
Be47 O8 2.184100 1_555
Be48 O4 1.578768 1_555
Be48 O15 1.580933 1_655
Be48 O5 1.582575 1_555
Be49 O13 1.534399 1_555
Be49 O43 1.557544 1_555
Be49 O24 1.566506 1_555
