# generated using pymatgen
data_SrTaNO2
_symmetry_space_group_name_H-M   'P 1'
_cell_length_a   4.00750200
_cell_length_b   5.82405200
_cell_length_c   5.82408200
_cell_angle_alpha   90.00000000
_cell_angle_beta   90.00000000
_cell_angle_gamma   90.00000000
_symmetry_Int_Tables_number   1
_chemical_formula_structural   SrTaNO2
_chemical_formula_sum   'Sr2 Ta2 N2 O4'
_cell_volume   135.93349169
_cell_formula_units_Z   2
loop_
 _symmetry_equiv_pos_site_id
 _symmetry_equiv_pos_as_xyz
  1  'x, y, z'
loop_
 _atom_site_type_symbol
 _atom_site_label
 _atom_site_symmetry_multiplicity
 _atom_site_fract_x
 _atom_site_fract_y
 _atom_site_fract_z
 _atom_site_occupancy
  Sr  Sr0  1  0.50000000  0.76484100  0.51882100  1
  Sr  Sr1  1  0.50000000  0.23515900  0.01882100  1
  Ta  Ta0  1  0.00000000  0.73295500  0.01727000  1
  Ta  Ta1  1  0.00000000  0.26704500  0.51727000  1
  N  N0  1  0.00000000  0.48839900  0.75865700  1
  N  N1  1  0.00000000  0.51160100  0.25865700  1
  O  O0  1  0.50000000  0.76952800  0.98850500  1
  O  O1  1  0.00000000  0.98274100  0.71678800  1
  O  O2  1  0.00000000  0.01725900  0.21678800  1
  O  O3  1  0.50000000  0.23047200  0.48850500  1
loop_
_geom_bond_atom_site_label_1
_geom_bond_atom_site_label_2
_geom_bond_distance
_geom_bond_site_symmetry_2
N0 Ta1 1.907463 1_555
N0 Ta0 2.072978 1_556
N0 Sr1 2.913105 1_456
N0 Sr1 2.913105 1_556
N0 Sr0 2.925453 1_555
N0 Sr0 2.925453 1_455
N1 Ta0 1.907463 1_555
N1 Ta1 2.072978 1_555
N1 Sr0 2.913105 1_555
N1 Sr0 2.913105 1_455
N1 Sr1 2.925453 1_455
N1 Sr1 2.925453 1_555
O0 Ta0 2.021993 1_656
O0 Ta0 2.021993 1_556
O0 Sr1 2.717601 1_566
O0 Sr0 2.735614 1_555
O0 Sr0 3.088724 1_556
O0 Sr1 3.117197 1_556
O1 Ta1 2.022855 1_565
O1 Ta0 2.275732 1_556
O1 Sr0 2.637212 1_555
O1 Sr0 2.637212 1_455
O1 Sr1 3.044751 1_466
O1 Sr1 3.044751 1_566
O2 Ta0 2.022855 1_545
O2 Ta1 2.275732 1_555
O2 Sr1 2.637212 1_555
O2 Sr1 2.637212 1_455
O2 Sr0 3.044751 1_445
O2 Sr0 3.044751 1_545
O3 Ta1 2.021993 1_655
O3 Ta1 2.021993 1_555
O3 Sr0 2.717601 1_545
O3 Sr1 2.735614 1_555
O3 Sr1 3.088724 1_556
O3 Sr0 3.117197 1_555
