# generated using pymatgen
data_Rb2Au3
_symmetry_space_group_name_H-M   'P 1'
_cell_length_a   4.99165715
_cell_length_b   5.53753313
_cell_length_c   6.45734610
_cell_angle_alpha   115.39001589
_cell_angle_beta   112.73749929
_cell_angle_gamma   90.00000884
_symmetry_Int_Tables_number   1
_chemical_formula_structural   Rb2Au3
_chemical_formula_sum   'Rb2 Au3'
_cell_volume   145.74708082
_cell_formula_units_Z   1
loop_
 _symmetry_equiv_pos_site_id
 _symmetry_equiv_pos_as_xyz
  1  'x, y, z'
loop_
 _atom_site_type_symbol
 _atom_site_label
 _atom_site_symmetry_multiplicity
 _atom_site_fract_x
 _atom_site_fract_y
 _atom_site_fract_z
 _atom_site_occupancy
  Rb  Rb0  1  0.80309646  0.30309746  0.60619491  1
  Rb  Rb1  1  0.19690254  0.69690354  0.39380509  1
  Au  Au0  1  0.50000000  0.25214756  0.00000000  1
  Au  Au1  1  0.50000000  0.74785244  -0.00000000  1
  Au  Au2  1  -0.00000000  0.00000000  0.00000000  1
loop_
_geom_bond_atom_site_label_1
_geom_bond_atom_site_label_2
_geom_bond_distance
_geom_bond_site_symmetry_2
Au0 Au1 2.744982 1_555
Au0 Au1 2.792551 1_545
Au0 Au2 2.859850 1_555
Au0 Au2 2.859851 1_655
Au0 Rb1 3.487989 1_544
Au0 Rb0 3.487992 1_555
Au0 Rb0 3.524838 1_554
Au0 Rb1 3.524844 1_555
Au0 Rb1 3.524844 1_655
Au0 Rb0 3.524846 1_454
Au1 Au2 2.859850 1_665
Au1 Au2 2.859851 1_565
Au1 Rb0 3.487992 1_565
Au1 Rb1 3.487994 1_554
Au1 Rb0 3.524838 1_554
Au1 Rb1 3.524839 1_555
Au1 Rb1 3.524840 1_655
Au1 Rb0 3.524845 1_454
Au2 Rb1 3.460875 1_545
Au2 Rb0 3.460879 1_444
Au2 Rb0 3.460879 1_454
Au2 Rb1 3.460884 1_555
Au2 Rb0 4.055322 1_555
Au2 Rb1 4.055325 1_544
Au2 Rb1 4.055325 1_444
Au2 Rb0 4.055328 1_455
