# generated using pymatgen
data_K3AsF6
_symmetry_space_group_name_H-M   'P 1'
_cell_length_a   6.84587889
_cell_length_b   8.22072122
_cell_length_c   6.80142084
_cell_angle_alpha   127.29073699
_cell_angle_beta   78.90219877
_cell_angle_gamma   107.92625535
_symmetry_Int_Tables_number   1
_chemical_formula_structural   K3AsF6
_chemical_formula_sum   'K3 As1 F6'
_cell_volume   289.72892029
_cell_formula_units_Z   1
loop_
 _symmetry_equiv_pos_site_id
 _symmetry_equiv_pos_as_xyz
  1  'x, y, z'
loop_
 _atom_site_type_symbol
 _atom_site_label
 _atom_site_symmetry_multiplicity
 _atom_site_fract_x
 _atom_site_fract_y
 _atom_site_fract_z
 _atom_site_occupancy
  K  K0  1  0.50000000  0.00000000  0.00000000  1
  K  K1  1  0.00000000  0.50000000  0.50000000  1
  K  K2  1  0.00000000  0.00000000  0.50000000  1
  As  As0  1  0.00000000  0.00000000  0.00000000  1
  F  F0  1  0.77799200  0.05613700  0.27642900  1
  F  F1  1  0.22200800  0.94386300  0.72357100  1
  F  F2  1  0.78747800  0.78889500  0.71286900  1
  F  F3  1  0.21252200  0.21110500  0.28713100  1
  F  F4  1  0.07348100  0.76738600  0.99044100  1
  F  F5  1  0.92651900  0.23261400  0.00955900  1
loop_
_geom_bond_atom_site_label_1
_geom_bond_atom_site_label_2
_geom_bond_distance
_geom_bond_site_symmetry_2
As0 F1 2.082806 1_544
As0 F0 2.082806 1_455
As0 F4 2.083967 1_544
As0 F5 2.083967 1_455
As0 F3 2.091680 1_555
As0 F2 2.091680 1_444
F0 K2 2.647049 1_655
F0 K0 2.674887 1_555
F0 K1 2.947720 1_655
F1 K2 2.647049 1_565
F1 K0 2.674887 1_566
F1 K1 2.947720 1_555
F2 K1 2.646289 1_655
F2 K0 2.686065 1_566
F2 K2 2.811403 1_665
F3 K1 2.646289 1_555
F3 K0 2.686065 1_555
F3 K2 2.811403 1_555
F4 K1 2.700426 1_555
F4 K2 2.794912 1_566
F4 K0 2.944827 1_566
F5 K1 2.700426 1_655
F5 K2 2.794912 1_654
F5 K0 2.944827 1_555
