# generated using pymatgen
data_BaNaNdFeO6
_symmetry_space_group_name_H-M   'P 1'
_cell_length_a   8.38592229
_cell_length_b   8.33830176
_cell_length_c   8.36525838
_cell_angle_alpha   90.00000000
_cell_angle_beta   90.00000000
_cell_angle_gamma   90.00000000
_symmetry_Int_Tables_number   1
_chemical_formula_structural   BaNaNdFeO6
_chemical_formula_sum   'Ba4 Na4 Nd4 Fe4 O24'
_cell_volume   584.93525974
_cell_formula_units_Z   4
loop_
 _symmetry_equiv_pos_site_id
 _symmetry_equiv_pos_as_xyz
  1  'x, y, z'
loop_
 _atom_site_type_symbol
 _atom_site_label
 _atom_site_symmetry_multiplicity
 _atom_site_fract_x
 _atom_site_fract_y
 _atom_site_fract_z
 _atom_site_occupancy
  Ba  Ba0  1  0.00000000  0.00000000  0.00000000  1
  Ba  Ba1  1  0.50000000  0.50000000  0.50000000  1
  Ba  Ba2  1  -0.00000000  0.50000000  0.50000000  1
  Ba  Ba3  1  0.50000000  0.00000000  0.00000000  1
  Na  Na0  1  0.50000000  0.00000000  0.50000000  1
  Na  Na1  1  0.50000000  0.50000000  0.00000000  1
  Na  Na2  1  -0.00000000  0.50000000  0.00000000  1
  Na  Na3  1  -0.00000000  0.00000000  0.50000000  1
  Nd  Nd0  1  0.25000000  0.25000000  0.25000000  1
  Nd  Nd1  1  0.75000000  0.75000000  0.25000000  1
  Nd  Nd2  1  0.75000000  0.25000000  0.75000000  1
  Nd  Nd3  1  0.25000000  0.75000000  0.75000000  1
  Fe  Fe0  1  0.75000000  0.75000000  0.75000000  1
  Fe  Fe1  1  0.25000000  0.25000000  0.75000000  1
  Fe  Fe2  1  0.25000000  0.75000000  0.25000000  1
  Fe  Fe3  1  0.75000000  0.25000000  0.25000000  1
  O  O0  1  0.97398627  0.23677437  0.26267902  1
  O  O1  1  0.02601373  0.76322563  0.26267902  1
  O  O2  1  0.02601373  0.23677437  0.73732098  1
  O  O3  1  0.97398627  0.76322563  0.73732098  1
  O  O4  1  0.26200124  0.97425376  0.23572613  1
  O  O5  1  0.26200124  0.02574624  0.76427387  1
  O  O6  1  0.73799876  0.02574624  0.23572613  1
  O  O7  1  0.73799876  0.97425376  0.76427387  1
  O  O8  1  0.23686136  0.26058441  0.97397144  1
  O  O9  1  0.76313864  0.26058441  0.02602856  1
  O  O10  1  0.23686136  0.73941559  0.02602856  1
  O  O11  1  0.76313864  0.73941559  0.97397144  1
  O  O12  1  0.52601373  0.26322563  0.23732098  1
  O  O13  1  0.47398627  0.73677437  0.23732098  1
  O  O14  1  0.47398627  0.26322563  0.76267902  1
  O  O15  1  0.52601373  0.73677437  0.76267902  1
  O  O16  1  0.23799876  0.52574624  0.26427387  1
  O  O17  1  0.23799876  0.47425376  0.73572613  1
  O  O18  1  0.76200124  0.47425376  0.26427387  1
  O  O19  1  0.76200124  0.52574624  0.73572613  1
  O  O20  1  0.26313864  0.23941559  0.52602856  1
  O  O21  1  0.73686136  0.23941559  0.47397144  1
  O  O22  1  0.26313864  0.76058441  0.47397144  1
  O  O23  1  0.73686136  0.76058441  0.52602856  1
loop_
_geom_bond_atom_site_label_1
_geom_bond_atom_site_label_2
_geom_bond_distance
_geom_bond_site_symmetry_2
Ba0 O10 2.951948 1_545
Ba0 O8 2.951948 1_554
Ba0 O9 2.951948 1_455
Ba0 O11 2.951948 1_444
Ba0 O5 2.960044 1_554
Ba0 O7 2.960044 1_444
Ba0 O6 2.960044 1_455
Ba0 O4 2.960044 1_545
Ba0 O3 2.962078 1_444
Ba0 O2 2.962078 1_554
Ba0 O1 2.962078 1_545
Ba0 O0 2.962078 1_455
Ba1 O21 2.951948 1_555
Ba1 O22 2.951948 1_555
Ba1 O20 2.951948 1_555
Ba1 O23 2.951948 1_555
Ba1 O16 2.960044 1_555
Ba1 O17 2.960044 1_555
Ba1 O18 2.960044 1_555
Ba1 O19 2.960044 1_555
Ba1 O14 2.962078 1_555
Ba1 O15 2.962078 1_555
Ba1 O12 2.962078 1_555
Ba1 O13 2.962078 1_555
Ba2 O17 2.813875 1_555
Ba2 O18 2.813875 1_455
Ba2 O19 2.813875 1_455
Ba2 O16 2.813875 1_555
Ba2 O2 2.967524 1_555
Ba2 O1 2.967524 1_555
Ba2 O3 2.967524 1_455
Ba2 O0 2.967524 1_455
Ba2 O21 3.104506 1_455
Ba2 O22 3.104506 1_555
Ba2 O23 3.104506 1_455
Ba2 O20 3.104506 1_555
Ba3 O5 2.813875 1_554
Ba3 O7 2.813875 1_544
Ba3 O6 2.813875 1_555
Ba3 O4 2.813875 1_545
Ba3 O14 2.967524 1_554
Ba3 O15 2.967524 1_544
Ba3 O13 2.967524 1_545
Ba3 O12 2.967524 1_555
Ba3 O11 3.104506 1_544
Ba3 O10 3.104506 1_545
Ba3 O9 3.104506 1_555
Ba3 O8 3.104506 1_554
Na0 O20 2.824552 1_555
Na0 O22 2.824552 1_545
Na0 O21 2.824552 1_555
Na0 O23 2.824552 1_545
Na0 O7 2.986091 1_545
Na0 O4 2.986091 1_545
Na0 O6 2.986091 1_555
Na0 O5 2.986091 1_555
Na1 O15 2.808319 1_554
Na1 O12 2.808319 1_555
Na1 O13 2.808319 1_555
Na1 O14 2.808319 1_554
Na1 O10 2.983630 1_555
Na1 O8 2.983630 1_554
Na1 O11 2.983630 1_554
Na1 O9 2.983630 1_555
Na2 O11 2.824552 1_454
Na2 O8 2.824552 1_554
Na2 O9 2.824552 1_455
Na2 O10 2.824552 1_555
Na2 O17 2.986091 1_554
Na2 O18 2.986091 1_455
Na2 O19 2.986091 1_454
Na2 O16 2.986091 1_555
Na3 O1 2.808319 1_545
Na3 O0 2.808319 1_455
Na3 O2 2.808319 1_555
Na3 O3 2.808319 1_445
Na3 O20 2.983630 1_555
Na3 O23 2.983630 1_445
Na3 O22 2.983630 1_545
Na3 O21 2.983630 1_455
Nd0 O4 2.304552 1_545
Nd0 O16 2.304552 1_555
Nd0 O20 2.313362 1_555
Nd0 O8 2.313362 1_554
Nd0 O12 2.319681 1_555
Nd0 O0 2.319681 1_455
Nd1 O6 2.304552 1_565
Nd1 O18 2.304552 1_555
Nd1 O23 2.313362 1_555
Nd1 O11 2.313362 1_554
Nd1 O13 2.319681 1_555
Nd1 O1 2.319681 1_655
Nd2 O19 2.304552 1_555
Nd2 O7 2.304552 1_545
Nd2 O21 2.313362 1_555
Nd2 O9 2.313362 1_556
Nd2 O14 2.319681 1_555
Nd2 O2 2.319681 1_655
Nd3 O5 2.304552 1_565
Nd3 O17 2.304552 1_555
Nd3 O22 2.313362 1_555
Nd3 O10 2.313362 1_556
Nd3 O15 2.319681 1_555
Nd3 O3 2.319681 1_455
Fe0 O7 1.876405 1_555
Fe0 O19 1.876405 1_555
Fe0 O11 1.878890 1_555
Fe0 O23 1.878890 1_555
Fe0 O3 1.884553 1_555
Fe0 O15 1.884553 1_555
Fe1 O5 1.876405 1_555
Fe1 O17 1.876405 1_555
Fe1 O8 1.878890 1_555
Fe1 O20 1.878890 1_555
Fe1 O2 1.884553 1_555
Fe1 O14 1.884553 1_555
Fe2 O16 1.876405 1_555
Fe2 O4 1.876405 1_555
Fe2 O10 1.878890 1_555
Fe2 O22 1.878890 1_555
Fe2 O1 1.884553 1_555
Fe2 O13 1.884553 1_555
Fe3 O6 1.876405 1_555
Fe3 O18 1.876405 1_555
Fe3 O9 1.878890 1_555
Fe3 O21 1.878890 1_555
Fe3 O0 1.884553 1_555
Fe3 O12 1.884553 1_555
