# generated using pymatgen
data_MgTi3O7
_symmetry_space_group_name_H-M   'P 1'
_cell_length_a   5.43926300
_cell_length_b   10.14529900
_cell_length_c   10.40194100
_cell_angle_alpha   90.00000000
_cell_angle_beta   90.00000000
_cell_angle_gamma   90.00000000
_symmetry_Int_Tables_number   1
_chemical_formula_structural   MgTi3O7
_chemical_formula_sum   'Mg4 Ti12 O28'
_cell_volume   574.00978464
_cell_formula_units_Z   4
loop_
 _symmetry_equiv_pos_site_id
 _symmetry_equiv_pos_as_xyz
  1  'x, y, z'
loop_
 _atom_site_type_symbol
 _atom_site_label
 _atom_site_symmetry_multiplicity
 _atom_site_fract_x
 _atom_site_fract_y
 _atom_site_fract_z
 _atom_site_occupancy
  Mg  Mg0  1  0.37313700  0.06079000  0.25000000  1
  Mg  Mg1  1  0.87313700  0.43921000  0.75000000  1
  Mg  Mg2  1  0.62686300  0.93921000  0.75000000  1
  Mg  Mg3  1  0.12686300  0.56079000  0.25000000  1
  Ti  Ti0  1  0.71077100  0.68736700  0.96939300  1
  Ti  Ti1  1  0.21077100  0.81263300  0.03060700  1
  Ti  Ti2  1  0.28922900  0.31263300  0.46939300  1
  Ti  Ti3  1  0.78922900  0.18736700  0.53060700  1
  Ti  Ti4  1  0.69958300  0.77940700  0.25000000  1
  Ti  Ti5  1  0.19958300  0.72059300  0.75000000  1
  Ti  Ti6  1  0.30041700  0.22059300  0.75000000  1
  Ti  Ti7  1  0.80041700  0.27940700  0.25000000  1
  Ti  Ti8  1  0.21077100  0.81263300  0.46939300  1
  Ti  Ti9  1  0.71077100  0.68736700  0.53060700  1
  Ti  Ti10  1  0.78922900  0.18736700  0.96939300  1
  Ti  Ti11  1  0.28922900  0.31263300  0.03060700  1
  O  O0  1  0.05015500  0.28688300  0.87843600  1
  O  O1  1  0.55015500  0.21311700  0.12156400  1
  O  O2  1  0.94984500  0.71311700  0.37843600  1
  O  O3  1  0.44984500  0.78688300  0.62156400  1
  O  O4  1  0.94984500  0.71311700  0.12156400  1
  O  O5  1  0.44984500  0.78688300  0.87843600  1
  O  O6  1  0.05015500  0.28688300  0.62156400  1
  O  O7  1  0.55015500  0.21311700  0.37843600  1
  O  O8  1  0.52712100  0.28081300  0.88325200  1
  O  O9  1  0.02712100  0.21918700  0.11674800  1
  O  O10  1  0.47287900  0.71918700  0.38325200  1
  O  O11  1  0.97287900  0.78081300  0.61674800  1
  O  O12  1  0.47287900  0.71918700  0.11674800  1
  O  O13  1  0.97287900  0.78081300  0.88325200  1
  O  O14  1  0.52712100  0.28081300  0.61674800  1
  O  O15  1  0.02712100  0.21918700  0.38325200  1
  O  O16  1  0.82000200  0.44646900  0.25000000  1
  O  O17  1  0.32000200  0.05353100  0.75000000  1
  O  O18  1  0.17999800  0.55353100  0.75000000  1
  O  O19  1  0.67999800  0.94646900  0.25000000  1
  O  O20  1  0.77671200  0.03510600  0.59759600  1
  O  O21  1  0.27671200  0.46489400  0.40240400  1
  O  O22  1  0.22328800  0.96489400  0.09759600  1
  O  O23  1  0.72328800  0.53510600  0.90240400  1
  O  O24  1  0.22328800  0.96489400  0.40240400  1
  O  O25  1  0.72328800  0.53510600  0.59759600  1
  O  O26  1  0.77671200  0.03510600  0.90240400  1
  O  O27  1  0.27671200  0.46489400  0.09759600  1
loop_
_geom_bond_atom_site_label_1
_geom_bond_atom_site_label_2
_geom_bond_distance
_geom_bond_site_symmetry_2
Mg0 O24 2.030770 1_545
Mg0 O22 2.030770 1_545
Mg0 O19 2.032504 1_545
Mg0 O7 2.258362 1_555
Mg0 O1 2.258362 1_555
Mg1 O25 2.030770 1_555
Mg1 O23 2.030770 1_555
Mg1 O18 2.032504 1_655
Mg1 O6 2.258362 1_655
Mg1 O0 2.258362 1_655
Mg2 O26 2.030770 1_565
Mg2 O20 2.030770 1_565
Mg2 O17 2.032504 1_565
Mg2 O5 2.258362 1_555
Mg2 O3 2.258362 1_555
Mg3 O21 2.030770 1_555
Mg3 O27 2.030770 1_555
Mg3 O16 2.032504 1_455
Mg3 O4 2.258362 1_455
Mg3 O2 2.258362 1_455
O0 Ti10 1.982107 1_455
O0 Ti6 2.022407 1_555
O0 Ti11 2.065125 1_556
O1 Ti11 1.982107 1_555
O1 Ti7 2.022407 1_555
O1 Ti10 2.065125 1_554
O2 Ti8 1.982107 1_655
O2 Ti4 2.022407 1_555
O2 Ti9 2.065125 1_555
O3 Ti9 1.982107 1_555
O3 Ti5 2.022407 1_555
O3 Ti8 2.065125 1_555
O4 Ti1 1.982107 1_655
O4 Ti4 2.022407 1_555
O4 Ti0 2.065125 1_554
O5 Ti0 1.982107 1_555
O5 Ti5 2.022407 1_555
O5 Ti1 2.065125 1_556
O6 Ti3 1.982107 1_455
O6 Ti6 2.022407 1_555
O6 Ti2 2.065125 1_555
O7 Ti2 1.982107 1_555
O7 Ti7 2.022407 1_555
O7 Ti3 2.065125 1_555
O8 Ti10 1.932408 1_555
O8 Ti6 1.953207 1_555
O8 Ti11 2.031735 1_556
O9 Ti11 1.932408 1_555
O9 Ti7 1.953207 1_455
O9 Ti10 2.031735 1_454
O10 Ti8 1.932408 1_555
O10 Ti4 1.953207 1_555
O10 Ti9 2.031735 1_555
O11 Ti9 1.932408 1_555
O11 Ti5 1.953207 1_655
O11 Ti8 2.031735 1_655
O12 Ti1 1.932408 1_555
O12 Ti4 1.953207 1_555
O12 Ti0 2.031735 1_554
O13 Ti0 1.932408 1_555
O13 Ti5 1.953207 1_655
O13 Ti1 2.031735 1_656
O14 Ti3 1.932408 1_555
O14 Ti6 1.953207 1_555
O14 Ti2 2.031735 1_555
O15 Ti2 1.932408 1_555
O15 Ti7 1.953207 1_455
O15 Ti3 2.031735 1_455
O16 Ti7 1.698238 1_555
O17 Ti6 1.698238 1_555
O18 Ti5 1.698238 1_555
O19 Ti4 1.698238 1_555
O20 Ti3 1.695992 1_555
O21 Ti2 1.695992 1_555
O22 Ti1 1.695992 1_555
O23 Ti0 1.695992 1_555
O24 Ti8 1.695992 1_555
O25 Ti9 1.695992 1_555
O26 Ti10 1.695992 1_555
O27 Ti11 1.695992 1_555
