# generated using pymatgen
data_V4Ni2N
_symmetry_space_group_name_H-M   'P 1'
_cell_length_a   7.62653088
_cell_length_b   7.62653088
_cell_length_c   7.62650126
_cell_angle_alpha   60.00012845
_cell_angle_beta   60.00012845
_cell_angle_gamma   60.00025861
_symmetry_Int_Tables_number   1
_chemical_formula_structural   V4Ni2N
_chemical_formula_sum   'V16 Ni8 N4'
_cell_volume   313.66503279
_cell_formula_units_Z   4
loop_
 _symmetry_equiv_pos_site_id
 _symmetry_equiv_pos_as_xyz
  1  'x, y, z'
loop_
 _atom_site_type_symbol
 _atom_site_label
 _atom_site_symmetry_multiplicity
 _atom_site_fract_x
 _atom_site_fract_y
 _atom_site_fract_z
 _atom_site_occupancy
  V  V0  1  0.12500000  0.62500000  0.62500000  1
  V  V1  1  0.62500000  0.12500000  0.62500000  1
  V  V2  1  0.62500000  0.62500000  0.12500000  1
  V  V3  1  0.62500000  0.62500000  0.62500000  1
  V  V4  1  0.81906283  0.81906283  0.18093717  1
  V  V5  1  0.18094512  0.18094512  0.81905488  1
  V  V6  1  0.81905939  0.18093894  0.81905931  1
  V  V7  1  0.18093894  0.81905939  0.18094236  1
  V  V8  1  0.18093894  0.81905939  0.81905931  1
  V  V9  1  0.81905939  0.18093894  0.18094236  1
  V  V10  1  0.43093717  0.43093717  0.06906283  1
  V  V11  1  0.06905488  0.06905488  0.43094512  1
  V  V12  1  0.43094061  0.06906106  0.43094069  1
  V  V13  1  0.06906106  0.43094061  0.06905764  1
  V  V14  1  0.06906106  0.43094061  0.43094069  1
  V  V15  1  0.43094061  0.06906106  0.06905764  1
  Ni  Ni0  1  0.74409331  0.41864238  0.41863166  1
  Ni  Ni1  1  0.41864238  0.74409331  0.41863166  1
  Ni  Ni2  1  0.41864059  0.41864059  0.74408820  1
  Ni  Ni3  1  0.41864059  0.41864059  0.41862963  1
  Ni  Ni4  1  0.50590669  0.83135762  0.83136834  1
  Ni  Ni5  1  0.83135762  0.50590669  0.83136834  1
  Ni  Ni6  1  0.83135941  0.83135941  0.50591180  1
  Ni  Ni7  1  0.83135941  0.83135941  0.83137037  1
  N  N0  1  0.62500000  0.12500000  0.12500000  1
  N  N1  1  0.12500000  0.62500000  0.12500000  1
  N  N2  1  0.12500000  0.12500000  0.62500000  1
  N  N3  1  0.12500000  0.12500000  0.12500000  1
loop_
_geom_bond_atom_site_label_1
_geom_bond_atom_site_label_2
_geom_bond_distance
_geom_bond_site_symmetry_2
Ni0 V2 2.323109 1_555
Ni0 V3 2.323115 1_555
Ni0 V1 2.323180 1_555
Ni0 Ni1 2.482071 1_555
Ni0 Ni3 2.482090 1_555
Ni0 Ni2 2.482090 1_555
Ni0 V13 2.575627 1_655
Ni0 V14 2.575631 1_655
Ni0 V11 2.575671 1_655
Ni0 V4 2.848258 1_555
Ni0 V9 2.848279 1_555
Ni0 V6 2.848285 1_555
Ni1 V2 2.323109 1_555
Ni1 V3 2.323115 1_555
Ni1 V0 2.323180 1_555
Ni1 Ni3 2.482090 1_555
Ni1 Ni2 2.482090 1_555
Ni1 V15 2.575627 1_565
Ni1 V12 2.575631 1_565
Ni1 V11 2.575671 1_565
Ni1 V4 2.848258 1_555
Ni1 V7 2.848279 1_555
Ni1 V8 2.848285 1_555
Ni2 V3 2.323085 1_555
Ni2 V0 2.323151 1_555
Ni2 V1 2.323151 1_555
Ni2 Ni3 2.482110 1_555
Ni2 V10 2.575616 1_556
Ni2 V15 2.575657 1_556
Ni2 V13 2.575657 1_556
Ni2 V8 2.848256 1_555
Ni2 V6 2.848256 1_555
Ni2 V5 2.848269 1_555
Ni3 V2 2.323082 1_555
Ni3 V1 2.323155 1_555
Ni3 V0 2.323155 1_555
Ni3 V10 2.575609 1_555
Ni3 V14 2.575653 1_555
Ni3 V12 2.575653 1_555
Ni3 V7 2.848253 1_555
Ni3 V9 2.848253 1_555
Ni3 V5 2.848272 1_555
Ni4 V2 2.323109 1_556
Ni4 V3 2.323115 1_555
Ni4 V1 2.323180 1_565
Ni4 Ni5 2.482071 1_555
Ni4 Ni6 2.482090 1_555
Ni4 Ni7 2.482090 1_555
Ni4 V7 2.575627 1_556
Ni4 V8 2.575631 1_555
Ni4 V5 2.575671 1_565
Ni4 V10 2.848258 1_556
Ni4 V15 2.848279 1_566
Ni4 V12 2.848285 1_565
Ni5 V2 2.323109 1_556
Ni5 V3 2.323115 1_555
Ni5 V0 2.323180 1_655
Ni5 Ni6 2.482090 1_555
Ni5 Ni7 2.482090 1_555
Ni5 V9 2.575627 1_556
Ni5 V6 2.575631 1_555
Ni5 V5 2.575671 1_655
Ni5 V10 2.848258 1_556
Ni5 V13 2.848279 1_656
Ni5 V14 2.848285 1_655
Ni6 V3 2.323085 1_555
Ni6 V0 2.323151 1_655
Ni6 V1 2.323151 1_565
Ni6 Ni7 2.482110 1_555
Ni6 V4 2.575616 1_555
Ni6 V9 2.575657 1_565
Ni6 V7 2.575657 1_655
Ni6 V14 2.848256 1_655
Ni6 V12 2.848256 1_565
Ni6 V11 2.848269 1_665
Ni7 V2 2.323082 1_556
Ni7 V0 2.323155 1_655
Ni7 V1 2.323155 1_565
Ni7 V4 2.575609 1_556
Ni7 V6 2.575653 1_565
Ni7 V8 2.575653 1_655
Ni7 V13 2.848253 1_656
Ni7 V15 2.848253 1_566
Ni7 V11 2.848272 1_665
N0 V4 1.999816 1_545
N0 V10 1.999816 1_555
N0 V15 1.999817 1_555
N0 V12 1.999817 1_555
N0 V6 1.999817 1_554
N0 V9 1.999817 1_555
N1 V4 1.999816 1_455
N1 V10 1.999816 1_555
N1 V13 1.999817 1_555
N1 V14 1.999817 1_555
N1 V8 1.999817 1_554
N1 V7 1.999817 1_555
N2 V6 1.999823 1_455
N2 V8 1.999823 1_545
N2 V12 1.999823 1_555
N2 V14 1.999823 1_555
N2 V11 1.999827 1_555
N2 V5 1.999827 1_555
N3 V9 1.999823 1_455
N3 V7 1.999823 1_545
N3 V15 1.999823 1_555
N3 V13 1.999823 1_555
N3 V5 1.999827 1_554
N3 V11 1.999827 1_555
