# generated using pymatgen
data_Ca6Al7ClO16
_symmetry_space_group_name_H-M   'P 1'
_cell_length_a   10.48826309
_cell_length_b   10.48826309
_cell_length_c   10.48826309
_cell_angle_alpha   109.36287058
_cell_angle_beta   109.36287058
_cell_angle_gamma   109.68813875
_symmetry_Int_Tables_number   1
_chemical_formula_structural   Ca6Al7ClO16
_chemical_formula_sum   'Ca12 Al14 Cl2 O32'
_cell_volume   888.14557478
_cell_formula_units_Z   2
loop_
 _symmetry_equiv_pos_site_id
 _symmetry_equiv_pos_as_xyz
  1  'x, y, z'
loop_
 _atom_site_type_symbol
 _atom_site_label
 _atom_site_symmetry_multiplicity
 _atom_site_fract_x
 _atom_site_fract_y
 _atom_site_fract_z
 _atom_site_occupancy
  Ca  Ca0  1  0.27032900  0.27032900  0.00000000  1
  Ca  Ca1  1  0.97967100  0.47967100  0.50000000  1
  Ca  Ca2  1  0.52032900  0.02032900  0.50000000  1
  Ca  Ca3  1  0.72967100  0.72967100  0.00000000  1
  Ca  Ca4  1  0.23892100  0.87500000  0.86392100  1
  Ca  Ca5  1  0.01107900  0.37500000  0.13607900  1
  Ca  Ca6  1  0.49101800  0.37500000  0.61601800  1
  Ca  Ca7  1  0.75898200  0.87500000  0.38398200  1
  Ca  Ca8  1  0.12500000  0.50898200  0.88398200  1
  Ca  Ca9  1  0.62500000  0.24101800  0.11601800  1
  Ca  Ca10  1  0.62500000  0.76107900  0.63607900  1
  Ca  Ca11  1  0.12500000  0.98892100  0.36392100  1
  Al  Al0  1  0.90899000  0.15939100  0.78467300  1
  Al  Al1  1  0.37471900  0.12431700  0.21532700  1
  Al  Al2  1  0.34101000  0.62568300  0.75040200  1
  Al  Al3  1  0.87528100  0.59060900  0.24959800  1
  Al  Al4  1  0.37431700  0.12471900  0.71532700  1
  Al  Al5  1  0.40939100  0.65899000  0.28467300  1
  Al  Al6  1  0.84060900  0.62528100  0.74959800  1
  Al  Al7  1  0.87568300  0.09101000  0.25040200  1
  Al  Al8  1  0.00000000  0.00000000  0.00000000  1
  Al  Al9  1  0.25000000  0.75000000  0.50000000  1
  Al  Al10  1  0.49925900  0.87500000  0.12425900  1
  Al  Al11  1  0.75074100  0.37500000  0.87574100  1
  Al  Al12  1  0.12500000  0.24925900  0.62425900  1
  Al  Al13  1  0.62500000  0.50074100  0.37574100  1
  Cl  Cl0  1  0.50000000  0.50000000  0.00000000  1
  Cl  Cl1  1  0.75000000  0.25000000  0.50000000  1
  O  O0  1  0.74463300  0.98859000  0.62237300  1
  O  O1  1  0.36621700  0.12226000  0.37762700  1
  O  O2  1  0.50536700  0.62774000  0.74395700  1
  O  O3  1  0.88378300  0.76141000  0.25604300  1
  O  O4  1  0.37226000  0.11621700  0.87762700  1
  O  O5  1  0.23859000  0.49463300  0.12237300  1
  O  O6  1  0.01141000  0.63378300  0.75604300  1
  O  O7  1  0.87774000  0.25536700  0.24395700  1
  O  O8  1  0.07943400  0.23748100  0.76867400  1
  O  O9  1  0.46880700  0.31076000  0.23132600  1
  O  O10  1  0.17056600  0.43924000  0.65804700  1
  O  O11  1  0.78119300  0.51251900  0.34195300  1
  O  O12  1  0.56076000  0.21880700  0.73132600  1
  O  O13  1  0.48748100  0.82943400  0.26867400  1
  O  O14  1  0.76251900  0.53119300  0.84195300  1
  O  O15  1  0.68924000  0.92056600  0.15804700  1
  O  O16  1  0.18956600  0.03343300  0.04491200  1
  O  O17  1  0.26148000  0.71656700  0.65613300  1
  O  O18  1  0.98852000  0.14465400  0.95508800  1
  O  O19  1  0.06043400  0.60534600  0.34386700  1
  O  O20  1  0.66826700  0.53832700  0.56607800  1
  O  O21  1  0.27775100  0.21167300  0.62993900  1
  O  O22  1  0.58173300  0.64781100  0.37006100  1
  O  O23  1  0.97224900  0.10218900  0.43392200  1
  O  O24  1  0.35218900  0.72224900  0.93392200  1
  O  O25  1  0.89781100  0.33173300  0.87006100  1
  O  O26  1  0.46167300  0.02775100  0.12993900  1
  O  O27  1  0.78832700  0.41826700  0.06607800  1
  O  O28  1  0.39465400  0.73852000  0.45508800  1
  O  O29  1  0.85534600  0.81043400  0.84386700  1
  O  O30  1  0.28343300  0.93956600  0.54491200  1
  O  O31  1  0.96656700  0.01148000  0.15613300  1
loop_
_geom_bond_atom_site_label_1
_geom_bond_atom_site_label_2
_geom_bond_distance
_geom_bond_site_symmetry_2
Ca0 O8 2.402845 1_554
Ca0 O9 2.402845 1_555
Ca0 O4 2.470112 1_554
Ca0 O5 2.470112 1_555
Ca0 O16 2.595252 1_555
Ca0 O18 2.595262 1_454
Ca0 Cl0 2.774049 1_555
Ca1 O11 2.402845 1_555
Ca1 O10 2.402845 1_655
Ca1 O6 2.470112 1_655
Ca1 O7 2.470112 1_555
Ca1 O19 2.595252 1_655
Ca1 O17 2.595258 1_655
Ca1 Cl1 2.774049 1_555
Ca2 O13 2.402845 1_545
Ca2 O12 2.402845 1_555
Ca2 O0 2.470112 1_545
Ca2 O1 2.470112 1_555
Ca2 O30 2.595252 1_545
Ca2 O28 2.595262 1_545
Ca2 Cl1 2.774049 1_555
Ca3 O14 2.402845 1_554
Ca3 O15 2.402845 1_555
Ca3 O3 2.470112 1_555
Ca3 O2 2.470112 1_554
Ca3 O29 2.595252 1_554
Ca3 O31 2.595258 1_565
Ca3 Cl0 2.774049 1_555
Ca4 O4 2.370365 1_565
Ca4 O6 2.370365 1_555
Ca4 O16 2.402532 1_566
Ca4 O17 2.402538 1_555
Ca4 O26 2.449701 1_566
Ca4 O24 2.449707 1_555
Ca5 O5 2.370365 1_555
Ca5 O7 2.370365 1_455
Ca5 O18 2.402527 1_454
Ca5 O19 2.402532 1_555
Ca5 O25 2.449698 1_454
Ca5 O27 2.449707 1_455
Ca6 O21 2.399926 1_555
Ca6 O20 2.399932 1_555
Ca6 O2 2.467515 1_555
Ca6 O1 2.467515 1_555
Ca6 O14 2.493166 1_555
Ca6 O12 2.493166 1_555
Ca7 O23 2.399932 1_565
Ca7 O22 2.399938 1_555
Ca7 O3 2.467515 1_555
Ca7 O0 2.467515 1_555
Ca7 O15 2.493166 1_555
Ca7 O13 2.493166 1_555
Ca8 O24 2.399932 1_555
Ca8 O25 2.399938 1_455
Ca8 O6 2.467515 1_555
Ca8 O5 2.467515 1_556
Ca8 O10 2.493166 1_555
Ca8 O8 2.493166 1_555
Ca9 O26 2.399926 1_555
Ca9 O27 2.399932 1_555
Ca9 O7 2.467515 1_555
Ca9 O4 2.467515 1_554
Ca9 O11 2.493166 1_555
Ca9 O9 2.493166 1_555
Ca10 O0 2.370365 1_555
Ca10 O2 2.370365 1_555
Ca10 O28 2.402527 1_555
Ca10 O29 2.402532 1_555
Ca10 O22 2.449698 1_555
Ca10 O20 2.449707 1_555
Ca11 O3 2.370365 1_455
Ca11 O1 2.370365 1_565
Ca11 O30 2.402532 1_555
Ca11 O31 2.402538 1_465
Ca11 O21 2.449701 1_565
Ca11 O23 2.449707 1_465
Al0 O0 1.740618 1_545
Al0 O18 1.787670 1_555
Al0 O8 1.788351 1_655
Al0 O25 1.795020 1_555
Al1 O1 1.740622 1_555
Al1 O16 1.787678 1_555
Al1 O9 1.788350 1_555
Al1 O26 1.795014 1_555
Al2 O2 1.740622 1_555
Al2 O17 1.787673 1_555
Al2 O10 1.788350 1_555
Al2 O24 1.795009 1_555
Al3 O3 1.740611 1_555
Al3 O19 1.787683 1_655
Al3 O11 1.788355 1_555
Al3 O27 1.795014 1_555
Al4 O4 1.740622 1_555
Al4 O30 1.787678 1_545
Al4 O12 1.788350 1_555
Al4 O21 1.795014 1_555
Al5 O5 1.740618 1_555
Al5 O28 1.787670 1_555
Al5 O13 1.788351 1_555
Al5 O22 1.795020 1_555
Al6 O6 1.740611 1_655
Al6 O29 1.787683 1_555
Al6 O14 1.788355 1_555
Al6 O20 1.795014 1_555
Al7 O7 1.740622 1_555
Al7 O31 1.787673 1_555
Al7 O15 1.788350 1_545
Al7 O23 1.795009 1_555
Al8 O31 1.759983 1_455
Al8 O16 1.759985 1_555
Al8 O29 1.759985 1_444
Al8 O18 1.759988 1_454
Al9 O17 1.759983 1_555
Al9 O19 1.759985 1_555
Al9 O30 1.759985 1_555
Al9 O28 1.759988 1_555
Al10 O15 1.761292 1_555
Al10 O13 1.761292 1_555
Al10 O24 1.761669 1_554
Al10 O26 1.761671 1_565
Al11 O12 1.761292 1_555
Al11 O14 1.761292 1_555
Al11 O25 1.761667 1_555
Al11 O27 1.761669 1_556
Al12 O8 1.761292 1_555
Al12 O10 1.761292 1_555
Al12 O23 1.761669 1_455
Al12 O21 1.761671 1_555
Al13 O9 1.761292 1_555
Al13 O11 1.761292 1_555
Al13 O22 1.761667 1_555
Al13 O20 1.761669 1_555
