# generated using pymatgen
data_BaCa(CoO2)4
_symmetry_space_group_name_H-M   'P 1'
_cell_length_a   5.41940886
_cell_length_b   5.41940886
_cell_length_c   7.83758000
_cell_angle_alpha   90.00000000
_cell_angle_beta   90.00000000
_cell_angle_gamma   120.00001056
_symmetry_Int_Tables_number   1
_chemical_formula_structural   BaCa(CoO2)4
_chemical_formula_sum   'Ba1 Ca1 Co4 O8'
_cell_volume   199.35007670
_cell_formula_units_Z   1
loop_
 _symmetry_equiv_pos_site_id
 _symmetry_equiv_pos_as_xyz
  1  'x, y, z'
loop_
 _atom_site_type_symbol
 _atom_site_label
 _atom_site_symmetry_multiplicity
 _atom_site_fract_x
 _atom_site_fract_y
 _atom_site_fract_z
 _atom_site_occupancy
  Ba  Ba0  1  0.00000000  0.00000000  0.00000000  1
  Ca  Ca0  1  0.00000000  0.00000000  0.50000000  1
  Co  Co0  1  0.33333300  0.66666700  0.76510300  1
  Co  Co1  1  0.66666700  0.33333300  0.76510300  1
  Co  Co2  1  0.33333300  0.66666700  0.23489700  1
  Co  Co3  1  0.66666700  0.33333300  0.23489700  1
  O  O0  1  0.33287700  0.33287700  0.69910700  1
  O  O1  1  0.66712300  0.00000000  0.69910700  1
  O  O2  1  0.00000000  0.66712300  0.69910700  1
  O  O3  1  0.66712300  0.66712300  0.30089300  1
  O  O4  1  0.00000000  0.33287700  0.30089300  1
  O  O5  1  0.33287700  0.00000000  0.30089300  1
  O  O6  1  0.33333300  0.66666700  0.00000000  1
  O  O7  1  0.66666700  0.33333300  0.00000000  1
loop_
_geom_bond_atom_site_label_1
_geom_bond_atom_site_label_2
_geom_bond_distance
_geom_bond_site_symmetry_2
Ba0 O0 2.969150 1_554
Ba0 O3 2.969150 1_445
Ba0 O2 2.969151 1_544
Ba0 O1 2.969151 1_454
Ba0 O5 2.969151 1_555
Ba0 O4 2.969151 1_555
Ba0 O7 3.128894 1_455
Ba0 O6 3.128894 1_545
Ba0 O6 3.128898 1_555
Ba0 O7 3.128898 1_445
Ba0 O6 3.128898 1_445
Ba0 O7 3.128898 1_555
Ca0 O3 2.385292 1_445
Ca0 O0 2.385292 1_555
Ca0 O4 2.385292 1_555
Ca0 O5 2.385292 1_555
Ca0 O2 2.385292 1_545
Ca0 O1 2.385292 1_455
Co0 O6 1.841024 1_556
Co0 O2 1.880251 1_555
Co0 O1 1.880253 1_565
Co0 O0 1.880256 1_555
Co1 O7 1.841024 1_556
Co1 O1 1.880251 1_555
Co1 O2 1.880253 1_655
Co1 O0 1.880256 1_555
Co2 O6 1.841024 1_555
Co2 O5 1.880251 1_565
Co2 O4 1.880253 1_555
Co2 O3 1.880256 1_555
Co3 O7 1.841024 1_555
Co3 O4 1.880251 1_655
Co3 O5 1.880253 1_555
Co3 O3 1.880256 1_555
