# generated using pymatgen
data_K3GdCl6
_symmetry_space_group_name_H-M   'P 1'
_cell_length_a   7.79303566
_cell_length_b   12.54824035
_cell_length_c   13.09632694
_cell_angle_alpha   70.90995798
_cell_angle_beta   90.00000000
_cell_angle_gamma   90.00000000
_symmetry_Int_Tables_number   1
_chemical_formula_structural   K3GdCl6
_chemical_formula_sum   'K12 Gd4 Cl24'
_cell_volume   1210.24545377
_cell_formula_units_Z   4
loop_
 _symmetry_equiv_pos_site_id
 _symmetry_equiv_pos_as_xyz
  1  'x, y, z'
loop_
 _atom_site_type_symbol
 _atom_site_label
 _atom_site_symmetry_multiplicity
 _atom_site_fract_x
 _atom_site_fract_y
 _atom_site_fract_z
 _atom_site_occupancy
  K  K0  1  0.43742052  0.73568605  0.31386305  1
  K  K1  1  0.56257948  0.26431395  0.68613695  1
  K  K2  1  0.93742052  0.76431395  0.68613695  1
  K  K3  1  0.06257948  0.23568605  0.31386305  1
  K  K4  1  0.96338434  0.64118921  0.09947519  1
  K  K5  1  0.03661566  0.35881079  0.90052481  1
  K  K6  1  0.46338434  0.85881079  0.90052481  1
  K  K7  1  0.53661566  0.14118921  0.09947519  1
  K  K8  1  0.92779224  0.88787539  0.32061422  1
  K  K9  1  0.07220776  0.11212461  0.67938578  1
  K  K10  1  0.42779224  0.61212461  0.67938578  1
  K  K11  1  0.57220776  0.38787539  0.32061422  1
  Gd  Gd0  1  0.00000000  0.50000000  0.50000000  1
  Gd  Gd1  1  0.50000000  0.00000000  0.50000000  1
  Gd  Gd2  1  0.00000000  0.00000000  -0.00000000  1
  Gd  Gd3  1  0.50000000  0.50000000  -0.00000000  1
  Cl  Cl0  1  0.49613472  0.63686822  0.11537889  1
  Cl  Cl1  1  0.50386528  0.36313178  0.88462111  1
  Cl  Cl2  1  0.99613472  0.86313178  0.88462111  1
  Cl  Cl3  1  0.00386528  0.13686822  0.11537889  1
  Cl  Cl4  1  0.28487123  0.99635713  0.34344924  1
  Cl  Cl5  1  0.71512877  0.00364287  0.65655076  1
  Cl  Cl6  1  0.78487123  0.50364287  0.65655076  1
  Cl  Cl7  1  0.21512877  0.49635713  0.34344924  1
  Cl  Cl8  1  0.78562907  0.60933183  0.34029272  1
  Cl  Cl9  1  0.21437093  0.39066817  0.65970728  1
  Cl  Cl10  1  0.28562907  0.89066817  0.65970728  1
  Cl  Cl11  1  0.71437093  0.10933183  0.34029272  1
  Cl  Cl12  1  0.64066381  0.80374542  0.50008422  1
  Cl  Cl13  1  0.35933619  0.19625458  0.49991578  1
  Cl  Cl14  1  0.14066381  0.69625458  0.49991578  1
  Cl  Cl15  1  0.85933619  0.30374542  0.50008422  1
  Cl  Cl16  1  0.16482800  0.83737737  0.14895941  1
  Cl  Cl17  1  0.83517200  0.16262263  0.85104059  1
  Cl  Cl18  1  0.66482800  0.66262263  0.85104059  1
  Cl  Cl19  1  0.33517200  0.33737737  0.14895941  1
  Cl  Cl20  1  0.70457926  0.91135943  0.10226501  1
  Cl  Cl21  1  0.29542074  0.08864057  0.89773499  1
  Cl  Cl22  1  0.20457926  0.58864057  0.89773499  1
  Cl  Cl23  1  0.79542074  0.41135943  0.10226501  1
loop_
_geom_bond_atom_site_label_1
_geom_bond_atom_site_label_2
_geom_bond_distance
_geom_bond_site_symmetry_2
Cl0 Gd3 2.632737 1_555
Cl0 K0 3.257643 1_555
Cl0 K6 3.257748 1_554
Cl0 K11 3.441622 1_555
Cl0 K4 3.646635 1_555
Cl1 Gd3 2.632737 1_556
Cl1 K1 3.257643 1_555
Cl1 K7 3.257748 1_556
Cl1 K10 3.441622 1_555
Cl1 K5 3.646635 1_555
Cl2 Gd2 2.632737 1_666
Cl2 K2 3.257643 1_555
Cl2 K4 3.257748 1_556
Cl2 K9 3.441622 1_665
Cl2 K6 3.646635 1_655
Cl3 Gd2 2.632737 1_555
Cl3 K3 3.257643 1_555
Cl3 K5 3.257748 1_554
Cl3 K8 3.441622 1_445
Cl3 K7 3.646635 1_455
Cl4 Gd1 2.660366 1_565
Cl4 K8 3.154728 1_455
Cl4 K3 3.377706 1_565
Cl4 K0 3.618238 1_555
Cl4 K7 3.682735 1_565
Cl5 Gd1 2.660366 1_555
Cl5 K9 3.154728 1_655
Cl5 K2 3.377706 1_545
Cl5 K1 3.618238 1_555
Cl5 K6 3.682735 1_545
Cl6 Gd0 2.660366 1_655
Cl6 K10 3.154728 1_555
Cl6 K1 3.377706 1_555
Cl6 K2 3.618238 1_555
Cl6 K5 3.682735 1_655
Cl7 Gd0 2.660366 1_555
Cl7 K11 3.154728 1_555
Cl7 K0 3.377706 1_555
Cl7 K3 3.618238 1_555
Cl7 K4 3.682735 1_455
Cl8 Gd0 2.677840 1_655
Cl8 K0 3.104569 1_555
Cl8 K11 3.320139 1_555
Cl8 K4 3.346741 1_555
Cl8 K8 3.594615 1_555
Cl9 Gd0 2.677840 1_555
Cl9 K1 3.104569 1_555
Cl9 K10 3.320139 1_555
Cl9 K5 3.346741 1_555
Cl9 K9 3.594615 1_555
Cl10 Gd1 2.677840 1_565
Cl10 K2 3.104569 1_455
Cl10 K9 3.320139 1_565
Cl10 K6 3.346741 1_555
Cl10 K10 3.594615 1_555
Cl11 Gd1 2.677840 1_555
Cl11 K3 3.104569 1_655
Cl11 K8 3.320139 1_545
Cl11 K7 3.346741 1_555
Cl11 K11 3.594615 1_555
Cl12 Gd1 2.695277 1_565
Cl12 K8 3.165862 1_555
Cl12 K10 3.217826 1_555
Cl12 K0 3.247804 1_555
Cl12 K2 3.277431 1_555
Cl13 Gd1 2.695277 1_555
Cl13 K9 3.165862 1_555
Cl13 K11 3.217826 1_555
Cl13 K1 3.247804 1_555
Cl13 K3 3.277431 1_555
Cl14 Gd0 2.695277 1_555
Cl14 K10 3.165862 1_555
Cl14 K8 3.217826 1_455
Cl14 K2 3.247804 1_455
Cl14 K0 3.277431 1_555
Cl15 Gd0 2.695277 1_655
Cl15 K11 3.165862 1_555
Cl15 K9 3.217826 1_655
Cl15 K3 3.247804 1_655
Cl15 K1 3.277431 1_555
Cl16 Gd2 2.648754 1_565
Cl16 K0 3.000412 1_555
Cl16 K8 3.130379 1_455
Cl16 K4 3.160466 1_455
Cl17 Gd2 2.648754 1_656
Cl17 K1 3.000412 1_555
Cl17 K9 3.130379 1_655
Cl17 K5 3.160466 1_655
Cl18 Gd3 2.648754 1_556
Cl18 K2 3.000412 1_555
Cl18 K10 3.130379 1_555
Cl18 K6 3.160466 1_555
Cl19 Gd3 2.648754 1_555
Cl19 K3 3.000412 1_555
Cl19 K11 3.130379 1_555
Cl19 K7 3.160466 1_555
Cl20 Gd2 2.712327 1_665
Cl20 K7 3.156418 1_565
Cl20 K8 3.276993 1_555
Cl20 K6 3.476760 1_554
Cl20 K0 3.588528 1_555
Cl21 Gd2 2.712327 1_556
Cl21 K6 3.156418 1_545
Cl21 K9 3.276993 1_555
Cl21 K7 3.476760 1_556
Cl21 K1 3.588528 1_555
Cl22 Gd3 2.712327 1_556
Cl22 K5 3.156418 1_555
Cl22 K10 3.276993 1_555
Cl22 K4 3.476760 1_456
Cl22 K2 3.588528 1_455
Cl23 Gd3 2.712327 1_555
Cl23 K4 3.156418 1_555
Cl23 K11 3.276993 1_555
Cl23 K5 3.476760 1_654
Cl23 K3 3.588528 1_655
