# generated using pymatgen
data_Hg3AsO5
_symmetry_space_group_name_H-M   'P 1'
_cell_length_a   9.12640558
_cell_length_b   7.02405392
_cell_length_c   10.60323648
_cell_angle_alpha   57.78203703
_cell_angle_beta   90.00000000
_cell_angle_gamma   90.00000000
_symmetry_Int_Tables_number   1
_chemical_formula_structural   Hg3AsO5
_chemical_formula_sum   'Hg12 As4 O20'
_cell_volume   575.05553803
_cell_formula_units_Z   4
loop_
 _symmetry_equiv_pos_site_id
 _symmetry_equiv_pos_as_xyz
  1  'x, y, z'
loop_
 _atom_site_type_symbol
 _atom_site_label
 _atom_site_symmetry_multiplicity
 _atom_site_fract_x
 _atom_site_fract_y
 _atom_site_fract_z
 _atom_site_occupancy
  Hg  Hg0  1  0.13732996  0.66001760  0.34583678  1
  Hg  Hg1  1  0.36267004  0.66001760  0.84583678  1
  Hg  Hg2  1  0.86267004  0.33998240  0.65416322  1
  Hg  Hg3  1  0.63732996  0.33998240  0.15416322  1
  Hg  Hg4  1  0.00695831  0.77240203  0.98534266  1
  Hg  Hg5  1  0.49304169  0.77240203  0.48534266  1
  Hg  Hg6  1  0.99304169  0.22759797  0.01465734  1
  Hg  Hg7  1  0.50695831  0.22759797  0.51465734  1
  Hg  Hg8  1  0.36917690  0.95843553  0.05366000  1
  Hg  Hg9  1  0.13082310  0.95843553  0.55366000  1
  Hg  Hg10  1  0.63082310  0.04156447  0.94634000  1
  Hg  Hg11  1  0.86917690  0.04156447  0.44634000  1
  As  As0  1  0.23963089  0.30120514  0.71099159  1
  As  As1  1  0.26036911  0.30120514  0.21099159  1
  As  As2  1  0.76036911  0.69879486  0.28900841  1
  As  As3  1  0.73963089  0.69879486  0.78900841  1
  O  O0  1  0.13658014  0.86047238  0.11537796  1
  O  O1  1  0.36341986  0.86047238  0.61537796  1
  O  O2  1  0.86341986  0.13952762  0.88462204  1
  O  O3  1  0.63658014  0.13952762  0.38462204  1
  O  O4  1  0.23010941  0.33374335  0.85797292  1
  O  O5  1  0.26989059  0.33374335  0.35797292  1
  O  O6  1  0.76989059  0.66625665  0.14202708  1
  O  O7  1  0.73010941  0.66625665  0.64202708  1
  O  O8  1  0.17803573  0.04536706  0.75614658  1
  O  O9  1  0.32196427  0.04536706  0.25614658  1
  O  O10  1  0.82196427  0.95463294  0.24385342  1
  O  O11  1  0.67803573  0.95463294  0.74385342  1
  O  O12  1  0.12923819  0.51357944  0.57676487  1
  O  O13  1  0.37076181  0.51357944  0.07676487  1
  O  O14  1  0.87076181  0.48642056  0.42323513  1
  O  O15  1  0.62923819  0.48642056  0.92323513  1
  O  O16  1  0.41663520  0.35028623  0.64545502  1
  O  O17  1  0.08336480  0.35028623  0.14545502  1
  O  O18  1  0.58336480  0.64971377  0.35454498  1
  O  O19  1  0.91663520  0.64971377  0.85454498  1
loop_
_geom_bond_atom_site_label_1
_geom_bond_atom_site_label_2
_geom_bond_distance
_geom_bond_site_symmetry_2
Hg0 O0 2.070044 1_555
Hg0 O12 2.091289 1_555
Hg0 O5 2.533362 1_555
Hg0 O14 2.647994 1_455
Hg1 O1 2.070044 1_555
Hg1 O13 2.091289 1_556
Hg1 O4 2.533362 1_555
Hg1 O15 2.647994 1_555
Hg2 O2 2.070044 1_555
Hg2 O14 2.091289 1_555
Hg2 O7 2.533362 1_555
Hg2 O12 2.647994 1_655
Hg3 O3 2.070044 1_555
Hg3 O15 2.091289 1_554
Hg3 O6 2.533362 1_555
Hg3 O13 2.647994 1_555
Hg4 O0 2.143052 1_556
Hg4 O19 2.149414 1_455
Hg4 O2 2.563173 1_465
Hg4 O6 2.583853 1_456
Hg4 O17 2.606182 1_556
Hg4 O8 2.655458 1_565
Hg5 O1 2.143052 1_555
Hg5 O18 2.149414 1_555
Hg5 O3 2.563173 1_565
Hg5 O7 2.583853 1_555
Hg5 O16 2.606182 1_555
Hg5 O9 2.655458 1_565
Hg6 O2 2.143052 1_554
Hg6 O17 2.149414 1_655
Hg6 O0 2.563173 1_645
Hg6 O4 2.583853 1_654
Hg6 O19 2.606182 1_554
Hg6 O10 2.655458 1_545
Hg7 O3 2.143052 1_555
Hg7 O16 2.149414 1_555
Hg7 O1 2.563173 1_545
Hg7 O5 2.583853 1_555
Hg7 O18 2.606182 1_555
Hg7 O11 2.655458 1_545
Hg8 O0 2.219853 1_555
Hg8 O9 2.562432 1_565
Hg8 O4 2.652009 1_564
Hg9 O1 2.219853 1_555
Hg9 O8 2.562432 1_565
Hg9 O5 2.652009 1_565
Hg10 O2 2.219853 1_555
Hg10 O11 2.562432 1_545
Hg10 Hg8 2.574758 1_546
Hg10 O6 2.652009 1_546
Hg11 O3 2.219853 1_555
Hg11 O10 2.562432 1_545
Hg11 Hg9 2.574758 1_645
Hg11 O7 2.652009 1_545
As0 O8 1.690297 1_555
As0 O4 1.693647 1_555
As0 O16 1.719259 1_555
As0 O12 1.732652 1_555
As1 O9 1.690297 1_555
As1 O5 1.693647 1_555
As1 O17 1.719259 1_555
As1 O13 1.732652 1_555
As2 O10 1.690297 1_555
As2 O6 1.693647 1_555
As2 O18 1.719259 1_555
As2 O14 1.732652 1_555
As3 O11 1.690297 1_555
As3 O7 1.693647 1_555
As3 O19 1.719259 1_555
As3 O15 1.732652 1_555
