# generated using pymatgen
data_BaPrMn2O6
_symmetry_space_group_name_H-M   'P 1'
_cell_length_a   3.95359600
_cell_length_b   3.95359600
_cell_length_c   7.91276900
_cell_angle_alpha   90.00000000
_cell_angle_beta   90.00000000
_cell_angle_gamma   90.00000000
_symmetry_Int_Tables_number   1
_chemical_formula_structural   BaPrMn2O6
_chemical_formula_sum   'Ba1 Pr1 Mn2 O6'
_cell_volume   123.68386975
_cell_formula_units_Z   1
loop_
 _symmetry_equiv_pos_site_id
 _symmetry_equiv_pos_as_xyz
  1  'x, y, z'
loop_
 _atom_site_type_symbol
 _atom_site_label
 _atom_site_symmetry_multiplicity
 _atom_site_fract_x
 _atom_site_fract_y
 _atom_site_fract_z
 _atom_site_occupancy
  Ba  Ba0  1  0.00000000  0.00000000  0.50000000  1
  Pr  Pr0  1  0.00000000  0.00000000  0.00000000  1
  Mn  Mn0  1  0.50000000  0.50000000  0.75275000  1
  Mn  Mn1  1  0.50000000  0.50000000  0.24724900  1
  O  O0  1  0.50000000  0.50000000  0.00000000  1
  O  O1  1  0.00000000  0.50000000  0.77349400  1
  O  O2  1  0.50000000  0.00000000  0.77349400  1
  O  O3  1  0.00000000  0.50000000  0.22650700  1
  O  O4  1  0.50000000  0.50000000  0.50000000  1
  O  O5  1  0.50000000  0.00000000  0.22650700  1
loop_
_geom_bond_atom_site_label_1
_geom_bond_atom_site_label_2
_geom_bond_distance
_geom_bond_site_symmetry_2
Ba0 O4 2.795615 1_455
Ba0 O4 2.795615 1_555
Ba0 O4 2.795615 1_445
Ba0 O4 2.795615 1_545
Ba0 O3 2.931041 1_545
Ba0 O3 2.931041 1_555
Ba0 O5 2.931041 1_455
Ba0 O5 2.931041 1_555
Ba0 O1 2.931047 1_545
Ba0 O2 2.931047 1_555
Ba0 O2 2.931047 1_455
Ba0 O1 2.931047 1_555
Mn0 O0 1.956432 1_556
Mn0 O1 1.983601 1_655
Mn0 O2 1.983601 1_555
Mn0 O2 1.983601 1_565
Mn0 O1 1.983601 1_555
Mn0 O4 1.999952 1_555
Mn1 O0 1.956424 1_555
Mn1 O5 1.983600 1_555
Mn1 O5 1.983600 1_565
Mn1 O3 1.983600 1_555
Mn1 O3 1.983600 1_655
Mn1 O4 1.999960 1_555
O0 Pr0 2.795615 1_655
O0 Pr0 2.795615 1_565
O0 Pr0 2.795615 1_555
O0 Pr0 2.795615 1_665
O1 Pr0 2.668339 1_556
O1 Pr0 2.668339 1_566
O2 Pr0 2.668339 1_556
O2 Pr0 2.668339 1_656
O3 Pr0 2.668344 1_565
O3 Pr0 2.668344 1_555
O5 Pr0 2.668344 1_655
O5 Pr0 2.668344 1_555
