# generated using pymatgen
data_Mg14NbCoO16
_symmetry_space_group_name_H-M   'P 1'
_cell_length_a   8.61630855
_cell_length_b   8.61630855
_cell_length_c   4.27175746
_cell_angle_alpha   90.00000000
_cell_angle_beta   90.00000000
_cell_angle_gamma   90.00000000
_symmetry_Int_Tables_number   1
_chemical_formula_structural   Mg14NbCoO16
_chemical_formula_sum   'Mg14 Nb1 Co1 O16'
_cell_volume   317.13857602
_cell_formula_units_Z   1
loop_
 _symmetry_equiv_pos_site_id
 _symmetry_equiv_pos_as_xyz
  1  'x, y, z'
loop_
 _atom_site_type_symbol
 _atom_site_label
 _atom_site_symmetry_multiplicity
 _atom_site_fract_x
 _atom_site_fract_y
 _atom_site_fract_z
 _atom_site_occupancy
  Mg  Mg0  1  0.00000000  0.50000000  0.00000000  1
  Mg  Mg1  1  0.50000000  0.00000000  0.00000000  1
  Mg  Mg2  1  0.00000000  0.24440507  0.50000000  1
  Mg  Mg3  1  0.00000000  0.75559493  0.50000000  1
  Mg  Mg4  1  0.50000000  0.23982630  0.50000000  1
  Mg  Mg5  1  0.50000000  0.76017370  0.50000000  1
  Mg  Mg6  1  0.24440507  0.00000000  0.50000000  1
  Mg  Mg7  1  0.23982630  0.50000000  0.50000000  1
  Mg  Mg8  1  0.75559493  0.00000000  0.50000000  1
  Mg  Mg9  1  0.76017370  0.50000000  0.50000000  1
  Mg  Mg10  1  0.24235756  0.24235756  0.00000000  1
  Mg  Mg11  1  0.24235756  0.75764244  0.00000000  1
  Mg  Mg12  1  0.75764244  0.24235756  0.00000000  1
  Mg  Mg13  1  0.75764244  0.75764244  0.00000000  1
  Nb  Nb0  1  0.50000000  0.50000000  0.00000000  1
  Co  Co0  1  0.00000000  0.00000000  0.00000000  1
  O  O0  1  0.26220026  0.00000000  0.00000000  1
  O  O1  1  0.24552076  0.50000000  0.00000000  1
  O  O2  1  0.73779974  0.00000000  0.00000000  1
  O  O3  1  0.75447924  0.50000000  0.00000000  1
  O  O4  1  0.25144890  0.25144890  0.50000000  1
  O  O5  1  0.25144890  0.74855110  0.50000000  1
  O  O6  1  0.74855110  0.25144890  0.50000000  1
  O  O7  1  0.74855110  0.74855110  0.50000000  1
  O  O8  1  0.00000000  0.00000000  0.50000000  1
  O  O9  1  0.00000000  0.50000000  0.50000000  1
  O  O10  1  0.50000000  0.00000000  0.50000000  1
  O  O11  1  0.50000000  0.50000000  0.50000000  1
  O  O12  1  0.00000000  0.26220026  0.00000000  1
  O  O13  1  0.00000000  0.73779974  0.00000000  1
  O  O14  1  0.50000000  0.24552076  0.00000000  1
  O  O15  1  0.50000000  0.75447924  0.00000000  1
loop_
_geom_bond_atom_site_label_1
_geom_bond_atom_site_label_2
_geom_bond_distance
_geom_bond_site_symmetry_2
Mg0 O12 2.048956 1_555
Mg0 O13 2.048956 1_555
Mg0 O1 2.115483 1_555
Mg0 O3 2.115483 1_455
Mg0 O9 2.135879 1_554
Mg0 O9 2.135879 1_555
Mg1 O0 2.048956 1_555
Mg1 O2 2.048956 1_555
Mg1 O15 2.115483 1_545
Mg1 O14 2.115483 1_555
Mg1 O10 2.135879 1_554
Mg1 O10 2.135879 1_555
Mg2 O8 2.105869 1_555
Mg2 O12 2.141375 1_556
Mg2 O12 2.141375 1_555
Mg2 O4 2.167411 1_555
Mg2 O6 2.167411 1_455
Mg2 O9 2.202285 1_555
Mg3 O8 2.105869 1_565
Mg3 O13 2.141375 1_555
Mg3 O13 2.141375 1_556
Mg3 O5 2.167411 1_555
Mg3 O7 2.167411 1_455
Mg3 O9 2.202285 1_555
Mg4 O10 2.066417 1_555
Mg4 O14 2.136442 1_556
Mg4 O14 2.136442 1_555
Mg4 O6 2.143933 1_555
Mg4 O4 2.143933 1_555
Mg4 O11 2.241737 1_555
Mg5 O10 2.066417 1_565
Mg5 O15 2.136442 1_556
Mg5 O15 2.136442 1_555
Mg5 O7 2.143933 1_555
Mg5 O5 2.143933 1_555
Mg5 O11 2.241737 1_555
Mg6 O8 2.105869 1_555
Mg6 O0 2.141375 1_555
Mg6 O0 2.141375 1_556
Mg6 O4 2.167411 1_555
Mg6 O5 2.167411 1_545
Mg6 O10 2.202285 1_555
Mg7 O9 2.066417 1_555
Mg7 O1 2.136442 1_555
Mg7 O1 2.136442 1_556
Mg7 O5 2.143933 1_555
Mg7 O4 2.143933 1_555
Mg7 O11 2.241737 1_555
Mg8 O8 2.105869 1_655
Mg8 O2 2.141375 1_556
Mg8 O2 2.141375 1_555
Mg8 O6 2.167411 1_555
Mg8 O7 2.167411 1_545
Mg8 O10 2.202285 1_555
Mg9 O9 2.066417 1_655
Mg9 O3 2.136442 1_556
Mg9 O3 2.136442 1_555
Mg9 O7 2.143933 1_555
Mg9 O6 2.143933 1_555
Mg9 O11 2.241737 1_555
Mg10 O0 2.095215 1_555
Mg10 O12 2.095215 1_555
Mg10 O4 2.138750 1_554
Mg10 O4 2.138750 1_555
Mg10 O14 2.220094 1_555
Mg10 O1 2.220094 1_555
Mg11 O0 2.095215 1_565
Mg11 O13 2.095215 1_555
Mg11 O5 2.138750 1_554
Mg11 O5 2.138750 1_555
Mg11 O15 2.220094 1_555
Mg11 O1 2.220094 1_555
Mg12 O12 2.095215 1_655
Mg12 O2 2.095215 1_555
Mg12 O6 2.138750 1_555
Mg12 O6 2.138750 1_554
Mg12 O14 2.220094 1_555
Mg12 O3 2.220094 1_555
Mg13 O2 2.095215 1_565
Mg13 O13 2.095215 1_655
Mg13 O7 2.138750 1_555
Mg13 O7 2.138750 1_554
Mg13 O15 2.220094 1_555
Mg13 O3 2.220094 1_555
Nb0 O11 2.135879 1_555
Nb0 O11 2.135879 1_554
Nb0 O3 2.192672 1_555
Nb0 O1 2.192672 1_555
Nb0 O14 2.192672 1_555
Nb0 O15 2.192672 1_555
Co0 O8 2.135879 1_555
Co0 O8 2.135879 1_554
Co0 O13 2.259198 1_545
Co0 O2 2.259198 1_455
Co0 O0 2.259198 1_555
Co0 O12 2.259198 1_555
