# generated using pymatgen
data_Ho(MnGa)6
_symmetry_space_group_name_H-M   'P 1'
_cell_length_a   8.94153162
_cell_length_b   6.82489245
_cell_length_c   6.71026713
_cell_angle_alpha   82.68894060
_cell_angle_beta   49.20696465
_cell_angle_gamma   48.10409475
_symmetry_Int_Tables_number   1
_chemical_formula_structural   Ho(MnGa)6
_chemical_formula_sum   'Ho1 Mn6 Ga6'
_cell_volume   192.97413513
_cell_formula_units_Z   1
loop_
 _symmetry_equiv_pos_site_id
 _symmetry_equiv_pos_as_xyz
  1  'x, y, z'
loop_
 _atom_site_type_symbol
 _atom_site_label
 _atom_site_symmetry_multiplicity
 _atom_site_fract_x
 _atom_site_fract_y
 _atom_site_fract_z
 _atom_site_occupancy
  Ho  Ho0  1  0.00000000  0.00000000  0.00000000  1
  Mn  Mn0  1  0.00000000  0.00000000  0.50000000  1
  Mn  Mn1  1  0.50000000  0.50000000  0.00000000  1
  Mn  Mn2  1  0.99588900  0.35409500  0.64590500  1
  Mn  Mn3  1  0.00411100  0.64590500  0.35409500  1
  Mn  Mn4  1  0.64590500  0.00411100  0.99588900  1
  Mn  Mn5  1  0.35409500  0.99588900  0.00411100  1
  Ga  Ga0  1  0.50950400  0.26010200  0.73989800  1
  Ga  Ga1  1  0.49049600  0.73989800  0.26010200  1
  Ga  Ga2  1  0.73989800  0.49049600  0.50950400  1
  Ga  Ga3  1  0.26010200  0.50950400  0.49049600  1
  Ga  Ga4  1  0.50000000  0.00000000  0.50000000  1
  Ga  Ga5  1  0.00000000  0.50000000  0.00000000  1
loop_
_geom_bond_atom_site_label_1
_geom_bond_atom_site_label_2
_geom_bond_distance
_geom_bond_site_symmetry_2
Ho0 Mn4 3.165652 1_454
Ho0 Mn3 3.165652 1_545
Ho0 Mn5 3.165652 1_545
Ho0 Mn2 3.165652 1_454
Ho0 Mn1 3.355134 1_545
Ho0 Mn1 3.355134 1_455
Ho0 Mn0 3.355134 1_555
Ho0 Mn0 3.355134 1_554
Mn0 Mn1 2.414110 1_456
Mn0 Mn1 2.414110 1_545
Mn0 Mn2 2.690108 1_455
Mn0 Mn5 2.690108 1_545
Mn0 Mn4 2.690108 1_455
Mn0 Mn3 2.690108 1_545
Mn1 Mn5 2.690108 1_555
Mn1 Mn3 2.690108 1_555
Mn1 Mn2 2.690108 1_554
Mn1 Mn4 2.690108 1_554
Mn2 Mn3 2.611690 1_655
Mn2 Mn5 2.996741 1_645
Mn2 Mn5 2.996741 1_556
Mn2 Mn4 3.081610 1_565
Mn2 Mn4 3.081610 1_654
Mn3 Mn4 2.996741 1_465
Mn3 Mn4 2.996741 1_554
Mn3 Mn5 3.081610 1_456
Mn3 Mn5 3.081610 1_545
Mn4 Mn5 2.611690 1_546
Ga0 Mn1 2.466137 1_556
Ga0 Mn0 2.466137 1_655
Ga0 Mn4 2.572637 1_555
Ga0 Ga4 2.618656 1_555
Ga0 Ga5 2.618656 1_556
Ga0 Mn3 2.621984 1_556
Ga0 Mn3 2.621984 1_645
Ga0 Mn5 2.763990 1_546
Ga0 Ho0 3.229448 1_566
Ga0 Ho0 3.229448 1_655
Ga1 Mn1 2.466137 1_555
Ga1 Mn0 2.466137 1_565
Ga1 Mn5 2.572637 1_555
Ga1 Ga5 2.618656 1_655
Ga1 Ga4 2.618656 1_565
Ga1 Mn2 2.621984 1_465
Ga1 Mn2 2.621984 1_554
Ga1 Mn4 2.763990 1_564
Ga1 Ho0 3.229448 1_566
Ga1 Ho0 3.229448 1_655
Ga2 Mn0 2.466137 1_655
Ga2 Mn1 2.466137 1_556
Ga2 Mn2 2.572637 1_555
Ga2 Ga4 2.618656 1_565
Ga2 Ga5 2.618656 1_655
Ga2 Mn5 2.621984 1_556
Ga2 Mn5 2.621984 1_645
Ga2 Mn3 2.763990 1_655
Ga2 Ho0 3.229448 1_655
Ga2 Ho0 3.229448 1_566
Ga3 Mn1 2.466137 1_555
Ga3 Mn0 2.466137 1_565
Ga3 Mn3 2.572637 1_555
Ga3 Ga5 2.618656 1_556
Ga3 Ga4 2.618656 1_555
Ga3 Mn4 2.621984 1_465
Ga3 Mn4 2.621984 1_554
Ga3 Mn2 2.763990 1_455
Ga3 Ho0 3.229448 1_655
Ga3 Ho0 3.229448 1_566
Ga4 Ga5 2.414110 1_556
Ga4 Ga5 2.414110 1_645
Ga4 Mn4 2.721004 1_554
Ga4 Mn3 2.721004 1_645
Ga4 Mn5 2.721004 1_546
Ga4 Mn2 2.721004 1_455
Ga4 Ho0 3.412446 1_655
Ga4 Ho0 3.412446 1_556
Ga5 Mn3 2.721004 1_555
Ga5 Mn5 2.721004 1_545
Ga5 Mn4 2.721004 1_464
Ga5 Mn2 2.721004 1_454
Ga5 Ho0 3.412446 1_555
Ga5 Ho0 3.412446 1_565
