# generated using pymatgen
data_LiMg6Sn
_symmetry_space_group_name_H-M   'P 1'
_cell_length_a   5.11385100
_cell_length_b   6.37766700
_cell_length_c   11.01038300
_cell_angle_alpha   90.00000000
_cell_angle_beta   90.00000000
_cell_angle_gamma   90.00000000
_symmetry_Int_Tables_number   1
_chemical_formula_structural   LiMg6Sn
_chemical_formula_sum   'Li2 Mg12 Sn2'
_cell_volume   359.09746214
_cell_formula_units_Z   2
loop_
 _symmetry_equiv_pos_site_id
 _symmetry_equiv_pos_as_xyz
  1  'x, y, z'
loop_
 _atom_site_type_symbol
 _atom_site_label
 _atom_site_symmetry_multiplicity
 _atom_site_fract_x
 _atom_site_fract_y
 _atom_site_fract_z
 _atom_site_occupancy
  Li  Li0  1  0.50000000  0.50000000  0.16666300  1
  Li  Li1  1  0.50000000  0.00000000  0.66666300  1
  Mg  Mg0  1  0.00000000  0.25080000  0.08414300  1
  Mg  Mg1  1  0.00000000  0.74920000  0.08414300  1
  Mg  Mg2  1  0.00000000  0.50000000  0.83277400  1
  Mg  Mg3  1  0.50000000  0.25128900  0.91739200  1
  Mg  Mg4  1  0.50000000  0.74871100  0.91739200  1
  Mg  Mg5  1  0.50000000  0.50000000  0.66603300  1
  Mg  Mg6  1  0.00000000  0.75080000  0.58414300  1
  Mg  Mg7  1  0.00000000  0.24920000  0.58414300  1
  Mg  Mg8  1  0.00000000  0.00000000  0.33277400  1
  Mg  Mg9  1  0.50000000  0.75128900  0.41739200  1
  Mg  Mg10  1  0.50000000  0.24871100  0.41739200  1
  Mg  Mg11  1  0.50000000  0.00000000  0.16603300  1
  Sn  Sn0  1  0.00000000  0.50000000  0.33145900  1
  Sn  Sn1  1  0.00000000  0.00000000  0.83145900  1
loop_
_geom_bond_atom_site_label_1
_geom_bond_atom_site_label_2
_geom_bond_distance
_geom_bond_site_symmetry_2
Li0 Sn0 3.135308 1_555
Li0 Sn0 3.135308 1_655
Li0 Mg1 3.144726 1_555
Li0 Mg0 3.144726 1_655
Li0 Mg1 3.144726 1_655
Li0 Mg0 3.144726 1_555
Li0 Mg3 3.169965 1_554
Li0 Mg4 3.169965 1_554
Li0 Mg11 3.188841 1_565
Li0 Mg11 3.188841 1_555
Li0 Mg9 3.192097 1_555
Li0 Mg10 3.192097 1_555
Li1 Sn1 3.135308 1_655
Li1 Sn1 3.135308 1_555
Li1 Mg7 3.144726 1_555
Li1 Mg7 3.144726 1_655
Li1 Mg6 3.144726 1_545
Li1 Mg6 3.144726 1_645
Li1 Mg10 3.169965 1_555
Li1 Mg9 3.169965 1_545
Li1 Mg5 3.188841 1_555
Li1 Mg5 3.188841 1_545
Li1 Mg3 3.192097 1_555
Li1 Mg4 3.192097 1_545
Mg0 Mg3 3.147816 1_454
Mg0 Mg3 3.147816 1_554
Mg0 Mg11 3.147901 1_555
Mg0 Mg11 3.147901 1_455
Mg0 Sn0 3.152918 1_555
Mg0 Mg8 3.170566 1_555
Mg0 Mg1 3.178629 1_555
Mg0 Mg2 3.191538 1_554
Mg0 Mg1 3.199038 1_545
Mg0 Sn1 3.209175 1_554
Mg1 Mg4 3.147816 1_554
Mg1 Mg4 3.147816 1_454
Mg1 Mg11 3.147901 1_565
Mg1 Mg11 3.147901 1_465
Mg1 Sn0 3.152918 1_555
Mg1 Mg8 3.170566 1_565
Mg1 Mg2 3.191538 1_554
Mg1 Sn1 3.209175 1_564
Mg2 Mg5 3.147750 1_555
Mg2 Mg5 3.147750 1_455
Mg2 Mg3 3.149906 1_455
Mg2 Mg4 3.149906 1_455
Mg2 Mg3 3.149906 1_555
Mg2 Mg4 3.149906 1_555
Mg2 Mg7 3.170566 1_555
Mg2 Mg6 3.170566 1_555
Mg2 Sn1 3.188866 1_565
Mg2 Sn1 3.188866 1_555
Mg3 Sn1 3.162519 1_555
Mg3 Sn1 3.162519 1_655
Mg3 Mg4 3.172392 1_555
Mg3 Mg5 3.189890 1_555
Mg3 Mg4 3.205275 1_545
Mg4 Sn1 3.162519 1_565
Mg4 Sn1 3.162519 1_665
Mg4 Mg5 3.189890 1_555
Mg5 Mg7 3.147901 1_655
Mg5 Mg6 3.147901 1_555
Mg5 Mg7 3.147901 1_555
Mg5 Mg6 3.147901 1_655
Mg5 Mg9 3.172236 1_555
Mg6 Mg9 3.147816 1_555
Mg6 Mg9 3.147816 1_455
Mg6 Sn1 3.152918 1_565
Mg6 Mg7 3.178629 1_565
Mg6 Mg8 3.191538 1_565
Mg6 Mg7 3.199038 1_555
Mg6 Sn0 3.209175 1_555
Mg7 Sn1 3.152918 1_555
Mg7 Mg8 3.191538 1_555
Mg7 Sn0 3.209175 1_555
Mg8 Mg9 3.149906 1_445
Mg8 Mg9 3.149906 1_545
Mg8 Sn0 3.188866 1_555
Mg8 Sn0 3.188866 1_545
Mg9 Sn0 3.162519 1_555
Mg9 Sn0 3.162519 1_655
Mg10 Mg7 3.147816 1_555
Mg10 Mg7 3.147816 1_655
Mg10 Mg8 3.149906 1_555
Mg10 Mg8 3.149906 1_655
Mg10 Sn0 3.162519 1_555
Mg10 Sn0 3.162519 1_655
Mg10 Mg5 3.172236 1_555
Mg10 Mg9 3.172392 1_545
Mg10 Mg11 3.189890 1_555
Mg10 Mg9 3.205275 1_555
Mg11 Mg8 3.147750 1_655
Mg11 Mg8 3.147750 1_555
Mg11 Mg3 3.172236 1_554
Mg11 Mg4 3.172236 1_544
Mg11 Mg9 3.189890 1_545
