# generated using pymatgen
data_NdIn2Ni
_symmetry_space_group_name_H-M   'P 1'
_cell_length_a   9.51776404
_cell_length_b   9.51776404
_cell_length_c   21.85743800
_cell_angle_alpha   90.00000000
_cell_angle_beta   90.00000000
_cell_angle_gamma   153.11341546
_symmetry_Int_Tables_number   1
_chemical_formula_structural   NdIn2Ni
_chemical_formula_sum   'Nd10 In20 Ni10'
_cell_volume   895.41536525
_cell_formula_units_Z   10
loop_
 _symmetry_equiv_pos_site_id
 _symmetry_equiv_pos_as_xyz
  1  'x, y, z'
loop_
 _atom_site_type_symbol
 _atom_site_label
 _atom_site_symmetry_multiplicity
 _atom_site_fract_x
 _atom_site_fract_y
 _atom_site_fract_z
 _atom_site_occupancy
  Nd  Nd0  1  0.53074800  0.46925200  0.25000000  1
  Nd  Nd1  1  0.46925200  0.53074800  0.75000000  1
  Nd  Nd2  1  0.77147900  0.22852100  0.12804200  1
  Nd  Nd3  1  0.22852100  0.77147900  0.87195800  1
  Nd  Nd4  1  0.22852100  0.77147900  0.62804200  1
  Nd  Nd5  1  0.77147900  0.22852100  0.37195800  1
  Nd  Nd6  1  0.56250500  0.43749500  0.08001600  1
  Nd  Nd7  1  0.43749500  0.56250500  0.91998400  1
  Nd  Nd8  1  0.43749500  0.56250500  0.58001600  1
  Nd  Nd9  1  0.56250500  0.43749500  0.41998400  1
  In  In0  1  0.27533000  0.72467000  0.25000000  1
  In  In1  1  0.72467000  0.27533000  0.75000000  1
  In  In2  1  0.93316300  0.06683700  0.04289700  1
  In  In3  1  0.06683700  0.93316300  0.95710300  1
  In  In4  1  0.06683700  0.93316300  0.54289700  1
  In  In5  1  0.93316300  0.06683700  0.45710300  1
  In  In6  1  0.86374400  0.13625600  0.67496700  1
  In  In7  1  0.13625600  0.86374400  0.32503300  1
  In  In8  1  0.13625600  0.86374400  0.17496700  1
  In  In9  1  0.86374400  0.13625600  0.82503300  1
  In  In10  1  0.89079800  0.10920200  0.25000000  1
  In  In11  1  0.10920200  0.89079800  0.75000000  1
  In  In12  1  0.80010600  0.19989400  0.53356800  1
  In  In13  1  0.19989400  0.80010600  0.46643200  1
  In  In14  1  0.19989400  0.80010600  0.03356800  1
  In  In15  1  0.80010600  0.19989400  0.96643200  1
  In  In16  1  0.40081600  0.59918400  0.14370700  1
  In  In17  1  0.59918400  0.40081600  0.85629300  1
  In  In18  1  0.59918400  0.40081600  0.64370700  1
  In  In19  1  0.40081600  0.59918400  0.35629300  1
  Ni  Ni0  1  0.65565500  0.34434500  0.53204500  1
  Ni  Ni1  1  0.34434500  0.65565500  0.46795500  1
  Ni  Ni2  1  0.34434500  0.65565500  0.03204500  1
  Ni  Ni3  1  0.65565500  0.34434500  0.96795500  1
  Ni  Ni4  1  0.68360600  0.31639400  0.25000000  1
  Ni  Ni5  1  0.31639400  0.68360600  0.75000000  1
  Ni  Ni6  1  0.98585100  0.01414900  0.15799900  1
  Ni  Ni7  1  0.01414900  0.98585100  0.84200100  1
  Ni  Ni8  1  0.01414900  0.98585100  0.65800000  1
  Ni  Ni9  1  0.98585100  0.01414900  0.34200100  1
loop_
_geom_bond_atom_site_label_1
_geom_bond_atom_site_label_2
_geom_bond_distance
_geom_bond_site_symmetry_2
Nd0 Ni4 2.830008 1_555
Nd0 Ni9 3.103351 1_455
Nd0 Ni6 3.103351 1_455
Nd0 Ni9 3.103351 1_565
Nd0 Ni6 3.103351 1_565
Nd1 Ni5 2.830008 1_555
Nd1 Ni8 3.103337 1_545
Nd1 Ni8 3.103337 1_655
Nd1 Ni7 3.103351 1_545
Nd1 Ni7 3.103351 1_655
Nd2 Ni4 3.122920 1_555
Nd2 Ni2 3.334467 1_545
Nd2 Ni2 3.334467 1_655
Nd3 Ni5 3.122920 1_555
Nd3 Ni3 3.334467 1_455
Nd3 Ni3 3.334467 1_565
Nd4 Ni5 3.122920 1_555
Nd4 Ni0 3.334467 1_455
Nd4 Ni0 3.334467 1_565
Nd5 Ni4 3.122920 1_555
Nd5 Ni1 3.334467 1_545
Nd5 Ni1 3.334467 1_655
Nd6 Ni3 2.995590 1_554
Nd6 Ni6 3.132971 1_565
Nd6 Ni6 3.132971 1_455
Nd7 Ni2 2.995590 1_556
Nd7 Ni7 3.132971 1_545
Nd7 Ni7 3.132971 1_655
Nd8 Ni1 2.995590 1_555
Nd8 Ni8 3.132983 1_655
Nd8 Ni8 3.132983 1_545
Nd9 Ni0 2.995590 1_555
Nd9 Ni9 3.132971 1_455
Nd9 Ni9 3.132971 1_565
In0 Ni4 2.789250 1_565
In0 Ni4 2.789250 1_455
In0 In8 3.052761 1_555
In0 In7 3.052761 1_555
In0 In10 3.076716 1_565
In0 In10 3.076716 1_455
In0 In16 3.285597 1_555
In0 In19 3.285597 1_555
In0 Nd5 3.465126 1_565
In0 Nd2 3.465126 1_455
In0 Nd5 3.465126 1_455
In0 Nd2 3.465126 1_565
In1 Ni5 2.789250 1_545
In1 Ni5 2.789250 1_655
In1 In9 3.052761 1_555
In1 In6 3.052761 1_555
In1 In11 3.076716 1_655
In1 In11 3.076716 1_545
In1 In18 3.285597 1_555
In1 In17 3.285597 1_555
In1 Nd3 3.465126 1_655
In1 Nd4 3.465126 1_545
In1 Nd4 3.465126 1_655
In1 Nd3 3.465126 1_545
In2 Ni6 2.698324 1_555
In2 Ni2 2.767010 1_655
In2 Ni2 2.767010 1_545
In2 In3 3.105048 1_644
In2 Nd6 3.359856 1_655
In2 Nd6 3.359856 1_545
In2 Nd7 3.481404 1_654
In2 Nd7 3.481404 1_544
In2 Nd2 3.524773 1_555
In3 Ni7 2.698324 1_555
In3 Ni3 2.767010 1_565
In3 Ni3 2.767010 1_455
In3 Nd7 3.359856 1_565
In3 Nd7 3.359856 1_455
In3 Nd6 3.481404 1_456
In3 Nd6 3.481404 1_566
In3 Nd3 3.524773 1_555
In4 Ni8 2.698345 1_555
In4 Ni0 2.767010 1_565
In4 Ni0 2.767010 1_455
In4 In5 3.105048 1_465
In4 Nd8 3.359856 1_565
In4 Nd8 3.359856 1_455
In4 Nd9 3.481404 1_565
In4 Nd9 3.481404 1_455
In4 Nd4 3.524773 1_555
In5 Ni9 2.698324 1_555
In5 Ni1 2.767010 1_655
In5 Ni1 2.767010 1_545
In5 Nd9 3.359856 1_655
In5 Nd9 3.359856 1_545
In5 Nd8 3.481404 1_655
In5 Nd8 3.481404 1_545
In5 Nd5 3.524773 1_555
In6 Ni8 2.809180 1_645
In6 Ni5 2.890381 1_655
In6 Ni5 2.890381 1_545
In6 In9 3.280058 1_555
In6 Nd8 3.326819 1_545
In6 Nd8 3.326819 1_655
In6 Nd1 3.376607 1_545
In6 Nd1 3.376607 1_655
In6 Nd4 3.495093 1_545
In6 Nd4 3.495093 1_655
In7 Ni9 2.809183 1_465
In7 Ni4 2.890381 1_565
In7 Ni4 2.890381 1_455
In7 In8 3.280058 1_555
In7 Nd9 3.326819 1_455
In7 Nd9 3.326819 1_565
In7 Nd0 3.376607 1_455
In7 Nd0 3.376607 1_565
In7 Nd5 3.495093 1_455
In7 Nd5 3.495093 1_565
In8 Ni6 2.809183 1_465
In8 Ni4 2.890381 1_565
In8 Ni4 2.890381 1_455
In8 Nd6 3.326819 1_455
In8 Nd6 3.326819 1_565
In8 Nd0 3.376607 1_455
In8 Nd0 3.376607 1_565
In8 Nd2 3.495093 1_455
In8 Nd2 3.495093 1_565
In9 Ni7 2.809183 1_645
In9 Ni5 2.890381 1_655
In9 Ni5 2.890381 1_545
In9 Nd7 3.326819 1_545
In9 Nd7 3.326819 1_655
In9 Nd1 3.376607 1_545
In9 Nd1 3.376607 1_655
In9 Nd3 3.495093 1_545
In9 Nd3 3.495093 1_655
In10 Ni9 2.672203 1_555
In10 Ni6 2.672203 1_555
In10 In16 3.213753 1_545
In10 In16 3.213753 1_655
In10 In19 3.213753 1_545
In10 In19 3.213753 1_655
In10 Nd0 3.407279 1_545
In10 Nd0 3.407279 1_655
In10 Nd2 3.462063 1_555
In10 Nd5 3.462063 1_555
In11 Ni8 2.672186 1_555
In11 Ni7 2.672203 1_555
In11 In18 3.213753 1_565
In11 In17 3.213753 1_565
In11 In18 3.213753 1_455
In11 In17 3.213753 1_455
In11 Nd1 3.407279 1_565
In11 Nd1 3.407279 1_455
In11 Nd3 3.462063 1_555
In11 Nd4 3.462063 1_555
In12 Ni0 2.674568 1_555
In12 Ni1 2.761101 1_545
In12 Ni1 2.761101 1_655
In12 In5 2.976868 1_555
In12 Nd4 3.304036 1_655
In12 Nd4 3.304036 1_545
In12 In6 3.307577 1_555
In12 Nd8 3.520908 1_655
In12 Nd8 3.520908 1_545
In12 Nd5 3.571920 1_555
In13 Ni1 2.674568 1_555
In13 Ni0 2.761101 1_455
In13 Ni0 2.761101 1_565
In13 In4 2.976868 1_555
In13 Nd5 3.304036 1_565
In13 Nd5 3.304036 1_455
In13 In7 3.307577 1_555
In13 Nd9 3.520908 1_565
In13 Nd9 3.520908 1_455
In13 Nd4 3.571920 1_555
In14 Ni2 2.674568 1_555
In14 Ni3 2.761101 1_454
In14 Ni3 2.761101 1_564
In14 In3 2.976868 1_554
In14 Nd2 3.304036 1_565
In14 Nd2 3.304036 1_455
In14 In8 3.307577 1_555
In14 Nd6 3.520908 1_565
In14 Nd6 3.520908 1_455
In14 Nd3 3.571920 1_554
In15 Ni3 2.674568 1_555
In15 Ni2 2.761101 1_546
In15 Ni2 2.761101 1_656
In15 In2 2.976868 1_556
In15 Nd3 3.304036 1_545
In15 Nd3 3.304036 1_655
In15 In9 3.307577 1_555
In15 Nd7 3.520908 1_655
In15 Nd7 3.520908 1_545
In15 Nd2 3.571920 1_556
In16 Ni2 2.655150 1_555
In16 Ni6 2.733538 1_565
In16 Ni6 2.733538 1_455
In16 In2 3.179614 1_565
In16 In2 3.179614 1_455
In16 Nd2 3.278289 1_565
In16 Nd2 3.278289 1_455
In16 Nd6 3.301374 1_555
In16 Nd0 3.344307 1_555
In17 Ni3 2.655150 1_555
In17 Ni7 2.733538 1_655
In17 Ni7 2.733538 1_545
In17 In3 3.179614 1_655
In17 In3 3.179614 1_545
In17 Nd3 3.278289 1_545
In17 Nd3 3.278289 1_655
In17 Nd7 3.301374 1_555
In17 Nd1 3.344307 1_555
In18 Ni0 2.655150 1_555
In18 Ni8 2.733541 1_655
In18 Ni8 2.733541 1_545
In18 In4 3.179614 1_655
In18 In4 3.179614 1_545
In18 Nd4 3.278289 1_655
In18 Nd4 3.278289 1_545
In18 Nd8 3.301374 1_555
In18 Nd1 3.344307 1_555
In19 Ni1 2.655150 1_555
In19 Ni9 2.733538 1_565
In19 Ni9 2.733538 1_455
In19 In5 3.179614 1_565
In19 In5 3.179614 1_455
In19 Nd5 3.278289 1_565
In19 Nd5 3.278289 1_455
In19 Nd9 3.301374 1_555
In19 Nd0 3.344307 1_555
