# generated using pymatgen
data_NaMg14Sb
_symmetry_space_group_name_H-M   'P 1'
_cell_length_a   6.40629960
_cell_length_b   6.40629907
_cell_length_c   10.50391672
_cell_angle_alpha   90.00000000
_cell_angle_beta   90.00000000
_cell_angle_gamma   120.00000272
_symmetry_Int_Tables_number   1
_chemical_formula_structural   NaMg14Sb
_chemical_formula_sum   'Na1 Mg14 Sb1'
_cell_volume   373.33296920
_cell_formula_units_Z   1
loop_
 _symmetry_equiv_pos_site_id
 _symmetry_equiv_pos_as_xyz
  1  'x, y, z'
loop_
 _atom_site_type_symbol
 _atom_site_label
 _atom_site_symmetry_multiplicity
 _atom_site_fract_x
 _atom_site_fract_y
 _atom_site_fract_z
 _atom_site_occupancy
  Na  Na0  1  0.16666700  0.33333300  0.12500000  1
  Mg  Mg0  1  0.16991775  0.83495837  0.12500000  1
  Mg  Mg1  1  0.16391569  0.83195735  0.62500000  1
  Mg  Mg2  1  0.66504163  0.33008225  0.12500000  1
  Mg  Mg3  1  0.66804265  0.33608431  0.62500000  1
  Mg  Mg4  1  0.66504163  0.83495837  0.12500000  1
  Mg  Mg5  1  0.66804265  0.83195735  0.62500000  1
  Mg  Mg6  1  0.33511771  0.16488229  0.37597023  1
  Mg  Mg7  1  0.33511771  0.16488229  0.87402977  1
  Mg  Mg8  1  0.33511771  0.67023642  0.37597023  1
  Mg  Mg9  1  0.33511771  0.67023642  0.87402977  1
  Mg  Mg10  1  0.82976358  0.16488229  0.37597023  1
  Mg  Mg11  1  0.82976358  0.16488229  0.87402977  1
  Mg  Mg12  1  0.83333300  0.66666700  0.37377517  1
  Mg  Mg13  1  0.83333300  0.66666700  0.87622483  1
  Sb  Sb0  1  0.16666700  0.33333300  0.62500000  1
loop_
_geom_bond_atom_site_label_1
_geom_bond_atom_site_label_2
_geom_bond_distance
_geom_bond_site_symmetry_2
Mg0 Mg2 3.171912 1_565
Mg0 Mg4 3.171912 1_555
Mg0 Na0 3.203200 1_555
Mg0 Na0 3.203200 1_565
Mg0 Mg9 3.209331 1_554
Mg0 Mg8 3.209331 1_555
Mg0 Mg7 3.209338 1_564
Mg0 Mg6 3.209338 1_565
Mg0 Mg13 3.211770 1_454
Mg0 Mg12 3.211770 1_455
Mg0 Mg2 3.234387 1_455
Mg0 Mg4 3.234388 1_455
Mg1 Mg3 3.176711 1_455
Mg1 Mg5 3.176711 1_455
Mg1 Mg8 3.202329 1_555
Mg1 Mg9 3.202329 1_555
Mg1 Mg6 3.202335 1_565
Mg1 Mg7 3.202335 1_565
Mg1 Sb0 3.203186 1_565
Mg1 Sb0 3.203186 1_555
Mg1 Mg12 3.213619 1_455
Mg1 Mg13 3.213619 1_455
Mg1 Mg3 3.229588 1_565
Mg1 Mg5 3.229588 1_555
Mg2 Mg4 3.171912 1_545
Mg2 Na0 3.203201 1_655
Mg2 Na0 3.203201 1_555
Mg2 Mg7 3.209338 1_554
Mg2 Mg6 3.209338 1_555
Mg2 Mg4 3.234387 1_555
Mg3 Mg5 3.176711 1_555
Mg3 Mg6 3.202335 1_555
Mg3 Mg7 3.202335 1_555
Mg3 Sb0 3.203186 1_555
Mg3 Sb0 3.203186 1_655
Mg3 Mg5 3.229588 1_545
Mg4 Na0 3.203200 1_555
Mg4 Na0 3.203200 1_665
Mg4 Mg9 3.209338 1_554
Mg4 Mg8 3.209338 1_555
Mg5 Mg8 3.202335 1_555
Mg5 Mg9 3.202335 1_555
Mg5 Sb0 3.203186 1_665
Mg5 Sb0 3.203186 1_555
Mg6 Mg8 3.168849 1_545
Mg6 Sb0 3.214967 1_555
Mg6 Na0 3.231572 1_555
Mg6 Mg8 3.237450 1_555
Mg7 Mg9 3.168849 1_545
Mg7 Sb0 3.214967 1_555
Mg7 Na0 3.231572 1_556
Mg7 Mg9 3.237450 1_555
Mg8 Sb0 3.214973 1_555
Mg8 Na0 3.231579 1_555
Mg9 Sb0 3.214973 1_555
Mg9 Na0 3.231579 1_556
Mg10 Mg8 3.168849 1_545
Mg10 Mg6 3.168850 1_555
Mg10 Mg3 3.202329 1_555
Mg10 Mg5 3.202335 1_545
Mg10 Mg12 3.203294 1_555
Mg10 Mg12 3.203294 1_545
Mg10 Mg2 3.209331 1_555
Mg10 Mg4 3.209338 1_545
Mg10 Sb0 3.214973 1_655
Mg10 Na0 3.231579 1_655
Mg10 Mg8 3.237450 1_655
Mg10 Mg6 3.237450 1_655
Mg11 Mg9 3.168849 1_545
Mg11 Mg7 3.168850 1_555
Mg11 Mg3 3.202329 1_555
Mg11 Mg5 3.202335 1_545
Mg11 Mg13 3.203294 1_555
Mg11 Mg13 3.203294 1_545
Mg11 Mg2 3.209331 1_556
Mg11 Mg4 3.209338 1_546
Mg11 Sb0 3.214973 1_655
Mg11 Na0 3.231579 1_656
Mg11 Mg9 3.237450 1_655
Mg11 Mg7 3.237450 1_655
Mg12 Mg6 3.203294 1_555
Mg12 Mg6 3.203294 1_665
Mg12 Mg8 3.203294 1_555
Mg12 Mg8 3.203294 1_655
Mg12 Mg4 3.211763 1_555
Mg12 Mg2 3.211770 1_555
Mg12 Mg5 3.213613 1_555
Mg12 Mg3 3.213619 1_555
Mg13 Mg7 3.203294 1_555
Mg13 Mg7 3.203294 1_665
Mg13 Mg9 3.203294 1_555
Mg13 Mg9 3.203294 1_655
Mg13 Mg4 3.211763 1_556
Mg13 Mg2 3.211770 1_556
Mg13 Mg5 3.213613 1_555
Mg13 Mg3 3.213619 1_555
