# generated using pymatgen
data_SmSi2Rh
_symmetry_space_group_name_H-M   'P 1'
_cell_length_a   8.61762681
_cell_length_b   8.61762681
_cell_length_c   4.19676600
_cell_angle_alpha   90.00000000
_cell_angle_beta   90.00000000
_cell_angle_gamma   151.70403423
_symmetry_Int_Tables_number   1
_chemical_formula_structural   SmSi2Rh
_chemical_formula_sum   'Sm2 Si4 Rh2'
_cell_volume   147.73808945
_cell_formula_units_Z   2
loop_
 _symmetry_equiv_pos_site_id
 _symmetry_equiv_pos_as_xyz
  1  'x, y, z'
loop_
 _atom_site_type_symbol
 _atom_site_label
 _atom_site_symmetry_multiplicity
 _atom_site_fract_x
 _atom_site_fract_y
 _atom_site_fract_z
 _atom_site_occupancy
  Sm  Sm0  1  0.60434400  0.39565600  0.25000000  1
  Sm  Sm1  1  0.39565600  0.60434400  0.75000000  1
  Si  Si0  1  0.96162300  0.03837700  0.25000000  1
  Si  Si1  1  0.03837700  0.96162300  0.75000000  1
  Si  Si2  1  0.24952100  0.75047900  0.25000000  1
  Si  Si3  1  0.75047900  0.24952100  0.75000000  1
  Rh  Rh0  1  0.82084700  0.17915300  0.25000000  1
  Rh  Rh1  1  0.17915300  0.82084700  0.75000000  1
loop_
_geom_bond_atom_site_label_1
_geom_bond_atom_site_label_2
_geom_bond_distance
_geom_bond_site_symmetry_2
Si0 Si1 2.459401 1_645
Si0 Si1 2.459401 1_644
Si0 Sm1 3.171041 1_654
Si0 Sm1 3.171041 1_544
Si0 Sm1 3.171041 1_545
Si0 Sm1 3.171041 1_655
Si0 Sm0 3.182157 1_545
Si0 Sm0 3.182157 1_655
Si1 Sm0 3.171041 1_456
Si1 Sm0 3.171041 1_455
Si1 Sm0 3.171041 1_565
Si1 Sm0 3.171041 1_566
Si1 Sm1 3.182157 1_455
Si1 Sm1 3.182157 1_565
Si2 Sm0 3.213038 1_565
Si2 Sm0 3.213038 1_455
Si2 Sm1 3.219926 1_554
Si2 Sm1 3.219926 1_555
Si3 Sm1 3.213038 1_545
Si3 Sm1 3.213038 1_655
Si3 Sm0 3.219926 1_556
Si3 Sm0 3.219926 1_555
Rh0 Si0 2.352714 1_555
Rh0 Si3 2.405461 1_555
Rh0 Si3 2.405461 1_554
Rh0 Si2 2.420287 1_545
Rh0 Si2 2.420287 1_655
Rh0 Sm1 3.225394 1_544
Rh0 Sm1 3.225394 1_545
Rh0 Sm1 3.225394 1_655
Rh0 Sm1 3.225394 1_654
Rh1 Si1 2.352714 1_555
Rh1 Si2 2.405461 1_556
Rh1 Si2 2.405461 1_555
Rh1 Si3 2.420287 1_455
Rh1 Si3 2.420287 1_565
Rh1 Sm0 3.225394 1_455
Rh1 Sm0 3.225394 1_456
Rh1 Sm0 3.225394 1_566
Rh1 Sm0 3.225394 1_565
