# generated using pymatgen
data_SrCoO3
_symmetry_space_group_name_H-M   'P 1'
_cell_length_a   3.87545268
_cell_length_b   3.89716860
_cell_length_c   15.37347411
_cell_angle_alpha   89.95853369
_cell_angle_beta   90.04075786
_cell_angle_gamma   89.56967037
_symmetry_Int_Tables_number   1
_chemical_formula_structural   SrCoO3
_chemical_formula_sum   'Sr4 Co4 O12'
_cell_volume   232.18340686
_cell_formula_units_Z   4
loop_
 _symmetry_equiv_pos_site_id
 _symmetry_equiv_pos_as_xyz
  1  'x, y, z'
loop_
 _atom_site_type_symbol
 _atom_site_label
 _atom_site_symmetry_multiplicity
 _atom_site_fract_x
 _atom_site_fract_y
 _atom_site_fract_z
 _atom_site_occupancy
  Sr  Sr0  1  0.50064200  0.49956000  0.12225400  1
  Sr  Sr1  1  0.49962000  0.50020200  0.37732700  1
  Sr  Sr2  1  0.49996900  0.50042600  0.62272800  1
  Sr  Sr3  1  0.49988900  0.49984300  0.87744500  1
  Co  Co0  1  0.99948100  0.00034900  0.49951000  1
  Co  Co1  1  0.00011800  0.00016700  0.74970000  1
  Co  Co2  1  0.99991200  0.99972800  0.99930000  1
  Co  Co3  1  0.00132900  0.99927100  0.24967000  1
  O  O0  1  0.00109500  0.99926100  0.12063400  1
  O  O1  1  0.99883900  0.00142600  0.37955000  1
  O  O2  1  0.00027600  0.00081400  0.62083200  1
  O  O3  1  0.99911500  0.99839000  0.87963100  1
  O  O4  1  0.99993600  0.49919100  0.00017300  1
  O  O5  1  0.99999800  0.50016600  0.24984100  1
  O  O6  1  0.99996400  0.50071300  0.50079600  1
  O  O7  1  0.00016000  0.50010500  0.74994200  1
  O  O8  1  0.50006000  0.00005300  0.00065200  1
  O  O9  1  0.49994300  0.00002900  0.24953000  1
  O  O10  1  0.49966400  0.99997700  0.50051900  1
  O  O11  1  0.49999200  0.00032700  0.74996400  1
loop_
_geom_bond_atom_site_label_1
_geom_bond_atom_site_label_2
_geom_bond_distance
_geom_bond_site_symmetry_2
Co0 O1 1.844204 1_555
Co0 O2 1.865143 1_655
Co0 O10 1.937102 1_545
Co0 O10 1.938476 1_645
Co0 O6 1.947239 1_545
Co0 O6 1.950132 1_555
Co1 O11 1.937244 1_555
Co1 O11 1.938217 1_455
Co1 O7 1.948350 1_555
Co1 O7 1.948826 1_545
Co1 O2 1.981149 1_555
Co1 O3 1.997505 1_445
Co2 O3 1.839740 1_555
Co2 O0 1.865327 1_656
Co2 O8 1.937270 1_566
Co2 O8 1.938406 1_666
Co2 O4 1.946548 1_566
Co2 O4 1.950713 1_556
Co3 O9 1.932382 1_565
Co3 O9 1.943077 1_465
Co3 O5 1.945142 1_455
Co3 O5 1.952044 1_465
Co3 O0 1.983731 1_555
Co3 O1 1.996760 1_465
O0 Sr0 2.735740 1_555
O0 Sr0 2.739903 1_465
O0 Sr0 2.758048 1_565
O0 Sr0 2.758874 1_455
O1 Sr1 2.732392 1_555
O1 Sr1 2.743452 1_645
O1 Sr1 2.757312 1_655
O1 Sr1 2.759818 1_545
O2 Sr2 2.737661 1_455
O2 Sr2 2.738067 1_545
O2 Sr2 2.756584 1_555
O2 Sr2 2.760419 1_445
O3 Sr3 2.736063 1_655
O3 Sr3 2.739780 1_565
O3 Sr3 2.752401 1_555
O3 Sr3 2.764705 1_665
O4 Sr0 2.696615 1_555
O4 Sr0 2.698643 1_655
O4 Sr3 2.703712 1_554
O4 Sr3 2.705402 1_654
O5 Sr1 2.754076 1_655
O5 Sr0 2.754470 1_555
O5 Sr1 2.758094 1_555
O5 Sr0 2.759914 1_655
O6 Sr2 2.695084 1_655
O6 Sr2 2.696985 1_555
O6 Sr1 2.712517 1_555
O6 Sr1 2.712520 1_655
O7 Sr2 2.752647 1_455
O7 Sr2 2.753577 1_555
O7 Sr3 2.754546 1_555
O7 Sr3 2.757994 1_455
O8 Sr0 2.699936 1_555
O8 Sr0 2.700732 1_545
O8 Sr3 2.715901 1_554
O8 Sr3 2.719048 1_544
O9 Sr0 2.759169 1_555
O9 Sr0 2.763719 1_545
O9 Sr1 2.765653 1_545
O9 Sr1 2.768592 1_555
O10 Sr2 2.704558 1_555
O10 Sr2 2.709048 1_565
O10 Sr1 2.716959 1_565
O10 Sr1 2.717669 1_555
O11 Sr2 2.760277 1_555
O11 Sr2 2.761732 1_545
O11 Sr3 2.763343 1_555
O11 Sr3 2.764007 1_545
