# generated using pymatgen
data_KH8WN2(OF)3
_symmetry_space_group_name_H-M   'P 1'
_cell_length_a   6.43521587
_cell_length_b   6.44000888
_cell_length_c   6.44000888
_cell_angle_alpha   88.27667327
_cell_angle_beta   60.96625785
_cell_angle_gamma   119.03374215
_symmetry_Int_Tables_number   1
_chemical_formula_structural   KH8WN2(OF)3
_chemical_formula_sum   'K1 H8 W1 N2 O3 F3'
_cell_volume   191.31706662
_cell_formula_units_Z   1
loop_
 _symmetry_equiv_pos_site_id
 _symmetry_equiv_pos_as_xyz
  1  'x, y, z'
loop_
 _atom_site_type_symbol
 _atom_site_label
 _atom_site_symmetry_multiplicity
 _atom_site_fract_x
 _atom_site_fract_y
 _atom_site_fract_z
 _atom_site_occupancy
  K  K0  1  0.00000000  0.49965800  0.49965800  1
  H  H0  1  0.36768200  0.17861300  0.44164000  1
  H  H1  1  0.61896900  0.16878800  0.19380100  1
  H  H2  1  0.63231800  0.44164000  0.17861300  1
  H  H3  1  0.38103100  0.19380100  0.16878800  1
  H  H4  1  0.61896900  0.81277000  0.54981900  1
  H  H5  1  0.36768200  0.80932200  0.81093200  1
  H  H6  1  0.38103100  0.54981900  0.81277000  1
  H  H7  1  0.63231800  0.81093200  0.80932200  1
  W  W0  1  0.00000000  0.98731700  0.98731700  1
  N  N0  1  0.50000000  0.24590500  0.24590500  1
  N  N1  1  0.50000000  0.74590500  0.74590500  1
  O  O0  1  0.39785700  0.22235800  0.82450100  1
  O  O1  1  0.00000000  0.79079400  0.79079400  1
  O  O2  1  0.60214300  0.82450100  0.22235800  1
  F  F0  1  0.00000000  0.22151100  0.77699000  1
  F  F1  1  0.00000000  0.21937700  0.21937700  1
  F  F2  1  0.00000000  0.77699000  0.22151100  1
loop_
_geom_bond_atom_site_label_1
_geom_bond_atom_site_label_2
_geom_bond_distance
_geom_bond_site_symmetry_2
K0 O1 2.691110 1_555
K0 O2 2.787599 1_555
K0 O0 2.787599 1_455
H0 N0 1.033890 1_555
H1 N0 1.036869 1_555
H2 N0 1.033890 1_555
H3 N0 1.036869 1_555
H4 N1 1.036869 1_555
H5 N1 1.033890 1_555
H6 N1 1.036869 1_555
H7 N1 1.033890 1_555
O0 W0 1.866229 1_545
O1 W0 1.816556 1_555
O2 W0 1.866229 1_654
F0 W0 1.996627 1_545
F0 K0 2.491203 1_555
F1 W0 2.145042 1_544
F1 K0 2.590772 1_555
F2 W0 1.996627 1_554
F2 K0 2.491203 1_555
