# generated using pymatgen
data_Cs
_symmetry_space_group_name_H-M   'P 1'
_cell_length_a   9.22587481
_cell_length_b   9.22587773
_cell_length_c   11.73257214
_cell_angle_alpha   90.00000000
_cell_angle_beta   90.00000000
_cell_angle_gamma   100.11927169
_symmetry_Int_Tables_number   1
_chemical_formula_structural   Cs
_chemical_formula_sum   Cs8
_cell_volume   983.10422547
_cell_formula_units_Z   8
loop_
 _symmetry_equiv_pos_site_id
 _symmetry_equiv_pos_as_xyz
  1  'x, y, z'
loop_
 _atom_site_type_symbol
 _atom_site_label
 _atom_site_symmetry_multiplicity
 _atom_site_fract_x
 _atom_site_fract_y
 _atom_site_fract_z
 _atom_site_occupancy
  Cs  Cs0  1  0.74956731  0.74956731  0.24869720  1
  Cs  Cs1  1  0.25264593  0.74735407  -0.00000000  1
  Cs  Cs2  1  0.75264593  0.24735407  0.50000000  1
  Cs  Cs3  1  0.25043269  0.25043269  0.75130280  1
  Cs  Cs4  1  0.75043269  0.75043269  0.74869720  1
  Cs  Cs5  1  0.74735407  0.25264593  -0.00000000  1
  Cs  Cs6  1  0.24956731  0.24956731  0.25130280  1
  Cs  Cs7  1  0.24735407  0.75264593  0.50000000  1
loop_
_geom_bond_atom_site_label_1
_geom_bond_atom_site_label_2
_geom_bond_distance
_geom_bond_site_symmetry_2
Cs0 Cs1 5.431332 1_555
Cs0 Cs5 5.431334 1_555
Cs0 Cs7 5.453386 1_655
Cs0 Cs2 5.453388 1_565
Cs0 Cs1 5.485404 1_655
Cs0 Cs5 5.485405 1_565
Cs0 Cs7 5.496205 1_555
Cs0 Cs2 5.496206 1_555
Cs1 Cs3 5.431334 1_554
Cs1 Cs4 5.453386 1_554
Cs1 Cs6 5.453388 1_555
Cs1 Cs3 5.485405 1_564
Cs1 Cs4 5.496205 1_454
Cs1 Cs6 5.496206 1_565
Cs2 Cs6 5.431332 1_655
Cs2 Cs4 5.431334 1_545
Cs2 Cs3 5.453386 1_655
Cs2 Cs6 5.485404 1_555
Cs2 Cs4 5.485405 1_555
Cs2 Cs3 5.496205 1_555
Cs3 Cs5 5.431332 1_556
Cs3 Cs7 5.453388 1_545
Cs3 Cs5 5.485404 1_456
Cs3 Cs7 5.496206 1_555
Cs4 Cs7 5.431332 1_655
Cs4 Cs5 5.453388 1_556
Cs4 Cs7 5.485404 1_555
Cs4 Cs5 5.496206 1_566
Cs5 Cs6 5.453386 1_555
Cs5 Cs6 5.496205 1_655
Cs6 Cs7 5.431334 1_545
Cs6 Cs7 5.485405 1_555
