# generated using pymatgen
data_Cs2VH2(OF2)2
_symmetry_space_group_name_H-M   'P 1'
_cell_length_a   8.64266779
_cell_length_b   9.99247270
_cell_length_c   9.38261942
_cell_angle_alpha   94.65932952
_cell_angle_beta   104.34501187
_cell_angle_gamma   105.47676060
_symmetry_Int_Tables_number   1
_chemical_formula_structural   Cs2VH2(OF2)2
_chemical_formula_sum   'Cs8 V4 H8 O8 F16'
_cell_volume   747.08783461
_cell_formula_units_Z   4
loop_
 _symmetry_equiv_pos_site_id
 _symmetry_equiv_pos_as_xyz
  1  'x, y, z'
loop_
 _atom_site_type_symbol
 _atom_site_label
 _atom_site_symmetry_multiplicity
 _atom_site_fract_x
 _atom_site_fract_y
 _atom_site_fract_z
 _atom_site_occupancy
  Cs  Cs0  1  0.48948300  0.49717000  0.74739400  1
  Cs  Cs1  1  0.48943600  0.99748900  0.24738700  1
  Cs  Cs2  1  0.51059600  0.00269000  0.75249300  1
  Cs  Cs3  1  0.51053500  0.50263400  0.25269500  1
  Cs  Cs4  1  0.88666800  0.34659800  0.59657700  1
  Cs  Cs5  1  0.88658500  0.84653600  0.09653600  1
  Cs  Cs6  1  0.11321900  0.15340000  0.90338900  1
  Cs  Cs7  1  0.11335300  0.65344100  0.40342300  1
  V  V0  1  0.25431100  0.68860900  0.93872800  1
  V  V1  1  0.74596700  0.81136000  0.56133100  1
  V  V2  1  0.25375000  0.18857100  0.43856000  1
  V  V3  1  0.74571600  0.31134900  0.06125200  1
  H  H0  1  0.90102500  0.56938200  0.92788300  1
  H  H1  1  0.90065500  0.06932600  0.42771600  1
  H  H2  1  0.09932200  0.86897800  0.72763500  1
  H  H3  1  0.09911100  0.36895900  0.22757200  1
  H  H4  1  0.09923900  0.93066100  0.57225700  1
  H  H5  1  0.09919100  0.43070000  0.07226300  1
  H  H6  1  0.90102100  0.63108000  0.77254000  1
  H  H7  1  0.90061800  0.13102200  0.27230000  1
  O  O0  1  0.46243400  0.24062900  0.49105900  1
  O  O1  1  0.46311800  0.74073600  0.99120100  1
  O  O2  1  0.53697500  0.25934100  0.00888000  1
  O  O3  1  0.53716400  0.75923100  0.50883700  1
  O  O4  1  0.97245400  0.61815900  0.86808300  1
  O  O5  1  0.97203700  0.11813900  0.36788300  1
  O  O6  1  0.02784600  0.88189900  0.63208800  1
  O  O7  1  0.02770100  0.38187600  0.13199600  1
  F  F0  1  0.21298300  0.22754800  0.63128500  1
  F  F1  1  0.21341900  0.72767300  0.13138500  1
  F  F2  1  0.78612100  0.37046700  0.27429300  1
  F  F3  1  0.78628600  0.87052900  0.77429300  1
  F  F4  1  0.78667500  0.27252800  0.86860100  1
  F  F5  1  0.78702200  0.77234400  0.36874800  1
  F  F6  1  0.21367400  0.12946100  0.22559900  1
  F  F7  1  0.21400200  0.62944600  0.72575600  1
  F  F8  1  0.77757500  0.51104000  0.03251300  1
  F  F9  1  0.77756800  0.01093000  0.53244400  1
  F  F10  1  0.22250300  0.37245200  0.39389400  1
  F  F11  1  0.22283800  0.87246200  0.89390300  1
  F  F12  1  0.22236400  0.98895800  0.46750700  1
  F  F13  1  0.22259600  0.48906000  0.96768600  1
  F  F14  1  0.77732100  0.12759800  0.10596700  1
  F  F15  1  0.77752400  0.62754000  0.60616700  1
loop_
_geom_bond_atom_site_label_1
_geom_bond_atom_site_label_2
_geom_bond_distance
_geom_bond_site_symmetry_2
Cs0 F7 2.990070 1_555
Cs0 F0 2.992187 1_555
Cs0 F8 3.135321 1_556
Cs0 F15 3.135994 1_555
Cs0 O0 3.287927 1_555
Cs0 O1 3.295159 1_555
Cs0 F10 3.446687 1_555
Cs0 F13 3.448053 1_555
Cs0 O2 3.578317 1_556
Cs0 O3 3.587533 1_555
Cs1 F6 2.990115 1_565
Cs1 F1 2.991418 1_555
Cs1 F14 3.135495 1_565
Cs1 F9 3.136157 1_565
Cs1 O1 3.290520 1_554
Cs1 O0 3.293769 1_565
Cs1 F11 3.445795 1_554
Cs1 F12 3.447667 1_555
Cs1 O3 3.581545 1_555
Cs1 O2 3.585541 1_565
Cs2 F3 2.990791 1_545
Cs2 F4 2.991906 1_555
Cs2 F11 3.134852 1_545
Cs2 F12 3.135524 1_545
Cs2 O2 3.290863 1_556
Cs2 O3 3.294256 1_545
Cs2 F14 3.445963 1_556
Cs2 F9 3.446762 1_555
Cs2 O0 3.579507 1_555
Cs2 O1 3.587609 1_545
Cs3 F2 2.990201 1_555
Cs3 F5 2.992664 1_555
Cs3 F13 3.134594 1_554
Cs3 F10 3.135315 1_555
Cs3 O3 3.288299 1_555
Cs3 O2 3.293581 1_555
Cs3 F15 3.446709 1_555
Cs3 F8 3.448021 1_555
Cs3 O1 3.580339 1_554
Cs3 O0 3.586097 1_555
Cs4 F4 2.977817 1_555
Cs4 F2 2.980187 1_555
Cs5 F5 2.978166 1_555
Cs5 F3 2.979988 1_554
Cs6 F0 2.977854 1_555
Cs6 F6 2.979647 1_556
Cs7 F1 2.978607 1_555
Cs7 F7 2.980980 1_555
H0 O4 0.994464 1_555
H1 O5 0.994576 1_555
H2 O6 0.994439 1_555
H3 O7 0.994385 1_555
H4 O6 0.994433 1_555
H5 O7 0.994494 1_555
H6 O4 0.994250 1_555
H7 O5 0.994343 1_555
O0 V2 1.668408 1_555
O1 V0 1.669390 1_555
O2 V3 1.668862 1_555
O3 V1 1.669359 1_555
O4 V0 2.253415 1_655
O5 V2 2.252265 1_655
O6 V1 2.253592 1_455
O7 V3 2.254439 1_455
F0 V2 1.954528 1_555
F1 V0 1.954570 1_554
F2 V3 1.954131 1_555
F3 V1 1.953627 1_555
F4 V3 1.954366 1_556
F5 V1 1.954478 1_555
F6 V2 1.953845 1_555
F7 V0 1.953720 1_555
F8 V3 1.990264 1_555
F9 V1 1.989646 1_545
F10 V2 1.989608 1_555
F11 V0 1.990357 1_555
F12 V2 1.990388 1_565
F13 V0 1.989514 1_555
F14 V3 1.989478 1_555
F15 V1 1.990301 1_555
