# generated using pymatgen
data_FeMo2H4NO8
_symmetry_space_group_name_H-M   'P 1'
_cell_length_a   15.23263600
_cell_length_b   5.74531300
_cell_length_c   8.96523400
_cell_angle_alpha   90.00000000
_cell_angle_beta   90.00000000
_cell_angle_gamma   90.00000000
_symmetry_Int_Tables_number   1
_chemical_formula_structural   FeMo2H4NO8
_chemical_formula_sum   'Fe4 Mo8 H16 N4 O32'
_cell_volume   784.60376436
_cell_formula_units_Z   4
loop_
 _symmetry_equiv_pos_site_id
 _symmetry_equiv_pos_as_xyz
  1  'x, y, z'
loop_
 _atom_site_type_symbol
 _atom_site_label
 _atom_site_symmetry_multiplicity
 _atom_site_fract_x
 _atom_site_fract_y
 _atom_site_fract_z
 _atom_site_occupancy
  Fe  Fe0  1  0.61949200  0.25000000  0.81394700  1
  Fe  Fe1  1  0.11949200  0.25000000  0.68605300  1
  Fe  Fe2  1  0.38050800  0.75000000  0.18605300  1
  Fe  Fe3  1  0.88050800  0.75000000  0.31394700  1
  Mo  Mo0  1  0.52907800  0.25000000  0.20324000  1
  Mo  Mo1  1  0.02907800  0.25000000  0.29676000  1
  Mo  Mo2  1  0.47092200  0.75000000  0.79676000  1
  Mo  Mo3  1  0.97092200  0.75000000  0.70324000  1
  Mo  Mo4  1  0.78077900  0.25000000  0.50587700  1
  Mo  Mo5  1  0.28077900  0.25000000  0.99412300  1
  Mo  Mo6  1  0.21922100  0.75000000  0.49412300  1
  Mo  Mo7  1  0.71922100  0.75000000  0.00587700  1
  H  H0  1  0.92991300  0.25000000  0.88267400  1
  H  H1  1  0.42991300  0.25000000  0.61732600  1
  H  H2  1  0.07008700  0.75000000  0.11732600  1
  H  H3  1  0.57008700  0.75000000  0.38267400  1
  H  H4  1  0.82187900  0.25000000  0.92087100  1
  H  H5  1  0.32187900  0.25000000  0.57912900  1
  H  H6  1  0.17812100  0.75000000  0.07912900  1
  H  H7  1  0.67812100  0.75000000  0.42087100  1
  H  H8  1  0.89175900  0.10343200  0.03346300  1
  H  H9  1  0.39175900  0.39656800  0.46653700  1
  H  H10  1  0.10824100  0.60343200  0.96653700  1
  H  H11  1  0.60824100  0.89656800  0.53346300  1
  H  H12  1  0.10824100  0.89656800  0.96653700  1
  H  H13  1  0.60824100  0.60343200  0.53346300  1
  H  H14  1  0.89175900  0.39656800  0.03346300  1
  H  H15  1  0.39175900  0.10343200  0.46653700  1
  N  N0  1  0.88395900  0.25000000  0.96760600  1
  N  N1  1  0.38395900  0.25000000  0.53239400  1
  N  N2  1  0.11604100  0.75000000  0.03239400  1
  N  N3  1  0.61604100  0.75000000  0.46760600  1
  O  O0  1  0.55327300  0.25000000  0.00751500  1
  O  O1  1  0.05327300  0.25000000  0.49248500  1
  O  O2  1  0.44672700  0.75000000  0.99248500  1
  O  O3  1  0.94672700  0.75000000  0.50751500  1
  O  O4  1  0.46425300  0.99821800  0.26269400  1
  O  O5  1  0.96425300  0.50178200  0.23730600  1
  O  O6  1  0.53574700  0.49821800  0.73730600  1
  O  O7  1  0.03574700  0.00178200  0.76269400  1
  O  O8  1  0.53574700  0.00178200  0.73730600  1
  O  O9  1  0.03574700  0.49821800  0.76269400  1
  O  O10  1  0.46425300  0.50178200  0.26269400  1
  O  O11  1  0.96425300  0.99821800  0.23730600  1
  O  O12  1  0.86578300  0.25000000  0.63503300  1
  O  O13  1  0.36578300  0.25000000  0.86496700  1
  O  O14  1  0.13421700  0.75000000  0.36496700  1
  O  O15  1  0.63421700  0.75000000  0.13503300  1
  O  O16  1  0.67800600  0.25000000  0.61199600  1
  O  O17  1  0.17800600  0.25000000  0.88800400  1
  O  O18  1  0.32199400  0.75000000  0.38800400  1
  O  O19  1  0.82199400  0.75000000  0.11199600  1
  O  O20  1  0.62566100  0.25000000  0.30748300  1
  O  O21  1  0.12566100  0.25000000  0.19251700  1
  O  O22  1  0.37433900  0.75000000  0.69251700  1
  O  O23  1  0.87433900  0.75000000  0.80748300  1
  O  O24  1  0.79470700  0.98916300  0.39344900  1
  O  O25  1  0.29470700  0.51083700  0.10655100  1
  O  O26  1  0.20529300  0.48916300  0.60655100  1
  O  O27  1  0.70529300  0.01083700  0.89344900  1
  O  O28  1  0.20529300  0.01083700  0.60655100  1
  O  O29  1  0.70529300  0.48916300  0.89344900  1
  O  O30  1  0.79470700  0.51083700  0.39344900  1
  O  O31  1  0.29470700  0.98916300  0.10655100  1
loop_
_geom_bond_atom_site_label_1
_geom_bond_atom_site_label_2
_geom_bond_distance
_geom_bond_site_symmetry_2
Fe0 O0 2.007239 1_556
Fe0 O16 2.018044 1_555
Fe0 O29 2.025898 1_555
Fe0 O27 2.025898 1_555
Fe0 O6 2.033014 1_555
Fe0 O8 2.033014 1_555
Fe1 O1 2.007239 1_555
Fe1 O17 2.018044 1_555
Fe1 O26 2.025898 1_555
Fe1 O28 2.025898 1_555
Fe1 O7 2.033014 1_555
Fe1 O9 2.033014 1_555
Fe2 O2 2.007239 1_554
Fe2 O18 2.018044 1_555
Fe2 O31 2.025898 1_555
Fe2 O25 2.025898 1_555
Fe2 O4 2.033014 1_555
Fe2 O10 2.033014 1_555
Fe3 O3 2.007239 1_555
Fe3 O19 2.018044 1_555
Fe3 O24 2.025898 1_555
Fe3 O30 2.025898 1_555
Fe3 O11 2.033014 1_555
Fe3 O5 2.033014 1_555
Mo0 O20 1.742951 1_555
Mo0 O0 1.793007 1_555
Mo0 O10 1.830774 1_555
Mo0 O4 1.830774 1_545
Mo1 O21 1.742951 1_555
Mo1 O1 1.793007 1_555
Mo1 O5 1.830774 1_455
Mo1 O11 1.830774 1_445
Mo2 O22 1.742951 1_555
Mo2 O2 1.793007 1_555
Mo2 O8 1.830774 1_565
Mo2 O6 1.830774 1_555
Mo3 O23 1.742951 1_555
Mo3 O3 1.793007 1_555
Mo3 O7 1.830774 1_665
Mo3 O9 1.830774 1_655
Mo4 O12 1.737056 1_555
Mo4 O30 1.818443 1_555
Mo4 O24 1.818443 1_545
Mo4 O16 1.831919 1_555
Mo5 O13 1.737056 1_555
Mo5 O25 1.818443 1_556
Mo5 O31 1.818443 1_546
Mo5 O17 1.831919 1_555
Mo6 O14 1.737056 1_555
Mo6 O28 1.818443 1_565
Mo6 O26 1.818443 1_555
Mo6 O18 1.831919 1_555
Mo7 O15 1.737056 1_555
Mo7 O27 1.818443 1_564
Mo7 O29 1.818443 1_554
Mo7 O19 1.831919 1_555
H0 N0 1.034304 1_555
H1 N1 1.034304 1_555
H2 N2 1.034304 1_555
H3 N3 1.034304 1_555
H4 N0 1.034307 1_555
H5 N1 1.034307 1_555
H6 N2 1.034307 1_555
H7 N3 1.034307 1_555
H8 N0 1.035284 1_554
H9 N1 1.035284 1_555
H10 N2 1.035284 1_556
H11 N3 1.035284 1_555
H12 N2 1.035284 1_556
H13 N3 1.035284 1_555
H14 N0 1.035284 1_554
H15 N1 1.035284 1_555
