# generated using pymatgen
data_LaYO3
_symmetry_space_group_name_H-M   'P 1'
_cell_length_a   5.91593300
_cell_length_b   6.12355700
_cell_length_c   8.61089700
_cell_angle_alpha   90.00000000
_cell_angle_beta   90.00000000
_cell_angle_gamma   90.00000000
_symmetry_Int_Tables_number   1
_chemical_formula_structural   LaYO3
_chemical_formula_sum   'La4 Y4 O12'
_cell_volume   311.94311598
_cell_formula_units_Z   4
loop_
 _symmetry_equiv_pos_site_id
 _symmetry_equiv_pos_as_xyz
  1  'x, y, z'
loop_
 _atom_site_type_symbol
 _atom_site_label
 _atom_site_symmetry_multiplicity
 _atom_site_fract_x
 _atom_site_fract_y
 _atom_site_fract_z
 _atom_site_occupancy
  La  La0  1  0.98414800  0.45233000  0.25000000  1
  La  La1  1  0.48414800  0.04767000  0.75000000  1
  La  La2  1  0.51585200  0.95233000  0.25000000  1
  La  La3  1  0.01585200  0.54767000  0.75000000  1
  Y  Y0  1  0.00000000  0.00000000  0.00000000  1
  Y  Y1  1  0.50000000  0.50000000  0.00000000  1
  Y  Y2  1  0.50000000  0.50000000  0.50000000  1
  Y  Y3  1  0.00000000  0.00000000  0.50000000  1
  O  O0  1  0.69107600  0.19297500  0.07092400  1
  O  O1  1  0.19107600  0.30702500  0.92907600  1
  O  O2  1  0.80892400  0.69297500  0.42907600  1
  O  O3  1  0.30892400  0.80702500  0.57092400  1
  O  O4  1  0.30892400  0.80702500  0.92907600  1
  O  O5  1  0.80892400  0.69297500  0.07092400  1
  O  O6  1  0.19107600  0.30702500  0.57092400  1
  O  O7  1  0.69107600  0.19297500  0.42907600  1
  O  O8  1  0.13274600  0.06272800  0.25000000  1
  O  O9  1  0.63274600  0.43727200  0.75000000  1
  O  O10  1  0.36725400  0.56272800  0.25000000  1
  O  O11  1  0.86725400  0.93727200  0.75000000  1
loop_
_geom_bond_atom_site_label_1
_geom_bond_atom_site_label_2
_geom_bond_distance
_geom_bond_site_symmetry_2
La0 O10 2.365104 1_655
La0 O2 2.371467 1_555
La0 O5 2.371467 1_555
La0 O8 2.542560 1_655
La0 O7 2.811783 1_555
La0 O0 2.811783 1_555
La0 O6 3.150703 1_655
La0 O1 3.150703 1_654
La1 O11 2.365104 1_545
La1 O3 2.371467 1_545
La1 O4 2.371467 1_545
La1 O9 2.542560 1_555
La1 O6 2.811783 1_555
La1 O1 2.811783 1_555
La1 O0 3.150703 1_556
La1 O7 3.150703 1_555
La2 O8 2.365104 1_565
La2 O7 2.371467 1_565
La2 O0 2.371467 1_565
La2 O10 2.542560 1_555
La2 O2 2.811783 1_555
La2 O5 2.811783 1_555
La2 O4 3.150703 1_554
La2 O3 3.150703 1_555
La3 O9 2.365104 1_455
La3 O6 2.371467 1_555
La3 O1 2.371467 1_555
La3 O11 2.542560 1_455
La3 O3 2.811783 1_555
La3 O4 2.811783 1_555
La3 O5 3.150703 1_456
La3 O2 3.150703 1_455
O0 Y0 2.260399 1_655
O0 Y1 2.277166 1_555
O1 Y1 2.260399 1_556
O1 Y0 2.277166 1_556
O2 Y2 2.260399 1_555
O2 Y3 2.277166 1_665
O3 Y3 2.260399 1_565
O3 Y2 2.277166 1_555
O4 Y0 2.260399 1_566
O4 Y1 2.277166 1_556
O5 Y1 2.260399 1_555
O5 Y0 2.277166 1_665
O6 Y2 2.260399 1_555
O6 Y3 2.277166 1_555
O7 Y3 2.260399 1_655
O7 Y2 2.277166 1_555
O8 Y0 2.323465 1_555
O8 Y3 2.323465 1_555
O9 Y2 2.323465 1_555
O9 Y1 2.323465 1_556
O10 Y1 2.323465 1_555
O10 Y2 2.323465 1_555
O11 Y3 2.323465 1_665
O11 Y0 2.323465 1_666
