# generated using pymatgen
data_NClO4
_symmetry_space_group_name_H-M   'P 1'
_cell_length_a   5.74658900
_cell_length_b   8.43306200
_cell_length_c   8.64602500
_cell_angle_alpha   90.00000000
_cell_angle_beta   90.00000000
_cell_angle_gamma   90.00000000
_symmetry_Int_Tables_number   1
_chemical_formula_structural   NClO4
_chemical_formula_sum   'N4 Cl4 O16'
_cell_volume   418.99796863
_cell_formula_units_Z   4
loop_
 _symmetry_equiv_pos_site_id
 _symmetry_equiv_pos_as_xyz
  1  'x, y, z'
loop_
 _atom_site_type_symbol
 _atom_site_label
 _atom_site_symmetry_multiplicity
 _atom_site_fract_x
 _atom_site_fract_y
 _atom_site_fract_z
 _atom_site_occupancy
  N  N0  1  0.25000000  0.76643800  0.64420100  1
  N  N1  1  0.25000000  0.73356200  0.14420100  1
  N  N2  1  0.75000000  0.23356200  0.35579900  1
  N  N3  1  0.75000000  0.26643800  0.85579900  1
  Cl  Cl0  1  0.25000000  0.31809000  0.89371100  1
  Cl  Cl1  1  0.25000000  0.18191000  0.39371100  1
  Cl  Cl2  1  0.75000000  0.68191000  0.10628900  1
  Cl  Cl3  1  0.75000000  0.81809000  0.60628900  1
  O  O0  1  0.25000000  0.42028500  0.76245400  1
  O  O1  1  0.25000000  0.07971500  0.26245400  1
  O  O2  1  0.75000000  0.57971500  0.23754600  1
  O  O3  1  0.75000000  0.92028500  0.73754600  1
  O  O4  1  0.25000000  0.39922600  0.03886300  1
  O  O5  1  0.25000000  0.10077400  0.53886300  1
  O  O6  1  0.75000000  0.60077400  0.96113700  1
  O  O7  1  0.75000000  0.89922600  0.46113700  1
  O  O8  1  0.04725700  0.19923700  0.88658000  1
  O  O9  1  0.45274300  0.30076300  0.38658000  1
  O  O10  1  0.54725700  0.80076300  0.11342000  1
  O  O11  1  0.95274300  0.69923700  0.61342000  1
  O  O12  1  0.95274300  0.80076300  0.11342000  1
  O  O13  1  0.54725700  0.69923700  0.61342000  1
  O  O14  1  0.45274300  0.19923700  0.88658000  1
  O  O15  1  0.04725700  0.30076300  0.38658000  1
loop_
_geom_bond_atom_site_label_1
_geom_bond_atom_site_label_2
_geom_bond_distance
_geom_bond_site_symmetry_2
N0 O11 1.819336 1_455
N0 O13 1.819336 1_555
N1 O10 1.819336 1_555
N1 O12 1.819336 1_455
N2 O9 1.819336 1_555
N2 O15 1.819336 1_655
N3 O14 1.819336 1_555
N3 O8 1.819336 1_655
Cl0 O0 1.424997 1_555
Cl0 O4 1.429391 1_556
Cl0 O14 1.538119 1_555
Cl0 O8 1.538119 1_555
Cl1 O1 1.424997 1_555
Cl1 O5 1.429391 1_555
Cl1 O9 1.538119 1_555
Cl1 O15 1.538119 1_555
Cl2 O2 1.424997 1_555
Cl2 O6 1.429391 1_554
Cl2 O10 1.538119 1_555
Cl2 O12 1.538119 1_555
Cl3 O3 1.424997 1_555
Cl3 O7 1.429391 1_555
Cl3 O11 1.538119 1_555
Cl3 O13 1.538119 1_555
