# generated using pymatgen
data_Ba6Nd2Ga4O15
_symmetry_space_group_name_H-M   'P 1'
_cell_length_a   6.05228948
_cell_length_b   8.10477053
_cell_length_c   18.75452073
_cell_angle_alpha   90.99810156
_cell_angle_beta   90.00000000
_cell_angle_gamma   90.00000000
_symmetry_Int_Tables_number   1
_chemical_formula_structural   Ba6Nd2Ga4O15
_chemical_formula_sum   'Ba12 Nd4 Ga8 O30'
_cell_volume   919.81499703
_cell_formula_units_Z   2
loop_
 _symmetry_equiv_pos_site_id
 _symmetry_equiv_pos_as_xyz
  1  'x, y, z'
loop_
 _atom_site_type_symbol
 _atom_site_label
 _atom_site_symmetry_multiplicity
 _atom_site_fract_x
 _atom_site_fract_y
 _atom_site_fract_z
 _atom_site_occupancy
  Ba  Ba0  1  0.75641701  0.50321179  0.42103339  1
  Ba  Ba1  1  0.24358299  0.49678821  0.57896661  1
  Ba  Ba2  1  0.75641701  0.49678821  0.07896661  1
  Ba  Ba3  1  0.24358299  0.50321179  0.92103339  1
  Ba  Ba4  1  0.75412456  0.97043650  0.40808291  1
  Ba  Ba5  1  0.24587544  0.02956350  0.59191709  1
  Ba  Ba6  1  0.75412456  0.02956350  0.09191709  1
  Ba  Ba7  1  0.24587544  0.97043650  0.90808291  1
  Ba  Ba8  1  0.70942717  0.00000000  0.75000000  1
  Ba  Ba9  1  0.29057283  0.00000000  0.25000000  1
  Ba  Ba10  1  0.65947774  0.50000000  0.75000000  1
  Ba  Ba11  1  0.34052226  0.50000000  0.25000000  1
  Nd  Nd0  1  0.74676168  0.75439528  0.59065564  1
  Nd  Nd1  1  0.25323832  0.24560472  0.40934436  1
  Nd  Nd2  1  0.74676168  0.24560472  0.90934436  1
  Nd  Nd3  1  0.25323832  0.75439528  0.09065564  1
  Ga  Ga0  1  0.74531376  0.75409627  0.94005031  1
  Ga  Ga1  1  0.25468624  0.24590373  0.05994969  1
  Ga  Ga2  1  0.74531376  0.24590373  0.55994969  1
  Ga  Ga3  1  0.25468624  0.75409627  0.44005031  1
  Ga  Ga4  1  0.78311596  0.77190193  0.23542981  1
  Ga  Ga5  1  0.21688404  0.22809807  0.76457019  1
  Ga  Ga6  1  0.78311596  0.22809807  0.26457019  1
  Ga  Ga7  1  0.21688404  0.77190193  0.73542981  1
  O  O0  1  0.20722897  0.00000000  0.75000000  1
  O  O1  1  0.79277103  0.00000000  0.25000000  1
  O  O2  1  0.51473797  0.76370907  0.49294944  1
  O  O3  1  0.48526203  0.23629093  0.50705056  1
  O  O4  1  0.51473797  0.23629093  0.00705056  1
  O  O5  1  0.48526203  0.76370907  0.99294944  1
  O  O6  1  0.76749789  0.94811512  0.88920641  1
  O  O7  1  0.23250211  0.05188488  0.11079359  1
  O  O8  1  0.76749789  0.05188488  0.61079359  1
  O  O9  1  0.23250211  0.94811512  0.38920641  1
  O  O10  1  0.02335472  0.76810518  0.50679177  1
  O  O11  1  0.97664528  0.23189482  0.49320823  1
  O  O12  1  0.02335472  0.23189482  0.99320823  1
  O  O13  1  0.97664528  0.76810518  0.00679177  1
  O  O14  1  0.32971887  0.69229688  0.81775013  1
  O  O15  1  0.67028113  0.30770312  0.18224987  1
  O  O16  1  0.32971887  0.30770312  0.68224987  1
  O  O17  1  0.67028113  0.69229688  0.31775013  1
  O  O18  1  0.42648058  0.74824232  0.66211113  1
  O  O19  1  0.57351942  0.25175768  0.33788887  1
  O  O20  1  0.42648058  0.25175768  0.83788887  1
  O  O21  1  0.57351942  0.74824232  0.16211113  1
  O  O22  1  0.94133423  0.72756185  0.69909933  1
  O  O23  1  0.05866577  0.27243815  0.30090067  1
  O  O24  1  0.94133423  0.27243815  0.80090067  1
  O  O25  1  0.05866577  0.72756185  0.19909933  1
  O  O26  1  0.76174943  0.53689095  0.90725582  1
  O  O27  1  0.23825057  0.46310905  0.09274418  1
  O  O28  1  0.76174943  0.46310905  0.59274418  1
  O  O29  1  0.23825057  0.53689095  0.40725582  1
loop_
_geom_bond_atom_site_label_1
_geom_bond_atom_site_label_2
_geom_bond_distance
_geom_bond_site_symmetry_2
Ba0 O17 2.544759 1_555
Ba0 O19 2.774798 1_555
Ba0 O2 2.883906 1_555
Ba0 O11 2.923689 1_555
Ba0 O29 2.940737 1_655
Ba0 O10 3.112203 1_655
Ba0 O29 3.158926 1_555
Ba0 O3 3.177621 1_555
Ba0 O28 3.242503 1_555
Ba0 O23 3.431318 1_655
Ba1 O16 2.544759 1_555
Ba1 O18 2.774798 1_555
Ba1 O3 2.883906 1_555
Ba1 O10 2.923689 1_555
Ba1 O28 2.940737 1_455
Ba1 O11 3.112203 1_455
Ba1 O28 3.158926 1_555
Ba1 O2 3.177621 1_555
Ba1 O29 3.242503 1_555
Ba1 O22 3.431318 1_455
Ba2 O15 2.544759 1_555
Ba2 O21 2.774798 1_555
Ba2 O4 2.883906 1_555
Ba2 O13 2.923689 1_555
Ba2 O27 2.940737 1_655
Ba2 O12 3.112203 1_654
Ba2 O27 3.158926 1_555
Ba2 O5 3.177621 1_554
Ba2 O26 3.242503 1_554
Ba2 O25 3.431318 1_655
Ba3 O14 2.544759 1_555
Ba3 O20 2.774798 1_555
Ba3 O5 2.883906 1_555
Ba3 O12 2.923689 1_555
Ba3 O26 2.940737 1_455
Ba3 O13 3.112203 1_456
Ba3 O26 3.158926 1_555
Ba3 O4 3.177621 1_556
Ba3 O27 3.242503 1_556
Ba3 O24 3.431318 1_455
Ba4 O2 2.744549 1_555
Ba4 O17 2.841877 1_555
Ba4 O19 2.868978 1_565
Ba4 O9 2.922066 1_655
Ba4 O11 2.955517 1_565
Ba4 O10 2.979443 1_655
Ba4 O1 2.987762 1_565
Ba4 O9 3.181594 1_555
Ba4 O3 3.255199 1_565
Ba5 O3 2.744549 1_555
Ba5 O16 2.841877 1_555
Ba5 O18 2.868978 1_545
Ba5 O8 2.922066 1_455
Ba5 O10 2.955517 1_545
Ba5 O11 2.979443 1_455
Ba5 O0 2.987762 1_555
Ba5 O8 3.181594 1_555
Ba5 O2 3.255199 1_545
Ba6 O4 2.744549 1_555
Ba6 O15 2.841877 1_555
Ba6 O21 2.868978 1_545
Ba6 O7 2.922066 1_655
Ba6 O13 2.955517 1_545
Ba6 O12 2.979443 1_654
Ba6 O1 2.987762 1_555
Ba6 O7 3.181594 1_555
Ba6 O5 3.255199 1_544
Ba7 O5 2.744549 1_555
Ba7 O14 2.841877 1_555
Ba7 O20 2.868978 1_565
Ba7 O6 2.922066 1_455
Ba7 O12 2.955517 1_565
Ba7 O13 2.979443 1_456
Ba7 O0 2.987762 1_565
Ba7 O6 3.181594 1_555
Ba7 O4 3.255199 1_566
Ba8 O8 2.674812 1_555
Ba8 O6 2.674812 1_545
Ba8 O24 2.771885 1_555
Ba8 O22 2.771885 1_545
Ba8 O0 3.012841 1_655
Ba8 O0 3.039449 1_555
Ba8 O18 3.113796 1_545
Ba8 O20 3.113796 1_555
Ba9 O7 2.674812 1_555
Ba9 O9 2.674812 1_545
Ba9 O23 2.771885 1_555
Ba9 O25 2.771885 1_545
Ba9 O1 3.012841 1_455
Ba9 O1 3.039449 1_555
Ba9 O19 3.113796 1_555
Ba9 O21 3.113796 1_545
Ba10 O22 2.698931 1_555
Ba10 O24 2.698931 1_555
Ba10 O14 2.820936 1_555
Ba10 O16 2.820936 1_555
Ba10 O18 2.978082 1_555
Ba10 O20 2.978082 1_555
Ba10 O28 3.023232 1_555
Ba10 O26 3.023232 1_555
Ba11 O25 2.698931 1_555
Ba11 O23 2.698931 1_555
Ba11 O15 2.820936 1_555
Ba11 O17 2.820936 1_555
Ba11 O21 2.978082 1_555
Ba11 O19 2.978082 1_555
Ba11 O29 3.023232 1_555
Ba11 O27 3.023232 1_555
Nd0 O10 2.300992 1_655
Nd0 O2 2.310912 1_555
Nd0 O18 2.357593 1_555
Nd0 O22 2.363441 1_555
Nd0 O28 2.363556 1_555
Nd0 O8 2.437211 1_565
Nd1 O11 2.300992 1_455
Nd1 O3 2.310912 1_555
Nd1 O19 2.357593 1_555
Nd1 O23 2.363441 1_555
Nd1 O29 2.363556 1_555
Nd1 O9 2.437211 1_545
Nd2 O12 2.300992 1_655
Nd2 O4 2.310912 1_556
Nd2 O20 2.357593 1_555
Nd2 O24 2.363441 1_555
Nd2 O26 2.363556 1_555
Nd2 O6 2.437211 1_545
Nd3 O13 2.300992 1_455
Nd3 O5 2.310912 1_554
Nd3 O21 2.357593 1_555
Nd3 O25 2.363441 1_555
Nd3 O27 2.363556 1_555
Nd3 O7 2.437211 1_565
Ga0 O26 1.857272 1_555
Ga0 O6 1.858014 1_555
Ga0 O5 1.861403 1_555
Ga0 O13 1.880144 1_556
Ga1 O27 1.857272 1_555
Ga1 O7 1.858014 1_555
Ga1 O4 1.861403 1_555
Ga1 O12 1.880144 1_554
Ga2 O28 1.857272 1_555
Ga2 O8 1.858014 1_555
Ga2 O3 1.861403 1_555
Ga2 O11 1.880144 1_555
Ga3 O29 1.857272 1_555
Ga3 O9 1.858014 1_555
Ga3 O2 1.861403 1_555
Ga3 O10 1.880144 1_555
Ga4 O17 1.816834 1_555
Ga4 O25 1.834697 1_655
Ga4 O1 1.864970 1_565
Ga4 O21 1.878179 1_555
Ga5 O16 1.816834 1_555
Ga5 O24 1.834697 1_455
Ga5 O0 1.864970 1_555
Ga5 O20 1.878179 1_555
Ga6 O15 1.816834 1_555
Ga6 O23 1.834697 1_655
Ga6 O1 1.864970 1_555
Ga6 O19 1.878179 1_555
Ga7 O14 1.816834 1_555
Ga7 O22 1.834697 1_455
Ga7 O0 1.864970 1_565
Ga7 O18 1.878179 1_555
