# generated using pymatgen
data_In2Te9RuCl8
_symmetry_space_group_name_H-M   'P 1'
_cell_length_a   12.11005599
_cell_length_b   12.11005599
_cell_length_c   10.47463956
_cell_angle_alpha   87.58032148
_cell_angle_beta   87.58032148
_cell_angle_gamma   60.53951455
_symmetry_Int_Tables_number   1
_chemical_formula_structural   In2Te9RuCl8
_chemical_formula_sum   'In4 Te18 Ru2 Cl16'
_cell_volume   1335.91237134
_cell_formula_units_Z   2
loop_
 _symmetry_equiv_pos_site_id
 _symmetry_equiv_pos_as_xyz
  1  'x, y, z'
loop_
 _atom_site_type_symbol
 _atom_site_label
 _atom_site_symmetry_multiplicity
 _atom_site_fract_x
 _atom_site_fract_y
 _atom_site_fract_z
 _atom_site_occupancy
  In  In0  1  0.31212700  0.34629100  0.92257700  1
  In  In1  1  0.65370900  0.68787300  0.57742300  1
  In  In2  1  0.68787300  0.65370900  0.07742300  1
  In  In3  1  0.34629100  0.31212700  0.42257700  1
  Te  Te0  1  0.29711500  0.70288500  0.75000000  1
  Te  Te1  1  0.70288500  0.29711500  0.25000000  1
  Te  Te2  1  0.06684800  0.78469300  0.63390000  1
  Te  Te3  1  0.21530700  0.93315200  0.86610000  1
  Te  Te4  1  0.93315200  0.21530700  0.36610000  1
  Te  Te5  1  0.78469300  0.06684800  0.13390000  1
  Te  Te6  1  0.93816300  0.84700600  0.87947600  1
  Te  Te7  1  0.15299400  0.06183700  0.62052400  1
  Te  Te8  1  0.06183700  0.15299400  0.12052400  1
  Te  Te9  1  0.84700600  0.93816300  0.37947600  1
  Te  Te10  1  0.70404800  0.99318200  0.76654500  1
  Te  Te11  1  0.00681800  0.29595200  0.73345500  1
  Te  Te12  1  0.29595200  0.00681800  0.23345500  1
  Te  Te13  1  0.99318200  0.70404800  0.26654500  1
  Te  Te14  1  0.78657400  0.14417600  0.63463400  1
  Te  Te15  1  0.85582400  0.21342600  0.86536600  1
  Te  Te16  1  0.21342600  0.85582400  0.36536600  1
  Te  Te17  1  0.14417600  0.78657400  0.13463400  1
  Ru  Ru0  1  0.00000000  0.00000000  0.50000000  1
  Ru  Ru1  1  0.00000000  0.00000000  0.00000000  1
  Cl  Cl0  1  0.34580300  0.13341700  0.92974300  1
  Cl  Cl1  1  0.86658300  0.65419700  0.57025700  1
  Cl  Cl2  1  0.65419700  0.86658300  0.07025700  1
  Cl  Cl3  1  0.13341700  0.34580300  0.42974300  1
  Cl  Cl4  1  0.19054500  0.45815400  0.73877200  1
  Cl  Cl5  1  0.54184600  0.80945500  0.76122800  1
  Cl  Cl6  1  0.80945500  0.54184600  0.26122800  1
  Cl  Cl7  1  0.45815400  0.19054500  0.23877200  1
  Cl  Cl8  1  0.16982000  0.45913000  0.09716400  1
  Cl  Cl9  1  0.54087000  0.83018000  0.40283600  1
  Cl  Cl10  1  0.83018000  0.54087000  0.90283600  1
  Cl  Cl11  1  0.45913000  0.16982000  0.59716400  1
  Cl  Cl12  1  0.50609300  0.35367300  0.91944000  1
  Cl  Cl13  1  0.64632700  0.49390700  0.58056000  1
  Cl  Cl14  1  0.49390700  0.64632700  0.08056000  1
  Cl  Cl15  1  0.35367300  0.50609300  0.41944000  1
loop_
_geom_bond_atom_site_label_1
_geom_bond_atom_site_label_2
_geom_bond_distance
_geom_bond_site_symmetry_2
Te0 Te2 2.775530 1_555
Te0 Te3 2.775530 1_555
Te1 Te5 2.775530 1_555
Te1 Te4 2.775530 1_555
Te2 Te6 2.878108 1_455
Te3 Te7 2.878108 1_565
Te4 Te8 2.878108 1_655
Te5 Te9 2.878108 1_545
Te10 Te14 2.778334 1_565
Te10 Te6 2.782195 1_555
Te11 Te15 2.778334 1_455
Te11 Te7 2.782195 1_555
Te12 Te16 2.778334 1_545
Te12 Te8 2.782195 1_555
Te13 Te17 2.778334 1_655
Te13 Te9 2.782195 1_555
Te14 Te15 2.877798 1_555
Te16 Te17 2.877798 1_555
Ru0 Te4 2.670538 1_455
Ru0 Te2 2.670538 1_545
Ru0 Te14 2.679304 1_455
Ru0 Te16 2.679304 1_545
Ru0 Te7 2.688748 1_555
Ru0 Te9 2.688748 1_445
Ru1 Te3 2.670538 1_544
Ru1 Te5 2.670538 1_455
Ru1 Te15 2.679304 1_454
Ru1 Te17 2.679304 1_545
Ru1 Te8 2.688748 1_555
Ru1 Te6 2.688748 1_444
Cl0 In0 2.402024 1_555
Cl1 In1 2.402024 1_555
Cl2 In2 2.402024 1_555
Cl3 In3 2.402024 1_555
Cl4 In0 2.401440 1_555
Cl5 In1 2.401440 1_555
Cl6 In2 2.401440 1_555
Cl7 In3 2.401440 1_555
Cl8 In0 2.410386 1_554
Cl9 In1 2.410386 1_555
Cl10 In2 2.410386 1_556
Cl11 In3 2.410386 1_555
Cl12 In0 2.392984 1_555
Cl13 In1 2.392984 1_555
Cl14 In2 2.392984 1_555
Cl15 In3 2.392984 1_555
