# generated using pymatgen
data_Li6FeSn3(PO4)6
_symmetry_space_group_name_H-M   'P 1'
_cell_length_a   8.61403900
_cell_length_b   8.62006690
_cell_length_c   8.62678927
_cell_angle_alpha   64.33987627
_cell_angle_beta   64.47102275
_cell_angle_gamma   64.19961754
_symmetry_Int_Tables_number   1
_chemical_formula_structural   Li6FeSn3(PO4)6
_chemical_formula_sum   'Li6 Fe1 Sn3 P6 O24'
_cell_volume   496.08805507
_cell_formula_units_Z   1
loop_
 _symmetry_equiv_pos_site_id
 _symmetry_equiv_pos_as_xyz
  1  'x, y, z'
loop_
 _atom_site_type_symbol
 _atom_site_label
 _atom_site_symmetry_multiplicity
 _atom_site_fract_x
 _atom_site_fract_y
 _atom_site_fract_z
 _atom_site_occupancy
  Li  Li0  1  0.98336400  0.02012400  0.01068300  1
  Li  Li1  1  0.25444600  0.62368400  0.84436500  1
  Li  Li2  1  0.52304800  0.47993400  0.47564500  1
  Li  Li3  1  0.78321700  0.31740200  0.13795000  1
  Li  Li4  1  0.31263800  0.13583100  0.78557900  1
  Li  Li5  1  0.13760000  0.78770800  0.31594000  1
  Fe  Fe0  1  0.15866600  0.16214600  0.15983500  1
  Sn  Sn0  1  0.85363600  0.85578900  0.85243100  1
  Sn  Sn1  1  0.63937100  0.64550300  0.63734100  1
  Sn  Sn2  1  0.33567500  0.33600900  0.33997700  1
  P  P0  1  0.92828300  0.58004500  0.25486500  1
  P  P1  1  0.58024900  0.25525600  0.93057100  1
  P  P2  1  0.25165900  0.93424900  0.57379800  1
  P  P3  1  0.75792500  0.03973500  0.44548700  1
  P  P4  1  0.43933400  0.75790000  0.03354100  1
  P  P5  1  0.04385700  0.45071300  0.76042100  1
  O  O0  1  0.87758200  0.51314300  0.69734900  1
  O  O1  1  0.68002400  0.89075000  0.48245300  1
  O  O2  1  0.90136500  0.75968000  0.09498400  1
  O  O3  1  0.45005900  0.68671600  0.88746800  1
  O  O4  1  0.73911700  0.57770200  0.40214100  1
  O  O5  1  0.99370900  0.41188600  0.19522900  1
  O  O6  1  0.76064200  0.09715300  0.89858900  1
  O  O7  1  0.57267700  0.40775400  0.74288900  1
  O  O8  1  0.39502600  0.73846200  0.58251600  1
  O  O9  1  0.83025500  0.98779000  0.60199600  1
  O  O10  1  0.91732800  0.04613000  0.26646400  1
  O  O11  1  0.61526400  0.80586800  0.96371800  1
  O  O12  1  0.40962400  0.20112600  0.99251500  1
  O  O13  1  0.10065100  0.89822700  0.76066100  1
  O  O14  1  0.19455800  0.99177700  0.40739600  1
  O  O15  1  0.61668200  0.23152100  0.42254500  1
  O  O16  1  0.41786000  0.62059300  0.22497700  1
  O  O17  1  0.26955900  0.92860300  0.04110200  1
  O  O18  1  0.03199300  0.60594500  0.81723900  1
  O  O19  1  0.23029500  0.41070200  0.61716700  1
  O  O20  1  0.59652200  0.32183100  0.05980500  1
  O  O21  1  0.03874100  0.27575400  0.92397600  1
  O  O22  1  0.31923100  0.06487100  0.58568800  1
  O  O23  1  0.05826700  0.59298900  0.32370100  1
loop_
_geom_bond_atom_site_label_1
_geom_bond_atom_site_label_2
_geom_bond_distance
_geom_bond_site_symmetry_2
Li0 O10 2.116198 1_555
Li0 O21 2.196046 1_654
Li0 O6 2.234031 1_554
Li0 O17 2.335435 1_645
Li0 O2 2.364660 1_545
Li0 O13 2.436688 1_644
Li1 O8 2.073055 1_555
Li1 O18 2.102996 1_555
Li1 O13 2.119576 1_555
Li1 O3 2.187407 1_555
Li1 O7 2.578113 1_555
Li2 O4 2.112304 1_555
Li2 O15 2.115031 1_555
Li2 O7 2.293618 1_555
Li2 O16 2.330048 1_555
Li2 O8 2.407546 1_555
Li2 O19 2.496276 1_555
Li3 O20 1.975084 1_555
Li3 O10 2.130479 1_555
Li3 O21 2.182911 1_654
Li3 O15 2.224469 1_555
Li3 O5 2.569328 1_555
Li4 O22 2.037120 1_555
Li4 O17 2.156260 1_546
Li4 O19 2.161467 1_555
Li4 O21 2.188349 1_555
Li4 O12 2.601291 1_555
Li5 O23 2.037284 1_555
Li5 O17 2.184830 1_555
Li5 O16 2.199553 1_555
Li5 O10 2.222615 1_465
Li5 O14 2.498904 1_555
Fe0 O14 2.066625 1_545
Fe0 O5 2.068651 1_455
Fe0 O12 2.095785 1_554
Fe0 O17 2.298476 1_545
Fe0 O21 2.317675 1_554
Fe0 O10 2.352198 1_455
O0 P5 1.544125 1_655
O0 Sn1 2.036273 1_555
O1 P3 1.553172 1_565
O1 Sn1 2.042523 1_555
O2 P0 1.570765 1_555
O2 Sn0 2.043875 1_554
O3 P4 1.578920 1_556
O3 Sn1 2.137340 1_555
O4 P0 1.578547 1_555
O4 Sn1 2.069781 1_555
O5 P0 1.538927 1_555
O6 P1 1.568697 1_555
O6 Sn0 2.029983 1_545
O7 P1 1.589600 1_555
O7 Sn1 2.077763 1_555
O8 P2 1.592157 1_555
O8 Sn1 2.087497 1_555
O9 P3 1.539577 1_565
O9 Sn0 2.012302 1_555
O10 P3 1.561387 1_555
O11 P4 1.540580 1_556
O11 Sn0 2.008808 1_555
O12 P1 1.538686 1_555
O13 P2 1.580439 1_555
O13 Sn0 2.064675 1_455
O14 P2 1.525880 1_555
O15 P3 1.557516 1_555
O15 Sn2 2.492112 1_555
O16 P4 1.548188 1_555
O16 Sn2 2.510358 1_555
O17 P4 1.560745 1_555
O18 P5 1.564308 1_555
O18 Sn0 2.091623 1_455
O19 P5 1.549739 1_555
O19 Sn2 2.431127 1_555
O20 P1 1.533223 1_554
O20 Sn2 2.498255 1_555
O21 P5 1.558397 1_555
O22 P2 1.529418 1_545
O22 Sn2 2.390509 1_555
O23 P0 1.535588 1_455
O23 Sn2 2.459473 1_555
