# generated using pymatgen
data_V2ZnO4
_symmetry_space_group_name_H-M   'P 1'
_cell_length_a   5.11461694
_cell_length_b   5.11461694
_cell_length_c   10.05480400
_cell_angle_alpha   90.00000000
_cell_angle_beta   90.00000000
_cell_angle_gamma   146.46039810
_symmetry_Int_Tables_number   1
_chemical_formula_structural   V2ZnO4
_chemical_formula_sum   'V4 Zn2 O8'
_cell_volume   145.32572865
_cell_formula_units_Z   2
loop_
 _symmetry_equiv_pos_site_id
 _symmetry_equiv_pos_as_xyz
  1  'x, y, z'
loop_
 _atom_site_type_symbol
 _atom_site_label
 _atom_site_symmetry_multiplicity
 _atom_site_fract_x
 _atom_site_fract_y
 _atom_site_fract_z
 _atom_site_occupancy
  V  V0  1  0.13245600  0.86754400  0.07189100  1
  V  V1  1  0.86754400  0.13245600  0.92810900  1
  V  V2  1  0.13245600  0.86754400  0.42810900  1
  V  V3  1  0.86754400  0.13245600  0.57189100  1
  Zn  Zn0  1  0.61120500  0.38879500  0.75000000  1
  Zn  Zn1  1  0.38879500  0.61120500  0.25000000  1
  O  O0  1  0.76922700  0.23077300  0.38678800  1
  O  O1  1  0.23077300  0.76922700  0.61321200  1
  O  O2  1  0.23077300  0.76922700  0.88678800  1
  O  O3  1  0.76922700  0.23077300  0.11321200  1
  O  O4  1  0.03317500  0.96682500  0.25000000  1
  O  O5  1  0.96682500  0.03317500  0.75000000  1
  O  O6  1  0.50000000  0.50000000  0.00000000  1
  O  O7  1  0.50000000  0.50000000  0.50000000  1
loop_
_geom_bond_atom_site_label_1
_geom_bond_atom_site_label_2
_geom_bond_distance
_geom_bond_site_symmetry_2
O0 V2 2.035867 1_545
O0 V2 2.035867 1_655
O0 V3 2.095523 1_555
O0 Zn1 2.332548 1_545
O0 Zn1 2.332548 1_655
O1 V3 2.035867 1_455
O1 V3 2.035867 1_565
O1 V2 2.095523 1_555
O1 Zn0 2.332548 1_455
O1 Zn0 2.332548 1_565
O2 V1 2.035867 1_455
O2 V1 2.035867 1_565
O2 V0 2.095523 1_556
O2 Zn0 2.332548 1_455
O2 Zn0 2.332548 1_565
O3 V0 2.035867 1_545
O3 V0 2.035867 1_655
O3 V1 2.095523 1_554
O3 Zn1 2.332548 1_545
O3 Zn1 2.332548 1_655
O4 V2 2.037809 1_555
O4 V0 2.037809 1_555
O4 Zn1 2.043857 1_455
O4 Zn1 2.043857 1_565
O5 V1 2.037809 1_555
O5 V3 2.037809 1_555
O5 Zn0 2.043857 1_545
O5 Zn0 2.043857 1_655
O6 V1 2.093612 1_564
O6 V0 2.093612 1_655
O6 V0 2.093612 1_545
O6 V1 2.093612 1_454
O7 V3 2.093612 1_565
O7 V3 2.093612 1_455
O7 V2 2.093612 1_655
O7 V2 2.093612 1_545
