# generated using pymatgen
data_ZnS2
_symmetry_space_group_name_H-M   'P 1'
_cell_length_a   5.94543046
_cell_length_b   5.94543046
_cell_length_c   5.94543046
_cell_angle_alpha   90.00000000
_cell_angle_beta   90.00000000
_cell_angle_gamma   90.00000000
_symmetry_Int_Tables_number   1
_chemical_formula_structural   ZnS2
_chemical_formula_sum   'Zn4 S8'
_cell_volume   210.15992821
_cell_formula_units_Z   4
loop_
 _symmetry_equiv_pos_site_id
 _symmetry_equiv_pos_as_xyz
  1  'x, y, z'
loop_
 _atom_site_type_symbol
 _atom_site_label
 _atom_site_symmetry_multiplicity
 _atom_site_fract_x
 _atom_site_fract_y
 _atom_site_fract_z
 _atom_site_occupancy
  Zn  Zn0  1  0.50000000  0.50000000  -0.00000000  1
  Zn  Zn1  1  0.50000000  0.00000000  0.50000000  1
  Zn  Zn2  1  -0.00000000  0.50000000  0.50000000  1
  Zn  Zn3  1  -0.00000000  0.00000000  -0.00000000  1
  S  S0  1  0.10024639  0.89975361  0.39975361  1
  S  S1  1  0.89975361  0.39975361  0.10024639  1
  S  S2  1  0.39975361  0.10024639  0.89975361  1
  S  S3  1  0.60024639  0.60024639  0.60024639  1
  S  S4  1  0.89975361  0.10024639  0.60024639  1
  S  S5  1  0.10024639  0.60024639  0.89975361  1
  S  S6  1  0.60024639  0.89975361  0.10024639  1
  S  S7  1  0.39975361  0.39975361  0.39975361  1
loop_
_geom_bond_atom_site_label_1
_geom_bond_atom_site_label_2
_geom_bond_distance
_geom_bond_site_symmetry_2
S0 S4 2.064632 1_465
S0 Zn1 2.521743 1_565
S0 Zn3 2.521743 1_565
S0 Zn2 2.521743 1_555
S1 S5 2.064632 1_654
S1 Zn0 2.521743 1_555
S1 Zn3 2.521743 1_655
S1 Zn2 2.521743 1_655
S2 S6 2.064632 1_546
S2 Zn3 2.521743 1_556
S2 Zn0 2.521743 1_556
S2 Zn1 2.521743 1_555
S3 S7 2.064632 1_555
S3 Zn0 2.521743 1_556
S3 Zn2 2.521743 1_655
S3 Zn1 2.521743 1_565
S4 Zn3 2.521743 1_656
S4 Zn2 2.521743 1_655
S4 Zn1 2.521743 1_555
S5 Zn3 2.521743 1_566
S5 Zn0 2.521743 1_556
S5 Zn2 2.521743 1_555
S6 Zn3 2.521743 1_665
S6 Zn0 2.521743 1_555
S6 Zn1 2.521743 1_565
S7 Zn0 2.521743 1_555
S7 Zn1 2.521743 1_555
S7 Zn2 2.521743 1_555
