# generated using pymatgen
data_Ca2IrPtO6
_symmetry_space_group_name_H-M   'P 1'
_cell_length_a   5.21506594
_cell_length_b   5.21506594
_cell_length_c   7.41421535
_cell_angle_alpha   89.79125224
_cell_angle_beta   89.79125224
_cell_angle_gamma   35.81898056
_symmetry_Int_Tables_number   1
_chemical_formula_structural   Ca2IrPtO6
_chemical_formula_sum   'Ca2 Ir1 Pt1 O6'
_cell_volume   118.00637663
_cell_formula_units_Z   1
loop_
 _symmetry_equiv_pos_site_id
 _symmetry_equiv_pos_as_xyz
  1  'x, y, z'
loop_
 _atom_site_type_symbol
 _atom_site_label
 _atom_site_symmetry_multiplicity
 _atom_site_fract_x
 _atom_site_fract_y
 _atom_site_fract_z
 _atom_site_occupancy
  Ca  Ca0  1  0.74945700  0.74945700  0.25392600  1
  Ca  Ca1  1  0.25054300  0.25054300  0.74607400  1
  Ir  Ir0  1  0.00000000  0.00000000  0.50000000  1
  Pt  Pt0  1  0.00000000  0.00000000  0.00000000  1
  O  O0  1  0.37056600  0.37056600  0.04475400  1
  O  O1  1  0.62943400  0.62943400  0.95524600  1
  O  O2  1  0.37548000  0.37548000  0.44967600  1
  O  O3  1  0.62452000  0.62452000  0.55032400  1
  O  O4  1  0.08135500  0.08135500  0.25323900  1
  O  O5  1  0.91864500  0.91864500  0.74676100  1
loop_
_geom_bond_atom_site_label_1
_geom_bond_atom_site_label_2
_geom_bond_distance
_geom_bond_site_symmetry_2
Ca0 O4 2.314176 1_655
Ca0 O4 2.314176 1_565
Ca0 O2 2.501300 1_565
Ca0 O2 2.501300 1_655
Ca0 O1 2.518543 1_554
Ca0 O3 2.519109 1_555
Ca0 O0 2.531297 1_655
Ca0 O0 2.531297 1_565
Ca1 O5 2.314176 1_545
Ca1 O5 2.314176 1_455
Ca1 O3 2.501300 1_545
Ca1 O3 2.501300 1_455
Ca1 O0 2.518543 1_556
Ca1 O2 2.519109 1_555
Ca1 O1 2.531297 1_455
Ca1 O1 2.531297 1_545
Ir0 O5 1.996957 1_445
Ir0 O4 1.996957 1_555
Ir0 O3 2.059584 1_545
Ir0 O2 2.059584 1_455
Ir0 O3 2.059584 1_455
Ir0 O2 2.059584 1_545
O0 Pt0 2.080601 1_565
O0 Pt0 2.080601 1_655
O1 Pt0 2.080601 1_656
O1 Pt0 2.080601 1_566
O4 Pt0 2.046658 1_555
O5 Pt0 2.046658 1_666
