# generated using pymatgen
data_Nd2MnFe3Si4
_symmetry_space_group_name_H-M   'P 1'
_cell_length_a   3.99610500
_cell_length_b   3.99610500
_cell_length_c   10.00459000
_cell_angle_alpha   90.00000000
_cell_angle_beta   90.00000000
_cell_angle_gamma   90.00000000
_symmetry_Int_Tables_number   1
_chemical_formula_structural   Nd2MnFe3Si4
_chemical_formula_sum   'Nd2 Mn1 Fe3 Si4'
_cell_volume   159.76184876
_cell_formula_units_Z   1
loop_
 _symmetry_equiv_pos_site_id
 _symmetry_equiv_pos_as_xyz
  1  'x, y, z'
loop_
 _atom_site_type_symbol
 _atom_site_label
 _atom_site_symmetry_multiplicity
 _atom_site_fract_x
 _atom_site_fract_y
 _atom_site_fract_z
 _atom_site_occupancy
  Nd  Nd0  1  0.00000000  0.00000000  0.99408400  1
  Nd  Nd1  1  0.50000000  0.50000000  0.50591600  1
  Mn  Mn0  1  0.00000000  0.50000000  0.25000000  1
  Fe  Fe0  1  0.50000000  0.00000000  0.75000000  1
  Fe  Fe1  1  0.50000000  0.00000000  0.25000000  1
  Fe  Fe2  1  0.00000000  0.50000000  0.75000000  1
  Si  Si0  1  0.50000000  0.50000000  0.12534000  1
  Si  Si1  1  0.00000000  0.00000000  0.64049200  1
  Si  Si2  1  0.00000000  0.00000000  0.37466000  1
  Si  Si3  1  0.50000000  0.50000000  0.85950800  1
loop_
_geom_bond_atom_site_label_1
_geom_bond_atom_site_label_2
_geom_bond_distance
_geom_bond_site_symmetry_2
Nd0 Si0 3.115898 1_456
Nd0 Si0 3.115898 1_546
Nd0 Si0 3.115898 1_556
Nd0 Si0 3.115898 1_446
Nd0 Si3 3.130042 1_545
Nd0 Si3 3.130042 1_445
Nd0 Si3 3.130042 1_555
Nd0 Si3 3.130042 1_455
Nd1 Si2 3.115898 1_555
Nd1 Si2 3.115898 1_655
Nd1 Si2 3.115898 1_565
Nd1 Si2 3.115898 1_665
Nd1 Si1 3.130042 1_555
Nd1 Si1 3.130042 1_655
Nd1 Si1 3.130042 1_665
Nd1 Si1 3.130042 1_565
Mn0 Si0 2.355345 1_555
Mn0 Si0 2.355345 1_455
Mn0 Si2 2.355345 1_565
Mn0 Si2 2.355345 1_555
Mn0 Nd0 3.247696 1_564
Mn0 Nd0 3.247696 1_554
Mn0 Nd1 3.247696 1_455
Mn0 Nd1 3.247696 1_555
Fe0 Si3 2.278709 1_545
Fe0 Si3 2.278709 1_555
Fe0 Si1 2.278709 1_655
Fe0 Si1 2.278709 1_555
Fe0 Nd0 3.155215 1_655
Fe0 Nd1 3.155215 1_555
Fe0 Nd1 3.155215 1_545
Fe0 Nd0 3.155215 1_555
Fe1 Si0 2.355345 1_555
Fe1 Si0 2.355345 1_545
Fe1 Si2 2.355345 1_655
Fe1 Si2 2.355345 1_555
Fe1 Mn0 2.825673 1_655
Fe1 Mn0 2.825673 1_545
Fe1 Mn0 2.825673 1_645
Fe1 Mn0 2.825673 1_555
Fe1 Nd0 3.247696 1_554
Fe1 Nd0 3.247696 1_654
Fe1 Nd1 3.247696 1_555
Fe1 Nd1 3.247696 1_545
Fe2 Si3 2.278709 1_455
Fe2 Si3 2.278709 1_555
Fe2 Si1 2.278709 1_565
Fe2 Si1 2.278709 1_555
Fe2 Nd1 3.155215 1_555
Fe2 Nd1 3.155215 1_455
Fe2 Nd0 3.155215 1_565
Fe2 Nd0 3.155215 1_555
Si0 Si3 2.659540 1_554
Si1 Si2 2.659540 1_555
