# generated using pymatgen
data_TlTcO2
_symmetry_space_group_name_H-M   'P 1'
_cell_length_a   7.95130845
_cell_length_b   7.95130845
_cell_length_c   7.95130845
_cell_angle_alpha   130.75380770
_cell_angle_beta   130.75380770
_cell_angle_gamma   72.20451992
_symmetry_Int_Tables_number   1
_chemical_formula_structural   TlTcO2
_chemical_formula_sum   'Tl4 Tc4 O8'
_cell_volume   282.03715039
_cell_formula_units_Z   4
loop_
 _symmetry_equiv_pos_site_id
 _symmetry_equiv_pos_as_xyz
  1  'x, y, z'
loop_
 _atom_site_type_symbol
 _atom_site_label
 _atom_site_symmetry_multiplicity
 _atom_site_fract_x
 _atom_site_fract_y
 _atom_site_fract_z
 _atom_site_occupancy
  Tl  Tl0  1  0.87500000  0.62500000  0.25000000  1
  Tl  Tl1  1  0.37500000  0.62500000  0.75000000  1
  Tl  Tl2  1  0.37500000  0.62500000  0.25000000  1
  Tl  Tl3  1  0.37500000  0.12500000  0.75000000  1
  Tc  Tc0  1  0.37500000  0.12500000  0.25000000  1
  Tc  Tc1  1  0.87500000  0.12500000  0.75000000  1
  Tc  Tc2  1  0.87500000  0.12500000  0.25000000  1
  Tc  Tc3  1  0.87500000  0.62500000  0.75000000  1
  O  O0  1  0.14157300  0.32558700  0.18401400  1
  O  O1  1  0.14157300  0.95755800  0.81598600  1
  O  O2  1  0.07558700  0.39157300  0.68401400  1
  O  O3  1  0.60842700  0.92441300  0.31598600  1
  O  O4  1  0.70755800  0.39157300  0.31598600  1
  O  O5  1  0.60842700  0.29244200  0.68401400  1
  O  O6  1  0.67441300  0.85842700  0.81598600  1
  O  O7  1  0.04244200  0.85842700  0.18401400  1
loop_
_geom_bond_atom_site_label_1
_geom_bond_atom_site_label_2
_geom_bond_distance
_geom_bond_site_symmetry_2
O0 Tc0 2.067775 1_555
O0 Tc1 2.067775 1_454
O0 Tl1 2.678161 1_555
O0 Tl0 2.678161 1_455
O1 Tc0 2.067774 1_566
O1 Tc1 2.067779 1_465
O1 Tl1 2.678156 1_555
O1 Tl0 2.678160 1_455
O2 Tc3 2.067775 1_455
O2 Tc2 2.067775 1_455
O2 Tl3 2.678161 1_555
O2 Tl2 2.678161 1_556
O3 Tc1 2.067775 1_565
O3 Tc0 2.067775 1_565
O3 Tl0 2.678161 1_555
O3 Tl1 2.678161 1_554
O4 Tc3 2.067774 1_555
O4 Tc2 2.067779 1_555
O4 Tl2 2.678156 1_555
O4 Tl3 2.678160 1_554
O5 Tc0 2.067774 1_555
O5 Tc1 2.067779 1_555
O5 Tl1 2.678156 1_555
O5 Tl0 2.678160 1_556
O6 Tc3 2.067775 1_555
O6 Tc2 2.067775 1_566
O6 Tl2 2.678161 1_555
O6 Tl3 2.678161 1_565
O7 Tc3 2.067774 1_454
O7 Tc2 2.067779 1_465
O7 Tl2 2.678156 1_555
O7 Tl3 2.678160 1_565
