# generated using pymatgen
data_YMgTiS4
_symmetry_space_group_name_H-M   'P 1'
_cell_length_a   7.77095191
_cell_length_b   7.61805506
_cell_length_c   7.62326098
_cell_angle_alpha   58.64585132
_cell_angle_beta   59.35434415
_cell_angle_gamma   59.33748486
_symmetry_Int_Tables_number   1
_chemical_formula_structural   YMgTiS4
_chemical_formula_sum   'Y2 Mg2 Ti2 S8'
_cell_volume   312.62537723
_cell_formula_units_Z   2
loop_
 _symmetry_equiv_pos_site_id
 _symmetry_equiv_pos_as_xyz
  1  'x, y, z'
loop_
 _atom_site_type_symbol
 _atom_site_label
 _atom_site_symmetry_multiplicity
 _atom_site_fract_x
 _atom_site_fract_y
 _atom_site_fract_z
 _atom_site_occupancy
  Y  Y0  1  0.50000200  0.50001500  0.49998000  1
  Y  Y1  1  0.99999900  0.49999300  0.50001100  1
  Mg  Mg0  1  0.87708800  0.87284800  0.87297200  1
  Mg  Mg1  1  0.12291300  0.12715900  0.12703100  1
  Ti  Ti0  1  0.50000000  0.49999500  0.99999900  1
  Ti  Ti1  1  0.50000000  0.99999600  0.50000500  1
  S  S0  1  0.72042500  0.75340200  0.75340800  1
  S  S1  1  0.26816300  0.23229700  0.73149900  1
  S  S2  1  0.26802800  0.73149000  0.23234700  1
  S  S3  1  0.72721900  0.24652900  0.24665300  1
  S  S4  1  0.73195800  0.26851000  0.76764300  1
  S  S5  1  0.27278400  0.75346600  0.75334300  1
  S  S6  1  0.27957200  0.24658800  0.24660800  1
  S  S7  1  0.73185400  0.76770900  0.26850100  1
loop_
_geom_bond_atom_site_label_1
_geom_bond_atom_site_label_2
_geom_bond_distance
_geom_bond_site_symmetry_2
Mg0 S4 2.437055 1_565
Mg0 S7 2.438526 1_556
Mg0 S0 2.503022 1_555
Mg0 S5 2.503197 1_655
Mg1 S2 2.437107 1_545
Mg1 S1 2.438546 1_554
Mg1 S6 2.502971 1_555
Mg1 S3 2.503195 1_455
S0 Ti0 2.551109 1_555
S0 Ti1 2.551384 1_555
S0 Y1 2.739127 1_555
S1 Ti1 2.499745 1_545
S1 Y0 2.698248 1_555
S1 Y1 2.699058 1_455
S2 Ti0 2.500009 1_554
S2 Y1 2.698328 1_455
S2 Y0 2.699047 1_555
S3 Ti1 2.550726 1_545
S3 Ti0 2.551584 1_554
S3 Y0 2.739171 1_555
S4 Ti0 2.499999 1_555
S4 Y1 2.698320 1_555
S4 Y0 2.699101 1_555
S5 Ti1 2.550692 1_555
S5 Ti0 2.551579 1_555
S5 Y0 2.739176 1_555
S6 Ti0 2.551125 1_554
S6 Ti1 2.551367 1_545
S6 Y1 2.739137 1_455
S7 Ti1 2.499723 1_555
S7 Y0 2.698207 1_555
S7 Y1 2.699065 1_555
