# generated using pymatgen
data_Mg14AlVO16
_symmetry_space_group_name_H-M   'P 1'
_cell_length_a   8.57484200
_cell_length_b   8.57484200
_cell_length_c   4.30829100
_cell_angle_alpha   90.00000000
_cell_angle_beta   90.00000000
_cell_angle_gamma   90.00000000
_symmetry_Int_Tables_number   1
_chemical_formula_structural   Mg14AlVO16
_chemical_formula_sum   'Mg14 Al1 V1 O16'
_cell_volume   316.77965584
_cell_formula_units_Z   1
loop_
 _symmetry_equiv_pos_site_id
 _symmetry_equiv_pos_as_xyz
  1  'x, y, z'
loop_
 _atom_site_type_symbol
 _atom_site_label
 _atom_site_symmetry_multiplicity
 _atom_site_fract_x
 _atom_site_fract_y
 _atom_site_fract_z
 _atom_site_occupancy
  Mg  Mg0  1  0.50000000  0.00000000  0.00000000  1
  Mg  Mg1  1  0.00000000  0.50000000  0.00000000  1
  Mg  Mg2  1  0.25035100  0.00000000  0.50000000  1
  Mg  Mg3  1  0.74964900  0.00000000  0.50000000  1
  Mg  Mg4  1  0.24968900  0.50000000  0.50000000  1
  Mg  Mg5  1  0.75031100  0.50000000  0.50000000  1
  Mg  Mg6  1  0.00000000  0.25035100  0.50000000  1
  Mg  Mg7  1  0.50000000  0.24968900  0.50000000  1
  Mg  Mg8  1  0.00000000  0.74964900  0.50000000  1
  Mg  Mg9  1  0.50000000  0.75031100  0.50000000  1
  Mg  Mg10  1  0.25070000  0.25070000  0.00000000  1
  Mg  Mg11  1  0.74930000  0.25070000  0.00000000  1
  Mg  Mg12  1  0.25070000  0.74930000  0.00000000  1
  Mg  Mg13  1  0.74930000  0.74930000  0.00000000  1
  Al  Al0  1  0.00000000  0.00000000  0.00000000  1
  V  V0  1  0.50000000  0.50000000  0.00000000  1
  O  O0  1  0.00000000  0.23170800  0.00000000  1
  O  O1  1  0.50000000  0.24263200  0.00000000  1
  O  O2  1  0.00000000  0.76829200  0.00000000  1
  O  O3  1  0.50000000  0.75736800  0.00000000  1
  O  O4  1  0.25009700  0.25009700  0.50000000  1
  O  O5  1  0.74990300  0.25009700  0.50000000  1
  O  O6  1  0.25009700  0.74990300  0.50000000  1
  O  O7  1  0.74990300  0.74990300  0.50000000  1
  O  O8  1  0.00000000  0.00000000  0.50000000  1
  O  O9  1  0.50000000  0.00000000  0.50000000  1
  O  O10  1  0.00000000  0.50000000  0.50000000  1
  O  O11  1  0.50000000  0.50000000  0.50000000  1
  O  O12  1  0.23170800  0.00000000  0.00000000  1
  O  O13  1  0.76829200  0.00000000  0.00000000  1
  O  O14  1  0.24263200  0.50000000  0.00000000  1
  O  O15  1  0.75736800  0.50000000  0.00000000  1
loop_
_geom_bond_atom_site_label_1
_geom_bond_atom_site_label_2
_geom_bond_distance
_geom_bond_site_symmetry_2
Mg0 O3 2.080531 1_545
Mg0 O1 2.080531 1_555
Mg0 O9 2.154145 1_554
Mg0 O9 2.154145 1_555
Mg0 O12 2.300562 1_555
Mg0 O13 2.300562 1_555
Mg1 O15 2.080531 1_455
Mg1 O14 2.080531 1_555
Mg1 O10 2.154145 1_555
Mg1 O10 2.154145 1_554
Mg1 O0 2.300562 1_555
Mg1 O2 2.300562 1_555
Mg2 O9 2.140701 1_555
Mg2 O4 2.144543 1_555
Mg2 O6 2.144543 1_545
Mg2 O8 2.146720 1_555
Mg2 O12 2.160069 1_555
Mg2 O12 2.160069 1_556
Mg3 O9 2.140701 1_555
Mg3 O5 2.144543 1_555
Mg3 O7 2.144543 1_545
Mg3 O8 2.146720 1_655
Mg3 O13 2.160069 1_555
Mg3 O13 2.160069 1_556
Mg4 O10 2.141044 1_555
Mg4 O6 2.142882 1_555
Mg4 O4 2.142882 1_555
Mg4 O11 2.146377 1_555
Mg4 O14 2.154995 1_556
Mg4 O14 2.154995 1_555
Mg5 O10 2.141044 1_655
Mg5 O7 2.142882 1_555
Mg5 O5 2.142882 1_555
Mg5 O11 2.146377 1_555
Mg5 O15 2.154995 1_555
Mg5 O15 2.154995 1_556
Mg6 O10 2.140701 1_555
Mg6 O4 2.144543 1_555
Mg6 O5 2.144543 1_455
Mg6 O8 2.146720 1_555
Mg6 O0 2.160069 1_555
Mg6 O0 2.160069 1_556
Mg7 O9 2.141044 1_555
Mg7 O5 2.142882 1_555
Mg7 O4 2.142882 1_555
Mg7 O11 2.146377 1_555
Mg7 O1 2.154995 1_556
Mg7 O1 2.154995 1_555
Mg8 O10 2.140701 1_555
Mg8 O6 2.144543 1_555
Mg8 O7 2.144543 1_455
Mg8 O8 2.146720 1_565
Mg8 O2 2.160069 1_556
Mg8 O2 2.160069 1_555
Mg9 O9 2.141044 1_565
Mg9 O7 2.142882 1_555
Mg9 O6 2.142882 1_555
Mg9 O11 2.146377 1_555
Mg9 O3 2.154995 1_556
Mg9 O3 2.154995 1_555
Mg10 O1 2.138827 1_555
Mg10 O14 2.138827 1_555
Mg10 O4 2.154158 1_554
Mg10 O4 2.154158 1_555
Mg10 O12 2.155873 1_555
Mg10 O0 2.155873 1_555
Mg11 O1 2.138827 1_555
Mg11 O15 2.138827 1_555
Mg11 O5 2.154158 1_555
Mg11 O5 2.154158 1_554
Mg11 O13 2.155873 1_555
Mg11 O0 2.155873 1_655
Mg12 O14 2.138827 1_555
Mg12 O3 2.138827 1_555
Mg12 O6 2.154158 1_555
Mg12 O6 2.154158 1_554
Mg12 O2 2.155873 1_555
Mg12 O12 2.155873 1_565
Mg13 O15 2.138827 1_555
Mg13 O3 2.138827 1_555
Mg13 O7 2.154158 1_555
Mg13 O7 2.154158 1_554
Mg13 O13 2.155873 1_565
Mg13 O2 2.155873 1_655
Al0 O0 1.986859 1_555
Al0 O12 1.986859 1_555
Al0 O13 1.986859 1_455
Al0 O2 1.986859 1_545
Al0 O8 2.154145 1_554
Al0 O8 2.154145 1_555
O1 V0 2.206890 1_555
O3 V0 2.206890 1_555
O11 V0 2.154145 1_555
O11 V0 2.154145 1_556
O14 V0 2.206890 1_555
O15 V0 2.206890 1_555
