# generated using pymatgen
data_Sr2CoWO6
_symmetry_space_group_name_H-M   'P 1'
_cell_length_a   5.67976600
_cell_length_b   5.72271900
_cell_length_c   9.83455556
_cell_angle_alpha   54.34191775
_cell_angle_beta   90.00000000
_cell_angle_gamma   90.00000000
_symmetry_Int_Tables_number   1
_chemical_formula_structural   Sr2CoWO6
_chemical_formula_sum   'Sr4 Co2 W2 O12'
_cell_volume   259.72660639
_cell_formula_units_Z   2
loop_
 _symmetry_equiv_pos_site_id
 _symmetry_equiv_pos_as_xyz
  1  'x, y, z'
loop_
 _atom_site_type_symbol
 _atom_site_label
 _atom_site_symmetry_multiplicity
 _atom_site_fract_x
 _atom_site_fract_y
 _atom_site_fract_z
 _atom_site_occupancy
  Sr  Sr0  1  0.01277200  0.25323500  0.24893500  1
  Sr  Sr1  1  0.48722800  0.25323500  0.74893500  1
  Sr  Sr2  1  0.98722800  0.74676500  0.75106500  1
  Sr  Sr3  1  0.51277200  0.74676500  0.25106500  1
  Co  Co0  1  0.50000000  0.50000000  0.00000000  1
  Co  Co1  1  0.00000000  0.50000000  0.50000000  1
  W  W0  1  0.50000000  0.00000000  0.50000000  1
  W  W1  1  0.00000000  0.00000000  0.00000000  1
  O  O0  1  0.49239900  0.18805000  0.25848000  1
  O  O1  1  0.00760100  0.18805000  0.75848000  1
  O  O2  1  0.50760100  0.81195000  0.74152000  1
  O  O3  1  0.99239900  0.81195000  0.24152000  1
  O  O4  1  0.76053200  0.24846500  0.47108300  1
  O  O5  1  0.73946800  0.24846500  0.97108300  1
  O  O6  1  0.23946800  0.75153500  0.52891700  1
  O  O7  1  0.26053200  0.75153500  0.02891700  1
  O  O8  1  0.72137000  0.71437400  0.52690600  1
  O  O9  1  0.77863000  0.71437400  0.02690600  1
  O  O10  1  0.27863000  0.28562600  0.47309400  1
  O  O11  1  0.22137000  0.28562600  0.97309400  1
loop_
_geom_bond_atom_site_label_1
_geom_bond_atom_site_label_2
_geom_bond_distance
_geom_bond_site_symmetry_2
Co0 O0 2.088031 1_555
Co0 O2 2.088031 1_554
Co0 O11 2.111400 1_554
Co0 O9 2.111400 1_555
Co0 O5 2.116634 1_554
Co0 O7 2.116634 1_555
Co1 O3 2.088031 1_455
Co1 O1 2.088031 1_555
Co1 O8 2.111400 1_455
Co1 O10 2.111400 1_555
Co1 O6 2.116634 1_555
Co1 O4 2.116634 1_455
O0 W0 1.954884 1_555
O0 Sr3 2.571149 1_545
O0 Sr0 2.743764 1_555
O0 Sr0 2.973667 1_655
O0 Sr3 3.157536 1_555
O1 W1 1.954884 1_556
O1 Sr2 2.571149 1_445
O1 Sr1 2.743764 1_555
O1 Sr1 2.973667 1_455
O1 Sr2 3.157536 1_455
O2 W0 1.954884 1_565
O2 Sr1 2.571149 1_565
O2 Sr2 2.743764 1_555
O2 Sr2 2.973667 1_455
O2 Sr1 3.157536 1_555
O3 W1 1.954884 1_665
O3 Sr0 2.571149 1_665
O3 Sr3 2.743764 1_555
O3 Sr3 2.973667 1_655
O3 Sr0 3.157536 1_655
O4 W0 1.954714 1_555
O4 Sr0 2.599379 1_655
O4 Sr3 2.756826 1_555
O4 Sr2 2.875021 1_545
O4 Sr1 3.156610 1_555
O5 W1 1.954714 1_656
O5 Sr1 2.599379 1_555
O5 Sr2 2.756826 1_555
O5 Sr3 2.875021 1_546
O5 Sr0 3.156610 1_656
O6 W0 1.954714 1_565
O6 Sr2 2.599379 1_455
O6 Sr1 2.756826 1_555
O6 Sr0 2.875021 1_565
O6 Sr3 3.156610 1_555
O7 W1 1.954714 1_565
O7 Sr3 2.599379 1_555
O7 Sr0 2.756826 1_555
O7 Sr1 2.875021 1_564
O7 Sr2 3.156610 1_454
O8 W0 1.954074 1_565
O8 Sr1 2.604297 1_555
O8 Sr2 2.766001 1_555
O8 Sr3 2.865476 1_555
O8 Sr0 3.145389 1_665
O9 W1 1.954074 1_665
O9 Sr0 2.604297 1_655
O9 Sr3 2.766001 1_555
O9 Sr2 2.865476 1_554
O9 Sr1 3.145389 1_564
O10 W0 1.954074 1_555
O10 Sr3 2.604297 1_555
O10 Sr0 2.766001 1_555
O10 Sr1 2.865476 1_555
O10 Sr2 3.145389 1_445
O11 W1 1.954074 1_556
O11 Sr2 2.604297 1_455
O11 Sr1 2.766001 1_555
O11 Sr0 2.865476 1_556
O11 Sr3 3.145389 1_546
