# generated using pymatgen
data_CdP2H10(NO4)2
_symmetry_space_group_name_H-M   'P 1'
_cell_length_a   6.54315300
_cell_length_b   10.77889000
_cell_length_c   13.36534644
_cell_angle_alpha   90.00000000
_cell_angle_beta   103.10605537
_cell_angle_gamma   90.00000000
_symmetry_Int_Tables_number   1
_chemical_formula_structural   CdP2H10(NO4)2
_chemical_formula_sum   'Cd4 P8 H40 N8 O32'
_cell_volume   918.07654722
_cell_formula_units_Z   4
loop_
 _symmetry_equiv_pos_site_id
 _symmetry_equiv_pos_as_xyz
  1  'x, y, z'
loop_
 _atom_site_type_symbol
 _atom_site_label
 _atom_site_symmetry_multiplicity
 _atom_site_fract_x
 _atom_site_fract_y
 _atom_site_fract_z
 _atom_site_occupancy
  Cd  Cd0  1  0.04122900  0.18726500  0.64977200  1
  Cd  Cd1  1  0.95877100  0.68726500  0.85022800  1
  Cd  Cd2  1  0.95877100  0.81273500  0.35022800  1
  Cd  Cd3  1  0.04122900  0.31273500  0.14977200  1
  P  P0  1  0.26393700  0.47194700  0.60490600  1
  P  P1  1  0.73606300  0.97194700  0.89509400  1
  P  P2  1  0.73606300  0.52805300  0.39509400  1
  P  P3  1  0.26393700  0.02805300  0.10490600  1
  P  P4  1  0.04622900  0.18445100  0.91816700  1
  P  P5  1  0.95377100  0.68445100  0.58183300  1
  P  P6  1  0.95377100  0.81554900  0.08183300  1
  P  P7  1  0.04622900  0.31554900  0.41816700  1
  H  H0  1  0.30553100  0.04286700  0.93766400  1
  H  H1  1  0.69446900  0.54286700  0.56233600  1
  H  H2  1  0.69446900  0.95713300  0.06233600  1
  H  H3  1  0.30553100  0.45713300  0.43766400  1
  H  H4  1  0.30902700  0.81221200  0.11059600  1
  H  H5  1  0.69097300  0.31221200  0.38940400  1
  H  H6  1  0.69097300  0.18778800  0.88940400  1
  H  H7  1  0.30902700  0.68778800  0.61059600  1
  H  H8  1  0.48191400  0.13354300  0.65648900  1
  H  H9  1  0.51808600  0.63354400  0.84351100  1
  H  H10  1  0.51808600  0.86645600  0.34351100  1
  H  H11  1  0.48191400  0.36645700  0.15648900  1
  H  H12  1  0.41367500  0.04522500  0.73934600  1
  H  H13  1  0.58632500  0.54522500  0.76065400  1
  H  H14  1  0.58632500  0.95477500  0.26065400  1
  H  H15  1  0.41367500  0.45477500  0.23934600  1
  H  H16  1  0.62136000  0.32409300  0.62828100  1
  H  H17  1  0.37864000  0.82409300  0.87171900  1
  H  H18  1  0.37864000  0.67590700  0.37171900  1
  H  H19  1  0.62136000  0.17590700  0.12828100  1
  H  H20  1  0.61698800  0.22044500  0.54176000  1
  H  H21  1  0.38301200  0.72044500  0.95824000  1
  H  H22  1  0.38301200  0.77955500  0.45824000  1
  H  H23  1  0.61698800  0.27955500  0.04176000  1
  H  H24  1  0.06744300  0.42917800  0.89949300  1
  H  H25  1  0.93255700  0.92917800  0.60050700  1
  H  H26  1  0.93255700  0.57082200  0.10050700  1
  H  H27  1  0.06744300  0.07082200  0.39949300  1
  H  H28  1  0.10023800  0.45610300  0.78655000  1
  H  H29  1  0.89976200  0.95610300  0.71345000  1
  H  H30  1  0.89976200  0.54389700  0.21345000  1
  H  H31  1  0.10023800  0.04389700  0.28655000  1
  H  H32  1  0.39001800  0.30953500  0.87221100  1
  H  H33  1  0.60998200  0.80953500  0.62778900  1
  H  H34  1  0.60998200  0.69046500  0.12778900  1
  H  H35  1  0.39001800  0.19046500  0.37221100  1
  H  H36  1  0.57296800  0.40943300  0.89183300  1
  H  H37  1  0.42703200  0.90943300  0.60816700  1
  H  H38  1  0.42703200  0.59056700  0.10816700  1
  H  H39  1  0.57296800  0.09056700  0.39183300  1
  N  N0  1  0.21221100  0.07944500  0.98285400  1
  N  N1  1  0.78778900  0.57944500  0.51714600  1
  N  N2  1  0.78778900  0.92055500  0.01714600  1
  N  N3  1  0.21221100  0.42055500  0.48285400  1
  N  N4  1  0.19332800  0.87906700  0.10620800  1
  N  N5  1  0.80667200  0.37906700  0.39379200  1
  N  N6  1  0.80667200  0.12093300  0.89379200  1
  N  N7  1  0.19332800  0.62093300  0.60620800  1
  O  O0  1  0.13057400  0.39688300  0.66234100  1
  O  O1  1  0.86942600  0.89688300  0.83765900  1
  O  O2  1  0.86942600  0.60311700  0.33765900  1
  O  O3  1  0.13057400  0.10311700  0.16234100  1
  O  O4  1  0.50218800  0.47088300  0.64278600  1
  O  O5  1  0.49781200  0.97088300  0.85721400  1
  O  O6  1  0.49781200  0.52911700  0.35721400  1
  O  O7  1  0.50218800  0.02911700  0.14278600  1
  O  O8  1  0.03309200  0.30253500  0.97932900  1
  O  O9  1  0.96690800  0.80253500  0.52067100  1
  O  O10  1  0.96690800  0.69746500  0.02067100  1
  O  O11  1  0.03309200  0.19746500  0.47932900  1
  O  O12  1  0.12602300  0.20940100  0.82186500  1
  O  O13  1  0.87397700  0.70940100  0.67813500  1
  O  O14  1  0.87397700  0.79059900  0.17813500  1
  O  O15  1  0.12602300  0.29059900  0.32186500  1
  O  O16  1  0.36861500  0.07703800  0.66743900  1
  O  O17  1  0.63138500  0.57703800  0.83256100  1
  O  O18  1  0.63138500  0.92296200  0.33256100  1
  O  O19  1  0.36861500  0.42296200  0.16743900  1
  O  O20  1  0.66716100  0.23807300  0.61658400  1
  O  O21  1  0.33283900  0.73807300  0.88341600  1
  O  O22  1  0.33283900  0.76192700  0.38341600  1
  O  O23  1  0.66716100  0.26192700  0.11658400  1
  O  O24  1  0.10606700  0.49436500  0.85444700  1
  O  O25  1  0.89393300  0.99436500  0.64555300  1
  O  O26  1  0.89393300  0.50563500  0.14555300  1
  O  O27  1  0.10606700  0.00563500  0.35444700  1
  O  O28  1  0.53631400  0.32402300  0.90844300  1
  O  O29  1  0.46368600  0.82402300  0.59155700  1
  O  O30  1  0.46368600  0.67597700  0.09155700  1
  O  O31  1  0.53631400  0.17597700  0.40844300  1
loop_
_geom_bond_atom_site_label_1
_geom_bond_atom_site_label_2
_geom_bond_distance
_geom_bond_site_symmetry_2
Cd0 O12 2.253087 1_555
Cd0 O11 2.269215 1_555
Cd0 O25 2.287067 1_445
Cd0 O0 2.330354 1_555
Cd0 O16 2.413867 1_555
Cd0 O20 2.448466 1_455
Cd1 O13 2.253087 1_555
Cd1 O10 2.269215 1_556
Cd1 O24 2.287067 1_655
Cd1 O1 2.330354 1_555
Cd1 O17 2.413867 1_555
Cd1 O21 2.448466 1_655
Cd2 O14 2.253087 1_555
Cd2 O9 2.269215 1_555
Cd2 O27 2.287067 1_665
Cd2 O2 2.330354 1_555
Cd2 O18 2.413867 1_555
Cd2 O22 2.448466 1_655
Cd3 O15 2.253087 1_555
Cd3 O8 2.269215 1_554
Cd3 O26 2.287067 1_455
Cd3 O3 2.330354 1_555
Cd3 O19 2.413867 1_555
Cd3 O23 2.448466 1_455
H0 N0 1.029725 1_555
H1 N1 1.029725 1_555
H2 N2 1.029725 1_555
H3 N3 1.029725 1_555
H4 N4 1.037162 1_555
H5 N5 1.037162 1_555
H6 N6 1.037162 1_555
H7 N7 1.037162 1_555
H8 O16 0.995566 1_555
H9 O17 0.995572 1_555
H10 O18 0.995572 1_555
H11 O19 0.995566 1_555
H12 O16 0.999825 1_555
H13 O17 0.999825 1_555
H14 O18 0.999825 1_555
H15 O19 0.999825 1_555
H16 O20 0.997596 1_555
H17 O21 0.997596 1_555
H18 O22 0.997596 1_555
H19 O23 0.997596 1_555
H20 O20 0.997540 1_555
H21 O21 0.997540 1_555
H22 O22 0.997540 1_555
H23 O23 0.997540 1_555
H24 O24 0.994510 1_555
H25 O25 0.994510 1_555
H26 O26 0.994510 1_555
H27 O27 0.994510 1_555
H28 O24 0.989619 1_555
H29 O25 0.989619 1_555
H30 O26 0.989619 1_555
H31 O27 0.989619 1_555
H32 O28 0.982329 1_555
H33 O29 0.982329 1_555
H34 O30 0.982329 1_555
H35 O31 0.982329 1_555
H36 O28 0.989191 1_555
H37 O29 0.989191 1_555
H38 O30 0.989191 1_555
H39 O31 0.989191 1_555
N0 P4 1.667999 1_555
N0 P3 1.682872 1_556
N1 P5 1.667999 1_555
N1 P2 1.682872 1_555
N2 P6 1.667999 1_555
N2 P1 1.682872 1_554
N3 P7 1.667999 1_555
N3 P0 1.682872 1_555
N4 P3 1.672221 1_565
N4 P6 1.673387 1_455
N5 P2 1.672221 1_555
N5 P7 1.673387 1_655
N6 P1 1.672221 1_545
N6 P4 1.673387 1_655
N7 P0 1.672221 1_555
N7 P5 1.673387 1_455
O0 P0 1.519593 1_555
O1 P1 1.519593 1_555
O2 P2 1.519593 1_555
O3 P3 1.519593 1_555
O4 P0 1.526018 1_555
O5 P1 1.526018 1_555
O6 P2 1.526018 1_555
O7 P3 1.526018 1_555
O8 P4 1.525627 1_555
O9 P5 1.525627 1_555
O10 P6 1.525627 1_555
O11 P7 1.525627 1_555
O12 P4 1.518660 1_555
O13 P5 1.518660 1_555
O14 P6 1.518660 1_555
O15 P7 1.518660 1_555
