# generated using pymatgen
data_BaUTe6
_symmetry_space_group_name_H-M   'P 1'
_cell_length_a   15.33224975
_cell_length_b   8.23199829
_cell_length_c   9.05517396
_cell_angle_alpha   88.08110300
_cell_angle_beta   90.00000000
_cell_angle_gamma   90.00000000
_symmetry_Int_Tables_number   1
_chemical_formula_structural   BaUTe6
_chemical_formula_sum   'Ba4 U4 Te24'
_cell_volume   1142.25836005
_cell_formula_units_Z   4
loop_
 _symmetry_equiv_pos_site_id
 _symmetry_equiv_pos_as_xyz
  1  'x, y, z'
loop_
 _atom_site_type_symbol
 _atom_site_label
 _atom_site_symmetry_multiplicity
 _atom_site_fract_x
 _atom_site_fract_y
 _atom_site_fract_z
 _atom_site_occupancy
  Ba  Ba0  1  0.09018590  0.23220736  0.23892267  1
  Ba  Ba1  1  0.59018590  0.26779264  0.76107733  1
  Ba  Ba2  1  0.90981410  0.76779264  0.76107733  1
  Ba  Ba3  1  0.40981410  0.73220736  0.23892267  1
  U  U0  1  0.75131704  0.38813319  0.27259365  1
  U  U1  1  0.25131704  0.11186681  0.72740635  1
  U  U2  1  0.24868296  0.61186681  0.72740635  1
  U  U3  1  0.74868296  0.88813319  0.27259365  1
  Te  Te0  1  0.76314323  0.15009934  0.00381395  1
  Te  Te1  1  0.26314323  0.34990066  0.99618605  1
  Te  Te2  1  0.23685677  0.84990066  0.99618605  1
  Te  Te3  1  0.73685677  0.65009934  0.00381395  1
  Te  Te4  1  0.89749639  0.38879688  0.02742891  1
  Te  Te5  1  0.39749639  0.11120312  0.97257109  1
  Te  Te6  1  0.10250361  0.61120312  0.97257109  1
  Te  Te7  1  0.60250361  0.88879688  0.02742891  1
  Te  Te8  1  0.55258514  0.38802186  0.17779674  1
  Te  Te9  1  0.05258514  0.11197814  0.82220326  1
  Te  Te10  1  0.44741486  0.61197814  0.82220326  1
  Te  Te11  1  0.94741486  0.88802186  0.17779674  1
  Te  Te12  1  0.60417772  0.13761528  0.38793744  1
  Te  Te13  1  0.10417772  0.36238472  0.61206256  1
  Te  Te14  1  0.39582228  0.86238472  0.61206256  1
  Te  Te15  1  0.89582228  0.63761528  0.38793744  1
  Te  Te16  1  0.88495491  0.13087188  0.42058707  1
  Te  Te17  1  0.38495491  0.36912812  0.57941293  1
  Te  Te18  1  0.11504509  0.86912812  0.57941293  1
  Te  Te19  1  0.61504509  0.63087188  0.42058707  1
  Te  Te20  1  0.80626352  0.37422118  0.60468918  1
  Te  Te21  1  0.30626352  0.12577882  0.39531082  1
  Te  Te22  1  0.19373648  0.62577882  0.39531082  1
  Te  Te23  1  0.69373648  0.87422118  0.60468918  1
loop_
_geom_bond_atom_site_label_1
_geom_bond_atom_site_label_2
_geom_bond_distance
_geom_bond_site_symmetry_2
Ba0 Te1 3.558024 1_554
Ba0 Te13 3.585175 1_555
Ba0 Te16 3.634754 1_455
Ba0 Te11 3.637431 1_445
Ba0 Te21 3.696698 1_555
Ba0 Te4 3.727229 1_455
Ba0 Te6 3.883624 1_554
Ba0 Te22 3.915374 1_555
Ba0 Te9 3.975057 1_554
Ba0 Te18 4.238817 1_545
Ba1 Te0 3.558024 1_556
Ba1 Te12 3.585175 1_555
Ba1 Te17 3.634754 1_555
Ba1 Te10 3.637431 1_555
Ba1 Te20 3.696698 1_555
Ba1 Te5 3.727229 1_555
Ba1 Te7 3.883624 1_546
Ba1 Te23 3.915374 1_545
Ba1 Te8 3.975057 1_556
Ba1 Te19 4.238817 1_555
Ba2 Te3 3.558024 1_556
Ba2 Te15 3.585175 1_555
Ba2 Te18 3.634754 1_655
Ba2 Te9 3.637431 1_665
Ba2 Te23 3.696698 1_555
Ba2 Te6 3.727229 1_655
Ba2 Te4 3.883624 1_556
Ba2 Te20 3.915374 1_555
Ba2 Te11 3.975057 1_556
Ba2 Te16 4.238817 1_565
Ba3 Te2 3.558024 1_554
Ba3 Te14 3.585175 1_555
Ba3 Te19 3.634754 1_555
Ba3 Te8 3.637431 1_555
Ba3 Te22 3.696698 1_555
Ba3 Te7 3.727229 1_555
Ba3 Te5 3.883624 1_564
Ba3 Te21 3.915374 1_565
Ba3 Te10 3.975057 1_554
Ba3 Te17 4.238817 1_555
Te0 Te4 2.859766 1_555
Te0 U0 3.180486 1_555
Te0 U3 3.204962 1_545
Te0 Te7 3.272324 1_545
Te1 Te5 2.859766 1_555
Te1 U1 3.180486 1_555
Te1 U2 3.204962 1_555
Te1 Te6 3.272324 1_555
Te2 Te6 2.859766 1_555
Te2 U2 3.180486 1_555
Te2 U1 3.204962 1_565
Te2 Te5 3.272324 1_565
Te3 Te7 2.859766 1_555
Te3 U3 3.180486 1_555
Te3 U0 3.204962 1_555
Te3 Te4 3.272324 1_555
Te4 U0 3.154504 1_555
Te5 U1 3.154504 1_555
Te6 U2 3.154504 1_555
Te7 U3 3.154504 1_555
Te8 U0 3.165622 1_555
Te9 U1 3.165622 1_555
Te10 Te14 2.869333 1_555
Te10 U2 3.165622 1_555
Te10 Te17 3.168823 1_555
Te11 Te15 2.869333 1_555
Te11 U3 3.165622 1_555
Te11 Te16 3.168823 1_565
Te12 Te8 2.869333 1_555
Te12 Te23 3.186557 1_545
Te12 U0 3.207648 1_555
Te12 U3 3.218885 1_545
Te13 Te9 2.869333 1_555
Te13 Te22 3.186557 1_555
Te13 U1 3.207648 1_555
Te13 U2 3.218885 1_555
Te14 Te21 3.186557 1_565
Te14 U2 3.207648 1_555
Te14 U1 3.218885 1_565
Te15 Te20 3.186557 1_555
Te15 U3 3.207648 1_555
Te15 U0 3.218885 1_555
Te16 Te20 2.910582 1_555
Te16 U0 3.207657 1_555
Te16 U3 3.214580 1_545
Te17 Te21 2.910582 1_555
Te17 U1 3.207657 1_555
Te17 U2 3.214580 1_555
Te18 Te22 2.910582 1_555
Te18 Te9 3.168823 1_565
Te18 U2 3.207657 1_555
Te18 U1 3.214580 1_565
Te19 Te23 2.910582 1_555
Te19 Te8 3.168823 1_555
Te19 U3 3.207657 1_555
Te19 U0 3.214580 1_555
Te20 U0 3.121366 1_555
Te21 U1 3.121366 1_555
Te22 U2 3.121366 1_555
Te23 U3 3.121366 1_555
