# generated using pymatgen
data_ZnNi3(P2O7)2
_symmetry_space_group_name_H-M   'P 1'
_cell_length_a   7.49350800
_cell_length_b   7.23734100
_cell_length_c   9.48371428
_cell_angle_alpha   67.61498010
_cell_angle_beta   90.00000000
_cell_angle_gamma   90.00000000
_symmetry_Int_Tables_number   1
_chemical_formula_structural   ZnNi3(P2O7)2
_chemical_formula_sum   'Zn2 Ni6 P8 O28'
_cell_volume   475.57388183
_cell_formula_units_Z   2
loop_
 _symmetry_equiv_pos_site_id
 _symmetry_equiv_pos_as_xyz
  1  'x, y, z'
loop_
 _atom_site_type_symbol
 _atom_site_label
 _atom_site_symmetry_multiplicity
 _atom_site_fract_x
 _atom_site_fract_y
 _atom_site_fract_z
 _atom_site_occupancy
  Zn  Zn0  1  0.00000000  0.50000000  0.00000000  1
  Zn  Zn1  1  0.50000000  0.50000000  0.50000000  1
  Ni  Ni0  1  0.12841900  0.81428000  0.52249500  1
  Ni  Ni1  1  0.62841900  0.18572000  0.97750500  1
  Ni  Ni2  1  0.87158100  0.18572000  0.47750500  1
  Ni  Ni3  1  0.37158100  0.81428000  0.02249500  1
  Ni  Ni4  1  0.00000000  0.00000000  0.00000000  1
  Ni  Ni5  1  0.50000000  0.00000000  0.50000000  1
  P  P0  1  0.92412100  0.41175300  0.70363300  1
  P  P1  1  0.42412100  0.58824700  0.79636700  1
  P  P2  1  0.07587900  0.58824700  0.29636700  1
  P  P3  1  0.57587900  0.41175300  0.20363300  1
  P  P4  1  0.20787500  0.13228000  0.68725100  1
  P  P5  1  0.70787500  0.86772000  0.81274900  1
  P  P6  1  0.79212500  0.86772000  0.31274900  1
  P  P7  1  0.29212500  0.13228000  0.18725100  1
  O  O0  1  0.38476900  0.19550800  0.59874400  1
  O  O1  1  0.88476900  0.80449200  0.90125600  1
  O  O2  1  0.61523100  0.80449200  0.40125600  1
  O  O3  1  0.11523100  0.19550800  0.09874400  1
  O  O4  1  0.37835600  0.72133200  0.62686800  1
  O  O5  1  0.87835600  0.27866800  0.87313200  1
  O  O6  1  0.62164400  0.27866800  0.37313200  1
  O  O7  1  0.12164400  0.72133200  0.12686800  1
  O  O8  1  0.79070600  0.38136200  0.59203600  1
  O  O9  1  0.29070600  0.61863800  0.90796400  1
  O  O10  1  0.20929400  0.61863800  0.40796400  1
  O  O11  1  0.70929400  0.38136200  0.09203600  1
  O  O12  1  0.11554100  0.33683900  0.67138800  1
  O  O13  1  0.61554100  0.66316100  0.82861200  1
  O  O14  1  0.88445900  0.66316100  0.32861200  1
  O  O15  1  0.38445900  0.33683900  0.17138800  1
  O  O16  1  0.53283700  0.62163200  0.19060300  1
  O  O17  1  0.03283700  0.37836800  0.30939700  1
  O  O18  1  0.46716300  0.37836800  0.80939700  1
  O  O19  1  0.96716300  0.62163200  0.69060300  1
  O  O20  1  0.78400900  0.98360000  0.13995800  1
  O  O21  1  0.28400900  0.01640000  0.36004200  1
  O  O22  1  0.21599100  0.01640000  0.86004200  1
  O  O23  1  0.71599100  0.98360000  0.63995800  1
  O  O24  1  0.41585100  0.03222400  0.10940900  1
  O  O25  1  0.91585100  0.96777600  0.39059100  1
  O  O26  1  0.58414900  0.96777600  0.89059100  1
  O  O27  1  0.08414900  0.03222400  0.60940900  1
loop_
_geom_bond_atom_site_label_1
_geom_bond_atom_site_label_2
_geom_bond_distance
_geom_bond_site_symmetry_2
Ni0 O21 2.038691 1_565
Ni0 O19 2.062239 1_455
Ni0 O27 2.065846 1_565
Ni0 O25 2.068277 1_455
Ni0 O4 2.105451 1_555
Ni0 O10 2.173318 1_555
Ni1 O20 2.038691 1_546
Ni1 O18 2.062239 1_555
Ni1 O26 2.065846 1_545
Ni1 O24 2.068277 1_556
Ni1 O5 2.105451 1_555
Ni1 O11 2.173318 1_556
Ni2 O23 2.038691 1_545
Ni2 O17 2.062239 1_655
Ni2 O25 2.065846 1_545
Ni2 O27 2.068277 1_655
Ni2 O6 2.105451 1_555
Ni2 O8 2.173318 1_555
Ni3 O22 2.038691 1_564
Ni3 O16 2.062239 1_555
Ni3 O24 2.065846 1_565
Ni3 O26 2.068277 1_554
Ni3 O7 2.105451 1_555
Ni3 O9 2.173318 1_554
Ni4 O20 2.067732 1_445
Ni4 O22 2.067732 1_554
Ni4 O5 2.120816 1_454
Ni4 O7 2.120816 1_545
Ni4 O3 2.152650 1_555
Ni4 O1 2.152650 1_444
Ni5 O21 2.067732 1_555
Ni5 O23 2.067732 1_545
Ni5 O6 2.120816 1_555
Ni5 O4 2.120816 1_545
Ni5 O2 2.152650 1_545
Ni5 O0 2.152650 1_555
O0 P4 1.542238 1_555
O0 Zn1 2.215195 1_555
O1 P5 1.542238 1_555
O1 Zn0 2.215195 1_656
O2 P6 1.542238 1_555
O2 Zn1 2.215195 1_555
O3 P7 1.542238 1_555
O3 Zn0 2.215195 1_555
O4 P1 1.565263 1_555
O4 Zn1 2.512458 1_555
O5 P0 1.565263 1_555
O5 Zn0 2.512458 1_656
O6 P3 1.565263 1_555
O6 Zn1 2.512458 1_555
O7 P2 1.565263 1_555
O7 Zn0 2.512458 1_555
O8 P0 1.531433 1_555
O8 Zn1 2.381959 1_555
O9 P1 1.531433 1_555
O9 Zn0 2.381959 1_556
O10 P2 1.531433 1_555
O10 Zn1 2.381959 1_555
O11 P3 1.531433 1_555
O11 Zn0 2.381959 1_655
O12 P4 1.588553 1_555
O12 P0 1.603521 1_455
O13 P5 1.588553 1_555
O13 P1 1.603521 1_555
O14 P6 1.588553 1_555
O14 P2 1.603521 1_655
O15 P7 1.588553 1_555
O15 P3 1.603521 1_555
O16 P3 1.511156 1_555
O17 P2 1.511156 1_555
O18 P1 1.511156 1_555
O19 P0 1.511156 1_555
O20 P6 1.531547 1_555
O21 P7 1.531547 1_555
O22 P4 1.531547 1_555
O23 P5 1.531547 1_555
O24 P7 1.528438 1_555
O25 P6 1.528438 1_555
O26 P5 1.528438 1_555
O27 P4 1.528438 1_555
