# generated using pymatgen
data_NaNd3Ti2(SbO7)2
_symmetry_space_group_name_H-M   'P 1'
_cell_length_a   7.36181331
_cell_length_b   7.36181331
_cell_length_c   7.32281421
_cell_angle_alpha   60.83332315
_cell_angle_beta   60.83332315
_cell_angle_gamma   61.05536610
_symmetry_Int_Tables_number   1
_chemical_formula_structural   NaNd3Ti2(SbO7)2
_chemical_formula_sum   'Na1 Nd3 Ti2 Sb2 O14'
_cell_volume   286.36523810
_cell_formula_units_Z   1
loop_
 _symmetry_equiv_pos_site_id
 _symmetry_equiv_pos_as_xyz
  1  'x, y, z'
loop_
 _atom_site_type_symbol
 _atom_site_label
 _atom_site_symmetry_multiplicity
 _atom_site_fract_x
 _atom_site_fract_y
 _atom_site_fract_z
 _atom_site_occupancy
  Na  Na0  1  0.50000000  0.50000000  0.00000000  1
  Nd  Nd0  1  0.50000000  0.50000000  0.50000000  1
  Nd  Nd1  1  0.50000000  0.00000000  0.00000000  1
  Nd  Nd2  1  0.00000000  0.50000000  0.00000000  1
  Ti  Ti0  1  0.00000000  0.00000000  0.50000000  1
  Ti  Ti1  1  0.00000000  0.00000000  0.00000000  1
  Sb  Sb0  1  0.00000000  0.50000000  0.50000000  1
  Sb  Sb1  1  0.50000000  0.00000000  0.50000000  1
  O  O0  1  0.93061800  0.93061800  0.81661300  1
  O  O1  1  0.32598100  0.32598100  0.42941500  1
  O  O2  1  0.92425200  0.32242600  0.42482800  1
  O  O3  1  0.31876800  0.93903200  0.81987600  1
  O  O4  1  0.93903200  0.31876800  0.81987600  1
  O  O5  1  0.32242600  0.92425200  0.42482800  1
  O  O6  1  0.06938200  0.06938200  0.18338700  1
  O  O7  1  0.67401900  0.67401900  0.57058500  1
  O  O8  1  0.07574800  0.67757400  0.57517200  1
  O  O9  1  0.68123200  0.06096800  0.18012400  1
  O  O10  1  0.06096800  0.68123200  0.18012400  1
  O  O11  1  0.67757400  0.07574800  0.57517200  1
  O  O12  1  0.62788500  0.62788500  0.12550200  1
  O  O13  1  0.37211500  0.37211500  0.87449800  1
loop_
_geom_bond_atom_site_label_1
_geom_bond_atom_site_label_2
_geom_bond_distance
_geom_bond_site_symmetry_2
Na0 O13 2.271992 1_554
Na0 O12 2.271992 1_555
Na0 O7 2.627919 1_554
Na0 O1 2.627919 1_555
Na0 O3 2.711503 1_554
Na0 O4 2.711503 1_554
Na0 O9 2.711503 1_555
Na0 O10 2.711503 1_555
Nd0 O12 2.262344 1_555
Nd0 O13 2.262344 1_555
Nd0 O7 2.535546 1_555
Nd0 O1 2.535546 1_555
Nd0 O5 2.615413 1_555
Nd0 O2 2.615413 1_555
Nd0 O8 2.615413 1_555
Nd0 O11 2.615413 1_555
Nd1 O12 2.264629 1_545
Nd1 O13 2.264629 1_554
Nd1 O9 2.567744 1_555
Nd1 O3 2.567744 1_544
Nd1 O5 2.597805 1_545
Nd1 O11 2.597805 1_554
Nd1 O6 2.658156 1_555
Nd1 O0 2.658156 1_544
Nd2 O12 2.264629 1_455
Nd2 O13 2.264629 1_554
Nd2 O10 2.567744 1_555
Nd2 O4 2.567744 1_454
Nd2 O8 2.597805 1_554
Nd2 O2 2.597805 1_455
Nd2 O0 2.658156 1_454
Nd2 O6 2.658156 1_555
O0 Ti0 1.959895 1_665
O0 Ti1 1.978603 1_666
O1 Sb0 2.031764 1_555
O1 Sb1 2.031764 1_555
O2 Ti0 1.998147 1_655
O2 Sb0 2.007273 1_655
O3 Sb1 1.994256 1_565
O3 Ti1 1.997197 1_566
O4 Sb0 1.994256 1_655
O4 Ti1 1.997197 1_656
O5 Ti0 1.998147 1_565
O5 Sb1 2.007273 1_565
O6 Ti0 1.959895 1_555
O6 Ti1 1.978603 1_555
O7 Sb0 2.031764 1_655
O7 Sb1 2.031764 1_565
O8 Ti0 1.998147 1_565
O8 Sb0 2.007273 1_555
O9 Sb1 1.994256 1_555
O9 Ti1 1.997197 1_655
O10 Sb0 1.994256 1_555
O10 Ti1 1.997197 1_565
O11 Ti0 1.998147 1_655
O11 Sb1 2.007273 1_555
