# generated using pymatgen
data_Li7Mn4CoO12
_symmetry_space_group_name_H-M   'P 1'
_cell_length_a   5.18885399
_cell_length_b   10.04017971
_cell_length_c   9.73820343
_cell_angle_alpha   63.11995217
_cell_angle_beta   97.21112582
_cell_angle_gamma   78.59804681
_symmetry_Int_Tables_number   1
_chemical_formula_structural   Li7Mn4CoO12
_chemical_formula_sum   'Li14 Mn8 Co2 O24'
_cell_volume   429.97834471
_cell_formula_units_Z   2
loop_
 _symmetry_equiv_pos_site_id
 _symmetry_equiv_pos_as_xyz
  1  'x, y, z'
loop_
 _atom_site_type_symbol
 _atom_site_label
 _atom_site_symmetry_multiplicity
 _atom_site_fract_x
 _atom_site_fract_y
 _atom_site_fract_z
 _atom_site_occupancy
  Li  Li0  1  0.41695900  0.16616200  0.91692100  1
  Li  Li1  1  0.91645100  0.16715200  0.41643500  1
  Li  Li2  1  0.42478400  0.66671800  0.91819700  1
  Li  Li3  1  0.90853100  0.66662300  0.41514600  1
  Li  Li4  1  0.16667700  0.16666000  0.16667100  1
  Li  Li5  1  0.66667800  0.16666400  0.66666600  1
  Li  Li6  1  0.58565800  0.32593800  0.08621900  1
  Li  Li7  1  0.08836600  0.32598500  0.58783000  1
  Li  Li8  1  0.74766200  0.00739100  0.24713000  1
  Li  Li9  1  0.24496100  0.00734500  0.74550700  1
  Li  Li10  1  0.25028000  0.49942600  0.75027400  1
  Li  Li11  1  0.74990800  0.50052700  0.24978800  1
  Li  Li12  1  0.08302500  0.83391200  0.58304600  1
  Li  Li13  1  0.58338300  0.83281200  0.08352900  1
  Mn  Mn0  1  0.50022000  0.99971700  0.50015900  1
  Mn  Mn1  1  0.99996900  0.00015300  0.99988400  1
  Mn  Mn2  1  0.83315000  0.33361200  0.83318600  1
  Mn  Mn3  1  0.33338200  0.33321200  0.33343500  1
  Mn  Mn4  1  0.99549300  0.49678900  0.00010700  1
  Mn  Mn5  1  0.50756400  0.49682100  0.50303700  1
  Mn  Mn6  1  0.82576800  0.83651000  0.83029200  1
  Mn  Mn7  1  0.33781300  0.83653400  0.33322400  1
  Co  Co0  1  0.16663800  0.66666800  0.16666400  1
  Co  Co1  1  0.66662000  0.66668900  0.66665500  1
  O  O0  1  0.54159400  0.16712200  0.30632500  1
  O  O1  1  0.04203900  0.16615400  0.80682500  1
  O  O2  1  0.79184500  0.16620500  0.02701600  1
  O  O3  1  0.29138800  0.16718100  0.52650800  1
  O  O4  1  0.99812700  0.66666100  0.78974900  1
  O  O5  1  0.53173500  0.66663200  0.30292000  1
  O  O6  1  0.80154200  0.66668200  0.03041500  1
  O  O7  1  0.33512500  0.66666900  0.54357200  1
  O  O8  1  0.16229800  0.33987000  0.95024900  1
  O  O9  1  0.66283900  0.34010900  0.44859200  1
  O  O10  1  0.83541300  0.99348000  0.62336800  1
  O  O11  1  0.33624800  0.99320100  0.12207200  1
  O  O12  1  0.99714700  0.34010500  0.21125800  1
  O  O13  1  0.49796300  0.33983300  0.70996900  1
  O  O14  1  0.67053200  0.99321700  0.88474800  1
  O  O15  1  0.17105100  0.99346200  0.38309200  1
  O  O16  1  0.36969400  0.50132100  0.13774700  1
  O  O17  1  0.87760300  0.49841100  0.63983000  1
  O  O18  1  0.20442500  0.83235900  0.97198900  1
  O  O19  1  0.70929500  0.83488400  0.47154000  1
  O  O20  1  0.62396200  0.49847300  0.86178300  1
  O  O21  1  0.12887100  0.50096800  0.36133600  1
  O  O22  1  0.45568700  0.83496600  0.69349700  1
  O  O23  1  0.96363300  0.83201400  0.19559100  1
loop_
_geom_bond_atom_site_label_1
_geom_bond_atom_site_label_2
_geom_bond_distance
_geom_bond_site_symmetry_2
Li0 O2 2.100130 1_556
Li0 O1 2.100140 1_555
Li0 O14 2.129920 1_545
Li0 O11 2.131368 1_546
Li0 O8 2.145108 1_555
Li0 O13 2.145579 1_555
Li1 O0 2.100004 1_555
Li1 O3 2.100216 1_655
Li1 O9 2.130015 1_555
Li1 O12 2.131447 1_555
Li1 O15 2.144908 1_645
Li1 O10 2.145557 1_545
Li2 O6 2.116374 1_556
Li2 O20 2.124806 1_555
Li2 O22 2.126057 1_555
Li2 O18 2.129288 1_555
Li2 O16 2.130996 1_556
Li2 O4 2.402446 1_455
Li3 O5 2.116688 1_555
Li3 O19 2.124913 1_555
Li3 O17 2.125873 1_555
Li3 O21 2.129474 1_655
Li3 O23 2.131033 1_555
Li3 O7 2.402033 1_655
Li4 O15 2.030912 1_545
Li4 O8 2.030957 1_554
Li4 O12 2.041768 1_455
Li4 O11 2.042027 1_545
Li4 O2 2.231028 1_455
Li4 O0 2.231406 1_555
Li5 O13 2.030016 1_555
Li5 O10 2.030144 1_545
Li5 O9 2.043142 1_555
Li5 O14 2.043178 1_545
Li5 O3 2.230998 1_555
Li5 O1 2.231327 1_655
Li6 O2 2.088434 1_555
Li6 O0 2.089451 1_555
Li6 O20 2.153786 1_554
Li6 O16 2.183622 1_555
Li6 O8 2.362060 1_554
Li6 O12 2.384491 1_555
Li7 O3 2.088862 1_555
Li7 O1 2.089889 1_555
Li7 O17 2.152353 1_455
Li7 O21 2.180368 1_555
Li7 O13 2.362803 1_555
Li7 O9 2.384243 1_455
Li8 O0 2.088121 1_555
Li8 O2 2.089739 1_555
Li8 O19 2.153640 1_545
Li8 O23 2.183658 1_545
Li8 O15 2.362166 1_645
Li8 O11 2.384349 1_545
Li9 O1 2.088672 1_555
Li9 O3 2.090138 1_555
Li9 O22 2.151962 1_545
Li9 O18 2.180363 1_545
Li9 O10 2.362667 1_445
Li9 O14 2.384433 1_545
Li10 O13 2.062618 1_555
Li10 O8 2.063608 1_555
Li10 O17 2.095680 1_455
Li10 O20 2.096088 1_555
Li10 O4 2.126087 1_455
Li10 O7 2.126871 1_555
Li11 O12 2.056981 1_555
Li11 O9 2.057668 1_555
Li11 O5 2.124017 1_555
Li11 O6 2.125172 1_555
Li11 O21 2.125610 1_655
Li11 O16 2.127972 1_555
Li12 O10 2.062353 1_455
Li12 O15 2.063570 1_555
Li12 O22 2.095805 1_555
Li12 O19 2.096211 1_455
Li12 O7 2.126009 1_555
Li12 O4 2.127042 1_455
Li13 O11 2.056548 1_555
Li13 O14 2.057682 1_554
Li13 O6 2.124069 1_555
Li13 O5 2.125407 1_555
Li13 O18 2.125607 1_554
Li13 O23 2.128197 1_555
Mn0 O19 1.943340 1_555
Mn0 O22 1.943852 1_555
Mn0 O3 1.951048 1_565
Mn0 O0 1.951839 1_565
Mn0 O10 1.957976 1_555
Mn0 O15 1.959388 1_555
Mn1 O1 1.942558 1_655
Mn1 O2 1.942594 1_556
Mn1 O18 1.953703 1_645
Mn1 O14 1.954618 1_545
Mn1 O11 1.954712 1_646
Mn1 O23 1.955603 1_546
Mn2 O20 1.943678 1_555
Mn2 O17 1.943997 1_555
Mn2 O1 1.951187 1_655
Mn2 O2 1.951681 1_556
Mn2 O13 1.958056 1_555
Mn2 O8 1.959296 1_655
Mn3 O3 1.942613 1_555
Mn3 O0 1.942960 1_555
Mn3 O21 1.953537 1_555
Mn3 O9 1.954617 1_555
Mn3 O12 1.954722 1_455
Mn3 O16 1.955311 1_555
Mn4 O8 1.930053 1_654
Mn4 O12 1.941172 1_555
Mn4 O6 1.964842 1_555
Mn4 O4 1.990583 1_554
Mn4 O20 2.201327 1_554
Mn4 O16 2.237288 1_655
Mn5 O13 1.931786 1_555
Mn5 O9 1.940685 1_555
Mn5 O5 1.965140 1_555
Mn5 O7 1.989611 1_555
Mn5 O17 2.202433 1_555
Mn5 O21 2.236520 1_555
Mn6 O10 1.931742 1_555
Mn6 O14 1.940658 1_555
Mn6 O6 1.965352 1_556
Mn6 O4 1.989543 1_555
Mn6 O22 2.202407 1_555
Mn6 O18 2.236334 1_655
Mn7 O15 1.930124 1_555
Mn7 O11 1.941256 1_555
Mn7 O5 1.964840 1_555
Mn7 O7 1.990579 1_555
Mn7 O19 2.201236 1_555
Mn7 O23 2.237111 1_455
Co0 O23 1.936707 1_455
Co0 O16 1.936760 1_555
Co0 O21 1.941732 1_555
Co0 O18 1.941751 1_554
Co0 O5 2.172037 1_555
Co0 O6 2.172097 1_455
Co1 O22 1.964893 1_555
Co1 O17 1.964908 1_555
Co1 O19 1.965472 1_555
Co1 O20 1.965605 1_555
Co1 O4 1.969175 1_555
Co1 O7 1.969287 1_555
