# generated using pymatgen
data_Ba3SbN
_symmetry_space_group_name_H-M   'P 1'
_cell_length_a   5.57358100
_cell_length_b   5.57358100
_cell_length_c   5.57358100
_cell_angle_alpha   90.00000000
_cell_angle_beta   90.00000000
_cell_angle_gamma   90.00000000
_symmetry_Int_Tables_number   1
_chemical_formula_structural   Ba3SbN
_chemical_formula_sum   'Ba3 Sb1 N1'
_cell_volume   173.14220783
_cell_formula_units_Z   1
loop_
 _symmetry_equiv_pos_site_id
 _symmetry_equiv_pos_as_xyz
  1  'x, y, z'
loop_
 _atom_site_type_symbol
 _atom_site_label
 _atom_site_symmetry_multiplicity
 _atom_site_fract_x
 _atom_site_fract_y
 _atom_site_fract_z
 _atom_site_occupancy
  Ba  Ba0  1  0.00000000  0.50000000  0.50000000  1
  Ba  Ba1  1  0.50000000  0.00000000  0.50000000  1
  Ba  Ba2  1  0.50000000  0.50000000  0.00000000  1
  Sb  Sb0  1  0.00000000  0.00000000  0.00000000  1
  N  N0  1  0.50000000  0.50000000  0.50000000  1
loop_
_geom_bond_atom_site_label_1
_geom_bond_atom_site_label_2
_geom_bond_distance
_geom_bond_site_symmetry_2
Ba0 N0 2.786790 1_555
Ba0 N0 2.786790 1_455
Ba0 Sb0 3.941117 1_566
Ba0 Sb0 3.941117 1_556
Ba0 Sb0 3.941117 1_565
Ba0 Sb0 3.941117 1_555
Ba1 N0 2.786790 1_555
Ba1 N0 2.786790 1_545
Ba1 Sb0 3.941117 1_656
Ba1 Sb0 3.941117 1_655
Ba1 Sb0 3.941117 1_556
Ba1 Sb0 3.941117 1_555
Ba2 N0 2.786790 1_554
Ba2 N0 2.786790 1_555
Ba2 Sb0 3.941117 1_655
Ba2 Sb0 3.941117 1_665
Ba2 Sb0 3.941117 1_565
Ba2 Sb0 3.941117 1_555
