# generated using pymatgen
data_Ba4Ga5AgSe12
_symmetry_space_group_name_H-M   'P 1'
_cell_length_a   13.94887900
_cell_length_b   13.94887900
_cell_length_c   6.62830500
_cell_angle_alpha   90.00000000
_cell_angle_beta   90.00000000
_cell_angle_gamma   90.00000000
_symmetry_Int_Tables_number   1
_chemical_formula_structural   Ba4Ga5AgSe12
_chemical_formula_sum   'Ba8 Ga10 Ag2 Se24'
_cell_volume   1289.67742589
_cell_formula_units_Z   2
loop_
 _symmetry_equiv_pos_site_id
 _symmetry_equiv_pos_as_xyz
  1  'x, y, z'
loop_
 _atom_site_type_symbol
 _atom_site_label
 _atom_site_symmetry_multiplicity
 _atom_site_fract_x
 _atom_site_fract_y
 _atom_site_fract_z
 _atom_site_occupancy
  Ba  Ba0  1  0.52572400  0.21268000  0.95586200  1
  Ba  Ba1  1  0.02569500  0.28737400  0.53940300  1
  Ba  Ba2  1  0.47427600  0.78732000  0.95586200  1
  Ba  Ba3  1  0.97430500  0.71262600  0.53940300  1
  Ba  Ba4  1  0.78732000  0.52572400  0.04413800  1
  Ba  Ba5  1  0.71262600  0.02569500  0.46059700  1
  Ba  Ba6  1  0.21268000  0.47427600  0.04413800  1
  Ba  Ba7  1  0.28737400  0.97430500  0.46059700  1
  Ga  Ga0  1  0.74284900  0.36196800  0.55350600  1
  Ga  Ga1  1  0.24293900  0.13814300  0.94901000  1
  Ga  Ga2  1  0.25715100  0.63803200  0.55350600  1
  Ga  Ga3  1  0.75706100  0.86185700  0.94901000  1
  Ga  Ga4  1  0.63803200  0.74284900  0.44649400  1
  Ga  Ga5  1  0.86185700  0.24293900  0.05099000  1
  Ga  Ga6  1  0.36196800  0.25715100  0.44649400  1
  Ga  Ga7  1  0.13814300  0.75706100  0.05099000  1
  Ga  Ga8  1  0.50000000  0.50000000  0.50000000  1
  Ga  Ga9  1  0.00000000  0.00000000  0.00000000  1
  Ag  Ag0  1  0.00000000  0.50000000  0.79057700  1
  Ag  Ag1  1  0.50000000  0.00000000  0.20942300  1
  Se  Se0  1  0.80685000  0.21460600  0.70723600  1
  Se  Se1  1  0.30722900  0.28527100  0.79213400  1
  Se  Se2  1  0.19315000  0.78539400  0.70723600  1
  Se  Se3  1  0.69277100  0.71472900  0.79213400  1
  Se  Se4  1  0.78539400  0.80685000  0.29276400  1
  Se  Se5  1  0.71472900  0.30722900  0.20786600  1
  Se  Se6  1  0.21460600  0.19315000  0.29276400  1
  Se  Se7  1  0.28527100  0.69277100  0.20786600  1
  Se  Se8  1  0.85311700  0.49591800  0.53633400  1
  Se  Se9  1  0.35223800  0.00327600  0.95803600  1
  Se  Se10  1  0.14688300  0.50408200  0.53633400  1
  Se  Se11  1  0.64776200  0.99672400  0.95803600  1
  Se  Se12  1  0.50408200  0.85311700  0.46366600  1
  Se  Se13  1  0.99672400  0.35223800  0.04196400  1
  Se  Se14  1  0.49591800  0.14688300  0.46366600  1
  Se  Se15  1  0.00327600  0.64776200  0.04196400  1
  Se  Se16  1  0.60378000  0.41621200  0.74025700  1
  Se  Se17  1  0.10453500  0.08349600  0.75994900  1
  Se  Se18  1  0.39622000  0.58378800  0.74025700  1
  Se  Se19  1  0.89546500  0.91650400  0.75994900  1
  Se  Se20  1  0.58378800  0.60378000  0.25974300  1
  Se  Se21  1  0.91650400  0.10453500  0.24005100  1
  Se  Se22  1  0.41621200  0.39622000  0.25974300  1
  Se  Se23  1  0.08349600  0.89546500  0.24005100  1
loop_
_geom_bond_atom_site_label_1
_geom_bond_atom_site_label_2
_geom_bond_distance
_geom_bond_site_symmetry_2
Ba0 Se16 3.359755 1_555
Ba0 Se5 3.388232 1_556
Ba0 Se1 3.389966 1_555
Ba0 Se14 3.414472 1_555
Ba0 Se11 3.460091 1_545
Ba0 Se14 3.513453 1_556
Ba0 Se22 3.597922 1_556
Ba0 Se9 3.793185 1_555
Ba1 Se6 3.368046 1_555
Ba1 Se17 3.381419 1_555
Ba1 Se0 3.403889 1_455
Ba1 Se13 3.442864 1_455
Ba1 Se10 3.463454 1_555
Ba1 Se13 3.475391 1_456
Ba1 Se21 3.572307 1_455
Ba1 Se8 3.775895 1_455
Ba2 Se18 3.359755 1_555
Ba2 Se7 3.388232 1_556
Ba2 Se3 3.389966 1_555
Ba2 Se12 3.414472 1_555
Ba2 Se9 3.460091 1_565
Ba2 Se12 3.513453 1_556
Ba2 Se20 3.597922 1_556
Ba2 Se11 3.793185 1_555
Ba3 Se4 3.368046 1_555
Ba3 Se19 3.381419 1_555
Ba3 Se2 3.403889 1_655
Ba3 Se15 3.442864 1_655
Ba3 Se8 3.463454 1_555
Ba3 Se15 3.475391 1_656
Ba3 Se23 3.572307 1_655
Ba3 Se10 3.775895 1_655
Ba4 Se20 3.359755 1_555
Ba4 Se3 3.388232 1_554
Ba4 Se5 3.389966 1_555
Ba4 Se8 3.414472 1_555
Ba4 Se15 3.460091 1_655
Ba4 Se8 3.513453 1_554
Ba4 Se16 3.597922 1_554
Ba4 Se13 3.793185 1_555
Ba5 Se0 3.368046 1_555
Ba5 Se21 3.381419 1_555
Ba5 Se4 3.403889 1_545
Ba5 Se11 3.442864 1_545
Ba5 Se14 3.463454 1_555
Ba5 Se11 3.475391 1_544
Ba5 Se19 3.572307 1_545
Ba5 Se12 3.775895 1_545
Ba6 Se22 3.359755 1_555
Ba6 Se1 3.388232 1_554
Ba6 Se7 3.389966 1_555
Ba6 Se10 3.414472 1_555
Ba6 Se13 3.460091 1_455
Ba6 Se10 3.513453 1_554
Ba6 Se18 3.597922 1_554
Ba6 Se15 3.793185 1_555
Ba7 Se2 3.368046 1_555
Ba7 Se23 3.381419 1_555
Ba7 Se6 3.403889 1_565
Ba7 Se9 3.442864 1_565
Ba7 Se12 3.463454 1_555
Ba7 Se9 3.475391 1_564
Ba7 Se17 3.572307 1_565
Ba7 Se14 3.775895 1_565
Ga0 Se16 2.422356 1_555
Ga0 Se8 2.422781 1_555
Ga0 Se5 2.446543 1_555
Ga0 Se0 2.461810 1_555
Ga1 Se9 2.422201 1_555
Ga1 Se17 2.424579 1_555
Ga1 Se6 2.436496 1_556
Ga1 Se1 2.469260 1_555
Ga2 Se18 2.422356 1_555
Ga2 Se10 2.422781 1_555
Ga2 Se7 2.446543 1_555
Ga2 Se2 2.461810 1_555
Ga3 Se11 2.422201 1_555
Ga3 Se19 2.424579 1_555
Ga3 Se4 2.436496 1_556
Ga3 Se3 2.469260 1_555
Ga4 Se20 2.422356 1_555
Ga4 Se12 2.422781 1_555
Ga4 Se3 2.446543 1_555
Ga4 Se4 2.461810 1_555
Ga5 Se13 2.422201 1_555
Ga5 Se21 2.424579 1_555
Ga5 Se0 2.436496 1_554
Ga5 Se5 2.469260 1_555
Ga6 Se22 2.422356 1_555
Ga6 Se14 2.422781 1_555
Ga6 Se1 2.446543 1_555
Ga6 Se6 2.461810 1_555
Ga7 Se15 2.422201 1_555
Ga7 Se23 2.424579 1_555
Ga7 Se2 2.436496 1_554
Ga7 Se7 2.469260 1_555
Ga8 Se20 2.449001 1_555
Ga8 Se22 2.449001 1_555
Ga8 Se16 2.449001 1_555
Ga8 Se18 2.449001 1_555
Ga9 Se17 2.452419 1_554
Ga9 Se19 2.452419 1_444
Ga9 Se23 2.452419 1_545
Ga9 Se21 2.452419 1_455
Ag0 Se15 2.650799 1_556
Ag0 Se13 2.650799 1_456
Ag0 Se8 2.653477 1_455
Ag0 Se10 2.653477 1_555
Ag0 Ba3 3.420050 1_455
Ag0 Ba1 3.420050 1_555
Ag0 Ba4 3.428474 1_456
Ag0 Ba6 3.428474 1_556
Ag1 Se11 2.650799 1_544
Ag1 Se9 2.650799 1_554
Ag1 Se12 2.653477 1_545
Ag1 Se14 2.653477 1_555
Ag1 Ba7 3.420050 1_545
Ag1 Ba5 3.420050 1_555
Ag1 Ba2 3.428474 1_544
Ag1 Ba0 3.428474 1_554
