# generated using pymatgen
data_Mg2Cd
_symmetry_space_group_name_H-M   'P 1'
_cell_length_a   6.40995298
_cell_length_b   31.68346242
_cell_length_c   10.05474008
_cell_angle_alpha   89.99998103
_cell_angle_beta   89.99997043
_cell_angle_gamma   90.00000000
_symmetry_Int_Tables_number   1
_chemical_formula_structural   Mg2Cd
_chemical_formula_sum   'Mg64 Cd32'
_cell_volume   2042.01217927
_cell_formula_units_Z   32
loop_
 _symmetry_equiv_pos_site_id
 _symmetry_equiv_pos_as_xyz
  1  'x, y, z'
loop_
 _atom_site_type_symbol
 _atom_site_label
 _atom_site_symmetry_multiplicity
 _atom_site_fract_x
 _atom_site_fract_y
 _atom_site_fract_z
 _atom_site_occupancy
  Mg  Mg0_0  1  0.00000000  0.27851898  0.12500000  1
  Mg  Mg0_1  1  0.00000000  0.27851898  0.62500000  1
  Mg  Mg0_2  1  0.00000000  0.77851899  0.12500000  1
  Mg  Mg0_3  1  0.00000000  0.77851899  0.62500000  1
  Mg  Mg0_4  1  0.50000000  0.27851898  0.12500000  1
  Mg  Mg0_5  1  0.50000000  0.27851898  0.62500000  1
  Mg  Mg0_6  1  0.50000000  0.77851899  0.12500000  1
  Mg  Mg0_7  1  0.50000000  0.77851899  0.62500000  1
  Mg  Mg1_0  1  0.25000000  0.36270432  0.12500000  1
  Mg  Mg1_1  1  0.25000000  0.36270432  0.62500000  1
  Mg  Mg1_2  1  0.25000000  0.86270432  0.12500000  1
  Mg  Mg1_3  1  0.25000000  0.86270432  0.62500000  1
  Mg  Mg1_4  1  0.75000000  0.36270432  0.12500000  1
  Mg  Mg1_5  1  0.75000000  0.36270432  0.62500000  1
  Mg  Mg1_6  1  0.75000000  0.86270432  0.12500000  1
  Mg  Mg1_7  1  0.75000000  0.86270432  0.62500000  1
  Mg  Mg2_0  1  0.00000000  0.38729518  0.37500000  1
  Mg  Mg2_1  1  0.00000000  0.38729518  0.87500000  1
  Mg  Mg2_2  1  0.00000000  0.88729518  0.37500000  1
  Mg  Mg2_3  1  0.00000000  0.88729518  0.87500000  1
  Mg  Mg2_4  1  0.50000000  0.38729518  0.37500000  1
  Mg  Mg2_5  1  0.50000000  0.38729518  0.87500000  1
  Mg  Mg2_6  1  0.50000000  0.88729518  0.37500000  1
  Mg  Mg2_7  1  0.50000000  0.88729518  0.87500000  1
  Mg  Mg3_0  1  0.25000000  0.47148102  0.37500000  1
  Mg  Mg3_1  1  0.25000000  0.47148101  0.87500000  1
  Mg  Mg3_2  1  0.25000000  0.97148101  0.37500000  1
  Mg  Mg3_3  1  0.25000000  0.97148101  0.87500000  1
  Mg  Mg3_4  1  0.75000000  0.47148101  0.37500000  1
  Mg  Mg3_5  1  0.75000000  0.47148101  0.87500000  1
  Mg  Mg3_6  1  0.75000000  0.97148101  0.37500000  1
  Mg  Mg3_7  1  0.75000000  0.97148101  0.87500000  1
  Mg  Mg4_0  1  0.25000000  0.02849599  0.12500000  1
  Mg  Mg4_1  1  0.25000000  0.02849600  0.62500000  1
  Mg  Mg4_2  1  0.25000000  0.52849600  0.12500000  1
  Mg  Mg4_3  1  0.25000000  0.52849599  0.62500000  1
  Mg  Mg4_4  1  0.75000000  0.02849599  0.12500000  1
  Mg  Mg4_5  1  0.75000000  0.02849599  0.62500000  1
  Mg  Mg4_6  1  0.75000000  0.52849600  0.12500000  1
  Mg  Mg4_7  1  0.75000000  0.52849599  0.62500000  1
  Mg  Mg5_0  1  0.00000000  0.11270527  0.12500000  1
  Mg  Mg5_1  1  0.00000000  0.11270527  0.62500000  1
  Mg  Mg5_2  1  0.00000000  0.61270527  0.12500000  1
  Mg  Mg5_3  1  0.00000000  0.61270527  0.62500000  1
  Mg  Mg5_4  1  0.50000000  0.11270527  0.12500000  1
  Mg  Mg5_5  1  0.50000000  0.11270527  0.62500000  1
  Mg  Mg5_6  1  0.50000000  0.61270527  0.12500000  1
  Mg  Mg5_7  1  0.50000000  0.61270527  0.62500000  1
  Mg  Mg6_0  1  0.25000000  0.13729523  0.37500000  1
  Mg  Mg6_1  1  0.25000000  0.13729523  0.87500000  1
  Mg  Mg6_2  1  0.25000000  0.63729523  0.37500000  1
  Mg  Mg6_3  1  0.25000000  0.63729523  0.87500000  1
  Mg  Mg6_4  1  0.75000000  0.13729523  0.37500000  1
  Mg  Mg6_5  1  0.75000000  0.13729523  0.87500000  1
  Mg  Mg6_6  1  0.75000000  0.63729523  0.37500000  1
  Mg  Mg6_7  1  0.75000000  0.63729523  0.87500000  1
  Mg  Mg7_0  1  0.00000000  0.22150451  0.37500000  1
  Mg  Mg7_1  1  0.00000000  0.22150451  0.87500000  1
  Mg  Mg7_2  1  0.00000000  0.72150450  0.37500000  1
  Mg  Mg7_3  1  0.00000000  0.72150451  0.87500000  1
  Mg  Mg7_4  1  0.50000000  0.22150451  0.37500000  1
  Mg  Mg7_5  1  0.50000000  0.22150451  0.87500000  1
  Mg  Mg7_6  1  0.50000000  0.72150451  0.37500000  1
  Mg  Mg7_7  1  0.50000000  0.72150451  0.87500000  1
  Cd  Cd0_0  1  0.00000000  0.44400309  0.12500000  1
  Cd  Cd0_1  1  0.00000000  0.44400309  0.62500000  1
  Cd  Cd0_2  1  0.00000000  0.94400309  0.12500000  1
  Cd  Cd0_3  1  0.00000000  0.94400308  0.62500000  1
  Cd  Cd0_4  1  0.50000000  0.44400309  0.12500000  1
  Cd  Cd0_5  1  0.50000000  0.44400308  0.62500000  1
  Cd  Cd0_6  1  0.50000000  0.94400308  0.12500000  1
  Cd  Cd0_7  1  0.50000000  0.94400308  0.62500000  1
  Cd  Cd1_0  1  0.25000000  0.30599691  0.37500000  1
  Cd  Cd1_1  1  0.25000000  0.30599691  0.87500000  1
  Cd  Cd1_2  1  0.25000000  0.80599691  0.37500000  1
  Cd  Cd1_3  1  0.25000000  0.80599691  0.87500000  1
  Cd  Cd1_4  1  0.75000000  0.30599691  0.37500000  1
  Cd  Cd1_5  1  0.75000000  0.30599691  0.87500000  1
  Cd  Cd1_6  1  0.75000000  0.80599691  0.37500000  1
  Cd  Cd1_7  1  0.75000000  0.80599692  0.87500000  1
  Cd  Cd2_0  1  0.25000000  0.19402886  0.12500000  1
  Cd  Cd2_1  1  0.25000000  0.19402886  0.62500000  1
  Cd  Cd2_2  1  0.25000000  0.69402886  0.12500000  1
  Cd  Cd2_3  1  0.25000000  0.69402886  0.62500000  1
  Cd  Cd2_4  1  0.75000000  0.19402886  0.12500000  1
  Cd  Cd2_5  1  0.75000000  0.19402886  0.62500000  1
  Cd  Cd2_6  1  0.75000000  0.69402886  0.12500000  1
  Cd  Cd2_7  1  0.75000000  0.69402886  0.62500000  1
  Cd  Cd3_0  1  0.00000000  0.05597114  0.37500000  1
  Cd  Cd3_1  1  0.00000000  0.05597114  0.87500000  1
  Cd  Cd3_2  1  0.00000000  0.55597114  0.37500000  1
  Cd  Cd3_3  1  0.00000000  0.55597114  0.87500000  1
  Cd  Cd3_4  1  0.50000000  0.05597114  0.37500000  1
  Cd  Cd3_5  1  0.50000000  0.05597114  0.87500000  1
  Cd  Cd3_6  1  0.50000000  0.55597114  0.37500000  1
  Cd  Cd3_7  1  0.50000000  0.55597114  0.87500000  1
loop_
_geom_bond_atom_site_label_1
_geom_bond_atom_site_label_2
_geom_bond_distance
_geom_bond_site_symmetry_2
Mg0_0 Mg7_0 3.095440 1_555
Mg0_0 Mg7_1 3.095441 1_554
Mg0_0 Mg1_4 3.111650 1_455
Mg0_0 Mg1_0 3.111650 1_555
Mg0_0 Mg0_4 3.204976 1_555
Mg0_0 Mg0_4 3.204976 1_455
Mg0_1 Mg7_1 3.095440 1_555
Mg0_1 Mg7_0 3.095441 1_555
Mg0_1 Mg1_5 3.111650 1_455
Mg0_1 Mg1_1 3.111650 1_555
Mg0_1 Mg0_5 3.204976 1_455
Mg0_1 Mg0_5 3.204976 1_555
Mg0_2 Mg7_2 3.095440 1_555
Mg0_2 Mg7_3 3.095441 1_554
Mg0_2 Mg1_6 3.111650 1_455
Mg0_2 Mg1_2 3.111650 1_555
Mg0_2 Mg0_6 3.204976 1_455
Mg0_2 Mg0_6 3.204976 1_555
Mg0_3 Mg7_3 3.095440 1_555
Mg0_3 Mg7_2 3.095441 1_555
Mg0_3 Mg1_7 3.111650 1_455
Mg0_3 Mg1_3 3.111650 1_555
Mg0_3 Mg0_7 3.204976 1_555
Mg0_3 Mg0_7 3.204976 1_455
Mg0_4 Mg7_4 3.095440 1_555
Mg0_4 Mg7_5 3.095441 1_554
Mg0_4 Mg1_0 3.111650 1_555
Mg0_4 Mg1_4 3.111650 1_555
Mg0_5 Mg7_5 3.095440 1_555
Mg0_5 Mg7_4 3.095441 1_555
Mg0_5 Mg1_1 3.111650 1_555
Mg0_5 Mg1_5 3.111650 1_555
Mg0_6 Mg7_6 3.095440 1_555
Mg0_6 Mg7_7 3.095441 1_554
Mg0_6 Mg1_2 3.111650 1_555
Mg0_6 Mg1_6 3.111650 1_555
Mg0_7 Mg7_7 3.095440 1_555
Mg0_7 Mg7_6 3.095441 1_555
Mg0_7 Mg1_3 3.111650 1_555
Mg0_7 Mg1_7 3.111650 1_555
Mg1_0 Mg2_5 3.081170 1_554
Mg1_0 Mg2_0 3.081171 1_555
Mg1_0 Mg2_1 3.081171 1_554
Mg1_0 Mg2_4 3.081172 1_555
Mg1_0 Mg1_4 3.204976 1_455
Mg1_0 Mg1_4 3.204976 1_555
Mg1_1 Mg2_4 3.081170 1_555
Mg1_1 Mg2_1 3.081171 1_555
Mg1_1 Mg2_0 3.081171 1_555
Mg1_1 Mg2_5 3.081172 1_555
Mg1_1 Mg1_5 3.204976 1_455
Mg1_1 Mg1_5 3.204976 1_555
Mg1_2 Mg2_7 3.081170 1_554
Mg1_2 Mg2_2 3.081171 1_555
Mg1_2 Mg2_3 3.081171 1_554
Mg1_2 Mg2_6 3.081172 1_555
Mg1_2 Mg1_6 3.204976 1_555
Mg1_2 Mg1_6 3.204976 1_455
Mg1_3 Mg2_6 3.081170 1_555
Mg1_3 Mg2_3 3.081171 1_555
Mg1_3 Mg2_2 3.081171 1_555
Mg1_3 Mg2_7 3.081172 1_555
Mg1_3 Mg1_7 3.204976 1_555
Mg1_3 Mg1_7 3.204976 1_455
Mg1_4 Mg2_1 3.081170 1_654
Mg1_4 Mg2_4 3.081171 1_555
Mg1_4 Mg2_5 3.081171 1_554
Mg1_4 Mg2_0 3.081172 1_655
Mg1_5 Mg2_0 3.081170 1_655
Mg1_5 Mg2_5 3.081171 1_555
Mg1_5 Mg2_4 3.081171 1_555
Mg1_5 Mg2_1 3.081172 1_655
Mg1_6 Mg2_3 3.081170 1_654
Mg1_6 Mg2_6 3.081171 1_555
Mg1_6 Mg2_7 3.081171 1_554
Mg1_6 Mg2_2 3.081172 1_655
Mg1_7 Mg2_2 3.081170 1_655
Mg1_7 Mg2_7 3.081171 1_555
Mg1_7 Mg2_6 3.081171 1_555
Mg1_7 Mg2_3 3.081172 1_655
Mg2_0 Mg3_4 3.111664 1_455
Mg2_0 Mg3_0 3.111664 1_555
Mg2_0 Mg2_4 3.204976 1_455
Mg2_0 Mg2_4 3.204976 1_555
Mg2_1 Mg3_5 3.111664 1_455
Mg2_1 Mg3_1 3.111664 1_555
Mg2_1 Mg2_5 3.204976 1_455
Mg2_1 Mg2_5 3.204976 1_555
Mg2_2 Mg3_6 3.111664 1_455
Mg2_2 Mg3_2 3.111664 1_555
Mg2_2 Mg2_6 3.204976 1_555
Mg2_2 Mg2_6 3.204976 1_455
Mg2_3 Mg3_7 3.111664 1_455
Mg2_3 Mg3_3 3.111664 1_555
Mg2_3 Mg2_7 3.204976 1_555
Mg2_3 Mg2_7 3.204976 1_455
Mg2_4 Mg3_0 3.111664 1_555
Mg2_4 Mg3_4 3.111664 1_555
Mg2_5 Mg3_1 3.111664 1_555
Mg2_5 Mg3_5 3.111664 1_555
Mg2_6 Mg3_2 3.111664 1_555
Mg2_6 Mg3_6 3.111664 1_555
Mg2_7 Mg3_3 3.111664 1_555
Mg2_7 Mg3_7 3.111664 1_555
Mg3_0 Mg4_2 3.095449 1_555
Mg3_0 Mg4_3 3.095450 1_555
Mg3_0 Mg3_4 3.204976 1_555
Mg3_0 Mg3_4 3.204976 1_455
Mg3_1 Mg4_3 3.095449 1_555
Mg3_1 Mg4_2 3.095450 1_556
Mg3_1 Mg3_5 3.204976 1_555
Mg3_1 Mg3_5 3.204976 1_455
Mg3_2 Mg4_0 3.095449 1_565
Mg3_2 Mg4_1 3.095450 1_565
Mg3_2 Mg3_6 3.204976 1_555
Mg3_2 Mg3_6 3.204976 1_455
Mg3_3 Mg4_1 3.095449 1_565
Mg3_3 Mg4_0 3.095450 1_566
Mg3_3 Mg3_7 3.204976 1_555
Mg3_3 Mg3_7 3.204976 1_455
Mg3_4 Mg4_6 3.095449 1_555
Mg3_4 Mg4_7 3.095450 1_555
Mg3_5 Mg4_7 3.095449 1_555
Mg3_5 Mg4_6 3.095450 1_556
Mg3_6 Mg4_4 3.095449 1_565
Mg3_6 Mg4_5 3.095450 1_565
Mg3_7 Mg4_5 3.095449 1_565
Mg3_7 Mg4_4 3.095450 1_566
Mg4_0 Mg5_0 3.112300 1_555
Mg4_0 Mg5_4 3.112300 1_555
Mg4_0 Mg4_4 3.204976 1_555
Mg4_0 Mg4_4 3.204976 1_455
Mg4_1 Mg5_1 3.112300 1_555
Mg4_1 Mg5_5 3.112300 1_555
Mg4_1 Mg4_5 3.204976 1_455
Mg4_1 Mg4_5 3.204976 1_555
Mg4_2 Mg5_2 3.112300 1_555
Mg4_2 Mg5_6 3.112300 1_555
Mg4_2 Mg4_6 3.204976 1_455
Mg4_2 Mg4_6 3.204976 1_555
Mg4_3 Mg5_3 3.112300 1_555
Mg4_3 Mg5_7 3.112300 1_555
Mg4_3 Mg4_7 3.204976 1_455
Mg4_3 Mg4_7 3.204976 1_555
Mg4_4 Mg5_4 3.112300 1_555
Mg4_4 Mg5_0 3.112300 1_655
Mg4_5 Mg5_5 3.112300 1_555
Mg4_5 Mg5_1 3.112300 1_655
Mg4_6 Mg5_6 3.112300 1_555
Mg4_6 Mg5_2 3.112300 1_655
Mg4_7 Mg5_7 3.112300 1_555
Mg4_7 Mg5_3 3.112300 1_655
Mg5_0 Mg6_1 3.081163 1_554
Mg5_0 Mg6_4 3.081163 1_455
Mg5_0 Mg6_5 3.081164 1_454
Mg5_0 Mg6_0 3.081165 1_555
Mg5_0 Mg5_4 3.204976 1_455
Mg5_0 Mg5_4 3.204976 1_555
Mg5_1 Mg6_0 3.081163 1_555
Mg5_1 Mg6_5 3.081163 1_455
Mg5_1 Mg6_4 3.081164 1_455
Mg5_1 Mg6_1 3.081165 1_555
Mg5_1 Mg5_5 3.204976 1_455
Mg5_1 Mg5_5 3.204976 1_555
Mg5_2 Mg6_3 3.081163 1_554
Mg5_2 Mg6_6 3.081163 1_455
Mg5_2 Mg6_7 3.081164 1_454
Mg5_2 Mg6_2 3.081165 1_555
Mg5_2 Mg5_6 3.204976 1_455
Mg5_2 Mg5_6 3.204976 1_555
Mg5_3 Mg6_2 3.081163 1_555
Mg5_3 Mg6_7 3.081163 1_455
Mg5_3 Mg6_6 3.081164 1_455
Mg5_3 Mg6_3 3.081165 1_555
Mg5_3 Mg5_7 3.204976 1_555
Mg5_3 Mg5_7 3.204976 1_455
Mg5_4 Mg6_5 3.081163 1_554
Mg5_4 Mg6_0 3.081163 1_555
Mg5_4 Mg6_1 3.081164 1_554
Mg5_4 Mg6_4 3.081165 1_555
Mg5_5 Mg6_4 3.081163 1_555
Mg5_5 Mg6_1 3.081163 1_555
Mg5_5 Mg6_0 3.081164 1_555
Mg5_5 Mg6_5 3.081165 1_555
Mg5_6 Mg6_7 3.081163 1_554
Mg5_6 Mg6_2 3.081163 1_555
Mg5_6 Mg6_3 3.081164 1_554
Mg5_6 Mg6_6 3.081165 1_555
Mg5_7 Mg6_6 3.081163 1_555
Mg5_7 Mg6_3 3.081163 1_555
Mg5_7 Mg6_2 3.081164 1_555
Mg5_7 Mg6_7 3.081165 1_555
Mg6_0 Mg7_0 3.112300 1_555
Mg6_0 Mg7_4 3.112300 1_555
Mg6_0 Mg6_4 3.204976 1_555
Mg6_0 Mg6_4 3.204976 1_455
Mg6_1 Mg7_1 3.112300 1_555
Mg6_1 Mg7_5 3.112300 1_555
Mg6_1 Mg6_5 3.204976 1_555
Mg6_1 Mg6_5 3.204976 1_455
Mg6_2 Mg7_2 3.112300 1_555
Mg6_2 Mg7_6 3.112300 1_555
Mg6_2 Mg6_6 3.204976 1_555
Mg6_2 Mg6_6 3.204976 1_455
Mg6_3 Mg7_3 3.112300 1_555
Mg6_3 Mg7_7 3.112300 1_555
Mg6_3 Mg6_7 3.204976 1_555
Mg6_3 Mg6_7 3.204976 1_455
Mg6_4 Mg7_4 3.112300 1_555
Mg6_4 Mg7_0 3.112300 1_655
Mg6_5 Mg7_5 3.112300 1_555
Mg6_5 Mg7_1 3.112300 1_655
Mg6_6 Mg7_6 3.112300 1_555
Mg6_6 Mg7_2 3.112300 1_655
Mg6_7 Mg7_7 3.112300 1_555
Mg6_7 Mg7_3 3.112300 1_655
Mg7_0 Mg7_4 3.204976 1_555
Mg7_0 Mg7_4 3.204976 1_455
Mg7_1 Mg7_5 3.204976 1_455
Mg7_1 Mg7_5 3.204976 1_555
Mg7_2 Mg7_6 3.204976 1_555
Mg7_2 Mg7_6 3.204976 1_455
Mg7_3 Mg7_7 3.204976 1_455
Mg7_3 Mg7_7 3.204976 1_555
Cd0_0 Mg1_0 3.033620 1_555
Cd0_0 Mg1_4 3.033620 1_455
Cd0_0 Mg2_0 3.089782 1_555
Cd0_0 Mg2_1 3.089783 1_554
Cd0_0 Mg3_1 3.105562 1_554
Cd0_0 Mg3_4 3.105562 1_455
Cd0_0 Mg3_5 3.105563 1_454
Cd0_0 Mg3_0 3.105563 1_555
Cd0_0 Mg4_6 3.120008 1_455
Cd0_0 Mg4_2 3.120008 1_555
Cd0_0 Cd0_4 3.204976 1_455
Cd0_0 Cd0_4 3.204976 1_555
Cd0_1 Mg1_1 3.033620 1_555
Cd0_1 Mg1_5 3.033620 1_455
Cd0_1 Mg2_1 3.089782 1_555
Cd0_1 Mg2_0 3.089783 1_555
Cd0_1 Mg3_0 3.105562 1_555
Cd0_1 Mg3_5 3.105562 1_455
Cd0_1 Mg3_4 3.105563 1_455
Cd0_1 Mg3_1 3.105563 1_555
Cd0_1 Mg4_7 3.120008 1_455
Cd0_1 Mg4_3 3.120008 1_555
Cd0_1 Cd0_5 3.204976 1_455
Cd0_1 Cd0_5 3.204976 1_555
Cd0_2 Mg1_2 3.033620 1_555
Cd0_2 Mg1_6 3.033620 1_455
Cd0_2 Mg2_2 3.089782 1_555
Cd0_2 Mg2_3 3.089783 1_554
Cd0_2 Mg3_3 3.105562 1_554
Cd0_2 Mg3_6 3.105562 1_455
Cd0_2 Mg3_7 3.105563 1_454
Cd0_2 Mg3_2 3.105563 1_555
Cd0_2 Mg4_4 3.120008 1_465
Cd0_2 Mg4_0 3.120008 1_565
Cd0_2 Cd0_6 3.204976 1_455
Cd0_2 Cd0_6 3.204976 1_555
Cd0_3 Mg1_3 3.033620 1_555
Cd0_3 Mg1_7 3.033620 1_455
Cd0_3 Mg2_3 3.089782 1_555
Cd0_3 Mg2_2 3.089783 1_555
Cd0_3 Mg3_2 3.105562 1_555
Cd0_3 Mg3_7 3.105562 1_455
Cd0_3 Mg3_6 3.105563 1_455
Cd0_3 Mg3_3 3.105563 1_555
Cd0_3 Mg4_5 3.120008 1_465
Cd0_3 Mg4_1 3.120008 1_565
Cd0_3 Cd0_7 3.204976 1_455
Cd0_3 Cd0_7 3.204976 1_555
Cd0_4 Mg1_4 3.033620 1_555
Cd0_4 Mg1_0 3.033620 1_555
Cd0_4 Mg2_4 3.089782 1_555
Cd0_4 Mg2_5 3.089783 1_554
Cd0_4 Mg3_5 3.105562 1_554
Cd0_4 Mg3_0 3.105562 1_555
Cd0_4 Mg3_1 3.105563 1_554
Cd0_4 Mg3_4 3.105563 1_555
Cd0_4 Mg4_2 3.120008 1_555
Cd0_4 Mg4_6 3.120008 1_555
Cd0_5 Mg1_5 3.033620 1_555
Cd0_5 Mg1_1 3.033620 1_555
Cd0_5 Mg2_5 3.089782 1_555
Cd0_5 Mg2_4 3.089783 1_555
Cd0_5 Mg3_4 3.105562 1_555
Cd0_5 Mg3_1 3.105562 1_555
Cd0_5 Mg3_0 3.105563 1_555
Cd0_5 Mg3_5 3.105563 1_555
Cd0_5 Mg4_3 3.120008 1_555
Cd0_5 Mg4_7 3.120008 1_555
Cd0_6 Mg1_6 3.033620 1_555
Cd0_6 Mg1_2 3.033620 1_555
Cd0_6 Mg2_6 3.089782 1_555
Cd0_6 Mg2_7 3.089783 1_554
Cd0_6 Mg3_7 3.105562 1_554
Cd0_6 Mg3_2 3.105562 1_555
Cd0_6 Mg3_3 3.105563 1_554
Cd0_6 Mg3_6 3.105563 1_555
Cd0_6 Mg4_0 3.120008 1_565
Cd0_6 Mg4_4 3.120008 1_565
Cd0_7 Mg1_7 3.033620 1_555
Cd0_7 Mg1_3 3.033620 1_555
Cd0_7 Mg2_7 3.089782 1_555
Cd0_7 Mg2_6 3.089783 1_555
Cd0_7 Mg3_6 3.105562 1_555
Cd0_7 Mg3_3 3.105562 1_555
Cd0_7 Mg3_2 3.105563 1_555
Cd0_7 Mg3_7 3.105563 1_555
Cd0_7 Mg4_1 3.120008 1_565
Cd0_7 Mg4_5 3.120008 1_565
Cd1_0 Mg2_0 3.033607 1_555
Cd1_0 Mg2_4 3.033607 1_555
Cd1_0 Mg1_0 3.089772 1_555
Cd1_0 Mg1_1 3.089773 1_555
Cd1_0 Mg0_1 3.105562 1_555
Cd1_0 Mg0_4 3.105562 1_555
Cd1_0 Mg0_5 3.105563 1_555
Cd1_0 Mg0_0 3.105563 1_555
Cd1_0 Mg7_4 3.119994 1_555
Cd1_0 Mg7_0 3.119994 1_555
Cd1_0 Cd1_4 3.204976 1_455
Cd1_0 Cd1_4 3.204976 1_555
Cd1_1 Mg2_1 3.033607 1_555
Cd1_1 Mg2_5 3.033607 1_555
Cd1_1 Mg1_1 3.089772 1_555
Cd1_1 Mg1_0 3.089773 1_556
Cd1_1 Mg0_0 3.105562 1_556
Cd1_1 Mg0_5 3.105562 1_555
Cd1_1 Mg0_4 3.105563 1_556
Cd1_1 Mg0_1 3.105563 1_555
Cd1_1 Mg7_5 3.119994 1_555
Cd1_1 Mg7_1 3.119994 1_555
Cd1_1 Cd1_5 3.204976 1_455
Cd1_1 Cd1_5 3.204976 1_555
Cd1_2 Mg2_2 3.033607 1_555
Cd1_2 Mg2_6 3.033607 1_555
Cd1_2 Mg1_2 3.089772 1_555
Cd1_2 Mg1_3 3.089773 1_555
Cd1_2 Mg0_3 3.105562 1_555
Cd1_2 Mg0_6 3.105562 1_555
Cd1_2 Mg0_7 3.105563 1_555
Cd1_2 Mg0_2 3.105563 1_555
Cd1_2 Mg7_6 3.119994 1_555
Cd1_2 Mg7_2 3.119994 1_555
Cd1_2 Cd1_6 3.204976 1_455
Cd1_2 Cd1_6 3.204976 1_555
Cd1_3 Mg2_3 3.033607 1_555
Cd1_3 Mg2_7 3.033607 1_555
Cd1_3 Mg1_3 3.089772 1_555
Cd1_3 Mg1_2 3.089773 1_556
Cd1_3 Mg0_2 3.105562 1_556
Cd1_3 Mg0_7 3.105562 1_555
Cd1_3 Mg0_6 3.105563 1_556
Cd1_3 Mg0_3 3.105563 1_555
Cd1_3 Mg7_7 3.119994 1_555
Cd1_3 Mg7_3 3.119994 1_555
Cd1_3 Cd1_7 3.204976 1_455
Cd1_3 Cd1_7 3.204976 1_555
Cd1_4 Mg2_4 3.033607 1_555
Cd1_4 Mg2_0 3.033607 1_655
Cd1_4 Mg1_4 3.089772 1_555
Cd1_4 Mg1_5 3.089773 1_555
Cd1_4 Mg0_5 3.105562 1_555
Cd1_4 Mg0_0 3.105562 1_655
Cd1_4 Mg0_1 3.105563 1_655
Cd1_4 Mg0_4 3.105563 1_555
Cd1_4 Mg7_0 3.119994 1_655
Cd1_4 Mg7_4 3.119994 1_555
Cd1_5 Mg2_5 3.033607 1_555
Cd1_5 Mg2_1 3.033607 1_655
Cd1_5 Mg1_5 3.089772 1_555
Cd1_5 Mg1_4 3.089773 1_556
Cd1_5 Mg0_4 3.105562 1_556
Cd1_5 Mg0_1 3.105562 1_655
Cd1_5 Mg0_0 3.105563 1_656
Cd1_5 Mg0_5 3.105563 1_555
Cd1_5 Mg7_1 3.119994 1_655
Cd1_5 Mg7_5 3.119994 1_555
Cd1_6 Mg2_6 3.033607 1_555
Cd1_6 Mg2_2 3.033607 1_655
Cd1_6 Mg1_6 3.089772 1_555
Cd1_6 Mg1_7 3.089773 1_555
Cd1_6 Mg0_7 3.105562 1_555
Cd1_6 Mg0_2 3.105562 1_655
Cd1_6 Mg0_3 3.105563 1_655
Cd1_6 Mg0_6 3.105563 1_555
Cd1_6 Mg7_2 3.119994 1_655
Cd1_6 Mg7_6 3.119994 1_555
Cd1_7 Mg2_7 3.033607 1_555
Cd1_7 Mg2_3 3.033607 1_655
Cd1_7 Mg1_7 3.089772 1_555
Cd1_7 Mg1_6 3.089773 1_556
Cd1_7 Mg0_6 3.105562 1_556
Cd1_7 Mg0_3 3.105562 1_655
Cd1_7 Mg0_2 3.105563 1_656
Cd1_7 Mg0_7 3.105563 1_555
Cd1_7 Mg7_3 3.119994 1_655
Cd1_7 Mg7_7 3.119994 1_555
Cd2_0 Mg5_4 3.034288 1_555
Cd2_0 Mg5_0 3.034288 1_555
Cd2_0 Mg6_0 3.090256 1_555
Cd2_0 Mg6_1 3.090257 1_554
Cd2_0 Mg7_5 3.105541 1_554
Cd2_0 Mg7_0 3.105542 1_555
Cd2_0 Mg7_1 3.105543 1_554
Cd2_0 Mg7_4 3.105543 1_555
Cd2_0 Mg0_0 3.119932 1_555
Cd2_0 Mg0_4 3.119932 1_555
Cd2_0 Cd2_4 3.204976 1_555
Cd2_0 Cd2_4 3.204976 1_455
Cd2_1 Mg5_5 3.034288 1_555
Cd2_1 Mg5_1 3.034288 1_555
Cd2_1 Mg6_1 3.090256 1_555
Cd2_1 Mg6_0 3.090257 1_555
Cd2_1 Mg7_4 3.105541 1_555
Cd2_1 Mg7_1 3.105542 1_555
Cd2_1 Mg7_0 3.105543 1_555
Cd2_1 Mg7_5 3.105543 1_555
Cd2_1 Mg0_1 3.119932 1_555
Cd2_1 Mg0_5 3.119932 1_555
Cd2_1 Cd2_5 3.204976 1_555
Cd2_1 Cd2_5 3.204976 1_455
Cd2_2 Mg5_6 3.034288 1_555
Cd2_2 Mg5_2 3.034288 1_555
Cd2_2 Mg6_2 3.090256 1_555
Cd2_2 Mg6_3 3.090257 1_554
Cd2_2 Mg7_7 3.105541 1_554
Cd2_2 Mg7_2 3.105542 1_555
Cd2_2 Mg7_3 3.105543 1_554
Cd2_2 Mg7_6 3.105543 1_555
Cd2_2 Mg0_2 3.119932 1_555
Cd2_2 Mg0_6 3.119932 1_555
Cd2_2 Cd2_6 3.204976 1_555
Cd2_2 Cd2_6 3.204976 1_455
Cd2_3 Mg5_7 3.034288 1_555
Cd2_3 Mg5_3 3.034288 1_555
Cd2_3 Mg6_3 3.090256 1_555
Cd2_3 Mg6_2 3.090257 1_555
Cd2_3 Mg7_6 3.105541 1_555
Cd2_3 Mg7_3 3.105542 1_555
Cd2_3 Mg7_2 3.105543 1_555
Cd2_3 Mg7_7 3.105543 1_555
Cd2_3 Mg0_3 3.119932 1_555
Cd2_3 Mg0_7 3.119932 1_555
Cd2_3 Cd2_7 3.204976 1_555
Cd2_3 Cd2_7 3.204976 1_455
Cd2_4 Mg5_0 3.034288 1_655
Cd2_4 Mg5_4 3.034288 1_555
Cd2_4 Mg6_4 3.090256 1_555
Cd2_4 Mg6_5 3.090257 1_554
Cd2_4 Mg7_1 3.105541 1_654
Cd2_4 Mg7_4 3.105542 1_555
Cd2_4 Mg7_5 3.105543 1_554
Cd2_4 Mg7_0 3.105543 1_655
Cd2_4 Mg0_4 3.119932 1_555
Cd2_4 Mg0_0 3.119932 1_655
Cd2_5 Mg5_1 3.034288 1_655
Cd2_5 Mg5_5 3.034288 1_555
Cd2_5 Mg6_5 3.090256 1_555
Cd2_5 Mg6_4 3.090257 1_555
Cd2_5 Mg7_0 3.105541 1_655
Cd2_5 Mg7_5 3.105542 1_555
Cd2_5 Mg7_4 3.105543 1_555
Cd2_5 Mg7_1 3.105543 1_655
Cd2_5 Mg0_5 3.119932 1_555
Cd2_5 Mg0_1 3.119932 1_655
Cd2_6 Mg5_2 3.034288 1_655
Cd2_6 Mg5_6 3.034288 1_555
Cd2_6 Mg6_6 3.090256 1_555
Cd2_6 Mg6_7 3.090257 1_554
Cd2_6 Mg7_3 3.105541 1_654
Cd2_6 Mg7_6 3.105542 1_555
Cd2_6 Mg7_7 3.105543 1_554
Cd2_6 Mg7_2 3.105543 1_655
Cd2_6 Mg0_6 3.119932 1_555
Cd2_6 Mg0_2 3.119932 1_655
Cd2_7 Mg5_3 3.034288 1_655
Cd2_7 Mg5_7 3.034288 1_555
Cd2_7 Mg6_7 3.090256 1_555
Cd2_7 Mg6_6 3.090257 1_555
Cd2_7 Mg7_2 3.105541 1_655
Cd2_7 Mg7_7 3.105542 1_555
Cd2_7 Mg7_6 3.105543 1_555
Cd2_7 Mg7_3 3.105543 1_655
Cd2_7 Mg0_7 3.119932 1_555
Cd2_7 Mg0_3 3.119932 1_655
Cd3_0 Mg6_4 3.034301 1_455
Cd3_0 Mg6_0 3.034301 1_555
Cd3_0 Mg5_0 3.090265 1_555
Cd3_0 Mg5_1 3.090266 1_555
Cd3_0 Mg4_5 3.105537 1_455
Cd3_0 Mg4_0 3.105537 1_555
Cd3_0 Mg4_1 3.105538 1_555
Cd3_0 Mg4_4 3.105539 1_455
Cd3_0 Mg3_2 3.119932 1_545
Cd3_0 Mg3_6 3.119932 1_445
Cd3_0 Cd3_4 3.204976 1_455
Cd3_0 Cd3_4 3.204976 1_555
Cd3_1 Mg6_5 3.034301 1_455
Cd3_1 Mg6_1 3.034301 1_555
Cd3_1 Mg5_1 3.090265 1_555
Cd3_1 Mg5_0 3.090266 1_556
Cd3_1 Mg4_4 3.105537 1_456
Cd3_1 Mg4_1 3.105537 1_555
Cd3_1 Mg4_0 3.105538 1_556
Cd3_1 Mg4_5 3.105539 1_455
Cd3_1 Mg3_3 3.119932 1_545
Cd3_1 Mg3_7 3.119932 1_445
Cd3_1 Cd3_5 3.204976 1_555
Cd3_1 Cd3_5 3.204976 1_455
Cd3_2 Mg6_6 3.034301 1_455
Cd3_2 Mg6_2 3.034301 1_555
Cd3_2 Mg5_2 3.090265 1_555
Cd3_2 Mg5_3 3.090266 1_555
Cd3_2 Mg4_7 3.105537 1_455
Cd3_2 Mg4_2 3.105537 1_555
Cd3_2 Mg4_3 3.105538 1_555
Cd3_2 Mg4_6 3.105539 1_455
Cd3_2 Mg3_0 3.119932 1_555
Cd3_2 Mg3_4 3.119932 1_455
Cd3_2 Cd3_6 3.204976 1_555
Cd3_2 Cd3_6 3.204976 1_455
Cd3_3 Mg6_7 3.034301 1_455
Cd3_3 Mg6_3 3.034301 1_555
Cd3_3 Mg5_3 3.090265 1_555
Cd3_3 Mg5_2 3.090266 1_556
Cd3_3 Mg4_6 3.105537 1_456
Cd3_3 Mg4_3 3.105537 1_555
Cd3_3 Mg4_2 3.105538 1_556
Cd3_3 Mg4_7 3.105539 1_455
Cd3_3 Mg3_1 3.119932 1_555
Cd3_3 Mg3_5 3.119932 1_455
Cd3_3 Cd3_7 3.204976 1_455
Cd3_3 Cd3_7 3.204976 1_555
Cd3_4 Mg6_0 3.034301 1_555
Cd3_4 Mg6_4 3.034301 1_555
Cd3_4 Mg5_4 3.090265 1_555
Cd3_4 Mg5_5 3.090266 1_555
Cd3_4 Mg4_1 3.105537 1_555
Cd3_4 Mg4_4 3.105537 1_555
Cd3_4 Mg4_5 3.105538 1_555
Cd3_4 Mg4_0 3.105539 1_555
Cd3_4 Mg3_6 3.119932 1_545
Cd3_4 Mg3_2 3.119932 1_545
Cd3_5 Mg6_1 3.034301 1_555
Cd3_5 Mg6_5 3.034301 1_555
Cd3_5 Mg5_5 3.090265 1_555
Cd3_5 Mg5_4 3.090266 1_556
Cd3_5 Mg4_0 3.105537 1_556
Cd3_5 Mg4_5 3.105537 1_555
Cd3_5 Mg4_4 3.105538 1_556
Cd3_5 Mg4_1 3.105539 1_555
Cd3_5 Mg3_7 3.119932 1_545
Cd3_5 Mg3_3 3.119932 1_545
Cd3_6 Mg6_2 3.034301 1_555
Cd3_6 Mg6_6 3.034301 1_555
Cd3_6 Mg5_6 3.090265 1_555
Cd3_6 Mg5_7 3.090266 1_555
Cd3_6 Mg4_3 3.105537 1_555
Cd3_6 Mg4_6 3.105537 1_555
Cd3_6 Mg4_7 3.105538 1_555
Cd3_6 Mg4_2 3.105539 1_555
Cd3_6 Mg3_4 3.119932 1_555
Cd3_6 Mg3_0 3.119932 1_555
Cd3_7 Mg6_3 3.034301 1_555
Cd3_7 Mg6_7 3.034301 1_555
Cd3_7 Mg5_7 3.090265 1_555
Cd3_7 Mg5_6 3.090266 1_556
Cd3_7 Mg4_2 3.105537 1_556
Cd3_7 Mg4_7 3.105537 1_555
Cd3_7 Mg4_6 3.105538 1_556
Cd3_7 Mg4_3 3.105539 1_555
Cd3_7 Mg3_5 3.119932 1_555
Cd3_7 Mg3_1 3.119932 1_555
