# generated using pymatgen
data_RbCu2H3(SO5)2
_symmetry_space_group_name_H-M   'P 1'
_cell_length_a   5.65450640
_cell_length_b   5.65450640
_cell_length_c   8.01149535
_cell_angle_alpha   67.29185463
_cell_angle_beta   67.29185463
_cell_angle_gamma   70.48282421
_symmetry_Int_Tables_number   1
_chemical_formula_structural   RbCu2H3(SO5)2
_chemical_formula_sum   'Rb1 Cu2 H3 S2 O10'
_cell_volume   212.76451754
_cell_formula_units_Z   1
loop_
 _symmetry_equiv_pos_site_id
 _symmetry_equiv_pos_as_xyz
  1  'x, y, z'
loop_
 _atom_site_type_symbol
 _atom_site_label
 _atom_site_symmetry_multiplicity
 _atom_site_fract_x
 _atom_site_fract_y
 _atom_site_fract_z
 _atom_site_occupancy
  Rb  Rb0  1  0.50083500  0.50083500  0.49950700  1
  Cu  Cu0  1  0.49659100  0.99509100  0.99546500  1
  Cu  Cu1  1  0.99509100  0.49659100  0.99546500  1
  H  H0  1  0.29904600  0.29904600  0.21513300  1
  H  H1  1  0.69889800  0.69889800  0.79355200  1
  H  H2  1  0.47445500  0.47445500  0.01682000  1
  S  S0  1  0.92782500  0.92782500  0.27680300  1
  S  S1  1  0.07187300  0.07187400  0.72216100  1
  O  O0  1  0.84605900  0.22555100  0.21956700  1
  O  O1  1  0.22555100  0.84605900  0.21956700  1
  O  O2  1  0.15505800  0.77500000  0.78043600  1
  O  O3  1  0.77500000  0.15505800  0.78043600  1
  O  O4  1  0.34498800  0.34498800  0.07584800  1
  O  O5  1  0.65885100  0.65885100  0.93192300  1
  O  O6  1  0.82344500  0.82344500  0.18290800  1
  O  O7  1  0.17727500  0.17727500  0.81611800  1
  O  O8  1  0.82945200  0.82945200  0.48395700  1
  O  O9  1  0.17200800  0.17200800  0.51533500  1
loop_
_geom_bond_atom_site_label_1
_geom_bond_atom_site_label_2
_geom_bond_distance
_geom_bond_site_symmetry_2
Cu0 O1 1.962860 1_556
Cu0 O3 1.979579 1_565
Cu0 O5 1.984153 1_555
Cu0 O4 2.118551 1_566
Cu0 O7 2.450143 1_565
Cu0 O6 2.536119 1_556
Cu1 O0 1.962860 1_556
Cu1 O2 1.979579 1_655
Cu1 O5 1.984153 1_555
Cu1 O4 2.118551 1_656
Cu1 O7 2.450143 1_655
Cu1 O6 2.536119 1_556
H0 O4 0.988752 1_555
H1 O5 0.988987 1_555
H2 O4 1.057833 1_555
H2 O5 1.506077 1_554
O0 S0 1.518477 1_545
O0 Rb0 2.923754 1_555
O1 S0 1.518477 1_455
O1 Rb0 2.923754 1_555
O2 S1 1.514606 1_565
O2 Rb0 2.926203 1_555
O3 S1 1.514601 1_655
O3 Rb0 2.926203 1_555
O6 S0 1.476794 1_555
O6 Rb0 2.857917 1_555
O7 S1 1.485636 1_555
O7 Rb0 2.863430 1_555
O8 S0 1.467785 1_555
O8 Rb0 2.978374 1_555
O9 S1 1.467065 1_555
O9 Rb0 2.979334 1_555
