# generated using pymatgen
data_Mg14SiMo
_symmetry_space_group_name_H-M   'P 1'
_cell_length_a   6.20451912
_cell_length_b   6.12467083
_cell_length_c   10.07777383
_cell_angle_alpha   90.00000000
_cell_angle_beta   90.00000000
_cell_angle_gamma   119.57519487
_symmetry_Int_Tables_number   1
_chemical_formula_structural   Mg14SiMo
_chemical_formula_sum   'Mg14 Si1 Mo1'
_cell_volume   333.06522954
_cell_formula_units_Z   1
loop_
 _symmetry_equiv_pos_site_id
 _symmetry_equiv_pos_as_xyz
  1  'x, y, z'
loop_
 _atom_site_type_symbol
 _atom_site_label
 _atom_site_symmetry_multiplicity
 _atom_site_fract_x
 _atom_site_fract_y
 _atom_site_fract_z
 _atom_site_occupancy
  Mg  Mg0  1  0.16726569  0.33363235  0.62500000  1
  Mg  Mg1  1  0.16700163  0.83350031  0.62500000  1
  Mg  Mg2  1  0.66921452  0.33577189  0.12500000  1
  Mg  Mg3  1  0.66445314  0.33233933  0.62500000  1
  Mg  Mg4  1  0.66921452  0.83344164  0.12500000  1
  Mg  Mg5  1  0.66445314  0.83211281  0.62500000  1
  Mg  Mg6  1  0.32822155  0.16237694  0.36211550  1
  Mg  Mg7  1  0.32822155  0.16237694  0.88788450  1
  Mg  Mg8  1  0.32822155  0.66584560  0.36211550  1
  Mg  Mg9  1  0.32822155  0.66584560  0.88788450  1
  Mg  Mg10  1  0.83875138  0.16937619  0.37213734  1
  Mg  Mg11  1  0.83875138  0.16937619  0.87786266  1
  Mg  Mg12  1  0.84266996  0.67133548  0.37013146  1
  Mg  Mg13  1  0.84266996  0.67133548  0.87986854  1
  Si  Si0  1  0.16057403  0.33028652  0.12500000  1
  Mo  Mo0  1  0.16209446  0.83104673  0.12500000  1
loop_
_geom_bond_atom_site_label_1
_geom_bond_atom_site_label_2
_geom_bond_distance
_geom_bond_site_symmetry_2
Mg0 Mg1 3.062336 1_555
Mg0 Mg1 3.062336 1_545
Mg0 Mg5 3.088725 1_555
Mg0 Mg3 3.088725 1_555
Mg0 Mg11 3.104235 1_455
Mg0 Mg10 3.104235 1_455
Mg0 Mg5 3.115809 1_445
Mg0 Mg3 3.115809 1_455
Mg0 Mg7 3.185937 1_555
Mg0 Mg6 3.185937 1_555
Mg0 Mg9 3.185943 1_555
Mg0 Mg8 3.185943 1_555
Mg1 Mg3 3.090650 1_565
Mg1 Mg5 3.090651 1_555
Mg1 Mg12 3.108086 1_455
Mg1 Mg13 3.108086 1_455
Mg1 Mg3 3.113886 1_455
Mg1 Mg5 3.113886 1_455
Mg1 Mg9 3.176101 1_555
Mg1 Mg8 3.176101 1_555
Mg1 Mg7 3.176106 1_565
Mg1 Mg6 3.176106 1_565
Mg2 Mg7 3.015996 1_554
Mg2 Mg6 3.015996 1_555
Mg2 Mg4 3.048063 1_555
Mg2 Mo0 3.065349 1_655
Mg2 Si0 3.065371 1_655
Mg2 Mg4 3.076607 1_545
Mg2 Mo0 3.139222 1_545
Mg2 Si0 3.139424 1_555
Mg3 Mg5 3.060948 1_555
Mg3 Mg5 3.063723 1_545
Mg3 Mg7 3.211032 1_555
Mg3 Mg6 3.211032 1_555
Mg4 Mg8 3.015997 1_555
Mg4 Mg9 3.015997 1_554
Mg4 Mo0 3.065349 1_655
Mg4 Si0 3.065370 1_665
Mg4 Mo0 3.139222 1_555
Mg4 Si0 3.139424 1_555
Mg5 Mg9 3.211032 1_555
Mg5 Mg8 3.211032 1_555
Mg6 Mo0 2.970834 1_545
Mg6 Si0 2.984234 1_555
Mg7 Mo0 2.970834 1_546
Mg7 Si0 2.984234 1_556
Mg8 Mo0 2.970828 1_555
Mg8 Si0 2.984240 1_555
Mg9 Mo0 2.970828 1_556
Mg9 Si0 2.984240 1_556
Mg10 Si0 3.036251 1_655
Mg10 Mg8 3.059979 1_655
Mg10 Mg6 3.059980 1_655
Mg10 Mg12 3.062475 1_555
Mg10 Mg12 3.062475 1_545
Mg10 Mg2 3.066978 1_555
Mg10 Mg4 3.066984 1_545
Mg10 Mg3 3.118490 1_555
Mg10 Mg5 3.118496 1_545
Mg10 Mg8 3.148275 1_545
Mg10 Mg6 3.148275 1_555
Mg11 Si0 3.036251 1_656
Mg11 Mg9 3.059979 1_655
Mg11 Mg7 3.059980 1_655
Mg11 Mg13 3.062475 1_555
Mg11 Mg13 3.062475 1_545
Mg11 Mg2 3.066978 1_556
Mg11 Mg4 3.066984 1_546
Mg11 Mg3 3.118490 1_555
Mg11 Mg5 3.118496 1_545
Mg11 Mg9 3.148275 1_545
Mg11 Mg7 3.148275 1_555
Mg12 Mo0 3.012268 1_655
Mg12 Mg4 3.049836 1_555
Mg12 Mg2 3.049842 1_555
Mg12 Mg5 3.140763 1_555
Mg12 Mg3 3.140769 1_555
Mg13 Mo0 3.012268 1_656
Mg13 Mg4 3.049836 1_556
Mg13 Mg2 3.049842 1_556
Mg13 Mg5 3.140763 1_555
Mg13 Mg3 3.140769 1_555
Mo0 Si0 3.062346 1_555
Mo0 Si0 3.062346 1_565
