# generated using pymatgen
data_K3BeF5
_symmetry_space_group_name_H-M   'P 1'
_cell_length_a   7.32329307
_cell_length_b   7.32328949
_cell_length_c   7.32318216
_cell_angle_alpha   122.22832089
_cell_angle_beta   122.22835137
_cell_angle_gamma   86.18166070
_symmetry_Int_Tables_number   1
_chemical_formula_structural   K3BeF5
_chemical_formula_sum   'K6 Be2 F10'
_cell_volume   267.71308666
_cell_formula_units_Z   2
loop_
 _symmetry_equiv_pos_site_id
 _symmetry_equiv_pos_as_xyz
  1  'x, y, z'
loop_
 _atom_site_type_symbol
 _atom_site_label
 _atom_site_symmetry_multiplicity
 _atom_site_fract_x
 _atom_site_fract_y
 _atom_site_fract_z
 _atom_site_occupancy
  K  K0  1  0.17815870  0.67815885  0.85631489  1
  K  K1  1  0.32184505  0.17815101  0.50000010  1
  K  K2  1  0.82184178  0.32184174  0.14368256  1
  K  K3  1  0.67815512  0.82184878  0.50000061  1
  K  K4  1  0.74999922  0.75000162  0.00000005  1
  K  K5  1  0.25000143  0.24999792  -0.00000017  1
  Be  Be0  1  0.75003853  0.25004006  0.50003163  1
  Be  Be1  1  0.24996163  0.74996038  0.49996874  1
  F  F0  1  0.71037938  0.46134072  0.50000805  1
  F  F1  1  0.03866092  0.78962088  0.49999305  1
  F  F2  1  0.46130727  0.96130693  0.75093121  1
  F  F3  1  0.21036614  0.71036642  0.24904260  1
  F  F4  1  0.49999999  0.50000007  0.00000022  1
  F  F5  1  0.00000014  -0.00000027  0.00000025  1
  F  F6  1  0.78963355  0.28963329  0.75095667  1
  F  F7  1  0.53869196  0.03869233  0.24906852  1
  F  F8  1  0.28962085  0.53866017  0.49999273  1
  F  F9  1  0.96133931  0.21037910  0.50000730  1
loop_
_geom_bond_atom_site_label_1
_geom_bond_atom_site_label_2
_geom_bond_distance
_geom_bond_site_symmetry_2
Be0 F0 1.555385 1_555
Be0 F9 1.555391 1_555
Be0 F6 1.555446 1_555
Be0 F7 1.555611 1_555
Be1 F8 1.555383 1_555
Be1 F1 1.555390 1_555
Be1 F3 1.555450 1_555
Be1 F2 1.555604 1_555
F0 K3 2.634958 1_555
F0 K0 2.799383 1_655
F0 K2 2.799393 1_555
F0 K4 2.941536 1_556
F0 K5 2.941625 1_555
F1 K3 2.634944 1_455
F1 K0 2.799367 1_555
F1 K2 2.799382 1_455
F1 K4 2.941544 1_455
F1 K5 2.941619 1_566
F2 K2 2.635135 1_566
F2 K1 2.799356 1_565
F2 K3 2.799380 1_555
F2 K4 2.941593 1_556
F2 K5 2.941594 1_566
F3 K0 2.634976 1_554
F3 K1 2.799421 1_565
F3 K3 2.799451 1_555
F3 K4 2.941586 1_455
F3 K5 2.941595 1_555
F4 K1 2.602705 1_554
F4 K3 2.602706 1_555
F4 K2 2.602712 1_555
F4 K0 2.602716 1_554
F4 K5 2.673998 1_555
F4 K4 2.674001 1_555
F5 K3 2.602703 1_444
F5 K1 2.602703 1_555
F5 K0 2.602714 1_544
F5 K2 2.602714 1_455
F5 K4 2.673990 1_445
F5 K5 2.673995 1_555
F6 K2 2.634957 1_556
F6 K3 2.799422 1_545
F6 K1 2.799449 1_555
F6 K4 2.941592 1_556
F6 K5 2.941592 1_656
F7 K0 2.635126 1_544
F7 K3 2.799358 1_545
F7 K1 2.799379 1_555
F7 K5 2.941590 1_555
F7 K4 2.941601 1_545
F8 K1 2.634966 1_555
F8 K0 2.799370 1_555
F8 K2 2.799381 1_455
F8 K5 2.941544 1_555
F8 K4 2.941625 1_556
F9 K1 2.634942 1_655
F9 K0 2.799386 1_655
F9 K2 2.799390 1_555
F9 K5 2.941543 1_656
F9 K4 2.941622 1_545
