# generated using pymatgen
data_KHf6CCl15
_symmetry_space_group_name_H-M   'P 1'
_cell_length_a   9.73991100
_cell_length_b   13.94139000
_cell_length_c   18.57733800
_cell_angle_alpha   90.00000000
_cell_angle_beta   90.00000000
_cell_angle_gamma   90.00000000
_symmetry_Int_Tables_number   1
_chemical_formula_structural   KHf6CCl15
_chemical_formula_sum   'K4 Hf24 C4 Cl60'
_cell_volume   2522.57767404
_cell_formula_units_Z   4
loop_
 _symmetry_equiv_pos_site_id
 _symmetry_equiv_pos_as_xyz
  1  'x, y, z'
loop_
 _atom_site_type_symbol
 _atom_site_label
 _atom_site_symmetry_multiplicity
 _atom_site_fract_x
 _atom_site_fract_y
 _atom_site_fract_z
 _atom_site_occupancy
  K  K0  1  0.83068800  0.24742000  0.75000000  1
  K  K1  1  0.16931200  0.75258000  0.25000000  1
  K  K2  1  0.83068800  0.75258000  0.75000000  1
  K  K3  1  0.16931200  0.24742000  0.25000000  1
  Hf  Hf0  1  0.11542100  0.50000000  0.75000000  1
  Hf  Hf1  1  0.88457900  0.50000000  0.25000000  1
  Hf  Hf2  1  0.08044200  0.00000000  0.11249800  1
  Hf  Hf3  1  0.91955800  0.00000000  0.88750200  1
  Hf  Hf4  1  0.08044200  0.00000000  0.38750200  1
  Hf  Hf5  1  0.91955800  0.00000000  0.61249800  1
  Hf  Hf6  1  0.34227700  0.38496800  0.66344200  1
  Hf  Hf7  1  0.65772300  0.61503200  0.33655800  1
  Hf  Hf8  1  0.34227700  0.61503200  0.83655800  1
  Hf  Hf9  1  0.65772300  0.38496800  0.33655800  1
  Hf  Hf10  1  0.65772300  0.38496800  0.16344200  1
  Hf  Hf11  1  0.34227700  0.61503200  0.66344200  1
  Hf  Hf12  1  0.65772300  0.61503200  0.16344200  1
  Hf  Hf13  1  0.34227700  0.38496800  0.83655800  1
  Hf  Hf14  1  0.57143500  0.50000000  0.75000000  1
  Hf  Hf15  1  0.42856500  0.50000000  0.25000000  1
  Hf  Hf16  1  0.15534200  0.11472200  0.52945900  1
  Hf  Hf17  1  0.84465800  0.88527800  0.47054100  1
  Hf  Hf18  1  0.15534200  0.88527800  0.97054100  1
  Hf  Hf19  1  0.84465800  0.11472200  0.47054100  1
  Hf  Hf20  1  0.84465800  0.11472200  0.02945900  1
  Hf  Hf21  1  0.15534200  0.88527800  0.52945900  1
  Hf  Hf22  1  0.84465800  0.88527800  0.02945900  1
  Hf  Hf23  1  0.15534200  0.11472200  0.97054100  1
  C  C0  1  0.00000000  0.00000000  0.50000000  1
  C  C1  1  0.00000000  0.00000000  0.00000000  1
  C  C2  1  0.34384000  0.50000000  0.75000000  1
  C  C3  1  0.65616000  0.50000000  0.25000000  1
  Cl  Cl0  1  0.81663900  0.00000000  0.75000000  1
  Cl  Cl1  1  0.18336100  0.00000000  0.25000000  1
  Cl  Cl2  1  0.84254500  0.50000000  0.75000000  1
  Cl  Cl3  1  0.15745500  0.50000000  0.25000000  1
  Cl  Cl4  1  0.34199600  0.50000000  0.55945800  1
  Cl  Cl5  1  0.65800400  0.50000000  0.44054200  1
  Cl  Cl6  1  0.34199600  0.50000000  0.94054200  1
  Cl  Cl7  1  0.65800400  0.50000000  0.05945800  1
  Cl  Cl8  1  0.00000000  0.25273800  0.50000000  1
  Cl  Cl9  1  0.00000000  0.74726200  0.50000000  1
  Cl  Cl10  1  0.00000000  0.74726200  0.00000000  1
  Cl  Cl11  1  0.00000000  0.25273800  0.00000000  1
  Cl  Cl12  1  0.35001500  0.24656100  0.75000000  1
  Cl  Cl13  1  0.64998500  0.75343900  0.25000000  1
  Cl  Cl14  1  0.35001500  0.75343900  0.75000000  1
  Cl  Cl15  1  0.64998500  0.24656100  0.25000000  1
  Cl  Cl16  1  0.33869300  0.24935000  0.56298000  1
  Cl  Cl17  1  0.66130700  0.75065000  0.43702000  1
  Cl  Cl18  1  0.33869300  0.75065000  0.93702000  1
  Cl  Cl19  1  0.66130700  0.24935000  0.43702000  1
  Cl  Cl20  1  0.66130700  0.24935000  0.06298000  1
  Cl  Cl21  1  0.33869300  0.75065000  0.56298000  1
  Cl  Cl22  1  0.66130700  0.75065000  0.06298000  1
  Cl  Cl23  1  0.33869300  0.24935000  0.93702000  1
  Cl  Cl24  1  0.08142400  0.12476000  0.65878200  1
  Cl  Cl25  1  0.91857600  0.87524000  0.34121800  1
  Cl  Cl26  1  0.08142400  0.87524000  0.84121800  1
  Cl  Cl27  1  0.91857600  0.12476000  0.34121800  1
  Cl  Cl28  1  0.91857600  0.12476000  0.15878200  1
  Cl  Cl29  1  0.08142400  0.87524000  0.65878200  1
  Cl  Cl30  1  0.91857600  0.87524000  0.15878200  1
  Cl  Cl31  1  0.08142400  0.12476000  0.84121800  1
  Cl  Cl32  1  0.08453200  0.37471300  0.65507600  1
  Cl  Cl33  1  0.91546800  0.62528700  0.34492400  1
  Cl  Cl34  1  0.08453200  0.62528700  0.84492400  1
  Cl  Cl35  1  0.91546800  0.37471300  0.34492400  1
  Cl  Cl36  1  0.91546800  0.37471300  0.15507600  1
  Cl  Cl37  1  0.08453200  0.62528700  0.65507600  1
  Cl  Cl38  1  0.91546800  0.62528700  0.15507600  1
  Cl  Cl39  1  0.08453200  0.37471300  0.84492400  1
  Cl  Cl40  1  0.34160300  0.00000000  0.56567900  1
  Cl  Cl41  1  0.65839700  0.00000000  0.43432100  1
  Cl  Cl42  1  0.34160300  0.00000000  0.93432100  1
  Cl  Cl43  1  0.65839700  0.00000000  0.06567900  1
  Cl  Cl44  1  0.60102900  0.37379700  0.65365800  1
  Cl  Cl45  1  0.39897100  0.62620300  0.34634200  1
  Cl  Cl46  1  0.60102900  0.62620300  0.84634200  1
  Cl  Cl47  1  0.39897100  0.37379700  0.34634200  1
  Cl  Cl48  1  0.39897100  0.37379700  0.15365800  1
  Cl  Cl49  1  0.60102900  0.62620300  0.65365800  1
  Cl  Cl50  1  0.39897100  0.62620300  0.15365800  1
  Cl  Cl51  1  0.60102900  0.37379700  0.84634200  1
  Cl  Cl52  1  0.26124300  0.12708200  0.09484000  1
  Cl  Cl53  1  0.73875700  0.87291800  0.90516000  1
  Cl  Cl54  1  0.26124300  0.87291800  0.40516000  1
  Cl  Cl55  1  0.73875700  0.12708200  0.90516000  1
  Cl  Cl56  1  0.73875700  0.12708200  0.59484000  1
  Cl  Cl57  1  0.26124300  0.87291800  0.09484000  1
  Cl  Cl58  1  0.73875700  0.87291800  0.59484000  1
  Cl  Cl59  1  0.26124300  0.12708200  0.40516000  1
loop_
_geom_bond_atom_site_label_1
_geom_bond_atom_site_label_2
_geom_bond_distance
_geom_bond_site_symmetry_2
C0 Hf4 2.231951 1_555
C0 Hf5 2.231951 1_455
C0 Hf21 2.268646 1_545
C0 Hf17 2.268646 1_445
C0 Hf19 2.268646 1_455
C0 Hf16 2.268646 1_555
C1 Hf3 2.231951 1_454
C1 Hf2 2.231951 1_555
C1 Hf18 2.268646 1_544
C1 Hf22 2.268646 1_445
C1 Hf23 2.268646 1_554
C1 Hf20 2.268646 1_455
C2 Hf14 2.216755 1_555
C2 Hf0 2.224781 1_555
C2 Hf8 2.271084 1_555
C2 Hf13 2.271084 1_555
C2 Hf6 2.271084 1_555
C2 Hf11 2.271084 1_555
C3 Hf15 2.216755 1_555
C3 Hf1 2.224781 1_555
C3 Hf10 2.271084 1_555
C3 Hf12 2.271084 1_555
C3 Hf9 2.271084 1_555
C3 Hf7 2.271084 1_555
Cl0 Hf3 2.744069 1_555
Cl0 Hf5 2.744069 1_555
Cl0 K2 3.452092 1_545
Cl0 K0 3.452092 1_555
Cl1 Hf4 2.744069 1_555
Cl1 Hf2 2.744069 1_555
Cl1 K1 3.452092 1_545
Cl1 K3 3.452092 1_555
Cl2 Hf14 2.640587 1_555
Cl2 Hf0 2.657788 1_655
Cl2 K0 3.523210 1_555
Cl2 K2 3.523210 1_555
Cl3 Hf15 2.640587 1_555
Cl3 Hf1 2.657788 1_455
Cl3 K1 3.523210 1_555
Cl3 K3 3.523210 1_555
Cl4 Hf11 2.510682 1_555
Cl4 Hf6 2.510682 1_555
Cl5 Hf9 2.510682 1_555
Cl5 Hf7 2.510682 1_555
Cl6 Hf13 2.510682 1_555
Cl6 Hf8 2.510682 1_555
Cl7 Hf10 2.510682 1_555
Cl7 Hf12 2.510682 1_555
Cl8 Hf19 2.508191 1_455
Cl8 Hf16 2.508191 1_555
Cl9 Hf17 2.508191 1_455
Cl9 Hf21 2.508191 1_555
Cl10 Hf18 2.508191 1_554
Cl10 Hf22 2.508191 1_455
Cl11 Hf20 2.508191 1_455
Cl11 Hf23 2.508191 1_554
Cl12 Hf13 2.512907 1_555
Cl12 Hf6 2.512907 1_555
Cl13 Hf12 2.512907 1_555
Cl13 Hf7 2.512907 1_555
Cl14 Hf8 2.512907 1_555
Cl14 Hf11 2.512907 1_555
Cl15 Hf10 2.512907 1_555
Cl15 Hf9 2.512907 1_555
Cl16 Hf6 2.656900 1_555
Cl16 Hf16 2.664529 1_555
Cl17 Hf7 2.656900 1_555
Cl17 Hf17 2.664529 1_555
Cl18 Hf8 2.656900 1_555
Cl18 Hf18 2.664529 1_555
Cl19 Hf9 2.656900 1_555
Cl19 Hf19 2.664529 1_555
Cl20 Hf10 2.656900 1_555
Cl20 Hf20 2.664529 1_555
Cl21 Hf11 2.656900 1_555
Cl21 Hf21 2.664529 1_555
Cl22 Hf12 2.656900 1_555
Cl22 Hf22 2.664529 1_555
Cl23 Hf13 2.656900 1_555
Cl23 Hf23 2.664529 1_555
Cl24 Hf5 2.500024 1_455
Cl24 Hf16 2.511935 1_555
Cl24 K0 3.429283 1_455
Cl25 Hf4 2.500024 1_665
Cl25 Hf17 2.511935 1_555
Cl25 K1 3.429283 1_655
Cl26 Hf3 2.500024 1_465
Cl26 Hf18 2.511935 1_555
Cl26 K2 3.429283 1_455
Cl27 Hf4 2.500024 1_655
Cl27 Hf19 2.511935 1_555
Cl27 K3 3.429283 1_655
Cl28 Hf2 2.500024 1_655
Cl28 Hf20 2.511935 1_555
Cl28 K3 3.429283 1_655
Cl29 Hf5 2.500024 1_465
Cl29 Hf21 2.511935 1_555
Cl29 K2 3.429283 1_455
Cl30 Hf2 2.500024 1_665
Cl30 Hf22 2.511935 1_555
Cl30 K1 3.429283 1_655
Cl31 Hf3 2.500024 1_455
Cl31 Hf23 2.511935 1_555
Cl31 K0 3.429283 1_455
Cl32 Hf0 2.500218 1_555
Cl32 Hf6 2.519280 1_555
Cl32 K0 3.517372 1_455
Cl33 Hf1 2.500218 1_555
Cl33 Hf7 2.519280 1_555
Cl33 K1 3.517372 1_655
Cl34 Hf0 2.500218 1_555
Cl34 Hf8 2.519280 1_555
Cl34 K2 3.517372 1_455
Cl35 Hf1 2.500218 1_555
Cl35 Hf9 2.519280 1_555
Cl35 K3 3.517372 1_655
Cl36 Hf1 2.500218 1_555
Cl36 Hf10 2.519280 1_555
Cl36 K3 3.517372 1_655
Cl37 Hf0 2.500218 1_555
Cl37 Hf11 2.519280 1_555
Cl37 K2 3.517372 1_455
Cl38 Hf1 2.500218 1_555
Cl38 Hf12 2.519280 1_555
Cl38 K1 3.517372 1_655
Cl39 Hf0 2.500218 1_555
Cl39 Hf13 2.519280 1_555
Cl39 K0 3.517372 1_455
Cl40 Hf21 2.510375 1_545
Cl40 Hf16 2.510375 1_555
Cl41 Hf19 2.510375 1_555
Cl41 Hf17 2.510375 1_545
Cl42 Hf18 2.510375 1_545
Cl42 Hf23 2.510375 1_555
Cl43 Hf22 2.510375 1_545
Cl43 Hf20 2.510375 1_555
Cl44 Hf14 2.526269 1_555
Cl44 Hf6 2.531562 1_555
Cl44 K0 3.363187 1_555
Cl45 Hf15 2.526269 1_555
Cl45 Hf7 2.531562 1_555
Cl45 K1 3.363187 1_555
Cl46 Hf14 2.526269 1_555
Cl46 Hf8 2.531562 1_555
Cl46 K2 3.363187 1_555
Cl47 Hf15 2.526269 1_555
Cl47 Hf9 2.531562 1_555
Cl47 K3 3.363187 1_555
Cl48 Hf15 2.526269 1_555
Cl48 Hf10 2.531562 1_555
Cl48 K3 3.363187 1_555
Cl49 Hf14 2.526269 1_555
Cl49 Hf11 2.531562 1_555
Cl49 K2 3.363187 1_555
Cl50 Hf15 2.526269 1_555
Cl50 Hf12 2.531562 1_555
Cl50 K1 3.363187 1_555
Cl51 Hf14 2.526269 1_555
Cl51 Hf13 2.531562 1_555
Cl51 K0 3.363187 1_555
Cl52 Hf2 2.519444 1_555
Cl52 Hf23 2.534909 1_554
Cl52 K3 3.453248 1_555
Cl53 Hf3 2.519444 1_565
Cl53 Hf22 2.534909 1_556
Cl53 K2 3.453248 1_555
Cl54 Hf4 2.519444 1_565
Cl54 Hf21 2.534909 1_555
Cl54 K1 3.453248 1_555
Cl55 Hf3 2.519444 1_555
Cl55 Hf20 2.534909 1_556
Cl55 K0 3.453248 1_555
Cl56 Hf5 2.519444 1_555
Cl56 Hf19 2.534909 1_555
Cl56 K0 3.453248 1_555
Cl57 Hf2 2.519444 1_565
Cl57 Hf18 2.534909 1_554
Cl57 K1 3.453248 1_555
Cl58 Hf5 2.519444 1_565
Cl58 Hf17 2.534909 1_555
Cl58 K2 3.453248 1_555
Cl59 Hf4 2.519444 1_555
Cl59 Hf16 2.534909 1_555
Cl59 K3 3.453248 1_555
