# generated using pymatgen
data_Li3Eu2(BO3)3
_symmetry_space_group_name_H-M   'P 1'
_cell_length_a   10.40925700
_cell_length_b   6.53875500
_cell_length_c   7.57543713
_cell_angle_alpha   69.86144459
_cell_angle_beta   90.00000000
_cell_angle_gamma   90.00000000
_symmetry_Int_Tables_number   1
_chemical_formula_structural   Li3Eu2(BO3)3
_chemical_formula_sum   'Li6 Eu4 B6 O18'
_cell_volume   484.08833671
_cell_formula_units_Z   2
loop_
 _symmetry_equiv_pos_site_id
 _symmetry_equiv_pos_as_xyz
  1  'x, y, z'
loop_
 _atom_site_type_symbol
 _atom_site_label
 _atom_site_symmetry_multiplicity
 _atom_site_fract_x
 _atom_site_fract_y
 _atom_site_fract_z
 _atom_site_occupancy
  Li  Li0  1  0.80821300  0.67613000  0.43869700  1
  Li  Li1  1  0.30821300  0.32387000  0.56130300  1
  Li  Li2  1  0.79688200  0.85124300  0.72904600  1
  Li  Li3  1  0.29688200  0.14875700  0.27095400  1
  Li  Li4  1  0.91675400  0.32581400  0.78131300  1
  Li  Li5  1  0.41675400  0.67418600  0.21868700  1
  Eu  Eu0  1  0.61444600  0.10884000  0.98929200  1
  Eu  Eu1  1  0.11444600  0.89116000  0.01070800  1
  Eu  Eu2  1  0.45386500  0.72482700  0.75020900  1
  Eu  Eu3  1  0.95386500  0.27517300  0.24979100  1
  B  B0  1  0.65985900  0.95796700  0.39949000  1
  B  B1  1  0.15985900  0.04203300  0.60051000  1
  B  B2  1  0.72184100  0.27379900  0.56463700  1
  B  B3  1  0.22184100  0.72620100  0.43536300  1
  B  B4  1  0.01265200  0.74467200  0.61051700  1
  B  B5  1  0.51265200  0.25532800  0.38948300  1
  O  O0  1  0.65182900  0.80809500  0.57496200  1
  O  O1  1  0.15182900  0.19190500  0.42503800  1
  O  O2  1  0.54749700  0.08756700  0.32033600  1
  O  O3  1  0.04749700  0.91243300  0.67966400  1
  O  O4  1  0.76299800  0.98986100  0.28081400  1
  O  O5  1  0.26299800  0.01013900  0.71918600  1
  O  O6  1  0.58620900  0.27688400  0.53638000  1
  O  O7  1  0.08620900  0.72311600  0.46362000  1
  O  O8  1  0.76668700  0.15521300  0.74187600  1
  O  O9  1  0.26668700  0.84478700  0.25812400  1
  O  O10  1  0.79836800  0.39114700  0.42059600  1
  O  O11  1  0.29836800  0.60885300  0.57940400  1
  O  O12  1  0.51101400  0.82217100  0.99396500  1
  O  O13  1  0.01101400  0.17782900  0.00603500  1
  O  O14  1  0.49305900  0.38993100  0.90889900  1
  O  O15  1  0.99305900  0.61006900  0.09110100  1
  O  O16  1  0.90432700  0.63550500  0.67073100  1
  O  O17  1  0.40432700  0.36449500  0.32926900  1
loop_
_geom_bond_atom_site_label_1
_geom_bond_atom_site_label_2
_geom_bond_distance
_geom_bond_site_symmetry_2
Li0 O10 1.917717 1_555
Li0 O16 1.959519 1_555
Li0 O4 2.042258 1_555
Li0 O0 2.252411 1_555
Li1 O11 1.917717 1_555
Li1 O17 1.959519 1_555
Li1 O5 2.042258 1_555
Li1 O1 2.252411 1_555
Li2 O16 1.965982 1_555
Li2 O0 1.987115 1_555
Li2 O8 2.047377 1_565
Li3 O17 1.965982 1_555
Li3 O1 1.987115 1_555
Li3 O9 2.047377 1_545
Li4 O16 1.910761 1_555
Li4 O13 1.913844 1_656
Li4 O8 2.000806 1_555
Li5 O17 1.910761 1_555
Li5 O12 1.913844 1_554
Li5 O9 2.000806 1_555
Eu0 O14 2.138895 1_555
Eu0 O12 2.151356 1_545
Eu0 O8 2.392670 1_555
Eu0 O2 2.560054 1_556
Eu0 O4 2.586572 1_546
Eu1 O15 2.138895 1_455
Eu1 O13 2.151356 1_565
Eu1 O9 2.392670 1_555
Eu1 O3 2.560054 1_554
Eu1 O5 2.586572 1_564
Eu2 O14 2.143402 1_555
Eu2 O12 2.231172 1_555
Eu2 O11 2.354747 1_555
Eu2 O0 2.409872 1_555
Eu2 O5 2.679748 1_565
Eu3 O15 2.143402 1_555
Eu3 O13 2.231172 1_655
Eu3 O10 2.354747 1_555
Eu3 O1 2.409872 1_655
Eu3 O4 2.679748 1_545
B0 O0 1.355481 1_555
B0 O4 1.369398 1_555
B0 O2 1.447673 1_565
B1 O1 1.355481 1_555
B1 O5 1.369398 1_555
B1 O3 1.447673 1_545
B2 O10 1.355526 1_555
B2 O8 1.380225 1_555
B2 O6 1.427065 1_555
B3 O11 1.355526 1_555
B3 O9 1.380225 1_555
B3 O7 1.427065 1_555
B4 O16 1.328473 1_455
B4 O7 1.397308 1_555
B4 O3 1.415945 1_555
B5 O17 1.328473 1_555
B5 O6 1.397308 1_555
B5 O2 1.415945 1_555
