# generated using pymatgen
data_Li5Co(Ni2O5)2
_symmetry_space_group_name_H-M   'P 1'
_cell_length_a   12.00790691
_cell_length_b   12.00790691
_cell_length_c   5.04563131
_cell_angle_alpha   85.18280559
_cell_angle_beta   85.18280559
_cell_angle_gamma   13.88266284
_symmetry_Int_Tables_number   1
_chemical_formula_structural   Li5Co(Ni2O5)2
_chemical_formula_sum   'Li5 Co1 Ni4 O10'
_cell_volume   173.93334352
_cell_formula_units_Z   1
loop_
 _symmetry_equiv_pos_site_id
 _symmetry_equiv_pos_as_xyz
  1  'x, y, z'
loop_
 _atom_site_type_symbol
 _atom_site_label
 _atom_site_symmetry_multiplicity
 _atom_site_fract_x
 _atom_site_fract_y
 _atom_site_fract_z
 _atom_site_occupancy
  Li  Li0  1  0.10280700  0.10280700  0.30239800  1
  Li  Li1  1  0.50000000  0.50000000  0.50000000  1
  Li  Li2  1  0.89719300  0.89719300  0.69760200  1
  Li  Li3  1  0.30070500  0.30070500  0.90026800  1
  Li  Li4  1  0.69929500  0.69929500  0.09973200  1
  Co  Co0  1  0.00000000  0.00000000  0.00000000  1
  Ni  Ni0  1  0.39945300  0.39945300  0.20219100  1
  Ni  Ni1  1  0.80033300  0.80033300  0.40633800  1
  Ni  Ni2  1  0.19966700  0.19966700  0.59366200  1
  Ni  Ni3  1  0.60054700  0.60054700  0.79780900  1
  O  O0  1  0.65215400  0.65215400  0.45407600  1
  O  O1  1  0.04800300  0.04800300  0.68502700  1
  O  O2  1  0.45684100  0.45684100  0.86666200  1
  O  O3  1  0.84784000  0.84784000  0.08328600  1
  O  O4  1  0.25056700  0.25056700  0.28102200  1
  O  O5  1  0.54315900  0.54315900  0.13333800  1
  O  O6  1  0.95199700  0.95199700  0.31497300  1
  O  O7  1  0.34784600  0.34784600  0.54592400  1
  O  O8  1  0.74943300  0.74943300  0.71897800  1
  O  O9  1  0.15216000  0.15216000  0.91671400  1
loop_
_geom_bond_atom_site_label_1
_geom_bond_atom_site_label_2
_geom_bond_distance
_geom_bond_site_symmetry_2
Li0 O0 2.056199 1_545
Li0 O0 2.056199 1_455
Li0 O9 2.187214 1_554
Li0 O1 2.237733 1_555
Li0 O5 2.249642 1_545
Li0 O5 2.249642 1_455
Li1 O5 2.039419 1_555
Li1 O2 2.039419 1_555
Li1 O6 2.113739 1_455
Li1 O1 2.113739 1_565
Li1 O1 2.113739 1_655
Li1 O6 2.113739 1_545
Li2 O7 2.056199 1_565
Li2 O7 2.056199 1_655
Li2 O3 2.187214 1_556
Li2 O6 2.237733 1_555
Li2 O2 2.249642 1_565
Li2 O2 2.249642 1_655
Li3 O7 2.029676 1_555
Li3 O3 2.096888 1_546
Li3 O3 2.096888 1_456
Li3 O8 2.150789 1_455
Li3 O8 2.150789 1_545
Li3 O4 2.175079 1_556
Li4 O0 2.029676 1_555
Li4 O9 2.096888 1_564
Li4 O9 2.096888 1_654
Li4 O4 2.150789 1_655
Li4 O4 2.150789 1_565
Li4 O8 2.175079 1_554
Co0 O1 1.878183 1_554
Co0 O6 1.878183 1_445
Co0 O5 1.932444 1_545
Co0 O5 1.932444 1_455
Co0 O2 1.932444 1_454
Co0 O2 1.932444 1_544
Ni0 O3 2.026027 1_455
Ni0 O3 2.026027 1_545
Ni0 O6 2.029652 1_545
Ni0 O6 2.029652 1_455
Ni0 O7 2.039752 1_555
Ni0 O2 2.084698 1_554
Ni1 O3 1.904533 1_555
Ni1 O8 1.907088 1_555
Ni1 O7 2.004988 1_565
Ni1 O7 2.004988 1_655
Ni1 O4 2.010037 1_655
Ni1 O4 2.010037 1_565
Ni2 O9 1.904533 1_555
Ni2 O4 1.907088 1_555
Ni2 O0 2.004988 1_455
Ni2 O0 2.004988 1_545
Ni2 O8 2.010037 1_545
Ni2 O8 2.010037 1_455
Ni3 O9 2.026027 1_655
Ni3 O9 2.026027 1_565
Ni3 O1 2.029652 1_655
Ni3 O1 2.029652 1_565
Ni3 O0 2.039752 1_555
Ni3 O5 2.084698 1_556
