# generated using pymatgen
data_Mg3Si4
_symmetry_space_group_name_H-M   'P 1'
_cell_length_a   6.04711600
_cell_length_b   6.25149869
_cell_length_c   7.73821165
_cell_angle_alpha   101.71829906
_cell_angle_beta   109.16754626
_cell_angle_gamma   100.66829253
_symmetry_Int_Tables_number   1
_chemical_formula_structural   Mg3Si4
_chemical_formula_sum   'Mg6 Si8'
_cell_volume   260.33499081
_cell_formula_units_Z   2
loop_
 _symmetry_equiv_pos_site_id
 _symmetry_equiv_pos_as_xyz
  1  'x, y, z'
loop_
 _atom_site_type_symbol
 _atom_site_label
 _atom_site_symmetry_multiplicity
 _atom_site_fract_x
 _atom_site_fract_y
 _atom_site_fract_z
 _atom_site_occupancy
  Mg  Mg0  1  0.96318900  0.82594500  0.42186200  1
  Mg  Mg1  1  0.39397500  0.60042600  0.70821700  1
  Mg  Mg2  1  0.32373800  0.10138100  0.84162900  1
  Mg  Mg3  1  0.18718200  0.48902100  0.00690800  1
  Mg  Mg4  1  0.59210300  0.36550500  0.34090600  1
  Mg  Mg5  1  0.04683900  0.29317900  0.29246200  1
  Si  Si0  1  0.56933400  0.12227000  0.59710400  1
  Si  Si1  1  0.91496900  0.73151700  0.83115100  1
  Si  Si2  1  0.70000100  0.52898400  0.04239500  1
  Si  Si3  1  0.61784800  0.90913400  0.09211600  1
  Si  Si4  1  0.81407200  0.08964600  0.90274100  1
  Si  Si5  1  0.24271200  0.94030000  0.16032800  1
  Si  Si6  1  0.97854200  0.26189000  0.61570600  1
  Si  Si7  1  0.40211800  0.73426400  0.39320600  1
loop_
_geom_bond_atom_site_label_1
_geom_bond_atom_site_label_2
_geom_bond_distance
_geom_bond_site_symmetry_2
Mg0 Si6 2.800051 1_565
Mg0 Si2 2.867880 1_555
Mg0 Si7 2.884587 1_655
Mg0 Si3 2.929918 1_555
Mg0 Si5 3.138573 1_655
Mg1 Si7 2.745268 1_555
Mg1 Si6 2.745475 1_455
Mg1 Si2 2.818489 1_556
Mg1 Si1 2.874303 1_555
Mg1 Si3 2.906065 1_556
Mg1 Mg3 3.101685 1_556
Mg2 Si6 2.740855 1_455
Mg2 Si0 2.770738 1_555
Mg2 Si3 2.799736 1_546
Mg2 Si4 2.862644 1_555
Mg2 Mg3 2.892343 1_556
Mg2 Si2 2.911412 1_556
Mg2 Si5 2.992596 1_546
Mg2 Si1 3.023099 1_445
Mg3 Si1 2.673728 1_454
Mg3 Si5 2.740107 1_555
Mg3 Si7 2.797286 1_555
Mg3 Si6 2.802611 1_454
Mg3 Si4 2.806502 1_454
Mg3 Si2 2.980031 1_555
Mg3 Mg5 3.007903 1_555
Mg3 Si2 3.097233 1_455
Mg3 Si3 3.122710 1_555
Mg3 Mg4 3.259868 1_555
Mg4 Si0 2.754586 1_555
Mg4 Si7 2.775786 1_555
Mg4 Si5 2.820560 1_545
Mg4 Si6 2.873863 1_555
Mg4 Si2 2.916806 1_555
Mg4 Si3 3.162341 1_545
Mg5 Si6 2.704197 1_455
Mg5 Si4 2.772312 1_454
Mg5 Si5 2.856825 1_545
Mg5 Si3 2.904898 1_445
Mg5 Si7 2.942877 1_555
Mg5 Si2 3.155133 1_455
Si0 Si6 2.412724 1_555
Si0 Si4 2.415515 1_555
Si0 Si7 2.425944 1_545
Si1 Si4 2.432177 1_565
Si1 Si5 2.548846 1_656
Si1 Si2 2.755306 1_556
Si2 Si3 2.496766 1_555
Si3 Si4 2.479255 1_564
Si3 Si5 2.524040 1_555
Si5 Si7 2.469310 1_555
