# generated using pymatgen
data_HoCoGe
_symmetry_space_group_name_H-M   'P 1'
_cell_length_a   4.21652368
_cell_length_b   6.85557543
_cell_length_c   7.06036902
_cell_angle_alpha   90.00000000
_cell_angle_beta   90.00000000
_cell_angle_gamma   90.00000000
_symmetry_Int_Tables_number   1
_chemical_formula_structural   HoCoGe
_chemical_formula_sum   'Ho4 Co4 Ge4'
_cell_volume   204.09194190
_cell_formula_units_Z   4
loop_
 _symmetry_equiv_pos_site_id
 _symmetry_equiv_pos_as_xyz
  1  'x, y, z'
loop_
 _atom_site_type_symbol
 _atom_site_label
 _atom_site_symmetry_multiplicity
 _atom_site_fract_x
 _atom_site_fract_y
 _atom_site_fract_z
 _atom_site_occupancy
  Ho  Ho0  1  0.25000000  0.98587996  0.80277834  1
  Ho  Ho1  1  0.25000000  0.48587996  0.69722166  1
  Ho  Ho2  1  0.75000000  0.01411922  0.19721122  1
  Ho  Ho3  1  0.75000000  0.51411922  0.30278878  1
  Co  Co0  1  0.25000000  0.15300783  0.43535405  1
  Co  Co1  1  0.25000000  0.65300783  0.06464595  1
  Co  Co2  1  0.75000000  0.84699562  0.56463326  1
  Co  Co3  1  0.75000000  0.34699562  0.93536674  1
  Ge  Ge0  1  0.25000000  0.79823666  0.39795712  1
  Ge  Ge1  1  0.25000000  0.29823666  0.10204288  1
  Ge  Ge2  1  0.75000000  0.20176070  0.60203122  1
  Ge  Ge3  1  0.75000000  0.70176070  0.89796878  1
loop_
_geom_bond_atom_site_label_1
_geom_bond_atom_site_label_2
_geom_bond_distance
_geom_bond_site_symmetry_2
Co0 Ge2 2.437487 1_455
Co0 Ge2 2.437487 1_555
Co0 Ge0 2.446450 1_545
Co0 Ge1 2.555248 1_555
Co0 Ho0 2.835909 1_545
Co0 Ho2 2.859791 1_555
Co0 Ho2 2.859791 1_455
Co0 Ho1 2.937010 1_555
Co1 Ge3 2.437487 1_454
Co1 Ge3 2.437487 1_554
Co1 Ge1 2.446450 1_555
Co1 Ge0 2.555248 1_555
Co1 Ho1 2.835909 1_554
Co1 Ho3 2.859791 1_555
Co1 Ho3 2.859791 1_455
Co1 Ho0 2.937010 1_554
Co2 Ge0 2.437489 1_555
Co2 Ge0 2.437489 1_655
Co2 Ge2 2.446410 1_565
Co2 Ge3 2.555423 1_555
Co2 Ho2 2.835883 1_565
Co2 Ho0 2.859791 1_655
Co2 Ho0 2.859791 1_555
Co2 Ho3 2.936930 1_555
Co3 Ge1 2.437489 1_556
Co3 Ge1 2.437489 1_656
Co3 Ge3 2.446410 1_555
Co3 Ge2 2.555423 1_555
Co3 Ho3 2.835883 1_556
Co3 Ho1 2.859791 1_555
Co3 Ho1 2.859791 1_655
Co3 Ho2 2.936930 1_556
Ge0 Ho2 2.940071 1_465
Ge0 Ho2 2.940071 1_565
Ge0 Ho3 2.947903 1_455
Ge0 Ho3 2.947903 1_555
Ge0 Ho1 3.008314 1_555
Ge0 Ho0 3.134337 1_555
Ge1 Ho3 2.940071 1_555
Ge1 Ho3 2.940071 1_455
Ge1 Ho2 2.947903 1_555
Ge1 Ho2 2.947903 1_455
Ge1 Ho0 3.008314 1_544
Ge1 Ho1 3.134337 1_554
Ge2 Ho0 2.940069 1_545
Ge2 Ho0 2.940069 1_645
Ge2 Ho1 2.947946 1_655
Ge2 Ho1 2.947946 1_555
Ge2 Ho3 3.008213 1_555
Ge2 Ho2 3.134324 1_555
Ge3 Ho1 2.940069 1_655
Ge3 Ho1 2.940069 1_555
Ge3 Ho0 2.947946 1_555
Ge3 Ho0 2.947946 1_655
Ge3 Ho2 3.008213 1_566
Ge3 Ho3 3.134324 1_556
