# generated using pymatgen
data_YCr(WO4)2
_symmetry_space_group_name_H-M   'P 1'
_cell_length_a   5.30557710
_cell_length_b   5.73054200
_cell_length_c   9.76451258
_cell_angle_alpha   90.00283880
_cell_angle_beta   92.54986741
_cell_angle_gamma   89.99786512
_symmetry_Int_Tables_number   1
_chemical_formula_structural   YCr(WO4)2
_chemical_formula_sum   'Y2 Cr2 W4 O16'
_cell_volume   296.58465796
_cell_formula_units_Z   2
loop_
 _symmetry_equiv_pos_site_id
 _symmetry_equiv_pos_as_xyz
  1  'x, y, z'
loop_
 _atom_site_type_symbol
 _atom_site_label
 _atom_site_symmetry_multiplicity
 _atom_site_fract_x
 _atom_site_fract_y
 _atom_site_fract_z
 _atom_site_occupancy
  Y  Y0  1  0.25001000  0.66226100  0.24998900  1
  Y  Y1  1  0.75001200  0.33773200  0.75002600  1
  Cr  Cr0  1  0.75003100  0.33248500  0.25003400  1
  Cr  Cr1  1  0.25004200  0.66771200  0.75001000  1
  W  W0  1  0.25103700  0.16097300  0.49725300  1
  W  W1  1  0.24890600  0.16097600  0.00274300  1
  W  W2  1  0.74895500  0.83902300  0.50274700  1
  W  W3  1  0.75111000  0.83897500  0.99726000  1
  O  O0  1  0.42308400  0.35631800  0.14215500  1
  O  O1  1  0.07690000  0.35632700  0.35783900  1
  O  O2  1  0.57691400  0.64368100  0.85783500  1
  O  O3  1  0.92308000  0.64367100  0.64215700  1
  O  O4  1  0.43535700  0.89458300  0.61411000  1
  O  O5  1  0.06462600  0.89458000  0.88588400  1
  O  O6  1  0.56464000  0.10542400  0.38588200  1
  O  O7  1  0.93536600  0.10541200  0.11411000  1
  O  O8  1  0.87223700  0.61003600  0.12617200  1
  O  O9  1  0.62773200  0.61003400  0.37381000  1
  O  O10  1  0.12773900  0.38989300  0.87382500  1
  O  O11  1  0.37226600  0.38995600  0.62618200  1
  O  O12  1  0.42132000  0.88406900  0.09638200  1
  O  O13  1  0.57863300  0.11592000  0.90359500  1
  O  O14  1  0.07864800  0.88402500  0.40358300  1
  O  O15  1  0.92135100  0.11593300  0.59641800  1
loop_
_geom_bond_atom_site_label_1
_geom_bond_atom_site_label_2
_geom_bond_distance
_geom_bond_site_symmetry_2
Cr0 O1 1.992959 1_655
Cr0 O0 1.993658 1_555
Cr0 O9 2.116836 1_555
Cr0 O8 2.117298 1_555
Cr0 O6 2.129904 1_555
Cr0 O7 2.130153 1_555
Cr1 O2 1.993141 1_555
Cr1 O3 1.993685 1_455
Cr1 O11 2.117892 1_555
Cr1 O10 2.118354 1_555
Cr1 O5 2.129332 1_555
Cr1 O4 2.129368 1_555
O0 W1 1.961679 1_555
O0 Y0 2.260840 1_555
O1 W0 1.961673 1_555
O1 Y0 2.261091 1_555
O2 W3 1.961649 1_555
O2 Y1 2.260803 1_555
O3 W2 1.961612 1_555
O3 Y1 2.261108 1_555
O4 W2 2.052565 1_555
O4 W0 2.118842 1_565
O5 W3 2.052350 1_455
O5 W1 2.118755 1_566
O6 W0 2.052621 1_555
O6 W2 2.118916 1_545
O7 W1 2.052370 1_655
O7 W3 2.118823 1_544
O8 W3 1.909660 1_554
O8 Y0 2.313635 1_655
O9 W2 1.910118 1_555
O9 Y0 2.313424 1_555
O10 W1 1.909677 1_556
O10 Y1 2.313297 1_455
O11 W0 1.910054 1_555
O11 Y1 2.313637 1_555
O12 W1 2.028899 1_565
O12 W3 2.053225 1_554
O12 Y0 2.193857 1_555
O13 W3 2.029322 1_545
O13 W1 2.053035 1_556
O13 Y1 2.193772 1_555
O14 W0 2.029138 1_565
O14 W2 2.052947 1_455
O14 Y0 2.193619 1_555
O15 W2 2.028988 1_545
O15 W0 2.052947 1_655
O15 Y1 2.193777 1_555
