# generated using pymatgen
data_Be2Co(NF7)2
_symmetry_space_group_name_H-M   'P 1'
_cell_length_a   5.70923647
_cell_length_b   10.02388515
_cell_length_c   10.58182800
_cell_angle_alpha   90.00000000
_cell_angle_beta   90.00000000
_cell_angle_gamma   102.57189521
_symmetry_Int_Tables_number   1
_chemical_formula_structural   Be2Co(NF7)2
_chemical_formula_sum   'Be4 Co2 N4 F28'
_cell_volume   591.06487606
_cell_formula_units_Z   2
loop_
 _symmetry_equiv_pos_site_id
 _symmetry_equiv_pos_as_xyz
  1  'x, y, z'
loop_
 _atom_site_type_symbol
 _atom_site_label
 _atom_site_symmetry_multiplicity
 _atom_site_fract_x
 _atom_site_fract_y
 _atom_site_fract_z
 _atom_site_occupancy
  Be  Be0  1  0.65993500  0.58911300  0.72115200  1
  Be  Be1  1  0.34006500  0.41088700  0.27884800  1
  Be  Be2  1  0.34006500  0.91088700  0.22115200  1
  Be  Be3  1  0.65993500  0.08911300  0.77884800  1
  Co  Co0  1  0.50000000  0.00000000  0.00000000  1
  Co  Co1  1  0.50000000  0.50000000  0.50000000  1
  N  N0  1  0.94360200  0.66814900  0.14380500  1
  N  N1  1  0.05639800  0.33185100  0.85619500  1
  N  N2  1  0.05639800  0.83185100  0.64380500  1
  N  N3  1  0.94360200  0.16814900  0.35619500  1
  F  F0  1  0.56660700  0.54610100  0.84382000  1
  F  F1  1  0.43339300  0.45389900  0.15618000  1
  F  F2  1  0.43339300  0.95389900  0.34382000  1
  F  F3  1  0.56660700  0.04610100  0.65618000  1
  F  F4  1  0.87018500  0.88790000  0.60828500  1
  F  F5  1  0.12981500  0.11210000  0.39171500  1
  F  F6  1  0.12981500  0.61210000  0.10828500  1
  F  F7  1  0.87018500  0.38790000  0.89171500  1
  F  F8  1  0.29370000  0.88193100  0.90623800  1
  F  F9  1  0.70630000  0.11806900  0.09376200  1
  F  F10  1  0.70630000  0.61806900  0.40623800  1
  F  F11  1  0.29370000  0.38193100  0.59376200  1
  F  F12  1  0.90665400  0.74099000  0.04113300  1
  F  F13  1  0.09334600  0.25901000  0.95886700  1
  F  F14  1  0.09334600  0.75901000  0.54113300  1
  F  F15  1  0.90665400  0.24099000  0.45886700  1
  F  F16  1  0.48811700  0.64348600  0.62301900  1
  F  F17  1  0.51188300  0.35651400  0.37698100  1
  F  F18  1  0.51188300  0.85651400  0.12301900  1
  F  F19  1  0.48811700  0.14348600  0.87698100  1
  F  F20  1  0.74550400  0.98382100  0.87685200  1
  F  F21  1  0.25449600  0.01617900  0.12314800  1
  F  F22  1  0.25449600  0.51617900  0.37685200  1
  F  F23  1  0.74550400  0.48382100  0.62314800  1
  F  F24  1  0.91799900  0.71096600  0.74069400  1
  F  F25  1  0.08200100  0.28903400  0.25930600  1
  F  F26  1  0.08200100  0.78903400  0.24069400  1
  F  F27  1  0.91799900  0.21096600  0.75930600  1
loop_
_geom_bond_atom_site_label_1
_geom_bond_atom_site_label_2
_geom_bond_distance
_geom_bond_site_symmetry_2
Be0 F0 1.433432 1_555
Be0 F16 1.603245 1_555
Be0 F23 1.628670 1_555
Be0 F24 1.709390 1_555
Be1 F1 1.433432 1_555
Be1 F17 1.603245 1_555
Be1 F22 1.628670 1_555
Be1 F25 1.709390 1_555
Be2 F2 1.433432 1_555
Be2 F18 1.603245 1_555
Be2 F21 1.628670 1_565
Be2 F26 1.709390 1_555
Be3 F3 1.433432 1_555
Be3 F19 1.603245 1_555
Be3 F20 1.628670 1_545
Be3 F27 1.709390 1_555
Co0 F9 1.779192 1_555
Co0 F8 1.779192 1_544
Co0 F20 1.946279 1_544
Co0 F21 1.946279 1_555
Co0 F18 1.952011 1_545
Co0 F19 1.952011 1_554
Co1 F10 1.779192 1_555
Co1 F11 1.779192 1_555
Co1 F23 1.946279 1_555
Co1 F22 1.946279 1_555
Co1 F17 1.952011 1_555
Co1 F16 1.952011 1_555
F4 N2 1.359118 1_655
F5 N3 1.359118 1_455
F6 N0 1.359118 1_455
F7 N1 1.359118 1_655
F12 N0 1.350946 1_555
F13 N1 1.350946 1_555
F14 N2 1.350946 1_555
F15 N3 1.350946 1_555
F24 N2 1.651364 1_655
F25 N3 1.651364 1_455
F26 N0 1.651364 1_455
F27 N1 1.651364 1_655
