# generated using pymatgen
data_Cs4Tl2O
_symmetry_space_group_name_H-M   'P 1'
_cell_length_a   9.99909827
_cell_length_b   9.99909827
_cell_length_c   9.99909874
_cell_angle_alpha   76.83080453
_cell_angle_beta   76.83080453
_cell_angle_gamma   76.83080439
_symmetry_Int_Tables_number   1
_chemical_formula_structural   Cs4Tl2O
_chemical_formula_sum   'Cs12 Tl6 O3'
_cell_volume   931.37830043
_cell_formula_units_Z   3
loop_
 _symmetry_equiv_pos_site_id
 _symmetry_equiv_pos_as_xyz
  1  'x, y, z'
loop_
 _atom_site_type_symbol
 _atom_site_label
 _atom_site_symmetry_multiplicity
 _atom_site_fract_x
 _atom_site_fract_y
 _atom_site_fract_z
 _atom_site_occupancy
  Cs  Cs0  1  0.01502100  0.71254400  0.01502100  1
  Cs  Cs1  1  0.01502100  0.01502100  0.71254400  1
  Cs  Cs2  1  0.71254400  0.01502100  0.01502100  1
  Cs  Cs3  1  0.98497900  0.28745600  0.98497900  1
  Cs  Cs4  1  0.98497900  0.98497900  0.28745600  1
  Cs  Cs5  1  0.28745600  0.98497900  0.98497900  1
  Cs  Cs6  1  0.63256600  0.96196000  0.63256600  1
  Cs  Cs7  1  0.63256600  0.63256600  0.96196000  1
  Cs  Cs8  1  0.96196000  0.63256600  0.63256600  1
  Cs  Cs9  1  0.36743400  0.03804000  0.36743400  1
  Cs  Cs10  1  0.36743400  0.36743400  0.03804000  1
  Cs  Cs11  1  0.03804000  0.36743400  0.36743400  1
  Tl  Tl0  1  0.34794400  0.61272300  0.34794400  1
  Tl  Tl1  1  0.34794400  0.34794400  0.61272300  1
  Tl  Tl2  1  0.61272300  0.34794400  0.34794400  1
  Tl  Tl3  1  0.65205600  0.38727700  0.65205600  1
  Tl  Tl4  1  0.65205600  0.65205600  0.38727700  1
  Tl  Tl5  1  0.38727700  0.65205600  0.65205600  1
  O  O0  1  0.18022600  0.18022600  0.18022600  1
  O  O1  1  0.81977400  0.81977400  0.81977400  1
  O  O2  1  0.00000000  0.00000000  0.00000000  1
loop_
_geom_bond_atom_site_label_1
_geom_bond_atom_site_label_2
_geom_bond_distance
_geom_bond_site_symmetry_2
Cs0 O2 2.814886 1_565
Cs0 O1 2.932853 1_454
Cs0 Tl4 4.605609 1_455
Cs0 Tl5 4.605609 1_554
Cs1 O2 2.814886 1_556
Cs1 O1 2.932853 1_445
Cs1 Tl5 4.605609 1_545
Cs1 Tl3 4.605609 1_455
Cs2 O2 2.814886 1_655
Cs2 O1 2.932853 1_544
Cs2 Tl4 4.605609 1_545
Cs2 Tl3 4.605609 1_554
Cs3 O2 2.814886 1_656
Cs3 O0 2.932853 1_656
Cs3 Tl1 4.605609 1_655
Cs3 Tl2 4.605609 1_556
Cs4 O2 2.814886 1_665
Cs4 O0 2.932853 1_665
Cs4 Tl0 4.605609 1_655
Cs4 Tl2 4.605609 1_565
Cs5 O2 2.814886 1_566
Cs5 O0 2.932853 1_566
Cs5 Tl1 4.605609 1_565
Cs5 Tl0 4.605609 1_556
Cs6 O1 2.863694 1_555
Cs6 Tl1 4.235330 1_565
Cs6 Tl2 4.235330 1_565
Cs6 Tl5 4.315785 1_555
Cs6 Tl4 4.315785 1_555
Cs6 Tl3 4.351407 1_565
Cs7 O1 2.863694 1_555
Cs7 Tl2 4.235330 1_556
Cs7 Tl0 4.235330 1_556
Cs7 Tl3 4.315785 1_555
Cs7 Tl5 4.315785 1_555
Cs7 Tl4 4.351407 1_556
Cs8 O1 2.863694 1_555
Cs8 Tl1 4.235330 1_655
Cs8 Tl0 4.235330 1_655
Cs8 Tl3 4.315785 1_555
Cs8 Tl4 4.315785 1_555
Cs8 Tl5 4.351407 1_655
Cs9 O0 2.863694 1_555
Cs9 Tl4 4.235330 1_545
Cs9 Tl5 4.235330 1_545
Cs9 Tl2 4.315785 1_555
Cs9 Tl1 4.315785 1_555
Cs9 Tl0 4.351407 1_545
Cs10 O0 2.863694 1_555
Cs10 Tl5 4.235330 1_554
Cs10 Tl3 4.235330 1_554
Cs10 Tl0 4.315785 1_555
Cs10 Tl2 4.315785 1_555
Cs10 Tl1 4.351407 1_554
Cs11 O0 2.863694 1_555
Cs11 Tl4 4.235330 1_455
Cs11 Tl3 4.235330 1_455
Cs11 Tl0 4.315785 1_555
Cs11 Tl1 4.315785 1_555
Cs11 Tl2 4.351407 1_455
Tl0 Tl4 3.273601 1_555
Tl0 Tl5 3.273601 1_555
Tl0 Tl2 3.290157 1_555
Tl0 Tl1 3.290157 1_555
Tl1 Tl5 3.273601 1_555
Tl1 Tl3 3.273601 1_555
Tl1 Tl2 3.290157 1_555
Tl2 Tl4 3.273601 1_555
Tl2 Tl3 3.273601 1_555
Tl3 Tl5 3.290157 1_555
Tl3 Tl4 3.290157 1_555
Tl4 Tl5 3.290157 1_555
