# generated using pymatgen
data_P2Pb3O8
_symmetry_space_group_name_H-M   'P 1'
_cell_length_a   9.94363529
_cell_length_b   19.88931616
_cell_length_c   7.38907300
_cell_angle_alpha   90.00000000
_cell_angle_beta   90.00000000
_cell_angle_gamma   120.02420978
_symmetry_Int_Tables_number   1
_chemical_formula_structural   P2Pb3O8
_chemical_formula_sum   'P12 Pb18 O48'
_cell_volume   1265.25956059
_cell_formula_units_Z   6
loop_
 _symmetry_equiv_pos_site_id
 _symmetry_equiv_pos_as_xyz
  1  'x, y, z'
loop_
 _atom_site_type_symbol
 _atom_site_label
 _atom_site_symmetry_multiplicity
 _atom_site_fract_x
 _atom_site_fract_y
 _atom_site_fract_z
 _atom_site_occupancy
  P  P0  1  0.01809600  0.81207000  0.74862100  1
  P  P1  1  0.60575200  0.99087700  0.74834600  1
  P  P2  1  0.37588300  0.69708300  0.74860400  1
  P  P3  1  0.01809600  0.31207000  0.75137900  1
  P  P4  1  0.62929200  0.80399600  0.25451100  1
  P  P5  1  0.39205100  0.51058100  0.24572600  1
  P  P6  1  0.60575200  0.49087700  0.75165400  1
  P  P7  1  0.37588300  0.19708300  0.75139600  1
  P  P8  1  0.97902600  0.68540700  0.25366800  1
  P  P9  1  0.62929200  0.30399600  0.24548900  1
  P  P10  1  0.39205100  0.01058100  0.25427400  1
  P  P11  1  0.97902600  0.18540800  0.24633200  1
  Pb  Pb0  1  0.00880300  0.87239500  0.24211600  1
  Pb  Pb1  1  0.33337200  0.83320400  0.48395900  1
  Pb  Pb2  1  0.25544600  0.63208800  0.23777800  1
  Pb  Pb3  1  0.00880300  0.37239500  0.25788400  1
  Pb  Pb4  1  0.73600600  0.99557300  0.23761200  1
  Pb  Pb5  1  0.25394900  0.49599400  0.74090200  1
  Pb  Pb6  1  0.73800600  0.87295700  0.75646700  1
  Pb  Pb7  1  0.66981300  0.66814100  0.50280300  1
  Pb  Pb8  1  0.33337200  0.33320400  0.01604100  1
  Pb  Pb9  1  0.66346600  0.66531300  0.99598800  1
  Pb  Pb10  1  0.25544600  0.13208800  0.26222200  1
  Pb  Pb11  1  0.73600600  0.49557300  0.26238800  1
  Pb  Pb12  1  0.25394900  0.99599400  0.75909800  1
  Pb  Pb13  1  0.00781000  0.63104800  0.75852200  1
  Pb  Pb14  1  0.73800600  0.37295700  0.74353300  1
  Pb  Pb15  1  0.66346600  0.16531300  0.50401200  1
  Pb  Pb16  1  0.66981300  0.16814100  0.99719700  1
  Pb  Pb17  1  0.00781000  0.13104800  0.74147800  1
  O  O0  1  0.07823100  0.86659300  0.57982400  1
  O  O1  1  0.06753200  0.86682000  0.91583500  1
  O  O2  1  0.09407200  0.76007500  0.74598100  1
  O  O3  1  0.30980200  0.92134400  0.26308900  1
  O  O4  1  0.15750500  0.73359700  0.26220400  1
  O  O5  1  0.42566900  0.95288200  0.74633200  1
  O  O6  1  0.26681200  0.67230100  0.58021200  1
  O  O7  1  0.26646600  0.66738300  0.91606100  1
  O  O8  1  0.53258400  0.84483500  0.26239700  1
  O  O9  1  0.47990400  0.78712200  0.74639200  1
  O  O10  1  0.65513900  0.96087300  0.58018000  1
  O  O11  1  0.66526500  0.96604200  0.91590600  1
  O  O12  1  0.07823100  0.36659300  0.92017600  1
  O  O13  1  0.06753200  0.36682000  0.58416500  1
  O  O14  1  0.35372100  0.54618000  0.07803600  1
  O  O15  1  0.34458000  0.53936200  0.41743000  1
  O  O16  1  0.52132700  0.71244400  0.25118200  1
  O  O17  1  0.48027900  0.65845400  0.74651600  1
  O  O18  1  0.09407200  0.26007500  0.75401900  1
  O  O19  1  0.30980200  0.42134400  0.23691100  1
  O  O20  1  0.73384600  0.82737700  0.08174800  1
  O  O21  1  0.73934100  0.82360300  0.42113400  1
  O  O22  1  0.15750500  0.23359700  0.23779600  1
  O  O23  1  0.42566900  0.45288200  0.75366800  1
  O  O24  1  0.57507600  0.54804800  0.24792900  1
  O  O25  1  0.83641900  0.75986100  0.74702600  1
  O  O26  1  0.26646600  0.16738300  0.58393900  1
  O  O27  1  0.26681200  0.17230100  0.91978800  1
  O  O28  1  0.68312400  0.58172400  0.75492300  1
  O  O29  1  0.90396800  0.73939200  0.25027700  1
  O  O30  1  0.53258400  0.34483500  0.23760300  1
  O  O31  1  0.47990400  0.28712200  0.75360800  1
  O  O32  1  0.66526500  0.46604200  0.58409400  1
  O  O33  1  0.65513900  0.46087300  0.91982000  1
  O  O34  1  0.92111700  0.63284300  0.08187900  1
  O  O35  1  0.90811900  0.63078500  0.42141500  1
  O  O36  1  0.34458000  0.03936200  0.08257000  1
  O  O37  1  0.35372100  0.04618000  0.42196400  1
  O  O38  1  0.52132700  0.21244400  0.24881800  1
  O  O39  1  0.48027900  0.15845400  0.75348400  1
  O  O40  1  0.73934100  0.32360300  0.07886600  1
  O  O41  1  0.73384600  0.32737700  0.41825200  1
  O  O42  1  0.57507600  0.04804800  0.25207100  1
  O  O43  1  0.83641900  0.25986100  0.75297400  1
  O  O44  1  0.68312400  0.08172400  0.74507700  1
  O  O45  1  0.90396800  0.23939200  0.24972300  1
  O  O46  1  0.90811900  0.13078500  0.07858500  1
  O  O47  1  0.92111700  0.13284300  0.41812100  1
loop_
_geom_bond_atom_site_label_1
_geom_bond_atom_site_label_2
_geom_bond_distance
_geom_bond_site_symmetry_2
O0 P0 1.562132 1_555
O0 Pb0 2.606993 1_555
O0 Pb12 2.632753 1_555
O1 P0 1.555104 1_555
O1 Pb0 2.496124 1_556
O1 Pb12 2.571414 1_555
O2 P0 1.556415 1_555
O2 Pb13 2.264328 1_555
O3 P10 1.539683 1_565
O3 Pb1 2.490535 1_555
O3 Pb0 2.648397 1_555
O4 P8 1.539493 1_455
O4 Pb1 2.490148 1_555
O4 Pb2 2.650442 1_555
O5 P1 1.556802 1_555
O5 Pb12 2.263845 1_555
O6 P2 1.559628 1_555
O6 Pb13 2.631970 1_555
O6 Pb2 2.638991 1_555
O7 P2 1.555816 1_555
O7 Pb2 2.465534 1_556
O7 Pb13 2.575331 1_555
O8 P4 1.539336 1_555
O8 Pb1 2.489796 1_555
O8 Pb4 2.654190 1_555
O9 P2 1.556752 1_555
O9 Pb6 2.263220 1_555
O10 P1 1.560318 1_555
O10 Pb6 2.622058 1_555
O10 Pb4 2.640989 1_555
O11 P1 1.555517 1_555
O11 Pb4 2.465152 1_556
O11 Pb6 2.584356 1_555
O12 P3 1.562132 1_555
O12 Pb3 2.606993 1_556
O12 Pb5 2.632753 1_555
O13 P3 1.555104 1_555
O13 Pb3 2.496124 1_555
O13 Pb5 2.571414 1_555
O14 P5 1.565871 1_555
O14 Pb2 2.634118 1_555
O14 Pb5 2.682388 1_554
O14 Pb9 2.857447 1_554
O15 P5 1.559034 1_555
O15 Pb5 2.547768 1_555
O15 Pb2 2.754049 1_555
O16 P4 1.585104 1_555
O16 Pb2 2.307687 1_555
O16 Pb7 2.777630 1_555
O16 Pb9 2.785301 1_554
O17 P2 1.570437 1_555
O17 Pb7 2.543345 1_555
O17 Pb9 2.546755 1_555
O18 P3 1.556415 1_555
O18 Pb17 2.264328 1_555
O19 P5 1.539683 1_555
O19 Pb8 2.490535 1_555
O19 Pb3 2.648397 1_555
O20 P4 1.562978 1_555
O20 Pb6 2.561827 1_554
O20 Pb0 2.689087 1_655
O21 P4 1.561511 1_555
O21 Pb6 2.667636 1_555
O21 Pb0 2.696056 1_655
O21 Pb7 2.874636 1_555
O22 P11 1.539492 1_455
O22 Pb8 2.490148 1_555
O22 Pb10 2.650442 1_555
O23 P6 1.556802 1_555
O23 Pb5 2.263845 1_555
O24 P5 1.584469 1_555
O24 Pb11 2.309288 1_555
O24 Pb9 2.761592 1_554
O24 Pb7 2.808501 1_555
O25 P0 1.569933 1_655
O25 Pb7 2.510889 1_555
O25 Pb9 2.577135 1_555
O26 P7 1.555816 1_555
O26 Pb10 2.465534 1_555
O26 Pb17 2.575331 1_555
O27 P7 1.559628 1_555
O27 Pb17 2.631970 1_555
O27 Pb10 2.638991 1_556
O28 P6 1.570404 1_555
O28 Pb9 2.510033 1_555
O28 Pb7 2.582613 1_555
O29 P8 1.585090 1_555
O29 Pb0 2.308356 1_655
O29 Pb7 2.758477 1_555
O29 Pb9 2.809684 1_554
O30 P9 1.539336 1_555
O30 Pb8 2.489796 1_555
O30 Pb11 2.654190 1_555
O31 P7 1.556752 1_555
O31 Pb14 2.263220 1_555
O32 P6 1.555517 1_555
O32 Pb11 2.465152 1_555
O32 Pb14 2.584356 1_555
O33 P6 1.560318 1_555
O33 Pb14 2.622058 1_555
O33 Pb11 2.640989 1_556
O34 P8 1.559936 1_555
O34 Pb13 2.546367 1_654
O34 Pb11 2.755362 1_555
O35 P8 1.564347 1_555
O35 Pb11 2.633645 1_555
O35 Pb13 2.679948 1_655
O35 Pb7 2.879359 1_555
O36 P10 1.559034 1_555
O36 Pb12 2.547768 1_544
O36 Pb10 2.754049 1_555
O37 P10 1.565871 1_555
O37 Pb10 2.634118 1_555
O37 Pb12 2.682388 1_545
O37 Pb15 2.857447 1_555
O38 P9 1.585104 1_555
O38 Pb10 2.307687 1_555
O38 Pb16 2.777630 1_554
O38 Pb15 2.785301 1_555
O39 P7 1.570437 1_555
O39 Pb16 2.543345 1_555
O39 Pb15 2.546755 1_555
O40 P9 1.561511 1_555
O40 Pb14 2.667636 1_554
O40 Pb3 2.696056 1_655
O40 Pb16 2.874636 1_554
O41 P9 1.562978 1_555
O41 Pb14 2.561827 1_555
O41 Pb3 2.689087 1_655
O42 P10 1.584469 1_555
O42 Pb4 2.309288 1_545
O42 Pb15 2.761592 1_555
O42 Pb16 2.808501 1_554
O43 P3 1.569933 1_655
O43 Pb16 2.510889 1_555
O43 Pb15 2.577135 1_555
O44 P1 1.570404 1_545
O44 Pb15 2.510033 1_555
O44 Pb16 2.582613 1_555
O45 P11 1.585072 1_555
O45 Pb3 2.308356 1_655
O45 Pb16 2.758477 1_554
O45 Pb15 2.809684 1_555
O46 P11 1.564356 1_555
O46 Pb4 2.633645 1_545
O46 Pb17 2.679948 1_654
O46 Pb16 2.879359 1_554
O47 P11 1.559946 1_555
O47 Pb17 2.546367 1_655
O47 Pb4 2.755362 1_545
