# generated using pymatgen
data_Mg7Fe(SiO4)4
_symmetry_space_group_name_H-M   'P 1'
_cell_length_a   4.82183000
_cell_length_b   6.06201669
_cell_length_c   10.35377596
_cell_angle_alpha   89.70065064
_cell_angle_beta   89.91666640
_cell_angle_gamma   89.78000393
_symmetry_Int_Tables_number   1
_chemical_formula_structural   Mg7Fe(SiO4)4
_chemical_formula_sum   'Mg7 Fe1 Si4 O16'
_cell_volume   302.63434273
_cell_formula_units_Z   1
loop_
 _symmetry_equiv_pos_site_id
 _symmetry_equiv_pos_as_xyz
  1  'x, y, z'
loop_
 _atom_site_type_symbol
 _atom_site_label
 _atom_site_symmetry_multiplicity
 _atom_site_fract_x
 _atom_site_fract_y
 _atom_site_fract_z
 _atom_site_occupancy
  Mg  Mg0  1  0.00000000  0.00000000  0.00000000  1
  Mg  Mg1  1  0.98867100  0.24507200  0.72387000  1
  Mg  Mg2  1  0.01132900  0.75492800  0.27613000  1
  Mg  Mg3  1  0.00000000  0.50000000  0.00000000  1
  Mg  Mg4  1  0.50000000  0.00000000  0.50000000  1
  Mg  Mg5  1  0.50957500  0.25110500  0.22177800  1
  Mg  Mg6  1  0.49042500  0.74889500  0.77822200  1
  Fe  Fe0  1  0.50000000  0.50000000  0.50000000  1
  Si  Si0  1  0.92631100  0.75121500  0.59448500  1
  Si  Si1  1  0.42519500  0.24909300  0.90651800  1
  Si  Si2  1  0.57480500  0.75090700  0.09348200  1
  Si  Si3  1  0.07368900  0.24878500  0.40551500  1
  O  O0  1  0.76460900  0.24875200  0.90822400  1
  O  O1  1  0.21331200  0.24509400  0.55350700  1
  O  O2  1  0.27621700  0.03282200  0.83809800  1
  O  O3  1  0.23539100  0.75124800  0.09177600  1
  O  O4  1  0.78668800  0.75490600  0.44649300  1
  O  O5  1  0.72378300  0.96717800  0.16190200  1
  O  O6  1  0.72289400  0.53377500  0.16271300  1
  O  O7  1  0.27710600  0.46622500  0.83728700  1
  O  O8  1  0.73460300  0.24646900  0.40604200  1
  O  O9  1  0.27744600  0.24917500  0.05308200  1
  O  O10  1  0.22909300  0.03438100  0.33709200  1
  O  O11  1  0.26539700  0.75353100  0.59395800  1
  O  O12  1  0.72255400  0.75082500  0.94691800  1
  O  O13  1  0.77090700  0.96561900  0.66290800  1
  O  O14  1  0.78599300  0.53350400  0.66580800  1
  O  O15  1  0.21400700  0.46649600  0.33419200  1
loop_
_geom_bond_atom_site_label_1
_geom_bond_atom_site_label_2
_geom_bond_distance
_geom_bond_site_symmetry_2
Mg0 O9 2.097549 1_555
Mg0 O12 2.097549 1_444
Mg0 O3 2.107153 1_545
Mg0 O0 2.107153 1_454
Mg0 O2 2.148371 1_554
Mg0 O5 2.148371 1_445
Mg1 O1 2.068590 1_655
Mg1 O14 2.085966 1_555
Mg1 O13 2.097022 1_545
Mg1 O0 2.192114 1_555
Mg1 O2 2.225265 1_655
Mg1 O7 2.268494 1_655
Mg2 O4 2.068590 1_455
Mg2 O15 2.085966 1_555
Mg2 O10 2.097022 1_565
Mg2 O3 2.192114 1_555
Mg2 O5 2.225265 1_455
Mg2 O6 2.268494 1_455
Mg3 O9 2.093199 1_555
Mg3 O12 2.093199 1_454
Mg3 O3 2.131307 1_555
Mg3 O0 2.131307 1_454
Mg3 O7 2.158793 1_554
Mg3 O6 2.158793 1_455
Mg4 O1 2.101412 1_555
Mg4 O4 2.101412 1_545
Mg4 O11 2.110202 1_545
Mg4 O8 2.110202 1_555
Mg4 O13 2.143693 1_545
Mg4 O10 2.143693 1_555
Mg5 O9 2.075980 1_555
Mg5 O6 2.090213 1_555
Mg5 O5 2.099814 1_545
Mg5 O8 2.196168 1_555
Mg5 O10 2.230057 1_555
Mg5 O15 2.255537 1_555
Mg6 O12 2.075980 1_555
Mg6 O7 2.090213 1_555
Mg6 O2 2.099814 1_565
Mg6 O11 2.196168 1_555
Mg6 O13 2.230057 1_555
Mg6 O14 2.255537 1_555
Fe0 O11 2.141772 1_555
Fe0 O8 2.141772 1_555
Fe0 O4 2.147288 1_555
Fe0 O1 2.147288 1_555
Fe0 O14 2.214225 1_555
Fe0 O15 2.214225 1_555
O0 Si1 1.636711 1_555
O1 Si3 1.674559 1_555
O2 Si1 1.659849 1_555
O3 Si2 1.636711 1_555
O4 Si0 1.674559 1_555
O5 Si2 1.659849 1_555
O6 Si2 1.655486 1_555
O7 Si1 1.655486 1_555
O8 Si3 1.635130 1_655
O9 Si1 1.675465 1_554
O10 Si3 1.659293 1_555
O11 Si0 1.635130 1_455
O12 Si2 1.675465 1_556
O13 Si0 1.659293 1_555
O14 Si0 1.655327 1_555
O15 Si3 1.655327 1_555
