# generated using pymatgen
data_TiCrAgS4
_symmetry_space_group_name_H-M   'P 1'
_cell_length_a   5.83918800
_cell_length_b   9.30936500
_cell_length_c   11.63449700
_cell_angle_alpha   90.00000000
_cell_angle_beta   90.00000000
_cell_angle_gamma   90.00000000
_symmetry_Int_Tables_number   1
_chemical_formula_structural   TiCrAgS4
_chemical_formula_sum   'Ti4 Cr4 Ag4 S16'
_cell_volume   632.44116278
_cell_formula_units_Z   4
loop_
 _symmetry_equiv_pos_site_id
 _symmetry_equiv_pos_as_xyz
  1  'x, y, z'
loop_
 _atom_site_type_symbol
 _atom_site_label
 _atom_site_symmetry_multiplicity
 _atom_site_fract_x
 _atom_site_fract_y
 _atom_site_fract_z
 _atom_site_occupancy
  Ti  Ti0  1  0.00674200  0.00000000  0.48870500  1
  Ti  Ti1  1  0.50674200  0.00000000  0.51129500  1
  Ti  Ti2  1  0.14175500  0.00000000  0.72296400  1
  Ti  Ti3  1  0.64175500  0.00000000  0.27703600  1
  Cr  Cr0  1  0.98446000  0.50000000  0.01022100  1
  Cr  Cr1  1  0.48446000  0.50000000  0.98977900  1
  Cr  Cr2  1  0.87044700  0.50000000  0.78551000  1
  Cr  Cr3  1  0.37044700  0.50000000  0.21449000  1
  Ag  Ag0  1  0.19536000  0.00000000  0.11742600  1
  Ag  Ag1  1  0.80943000  0.50000000  0.38875600  1
  Ag  Ag2  1  0.30943000  0.50000000  0.61124400  1
  Ag  Ag3  1  0.69536000  0.00000000  0.88257400  1
  S  S0  1  0.24977400  0.17979400  0.59482700  1
  S  S1  1  0.74474500  0.33304700  0.90676100  1
  S  S2  1  0.24474500  0.33304700  0.09323900  1
  S  S3  1  0.74977400  0.17979400  0.40517300  1
  S  S4  1  0.74977400  0.82020600  0.40517300  1
  S  S5  1  0.24474500  0.66695300  0.09323900  1
  S  S6  1  0.74474500  0.66695300  0.90676100  1
  S  S7  1  0.24977400  0.82020600  0.59482700  1
  S  S8  1  0.75790700  0.00000000  0.09631600  1
  S  S9  1  0.24976900  0.50000000  0.38896900  1
  S  S10  1  0.74976900  0.50000000  0.61103100  1
  S  S11  1  0.25790700  0.00000000  0.90368400  1
  S  S12  1  0.23340100  0.50000000  0.82916600  1
  S  S13  1  0.76168900  0.00000000  0.67121900  1
  S  S14  1  0.26168900  0.00000000  0.32878100  1
  S  S15  1  0.73340100  0.50000000  0.17083400  1
loop_
_geom_bond_atom_site_label_1
_geom_bond_atom_site_label_2
_geom_bond_distance
_geom_bond_site_symmetry_2
Cr0 S15 2.375070 1_555
Cr0 S2 2.378757 1_655
Cr0 S5 2.378757 1_655
Cr0 S6 2.413255 1_554
Cr0 S1 2.413255 1_554
Cr0 S12 2.559349 1_654
Cr1 S12 2.375070 1_555
Cr1 S6 2.378757 1_555
Cr1 S1 2.378757 1_555
Cr1 S5 2.413255 1_556
Cr1 S2 2.413255 1_556
Cr1 S15 2.559349 1_556
Cr2 S10 2.148802 1_555
Cr2 S12 2.179369 1_655
Cr2 S1 2.223608 1_555
Cr2 S6 2.223608 1_555
Cr3 S9 2.148802 1_555
Cr3 S15 2.179369 1_555
Cr3 S2 2.223608 1_555
Cr3 S5 2.223608 1_555
Ag0 S14 2.489324 1_555
Ag0 S11 2.513457 1_554
Ag0 S8 2.566151 1_455
Ag0 S5 3.126527 1_545
Ag0 S2 3.126527 1_555
Ag1 S9 2.571223 1_655
Ag1 S15 2.573987 1_555
Ag1 S10 2.609417 1_555
Ag1 S4 3.007271 1_555
Ag1 S3 3.007271 1_555
Ag2 S10 2.571223 1_555
Ag2 S12 2.573987 1_555
Ag2 S9 2.609417 1_555
Ag2 S7 3.007271 1_555
Ag2 S0 3.007271 1_555
Ag3 S13 2.489324 1_555
Ag3 S8 2.513457 1_556
Ag3 S11 2.566151 1_555
Ag3 S6 3.126527 1_545
Ag3 S1 3.126527 1_555
S0 Ti2 2.328486 1_555
S0 Ti1 2.448969 1_555
S0 Ti0 2.517895 1_555
S3 Ti3 2.328486 1_555
S3 Ti0 2.448969 1_655
S3 Ti1 2.517895 1_555
S4 Ti3 2.328486 1_565
S4 Ti0 2.448969 1_665
S4 Ti1 2.517895 1_565
S7 Ti2 2.328486 1_565
S7 Ti1 2.448969 1_565
S7 Ti0 2.517895 1_565
S8 Ti3 2.209269 1_555
S11 Ti2 2.209269 1_555
S13 Ti2 2.299484 1_655
S13 Ti1 2.382885 1_555
S13 Ti0 2.560582 1_655
S14 Ti3 2.299484 1_555
S14 Ti0 2.382885 1_555
S14 Ti1 2.560582 1_555
