# generated using pymatgen
data_NaNb7V2O14
_symmetry_space_group_name_H-M   'P 1'
_cell_length_a   6.05680461
_cell_length_b   6.05680380
_cell_length_c   18.22398639
_cell_angle_alpha   89.99998283
_cell_angle_beta   90.00000001
_cell_angle_gamma   119.99999646
_symmetry_Int_Tables_number   1
_chemical_formula_structural   NaNb7V2O14
_chemical_formula_sum   'Na2 Nb14 V4 O28'
_cell_volume   578.97671673
_cell_formula_units_Z   2
loop_
 _symmetry_equiv_pos_site_id
 _symmetry_equiv_pos_as_xyz
  1  'x, y, z'
loop_
 _atom_site_type_symbol
 _atom_site_label
 _atom_site_symmetry_multiplicity
 _atom_site_fract_x
 _atom_site_fract_y
 _atom_site_fract_z
 _atom_site_occupancy
  Na  Na0  1  0.00000014  0.00000028  0.25004213  1
  Na  Na1  1  0.00000007  0.00000014  0.74995958  1
  Nb  Nb0  1  0.66666711  0.33333322  0.25004071  1
  Nb  Nb1  1  0.33333272  0.66666643  0.74995665  1
  Nb  Nb2  1  0.30826971  0.15413445  0.06445206  1
  Nb  Nb3  1  0.69173281  0.84586665  0.93534544  1
  Nb  Nb4  1  0.84586573  0.15413445  0.06445206  1
  Nb  Nb5  1  0.69173238  0.84586636  0.56462937  1
  Nb  Nb6  1  0.15413284  0.84586665  0.93534544  1
  Nb  Nb7  1  0.30827391  0.15413688  0.43556786  1
  Nb  Nb8  1  0.84586587  0.69173073  0.06445217  1
  Nb  Nb9  1  0.15413299  0.84586636  0.56462937  1
  Nb  Nb10  1  0.15413320  0.30826740  0.93534539  1
  Nb  Nb11  1  0.84586397  0.15413688  0.43556786  1
  Nb  Nb12  1  0.15413318  0.30826736  0.56462934  1
  Nb  Nb13  1  0.84586375  0.69172650  0.43556789  1
  V  V0  1  0.33333219  0.66666538  0.17830236  1
  V  V1  1  0.66666681  0.33333262  0.82162289  1
  V  V2  1  0.66666736  0.33333371  0.67828325  1
  V  V3  1  0.33333324  0.66666749  0.32177357  1
  O  O0  1  0.16579863  0.33159725  0.12881088  1
  O  O1  1  0.83415773  0.66831546  0.87099089  1
  O  O2  1  0.66840243  0.83420135  0.12881084  1
  O  O3  1  0.83416682  0.66833363  0.62894926  1
  O  O4  1  0.33168401  0.16584223  0.87099085  1
  O  O5  1  0.16584309  0.33168619  0.37124416  1
  O  O6  1  0.16579892  0.83420135  0.12881084  1
  O  O7  1  0.33166648  0.16583331  0.62894928  1
  O  O8  1  0.83415822  0.16584223  0.87099085  1
  O  O9  1  0.66831390  0.83415679  0.37124415  1
  O  O10  1  0.83416683  0.16583331  0.62894928  1
  O  O11  1  0.16584289  0.83415679  0.37124415  1
  O  O12  1  0.33333299  0.66666698  0.63690512  1
  O  O13  1  0.66666700  0.33333301  0.36318425  1
  O  O14  1  0.66666716  0.33333333  0.13687328  1
  O  O15  1  0.33333308  0.66666716  0.86303752  1
  O  O16  1  0.03032331  0.51516068  0.25006506  1
  O  O17  1  0.96971608  0.48485840  0.74995258  1
  O  O18  1  0.48483837  0.51516068  0.25006506  1
  O  O19  1  0.51514132  0.48485840  0.74995258  1
  O  O20  1  0.48483905  0.96967710  0.25006504  1
  O  O21  1  0.51514116  0.03028331  0.74995262  1
  O  O22  1  0.49999998  -0.00000004  0.99988737  1
  O  O23  1  0.00000036  0.50000031  0.99988741  1
  O  O24  1  0.50000742  0.00001485  0.50011126  1
  O  O25  1  0.49999995  0.50000031  0.99988741  1
  O  O26  1  -0.00001458  0.49999283  0.50011129  1
  O  O27  1  0.50000740  0.49999283  0.50011129  1
loop_
_geom_bond_atom_site_label_1
_geom_bond_atom_site_label_2
_geom_bond_distance
_geom_bond_site_symmetry_2
Na0 O5 2.811701 1_555
Na0 O11 2.811701 1_545
Na0 O9 2.811701 1_445
Na0 O0 2.811829 1_555
Na0 O6 2.811833 1_545
Na0 O2 2.811833 1_445
Na1 O10 2.808892 1_455
Na1 O7 2.808893 1_555
Na1 O3 2.808894 1_445
Na1 O8 2.809250 1_455
Na1 O4 2.809250 1_555
Na1 O1 2.809252 1_445
Nb0 O20 1.907502 1_545
Nb0 O18 1.907503 1_555
Nb0 O16 1.907503 1_655
Nb0 O13 2.061926 1_555
Nb0 O14 2.062362 1_555
Nb1 O19 1.907295 1_555
Nb1 O17 1.907295 1_455
Nb1 O21 1.907296 1_565
Nb1 O12 2.060250 1_555
Nb1 O15 2.060784 1_555
Nb2 O6 2.050142 1_545
Nb2 O0 2.050146 1_555
Nb2 O22 2.165332 1_554
Nb2 O25 2.165336 1_554
Nb2 O14 2.296949 1_555
Nb3 O8 2.050301 1_565
Nb3 O1 2.050304 1_555
Nb3 O22 2.165113 1_565
Nb3 O25 2.165114 1_555
Nb3 O15 2.295773 1_555
Nb4 O2 2.050142 1_545
Nb4 O0 2.050142 1_655
Nb4 O23 2.165336 1_654
Nb4 O22 2.165337 1_554
Nb4 O14 2.296949 1_555
Nb5 O10 2.049899 1_565
Nb5 O3 2.049899 1_555
Nb5 O24 2.164906 1_565
Nb5 O27 2.164906 1_555
Nb5 O12 2.295435 1_555
Nb6 O1 2.050300 1_455
Nb6 O4 2.050302 1_565
Nb6 O23 2.165114 1_555
Nb6 O22 2.165118 1_565
Nb6 O15 2.295773 1_555
Nb7 O5 2.049998 1_555
Nb7 O11 2.049998 1_545
Nb7 O24 2.165083 1_555
Nb7 O27 2.165085 1_555
Nb7 O13 2.296537 1_555
Nb8 O6 2.050141 1_655
Nb8 O2 2.050145 1_555
Nb8 O23 2.165333 1_654
Nb8 O25 2.165338 1_554
Nb8 O14 2.296947 1_555
Nb9 O3 2.049896 1_455
Nb9 O7 2.049900 1_565
Nb9 O26 2.164907 1_555
Nb9 O24 2.164910 1_565
Nb9 O12 2.295435 1_555
Nb10 O8 2.050299 1_455
Nb10 O4 2.050303 1_555
Nb10 O23 2.165113 1_555
Nb10 O25 2.165117 1_555
Nb10 O15 2.295772 1_555
Nb11 O5 2.049994 1_655
Nb11 O9 2.049999 1_545
Nb11 O26 2.165086 1_655
Nb11 O24 2.165088 1_555
Nb11 O13 2.296536 1_555
Nb12 O10 2.049897 1_455
Nb12 O7 2.049901 1_555
Nb12 O26 2.164904 1_555
Nb12 O27 2.164909 1_555
Nb12 O12 2.295437 1_555
Nb13 O11 2.049994 1_655
Nb13 O9 2.049999 1_555
Nb13 O26 2.165082 1_655
Nb13 O27 2.165087 1_555
Nb13 O13 2.296539 1_555
O0 V0 1.975464 1_555
O1 V1 1.974040 1_555
O2 V0 1.975474 1_555
O3 V2 1.973836 1_555
O4 V1 1.974039 1_555
O5 V3 1.974885 1_555
O6 V0 1.975469 1_555
O7 V2 1.973841 1_555
O8 V1 1.974034 1_555
O9 V3 1.974882 1_555
O10 V2 1.973836 1_555
O11 V3 1.974877 1_555
O16 V3 2.057652 1_555
O16 V0 2.058275 1_555
O17 V2 2.057356 1_555
O17 V1 2.057369 1_555
O18 V3 2.057660 1_555
O18 V0 2.058283 1_555
O19 V2 2.057364 1_555
O19 V1 2.057377 1_555
O20 V3 2.057651 1_555
O20 V0 2.058287 1_555
O21 V2 2.057363 1_555
O21 V1 2.057369 1_555
