# generated using pymatgen
data_Mn3Co
_symmetry_space_group_name_H-M   'P 1'
_cell_length_a   5.60505982
_cell_length_b   5.13883674
_cell_length_c   4.27862939
_cell_angle_alpha   90.00046379
_cell_angle_beta   89.99951164
_cell_angle_gamma   123.06028955
_symmetry_Int_Tables_number   1
_chemical_formula_structural   Mn3Co
_chemical_formula_sum   'Mn6 Co2'
_cell_volume   103.28661213
_cell_formula_units_Z   2
loop_
 _symmetry_equiv_pos_site_id
 _symmetry_equiv_pos_as_xyz
  1  'x, y, z'
loop_
 _atom_site_type_symbol
 _atom_site_label
 _atom_site_symmetry_multiplicity
 _atom_site_fract_x
 _atom_site_fract_y
 _atom_site_fract_z
 _atom_site_occupancy
  Mn  Mn0  1  0.14564876  0.29131077  0.25000100  1
  Mn  Mn1  1  0.63493839  0.77522507  0.25000200  1
  Mn  Mn2  1  0.14036078  0.77532727  0.24999900  1
  Mn  Mn3  1  0.85434249  0.70868617  0.75000000  1
  Mn  Mn4  1  0.36503314  0.22475482  0.75000000  1
  Mn  Mn5  1  0.85966457  0.22466523  0.75000200  1
  Co  Co0  1  0.36762197  0.73524265  0.75000100  1
  Co  Co1  1  0.63239190  0.26479103  0.25000000  1
loop_
_geom_bond_atom_site_label_1
_geom_bond_atom_site_label_2
_geom_bond_distance
_geom_bond_site_symmetry_2
Mn0 Mn1 2.502883 1_555
Mn0 Mn2 2.503574 1_555
Mn0 Mn5 2.581559 1_455
Mn0 Mn5 2.581570 1_454
Mn0 Mn4 2.581576 1_554
Mn0 Mn4 2.581591 1_555
Mn0 Mn1 2.635313 1_445
Mn0 Mn2 2.635503 1_545
Mn1 Mn3 2.581606 1_554
Mn1 Mn3 2.581614 1_555
Mn2 Mn3 2.581668 1_455
Mn2 Mn3 2.581679 1_454
Mn3 Mn4 2.502979 1_555
Mn3 Mn5 2.503703 1_555
Mn3 Mn4 2.635218 1_665
Mn3 Mn5 2.635378 1_565
Co0 Mn5 2.522666 1_565
Co0 Mn4 2.523468 1_565
Co0 Mn2 2.554973 1_556
Co0 Mn1 2.554978 1_555
Co0 Mn1 2.555004 1_556
Co0 Mn2 2.555008 1_555
Co0 Mn5 2.615341 1_455
Co0 Mn4 2.615426 1_555
Co0 Mn3 2.804848 1_455
Co0 Mn3 2.804877 1_555
Co0 Mn0 2.869176 1_555
Co0 Mn0 2.869187 1_556
Co1 Mn2 2.522715 1_545
Co1 Mn1 2.523614 1_545
Co1 Mn4 2.555045 1_555
Co1 Mn4 2.555063 1_554
Co1 Mn5 2.555082 1_554
Co1 Mn5 2.555118 1_555
Co1 Mn1 2.615278 1_555
Co1 Mn2 2.615290 1_655
Co1 Mn0 2.804818 1_655
Co1 Mn0 2.804895 1_555
Co1 Mn3 2.869070 1_555
Co1 Mn3 2.869082 1_554
