# generated using pymatgen
data_YBeCu4
_symmetry_space_group_name_H-M   'P 1'
_cell_length_a   5.05941482
_cell_length_b   5.05941482
_cell_length_c   3.86976600
_cell_angle_alpha   90.00000000
_cell_angle_beta   90.00000000
_cell_angle_gamma   120.00001073
_symmetry_Int_Tables_number   1
_chemical_formula_structural   YBeCu4
_chemical_formula_sum   'Y1 Be1 Cu4'
_cell_volume   85.78589103
_cell_formula_units_Z   1
loop_
 _symmetry_equiv_pos_site_id
 _symmetry_equiv_pos_as_xyz
  1  'x, y, z'
loop_
 _atom_site_type_symbol
 _atom_site_label
 _atom_site_symmetry_multiplicity
 _atom_site_fract_x
 _atom_site_fract_y
 _atom_site_fract_z
 _atom_site_occupancy
  Y  Y0  1  0.00000000  0.00000000  0.00000000  1
  Be  Be0  1  0.33333300  0.66666700  0.00000000  1
  Cu  Cu0  1  0.66666700  0.33333300  0.00000000  1
  Cu  Cu1  1  0.00924700  0.50462300  0.50000000  1
  Cu  Cu2  1  0.49537700  0.50462300  0.50000000  1
  Cu  Cu3  1  0.49537700  0.99075300  0.50000000  1
loop_
_geom_bond_atom_site_label_1
_geom_bond_atom_site_label_2
_geom_bond_distance
_geom_bond_site_symmetry_2
Be0 Cu1 2.400041 1_555
Be0 Cu3 2.400041 1_554
Be0 Cu1 2.400041 1_554
Be0 Cu3 2.400041 1_555
Be0 Cu2 2.400047 1_554
Be0 Cu2 2.400047 1_555
Be0 Cu0 2.921051 1_455
Be0 Cu0 2.921051 1_565
Be0 Y0 2.921052 1_565
Be0 Y0 2.921056 1_665
Be0 Y0 2.921056 1_555
Be0 Cu0 2.921061 1_555
Cu0 Cu1 2.448857 1_654
Cu0 Cu3 2.448857 1_544
Cu0 Cu3 2.448857 1_545
Cu0 Cu1 2.448857 1_655
Cu0 Cu2 2.448857 1_554
Cu0 Cu2 2.448857 1_555
Cu0 Y0 2.921052 1_655
Cu0 Y0 2.921056 1_665
Cu0 Y0 2.921056 1_555
Cu1 Cu3 2.459533 1_555
Cu1 Cu2 2.459533 1_555
Cu1 Cu3 2.599881 1_445
Cu1 Cu2 2.599881 1_455
Cu1 Y0 3.185093 1_556
Cu1 Y0 3.185093 1_555
Cu1 Y0 3.185098 1_565
Cu1 Y0 3.185098 1_566
Cu2 Cu3 2.459533 1_555
Cu2 Cu3 2.599881 1_545
Cu2 Y0 3.185095 1_666
Cu2 Y0 3.185095 1_556
Cu2 Y0 3.185095 1_555
Cu2 Y0 3.185095 1_665
Cu3 Y0 3.185093 1_665
Cu3 Y0 3.185093 1_666
Cu3 Y0 3.185098 1_566
Cu3 Y0 3.185098 1_565
