# generated using pymatgen
data_LaPr3(CoP)8
_symmetry_space_group_name_H-M   'P 1'
_cell_length_a   3.90927300
_cell_length_b   3.90927300
_cell_length_c   19.95788600
_cell_angle_alpha   90.00000000
_cell_angle_beta   90.00000000
_cell_angle_gamma   90.00000000
_symmetry_Int_Tables_number   1
_chemical_formula_structural   LaPr3(CoP)8
_chemical_formula_sum   'La1 Pr3 Co8 P8'
_cell_volume   305.00470413
_cell_formula_units_Z   1
loop_
 _symmetry_equiv_pos_site_id
 _symmetry_equiv_pos_as_xyz
  1  'x, y, z'
loop_
 _atom_site_type_symbol
 _atom_site_label
 _atom_site_symmetry_multiplicity
 _atom_site_fract_x
 _atom_site_fract_y
 _atom_site_fract_z
 _atom_site_occupancy
  La  La0  1  0.00000000  0.00000000  0.00000000  1
  Pr  Pr0  1  0.50000000  0.50000000  0.25035000  1
  Pr  Pr1  1  0.00000000  0.00000000  0.50000000  1
  Pr  Pr2  1  0.50000000  0.50000000  0.74965000  1
  Co  Co0  1  0.00000000  0.50000000  0.12625700  1
  Co  Co1  1  0.50000000  0.00000000  0.37503400  1
  Co  Co2  1  0.00000000  0.50000000  0.62496600  1
  Co  Co3  1  0.50000000  0.00000000  0.87374300  1
  Co  Co4  1  0.50000000  0.00000000  0.12625700  1
  Co  Co5  1  0.00000000  0.50000000  0.37503400  1
  Co  Co6  1  0.50000000  0.00000000  0.62496600  1
  Co  Co7  1  0.00000000  0.50000000  0.87374300  1
  P  P0  1  0.50000000  0.50000000  0.07068900  1
  P  P1  1  0.00000000  0.00000000  0.31860100  1
  P  P2  1  0.50000000  0.50000000  0.56868300  1
  P  P3  1  0.00000000  0.00000000  0.81761600  1
  P  P4  1  0.00000000  0.00000000  0.18238400  1
  P  P5  1  0.50000000  0.50000000  0.43131700  1
  P  P6  1  0.00000000  0.00000000  0.68139900  1
  P  P7  1  0.50000000  0.50000000  0.92931100  1
loop_
_geom_bond_atom_site_label_1
_geom_bond_atom_site_label_2
_geom_bond_distance
_geom_bond_site_symmetry_2
La0 P7 3.103478 1_554
La0 P0 3.103478 1_455
La0 P7 3.103478 1_454
La0 P0 3.103478 1_445
La0 P0 3.103478 1_555
La0 P7 3.103478 1_444
La0 P0 3.103478 1_545
La0 P7 3.103478 1_544
Co0 P0 2.247338 1_555
Co0 P0 2.247338 1_455
Co0 P4 2.252865 1_565
Co0 P4 2.252865 1_555
Co0 Pr0 3.155047 1_555
Co0 Pr0 3.155047 1_455
Co0 La0 3.189061 1_565
Co0 La0 3.189061 1_555
Co1 P5 2.254414 1_545
Co1 P5 2.254414 1_555
Co1 P1 2.255907 1_555
Co1 P1 2.255907 1_655
Co1 Pr0 3.164314 1_555
Co1 Pr0 3.164314 1_545
Co1 Pr1 3.168742 1_555
Co1 Pr1 3.168742 1_655
Co2 P2 2.254414 1_555
Co2 P2 2.254414 1_455
Co2 P6 2.255907 1_565
Co2 P6 2.255907 1_555
Co2 Pr2 3.164314 1_555
Co2 Pr2 3.164314 1_455
Co2 Pr1 3.168742 1_555
Co2 Pr1 3.168742 1_565
Co3 P7 2.247338 1_545
Co3 P7 2.247338 1_555
Co3 P3 2.252865 1_555
Co3 P3 2.252865 1_655
Co3 Pr2 3.155047 1_555
Co3 Pr2 3.155047 1_545
Co3 La0 3.189061 1_556
Co3 La0 3.189061 1_656
Co4 P0 2.247338 1_555
Co4 P0 2.247338 1_545
Co4 P4 2.252865 1_655
Co4 P4 2.252865 1_555
Co4 Pr0 3.155047 1_545
Co4 Pr0 3.155047 1_555
Co4 La0 3.189061 1_655
Co4 La0 3.189061 1_555
Co5 P5 2.254414 1_555
Co5 P5 2.254414 1_455
Co5 P1 2.255907 1_565
Co5 P1 2.255907 1_555
Co5 Pr0 3.164314 1_555
Co5 Pr0 3.164314 1_455
Co5 Pr1 3.168742 1_555
Co5 Pr1 3.168742 1_565
Co6 P2 2.254414 1_555
Co6 P2 2.254414 1_545
Co6 P6 2.255907 1_655
Co6 P6 2.255907 1_555
Co6 Pr2 3.164314 1_555
Co6 Pr2 3.164314 1_545
Co6 Pr1 3.168742 1_555
Co6 Pr1 3.168742 1_655
Co7 P7 2.247338 1_555
Co7 P7 2.247338 1_455
Co7 P3 2.252865 1_555
Co7 P3 2.252865 1_565
Co7 Pr2 3.155047 1_455
Co7 Pr2 3.155047 1_555
Co7 La0 3.189061 1_556
Co7 La0 3.189061 1_566
P1 Pr0 3.081663 1_445
P1 Pr0 3.081663 1_545
P1 Pr0 3.081663 1_555
P1 Pr0 3.081663 1_455
P2 Pr1 3.085484 1_565
P2 Pr1 3.085484 1_655
P2 Pr1 3.085484 1_665
P2 Pr1 3.085484 1_555
P3 Pr2 3.079153 1_545
P3 Pr2 3.079153 1_445
P3 Pr2 3.079153 1_455
P3 Pr2 3.079153 1_555
P4 Pr0 3.079153 1_545
P4 Pr0 3.079153 1_555
P4 Pr0 3.079153 1_445
P4 Pr0 3.079153 1_455
P5 Pr1 3.085484 1_555
P5 Pr1 3.085484 1_655
P5 Pr1 3.085484 1_565
P5 Pr1 3.085484 1_665
P6 Pr2 3.081663 1_455
P6 Pr2 3.081663 1_555
P6 Pr2 3.081663 1_545
P6 Pr2 3.081663 1_445
