# generated using pymatgen
data_AlPO4
_symmetry_space_group_name_H-M   'P 1'
_cell_length_a   17.00625649
_cell_length_b   18.73718160
_cell_length_c   18.73718160
_cell_angle_alpha   120.03977139
_cell_angle_beta   90.12454083
_cell_angle_gamma   90.12454083
_symmetry_Int_Tables_number   1
_chemical_formula_structural   AlPO4
_chemical_formula_sum   'Al36 P36 O144'
_cell_volume   5168.56034456
_cell_formula_units_Z   36
loop_
 _symmetry_equiv_pos_site_id
 _symmetry_equiv_pos_as_xyz
  1  'x, y, z'
loop_
 _atom_site_type_symbol
 _atom_site_label
 _atom_site_symmetry_multiplicity
 _atom_site_fract_x
 _atom_site_fract_y
 _atom_site_fract_z
 _atom_site_occupancy
  Al  Al0  1  0.87190419  0.00240869  0.57685049  1
  Al  Al1  1  0.87190419  0.57685049  0.00240869  1
  Al  Al2  1  0.86618973  0.43307074  0.43307074  1
  Al  Al3  1  0.90333483  0.16980478  0.50609861  1
  Al  Al4  1  0.90333483  0.50609861  0.16980478  1
  Al  Al5  1  0.62579817  0.99963870  0.41342945  1
  Al  Al6  1  0.62579817  0.41342945  0.99963870  1
  Al  Al7  1  0.64350124  0.16833621  0.65847412  1
  Al  Al8  1  0.64350124  0.65847412  0.16833621  1
  Al  Al9  1  0.64757371  0.32900214  0.50663772  1
  Al  Al10  1  0.64757371  0.50663772  0.32900214  1
  Al  Al11  1  0.40420410  0.01042641  0.58964977  1
  Al  Al12  1  0.40420410  0.58964977  0.01042641  1
  Al  Al13  1  0.40942244  0.42617603  0.42617603  1
  Al  Al14  1  0.37222945  0.17984657  0.50421476  1
  Al  Al15  1  0.37222945  0.50421476  0.17984657  1
  Al  Al16  1  0.15248095  0.00240761  0.42460480  1
  Al  Al17  1  0.15248095  0.42460480  0.00240761  1
  Al  Al18  1  0.13630796  0.17114793  0.66947326  1
  Al  Al19  1  0.13630796  0.66947326  0.17114793  1
  Al  Al20  1  0.12683105  0.34286274  0.50337159  1
  Al  Al21  1  0.12683105  0.50337159  0.34286274  1
  Al  Al22  1  0.88645945  0.83267224  0.33666307  1
  Al  Al23  1  0.88645945  0.33666307  0.83267224  1
  Al  Al24  1  0.89835579  0.66769427  0.50425368  1
  Al  Al25  1  0.89835579  0.50425368  0.66769427  1
  Al  Al26  1  0.64440701  0.81810473  0.48985374  1
  Al  Al27  1  0.64440701  0.48985374  0.81810473  1
  Al  Al28  1  0.39078947  0.82596617  0.33830336  1
  Al  Al29  1  0.39078947  0.33830336  0.82596617  1
  Al  Al30  1  0.37495250  0.67211630  0.49590512  1
  Al  Al31  1  0.37495250  0.49590512  0.67211630  1
  Al  Al32  1  0.13161205  0.84058724  0.50508293  1
  Al  Al33  1  0.13161205  0.50508293  0.84058724  1
  Al  Al34  1  0.62063583  0.58574604  0.58574604  1
  Al  Al35  1  0.15983773  0.57802725  0.57802725  1
  P  P0  1  0.81178224  0.00470483  0.41753291  1
  P  P1  1  0.81178224  0.41753291  0.00470483  1
  P  P2  1  0.82819003  0.17915515  0.66633063  1
  P  P3  1  0.82819003  0.66633063  0.17915515  1
  P  P4  1  0.83599813  0.33155266  0.51024930  1
  P  P5  1  0.83599813  0.51024930  0.33155266  1
  P  P6  1  0.56100763  0.17418085  0.50402267  1
  P  P7  1  0.56100763  0.50402267  0.17418085  1
  P  P8  1  0.59329395  0.99498425  0.58319052  1
  P  P9  1  0.59329395  0.58319052  0.99498425  1
  P  P10  1  0.59589674  0.41271058  0.41271058  1
  P  P11  1  0.34137874  0.00051316  0.42153611  1
  P  P12  1  0.34137874  0.42153611  0.00051316  1
  P  P13  1  0.32112228  0.17596010  0.66988731  1
  P  P14  1  0.32112228  0.66988731  0.17596010  1
  P  P15  1  0.31045781  0.34164062  0.50370385  1
  P  P16  1  0.31045781  0.50370385  0.34164062  1
  P  P17  1  0.09173998  0.17397320  0.50447149  1
  P  P18  1  0.09173998  0.50447149  0.17397320  1
  P  P19  1  0.06136591  0.00776925  0.58026130  1
  P  P20  1  0.06136591  0.58026130  0.00776925  1
  P  P21  1  0.04987664  0.43462375  0.43462375  1
  P  P22  1  0.83148399  0.82431634  0.50035527  1
  P  P23  1  0.83148399  0.50035527  0.82431634  1
  P  P24  1  0.57808490  0.81839177  0.32587911  1
  P  P25  1  0.57808490  0.32587911  0.81839177  1
  P  P26  1  0.56138036  0.66268210  0.48619808  1
  P  P27  1  0.56138036  0.48619808  0.66268210  1
  P  P28  1  0.32342284  0.84354391  0.51043934  1
  P  P29  1  0.32342284  0.51043934  0.84354391  1
  P  P30  1  0.07739291  0.83339292  0.33394403  1
  P  P31  1  0.07739291  0.33394403  0.83339292  1
  P  P32  1  0.08689712  0.67399228  0.50741551  1
  P  P33  1  0.08689712  0.50741551  0.67399228  1
  P  P34  1  0.80440887  0.59044918  0.59044918  1
  P  P35  1  0.34384339  0.58220848  0.58220848  1
  O  O0  1  0.84884841  0.09768476  0.66411548  1
  O  O1  1  0.84884841  0.66411548  0.09768476  1
  O  O2  1  0.84755825  0.34151475  0.43385334  1
  O  O3  1  0.84755825  0.43385334  0.34151475  1
  O  O4  1  0.97327927  0.99949502  0.55766479  1
  O  O5  1  0.97327927  0.55766479  0.99949502  1
  O  O6  1  0.96454309  0.46151208  0.46151208  1
  O  O7  1  0.81441803  0.00311404  0.49893670  1
  O  O8  1  0.81441803  0.49893670  0.00311404  1
  O  O9  1  0.80426633  0.50802045  0.50802045  1
  O  O10  1  0.85597767  0.08124414  0.42831174  1
  O  O11  1  0.85597767  0.42831174  0.08124414  1
  O  O12  1  0.88133567  0.19144616  0.60666539  1
  O  O13  1  0.88133567  0.60666539  0.19144616  1
  O  O14  1  0.87225611  0.40527720  0.58778119  1
  O  O15  1  0.87225611  0.58778119  0.40527720  1
  O  O16  1  0.87770113  0.25272230  0.49369632  1
  O  O17  1  0.87770113  0.49369632  0.25272230  1
  O  O18  1  0.84036325  0.24966948  0.75434416  1
  O  O19  1  0.84036325  0.75434416  0.24966948  1
  O  O20  1  0.00403157  0.15184248  0.49588639  1
  O  O21  1  0.00403157  0.49588639  0.15184248  1
  O  O22  1  0.57391539  0.08724040  0.42876534  1
  O  O23  1  0.57391539  0.42876534  0.08724040  1
  O  O24  1  0.72548241  0.00878243  0.39494642  1
  O  O25  1  0.72548241  0.39494642  0.00878243  1
  O  O26  1  0.61119678  0.99514257  0.50306090  1
  O  O27  1  0.61119678  0.50306090  0.99514257  1
  O  O28  1  0.61278284  0.49301889  0.49301889  1
  O  O29  1  0.63134627  0.07260295  0.65476330  1
  O  O30  1  0.63134627  0.65476330  0.07260295  1
  O  O31  1  0.63232873  0.34079861  0.41936069  1
  O  O32  1  0.63232873  0.41936069  0.34079861  1
  O  O33  1  0.58707479  0.17644969  0.58403743  1
  O  O34  1  0.58707479  0.58403743  0.17644969  1
  O  O35  1  0.60815886  0.23632824  0.49106876  1
  O  O36  1  0.60815886  0.49106876  0.23632824  1
  O  O37  1  0.74229438  0.17859616  0.63978850  1
  O  O38  1  0.74229438  0.63978850  0.17859616  1
  O  O39  1  0.74794996  0.32565796  0.52476382  1
  O  O40  1  0.74794996  0.52476382  0.32565796  1
  O  O41  1  0.37680047  0.10961773  0.66745723  1
  O  O42  1  0.37680047  0.66745723  0.10961773  1
  O  O43  1  0.36603886  0.35246970  0.44505841  1
  O  O44  1  0.36603886  0.44505841  0.35246970  1
  O  O45  1  0.50420433  0.99623980  0.59721148  1
  O  O46  1  0.50420433  0.59721148  0.99623980  1
  O  O47  1  0.50683508  0.39802781  0.39802781  1
  O  O48  1  0.38404094  0.01258081  0.49921508  1
  O  O49  1  0.38404094  0.49921508  0.01258081  1
  O  O50  1  0.35295578  0.08018066  0.41744880  1
  O  O51  1  0.35295578  0.41744880  0.08018066  1
  O  O52  1  0.33502716  0.18949779  0.59626533  1
  O  O53  1  0.33502716  0.59626533  0.18949779  1
  O  O54  1  0.32337218  0.40948632  0.59487007  1
  O  O55  1  0.32337218  0.59487007  0.40948632  1
  O  O56  1  0.32476160  0.25615588  0.49307365  1
  O  O57  1  0.32476160  0.49307365  0.25615588  1
  O  O58  1  0.33521268  0.25720994  0.75038006  1
  O  O59  1  0.33521268  0.75038006  0.25720994  1
  O  O60  1  0.47370474  0.19698479  0.51128404  1
  O  O61  1  0.47370474  0.51128404  0.19698479  1
  O  O62  1  0.13683434  0.10006034  0.43543187  1
  O  O63  1  0.13683434  0.43543187  0.10006034  1
  O  O64  1  0.25299392  0.98455344  0.42518293  1
  O  O65  1  0.25299392  0.42518293  0.98455344  1
  O  O66  1  0.10994390  0.01215933  0.51372648  1
  O  O67  1  0.10994390  0.51372648  0.01215933  1
  O  O68  1  0.10629283  0.49861485  0.49861485  1
  O  O69  1  0.07716462  0.08890022  0.66163850  1
  O  O70  1  0.07716462  0.66163850  0.08890022  1
  O  O71  1  0.06595618  0.35187536  0.43100266  1
  O  O72  1  0.06595618  0.43100266  0.35187536  1
  O  O73  1  0.12118885  0.19482842  0.59073797  1
  O  O74  1  0.12118885  0.59073797  0.19482842  1
  O  O75  1  0.10474290  0.24809015  0.49315987  1
  O  O76  1  0.10474290  0.49315987  0.24809015  1
  O  O77  1  0.23599418  0.14674791  0.66726900  1
  O  O78  1  0.23599418  0.66726900  0.14674791  1
  O  O79  1  0.22534585  0.34639079  0.47872116  1
  O  O80  1  0.22534585  0.47872116  0.34639079  1
  O  O81  1  0.84228373  0.91178757  0.57584471  1
  O  O82  1  0.84228373  0.57584471  0.91178757  1
  O  O83  1  0.85080745  0.92626931  0.34885448  1
  O  O84  1  0.85080745  0.34885448  0.92626931  1
  O  O85  1  0.84651344  0.65743532  0.57984667  1
  O  O86  1  0.84651344  0.57984667  0.65743532  1
  O  O87  1  0.86217926  0.82288800  0.42232744  1
  O  O88  1  0.86217926  0.42232744  0.82288800  1
  O  O89  1  0.87901461  0.76391712  0.51540698  1
  O  O90  1  0.87901461  0.51540698  0.76391712  1
  O  O91  1  0.98788752  0.82649567  0.32290125  1
  O  O92  1  0.98788752  0.32290125  0.82649567  1
  O  O93  1  0.99912480  0.66397975  0.51958292  1
  O  O94  1  0.99912480  0.51958292  0.66397975  1
  O  O95  1  0.58830684  0.90483915  0.33621013  1
  O  O96  1  0.58830684  0.33621013  0.90483915  1
  O  O97  1  0.57572308  0.65810107  0.56534626  1
  O  O98  1  0.57572308  0.56534626  0.65810107  1
  O  O99  1  0.62794172  0.91629104  0.57677224  1
  O  O100  1  0.62794172  0.57677224  0.91629104  1
  O  O101  1  0.61903012  0.81210672  0.39601217  1
  O  O102  1  0.61903012  0.39601217  0.81210672  1
  O  O103  1  0.60682179  0.59486017  0.41273614  1
  O  O104  1  0.60682179  0.41273614  0.59486017  1
  O  O105  1  0.58799147  0.74748795  0.50216743  1
  O  O106  1  0.58799147  0.50216743  0.74748795  1
  O  O107  1  0.61567331  0.75665681  0.24396593  1
  O  O108  1  0.61567331  0.24396593  0.75665681  1
  O  O109  1  0.74469964  0.79761505  0.48836715  1
  O  O110  1  0.74469964  0.48836715  0.79761505  1
  O  O111  1  0.35323869  0.92567879  0.58355016  1
  O  O112  1  0.35323869  0.58355016  0.92567879  1
  O  O113  1  0.37672873  0.92389306  0.34654010  1
  O  O114  1  0.37672873  0.34654010  0.92389306  1
  O  O115  1  0.35751424  0.66543920  0.58623373  1
  O  O116  1  0.35751424  0.58623373  0.66543920  1
  O  O117  1  0.36005300  0.83018926  0.42971199  1
  O  O118  1  0.36005300  0.42971199  0.83018926  1
  O  O119  1  0.34714051  0.77236194  0.52424510  1
  O  O120  1  0.34714051  0.52424510  0.77236194  1
  O  O121  1  0.49006136  0.79822847  0.32400780  1
  O  O122  1  0.49006136  0.32400780  0.79822847  1
  O  O123  1  0.47329478  0.65190137  0.46516827  1
  O  O124  1  0.47329478  0.46516827  0.65190137  1
  O  O125  1  0.10601694  0.91606518  0.34328001  1
  O  O126  1  0.10601694  0.34328001  0.91606518  1
  O  O127  1  0.13466761  0.66694881  0.57403634  1
  O  O128  1  0.13466761  0.57403634  0.66694881  1
  O  O129  1  0.08825128  0.93161762  0.58512563  1
  O  O130  1  0.08825128  0.58512563  0.93161762  1
  O  O131  1  0.09991636  0.82684950  0.40999357  1
  O  O132  1  0.09991636  0.40999357  0.82684950  1
  O  O133  1  0.11174673  0.60666809  0.42015956  1
  O  O134  1  0.11174673  0.42015956  0.60666809  1
  O  O135  1  0.10275801  0.75896124  0.51808759  1
  O  O136  1  0.10275801  0.51808759  0.75896124  1
  O  O137  1  0.11643898  0.76375651  0.25772504  1
  O  O138  1  0.11643898  0.25772504  0.76375651  1
  O  O139  1  0.23368486  0.84681636  0.50589424  1
  O  O140  1  0.23368486  0.50589424  0.84681636  1
  O  O141  1  0.71861508  0.61597253  0.61597253  1
  O  O142  1  0.40275529  0.51960963  0.51960963  1
  O  O143  1  0.25879407  0.55286051  0.55286051  1
loop_
_geom_bond_atom_site_label_1
_geom_bond_atom_site_label_2
_geom_bond_distance
_geom_bond_site_symmetry_2
Al0 O4 1.757236 1_545
Al0 O0 1.759994 1_555
Al0 O7 1.760783 1_555
Al0 O81 1.761095 1_545
Al1 O5 1.757236 1_554
Al1 O1 1.759994 1_555
Al1 O8 1.760783 1_555
Al1 O82 1.761095 1_554
Al2 O3 1.751113 1_555
Al2 O2 1.751113 1_555
Al2 O6 1.753159 1_555
Al2 O9 1.758313 1_555
Al3 O16 1.738338 1_555
Al3 O20 1.738364 1_655
Al3 O12 1.758931 1_555
Al3 O10 1.759006 1_555
Al4 O17 1.738338 1_555
Al4 O21 1.738364 1_655
Al4 O13 1.758931 1_555
Al4 O11 1.759006 1_555
Al5 O26 1.741452 1_555
Al5 O95 1.753011 1_555
Al5 O24 1.756097 1_565
Al5 O22 1.757974 1_565
Al6 O27 1.741452 1_555
Al6 O96 1.753011 1_555
Al6 O25 1.756097 1_556
Al6 O23 1.757974 1_556
Al7 O108 1.735821 1_555
Al7 O37 1.746660 1_555
Al7 O33 1.759640 1_555
Al7 O29 1.771619 1_555
Al8 O107 1.735821 1_555
Al8 O38 1.746660 1_555
Al8 O34 1.759640 1_555
Al8 O30 1.771619 1_555
Al9 O35 1.742578 1_555
Al9 O39 1.747129 1_555
Al9 O104 1.757124 1_555
Al9 O31 1.775010 1_555
Al10 O36 1.742578 1_555
Al10 O40 1.747129 1_555
Al10 O103 1.757124 1_555
Al10 O32 1.775010 1_555
Al11 O45 1.738246 1_545
Al11 O48 1.748293 1_555
Al11 O41 1.758061 1_555
Al11 O111 1.760027 1_545
Al12 O46 1.738246 1_554
Al12 O49 1.748293 1_555
Al12 O42 1.758061 1_555
Al12 O112 1.760027 1_554
Al13 O47 1.740643 1_555
Al13 O44 1.750063 1_555
Al13 O43 1.750063 1_555
Al13 O142 1.753792 1_555
Al14 O56 1.744346 1_555
Al14 O60 1.747217 1_555
Al14 O52 1.760899 1_555
Al14 O50 1.786967 1_555
Al15 O57 1.744346 1_555
Al15 O61 1.747217 1_555
Al15 O53 1.760899 1_555
Al15 O51 1.786967 1_555
Al16 O64 1.743543 1_545
Al16 O66 1.745152 1_555
Al16 O125 1.756328 1_545
Al16 O62 1.758012 1_555
Al17 O65 1.743543 1_554
Al17 O67 1.745152 1_555
Al17 O126 1.756328 1_554
Al17 O63 1.758012 1_555
Al18 O138 1.732731 1_555
Al18 O77 1.751999 1_555
Al18 O73 1.758878 1_555
Al18 O69 1.781648 1_555
Al19 O137 1.732731 1_555
Al19 O78 1.751999 1_555
Al19 O74 1.758878 1_555
Al19 O70 1.781648 1_555
Al20 O75 1.728491 1_555
Al20 O79 1.748717 1_555
Al20 O134 1.762597 1_555
Al20 O71 1.778453 1_555
Al21 O76 1.728491 1_555
Al21 O80 1.748717 1_555
Al21 O133 1.762597 1_555
Al21 O72 1.778453 1_555
Al22 O19 1.737744 1_555
Al22 O91 1.740152 1_555
Al22 O87 1.754324 1_555
Al22 O83 1.760552 1_555
Al23 O18 1.737744 1_555
Al23 O92 1.740152 1_555
Al23 O88 1.754324 1_555
Al23 O84 1.760552 1_555
Al24 O89 1.740148 1_555
Al24 O93 1.744281 1_555
Al24 O15 1.758317 1_555
Al24 O85 1.760034 1_555
Al25 O90 1.740148 1_555
Al25 O94 1.744281 1_555
Al25 O14 1.758317 1_555
Al25 O86 1.760034 1_555
Al26 O105 1.739414 1_555
Al26 O109 1.746309 1_555
Al26 O101 1.757622 1_555
Al26 O99 1.766298 1_555
Al27 O106 1.739414 1_555
Al27 O110 1.746309 1_555
Al27 O102 1.757622 1_555
Al27 O100 1.766298 1_555
Al28 O59 1.743928 1_555
Al28 O121 1.748836 1_555
Al28 O117 1.755377 1_555
Al28 O113 1.779411 1_555
Al29 O58 1.743928 1_555
Al29 O122 1.748836 1_555
Al29 O118 1.755377 1_555
Al29 O114 1.779411 1_555
Al30 O119 1.743593 1_555
Al30 O123 1.749493 1_555
Al30 O55 1.768656 1_555
Al30 O115 1.783870 1_555
Al31 O120 1.743593 1_555
Al31 O124 1.749493 1_555
Al31 O54 1.768656 1_555
Al31 O116 1.783870 1_555
Al32 O135 1.734859 1_555
Al32 O139 1.739065 1_555
Al32 O131 1.751380 1_555
Al32 O129 1.775231 1_555
Al33 O136 1.734859 1_555
Al33 O140 1.739065 1_555
Al33 O132 1.751380 1_555
Al33 O130 1.775231 1_555
Al34 O28 1.740950 1_555
Al34 O141 1.757440 1_555
Al34 O97 1.757713 1_555
Al34 O98 1.757713 1_555
Al35 O68 1.740341 1_555
Al35 O143 1.749591 1_555
Al35 O127 1.758562 1_555
Al35 O128 1.758562 1_555
O0 P2 1.547381 1_555
O1 P3 1.547381 1_555
O2 P4 1.546321 1_555
O3 P5 1.546321 1_555
O4 P19 1.542040 1_665
O5 P20 1.542040 1_656
O6 P21 1.538139 1_655
O7 P0 1.540973 1_555
O8 P1 1.540973 1_555
O9 P34 1.543545 1_555
O10 P0 1.538533 1_555
O11 P1 1.538533 1_555
O12 P2 1.543049 1_555
O13 P3 1.543049 1_555
O14 P4 1.543398 1_555
O15 P5 1.543398 1_555
O16 P4 1.525687 1_555
O17 P5 1.525687 1_555
O18 P2 1.524455 1_555
O19 P3 1.524455 1_555
O20 P17 1.533674 1_555
O21 P18 1.533674 1_555
O22 P6 1.547043 1_555
O23 P7 1.547043 1_555
O24 P0 1.539175 1_555
O25 P1 1.539175 1_555
O26 P8 1.534066 1_555
O27 P9 1.534066 1_555
O28 P10 1.529792 1_555
O29 P8 1.540063 1_545
O30 P9 1.540063 1_554
O31 P10 1.544781 1_555
O32 P10 1.544781 1_555
O33 P6 1.542497 1_555
O34 P7 1.542497 1_555
O35 P6 1.528938 1_555
O36 P7 1.528938 1_555
O37 P2 1.540400 1_555
O38 P3 1.540400 1_555
O39 P4 1.536035 1_555
O40 P5 1.536035 1_555
O41 P13 1.546773 1_555
O42 P14 1.546773 1_555
O43 P15 1.539158 1_555
O44 P16 1.539158 1_555
O45 P8 1.536470 1_555
O46 P9 1.536470 1_555
O47 P10 1.538182 1_555
O48 P11 1.536602 1_555
O49 P12 1.536602 1_555
O50 P11 1.544720 1_555
O51 P12 1.544720 1_555
O52 P13 1.541001 1_555
O53 P14 1.541001 1_555
O54 P15 1.550884 1_555
O55 P16 1.550884 1_555
O56 P15 1.531963 1_555
O57 P16 1.531963 1_555
O58 P13 1.532249 1_555
O59 P14 1.532249 1_555
O60 P6 1.533243 1_555
O61 P7 1.533243 1_555
O62 P17 1.547505 1_555
O63 P18 1.547505 1_555
O64 P11 1.540240 1_565
O65 P12 1.540240 1_556
O66 P19 1.533072 1_555
O67 P20 1.533072 1_555
O68 P21 1.531798 1_555
O69 P19 1.543950 1_555
O70 P20 1.543950 1_555
O71 P21 1.542706 1_555
O72 P21 1.542706 1_555
O73 P17 1.542553 1_555
O74 P18 1.542553 1_555
O75 P17 1.521838 1_555
O76 P18 1.521838 1_555
O77 P13 1.538580 1_555
O78 P14 1.538580 1_555
O79 P15 1.536699 1_555
O80 P16 1.536699 1_555
O81 P22 1.548276 1_555
O82 P23 1.548276 1_555
O83 P0 1.539735 1_565
O84 P1 1.539735 1_556
O85 P34 1.540744 1_555
O86 P34 1.540744 1_555
O87 P22 1.541079 1_555
O88 P23 1.541079 1_555
O89 P22 1.528473 1_555
O90 P23 1.528473 1_555
O91 P30 1.532143 1_655
O92 P31 1.532143 1_655
O93 P32 1.535691 1_655
O94 P33 1.535691 1_655
O95 P24 1.541455 1_555
O96 P25 1.541455 1_555
O97 P26 1.546661 1_555
O98 P27 1.546661 1_555
O99 P8 1.536984 1_555
O100 P9 1.536984 1_555
O101 P24 1.541721 1_555
O102 P25 1.541721 1_555
O103 P26 1.537650 1_555
O104 P27 1.537650 1_555
O105 P26 1.529568 1_555
O106 P27 1.529568 1_555
O107 P24 1.527189 1_555
O108 P25 1.527189 1_555
O109 P22 1.536818 1_555
O110 P23 1.536818 1_555
O111 P28 1.544338 1_555
O112 P29 1.544338 1_555
O113 P11 1.544254 1_565
O114 P12 1.544254 1_556
O115 P35 1.540258 1_555
O116 P35 1.540258 1_555
O117 P28 1.537681 1_555
O118 P29 1.537681 1_555
O119 P28 1.534865 1_555
O120 P29 1.534865 1_555
O121 P24 1.539116 1_555
O122 P25 1.539116 1_555
O123 P26 1.535096 1_555
O124 P27 1.535096 1_555
O125 P30 1.546659 1_555
O126 P31 1.546659 1_555
O127 P32 1.548103 1_555
O128 P33 1.548103 1_555
O129 P19 1.544722 1_565
O130 P20 1.544722 1_556
O131 P30 1.537854 1_555
O132 P31 1.537854 1_555
O133 P32 1.543799 1_555
O134 P33 1.543799 1_555
O135 P32 1.525324 1_555
O136 P33 1.525324 1_555
O137 P30 1.524862 1_555
O138 P31 1.524862 1_555
O139 P28 1.531367 1_555
O140 P29 1.531367 1_555
O141 P34 1.537294 1_555
O142 P35 1.545336 1_555
O143 P35 1.545023 1_555
