# generated using pymatgen
data_K2Co(SO5)2
_symmetry_space_group_name_H-M   'P 1'
_cell_length_a   14.06920400
_cell_length_b   5.20481100
_cell_length_c   6.88316913
_cell_angle_alpha   70.19836679
_cell_angle_beta   90.00000000
_cell_angle_gamma   90.00000000
_symmetry_Int_Tables_number   1
_chemical_formula_structural   K2Co(SO5)2
_chemical_formula_sum   'K4 Co2 S4 O20'
_cell_volume   474.23441399
_cell_formula_units_Z   2
loop_
 _symmetry_equiv_pos_site_id
 _symmetry_equiv_pos_as_xyz
  1  'x, y, z'
loop_
 _atom_site_type_symbol
 _atom_site_label
 _atom_site_symmetry_multiplicity
 _atom_site_fract_x
 _atom_site_fract_y
 _atom_site_fract_z
 _atom_site_occupancy
  K  K0  1  0.65007100  0.78296600  0.08038800  1
  K  K1  1  0.15007100  0.21703400  0.41961200  1
  K  K2  1  0.34992900  0.21703400  0.91961200  1
  K  K3  1  0.84992900  0.78296600  0.58038800  1
  Co  Co0  1  0.50000000  0.00000000  0.50000000  1
  Co  Co1  1  0.00000000  0.00000000  0.00000000  1
  S  S0  1  0.59938200  0.44525200  0.70095900  1
  S  S1  1  0.09938200  0.55474800  0.79904100  1
  S  S2  1  0.40061800  0.55474800  0.29904100  1
  S  S3  1  0.90061800  0.44525200  0.20095900  1
  O  O0  1  0.65782700  0.37301700  0.88711000  1
  O  O1  1  0.15782700  0.62698300  0.61289000  1
  O  O2  1  0.34217300  0.62698300  0.11289000  1
  O  O3  1  0.84217300  0.37301700  0.38711000  1
  O  O4  1  0.53684600  0.20698300  0.71031200  1
  O  O5  1  0.03684600  0.79301700  0.78968800  1
  O  O6  1  0.46315400  0.79301700  0.28968800  1
  O  O7  1  0.96315400  0.20698300  0.21031200  1
  O  O8  1  0.52884300  0.66819500  0.71711900  1
  O  O9  1  0.02884300  0.33180500  0.78288100  1
  O  O10  1  0.47115700  0.33180500  0.28288100  1
  O  O11  1  0.97115700  0.66819500  0.21711900  1
  O  O12  1  0.65357200  0.54934100  0.50794300  1
  O  O13  1  0.15357200  0.45065900  0.99205700  1
  O  O14  1  0.34642800  0.45065900  0.49205700  1
  O  O15  1  0.84642800  0.54934100  0.00794300  1
  O  O16  1  0.61495500  0.03517200  0.39688200  1
  O  O17  1  0.11495500  0.96482800  0.10311800  1
  O  O18  1  0.38504500  0.96482800  0.60311800  1
  O  O19  1  0.88504500  0.03517200  0.89688200  1
loop_
_geom_bond_atom_site_label_1
_geom_bond_atom_site_label_2
_geom_bond_distance
_geom_bond_site_symmetry_2
K0 O12 2.778006 1_555
K0 O0 2.873626 1_554
K0 O0 2.906077 1_564
K0 O16 2.941176 1_565
K0 O6 3.007486 1_555
K0 O15 3.125692 1_555
K0 O4 3.176159 1_564
K0 O8 3.245006 1_554
K1 O13 2.778006 1_554
K1 O1 2.873626 1_555
K1 O1 2.906077 1_545
K1 O17 2.941176 1_545
K1 O7 3.007486 1_455
K1 O14 3.125692 1_555
K1 O5 3.176159 1_545
K1 O9 3.245006 1_555
K2 O14 2.778006 1_555
K2 O2 2.873626 1_556
K2 O2 2.906077 1_546
K2 O18 2.941176 1_545
K2 O4 3.007486 1_555
K2 O13 3.125692 1_555
K2 O6 3.176159 1_546
K2 O10 3.245006 1_556
K3 O15 2.778006 1_556
K3 O3 2.873626 1_555
K3 O3 2.906077 1_565
K3 O19 2.941176 1_565
K3 O5 3.007486 1_655
K3 O12 3.125692 1_555
K3 O7 3.176159 1_565
K3 O11 3.245006 1_555
Co0 O16 1.750715 1_555
Co0 O18 1.750715 1_545
Co0 O10 1.905761 1_555
Co0 O8 1.905761 1_545
Co0 O4 2.140451 1_555
Co0 O6 2.140451 1_545
Co1 O17 1.750715 1_545
Co1 O19 1.750715 1_454
Co1 O9 1.905761 1_554
Co1 O11 1.905761 1_445
Co1 O7 2.140451 1_455
Co1 O5 2.140451 1_544
O0 S0 1.460429 1_555
O1 S1 1.460429 1_555
O2 S2 1.460429 1_555
O3 S3 1.460429 1_555
O4 S0 1.504033 1_555
O5 S1 1.504033 1_555
O6 S2 1.504033 1_555
O7 S3 1.504033 1_555
O8 S0 1.559233 1_555
O9 S1 1.559233 1_555
O10 S2 1.559233 1_555
O11 S3 1.559233 1_555
O12 S0 1.467035 1_555
O13 S1 1.467035 1_555
O14 S2 1.467035 1_555
O15 S3 1.467035 1_555
