# generated using pymatgen
data_Te2Mo2W(SeS)2
_symmetry_space_group_name_H-M   'P 1'
_cell_length_a   3.34966750
_cell_length_b   3.34966750
_cell_length_c   31.03796100
_cell_angle_alpha   90.00000000
_cell_angle_beta   90.00000000
_cell_angle_gamma   119.99999004
_symmetry_Int_Tables_number   1
_chemical_formula_structural   Te2Mo2W(SeS)2
_chemical_formula_sum   'Te2 Mo2 W1 Se2 S2'
_cell_volume   301.59716604
_cell_formula_units_Z   1
loop_
 _symmetry_equiv_pos_site_id
 _symmetry_equiv_pos_as_xyz
  1  'x, y, z'
loop_
 _atom_site_type_symbol
 _atom_site_label
 _atom_site_symmetry_multiplicity
 _atom_site_fract_x
 _atom_site_fract_y
 _atom_site_fract_z
 _atom_site_occupancy
  Te  Te0  1  0.66666700  0.33333300  0.51729500  1
  Te  Te1  1  0.66666700  0.33333300  0.63946600  1
  Mo  Mo0  1  0.33333300  0.66666700  0.11565100  1
  Mo  Mo1  1  0.33333300  0.66666700  0.57840100  1
  W  W0  1  0.66666700  0.33333300  0.34690200  1
  Se  Se0  1  0.33333300  0.66666700  0.40083100  1
  Se  Se1  1  0.33333300  0.66666700  0.29299000  1
  S  S0  1  0.66666700  0.33333300  0.06683900  1
  S  S1  1  0.66666700  0.33333300  0.16446600  1
loop_
_geom_bond_atom_site_label_1
_geom_bond_atom_site_label_2
_geom_bond_distance
_geom_bond_site_symmetry_2
Mo0 S0 2.456702 1_565
Mo0 S0 2.456702 1_455
Mo0 S0 2.456706 1_555
Mo0 S1 2.456759 1_565
Mo0 S1 2.456759 1_455
Mo0 S1 2.456764 1_555
Mo1 Te1 2.707835 1_455
Mo1 Te1 2.707835 1_565
Mo1 Te1 2.707839 1_555
Mo1 Te0 2.708726 1_455
Mo1 Te0 2.708726 1_565
Mo1 Te0 2.708730 1_555
Se0 W0 2.557703 1_455
Se0 W0 2.557703 1_565
Se0 W0 2.557707 1_555
Se1 W0 2.557358 1_455
Se1 W0 2.557358 1_565
Se1 W0 2.557362 1_555
