# generated using pymatgen
data_Pr12InCo6
_symmetry_space_group_name_H-M   'P 1'
_cell_length_a   8.77291528
_cell_length_b   8.77291528
_cell_length_c   8.77291528
_cell_angle_alpha   109.47122063
_cell_angle_beta   109.47122063
_cell_angle_gamma   109.47122063
_symmetry_Int_Tables_number   1
_chemical_formula_structural   Pr12InCo6
_chemical_formula_sum   'Pr12 In1 Co6'
_cell_volume   519.76845190
_cell_formula_units_Z   1
loop_
 _symmetry_equiv_pos_site_id
 _symmetry_equiv_pos_as_xyz
  1  'x, y, z'
loop_
 _atom_site_type_symbol
 _atom_site_label
 _atom_site_symmetry_multiplicity
 _atom_site_fract_x
 _atom_site_fract_y
 _atom_site_fract_z
 _atom_site_occupancy
  Pr  Pr0  1  0.80928800  0.69424100  0.50352900  1
  Pr  Pr1  1  0.19071200  0.30575900  0.49647100  1
  Pr  Pr2  1  0.19071200  0.69424100  0.88495400  1
  Pr  Pr3  1  0.80928800  0.30575900  0.11504600  1
  Pr  Pr4  1  0.69424100  0.50352900  0.80928800  1
  Pr  Pr5  1  0.30575900  0.49647100  0.19071200  1
  Pr  Pr6  1  0.69424100  0.88495400  0.19071200  1
  Pr  Pr7  1  0.30575900  0.11504600  0.80928800  1
  Pr  Pr8  1  0.50352900  0.80928800  0.69424100  1
  Pr  Pr9  1  0.49647100  0.19071200  0.30575900  1
  Pr  Pr10  1  0.11504600  0.80928800  0.30575900  1
  Pr  Pr11  1  0.88495400  0.19071200  0.69424100  1
  In  In0  1  0.00000000  0.00000000  0.00000000  1
  Co  Co0  1  0.88860300  0.38860300  0.50000000  1
  Co  Co1  1  0.11139700  0.61139700  0.50000000  1
  Co  Co2  1  0.38860300  0.50000000  0.88860300  1
  Co  Co3  1  0.61139700  0.50000000  0.11139700  1
  Co  Co4  1  0.50000000  0.88860300  0.38860300  1
  Co  Co5  1  0.50000000  0.11139700  0.61139700  1
loop_
_geom_bond_atom_site_label_1
_geom_bond_atom_site_label_2
_geom_bond_distance
_geom_bond_site_symmetry_2
In0 Pr3 3.650482 1_455
In0 Pr7 3.650482 1_554
In0 Pr10 3.650482 1_545
In0 Pr2 3.650482 1_544
In0 Pr11 3.650482 1_454
In0 Pr6 3.650482 1_445
In0 Pr4 3.650483 1_444
In0 Pr8 3.650483 1_444
In0 Pr1 3.650483 1_555
In0 Pr9 3.650483 1_555
In0 Pr0 3.650483 1_444
In0 Pr5 3.650483 1_555
Co0 Co1 2.256923 1_655
Co0 Pr11 2.808985 1_555
Co0 Pr9 2.808985 1_555
Co0 Pr0 2.979520 1_555
Co0 Pr1 2.979520 1_655
Co0 Pr2 2.979524 1_655
Co0 Pr3 2.979528 1_555
Co1 Pr10 2.808985 1_555
Co1 Pr8 2.808985 1_555
Co1 Pr0 2.979520 1_455
Co1 Pr1 2.979520 1_555
Co1 Pr3 2.979524 1_455
Co1 Pr2 2.979528 1_555
Co2 Co3 2.256923 1_556
Co2 Pr2 2.808985 1_555
Co2 Pr1 2.808985 1_555
Co2 Pr4 2.979520 1_555
Co2 Pr5 2.979520 1_556
Co2 Pr6 2.979524 1_556
Co2 Pr7 2.979528 1_555
Co3 Pr3 2.808985 1_555
Co3 Pr0 2.808985 1_555
Co3 Pr5 2.979520 1_555
Co3 Pr4 2.979520 1_554
Co3 Pr7 2.979524 1_554
Co3 Pr6 2.979528 1_555
Co4 Co5 2.256923 1_565
Co4 Pr6 2.808985 1_555
Co4 Pr5 2.808985 1_555
Co4 Pr8 2.979520 1_555
Co4 Pr9 2.979520 1_565
Co4 Pr11 2.979524 1_565
Co4 Pr10 2.979528 1_555
Co5 Pr7 2.808985 1_555
Co5 Pr4 2.808985 1_555
Co5 Pr8 2.979520 1_545
Co5 Pr9 2.979520 1_555
Co5 Pr10 2.979524 1_545
Co5 Pr11 2.979528 1_555
