# generated using pymatgen
data_Cs2V3O8
_symmetry_space_group_name_H-M   'P 1'
_cell_length_a   8.92495072
_cell_length_b   8.92495072
_cell_length_c   6.07255594
_cell_angle_alpha   90.00000000
_cell_angle_beta   90.00000000
_cell_angle_gamma   90.00000000
_symmetry_Int_Tables_number   1
_chemical_formula_structural   Cs2V3O8
_chemical_formula_sum   'Cs4 V6 O16'
_cell_volume   483.70789705
_cell_formula_units_Z   2
loop_
 _symmetry_equiv_pos_site_id
 _symmetry_equiv_pos_as_xyz
  1  'x, y, z'
loop_
 _atom_site_type_symbol
 _atom_site_label
 _atom_site_symmetry_multiplicity
 _atom_site_fract_x
 _atom_site_fract_y
 _atom_site_fract_z
 _atom_site_occupancy
  Cs  Cs0  1  0.32919186  0.17080814  0.46169967  1
  Cs  Cs1  1  0.67080814  0.82919186  0.46169967  1
  Cs  Cs2  1  0.82919186  0.32919186  0.46169967  1
  Cs  Cs3  1  0.17080814  0.67080814  0.46169967  1
  V  V0  1  0.36656687  0.86656687  0.98362873  1
  V  V1  1  0.63343313  0.13343313  0.98362873  1
  V  V2  1  0.86656687  0.63343313  0.98362873  1
  V  V3  1  0.13343313  0.36656687  0.98362873  1
  V  V4  1  0.50000000  0.50000000  0.98831753  1
  V  V5  1  -0.00000000  0.00000000  0.98831753  1
  O  O0  1  0.50000000  0.50000000  0.72152600  1
  O  O1  1  -0.00000000  0.00000000  0.72152600  1
  O  O2  1  0.37090502  0.87090502  0.71295543  1
  O  O3  1  0.62909498  0.12909498  0.71295543  1
  O  O4  1  0.87090502  0.62909498  0.71295543  1
  O  O5  1  0.12909498  0.37090502  0.71295543  1
  O  O6  1  0.41680259  0.69244440  0.08314639  1
  O  O7  1  0.58319741  0.30755560  0.08314639  1
  O  O8  1  0.91680259  0.80755560  0.08314639  1
  O  O9  1  0.08319741  0.19244440  0.08314639  1
  O  O10  1  0.30755560  0.41680259  0.08314639  1
  O  O11  1  0.69244440  0.58319741  0.08314639  1
  O  O12  1  0.19244440  0.91680259  0.08314639  1
  O  O13  1  0.80755560  0.08319741  0.08314639  1
  O  O14  1  0.50000000  0.00000000  0.09140426  1
  O  O15  1  -0.00000000  0.50000000  0.09140426  1
loop_
_geom_bond_atom_site_label_1
_geom_bond_atom_site_label_2
_geom_bond_distance
_geom_bond_site_symmetry_2
Cs0 O5 2.950680 1_555
Cs0 O2 3.103362 1_545
Cs0 O3 3.103362 1_555
Cs0 O14 3.115173 1_555
Cs0 O9 3.184631 1_555
Cs0 O10 3.184631 1_555
Cs0 O7 3.451548 1_555
Cs0 O12 3.451548 1_545
Cs0 O0 3.666799 1_555
Cs0 O1 3.666799 1_555
Cs1 O4 2.950680 1_555
Cs1 O2 3.103362 1_555
Cs1 O3 3.103362 1_565
Cs1 O14 3.115173 1_565
Cs1 O11 3.184631 1_555
Cs1 O8 3.184631 1_555
Cs1 O13 3.451548 1_565
Cs1 O6 3.451548 1_555
Cs1 O0 3.666799 1_555
Cs1 O1 3.666799 1_665
Cs2 O3 2.950680 1_555
Cs2 O4 3.103362 1_555
Cs2 O5 3.103362 1_655
Cs2 O15 3.115173 1_655
Cs2 O7 3.184631 1_555
Cs2 O13 3.184631 1_555
Cs2 O9 3.451548 1_655
Cs2 O11 3.451548 1_555
Cs2 O0 3.666799 1_555
Cs2 O1 3.666799 1_655
Cs3 O2 2.950680 1_555
Cs3 O4 3.103362 1_455
Cs3 O5 3.103362 1_555
Cs3 O15 3.115173 1_555
Cs3 O12 3.184631 1_555
Cs3 O6 3.184631 1_555
Cs3 O8 3.451548 1_455
Cs3 O10 3.451548 1_555
Cs3 O0 3.666799 1_555
Cs3 O1 3.666799 1_565
O0 V4 1.620106 1_555
O1 V5 1.620106 1_555
O2 V0 1.644591 1_555
O3 V1 1.644591 1_555
O4 V2 1.644591 1_555
O5 V3 1.644591 1_555
O6 V0 1.726630 1_554
O6 V4 1.957796 1_554
O7 V1 1.726630 1_554
O7 V4 1.957796 1_554
O8 V2 1.726630 1_554
O8 V5 1.957796 1_664
O9 V3 1.726630 1_554
O9 V5 1.957796 1_554
O10 V3 1.726630 1_554
O10 V4 1.957796 1_554
O11 V2 1.726630 1_554
O11 V4 1.957796 1_554
O12 V0 1.726630 1_554
O12 V5 1.957796 1_564
O13 V1 1.726630 1_554
O13 V5 1.957796 1_654
O14 V0 1.806860 1_544
O14 V1 1.806860 1_554
O15 V2 1.806860 1_454
O15 V3 1.806860 1_554
