# generated using pymatgen
data_Li9Mn2Co5O16
_symmetry_space_group_name_H-M   'P 1'
_cell_length_a   5.08016500
_cell_length_b   5.92208849
_cell_length_c   9.70735089
_cell_angle_alpha   88.80140738
_cell_angle_beta   78.18393591
_cell_angle_gamma   89.20261507
_symmetry_Int_Tables_number   1
_chemical_formula_structural   Li9Mn2Co5O16
_chemical_formula_sum   'Li9 Mn2 Co5 O16'
_cell_volume   285.78258859
_cell_formula_units_Z   1
loop_
 _symmetry_equiv_pos_site_id
 _symmetry_equiv_pos_as_xyz
  1  'x, y, z'
loop_
 _atom_site_type_symbol
 _atom_site_label
 _atom_site_symmetry_multiplicity
 _atom_site_fract_x
 _atom_site_fract_y
 _atom_site_fract_z
 _atom_site_occupancy
  Li  Li0  1  0.50094800  0.25070900  0.00044300  1
  Li  Li1  1  0.25223400  0.49176000  0.25412300  1
  Li  Li2  1  0.50386500  0.75200400  0.00225300  1
  Li  Li3  1  0.24861000  0.00979100  0.25419700  1
  Li  Li4  1  0.75020400  0.00240000  0.74774200  1
  Li  Li5  1  0.75136500  0.49357400  0.74621500  1
  Li  Li6  1  0.99579200  0.74895400  0.49827600  1
  Li  Li7  1  0.99674900  0.24921500  0.49980200  1
  Li  Li8  1  0.74674800  0.25030700  0.25091600  1
  Mn  Mn0  1  0.00140600  0.00673000  0.00292700  1
  Mn  Mn1  1  0.74750600  0.75374200  0.25025400  1
  Co  Co0  1  0.50128100  0.48915800  0.49243700  1
  Co  Co1  1  0.25705800  0.74661100  0.74772800  1
  Co  Co2  1  0.00124100  0.49983600  0.00206100  1
  Co  Co3  1  0.49393500  0.99893500  0.49721600  1
  Co  Co4  1  0.25905500  0.24689600  0.74510900  1
  O  O0  1  0.35228100  0.99567900  0.87743100  1
  O  O1  1  0.11210700  0.24747400  0.10833600  1
  O  O2  1  0.34779900  0.49969300  0.87647800  1
  O  O3  1  0.10344200  0.77487700  0.12807300  1
  O  O4  1  0.60158700  0.75989700  0.62028000  1
  O  O5  1  0.61190100  0.25658100  0.63028800  1
  O  O6  1  0.85190400  0.51717500  0.37325600  1
  O  O7  1  0.83864200  0.98126800  0.37341200  1
  O  O8  1  0.66046900  0.51918600  0.12636900  1
  O  O9  1  0.39399100  0.74022200  0.36480300  1
  O  O10  1  0.65239000  0.98911500  0.12446900  1
  O  O11  1  0.37801200  0.23887800  0.38830000  1
  O  O12  1  0.89373700  0.23146200  0.87661000  1
  O  O13  1  0.90390700  0.75581000  0.88738500  1
  O  O14  1  0.14769000  0.99898900  0.62565900  1
  O  O15  1  0.14214300  0.50307200  0.62715400  1
loop_
_geom_bond_atom_site_label_1
_geom_bond_atom_site_label_2
_geom_bond_distance
_geom_bond_site_symmetry_2
Li0 O1 2.037729 1_555
Li0 O12 2.111115 1_554
Li0 O2 2.122465 1_554
Li0 O10 2.170147 1_545
Li0 O0 2.180348 1_544
Li0 O8 2.280749 1_555
Li1 O9 2.061683 1_555
Li1 O6 2.128783 1_455
Li1 O11 2.140136 1_555
Li1 O8 2.193867 1_555
Li1 O1 2.264809 1_555
Li1 O3 2.266586 1_555
Li2 O8 2.068359 1_555
Li2 O10 2.101047 1_555
Li2 O0 2.102783 1_554
Li2 O13 2.108599 1_554
Li2 O3 2.151714 1_555
Li2 O2 2.204017 1_554
Li3 O11 2.101557 1_555
Li3 O3 2.108989 1_545
Li3 O9 2.113539 1_545
Li3 O7 2.172550 1_445
Li3 O10 2.179474 1_545
Li3 O1 2.181417 1_555
Li4 O5 2.070349 1_555
Li4 O12 2.099730 1_555
Li4 O14 2.121846 1_645
Li4 O0 2.151954 1_545
Li4 O4 2.156510 1_545
Li4 O13 2.213312 1_545
Li5 O5 2.039227 1_555
Li5 O15 2.083450 1_655
Li5 O2 2.177537 1_555
Li5 O12 2.190051 1_555
Li5 O4 2.197241 1_555
Li5 O13 2.334031 1_555
Li6 O7 2.072509 1_555
Li6 O6 2.086189 1_555
Li6 O4 2.108464 1_555
Li6 O15 2.124348 1_655
Li6 O9 2.167971 1_655
Li6 O14 2.194602 1_655
Li7 O11 2.016854 1_655
Li7 O5 2.101064 1_555
Li7 O14 2.133741 1_645
Li7 O15 2.194677 1_655
Li7 O6 2.196548 1_555
Li7 O7 2.277921 1_545
Li8 O11 2.066112 1_555
Li8 O7 2.073119 1_545
Li8 O8 2.075189 1_555
Li8 O1 2.075813 1_655
Li8 O10 2.114258 1_545
Li8 O6 2.134321 1_555
Mn0 O10 1.920919 1_445
Mn0 O1 1.927422 1_555
Mn0 O12 1.939111 1_454
Mn0 O0 1.943312 1_544
Mn0 O3 1.948873 1_545
Mn0 O13 2.007280 1_444
Mn1 O9 1.910658 1_555
Mn1 O7 1.941823 1_555
Mn1 O3 1.952895 1_655
Mn1 O10 1.954242 1_555
Mn1 O6 1.959177 1_555
Mn1 O8 1.968752 1_555
Co0 O6 1.922240 1_555
Co0 O11 1.989649 1_555
Co0 O15 2.017150 1_555
Co0 O5 2.052534 1_555
Co0 O9 2.054205 1_555
Co0 O4 2.176111 1_555
Co1 O4 1.926961 1_555
Co1 O2 2.013336 1_555
Co1 O13 2.015896 1_455
Co1 O14 2.029560 1_555
Co1 O15 2.040779 1_555
Co1 O0 2.083724 1_555
Co2 O8 1.900253 1_455
Co2 O2 1.925300 1_554
Co2 O1 1.940387 1_555
Co2 O13 1.978798 1_454
Co2 O12 2.164438 1_454
Co2 O3 2.187677 1_555
Co3 O11 1.911193 1_565
Co3 O7 1.913148 1_555
Co3 O14 1.936605 1_555
Co3 O4 1.976214 1_555
Co3 O9 2.151443 1_555
Co3 O5 2.186517 1_565
Co4 O5 1.908061 1_555
Co4 O12 2.027746 1_455
Co4 O15 2.036221 1_555
Co4 O14 2.045242 1_545
Co4 O0 2.058434 1_545
Co4 O2 2.098780 1_555
