# generated using pymatgen
data_Sr4Sm2MgTa2O12
_symmetry_space_group_name_H-M   'P 1'
_cell_length_a   6.08971984
_cell_length_b   6.32600585
_cell_length_c   8.41022734
_cell_angle_alpha   89.43709224
_cell_angle_beta   90.66566797
_cell_angle_gamma   88.89927735
_symmetry_Int_Tables_number   1
_chemical_formula_structural   Sr4Sm2MgTa2O12
_chemical_formula_sum   'Sr4 Sm2 Mg1 Ta2 O12'
_cell_volume   323.89425531
_cell_formula_units_Z   1
loop_
 _symmetry_equiv_pos_site_id
 _symmetry_equiv_pos_as_xyz
  1  'x, y, z'
loop_
 _atom_site_type_symbol
 _atom_site_label
 _atom_site_symmetry_multiplicity
 _atom_site_fract_x
 _atom_site_fract_y
 _atom_site_fract_z
 _atom_site_occupancy
  Sr  Sr0  1  0.00016400  0.47413200  0.23447800  1
  Sr  Sr1  1  0.99636700  0.60908500  0.73852000  1
  Sr  Sr2  1  0.50044600  0.90575200  0.25809000  1
  Sr  Sr3  1  0.45723200  0.90184300  0.71847700  1
  Sm  Sm0  1  0.99502700  0.98312800  0.46177700  1
  Sm  Sm1  1  0.47901000  0.43874600  0.00577800  1
  Mg  Mg0  1  0.85546100  0.16972200  0.79304400  1
  Ta  Ta0  1  0.01566000  0.96853400  0.06435600  1
  Ta  Ta1  1  0.49496700  0.45937000  0.49805000  1
  O  O0  1  0.84569700  0.11548700  0.22791900  1
  O  O1  1  0.08580100  0.98386700  0.72514500  1
  O  O2  1  0.57587300  0.50873000  0.27030400  1
  O  O3  1  0.41555400  0.49791000  0.73163400  1
  O  O4  1  0.22237900  0.72034700  0.02406700  1
  O  O5  1  0.82926900  0.39823800  0.94298900  1
  O  O6  1  0.31727100  0.21886600  0.45187900  1
  O  O7  1  0.71764800  0.74632600  0.52357300  1
  O  O8  1  0.25823300  0.16464900  0.08398600  1
  O  O9  1  0.74857400  0.91399900  0.93817000  1
  O  O10  1  0.25457800  0.68701300  0.46533700  1
  O  O11  1  0.75770300  0.28008900  0.57680300  1
loop_
_geom_bond_atom_site_label_1
_geom_bond_atom_site_label_2
_geom_bond_distance
_geom_bond_site_symmetry_2
Mg0 O1 1.909041 1_645
Mg0 O5 1.933163 1_555
Mg0 O11 2.020699 1_555
Mg0 O9 2.133190 1_545
O0 Ta0 1.961889 1_645
O0 Sm0 2.300690 1_545
O0 Sr0 2.473569 1_655
O0 Sr2 2.521533 1_545
O1 Sm0 2.276754 1_455
O1 Sr3 2.312369 1_555
O1 Sr1 2.444607 1_455
O2 Ta1 2.006259 1_555
O2 Sm1 2.343552 1_555
O2 Sr2 2.545388 1_555
O2 Sr0 2.610065 1_655
O3 Ta1 2.044384 1_555
O3 Sm1 2.358399 1_556
O3 Sr3 2.574130 1_555
O3 Sr1 2.636223 1_455
O4 Ta0 2.027060 1_555
O4 Sm1 2.354456 1_555
O4 Sr0 2.733345 1_555
O4 Sr1 2.854933 1_454
O4 Sr2 2.856755 1_555
O4 Sr3 3.171673 1_554
O5 Sm1 2.214036 1_556
O5 Sr1 2.412345 1_555
O5 Sr0 2.703036 1_656
O6 Ta1 1.923957 1_555
O6 Sm0 2.489087 1_445
O6 Sr2 2.800854 1_545
O6 Sr0 3.069185 1_555
O6 Sr3 3.094713 1_545
O7 Ta1 2.296893 1_555
O7 Sm0 2.338744 1_555
O7 Sr3 2.490361 1_555
O7 Sr1 2.596896 1_555
O7 Sr2 2.754600 1_555
O8 Ta0 1.953791 1_545
O8 Sm1 2.309649 1_555
O8 Sr2 2.609964 1_545
O8 Sr0 2.807382 1_555
O9 Ta0 1.969607 1_656
O9 Sr3 2.549394 1_555
O9 Sr1 2.971149 1_555
O9 Sr2 3.101612 1_556
O10 Ta1 2.048016 1_555
O10 Sm0 2.427383 1_455
O10 Sr2 2.699525 1_555
O10 Sr3 2.821821 1_555
O10 Sr0 2.836422 1_555
O10 Sr1 2.843534 1_455
O11 Ta1 2.043478 1_555
O11 Sm0 2.552939 1_545
O11 Sr1 2.901654 1_555
