# generated using pymatgen
data_Lu2Co3Si5
_symmetry_space_group_name_H-M   'P 1'
_cell_length_a   7.71280350
_cell_length_b   7.71280350
_cell_length_c   5.39802671
_cell_angle_alpha   71.03351211
_cell_angle_beta   71.03351211
_cell_angle_gamma   93.72702106
_symmetry_Int_Tables_number   1
_chemical_formula_structural   Lu2Co3Si5
_chemical_formula_sum   'Lu4 Co6 Si10'
_cell_volume   281.91779940
_cell_formula_units_Z   2
loop_
 _symmetry_equiv_pos_site_id
 _symmetry_equiv_pos_as_xyz
  1  'x, y, z'
loop_
 _atom_site_type_symbol
 _atom_site_label
 _atom_site_symmetry_multiplicity
 _atom_site_fract_x
 _atom_site_fract_y
 _atom_site_fract_z
 _atom_site_occupancy
  Lu  Lu0  1  0.12999058  0.40536717  0.73472102  1
  Lu  Lu1  1  0.59463283  0.87000942  0.76527898  1
  Lu  Lu2  1  0.87000942  0.59463283  0.26527898  1
  Lu  Lu3  1  0.40536717  0.12999058  0.23472102  1
  Co  Co0  1  0.99677416  0.00322584  0.75000000  1
  Co  Co1  1  0.54092535  0.26230422  0.62660391  1
  Co  Co2  1  0.26230422  0.54092535  0.12660391  1
  Co  Co3  1  0.45907465  0.73769578  0.37339609  1
  Co  Co4  1  0.00322584  0.99677416  0.25000000  1
  Co  Co5  1  0.73769578  0.45907465  0.87339609  1
  Si  Si0  1  0.77210521  0.22789479  0.25000000  1
  Si  Si1  1  0.22789479  0.77210521  0.75000000  1
  Si  Si2  1  0.51208675  0.48791325  0.25000000  1
  Si  Si3  1  0.48791325  0.51208675  0.75000000  1
  Si  Si4  1  0.21270994  0.78729006  0.25000000  1
  Si  Si5  1  0.78729006  0.21270994  0.75000000  1
  Si  Si6  1  0.73688402  0.93281048  0.16635868  1
  Si  Si7  1  0.93281048  0.73688402  0.66635868  1
  Si  Si8  1  0.26311598  0.06718952  0.83364132  1
  Si  Si9  1  0.06718952  0.26311598  0.33364132  1
loop_
_geom_bond_atom_site_label_1
_geom_bond_atom_site_label_2
_geom_bond_distance
_geom_bond_site_symmetry_2
Lu0 Si8 2.818125 1_555
Lu0 Si3 2.863891 1_555
Lu0 Si9 2.877919 1_555
Lu0 Si5 2.910191 1_455
Lu0 Si1 2.914156 1_555
Lu0 Si9 2.915106 1_556
Lu0 Si7 3.040380 1_455
Lu0 Si0 3.045116 1_456
Lu0 Si4 3.096911 1_555
Lu0 Si2 3.097972 1_555
Lu1 Si7 2.818125 1_555
Lu1 Si3 2.863891 1_555
Lu1 Si6 2.877919 1_556
Lu1 Si5 2.910191 1_565
Lu1 Si1 2.914156 1_555
Lu1 Si6 2.915106 1_555
Lu1 Si8 3.040380 1_565
Lu1 Si0 3.045116 1_565
Lu1 Si4 3.096911 1_556
Lu1 Si2 3.097972 1_556
Lu2 Si6 2.818125 1_555
Lu2 Si2 2.863891 1_555
Lu2 Si7 2.877919 1_555
Lu2 Si4 2.910191 1_655
Lu2 Si0 2.914156 1_555
Lu2 Si7 2.915106 1_554
Lu2 Si9 3.040380 1_655
Lu2 Si1 3.045116 1_654
Lu2 Si5 3.096911 1_555
Lu2 Si3 3.097972 1_555
Lu3 Si9 2.818125 1_555
Lu3 Si2 2.863891 1_555
Lu3 Si8 2.877919 1_554
Lu3 Si4 2.910191 1_545
Lu3 Si0 2.914156 1_555
Lu3 Si8 2.915106 1_555
Lu3 Si6 3.040380 1_545
Lu3 Si1 3.045116 1_545
Lu3 Si5 3.096911 1_554
Lu3 Si3 3.097972 1_554
Co0 Si8 2.298494 1_655
Co0 Si7 2.298494 1_545
Co0 Si9 2.345379 1_655
Co0 Si6 2.345379 1_546
Co0 Si5 2.358054 1_555
Co0 Si1 2.601605 1_645
Co0 Co4 2.699990 1_645
Co0 Co4 2.699990 1_646
Co0 Lu0 3.169696 1_655
Co0 Lu1 3.169696 1_545
Co0 Lu3 3.279893 1_655
Co0 Lu2 3.279893 1_546
Co1 Si5 2.225359 1_555
Co1 Si8 2.244047 1_555
Co1 Si3 2.254301 1_555
Co1 Si2 2.292358 1_555
Co1 Si0 2.332047 1_555
Co1 Lu3 2.891885 1_556
Co1 Lu1 2.962936 1_545
Co1 Lu3 3.051510 1_555
Co1 Lu2 3.082676 1_555
Co2 Si4 2.225359 1_555
Co2 Si9 2.244047 1_555
Co2 Si2 2.254301 1_555
Co2 Si3 2.292358 1_554
Co2 Si1 2.332047 1_554
Co2 Lu0 2.891885 1_555
Co2 Lu2 2.962936 1_455
Co2 Lu0 3.051510 1_554
Co2 Lu1 3.082676 1_554
Co3 Si4 2.225359 1_555
Co3 Si6 2.244047 1_555
Co3 Si2 2.254301 1_555
Co3 Si3 2.292358 1_555
Co3 Si1 2.332047 1_555
Co3 Lu1 2.891885 1_554
Co3 Lu3 2.962936 1_565
Co3 Lu1 3.051510 1_555
Co3 Lu0 3.082676 1_555
Co4 Si9 2.298494 1_565
Co4 Si6 2.298494 1_455
Co4 Si8 2.345379 1_564
Co4 Si7 2.345379 1_455
Co4 Si4 2.358054 1_555
Co4 Si0 2.601605 1_465
Co4 Lu3 3.169696 1_565
Co4 Lu2 3.169696 1_455
Co4 Lu0 3.279893 1_564
Co4 Lu1 3.279893 1_455
Co5 Si5 2.225359 1_555
Co5 Si7 2.244047 1_555
Co5 Si3 2.254301 1_555
Co5 Si2 2.292358 1_556
Co5 Si0 2.332047 1_556
Co5 Lu2 2.891885 1_555
Co5 Lu0 2.962936 1_655
Co5 Lu2 3.051510 1_556
Co5 Lu3 3.082676 1_556
Si0 Si9 2.474833 1_655
Si0 Si6 2.474833 1_545
Si0 Si5 2.704420 1_554
Si0 Si5 2.704420 1_555
Si1 Si8 2.474833 1_565
Si1 Si7 2.474833 1_455
Si1 Si4 2.704420 1_555
Si1 Si4 2.704420 1_556
Si4 Si8 2.455997 1_564
Si4 Si7 2.455997 1_455
Si5 Si9 2.455997 1_655
Si5 Si6 2.455997 1_546
