# generated using pymatgen
data_TeMoWSeS2
_symmetry_space_group_name_H-M   'P 1'
_cell_length_a   3.31095016
_cell_length_b   3.31095016
_cell_length_c   37.78488600
_cell_angle_alpha   90.00000000
_cell_angle_beta   90.00000000
_cell_angle_gamma   120.00000328
_symmetry_Int_Tables_number   1
_chemical_formula_structural   TeMoWSeS2
_chemical_formula_sum   'Te2 Mo2 W2 Se2 S4'
_cell_volume   358.71870354
_cell_formula_units_Z   2
loop_
 _symmetry_equiv_pos_site_id
 _symmetry_equiv_pos_as_xyz
  1  'x, y, z'
loop_
 _atom_site_type_symbol
 _atom_site_label
 _atom_site_symmetry_multiplicity
 _atom_site_fract_x
 _atom_site_fract_y
 _atom_site_fract_z
 _atom_site_occupancy
  Te  Te0  1  0.33333300  0.66666700  0.70866500  1
  Te  Te1  1  0.33333300  0.66666700  0.60692500  1
  Mo  Mo0  1  0.33333300  0.66666700  0.09392100  1
  Mo  Mo1  1  0.66666700  0.33333300  0.28179800  1
  W  W0  1  0.33333300  0.66666700  0.46939600  1
  W  W1  1  0.66666700  0.33333300  0.65779700  1
  Se  Se0  1  0.66666700  0.33333300  0.42481900  1
  Se  Se1  1  0.66666700  0.33333300  0.51408700  1
  S  S0  1  0.33333300  0.66666700  0.32221100  1
  S  S1  1  0.66666700  0.33333300  0.05347800  1
  S  S2  1  0.66666700  0.33333300  0.13431500  1
  S  S3  1  0.33333300  0.66666700  0.24133600  1
loop_
_geom_bond_atom_site_label_1
_geom_bond_atom_site_label_2
_geom_bond_distance
_geom_bond_site_symmetry_2
Te0 W1 2.710787 1_455
Te0 W1 2.710787 1_565
Te0 W1 2.710791 1_555
Te1 W1 2.710894 1_455
Te1 W1 2.710894 1_565
Te1 W1 2.710898 1_555
Mo0 S2 2.446152 1_455
Mo0 S2 2.446152 1_565
Mo0 S2 2.446157 1_555
Mo0 S1 2.447308 1_455
Mo0 S1 2.447308 1_565
Mo0 S1 2.447313 1_555
Mo1 S0 2.446600 1_545
Mo1 S0 2.446600 1_655
Mo1 S0 2.446605 1_555
Mo1 S3 2.447756 1_545
Mo1 S3 2.447756 1_655
Mo1 S3 2.447761 1_555
Se0 W0 2.547766 1_545
Se0 W0 2.547766 1_655
Se0 W0 2.547771 1_555
Se1 W0 2.550616 1_545
Se1 W0 2.550616 1_655
Se1 W0 2.550620 1_555
