# generated using pymatgen
data_RbCu3S2
_symmetry_space_group_name_H-M   'P 1'
_cell_length_a   3.88562911
_cell_length_b   7.54930423
_cell_length_c   8.45609213
_cell_angle_alpha   110.99326795
_cell_angle_beta   90.00000000
_cell_angle_gamma   104.91289112
_symmetry_Int_Tables_number   1
_chemical_formula_structural   RbCu3S2
_chemical_formula_sum   'Rb2 Cu6 S4'
_cell_volume   222.61257448
_cell_formula_units_Z   2
loop_
 _symmetry_equiv_pos_site_id
 _symmetry_equiv_pos_as_xyz
  1  'x, y, z'
loop_
 _atom_site_type_symbol
 _atom_site_label
 _atom_site_symmetry_multiplicity
 _atom_site_fract_x
 _atom_site_fract_y
 _atom_site_fract_z
 _atom_site_occupancy
  Rb  Rb0  1  0.86499133  0.72998065  0.95726140  1
  Rb  Rb1  1  0.13500867  0.27001935  0.04273860  1
  Cu  Cu0  1  0.40680806  0.81361411  0.36462320  1
  Cu  Cu1  1  0.30957731  0.61915462  0.57402158  1
  Cu  Cu2  1  0.06587995  0.13176090  0.41319133  1
  Cu  Cu3  1  0.93412005  0.86823910  0.58680867  1
  Cu  Cu4  1  0.69042269  0.38084538  0.42597842  1
  Cu  Cu5  1  0.59319194  0.18638589  0.63537680  1
  S  S0  1  0.80908729  0.61817558  0.32008751  1
  S  S1  1  0.19091271  0.38182442  0.67991249  1
  S  S2  1  0.52535691  0.05071482  0.25075390  1
  S  S3  1  0.47464309  0.94928518  0.74924610  1
loop_
_geom_bond_atom_site_label_1
_geom_bond_atom_site_label_2
_geom_bond_distance
_geom_bond_site_symmetry_2
Rb0 S2 3.332060 1_666
Rb0 S2 3.332067 1_566
Rb0 S1 3.362852 1_655
Rb0 S1 3.362854 1_555
Rb0 S3 3.393330 1_655
Rb0 S3 3.393332 1_555
Rb0 S0 3.454552 1_556
Rb1 S3 3.332060 1_444
Rb1 S3 3.332067 1_544
Rb1 S0 3.362852 1_455
Rb1 S0 3.362854 1_555
Rb1 S2 3.393330 1_455
Rb1 S2 3.393332 1_555
Rb1 S1 3.454552 1_554
Cu0 S2 2.270198 1_565
Cu0 S0 2.356037 1_555
Cu0 S0 2.356047 1_455
Cu1 S1 2.224591 1_555
Cu1 S3 2.312896 1_555
Cu2 S1 2.316013 1_555
Cu2 S2 2.325651 1_455
Cu2 S2 2.325651 1_555
Cu3 S0 2.316013 1_555
Cu3 S3 2.325651 1_655
Cu3 S3 2.325651 1_555
Cu4 S0 2.224591 1_555
Cu4 S2 2.312896 1_555
Cu5 S3 2.270198 1_545
Cu5 S1 2.356037 1_555
Cu5 S1 2.356047 1_655
