# generated using pymatgen
data_Nd2Si5Ni3
_symmetry_space_group_name_H-M   'P 1'
_cell_length_a   8.03602686
_cell_length_b   8.03602686
_cell_length_c   8.03602686
_cell_angle_alpha   137.90084561
_cell_angle_beta   105.93984656
_cell_angle_gamma   89.04805934
_symmetry_Int_Tables_number   1
_chemical_formula_structural   Nd2Si5Ni3
_chemical_formula_sum   'Nd4 Si10 Ni6'
_cell_volume   320.12484104
_cell_formula_units_Z   2
loop_
 _symmetry_equiv_pos_site_id
 _symmetry_equiv_pos_as_xyz
  1  'x, y, z'
loop_
 _atom_site_type_symbol
 _atom_site_label
 _atom_site_symmetry_multiplicity
 _atom_site_fract_x
 _atom_site_fract_y
 _atom_site_fract_z
 _atom_site_occupancy
  Nd  Nd0  1  0.63264100  0.86849100  0.76415000  1
  Nd  Nd1  1  0.36735900  0.13150900  0.23585000  1
  Nd  Nd2  1  0.10434100  0.36849100  0.73585000  1
  Nd  Nd3  1  0.89565900  0.63150900  0.26415000  1
  Si  Si0  1  0.26866500  0.01866500  0.75000000  1
  Si  Si1  1  0.73133500  0.98133500  0.25000000  1
  Si  Si2  1  0.73133500  0.48133500  0.75000000  1
  Si  Si3  1  0.26866500  0.51866500  0.25000000  1
  Si  Si4  1  0.45619500  0.60736400  0.84883100  1
  Si  Si5  1  0.54380500  0.39263600  0.15116900  1
  Si  Si6  1  0.75853300  0.10736400  0.65116900  1
  Si  Si7  1  0.24146700  0.89263600  0.34883100  1
  Si  Si8  1  0.00000000  0.75000000  0.75000000  1
  Si  Si9  1  0.00000000  0.25000000  0.25000000  1
  Ni  Ni0  1  0.24421200  0.63488000  0.60933200  1
  Ni  Ni1  1  0.75578800  0.36512000  0.39066800  1
  Ni  Ni2  1  0.02554800  0.13488000  0.89066800  1
  Ni  Ni3  1  0.97445200  0.86512000  0.10933200  1
  Ni  Ni4  1  0.50000000  0.75000000  0.25000000  1
  Ni  Ni5  1  0.50000000  0.25000000  0.75000000  1
loop_
_geom_bond_atom_site_label_1
_geom_bond_atom_site_label_2
_geom_bond_distance
_geom_bond_site_symmetry_2
Nd0 Si6 2.947534 1_565
Nd0 Ni0 3.067762 1_555
Nd0 Si9 3.092708 1_666
Nd0 Si8 3.092708 1_655
Nd0 Si5 3.098936 1_555
Nd0 Si5 3.098936 1_566
Nd0 Si4 3.102400 1_555
Nd0 Si2 3.124747 1_555
Nd0 Si1 3.124747 1_556
Nd0 Ni1 3.135616 1_566
Nd0 Ni1 3.135616 1_555
Nd0 Si0 3.150895 1_565
Nd0 Si3 3.150895 1_555
Nd0 Ni2 3.288944 1_665
Nd0 Ni4 3.300075 1_555
Nd0 Ni5 3.300075 1_565
Nd0 Ni3 3.341288 1_556
Nd1 Si7 2.947534 1_545
Nd1 Ni1 3.067762 1_555
Nd1 Si8 3.092708 1_544
Nd1 Si9 3.092708 1_555
Nd1 Si4 3.098936 1_555
Nd1 Si4 3.098936 1_544
Nd1 Si5 3.102400 1_555
Nd1 Si0 3.124747 1_554
Nd1 Si3 3.124747 1_555
Nd1 Ni0 3.135616 1_544
Nd1 Ni0 3.135616 1_555
Nd1 Si1 3.150895 1_545
Nd1 Si2 3.150895 1_555
Nd1 Ni3 3.288944 1_445
Nd1 Ni4 3.300075 1_545
Nd1 Ni5 3.300075 1_555
Nd1 Ni2 3.341288 1_554
Nd2 Si4 2.947534 1_555
Nd2 Ni2 3.067762 1_555
Nd2 Si8 3.092708 1_555
Nd2 Si9 3.092708 1_555
Nd2 Si7 3.098936 1_545
Nd2 Si7 3.098936 1_556
Nd2 Si6 3.102400 1_455
Nd2 Si1 3.124747 1_445
Nd2 Si2 3.124747 1_455
Nd2 Ni3 3.135616 1_445
Nd2 Ni3 3.135616 1_456
Nd2 Si3 3.150895 1_556
Nd2 Si0 3.150895 1_555
Nd2 Ni0 3.288944 1_555
Nd2 Ni4 3.300075 1_556
Nd2 Ni5 3.300075 1_555
Nd2 Ni1 3.341288 1_455
Nd3 Si5 2.947534 1_555
Nd3 Ni3 3.067762 1_555
Nd3 Si8 3.092708 1_655
Nd3 Si9 3.092708 1_655
Nd3 Si6 3.098936 1_565
Nd3 Si6 3.098936 1_554
Nd3 Si7 3.102400 1_655
Nd3 Si3 3.124747 1_655
Nd3 Si0 3.124747 1_665
Nd3 Ni2 3.135616 1_654
Nd3 Ni2 3.135616 1_665
Nd3 Si1 3.150895 1_555
Nd3 Si2 3.150895 1_554
Nd3 Ni1 3.288944 1_555
Nd3 Ni5 3.300075 1_554
Nd3 Ni4 3.300075 1_555
Nd3 Ni0 3.341288 1_655
Si0 Si7 2.498320 1_545
Si0 Si5 2.498320 1_556
Si1 Si4 2.498320 1_554
Si1 Si6 2.498320 1_565
Si2 Si4 2.498320 1_555
Si2 Si6 2.498320 1_555
Si3 Si7 2.498320 1_555
Si3 Si5 2.498320 1_555
Ni0 Si4 2.339488 1_555
Ni0 Si0 2.356417 1_565
Ni0 Si3 2.356417 1_555
Ni0 Si8 2.364599 1_555
Ni0 Si9 2.364599 1_555
Ni1 Si5 2.339488 1_555
Ni1 Si2 2.356417 1_555
Ni1 Si1 2.356417 1_545
Ni1 Si8 2.364599 1_655
Ni1 Si9 2.364599 1_655
Ni2 Si6 2.339488 1_455
Ni2 Si3 2.356417 1_556
Ni2 Si0 2.356417 1_555
Ni2 Si8 2.364599 1_545
Ni2 Si9 2.364599 1_556
Ni3 Si7 2.339488 1_655
Ni3 Si1 2.356417 1_555
Ni3 Si2 2.356417 1_554
Ni3 Si9 2.364599 1_665
Ni3 Si8 2.364599 1_654
Ni4 Si7 2.395240 1_555
Ni4 Si6 2.395240 1_565
Ni4 Si4 2.395240 1_554
Ni4 Si5 2.395240 1_555
Ni4 Si3 2.650792 1_555
Ni4 Si1 2.650792 1_555
Ni4 Ni5 2.886345 1_565
Ni4 Ni5 2.886345 1_554
Ni5 Si5 2.395240 1_556
Ni5 Si6 2.395240 1_555
Ni5 Si7 2.395240 1_545
Ni5 Si4 2.395240 1_555
Ni5 Si2 2.650792 1_555
Ni5 Si0 2.650792 1_555
