# generated using pymatgen
data_Hf4Ga5Ni3
_symmetry_space_group_name_H-M   'P 1'
_cell_length_a   6.37235942
_cell_length_b   7.65274309
_cell_length_c   13.66771784
_cell_angle_alpha   104.84874215
_cell_angle_beta   76.80224686
_cell_angle_gamma   114.81536232
_symmetry_Int_Tables_number   1
_chemical_formula_structural   Hf4Ga5Ni3
_chemical_formula_sum   'Hf12 Ga15 Ni9'
_cell_volume   579.20878278
_cell_formula_units_Z   3
loop_
 _symmetry_equiv_pos_site_id
 _symmetry_equiv_pos_as_xyz
  1  'x, y, z'
loop_
 _atom_site_type_symbol
 _atom_site_label
 _atom_site_symmetry_multiplicity
 _atom_site_fract_x
 _atom_site_fract_y
 _atom_site_fract_z
 _atom_site_occupancy
  Hf  Hf0  1  0.45705400  0.95789500  0.48801900  1
  Hf  Hf1  1  0.97015400  0.46973100  0.98327800  1
  Hf  Hf2  1  0.49707100  0.54538400  0.00955400  1
  Hf  Hf3  1  0.98703700  0.04236400  0.51306600  1
  Hf  Hf4  1  0.22922300  0.31056200  0.26751500  1
  Hf  Hf5  1  0.72500000  0.81043200  0.77486400  1
  Hf  Hf6  1  0.67865400  0.18250700  0.22810400  1
  Hf  Hf7  1  0.19164700  0.69427600  0.73523200  1
  Hf  Hf8  1  0.69123200  0.62376700  0.37394500  1
  Hf  Hf9  1  0.19464400  0.12683400  0.87706000  1
  Hf  Hf10  1  0.94292700  0.87906500  0.12482600  1
  Hf  Hf11  1  0.44105500  0.37458100  0.62805900  1
  Ga  Ga0  1  0.15439900  0.65131200  0.36978800  1
  Ga  Ga1  1  0.64633600  0.14076700  0.87280900  1
  Ga  Ga2  1  0.36588100  0.84070200  0.12128700  1
  Ga  Ga3  1  0.87769200  0.34998600  0.63174300  1
  Ga  Ga4  1  0.67341300  0.50580100  0.16804500  1
  Ga  Ga5  1  0.16978200  0.00816200  0.67269800  1
  Ga  Ga6  1  0.83423900  0.98977600  0.32915400  1
  Ga  Ga7  1  0.34034800  0.49986200  0.83235500  1
  Ga  Ga8  1  0.40965500  0.25127100  0.41618800  1
  Ga  Ga9  1  0.92362700  0.75766200  0.91703800  1
  Ga  Ga10  1  0.07153900  0.25376800  0.08376500  1
  Ga  Ga11  1  0.57346300  0.74722500  0.58532500  1
  Ga  Ga12  1  0.44087900  0.16351400  0.05801200  1
  Ga  Ga13  1  0.95214900  0.67766600  0.56449900  1
  Ga  Ga14  1  0.84046800  0.32237500  0.43603400  1
  Ni  Ni0  1  0.32997900  0.82353700  0.93572000  1
  Ni  Ni1  1  0.20299300  0.94107900  0.30273600  1
  Ni  Ni2  1  0.70365100  0.43842000  0.80835600  1
  Ni  Ni3  1  0.06317100  0.55932900  0.19473100  1
  Ni  Ni4  1  0.56599200  0.06182300  0.69211300  1
  Ni  Ni5  1  0.50002100  0.74969900  0.24830500  1
  Ni  Ni6  1  0.00146400  0.25150500  0.75403200  1
  Ni  Ni7  1  0.73993000  0.99767900  0.00141800  1
  Ni  Ni8  1  0.23722900  0.49968100  0.50032500  1
loop_
_geom_bond_atom_site_label_1
_geom_bond_atom_site_label_2
_geom_bond_distance
_geom_bond_site_symmetry_2
Hf0 Ni4 2.859974 1_565
Hf0 Ni8 3.218434 1_555
Hf0 Ni1 3.252820 1_555
Hf0 Ni5 3.260209 1_555
Hf1 Ni0 2.832199 1_655
Hf1 Ni3 2.932483 1_656
Hf1 Ni2 3.142628 1_555
Hf1 Ni7 3.332904 1_546
Hf2 Ni2 2.839509 1_554
Hf2 Ni7 3.163911 1_555
Hf2 Ni0 3.190187 1_554
Hf2 Ni5 3.237549 1_555
Hf2 Ni3 3.312991 1_555
Hf3 Ni1 2.950512 1_645
Hf3 Ni8 3.212839 1_655
Hf3 Ni4 3.218696 1_555
Hf4 Ni1 2.918725 1_545
Hf4 Ni3 2.979221 1_555
Hf4 Ni5 3.117366 1_555
Hf4 Ni8 3.142298 1_555
Hf5 Ni2 2.940640 1_555
Hf5 Ni0 2.958350 1_555
Hf5 Ni4 3.046602 1_565
Hf5 Ni7 3.065368 1_556
Hf5 Ni6 3.138510 1_665
Hf6 Ni1 2.914604 1_545
Hf6 Ni3 2.959819 1_655
Hf6 Ni7 3.068798 1_545
Hf6 Ni5 3.082678 1_545
Hf7 Ni0 2.871600 1_555
Hf7 Ni4 2.919740 1_565
Hf7 Ni2 2.995956 1_455
Hf7 Ni6 3.142168 1_555
Hf7 Ni8 3.177570 1_555
Hf8 Ni5 2.855091 1_555
Hf8 Ni8 2.916855 1_555
Hf8 Ni3 3.093785 1_655
Hf8 Ni1 3.254801 1_655
Hf9 Ni6 2.829564 1_555
Hf9 Ni7 2.910347 1_446
Hf9 Ni0 3.118258 1_545
Hf9 Ni4 3.138347 1_555
Hf9 Ni2 3.217622 1_555
Hf10 Ni7 2.847612 1_555
Hf10 Ni5 2.851318 1_555
Hf10 Ni1 3.077808 1_655
Hf10 Ni0 3.217169 1_654
Hf10 Ni3 3.254746 1_655
Hf11 Ni6 2.848277 1_555
Hf11 Ni8 2.930413 1_555
Hf11 Ni2 3.113036 1_555
Hf11 Ni4 3.181298 1_555
Ga0 Ni5 2.398642 1_555
Ga0 Ni3 2.446743 1_555
Ga0 Ni1 2.487720 1_555
Ga0 Ni8 2.610269 1_555
Ga0 Ga13 2.675989 1_455
Ga0 Ga14 2.696760 1_455
Ga0 Hf0 2.741760 1_555
Ga0 Hf4 2.802199 1_555
Ga0 Hf8 2.857648 1_455
Ga1 Ni6 2.427474 1_655
Ga1 Ni4 2.505904 1_555
Ga1 Ni2 2.506253 1_555
Ga1 Ga12 2.569840 1_556
Ga1 Ni7 2.580318 1_546
Ga1 Ni0 2.620559 1_545
Ga1 Hf5 2.730704 1_545
Ga1 Hf9 2.822907 1_555
Ga1 Hf1 2.826547 1_555
Ga2 Ni5 2.454890 1_555
Ga2 Ni3 2.470291 1_555
Ga2 Ni1 2.516999 1_555
Ga2 Ni0 2.563449 1_554
Ga2 Ni7 2.575028 1_555
Ga2 Hf2 2.715252 1_555
Ga2 Hf6 2.818031 1_565
Ga2 Hf10 2.819590 1_455
Ga3 Ni6 2.393786 1_655
Ga3 Ni4 2.448814 1_555
Ga3 Ni2 2.466814 1_555
Ga3 Ni8 2.600034 1_655
Ga3 Hf3 2.749951 1_555
Ga3 Hf7 2.811170 1_655
Ga3 Hf11 2.878919 1_555
Ga4 Ni3 2.439788 1_655
Ga4 Ni5 2.456865 1_555
Ga4 Hf8 2.739571 1_555
Ga4 Hf10 2.782397 1_555
Ga4 Hf2 2.789359 1_555
Ga4 Hf4 2.797617 1_555
Ga4 Hf6 2.814042 1_555
Ga4 Hf1 2.815946 1_554
Ga5 Ni6 2.434187 1_555
Ga5 Ni4 2.448145 1_555
Ga5 Hf9 2.726314 1_555
Ga5 Hf11 2.747721 1_555
Ga5 Hf0 2.802475 1_545
Ga5 Hf3 2.809553 1_455
Ga5 Hf7 2.812033 1_545
Ga5 Hf5 2.819335 1_445
Ga6 Ni5 2.425295 1_555
Ga6 Ni1 2.463662 1_655
Ga6 Hf10 2.719063 1_555
Ga6 Hf8 2.744494 1_555
Ga6 Hf3 2.774651 1_565
Ga6 Hf0 2.819124 1_555
Ga6 Hf6 2.821810 1_565
Ga6 Hf4 2.824297 1_665
Ga7 Ni6 2.447309 1_555
Ga7 Ni2 2.485212 1_555
Ga7 Ni0 2.537121 1_555
Ga7 Hf2 2.713738 1_556
Ga7 Hf1 2.727332 1_455
Ga7 Hf11 2.730176 1_555
Ga7 Hf5 2.731666 1_555
Ga7 Hf7 2.764701 1_555
Ga7 Hf9 2.791913 1_555
Ga8 Ni1 2.489089 1_545
Ga8 Ni8 2.489865 1_555
Ga8 Hf3 2.721121 1_455
Ga8 Hf4 2.763022 1_555
Ga8 Hf8 2.784964 1_555
Ga8 Hf6 2.806302 1_555
Ga8 Hf0 2.816036 1_545
Ga8 Hf11 2.832253 1_555
Ga9 Ni0 2.482871 1_655
Ga9 Ni7 2.485303 1_556
Ga9 Ni2 2.521167 1_555
Ga9 Hf2 2.720895 1_556
Ga9 Hf1 2.730606 1_555
Ga9 Hf7 2.732509 1_655
Ga9 Hf5 2.737788 1_555
Ga9 Hf9 2.743645 1_665
Ga9 Hf10 2.766777 1_556
Ga10 Ni3 2.453797 1_555
Ga10 Ni7 2.460112 1_445
Ga10 Ga12 2.646100 1_555
Ga10 Hf1 2.738609 1_454
Ga10 Hf6 2.758147 1_455
Ga10 Hf4 2.780681 1_555
Ga10 Hf9 2.785986 1_554
Ga10 Hf10 2.802029 1_445
Ga10 Hf2 2.861262 1_555
Ga11 Ni8 2.476033 1_555
Ga11 Ni4 2.488424 1_565
Ga11 Ga13 2.621923 1_555
Ga11 Hf0 2.733411 1_555
Ga11 Hf7 2.757464 1_555
Ga11 Hf11 2.791861 1_555
Ga11 Hf3 2.825005 1_565
Ga11 Hf5 2.825853 1_555
Ga11 Hf8 2.829972 1_555
Ga12 Ni7 2.587328 1_545
Ga12 Ni0 2.613324 1_544
Ga12 Ga2 2.644703 1_545
Ga12 Ga4 2.656935 1_555
Ga12 Hf6 2.995308 1_555
Ga12 Hf2 3.018673 1_555
Ga12 Hf4 3.023847 1_555
Ga12 Hf10 3.088519 1_445
Ga12 Hf9 3.115137 1_554
Ga12 Hf1 3.306003 1_554
Ga13 Ga5 2.565610 1_665
Ga13 Ni8 2.581045 1_655
Ga13 Ga3 2.709529 1_555
Ga13 Ga14 2.735252 1_555
Ga13 Hf3 2.957419 1_565
Ga13 Hf7 3.016960 1_655
Ga13 Hf5 3.038279 1_555
Ga13 Hf0 3.140871 1_655
Ga13 Hf11 3.184591 1_555
Ga13 Hf8 3.250957 1_555
Ga14 Ni8 2.555253 1_655
Ga14 Ga6 2.578764 1_545
Ga14 Ga8 2.629979 1_555
Ga14 Ga3 2.685879 1_555
Ga14 Hf0 2.959233 1_545
Ga14 Hf4 2.987641 1_655
Ga14 Hf6 3.022924 1_555
Ga14 Hf3 3.139740 1_555
Ga14 Hf8 3.187035 1_555
Ga14 Hf11 3.285082 1_555
Ni0 Ni7 2.634813 1_556
Ni1 Ni5 2.721487 1_555
Ni1 Ni3 2.777244 1_555
Ni2 Ni6 2.699953 1_655
Ni2 Ni4 2.786955 1_555
Ni3 Ni5 2.718046 1_555
Ni4 Ni6 2.754161 1_655
