# generated using pymatgen
data_Nd(GaCu)2
_symmetry_space_group_name_H-M   'P 1'
_cell_length_a   5.93263256
_cell_length_b   5.93263256
_cell_length_c   5.93263256
_cell_angle_alpha   139.24322807
_cell_angle_beta   139.24322807
_cell_angle_gamma   59.00417222
_symmetry_Int_Tables_number   1
_chemical_formula_structural   Nd(GaCu)2
_chemical_formula_sum   'Nd1 Ga2 Cu2'
_cell_volume   88.14419567
_cell_formula_units_Z   1
loop_
 _symmetry_equiv_pos_site_id
 _symmetry_equiv_pos_as_xyz
  1  'x, y, z'
loop_
 _atom_site_type_symbol
 _atom_site_label
 _atom_site_symmetry_multiplicity
 _atom_site_fract_x
 _atom_site_fract_y
 _atom_site_fract_z
 _atom_site_occupancy
  Nd  Nd0  1  -0.00000000  -0.00000000  0.00000000  1
  Ga  Ga0  1  0.75000000  0.25000000  0.50000000  1
  Ga  Ga1  1  0.25000000  0.75000000  0.50000000  1
  Cu  Cu0  1  0.38229401  0.38229401  0.00000000  1
  Cu  Cu1  1  0.61770599  0.61770599  -0.00000000  1
loop_
_geom_bond_atom_site_label_1
_geom_bond_atom_site_label_2
_geom_bond_distance
_geom_bond_site_symmetry_2
Ga0 Nd0 3.306494 1_655
Ga0 Nd0 3.306494 1_666
Ga0 Nd0 3.306494 1_555
Ga0 Nd0 3.306494 1_656
Ga1 Nd0 3.306494 1_666
Ga1 Nd0 3.306494 1_555
Ga1 Nd0 3.306494 1_565
Ga1 Nd0 3.306494 1_566
Cu0 Cu1 2.431050 1_555
Cu0 Ga1 2.476726 1_544
Cu0 Ga1 2.476726 1_555
Cu0 Ga0 2.476726 1_454
Cu0 Ga0 2.476726 1_555
Cu0 Nd0 3.164331 1_666
Cu0 Nd0 3.164331 1_565
Cu0 Nd0 3.164331 1_554
Cu0 Nd0 3.164331 1_655
Cu1 Ga1 2.476726 1_554
Cu1 Ga0 2.476726 1_554
Cu1 Ga1 2.476726 1_655
Cu1 Ga0 2.476726 1_565
Cu1 Nd0 3.164331 1_565
Cu1 Nd0 3.164331 1_655
Cu1 Nd0 3.164331 1_554
Cu1 Nd0 3.164331 1_666
