# generated using pymatgen
data_Er8Rh5C12
_symmetry_space_group_name_H-M   'P 1'
_cell_length_a   3.48485000
_cell_length_b   7.40103337
_cell_length_c   14.05303305
_cell_angle_alpha   94.09706514
_cell_angle_beta   97.12238989
_cell_angle_gamma   90.00000000
_symmetry_Int_Tables_number   1
_chemical_formula_structural   Er8Rh5C12
_chemical_formula_sum   'Er8 Rh5 C12'
_cell_volume   358.71838454
_cell_formula_units_Z   1
loop_
 _symmetry_equiv_pos_site_id
 _symmetry_equiv_pos_as_xyz
  1  'x, y, z'
loop_
 _atom_site_type_symbol
 _atom_site_label
 _atom_site_symmetry_multiplicity
 _atom_site_fract_x
 _atom_site_fract_y
 _atom_site_fract_z
 _atom_site_occupancy
  Er  Er0  1  0.29995700  0.38981000  0.59991500  1
  Er  Er1  1  0.70004300  0.61019000  0.40008500  1
  Er  Er2  1  0.54665700  0.29621900  0.09331500  1
  Er  Er3  1  0.45334300  0.70378100  0.90668500  1
  Er  Er4  1  0.70705600  0.11570700  0.41411300  1
  Er  Er5  1  0.29294400  0.88429300  0.58588700  1
  Er  Er6  1  0.41154400  0.17331900  0.82308900  1
  Er  Er7  1  0.58845600  0.82668100  0.17691100  1
  Rh  Rh0  1  0.11008400  0.49489500  0.22016700  1
  Rh  Rh1  1  0.88991600  0.50510500  0.77983300  1
  Rh  Rh2  1  0.11600000  0.12839300  0.23200100  1
  Rh  Rh3  1  0.88400000  0.87160700  0.76799900  1
  Rh  Rh4  1  0.00000000  0.00000000  0.00000000  1
  C  C0  1  0.02303100  0.75626500  0.04606200  1
  C  C1  1  0.97696900  0.24373500  0.95393800  1
  C  C2  1  0.21625100  0.36546400  0.43250100  1
  C  C3  1  0.78374900  0.63453600  0.56749900  1
  C  C4  1  0.79294100  0.13162200  0.58588200  1
  C  C5  1  0.20705900  0.86837800  0.41411800  1
  C  C6  1  0.84149300  0.12717300  0.68298500  1
  C  C7  1  0.15850700  0.87282700  0.31701500  1
  C  C8  1  0.04774200  0.61390100  0.09548500  1
  C  C9  1  0.95225800  0.38609900  0.90451500  1
  C  C10  1  0.16822900  0.34685100  0.33645800  1
  C  C11  1  0.83177100  0.65314900  0.66354200  1
loop_
_geom_bond_atom_site_label_1
_geom_bond_atom_site_label_2
_geom_bond_distance
_geom_bond_site_symmetry_2
Er0 Rh1 3.122559 1_555
Er0 Rh1 3.122559 1_455
Er1 Rh0 3.122559 1_655
Er1 Rh0 3.122559 1_555
Er2 Rh0 2.820032 1_555
Er2 Rh0 2.820037 1_655
Er2 Rh2 2.943600 1_655
Er2 Rh2 2.943600 1_555
Er2 Rh4 3.020721 1_555
Er2 Rh4 3.020723 1_655
Er3 Rh1 2.820032 1_555
Er3 Rh1 2.820037 1_455
Er3 Rh3 2.943600 1_555
Er3 Rh3 2.943600 1_455
Er3 Rh4 3.020721 1_666
Er3 Rh4 3.020723 1_566
Er6 Rh3 2.892292 1_445
Er6 Rh3 2.892297 1_545
Er7 Rh2 2.892292 1_665
Er7 Rh2 2.892297 1_565
C0 C8 1.299885 1_555
C0 Rh4 1.957918 1_565
C0 Er7 2.549510 1_455
C0 Er7 2.549512 1_555
C0 Er3 2.618323 1_454
C0 Er3 2.618325 1_554
C1 C9 1.299885 1_555
C1 Rh4 1.957918 1_656
C1 Er6 2.549510 1_655
C1 Er6 2.549512 1_555
C1 Er2 2.618323 1_656
C1 Er2 2.618325 1_556
C2 Er0 2.328492 1_555
C2 Er4 2.539750 1_555
C2 Er4 2.539755 1_455
C2 Er1 2.576589 1_455
C2 Er1 2.576589 1_555
C3 Er1 2.328492 1_555
C3 Er5 2.539750 1_555
C3 Er5 2.539755 1_655
C3 Er0 2.576589 1_655
C3 Er0 2.576589 1_555
C4 C6 1.356830 1_555
C4 Er4 2.389658 1_555
C4 Er5 2.527202 1_545
C4 Er5 2.527205 1_645
C4 Er0 2.582995 1_655
C4 Er0 2.582997 1_555
C5 C7 1.356830 1_555
C5 Er5 2.389658 1_555
C5 Er4 2.527202 1_565
C5 Er4 2.527205 1_465
C5 Er1 2.582995 1_455
C5 Er1 2.582997 1_555
C6 Rh3 2.303447 1_545
C6 Er6 2.621737 1_655
C6 Er6 2.621742 1_555
C6 Er0 2.912115 1_655
C6 Er0 2.912120 1_555
C7 Rh2 2.303447 1_565
C7 Er7 2.621737 1_455
C7 Er7 2.621742 1_555
C7 Er1 2.912115 1_455
C7 Er1 2.912120 1_555
C8 Rh0 2.004779 1_555
C8 Er7 2.558859 1_455
C8 Er7 2.558864 1_555
C8 Er2 2.924849 1_555
C8 Er2 2.924849 1_455
C9 Rh1 2.004779 1_555
C9 Er6 2.558859 1_655
C9 Er6 2.558864 1_555
C9 Er3 2.924849 1_555
C9 Er3 2.924849 1_655
C10 C2 1.336444 1_555
C10 Rh0 2.021401 1_555
C10 Rh2 2.096823 1_555
C10 Er1 2.715284 1_455
C10 Er1 2.715286 1_555
C10 Er4 2.720646 1_555
C10 Er4 2.720648 1_455
C11 C3 1.336444 1_555
C11 Rh1 2.021401 1_555
C11 Rh3 2.096823 1_555
C11 Er0 2.715284 1_655
C11 Er0 2.715286 1_555
C11 Er5 2.720646 1_555
C11 Er5 2.720648 1_655
