# generated using pymatgen
data_Rb3P4H9O16
_symmetry_space_group_name_H-M   'P 1'
_cell_length_a   6.59224586
_cell_length_b   6.59224586
_cell_length_c   20.16529601
_cell_angle_alpha   86.27222583
_cell_angle_beta   86.27222583
_cell_angle_gamma   71.31512680
_symmetry_Int_Tables_number   1
_chemical_formula_structural   Rb3P4H9O16
_chemical_formula_sum   'Rb6 P8 H18 O32'
_cell_volume   827.48807372
_cell_formula_units_Z   2
loop_
 _symmetry_equiv_pos_site_id
 _symmetry_equiv_pos_as_xyz
  1  'x, y, z'
loop_
 _atom_site_type_symbol
 _atom_site_label
 _atom_site_symmetry_multiplicity
 _atom_site_fract_x
 _atom_site_fract_y
 _atom_site_fract_z
 _atom_site_occupancy
  Rb  Rb0  1  0.90233800  0.46552300  0.78383300  1
  Rb  Rb1  1  0.53509000  0.09781100  0.71711000  1
  Rb  Rb2  1  0.09781100  0.53509000  0.21711000  1
  Rb  Rb3  1  0.46552300  0.90233800  0.28383300  1
  Rb  Rb4  1  0.00380000  0.46088200  0.00681100  1
  Rb  Rb5  1  0.46088200  0.00380000  0.50681100  1
  P  P0  1  0.27016200  0.84088300  0.84823800  1
  P  P1  1  0.15917800  0.72893000  0.65194200  1
  P  P2  1  0.72893000  0.15917800  0.15194300  1
  P  P3  1  0.84088300  0.27016200  0.34823800  1
  P  P4  1  0.62209200  0.21727100  0.90971800  1
  P  P5  1  0.78272000  0.37756300  0.59020300  1
  P  P6  1  0.37756300  0.78272000  0.09020300  1
  P  P7  1  0.21727100  0.62209200  0.40971800  1
  H  H0  1  0.91737900  0.92709600  0.84576900  1
  H  H1  1  0.07194900  0.08273100  0.65442400  1
  H  H2  1  0.08273100  0.07194900  0.15442400  1
  H  H3  1  0.92709600  0.91737900  0.34576900  1
  H  H4  1  0.52837000  0.58116400  0.91817800  1
  H  H5  1  0.41991800  0.47175600  0.58191600  1
  H  H6  1  0.47175600  0.41991800  0.08191600  1
  H  H7  1  0.58116400  0.52837000  0.41817800  1
  H  H8  1  0.35684800  0.64491600  0.75085800  1
  H  H9  1  0.64491600  0.35684800  0.25085800  1
  H  H10  1  0.31389000  0.18281900  0.87992500  1
  H  H11  1  0.81699200  0.68629900  0.61983800  1
  H  H12  1  0.68629900  0.81699200  0.11983800  1
  H  H13  1  0.18281900  0.31389000  0.37992500  1
  H  H14  1  0.68644600  0.11409400  0.01461400  1
  H  H15  1  0.88417600  0.31280700  0.48508200  1
  H  H16  1  0.31280700  0.88417600  0.98508200  1
  H  H17  1  0.11409400  0.68644600  0.51461400  1
  O  O0  1  0.72070500  0.11785300  0.84476800  1
  O  O1  1  0.88290800  0.27869400  0.65504100  1
  O  O2  1  0.27869400  0.88290800  0.15504100  1
  O  O3  1  0.11785300  0.72070500  0.34476800  1
  O  O4  1  0.22525200  0.08361900  0.83666600  1
  O  O5  1  0.91619700  0.77484200  0.66326400  1
  O  O6  1  0.77484200  0.91619700  0.16326400  1
  O  O7  1  0.08361900  0.22525200  0.33666600  1
  O  O8  1  0.37179100  0.27355800  0.91277600  1
  O  O9  1  0.72568400  0.62785900  0.58734500  1
  O  O10  1  0.62785900  0.72568400  0.08734500  1
  O  O11  1  0.27355800  0.37179100  0.41277600  1
  O  O12  1  0.05157200  0.79022300  0.84380800  1
  O  O13  1  0.20976600  0.94874700  0.65547800  1
  O  O14  1  0.94874700  0.20976600  0.15547800  1
  O  O15  1  0.79022300  0.05157200  0.34380800  1
  O  O16  1  0.42916300  0.70863900  0.79432500  1
  O  O17  1  0.29084600  0.57052500  0.70560300  1
  O  O18  1  0.57052500  0.29084600  0.20560300  1
  O  O19  1  0.70863900  0.42916300  0.29432500  1
  O  O20  1  0.66856700  0.43093800  0.92118600  1
  O  O21  1  0.56911000  0.33091800  0.57887500  1
  O  O22  1  0.33091800  0.56911000  0.07887500  1
  O  O23  1  0.43093800  0.66856700  0.42118600  1
  O  O24  1  0.72416200  0.05380000  0.96854600  1
  O  O25  1  0.94624700  0.27658800  0.53113300  1
  O  O26  1  0.27658800  0.94624700  0.03113300  1
  O  O27  1  0.05380000  0.72416200  0.46854600  1
  O  O28  1  0.36642300  0.76277600  0.91693300  1
  O  O29  1  0.23814200  0.63489300  0.58282400  1
  O  O30  1  0.63489300  0.23814200  0.08282500  1
  O  O31  1  0.76277600  0.36642300  0.41693300  1
loop_
_geom_bond_atom_site_label_1
_geom_bond_atom_site_label_2
_geom_bond_distance
_geom_bond_site_symmetry_2
H0 O12 1.042567 1_655
H0 O0 1.489360 1_565
H1 O13 1.044950 1_545
H1 O1 1.480066 1_455
H2 O14 1.044950 1_455
H2 O2 1.480066 1_545
H3 O15 1.042567 1_565
H3 O3 1.489360 1_655
H4 O20 1.118765 1_555
H4 O28 1.324530 1_555
H5 O21 1.116936 1_555
H5 O29 1.329230 1_555
H6 O22 1.116936 1_555
H6 O30 1.329230 1_555
H7 O23 1.118765 1_555
H7 O31 1.324530 1_555
H8 O16 1.184291 1_555
H8 O17 1.228476 1_555
H9 O19 1.184291 1_555
H9 O18 1.228476 1_555
H10 O8 1.083071 1_555
H10 O4 1.383957 1_555
H11 O9 1.082934 1_555
H11 O5 1.385915 1_555
H12 O10 1.082934 1_555
H12 O6 1.385915 1_555
H13 O11 1.083071 1_555
H13 O7 1.383957 1_555
H14 O24 1.018556 1_554
H14 O30 1.607364 1_555
H15 O25 1.022145 1_555
H15 O31 1.597675 1_555
H16 O26 1.022145 1_556
H16 O28 1.597675 1_555
H17 O27 1.018556 1_555
H17 O29 1.607346 1_555
O0 P4 1.515080 1_555
O0 Rb1 2.949394 1_555
O0 Rb0 3.065504 1_555
O1 P5 1.515314 1_555
O1 Rb0 2.972986 1_555
O1 Rb1 3.070903 1_555
O2 P6 1.515314 1_555
O2 Rb3 2.972986 1_555
O2 Rb2 3.070903 1_555
O3 P7 1.515080 1_555
O3 Rb2 2.949394 1_555
O3 Rb3 3.065504 1_555
O4 P0 1.536084 1_545
O4 Rb0 2.918419 1_455
O4 Rb1 3.073405 1_555
O5 P1 1.536317 1_655
O5 Rb1 2.922768 1_565
O5 Rb0 3.085999 1_555
O6 P2 1.536315 1_565
O6 Rb2 2.922768 1_655
O6 Rb3 3.085999 1_555
O7 P3 1.536084 1_455
O7 Rb3 2.918419 1_545
O7 Rb2 3.073405 1_555
O8 P4 1.568945 1_555
O8 Rb4 2.965219 1_556
O9 P5 1.568497 1_555
O9 Rb5 2.983274 1_565
O10 P6 1.568497 1_555
O10 Rb4 2.983274 1_655
O11 P7 1.568945 1_555
O11 Rb5 2.965219 1_555
O12 P0 1.589009 1_555
O12 Rb0 2.975373 1_455
O13 P1 1.594464 1_555
O13 Rb1 2.994214 1_565
O13 Rb5 3.384930 1_565
O14 P2 1.594462 1_555
O14 Rb2 2.994214 1_655
O14 Rb4 3.384930 1_655
O15 P3 1.589009 1_555
O15 Rb3 2.975373 1_545
O16 P0 1.558910 1_555
O16 Rb0 3.016362 1_555
O16 Rb1 3.159269 1_565
O17 P1 1.552166 1_555
O17 Rb1 3.016126 1_555
O17 Rb0 3.161600 1_455
O18 P2 1.552152 1_555
O18 Rb2 3.016126 1_555
O18 Rb3 3.161600 1_545
O19 P3 1.558910 1_555
O19 Rb3 3.016362 1_555
O19 Rb2 3.159269 1_655
O20 P4 1.568252 1_555
O20 Rb4 2.953664 1_656
O20 Rb0 3.112309 1_555
O21 P5 1.567825 1_555
O21 Rb5 2.966333 1_555
O21 Rb1 3.124850 1_555
O22 P6 1.567825 1_555
O22 Rb4 2.966333 1_555
O22 Rb2 3.124850 1_555
O23 P7 1.568252 1_555
O23 Rb5 2.953664 1_565
O23 Rb3 3.112309 1_555
O24 P4 1.579335 1_555
O25 P5 1.581274 1_555
O25 Rb5 3.312621 1_655
O26 P6 1.581274 1_555
O26 Rb4 3.312621 1_565
O27 P7 1.579335 1_555
O28 P0 1.548853 1_555
O29 P1 1.552144 1_555
O29 Rb5 3.454053 1_565
O30 P2 1.552144 1_555
O30 Rb4 3.454061 1_655
O31 P3 1.548853 1_555
