# generated using pymatgen
data_BaBi2(IO)2
_symmetry_space_group_name_H-M   'P 1'
_cell_length_a   14.40676481
_cell_length_b   14.40676481
_cell_length_c   14.40676481
_cell_angle_alpha   164.86708791
_cell_angle_beta   164.86708791
_cell_angle_gamma   21.46431330
_symmetry_Int_Tables_number   1
_chemical_formula_structural   BaBi2(IO)2
_chemical_formula_sum   'Ba1 Bi2 I2 O2'
_cell_volume   203.75548724
_cell_formula_units_Z   1
loop_
 _symmetry_equiv_pos_site_id
 _symmetry_equiv_pos_as_xyz
  1  'x, y, z'
loop_
 _atom_site_type_symbol
 _atom_site_label
 _atom_site_symmetry_multiplicity
 _atom_site_fract_x
 _atom_site_fract_y
 _atom_site_fract_z
 _atom_site_occupancy
  Ba  Ba0  1  0.50000000  0.50000000  0.00000000  1
  Bi  Bi0  1  0.61884800  0.61884800  0.00000000  1
  Bi  Bi1  1  0.38115200  0.38115200  0.00000000  1
  I  I0  1  0.80835500  0.80835500  0.00000000  1
  I  I1  1  0.19164500  0.19164500  0.00000000  1
  O  O0  1  0.93675000  0.43675000  0.50000000  1
  O  O1  1  0.56325000  0.06325000  0.50000000  1
loop_
_geom_bond_atom_site_label_1
_geom_bond_atom_site_label_2
_geom_bond_distance
_geom_bond_site_symmetry_2
Ba0 O0 2.608616 1_555
Ba0 O1 2.608616 1_565
Ba0 O1 2.608616 1_554
Ba0 O0 2.608616 1_454
Bi0 O1 2.464962 1_565
Bi0 O1 2.464962 1_554
Bi0 I1 3.382974 1_554
Bi0 I1 3.382974 1_565
Bi0 I1 3.382974 1_655
Bi0 I1 3.382974 1_666
Bi1 O0 2.464962 1_454
Bi1 O0 2.464962 1_555
Bi1 I0 3.382974 1_556
Bi1 I0 3.382974 1_455
Bi1 I0 3.382974 1_545
Bi1 I0 3.382974 1_444
