# generated using pymatgen
data_Ho4In(NiGe2)2
_symmetry_space_group_name_H-M   'P 1'
_cell_length_a   7.96497340
_cell_length_b   7.96497340
_cell_length_c   6.98336880
_cell_angle_alpha   72.02014422
_cell_angle_beta   72.02014422
_cell_angle_gamma   30.57615417
_symmetry_Int_Tables_number   1
_chemical_formula_structural   Ho4In(NiGe2)2
_chemical_formula_sum   'Ho4 In1 Ni2 Ge4'
_cell_volume   213.51153135
_cell_formula_units_Z   1
loop_
 _symmetry_equiv_pos_site_id
 _symmetry_equiv_pos_as_xyz
  1  'x, y, z'
loop_
 _atom_site_type_symbol
 _atom_site_label
 _atom_site_symmetry_multiplicity
 _atom_site_fract_x
 _atom_site_fract_y
 _atom_site_fract_z
 _atom_site_occupancy
  Ho  Ho0  1  0.34459882  0.34459882  0.93789848  1
  Ho  Ho1  1  0.65540118  0.65540118  0.06210152  1
  Ho  Ho2  1  0.40712289  0.40712289  0.39212268  1
  Ho  Ho3  1  0.59287711  0.59287711  0.60787732  1
  In  In0  1  0.00000000  0.00000000  0.00000000  1
  Ni  Ni0  1  0.21616361  0.21616361  0.35410482  1
  Ni  Ni1  1  0.78383639  0.78383639  0.64589518  1
  Ge  Ge0  1  0.06496636  0.06496636  0.33792073  1
  Ge  Ge1  1  0.93503364  0.93503364  0.66207927  1
  Ge  Ge2  1  0.20464550  0.20464550  0.72671036  1
  Ge  Ge3  1  0.79535450  0.79535450  0.27328964  1
loop_
_geom_bond_atom_site_label_1
_geom_bond_atom_site_label_2
_geom_bond_distance
_geom_bond_site_symmetry_2
Ho0 Ni0 2.944754 1_556
Ho0 Ni1 3.264832 1_455
Ho0 Ni1 3.264832 1_545
Ho0 In0 3.311144 1_656
Ho0 In0 3.311144 1_566
Ho1 Ni1 2.944754 1_554
Ho1 Ni0 3.264832 1_655
Ho1 Ni0 3.264832 1_565
Ho1 In0 3.311144 1_655
Ho1 In0 3.311144 1_565
Ho2 Ni1 2.998575 1_545
Ho2 Ni1 2.998575 1_455
Ho2 Ni0 3.029742 1_555
Ho2 In0 3.383000 1_655
Ho2 In0 3.383000 1_565
Ho3 Ni0 2.998575 1_655
Ho3 Ni0 2.998575 1_565
Ho3 Ni1 3.029742 1_555
Ho3 In0 3.383000 1_656
Ho3 In0 3.383000 1_566
Ge0 Ni0 2.361926 1_555
Ge0 Ge1 2.493607 1_445
Ge0 In0 2.841318 1_555
Ge0 Ho1 2.887672 1_455
Ge0 Ho1 2.887672 1_545
Ge0 Ho3 2.943810 1_455
Ge0 Ho3 2.943810 1_545
Ge0 Ho2 3.138335 1_545
Ge0 Ho2 3.138335 1_455
Ge1 Ni1 2.361926 1_555
Ge1 In0 2.841318 1_666
Ge1 Ho0 2.887672 1_655
Ge1 Ho0 2.887672 1_565
Ge1 Ho2 2.943810 1_655
Ge1 Ho2 2.943810 1_565
Ge1 Ho3 3.138335 1_565
Ge1 Ho3 3.138335 1_655
Ge2 Ni1 2.402152 1_545
Ge2 Ni1 2.402152 1_455
Ge2 Ni0 2.550921 1_555
Ge2 Ho0 2.971503 1_555
Ge2 Ho3 2.993509 1_545
Ge2 Ho3 2.993509 1_455
Ge2 Ho1 3.055259 1_546
Ge2 Ho1 3.055259 1_456
Ge2 In0 3.112872 1_556
Ge2 Ho2 3.238363 1_555
Ge3 Ni0 2.402152 1_655
Ge3 Ni0 2.402152 1_565
Ge3 Ni1 2.550921 1_555
Ge3 Ho1 2.971503 1_555
Ge3 Ho2 2.993509 1_565
Ge3 Ho2 2.993509 1_655
Ge3 Ho0 3.055259 1_564
Ge3 Ho0 3.055259 1_654
Ge3 In0 3.112872 1_665
Ge3 Ho3 3.238363 1_555
