# generated using pymatgen
data_Nd3W(ClO2)3
_symmetry_space_group_name_H-M   'P 1'
_cell_length_a   9.36615151
_cell_length_b   9.36615151
_cell_length_c   5.41575500
_cell_angle_alpha   90.00000000
_cell_angle_beta   90.00000000
_cell_angle_gamma   119.99999653
_symmetry_Int_Tables_number   1
_chemical_formula_structural   Nd3W(ClO2)3
_chemical_formula_sum   'Nd6 W2 Cl6 O12'
_cell_volume   411.44521284
_cell_formula_units_Z   2
loop_
 _symmetry_equiv_pos_site_id
 _symmetry_equiv_pos_as_xyz
  1  'x, y, z'
loop_
 _atom_site_type_symbol
 _atom_site_label
 _atom_site_symmetry_multiplicity
 _atom_site_fract_x
 _atom_site_fract_y
 _atom_site_fract_z
 _atom_site_occupancy
  Nd  Nd0  1  0.90915200  0.59577900  0.75000000  1
  Nd  Nd1  1  0.09084800  0.40422100  0.25000000  1
  Nd  Nd2  1  0.68662600  0.09084800  0.75000000  1
  Nd  Nd3  1  0.31337400  0.90915200  0.25000000  1
  Nd  Nd4  1  0.40422100  0.31337400  0.75000000  1
  Nd  Nd5  1  0.59577900  0.68662600  0.25000000  1
  W  W0  1  0.33333300  0.66666700  0.75000000  1
  W  W1  1  0.66666700  0.33333300  0.25000000  1
  Cl  Cl0  1  0.76004800  0.80889600  0.75000000  1
  Cl  Cl1  1  0.23995200  0.19110400  0.25000000  1
  Cl  Cl2  1  0.04884800  0.23995200  0.75000000  1
  Cl  Cl3  1  0.95115200  0.76004800  0.25000000  1
  Cl  Cl4  1  0.19110400  0.95115200  0.75000000  1
  Cl  Cl5  1  0.80889600  0.04884800  0.25000000  1
  O  O0  1  0.47683300  0.84088300  0.98265600  1
  O  O1  1  0.52316700  0.15911700  0.01734400  1
  O  O2  1  0.36405000  0.52316700  0.98265600  1
  O  O3  1  0.52316700  0.15911700  0.48265600  1
  O  O4  1  0.63595000  0.47683300  0.01734400  1
  O  O5  1  0.47683300  0.84088300  0.51734400  1
  O  O6  1  0.15911700  0.63595000  0.98265600  1
  O  O7  1  0.63595000  0.47683300  0.48265600  1
  O  O8  1  0.84088300  0.36405000  0.01734400  1
  O  O9  1  0.36405000  0.52316700  0.51734400  1
  O  O10  1  0.84088300  0.36405000  0.48265600  1
  O  O11  1  0.15911700  0.63595000  0.51734400  1
loop_
_geom_bond_atom_site_label_1
_geom_bond_atom_site_label_2
_geom_bond_distance
_geom_bond_site_symmetry_2
Nd0 O8 2.414137 1_556
Nd0 O10 2.414137 1_555
Nd0 O11 2.515864 1_655
Nd0 O6 2.515864 1_655
Nd0 O4 2.652256 1_556
Nd0 O7 2.652256 1_555
Nd1 O11 2.414137 1_555
Nd1 O6 2.414137 1_554
Nd1 O10 2.515864 1_455
Nd1 O8 2.515864 1_455
Nd1 O2 2.652256 1_554
Nd1 O9 2.652256 1_555
Nd2 O3 2.414130 1_555
Nd2 O1 2.414130 1_556
Nd2 O5 2.515861 1_545
Nd2 O0 2.515861 1_545
Nd2 O10 2.652256 1_555
Nd2 O8 2.652256 1_556
Nd3 O5 2.414130 1_555
Nd3 O0 2.414130 1_554
Nd3 O1 2.515861 1_565
Nd3 O3 2.515861 1_565
Nd3 O6 2.652256 1_554
Nd3 O11 2.652256 1_555
Nd4 O7 2.414136 1_555
Nd4 O4 2.414136 1_556
Nd4 O2 2.515856 1_555
Nd4 O9 2.515856 1_555
Nd4 O1 2.652263 1_556
Nd4 O3 2.652263 1_555
Nd5 O9 2.414136 1_555
Nd5 O2 2.414136 1_554
Nd5 O7 2.515856 1_555
Nd5 O4 2.515856 1_555
Nd5 O5 2.652263 1_555
Nd5 O0 2.652263 1_554
Cl0 Nd0 2.953346 1_555
Cl0 Nd5 3.041267 1_556
Cl0 Nd5 3.041267 1_555
Cl0 Nd2 3.043483 1_565
Cl1 Nd1 2.953346 1_555
Cl1 Nd4 3.041267 1_554
Cl1 Nd4 3.041267 1_555
Cl1 Nd3 3.043483 1_545
Cl2 Nd2 2.953355 1_455
Cl2 Nd1 3.041266 1_555
Cl2 Nd1 3.041266 1_556
Cl2 Nd4 3.043474 1_555
Cl3 Nd3 2.953355 1_655
Cl3 Nd0 3.041266 1_555
Cl3 Nd0 3.041266 1_554
Cl3 Nd5 3.043474 1_555
Cl4 Nd4 2.953354 1_565
Cl4 Nd3 3.041270 1_555
Cl4 Nd3 3.041270 1_556
Cl4 Nd0 3.043477 1_455
Cl5 Nd5 2.953354 1_545
Cl5 Nd2 3.041270 1_554
Cl5 Nd2 3.041270 1_555
Cl5 Nd1 3.043477 1_655
O0 W0 1.965580 1_555
O1 W1 1.965580 1_555
O2 W0 1.965585 1_555
O3 W1 1.965580 1_555
O4 W1 1.965585 1_555
O5 W0 1.965580 1_555
O6 W0 1.965578 1_555
O7 W1 1.965585 1_555
O8 W1 1.965578 1_555
O9 W0 1.965585 1_555
O10 W1 1.965578 1_555
O11 W0 1.965578 1_555
