# generated using pymatgen
data_Eu5Cd2Sb5O
_symmetry_space_group_name_H-M   'P 1'
_cell_length_a   11.24426501
_cell_length_b   11.24426501
_cell_length_c   14.85070900
_cell_angle_alpha   90.00000000
_cell_angle_beta   90.00000000
_cell_angle_gamma   155.89846092
_symmetry_Int_Tables_number   1
_chemical_formula_structural   Eu5Cd2Sb5O
_chemical_formula_sum   'Eu10 Cd4 Sb10 O2'
_cell_volume   766.73835897
_cell_formula_units_Z   2
loop_
 _symmetry_equiv_pos_site_id
 _symmetry_equiv_pos_as_xyz
  1  'x, y, z'
loop_
 _atom_site_type_symbol
 _atom_site_label
 _atom_site_symmetry_multiplicity
 _atom_site_fract_x
 _atom_site_fract_y
 _atom_site_fract_z
 _atom_site_occupancy
  Eu  Eu0  1  0.72334700  0.27665300  0.87179500  1
  Eu  Eu1  1  0.27665300  0.72334700  0.12820500  1
  Eu  Eu2  1  0.72334700  0.27665300  0.62820500  1
  Eu  Eu3  1  0.27665300  0.72334700  0.37179500  1
  Eu  Eu4  1  0.89322100  0.10677900  0.25000000  1
  Eu  Eu5  1  0.10677900  0.89322100  0.75000000  1
  Eu  Eu6  1  0.09591800  0.90408200  0.25000000  1
  Eu  Eu7  1  0.90408200  0.09591800  0.75000000  1
  Eu  Eu8  1  0.00000000  0.00000000  0.50000000  1
  Eu  Eu9  1  0.00000000  0.00000000  0.00000000  1
  Cd  Cd0  1  0.63173000  0.36827000  0.41442500  1
  Cd  Cd1  1  0.36827000  0.63173000  0.58557500  1
  Cd  Cd2  1  0.63173000  0.36827000  0.08557500  1
  Cd  Cd3  1  0.36827000  0.63173000  0.91442500  1
  Sb  Sb0  1  0.84994700  0.15005300  0.47705800  1
  Sb  Sb1  1  0.15005300  0.84994700  0.52294200  1
  Sb  Sb2  1  0.84994700  0.15005300  0.02294200  1
  Sb  Sb3  1  0.15005300  0.84994700  0.97705800  1
  Sb  Sb4  1  0.50334400  0.49665600  0.34868800  1
  Sb  Sb5  1  0.49665600  0.50334400  0.65131200  1
  Sb  Sb6  1  0.50334400  0.49665600  0.15131200  1
  Sb  Sb7  1  0.49665600  0.50334400  0.84868800  1
  Sb  Sb8  1  0.70687200  0.29312800  0.25000000  1
  Sb  Sb9  1  0.29312800  0.70687200  0.75000000  1
  O  O0  1  0.34155100  0.65844900  0.25000000  1
  O  O1  1  0.65844900  0.34155100  0.75000000  1
loop_
_geom_bond_atom_site_label_1
_geom_bond_atom_site_label_2
_geom_bond_distance
_geom_bond_site_symmetry_2
Eu0 O1 2.304068 1_555
Eu0 Sb3 3.248555 1_655
Eu0 Sb3 3.248555 1_545
Eu0 Sb9 3.337342 1_655
Eu0 Sb9 3.337342 1_545
Eu0 Sb2 3.576420 1_556
Eu1 O0 2.304068 1_555
Eu1 Sb2 3.248555 1_455
Eu1 Sb2 3.248555 1_565
Eu1 Sb8 3.337342 1_455
Eu1 Sb8 3.337342 1_565
Eu1 Sb3 3.576420 1_554
Eu2 O1 2.304068 1_555
Eu2 Sb1 3.248555 1_655
Eu2 Sb1 3.248555 1_545
Eu2 Sb9 3.337342 1_655
Eu2 Sb9 3.337342 1_545
Eu2 Sb0 3.576420 1_555
Eu3 O0 2.304068 1_555
Eu3 Sb0 3.248555 1_565
Eu3 Sb0 3.248555 1_455
Eu3 Sb8 3.337342 1_455
Eu3 Sb8 3.337342 1_565
Eu3 Sb1 3.576420 1_555
Eu4 O0 2.608138 1_545
Eu4 O0 2.608138 1_655
Eu4 Sb0 3.503709 1_555
Eu4 Sb2 3.503709 1_555
Eu4 Sb4 3.677597 1_545
Eu4 Sb6 3.677597 1_545
Eu4 Sb6 3.677597 1_655
Eu4 Sb4 3.677597 1_655
Eu5 O1 2.608138 1_455
Eu5 O1 2.608138 1_565
Eu5 Sb1 3.503709 1_555
Eu5 Sb3 3.503709 1_555
Eu5 Sb7 3.677597 1_455
Eu5 Sb5 3.677597 1_455
Eu5 Sb7 3.677597 1_565
Eu5 Sb5 3.677597 1_565
Eu6 Sb8 3.386095 1_455
Eu6 Sb8 3.386095 1_565
Eu6 Sb4 3.435720 1_455
Eu6 Sb6 3.435720 1_455
Eu6 Sb6 3.435720 1_565
Eu6 Sb4 3.435720 1_565
Eu7 Sb9 3.386095 1_545
Eu7 Sb9 3.386095 1_655
Eu7 Sb5 3.435720 1_545
Eu7 Sb7 3.435720 1_545
Eu7 Sb7 3.435720 1_655
Eu7 Sb5 3.435720 1_655
Eu8 Sb4 3.250517 1_555
Eu8 Sb5 3.250517 1_555
Eu8 Sb4 3.250517 1_445
Eu8 Sb5 3.250517 1_445
Eu8 Sb1 3.317649 1_545
Eu8 Sb0 3.317649 1_455
Eu9 Sb7 3.250517 1_554
Eu9 Sb7 3.250517 1_444
Eu9 Sb6 3.250517 1_555
Eu9 Sb6 3.250517 1_445
Eu9 Sb3 3.317649 1_544
Eu9 Sb2 3.317649 1_455
Cd0 Sb1 2.875853 1_655
Cd0 Sb1 2.875853 1_545
Cd0 Sb8 2.948490 1_555
Cd0 Sb4 2.987589 1_555
Cd0 Eu6 3.477627 1_655
Cd0 Eu6 3.477627 1_545
Cd1 Sb0 2.875853 1_565
Cd1 Sb0 2.875853 1_455
Cd1 Sb9 2.948490 1_555
Cd1 Sb5 2.987589 1_555
Cd1 Eu7 3.477627 1_565
Cd1 Eu7 3.477627 1_455
Cd2 Sb3 2.875853 1_544
Cd2 Sb3 2.875853 1_654
Cd2 Sb8 2.948490 1_555
Cd2 Sb6 2.987589 1_555
Cd2 Eu6 3.477627 1_655
Cd2 Eu6 3.477627 1_545
Cd3 Sb2 2.875853 1_566
Cd3 Sb2 2.875853 1_456
Cd3 Sb9 2.948490 1_555
Cd3 Sb7 2.987589 1_555
Cd3 Eu7 3.477627 1_565
Cd3 Eu7 3.477627 1_455
Sb4 Sb6 2.931174 1_555
Sb5 Sb7 2.931174 1_555
