# generated using pymatgen
data_Mg6ZnNi
_symmetry_space_group_name_H-M   'P 1'
_cell_length_a   4.76506400
_cell_length_b   6.14940200
_cell_length_c   10.39245900
_cell_angle_alpha   90.00000000
_cell_angle_beta   90.00000000
_cell_angle_gamma   90.00000000
_symmetry_Int_Tables_number   1
_chemical_formula_structural   Mg6ZnNi
_chemical_formula_sum   'Mg12 Zn2 Ni2'
_cell_volume   304.52288995
_cell_formula_units_Z   2
loop_
 _symmetry_equiv_pos_site_id
 _symmetry_equiv_pos_as_xyz
  1  'x, y, z'
loop_
 _atom_site_type_symbol
 _atom_site_label
 _atom_site_symmetry_multiplicity
 _atom_site_fract_x
 _atom_site_fract_y
 _atom_site_fract_z
 _atom_site_occupancy
  Mg  Mg0  1  0.50000000  0.75074600  0.08461600  1
  Mg  Mg1  1  0.50000000  0.24925400  0.08461600  1
  Mg  Mg2  1  0.00000000  0.74194800  0.91081300  1
  Mg  Mg3  1  0.00000000  0.25805200  0.91081300  1
  Mg  Mg4  1  0.00000000  0.50000000  0.16965700  1
  Mg  Mg5  1  0.00000000  0.50000000  0.67391000  1
  Mg  Mg6  1  0.50000000  0.25074600  0.58461600  1
  Mg  Mg7  1  0.50000000  0.74925400  0.58461600  1
  Mg  Mg8  1  0.00000000  0.24194800  0.41081300  1
  Mg  Mg9  1  0.00000000  0.75805200  0.41081300  1
  Mg  Mg10  1  0.00000000  0.00000000  0.66965700  1
  Mg  Mg11  1  0.00000000  0.00000000  0.17391000  1
  Zn  Zn0  1  0.50000000  0.50000000  0.33260200  1
  Zn  Zn1  1  0.50000000  0.00000000  0.83260200  1
  Ni  Ni0  1  0.50000000  0.50000000  0.83297900  1
  Ni  Ni1  1  0.50000000  0.00000000  0.33297900  1
loop_
_geom_bond_atom_site_label_1
_geom_bond_atom_site_label_2
_geom_bond_distance
_geom_bond_site_symmetry_2
Mg0 Mg4 2.972391 1_655
Mg0 Mg4 2.972391 1_555
Mg0 Mg11 2.981103 1_565
Mg0 Mg11 2.981103 1_665
Mg0 Mg2 2.990299 1_654
Mg0 Mg2 2.990299 1_554
Mg0 Ni1 3.001908 1_565
Mg0 Zn0 3.003240 1_555
Mg0 Zn1 3.034594 1_564
Mg0 Ni0 3.035863 1_554
Mg0 Mg1 3.065526 1_565
Mg0 Mg1 3.083876 1_555
Mg1 Mg4 2.972391 1_655
Mg1 Mg4 2.972391 1_555
Mg1 Mg11 2.981103 1_655
Mg1 Mg11 2.981103 1_555
Mg1 Mg3 2.990299 1_554
Mg1 Mg3 2.990299 1_654
Mg1 Ni1 3.001908 1_555
Mg1 Zn0 3.003240 1_555
Mg1 Zn1 3.034594 1_554
Mg1 Ni0 3.035863 1_554
Mg2 Mg5 2.876651 1_555
Mg2 Ni0 2.923082 1_555
Mg2 Ni0 2.923082 1_455
Mg2 Mg3 2.975671 1_555
Mg2 Zn1 2.975778 1_565
Mg2 Zn1 2.975778 1_465
Mg2 Mg4 3.074068 1_556
Mg2 Mg3 3.173731 1_565
Mg3 Mg5 2.876651 1_555
Mg3 Ni0 2.923082 1_455
Mg3 Ni0 2.923082 1_555
Mg3 Zn1 2.975778 1_555
Mg3 Zn1 2.975778 1_455
Mg3 Mg4 3.074068 1_556
Mg4 Zn0 2.923022 1_555
Mg4 Zn0 2.923022 1_455
Mg4 Mg8 2.966345 1_555
Mg4 Mg9 2.966345 1_555
Mg5 Ni0 2.899872 1_555
Mg5 Ni0 2.899872 1_455
Mg5 Mg7 2.981103 1_555
Mg5 Mg7 2.981103 1_455
Mg5 Mg6 2.981103 1_455
Mg5 Mg6 2.981103 1_555
Mg5 Mg9 3.161349 1_555
Mg5 Mg8 3.161349 1_555
Mg6 Mg8 2.990299 1_555
Mg6 Mg8 2.990299 1_655
Mg6 Ni0 3.001908 1_555
Mg6 Zn1 3.003240 1_555
Mg6 Zn0 3.034594 1_555
Mg6 Ni1 3.035863 1_555
Mg6 Mg7 3.065526 1_555
Mg6 Mg7 3.083876 1_545
Mg7 Mg9 2.990299 1_655
Mg7 Mg9 2.990299 1_555
Mg7 Ni0 3.001908 1_555
Mg7 Zn1 3.003240 1_565
Mg7 Zn0 3.034594 1_555
Mg7 Ni1 3.035863 1_565
Mg8 Ni1 2.923082 1_555
Mg8 Ni1 2.923082 1_455
Mg8 Mg9 2.975671 1_545
Mg8 Zn0 2.975778 1_455
Mg8 Zn0 2.975778 1_555
Mg8 Mg9 3.173731 1_555
Mg9 Ni1 2.923082 1_465
Mg9 Ni1 2.923082 1_565
Mg9 Zn0 2.975778 1_455
Mg9 Zn0 2.975778 1_555
Mg10 Zn1 2.923022 1_555
Mg10 Zn1 2.923022 1_455
Mg10 Mg3 2.966345 1_555
Mg10 Mg2 2.966345 1_545
Mg10 Mg6 2.972391 1_555
Mg10 Mg6 2.972391 1_455
Mg10 Mg7 2.972391 1_445
Mg10 Mg7 2.972391 1_545
Mg10 Mg9 3.074068 1_545
Mg10 Mg8 3.074068 1_555
Mg10 Mg5 3.075019 1_545
Mg10 Mg5 3.075019 1_555
Mg11 Mg8 2.876651 1_555
Mg11 Mg9 2.876651 1_545
Mg11 Ni1 2.899872 1_455
Mg11 Ni1 2.899872 1_555
Mg11 Mg4 3.075019 1_545
Mg11 Mg4 3.075019 1_555
Mg11 Mg3 3.161349 1_554
Mg11 Mg2 3.161349 1_544
Ni0 Zn1 3.074703 1_555
Ni0 Zn1 3.074703 1_565
Ni1 Zn0 3.074703 1_555
Ni1 Zn0 3.074703 1_545
