# generated using pymatgen
data_Ba3Sr(CoO3)4
_symmetry_space_group_name_H-M   'P 1'
_cell_length_a   4.78571631
_cell_length_b   5.67624552
_cell_length_c   9.81492540
_cell_angle_alpha   90.07501039
_cell_angle_beta   90.06563383
_cell_angle_gamma   90.15791252
_symmetry_Int_Tables_number   1
_chemical_formula_structural   Ba3Sr(CoO3)4
_chemical_formula_sum   'Ba3 Sr1 Co4 O12'
_cell_volume   266.62005756
_cell_formula_units_Z   1
loop_
 _symmetry_equiv_pos_site_id
 _symmetry_equiv_pos_as_xyz
  1  'x, y, z'
loop_
 _atom_site_type_symbol
 _atom_site_label
 _atom_site_symmetry_multiplicity
 _atom_site_fract_x
 _atom_site_fract_y
 _atom_site_fract_z
 _atom_site_occupancy
  Ba  Ba0  1  0.25001300  0.99921400  0.66612600  1
  Ba  Ba1  1  0.74994900  0.00065400  0.33217500  1
  Ba  Ba2  1  0.74985800  0.50015800  0.83537900  1
  Sr  Sr0  1  0.24999700  0.49854900  0.16747300  1
  Co  Co0  1  0.99985600  0.99992700  0.00361600  1
  Co  Co1  1  0.99979400  0.50018900  0.49622200  1
  Co  Co2  1  0.49993500  0.00015300  0.00371600  1
  Co  Co3  1  0.50022800  0.50019700  0.49622800  1
  O  O0  1  0.74988200  0.50014900  0.34670700  1
  O  O1  1  0.75090900  0.99954000  0.85424700  1
  O  O2  1  0.24924000  0.99987500  0.15212900  1
  O  O3  1  0.25006800  0.50025800  0.64596400  1
  O  O4  1  0.75177400  0.77671800  0.07634300  1
  O  O5  1  0.74759400  0.22762300  0.07795500  1
  O  O6  1  0.74982600  0.27682500  0.57269500  1
  O  O7  1  0.75021300  0.72408300  0.57285900  1
  O  O8  1  0.25017400  0.72113400  0.41850600  1
  O  O9  1  0.24978500  0.27859400  0.41850500  1
  O  O10  1  0.24859600  0.22495700  0.93223100  1
  O  O11  1  0.25230800  0.77120000  0.93092200  1
loop_
_geom_bond_atom_site_label_1
_geom_bond_atom_site_label_2
_geom_bond_distance
_geom_bond_site_symmetry_2
Ba0 O3 2.838844 1_555
Ba0 O3 2.851183 1_565
Ba0 O8 2.896235 1_555
Ba0 O9 2.903740 1_565
Ba0 O11 2.904930 1_555
Ba0 O10 2.907712 1_565
Ba0 O7 2.994788 1_455
Ba0 O7 3.004854 1_555
Ba0 O6 3.005587 1_565
Ba0 O6 3.012247 1_465
Ba0 O1 3.020689 1_455
Ba0 O1 3.024121 1_555
Ba1 O5 2.809650 1_555
Ba1 O4 2.812925 1_545
Ba1 O6 2.832061 1_555
Ba1 O7 2.838079 1_545
Ba1 O0 2.838656 1_555
Ba1 O0 2.844753 1_545
Ba1 O2 2.973559 1_645
Ba1 O2 2.975741 1_545
Ba1 O9 2.983290 1_655
Ba1 O8 2.990520 1_545
Ba1 O9 2.993066 1_555
Ba1 O8 2.997679 1_645
Ba2 O4 2.836901 1_556
Ba2 O1 2.840406 1_555
Ba2 O5 2.841018 1_556
Ba2 O1 2.847918 1_545
Ba2 O6 2.871537 1_555
Ba2 O7 2.874560 1_555
Ba2 O11 2.989596 1_555
Ba2 O11 2.999840 1_655
Ba2 O10 3.009977 1_655
Ba2 O10 3.014462 1_555
Ba2 O3 3.027708 1_555
Ba2 O3 3.032656 1_655
Co0 O4 1.876264 1_555
Co0 O10 1.880260 1_664
Co0 O2 1.882854 1_655
Co0 O1 1.888036 1_554
Co0 O11 1.913773 1_654
Co0 O5 1.915313 1_565
Co1 O0 1.892064 1_555
Co1 O8 1.893886 1_655
Co1 O3 1.894883 1_655
Co1 O6 1.896872 1_555
Co1 O9 1.898206 1_655
Co1 O7 1.901443 1_555
Co2 O2 1.888195 1_545
Co2 O10 1.891096 1_554
Co2 O4 1.891571 1_545
Co2 O5 1.894716 1_555
Co2 O11 1.894979 1_544
Co2 O1 1.897062 1_544
Co3 O0 1.893454 1_555
Co3 O9 1.894144 1_555
Co3 O8 1.896158 1_555
Co3 O3 1.896621 1_555
Co3 O7 1.897112 1_555
Co3 O6 1.899082 1_555
O0 Sr0 2.967842 1_555
O0 Sr0 2.972017 1_655
O2 Sr0 2.834395 1_565
O2 Sr0 2.849841 1_555
O4 Sr0 2.999637 1_655
O4 Sr0 3.007885 1_555
O5 Sr0 2.971402 1_555
O5 Sr0 2.981459 1_655
O8 Sr0 2.767453 1_555
O9 Sr0 2.763596 1_555
O10 Sr0 2.780870 1_556
O11 Sr0 2.791970 1_556
