# generated using pymatgen
data_FeCu2BO5
_symmetry_space_group_name_H-M   'P 1'
_cell_length_a   12.18888400
_cell_length_b   3.13521500
_cell_length_c   9.65138972
_cell_angle_alpha   82.32609338
_cell_angle_beta   90.00000000
_cell_angle_gamma   90.00000000
_symmetry_Int_Tables_number   1
_chemical_formula_structural   FeCu2BO5
_chemical_formula_sum   'Fe4 Cu8 B4 O20'
_cell_volume   365.52249761
_cell_formula_units_Z   4
loop_
 _symmetry_equiv_pos_site_id
 _symmetry_equiv_pos_as_xyz
  1  'x, y, z'
loop_
 _atom_site_type_symbol
 _atom_site_label
 _atom_site_symmetry_multiplicity
 _atom_site_fract_x
 _atom_site_fract_y
 _atom_site_fract_z
 _atom_site_occupancy
  Fe  Fe0  1  0.61778500  0.94436800  0.73449400  1
  Fe  Fe1  1  0.11778500  0.05563200  0.76550600  1
  Fe  Fe2  1  0.38221500  0.05563200  0.26550600  1
  Fe  Fe3  1  0.88221500  0.94436800  0.23449400  1
  Cu  Cu0  1  0.50000000  0.50000000  0.50000000  1
  Cu  Cu1  1  0.00000000  0.50000000  0.00000000  1
  Cu  Cu2  1  0.27746600  0.54490400  0.00952700  1
  Cu  Cu3  1  0.77746600  0.45509600  0.49047300  1
  Cu  Cu4  1  0.72253400  0.45509600  0.99047300  1
  Cu  Cu5  1  0.22253400  0.54490400  0.50952700  1
  Cu  Cu6  1  0.50000000  0.00000000  0.00000000  1
  Cu  Cu7  1  0.00000000  0.00000000  0.50000000  1
  B  B0  1  0.36636300  0.04811400  0.73675400  1
  B  B1  1  0.86636300  0.95188600  0.76324600  1
  B  B2  1  0.63363700  0.95188600  0.26324600  1
  B  B3  1  0.13363700  0.04811400  0.23675400  1
  O  O0  1  0.41199400  0.60175000  0.12713100  1
  O  O1  1  0.91199400  0.39825000  0.37286900  1
  O  O2  1  0.58800600  0.39825000  0.87286900  1
  O  O3  1  0.08800600  0.60175000  0.62713100  1
  O  O4  1  0.64506200  0.49133500  0.59928900  1
  O  O5  1  0.14506200  0.50866500  0.90071100  1
  O  O6  1  0.35493800  0.50866500  0.40071100  1
  O  O7  1  0.85493800  0.49133500  0.09928900  1
  O  O8  1  0.36910200  0.96228600  0.88094300  1
  O  O9  1  0.86910200  0.03771400  0.61905700  1
  O  O10  1  0.63089800  0.03771400  0.11905700  1
  O  O11  1  0.13089800  0.96228600  0.38094300  1
  O  O12  1  0.23367800  0.11706600  0.17164700  1
  O  O13  1  0.73367800  0.88293400  0.32835300  1
  O  O14  1  0.76632200  0.88293400  0.82835300  1
  O  O15  1  0.26632200  0.11706600  0.67164700  1
  O  O16  1  0.46203400  0.05305900  0.65988900  1
  O  O17  1  0.96203400  0.94694100  0.84011100  1
  O  O18  1  0.53796600  0.94694100  0.34011100  1
  O  O19  1  0.03796600  0.05305900  0.15988900  1
loop_
_geom_bond_atom_site_label_1
_geom_bond_atom_site_label_2
_geom_bond_distance
_geom_bond_site_symmetry_2
Fe0 O14 2.022130 1_555
Fe0 O4 2.038738 1_565
Fe0 O16 2.042815 1_565
Fe0 O2 2.058218 1_555
Fe0 O4 2.079845 1_555
Fe0 O2 2.108998 1_565
Fe1 O15 2.022130 1_555
Fe1 O5 2.038738 1_545
Fe1 O17 2.042815 1_445
Fe1 O3 2.058218 1_555
Fe1 O5 2.079845 1_555
Fe1 O3 2.108998 1_545
Fe2 O12 2.022130 1_555
Fe2 O6 2.038738 1_545
Fe2 O18 2.042815 1_545
Fe2 O0 2.058218 1_555
Fe2 O6 2.079845 1_555
Fe2 O0 2.108998 1_545
Fe3 O13 2.022130 1_555
Fe3 O7 2.038738 1_565
Fe3 O19 2.042815 1_665
Fe3 O1 2.058218 1_555
Fe3 O7 2.079845 1_555
Fe3 O1 2.108998 1_565
Cu0 O18 1.995366 1_555
Cu0 O16 1.995366 1_555
Cu0 O4 2.009580 1_555
Cu0 O6 2.009580 1_555
Cu0 O16 2.513303 1_565
Cu0 O18 2.513303 1_545
Cu1 O19 1.995366 1_555
Cu1 O17 1.995366 1_454
Cu1 O7 2.009580 1_455
Cu1 O5 2.009580 1_554
Cu1 O19 2.513303 1_565
Cu1 O17 2.513303 1_444
Cu2 O5 1.937082 1_554
Cu2 O12 1.992944 1_555
Cu2 O0 2.015658 1_555
Cu2 O8 2.016519 1_554
Cu2 O12 2.588554 1_565
Cu2 O8 2.594162 1_544
Cu3 O4 1.937082 1_555
Cu3 O13 1.992944 1_555
Cu3 O1 2.015658 1_555
Cu3 O9 2.016519 1_555
Cu3 O13 2.588554 1_545
Cu3 O9 2.594162 1_565
Cu4 O7 1.937082 1_556
Cu4 O14 1.992944 1_555
Cu4 O2 2.015658 1_555
Cu4 O10 2.016519 1_556
Cu4 O14 2.588554 1_545
Cu4 O10 2.594162 1_566
Cu5 O6 1.937082 1_555
Cu5 O15 1.992944 1_555
Cu5 O3 2.015658 1_555
Cu5 O11 2.016519 1_555
Cu5 O15 2.588554 1_565
Cu5 O11 2.594162 1_545
Cu6 O2 1.950904 1_554
Cu6 O0 1.950904 1_545
Cu6 O10 1.978949 1_555
Cu6 O8 1.978949 1_544
Cu7 O3 1.950904 1_545
Cu7 O1 1.950904 1_455
Cu7 O11 1.978949 1_545
Cu7 O9 1.978949 1_455
B0 O15 1.375578 1_555
B0 O16 1.381071 1_555
B0 O8 1.382075 1_545
B1 O14 1.375578 1_555
B1 O17 1.381071 1_555
B1 O9 1.382075 1_565
B2 O13 1.375578 1_555
B2 O18 1.381071 1_555
B2 O10 1.382075 1_565
B3 O12 1.375578 1_555
B3 O19 1.381071 1_555
B3 O11 1.382075 1_545
