# generated using pymatgen
data_Ge(C6F5)4
_symmetry_space_group_name_H-M   'P 1'
_cell_length_a   12.85162849
_cell_length_b   12.85162849
_cell_length_c   12.85162849
_cell_angle_alpha   95.68994443
_cell_angle_beta   95.68994443
_cell_angle_gamma   143.29368530
_symmetry_Int_Tables_number   1
_chemical_formula_structural   Ge(C6F5)4
_chemical_formula_sum   'Ge2 C48 F40'
_cell_volume   1204.18989453
_cell_formula_units_Z   2
loop_
 _symmetry_equiv_pos_site_id
 _symmetry_equiv_pos_as_xyz
  1  'x, y, z'
loop_
 _atom_site_type_symbol
 _atom_site_label
 _atom_site_symmetry_multiplicity
 _atom_site_fract_x
 _atom_site_fract_y
 _atom_site_fract_z
 _atom_site_occupancy
  Ge  Ge0  1  0.25000000  0.75000000  0.50000000  1
  Ge  Ge1  1  0.00000000  0.00000000  0.00000000  1
  C  C0  1  0.31905700  0.82893600  0.36381200  1
  C  C1  1  0.46512400  0.95524600  0.63618800  1
  C  C2  1  0.78487600  0.79475400  0.86381200  1
  C  C3  1  0.93094300  0.92106400  0.13618800  1
  C  C4  1  0.04475400  0.68094300  0.50987900  1
  C  C5  1  0.17106400  0.53487600  0.49012100  1
  C  C6  1  0.07893600  0.21512400  0.00987900  1
  C  C7  1  0.20524600  0.06905700  0.99012100  1
  C  C8  1  0.20587700  0.78726500  0.28544500  1
  C  C9  1  0.50182000  0.92043200  0.71455500  1
  C  C10  1  0.74818000  0.82956800  0.78544500  1
  C  C11  1  0.04412300  0.96273500  0.21455500  1
  C  C12  1  0.07956800  0.79412300  0.58138800  1
  C  C13  1  0.21273500  0.49818000  0.41861200  1
  C  C14  1  0.03726500  0.25182000  0.08138800  1
  C  C15  1  0.17043200  0.95587700  0.91861200  1
  C  C16  1  0.24025900  0.62830000  0.06819400  1
  C  C17  1  0.56010700  0.17206500  0.93180600  1
  C  C18  1  0.68989300  0.57793500  0.56819400  1
  C  C19  1  0.00974100  0.12170000  0.43180600  1
  C  C20  1  0.82793500  0.75974100  0.38804200  1
  C  C21  1  0.37170000  0.43989300  0.61195800  1
  C  C22  1  0.87830000  0.31010700  0.88804200  1
  C  C23  1  0.42206500  0.99025900  0.11195800  1
  C  C24  1  0.97057100  0.14265100  0.51802400  1
  C  C25  1  0.62462700  0.45254700  0.48197600  1
  C  C26  1  0.62537300  0.29745300  0.01802400  1
  C  C27  1  0.27942900  0.60734900  0.98197600  1
  C  C28  1  0.54745300  0.02942900  0.17208000  1
  C  C29  1  0.85734900  0.37537300  0.82792000  1
  C  C30  1  0.39265100  0.37462700  0.67208000  1
  C  C31  1  0.70254700  0.72057100  0.32792000  1
  C  C32  1  0.58160800  0.00970300  0.27527300  1
  C  C33  1  0.73443000  0.30633500  0.72472700  1
  C  C34  1  0.51557000  0.44366500  0.77527300  1
  C  C35  1  0.66839200  0.74029700  0.22472700  1
  C  C36  1  0.69366500  0.41839200  0.42809500  1
  C  C37  1  0.99029700  0.26557000  0.57190500  1
  C  C38  1  0.25970300  0.48443000  0.92809500  1
  C  C39  1  0.55633500  0.33160800  0.07190500  1
  C  C40  1  0.49131300  0.93044200  0.35200200  1
  C  C41  1  0.57844000  0.13931100  0.64799800  1
  C  C42  1  0.67156000  0.61068900  0.85200200  1
  C  C43  1  0.75868700  0.81955800  0.14799800  1
  C  C44  1  0.86068900  0.50868700  0.43912900  1
  C  C45  1  0.06955800  0.42156000  0.56087100  1
  C  C46  1  0.18044200  0.32844000  0.93912900  1
  C  C47  1  0.38931100  0.24131300  0.06087100  1
  F  F0  1  0.04703500  0.70156800  0.27651600  1
  F  F1  1  0.42505200  0.77051900  0.72348400  1
  F  F2  1  0.82494800  0.97948100  0.77651600  1
  F  F3  1  0.20296500  0.04843200  0.22348400  1
  F  F4  1  0.22948100  0.95296500  0.65453300  1
  F  F5  1  0.29843200  0.57494800  0.34546700  1
  F  F6  1  0.95156800  0.17505200  0.15453300  1
  F  F7  1  0.02051900  0.79703500  0.84546700  1
  F  F8  1  0.28408200  0.92681900  0.13562800  1
  F  F9  1  0.79119100  0.14845400  0.86437200  1
  F  F10  1  0.45880900  0.60154500  0.63562800  1
  F  F11  1  0.96591800  0.82318100  0.36437200  1
  F  F12  1  0.85154500  0.71591800  0.64273700  1
  F  F13  1  0.07318100  0.20880900  0.35726300  1
  F  F14  1  0.17681900  0.54119100  0.14273700  1
  F  F15  1  0.39845400  0.03408200  0.85726300  1
  F  F16  1  0.68068600  0.11164700  0.12355900  1
  F  F17  1  0.98808800  0.55712700  0.87644100  1
  F  F18  1  0.26191200  0.19287300  0.62355900  1
  F  F19  1  0.56931400  0.63835300  0.37644100  1
  F  F20  1  0.44287300  0.31931400  0.43096000  1
  F  F21  1  0.88835300  0.01191200  0.56904000  1
  F  F22  1  0.36164700  0.73808800  0.93096000  1
  F  F23  1  0.80712700  0.43068600  0.06904000  1
  F  F24  1  0.74222200  0.08668900  0.29698200  1
  F  F25  1  0.78970700  0.44524000  0.70301800  1
  F  F26  1  0.46029300  0.30476000  0.79698200  1
  F  F27  1  0.50777800  0.66331100  0.20301800  1
  F  F28  1  0.55476000  0.25777800  0.34446700  1
  F  F29  1  0.91331100  0.21029300  0.65553300  1
  F  F30  1  0.33668900  0.53970700  0.84446700  1
  F  F31  1  0.69524000  0.49222200  0.15553300  1
  F  F32  1  0.58180000  0.94676800  0.43657700  1
  F  F33  1  0.51019100  0.14522300  0.56342300  1
  F  F34  1  0.73980900  0.60477700  0.93657700  1
  F  F35  1  0.66820000  0.80323200  0.06342300  1
  F  F36  1  0.85477700  0.41820000  0.36496800  1
  F  F37  1  0.05323200  0.48980900  0.63503200  1
  F  F38  1  0.19676800  0.26019100  0.86496800  1
  F  F39  1  0.39522300  0.33180000  0.13503200  1
loop_
_geom_bond_atom_site_label_1
_geom_bond_atom_site_label_2
_geom_bond_distance
_geom_bond_site_symmetry_2
C0 C8 1.330565 1_555
C0 C40 1.449465 1_555
C0 Ge0 2.024002 1_555
C1 C9 1.330574 1_555
C1 C41 1.449455 1_565
C1 Ge0 2.024003 1_555
C2 C42 1.449455 1_555
C2 Ge1 2.024003 1_666
C3 C43 1.449465 1_555
C3 Ge1 2.024002 1_665
C4 C44 1.449461 1_455
C4 Ge0 2.024014 1_555
C5 Ge0 2.024002 1_555
C6 Ge1 2.024002 1_555
C7 Ge1 2.024014 1_556
C8 F0 1.310319 1_555
C9 F1 1.310319 1_555
C10 F2 1.310319 1_555
C10 C2 1.330574 1_555
C11 F3 1.310319 1_565
C11 C3 1.330565 1_455
C12 F4 1.310319 1_555
C12 C4 1.330557 1_555
C13 F5 1.310319 1_555
C13 C5 1.330565 1_555
C14 F6 1.310319 1_455
C14 C6 1.330565 1_555
C15 F7 1.310319 1_555
C15 C7 1.330557 1_565
C16 F14 1.319015 1_555
C17 F15 1.319020 1_555
C18 F12 1.319015 1_555
C19 F13 1.319015 1_555
C20 F11 1.319020 1_555
C21 F10 1.319015 1_555
C22 F9 1.319026 1_555
C23 F8 1.319020 1_555
C24 F21 1.370617 1_555
C25 F20 1.370611 1_555
C26 F23 1.370611 1_555
C27 F22 1.370617 1_555
C28 F16 1.370608 1_555
C29 F17 1.370608 1_555
C30 F18 1.370608 1_555
C31 F19 1.370608 1_555
C32 F24 1.368916 1_555
C33 F25 1.368916 1_555
C34 F26 1.368916 1_555
C35 F27 1.368916 1_555
C36 F28 1.368916 1_555
C37 F29 1.368916 1_555
C38 F30 1.368916 1_555
C39 F31 1.368916 1_555
C40 F32 1.375025 1_555
C41 F33 1.375025 1_555
C42 F34 1.375025 1_555
C43 F35 1.375025 1_555
C44 F36 1.375025 1_555
C45 F37 1.375025 1_555
C45 C5 1.449465 1_555
C46 F38 1.375025 1_555
C46 C6 1.449465 1_556
C47 F39 1.375025 1_555
C47 C7 1.449461 1_554
