# generated using pymatgen
data_Sr2HoMoO6
_symmetry_space_group_name_H-M   'P 1'
_cell_length_a   5.83566644
_cell_length_b   5.88605600
_cell_length_c   8.33335195
_cell_angle_alpha   90.00000000
_cell_angle_beta   90.52104922
_cell_angle_gamma   90.00000000
_symmetry_Int_Tables_number   1
_chemical_formula_structural   Sr2HoMoO6
_chemical_formula_sum   'Sr4 Ho2 Mo2 O12'
_cell_volume   286.23096516
_cell_formula_units_Z   2
loop_
 _symmetry_equiv_pos_site_id
 _symmetry_equiv_pos_as_xyz
  1  'x, y, z'
loop_
 _atom_site_type_symbol
 _atom_site_label
 _atom_site_symmetry_multiplicity
 _atom_site_fract_x
 _atom_site_fract_y
 _atom_site_fract_z
 _atom_site_occupancy
  Sr  Sr0  1  0.49527800  0.53361700  0.25185800  1
  Sr  Sr1  1  0.99527800  0.96638300  0.75185800  1
  Sr  Sr2  1  0.50472200  0.46638300  0.74814200  1
  Sr  Sr3  1  0.00472200  0.03361700  0.24814200  1
  Ho  Ho0  1  0.00000000  0.50000000  0.50000000  1
  Ho  Ho1  1  0.50000000  0.00000000  0.00000000  1
  Mo  Mo0  1  0.50000000  0.00000000  0.50000000  1
  Mo  Mo1  1  0.00000000  0.50000000  0.00000000  1
  O  O0  1  0.23069800  0.80577800  0.46437800  1
  O  O1  1  0.73069800  0.69422200  0.96437800  1
  O  O2  1  0.76930200  0.19422200  0.53562200  1
  O  O3  1  0.26930200  0.30577800  0.03562200  1
  O  O4  1  0.19903000  0.77840800  0.04303600  1
  O  O5  1  0.69903000  0.72159200  0.54303600  1
  O  O6  1  0.80097000  0.22159200  0.95696400  1
  O  O7  1  0.30097000  0.27840800  0.45696400  1
  O  O8  1  0.57686500  0.98067100  0.26240600  1
  O  O9  1  0.07686500  0.51932900  0.76240600  1
  O  O10  1  0.42313500  0.01932900  0.73759400  1
  O  O11  1  0.92313500  0.48067100  0.23759400  1
loop_
_geom_bond_atom_site_label_1
_geom_bond_atom_site_label_2
_geom_bond_distance
_geom_bond_site_symmetry_2
Ho0 O5 2.219478 1_455
Ho0 O7 2.219478 1_555
Ho0 O9 2.231157 1_555
Ho0 O11 2.231157 1_455
Ho0 O2 2.268750 1_455
Ho0 O0 2.268750 1_555
Ho1 O4 2.219478 1_545
Ho1 O6 2.219478 1_554
Ho1 O8 2.231157 1_545
Ho1 O10 2.231157 1_554
Ho1 O1 2.268750 1_544
Ho1 O3 2.268750 1_555
Mo0 O0 1.963755 1_545
Mo0 O2 1.963755 1_555
Mo0 O10 2.037283 1_555
Mo0 O8 2.037283 1_545
Mo0 O5 2.038500 1_545
Mo0 O7 2.038500 1_555
Mo1 O3 1.963755 1_555
Mo1 O1 1.963755 1_454
Mo1 O9 2.037283 1_554
Mo1 O11 2.037283 1_455
Mo1 O4 2.038500 1_555
Mo1 O6 2.038500 1_454
O0 Sr3 2.596417 1_565
O0 Sr0 2.852435 1_555
O0 Sr1 2.929193 1_455
O1 Sr2 2.596417 1_555
O1 Sr1 2.852435 1_555
O1 Sr0 2.929193 1_556
O2 Sr1 2.596417 1_545
O2 Sr2 2.852435 1_555
O2 Sr3 2.929193 1_655
O3 Sr0 2.596417 1_555
O3 Sr3 2.852435 1_555
O3 Sr2 2.929193 1_554
O4 Sr3 2.549310 1_565
O4 Sr0 2.835200 1_555
O4 Sr1 2.910902 1_454
O5 Sr2 2.549310 1_555
O5 Sr1 2.835200 1_555
O5 Sr0 2.910902 1_555
O6 Sr1 2.549310 1_545
O6 Sr2 2.835200 1_555
O6 Sr3 2.910902 1_656
O7 Sr0 2.549310 1_555
O7 Sr3 2.835200 1_555
O7 Sr2 2.910902 1_555
O8 Sr3 2.520082 1_665
O8 Sr0 2.675413 1_555
O9 Sr2 2.520082 1_555
O9 Sr1 2.675413 1_455
O10 Sr1 2.520082 1_445
O10 Sr2 2.675413 1_555
O11 Sr0 2.520082 1_555
O11 Sr3 2.675413 1_655
