# generated using pymatgen
data_Zn2InCuS4
_symmetry_space_group_name_H-M   'P 1'
_cell_length_a   6.75085379
_cell_length_b   6.75085379
_cell_length_c   6.75085379
_cell_angle_alpha   131.83685751
_cell_angle_beta   131.83685751
_cell_angle_gamma   70.48681507
_symmetry_Int_Tables_number   1
_chemical_formula_structural   Zn2InCuS4
_chemical_formula_sum   'Zn2 In1 Cu1 S4'
_cell_volume   167.34071493
_cell_formula_units_Z   1
loop_
 _symmetry_equiv_pos_site_id
 _symmetry_equiv_pos_as_xyz
  1  'x, y, z'
loop_
 _atom_site_type_symbol
 _atom_site_label
 _atom_site_symmetry_multiplicity
 _atom_site_fract_x
 _atom_site_fract_y
 _atom_site_fract_z
 _atom_site_occupancy
  Zn  Zn0  1  0.75000000  0.25000000  0.50000000  1
  Zn  Zn1  1  0.25000000  0.75000000  0.50000000  1
  In  In0  1  0.50000000  0.50000000  0.00000000  1
  Cu  Cu0  1  0.00000000  0.00000000  0.00000000  1
  S  S0  1  0.36438500  0.36438500  0.47158200  1
  S  S1  1  0.10719700  0.63561500  0.00000000  1
  S  S2  1  0.89280300  0.89280300  0.52841800  1
  S  S3  1  0.63561500  0.10719700  0.00000000  1
loop_
_geom_bond_atom_site_label_1
_geom_bond_atom_site_label_2
_geom_bond_distance
_geom_bond_site_symmetry_2
In0 S1 2.499628 1_555
In0 S3 2.499628 1_555
In0 S2 2.499628 1_555
In0 S0 2.499628 1_554
Cu0 S3 2.320694 1_455
Cu0 S2 2.320694 1_444
Cu0 S1 2.320694 1_545
Cu0 S0 2.320694 1_555
S0 Zn0 2.366089 1_555
S0 Zn1 2.366089 1_555
S1 Zn1 2.366089 1_555
S1 Zn0 2.366089 1_454
S2 Zn0 2.366089 1_565
S2 Zn1 2.366089 1_655
S3 Zn1 2.366089 1_544
S3 Zn0 2.366089 1_555
