# generated using pymatgen
data_Rb2MgCl4
_symmetry_space_group_name_H-M   'P 1'
_cell_length_a   4.98979046
_cell_length_b   4.98979046
_cell_length_c   8.83986239
_cell_angle_alpha   106.39348080
_cell_angle_beta   106.39348080
_cell_angle_gamma   90.00000000
_symmetry_Int_Tables_number   1
_chemical_formula_structural   Rb2MgCl4
_chemical_formula_sum   'Rb2 Mg1 Cl4'
_cell_volume   201.80318883
_cell_formula_units_Z   1
loop_
 _symmetry_equiv_pos_site_id
 _symmetry_equiv_pos_as_xyz
  1  'x, y, z'
loop_
 _atom_site_type_symbol
 _atom_site_label
 _atom_site_symmetry_multiplicity
 _atom_site_fract_x
 _atom_site_fract_y
 _atom_site_fract_z
 _atom_site_occupancy
  Rb  Rb0  1  0.35697926  0.35697926  0.71395752  1
  Rb  Rb1  1  0.64302074  0.64302074  0.28604248  1
  Mg  Mg0  1  0.00000000  -0.00000000  -0.00000000  1
  Cl  Cl0  1  0.15486416  0.15486416  0.30972831  1
  Cl  Cl1  1  0.84513584  0.84513584  0.69027169  1
  Cl  Cl2  1  0.00000000  0.50000000  0.00000000  1
  Cl  Cl3  1  0.50000000  -0.00000000  0.00000000  1
loop_
_geom_bond_atom_site_label_1
_geom_bond_atom_site_label_2
_geom_bond_distance
_geom_bond_site_symmetry_2
Cl0 Mg0 2.510408 1_555
Cl0 Rb0 3.276356 1_555
Cl0 Rb1 3.533530 1_555
Cl0 Rb1 3.533534 1_545
Cl0 Rb1 3.533534 1_455
Cl0 Rb1 3.533537 1_445
Cl1 Mg0 2.510408 1_666
Cl1 Rb1 3.276356 1_555
Cl1 Rb0 3.533530 1_555
Cl1 Rb0 3.533534 1_655
Cl1 Rb0 3.533534 1_565
Cl1 Rb0 3.533537 1_665
Cl2 Mg0 2.494895 1_565
Cl2 Mg0 2.494895 1_555
Cl2 Rb1 3.405820 1_555
Cl2 Rb0 3.405820 1_454
Cl2 Rb0 3.405823 1_554
Cl2 Rb1 3.405823 1_455
Cl3 Mg0 2.494895 1_555
Cl3 Mg0 2.494895 1_655
Cl3 Rb1 3.405820 1_555
Cl3 Rb0 3.405820 1_544
Cl3 Rb0 3.405823 1_554
Cl3 Rb1 3.405823 1_545
