# generated using pymatgen
data_Rb11Cu18(Cl15O)2
_symmetry_space_group_name_H-M   'P 1'
_cell_length_a   13.79875115
_cell_length_b   13.79875115
_cell_length_c   12.80381091
_cell_angle_alpha   64.36396851
_cell_angle_beta   64.36396851
_cell_angle_gamma   48.54087857
_symmetry_Int_Tables_number   1
_chemical_formula_structural   Rb11Cu18(Cl15O)2
_chemical_formula_sum   'Rb11 Cu18 Cl30 O2'
_cell_volume   1608.16653081
_cell_formula_units_Z   1
loop_
 _symmetry_equiv_pos_site_id
 _symmetry_equiv_pos_as_xyz
  1  'x, y, z'
loop_
 _atom_site_type_symbol
 _atom_site_label
 _atom_site_symmetry_multiplicity
 _atom_site_fract_x
 _atom_site_fract_y
 _atom_site_fract_z
 _atom_site_occupancy
  Rb  Rb0  1  0.00000000  0.00000000  0.00000000  1
  Rb  Rb1  1  0.74997400  0.74997400  0.07062900  1
  Rb  Rb2  1  0.25002600  0.25002600  0.92937100  1
  Rb  Rb3  1  0.62827400  0.24430900  0.80331300  1
  Rb  Rb4  1  0.24430900  0.62827400  0.80331300  1
  Rb  Rb5  1  0.37172600  0.75569100  0.19668700  1
  Rb  Rb6  1  0.75569100  0.37172600  0.19668700  1
  Rb  Rb7  1  0.83503100  0.44306900  0.47606100  1
  Rb  Rb8  1  0.44306900  0.83503100  0.47606100  1
  Rb  Rb9  1  0.16496900  0.55693100  0.52393900  1
  Rb  Rb10  1  0.55693100  0.16496900  0.52393900  1
  Cu  Cu0  1  0.00000000  0.00000000  0.50000000  1
  Cu  Cu1  1  0.52340700  0.52340700  0.88857200  1
  Cu  Cu2  1  0.47659300  0.47659300  0.11142800  1
  Cu  Cu3  1  0.82253900  0.82253900  0.74568600  1
  Cu  Cu4  1  0.17746100  0.17746100  0.25431400  1
  Cu  Cu5  1  0.04972600  0.04972600  0.64766800  1
  Cu  Cu6  1  0.95027400  0.95027400  0.35233200  1
  Cu  Cu7  1  0.76013000  0.76013000  0.55499100  1
  Cu  Cu8  1  0.23987000  0.23987000  0.44500900  1
  Cu  Cu9  1  0.29747400  0.00578800  0.75269900  1
  Cu  Cu10  1  0.00578800  0.29747400  0.75269900  1
  Cu  Cu11  1  0.70252600  0.99421200  0.24730100  1
  Cu  Cu12  1  0.99421200  0.70252600  0.24730100  1
  Cu  Cu13  1  0.52722100  0.85562500  0.85217900  1
  Cu  Cu14  1  0.85562500  0.52722100  0.85217900  1
  Cu  Cu15  1  0.47277900  0.14437500  0.14782100  1
  Cu  Cu16  1  0.14437500  0.47277900  0.14782100  1
  Cu  Cu17  1  0.50000000  0.50000000  0.50000000  1
  Cl  Cl0  1  0.85803600  0.85803600  0.53772200  1
  Cl  Cl1  1  0.14196400  0.14196400  0.46227800  1
  Cl  Cl2  1  0.54757100  0.54757100  0.69480300  1
  Cl  Cl3  1  0.45242900  0.45242900  0.30519700  1
  Cl  Cl4  1  0.62326100  0.62326100  0.30918200  1
  Cl  Cl5  1  0.37673900  0.37673900  0.69081800  1
  Cl  Cl6  1  0.22209900  0.22209900  0.64219600  1
  Cl  Cl7  1  0.77790100  0.77790100  0.35780400  1
  Cl  Cl8  1  0.65103900  0.65103900  0.96885800  1
  Cl  Cl9  1  0.34896100  0.34896100  0.03114200  1
  Cl  Cl10  1  0.94775700  0.94775700  0.69032400  1
  Cl  Cl11  1  0.05224300  0.05224300  0.30967600  1
  Cl  Cl12  1  0.69432500  0.30567500  0.50000000  1
  Cl  Cl13  1  0.30567500  0.69432500  0.50000000  1
  Cl  Cl14  1  0.22845200  0.89852500  0.74285200  1
  Cl  Cl15  1  0.89852500  0.22845200  0.74285200  1
  Cl  Cl16  1  0.77154800  0.10147500  0.25714800  1
  Cl  Cl17  1  0.10147500  0.77154800  0.25714800  1
  Cl  Cl18  1  0.30166100  0.97561900  0.94198300  1
  Cl  Cl19  1  0.97561900  0.30166100  0.94198300  1
  Cl  Cl20  1  0.69833900  0.02438100  0.05801700  1
  Cl  Cl21  1  0.02438100  0.69833900  0.05801700  1
  Cl  Cl22  1  0.61426300  0.97530400  0.82460900  1
  Cl  Cl23  1  0.97530400  0.61426300  0.82460900  1
  Cl  Cl24  1  0.38573700  0.02469600  0.17539100  1
  Cl  Cl25  1  0.02469600  0.38573700  0.17539100  1
  Cl  Cl26  1  0.54084500  0.87494300  0.65547100  1
  Cl  Cl27  1  0.87494300  0.54084500  0.65547100  1
  Cl  Cl28  1  0.45915500  0.12505700  0.34452900  1
  Cl  Cl29  1  0.12505700  0.45915500  0.34452900  1
  O  O0  1  0.38328100  0.61671900  0.00000000  1
  O  O1  1  0.61671900  0.38328100  0.00000000  1
loop_
_geom_bond_atom_site_label_1
_geom_bond_atom_site_label_2
_geom_bond_distance
_geom_bond_site_symmetry_2
Cu1 O1 1.826980 1_556
Cu1 O0 1.826980 1_556
Cu2 O0 1.826980 1_555
Cu2 O1 1.826980 1_555
Cl0 Cu7 2.366228 1_555
Cl0 Cu3 2.372874 1_555
Cl0 Cu6 2.406436 1_555
Cl0 Rb10 3.452240 1_565
Cl0 Rb9 3.452240 1_655
Cl1 Cu8 2.366228 1_555
Cl1 Cu4 2.372874 1_555
Cl1 Cu5 2.406436 1_555
Cl1 Rb8 3.452240 1_545
Cl1 Rb7 3.452240 1_455
Cl2 Cu1 2.256814 1_555
Cl2 Rb4 3.289208 1_555
Cl2 Rb3 3.289208 1_555
Cl2 Rb8 3.459039 1_555
Cl2 Rb7 3.459039 1_555
Cl3 Cu2 2.256814 1_555
Cl3 Rb6 3.289208 1_555
Cl3 Rb5 3.289208 1_555
Cl3 Rb10 3.459039 1_555
Cl3 Rb9 3.459039 1_555
Cl4 Cu17 2.897255 1_555
Cl4 Rb1 3.201484 1_555
Cl4 Rb8 3.235942 1_555
Cl4 Rb7 3.235942 1_555
Cl4 Rb6 3.333259 1_555
Cl4 Rb5 3.333259 1_555
Cl5 Cu17 2.897255 1_555
Cl5 Rb2 3.201484 1_555
Cl5 Rb10 3.235942 1_555
Cl5 Rb9 3.235942 1_555
Cl5 Rb4 3.333259 1_555
Cl5 Rb3 3.333259 1_555
Cl6 Cu10 2.345423 1_555
Cl6 Cu9 2.345423 1_555
Cl6 Cu8 2.345801 1_555
Cl6 Rb10 3.797018 1_555
Cl6 Rb9 3.797018 1_555
Cl7 Cu12 2.345423 1_555
Cl7 Cu11 2.345423 1_555
Cl7 Cu7 2.345801 1_555
Cl7 Rb8 3.797018 1_555
Cl7 Rb7 3.797018 1_555
Cl8 Cu14 2.300633 1_555
Cl8 Cu13 2.300633 1_555
Cl8 Rb1 3.312380 1_556
Cl8 Rb5 3.463510 1_556
Cl8 Rb6 3.463510 1_556
Cl9 Cu15 2.300633 1_555
Cl9 Cu16 2.300633 1_555
Cl9 Rb2 3.312380 1_554
Cl9 Rb4 3.463510 1_554
Cl9 Rb3 3.463510 1_554
Cl10 Cu0 2.150736 1_665
Cl10 Cu5 2.355733 1_665
Cl10 Cu3 2.882198 1_555
Cl10 Rb4 3.740140 1_655
Cl10 Rb3 3.740140 1_565
Cl11 Cu0 2.150736 1_555
Cl11 Cu6 2.355733 1_445
Cl11 Cu4 2.882198 1_555
Cl11 Rb5 3.740140 1_545
Cl11 Rb6 3.740140 1_455
Cl12 Cu17 2.204382 1_555
Cl12 Rb7 3.363683 1_555
Cl12 Rb10 3.363683 1_555
Cl12 Rb3 3.426859 1_555
Cl12 Rb6 3.426859 1_555
Cl13 Cu17 2.204382 1_555
Cl13 Rb8 3.363683 1_555
Cl13 Rb9 3.363683 1_555
Cl13 Rb4 3.426859 1_555
Cl13 Rb5 3.426859 1_555
Cl14 Cu9 2.290349 1_565
Cl14 Cu5 2.346806 1_565
Cl14 Rb4 3.334913 1_555
Cl14 Rb8 3.406886 1_555
Cl14 Rb0 3.449877 1_566
Cl15 Cu10 2.290349 1_655
Cl15 Cu5 2.346806 1_655
Cl15 Rb3 3.334913 1_555
Cl15 Rb7 3.406886 1_555
Cl15 Rb0 3.449877 1_656
Cl16 Cu11 2.290349 1_545
Cl16 Cu6 2.346806 1_545
Cl16 Rb6 3.334913 1_555
Cl16 Rb10 3.406886 1_555
Cl16 Rb0 3.449877 1_655
Cl17 Cu12 2.290349 1_455
Cl17 Cu6 2.346806 1_455
Cl17 Rb5 3.334913 1_555
Cl17 Rb9 3.406886 1_555
Cl17 Rb0 3.449877 1_565
Cl18 Cu9 2.294899 1_565
Cl18 Cu13 2.340422 1_555
Cl18 Rb2 3.296841 1_565
Cl18 Rb5 3.325506 1_556
Cl18 Rb0 3.698385 1_566
Cl19 Cu10 2.294899 1_655
Cl19 Cu14 2.340422 1_555
Cl19 Rb2 3.296841 1_655
Cl19 Rb6 3.325506 1_556
Cl19 Rb0 3.698385 1_656
Cl20 Cu11 2.294899 1_545
Cl20 Cu15 2.340422 1_555
Cl20 Rb1 3.296841 1_545
Cl20 Rb3 3.325506 1_554
Cl20 Rb0 3.698385 1_655
Cl21 Cu12 2.294899 1_455
Cl21 Cu16 2.340422 1_555
Cl21 Rb1 3.296841 1_455
Cl21 Rb4 3.325506 1_554
Cl21 Rb0 3.698385 1_565
Cl22 Cu3 2.243299 1_555
Cl22 Cu13 2.459578 1_555
Cl22 Rb1 3.466421 1_556
Cl22 Rb10 3.670309 1_565
Cl22 Rb3 3.730823 1_565
Cl22 Rb2 3.842870 1_565
Cl23 Cu3 2.243299 1_555
Cl23 Cu14 2.459578 1_555
Cl23 Rb1 3.466421 1_556
Cl23 Rb9 3.670309 1_655
Cl23 Rb4 3.730823 1_655
Cl23 Rb2 3.842870 1_655
Cl24 Cu4 2.243299 1_555
Cl24 Cu15 2.459578 1_555
Cl24 Rb2 3.466421 1_554
Cl24 Rb8 3.670309 1_545
Cl24 Rb5 3.730823 1_545
Cl24 Rb1 3.842870 1_545
Cl25 Cu4 2.243299 1_555
Cl25 Cu16 2.459578 1_555
Cl25 Rb2 3.466421 1_554
Cl25 Rb7 3.670309 1_455
Cl25 Rb6 3.730823 1_455
Cl25 Rb1 3.842870 1_455
Cl26 Cu7 2.316953 1_555
Cl26 Cu13 2.350641 1_555
Cl26 Cu9 2.527014 1_565
Cl26 Rb8 3.487243 1_555
Cl26 Rb10 3.731259 1_565
Cl27 Cu7 2.316953 1_555
Cl27 Cu14 2.350641 1_555
Cl27 Cu10 2.527014 1_655
Cl27 Rb7 3.487243 1_555
Cl27 Rb9 3.731259 1_655
Cl28 Cu8 2.316953 1_555
Cl28 Cu15 2.350641 1_555
Cl28 Cu11 2.527014 1_545
Cl28 Rb10 3.487243 1_555
Cl28 Rb8 3.731259 1_545
Cl29 Cu8 2.316953 1_555
Cl29 Cu16 2.350641 1_555
Cl29 Cu12 2.527014 1_455
Cl29 Rb9 3.487243 1_555
Cl29 Rb7 3.731259 1_455
