# generated using pymatgen
data_Mg14TiZn
_symmetry_space_group_name_H-M   'P 1'
_cell_length_a   6.31633543
_cell_length_b   6.27678461
_cell_length_c   10.07797072
_cell_angle_alpha   90.00000000
_cell_angle_beta   90.00000000
_cell_angle_gamma   119.79308610
_symmetry_Int_Tables_number   1
_chemical_formula_structural   Mg14TiZn
_chemical_formula_sum   'Mg14 Ti1 Zn1'
_cell_volume   346.74313310
_cell_formula_units_Z   1
loop_
 _symmetry_equiv_pos_site_id
 _symmetry_equiv_pos_as_xyz
  1  'x, y, z'
loop_
 _atom_site_type_symbol
 _atom_site_label
 _atom_site_symmetry_multiplicity
 _atom_site_fract_x
 _atom_site_fract_y
 _atom_site_fract_z
 _atom_site_occupancy
  Mg  Mg0  1  0.16706832  0.33353366  0.62500000  1
  Mg  Mg1  1  0.16822188  0.83411044  0.62500000  1
  Mg  Mg2  1  0.66444174  0.33704052  0.12500000  1
  Mg  Mg3  1  0.66531892  0.33168797  0.62500000  1
  Mg  Mg4  1  0.66444174  0.82740022  0.12500000  1
  Mg  Mg5  1  0.66531892  0.83362994  0.62500000  1
  Mg  Mg6  1  0.32880418  0.16294361  0.36628361  1
  Mg  Mg7  1  0.32880418  0.16294361  0.88371639  1
  Mg  Mg8  1  0.32880418  0.66586157  0.36628361  1
  Mg  Mg9  1  0.32880418  0.66586157  0.88371639  1
  Mg  Mg10  1  0.83787744  0.16893922  0.36835698  1
  Mg  Mg11  1  0.83787744  0.16893922  0.88164302  1
  Mg  Mg12  1  0.83943445  0.66971773  0.37248372  1
  Mg  Mg13  1  0.83943445  0.66971773  0.87751628  1
  Ti  Ti0  1  0.16135569  0.83067735  0.12500000  1
  Zn  Zn0  1  0.17399229  0.33699564  0.12500000  1
loop_
_geom_bond_atom_site_label_1
_geom_bond_atom_site_label_2
_geom_bond_distance
_geom_bond_site_symmetry_2
Mg0 Mg1 3.138399 1_555
Mg0 Mg1 3.138399 1_545
Mg0 Mg5 3.152890 1_555
Mg0 Mg3 3.152890 1_555
Mg0 Mg10 3.153684 1_455
Mg0 Mg11 3.153684 1_455
Mg0 Mg5 3.163477 1_445
Mg0 Mg3 3.163477 1_455
Mg0 Mg7 3.174170 1_555
Mg0 Mg6 3.174170 1_555
Mg0 Mg8 3.174176 1_555
Mg0 Mg9 3.174176 1_555
Mg1 Mg12 3.118388 1_455
Mg1 Mg13 3.118388 1_455
Mg1 Mg3 3.141331 1_565
Mg1 Mg5 3.141331 1_555
Mg1 Mg8 3.163338 1_555
Mg1 Mg9 3.163338 1_555
Mg1 Mg6 3.163344 1_565
Mg1 Mg7 3.163344 1_565
Mg1 Mg3 3.175006 1_455
Mg1 Mg5 3.175006 1_455
Mg2 Mg7 3.049475 1_554
Mg2 Mg6 3.049475 1_555
Mg2 Mg4 3.077882 1_555
Mg2 Zn0 3.097703 1_555
Mg2 Ti0 3.128505 1_655
Mg2 Ti0 3.187930 1_545
Mg2 Mg4 3.198902 1_545
Mg2 Zn0 3.218632 1_655
Mg3 Mg5 3.126203 1_545
Mg3 Mg5 3.150582 1_555
Mg3 Mg6 3.193862 1_555
Mg3 Mg7 3.193862 1_555
Mg4 Mg9 3.049475 1_554
Mg4 Mg8 3.049475 1_555
Mg4 Zn0 3.097703 1_555
Mg4 Ti0 3.128506 1_655
Mg4 Ti0 3.187931 1_555
Mg4 Zn0 3.218632 1_665
Mg5 Mg8 3.193862 1_555
Mg5 Mg9 3.193862 1_555
Mg6 Zn0 3.020632 1_555
Mg6 Ti0 3.031358 1_545
Mg6 Mg8 3.120077 1_545
Mg6 Mg8 3.156708 1_555
Mg7 Zn0 3.020632 1_556
Mg7 Ti0 3.031358 1_546
Mg7 Mg9 3.120077 1_545
Mg7 Mg9 3.156708 1_555
Mg8 Zn0 3.020638 1_555
Mg8 Ti0 3.031352 1_555
Mg9 Zn0 3.020638 1_556
Mg9 Ti0 3.031352 1_556
Mg10 Zn0 3.067480 1_655
Mg10 Mg2 3.078473 1_555
Mg10 Mg4 3.078480 1_545
Mg10 Mg8 3.119797 1_655
Mg10 Mg6 3.119798 1_655
Mg10 Mg12 3.138679 1_545
Mg10 Mg12 3.138679 1_555
Mg10 Mg3 3.166642 1_555
Mg10 Mg5 3.166648 1_545
Mg10 Mg8 3.197014 1_545
Mg10 Mg6 3.197014 1_555
Mg11 Zn0 3.067480 1_656
Mg11 Mg2 3.078473 1_556
Mg11 Mg4 3.078480 1_546
Mg11 Mg9 3.119797 1_655
Mg11 Mg7 3.119798 1_655
Mg11 Mg13 3.138679 1_545
Mg11 Mg13 3.138679 1_555
Mg11 Mg3 3.166642 1_555
Mg11 Mg5 3.166648 1_545
Mg11 Mg9 3.197014 1_545
Mg11 Mg7 3.197014 1_555
Mg12 Ti0 3.055246 1_655
Mg12 Mg4 3.083687 1_555
Mg12 Mg2 3.083693 1_555
Mg12 Mg6 3.103750 1_665
Mg12 Mg8 3.103750 1_655
Mg12 Mg5 3.141447 1_555
Mg12 Mg3 3.141453 1_555
Mg12 Mg6 3.213962 1_555
Mg12 Mg8 3.213962 1_555
Mg13 Ti0 3.055246 1_656
Mg13 Mg4 3.083687 1_556
Mg13 Mg2 3.083693 1_556
Mg13 Mg7 3.103750 1_665
Mg13 Mg9 3.103750 1_655
Mg13 Mg5 3.141447 1_555
Mg13 Mg3 3.141453 1_555
Mg13 Mg7 3.213962 1_555
Mg13 Mg9 3.213962 1_555
Ti0 Zn0 3.139157 1_565
Ti0 Zn0 3.139157 1_555
