# generated using pymatgen
data_Nb2CrB2
_symmetry_space_group_name_H-M   'P 1'
_cell_length_a   3.25624622
_cell_length_b   5.95410771
_cell_length_c   5.95410771
_cell_angle_alpha   90.00000000
_cell_angle_beta   90.00000000
_cell_angle_gamma   90.00000000
_symmetry_Int_Tables_number   1
_chemical_formula_structural   Nb2CrB2
_chemical_formula_sum   'Nb4 Cr2 B4'
_cell_volume   115.43848276
_cell_formula_units_Z   2
loop_
 _symmetry_equiv_pos_site_id
 _symmetry_equiv_pos_as_xyz
  1  'x, y, z'
loop_
 _atom_site_type_symbol
 _atom_site_label
 _atom_site_symmetry_multiplicity
 _atom_site_fract_x
 _atom_site_fract_y
 _atom_site_fract_z
 _atom_site_occupancy
  Nb  Nb0  1  0.50000000  0.18089206  0.68089206  1
  Nb  Nb1  1  0.50000000  0.81910794  0.31910794  1
  Nb  Nb2  1  0.50000000  0.31910794  0.18089206  1
  Nb  Nb3  1  0.50000000  0.68089206  0.81910794  1
  Cr  Cr0  1  -0.00000000  0.50000000  0.50000000  1
  Cr  Cr1  1  -0.00000000  0.00000000  -0.00000000  1
  B  B0  1  -0.00000000  0.60996016  0.10996016  1
  B  B1  1  0.00000000  0.39003984  0.89003984  1
  B  B2  1  0.00000000  0.89003984  0.60996016  1
  B  B3  1  -0.00000000  0.10996016  0.39003984  1
loop_
_geom_bond_atom_site_label_1
_geom_bond_atom_site_label_2
_geom_bond_distance
_geom_bond_site_symmetry_2
B0 B1 1.851813 1_554
B0 Nb1 2.398389 1_455
B0 Nb1 2.398389 1_555
B0 Cr0 2.412864 1_555
B0 Cr1 2.412864 1_565
B0 Nb2 2.414159 1_555
B0 Nb2 2.414159 1_455
B0 Nb3 2.414159 1_454
B0 Nb3 2.414159 1_554
B1 Nb0 2.398389 1_455
B1 Nb0 2.398389 1_555
B1 Cr0 2.412864 1_555
B1 Cr1 2.412864 1_556
B1 Nb2 2.414159 1_556
B1 Nb2 2.414159 1_456
B1 Nb3 2.414159 1_555
B1 Nb3 2.414159 1_455
B2 B3 1.851813 1_565
B2 Nb3 2.398389 1_455
B2 Nb3 2.398389 1_555
B2 Cr1 2.412864 1_566
B2 Cr0 2.412864 1_555
B2 Nb0 2.414159 1_465
B2 Nb1 2.414159 1_555
B2 Nb0 2.414159 1_565
B2 Nb1 2.414159 1_455
B3 Nb2 2.398389 1_455
B3 Nb2 2.398389 1_555
B3 Cr0 2.412864 1_555
B3 Cr1 2.412864 1_555
B3 Nb0 2.414159 1_555
B3 Nb1 2.414159 1_445
B3 Nb1 2.414159 1_545
B3 Nb0 2.414159 1_455
