# generated using pymatgen
data_La4InSbS9
_symmetry_space_group_name_H-M   'P 1'
_cell_length_a   10.36929100
_cell_length_b   10.36929100
_cell_length_c   28.44829700
_cell_angle_alpha   90.00000000
_cell_angle_beta   90.00000000
_cell_angle_gamma   90.00000000
_symmetry_Int_Tables_number   1
_chemical_formula_structural   La4InSbS9
_chemical_formula_sum   'La32 In8 Sb8 S72'
_cell_volume   3058.82336142
_cell_formula_units_Z   8
loop_
 _symmetry_equiv_pos_site_id
 _symmetry_equiv_pos_as_xyz
  1  'x, y, z'
loop_
 _atom_site_type_symbol
 _atom_site_label
 _atom_site_symmetry_multiplicity
 _atom_site_fract_x
 _atom_site_fract_y
 _atom_site_fract_z
 _atom_site_occupancy
  La  La0  1  0.72425200  0.05958400  0.66159000  1
  La  La1  1  0.27574800  0.94041600  0.16159000  1
  La  La2  1  0.55958400  0.77574800  0.41159000  1
  La  La3  1  0.44041600  0.22425200  0.91159000  1
  La  La4  1  0.94041600  0.27574800  0.83841000  1
  La  La5  1  0.05958400  0.72425200  0.33841000  1
  La  La6  1  0.77574800  0.55958400  0.58841000  1
  La  La7  1  0.22425200  0.44041600  0.08841000  1
  La  La8  1  0.98964600  0.35137300  0.69766800  1
  La  La9  1  0.01035400  0.64862700  0.19766800  1
  La  La10  1  0.85137300  0.51035400  0.44766800  1
  La  La11  1  0.14862700  0.48964600  0.94766800  1
  La  La12  1  0.64862700  0.01035400  0.80233200  1
  La  La13  1  0.35137300  0.98964600  0.30233200  1
  La  La14  1  0.51035400  0.85137300  0.55233200  1
  La  La15  1  0.48964600  0.14862700  0.05233200  1
  La  La16  1  0.99723600  0.23174000  0.55089700  1
  La  La17  1  0.00276400  0.76826000  0.05089700  1
  La  La18  1  0.73174000  0.50276400  0.30089700  1
  La  La19  1  0.26826000  0.49723600  0.80089700  1
  La  La20  1  0.76826000  0.00276400  0.94910300  1
  La  La21  1  0.23174000  0.99723600  0.44910300  1
  La  La22  1  0.50276400  0.73174000  0.69910300  1
  La  La23  1  0.49723600  0.26826000  0.19910300  1
  La  La24  1  0.55568100  0.22904600  0.40795500  1
  La  La25  1  0.44431900  0.77095400  0.90795500  1
  La  La26  1  0.72904600  0.94431900  0.15795500  1
  La  La27  1  0.27095400  0.05568100  0.65795500  1
  La  La28  1  0.77095400  0.44431900  0.09204500  1
  La  La29  1  0.22904600  0.55568100  0.59204500  1
  La  La30  1  0.94431900  0.72904600  0.84204500  1
  La  La31  1  0.05568100  0.27095400  0.34204500  1
  In  In0  1  0.51338100  0.29776200  0.54708600  1
  In  In1  1  0.48661900  0.70223800  0.04708600  1
  In  In2  1  0.79776200  0.98661900  0.29708600  1
  In  In3  1  0.20223800  0.01338100  0.79708600  1
  In  In4  1  0.70223800  0.48661900  0.95291400  1
  In  In5  1  0.29776200  0.51338100  0.45291400  1
  In  In6  1  0.98661900  0.79776200  0.70291400  1
  In  In7  1  0.01338100  0.20223800  0.20291400  1
  Sb  Sb0  1  0.86122100  0.00742900  0.44416100  1
  Sb  Sb1  1  0.13877900  0.99257100  0.94416100  1
  Sb  Sb2  1  0.50742900  0.63877900  0.19416100  1
  Sb  Sb3  1  0.49257100  0.36122100  0.69416100  1
  Sb  Sb4  1  0.99257100  0.13877900  0.05583900  1
  Sb  Sb5  1  0.00742900  0.86122100  0.55583900  1
  Sb  Sb6  1  0.63877900  0.50742900  0.80583900  1
  Sb  Sb7  1  0.36122100  0.49257100  0.30583900  1
  S  S0  1  0.82421800  0.00904700  0.53788200  1
  S  S1  1  0.17578200  0.99095300  0.03788200  1
  S  S2  1  0.50904700  0.67578200  0.28788200  1
  S  S3  1  0.49095300  0.32421800  0.78788200  1
  S  S4  1  0.99095300  0.17578200  0.96211800  1
  S  S5  1  0.00904700  0.82421800  0.46211800  1
  S  S6  1  0.67578200  0.50904700  0.71211800  1
  S  S7  1  0.32421800  0.49095300  0.21211800  1
  S  S8  1  0.51845300  0.31416100  0.29994000  1
  S  S9  1  0.48154700  0.68583900  0.79994000  1
  S  S10  1  0.81416100  0.98154700  0.04994000  1
  S  S11  1  0.18583900  0.01845300  0.54994000  1
  S  S12  1  0.68583900  0.48154700  0.20006000  1
  S  S13  1  0.31416100  0.51845300  0.70006000  1
  S  S14  1  0.98154700  0.81416100  0.95006000  1
  S  S15  1  0.01845300  0.18583900  0.45006000  1
  S  S16  1  0.50564500  0.48612300  0.60266800  1
  S  S17  1  0.49435500  0.51387700  0.10266800  1
  S  S18  1  0.98612300  0.99435500  0.35266800  1
  S  S19  1  0.01387700  0.00564500  0.85266800  1
  S  S20  1  0.51387700  0.49435500  0.89733200  1
  S  S21  1  0.48612300  0.50564500  0.39733200  1
  S  S22  1  0.99435500  0.98612300  0.64733200  1
  S  S23  1  0.00564500  0.01387700  0.14733200  1
  S  S24  1  0.50217400  0.10455200  0.59908600  1
  S  S25  1  0.49782600  0.89544800  0.09908600  1
  S  S26  1  0.60455200  0.99782600  0.34908600  1
  S  S27  1  0.39544800  0.00217400  0.84908600  1
  S  S28  1  0.89544800  0.49782600  0.90091400  1
  S  S29  1  0.10455200  0.50217400  0.40091400  1
  S  S30  1  0.99782600  0.60455200  0.65091400  1
  S  S31  1  0.00217400  0.39544800  0.15091400  1
  S  S32  1  0.19016100  0.80983900  0.75000000  1
  S  S33  1  0.80983900  0.19016100  0.25000000  1
  S  S34  1  0.30983900  0.30983900  0.50000000  1
  S  S35  1  0.69016100  0.69016100  0.00000000  1
  S  S36  1  0.70597400  0.30610500  0.49586200  1
  S  S37  1  0.29402600  0.69389500  0.99586200  1
  S  S38  1  0.80610500  0.79402600  0.24586200  1
  S  S39  1  0.19389500  0.20597400  0.74586200  1
  S  S40  1  0.69389500  0.29402600  0.00413800  1
  S  S41  1  0.30610500  0.70597400  0.50413800  1
  S  S42  1  0.79402600  0.80610500  0.75413800  1
  S  S43  1  0.20597400  0.19389500  0.25413800  1
  S  S44  1  0.50298700  0.00213900  0.46784800  1
  S  S45  1  0.49701300  0.99786100  0.96784800  1
  S  S46  1  0.50213900  0.99701300  0.21784800  1
  S  S47  1  0.49786100  0.00298700  0.71784800  1
  S  S48  1  0.99786100  0.49701300  0.03215200  1
  S  S49  1  0.00213900  0.50298700  0.53215200  1
  S  S50  1  0.99701300  0.50213900  0.78215200  1
  S  S51  1  0.00298700  0.49786100  0.28215200  1
  S  S52  1  0.79746800  0.32539800  0.37368700  1
  S  S53  1  0.20253200  0.67460200  0.87368700  1
  S  S54  1  0.82539800  0.70253200  0.12368700  1
  S  S55  1  0.17460200  0.29746800  0.62368700  1
  S  S56  1  0.67460200  0.20253200  0.12631300  1
  S  S57  1  0.32539800  0.79746800  0.62631300  1
  S  S58  1  0.70253200  0.82539800  0.87631300  1
  S  S59  1  0.29746800  0.17460200  0.37631300  1
  S  S60  1  0.81155600  0.29875400  0.62267400  1
  S  S61  1  0.18844400  0.70124600  0.12267400  1
  S  S62  1  0.79875400  0.68844400  0.37267400  1
  S  S63  1  0.20124600  0.31155600  0.87267400  1
  S  S64  1  0.70124600  0.18844400  0.87732600  1
  S  S65  1  0.29875400  0.81155600  0.37732600  1
  S  S66  1  0.68844400  0.79875400  0.62732600  1
  S  S67  1  0.31155600  0.20124600  0.12732600  1
  S  S68  1  0.81689000  0.18311000  0.75000000  1
  S  S69  1  0.18311000  0.81689000  0.25000000  1
  S  S70  1  0.68311000  0.68311000  0.50000000  1
  S  S71  1  0.31689000  0.31689000  0.00000000  1
loop_
_geom_bond_atom_site_label_1
_geom_bond_atom_site_label_2
_geom_bond_distance
_geom_bond_site_symmetry_2
La0 S60 2.862814 1_555
La0 S66 2.898791 1_545
La0 S47 2.901148 1_555
La0 S22 2.930720 1_545
La0 S24 2.946528 1_555
La0 S68 2.981472 1_555
La1 S61 2.862814 1_555
La1 S67 2.898791 1_565
La1 S46 2.901148 1_555
La1 S23 2.930720 1_565
La1 S25 2.946528 1_555
La1 S69 2.981472 1_555
La2 S62 2.862814 1_555
La2 S65 2.898791 1_555
La2 S44 2.901148 1_565
La2 S21 2.930720 1_555
La2 S26 2.946528 1_555
La2 S70 2.981472 1_555
La3 S63 2.862814 1_555
La3 S64 2.898791 1_555
La3 S45 2.901148 1_545
La3 S20 2.930720 1_555
La3 S27 2.946528 1_555
La3 S71 2.981472 1_556
La4 S64 2.862814 1_555
La4 S63 2.898791 1_655
La4 S50 2.901148 1_555
La4 S19 2.930720 1_655
La4 S28 2.946528 1_555
La4 S68 2.981472 1_555
La5 S65 2.862814 1_555
La5 S62 2.898791 1_455
La5 S51 2.901148 1_555
La5 S18 2.930720 1_455
La5 S29 2.946528 1_555
La5 S69 2.981472 1_555
La6 S66 2.862814 1_555
La6 S60 2.898791 1_555
La6 S49 2.901148 1_655
La6 S16 2.930720 1_555
La6 S30 2.946528 1_555
La6 S70 2.981472 1_555
La7 S67 2.862814 1_555
La7 S61 2.898791 1_555
La7 S48 2.901148 1_455
La7 S17 2.930720 1_555
La7 S31 2.946528 1_555
La7 S71 2.981472 1_555
La8 S50 2.868155 1_555
La8 S60 2.873934 1_555
La8 S55 2.901743 1_655
La8 S68 2.910253 1_555
La8 S39 2.939121 1_655
La8 S30 2.944217 1_555
La9 S51 2.868155 1_555
La9 S61 2.873934 1_555
La9 S54 2.901743 1_455
La9 S69 2.910253 1_555
La9 S38 2.939121 1_455
La9 S31 2.944217 1_555
La10 S49 2.868155 1_655
La10 S62 2.873934 1_555
La10 S52 2.901743 1_555
La10 S70 2.910253 1_555
La10 S36 2.939121 1_555
La10 S29 2.944217 1_655
La11 S48 2.868155 1_456
La11 S63 2.873934 1_555
La11 S53 2.901743 1_555
La11 S71 2.910253 1_556
La11 S37 2.939121 1_555
La11 S28 2.944217 1_455
La12 S47 2.868155 1_555
La12 S64 2.873934 1_555
La12 S58 2.901743 1_545
La12 S68 2.910253 1_555
La12 S42 2.939121 1_545
La12 S27 2.944217 1_555
La13 S46 2.868155 1_555
La13 S65 2.873934 1_555
La13 S59 2.901743 1_565
La13 S69 2.910253 1_555
La13 S43 2.939121 1_565
La13 S26 2.944217 1_555
La14 S44 2.868155 1_565
La14 S66 2.873934 1_555
La14 S57 2.901743 1_555
La14 S70 2.910253 1_555
La14 S41 2.939121 1_555
La14 S24 2.944217 1_565
La15 S45 2.868155 1_544
La15 S67 2.873934 1_555
La15 S56 2.901743 1_555
La15 S71 2.910253 1_555
La15 S40 2.939121 1_555
La15 S25 2.944217 1_545
La16 S55 2.852198 1_655
La16 S49 2.863196 1_655
La16 S60 2.891264 1_555
La16 S15 2.916169 1_655
La16 S0 2.947550 1_555
La16 S11 2.952415 1_655
La17 S54 2.852198 1_455
La17 S48 2.863196 1_455
La17 S61 2.891264 1_555
La17 S14 2.916169 1_454
La17 S1 2.947550 1_555
La17 S10 2.952415 1_455
La18 S52 2.852198 1_555
La18 S51 2.863196 1_655
La18 S62 2.891264 1_555
La18 S12 2.916169 1_555
La18 S2 2.947550 1_555
La18 S8 2.952415 1_555
La19 S53 2.852198 1_555
La19 S50 2.863196 1_455
La19 S63 2.891264 1_555
La19 S13 2.916169 1_555
La19 S3 2.947550 1_555
La19 S9 2.952415 1_555
La20 S58 2.852198 1_545
La20 S45 2.863196 1_545
La20 S64 2.891264 1_555
La20 S10 2.916169 1_546
La20 S4 2.947550 1_555
La20 S14 2.952415 1_545
La21 S59 2.852198 1_565
La21 S44 2.863196 1_565
La21 S65 2.891264 1_555
La21 S11 2.916169 1_565
La21 S5 2.947550 1_555
La21 S15 2.952415 1_565
La22 S57 2.852198 1_555
La22 S47 2.863196 1_565
La22 S66 2.891264 1_555
La22 S9 2.916169 1_555
La22 S6 2.947550 1_555
La22 S13 2.952415 1_555
La23 S56 2.852198 1_555
La23 S46 2.863196 1_545
La23 S67 2.891264 1_555
La23 S8 2.916169 1_555
La23 S7 2.947550 1_555
La23 S12 2.952415 1_555
La24 S52 2.869568 1_555
La24 S59 2.880613 1_555
La24 S44 2.955950 1_555
La24 S26 2.968152 1_545
La24 S21 2.972836 1_555
La24 S36 3.053066 1_555
La24 S8 3.220300 1_555
La25 S53 2.869568 1_555
La25 S58 2.880613 1_555
La25 S45 2.955950 1_555
La25 S27 2.968152 1_565
La25 S20 2.972836 1_555
La25 S37 3.053066 1_555
La25 S9 3.220300 1_555
La26 S54 2.869568 1_555
La26 S56 2.880613 1_565
La26 S46 2.955950 1_555
La26 S25 2.968152 1_555
La26 S23 2.972836 1_665
La26 S38 3.053066 1_555
La26 S10 3.220300 1_555
La27 S55 2.869568 1_555
La27 S57 2.880613 1_545
La27 S47 2.955950 1_555
La27 S24 2.968152 1_555
La27 S22 2.972836 1_445
La27 S39 3.053066 1_555
La27 S11 3.220300 1_555
La28 S56 2.869568 1_555
La28 S54 2.880613 1_555
La28 S48 2.955950 1_555
La28 S31 2.968152 1_655
La28 S17 2.972836 1_555
La28 S40 3.053066 1_555
La28 S12 3.220300 1_555
La29 S57 2.869568 1_555
La29 S55 2.880613 1_555
La29 S49 2.955950 1_555
La29 S30 2.968152 1_455
La29 S16 2.972836 1_555
La29 S41 3.053066 1_555
La29 S13 3.220300 1_555
La30 S58 2.869568 1_555
La30 S53 2.880613 1_655
La30 S50 2.955950 1_555
La30 S28 2.968152 1_555
La30 S19 2.972836 1_665
La30 S42 3.053066 1_555
La30 S14 3.220300 1_555
La31 S59 2.869568 1_555
La31 S52 2.880613 1_455
La31 S51 2.955950 1_555
La31 S29 2.968152 1_555
La31 S18 2.972836 1_445
La31 S43 3.053066 1_555
La31 S15 3.220300 1_555
In0 S36 2.473710 1_555
In0 S24 2.493127 1_555
In0 S34 2.502911 1_555
In0 S16 2.514268 1_555
In1 S37 2.473710 1_554
In1 S25 2.493127 1_555
In1 S35 2.502911 1_555
In1 S17 2.514268 1_555
In2 S38 2.473710 1_555
In2 S26 2.493127 1_555
In2 S33 2.502911 1_565
In2 S18 2.514268 1_555
In3 S39 2.473710 1_555
In3 S27 2.493127 1_555
In3 S32 2.502911 1_545
In3 S19 2.514268 1_555
In4 S40 2.473710 1_556
In4 S28 2.493127 1_555
In4 S35 2.502911 1_556
In4 S20 2.514268 1_555
In5 S41 2.473710 1_555
In5 S29 2.493127 1_555
In5 S34 2.502911 1_555
In5 S21 2.514268 1_555
In6 S42 2.473710 1_555
In6 S30 2.493127 1_555
In6 S32 2.502911 1_655
In6 S22 2.514268 1_555
In7 S43 2.473710 1_555
In7 S31 2.493127 1_555
In7 S33 2.502911 1_455
In7 S23 2.514268 1_555
S0 Sb5 2.493936 1_645
S0 Sb0 2.693722 1_555
S1 Sb4 2.493936 1_465
S1 Sb1 2.693722 1_554
S2 Sb7 2.493936 1_555
S2 Sb2 2.693722 1_555
S3 Sb6 2.493936 1_555
S3 Sb3 2.693722 1_555
S4 Sb1 2.493936 1_645
S4 Sb4 2.693722 1_556
S5 Sb0 2.493936 1_465
S5 Sb5 2.693722 1_555
S6 Sb3 2.493936 1_555
S6 Sb6 2.693722 1_555
S7 Sb2 2.493936 1_555
S7 Sb7 2.693722 1_555
S8 Sb7 2.471591 1_555
S9 Sb6 2.471591 1_555
S10 Sb4 2.471591 1_565
S11 Sb5 2.471591 1_545
S12 Sb2 2.471591 1_555
S13 Sb3 2.471591 1_555
S14 Sb1 2.471591 1_655
S15 Sb0 2.471591 1_455
S16 Sb3 2.910404 1_555
S17 Sb2 2.910404 1_555
S18 Sb0 2.910404 1_565
S19 Sb1 2.910404 1_545
S20 Sb6 2.910404 1_555
S21 Sb7 2.910404 1_555
S22 Sb5 2.910404 1_655
S23 Sb4 2.910404 1_455
