# generated using pymatgen
data_Fe5OF11
_symmetry_space_group_name_H-M   'P 1'
_cell_length_a   5.32271077
_cell_length_b   5.75608873
_cell_length_c   9.38088707
_cell_angle_alpha   107.20892362
_cell_angle_beta   91.04552462
_cell_angle_gamma   62.21266939
_symmetry_Int_Tables_number   1
_chemical_formula_structural   Fe5OF11
_chemical_formula_sum   'Fe5 O1 F11'
_cell_volume   240.43745710
_cell_formula_units_Z   1
loop_
 _symmetry_equiv_pos_site_id
 _symmetry_equiv_pos_as_xyz
  1  'x, y, z'
loop_
 _atom_site_type_symbol
 _atom_site_label
 _atom_site_symmetry_multiplicity
 _atom_site_fract_x
 _atom_site_fract_y
 _atom_site_fract_z
 _atom_site_occupancy
  Fe  Fe0  1  0.01846000  0.94116400  0.33309400  1
  Fe  Fe1  1  0.49144300  0.01630500  0.16554400  1
  Fe  Fe2  1  0.98446700  0.99349200  0.65965800  1
  Fe  Fe3  1  0.49344200  0.01868000  0.84188500  1
  Fe  Fe4  1  0.73891400  0.55898400  0.43466200  1
  O  O0  1  0.96561500  0.77107800  0.46566200  1
  F  F0  1  0.06406100  0.22167300  0.25106100  1
  F  F1  1  0.00749400  0.22324100  0.53644100  1
  F  F2  1  0.08029700  0.20679300  0.83651100  1
  F  F3  1  0.56813100  0.22341200  0.72581800  1
  F  F4  1  0.51453900  0.23955900  0.03246200  1
  F  F5  1  0.60462600  0.24603500  0.36051800  1
  F  F6  1  0.43734200  0.77716300  0.63267500  1
  F  F7  1  0.47581100  0.79167900  0.94890600  1
  F  F8  1  0.44382700  0.77136600  0.29927400  1
  F  F9  1  0.93033300  0.76616300  0.14968400  1
  F  F10  1  0.91400600  0.78317200  0.77059000  1
loop_
_geom_bond_atom_site_label_1
_geom_bond_atom_site_label_2
_geom_bond_distance
_geom_bond_site_symmetry_2
Fe0 O0 1.890536 1_455
Fe2 O0 1.922357 1_555
Fe4 O0 2.044916 1_555
F0 Fe1 2.052803 1_555
F0 Fe0 2.089401 1_545
F0 Fe4 2.174498 1_455
F1 Fe2 2.039798 1_445
F1 Fe0 2.088429 1_545
F1 Fe4 2.270718 1_455
F2 Fe3 1.954214 1_555
F2 Fe2 1.966666 1_445
F3 Fe2 1.969059 1_545
F3 Fe3 1.985991 1_555
F4 Fe3 1.898963 1_554
F4 Fe1 2.080212 1_555
F5 Fe0 2.036455 1_645
F5 Fe4 2.163465 1_555
F5 Fe1 2.174469 1_555
F6 Fe4 2.110242 1_555
F6 Fe2 2.112429 1_455
F6 Fe3 2.150525 1_565
F7 Fe3 1.902106 1_565
F7 Fe1 2.085205 1_566
F8 Fe0 1.990371 1_555
F8 Fe4 2.151777 1_555
F8 Fe1 2.239901 1_565
F9 Fe0 1.892246 1_655
F9 Fe1 2.074209 1_565
F10 Fe2 1.967797 1_555
F10 Fe3 1.996200 1_565
