# generated using pymatgen
data_Er6Co2Sn
_symmetry_space_group_name_H-M   'P 1'
_cell_length_a   8.27663667
_cell_length_b   8.27663611
_cell_length_c   8.27662983
_cell_angle_alpha   110.72923374
_cell_angle_beta   110.22589601
_cell_angle_gamma   107.47713966
_symmetry_Int_Tables_number   1
_chemical_formula_structural   Er6Co2Sn
_chemical_formula_sum   'Er12 Co4 Sn2'
_cell_volume   436.05150938
_cell_formula_units_Z   2
loop_
 _symmetry_equiv_pos_site_id
 _symmetry_equiv_pos_as_xyz
  1  'x, y, z'
loop_
 _atom_site_type_symbol
 _atom_site_label
 _atom_site_symmetry_multiplicity
 _atom_site_fract_x
 _atom_site_fract_y
 _atom_site_fract_z
 _atom_site_occupancy
  Er  Er0  1  0.31487406  0.61793038  0.30305501  1
  Er  Er1  1  0.68512474  0.38207048  0.69694473  1
  Er  Er2  1  0.31487330  0.01181820  0.69694462  1
  Er  Er3  1  0.68512236  0.98817920  0.30305390  1
  Er  Er4  1  0.44538129  0.23098487  0.21439892  1
  Er  Er5  1  0.55461532  0.76901407  0.78560034  1
  Er  Er6  1  0.01658618  0.23098703  0.78559988  1
  Er  Er7  1  0.98341468  0.76901754  0.21439753  1
  Er  Er8  1  0.18495736  0.28664659  0.47160417  1
  Er  Er9  1  0.81504257  0.71335138  0.52839310  1
  Er  Er10  1  0.18495804  0.71335340  0.89831070  1
  Er  Er11  1  0.81504160  0.28664885  0.10168990  1
  Co  Co0  1  0.11079473  0.61079172  0.50000494  1
  Co  Co1  1  0.88921420  0.38921198  0.50000183  1
  Co  Co2  1  0.38224402  -0.00000246  0.38224693  1
  Co  Co3  1  0.61775558  -0.00000188  0.61776009  1
  Sn  Sn0  1  0.50000164  0.49999988  -0.00000232  1
  Sn  Sn1  1  -0.00000066  0.00000176  0.99999372  1
loop_
_geom_bond_atom_site_label_1
_geom_bond_atom_site_label_2
_geom_bond_distance
_geom_bond_site_symmetry_2
Er0 Er5 3.308540 1_555
Er0 Er7 3.308546 1_455
Er0 Sn0 3.378547 1_555
Er0 Er11 3.548860 1_455
Er0 Er8 3.548862 1_555
Er0 Er10 3.590861 1_554
Er0 Er9 3.590877 1_555
Er0 Er4 3.595022 1_555
Er0 Er6 3.595028 1_554
Er1 Er6 3.308538 1_655
Er1 Er4 3.308541 1_555
Er1 Sn0 3.378487 1_556
Er1 Er9 3.548860 1_555
Er1 Er10 3.548867 1_655
Er1 Er11 3.590860 1_556
Er1 Er8 3.590862 1_555
Er1 Er5 3.595019 1_555
Er1 Er7 3.595024 1_556
Er2 Er5 3.308543 1_545
Er2 Er7 3.308547 1_445
Er2 Sn0 3.378520 1_556
Er2 Er9 3.548846 1_445
Er2 Er8 3.590870 1_555
Er2 Er4 3.595029 1_556
Er2 Er6 3.595032 1_555
Er3 Er6 3.308547 1_665
Er3 Er4 3.308547 1_565
Er3 Sn0 3.378519 1_555
Er3 Er8 3.548878 1_665
Er3 Er9 3.590870 1_555
Er3 Er5 3.595026 1_554
Er3 Er7 3.595035 1_555
Er4 Sn1 3.038887 1_554
Er4 Sn0 3.325330 1_555
Er4 Er9 3.445900 1_555
Er4 Er8 3.530546 1_555
Er5 Sn1 3.038909 1_665
Er5 Sn0 3.325291 1_556
Er5 Er8 3.445898 1_555
Er5 Er9 3.530583 1_555
Er6 Sn1 3.038869 1_555
Er6 Sn0 3.325322 1_556
Er6 Er8 3.445886 1_555
Er6 Er9 3.530594 1_445
Er7 Sn1 3.038929 1_664
Er7 Sn0 3.325308 1_555
Er7 Er9 3.445905 1_555
Er7 Er8 3.530548 1_665
Er8 Sn1 3.215501 1_554
Er8 Sn0 3.595249 1_556
Er9 Sn1 3.215446 1_665
Er9 Sn0 3.595260 1_555
Er10 Sn1 3.215475 1_565
Er10 Er6 3.445886 1_555
Er10 Er5 3.445896 1_555
Er10 Er9 3.502292 1_455
Er10 Er7 3.530553 1_456
Er10 Er4 3.530564 1_566
Er10 Er2 3.548845 1_565
Er10 Er3 3.590845 1_556
Er10 Sn0 3.595269 1_556
Er11 Sn1 3.215478 1_654
Er11 Er7 3.445911 1_555
Er11 Er4 3.445912 1_555
Er11 Er8 3.502298 1_655
Er11 Er6 3.530583 1_654
Er11 Er5 3.530586 1_544
Er11 Er3 3.548871 1_545
Er11 Er2 3.590870 1_554
Er11 Sn0 3.595236 1_555
Co0 Co1 2.169426 1_455
Co0 Er2 2.724999 1_565
Co0 Er0 2.725016 1_555
Co0 Er10 2.876105 1_555
Co0 Er8 2.876122 1_555
Co0 Er9 2.876140 1_455
Co0 Er11 2.876161 1_455
Co0 Er5 3.116298 1_555
Co0 Er7 3.116391 1_455
Co1 Er1 2.725038 1_555
Co1 Er3 2.725044 1_545
Co1 Er8 2.876114 1_655
Co1 Er10 2.876118 1_655
Co1 Er9 2.876129 1_555
Co1 Er11 2.876131 1_555
Co1 Er6 3.116310 1_655
Co1 Er4 3.116383 1_555
Co2 Co3 2.229785 1_555
Co2 Er7 2.764003 1_445
Co2 Er4 2.764050 1_555
Co2 Er0 2.821556 1_545
Co2 Er2 2.821563 1_555
Co2 Er3 2.821579 1_545
Co2 Er1 2.821593 1_555
Co2 Er8 3.280509 1_555
Co2 Er10 3.280512 1_544
Co3 Er5 2.763980 1_545
Co3 Er6 2.764035 1_655
Co3 Er2 2.821577 1_555
Co3 Er0 2.821585 1_545
Co3 Er1 2.821613 1_555
Co3 Er3 2.821618 1_545
Co3 Er11 3.280478 1_556
Co3 Er9 3.280508 1_545
