# generated using pymatgen
data_Li9Mn2Co5O16
_symmetry_space_group_name_H-M   'P 1'
_cell_length_a   5.01746871
_cell_length_b   9.80514205
_cell_length_c   5.90708600
_cell_angle_alpha   90.00000000
_cell_angle_beta   90.00000000
_cell_angle_gamma   100.29275974
_symmetry_Int_Tables_number   1
_chemical_formula_structural   Li9Mn2Co5O16
_chemical_formula_sum   'Li9 Mn2 Co5 O16'
_cell_volume   285.93425196
_cell_formula_units_Z   1
loop_
 _symmetry_equiv_pos_site_id
 _symmetry_equiv_pos_as_xyz
  1  'x, y, z'
loop_
 _atom_site_type_symbol
 _atom_site_label
 _atom_site_symmetry_multiplicity
 _atom_site_fract_x
 _atom_site_fract_y
 _atom_site_fract_z
 _atom_site_occupancy
  Li  Li0  1  0.24530800  0.24312200  0.25601500  1
  Li  Li1  1  0.75469200  0.75687800  0.25601500  1
  Li  Li2  1  0.75304300  0.24131500  0.50000000  1
  Li  Li3  1  0.24695700  0.75868500  0.50000000  1
  Li  Li4  1  0.24530800  0.24312200  0.74398500  1
  Li  Li5  1  0.75469200  0.75687800  0.74398500  1
  Li  Li6  1  0.74859500  0.24366500  0.00000000  1
  Li  Li7  1  0.25140500  0.75633500  0.00000000  1
  Li  Li8  1  0.00000000  0.00000000  0.50000000  1
  Mn  Mn0  1  0.00000000  0.00000000  0.00000000  1
  Mn  Mn1  1  0.50000000  0.50000000  0.50000000  1
  Co  Co0  1  0.50000000  0.50000000  0.00000000  1
  Co  Co1  1  0.50000000  0.00000000  0.26006500  1
  Co  Co2  1  0.00000000  0.50000000  0.24356100  1
  Co  Co3  1  0.50000000  0.00000000  0.73993500  1
  Co  Co4  1  0.00000000  0.50000000  0.75643900  1
  O  O0  1  0.86104800  0.11064700  0.23195400  1
  O  O1  1  0.37564200  0.61202700  0.26522900  1
  O  O2  1  0.39229700  0.11773400  0.50000000  1
  O  O3  1  0.85861800  0.61173800  0.50000000  1
  O  O4  1  0.86104800  0.11064700  0.76804600  1
  O  O5  1  0.37564200  0.61202700  0.73477100  1
  O  O6  1  0.35367800  0.11496000  0.00000000  1
  O  O7  1  0.88631700  0.61638100  0.00000000  1
  O  O8  1  0.62435800  0.38797300  0.26522900  1
  O  O9  1  0.13895200  0.88935300  0.23195400  1
  O  O10  1  0.14138200  0.38826200  0.50000000  1
  O  O11  1  0.60770300  0.88226600  0.50000000  1
  O  O12  1  0.62435800  0.38797300  0.73477100  1
  O  O13  1  0.13895200  0.88935300  0.76804600  1
  O  O14  1  0.11368300  0.38361900  0.00000000  1
  O  O15  1  0.64632200  0.88504000  0.00000000  1
loop_
_geom_bond_atom_site_label_1
_geom_bond_atom_site_label_2
_geom_bond_distance
_geom_bond_site_symmetry_2
Li0 O6 2.099061 1_555
Li0 O2 2.111082 1_555
Li0 O0 2.128314 1_455
Li0 O10 2.153957 1_555
Li0 O8 2.161480 1_555
Li0 O14 2.223984 1_555
Li1 O15 2.099061 1_555
Li1 O11 2.111082 1_555
Li1 O9 2.128314 1_655
Li1 O3 2.153957 1_555
Li1 O1 2.161480 1_555
Li1 O7 2.223984 1_555
Li2 O2 1.990157 1_555
Li2 O0 2.165725 1_555
Li2 O4 2.165725 1_555
Li2 O8 2.177106 1_555
Li2 O12 2.177106 1_555
Li2 O10 2.206655 1_655
Li3 O11 1.990157 1_555
Li3 O9 2.165725 1_555
Li3 O13 2.165725 1_555
Li3 O1 2.177106 1_555
Li3 O5 2.177106 1_555
Li3 O3 2.206655 1_455
Li4 O6 2.099061 1_556
Li4 O2 2.111082 1_555
Li4 O4 2.128314 1_455
Li4 O10 2.153957 1_555
Li4 O12 2.161480 1_555
Li4 O14 2.223984 1_556
Li5 O15 2.099061 1_556
Li5 O11 2.111082 1_555
Li5 O13 2.128314 1_655
Li5 O3 2.153957 1_555
Li5 O5 2.161480 1_555
Li5 O7 2.223984 1_556
Li6 O0 2.039559 1_555
Li6 O4 2.039559 1_554
Li6 O14 2.083357 1_655
Li6 O6 2.150640 1_555
Li6 O8 2.271679 1_555
Li6 O12 2.271679 1_554
Li7 O13 2.039559 1_554
Li7 O9 2.039559 1_555
Li7 O7 2.083357 1_455
Li7 O15 2.150640 1_555
Li7 O5 2.271679 1_554
Li7 O1 2.271679 1_555
Li8 O2 2.096423 1_555
Li8 O11 2.096423 1_445
Li8 O13 2.107240 1_545
Li8 O9 2.107240 1_545
Li8 O0 2.107240 1_455
Li8 O4 2.107240 1_455
Mn0 O15 1.924800 1_445
Mn0 O6 1.924800 1_555
Mn0 O13 1.952119 1_544
Mn0 O9 1.952119 1_545
Mn0 O0 1.952119 1_455
Mn0 O4 1.952119 1_454
Mn1 O3 1.932239 1_555
Mn1 O10 1.932239 1_555
Mn1 O5 1.940123 1_555
Mn1 O1 1.940123 1_555
Mn1 O8 1.940123 1_555
Mn1 O12 1.940123 1_555
Co0 O7 2.066128 1_555
Co0 O14 2.066128 1_555
Co0 O1 2.072552 1_555
Co0 O5 2.072552 1_554
Co0 O8 2.072552 1_555
Co0 O12 2.072552 1_554
Co1 O0 1.945243 1_555
Co1 O9 1.945243 1_545
Co1 O2 1.963767 1_555
Co1 O11 1.963767 1_545
Co1 O15 2.113125 1_545
Co1 O6 2.113125 1_555
Co2 O14 1.982449 1_555
Co2 O7 1.982449 1_455
Co2 O1 2.008851 1_555
Co2 O8 2.008851 1_455
Co2 O10 2.067838 1_555
Co2 O3 2.067838 1_455
Co3 O4 1.945243 1_555
Co3 O13 1.945243 1_545
Co3 O2 1.963767 1_555
Co3 O11 1.963767 1_545
Co3 O15 2.113125 1_546
Co3 O6 2.113125 1_556
Co4 O14 1.982449 1_556
Co4 O7 1.982449 1_456
Co4 O5 2.008851 1_555
Co4 O12 2.008851 1_455
Co4 O10 2.067838 1_555
Co4 O3 2.067838 1_455
