# generated using pymatgen
data_Ce3Mg
_symmetry_space_group_name_H-M   'P 1'
_cell_length_a   5.31703712
_cell_length_b   5.31703712
_cell_length_c   5.31703712
_cell_angle_alpha   60.00000000
_cell_angle_beta   60.00000000
_cell_angle_gamma   60.00000000
_symmetry_Int_Tables_number   1
_chemical_formula_structural   Ce3Mg
_chemical_formula_sum   'Ce3 Mg1'
_cell_volume   106.29040891
_cell_formula_units_Z   1
loop_
 _symmetry_equiv_pos_site_id
 _symmetry_equiv_pos_as_xyz
  1  'x, y, z'
loop_
 _atom_site_type_symbol
 _atom_site_label
 _atom_site_symmetry_multiplicity
 _atom_site_fract_x
 _atom_site_fract_y
 _atom_site_fract_z
 _atom_site_occupancy
  Ce  Ce0  1  0.00000000  0.00000000  0.00000000  1
  Ce  Ce1  1  0.25000000  0.25000000  0.25000000  1
  Ce  Ce2  1  0.75000000  0.75000000  0.75000000  1
  Mg  Mg0  1  0.50000000  0.50000000  0.50000000  1
loop_
_geom_bond_atom_site_label_1
_geom_bond_atom_site_label_2
_geom_bond_distance
_geom_bond_site_symmetry_2
Ce0 Ce1 3.256007 1_455
Ce0 Ce2 3.256007 1_544
Ce0 Ce2 3.256007 1_444
Ce0 Ce2 3.256007 1_454
Ce0 Ce1 3.256007 1_555
Ce0 Ce1 3.256007 1_545
Ce0 Ce2 3.256007 1_445
Ce0 Ce1 3.256007 1_554
Ce1 Mg0 3.256007 1_545
Ce1 Mg0 3.256007 1_555
Ce1 Mg0 3.256007 1_554
Ce1 Mg0 3.256007 1_455
Ce2 Mg0 3.256007 1_556
Ce2 Mg0 3.256007 1_555
Ce2 Mg0 3.256007 1_655
Ce2 Mg0 3.256007 1_565
