# generated using pymatgen
data_MgCoNi
_symmetry_space_group_name_H-M   'P 1'
_cell_length_a   4.87615180
_cell_length_b   4.87615180
_cell_length_c   7.75223600
_cell_angle_alpha   90.00000000
_cell_angle_beta   90.00000000
_cell_angle_gamma   121.11232051
_symmetry_Int_Tables_number   1
_chemical_formula_structural   MgCoNi
_chemical_formula_sum   'Mg4 Co4 Ni4'
_cell_volume   157.80992773
_cell_formula_units_Z   4
loop_
 _symmetry_equiv_pos_site_id
 _symmetry_equiv_pos_as_xyz
  1  'x, y, z'
loop_
 _atom_site_type_symbol
 _atom_site_label
 _atom_site_symmetry_multiplicity
 _atom_site_fract_x
 _atom_site_fract_y
 _atom_site_fract_z
 _atom_site_occupancy
  Mg  Mg0  1  0.33342400  0.66657600  0.18757400  1
  Mg  Mg1  1  0.66669500  0.33330500  0.31483300  1
  Mg  Mg2  1  0.66669500  0.33330500  0.68516700  1
  Mg  Mg3  1  0.33342400  0.66657600  0.81242600  1
  Co  Co0  1  0.00521300  0.99478700  0.24508500  1
  Co  Co1  1  0.00521300  0.99478700  0.75491500  1
  Co  Co2  1  0.82178800  0.65917800  0.00000000  1
  Co  Co3  1  0.34082200  0.17821200  0.00000000  1
  Ni  Ni0  1  0.82699000  0.17301000  0.00000000  1
  Ni  Ni1  1  0.16920000  0.33919200  0.50000000  1
  Ni  Ni2  1  0.66080800  0.83080000  0.50000000  1
  Ni  Ni3  1  0.16886900  0.83113100  0.50000000  1
loop_
_geom_bond_atom_site_label_1
_geom_bond_atom_site_label_2
_geom_bond_distance
_geom_bond_site_symmetry_2
Mg0 Ni1 2.781125 1_555
Mg0 Ni2 2.781125 1_555
Mg0 Ni3 2.796270 1_555
Mg0 Ni0 2.804089 1_455
Mg0 Ni0 2.804089 1_565
Mg0 Mg1 2.953595 1_565
Mg0 Mg1 2.953595 1_455
Mg0 Mg1 2.997368 1_555
Mg1 Ni3 2.793985 1_545
Mg1 Ni3 2.793985 1_655
Mg1 Ni0 2.794646 1_555
Mg1 Ni2 2.827119 1_545
Mg1 Ni1 2.827119 1_655
Mg1 Ni1 2.831631 1_555
Mg1 Ni2 2.831631 1_555
Mg1 Mg2 2.870917 1_555
Mg2 Ni3 2.793985 1_545
Mg2 Ni3 2.793985 1_655
Mg2 Ni0 2.794646 1_556
Mg2 Ni2 2.827119 1_545
Mg2 Ni1 2.827119 1_655
Mg2 Ni1 2.831631 1_555
Mg2 Ni2 2.831631 1_555
Mg2 Mg3 2.953595 1_545
Mg2 Mg3 2.953595 1_655
Mg2 Mg3 2.997368 1_555
Mg3 Ni1 2.781125 1_555
Mg3 Ni2 2.781125 1_555
Mg3 Ni3 2.796270 1_555
Mg3 Ni0 2.804089 1_456
Mg3 Ni0 2.804089 1_566
Co0 Co3 2.361197 1_565
Co0 Co2 2.361197 1_455
Co0 Ni3 2.415983 1_555
Co0 Ni0 2.429154 1_465
Co0 Ni1 2.444818 1_565
Co0 Ni2 2.444818 1_455
Co0 Mg1 2.814002 1_565
Co0 Mg1 2.814002 1_455
Co0 Mg0 2.822820 1_555
Co0 Mg0 2.841262 1_565
Co0 Mg0 2.841262 1_455
Co0 Mg1 2.925328 1_465
Co1 Co3 2.361197 1_566
Co1 Co2 2.361197 1_456
Co1 Ni3 2.415983 1_555
Co1 Ni0 2.429154 1_466
Co1 Ni2 2.444818 1_455
Co1 Ni1 2.444818 1_565
Co1 Mg2 2.814002 1_565
Co1 Mg2 2.814002 1_455
Co1 Mg3 2.822820 1_555
Co1 Mg3 2.841262 1_565
Co1 Mg3 2.841262 1_455
Co1 Mg2 2.925328 1_465
Co2 Co3 2.305723 1_555
Co2 Ni0 2.383835 1_555
Co2 Co3 2.488219 1_665
Co2 Ni0 2.492511 1_565
Co2 Mg1 2.794961 1_555
Co2 Mg2 2.794961 1_554
Co2 Mg3 2.806297 1_554
Co2 Mg0 2.806297 1_555
Co2 Mg3 2.871734 1_654
Co2 Mg0 2.871734 1_655
Co3 Ni0 2.383835 1_555
Co3 Ni0 2.492511 1_455
Co3 Mg1 2.794961 1_555
Co3 Mg2 2.794961 1_554
Co3 Mg3 2.806297 1_554
Co3 Mg0 2.806297 1_555
Co3 Mg3 2.871734 1_544
Co3 Mg0 2.871734 1_545
Ni1 Ni2 2.356740 1_555
Ni1 Ni3 2.399604 1_555
Ni1 Ni2 2.437202 1_445
Ni1 Ni3 2.476549 1_545
Ni2 Ni3 2.399604 1_555
Ni2 Ni3 2.476549 1_655
