# generated using pymatgen
data_Ba2NaSn
_symmetry_space_group_name_H-M   'P 1'
_cell_length_a   14.06162633
_cell_length_b   14.41880487
_cell_length_c   14.41880467
_cell_angle_alpha   60.63306411
_cell_angle_beta   60.81611380
_cell_angle_gamma   60.81611543
_symmetry_Int_Tables_number   1
_chemical_formula_structural   Ba2NaSn
_chemical_formula_sum   'Ba2 Na1 Sn1'
_cell_volume   2102.38724584
_cell_formula_units_Z   1
loop_
 _symmetry_equiv_pos_site_id
 _symmetry_equiv_pos_as_xyz
  1  'x, y, z'
loop_
 _atom_site_type_symbol
 _atom_site_label
 _atom_site_symmetry_multiplicity
 _atom_site_fract_x
 _atom_site_fract_y
 _atom_site_fract_z
 _atom_site_occupancy
  Ba  Ba0  1  0.72731240  1.00000000  1.00000000  1
  Ba  Ba1  1  0.27268760  0.00000000  0.00000000  1
  Na  Na0  1  -0.00000000  -0.00000000  0.00000000  1
  Sn  Sn0  1  0.50000000  -0.00000000  0.00000000  1
loop_
_geom_bond_atom_site_label_1
_geom_bond_atom_site_label_2
_geom_bond_distance
_geom_bond_site_symmetry_2
Ba0 Sn0 3.196382 1_566
Ba0 Na0 3.834431 1_666
Ba1 Sn0 3.196382 1_555
Ba1 Na0 3.834431 1_555
