# generated using pymatgen
data_TeMoWSe2S
_symmetry_space_group_name_H-M   'P 1'
_cell_length_a   3.34514427
_cell_length_b   3.34514427
_cell_length_c   39.74614100
_cell_angle_alpha   90.00000000
_cell_angle_beta   90.00000000
_cell_angle_gamma   120.00000542
_symmetry_Int_Tables_number   1
_chemical_formula_structural   TeMoWSe2S
_chemical_formula_sum   'Te2 Mo2 W2 Se4 S2'
_cell_volume   385.17250993
_cell_formula_units_Z   2
loop_
 _symmetry_equiv_pos_site_id
 _symmetry_equiv_pos_as_xyz
  1  'x, y, z'
loop_
 _atom_site_type_symbol
 _atom_site_label
 _atom_site_symmetry_multiplicity
 _atom_site_fract_x
 _atom_site_fract_y
 _atom_site_fract_z
 _atom_site_occupancy
  Te  Te0  1  0.66666700  0.33333300  0.42149600  1
  Te  Te1  1  0.66666700  0.33333300  0.51744100  1
  Mo  Mo0  1  0.33333300  0.66666700  0.09392900  1
  Mo  Mo1  1  0.66666700  0.33333300  0.28111900  1
  W  W0  1  0.33333300  0.66666700  0.46946200  1
  W  W1  1  0.66666700  0.33333300  0.65841000  1
  Se  Se0  1  0.33333300  0.66666700  0.32299900  1
  Se  Se1  1  0.33333300  0.66666700  0.70050400  1
  Se  Se2  1  0.33333300  0.66666700  0.23919600  1
  Se  Se3  1  0.33333300  0.66666700  0.61633900  1
  S  S0  1  0.66666700  0.33333300  0.05578800  1
  S  S1  1  0.66666700  0.33333300  0.13206400  1
loop_
_geom_bond_atom_site_label_1
_geom_bond_atom_site_label_2
_geom_bond_distance
_geom_bond_site_symmetry_2
Te0 W0 2.713778 1_545
Te0 W0 2.713778 1_655
Te0 W0 2.713782 1_555
Te1 W0 2.714141 1_545
Te1 W0 2.714141 1_655
Te1 W0 2.714145 1_555
Mo0 S1 2.455075 1_455
Mo0 S1 2.455075 1_565
Mo0 S1 2.455080 1_555
Mo0 S0 2.455222 1_455
Mo0 S0 2.455222 1_565
Mo0 S0 2.455227 1_555
Mo1 Se0 2.549662 1_545
Mo1 Se0 2.549662 1_655
Mo1 Se0 2.549667 1_555
Mo1 Se2 2.550778 1_545
Mo1 Se2 2.550778 1_655
Mo1 Se2 2.550783 1_555
Se1 W1 2.555223 1_455
Se1 W1 2.555223 1_565
Se1 W1 2.555228 1_555
Se3 W1 2.554625 1_565
Se3 W1 2.554625 1_455
Se3 W1 2.554629 1_555
