# generated using pymatgen
data_K2Mg(SO6)2
_symmetry_space_group_name_H-M   'P 1'
_cell_length_a   7.74682585
_cell_length_b   7.74682585
_cell_length_c   10.07881253
_cell_angle_alpha   83.67696264
_cell_angle_beta   83.67696264
_cell_angle_gamma   80.35509068
_symmetry_Int_Tables_number   1
_chemical_formula_structural   K2Mg(SO6)2
_chemical_formula_sum   'K4 Mg2 S4 O24'
_cell_volume   590.08561787
_cell_formula_units_Z   2
loop_
 _symmetry_equiv_pos_site_id
 _symmetry_equiv_pos_as_xyz
  1  'x, y, z'
loop_
 _atom_site_type_symbol
 _atom_site_label
 _atom_site_symmetry_multiplicity
 _atom_site_fract_x
 _atom_site_fract_y
 _atom_site_fract_z
 _atom_site_occupancy
  K  K0  1  0.58882300  0.08948000  0.23527000  1
  K  K1  1  0.41117700  0.91052000  0.76473000  1
  K  K2  1  0.91052000  0.41117700  0.76473000  1
  K  K3  1  0.08948000  0.58882300  0.23527000  1
  Mg  Mg0  1  0.00000000  0.00000000  0.00000000  1
  Mg  Mg1  1  0.50000000  0.50000000  0.50000000  1
  S  S0  1  0.70250600  0.70250600  0.04229700  1
  S  S1  1  0.29749400  0.29749400  0.95770300  1
  S  S2  1  0.78254300  0.78254300  0.52208200  1
  S  S3  1  0.21745700  0.21745700  0.47791800  1
  O  O0  1  0.99003000  0.99003000  0.79940200  1
  O  O1  1  0.00997000  0.00997000  0.20059800  1
  O  O2  1  0.35587300  0.67076700  0.36984000  1
  O  O3  1  0.64412700  0.32923300  0.63016000  1
  O  O4  1  0.32923300  0.64412700  0.63016000  1
  O  O5  1  0.67076700  0.35587300  0.36984000  1
  O  O6  1  0.70974500  0.95260500  0.57522800  1
  O  O7  1  0.29025500  0.04739500  0.42477200  1
  O  O8  1  0.04739500  0.29025500  0.42477200  1
  O  O9  1  0.95260500  0.70974500  0.57522800  1
  O  O10  1  0.80088400  0.80088400  0.37371400  1
  O  O11  1  0.19911600  0.19911600  0.62628600  1
  O  O12  1  0.82959300  0.82959300  0.05074400  1
  O  O13  1  0.17040700  0.17040700  0.94925600  1
  O  O14  1  0.79760200  0.20239800  0.00000000  1
  O  O15  1  0.20239800  0.79760200  0.00000000  1
  O  O16  1  0.31594000  0.31594000  0.09894300  1
  O  O17  1  0.68406000  0.68406000  0.90105700  1
  O  O18  1  0.53278800  0.77973600  0.11162700  1
  O  O19  1  0.46721200  0.22026400  0.88837300  1
  O  O20  1  0.22026400  0.46721200  0.88837300  1
  O  O21  1  0.77973600  0.53278800  0.11162700  1
  O  O22  1  0.65452300  0.65452300  0.57045500  1
  O  O23  1  0.34547700  0.34547700  0.42954500  1
loop_
_geom_bond_atom_site_label_1
_geom_bond_atom_site_label_2
_geom_bond_distance
_geom_bond_site_symmetry_2
K0 O5 2.783264 1_555
K0 O14 2.859424 1_555
K0 O10 2.869013 1_545
K0 O7 2.871661 1_555
K0 O16 2.881091 1_555
K0 O18 2.937003 1_545
K0 O12 3.129470 1_545
K0 O23 3.179670 1_555
K0 O1 3.204477 1_655
K1 O4 2.783264 1_555
K1 O15 2.859424 1_556
K1 O11 2.869013 1_565
K1 O6 2.871661 1_555
K1 O17 2.881091 1_555
K1 O19 2.937003 1_565
K1 O13 3.129470 1_565
K1 O22 3.179670 1_555
K1 O0 3.204477 1_455
K2 O3 2.783264 1_555
K2 O14 2.859424 1_556
K2 O11 2.869013 1_655
K2 O9 2.871661 1_555
K2 O17 2.881091 1_555
K2 O20 2.937003 1_655
K2 O13 3.129470 1_655
K2 O22 3.179670 1_555
K2 O0 3.204477 1_545
K3 O2 2.783264 1_555
K3 O15 2.859424 1_555
K3 O10 2.869013 1_455
K3 O8 2.871661 1_555
K3 O16 2.881091 1_555
K3 O21 2.937003 1_455
K3 O12 3.129470 1_455
K3 O23 3.179670 1_555
K3 O1 3.204477 1_565
Mg0 O13 2.008354 1_554
Mg0 O12 2.008354 1_445
Mg0 O15 2.023142 1_545
Mg0 O14 2.023142 1_455
Mg0 O1 2.042145 1_555
Mg0 O0 2.042145 1_444
Mg1 O5 2.040369 1_555
Mg1 O2 2.040369 1_555
Mg1 O3 2.040369 1_555
Mg1 O4 2.040369 1_555
Mg1 O22 2.055431 1_555
Mg1 O23 2.055431 1_555
O6 S2 1.476670 1_555
O7 S3 1.476670 1_555
O8 S3 1.476670 1_555
O9 S2 1.476670 1_555
O10 S2 1.479757 1_555
O11 S3 1.479757 1_555
O12 S0 1.519054 1_555
O13 S1 1.519054 1_555
O16 S1 1.470965 1_554
O17 S0 1.470965 1_556
O18 S0 1.483575 1_555
O19 S1 1.483575 1_555
O20 S1 1.483575 1_555
O21 S0 1.483575 1_555
O22 S2 1.523613 1_555
O23 S3 1.523613 1_555
