# generated using pymatgen
data_GaH8N2OF5
_symmetry_space_group_name_H-M   'P 1'
_cell_length_a   9.34428700
_cell_length_b   11.13311200
_cell_length_c   11.28453100
_cell_angle_alpha   90.00000000
_cell_angle_beta   90.00000000
_cell_angle_gamma   90.00000000
_symmetry_Int_Tables_number   1
_chemical_formula_structural   GaH8N2OF5
_chemical_formula_sum   'Ga8 H64 N16 O8 F40'
_cell_volume   1173.94097372
_cell_formula_units_Z   8
loop_
 _symmetry_equiv_pos_site_id
 _symmetry_equiv_pos_as_xyz
  1  'x, y, z'
loop_
 _atom_site_type_symbol
 _atom_site_label
 _atom_site_symmetry_multiplicity
 _atom_site_fract_x
 _atom_site_fract_y
 _atom_site_fract_z
 _atom_site_occupancy
  Ga  Ga0  1  0.71931600  0.11339200  0.93858300  1
  Ga  Ga1  1  0.21931600  0.38660800  0.06141700  1
  Ga  Ga2  1  0.28068400  0.61339200  0.56141700  1
  Ga  Ga3  1  0.78068400  0.88660800  0.43858300  1
  Ga  Ga4  1  0.28068400  0.88660800  0.06141700  1
  Ga  Ga5  1  0.78068400  0.61339200  0.93858300  1
  Ga  Ga6  1  0.71931600  0.38660800  0.43858300  1
  Ga  Ga7  1  0.21931600  0.11339200  0.56141700  1
  H  H0  1  0.49681400  0.23875700  0.80317300  1
  H  H1  1  0.99681400  0.26124300  0.19682700  1
  H  H2  1  0.50318600  0.73875700  0.69682700  1
  H  H3  1  0.00318600  0.76124300  0.30317300  1
  H  H4  1  0.50318600  0.76124300  0.19682700  1
  H  H5  1  0.00318600  0.73875700  0.80317300  1
  H  H6  1  0.49681400  0.26124300  0.30317300  1
  H  H7  1  0.99681400  0.23875700  0.69682700  1
  H  H8  1  0.55112700  0.31408400  0.67806200  1
  H  H9  1  0.05112700  0.18591600  0.32193800  1
  H  H10  1  0.44887300  0.81408400  0.82193800  1
  H  H11  1  0.94887300  0.68591600  0.17806200  1
  H  H12  1  0.44887300  0.68591600  0.32193800  1
  H  H13  1  0.94887300  0.81408400  0.67806200  1
  H  H14  1  0.55112700  0.18591600  0.17806200  1
  H  H15  1  0.05112700  0.31408400  0.82193800  1
  H  H16  1  0.36939900  0.29610300  0.70866900  1
  H  H17  1  0.86939900  0.20389700  0.29133100  1
  H  H18  1  0.63060100  0.79610300  0.79133100  1
  H  H19  1  0.13060100  0.70389700  0.20866900  1
  H  H20  1  0.63060100  0.70389700  0.29133100  1
  H  H21  1  0.13060100  0.79610300  0.70866900  1
  H  H22  1  0.36939900  0.20389700  0.20866900  1
  H  H23  1  0.86939900  0.29610300  0.79133100  1
  H  H24  1  0.38803900  0.47599100  0.78161100  1
  H  H25  1  0.88803900  0.02400900  0.21838900  1
  H  H26  1  0.61196100  0.97599100  0.71838900  1
  H  H27  1  0.11196100  0.52400900  0.28161100  1
  H  H28  1  0.61196100  0.52400900  0.21838900  1
  H  H29  1  0.11196100  0.97599100  0.78161100  1
  H  H30  1  0.38803900  0.02400900  0.28161100  1
  H  H31  1  0.88803900  0.47599100  0.71838900  1
  H  H32  1  0.57102600  0.46622300  0.80187200  1
  H  H33  1  0.07102600  0.03377700  0.19812800  1
  H  H34  1  0.42897400  0.96622300  0.69812800  1
  H  H35  1  0.92897400  0.53377700  0.30187200  1
  H  H36  1  0.42897400  0.53377700  0.19812800  1
  H  H37  1  0.92897400  0.96622300  0.80187200  1
  H  H38  1  0.57102600  0.03377700  0.30187200  1
  H  H39  1  0.07102600  0.46622300  0.69812800  1
  H  H40  1  0.45321900  0.40316300  0.90581700  1
  H  H41  1  0.95321900  0.09683700  0.09418300  1
  H  H42  1  0.54678100  0.90316300  0.59418300  1
  H  H43  1  0.04678100  0.59683700  0.40581700  1
  H  H44  1  0.54678100  0.59683700  0.09418300  1
  H  H45  1  0.04678100  0.90316300  0.90581700  1
  H  H46  1  0.45321900  0.09683700  0.40581700  1
  H  H47  1  0.95321900  0.40316300  0.59418300  1
  H  H48  1  0.74899100  0.88268600  0.96815000  1
  H  H49  1  0.24899100  0.61731400  0.03185000  1
  H  H50  1  0.25100900  0.38268600  0.53185000  1
  H  H51  1  0.75100900  0.11731400  0.46815000  1
  H  H52  1  0.25100900  0.11731400  0.03185000  1
  H  H53  1  0.75100900  0.38268600  0.96815000  1
  H  H54  1  0.74899100  0.61731400  0.46815000  1
  H  H55  1  0.24899100  0.88268600  0.53185000  1
  H  H56  1  0.62936000  0.92884900  0.06017100  1
  H  H57  1  0.12936000  0.57115100  0.93982900  1
  H  H58  1  0.37064000  0.42884900  0.43982900  1
  H  H59  1  0.87064000  0.07115100  0.56017100  1
  H  H60  1  0.37064000  0.07115100  0.93982900  1
  H  H61  1  0.87064000  0.42884900  0.06017100  1
  H  H62  1  0.62936000  0.57115100  0.56017100  1
  H  H63  1  0.12936000  0.92884900  0.43982900  1
  N  N0  1  0.47162400  0.31050100  0.74670800  1
  N  N1  1  0.97162400  0.18949900  0.25329200  1
  N  N2  1  0.52837600  0.81050100  0.75329200  1
  N  N3  1  0.02837600  0.68949900  0.24670800  1
  N  N4  1  0.52837600  0.68949900  0.25329200  1
  N  N5  1  0.02837600  0.81050100  0.74670800  1
  N  N6  1  0.47162400  0.18949900  0.24670800  1
  N  N7  1  0.97162400  0.31050100  0.75329200  1
  N  N8  1  0.47187100  0.42186400  0.81318800  1
  N  N9  1  0.97187100  0.07813600  0.18681200  1
  N  N10  1  0.52812900  0.92186400  0.68681200  1
  N  N11  1  0.02812900  0.57813600  0.31318800  1
  N  N12  1  0.52812900  0.57813600  0.18681200  1
  N  N13  1  0.02812900  0.92186400  0.81318800  1
  N  N14  1  0.47187100  0.07813600  0.31318800  1
  N  N15  1  0.97187100  0.42186400  0.68681200  1
  O  O0  1  0.71967500  0.95193100  0.01848900  1
  O  O1  1  0.21967500  0.54806900  0.98151100  1
  O  O2  1  0.28032500  0.45193100  0.48151100  1
  O  O3  1  0.78032500  0.04806900  0.51848900  1
  O  O4  1  0.28032500  0.04806900  0.98151100  1
  O  O5  1  0.78032500  0.45193100  0.01848900  1
  O  O6  1  0.71967500  0.54806900  0.51848900  1
  O  O7  1  0.21967500  0.95193100  0.48151100  1
  F  F0  1  0.72547300  0.27402500  0.86926700  1
  F  F1  1  0.22547300  0.22597500  0.13073300  1
  F  F2  1  0.27452700  0.77402500  0.63073300  1
  F  F3  1  0.77452700  0.72597500  0.36926700  1
  F  F4  1  0.27452700  0.72597500  0.13073300  1
  F  F5  1  0.77452700  0.77402500  0.86926700  1
  F  F6  1  0.72547300  0.22597500  0.36926700  1
  F  F7  1  0.22547300  0.27402500  0.63073300  1
  F  F8  1  0.52209900  0.10830000  0.88500600  1
  F  F9  1  0.02209900  0.39170000  0.11499400  1
  F  F10  1  0.47790100  0.60830000  0.61499400  1
  F  F11  1  0.97790100  0.89170000  0.38500600  1
  F  F12  1  0.47790100  0.89170000  0.11499400  1
  F  F13  1  0.97790100  0.60830000  0.88500600  1
  F  F14  1  0.52209900  0.39170000  0.38500600  1
  F  F15  1  0.02209900  0.10830000  0.61499400  1
  F  F16  1  0.76664800  0.03331100  0.79175400  1
  F  F17  1  0.26664800  0.46668900  0.20824600  1
  F  F18  1  0.23335200  0.53331100  0.70824600  1
  F  F19  1  0.73335200  0.96668900  0.29175400  1
  F  F20  1  0.23335200  0.96668900  0.20824600  1
  F  F21  1  0.73335200  0.53331100  0.79175400  1
  F  F22  1  0.76664800  0.46668900  0.29175400  1
  F  F23  1  0.26664800  0.03331100  0.70824600  1
  F  F24  1  0.92031400  0.12718700  0.96748900  1
  F  F25  1  0.42031400  0.37281300  0.03251100  1
  F  F26  1  0.07968600  0.62718700  0.53251100  1
  F  F27  1  0.57968600  0.87281300  0.46748900  1
  F  F28  1  0.07968600  0.87281300  0.03251100  1
  F  F29  1  0.57968600  0.62718700  0.96748900  1
  F  F30  1  0.92031400  0.37281300  0.46748900  1
  F  F31  1  0.42031400  0.12718700  0.53251100  1
  F  F32  1  0.67425500  0.17770600  0.08976600  1
  F  F33  1  0.17425500  0.32229400  0.91023400  1
  F  F34  1  0.32574500  0.67770600  0.41023400  1
  F  F35  1  0.82574500  0.82229400  0.58976600  1
  F  F36  1  0.32574500  0.82229400  0.91023400  1
  F  F37  1  0.82574500  0.67770600  0.08976600  1
  F  F38  1  0.67425500  0.32229400  0.58976600  1
  F  F39  1  0.17425500  0.17770600  0.41023400  1
loop_
_geom_bond_atom_site_label_1
_geom_bond_atom_site_label_2
_geom_bond_distance
_geom_bond_site_symmetry_2
Ga0 O0 2.011047 1_546
Ga1 O1 2.011047 1_554
Ga2 O2 2.011047 1_555
Ga3 O3 2.011047 1_565
Ga4 O4 2.011047 1_564
Ga5 O5 2.011047 1_556
Ga6 O6 2.011047 1_555
Ga7 O7 2.011047 1_545
H0 N0 1.048514 1_555
H1 N1 1.048514 1_555
H2 N2 1.048514 1_555
H3 N3 1.048514 1_555
H4 N4 1.048514 1_555
H5 N5 1.048514 1_555
H6 N6 1.048514 1_555
H7 N7 1.048514 1_555
H8 N0 1.074036 1_555
H9 N1 1.074036 1_455
H10 N2 1.074036 1_555
H11 N3 1.074036 1_655
H12 N4 1.074036 1_555
H13 N5 1.074036 1_655
H14 N6 1.074036 1_555
H15 N7 1.074036 1_455
H16 N0 1.059432 1_555
H17 N1 1.059432 1_555
H18 N2 1.059432 1_555
H19 N3 1.059432 1_555
H20 N4 1.059432 1_555
H21 N5 1.059432 1_555
H22 N6 1.059432 1_555
H23 N7 1.059432 1_555
H24 N8 1.050590 1_555
H25 N9 1.050590 1_555
H26 N10 1.050590 1_555
H27 N11 1.050590 1_555
H28 N12 1.050590 1_555
H29 N13 1.050590 1_555
H30 N14 1.050590 1_555
H31 N15 1.050590 1_555
H32 N8 1.057668 1_555
H33 N9 1.057668 1_455
H34 N10 1.057668 1_555
H35 N11 1.057668 1_655
H36 N12 1.057668 1_555
H37 N13 1.057668 1_655
H38 N14 1.057668 1_555
H39 N15 1.057668 1_455
H40 N8 1.079965 1_555
H41 N9 1.079965 1_555
H42 N10 1.079965 1_555
H43 N11 1.079965 1_555
H44 N12 1.079965 1_555
H45 N13 1.079965 1_555
H46 N14 1.079965 1_555
H47 N15 1.079965 1_555
H48 O0 0.996007 1_556
H49 O1 0.996007 1_554
H50 O2 0.996007 1_555
H51 O3 0.996007 1_555
H52 O4 0.996007 1_554
H53 O5 0.996007 1_556
H54 O6 0.996007 1_555
H55 O7 0.996007 1_555
H56 O0 0.999746 1_555
H57 O1 0.999746 1_555
H58 O2 0.999746 1_555
H59 O3 0.999746 1_555
H60 O4 0.999746 1_555
H61 O5 0.999746 1_555
H62 O6 0.999746 1_555
H63 O7 0.999746 1_555
F0 H23 1.625609 1_555
F0 H53 1.662983 1_555
F0 Ga0 1.952773 1_555
F1 H22 1.625609 1_555
F1 H52 1.662983 1_555
F1 Ga1 1.952773 1_555
F2 H21 1.625609 1_555
F2 H55 1.662983 1_555
F2 Ga2 1.952773 1_555
F3 H20 1.625609 1_555
F3 H54 1.662983 1_555
F3 Ga3 1.952773 1_555
F4 H19 1.625609 1_555
F4 H49 1.662983 1_555
F4 Ga4 1.952773 1_555
F5 H18 1.625609 1_555
F5 H48 1.662983 1_555
F5 Ga5 1.952773 1_555
F6 H17 1.625609 1_555
F6 H51 1.662983 1_555
F6 Ga6 1.952773 1_555
F7 H16 1.625609 1_555
F7 H50 1.662983 1_555
F7 Ga7 1.952773 1_555
F8 H60 1.598996 1_555
F8 Ga0 1.940322 1_555
F9 H61 1.598996 1_455
F9 Ga1 1.940322 1_555
F10 H62 1.598996 1_555
F10 Ga2 1.940322 1_555
F11 H63 1.598996 1_655
F11 Ga3 1.940322 1_555
F12 H56 1.598996 1_555
F12 Ga4 1.940322 1_555
F13 H57 1.598996 1_655
F13 Ga5 1.940322 1_555
F14 H58 1.598996 1_555
F14 Ga6 1.940322 1_555
F15 H59 1.598996 1_455
F15 Ga7 1.940322 1_555
F16 Ga0 1.932817 1_555
F17 Ga1 1.932817 1_555
F18 Ga2 1.932817 1_555
F19 Ga3 1.932817 1_555
F20 Ga4 1.932817 1_555
F21 Ga5 1.932817 1_555
F22 Ga6 1.932817 1_555
F23 Ga7 1.932817 1_555
F24 H41 1.500900 1_556
F24 Ga0 1.912475 1_555
F25 H40 1.500900 1_554
F25 Ga1 1.912475 1_555
F26 H43 1.500900 1_555
F26 Ga2 1.912475 1_555
F27 H42 1.500900 1_555
F27 Ga3 1.912475 1_555
F28 H45 1.500900 1_554
F28 Ga4 1.912475 1_555
F29 H44 1.500900 1_556
F29 Ga5 1.912475 1_555
F30 H47 1.500900 1_555
F30 Ga6 1.912475 1_555
F31 H46 1.500900 1_555
F31 Ga7 1.912475 1_555
F32 H14 1.524754 1_555
F32 Ga0 1.897500 1_554
F33 H15 1.524754 1_555
F33 Ga1 1.897500 1_556
F34 H12 1.524754 1_555
F34 Ga2 1.897500 1_555
F35 H13 1.524754 1_555
F35 Ga3 1.897500 1_555
F36 H10 1.524754 1_555
F36 Ga4 1.897500 1_556
F37 H11 1.524754 1_555
F37 Ga5 1.897500 1_554
F38 H8 1.524754 1_555
F38 Ga6 1.897500 1_555
F39 H9 1.524754 1_555
F39 Ga7 1.897500 1_555
