# generated using pymatgen
data_Gd3Sb4
_symmetry_space_group_name_H-M   'P 1'
_cell_length_a   8.03050288
_cell_length_b   8.03050288
_cell_length_c   8.03050288
_cell_angle_alpha   109.47122063
_cell_angle_beta   109.47122063
_cell_angle_gamma   109.47122063
_symmetry_Int_Tables_number   1
_chemical_formula_structural   Gd3Sb4
_chemical_formula_sum   'Gd6 Sb8'
_cell_volume   398.66337212
_cell_formula_units_Z   2
loop_
 _symmetry_equiv_pos_site_id
 _symmetry_equiv_pos_as_xyz
  1  'x, y, z'
loop_
 _atom_site_type_symbol
 _atom_site_label
 _atom_site_symmetry_multiplicity
 _atom_site_fract_x
 _atom_site_fract_y
 _atom_site_fract_z
 _atom_site_occupancy
  Gd  Gd0  1  0.12500000  0.87500000  0.25000000  1
  Gd  Gd1  1  0.37500000  0.62500000  0.75000000  1
  Gd  Gd2  1  0.87500000  0.25000000  0.12500000  1
  Gd  Gd3  1  0.62500000  0.75000000  0.37500000  1
  Gd  Gd4  1  0.25000000  0.12500000  0.87500000  1
  Gd  Gd5  1  0.75000000  0.37500000  0.62500000  1
  Sb  Sb0  1  0.33817900  0.33817900  0.33817900  1
  Sb  Sb1  1  0.16182100  0.50000000  0.00000000  1
  Sb  Sb2  1  0.00000000  0.16182100  0.50000000  1
  Sb  Sb3  1  0.83817900  0.83817900  0.83817900  1
  Sb  Sb4  1  0.50000000  0.00000000  0.16182100  1
  Sb  Sb5  1  0.66182100  0.50000000  0.00000000  1
  Sb  Sb6  1  0.50000000  0.00000000  0.66182100  1
  Sb  Sb7  1  0.00000000  0.66182100  0.50000000  1
loop_
_geom_bond_atom_site_label_1
_geom_bond_atom_site_label_2
_geom_bond_distance
_geom_bond_site_symmetry_2
Gd0 Sb6 3.185214 1_565
Gd0 Sb3 3.185214 1_454
Gd0 Sb2 3.185214 1_565
Gd0 Sb1 3.185214 1_555
Gd0 Sb0 3.233896 1_565
Gd0 Sb7 3.233896 1_555
Gd0 Sb5 3.233896 1_455
Gd0 Sb4 3.233896 1_565
Gd1 Sb5 3.185214 1_556
Gd1 Sb7 3.185214 1_555
Gd1 Sb0 3.185214 1_555
Gd1 Sb4 3.185214 1_566
Gd1 Sb3 3.233896 1_555
Gd1 Sb6 3.233896 1_565
Gd1 Sb1 3.233896 1_556
Gd1 Sb2 3.233896 1_555
Gd2 Sb1 3.185214 1_655
Gd2 Sb4 3.185214 1_555
Gd2 Sb7 3.185214 1_655
Gd2 Sb3 3.185214 1_544
Gd2 Sb5 3.233896 1_555
Gd2 Sb6 3.233896 1_554
Gd2 Sb2 3.233896 1_655
Gd2 Sb0 3.233896 1_655
Gd3 Sb2 3.185214 1_665
Gd3 Sb0 3.185214 1_555
Gd3 Sb6 3.185214 1_565
Gd3 Sb5 3.185214 1_555
Gd3 Sb4 3.233896 1_565
Gd3 Sb7 3.233896 1_655
Gd3 Sb3 3.233896 1_555
Gd3 Sb1 3.233896 1_555
Gd4 Sb5 3.185214 1_556
Gd4 Sb4 3.185214 1_556
Gd4 Sb3 3.185214 1_445
Gd4 Sb2 3.185214 1_555
Gd4 Sb6 3.233896 1_555
Gd4 Sb7 3.233896 1_545
Gd4 Sb0 3.233896 1_556
Gd4 Sb1 3.233896 1_556
Gd5 Sb7 3.185214 1_655
Gd5 Sb6 3.185214 1_555
Gd5 Sb0 3.185214 1_555
Gd5 Sb1 3.185214 1_656
Gd5 Sb3 3.233896 1_555
Gd5 Sb5 3.233896 1_556
Gd5 Sb2 3.233896 1_655
Gd5 Sb4 3.233896 1_555
