# generated using pymatgen
data_Ba3In2MoO9
_symmetry_space_group_name_H-M   'P 1'
_cell_length_a   5.95777345
_cell_length_b   5.95777345
_cell_length_c   7.31994200
_cell_angle_alpha   90.00000000
_cell_angle_beta   90.00000000
_cell_angle_gamma   119.99999390
_symmetry_Int_Tables_number   1
_chemical_formula_structural   Ba3In2MoO9
_chemical_formula_sum   'Ba3 In2 Mo1 O9'
_cell_volume   225.01230466
_cell_formula_units_Z   1
loop_
 _symmetry_equiv_pos_site_id
 _symmetry_equiv_pos_as_xyz
  1  'x, y, z'
loop_
 _atom_site_type_symbol
 _atom_site_label
 _atom_site_symmetry_multiplicity
 _atom_site_fract_x
 _atom_site_fract_y
 _atom_site_fract_z
 _atom_site_occupancy
  Ba  Ba0  1  0.00000000  0.00000000  0.50000000  1
  Ba  Ba1  1  0.66666700  0.33333300  0.81670000  1
  Ba  Ba2  1  0.33333300  0.66666700  0.18330000  1
  In  In0  1  0.66666700  0.33333300  0.33443800  1
  In  In1  1  0.33333300  0.66666700  0.66556200  1
  Mo  Mo0  1  0.00000000  0.00000000  0.00000000  1
  O  O0  1  0.68850500  0.84425300  0.84720200  1
  O  O1  1  0.31149500  0.15574700  0.15279800  1
  O  O2  1  0.00000000  0.50000000  0.50000000  1
  O  O3  1  0.50000000  0.00000000  0.50000000  1
  O  O4  1  0.15574700  0.31149500  0.84720200  1
  O  O5  1  0.84425300  0.68850500  0.15279800  1
  O  O6  1  0.50000000  0.50000000  0.50000000  1
  O  O7  1  0.15574700  0.84425300  0.84720200  1
  O  O8  1  0.84425300  0.15574700  0.15279800  1
loop_
_geom_bond_atom_site_label_1
_geom_bond_atom_site_label_2
_geom_bond_distance
_geom_bond_site_symmetry_2
Ba0 O2 2.978887 1_555
Ba0 O3 2.978887 1_455
Ba0 O2 2.978887 1_545
Ba0 O3 2.978887 1_555
Ba0 O6 2.978887 1_555
Ba0 O6 2.978887 1_445
Ba0 O8 3.007032 1_455
Ba0 O7 3.007032 1_545
Ba0 O5 3.007035 1_445
Ba0 O0 3.007035 1_445
Ba0 O1 3.007035 1_555
Ba0 O4 3.007035 1_555
Ba1 O2 2.886535 1_655
Ba1 O3 2.886535 1_555
Ba1 O6 2.886538 1_555
Ba1 O0 2.989361 1_545
Ba1 O4 2.989361 1_655
Ba1 O7 2.989367 1_545
Ba1 O7 2.989367 1_655
Ba1 O4 2.989373 1_555
Ba1 O0 2.989373 1_555
Ba1 O8 3.067715 1_556
Ba1 O1 3.067715 1_556
Ba1 O5 3.067715 1_556
Ba2 O2 2.886535 1_555
Ba2 O3 2.886535 1_565
Ba2 O6 2.886538 1_555
Ba2 O5 2.989361 1_455
Ba2 O1 2.989361 1_565
Ba2 O8 2.989367 1_455
Ba2 O8 2.989367 1_565
Ba2 O5 2.989373 1_555
Ba2 O1 2.989373 1_555
Ba2 O7 3.067715 1_554
Ba2 O4 3.067715 1_554
Ba2 O0 3.067715 1_554
In0 O2 2.103955 1_655
In0 O3 2.103955 1_555
In0 O6 2.103959 1_555
In0 O8 2.264072 1_555
In0 O1 2.264072 1_555
In0 O5 2.264072 1_555
In1 O2 2.103955 1_555
In1 O3 2.103955 1_565
In1 O6 2.103959 1_555
In1 O7 2.264072 1_555
In1 O4 2.264072 1_555
In1 O0 2.264072 1_555
Mo0 O7 1.958062 1_544
Mo0 O8 1.958062 1_455
Mo0 O0 1.958066 1_444
Mo0 O5 1.958066 1_445
Mo0 O4 1.958066 1_554
Mo0 O1 1.958066 1_555
