# generated using pymatgen
data_HoSi
_symmetry_space_group_name_H-M   'P 1'
_cell_length_a   3.80606948
_cell_length_b   5.65754465
_cell_length_c   7.84968229
_cell_angle_alpha   90.00000000
_cell_angle_beta   90.00000000
_cell_angle_gamma   90.00000000
_symmetry_Int_Tables_number   1
_chemical_formula_structural   HoSi
_chemical_formula_sum   'Ho4 Si4'
_cell_volume   169.02727174
_cell_formula_units_Z   4
loop_
 _symmetry_equiv_pos_site_id
 _symmetry_equiv_pos_as_xyz
  1  'x, y, z'
loop_
 _atom_site_type_symbol
 _atom_site_label
 _atom_site_symmetry_multiplicity
 _atom_site_fract_x
 _atom_site_fract_y
 _atom_site_fract_z
 _atom_site_occupancy
  Ho  Ho0  1  0.25000000  0.11500798  0.82079945  1
  Ho  Ho1  1  0.75000000  0.88499202  0.17920055  1
  Ho  Ho2  1  0.75000000  0.61500798  0.67920055  1
  Ho  Ho3  1  0.25000000  0.38499202  0.32079945  1
  Si  Si0  1  0.25000000  0.62897691  0.96192178  1
  Si  Si1  1  0.75000000  0.37102309  0.03807822  1
  Si  Si2  1  0.75000000  0.12897691  0.53807822  1
  Si  Si3  1  0.25000000  0.87102309  0.46192178  1
loop_
_geom_bond_atom_site_label_1
_geom_bond_atom_site_label_2
_geom_bond_distance
_geom_bond_site_symmetry_2
Ho0 Si2 2.924543 1_455
Ho0 Si2 2.924543 1_555
Ho0 Si1 2.937417 1_456
Ho0 Si1 2.937417 1_556
Ho0 Si0 2.964495 1_545
Ho0 Si0 3.111665 1_555
Ho0 Si3 3.137084 1_545
Ho1 Si3 2.924543 1_555
Ho1 Si3 2.924543 1_655
Ho1 Si0 2.937417 1_654
Ho1 Si0 2.937417 1_554
Ho1 Si1 2.964495 1_565
Ho1 Si1 3.111665 1_555
Ho1 Si2 3.137084 1_565
Ho2 Si0 2.924543 1_655
Ho2 Si0 2.924543 1_555
Ho2 Si3 2.937417 1_555
Ho2 Si3 2.937417 1_655
Ho2 Si2 2.964495 1_555
Ho2 Si2 3.111665 1_565
Ho2 Si1 3.137084 1_556
Ho3 Si1 2.924543 1_455
Ho3 Si1 2.924543 1_555
Ho3 Si2 2.937417 1_455
Ho3 Si2 2.937417 1_555
Ho3 Si3 2.964495 1_555
Ho3 Si3 3.111665 1_545
Ho3 Si0 3.137084 1_554
Si0 Si1 2.471582 1_556
Si0 Si1 2.471582 1_456
Si2 Si3 2.471582 1_545
Si2 Si3 2.471582 1_645
