# generated using pymatgen
data_Y2Al3Fe
_symmetry_space_group_name_H-M   'P 1'
_cell_length_a   5.42438112
_cell_length_b   5.42438112
_cell_length_c   5.42438133
_cell_angle_alpha   61.39990502
_cell_angle_beta   61.39990502
_cell_angle_gamma   61.39991727
_symmetry_Int_Tables_number   1
_chemical_formula_structural   Y2Al3Fe
_chemical_formula_sum   'Y2 Al3 Fe1'
_cell_volume   116.40784441
_cell_formula_units_Z   1
loop_
 _symmetry_equiv_pos_site_id
 _symmetry_equiv_pos_as_xyz
  1  'x, y, z'
loop_
 _atom_site_type_symbol
 _atom_site_label
 _atom_site_symmetry_multiplicity
 _atom_site_fract_x
 _atom_site_fract_y
 _atom_site_fract_z
 _atom_site_occupancy
  Y  Y0  1  0.62569055  0.62569055  0.62569055  1
  Y  Y1  1  0.37430945  0.37430945  0.37430945  1
  Al  Al0  1  0.00000000  0.50000000  -0.00000000  1
  Al  Al1  1  0.50000000  0.00000000  -0.00000000  1
  Al  Al2  1  0.00000000  0.00000000  0.50000000  1
  Fe  Fe0  1  0.00000000  0.00000000  -0.00000000  1
loop_
_geom_bond_atom_site_label_1
_geom_bond_atom_site_label_2
_geom_bond_distance
_geom_bond_site_symmetry_2
Y0 Y1 3.304317 1_555
Y0 Y1 3.374367 1_556
Y0 Y1 3.374367 1_565
Y0 Y1 3.374367 1_655
Al0 Fe0 2.712191 1_565
Al0 Fe0 2.712191 1_555
Al0 Al2 2.769376 1_555
Al0 Al2 2.769376 1_564
Al0 Al1 2.769376 1_465
Al0 Al1 2.769376 1_555
Al0 Y1 3.163236 1_555
Al0 Y0 3.163236 1_454
Al0 Y0 3.224759 1_554
Al0 Y1 3.224759 1_455
Al0 Y0 3.224759 1_455
Al0 Y1 3.224759 1_554
Al1 Fe0 2.712191 1_655
Al1 Fe0 2.712191 1_555
Al1 Al2 2.769376 1_555
Al1 Al2 2.769376 1_654
Al1 Y1 3.163236 1_555
Al1 Y0 3.163236 1_544
Al1 Y0 3.224759 1_554
Al1 Y1 3.224759 1_545
Al1 Y0 3.224759 1_545
Al1 Y1 3.224759 1_554
Al2 Fe0 2.712191 1_555
Al2 Fe0 2.712191 1_556
Al2 Y1 3.163236 1_555
Al2 Y0 3.163236 1_445
Al2 Y0 3.224759 1_545
Al2 Y1 3.224759 1_545
Al2 Y0 3.224759 1_455
Al2 Y1 3.224759 1_455
Fe0 Y1 3.242843 1_554
Fe0 Y0 3.242843 1_445
Fe0 Y1 3.242843 1_545
Fe0 Y0 3.242843 1_454
Fe0 Y0 3.242843 1_544
Fe0 Y1 3.242843 1_455
