# generated using pymatgen
data_Ti2ZnO5
_symmetry_space_group_name_H-M   'P 1'
_cell_length_a   3.68788200
_cell_length_b   5.42010543
_cell_length_c   11.73225600
_cell_angle_alpha   90.00000000
_cell_angle_beta   90.00000000
_cell_angle_gamma   109.88874774
_symmetry_Int_Tables_number   1
_chemical_formula_structural   Ti2ZnO5
_chemical_formula_sum   'Ti4 Zn2 O10'
_cell_volume   220.52513636
_cell_formula_units_Z   2
loop_
 _symmetry_equiv_pos_site_id
 _symmetry_equiv_pos_as_xyz
  1  'x, y, z'
loop_
 _atom_site_type_symbol
 _atom_site_label
 _atom_site_symmetry_multiplicity
 _atom_site_fract_x
 _atom_site_fract_y
 _atom_site_fract_z
 _atom_site_occupancy
  Ti  Ti0  1  0.20663400  0.41326100  0.59959000  1
  Ti  Ti1  1  0.79336700  0.58674000  0.40040900  1
  Ti  Ti2  1  0.79336700  0.58674000  0.09959100  1
  Ti  Ti3  1  0.20663400  0.41326100  0.90041000  1
  Zn  Zn0  1  0.90889900  0.81782200  0.75000000  1
  Zn  Zn1  1  0.09110200  0.18217900  0.25000000  1
  O  O0  1  0.70074800  0.40149100  0.25000000  1
  O  O1  1  0.29925300  0.59851000  0.75000000  1
  O  O2  1  0.24223700  0.48447800  0.07259300  1
  O  O3  1  0.75776500  0.51552300  0.92740700  1
  O  O4  1  0.75776500  0.51552300  0.57259300  1
  O  O5  1  0.24223700  0.48447800  0.42740600  1
  O  O6  1  0.04321100  0.08640200  0.63095300  1
  O  O7  1  0.95678900  0.91359700  0.36904700  1
  O  O8  1  0.04321100  0.08640200  0.86904700  1
  O  O9  1  0.95678900  0.91359700  0.13095400  1
loop_
_geom_bond_atom_site_label_1
_geom_bond_atom_site_label_2
_geom_bond_distance
_geom_bond_site_symmetry_2
O0 Ti1 2.001355 1_555
O0 Ti2 2.001355 1_555
O0 Zn1 2.156267 1_555
O0 Zn1 2.156312 1_655
O1 Ti0 2.001365 1_555
O1 Ti3 2.001365 1_555
O1 Zn0 2.156267 1_555
O1 Zn0 2.156312 1_455
O2 Ti2 1.942190 1_455
O2 Ti2 1.942193 1_555
O2 Ti3 2.052447 1_554
O3 Ti3 1.942185 1_655
O3 Ti3 1.942195 1_555
O3 Ti2 2.052459 1_556
O4 Ti0 1.942185 1_655
O4 Ti0 1.942195 1_555
O4 Ti1 2.052459 1_555
O5 Ti1 1.942189 1_455
O5 Ti1 1.942191 1_555
O5 Ti0 2.052459 1_555
O6 Ti0 1.706094 1_555
O6 Zn0 1.955669 1_445
O7 Ti1 1.706082 1_555
O7 Zn1 1.955677 1_665
O8 Ti3 1.706094 1_555
O8 Zn0 1.955669 1_445
O9 Ti2 1.706084 1_555
O9 Zn1 1.955668 1_665
