# generated using pymatgen
data_Tm(NO3)3
_symmetry_space_group_name_H-M   'P 1'
_cell_length_a   6.11579200
_cell_length_b   9.65046800
_cell_length_c   11.18347442
_cell_angle_alpha   86.56822195
_cell_angle_beta   90.00000000
_cell_angle_gamma   90.00000000
_symmetry_Int_Tables_number   1
_chemical_formula_structural   Tm(NO3)3
_chemical_formula_sum   'Tm4 N12 O36'
_cell_volume   658.86789497
_cell_formula_units_Z   4
loop_
 _symmetry_equiv_pos_site_id
 _symmetry_equiv_pos_as_xyz
  1  'x, y, z'
loop_
 _atom_site_type_symbol
 _atom_site_label
 _atom_site_symmetry_multiplicity
 _atom_site_fract_x
 _atom_site_fract_y
 _atom_site_fract_z
 _atom_site_occupancy
  Tm  Tm0  1  0.67593800  0.28753500  0.73154200  1
  Tm  Tm1  1  0.17593800  0.21246500  0.26845800  1
  Tm  Tm2  1  0.32406200  0.71246500  0.26845800  1
  Tm  Tm3  1  0.82406200  0.78753500  0.73154200  1
  N  N0  1  0.37844400  0.16795500  0.49287200  1
  N  N1  1  0.87844400  0.33204500  0.50712800  1
  N  N2  1  0.62155600  0.83204500  0.50712800  1
  N  N3  1  0.12155600  0.66795500  0.49287200  1
  N  N4  1  0.72795200  0.19733800  0.21670400  1
  N  N5  1  0.22795200  0.30266200  0.78329600  1
  N  N6  1  0.27204800  0.80266200  0.78329600  1
  N  N7  1  0.77204800  0.69733800  0.21670400  1
  N  N8  1  0.71770300  0.52289700  0.87975400  1
  N  N9  1  0.21770300  0.97710300  0.12024600  1
  N  N10  1  0.28229700  0.47710300  0.12024600  1
  N  N11  1  0.78229700  0.02289700  0.87975400  1
  O  O0  1  0.42366300  0.27420300  0.42387300  1
  O  O1  1  0.92366300  0.22579700  0.57612700  1
  O  O2  1  0.57633700  0.72579700  0.57612700  1
  O  O3  1  0.07633700  0.77420300  0.42387300  1
  O  O4  1  0.24881900  0.07938600  0.45194000  1
  O  O5  1  0.74881900  0.42061400  0.54806000  1
  O  O6  1  0.75118100  0.92061400  0.54806000  1
  O  O7  1  0.25118100  0.57938600  0.45194000  1
  O  O8  1  0.45620800  0.15119800  0.59642100  1
  O  O9  1  0.95620800  0.34880200  0.40357900  1
  O  O10  1  0.54379200  0.84880200  0.40357900  1
  O  O11  1  0.04379200  0.65119800  0.59642100  1
  O  O12  1  0.81999900  0.10408400  0.28490000  1
  O  O13  1  0.31999900  0.39591600  0.71510000  1
  O  O14  1  0.18000100  0.89591600  0.71510000  1
  O  O15  1  0.68000100  0.60408400  0.28490000  1
  O  O16  1  0.52805900  0.19264500  0.19310100  1
  O  O17  1  0.02805900  0.30735500  0.80689900  1
  O  O18  1  0.47194100  0.80735500  0.80689900  1
  O  O19  1  0.97194100  0.69264500  0.19310100  1
  O  O20  1  0.84666400  0.29472700  0.17167700  1
  O  O21  1  0.34666400  0.20527300  0.82832300  1
  O  O22  1  0.15333600  0.70527300  0.82832300  1
  O  O23  1  0.65333600  0.79472700  0.17167700  1
  O  O24  1  0.72885900  0.54386900  0.76263600  1
  O  O25  1  0.22885900  0.95613100  0.23736400  1
  O  O26  1  0.27114100  0.45613100  0.23736400  1
  O  O27  1  0.77114100  0.04386900  0.76263600  1
  O  O28  1  0.65777700  0.40301300  0.91765500  1
  O  O29  1  0.15777700  0.09698700  0.08234500  1
  O  O30  1  0.34222300  0.59698700  0.08234500  1
  O  O31  1  0.84222300  0.90301300  0.91765500  1
  O  O32  1  0.76671800  0.61816000  0.94286500  1
  O  O33  1  0.26671800  0.88184000  0.05713500  1
  O  O34  1  0.23328200  0.38184000  0.05713500  1
  O  O35  1  0.73328200  0.11816000  0.94286500  1
loop_
_geom_bond_atom_site_label_1
_geom_bond_atom_site_label_2
_geom_bond_distance
_geom_bond_site_symmetry_2
N0 O8 1.253382 1_555
N0 O4 1.270993 1_555
N0 O0 1.276137 1_555
N1 O9 1.253382 1_555
N1 O5 1.270993 1_555
N1 O1 1.276137 1_555
N2 O10 1.253382 1_555
N2 O6 1.270993 1_555
N2 O2 1.276137 1_555
N3 O11 1.253382 1_555
N3 O7 1.270993 1_555
N3 O3 1.276137 1_555
N4 O16 1.252068 1_555
N4 O20 1.267805 1_555
N4 O12 1.275262 1_555
N5 O17 1.252068 1_555
N5 O21 1.267805 1_555
N5 O13 1.275262 1_555
N6 O18 1.252068 1_555
N6 O22 1.267805 1_555
N6 O14 1.275262 1_555
N7 O19 1.252068 1_555
N7 O23 1.267805 1_555
N7 O15 1.275262 1_555
N8 O32 1.229174 1_555
N8 O28 1.262447 1_555
N8 O24 1.315074 1_555
N9 O33 1.229174 1_555
N9 O29 1.262447 1_565
N9 O25 1.315074 1_555
N10 O34 1.229174 1_555
N10 O30 1.262447 1_555
N10 O26 1.315074 1_555
N11 O35 1.229174 1_555
N11 O31 1.262447 1_545
N11 O27 1.315074 1_555
O0 Tm1 2.407323 1_555
O1 Tm0 2.407323 1_555
O2 Tm3 2.407323 1_555
O3 Tm2 2.407323 1_555
O4 Tm1 2.396477 1_555
O5 Tm0 2.396477 1_555
O6 Tm3 2.396477 1_555
O7 Tm2 2.396477 1_555
O8 Tm0 2.461399 1_555
O9 Tm1 2.461399 1_655
O10 Tm2 2.461399 1_555
O11 Tm3 2.461399 1_455
O12 Tm1 2.417317 1_655
O13 Tm0 2.417317 1_555
O14 Tm3 2.417317 1_455
O15 Tm2 2.417317 1_555
O16 Tm1 2.324580 1_555
O17 Tm0 2.324580 1_455
O18 Tm3 2.324580 1_555
O19 Tm2 2.324580 1_655
O20 Tm1 2.398772 1_655
O21 Tm0 2.398772 1_555
O22 Tm3 2.398772 1_455
O23 Tm2 2.398772 1_555
O24 Tm3 2.427250 1_555
O24 Tm0 2.539304 1_555
O25 Tm2 2.427250 1_555
O25 Tm1 2.539304 1_565
O26 Tm1 2.427250 1_555
O26 Tm2 2.539304 1_555
O27 Tm0 2.427250 1_555
O27 Tm3 2.539304 1_545
O28 Tm0 2.421599 1_555
O29 Tm1 2.421599 1_555
O30 Tm2 2.421599 1_555
O31 Tm3 2.421599 1_555
O32 Tm3 2.813818 1_555
O33 Tm2 2.813818 1_555
O34 Tm1 2.813818 1_555
O35 Tm0 2.813818 1_555
