# generated using pymatgen
data_VSiNi
_symmetry_space_group_name_H-M   'P 1'
_cell_length_a   4.72868862
_cell_length_b   4.72868862
_cell_length_c   7.34846100
_cell_angle_alpha   90.00000000
_cell_angle_beta   90.00000000
_cell_angle_gamma   119.39593112
_symmetry_Int_Tables_number   1
_chemical_formula_structural   VSiNi
_chemical_formula_sum   'V4 Si4 Ni4'
_cell_volume   143.15942857
_cell_formula_units_Z   4
loop_
 _symmetry_equiv_pos_site_id
 _symmetry_equiv_pos_as_xyz
  1  'x, y, z'
loop_
 _atom_site_type_symbol
 _atom_site_label
 _atom_site_symmetry_multiplicity
 _atom_site_fract_x
 _atom_site_fract_y
 _atom_site_fract_z
 _atom_site_occupancy
  V  V0  1  0.33286800  0.66713200  0.18729900  1
  V  V1  1  0.66331800  0.33668200  0.32218700  1
  V  V2  1  0.66331800  0.33668200  0.67781300  1
  V  V3  1  0.33286800  0.66713200  0.81270100  1
  Si  Si0  1  0.83372200  0.16627800  0.00000000  1
  Si  Si1  1  0.17109300  0.34481100  0.50000000  1
  Si  Si2  1  0.65518900  0.82890700  0.50000000  1
  Si  Si3  1  0.17089400  0.82910600  0.50000000  1
  Ni  Ni0  1  0.99694600  0.00305400  0.26028300  1
  Ni  Ni1  1  0.99694600  0.00305400  0.73971700  1
  Ni  Ni2  1  0.83515500  0.65225900  0.00000000  1
  Ni  Ni3  1  0.34774100  0.16484500  0.00000000  1
loop_
_geom_bond_atom_site_label_1
_geom_bond_atom_site_label_2
_geom_bond_distance
_geom_bond_site_symmetry_2
V0 V3 2.752719 1_554
V0 V1 2.874527 1_555
V0 V1 2.931154 1_455
V0 V1 2.931154 1_565
V1 V2 2.613304 1_555
V2 V3 2.874527 1_555
V2 V3 2.931154 1_545
V2 V3 2.931154 1_655
Si0 V2 2.746164 1_554
Si0 V1 2.746164 1_555
Si0 V0 2.754438 1_655
Si0 V3 2.754438 1_654
Si0 V3 2.754438 1_544
Si0 V0 2.754438 1_545
Si1 Si3 2.290542 1_555
Si1 Si2 2.310008 1_555
Si1 Si3 2.438147 1_545
Si1 Si2 2.461790 1_445
Si1 V0 2.654028 1_555
Si1 V3 2.654028 1_555
Si1 V1 2.685940 1_555
Si1 V2 2.685940 1_555
Si1 V2 2.717267 1_455
Si1 V1 2.717267 1_455
Si2 Si3 2.290542 1_555
Si2 Si3 2.438147 1_655
Si2 V0 2.654028 1_555
Si2 V3 2.654028 1_555
Si2 V1 2.685940 1_555
Si2 V2 2.685940 1_555
Si2 V1 2.717267 1_565
Si2 V2 2.717267 1_565
Si3 V0 2.651299 1_555
Si3 V3 2.651299 1_555
Si3 V2 2.720970 1_565
Si3 V1 2.720970 1_565
Si3 V2 2.720970 1_455
Si3 V1 2.720970 1_455
Ni0 Si2 2.255309 1_545
Ni0 Si1 2.255309 1_655
Ni0 Si3 2.262833 1_645
Ni0 Si0 2.331227 1_555
Ni0 Ni2 2.397799 1_545
Ni0 Ni3 2.397799 1_655
Ni0 V1 2.761889 1_555
Ni0 V1 2.782966 1_655
Ni0 V1 2.782966 1_545
Ni0 V0 2.788381 1_655
Ni0 V0 2.788381 1_545
Ni0 V0 2.794841 1_645
Ni1 Si2 2.255309 1_545
Ni1 Si1 2.255309 1_655
Ni1 Si3 2.262833 1_645
Ni1 Si0 2.331227 1_556
Ni1 Ni2 2.397799 1_546
Ni1 Ni3 2.397799 1_656
Ni1 V2 2.761889 1_555
Ni1 V2 2.782966 1_655
Ni1 V2 2.782966 1_545
Ni1 V3 2.788381 1_655
Ni1 V3 2.788381 1_545
Ni1 V3 2.794841 1_645
Ni2 Si0 2.294734 1_555
Ni2 Ni3 2.325841 1_555
Ni2 Si0 2.433969 1_565
Ni2 Ni3 2.445957 1_665
Ni2 V0 2.697392 1_655
Ni2 V3 2.697392 1_654
Ni2 V1 2.702257 1_555
Ni2 V2 2.702257 1_554
Ni2 V0 2.775730 1_555
Ni2 V3 2.775730 1_554
Ni3 Si0 2.294734 1_555
Ni3 Si0 2.433969 1_455
Ni3 V0 2.697392 1_545
Ni3 V3 2.697392 1_544
Ni3 V2 2.702257 1_554
Ni3 V1 2.702257 1_555
Ni3 V0 2.775730 1_555
Ni3 V3 2.775730 1_554
