# generated using pymatgen
data_CsNd2Ag3Te5
_symmetry_space_group_name_H-M   'P 1'
_cell_length_a   8.57799514
_cell_length_b   8.57799514
_cell_length_c   18.99896100
_cell_angle_alpha   90.00000000
_cell_angle_beta   90.00000000
_cell_angle_gamma   148.43164766
_symmetry_Int_Tables_number   1
_chemical_formula_structural   CsNd2Ag3Te5
_chemical_formula_sum   'Cs2 Nd4 Ag6 Te10'
_cell_volume   731.86483251
_cell_formula_units_Z   2
loop_
 _symmetry_equiv_pos_site_id
 _symmetry_equiv_pos_as_xyz
  1  'x, y, z'
loop_
 _atom_site_type_symbol
 _atom_site_label
 _atom_site_symmetry_multiplicity
 _atom_site_fract_x
 _atom_site_fract_y
 _atom_site_fract_z
 _atom_site_occupancy
  Cs  Cs0  1  0.55921000  0.44079000  0.25000000  1
  Cs  Cs1  1  0.44079000  0.55921000  0.75000000  1
  Nd  Nd0  1  0.69056400  0.30943600  0.90693100  1
  Nd  Nd1  1  0.30943600  0.69056400  0.09306900  1
  Nd  Nd2  1  0.69056400  0.30943600  0.59306900  1
  Nd  Nd3  1  0.30943600  0.69056400  0.40693100  1
  Ag  Ag0  1  0.84046300  0.15953700  0.25000000  1
  Ag  Ag1  1  0.15953700  0.84046300  0.75000000  1
  Ag  Ag2  1  0.08607400  0.91392600  0.46966500  1
  Ag  Ag3  1  0.91392600  0.08607400  0.53033500  1
  Ag  Ag4  1  0.08607400  0.91392600  0.03033500  1
  Ag  Ag5  1  0.91392600  0.08607400  0.96966500  1
  Te  Te0  1  0.06076700  0.93923300  0.88084300  1
  Te  Te1  1  0.93923300  0.06076700  0.11915700  1
  Te  Te2  1  0.06076700  0.93923300  0.61915700  1
  Te  Te3  1  0.93923300  0.06076700  0.38084300  1
  Te  Te4  1  0.67359900  0.32640100  0.42718400  1
  Te  Te5  1  0.32640100  0.67359900  0.57281600  1
  Te  Te6  1  0.67359900  0.32640100  0.07281600  1
  Te  Te7  1  0.32640100  0.67359900  0.92718400  1
  Te  Te8  1  0.24654600  0.75345400  0.25000000  1
  Te  Te9  1  0.75345400  0.24654600  0.75000000  1
loop_
_geom_bond_atom_site_label_1
_geom_bond_atom_site_label_2
_geom_bond_distance
_geom_bond_site_symmetry_2
Cs0 Te4 3.859836 1_555
Cs0 Te6 3.859836 1_555
Cs0 Te8 3.874217 1_655
Cs0 Te8 3.874217 1_545
Cs0 Te3 3.943006 1_565
Cs0 Te1 3.943006 1_565
Cs0 Te3 3.943006 1_455
Cs0 Te1 3.943006 1_455
Cs1 Te7 3.859836 1_555
Cs1 Te5 3.859836 1_555
Cs1 Te9 3.874217 1_565
Cs1 Te9 3.874217 1_455
Cs1 Te0 3.943006 1_545
Cs1 Te2 3.943006 1_545
Cs1 Te0 3.943006 1_655
Cs1 Te2 3.943006 1_655
Nd0 Te9 3.157131 1_555
Nd0 Te6 3.164063 1_556
Nd0 Te0 3.206534 1_655
Nd0 Te0 3.206534 1_545
Nd0 Te7 3.259071 1_545
Nd0 Te7 3.259071 1_655
Nd1 Te8 3.157131 1_555
Nd1 Te7 3.164063 1_554
Nd1 Te1 3.206534 1_565
Nd1 Te1 3.206534 1_455
Nd1 Te6 3.259071 1_565
Nd1 Te6 3.259071 1_455
Nd2 Te9 3.157131 1_555
Nd2 Te4 3.164063 1_555
Nd2 Te2 3.206534 1_655
Nd2 Te2 3.206534 1_545
Nd2 Te5 3.259071 1_655
Nd2 Te5 3.259071 1_545
Nd3 Te8 3.157131 1_555
Nd3 Te5 3.164063 1_555
Nd3 Te3 3.206534 1_455
Nd3 Te3 3.206534 1_565
Nd3 Te4 3.259071 1_565
Nd3 Te4 3.259071 1_455
Ag0 Te8 2.801513 1_655
Ag0 Te8 2.801513 1_545
Ag0 Te3 2.972957 1_555
Ag0 Te1 2.972957 1_555
Ag1 Te9 2.801513 1_565
Ag1 Te9 2.801513 1_455
Ag1 Te2 2.972957 1_555
Ag1 Te0 2.972957 1_555
Ag2 Te4 2.860730 1_565
Ag2 Te4 2.860730 1_455
Ag2 Te2 2.870757 1_555
Ag2 Te3 2.953734 1_465
Ag3 Te5 2.860730 1_655
Ag3 Te5 2.860730 1_545
Ag3 Te3 2.870757 1_555
Ag3 Te2 2.953734 1_645
Ag4 Te6 2.860730 1_565
Ag4 Te6 2.860730 1_455
Ag4 Te0 2.870757 1_554
Ag4 Te1 2.953734 1_465
Ag5 Te7 2.860730 1_655
Ag5 Te7 2.860730 1_545
Ag5 Te1 2.870757 1_556
Ag5 Te0 2.953734 1_645
