# generated using pymatgen
data_Na2LiFePCO7
_symmetry_space_group_name_H-M   'P 1'
_cell_length_a   6.72206800
_cell_length_b   8.83640758
_cell_length_c   10.26651046
_cell_angle_alpha   88.37834816
_cell_angle_beta   89.85124247
_cell_angle_gamma   89.76938089
_symmetry_Int_Tables_number   1
_chemical_formula_structural   Na2LiFePCO7
_chemical_formula_sum   'Na8 Li4 Fe4 P4 C4 O28'
_cell_volume   609.56870814
_cell_formula_units_Z   4
loop_
 _symmetry_equiv_pos_site_id
 _symmetry_equiv_pos_as_xyz
  1  'x, y, z'
loop_
 _atom_site_type_symbol
 _atom_site_label
 _atom_site_symmetry_multiplicity
 _atom_site_fract_x
 _atom_site_fract_y
 _atom_site_fract_z
 _atom_site_occupancy
  Na  Na0  1  0.74620500  0.08291400  0.88007900  1
  Na  Na1  1  0.74500700  0.08382200  0.38062300  1
  Na  Na2  1  0.00188900  0.25589000  0.62868100  1
  Na  Na3  1  0.99915500  0.26228400  0.12231700  1
  Na  Na4  1  0.50059300  0.26236700  0.12512300  1
  Na  Na5  1  0.49718300  0.74459700  0.87331700  1
  Na  Na6  1  0.49503400  0.73856100  0.37766400  1
  Na  Na7  1  0.00261100  0.73943400  0.37576300  1
  Li  Li0  1  0.53003200  0.28238000  0.61565600  1
  Li  Li1  1  0.02177300  0.72447700  0.88130200  1
  Li  Li2  1  0.24802600  0.90347600  0.62565800  1
  Li  Li3  1  0.24509500  0.90026800  0.12297500  1
  Fe  Fe0  1  0.25484200  0.35682800  0.88203300  1
  Fe  Fe1  1  0.25155100  0.35236800  0.39618400  1
  Fe  Fe2  1  0.75260500  0.65043800  0.61782400  1
  Fe  Fe3  1  0.75292700  0.64981800  0.10602500  1
  P  P0  1  0.75324200  0.41381800  0.84966600  1
  P  P1  1  0.75035900  0.41550300  0.35982500  1
  P  P2  1  0.25123300  0.59455800  0.65122600  1
  P  P3  1  0.25065600  0.58938400  0.14205100  1
  C  C0  1  0.24230300  0.04434500  0.86508400  1
  C  C1  1  0.24886500  0.05139300  0.36004500  1
  C  C2  1  0.74085600  0.94758400  0.63497000  1
  C  C3  1  0.75034800  0.94186600  0.13580600  1
  O  O0  1  0.72354900  0.09311900  0.64257900  1
  O  O1  1  0.75124100  0.08703400  0.14552800  1
  O  O2  1  0.24956500  0.07468000  0.98803600  1
  O  O3  1  0.24347400  0.08323500  0.48320100  1
  O  O4  1  0.25916700  0.15429400  0.77756100  1
  O  O5  1  0.25398900  0.16145800  0.27230500  1
  O  O6  1  0.93745700  0.31357200  0.88306000  1
  O  O7  1  0.56913500  0.32664100  0.90246900  1
  O  O8  1  0.93819300  0.32009500  0.39884800  1
  O  O9  1  0.56683900  0.31885200  0.40655500  1
  O  O10  1  0.73413300  0.43171400  0.69729300  1
  O  O11  1  0.27096000  0.43386900  0.59351600  1
  O  O12  1  0.74540800  0.43732100  0.20835900  1
  O  O13  1  0.24837100  0.43535600  0.07464700  1
  O  O14  1  0.77156800  0.57440200  0.90635500  1
  O  O15  1  0.23214400  0.57495900  0.80292400  1
  O  O16  1  0.74873100  0.57089600  0.42356000  1
  O  O17  1  0.24467400  0.56260300  0.29260600  1
  O  O18  1  0.43266600  0.69729800  0.61745700  1
  O  O19  1  0.06883200  0.68514000  0.59925500  1
  O  O20  1  0.43718400  0.68623700  0.10486700  1
  O  O21  1  0.06990300  0.69100600  0.09774200  1
  O  O22  1  0.75315700  0.86099000  0.73941600  1
  O  O23  1  0.75299700  0.85359600  0.23959100  1
  O  O24  1  0.74758400  0.88283800  0.52264800  1
  O  O25  1  0.74703200  0.88016400  0.02214500  1
  O  O26  1  0.21988400  0.90702800  0.82587500  1
  O  O27  1  0.24977200  0.91323000  0.32170300  1
loop_
_geom_bond_atom_site_label_1
_geom_bond_atom_site_label_2
_geom_bond_distance
_geom_bond_site_symmetry_2
Na0 O25 2.277970 1_546
Na0 O6 2.415112 1_555
Na0 O0 2.442537 1_555
Na0 O22 2.468283 1_545
Na0 O7 2.472622 1_555
Na0 O1 2.726808 1_556
Na1 O24 2.265782 1_545
Na1 O1 2.413226 1_555
Na1 O9 2.414138 1_555
Na1 O8 2.474979 1_555
Na1 O23 2.530497 1_545
Na1 O0 2.696420 1_555
Na2 O0 2.366110 1_455
Na2 O11 2.421265 1_555
Na2 O8 2.449563 1_455
Na2 O4 2.461040 1_555
Na2 O10 2.486447 1_455
Na2 O3 2.700372 1_555
Na2 O6 2.708404 1_455
Na3 O1 2.286901 1_555
Na3 O13 2.314917 1_655
Na3 O5 2.454199 1_655
Na3 O12 2.475940 1_555
Na3 O6 2.520268 1_554
Na3 O2 2.752616 1_654
Na3 O8 2.926297 1_555
Na4 O1 2.290307 1_555
Na4 O13 2.327787 1_555
Na4 O7 2.383958 1_554
Na4 O5 2.397687 1_555
Na4 O12 2.435367 1_555
Na4 O2 2.783114 1_554
Na5 O26 2.390717 1_555
Na5 O14 2.393906 1_555
Na5 O22 2.414592 1_555
Na5 O20 2.450927 1_556
Na5 O15 2.456194 1_555
Na5 O25 2.592968 1_556
Na5 O18 2.707823 1_555
Na6 O16 2.295568 1_555
Na6 O27 2.316173 1_555
Na6 O23 2.443242 1_555
Na6 O17 2.473439 1_555
Na6 O18 2.512851 1_555
Na6 O24 2.619334 1_555
Na6 O20 2.879090 1_555
Na7 O16 2.312131 1_455
Na7 O27 2.322580 1_555
Na7 O19 2.373659 1_555
Na7 O23 2.388772 1_455
Na7 O17 2.421964 1_555
Na7 O24 2.626002 1_455
Li0 O10 2.099812 1_555
Li0 O0 2.126885 1_555
Li0 O9 2.175383 1_555
Li0 O11 2.200558 1_555
Li1 O15 2.105243 1_555
Li1 O14 2.156371 1_455
Li1 O26 2.158878 1_555
Li1 O21 2.257337 1_556
Li1 O22 2.595011 1_455
Li2 O26 2.064839 1_555
Li2 O3 2.128707 1_565
Li2 O18 2.203799 1_555
Li2 O19 2.301446 1_555
Li3 O2 2.043194 1_564
Li3 O27 2.047019 1_555
Li3 O21 2.217986 1_555
Li3 O20 2.297331 1_555
Fe0 O15 2.075527 1_555
Fe0 O4 2.112399 1_555
Fe0 O13 2.114420 1_556
Fe0 O7 2.138519 1_555
Fe0 O6 2.168912 1_455
Fe1 O17 2.114665 1_555
Fe1 O8 2.126769 1_455
Fe1 O5 2.141188 1_555
Fe1 O9 2.141305 1_555
Fe1 O11 2.173637 1_555
Fe1 O3 2.517393 1_555
Fe2 O10 2.080548 1_555
Fe2 O16 2.133575 1_555
Fe2 O19 2.156109 1_655
Fe2 O18 2.188506 1_555
Fe2 O24 2.249256 1_555
Fe2 O22 2.269672 1_555
Fe3 O12 2.126257 1_555
Fe3 O20 2.145436 1_555
Fe3 O21 2.164087 1_655
Fe3 O14 2.176525 1_554
Fe3 O25 2.187798 1_555
Fe3 O23 2.294015 1_555
C0 O26 1.298651 1_545
C0 O2 1.298916 1_555
C0 O4 1.309625 1_555
C1 O27 1.293301 1_545
C1 O3 1.303442 1_555
C1 O5 1.307299 1_555
C2 O0 1.295332 1_565
C2 O22 1.302178 1_555
C2 O24 1.302305 1_555
C3 O1 1.289493 1_565
C3 O25 1.302178 1_555
C3 O23 1.302674 1_555
O6 P0 1.552995 1_555
O7 P0 1.549014 1_555
O8 P1 1.562192 1_555
O9 P1 1.569596 1_555
O10 P0 1.573386 1_555
O11 P2 1.558994 1_555
O12 P1 1.561933 1_555
O13 P3 1.544379 1_555
O14 P0 1.554329 1_555
O15 P2 1.567117 1_555
O16 P1 1.537666 1_555
O17 P3 1.557492 1_555
O18 P2 1.555869 1_555
O19 P2 1.549204 1_555
O20 P3 1.561408 1_555
O21 P3 1.568618 1_555
