# generated using pymatgen
data_TeMoWSe3
_symmetry_space_group_name_H-M   'P 1'
_cell_length_a   3.37925913
_cell_length_b   3.37925913
_cell_length_c   38.46220300
_cell_angle_alpha   90.00000000
_cell_angle_beta   90.00000000
_cell_angle_gamma   119.99998294
_symmetry_Int_Tables_number   1
_chemical_formula_structural   TeMoWSe3
_chemical_formula_sum   'Te2 Mo2 W2 Se6'
_cell_volume   380.37139857
_cell_formula_units_Z   2
loop_
 _symmetry_equiv_pos_site_id
 _symmetry_equiv_pos_as_xyz
  1  'x, y, z'
loop_
 _atom_site_type_symbol
 _atom_site_label
 _atom_site_symmetry_multiplicity
 _atom_site_fract_x
 _atom_site_fract_y
 _atom_site_fract_z
 _atom_site_occupancy
  Te  Te0  1  0.33333300  0.66666700  0.04503700  1
  Te  Te1  1  0.33333300  0.66666700  0.14280900  1
  Mo  Mo0  1  0.00000000  0.00000000  0.09390300  1
  Mo  Mo1  1  0.33333300  0.66666700  0.28180100  1
  W  W0  1  0.00000000  0.00000000  0.46965600  1
  W  W1  1  0.33333300  0.66666700  0.65753800  1
  Se  Se0  1  0.00000000  0.00000000  0.32487900  1
  Se  Se1  1  0.00000000  0.00000000  0.70073400  1
  Se  Se2  1  0.33333300  0.66666700  0.42646500  1
  Se  Se3  1  0.33333300  0.66666700  0.51286100  1
  Se  Se4  1  0.00000000  0.00000000  0.23873900  1
  Se  Se5  1  0.00000000  0.00000000  0.61432600  1
loop_
_geom_bond_atom_site_label_1
_geom_bond_atom_site_label_2
_geom_bond_distance
_geom_bond_site_symmetry_2
Mo0 Te0 2.709050 1_545
Mo0 Te0 2.709053 1_445
Mo0 Te0 2.709053 1_555
Mo0 Te1 2.710118 1_545
Mo0 Te1 2.710120 1_445
Mo0 Te1 2.710120 1_555
Mo1 Se4 2.559229 1_565
Mo1 Se4 2.559231 1_665
Mo1 Se4 2.559231 1_555
Mo1 Se0 2.559627 1_565
Mo1 Se0 2.559630 1_665
Mo1 Se0 2.559630 1_555
Se1 W1 2.562567 1_545
Se1 W1 2.562570 1_555
Se1 W1 2.562570 1_445
Se2 W0 2.562442 1_565
Se2 W0 2.562445 1_665
Se2 W0 2.562445 1_555
Se3 W0 2.562792 1_565
Se3 W0 2.562794 1_665
Se3 W0 2.562794 1_555
Se5 W1 2.562966 1_545
Se5 W1 2.562969 1_445
Se5 W1 2.562969 1_555
