# generated using pymatgen
data_MgInSe3
_symmetry_space_group_name_H-M   'P 1'
_cell_length_a   7.02937650
_cell_length_b   10.55335500
_cell_length_c   8.51019473
_cell_angle_alpha   90.00000000
_cell_angle_beta   109.55882991
_cell_angle_gamma   90.00000000
_symmetry_Int_Tables_number   1
_chemical_formula_structural   MgInSe3
_chemical_formula_sum   'Mg4 In4 Se12'
_cell_volume   594.88803595
_cell_formula_units_Z   4
loop_
 _symmetry_equiv_pos_site_id
 _symmetry_equiv_pos_as_xyz
  1  'x, y, z'
loop_
 _atom_site_type_symbol
 _atom_site_label
 _atom_site_symmetry_multiplicity
 _atom_site_fract_x
 _atom_site_fract_y
 _atom_site_fract_z
 _atom_site_occupancy
  Mg  Mg0  1  0.00000000  0.32679800  0.00000000  1
  Mg  Mg1  1  0.00000000  0.67320200  0.00000000  1
  Mg  Mg2  1  0.50000000  0.82679800  0.00000000  1
  Mg  Mg3  1  0.50000000  0.17320200  0.00000000  1
  In  In0  1  0.05079500  0.00000000  0.22425900  1
  In  In1  1  0.94920500  0.00000000  0.77574100  1
  In  In2  1  0.55079500  0.50000000  0.22425900  1
  In  In3  1  0.44920500  0.50000000  0.77574100  1
  Se  Se0  1  0.28470000  0.18603100  0.22175600  1
  Se  Se1  1  0.71530000  0.81396900  0.77824400  1
  Se  Se2  1  0.71530000  0.18603100  0.77824400  1
  Se  Se3  1  0.28470000  0.81396900  0.22175600  1
  Se  Se4  1  0.78470000  0.68603100  0.22175600  1
  Se  Se5  1  0.21530000  0.31396900  0.77824400  1
  Se  Se6  1  0.21530000  0.68603100  0.77824400  1
  Se  Se7  1  0.78470000  0.31396900  0.22175600  1
  Se  Se8  1  0.30550900  0.00000000  0.75687600  1
  Se  Se9  1  0.69449100  0.00000000  0.24312400  1
  Se  Se10  1  0.80550900  0.50000000  0.75687600  1
  Se  Se11  1  0.19449100  0.50000000  0.24312400  1
loop_
_geom_bond_atom_site_label_1
_geom_bond_atom_site_label_2
_geom_bond_distance
_geom_bond_site_symmetry_2
Mg0 Se0 2.691599 1_555
Mg0 Se2 2.691599 1_454
Mg0 Se10 2.756290 1_454
Mg0 Se11 2.756290 1_555
Mg0 Se5 2.789725 1_554
Mg0 Se7 2.789725 1_455
Mg1 Se1 2.691599 1_454
Mg1 Se3 2.691599 1_555
Mg1 Se11 2.756290 1_555
Mg1 Se10 2.756290 1_454
Mg1 Se6 2.789725 1_554
Mg1 Se4 2.789725 1_455
Mg2 Se6 2.691599 1_554
Mg2 Se4 2.691599 1_555
Mg2 Se8 2.756290 1_564
Mg2 Se9 2.756290 1_565
Mg2 Se1 2.789725 1_554
Mg2 Se3 2.789725 1_555
Mg3 Se5 2.691599 1_554
Mg3 Se7 2.691599 1_555
Mg3 Se8 2.756290 1_554
Mg3 Se9 2.756290 1_555
Mg3 Se2 2.789725 1_554
Mg3 Se0 2.789725 1_555
In0 Se9 2.562810 1_455
In0 Se3 2.565477 1_545
In0 Se0 2.565477 1_555
In1 Se8 2.562810 1_655
In1 Se1 2.565477 1_545
In1 Se2 2.565477 1_555
In2 Se11 2.562810 1_555
In2 Se4 2.565477 1_555
In2 Se7 2.565477 1_555
In3 Se10 2.562810 1_555
In3 Se6 2.565477 1_555
In3 Se5 2.565477 1_555
