# generated using pymatgen
data_ZnSnF4
_symmetry_space_group_name_H-M   'P 1'
_cell_length_a   5.16878900
_cell_length_b   5.57315539
_cell_length_c   6.66847791
_cell_angle_alpha   107.73141298
_cell_angle_beta   110.35510676
_cell_angle_gamma   89.87441122
_symmetry_Int_Tables_number   1
_chemical_formula_structural   ZnSnF4
_chemical_formula_sum   'Zn2 Sn2 F8'
_cell_volume   170.38262521
_cell_formula_units_Z   2
loop_
 _symmetry_equiv_pos_site_id
 _symmetry_equiv_pos_as_xyz
  1  'x, y, z'
loop_
 _atom_site_type_symbol
 _atom_site_label
 _atom_site_symmetry_multiplicity
 _atom_site_fract_x
 _atom_site_fract_y
 _atom_site_fract_z
 _atom_site_occupancy
  Zn  Zn0  1  0.25401100  0.24763400  0.50188300  1
  Zn  Zn1  1  0.75112300  0.74487000  0.50266700  1
  Sn  Sn0  1  0.01477000  0.52252000  0.04718500  1
  Sn  Sn1  1  0.48556900  0.99356600  0.96173000  1
  F  F0  1  0.43770500  0.70727300  0.18704000  1
  F  F1  1  0.06696000  0.79388200  0.81879500  1
  F  F2  1  0.60123500  0.07302300  0.62582600  1
  F  F3  1  0.50672300  0.59197000  0.63699700  1
  F  F4  1  0.89993800  0.41736600  0.37505000  1
  F  F5  1  0.00021500  0.89769300  0.36609000  1
  F  F6  1  0.27617300  0.22945300  0.19642800  1
  F  F7  1  0.22723400  0.27029500  0.80630900  1
loop_
_geom_bond_atom_site_label_1
_geom_bond_atom_site_label_2
_geom_bond_distance
_geom_bond_site_symmetry_2
F0 Zn1 2.111655 1_555
F0 Sn0 2.171514 1_555
F0 Sn1 2.566118 1_554
F1 Zn1 2.107317 1_455
F1 Sn1 2.181357 1_555
F1 Sn0 2.523906 1_556
F2 Zn1 2.034935 1_545
F2 Zn0 2.074000 1_555
F2 Sn1 2.666075 1_545
F3 Zn0 2.083211 1_555
F3 Zn1 2.093142 1_555
F3 Sn1 2.630982 1_555
F4 Zn1 2.037265 1_555
F4 Zn0 2.088644 1_655
F4 Sn0 2.675941 1_655
F5 Zn0 2.110342 1_565
F5 Zn1 2.122641 1_455
F5 Sn0 2.510412 1_555
F6 Zn0 2.051582 1_555
F6 Sn1 2.295233 1_544
F6 Sn0 2.351321 1_555
F7 Zn0 2.048283 1_555
F7 Sn1 2.288564 1_545
F7 Sn0 2.367943 1_556
