# generated using pymatgen
data_LiSm4(Mo2O7)2
_symmetry_space_group_name_H-M   'P 1'
_cell_length_a   7.57707383
_cell_length_b   7.54970834
_cell_length_c   7.47738073
_cell_angle_alpha   59.70027318
_cell_angle_beta   59.82114743
_cell_angle_gamma   60.12541424
_symmetry_Int_Tables_number   1
_chemical_formula_structural   LiSm4(Mo2O7)2
_chemical_formula_sum   'Li1 Sm4 Mo4 O14'
_cell_volume   301.64203783
_cell_formula_units_Z   1
loop_
 _symmetry_equiv_pos_site_id
 _symmetry_equiv_pos_as_xyz
  1  'x, y, z'
loop_
 _atom_site_type_symbol
 _atom_site_label
 _atom_site_symmetry_multiplicity
 _atom_site_fract_x
 _atom_site_fract_y
 _atom_site_fract_z
 _atom_site_occupancy
  Li  Li0  1  0.75127800  0.77097400  0.73985800  1
  Sm  Sm0  1  0.49086600  0.00372500  0.47614200  1
  Sm  Sm1  1  0.51258900  0.48705700  0.50232400  1
  Sm  Sm2  1  0.48927900  0.49365000  0.00440600  1
  Sm  Sm3  1  0.00892900  0.48669400  0.49325600  1
  Mo  Mo0  1  0.99899300  0.00018400  0.00422000  1
  Mo  Mo1  1  0.00427300  0.00300400  0.49496900  1
  Mo  Mo2  1  0.49276900  0.00114300  0.00322800  1
  Mo  Mo3  1  0.00336900  0.49661000  0.00193900  1
  O  O0  1  0.65756500  0.08643200  0.66769200  1
  O  O1  1  0.06013300  0.65919600  0.67136500  1
  O  O2  1  0.90644000  0.35151600  0.33868700  1
  O  O3  1  0.67674900  0.66677900  0.05707300  1
  O  O4  1  0.37958400  0.37587700  0.37800200  1
  O  O5  1  0.90733600  0.32406900  0.93137900  1
  O  O6  1  0.10125600  0.08721400  0.66076600  1
  O  O7  1  0.33341400  0.90796400  0.93285600  1
  O  O8  1  0.33248700  0.34272200  0.91327100  1
  O  O9  1  0.09492500  0.66414500  0.08085400  1
  O  O10  1  0.63477100  0.63199300  0.63107900  1
  O  O11  1  0.35087000  0.89025800  0.34103700  1
  O  O12  1  0.89820100  0.91771200  0.33712200  1
  O  O13  1  0.65499500  0.09215300  0.07954800  1
loop_
_geom_bond_atom_site_label_1
_geom_bond_atom_site_label_2
_geom_bond_distance
_geom_bond_site_symmetry_2
Li0 O1 1.927372 1_655
Li0 O3 1.943422 1_556
Li0 O0 1.967545 1_565
Li0 O10 2.246710 1_555
Li0 O12 2.454983 1_555
Li0 O7 2.612848 1_555
Mo0 O5 2.025546 1_554
Mo0 O12 2.041004 1_545
Mo0 O9 2.099482 1_645
Mo0 O6 2.105061 1_654
Mo0 O7 2.109080 1_644
Mo0 O13 2.169987 1_555
Mo1 O6 2.158185 1_555
Mo1 O2 2.159502 1_455
Mo1 O1 2.160670 1_545
Mo1 O11 2.160744 1_545
Mo1 O12 2.165611 1_445
Mo1 O0 2.174236 1_455
Mo2 O7 2.021922 1_544
Mo2 O13 2.061794 1_555
Mo2 O11 2.066302 1_545
Mo2 O0 2.071140 1_554
Mo2 O3 2.123875 1_545
Mo2 O8 2.128071 1_554
Mo3 O1 2.048686 1_554
Mo3 O8 2.058362 1_554
Mo3 O2 2.058782 1_455
Mo3 O3 2.070380 1_455
Mo3 O9 2.113779 1_555
Mo3 O5 2.128012 1_454
O0 Sm1 2.483106 1_555
O0 Sm0 2.746593 1_555
O1 Sm3 2.528490 1_555
O1 Sm1 2.811071 1_555
O2 Sm3 2.421259 1_655
O2 Sm1 2.449493 1_555
O3 Sm2 2.610117 1_555
O3 Sm1 2.726180 1_555
O4 Sm1 2.270751 1_555
O4 Sm2 2.276105 1_555
O4 Sm3 2.298602 1_555
O4 Sm0 2.307623 1_555
O5 Sm2 2.626324 1_556
O5 Sm3 2.679507 1_655
O6 Sm0 2.438222 1_555
O6 Sm3 2.474181 1_555
O7 Sm2 2.594535 1_556
O7 Sm0 2.807156 1_565
O8 Sm2 2.473902 1_556
O8 Sm1 2.525585 1_555
O9 Sm2 2.470957 1_555
O9 Sm3 2.531673 1_555
O10 Sm2 2.282491 1_556
O10 Sm0 2.312605 1_565
O10 Sm3 2.325487 1_655
O10 Sm1 2.439173 1_555
O11 Sm0 2.394890 1_565
O11 Sm1 2.507530 1_555
O12 Sm0 2.546960 1_565
O12 Sm3 2.662223 1_655
O13 Sm0 2.430626 1_555
O13 Sm2 2.505904 1_555
