# generated using pymatgen
data_KSrSbWO6
_symmetry_space_group_name_H-M   'P 1'
_cell_length_a   8.40596290
_cell_length_b   8.43193057
_cell_length_c   8.41048163
_cell_angle_alpha   90.00000000
_cell_angle_beta   90.00000000
_cell_angle_gamma   90.00000000
_symmetry_Int_Tables_number   1
_chemical_formula_structural   KSrSbWO6
_chemical_formula_sum   'K4 Sr4 Sb4 W4 O24'
_cell_volume   596.12228476
_cell_formula_units_Z   4
loop_
 _symmetry_equiv_pos_site_id
 _symmetry_equiv_pos_as_xyz
  1  'x, y, z'
loop_
 _atom_site_type_symbol
 _atom_site_label
 _atom_site_symmetry_multiplicity
 _atom_site_fract_x
 _atom_site_fract_y
 _atom_site_fract_z
 _atom_site_occupancy
  K  K0  1  0.50000000  0.00000000  0.50000000  1
  K  K1  1  0.50000000  0.50000000  -0.00000000  1
  K  K2  1  -0.00000000  0.50000000  0.00000000  1
  K  K3  1  -0.00000000  0.00000000  0.50000000  1
  Sr  Sr0  1  0.00000000  0.50000000  0.50000000  1
  Sr  Sr1  1  0.50000000  0.00000000  0.00000000  1
  Sr  Sr2  1  0.00000000  0.00000000  -0.00000000  1
  Sr  Sr3  1  0.50000000  0.50000000  0.50000000  1
  Sb  Sb0  1  0.75000000  0.75000000  0.75000000  1
  Sb  Sb1  1  0.25000000  0.25000000  0.75000000  1
  Sb  Sb2  1  0.25000000  0.75000000  0.25000000  1
  Sb  Sb3  1  0.75000000  0.25000000  0.25000000  1
  W  W0  1  0.25000000  0.25000000  0.25000000  1
  W  W1  1  0.75000000  0.75000000  0.25000000  1
  W  W2  1  0.75000000  0.25000000  0.75000000  1
  W  W3  1  0.25000000  0.75000000  0.75000000  1
  O  O0  1  0.01908252  0.23508876  0.26368208  1
  O  O1  1  0.98091748  0.76491124  0.26368208  1
  O  O2  1  0.98091748  0.23508876  0.73631792  1
  O  O3  1  0.01908252  0.76491124  0.73631792  1
  O  O4  1  0.26487990  0.01842629  0.22394702  1
  O  O5  1  0.26487990  0.98157371  0.77605298  1
  O  O6  1  0.73512010  0.98157371  0.22394702  1
  O  O7  1  0.73512010  0.01842629  0.77605298  1
  O  O8  1  0.23388935  0.25640054  0.01877956  1
  O  O9  1  0.76611065  0.25640054  0.98122044  1
  O  O10  1  0.23388935  0.74359946  0.98122044  1
  O  O11  1  0.76611065  0.74359946  0.01877956  1
  O  O12  1  0.48091748  0.26491124  0.23631792  1
  O  O13  1  0.51908252  0.73508876  0.23631792  1
  O  O14  1  0.51908252  0.26491124  0.76368208  1
  O  O15  1  0.48091748  0.73508876  0.76368208  1
  O  O16  1  0.23512010  0.48157371  0.27605298  1
  O  O17  1  0.23512010  0.51842629  0.72394702  1
  O  O18  1  0.76487990  0.51842629  0.27605298  1
  O  O19  1  0.76487990  0.48157371  0.72394702  1
  O  O20  1  0.26611065  0.24359946  0.48122044  1
  O  O21  1  0.73388935  0.24359946  0.51877956  1
  O  O22  1  0.26611065  0.75640054  0.51877956  1
  O  O23  1  0.73388935  0.75640054  0.48122044  1
loop_
_geom_bond_atom_site_label_1
_geom_bond_atom_site_label_2
_geom_bond_distance
_geom_bond_site_symmetry_2
K0 O20 2.847689 1_555
K0 O22 2.847689 1_545
K0 O21 2.847689 1_555
K0 O23 2.847689 1_545
K0 O4 3.053000 1_555
K0 O5 3.053000 1_545
K0 O7 3.053000 1_555
K0 O6 3.053000 1_545
K0 O15 3.151725 1_545
K0 O14 3.151725 1_555
K0 O13 3.151725 1_545
K0 O12 3.151725 1_555
K1 O15 2.811654 1_554
K1 O14 2.811654 1_554
K1 O13 2.811654 1_555
K1 O12 2.811654 1_555
K1 O11 3.041005 1_555
K1 O8 3.041005 1_555
K1 O9 3.041005 1_554
K1 O10 3.041005 1_554
K1 O19 3.220594 1_554
K1 O18 3.220594 1_555
K1 O17 3.220594 1_554
K1 O16 3.220594 1_555
K2 O10 2.847689 1_554
K2 O11 2.847689 1_455
K2 O8 2.847689 1_555
K2 O9 2.847689 1_454
K2 O16 3.053000 1_555
K2 O17 3.053000 1_554
K2 O19 3.053000 1_454
K2 O18 3.053000 1_455
K2 O1 3.151725 1_455
K2 O0 3.151725 1_555
K2 O2 3.151725 1_454
K2 O3 3.151725 1_554
K3 O3 2.811654 1_545
K3 O2 2.811654 1_455
K3 O1 2.811654 1_445
K3 O0 2.811654 1_555
K3 O20 3.041005 1_555
K3 O22 3.041005 1_545
K3 O23 3.041005 1_445
K3 O21 3.041005 1_455
K3 O7 3.220594 1_455
K3 O6 3.220594 1_445
K3 O4 3.220594 1_555
K3 O5 3.220594 1_545
O0 W0 1.948552 1_555
O0 Sb3 2.268310 1_455
O0 Sr2 2.978795 1_555
O0 Sr0 2.994253 1_555
O1 W1 1.948552 1_555
O1 Sb2 2.268310 1_655
O1 Sr2 2.978795 1_665
O1 Sr0 2.994253 1_655
O2 W2 1.948552 1_555
O2 Sb1 2.268310 1_655
O2 Sr2 2.978795 1_656
O2 Sr0 2.994253 1_655
O3 W3 1.948552 1_555
O3 Sb0 2.268310 1_455
O3 Sr2 2.978795 1_566
O3 Sr0 2.994253 1_555
O4 W0 1.968847 1_555
O4 Sb2 2.277371 1_545
O4 Sr1 2.734579 1_555
O4 Sr2 2.920503 1_555
O5 W3 1.968847 1_555
O5 Sb1 2.277371 1_565
O5 Sr1 2.734579 1_566
O5 Sr2 2.920503 1_566
O6 W1 1.968847 1_555
O6 Sb3 2.277371 1_565
O6 Sr1 2.734579 1_565
O6 Sr2 2.920503 1_665
O7 W2 1.968847 1_555
O7 Sb0 2.277371 1_545
O7 Sr1 2.734579 1_556
O7 Sr2 2.920503 1_656
O8 W0 1.950132 1_555
O8 Sb1 2.265261 1_554
O8 Sr2 2.926499 1_555
O8 Sr1 3.114928 1_555
O9 W2 1.950132 1_555
O9 Sb3 2.265261 1_556
O9 Sr2 2.926499 1_656
O9 Sr1 3.114928 1_556
O10 W3 1.950132 1_555
O10 Sb2 2.265261 1_556
O10 Sr2 2.926499 1_566
O10 Sr1 3.114928 1_566
O11 W1 1.950132 1_555
O11 Sb0 2.265261 1_554
O11 Sr2 2.926499 1_665
O11 Sr1 3.114928 1_565
O12 W0 1.948552 1_555
O12 Sb3 2.268310 1_555
O12 Sr3 2.978795 1_555
O12 Sr1 2.994253 1_555
O13 W1 1.948552 1_555
O13 Sb2 2.268310 1_555
O13 Sr3 2.978795 1_555
O13 Sr1 2.994253 1_565
O14 W2 1.948552 1_555
O14 Sb1 2.268310 1_555
O14 Sr3 2.978795 1_555
O14 Sr1 2.994253 1_556
O15 W3 1.948552 1_555
O15 Sb0 2.268310 1_555
O15 Sr3 2.978795 1_555
O15 Sr1 2.994253 1_566
O16 W0 1.968847 1_555
O16 Sb2 2.277371 1_555
O16 Sr0 2.734579 1_555
O16 Sr3 2.920503 1_555
O17 W3 1.968847 1_555
O17 Sb1 2.277371 1_555
O17 Sr0 2.734579 1_555
O17 Sr3 2.920503 1_555
O18 W1 1.968847 1_555
O18 Sb3 2.277371 1_555
O18 Sr0 2.734579 1_655
O18 Sr3 2.920503 1_555
O19 W2 1.968847 1_555
O19 Sb0 2.277371 1_555
O19 Sr0 2.734579 1_655
O19 Sr3 2.920503 1_555
O20 W0 1.950132 1_555
O20 Sb1 2.265261 1_555
O20 Sr3 2.926499 1_555
O20 Sr0 3.114928 1_555
O21 W2 1.950132 1_555
O21 Sb3 2.265261 1_555
O21 Sr3 2.926499 1_555
O21 Sr0 3.114928 1_655
O22 W3 1.950132 1_555
O22 Sb2 2.265261 1_555
O22 Sr3 2.926499 1_555
O22 Sr0 3.114928 1_555
O23 W1 1.950132 1_555
O23 Sb0 2.265261 1_555
O23 Sr3 2.926499 1_555
O23 Sr0 3.114928 1_655
