# generated using pymatgen
data_LaAlO3
_symmetry_space_group_name_H-M   'P 1'
_cell_length_a   5.35528911
_cell_length_b   5.35528911
_cell_length_c   5.35528911
_cell_angle_alpha   90.19529289
_cell_angle_beta   119.77498161
_cell_angle_gamma   119.99976855
_symmetry_Int_Tables_number   1
_chemical_formula_structural   LaAlO3
_chemical_formula_sum   'La2 Al2 O6'
_cell_volume   108.78465401
_cell_formula_units_Z   2
loop_
 _symmetry_equiv_pos_site_id
 _symmetry_equiv_pos_as_xyz
  1  'x, y, z'
loop_
 _atom_site_type_symbol
 _atom_site_label
 _atom_site_symmetry_multiplicity
 _atom_site_fract_x
 _atom_site_fract_y
 _atom_site_fract_z
 _atom_site_occupancy
  La  La0  1  0.00103921  0.25000000  0.75103921  1
  La  La1  1  0.99896079  0.75000000  0.24896079  1
  Al  Al0  1  0.50000000  0.50000000  0.50000000  1
  Al  Al1  1  0.50000000  -0.00000000  -0.00000000  1
  O  O0  1  0.50000000  0.27061796  0.77061796  1
  O  O1  1  0.00000000  0.77061796  0.77061796  1
  O  O2  1  0.50000000  0.72938204  0.22938204  1
  O  O3  1  -0.00000000  0.22938204  0.22938204  1
  O  O4  1  0.54021295  0.25000000  0.29021295  1
  O  O5  1  0.45978705  0.75000000  0.70978705  1
loop_
_geom_bond_atom_site_label_1
_geom_bond_atom_site_label_2
_geom_bond_distance
_geom_bond_site_symmetry_2
La0 O4 2.476247 1_455
La0 O2 2.567064 1_556
La0 O1 2.567064 1_545
La0 O0 2.567064 1_555
La0 O3 2.567064 1_556
La0 O5 2.686814 1_555
La0 O5 2.686814 1_445
La0 O3 2.792562 1_555
La0 O0 2.792562 1_455
La0 O2 2.792562 1_445
La0 O1 2.792562 1_555
La0 O4 2.897246 1_556
La1 O5 2.476247 1_655
La1 O1 2.567064 1_654
La1 O3 2.567064 1_665
La1 O2 2.567064 1_555
La1 O0 2.567064 1_554
La1 O4 2.686814 1_555
La1 O4 2.686814 1_665
La1 O2 2.792562 1_655
La1 O0 2.792562 1_665
La1 O3 2.792562 1_655
La1 O1 2.792562 1_655
La1 O5 2.897246 1_554
Al0 O5 1.902462 1_555
Al0 O4 1.902462 1_555
Al0 O2 1.903000 1_555
Al0 O1 1.903000 1_655
Al0 O3 1.903000 1_555
Al0 O0 1.903000 1_555
Al1 O5 1.902462 1_544
Al1 O4 1.902462 1_555
Al1 O0 1.903000 1_554
Al1 O3 1.903000 1_655
Al1 O1 1.903000 1_544
Al1 O2 1.903000 1_545
