# generated using pymatgen
data_SrZnCo(PO4)2
_symmetry_space_group_name_H-M   'P 1'
_cell_length_a   5.50506100
_cell_length_b   7.01262939
_cell_length_c   9.43528833
_cell_angle_alpha   110.64882519
_cell_angle_beta   102.07411238
_cell_angle_gamma   98.16641400
_symmetry_Int_Tables_number   1
_chemical_formula_structural   SrZnCo(PO4)2
_chemical_formula_sum   'Sr2 Zn2 Co2 P4 O16'
_cell_volume   323.90648350
_cell_formula_units_Z   2
loop_
 _symmetry_equiv_pos_site_id
 _symmetry_equiv_pos_as_xyz
  1  'x, y, z'
loop_
 _atom_site_type_symbol
 _atom_site_label
 _atom_site_symmetry_multiplicity
 _atom_site_fract_x
 _atom_site_fract_y
 _atom_site_fract_z
 _atom_site_occupancy
  Sr  Sr0  1  0.19818700  0.74937600  0.05062900  1
  Sr  Sr1  1  0.80181300  0.25062400  0.94937100  1
  Zn  Zn0  1  0.34499200  0.73379100  0.64550200  1
  Zn  Zn1  1  0.65500800  0.26620900  0.35449800  1
  Co  Co0  1  0.07382400  0.28937700  0.55965700  1
  Co  Co1  1  0.92617600  0.71062300  0.44034300  1
  P  P0  1  0.15899800  0.18884100  0.23624800  1
  P  P1  1  0.84100200  0.81115900  0.76375200  1
  P  P2  1  0.54005100  0.72069300  0.30271700  1
  P  P3  1  0.45994900  0.27930700  0.69728300  1
  O  O0  1  0.91790800  0.66253600  0.89329900  1
  O  O1  1  0.45306800  0.26291800  0.21219300  1
  O  O2  1  0.89722200  0.03467200  0.76047400  1
  O  O3  1  0.25754400  0.41941700  0.69550500  1
  O  O4  1  0.54693200  0.73708200  0.78780700  1
  O  O5  1  0.42061200  0.17218200  0.57800700  1
  O  O6  1  0.57938800  0.82781800  0.42199300  1
  O  O7  1  0.39622400  0.13011900  0.86555900  1
  O  O8  1  0.10277800  0.96532800  0.23952600  1
  O  O9  1  0.60377600  0.86988100  0.13444100  1
  O  O10  1  0.08209200  0.33746400  0.10670100  1
  O  O11  1  0.97792100  0.19565200  0.39585700  1
  O  O12  1  0.02207900  0.80434800  0.60414300  1
  O  O13  1  0.25502300  0.58474700  0.36733000  1
  O  O14  1  0.74245600  0.58058300  0.30449500  1
  O  O15  1  0.74497700  0.41525300  0.63267000  1
loop_
_geom_bond_atom_site_label_1
_geom_bond_atom_site_label_2
_geom_bond_distance
_geom_bond_site_symmetry_2
Co0 O3 1.367001 1_555
Co0 O11 1.393893 1_455
Co0 O15 2.253419 1_455
Co1 O14 1.367001 1_555
Co1 O12 1.393893 1_655
Co1 O13 2.253419 1_655
O0 Sr0 1.758531 1_656
O0 P1 1.888624 1_555
O1 Zn1 1.544540 1_555
O1 P0 1.714664 1_555
O2 P1 1.566495 1_545
O2 Sr1 2.111829 1_555
O3 P3 1.588098 1_555
O3 Zn0 2.416945 1_555
O4 Zn0 1.544540 1_555
O4 P1 1.714664 1_555
O5 P3 1.064580 1_555
O6 P2 1.064580 1_555
O7 Sr1 2.139813 1_555
O7 P3 2.244722 1_555
O8 P0 1.566495 1_565
O8 Sr0 2.111829 1_555
O9 Sr0 2.139813 1_555
O9 P2 2.244722 1_555
O10 Sr1 1.758531 1_454
O10 P0 1.888624 1_555
O11 Zn1 1.911284 1_555
O11 P0 1.963340 1_655
O12 Zn0 1.911284 1_555
O12 P1 1.963340 1_455
O13 P2 2.031675 1_555
O13 Zn0 2.366596 1_555
O14 P2 1.588098 1_555
O14 Zn1 2.416945 1_555
O15 P3 2.031675 1_555
O15 Zn1 2.366596 1_555
