# generated using pymatgen
data_La2RuAu
_symmetry_space_group_name_H-M   'P 1'
_cell_length_a   10.79913790
_cell_length_b   10.79913790
_cell_length_c   10.79913790
_cell_angle_alpha   124.02485337
_cell_angle_beta   121.25503695
_cell_angle_gamma   85.50334595
_symmetry_Int_Tables_number   1
_chemical_formula_structural   La2RuAu
_chemical_formula_sum   'La2 Ru1 Au1'
_cell_volume   851.45250742
_cell_formula_units_Z   1
loop_
 _symmetry_equiv_pos_site_id
 _symmetry_equiv_pos_as_xyz
  1  'x, y, z'
loop_
 _atom_site_type_symbol
 _atom_site_label
 _atom_site_symmetry_multiplicity
 _atom_site_fract_x
 _atom_site_fract_y
 _atom_site_fract_z
 _atom_site_occupancy
  La  La0  1  0.00000000  0.22618800  0.22618800  1
  La  La1  1  0.00000000  0.77381200  0.77381200  1
  Ru  Ru0  1  0.00000000  0.00000000  0.00000000  1
  Au  Au0  1  0.00000000  0.50000000  0.50000000  1
loop_
_geom_bond_atom_site_label_1
_geom_bond_atom_site_label_2
_geom_bond_distance
_geom_bond_site_symmetry_2
La0 Ru0 2.292560 1_555
La1 Ru0 2.292560 1_566
Au0 La1 2.775260 1_555
Au0 La0 2.775260 1_555
