# generated using pymatgen
data_SrCa7Ti2Mn6O22
_symmetry_space_group_name_H-M   'P 1'
_cell_length_a   10.92256654
_cell_length_b   15.77436492
_cell_length_c   10.88903910
_cell_angle_alpha   89.97552677
_cell_angle_beta   91.08859993
_cell_angle_gamma   90.28401354
_symmetry_Int_Tables_number   1
_chemical_formula_structural   SrCa7Ti2Mn6O22
_chemical_formula_sum   'Sr4 Ca28 Ti8 Mn24 O88'
_cell_volume   1875.78210433
_cell_formula_units_Z   4
loop_
 _symmetry_equiv_pos_site_id
 _symmetry_equiv_pos_as_xyz
  1  'x, y, z'
loop_
 _atom_site_type_symbol
 _atom_site_label
 _atom_site_symmetry_multiplicity
 _atom_site_fract_x
 _atom_site_fract_y
 _atom_site_fract_z
 _atom_site_occupancy
  Sr  Sr0  1  0.98840022  0.11692814  0.51205796  1
  Sr  Sr1  1  0.50175358  0.39090562  0.00179026  1
  Sr  Sr2  1  0.24331183  0.39298848  0.24751814  1
  Sr  Sr3  1  0.22366525  0.11992676  0.22637993  1
  Ca  Ca0  1  0.98022773  0.11472163  0.01296581  1
  Ca  Ca1  1  0.01106366  0.62589358  0.49571959  1
  Ca  Ca2  1  0.01273371  0.62672261  0.99654755  1
  Ca  Ca3  1  0.54603930  0.12387745  0.48396191  1
  Ca  Ca4  1  0.54587283  0.11950936  0.98383627  1
  Ca  Ca5  1  0.52340298  0.62485089  0.49991785  1
  Ca  Ca6  1  0.52320498  0.62482756  0.00134417  1
  Ca  Ca7  1  0.49783596  0.39445182  0.50435799  1
  Ca  Ca8  1  0.49898441  0.85276395  0.99750696  1
  Ca  Ca9  1  0.49758415  0.85412178  0.49816826  1
  Ca  Ca10  1  0.96519331  0.39438128  0.00029120  1
  Ca  Ca11  1  0.96199702  0.39313571  0.49861202  1
  Ca  Ca12  1  0.96631022  0.86321252  0.00772360  1
  Ca  Ca13  1  0.96597552  0.86382004  0.50931691  1
  Ca  Ca14  1  0.23609206  0.39768331  0.73622284  1
  Ca  Ca15  1  0.23126982  0.85564155  0.25996813  1
  Ca  Ca16  1  0.23144350  0.85838690  0.75816269  1
  Ca  Ca17  1  0.73628187  0.39890583  0.25664664  1
  Ca  Ca18  1  0.73059073  0.39262124  0.75187033  1
  Ca  Ca19  1  0.72755610  0.85922110  0.24760200  1
  Ca  Ca20  1  0.72896132  0.85894930  0.74761783  1
  Ca  Ca21  1  0.22358298  0.11385403  0.73664124  1
  Ca  Ca22  1  0.26908574  0.62830902  0.25891338  1
  Ca  Ca23  1  0.27038723  0.62871631  0.75914537  1
  Ca  Ca24  1  0.77037563  0.11807892  0.24797593  1
  Ca  Ca25  1  0.77652735  0.11986185  0.75483697  1
  Ca  Ca26  1  0.76812097  0.62513848  0.25382323  1
  Ca  Ca27  1  0.76954353  0.62530158  0.75699767  1
  Ti  Ti0  1  0.98828311  0.98526529  0.26096108  1
  Ti  Ti1  1  0.98899818  0.98653170  0.76104133  1
  Ti  Ti2  1  0.23374387  0.98644727  0.00769783  1
  Ti  Ti3  1  0.23275307  0.99097279  0.51363004  1
  Ti  Ti4  1  0.26438250  0.23504253  0.93287167  1
  Ti  Ti5  1  0.27110215  0.23283988  0.45063863  1
  Ti  Ti6  1  0.97457847  0.25868107  0.27113149  1
  Ti  Ti7  1  0.98655576  0.25877650  0.77491900  1
  Mn  Mn0  1  0.00313274  0.50541698  0.24686603  1
  Mn  Mn1  1  0.00252121  0.50381701  0.74802823  1
  Mn  Mn2  1  0.50293581  0.98878840  0.22955704  1
  Mn  Mn3  1  0.50577511  0.98827533  0.73509829  1
  Mn  Mn4  1  0.49878726  0.50740462  0.25238409  1
  Mn  Mn5  1  0.49674910  0.50730731  0.75068337  1
  Mn  Mn6  1  0.24994099  0.51207299  0.00028564  1
  Mn  Mn7  1  0.24825501  0.51323502  0.50406207  1
  Mn  Mn8  1  0.74558781  0.99356039  0.99377626  1
  Mn  Mn9  1  0.73999161  0.99507708  0.49290042  1
  Mn  Mn10  1  0.75058415  0.50575625  0.00117384  1
  Mn  Mn11  1  0.74901719  0.50644555  0.50484150  1
  Mn  Mn12  1  0.25023356  0.74767282  0.00790357  1
  Mn  Mn13  1  0.24901050  0.74940221  0.50740416  1
  Mn  Mn14  1  0.74808800  0.25164255  0.00568719  1
  Mn  Mn15  1  0.74453820  0.25259369  0.50701388  1
  Mn  Mn16  1  0.75145267  0.74532843  0.00088908  1
  Mn  Mn17  1  0.75018139  0.74615553  0.50040694  1
  Mn  Mn18  1  0.00066344  0.74667961  0.25081299  1
  Mn  Mn19  1  0.00177828  0.74595040  0.75064169  1
  Mn  Mn20  1  0.52243547  0.25844571  0.25401250  1
  Mn  Mn21  1  0.51548963  0.25647570  0.75220601  1
  Mn  Mn22  1  0.49864375  0.74545483  0.25403663  1
  Mn  Mn23  1  0.49893080  0.74549323  0.75351182  1
  O  O0  1  0.10776378  0.77828195  0.11016200  1
  O  O1  1  0.11027838  0.77850089  0.60717082  1
  O  O2  1  0.58641478  0.24683317  0.08749019  1
  O  O3  1  0.58475881  0.25619995  0.58488109  1
  O  O4  1  0.60984922  0.76181198  0.11296247  1
  O  O5  1  0.61177698  0.76122429  0.61099115  1
  O  O6  1  0.39750222  0.19101264  0.35464097  1
  O  O7  1  0.39648323  0.18207613  0.85458987  1
  O  O8  1  0.39588006  0.72959682  0.40133336  1
  O  O9  1  0.39308250  0.72869950  0.90461553  1
  O  O10  1  0.90529081  0.24792399  0.41999096  1
  O  O11  1  0.91853588  0.24512789  0.92598950  1
  O  O12  1  0.89752720  0.73079368  0.39317849  1
  O  O13  1  0.89417379  0.73097200  0.89625346  1
  O  O14  1  0.15690523  0.25054034  0.32823232  1
  O  O15  1  0.17347536  0.25592207  0.79022627  1
  O  O16  1  0.14941252  0.73580383  0.35432103  1
  O  O17  1  0.14867102  0.73512497  0.85548251  1
  O  O18  1  0.66129163  0.22308535  0.35609567  1
  O  O19  1  0.66407261  0.22688398  0.85309880  1
  O  O20  1  0.64445028  0.72679045  0.35702393  1
  O  O21  1  0.64450320  0.72677279  0.85981769  1
  O  O22  1  0.35585040  0.76964962  0.14934464  1
  O  O23  1  0.35565293  0.77070548  0.64675632  1
  O  O24  1  0.84311700  0.27206807  0.16160713  1
  O  O25  1  0.85962098  0.27049651  0.66070845  1
  O  O26  1  0.85928096  0.77130762  0.14482147  1
  O  O27  1  0.86075442  0.77034093  0.64371506  1
  O  O28  1  0.36177856  0.49242314  0.13728834  1
  O  O29  1  0.35516953  0.49226527  0.64268670  1
  O  O30  1  0.36469319  0.02756521  0.10895617  1
  O  O31  1  0.35426485  0.01661938  0.63715609  1
  O  O32  1  0.86297113  0.48394117  0.14130495  1
  O  O33  1  0.85926042  0.47981424  0.64341569  1
  O  O34  1  0.85830409  0.97721014  0.14375929  1
  O  O35  1  0.85775855  0.98168682  0.64660930  1
  O  O36  1  0.14623650  0.01523524  0.36451121  1
  O  O37  1  0.15890216  0.00880820  0.85774676  1
  O  O38  1  0.14581772  0.51974429  0.35435845  1
  O  O39  1  0.15174963  0.51668341  0.84886914  1
  O  O40  1  0.63128674  0.02998604  0.34693208  1
  O  O41  1  0.64007030  0.02578767  0.84776958  1
  O  O42  1  0.64180835  0.52394994  0.36306314  1
  O  O43  1  0.64172215  0.52065147  0.85758653  1
  O  O44  1  0.38889849  0.51620676  0.39940928  1
  O  O45  1  0.39335111  0.52106132  0.89439792  1
  O  O46  1  0.88488041  0.01163369  0.38929313  1
  O  O47  1  0.89361068  0.01107360  0.89625398  1
  O  O48  1  0.88925712  0.51581898  0.39448352  1
  O  O49  1  0.89788836  0.51859892  0.88991053  1
  O  O50  1  0.11168094  0.47870308  0.09820189  1
  O  O51  1  0.10814574  0.47501121  0.60089215  1
  O  O52  1  0.10843268  0.98119692  0.11513224  1
  O  O53  1  0.10477521  0.97783883  0.61361219  1
  O  O54  1  0.61666565  0.49442692  0.12020911  1
  O  O55  1  0.60869656  0.48959204  0.61427538  1
  O  O56  1  0.60236900  0.98272781  0.08221154  1
  O  O57  1  0.59538814  0.98565461  0.58086682  1
  O  O58  1  0.00783440  0.37523764  0.27809740  1
  O  O59  1  0.01263429  0.37695774  0.78759631  1
  O  O60  1  0.00795111  0.87385724  0.29522539  1
  O  O61  1  0.00776912  0.87505209  0.79486800  1
  O  O62  1  0.50033675  0.38195989  0.27924406  1
  O  O63  1  0.49383901  0.38108381  0.77145139  1
  O  O64  1  0.50427035  0.86851258  0.28357756  1
  O  O65  1  0.50579421  0.86763677  0.78457970  1
  O  O66  1  0.48418653  0.62709848  0.21548263  1
  O  O67  1  0.48604266  0.62648289  0.71285279  1
  O  O68  1  0.99100283  0.13589655  0.22682675  1
  O  O69  1  0.00193339  0.13198072  0.74036976  1
  O  O70  1  0.99301086  0.62879627  0.21239182  1
  O  O71  1  0.99370617  0.62256602  0.71144013  1
  O  O72  1  0.18643705  0.15193911  0.01388167  1
  O  O73  1  0.21787420  0.14050322  0.53443094  1
  O  O74  1  0.22866304  0.63320299  0.04347721  1
  O  O75  1  0.22869770  0.63375495  0.54305142  1
  O  O76  1  0.75850101  0.12009609  0.03270712  1
  O  O77  1  0.75256229  0.12772561  0.54065610  1
  O  O78  1  0.75003599  0.62634053  0.03796836  1
  O  O79  1  0.75023291  0.62510964  0.54132148  1
  O  O80  1  0.30022181  0.33064204  0.52958363  1
  O  O81  1  0.29065993  0.32786567  0.02271359  1
  O  O82  1  0.27980380  0.88487065  0.46941787  1
  O  O83  1  0.27792393  0.87892862  0.97387513  1
  O  O84  1  0.74303497  0.37843705  0.47284511  1
  O  O85  1  0.74697981  0.38045020  0.97024057  1
  O  O86  1  0.74804775  0.86942192  0.46375508  1
  O  O87  1  0.74976569  0.87012856  0.96164389  1
loop_
_geom_bond_atom_site_label_1
_geom_bond_atom_site_label_2
_geom_bond_distance
_geom_bond_site_symmetry_2
Ca0 O47 2.263653 1_554
Ca0 O72 2.324612 1_655
Ca0 O68 2.353362 1_555
Ca0 O11 2.360173 1_554
Ca0 O76 2.437307 1_555
Ca0 O52 2.757348 1_645
Ca1 O12 2.342840 1_455
Ca1 O71 2.360756 1_455
Ca1 O75 2.425346 1_555
Ca1 O48 2.433766 1_455
Ca1 O38 2.729879 1_555
Ca1 O16 2.778533 1_555
Ca1 O51 2.842053 1_555
Ca1 O1 2.892897 1_555
Ca2 O13 2.353674 1_455
Ca2 O70 2.364516 1_456
Ca2 O49 2.399168 1_455
Ca2 O74 2.405407 1_556
Ca2 O17 2.747243 1_555
Ca2 O50 2.796870 1_556
Ca2 O39 2.832979 1_555
Ca2 O0 2.872762 1_556
Ca3 O40 2.314165 1_555
Ca3 O77 2.327879 1_555
Ca3 O6 2.380260 1_555
Ca3 O3 2.391412 1_555
Ca3 O18 2.453073 1_555
Ca3 O57 2.479135 1_545
Ca4 O2 2.340522 1_556
Ca4 O41 2.348271 1_555
Ca4 O7 2.354737 1_555
Ca4 O76 2.372733 1_556
Ca4 O56 2.483911 1_546
Ca4 O19 2.570679 1_555
Ca4 O30 2.819275 1_556
Ca5 O67 2.362088 1_555
Ca5 O8 2.405634 1_555
Ca5 O44 2.491744 1_555
Ca5 O79 2.509794 1_555
Ca5 O42 2.553890 1_555
Ca5 O20 2.609571 1_555
Ca5 O55 2.635196 1_555
Ca5 O5 2.638095 1_555
Ca6 O66 2.378657 1_555
Ca6 O9 2.403929 1_554
Ca6 O45 2.441917 1_554
Ca6 O78 2.501975 1_555
Ca6 O21 2.602052 1_554
Ca6 O54 2.630001 1_555
Ca6 O43 2.631908 1_554
Ca6 O4 2.642039 1_555
Ca7 O55 2.253791 1_555
Ca7 O80 2.397558 1_555
Ca7 O62 2.459946 1_555
Ca7 O44 2.525791 1_555
Ca7 O3 2.532492 1_555
Ca7 O29 2.681935 1_555
Ca7 O84 2.719566 1_555
Ca7 O63 2.917073 1_555
Ca7 O42 3.011697 1_555
Ca8 O4 2.250139 1_556
Ca8 O65 2.332868 1_555
Ca8 O83 2.460241 1_555
Ca8 O9 2.475060 1_555
Ca8 O56 2.503571 1_556
Ca8 O22 2.640601 1_556
Ca8 O87 2.786347 1_555
Ca9 O5 2.273928 1_555
Ca9 O64 2.350071 1_555
Ca9 O82 2.444299 1_555
Ca9 O8 2.477899 1_555
Ca9 O57 2.490015 1_555
Ca9 O23 2.612632 1_555
Ca9 O86 2.777604 1_555
Ca10 O50 2.319757 1_655
Ca10 O32 2.383885 1_555
Ca10 O59 2.399096 1_654
Ca10 O85 2.408618 1_554
Ca10 O49 2.408993 1_554
Ca10 O11 2.536034 1_554
Ca10 O24 2.940529 1_555
Ca11 O51 2.317311 1_655
Ca11 O48 2.375123 1_555
Ca11 O33 2.387303 1_555
Ca11 O84 2.412763 1_555
Ca11 O58 2.478660 1_655
Ca11 O10 2.516140 1_555
Ca11 O25 2.856399 1_555
Ca12 O0 2.319483 1_655
Ca12 O61 2.377137 1_654
Ca12 O26 2.396810 1_555
Ca12 O87 2.411506 1_554
Ca12 O13 2.528852 1_554
Ca12 O34 2.628558 1_555
Ca12 O52 2.673146 1_655
Ca12 O47 2.742867 1_564
Ca13 O1 2.320982 1_655
Ca13 O27 2.383741 1_555
Ca13 O60 2.389473 1_655
Ca13 O86 2.424273 1_555
Ca13 O12 2.551931 1_555
Ca13 O53 2.594672 1_655
Ca13 O35 2.679611 1_555
Ca13 O46 2.811270 1_565
Ca14 O29 2.232666 1_555
Ca14 O51 2.355758 1_555
Ca14 O15 2.411042 1_555
Ca14 O39 2.437004 1_555
Ca14 O59 2.533932 1_555
Ca14 O80 2.596391 1_555
Ca14 O63 2.847382 1_555
Ca15 O22 2.285742 1_555
Ca15 O16 2.333440 1_555
Ca15 O82 2.376503 1_555
Ca15 O0 2.423151 1_555
Ca15 O60 2.494463 1_555
Ca15 O52 2.855406 1_555
Ca16 O23 2.303870 1_555
Ca16 O17 2.395455 1_555
Ca16 O83 2.415323 1_555
Ca16 O1 2.438292 1_555
Ca16 O61 2.498228 1_555
Ca16 O53 2.807630 1_555
Ca17 O32 2.310358 1_555
Ca17 O84 2.375902 1_555
Ca17 O54 2.475573 1_555
Ca17 O42 2.523063 1_555
Ca17 O24 2.550809 1_555
Ca17 O62 2.605915 1_555
Ca17 O48 2.884839 1_555
Ca18 O33 2.303067 1_555
Ca18 O85 2.388894 1_555
Ca18 O55 2.509925 1_555
Ca18 O43 2.531796 1_555
Ca18 O25 2.600867 1_555
Ca18 O63 2.604209 1_555
Ca18 O19 2.930379 1_555
Ca19 O26 2.308264 1_555
Ca19 O86 2.365552 1_555
Ca19 O4 2.464572 1_555
Ca19 O64 2.482507 1_555
Ca19 O20 2.574446 1_555
Ca19 O34 2.610623 1_555
Ca19 O56 2.972972 1_555
Ca20 O27 2.321453 1_555
Ca20 O87 2.343923 1_555
Ca20 O5 2.477509 1_555
Ca20 O65 2.482558 1_555
Ca20 O21 2.590846 1_555
Ca20 O35 2.639565 1_555
Ca21 O37 2.237370 1_555
Ca21 O73 2.241230 1_555
Ca21 O31 2.376009 1_555
Ca21 O15 2.384878 1_555
Ca21 O69 2.440322 1_555
Ca21 O7 2.502604 1_555
Ca21 O53 2.826817 1_545
Ca22 O74 2.380113 1_555
Ca22 O16 2.395468 1_555
Ca22 O66 2.405539 1_555
Ca22 O38 2.419615 1_555
Ca22 O8 2.602770 1_555
Ca22 O44 2.669209 1_555
Ca22 O22 2.704122 1_555
Ca22 O28 2.729205 1_555
Ca23 O75 2.389565 1_555
Ca23 O17 2.400409 1_555
Ca23 O39 2.404329 1_555
Ca23 O67 2.418620 1_555
Ca23 O9 2.587109 1_555
Ca23 O45 2.608080 1_555
Ca23 O29 2.676817 1_555
Ca23 O23 2.720663 1_555
Ca24 O40 2.332399 1_555
Ca24 O76 2.345405 1_555
Ca24 O18 2.371482 1_555
Ca24 O68 2.439991 1_555
Ca24 O46 2.587862 1_555
Ca24 O34 2.685649 1_545
Ca24 O24 2.724610 1_555
Ca25 O41 2.341314 1_555
Ca25 O77 2.345219 1_555
Ca25 O19 2.361278 1_555
Ca25 O69 2.476472 1_655
Ca25 O47 2.626079 1_555
Ca25 O35 2.643468 1_545
Ca25 O25 2.744511 1_555
Ca26 O78 2.355072 1_555
Ca26 O20 2.395701 1_555
Ca26 O42 2.430045 1_555
Ca26 O70 2.506256 1_555
Ca26 O12 2.641114 1_555
Ca26 O48 2.648336 1_555
Ca26 O32 2.758398 1_555
Ca26 O26 2.781436 1_555
Ca27 O79 2.353966 1_555
Ca27 O21 2.400458 1_555
Ca27 O43 2.430583 1_555
Ca27 O71 2.507985 1_555
Ca27 O13 2.613843 1_555
Ca27 O49 2.614790 1_555
Ca27 O27 2.787532 1_555
Ca27 O33 2.797787 1_555
Mn0 O32 1.925636 1_455
Mn0 O38 1.943559 1_555
Mn0 O70 1.985166 1_455
Mn0 O48 2.058152 1_455
Mn0 O50 2.069369 1_555
Mn0 O58 2.082048 1_555
Mn1 O71 1.917429 1_455
Mn1 O33 1.953526 1_455
Mn1 O49 1.953828 1_455
Mn1 O39 1.957701 1_555
Mn1 O51 2.044622 1_555
Mn1 O59 2.049875 1_555
Mn2 O56 1.957118 1_555
Mn2 O40 1.986164 1_565
Mn2 O64 1.986171 1_555
Mn2 O30 2.076496 1_565
Mn3 O57 1.960403 1_555
Mn3 O65 1.977582 1_555
Mn3 O41 1.982591 1_565
Mn3 O31 2.003951 1_565
Mn4 O66 1.936930 1_555
Mn4 O28 1.947183 1_555
Mn4 O54 1.960713 1_555
Mn4 O42 1.971198 1_555
Mn4 O62 2.000293 1_555
Mn4 O44 2.024317 1_555
Mn5 O67 1.927992 1_555
Mn5 O29 1.938588 1_555
Mn5 O43 1.957969 1_555
Mn5 O45 1.959944 1_555
Mn5 O55 1.962713 1_555
Mn5 O63 2.003965 1_555
Mn6 O50 1.935791 1_555
Mn6 O28 1.935958 1_555
Mn6 O39 1.951283 1_554
Mn6 O45 1.967095 1_554
Mn6 O74 1.983808 1_555
Mn7 O29 1.920446 1_555
Mn7 O44 1.930400 1_555
Mn7 O75 1.961713 1_555
Mn7 O38 1.962509 1_555
Mn7 O51 1.966949 1_555
Mn8 O56 1.859585 1_556
Mn8 O47 1.969408 1_565
Mn8 O87 1.979296 1_555
Mn8 O41 2.012444 1_565
Mn8 O34 2.043499 1_556
Mn8 O76 2.044348 1_566
Mn9 O57 1.867961 1_555
Mn9 O46 1.977116 1_565
Mn9 O86 2.010132 1_555
Mn9 O40 2.042889 1_565
Mn9 O35 2.102671 1_555
Mn9 O77 2.159390 1_565
Mn10 O78 1.944108 1_555
Mn10 O43 1.960991 1_554
Mn10 O32 1.971351 1_555
Mn10 O54 1.980117 1_555
Mn10 O85 2.005328 1_554
Mn10 O49 2.041620 1_554
Mn11 O79 1.913631 1_555
Mn11 O42 1.940370 1_555
Mn11 O33 1.959276 1_555
Mn11 O48 1.969726 1_555
Mn11 O55 1.976056 1_555
Mn11 O84 2.049748 1_555
Mn12 O74 1.861377 1_555
Mn12 O22 1.937022 1_555
Mn12 O9 1.964842 1_554
Mn12 O17 1.988112 1_554
Mn12 O0 1.992063 1_555
Mn12 O83 2.124392 1_554
Mn13 O75 1.877893 1_555
Mn13 O23 1.923964 1_555
Mn13 O1 1.938277 1_555
Mn13 O16 1.984238 1_555
Mn13 O8 2.020090 1_555
Mn13 O82 2.201838 1_555
Mn14 O19 1.922088 1_554
Mn14 O2 1.993976 1_555
Mn14 O24 1.998488 1_555
Mn14 O85 2.068085 1_554
Mn14 O11 2.071977 1_554
Mn14 O76 2.099031 1_555
Mn15 O18 1.919304 1_555
Mn15 O3 1.955798 1_555
Mn15 O77 2.005376 1_555
Mn15 O10 2.012677 1_555
Mn15 O84 2.019599 1_555
Mn15 O25 2.092281 1_555
Mn16 O78 1.919775 1_555
Mn16 O21 1.933595 1_554
Mn16 O13 1.962344 1_554
Mn16 O26 1.984206 1_555
Mn16 O4 2.006263 1_555
Mn16 O87 2.014412 1_554
Mn17 O20 1.947580 1_555
Mn17 O79 1.960524 1_555
Mn17 O5 1.965909 1_555
Mn17 O86 1.984979 1_555
Mn17 O27 1.990889 1_555
Mn17 O12 2.021808 1_555
Mn18 O70 1.907271 1_455
Mn18 O12 1.948908 1_455
Mn18 O26 1.950784 1_455
Mn18 O16 1.967875 1_555
Mn18 O0 2.006058 1_555
Mn18 O60 2.064611 1_555
Mn19 O27 1.952867 1_455
Mn19 O17 1.959501 1_555
Mn19 O71 1.993914 1_455
Mn19 O13 2.004737 1_455
Mn19 O1 2.042644 1_555
Mn19 O61 2.093285 1_555
Mn20 O18 1.947004 1_555
Mn20 O2 1.964572 1_555
Mn20 O62 1.984310 1_555
Mn20 O6 2.058079 1_555
Mn21 O3 1.986099 1_555
Mn21 O63 1.992566 1_555
Mn21 O19 1.999506 1_555
Mn21 O7 2.085357 1_555
Mn22 O66 1.918876 1_555
Mn22 O22 1.953405 1_555
Mn22 O20 1.953744 1_555
Mn22 O64 1.968234 1_555
Mn22 O8 1.990048 1_555
Mn22 O4 1.992284 1_555
Mn23 O67 1.932837 1_555
Mn23 O65 1.957177 1_555
Mn23 O21 1.972251 1_555
Mn23 O23 1.973639 1_555
Mn23 O5 2.014587 1_555
Mn23 O9 2.045227 1_555
O2 Sr1 2.622427 1_555
O6 Ti5 1.870450 1_555
O6 Sr3 2.587025 1_555
O7 Ti4 1.888354 1_555
O10 Ti6 1.809441 1_555
O10 Sr0 2.466019 1_555
O11 Ti7 1.830013 1_555
O14 Ti5 1.830390 1_555
O14 Ti6 2.079540 1_455
O14 Sr3 2.460563 1_555
O14 Sr2 2.592515 1_555
O15 Ti4 1.857757 1_555
O15 Ti7 2.045993 1_455
O24 Ti6 1.861839 1_555
O25 Ti7 1.854699 1_555
O28 Sr2 2.369089 1_555
O28 Sr1 2.681573 1_555
O30 Ti2 1.900971 1_545
O30 Sr3 2.495808 1_555
O31 Ti3 1.913565 1_545
O34 Ti0 1.894713 1_555
O35 Ti1 1.882675 1_555
O35 Sr0 2.963197 1_565
O36 Ti3 1.902846 1_545
O36 Ti0 2.095198 1_445
O36 Sr3 2.395253 1_555
O36 Sr0 2.874287 1_455
O37 Ti2 1.846734 1_546
O37 Ti1 2.143804 1_445
O38 Sr2 2.560389 1_555
O43 Sr1 3.008188 1_556
O44 Sr2 2.985686 1_555
O45 Sr1 2.637079 1_556
O46 Ti0 1.861852 1_545
O46 Sr0 2.397938 1_555
O47 Ti1 1.861699 1_545
O50 Sr2 2.543114 1_555
O52 Ti2 1.818916 1_555
O52 Ti0 2.080386 1_455
O52 Sr3 2.785250 1_565
O53 Ti3 1.799152 1_555
O53 Ti1 2.067415 1_455
O53 Sr0 2.761266 1_465
O54 Sr1 2.413443 1_555
O58 Ti6 1.873665 1_455
O58 Sr2 2.613403 1_555
O59 Ti7 1.889186 1_455
O60 Ti0 1.809397 1_455
O61 Ti1 1.808385 1_455
O62 Sr2 2.828230 1_555
O62 Sr1 3.024768 1_555
O63 Sr1 2.512837 1_556
O68 Ti6 2.005951 1_555
O68 Ti0 2.404976 1_545
O68 Sr3 2.555065 1_655
O68 Sr0 3.120800 1_555
O69 Ti7 2.043676 1_455
O69 Ti1 2.309177 1_445
O69 Sr0 2.499019 1_455
O72 Ti4 1.799420 1_554
O72 Sr3 2.395782 1_555
O73 Ti5 1.817329 1_555
O73 Ti3 2.376354 1_545
O73 Sr0 2.539202 1_455
O77 Sr0 2.606992 1_555
O80 Ti5 1.790571 1_555
O80 Sr2 3.273864 1_555
O81 Ti4 1.780388 1_554
O81 Sr1 2.520712 1_555
O81 Sr2 2.714867 1_555
O82 Ti3 1.820920 1_555
O83 Ti2 1.805672 1_556
O85 Sr1 2.712744 1_556
