# generated using pymatgen
data_Bi12Rh3Cl2
_symmetry_space_group_name_H-M   'P 1'
_cell_length_a   18.14307698
_cell_length_b   16.50256214
_cell_length_c   9.16514815
_cell_angle_alpha   84.84808161
_cell_angle_beta   64.94536925
_cell_angle_gamma   30.20654914
_symmetry_Int_Tables_number   1
_chemical_formula_structural   Bi12Rh3Cl2
_chemical_formula_sum   'Bi24 Rh6 Cl4'
_cell_volume   994.92731007
_cell_formula_units_Z   2
loop_
 _symmetry_equiv_pos_site_id
 _symmetry_equiv_pos_as_xyz
  1  'x, y, z'
loop_
 _atom_site_type_symbol
 _atom_site_label
 _atom_site_symmetry_multiplicity
 _atom_site_fract_x
 _atom_site_fract_y
 _atom_site_fract_z
 _atom_site_occupancy
  Bi  Bi0  1  0.80181800  0.30328300  0.45331200  1
  Bi  Bi1  1  0.44158700  0.45331200  0.30328300  1
  Bi  Bi2  1  0.45331200  0.44158700  0.80181800  1
  Bi  Bi3  1  0.30328300  0.80181800  0.44158700  1
  Bi  Bi4  1  0.44818200  0.94671700  0.79668800  1
  Bi  Bi5  1  0.80841300  0.79668800  0.94671700  1
  Bi  Bi6  1  0.79668800  0.80841300  0.44818200  1
  Bi  Bi7  1  0.94671700  0.44818200  0.80841300  1
  Bi  Bi8  1  0.32073800  0.78490600  0.78611700  1
  Bi  Bi9  1  0.10823900  0.78611700  0.78490600  1
  Bi  Bi10  1  0.78611700  0.10823900  0.32073800  1
  Bi  Bi11  1  0.78490600  0.32073800  0.10823900  1
  Bi  Bi12  1  0.92926200  0.46509400  0.46388300  1
  Bi  Bi13  1  0.14176100  0.46388300  0.46509400  1
  Bi  Bi14  1  0.46388300  0.14176100  0.92926200  1
  Bi  Bi15  1  0.46509400  0.92926200  0.14176100  1
  Bi  Bi16  1  0.85672000  0.36697400  0.72063900  1
  Bi  Bi17  1  0.05566700  0.72063900  0.36697400  1
  Bi  Bi18  1  0.72063900  0.05566700  0.85672000  1
  Bi  Bi19  1  0.36697400  0.85672000  0.05566700  1
  Bi  Bi20  1  0.39328000  0.88302600  0.52936100  1
  Bi  Bi21  1  0.19433300  0.52936100  0.88302600  1
  Bi  Bi22  1  0.52936100  0.19433300  0.39328000  1
  Bi  Bi23  1  0.88302600  0.39328000  0.19433300  1
  Rh  Rh0  1  0.62500000  0.62500000  0.62500000  1
  Rh  Rh1  1  0.12500000  0.62500000  0.62500000  1
  Rh  Rh2  1  0.62500000  0.12500000  0.62500000  1
  Rh  Rh3  1  0.62500000  0.62500000  0.12500000  1
  Rh  Rh4  1  0.50000000  0.50000000  0.50000000  1
  Rh  Rh5  1  0.75000000  0.75000000  0.75000000  1
  Cl  Cl0  1  0.79071100  0.20928900  0.79071100  1
  Cl  Cl1  1  0.20928900  0.79071100  0.20928900  1
  Cl  Cl2  1  0.45928900  0.04071100  0.45928900  1
  Cl  Cl3  1  0.04071100  0.45928900  0.04071100  1
loop_
_geom_bond_atom_site_label_1
_geom_bond_atom_site_label_2
_geom_bond_distance
_geom_bond_site_symmetry_2
Bi0 Rh4 2.871675 1_555
Bi0 Rh0 2.956516 1_555
Bi1 Rh4 2.871675 1_555
Bi1 Rh1 2.956516 1_555
Bi2 Rh4 2.871675 1_555
Bi2 Rh2 2.956516 1_555
Bi3 Rh4 2.871675 1_555
Bi3 Rh3 2.956516 1_555
Bi4 Rh5 2.871675 1_555
Bi4 Rh0 2.956516 1_555
Bi5 Rh5 2.871675 1_555
Bi5 Rh1 2.956516 1_655
Bi6 Rh5 2.871675 1_555
Bi6 Rh2 2.956516 1_565
Bi7 Rh5 2.871675 1_555
Bi7 Rh3 2.956516 1_556
Bi8 Rh4 2.849634 1_555
Bi8 Rh0 2.869605 1_555
Bi9 Rh4 2.849634 1_555
Bi9 Rh1 2.869605 1_555
Bi10 Rh4 2.849634 1_555
Bi10 Rh2 2.869605 1_555
Bi11 Rh4 2.849634 1_555
Bi11 Rh3 2.869605 1_555
Bi12 Rh5 2.849634 1_555
Bi12 Rh0 2.869605 1_555
Bi13 Rh5 2.849634 1_455
Bi13 Rh1 2.869605 1_555
Bi14 Rh5 2.849634 1_545
Bi14 Rh2 2.869605 1_555
Bi15 Rh5 2.849634 1_554
Bi15 Rh3 2.869605 1_555
Bi16 Rh0 2.843150 1_555
Bi16 Rh3 2.870000 1_556
Bi17 Rh1 2.843150 1_555
Bi17 Rh2 2.870000 1_465
Bi18 Rh2 2.843150 1_555
Bi18 Rh1 2.870000 1_645
Bi19 Rh3 2.843150 1_555
Bi19 Rh0 2.870000 1_554
Bi20 Rh0 2.843150 1_555
Bi20 Rh3 2.870000 1_555
Bi21 Rh1 2.843150 1_555
Bi21 Rh2 2.870000 1_555
Bi22 Rh2 2.843150 1_555
Bi22 Rh1 2.870000 1_555
Bi23 Rh3 2.843150 1_555
Bi23 Rh0 2.870000 1_555
