# generated using pymatgen
data_Ba4La(RuO4)3
_symmetry_space_group_name_H-M   'P 1'
_cell_length_a   5.99698359
_cell_length_b   5.99698359
_cell_length_c   30.32924987
_cell_angle_alpha   88.81595844
_cell_angle_beta   88.81595844
_cell_angle_gamma   60.05976352
_symmetry_Int_Tables_number   1
_chemical_formula_structural   Ba4La(RuO4)3
_chemical_formula_sum   'Ba12 La3 Ru9 O36'
_cell_volume   944.92101432
_cell_formula_units_Z   3
loop_
 _symmetry_equiv_pos_site_id
 _symmetry_equiv_pos_as_xyz
  1  'x, y, z'
loop_
 _atom_site_type_symbol
 _atom_site_label
 _atom_site_symmetry_multiplicity
 _atom_site_fract_x
 _atom_site_fract_y
 _atom_site_fract_z
 _atom_site_occupancy
  Ba  Ba0  1  0.99874900  0.99874900  0.86902900  1
  Ba  Ba1  1  0.00125100  0.00125100  0.13097100  1
  Ba  Ba2  1  0.33412800  0.33412800  0.46417200  1
  Ba  Ba3  1  0.66587200  0.66587200  0.53582800  1
  Ba  Ba4  1  0.66901400  0.66901400  0.94593300  1
  Ba  Ba5  1  0.33098600  0.33098600  0.05406700  1
  Ba  Ba6  1  0.00294400  0.00294400  0.27878900  1
  Ba  Ba7  1  0.99705600  0.99705600  0.72121100  1
  Ba  Ba8  1  0.33781800  0.33781800  0.61305000  1
  Ba  Ba9  1  0.66218200  0.66218200  0.38695000  1
  Ba  Ba10  1  0.66586500  0.66586500  0.79763400  1
  Ba  Ba11  1  0.33413500  0.33413500  0.20236600  1
  La  La0  1  0.66768600  0.66768600  0.66692100  1
  La  La1  1  0.33231400  0.33231400  0.33307900  1
  La  La2  1  0.00000000  0.00000000  0.00000000  1
  Ru  Ru0  1  0.33275300  0.33275300  0.83334000  1
  Ru  Ru1  1  0.66724700  0.66724700  0.16666000  1
  Ru  Ru2  1  0.33915800  0.33915800  0.91764300  1
  Ru  Ru3  1  0.66084200  0.66084200  0.08235700  1
  Ru  Ru4  1  0.32703200  0.32703200  0.74885900  1
  Ru  Ru5  1  0.67296800  0.67296800  0.25114100  1
  Ru  Ru6  1  0.00790100  0.00790100  0.58462900  1
  Ru  Ru7  1  0.99209900  0.99209900  0.41537100  1
  Ru  Ru8  1  0.00000000  0.00000000  0.50000000  1
  O  O0  1  0.19005700  0.19005700  0.95714200  1
  O  O1  1  0.80994300  0.80994300  0.04285800  1
  O  O2  1  0.32713500  0.85906700  0.61671700  1
  O  O3  1  0.67286500  0.14093300  0.38328300  1
  O  O4  1  0.14093300  0.67286500  0.38328300  1
  O  O5  1  0.85906700  0.32713500  0.61671700  1
  O  O6  1  0.17571000  0.17571000  0.79472400  1
  O  O7  1  0.82429000  0.82429000  0.20527600  1
  O  O8  1  0.15681400  0.15681400  0.53751200  1
  O  O9  1  0.84318600  0.84318600  0.46248800  1
  O  O10  1  0.65572800  0.18809000  0.95099400  1
  O  O11  1  0.34427200  0.81191000  0.04900600  1
  O  O12  1  0.81191000  0.34427200  0.04900600  1
  O  O13  1  0.18809000  0.65572800  0.95099400  1
  O  O14  1  0.30635500  0.84051900  0.45709900  1
  O  O15  1  0.69364500  0.15948100  0.54290100  1
  O  O16  1  0.15948100  0.69364500  0.54290100  1
  O  O17  1  0.84051900  0.30635500  0.45709900  1
  O  O18  1  0.63966000  0.17690900  0.79081000  1
  O  O19  1  0.36034000  0.82309100  0.20919000  1
  O  O20  1  0.82309100  0.36034000  0.20919000  1
  O  O21  1  0.17690900  0.63966000  0.79081000  1
  O  O22  1  0.47789900  0.01041900  0.71563400  1
  O  O23  1  0.52210100  0.98958100  0.28436600  1
  O  O24  1  0.98958100  0.52210100  0.28436600  1
  O  O25  1  0.01041900  0.47789900  0.71563400  1
  O  O26  1  0.13828300  0.13828300  0.37514800  1
  O  O27  1  0.86171700  0.86171700  0.62485200  1
  O  O28  1  0.49034500  0.49034500  0.87177000  1
  O  O29  1  0.50965500  0.50965500  0.12823000  1
  O  O30  1  0.47615500  0.47615500  0.70899500  1
  O  O31  1  0.52384500  0.52384500  0.29100500  1
  O  O32  1  0.48885100  0.02600900  0.87578200  1
  O  O33  1  0.51114900  0.97399100  0.12421800  1
  O  O34  1  0.97399100  0.51114900  0.12421800  1
  O  O35  1  0.02600900  0.48885100  0.87578200  1
loop_
_geom_bond_atom_site_label_1
_geom_bond_atom_site_label_2
_geom_bond_distance
_geom_bond_site_symmetry_2
Ba0 O6 2.873622 1_665
Ba0 O35 2.982555 1_655
Ba0 O32 2.982555 1_565
Ba0 O28 3.003561 1_655
Ba0 O28 3.003561 1_565
Ba0 O35 3.035302 1_665
Ba0 O32 3.035302 1_665
Ba0 O21 3.035875 1_655
Ba0 O18 3.035875 1_565
Ba0 O13 3.045418 1_655
Ba0 O10 3.045418 1_565
Ba0 O0 3.367709 1_665
Ba1 O7 2.873622 1_445
Ba1 O33 2.982555 1_545
Ba1 O34 2.982555 1_455
Ba1 O29 3.003561 1_455
Ba1 O29 3.003561 1_545
Ba1 O34 3.035302 1_445
Ba1 O33 3.035302 1_445
Ba1 O20 3.035875 1_455
Ba1 O19 3.035875 1_545
Ba1 O12 3.045418 1_455
Ba1 O11 3.045418 1_545
Ba1 O1 3.367709 1_445
Ba2 O8 2.853473 1_555
Ba2 O17 2.960692 1_555
Ba2 O14 2.960692 1_555
Ba2 O9 3.003070 1_545
Ba2 O9 3.003070 1_455
Ba2 O4 3.008290 1_555
Ba2 O3 3.008290 1_555
Ba2 O16 3.049964 1_555
Ba2 O15 3.049964 1_555
Ba2 O14 3.058789 1_545
Ba2 O17 3.058789 1_455
Ba2 O26 3.418771 1_555
Ba3 O9 2.853473 1_555
Ba3 O15 2.960692 1_555
Ba3 O16 2.960692 1_555
Ba3 O8 3.003070 1_565
Ba3 O8 3.003070 1_655
Ba3 O5 3.008290 1_555
Ba3 O2 3.008290 1_555
Ba3 O17 3.049964 1_555
Ba3 O14 3.049964 1_555
Ba3 O16 3.058789 1_655
Ba3 O15 3.058789 1_565
Ba3 O27 3.418771 1_555
Ba4 O32 2.806314 1_565
Ba4 O35 2.806314 1_655
Ba4 O13 2.925488 1_555
Ba4 O10 2.925488 1_555
Ba4 O28 2.949694 1_555
Ba4 O0 3.028872 1_565
Ba4 O0 3.028872 1_655
Ba4 O13 3.080854 1_655
Ba4 O10 3.080854 1_565
Ba4 O1 3.314892 1_556
Ba5 O33 2.806314 1_545
Ba5 O34 2.806314 1_455
Ba5 O12 2.925488 1_555
Ba5 O11 2.925488 1_555
Ba5 O29 2.949694 1_555
Ba5 O1 3.028872 1_545
Ba5 O1 3.028872 1_455
Ba5 O11 3.080854 1_545
Ba5 O12 3.080854 1_455
Ba5 O0 3.314892 1_554
Ba6 O20 2.795080 1_455
Ba6 O19 2.795080 1_545
Ba6 O23 2.925778 1_445
Ba6 O24 2.925778 1_445
Ba6 O7 2.934290 1_445
Ba6 O31 3.032394 1_455
Ba6 O31 3.032394 1_545
Ba6 O23 3.082255 1_545
Ba6 O24 3.082255 1_455
Ba6 O26 3.272928 1_555
Ba7 O18 2.795080 1_565
Ba7 O21 2.795080 1_655
Ba7 O25 2.925778 1_665
Ba7 O22 2.925778 1_665
Ba7 O6 2.934290 1_665
Ba7 O30 3.032394 1_655
Ba7 O30 3.032394 1_565
Ba7 O22 3.082255 1_565
Ba7 O25 3.082255 1_655
Ba7 O27 3.272928 1_555
Ba8 O16 2.802176 1_555
Ba8 O15 2.802176 1_555
Ba8 O2 2.903375 1_545
Ba8 O5 2.903375 1_455
Ba8 O8 2.997823 1_555
Ba8 O27 3.033340 1_545
Ba8 O27 3.033340 1_455
Ba8 O5 3.098714 1_555
Ba8 O2 3.098714 1_555
Ba8 O30 3.275787 1_555
Ba9 O14 2.802176 1_555
Ba9 O17 2.802176 1_555
Ba9 O3 2.903375 1_565
Ba9 O4 2.903375 1_655
Ba9 O9 2.997823 1_555
Ba9 O26 3.033340 1_655
Ba9 O26 3.033340 1_565
Ba9 O4 3.098714 1_555
Ba9 O3 3.098714 1_555
Ba9 O31 3.275787 1_555
Ba10 O28 2.860405 1_555
Ba10 O21 2.992396 1_655
Ba10 O18 2.992396 1_565
Ba10 O6 3.004166 1_565
Ba10 O6 3.004166 1_655
Ba10 O21 3.025242 1_555
Ba10 O18 3.025242 1_555
Ba10 O35 3.037802 1_655
Ba10 O32 3.037802 1_565
Ba10 O22 3.050222 1_565
Ba10 O25 3.050222 1_655
Ba10 O30 3.370566 1_555
Ba11 O29 2.860405 1_555
Ba11 O19 2.992396 1_545
Ba11 O20 2.992396 1_455
Ba11 O7 3.004166 1_545
Ba11 O7 3.004166 1_455
Ba11 O20 3.025242 1_555
Ba11 O19 3.025242 1_555
Ba11 O33 3.037802 1_545
Ba11 O34 3.037802 1_455
Ba11 O24 3.050222 1_455
Ba11 O23 3.050222 1_545
Ba11 O31 3.370566 1_555
La0 O22 2.328867 1_565
La0 O25 2.328867 1_655
La0 O30 2.337249 1_555
La0 O5 2.350146 1_555
La0 O2 2.350146 1_555
La0 O27 2.358964 1_555
La1 O24 2.328867 1_455
La1 O23 2.328867 1_545
La1 O31 2.337249 1_555
La1 O3 2.350146 1_555
La1 O4 2.350146 1_555
La1 O26 2.358964 1_555
La2 O0 2.337098 1_554
La2 O1 2.337098 1_445
La2 O10 2.340286 1_454
La2 O11 2.340286 1_545
La2 O13 2.340286 1_544
La2 O12 2.340286 1_455
O0 Ru2 1.934866 1_555
O1 Ru3 1.934866 1_555
O2 Ru6 1.935022 1_565
O3 Ru7 1.935022 1_545
O4 Ru7 1.935022 1_455
O5 Ru6 1.935022 1_655
O6 Ru0 2.030305 1_555
O6 Ru4 2.073579 1_555
O7 Ru1 2.030305 1_555
O7 Ru5 2.073579 1_555
O8 Ru8 2.008567 1_555
O8 Ru6 2.080309 1_555
O9 Ru8 2.008567 1_665
O9 Ru7 2.080309 1_555
O10 Ru2 1.942358 1_555
O11 Ru3 1.942358 1_555
O12 Ru3 1.942358 1_555
O13 Ru2 1.942358 1_555
O14 Ru8 2.044930 1_565
O14 Ru7 2.078623 1_455
O15 Ru8 2.044930 1_655
O15 Ru6 2.078623 1_655
O16 Ru8 2.044930 1_565
O16 Ru6 2.078623 1_565
O17 Ru8 2.044930 1_655
O17 Ru7 2.078623 1_545
O18 Ru0 2.039484 1_555
O18 Ru4 2.076236 1_555
O19 Ru1 2.039484 1_555
O19 Ru5 2.076236 1_555
O20 Ru1 2.039484 1_555
O20 Ru5 2.076236 1_555
O21 Ru0 2.039484 1_555
O21 Ru4 2.076236 1_555
O22 Ru4 1.940564 1_555
O23 Ru5 1.940564 1_555
O24 Ru5 1.940564 1_555
O25 Ru4 1.940564 1_555
O26 Ru7 1.924595 1_445
O27 Ru6 1.924595 1_665
O28 Ru0 2.031615 1_555
O28 Ru2 2.072698 1_555
O29 Ru1 2.031615 1_555
O29 Ru3 2.072698 1_555
O30 Ru4 1.941708 1_555
O31 Ru5 1.941708 1_555
O32 Ru0 2.037208 1_555
O32 Ru2 2.076805 1_555
O33 Ru1 2.037208 1_555
O33 Ru3 2.076805 1_555
O34 Ru1 2.037208 1_555
O34 Ru3 2.076805 1_555
O35 Ru0 2.037208 1_555
O35 Ru2 2.076805 1_555
