# generated using pymatgen
data_Na2Nb4Se4O19
_symmetry_space_group_name_H-M   'P 1'
_cell_length_a   4.01449000
_cell_length_b   10.36853919
_cell_length_c   11.12372716
_cell_angle_alpha   106.08043585
_cell_angle_beta   90.05296024
_cell_angle_gamma   97.42126349
_symmetry_Int_Tables_number   1
_chemical_formula_structural   Na2Nb4Se4O19
_chemical_formula_sum   'Na2 Nb4 Se4 O19'
_cell_volume   440.84806891
_cell_formula_units_Z   1
loop_
 _symmetry_equiv_pos_site_id
 _symmetry_equiv_pos_as_xyz
  1  'x, y, z'
loop_
 _atom_site_type_symbol
 _atom_site_label
 _atom_site_symmetry_multiplicity
 _atom_site_fract_x
 _atom_site_fract_y
 _atom_site_fract_z
 _atom_site_occupancy
  Na  Na0  1  0.77648100  0.93714300  0.86068800  1
  Na  Na1  1  0.22351900  0.06285700  0.13931200  1
  Nb  Nb0  1  0.33906800  0.18745300  0.70405600  1
  Nb  Nb1  1  0.66093200  0.81254700  0.29594400  1
  Nb  Nb2  1  0.56823000  0.55374700  0.68118000  1
  Nb  Nb3  1  0.43177000  0.44625300  0.31882000  1
  Se  Se0  1  0.34435400  0.82547800  0.58458800  1
  Se  Se1  1  0.65564600  0.17452200  0.41541200  1
  Se  Se2  1  0.28568300  0.71722100  0.98661700  1
  Se  Se3  1  0.71431700  0.28277900  0.01338300  1
  O  O0  1  0.64645200  0.87727300  0.48838600  1
  O  O1  1  0.35354800  0.12272700  0.51161400  1
  O  O2  1  0.31771500  0.97613700  0.69757800  1
  O  O3  1  0.68228500  0.02386300  0.30242200  1
  O  O4  1  0.60281200  0.76204000  0.67237500  1
  O  O5  1  0.39718800  0.23796000  0.32762500  1
  O  O6  1  0.56381700  0.64725500  0.87399000  1
  O  O7  1  0.43618300  0.35274500  0.12601000  1
  O  O8  1  0.60371500  0.77407600  0.10978400  1
  O  O9  1  0.39628500  0.22592400  0.89021600  1
  O  O10  1  0.24486100  0.86619500  0.95889600  1
  O  O11  1  0.75513900  0.13380500  0.04110400  1
  O  O12  1  0.88025500  0.17655100  0.70543200  1
  O  O13  1  0.11974500  0.82344900  0.29456800  1
  O  O14  1  0.45746600  0.37198000  0.69923900  1
  O  O15  1  0.54253400  0.62802000  0.30076100  1
  O  O16  1  0.50000000  0.50000000  0.50000000  1
  O  O17  1  0.02885800  0.56992300  0.69087000  1
  O  O18  1  0.97114200  0.43007700  0.30913000  1
loop_
_geom_bond_atom_site_label_1
_geom_bond_atom_site_label_2
_geom_bond_distance
_geom_bond_site_symmetry_2
Na0 O4 2.394528 1_555
Na0 O11 2.443634 1_566
Na0 O10 2.463500 1_655
Na0 O10 2.516593 1_555
Na0 O2 2.727626 1_555
Na0 O2 2.891917 1_655
Na1 O5 2.394528 1_555
Na1 O10 2.443634 1_544
Na1 O11 2.463500 1_455
Na1 O11 2.516593 1_555
Na1 O3 2.727626 1_555
Na1 O3 2.891917 1_455
Nb0 O12 1.831075 1_455
Nb0 O14 1.926481 1_555
Nb0 O9 2.004475 1_555
Nb0 O1 2.061723 1_555
Nb0 O2 2.162682 1_545
Nb0 O12 2.190319 1_555
Nb1 O13 1.831075 1_655
Nb1 O15 1.926481 1_555
Nb1 O8 2.004475 1_555
Nb1 O0 2.061723 1_555
Nb1 O3 2.162682 1_565
Nb1 O13 2.190319 1_555
Nb2 O17 1.835412 1_655
Nb2 O14 1.945103 1_555
Nb2 O16 1.945448 1_555
Nb2 O6 2.095924 1_555
Nb2 O4 2.175523 1_555
Nb2 O17 2.193746 1_555
Nb3 O18 1.835412 1_455
Nb3 O15 1.945103 1_555
Nb3 O16 1.945448 1_555
Nb3 O7 2.095924 1_555
Nb3 O5 2.175523 1_555
Nb3 O18 2.193746 1_555
O0 Se0 1.748400 1_555
O1 Se1 1.748400 1_555
O2 Se0 1.728324 1_555
O3 Se1 1.728324 1_555
O4 Se0 1.730045 1_555
O5 Se1 1.730045 1_555
O6 Se2 1.746690 1_555
O7 Se3 1.746690 1_555
O8 Se2 1.791534 1_554
O9 Se3 1.791534 1_556
O10 Se2 1.684347 1_555
O11 Se3 1.684347 1_555
