# generated using pymatgen
data_NaFe2(SiO3)4
_symmetry_space_group_name_H-M   'P 1'
_cell_length_a   5.35694443
_cell_length_b   8.80645800
_cell_length_c   9.51513628
_cell_angle_alpha   90.00110380
_cell_angle_beta   103.74929578
_cell_angle_gamma   89.99954988
_symmetry_Int_Tables_number   1
_chemical_formula_structural   NaFe2(SiO3)4
_chemical_formula_sum   'Na2 Fe4 Si8 O24'
_cell_volume   436.02051875
_cell_formula_units_Z   2
loop_
 _symmetry_equiv_pos_site_id
 _symmetry_equiv_pos_as_xyz
  1  'x, y, z'
loop_
 _atom_site_type_symbol
 _atom_site_label
 _atom_site_symmetry_multiplicity
 _atom_site_fract_x
 _atom_site_fract_y
 _atom_site_fract_z
 _atom_site_occupancy
  Na  Na0  1  0.74998700  0.70434000  0.00000800  1
  Na  Na1  1  0.24998700  0.20345800  0.49999200  1
  Fe  Fe0  1  0.25000500  0.90561000  0.99999400  1
  Fe  Fe1  1  0.74999500  0.40087700  0.50000900  1
  Fe  Fe2  1  0.24996300  0.59945200  0.50002700  1
  Fe  Fe3  1  0.75002600  0.10517200  0.99999800  1
  Si  Si0  1  0.94620100  0.41383700  0.20797300  1
  Si  Si1  1  0.44206300  0.90886100  0.70226000  1
  Si  Si2  1  0.55379900  0.41383900  0.79202500  1
  Si  Si3  1  0.05793000  0.90886100  0.29773800  1
  Si  Si4  1  0.43589900  0.59010000  0.20792500  1
  Si  Si5  1  0.93996800  0.08556900  0.70592100  1
  Si  Si6  1  0.06412400  0.59008500  0.79207800  1
  Si  Si7  1  0.56003300  0.08556400  0.29408100  1
  O  O0  1  0.03209400  0.42551900  0.38779700  1
  O  O1  1  0.52180200  0.91769900  0.88179600  1
  O  O2  1  0.46788800  0.42552000  0.61220600  1
  O  O3  1  0.97820500  0.91770800  0.11819800  1
  O  O4  1  0.50765100  0.57640000  0.38800400  1
  O  O5  1  0.01744600  0.07242900  0.88450300  1
  O  O6  1  0.99234600  0.57639700  0.61200500  1
  O  O7  1  0.48256500  0.07241400  0.11549400  1
  O  O8  1  0.92877700  0.24222700  0.14857300  1
  O  O9  1  0.43119300  0.73460100  0.64326500  1
  O  O10  1  0.57122400  0.24221200  0.85141500  1
  O  O11  1  0.06884500  0.73460000  0.35674400  1
  O  O12  1  0.66813400  0.50109700  0.15413500  1
  O  O13  1  0.16663000  0.99753900  0.64554400  1
  O  O14  1  0.83185600  0.50109400  0.84585700  1
  O  O15  1  0.33336200  0.99754700  0.35445500  1
  O  O16  1  0.43842200  0.75775000  0.13889500  1
  O  O17  1  0.93352100  0.25587500  0.63939700  1
  O  O18  1  0.06158400  0.75775500  0.86109900  1
  O  O19  1  0.56647000  0.25587100  0.36059700  1
  O  O20  1  0.15700900  0.50911000  0.14294100  1
  O  O21  1  0.66029500  0.00383600  0.64336400  1
  O  O22  1  0.34299700  0.50909700  0.85705600  1
  O  O23  1  0.83970000  0.00383800  0.35663200  1
loop_
_geom_bond_atom_site_label_1
_geom_bond_atom_site_label_2
_geom_bond_distance
_geom_bond_site_symmetry_2
Na0 O1 2.374081 1_554
Na0 O3 2.374122 1_555
Na0 O16 2.408689 1_555
Na0 O18 2.409003 1_654
Na0 O12 2.419165 1_555
Na0 O14 2.419313 1_554
Na0 O22 2.854850 1_554
Na0 O20 2.854850 1_655
Na1 O15 2.387318 1_545
Na1 O13 2.387475 1_545
Na1 O0 2.394596 1_555
Na1 O2 2.394661 1_555
Na1 O17 2.432175 1_455
Na1 O19 2.432191 1_555
Na1 O23 2.890784 1_455
Na1 O21 2.890912 1_555
Fe0 O18 1.956198 1_555
Fe0 O16 1.956274 1_556
Fe0 O1 2.043173 1_555
Fe0 O3 2.043228 1_456
Fe0 O7 2.065626 1_566
Fe0 O5 2.065700 1_565
Fe1 O17 1.932992 1_555
Fe1 O19 1.933119 1_555
Fe1 O2 2.058521 1_555
Fe1 O0 2.058589 1_655
Fe1 O6 2.133694 1_555
Fe1 O4 2.133740 1_555
Fe2 O9 1.894103 1_555
Fe2 O11 1.894172 1_555
Fe2 O6 1.944213 1_455
Fe2 O4 1.944830 1_555
Fe2 O2 2.063026 1_555
Fe2 O0 2.063069 1_555
Fe3 O8 1.930995 1_556
Fe3 O10 1.931072 1_555
Fe3 O5 2.022714 1_655
Fe3 O7 2.022933 1_556
Fe3 O3 2.197965 1_546
Fe3 O1 2.198118 1_545
O0 Si0 1.666057 1_455
O1 Si1 1.661315 1_555
O2 Si2 1.666017 1_555
O3 Si3 1.661358 1_655
O4 Si4 1.668903 1_555
O5 Si5 1.654632 1_455
O6 Si6 1.668833 1_655
O7 Si7 1.654679 1_555
O8 Si0 1.608419 1_555
O9 Si1 1.630328 1_555
O10 Si2 1.608546 1_555
O11 Si3 1.630379 1_555
O12 Si0 1.645931 1_555
O12 Si4 1.651259 1_555
O13 Si1 1.643057 1_555
O13 Si5 1.654359 1_465
O14 Si2 1.645862 1_555
O14 Si6 1.651322 1_655
O15 Si3 1.643089 1_555
O15 Si7 1.654349 1_565
O16 Si4 1.617291 1_555
O17 Si5 1.625080 1_555
O18 Si6 1.617403 1_555
O19 Si7 1.625041 1_555
O20 Si4 1.638276 1_555
O20 Si0 1.641445 1_455
O21 Si1 1.640657 1_545
O21 Si5 1.641056 1_555
O22 Si6 1.638185 1_555
O22 Si2 1.641326 1_555
O23 Si3 1.640627 1_645
O23 Si7 1.640994 1_555
