# generated using pymatgen
data_Sr4LiMn2Ga2O11
_symmetry_space_group_name_H-M   'P 1'
_cell_length_a   5.58276754
_cell_length_b   5.58276614
_cell_length_c   8.86049507
_cell_angle_alpha   71.63425370
_cell_angle_beta   71.63411050
_cell_angle_gamma   88.30250221
_symmetry_Int_Tables_number   1
_chemical_formula_structural   Sr4LiMn2Ga2O11
_chemical_formula_sum   'Sr4 Li1 Mn2 Ga2 O11'
_cell_volume   247.99654075
_cell_formula_units_Z   1
loop_
 _symmetry_equiv_pos_site_id
 _symmetry_equiv_pos_as_xyz
  1  'x, y, z'
loop_
 _atom_site_type_symbol
 _atom_site_label
 _atom_site_symmetry_multiplicity
 _atom_site_fract_x
 _atom_site_fract_y
 _atom_site_fract_z
 _atom_site_occupancy
  Sr  Sr0  1  0.09243900  0.59244500  0.79769200  1
  Sr  Sr1  1  0.63540400  0.13540400  0.73677500  1
  Sr  Sr2  1  0.40756100  0.90755500  0.20230800  1
  Sr  Sr3  1  0.86459600  0.36459600  0.26322500  1
  Li  Li0  1  0.25000000  0.75000000  0.50000000  1
  Mn  Mn0  1  0.25000000  0.25000000  0.50000000  1
  Mn  Mn1  1  0.75000000  0.75000000  0.50000000  1
  Ga  Ga0  1  0.51152500  0.48847100  0.00000100  1
  Ga  Ga1  1  0.98847500  0.01152900  0.99999900  1
  O  O0  1  0.16608300  0.07000700  0.76095800  1
  O  O1  1  0.56999600  0.66608200  0.76096200  1
  O  O2  1  0.33391700  0.42999300  0.23904200  1
  O  O3  1  0.93000400  0.83391800  0.23903800  1
  O  O4  1  0.50939200  0.00938700  0.45086400  1
  O  O5  1  0.99060800  0.49061300  0.54913600  1
  O  O6  1  0.99833100  0.00166300  0.50000300  1
  O  O7  1  0.50166900  0.49833700  0.49999700  1
  O  O8  1  0.75000000  0.25000000  0.00000000  1
  O  O9  1  0.75000000  0.75000000  0.00000000  1
  O  O10  1  0.25000000  0.25000000  0.00000000  1
loop_
_geom_bond_atom_site_label_1
_geom_bond_atom_site_label_2
_geom_bond_distance
_geom_bond_site_symmetry_2
Li0 O4 1.926978 1_565
Li0 O5 1.926978 1_455
Li0 O6 1.957309 1_465
Li0 O7 1.957309 1_555
Mn0 O5 1.986710 1_455
Mn0 O4 1.986710 1_555
Mn0 O7 2.002882 1_555
Mn0 O6 2.002882 1_455
Mn0 O0 2.111085 1_555
Mn0 O2 2.111085 1_555
Mn1 O5 1.986674 1_555
Mn1 O4 1.986674 1_565
Mn1 O6 2.002857 1_565
Mn1 O7 2.002857 1_555
Mn1 O1 2.111122 1_555
Mn1 O3 2.111122 1_555
Ga0 O8 1.854702 1_555
Ga0 O1 1.958508 1_554
Ga0 O2 1.958513 1_555
Ga0 O10 2.004821 1_555
Ga0 O9 2.004845 1_555
Ga1 O8 1.854702 1_556
Ga1 O3 1.958508 1_546
Ga1 O0 1.958513 1_655
Ga1 O10 2.004821 1_656
Ga1 O9 2.004845 1_546
O0 Sr1 2.588005 1_555
O0 Sr0 2.610925 1_545
O0 Sr1 3.040265 1_455
O1 Sr1 2.588010 1_565
O1 Sr0 2.610900 1_555
O1 Sr1 3.040274 1_555
O2 Sr3 2.588005 1_455
O2 Sr2 2.610925 1_555
O2 Sr3 3.040265 1_555
O3 Sr3 2.588010 1_555
O3 Sr2 2.610900 1_655
O3 Sr3 3.040274 1_565
O4 Sr3 2.589739 1_555
O4 Sr2 2.663411 1_545
O4 Sr1 3.111756 1_555
O5 Sr1 2.589739 1_555
O5 Sr0 2.663411 1_655
O5 Sr3 3.111756 1_555
O6 Sr1 2.698665 1_555
O6 Sr3 2.698703 1_555
O7 Sr3 2.698665 1_555
O7 Sr1 2.698703 1_555
O8 Sr0 2.533857 1_654
O8 Sr2 2.533857 1_545
O8 Sr3 2.857105 1_555
O8 Sr1 2.857105 1_554
O9 Sr0 2.525106 1_654
O9 Sr2 2.525106 1_555
O9 Sr3 2.859167 1_555
O9 Sr1 2.859167 1_564
O10 Sr2 2.525146 1_545
O10 Sr0 2.525146 1_554
O10 Sr1 2.859162 1_554
O10 Sr3 2.859162 1_455
