# generated using pymatgen
data_CsMg14W
_symmetry_space_group_name_H-M   'P 1'
_cell_length_a   6.45874453
_cell_length_b   6.45874400
_cell_length_c   10.66315161
_cell_angle_alpha   90.00000000
_cell_angle_beta   90.00000000
_cell_angle_gamma   120.00000274
_symmetry_Int_Tables_number   1
_chemical_formula_structural   CsMg14W
_chemical_formula_sum   'Cs1 Mg14 W1'
_cell_volume   385.22315335
_cell_formula_units_Z   1
loop_
 _symmetry_equiv_pos_site_id
 _symmetry_equiv_pos_as_xyz
  1  'x, y, z'
loop_
 _atom_site_type_symbol
 _atom_site_label
 _atom_site_symmetry_multiplicity
 _atom_site_fract_x
 _atom_site_fract_y
 _atom_site_fract_z
 _atom_site_occupancy
  Cs  Cs0  1  0.16666700  0.33333300  0.12500000  1
  Mg  Mg0  1  0.17706944  0.83853422  0.12500000  1
  Mg  Mg1  1  0.15602051  0.82800975  0.62500000  1
  Mg  Mg2  1  0.66146578  0.32293056  0.12500000  1
  Mg  Mg3  1  0.67199025  0.34397949  0.62500000  1
  Mg  Mg4  1  0.66146578  0.83853422  0.12500000  1
  Mg  Mg5  1  0.67199025  0.82800975  0.62500000  1
  Mg  Mg6  1  0.33224894  0.16775106  0.40711963  1
  Mg  Mg7  1  0.33224894  0.16775106  0.84288037  1
  Mg  Mg8  1  0.33224894  0.66449888  0.40711963  1
  Mg  Mg9  1  0.33224894  0.66449888  0.84288037  1
  Mg  Mg10  1  0.83550112  0.16775106  0.40711963  1
  Mg  Mg11  1  0.83550112  0.16775106  0.84288037  1
  Mg  Mg12  1  0.83333300  0.66666700  0.36655008  1
  Mg  Mg13  1  0.83333300  0.66666700  0.88344992  1
  W  W0  1  0.16666700  0.33333300  0.62500000  1
loop_
_geom_bond_atom_site_label_1
_geom_bond_atom_site_label_2
_geom_bond_distance
_geom_bond_site_symmetry_2
Cs0 Mg4 3.229896 1_555
Cs0 Mg0 3.229896 1_555
Cs0 Mg4 3.229896 1_445
Cs0 Mg0 3.229896 1_545
Cs0 Mg2 3.229896 1_455
Cs0 Mg2 3.229896 1_555
Cs0 Mg7 3.532839 1_554
Cs0 Mg6 3.532839 1_555
Cs0 Mg9 3.532845 1_554
Cs0 Mg8 3.532845 1_555
Cs0 Mg11 3.532845 1_454
Cs0 Mg10 3.532845 1_455
Mg0 Mg2 3.128592 1_565
Mg0 Mg4 3.128592 1_555
Mg0 Mg12 3.214157 1_455
Mg0 Mg13 3.214157 1_454
Mg0 Mg2 3.330152 1_455
Mg0 Mg4 3.330152 1_455
Mg0 Mg8 3.527661 1_555
Mg0 Mg9 3.527661 1_554
Mg0 Mg7 3.527667 1_564
Mg0 Mg6 3.527667 1_565
Mg1 Mg8 3.001758 1_555
Mg1 Mg9 3.001758 1_555
Mg1 Mg7 3.001765 1_565
Mg1 Mg6 3.001765 1_565
Mg1 Mg3 3.126228 1_455
Mg1 Mg5 3.126228 1_455
Mg1 W0 3.229921 1_555
Mg1 W0 3.229921 1_565
Mg1 Mg12 3.294346 1_455
Mg1 Mg13 3.294346 1_455
Mg1 Mg3 3.332516 1_565
Mg1 Mg5 3.332517 1_555
Mg2 Mg4 3.128592 1_545
Mg2 Mg4 3.330152 1_555
Mg2 Mg7 3.527667 1_554
Mg2 Mg6 3.527667 1_555
Mg3 Mg6 3.001765 1_555
Mg3 Mg7 3.001765 1_555
Mg3 Mg5 3.126228 1_555
Mg3 W0 3.229921 1_655
Mg3 W0 3.229921 1_555
Mg3 Mg5 3.332516 1_545
Mg4 Mg9 3.527667 1_554
Mg4 Mg8 3.527667 1_555
Mg5 Mg8 3.001765 1_555
Mg5 Mg9 3.001765 1_555
Mg5 W0 3.229921 1_665
Mg5 W0 3.229921 1_555
Mg6 W0 2.971340 1_555
Mg6 Mg8 3.208367 1_555
Mg6 Mg8 3.250377 1_545
Mg7 W0 2.971340 1_555
Mg7 Mg9 3.208367 1_555
Mg7 Mg9 3.250377 1_545
Mg8 W0 2.971347 1_555
Mg9 W0 2.971347 1_555
Mg10 W0 2.971347 1_655
Mg10 Mg3 3.001758 1_555
Mg10 Mg5 3.001765 1_545
Mg10 Mg8 3.208367 1_655
Mg10 Mg6 3.208367 1_655
Mg10 Mg8 3.250377 1_545
Mg10 Mg6 3.250377 1_555
Mg10 Mg12 3.258241 1_545
Mg10 Mg12 3.258241 1_555
Mg10 Mg2 3.527661 1_555
Mg10 Mg4 3.527667 1_545
Mg11 W0 2.971347 1_655
Mg11 Mg3 3.001758 1_555
Mg11 Mg5 3.001765 1_545
Mg11 Mg9 3.208367 1_655
Mg11 Mg7 3.208367 1_655
Mg11 Mg9 3.250377 1_545
Mg11 Mg7 3.250377 1_555
Mg11 Mg13 3.258241 1_545
Mg11 Mg13 3.258241 1_555
Mg11 Mg2 3.527661 1_556
Mg11 Mg4 3.527667 1_546
Mg12 Mg4 3.214150 1_555
Mg12 Mg2 3.214157 1_555
Mg12 Mg6 3.258241 1_665
Mg12 Mg6 3.258241 1_555
Mg12 Mg8 3.258241 1_555
Mg12 Mg8 3.258241 1_655
Mg12 Mg5 3.294340 1_555
Mg12 Mg3 3.294346 1_555
Mg13 Mg4 3.214150 1_556
Mg13 Mg2 3.214157 1_556
Mg13 Mg7 3.258241 1_665
Mg13 Mg7 3.258241 1_555
Mg13 Mg9 3.258241 1_555
Mg13 Mg9 3.258241 1_655
Mg13 Mg5 3.294340 1_555
Mg13 Mg3 3.294346 1_555
