# generated using pymatgen
data_Bi17As5Pb5O43
_symmetry_space_group_name_H-M   'P 1'
_cell_length_a   11.87380129
_cell_length_b   11.87380129
_cell_length_c   11.93835050
_cell_angle_alpha   61.91787356
_cell_angle_beta   61.91787356
_cell_angle_gamma   92.95047627
_symmetry_Int_Tables_number   1
_chemical_formula_structural   Bi17As5Pb5O43
_chemical_formula_sum   'Bi17 As5 Pb5 O43'
_cell_volume   1226.91717104
_cell_formula_units_Z   1
loop_
 _symmetry_equiv_pos_site_id
 _symmetry_equiv_pos_as_xyz
  1  'x, y, z'
loop_
 _atom_site_type_symbol
 _atom_site_label
 _atom_site_symmetry_multiplicity
 _atom_site_fract_x
 _atom_site_fract_y
 _atom_site_fract_z
 _atom_site_occupancy
  Bi  Bi0  1  0.99788500  0.99788500  0.35073400  1
  Bi  Bi1  1  0.35407200  0.01613300  0.30118200  1
  Bi  Bi2  1  0.01613300  0.35407200  0.30118200  1
  Bi  Bi3  1  0.35684000  0.64238300  0.00519200  1
  Bi  Bi4  1  0.64238300  0.35684000  0.00519200  1
  Bi  Bi5  1  0.63037200  0.63037200  0.40373400  1
  Bi  Bi6  1  0.66843900  0.02910400  0.01289100  1
  Bi  Bi7  1  0.02910400  0.66843900  0.01289100  1
  Bi  Bi8  1  0.65817500  0.65817500  0.01054100  1
  Bi  Bi9  1  0.32284100  0.00639100  0.02095800  1
  Bi  Bi10  1  0.00639100  0.32284100  0.02095800  1
  Bi  Bi11  1  0.65442700  0.99509200  0.35691200  1
  Bi  Bi12  1  0.99509200  0.65442700  0.35691200  1
  Bi  Bi13  1  0.35574500  0.00789200  0.65438700  1
  Bi  Bi14  1  0.00789200  0.35574500  0.65438700  1
  Bi  Bi15  1  0.03210700  0.03210700  0.64820700  1
  Bi  Bi16  1  0.32988600  0.32988600  0.69638600  1
  As  As0  1  0.65823000  0.97010900  0.70591300  1
  As  As1  1  0.97010900  0.65823000  0.70591300  1
  As  As2  1  0.98135600  0.98135600  0.02902700  1
  As  As3  1  0.65043200  0.34513900  0.34365500  1
  As  As4  1  0.34513900  0.65043200  0.34365500  1
  Pb  Pb0  1  0.33413900  0.33413900  0.32699100  1
  Pb  Pb1  1  0.33935800  0.33935800  0.99461800  1
  Pb  Pb2  1  0.66757900  0.33712000  0.67641700  1
  Pb  Pb3  1  0.33712000  0.66757900  0.67641700  1
  Pb  Pb4  1  0.65750400  0.65750400  0.68464500  1
  O  O0  1  0.44399300  0.64452500  0.18365300  1
  O  O1  1  0.64452500  0.44399300  0.18365300  1
  O  O2  1  0.06401200  0.06401200  0.06995800  1
  O  O3  1  0.48567300  0.48567300  0.64353500  1
  O  O4  1  0.38772600  0.21145900  0.85335500  1
  O  O5  1  0.21145900  0.38772600  0.85335500  1
  O  O6  1  0.58916600  0.06675200  0.19491500  1
  O  O7  1  0.06675200  0.58916600  0.19491500  1
  O  O8  1  0.21378000  0.02676300  0.21031700  1
  O  O9  1  0.02676300  0.21378000  0.21031700  1
  O  O10  1  0.59333400  0.77072300  0.47370300  1
  O  O11  1  0.77072300  0.59333400  0.47370300  1
  O  O12  1  0.73931600  0.98724100  0.53122000  1
  O  O13  1  0.98724100  0.73931600  0.53122000  1
  O  O14  1  0.81361300  0.97764800  0.11277300  1
  O  O15  1  0.97764800  0.81361300  0.11277300  1
  O  O16  1  0.06696100  0.06696100  0.83308200  1
  O  O17  1  0.24238400  0.78201300  0.85245900  1
  O  O18  1  0.78201300  0.24238400  0.85245900  1
  O  O19  1  0.52218000  0.52218000  0.02692200  1
  O  O20  1  0.47832000  0.07204200  0.04388300  1
  O  O21  1  0.07204200  0.47832000  0.04388300  1
  O  O22  1  0.42153000  0.23815100  0.18173500  1
  O  O23  1  0.23815100  0.42153000  0.18173500  1
  O  O24  1  0.50767400  0.00125900  0.75722500  1
  O  O25  1  0.00125900  0.50767400  0.75722500  1
  O  O26  1  0.60625500  0.79142000  0.83867600  1
  O  O27  1  0.79142000  0.60625500  0.83867600  1
  O  O28  1  0.58306300  0.17952700  0.40441200  1
  O  O29  1  0.17952700  0.58306300  0.40441200  1
  O  O30  1  0.43991200  0.92134600  0.52776000  1
  O  O31  1  0.92134600  0.43991200  0.52776000  1
  O  O32  1  0.39828900  0.81276300  0.29281000  1
  O  O33  1  0.81276300  0.39828900  0.29281000  1
  O  O34  1  0.24937400  0.07253300  0.53613600  1
  O  O35  1  0.07253300  0.24937400  0.53613600  1
  O  O36  1  0.41728700  0.60226300  0.83279100  1
  O  O37  1  0.60226300  0.41728700  0.83279100  1
  O  O38  1  0.76100100  0.05135800  0.72825100  1
  O  O39  1  0.05135800  0.76100100  0.72825100  1
  O  O40  1  0.07679400  0.07679400  0.43320900  1
  O  O41  1  0.54940700  0.37242100  0.48212400  1
  O  O42  1  0.37242100  0.54940700  0.48212400  1
loop_
_geom_bond_atom_site_label_1
_geom_bond_atom_site_label_2
_geom_bond_distance
_geom_bond_site_symmetry_2
Bi0 O40 2.090916 1_665
Bi0 O9 2.195852 1_665
Bi0 O8 2.195852 1_665
Bi0 O2 2.729413 1_665
Bi0 O13 2.749602 1_555
Bi0 O12 2.749602 1_555
Bi1 O22 2.189214 1_555
Bi1 O6 2.353347 1_555
Bi1 O8 2.358297 1_555
Bi1 O20 2.401160 1_555
Bi1 O32 2.534781 1_545
Bi2 O23 2.189214 1_555
Bi2 O7 2.353347 1_555
Bi2 O9 2.358297 1_555
Bi2 O21 2.401160 1_555
Bi2 O33 2.534781 1_455
Bi3 O36 2.132067 1_554
Bi3 O23 2.219150 1_555
Bi3 O19 2.525461 1_555
Bi3 O26 2.541603 1_554
Bi3 O17 2.763921 1_554
Bi3 O0 2.781136 1_555
Bi4 O37 2.132067 1_554
Bi4 O22 2.219150 1_555
Bi4 O19 2.525461 1_555
Bi4 O27 2.541603 1_554
Bi4 O18 2.763921 1_554
Bi4 O1 2.781136 1_555
Bi5 O3 2.129357 1_555
Bi5 O10 2.169920 1_555
Bi5 O11 2.169920 1_555
Bi5 O42 2.707834 1_555
Bi5 O41 2.707834 1_555
Bi6 O18 2.133176 1_554
Bi6 O6 2.200042 1_555
Bi6 O20 2.236642 1_555
Bi6 O14 2.474718 1_545
Bi7 O17 2.133176 1_554
Bi7 O7 2.200042 1_555
Bi7 O21 2.236642 1_555
Bi7 O15 2.474718 1_455
Bi8 O19 2.095283 1_555
Bi8 O27 2.308264 1_554
Bi8 O26 2.308264 1_554
Bi8 O1 2.336448 1_555
Bi8 O0 2.336448 1_555
Bi9 O4 2.072368 1_554
Bi9 O20 2.149221 1_555
Bi9 O8 2.153342 1_555
Bi10 O5 2.072368 1_554
Bi10 O21 2.149221 1_555
Bi10 O9 2.153342 1_555
Bi11 O30 2.147660 1_555
Bi11 O10 2.217979 1_555
Bi11 O6 2.234783 1_565
Bi11 O28 2.596780 1_565
Bi11 O12 2.675219 1_555
Bi11 O14 2.744555 1_555
Bi12 O31 2.147660 1_555
Bi12 O11 2.217979 1_555
Bi12 O7 2.234783 1_655
Bi12 O29 2.596780 1_655
Bi12 O13 2.675219 1_555
Bi12 O15 2.744555 1_555
Bi13 O30 2.118019 1_545
Bi13 O34 2.221636 1_555
Bi13 O17 2.292937 1_545
Bi13 O28 2.543388 1_555
Bi13 O24 2.603181 1_555
Bi14 O31 2.118019 1_455
Bi14 O35 2.221636 1_555
Bi14 O18 2.292937 1_455
Bi14 O29 2.543388 1_555
Bi14 O25 2.603181 1_555
Bi15 O40 2.134888 1_555
Bi15 O34 2.166582 1_555
Bi15 O35 2.166582 1_555
Bi15 O16 2.629850 1_555
Bi16 O3 2.166014 1_555
Bi16 O4 2.188813 1_555
Bi16 O5 2.188813 1_555
Bi16 O42 2.441975 1_555
Bi16 O41 2.441975 1_555
As0 O38 1.708310 1_565
As0 O24 1.719945 1_565
As0 O12 1.734314 1_555
As0 O26 1.781274 1_555
As1 O39 1.708310 1_655
As1 O25 1.719945 1_655
As1 O13 1.734314 1_555
As1 O27 1.781274 1_555
As2 O16 1.718998 1_664
As2 O2 1.723106 1_665
As2 O15 1.744512 1_555
As2 O14 1.744512 1_555
As3 O33 1.701333 1_555
As3 O41 1.718670 1_555
As3 O28 1.726803 1_555
As3 O1 1.747888 1_555
As4 O32 1.701333 1_555
As4 O42 1.718670 1_555
As4 O29 1.726803 1_555
As4 O0 1.747888 1_555
O4 Pb1 2.658830 1_555
O4 Pb2 2.764780 1_555
O5 Pb1 2.658830 1_555
O5 Pb3 2.764780 1_555
O10 Pb3 2.550753 1_555
O10 Pb4 2.730251 1_555
O11 Pb2 2.550753 1_555
O11 Pb4 2.730251 1_555
O19 Pb0 2.688791 1_555
O22 Pb0 2.381455 1_555
O22 Pb1 2.651720 1_554
O23 Pb0 2.381455 1_555
O23 Pb1 2.651720 1_554
O26 Pb4 2.842378 1_555
O27 Pb4 2.842378 1_555
O30 Pb3 2.503213 1_555
O31 Pb2 2.503213 1_555
O34 Pb0 2.627995 1_555
O35 Pb0 2.627995 1_555
O36 Pb3 2.319184 1_555
O36 Pb4 2.379002 1_555
O36 Pb1 2.583636 1_555
O37 Pb2 2.319184 1_555
O37 Pb4 2.379002 1_555
O37 Pb1 2.583636 1_555
