# generated using pymatgen
data_Mg14SiBi
_symmetry_space_group_name_H-M   'P 1'
_cell_length_a   6.34375059
_cell_length_b   6.56860184
_cell_length_c   10.26498485
_cell_angle_alpha   90.00000000
_cell_angle_beta   90.00000000
_cell_angle_gamma   121.17959457
_symmetry_Int_Tables_number   1
_chemical_formula_structural   Mg14SiBi
_chemical_formula_sum   'Mg14 Si1 Bi1'
_cell_volume   365.95028068
_cell_formula_units_Z   1
loop_
 _symmetry_equiv_pos_site_id
 _symmetry_equiv_pos_as_xyz
  1  'x, y, z'
loop_
 _atom_site_type_symbol
 _atom_site_label
 _atom_site_symmetry_multiplicity
 _atom_site_fract_x
 _atom_site_fract_y
 _atom_site_fract_z
 _atom_site_occupancy
  Mg  Mg0  1  0.16995042  0.33497471  0.62500000  1
  Mg  Mg1  1  0.17124956  0.83562428  0.62500000  1
  Mg  Mg2  1  0.67008164  0.33572624  0.12500000  1
  Mg  Mg3  1  0.66770022  0.33281172  0.62500000  1
  Mg  Mg4  1  0.67008164  0.83435440  0.12500000  1
  Mg  Mg5  1  0.66770022  0.83488750  0.62500000  1
  Mg  Mg6  1  0.33098826  0.17328112  0.37371923  1
  Mg  Mg7  1  0.33098826  0.17328112  0.87628077  1
  Mg  Mg8  1  0.33098826  0.65770814  0.37371923  1
  Mg  Mg9  1  0.33098826  0.65770814  0.87628077  1
  Mg  Mg10  1  0.83795387  0.16897744  0.37005981  1
  Mg  Mg11  1  0.83795387  0.16897744  0.87994019  1
  Mg  Mg12  1  0.82898064  0.66449082  0.37987351  1
  Mg  Mg13  1  0.82898064  0.66449082  0.87012649  1
  Si  Si0  1  0.16172915  0.33086407  0.12500000  1
  Bi  Bi0  1  0.16368508  0.83184204  0.12500000  1
loop_
_geom_bond_atom_site_label_1
_geom_bond_atom_site_label_2
_geom_bond_distance
_geom_bond_site_symmetry_2
Mg0 Mg6 3.154116 1_555
Mg0 Mg7 3.154116 1_555
Mg0 Mg8 3.154122 1_555
Mg0 Mg9 3.154122 1_555
Mg0 Mg5 3.164979 1_555
Mg0 Mg3 3.164980 1_555
Mg0 Mg11 3.177297 1_455
Mg0 Mg10 3.177297 1_455
Mg0 Mg5 3.178817 1_445
Mg0 Mg3 3.178818 1_455
Mg0 Mg1 3.284308 1_555
Mg0 Mg1 3.284308 1_545
Mg1 Mg12 3.127641 1_455
Mg1 Mg13 3.127641 1_455
Mg1 Mg3 3.151867 1_565
Mg1 Mg5 3.151867 1_555
Mg1 Mg3 3.191888 1_455
Mg1 Mg5 3.191889 1_455
Mg1 Mg8 3.205016 1_555
Mg1 Mg9 3.205016 1_555
Mg1 Mg6 3.205023 1_565
Mg1 Mg7 3.205023 1_565
Mg2 Si0 3.135543 1_655
Mg2 Mg7 3.147623 1_554
Mg2 Mg6 3.147623 1_555
Mg2 Si0 3.208443 1_555
Mg2 Mg4 3.275290 1_555
Mg2 Mg4 3.293312 1_545
Mg3 Mg6 3.161687 1_555
Mg3 Mg7 3.161687 1_555
Mg3 Mg5 3.270666 1_545
Mg3 Mg5 3.297936 1_555
Mg4 Si0 3.135543 1_665
Mg4 Mg9 3.147623 1_554
Mg4 Mg8 3.147623 1_555
Mg4 Si0 3.208443 1_555
Mg5 Mg8 3.161687 1_555
Mg5 Mg9 3.161687 1_555
Mg6 Si0 3.145390 1_555
Mg6 Mg8 3.182008 1_555
Mg6 Mg8 3.386594 1_545
Mg7 Si0 3.145390 1_556
Mg7 Mg9 3.182008 1_555
Mg7 Mg9 3.386594 1_545
Mg8 Si0 3.145397 1_555
Mg9 Si0 3.145397 1_556
Mg10 Si0 3.068527 1_655
Mg10 Mg8 3.113372 1_655
Mg10 Mg6 3.113372 1_655
Mg10 Mg2 3.141574 1_555
Mg10 Mg4 3.141581 1_545
Mg10 Mg3 3.221272 1_555
Mg10 Mg5 3.221279 1_545
Mg10 Mg8 3.231008 1_545
Mg10 Mg6 3.231008 1_555
Mg11 Si0 3.068527 1_656
Mg11 Mg9 3.113372 1_655
Mg11 Mg7 3.113372 1_655
Mg11 Mg2 3.141574 1_556
Mg11 Mg4 3.141581 1_546
Mg11 Mg3 3.221272 1_555
Mg11 Mg5 3.221279 1_545
Mg11 Mg9 3.231008 1_545
Mg11 Mg7 3.231008 1_555
Mg12 Mg5 3.133152 1_555
Mg12 Mg3 3.133159 1_555
Mg12 Mg6 3.136941 1_555
Mg12 Mg8 3.136941 1_555
Mg12 Mg4 3.204760 1_555
Mg12 Mg2 3.204767 1_555
Mg12 Mg6 3.208525 1_665
Mg12 Mg8 3.208526 1_655
Mg13 Mg5 3.133152 1_555
Mg13 Mg3 3.133159 1_555
Mg13 Mg7 3.136941 1_555
Mg13 Mg9 3.136941 1_555
Mg13 Mg4 3.204760 1_556
Mg13 Mg2 3.204767 1_556
Mg13 Mg7 3.208525 1_665
Mg13 Mg9 3.208526 1_655
Bi0 Mg2 3.139872 1_455
Bi0 Mg4 3.139873 1_455
Bi0 Mg13 3.185092 1_454
Bi0 Mg12 3.185092 1_455
Bi0 Mg9 3.195316 1_554
Bi0 Mg8 3.195316 1_555
Bi0 Mg6 3.195323 1_565
Bi0 Mg7 3.195323 1_564
Bi0 Mg2 3.203941 1_565
Bi0 Mg4 3.203941 1_555
Bi0 Si0 3.284318 1_565
Bi0 Si0 3.284318 1_555
