# generated using pymatgen
data_CaVSi4O15
_symmetry_space_group_name_H-M   'P 1'
_cell_length_a   8.63058468
_cell_length_b   8.63058468
_cell_length_c   9.17240400
_cell_angle_alpha   90.00000000
_cell_angle_beta   90.00000000
_cell_angle_gamma   104.41302595
_symmetry_Int_Tables_number   1
_chemical_formula_structural   CaVSi4O15
_chemical_formula_sum   'Ca2 V2 Si8 O30'
_cell_volume   661.72137378
_cell_formula_units_Z   2
loop_
 _symmetry_equiv_pos_site_id
 _symmetry_equiv_pos_as_xyz
  1  'x, y, z'
loop_
 _atom_site_type_symbol
 _atom_site_label
 _atom_site_symmetry_multiplicity
 _atom_site_fract_x
 _atom_site_fract_y
 _atom_site_fract_z
 _atom_site_occupancy
  Ca  Ca0  1  0.22276800  0.22276800  0.25735900  1
  Ca  Ca1  1  0.77723200  0.77723200  0.75735900  1
  V  V0  1  0.95857300  0.95857300  0.44861200  1
  V  V1  1  0.04142700  0.04142700  0.94861200  1
  Si  Si0  1  0.32149800  0.89383500  0.41449200  1
  Si  Si1  1  0.89383500  0.32149800  0.41449200  1
  Si  Si2  1  0.67850200  0.10616500  0.91449200  1
  Si  Si3  1  0.10616500  0.67850200  0.91449200  1
  Si  Si4  1  0.35311900  0.92071900  0.07496000  1
  Si  Si5  1  0.92071900  0.35311900  0.07496000  1
  Si  Si6  1  0.64688100  0.07928100  0.57496000  1
  Si  Si7  1  0.07928100  0.64688100  0.57496000  1
  O  O0  1  0.18362300  0.99548400  0.41644100  1
  O  O1  1  0.99548400  0.18362300  0.41644100  1
  O  O2  1  0.81637700  0.00451600  0.91644100  1
  O  O3  1  0.00451600  0.81637700  0.91644100  1
  O  O4  1  0.22242700  0.03163400  0.06664800  1
  O  O5  1  0.03163400  0.22242700  0.06664800  1
  O  O6  1  0.77757300  0.96836600  0.56664800  1
  O  O7  1  0.96836600  0.77757300  0.56664800  1
  O  O8  1  0.47514000  0.98481900  0.50985600  1
  O  O9  1  0.98481900  0.47514000  0.50985600  1
  O  O10  1  0.52486000  0.01518100  0.00985600  1
  O  O11  1  0.01518100  0.52486000  0.00985600  1
  O  O12  1  0.24316300  0.71714700  0.48241800  1
  O  O13  1  0.71714700  0.24316300  0.48241800  1
  O  O14  1  0.75683700  0.28285300  0.98241800  1
  O  O15  1  0.28285300  0.75683700  0.98241800  1
  O  O16  1  0.37931900  0.88418600  0.24635200  1
  O  O17  1  0.88418600  0.37931900  0.24635200  1
  O  O18  1  0.62068100  0.11581400  0.74635200  1
  O  O19  1  0.11581400  0.62068100  0.74635200  1
  O  O20  1  0.88522900  0.88522900  0.29513700  1
  O  O21  1  0.11477100  0.11477100  0.79513700  1
  O  O22  1  0.50338700  0.34241000  0.20776400  1
  O  O23  1  0.34241000  0.50338700  0.20776400  1
  O  O24  1  0.49661300  0.65759000  0.70776400  1
  O  O25  1  0.65759000  0.49661300  0.70776400  1
  O  O26  1  0.51008900  0.51008900  0.68274500  1
  O  O27  1  0.48991100  0.48991100  0.18274500  1
  O  O28  1  0.37008800  0.37008800  0.43668500  1
  O  O29  1  0.62991200  0.62991200  0.93668500  1
loop_
_geom_bond_atom_site_label_1
_geom_bond_atom_site_label_2
_geom_bond_distance
_geom_bond_site_symmetry_2
Ca0 O28 2.265825 1_555
Ca0 O1 2.400258 1_455
Ca0 O0 2.400258 1_545
Ca0 O5 2.403901 1_555
Ca0 O4 2.403901 1_555
Ca0 O22 2.427722 1_555
Ca0 O23 2.427722 1_555
Ca1 O29 2.265825 1_555
Ca1 O2 2.400258 1_565
Ca1 O3 2.400258 1_655
Ca1 O7 2.403901 1_555
Ca1 O6 2.403901 1_555
Ca1 O24 2.427722 1_555
Ca1 O25 2.427722 1_555
O0 Si0 1.644873 1_555
O0 V0 1.911312 1_455
O1 Si1 1.644873 1_555
O1 V0 1.911312 1_545
O2 Si2 1.644873 1_555
O2 V1 1.911312 1_655
O3 Si3 1.644873 1_555
O3 V1 1.911312 1_565
O4 Si4 1.652860 1_545
O4 V1 1.919719 1_554
O5 Si5 1.652860 1_455
O5 V1 1.919719 1_554
O6 Si6 1.652860 1_565
O6 V0 1.919719 1_555
O7 Si7 1.652860 1_655
O7 V0 1.919719 1_555
O8 Si6 1.617615 1_565
O8 Si0 1.619171 1_555
O9 Si7 1.617615 1_655
O9 Si1 1.619171 1_555
O10 Si4 1.617615 1_545
O10 Si2 1.619171 1_554
O11 Si5 1.617615 1_455
O11 Si3 1.619171 1_554
O12 Si0 1.630157 1_555
O12 Si7 1.631503 1_555
O13 Si1 1.630157 1_555
O13 Si6 1.631503 1_555
O14 Si2 1.630157 1_555
O14 Si5 1.631503 1_556
O15 Si3 1.630157 1_555
O15 Si4 1.631503 1_556
O16 Si0 1.629473 1_555
O16 Si4 1.630173 1_555
O17 Si1 1.629473 1_555
O17 Si5 1.630173 1_555
O18 Si2 1.629473 1_555
O18 Si6 1.630173 1_555
O19 Si3 1.629473 1_555
O19 Si7 1.630173 1_555
O20 V0 1.607366 1_555
O21 V1 1.607366 1_555
O22 O27 1.326830 1_555
O23 O27 1.326830 1_555
O24 O26 1.326830 1_555
O25 O26 1.326830 1_555
