# generated using pymatgen
data_Dy2MgNi2
_symmetry_space_group_name_H-M   'P 1'
_cell_length_a   7.32911018
_cell_length_b   7.32911018
_cell_length_c   3.68791702
_cell_angle_alpha   90.00000000
_cell_angle_beta   90.00000000
_cell_angle_gamma   90.00000000
_symmetry_Int_Tables_number   1
_chemical_formula_structural   Dy2MgNi2
_chemical_formula_sum   'Dy4 Mg2 Ni4'
_cell_volume   198.09961970
_cell_formula_units_Z   2
loop_
 _symmetry_equiv_pos_site_id
 _symmetry_equiv_pos_as_xyz
  1  'x, y, z'
loop_
 _atom_site_type_symbol
 _atom_site_label
 _atom_site_symmetry_multiplicity
 _atom_site_fract_x
 _atom_site_fract_y
 _atom_site_fract_z
 _atom_site_occupancy
  Dy  Dy0  1  0.67299392  0.17299392  0.50000000  1
  Dy  Dy1  1  0.32700608  0.82700608  0.50000000  1
  Dy  Dy2  1  0.17299392  0.32700608  0.50000000  1
  Dy  Dy3  1  0.82700608  0.67299392  0.50000000  1
  Mg  Mg0  1  0.00000000  0.00000000  0.00000000  1
  Mg  Mg1  1  0.50000000  0.50000000  0.00000000  1
  Ni  Ni0  1  0.11817044  0.61817044  -0.00000000  1
  Ni  Ni1  1  0.88182956  0.38182956  0.00000000  1
  Ni  Ni2  1  0.61817044  0.88182956  0.00000000  1
  Ni  Ni3  1  0.38182956  0.11817044  -0.00000000  1
loop_
_geom_bond_atom_site_label_1
_geom_bond_atom_site_label_2
_geom_bond_distance
_geom_bond_site_symmetry_2
Dy0 Ni1 2.843507 1_556
Dy0 Ni1 2.843507 1_555
Dy0 Ni3 2.848769 1_555
Dy0 Ni2 2.848769 1_546
Dy0 Ni3 2.848769 1_556
Dy0 Ni2 2.848769 1_545
Dy0 Mg0 3.278983 1_656
Dy0 Mg0 3.278983 1_655
Dy0 Mg1 3.278983 1_556
Dy0 Mg1 3.278983 1_555
Dy1 Ni0 2.843507 1_556
Dy1 Ni0 2.843507 1_555
Dy1 Ni2 2.848769 1_556
Dy1 Ni2 2.848769 1_555
Dy1 Ni3 2.848769 1_566
Dy1 Ni3 2.848769 1_565
Dy1 Mg1 3.278983 1_556
Dy1 Mg1 3.278983 1_555
Dy1 Mg0 3.278983 1_565
Dy1 Mg0 3.278983 1_566
Dy2 Ni3 2.843507 1_556
Dy2 Ni3 2.843507 1_555
Dy2 Ni0 2.848769 1_556
Dy2 Ni0 2.848769 1_555
Dy2 Ni1 2.848769 1_456
Dy2 Ni1 2.848769 1_455
Dy2 Mg0 3.278983 1_556
Dy2 Mg1 3.278983 1_556
Dy2 Mg1 3.278983 1_555
Dy2 Mg0 3.278983 1_555
Dy3 Ni2 2.843507 1_555
Dy3 Ni2 2.843507 1_556
Dy3 Ni1 2.848769 1_556
Dy3 Ni1 2.848769 1_555
Dy3 Ni0 2.848769 1_655
Dy3 Ni0 2.848769 1_656
Dy3 Mg0 3.278983 1_666
Dy3 Mg1 3.278983 1_556
Dy3 Mg1 3.278983 1_555
Dy3 Mg0 3.278983 1_665
Mg0 Ni1 2.929427 1_455
Mg0 Ni3 2.929427 1_555
Mg0 Ni0 2.929427 1_545
Mg0 Ni2 2.929427 1_445
Mg1 Ni2 2.929427 1_555
Mg1 Ni3 2.929427 1_555
Mg1 Ni0 2.929427 1_555
Mg1 Ni1 2.929427 1_555
Ni0 Ni1 2.449656 1_455
Ni2 Ni3 2.449656 1_565
