# generated using pymatgen
data_AlGaCu2(AsO5)2
_symmetry_space_group_name_H-M   'P 1'
_cell_length_a   10.39541100
_cell_length_b   5.76110300
_cell_length_c   7.47153364
_cell_angle_alpha   79.45833308
_cell_angle_beta   90.00000000
_cell_angle_gamma   90.00000000
_symmetry_Int_Tables_number   1
_chemical_formula_structural   AlGaCu2(AsO5)2
_chemical_formula_sum   'Al2 Ga2 Cu4 As4 O20'
_cell_volume   439.91070333
_cell_formula_units_Z   2
loop_
 _symmetry_equiv_pos_site_id
 _symmetry_equiv_pos_as_xyz
  1  'x, y, z'
loop_
 _atom_site_type_symbol
 _atom_site_label
 _atom_site_symmetry_multiplicity
 _atom_site_fract_x
 _atom_site_fract_y
 _atom_site_fract_z
 _atom_site_occupancy
  Al  Al0  1  0.32402000  0.81251600  0.14357200  1
  Al  Al1  1  0.82402000  0.18748400  0.85642800  1
  Ga  Ga0  1  0.67718500  0.68833000  0.85503000  1
  Ga  Ga1  1  0.17718500  0.31167000  0.14497000  1
  Cu  Cu0  1  0.35892100  0.33976900  0.46124500  1
  Cu  Cu1  1  0.85892100  0.66023100  0.53875500  1
  Cu  Cu2  1  0.64141700  0.16207400  0.53905000  1
  Cu  Cu3  1  0.14141700  0.83792600  0.46095000  1
  As  As0  1  0.60881300  0.67557400  0.27719200  1
  As  As1  1  0.10881300  0.32442600  0.72280800  1
  As  As2  1  0.38897100  0.82607600  0.72447400  1
  As  As3  1  0.88897100  0.17392400  0.27552600  1
  O  O0  1  0.70461500  0.61867500  0.10462200  1
  O  O1  1  0.20461500  0.38132500  0.89537800  1
  O  O2  1  0.29846300  0.87779400  0.90430300  1
  O  O3  1  0.79846300  0.12220600  0.09569700  1
  O  O4  1  0.53889200  0.40757300  0.38205700  1
  O  O5  1  0.03889200  0.59242700  0.61794300  1
  O  O6  1  0.46040300  0.09225500  0.61880500  1
  O  O7  1  0.96040300  0.90774500  0.38119500  1
  O  O8  1  0.28188100  0.51862700  0.23735500  1
  O  O9  1  0.78188100  0.48137300  0.76264500  1
  O  O10  1  0.72272400  0.99485100  0.76290200  1
  O  O11  1  0.22272400  0.00514900  0.23709800  1
  O  O12  1  0.69530700  0.79724600  0.43383700  1
  O  O13  1  0.19530700  0.20275400  0.56616300  1
  O  O14  1  0.30370900  0.70437900  0.56700600  1
  O  O15  1  0.80370900  0.29562100  0.43299400  1
  O  O16  1  0.48751100  0.86704100  0.19431100  1
  O  O17  1  0.98751100  0.13295900  0.80568900  1
  O  O18  1  0.50716800  0.62584300  0.80436900  1
  O  O19  1  0.00716800  0.37415700  0.19563100  1
loop_
_geom_bond_atom_site_label_1
_geom_bond_atom_site_label_2
_geom_bond_distance
_geom_bond_site_symmetry_2
Al0 O11 1.764227 1_565
Al0 O8 1.765063 1_555
Al0 O2 1.778176 1_554
Al0 O16 1.781700 1_555
Al1 O10 1.764227 1_545
Al1 O9 1.765063 1_555
Al1 O3 1.778176 1_556
Al1 O17 1.781700 1_555
Ga0 O10 1.836177 1_555
Ga0 O9 1.839482 1_555
Ga0 O0 1.856376 1_556
Ga0 O18 1.856453 1_555
Ga1 O11 1.836177 1_555
Ga1 O8 1.839482 1_555
Ga1 O1 1.856376 1_554
Ga1 O19 1.856453 1_555
Cu0 O8 1.967412 1_555
Cu0 O13 1.975857 1_555
Cu0 O6 1.979361 1_555
Cu0 O4 1.979455 1_555
Cu0 O14 2.444076 1_555
Cu1 O9 1.967412 1_555
Cu1 O12 1.975857 1_555
Cu1 O7 1.979361 1_555
Cu1 O5 1.979455 1_655
Cu1 O15 2.444076 1_555
Cu2 O15 1.960369 1_555
Cu2 O10 1.962208 1_545
Cu2 O4 1.976140 1_555
Cu2 O6 1.992493 1_555
Cu2 O12 2.440074 1_545
Cu3 O14 1.960369 1_555
Cu3 O11 1.962208 1_565
Cu3 O5 1.976140 1_555
Cu3 O7 1.992493 1_455
Cu3 O13 2.440074 1_565
As0 O0 1.707741 1_555
As0 O16 1.714747 1_555
As0 O12 1.723303 1_555
As0 O4 1.755973 1_555
As1 O1 1.707741 1_555
As1 O17 1.714747 1_455
As1 O13 1.723303 1_555
As1 O5 1.755973 1_555
As2 O2 1.710481 1_555
As2 O18 1.716042 1_555
As2 O14 1.721389 1_555
As2 O6 1.755935 1_565
As3 O3 1.710481 1_555
As3 O19 1.716042 1_655
As3 O15 1.721389 1_555
As3 O7 1.755935 1_545
