# generated using pymatgen
data_SmB4Rh7
_symmetry_space_group_name_H-M   'P 1'
_cell_length_a   5.83365400
_cell_length_b   11.10697481
_cell_length_c   19.31291884
_cell_angle_alpha   89.99999844
_cell_angle_beta   90.00000000
_cell_angle_gamma   90.00000000
_symmetry_Int_Tables_number   1
_chemical_formula_structural   SmB4Rh7
_chemical_formula_sum   'Sm8 B32 Rh56'
_cell_volume   1251.36605326
_cell_formula_units_Z   8
loop_
 _symmetry_equiv_pos_site_id
 _symmetry_equiv_pos_as_xyz
  1  'x, y, z'
loop_
 _atom_site_type_symbol
 _atom_site_label
 _atom_site_symmetry_multiplicity
 _atom_site_fract_x
 _atom_site_fract_y
 _atom_site_fract_z
 _atom_site_occupancy
  Sm  Sm0_0  1  0.00000000  0.49999200  0.00000000  1
  Sm  Sm0_1  1  0.00000000  0.49999200  0.50000000  1
  Sm  Sm0_2  1  0.00000000  0.99999200  0.00000000  1
  Sm  Sm0_3  1  0.00000000  0.99999200  0.50000000  1
  Sm  Sm0_4  1  0.50000000  0.49999200  0.00000000  1
  Sm  Sm0_5  1  0.50000000  0.49999200  0.50000000  1
  Sm  Sm0_6  1  0.50000000  0.99999200  0.00000000  1
  Sm  Sm0_7  1  0.50000000  0.99999200  0.50000000  1
  B  B0_0  1  0.00000000  0.49980450  0.16675800  1
  B  B0_1  1  0.00000000  0.49980450  0.66675800  1
  B  B0_2  1  0.00000000  0.99980450  0.16675800  1
  B  B0_3  1  0.00000000  0.99980450  0.66675800  1
  B  B0_4  1  0.50000000  0.49980450  0.16675800  1
  B  B0_5  1  0.50000000  0.49980450  0.66675800  1
  B  B0_6  1  0.50000000  0.99980450  0.16675800  1
  B  B0_7  1  0.50000000  0.99980450  0.66675800  1
  B  B1_0  1  0.00000000  0.25021150  0.41647650  1
  B  B1_1  1  0.00000000  0.25021150  0.91647650  1
  B  B1_2  1  0.00000000  0.75021150  0.41647650  1
  B  B1_3  1  0.00000000  0.75021150  0.91647650  1
  B  B1_4  1  0.50000000  0.25021150  0.41647650  1
  B  B1_5  1  0.50000000  0.25021150  0.91647650  1
  B  B1_6  1  0.50000000  0.75021150  0.41647650  1
  B  B1_7  1  0.50000000  0.75021150  0.91647650  1
  B  B2_0  1  0.00000000  0.25021150  0.08352350  1
  B  B2_1  1  0.00000000  0.25021150  0.58352350  1
  B  B2_2  1  0.00000000  0.75021150  0.08352350  1
  B  B2_3  1  0.00000000  0.75021150  0.58352350  1
  B  B2_4  1  0.50000000  0.25021150  0.08352350  1
  B  B2_5  1  0.50000000  0.25021150  0.58352350  1
  B  B2_6  1  0.50000000  0.75021150  0.08352350  1
  B  B2_7  1  0.50000000  0.75021150  0.58352350  1
  B  B3_0  1  0.00000000  0.49980450  0.33324200  1
  B  B3_1  1  0.00000000  0.49980450  0.83324200  1
  B  B3_2  1  0.00000000  0.99980450  0.33324200  1
  B  B3_3  1  0.00000000  0.99980450  0.83324200  1
  B  B3_4  1  0.50000000  0.49980450  0.33324200  1
  B  B3_5  1  0.50000000  0.49980450  0.83324200  1
  B  B3_6  1  0.50000000  0.99980450  0.33324200  1
  B  B3_7  1  0.50000000  0.99980450  0.83324200  1
  Rh  Rh0_0  1  0.25000000  0.00278350  0.25000000  1
  Rh  Rh0_1  1  0.25000000  0.00278350  0.75000000  1
  Rh  Rh0_2  1  0.25000000  0.50278350  0.25000000  1
  Rh  Rh0_3  1  0.25000000  0.50278350  0.75000000  1
  Rh  Rh0_4  1  0.75000000  0.00278350  0.25000000  1
  Rh  Rh0_5  1  0.75000000  0.00278350  0.75000000  1
  Rh  Rh0_6  1  0.75000000  0.50278350  0.25000000  1
  Rh  Rh0_7  1  0.75000000  0.50278350  0.75000000  1
  Rh  Rh1_0  1  0.25000000  0.25105500  0.00000000  1
  Rh  Rh1_1  1  0.25000000  0.25105500  0.50000000  1
  Rh  Rh1_2  1  0.25000000  0.75105500  0.00000000  1
  Rh  Rh1_3  1  0.25000000  0.75105500  0.50000000  1
  Rh  Rh1_4  1  0.75000000  0.25105500  0.00000000  1
  Rh  Rh1_5  1  0.75000000  0.25105500  0.50000000  1
  Rh  Rh1_6  1  0.75000000  0.75105500  0.00000000  1
  Rh  Rh1_7  1  0.75000000  0.75105500  0.50000000  1
  Rh  Rh2_0  1  0.25000000  0.12583850  0.12616300  1
  Rh  Rh2_1  1  0.25000000  0.12583850  0.62616300  1
  Rh  Rh2_2  1  0.25000000  0.62583850  0.12616300  1
  Rh  Rh2_3  1  0.25000000  0.62583850  0.62616300  1
  Rh  Rh2_4  1  0.75000000  0.12583850  0.12616300  1
  Rh  Rh2_5  1  0.75000000  0.12583850  0.62616300  1
  Rh  Rh2_6  1  0.75000000  0.62583850  0.12616300  1
  Rh  Rh2_7  1  0.75000000  0.62583850  0.62616300  1
  Rh  Rh3_0  1  0.25000000  0.37207900  0.37193300  1
  Rh  Rh3_1  1  0.25000000  0.37207900  0.87193300  1
  Rh  Rh3_2  1  0.25000000  0.87207900  0.37193300  1
  Rh  Rh3_3  1  0.25000000  0.87207900  0.87193300  1
  Rh  Rh3_4  1  0.75000000  0.37207900  0.37193300  1
  Rh  Rh3_5  1  0.75000000  0.37207900  0.87193300  1
  Rh  Rh3_6  1  0.75000000  0.87207900  0.37193300  1
  Rh  Rh3_7  1  0.75000000  0.87207900  0.87193300  1
  Rh  Rh4_0  1  0.25000000  0.37207900  0.12806700  1
  Rh  Rh4_1  1  0.25000000  0.37207900  0.62806700  1
  Rh  Rh4_2  1  0.25000000  0.87207900  0.12806700  1
  Rh  Rh4_3  1  0.25000000  0.87207900  0.62806700  1
  Rh  Rh4_4  1  0.75000000  0.37207900  0.12806700  1
  Rh  Rh4_5  1  0.75000000  0.37207900  0.62806700  1
  Rh  Rh4_6  1  0.75000000  0.87207900  0.12806700  1
  Rh  Rh4_7  1  0.75000000  0.87207900  0.62806700  1
  Rh  Rh5_0  1  0.25000000  0.12583850  0.37383700  1
  Rh  Rh5_1  1  0.25000000  0.12583850  0.87383700  1
  Rh  Rh5_2  1  0.25000000  0.62583850  0.37383700  1
  Rh  Rh5_3  1  0.25000000  0.62583850  0.87383700  1
  Rh  Rh5_4  1  0.75000000  0.12583850  0.37383700  1
  Rh  Rh5_5  1  0.75000000  0.12583850  0.87383700  1
  Rh  Rh5_6  1  0.75000000  0.62583850  0.37383700  1
  Rh  Rh5_7  1  0.75000000  0.62583850  0.87383700  1
  Rh  Rh6_0  1  0.00000000  0.25020250  0.25000000  1
  Rh  Rh6_1  1  0.00000000  0.25020250  0.75000000  1
  Rh  Rh6_2  1  0.00000000  0.75020250  0.25000000  1
  Rh  Rh6_3  1  0.00000000  0.75020250  0.75000000  1
  Rh  Rh6_4  1  0.50000000  0.25020250  0.25000000  1
  Rh  Rh6_5  1  0.50000000  0.25020250  0.75000000  1
  Rh  Rh6_6  1  0.50000000  0.75020250  0.25000000  1
  Rh  Rh6_7  1  0.50000000  0.75020250  0.75000000  1
loop_
_geom_bond_atom_site_label_1
_geom_bond_atom_site_label_2
_geom_bond_distance
_geom_bond_site_symmetry_2
Sm0_0 Sm0_4 2.916827 1_555
Sm0_0 Sm0_4 2.916827 1_455
Sm0_1 Sm0_5 2.916827 1_555
Sm0_1 Sm0_5 2.916827 1_455
Sm0_2 Sm0_6 2.916827 1_555
Sm0_2 Sm0_6 2.916827 1_455
Sm0_3 Sm0_7 2.916827 1_555
Sm0_3 Sm0_7 2.916827 1_455
B0_0 Rh4_4 2.167460 1_455
B0_0 Rh4_0 2.167460 1_555
B0_0 Rh2_6 2.168233 1_455
B0_0 Rh2_2 2.168233 1_555
B0_0 Rh0_6 2.170850 1_455
B0_0 Rh0_2 2.170850 1_555
B0_0 Sm0_0 3.220584 1_555
B0_1 Rh4_5 2.167460 1_455
B0_1 Rh4_1 2.167460 1_555
B0_1 Rh2_7 2.168233 1_455
B0_1 Rh2_3 2.168233 1_555
B0_1 Rh0_7 2.170850 1_455
B0_1 Rh0_3 2.170850 1_555
B0_1 Sm0_1 3.220584 1_555
B0_2 Rh4_6 2.167460 1_455
B0_2 Rh4_2 2.167460 1_555
B0_2 Rh2_4 2.168233 1_465
B0_2 Rh2_0 2.168233 1_565
B0_2 Rh0_4 2.170850 1_465
B0_2 Rh0_0 2.170850 1_565
B0_2 Sm0_2 3.220584 1_555
B0_3 Rh4_7 2.167460 1_455
B0_3 Rh4_3 2.167460 1_555
B0_3 Rh2_5 2.168233 1_465
B0_3 Rh2_1 2.168233 1_565
B0_3 Rh0_5 2.170850 1_465
B0_3 Rh0_1 2.170850 1_565
B0_3 Sm0_3 3.220584 1_555
B0_4 Rh4_0 2.167460 1_555
B0_4 Rh4_4 2.167460 1_555
B0_4 Rh2_2 2.168233 1_555
B0_4 Rh2_6 2.168233 1_555
B0_4 Rh0_2 2.170850 1_555
B0_4 Rh0_6 2.170850 1_555
B0_4 Sm0_4 3.220584 1_555
B0_5 Rh4_1 2.167460 1_555
B0_5 Rh4_5 2.167460 1_555
B0_5 Rh2_3 2.168233 1_555
B0_5 Rh2_7 2.168233 1_555
B0_5 Rh0_3 2.170850 1_555
B0_5 Rh0_7 2.170850 1_555
B0_5 Sm0_5 3.220584 1_555
B0_6 Rh4_2 2.167460 1_555
B0_6 Rh4_6 2.167460 1_555
B0_6 Rh2_0 2.168233 1_565
B0_6 Rh2_4 2.168233 1_565
B0_6 Rh0_0 2.170850 1_565
B0_6 Rh0_4 2.170850 1_565
B0_6 Sm0_6 3.220584 1_555
B0_7 Rh4_3 2.167460 1_555
B0_7 Rh4_7 2.167460 1_555
B0_7 Rh2_1 2.168233 1_565
B0_7 Rh2_5 2.168233 1_565
B0_7 Rh0_1 2.170850 1_565
B0_7 Rh0_5 2.170850 1_565
B0_7 Sm0_7 3.220584 1_555
B1_0 Rh3_4 2.167764 1_455
B1_0 Rh3_0 2.167764 1_555
B1_0 Rh5_4 2.171036 1_455
B1_0 Rh5_0 2.171036 1_555
B1_0 Rh1_5 2.174648 1_455
B1_0 Rh1_1 2.174648 1_555
B1_0 Sm0_1 3.209176 1_555
B1_0 Sm0_3 3.213392 1_545
B1_1 Rh3_5 2.167764 1_455
B1_1 Rh3_1 2.167764 1_555
B1_1 Rh5_5 2.171036 1_455
B1_1 Rh5_1 2.171036 1_555
B1_1 Rh1_4 2.174648 1_456
B1_1 Rh1_0 2.174648 1_556
B1_1 Sm0_0 3.209176 1_556
B1_1 Sm0_2 3.213392 1_546
B1_2 Rh3_6 2.167764 1_455
B1_2 Rh3_2 2.167764 1_555
B1_2 Rh5_6 2.171036 1_455
B1_2 Rh5_2 2.171036 1_555
B1_2 Rh1_7 2.174648 1_455
B1_2 Rh1_3 2.174648 1_555
B1_2 Sm0_3 3.209176 1_555
B1_2 Sm0_1 3.213392 1_555
B1_3 Rh3_7 2.167764 1_455
B1_3 Rh3_3 2.167764 1_555
B1_3 Rh5_7 2.171036 1_455
B1_3 Rh5_3 2.171036 1_555
B1_3 Rh1_6 2.174648 1_456
B1_3 Rh1_2 2.174648 1_556
B1_3 Sm0_2 3.209176 1_556
B1_3 Sm0_0 3.213392 1_556
B1_4 Rh3_0 2.167764 1_555
B1_4 Rh3_4 2.167764 1_555
B1_4 Rh5_0 2.171036 1_555
B1_4 Rh5_4 2.171036 1_555
B1_4 Rh1_1 2.174648 1_555
B1_4 Rh1_5 2.174648 1_555
B1_4 Sm0_5 3.209176 1_555
B1_4 Sm0_7 3.213392 1_545
B1_5 Rh3_1 2.167764 1_555
B1_5 Rh3_5 2.167764 1_555
B1_5 Rh5_1 2.171036 1_555
B1_5 Rh5_5 2.171036 1_555
B1_5 Rh1_4 2.174648 1_556
B1_5 Rh1_0 2.174648 1_556
B1_5 Sm0_4 3.209176 1_556
B1_5 Sm0_6 3.213392 1_546
B1_6 Rh3_2 2.167764 1_555
B1_6 Rh3_6 2.167764 1_555
B1_6 Rh5_2 2.171036 1_555
B1_6 Rh5_6 2.171036 1_555
B1_6 Rh1_3 2.174648 1_555
B1_6 Rh1_7 2.174648 1_555
B1_6 Sm0_7 3.209176 1_555
B1_6 Sm0_5 3.213392 1_555
B1_7 Rh3_3 2.167764 1_555
B1_7 Rh3_7 2.167764 1_555
B1_7 Rh5_3 2.171036 1_555
B1_7 Rh5_7 2.171036 1_555
B1_7 Rh1_2 2.174648 1_556
B1_7 Rh1_6 2.174648 1_556
B1_7 Sm0_6 3.209176 1_556
B1_7 Sm0_4 3.213392 1_556
B2_0 Rh4_4 2.167764 1_455
B2_0 Rh4_0 2.167764 1_555
B2_0 Rh2_4 2.171036 1_455
B2_0 Rh2_0 2.171036 1_555
B2_0 Rh1_4 2.174648 1_455
B2_0 Rh1_0 2.174648 1_555
B2_0 Sm0_0 3.209176 1_555
B2_0 Sm0_2 3.213392 1_545
B2_1 Rh4_5 2.167764 1_455
B2_1 Rh4_1 2.167764 1_555
B2_1 Rh2_5 2.171036 1_455
B2_1 Rh2_1 2.171036 1_555
B2_1 Rh1_5 2.174648 1_455
B2_1 Rh1_1 2.174648 1_555
B2_1 Sm0_1 3.209176 1_555
B2_1 Sm0_3 3.213392 1_545
B2_2 Rh4_6 2.167764 1_455
B2_2 Rh4_2 2.167764 1_555
B2_2 Rh2_6 2.171036 1_455
B2_2 Rh2_2 2.171036 1_555
B2_2 Rh1_2 2.174648 1_555
B2_2 Rh1_6 2.174648 1_455
B2_2 Sm0_2 3.209176 1_555
B2_2 Sm0_0 3.213392 1_555
B2_3 Rh4_7 2.167764 1_455
B2_3 Rh4_3 2.167764 1_555
B2_3 Rh2_7 2.171036 1_455
B2_3 Rh2_3 2.171036 1_555
B2_3 Rh1_7 2.174648 1_455
B2_3 Rh1_3 2.174648 1_555
B2_3 Sm0_3 3.209176 1_555
B2_3 Sm0_1 3.213392 1_555
B2_4 Rh4_0 2.167764 1_555
B2_4 Rh4_4 2.167764 1_555
B2_4 Rh2_0 2.171036 1_555
B2_4 Rh2_4 2.171036 1_555
B2_4 Rh1_0 2.174648 1_555
B2_4 Rh1_4 2.174648 1_555
B2_4 Sm0_4 3.209176 1_555
B2_4 Sm0_6 3.213392 1_545
B2_5 Rh4_1 2.167764 1_555
B2_5 Rh4_5 2.167764 1_555
B2_5 Rh2_1 2.171036 1_555
B2_5 Rh2_5 2.171036 1_555
B2_5 Rh1_1 2.174648 1_555
B2_5 Rh1_5 2.174648 1_555
B2_5 Sm0_5 3.209176 1_555
B2_5 Sm0_7 3.213392 1_545
B2_6 Rh4_2 2.167764 1_555
B2_6 Rh4_6 2.167764 1_555
B2_6 Rh2_2 2.171036 1_555
B2_6 Rh2_6 2.171036 1_555
B2_6 Rh1_2 2.174648 1_555
B2_6 Rh1_6 2.174648 1_555
B2_6 Sm0_6 3.209176 1_555
B2_6 Sm0_4 3.213392 1_555
B2_7 Rh4_3 2.167764 1_555
B2_7 Rh4_7 2.167764 1_555
B2_7 Rh2_3 2.171036 1_555
B2_7 Rh2_7 2.171036 1_555
B2_7 Rh1_3 2.174648 1_555
B2_7 Rh1_7 2.174648 1_555
B2_7 Sm0_7 3.209176 1_555
B2_7 Sm0_5 3.213392 1_555
B3_0 Rh3_4 2.167460 1_455
B3_0 Rh3_0 2.167460 1_555
B3_0 Rh5_6 2.168234 1_455
B3_0 Rh5_2 2.168234 1_555
B3_0 Rh0_6 2.170850 1_455
B3_0 Rh0_2 2.170850 1_555
B3_0 Sm0_1 3.220584 1_555
B3_1 Rh3_5 2.167460 1_455
B3_1 Rh3_1 2.167460 1_555
B3_1 Rh5_7 2.168234 1_455
B3_1 Rh5_3 2.168234 1_555
B3_1 Rh0_7 2.170850 1_455
B3_1 Rh0_3 2.170850 1_555
B3_1 Sm0_0 3.220584 1_556
B3_2 Rh3_6 2.167460 1_455
B3_2 Rh3_2 2.167460 1_555
B3_2 Rh5_4 2.168234 1_465
B3_2 Rh5_0 2.168234 1_565
B3_2 Rh0_4 2.170850 1_465
B3_2 Rh0_0 2.170850 1_565
B3_2 Sm0_3 3.220584 1_555
B3_3 Rh3_7 2.167460 1_455
B3_3 Rh3_3 2.167460 1_555
B3_3 Rh5_5 2.168234 1_465
B3_3 Rh5_1 2.168234 1_565
B3_3 Rh0_5 2.170850 1_465
B3_3 Rh0_1 2.170850 1_565
B3_3 Sm0_2 3.220584 1_556
B3_4 Rh3_0 2.167460 1_555
B3_4 Rh3_4 2.167460 1_555
B3_4 Rh5_2 2.168234 1_555
B3_4 Rh5_6 2.168234 1_555
B3_4 Rh0_2 2.170850 1_555
B3_4 Rh0_6 2.170850 1_555
B3_4 Sm0_5 3.220584 1_555
B3_5 Rh3_1 2.167460 1_555
B3_5 Rh3_5 2.167460 1_555
B3_5 Rh5_3 2.168234 1_555
B3_5 Rh5_7 2.168234 1_555
B3_5 Rh0_3 2.170850 1_555
B3_5 Rh0_7 2.170850 1_555
B3_5 Sm0_4 3.220584 1_556
B3_6 Rh3_2 2.167460 1_555
B3_6 Rh3_6 2.167460 1_555
B3_6 Rh5_0 2.168234 1_565
B3_6 Rh5_4 2.168234 1_565
B3_6 Rh0_0 2.170850 1_565
B3_6 Rh0_4 2.170850 1_565
B3_6 Sm0_7 3.220584 1_555
B3_7 Rh3_3 2.167460 1_555
B3_7 Rh3_7 2.167460 1_555
B3_7 Rh5_1 2.168234 1_565
B3_7 Rh5_5 2.168234 1_565
B3_7 Rh0_1 2.170850 1_565
B3_7 Rh0_5 2.170850 1_565
B3_7 Sm0_6 3.220584 1_556
Rh0_0 Rh6_0 3.111092 1_555
Rh0_0 Rh6_4 3.111092 1_555
Rh0_0 Rh6_6 3.161851 1_545
Rh0_0 Rh6_2 3.161851 1_545
Rh0_1 Rh6_5 3.111092 1_555
Rh0_1 Rh6_1 3.111092 1_555
Rh0_1 Rh6_3 3.161851 1_545
Rh0_1 Rh6_7 3.161851 1_545
Rh0_2 Rh6_2 3.111092 1_555
Rh0_2 Rh6_6 3.111092 1_555
Rh0_2 Rh6_0 3.161851 1_555
Rh0_2 Rh6_4 3.161851 1_555
Rh0_3 Rh6_7 3.111092 1_555
Rh0_3 Rh6_3 3.111092 1_555
Rh0_3 Rh6_1 3.161851 1_555
Rh0_3 Rh6_5 3.161851 1_555
Rh0_4 Rh6_0 3.111092 1_655
Rh0_4 Rh6_4 3.111092 1_555
Rh0_4 Rh6_2 3.161851 1_645
Rh0_4 Rh6_6 3.161851 1_545
Rh0_5 Rh6_1 3.111092 1_655
Rh0_5 Rh6_5 3.111092 1_555
Rh0_5 Rh6_3 3.161851 1_645
Rh0_5 Rh6_7 3.161851 1_545
Rh0_6 Rh6_2 3.111092 1_655
Rh0_6 Rh6_6 3.111092 1_555
Rh0_6 Rh6_0 3.161851 1_655
Rh0_6 Rh6_4 3.161851 1_555
Rh0_7 Rh6_3 3.111092 1_655
Rh0_7 Rh6_7 3.111092 1_555
Rh0_7 Rh6_1 3.161851 1_655
Rh0_7 Rh6_5 3.161851 1_555
Rh1_0 Sm0_0 3.125995 1_555
Rh1_0 Sm0_4 3.125995 1_555
Rh1_0 Sm0_2 3.146901 1_545
Rh1_0 Sm0_6 3.146901 1_545
Rh1_1 Sm0_1 3.125995 1_555
Rh1_1 Sm0_5 3.125995 1_555
Rh1_1 Sm0_7 3.146901 1_545
Rh1_1 Sm0_3 3.146901 1_545
Rh1_2 Sm0_2 3.125995 1_555
Rh1_2 Sm0_6 3.125995 1_555
Rh1_2 Sm0_0 3.146901 1_555
Rh1_2 Sm0_4 3.146901 1_555
Rh1_3 Sm0_7 3.125995 1_555
Rh1_3 Sm0_3 3.125995 1_555
Rh1_3 Sm0_1 3.146901 1_555
Rh1_3 Sm0_5 3.146901 1_555
Rh1_4 Sm0_0 3.125995 1_655
Rh1_4 Sm0_4 3.125995 1_555
Rh1_4 Sm0_2 3.146901 1_645
Rh1_4 Sm0_6 3.146901 1_545
Rh1_5 Sm0_1 3.125995 1_655
Rh1_5 Sm0_5 3.125995 1_555
Rh1_5 Sm0_3 3.146901 1_645
Rh1_5 Sm0_7 3.146901 1_545
Rh1_6 Sm0_2 3.125995 1_655
Rh1_6 Sm0_6 3.125995 1_555
Rh1_6 Sm0_0 3.146901 1_655
Rh1_6 Sm0_4 3.146901 1_555
Rh1_7 Sm0_3 3.125995 1_655
Rh1_7 Sm0_7 3.125995 1_555
Rh1_7 Sm0_1 3.146901 1_655
Rh1_7 Sm0_5 3.146901 1_555
Rh2_0 Rh6_0 3.123298 1_555
Rh2_0 Rh6_4 3.123298 1_555
Rh2_0 Sm0_2 3.165066 1_545
Rh2_0 Sm0_6 3.165066 1_545
Rh2_1 Rh6_5 3.123298 1_555
Rh2_1 Rh6_1 3.123298 1_555
Rh2_1 Sm0_7 3.165066 1_545
Rh2_1 Sm0_3 3.165066 1_545
Rh2_2 Rh6_2 3.123298 1_555
Rh2_2 Rh6_6 3.123298 1_555
Rh2_2 Sm0_0 3.165066 1_555
Rh2_2 Sm0_4 3.165066 1_555
Rh2_3 Rh6_7 3.123298 1_555
Rh2_3 Rh6_3 3.123298 1_555
Rh2_3 Sm0_5 3.165066 1_555
Rh2_3 Sm0_1 3.165066 1_555
Rh2_4 Rh6_0 3.123298 1_655
Rh2_4 Rh6_4 3.123298 1_555
Rh2_4 Sm0_2 3.165066 1_645
Rh2_4 Sm0_6 3.165066 1_545
Rh2_5 Rh6_1 3.123298 1_655
Rh2_5 Rh6_5 3.123298 1_555
Rh2_5 Sm0_3 3.165066 1_645
Rh2_5 Sm0_7 3.165066 1_545
Rh2_6 Rh6_2 3.123298 1_655
Rh2_6 Rh6_6 3.123298 1_555
Rh2_6 Sm0_0 3.165066 1_655
Rh2_6 Sm0_4 3.165066 1_555
Rh2_7 Rh6_3 3.123298 1_655
Rh2_7 Rh6_7 3.123298 1_555
Rh2_7 Sm0_1 3.165066 1_655
Rh2_7 Sm0_5 3.165066 1_555
Rh3_0 Rh6_4 3.083000 1_555
Rh3_0 Rh6_0 3.083000 1_555
Rh3_0 Sm0_1 3.203573 1_555
Rh3_0 Sm0_5 3.203573 1_555
Rh3_1 Rh6_1 3.083000 1_555
Rh3_1 Rh6_5 3.083000 1_555
Rh3_1 Sm0_0 3.203573 1_556
Rh3_1 Sm0_4 3.203573 1_556
Rh3_2 Rh6_2 3.083000 1_555
Rh3_2 Rh6_6 3.083000 1_555
Rh3_2 Sm0_7 3.203573 1_555
Rh3_2 Sm0_3 3.203573 1_555
Rh3_3 Rh6_3 3.083000 1_555
Rh3_3 Rh6_7 3.083000 1_555
Rh3_3 Sm0_2 3.203573 1_556
Rh3_3 Sm0_6 3.203573 1_556
Rh3_4 Rh6_0 3.083000 1_655
Rh3_4 Rh6_4 3.083000 1_555
Rh3_4 Sm0_1 3.203573 1_655
Rh3_4 Sm0_5 3.203573 1_555
Rh3_5 Rh6_1 3.083000 1_655
Rh3_5 Rh6_5 3.083000 1_555
Rh3_5 Sm0_0 3.203573 1_656
Rh3_5 Sm0_4 3.203573 1_556
Rh3_6 Rh6_2 3.083000 1_655
Rh3_6 Rh6_6 3.083000 1_555
Rh3_6 Sm0_3 3.203573 1_655
Rh3_6 Sm0_7 3.203573 1_555
Rh3_7 Rh6_3 3.083000 1_655
Rh3_7 Rh6_7 3.083000 1_555
Rh3_7 Sm0_2 3.203573 1_656
Rh3_7 Sm0_6 3.203573 1_556
Rh4_0 Rh6_0 3.083000 1_555
Rh4_0 Rh6_4 3.083000 1_555
Rh4_0 Sm0_0 3.203573 1_555
Rh4_0 Sm0_4 3.203573 1_555
Rh4_1 Rh6_5 3.083000 1_555
Rh4_1 Rh6_1 3.083000 1_555
Rh4_1 Sm0_1 3.203573 1_555
Rh4_1 Sm0_5 3.203573 1_555
Rh4_2 Rh6_2 3.083000 1_555
Rh4_2 Rh6_6 3.083000 1_555
Rh4_2 Sm0_6 3.203573 1_555
Rh4_2 Sm0_2 3.203573 1_555
Rh4_3 Rh6_7 3.083000 1_555
Rh4_3 Rh6_3 3.083000 1_555
Rh4_3 Sm0_7 3.203573 1_555
Rh4_3 Sm0_3 3.203573 1_555
Rh4_4 Rh6_0 3.083000 1_655
Rh4_4 Rh6_4 3.083000 1_555
Rh4_4 Sm0_0 3.203573 1_655
Rh4_4 Sm0_4 3.203573 1_555
Rh4_5 Rh6_1 3.083000 1_655
Rh4_5 Rh6_5 3.083000 1_555
Rh4_5 Sm0_1 3.203573 1_655
Rh4_5 Sm0_5 3.203573 1_555
Rh4_6 Rh6_2 3.083000 1_655
Rh4_6 Rh6_6 3.083000 1_555
Rh4_6 Sm0_2 3.203573 1_655
Rh4_6 Sm0_6 3.203573 1_555
Rh4_7 Rh6_3 3.083000 1_655
Rh4_7 Rh6_7 3.083000 1_555
Rh4_7 Sm0_3 3.203573 1_655
Rh4_7 Sm0_7 3.203573 1_555
Rh5_0 Rh6_0 3.123298 1_555
Rh5_0 Rh6_4 3.123298 1_555
Rh5_0 Sm0_7 3.165066 1_545
Rh5_0 Sm0_3 3.165066 1_545
Rh5_1 Rh6_1 3.123298 1_555
Rh5_1 Rh6_5 3.123298 1_555
Rh5_1 Sm0_2 3.165066 1_546
Rh5_1 Sm0_6 3.165066 1_546
Rh5_2 Rh6_2 3.123298 1_555
Rh5_2 Rh6_6 3.123298 1_555
Rh5_2 Sm0_1 3.165066 1_555
Rh5_2 Sm0_5 3.165066 1_555
Rh5_3 Rh6_3 3.123298 1_555
Rh5_3 Rh6_7 3.123298 1_555
Rh5_3 Sm0_4 3.165066 1_556
Rh5_3 Sm0_0 3.165066 1_556
Rh5_4 Rh6_0 3.123298 1_655
Rh5_4 Rh6_4 3.123298 1_555
Rh5_4 Sm0_3 3.165066 1_645
Rh5_4 Sm0_7 3.165066 1_545
Rh5_5 Rh6_1 3.123298 1_655
Rh5_5 Rh6_5 3.123298 1_555
Rh5_5 Sm0_2 3.165066 1_646
Rh5_5 Sm0_6 3.165066 1_546
Rh5_6 Rh6_2 3.123298 1_655
Rh5_6 Rh6_6 3.123298 1_555
Rh5_6 Sm0_1 3.165066 1_655
Rh5_6 Sm0_5 3.165066 1_555
Rh5_7 Rh6_3 3.123298 1_655
Rh5_7 Rh6_7 3.123298 1_555
Rh5_7 Sm0_0 3.165066 1_656
Rh5_7 Sm0_4 3.165066 1_556
Rh6_0 Rh6_4 2.916827 1_455
Rh6_0 Rh6_4 2.916827 1_555
Rh6_1 Rh6_5 2.916827 1_555
Rh6_1 Rh6_5 2.916827 1_455
Rh6_2 Rh6_6 2.916827 1_455
Rh6_2 Rh6_6 2.916827 1_555
Rh6_3 Rh6_7 2.916827 1_455
Rh6_3 Rh6_7 2.916827 1_555
