# generated using pymatgen
data_LuSc3(MnSi)4
_symmetry_space_group_name_H-M   'P 1'
_cell_length_a   3.91040600
_cell_length_b   6.61338400
_cell_length_c   7.45525882
_cell_angle_alpha   89.30731619
_cell_angle_beta   90.00000000
_cell_angle_gamma   90.00000000
_symmetry_Int_Tables_number   1
_chemical_formula_structural   LuSc3(MnSi)4
_chemical_formula_sum   'Lu1 Sc3 Mn4 Si4'
_cell_volume   192.78648156
_cell_formula_units_Z   1
loop_
 _symmetry_equiv_pos_site_id
 _symmetry_equiv_pos_as_xyz
  1  'x, y, z'
loop_
 _atom_site_type_symbol
 _atom_site_label
 _atom_site_symmetry_multiplicity
 _atom_site_fract_x
 _atom_site_fract_y
 _atom_site_fract_z
 _atom_site_occupancy
  Lu  Lu0  1  0.00000000  0.52104300  0.18181500  1
  Sc  Sc0  1  0.00000000  0.02076500  0.32179800  1
  Sc  Sc1  1  0.50000000  0.48074100  0.81402700  1
  Sc  Sc2  1  0.50000000  0.98388400  0.68243300  1
  Mn  Mn0  1  0.00000000  0.64149800  0.55960100  1
  Mn  Mn1  1  0.00000000  0.13572400  0.94353900  1
  Mn  Mn2  1  0.50000000  0.35886300  0.44549600  1
  Mn  Mn3  1  0.50000000  0.85642700  0.05230500  1
  Si  Si0  1  0.00000000  0.77919800  0.86978200  1
  Si  Si1  1  0.00000000  0.28019800  0.62330100  1
  Si  Si2  1  0.50000000  0.21503300  0.11967400  1
  Si  Si3  1  0.50000000  0.72662500  0.38622900  1
loop_
_geom_bond_atom_site_label_1
_geom_bond_atom_site_label_2
_geom_bond_distance
_geom_bond_site_symmetry_2
Lu0 Si3 2.836170 1_455
Lu0 Si3 2.836170 1_555
Lu0 Si2 2.855823 1_455
Lu0 Si2 2.855823 1_555
Lu0 Si0 2.868864 1_554
Sc0 Si2 2.774409 1_455
Sc0 Si2 2.774409 1_555
Sc0 Si3 2.795532 1_445
Sc0 Si3 2.795532 1_545
Sc0 Si1 2.844205 1_555
Sc1 Si1 2.765725 1_555
Sc1 Si1 2.765725 1_655
Sc1 Si0 2.812715 1_655
Sc1 Si0 2.812715 1_555
Sc1 Si2 2.860666 1_556
Sc2 Si0 2.749616 1_555
Sc2 Si0 2.749616 1_655
Sc2 Si1 2.799367 1_665
Sc2 Si1 2.799367 1_565
Sc2 Si3 2.803913 1_555
Mn0 Si3 2.406826 1_555
Mn0 Si3 2.406826 1_455
Mn0 Si1 2.430515 1_555
Mn0 Si0 2.495553 1_555
Mn1 Si2 2.416379 1_456
Mn1 Si2 2.416379 1_556
Mn1 Si0 2.427579 1_545
Mn1 Si1 2.560802 1_555
Mn2 Si1 2.415360 1_555
Mn2 Si1 2.415360 1_655
Mn2 Si3 2.466700 1_555
Mn2 Si2 2.619374 1_555
Mn3 Si2 2.430132 1_565
Mn3 Si0 2.439701 1_554
Mn3 Si0 2.439701 1_654
Mn3 Si3 2.623507 1_555
