# generated using pymatgen
data_Mg2V2CoO8
_symmetry_space_group_name_H-M   'P 1'
_cell_length_a   6.11747803
_cell_length_b   6.56206678
_cell_length_c   8.40626800
_cell_angle_alpha   89.99993158
_cell_angle_beta   89.99994464
_cell_angle_gamma   62.22750464
_symmetry_Int_Tables_number   1
_chemical_formula_structural   Mg2V2CoO8
_chemical_formula_sum   'Mg4 V4 Co2 O16'
_cell_volume   298.58208477
_cell_formula_units_Z   2
loop_
 _symmetry_equiv_pos_site_id
 _symmetry_equiv_pos_as_xyz
  1  'x, y, z'
loop_
 _atom_site_type_symbol
 _atom_site_label
 _atom_site_symmetry_multiplicity
 _atom_site_fract_x
 _atom_site_fract_y
 _atom_site_fract_z
 _atom_site_occupancy
  Mg  Mg0  1  0.38480600  0.73038300  0.75001900  1
  Mg  Mg1  1  0.11519500  0.26961200  0.25001800  1
  Mg  Mg2  1  0.61519300  0.26961800  0.24998100  1
  Mg  Mg3  1  0.88480500  0.73038700  0.74998100  1
  V  V0  1  0.87950100  0.24092700  0.62020400  1
  V  V1  1  0.12049800  0.75907300  0.37979500  1
  V  V2  1  0.62049200  0.75907200  0.12020400  1
  V  V3  1  0.37950900  0.24092600  0.87979600  1
  Co  Co0  1  0.50000000  0.00000100  0.50000000  1
  Co  Co1  1  0.99999900  0.00000100  0.00000000  1
  O  O0  1  0.34700100  0.76649300  0.49995400  1
  O  O1  1  0.11332200  0.23361400  0.50007800  1
  O  O2  1  0.61334700  0.23359600  0.99992700  1
  O  O3  1  0.84699700  0.76647600  0.00004800  1
  O  O4  1  0.65300000  0.23350700  0.50004600  1
  O  O5  1  0.88667800  0.76638700  0.49992200  1
  O  O6  1  0.38665500  0.76640300  0.00007400  1
  O  O7  1  0.15300300  0.23352300  0.99995200  1
  O  O8  1  0.75102000  0.49791000  0.72714500  1
  O  O9  1  0.24898000  0.50209100  0.27285400  1
  O  O10  1  0.74897500  0.50209400  0.22714500  1
  O  O11  1  0.25102600  0.49790600  0.77285700  1
  O  O12  1  0.50312600  0.99385300  0.74561900  1
  O  O13  1  0.49687400  0.00614800  0.25438200  1
  O  O14  1  0.99687700  0.00614600  0.24561600  1
  O  O15  1  0.00312200  0.99385400  0.75438400  1
loop_
_geom_bond_atom_site_label_1
_geom_bond_atom_site_label_2
_geom_bond_distance
_geom_bond_site_symmetry_2
Mg0 O11 2.048747 1_555
Mg0 O8 2.048943 1_555
Mg0 O6 2.115896 1_556
Mg0 O0 2.115997 1_555
Mg0 O15 2.163412 1_555
Mg0 O12 2.163477 1_555
Mg1 O9 2.048781 1_555
Mg1 O10 2.048984 1_455
Mg1 O1 2.115929 1_555
Mg1 O7 2.115998 1_554
Mg1 O13 2.163377 1_555
Mg1 O14 2.163443 1_455
Mg2 O10 2.048749 1_555
Mg2 O9 2.048938 1_555
Mg2 O2 2.115888 1_554
Mg2 O4 2.115998 1_555
Mg2 O14 2.163414 1_555
Mg2 O13 2.163473 1_555
Mg3 O8 2.048769 1_555
Mg3 O11 2.048989 1_655
Mg3 O5 2.115922 1_555
Mg3 O3 2.116007 1_556
Mg3 O12 2.163380 1_555
Mg3 O15 2.163445 1_655
Co0 O13 2.065039 1_555
Co0 O12 2.065048 1_545
Co0 O4 2.135528 1_555
Co0 O0 2.135535 1_545
Co0 O1 2.136867 1_555
Co0 O5 2.136868 1_545
Co1 O14 2.065022 1_555
Co1 O15 2.065022 1_644
Co1 O7 2.135643 1_654
Co1 O3 2.135652 1_545
Co1 O2 2.136720 1_554
Co1 O6 2.136743 1_645
O0 V1 1.733635 1_555
O1 V0 1.733228 1_455
O2 V3 1.733299 1_555
O3 V2 1.733586 1_555
O4 V0 1.733620 1_555
O5 V1 1.733226 1_655
O6 V2 1.733286 1_555
O7 V3 1.733589 1_555
O8 V0 1.741971 1_555
O9 V1 1.741966 1_555
O10 V2 1.741945 1_555
O11 V3 1.741947 1_555
O12 V3 1.824866 1_565
O13 V2 1.824885 1_545
O14 V1 1.824875 1_645
O15 V0 1.824880 1_465
