# generated using pymatgen
data_Al2(BiO3)3
_symmetry_space_group_name_H-M   'P 1'
_cell_length_a   5.75378259
_cell_length_b   5.75378259
_cell_length_c   13.91911462
_cell_angle_alpha   86.71849539
_cell_angle_beta   86.71849539
_cell_angle_gamma   54.43800042
_symmetry_Int_Tables_number   1
_chemical_formula_structural   Al2(BiO3)3
_chemical_formula_sum   'Al4 Bi6 O18'
_cell_volume   374.08245013
_cell_formula_units_Z   2
loop_
 _symmetry_equiv_pos_site_id
 _symmetry_equiv_pos_as_xyz
  1  'x, y, z'
loop_
 _atom_site_type_symbol
 _atom_site_label
 _atom_site_symmetry_multiplicity
 _atom_site_fract_x
 _atom_site_fract_y
 _atom_site_fract_z
 _atom_site_occupancy
  Al  Al0  1  0.04967100  0.02884400  0.75682800  1
  Al  Al1  1  0.38026200  0.37437300  0.10762100  1
  Al  Al2  1  0.37437300  0.38026200  0.60762100  1
  Al  Al3  1  0.02884400  0.04967100  0.25682800  1
  Bi  Bi0  1  0.66093100  0.65157700  0.65085900  1
  Bi  Bi1  1  0.30327000  0.33357100  0.34700300  1
  Bi  Bi2  1  0.97391200  0.98003000  0.98624500  1
  Bi  Bi3  1  0.33357100  0.30327000  0.84700300  1
  Bi  Bi4  1  0.98003000  0.97391200  0.48624500  1
  Bi  Bi5  1  0.65157700  0.66093100  0.15085900  1
  O  O0  1  0.66396700  0.27676000  0.71219100  1
  O  O1  1  0.26062600  0.97383100  0.36715400  1
  O  O2  1  0.00460700  0.58971100  0.06417300  1
  O  O3  1  0.44359700  0.87960700  0.77592400  1
  O  O4  1  0.14236500  0.51924500  0.50070500  1
  O  O5  1  0.78570700  0.19811700  0.14530800  1
  O  O6  1  0.01196400  0.79360300  0.84532600  1
  O  O7  1  0.63984400  0.43949000  0.53194600  1
  O  O8  1  0.35651800  0.10171700  0.18590200  1
  O  O9  1  0.97383100  0.26062600  0.86715400  1
  O  O10  1  0.58971100  0.00460700  0.56417300  1
  O  O11  1  0.27676000  0.66396700  0.21219100  1
  O  O12  1  0.10171700  0.35651800  0.68590200  1
  O  O13  1  0.79360300  0.01196400  0.34532600  1
  O  O14  1  0.43949000  0.63984400  0.03194600  1
  O  O15  1  0.19811700  0.78570700  0.64530800  1
  O  O16  1  0.87960700  0.44359700  0.27592400  1
  O  O17  1  0.51924500  0.14236500  0.00070500  1
loop_
_geom_bond_atom_site_label_1
_geom_bond_atom_site_label_2
_geom_bond_distance
_geom_bond_site_symmetry_2
Al0 O6 1.875251 1_545
Al0 O0 1.928753 1_455
Al0 O3 1.929850 1_545
Al0 O15 1.950152 1_545
Al0 O9 1.951409 1_455
Al0 O12 2.242472 1_555
Al1 O17 1.866996 1_555
Al1 O2 1.876577 1_555
Al1 O8 1.924475 1_555
Al1 O14 1.984681 1_555
Al1 O5 2.018204 1_555
Al1 O11 2.067323 1_555
Al2 O4 1.866996 1_555
Al2 O10 1.876577 1_555
Al2 O12 1.924475 1_555
Al2 O7 1.984681 1_555
Al2 O15 2.018204 1_555
Al2 O0 2.067323 1_555
Al3 O13 1.875251 1_455
Al3 O11 1.928753 1_545
Al3 O16 1.929850 1_455
Al3 O5 1.950152 1_455
Al3 O1 1.951409 1_545
Al3 O8 2.242472 1_555
Bi0 O3 2.102237 1_555
Bi0 O10 2.134858 1_565
Bi0 O12 2.142648 1_655
Bi0 O7 2.160988 1_555
Bi0 O0 2.264330 1_555
Bi0 O15 2.306306 1_555
Bi1 O1 2.222524 1_545
Bi1 O13 2.304176 1_555
Bi1 O4 2.336647 1_555
Bi1 O16 2.393993 1_455
Bi1 O11 2.538776 1_555
Bi1 O8 2.586545 1_555
Bi2 O17 2.208105 1_566
Bi2 O6 2.228100 1_655
Bi2 O9 2.246592 1_565
Bi2 O14 2.316376 1_656
Bi2 O2 2.352254 1_656
Bi2 O5 2.472272 1_566
Bi3 O9 2.222524 1_455
Bi3 O6 2.304176 1_555
Bi3 O17 2.336647 1_556
Bi3 O3 2.393993 1_545
Bi3 O0 2.538776 1_555
Bi3 O12 2.586545 1_555
Bi4 O4 2.208105 1_655
Bi4 O13 2.228100 1_565
Bi4 O1 2.246592 1_655
Bi4 O7 2.316376 1_565
Bi4 O10 2.352254 1_565
Bi4 O15 2.472272 1_655
Bi5 O16 2.102237 1_555
Bi5 O2 2.134858 1_655
Bi5 O8 2.142648 1_565
Bi5 O14 2.160988 1_555
Bi5 O11 2.264330 1_555
Bi5 O5 2.306306 1_555
