# generated using pymatgen
data_BaFe2S2O
_symmetry_space_group_name_H-M   'P 1'
_cell_length_a   4.11247300
_cell_length_b   6.68942900
_cell_length_c   9.84407800
_cell_angle_alpha   90.00207854
_cell_angle_beta   89.99733882
_cell_angle_gamma   89.99960478
_symmetry_Int_Tables_number   1
_chemical_formula_structural   BaFe2S2O
_chemical_formula_sum   'Ba2 Fe4 S4 O2'
_cell_volume   270.81153203
_cell_formula_units_Z   2
loop_
 _symmetry_equiv_pos_site_id
 _symmetry_equiv_pos_as_xyz
  1  'x, y, z'
loop_
 _atom_site_type_symbol
 _atom_site_label
 _atom_site_symmetry_multiplicity
 _atom_site_fract_x
 _atom_site_fract_y
 _atom_site_fract_z
 _atom_site_occupancy
  Ba  Ba0  1  0.49999300  0.02608600  0.49999200  1
  Ba  Ba1  1  0.00000900  0.97391200  0.99999000  1
  Fe  Fe0  1  0.49996900  0.37751300  0.83446100  1
  Fe  Fe1  1  0.99992900  0.62249900  0.33447000  1
  Fe  Fe2  1  0.49999300  0.37752900  0.16558100  1
  Fe  Fe3  1  0.00007400  0.62245600  0.66557600  1
  S  S0  1  0.50000900  0.73200700  0.21070900  1
  S  S1  1  0.50000500  0.73200800  0.78926900  1
  S  S2  1  0.00002500  0.26799200  0.71070900  1
  S  S3  1  0.99998400  0.26799100  0.28927900  1
  O  O0  1  0.50002700  0.22351300  0.99998200  1
  O  O1  1  0.99998200  0.77649400  0.49998000  1
loop_
_geom_bond_atom_site_label_1
_geom_bond_atom_site_label_2
_geom_bond_distance
_geom_bond_site_symmetry_2
Ba0 O1 2.648685 1_545
Ba0 O1 2.648773 1_445
Ba0 S2 3.338903 1_555
Ba0 S3 3.339021 1_555
Ba0 S3 3.339171 1_455
Ba0 S2 3.339198 1_655
Ba0 S0 3.461081 1_545
Ba0 S1 3.461146 1_545
Ba1 O0 2.648701 1_465
Ba1 O0 2.648834 1_565
Ba1 S1 3.338992 1_555
Ba1 S0 3.339080 1_456
Ba1 S1 3.339145 1_455
Ba1 S0 3.339185 1_556
Ba1 S3 3.461130 1_466
Ba1 S2 3.461186 1_565
Fe0 O0 1.927777 1_555
Fe0 S1 2.412754 1_555
Fe0 S2 2.499634 1_555
Fe0 S2 2.499912 1_655
Fe1 O1 1.927605 1_555
Fe1 S3 2.412806 1_555
Fe1 S0 2.499588 1_555
Fe1 S0 2.500045 1_655
Fe2 O0 1.928421 1_554
Fe2 S0 2.412494 1_555
Fe2 S3 2.499561 1_455
Fe2 S3 2.499585 1_555
Fe3 O1 1.928537 1_455
Fe3 S2 2.412443 1_555
Fe3 S1 2.499368 1_555
Fe3 S1 2.499734 1_455
