# generated using pymatgen
data_YbVO4
_symmetry_space_group_name_H-M   'P 1'
_cell_length_a   6.06799537
_cell_length_b   6.06799537
_cell_length_c   6.06799537
_cell_angle_alpha   106.21882356
_cell_angle_beta   106.21882356
_cell_angle_gamma   116.19240061
_symmetry_Int_Tables_number   1
_chemical_formula_structural   YbVO4
_chemical_formula_sum   'Yb2 V2 O8'
_cell_volume   170.19894316
_cell_formula_units_Z   2
loop_
 _symmetry_equiv_pos_site_id
 _symmetry_equiv_pos_as_xyz
  1  'x, y, z'
loop_
 _atom_site_type_symbol
 _atom_site_label
 _atom_site_symmetry_multiplicity
 _atom_site_fract_x
 _atom_site_fract_y
 _atom_site_fract_z
 _atom_site_occupancy
  Yb  Yb0  1  0.00000000  0.00000000  0.00000000  1
  Yb  Yb1  1  0.75000000  0.25000000  0.50000000  1
  V  V0  1  0.25000000  0.75000000  0.50000000  1
  V  V1  1  0.50000000  0.50000000  0.00000000  1
  O  O0  1  0.51835200  0.33159300  0.18675900  1
  O  O1  1  0.08159200  0.76835100  0.68675900  1
  O  O2  1  0.08159200  0.39483300  0.31324000  1
  O  O3  1  0.14483300  0.33159200  0.81324100  1
  O  O4  1  0.66840800  0.48164900  0.81324100  1
  O  O5  1  0.23164800  0.91840700  0.31324000  1
  O  O6  1  0.60516700  0.91840800  0.68676000  1
  O  O7  1  0.66840800  0.85516700  0.18676000  1
loop_
_geom_bond_atom_site_label_1
_geom_bond_atom_site_label_2
_geom_bond_distance
_geom_bond_site_symmetry_2
O0 V1 1.737181 1_555
O0 Yb1 2.341229 1_555
O0 Yb0 2.524734 1_555
O1 V0 1.737185 1_555
O1 Yb0 2.341228 1_566
O1 Yb1 2.524729 1_455
O2 V0 1.737186 1_555
O2 Yb0 2.341225 1_555
O2 Yb1 2.524733 1_455
O3 V1 1.737185 1_556
O3 Yb1 2.341228 1_455
O3 Yb0 2.524729 1_556
O4 V1 1.737185 1_556
O4 Yb1 2.341228 1_555
O4 Yb0 2.524729 1_666
O5 V0 1.737186 1_555
O5 Yb0 2.341225 1_565
O5 Yb1 2.524733 1_565
O6 V0 1.737186 1_555
O6 Yb0 2.341225 1_666
O6 Yb1 2.524733 1_565
O7 V1 1.737186 1_555
O7 Yb1 2.341225 1_565
O7 Yb0 2.524733 1_665
