# generated using pymatgen
data_Ca2HfSnO6
_symmetry_space_group_name_H-M   'P 1'
_cell_length_a   5.77636348
_cell_length_b   5.77636348
_cell_length_c   5.77636348
_cell_angle_alpha   60.00000000
_cell_angle_beta   60.00000000
_cell_angle_gamma   60.00000000
_symmetry_Int_Tables_number   1
_chemical_formula_structural   Ca2HfSnO6
_chemical_formula_sum   'Ca2 Hf1 Sn1 O6'
_cell_volume   136.28515228
_cell_formula_units_Z   1
loop_
 _symmetry_equiv_pos_site_id
 _symmetry_equiv_pos_as_xyz
  1  'x, y, z'
loop_
 _atom_site_type_symbol
 _atom_site_label
 _atom_site_symmetry_multiplicity
 _atom_site_fract_x
 _atom_site_fract_y
 _atom_site_fract_z
 _atom_site_occupancy
  Ca  Ca0  1  0.25000000  0.25000000  0.25000000  1
  Ca  Ca1  1  0.75000000  0.75000000  0.75000000  1
  Hf  Hf0  1  -0.00000000  0.00000000  -0.00000000  1
  Sn  Sn0  1  0.50000000  0.50000000  0.50000000  1
  O  O0  1  0.74967266  0.25032734  0.25032734  1
  O  O1  1  0.25032734  0.74967266  0.74967266  1
  O  O2  1  0.74967266  0.25032734  0.74967266  1
  O  O3  1  0.25032734  0.74967266  0.25032734  1
  O  O4  1  0.74967266  0.74967266  0.25032734  1
  O  O5  1  0.25032734  0.25032734  0.74967266  1
loop_
_geom_bond_atom_site_label_1
_geom_bond_atom_site_label_2
_geom_bond_distance
_geom_bond_site_symmetry_2
Ca0 O3 2.888183 1_545
Ca0 O5 2.888183 1_555
Ca0 O5 2.888183 1_554
Ca0 O0 2.888183 1_455
Ca0 O2 2.888183 1_554
Ca0 O4 2.888183 1_545
Ca0 O3 2.888183 1_555
Ca0 O1 2.888183 1_545
Ca0 O0 2.888183 1_555
Ca0 O4 2.888183 1_455
Ca0 O1 2.888183 1_554
Ca0 O2 2.888183 1_455
Ca1 O0 2.888183 1_565
Ca1 O3 2.888183 1_556
Ca1 O0 2.888183 1_556
Ca1 O2 2.888183 1_555
Ca1 O1 2.888183 1_555
Ca1 O3 2.888183 1_655
Ca1 O4 2.888183 1_555
Ca1 O1 2.888183 1_655
Ca1 O5 2.888183 1_655
Ca1 O5 2.888183 1_565
Ca1 O2 2.888183 1_565
Ca1 O4 2.888183 1_556
Hf0 O4 2.044927 1_445
Hf0 O3 2.044927 1_545
Hf0 O5 2.044927 1_554
Hf0 O2 2.044927 1_454
Hf0 O1 2.044927 1_544
Hf0 O0 2.044927 1_455
O0 Sn0 2.039579 1_555
O1 Sn0 2.039579 1_555
O2 Sn0 2.039579 1_555
O3 Sn0 2.039579 1_555
O4 Sn0 2.039579 1_555
O5 Sn0 2.039579 1_555
