# generated using pymatgen
data_Nd2NbInO7
_symmetry_space_group_name_H-M   'P 1'
_cell_length_a   7.59639976
_cell_length_b   7.59639976
_cell_length_c   7.59639976
_cell_angle_alpha   120.94938802
_cell_angle_beta   119.16585328
_cell_angle_gamma   89.90717887
_symmetry_Int_Tables_number   1
_chemical_formula_structural   Nd2NbInO7
_chemical_formula_sum   'Nd4 Nb2 In2 O14'
_cell_volume   309.59761917
_cell_formula_units_Z   2
loop_
 _symmetry_equiv_pos_site_id
 _symmetry_equiv_pos_as_xyz
  1  'x, y, z'
loop_
 _atom_site_type_symbol
 _atom_site_label
 _atom_site_symmetry_multiplicity
 _atom_site_fract_x
 _atom_site_fract_y
 _atom_site_fract_z
 _atom_site_occupancy
  Nd  Nd0  1  0.50000000  0.50000000  0.50000000  1
  Nd  Nd1  1  0.50000000  0.00000000  0.00000000  1
  Nd  Nd2  1  0.50000000  0.50000000  0.00000000  1
  Nd  Nd3  1  0.00000000  0.50000000  0.50000000  1
  Nb  Nb0  1  0.00000000  0.00000000  0.00000000  1
  Nb  Nb1  1  0.50000000  0.00000000  0.50000000  1
  In  In0  1  0.00000000  0.00000000  0.50000000  1
  In  In1  1  0.00000000  0.50000000  0.00000000  1
  O  O0  1  0.31118400  0.06118400  0.25000000  1
  O  O1  1  0.89900500  0.64900500  0.25000000  1
  O  O2  1  0.34795000  0.67725400  0.27369200  1
  O  O3  1  0.90356200  0.07425800  0.22630800  1
  O  O4  1  0.34795000  0.07425800  0.67069600  1
  O  O5  1  0.90356200  0.67725400  0.82930400  1
  O  O6  1  0.68881600  0.93881600  0.75000000  1
  O  O7  1  0.10099500  0.35099500  0.75000000  1
  O  O8  1  0.65205000  0.32274600  0.72630800  1
  O  O9  1  0.09643800  0.92574200  0.77369200  1
  O  O10  1  0.65205000  0.92574200  0.32930400  1
  O  O11  1  0.09643800  0.32274600  0.17069600  1
  O  O12  1  0.37738300  0.62738300  0.75000000  1
  O  O13  1  0.62261700  0.37261700  0.25000000  1
loop_
_geom_bond_atom_site_label_1
_geom_bond_atom_site_label_2
_geom_bond_distance
_geom_bond_site_symmetry_2
Nd0 O13 2.289448 1_555
Nd0 O12 2.289448 1_555
Nd0 O5 2.557935 1_555
Nd0 O8 2.557935 1_555
Nd0 O11 2.557935 1_555
Nd0 O2 2.557935 1_555
Nd0 O6 2.761303 1_555
Nd0 O0 2.761303 1_555
Nd1 O12 2.289448 1_544
Nd1 O13 2.289448 1_555
Nd1 O4 2.557935 1_554
Nd1 O9 2.557935 1_544
Nd1 O10 2.557935 1_545
Nd1 O3 2.557935 1_555
Nd1 O6 2.761303 1_544
Nd1 O0 2.761303 1_555
Nd2 O12 2.360856 1_554
Nd2 O13 2.360856 1_555
Nd2 O1 2.502890 1_555
Nd2 O7 2.502890 1_554
Nd2 O10 2.631697 1_555
Nd2 O2 2.631697 1_555
Nd2 O8 2.631697 1_554
Nd2 O4 2.631697 1_554
Nd3 O12 2.360856 1_555
Nd3 O13 2.360856 1_455
Nd3 O1 2.502890 1_455
Nd3 O7 2.502890 1_555
Nd3 O5 2.631697 1_455
Nd3 O9 2.631697 1_555
Nd3 O11 2.631697 1_555
Nd3 O3 2.631697 1_455
Nb0 O3 2.009726 1_455
Nb0 O5 2.009726 1_444
Nb0 O11 2.009726 1_555
Nb0 O9 2.009726 1_544
Nb0 O0 2.032398 1_555
Nb0 O6 2.032398 1_444
Nb1 O2 2.009726 1_545
Nb1 O4 2.009726 1_555
Nb1 O8 2.009726 1_555
Nb1 O10 2.009726 1_545
Nb1 O0 2.032398 1_555
Nb1 O6 2.032398 1_545
In0 O7 2.163947 1_555
In0 O1 2.163947 1_445
In0 O9 2.213109 1_545
In0 O10 2.213109 1_445
In0 O4 2.213109 1_555
In0 O3 2.213109 1_455
In1 O7 2.163947 1_554
In1 O1 2.163947 1_455
In1 O8 2.213109 1_454
In1 O11 2.213109 1_555
In1 O2 2.213109 1_555
In1 O5 2.213109 1_454
