# generated using pymatgen
data_Ca8Mn8O21
_symmetry_space_group_name_H-M   'P 1'
_cell_length_a   7.72719132
_cell_length_b   7.76434500
_cell_length_c   7.64980029
_cell_angle_alpha   90.00000000
_cell_angle_beta   86.98401528
_cell_angle_gamma   90.00000000
_symmetry_Int_Tables_number   1
_chemical_formula_structural   Ca8Mn8O21
_chemical_formula_sum   'Ca8 Mn8 O21'
_cell_volume   458.32613929
_cell_formula_units_Z   1
loop_
 _symmetry_equiv_pos_site_id
 _symmetry_equiv_pos_as_xyz
  1  'x, y, z'
loop_
 _atom_site_type_symbol
 _atom_site_label
 _atom_site_symmetry_multiplicity
 _atom_site_fract_x
 _atom_site_fract_y
 _atom_site_fract_z
 _atom_site_occupancy
  Ca  Ca0  1  0.23247600  0.26589200  0.24180700  1
  Ca  Ca1  1  0.26571200  0.26574600  0.70121800  1
  Ca  Ca2  1  0.23247600  0.73410800  0.24180700  1
  Ca  Ca3  1  0.26571200  0.73425400  0.70121800  1
  Ca  Ca4  1  0.75101700  0.25733500  0.25456900  1
  Ca  Ca5  1  0.74880000  0.24763700  0.73547000  1
  Ca  Ca6  1  0.75101700  0.74266500  0.25456900  1
  Ca  Ca7  1  0.74880000  0.75236300  0.73547000  1
  Mn  Mn0  1  0.02174700  0.00000000  0.98730100  1
  Mn  Mn1  1  0.00427700  0.00000000  0.51814800  1
  Mn  Mn2  1  0.99237400  0.50000000  0.01086800  1
  Mn  Mn3  1  0.00116600  0.50000000  0.50313300  1
  Mn  Mn4  1  0.48467000  0.00000000  0.99988700  1
  Mn  Mn5  1  0.51169000  0.00000000  0.47704700  1
  Mn  Mn6  1  0.49914200  0.50000000  0.98976200  1
  Mn  Mn7  1  0.50707100  0.50000000  0.49396900  1
  O  O0  1  0.91135000  0.00000000  0.77586000  1
  O  O1  1  0.00845800  0.50000000  0.25769100  1
  O  O2  1  0.99921800  0.50000000  0.75830400  1
  O  O3  1  0.57992400  0.00000000  0.22057900  1
  O  O4  1  0.50899800  0.00000000  0.74246700  1
  O  O5  1  0.49097500  0.50000000  0.74419300  1
  O  O6  1  0.23015500  0.00000000  0.10440000  1
  O  O7  1  0.25456300  0.00000000  0.51836400  1
  O  O8  1  0.25546200  0.50000000  0.02926000  1
  O  O9  1  0.25805500  0.50000000  0.48661400  1
  O  O10  1  0.76550400  0.00000000  0.46532200  1
  O  O11  1  0.73241200  0.50000000  0.05642300  1
  O  O12  1  0.75053500  0.50000000  0.49597300  1
  O  O13  1  0.97719200  0.23542700  0.03352400  1
  O  O14  1  0.01207900  0.24812000  0.50219700  1
  O  O15  1  0.97719200  0.76457300  0.03352400  1
  O  O16  1  0.01207900  0.75188000  0.50219700  1
  O  O17  1  0.50643200  0.25211100  0.00303800  1
  O  O18  1  0.49741800  0.25642300  0.46039600  1
  O  O19  1  0.50643200  0.74788900  0.00303800  1
  O  O20  1  0.49741800  0.74357700  0.46039600  1
loop_
_geom_bond_atom_site_label_1
_geom_bond_atom_site_label_2
_geom_bond_distance
_geom_bond_site_symmetry_2
Ca0 O6 2.317166 1_555
Ca0 O8 2.439029 1_555
Ca0 O1 2.508608 1_555
Ca0 O14 2.555433 1_555
Ca0 O13 2.610868 1_455
Ca0 O9 2.624716 1_555
Ca0 O18 2.711647 1_555
Ca0 O17 2.724355 1_555
Ca0 O7 2.967318 1_555
Ca1 O9 2.452951 1_555
Ca1 O7 2.496822 1_555
Ca1 O18 2.501532 1_555
Ca1 O14 2.547887 1_555
Ca1 O5 2.550744 1_555
Ca1 O2 2.764909 1_455
Ca1 O4 2.820189 1_555
Ca2 O6 2.317166 1_565
Ca2 O8 2.439029 1_555
Ca2 O1 2.508608 1_555
Ca2 O16 2.555433 1_555
Ca2 O15 2.610868 1_455
Ca2 O9 2.624716 1_555
Ca2 O20 2.711647 1_555
Ca2 O19 2.724355 1_555
Ca2 O7 2.967318 1_565
Ca3 O9 2.452951 1_555
Ca3 O7 2.496822 1_565
Ca3 O20 2.501532 1_555
Ca3 O16 2.547887 1_555
Ca3 O5 2.550744 1_555
Ca3 O2 2.764909 1_455
Ca3 O4 2.820189 1_565
Ca4 O13 2.373123 1_555
Ca4 O3 2.417396 1_555
Ca4 O11 2.427168 1_555
Ca4 O18 2.448386 1_555
Ca4 O10 2.573505 1_555
Ca4 O12 2.638091 1_555
Ca4 O1 2.740955 1_655
Ca4 O17 2.767426 1_555
Ca4 O14 2.839899 1_655
Ca5 O0 2.326135 1_555
Ca5 O14 2.634619 1_655
Ca5 O4 2.668885 1_555
Ca5 O12 2.682085 1_555
Ca5 O17 2.700899 1_556
Ca5 O2 2.765826 1_555
Ca5 O5 2.792661 1_555
Ca5 O10 2.820685 1_555
Ca5 O18 2.938691 1_555
Ca5 O13 2.957310 1_556
Ca6 O15 2.373123 1_555
Ca6 O3 2.417396 1_565
Ca6 O11 2.427168 1_555
Ca6 O20 2.448386 1_555
Ca6 O10 2.573505 1_565
Ca6 O12 2.638091 1_555
Ca6 O1 2.740955 1_655
Ca6 O19 2.767426 1_555
Ca6 O16 2.839899 1_655
Ca7 O0 2.326135 1_565
Ca7 O16 2.634619 1_655
Ca7 O4 2.668885 1_565
Ca7 O12 2.682085 1_555
Ca7 O19 2.700899 1_556
Ca7 O2 2.765826 1_555
Ca7 O5 2.792661 1_555
Ca7 O10 2.820685 1_565
Ca7 O20 2.938691 1_555
Ca7 O15 2.957310 1_556
Mn0 O0 1.867927 1_455
Mn0 O6 1.883519 1_556
Mn0 O13 1.890001 1_456
Mn0 O15 1.890001 1_446
Mn1 O10 1.909438 1_455
Mn1 O16 1.931091 1_545
Mn1 O14 1.931091 1_555
Mn1 O7 1.934095 1_555
Mn1 O0 2.062341 1_455
Mn2 O1 1.898746 1_655
Mn2 O2 1.930004 1_554
Mn2 O11 2.020634 1_555
Mn2 O8 2.045166 1_655
Mn2 O15 2.064351 1_555
Mn2 O13 2.064351 1_555
Mn3 O1 1.875462 1_555
Mn3 O12 1.940327 1_455
Mn3 O2 1.951273 1_455
Mn3 O14 1.957497 1_555
Mn3 O16 1.957497 1_555
Mn3 O9 1.982402 1_555
Mn4 O3 1.876889 1_556
Mn4 O17 1.964943 1_556
Mn4 O19 1.964943 1_546
Mn4 O4 1.968293 1_555
Mn4 O6 2.083651 1_556
Mn5 O10 1.958599 1_555
Mn5 O7 1.995361 1_555
Mn5 O18 1.998443 1_555
Mn5 O20 1.998443 1_545
Mn5 O3 2.004573 1_555
Mn5 O4 2.029422 1_555
Mn6 O5 1.882929 1_555
Mn6 O8 1.891289 1_556
Mn6 O11 1.898908 1_556
Mn6 O19 1.928352 1_556
Mn6 O17 1.928352 1_556
Mn7 O12 1.882162 1_555
Mn7 O20 1.910559 1_555
Mn7 O18 1.910559 1_555
Mn7 O5 1.911659 1_555
Mn7 O9 1.927973 1_555
