# generated using pymatgen
data_KLiMn2(SiO3)4
_symmetry_space_group_name_H-M   'P 1'
_cell_length_a   5.18882502
_cell_length_b   5.18882502
_cell_length_c   10.03778950
_cell_angle_alpha   93.99686074
_cell_angle_beta   93.99686074
_cell_angle_gamma   118.61781933
_symmetry_Int_Tables_number   1
_chemical_formula_structural   KLiMn2(SiO3)4
_chemical_formula_sum   'K1 Li1 Mn2 Si4 O12'
_cell_volume   235.01781624
_cell_formula_units_Z   1
loop_
 _symmetry_equiv_pos_site_id
 _symmetry_equiv_pos_as_xyz
  1  'x, y, z'
loop_
 _atom_site_type_symbol
 _atom_site_label
 _atom_site_symmetry_multiplicity
 _atom_site_fract_x
 _atom_site_fract_y
 _atom_site_fract_z
 _atom_site_occupancy
  K  K0  1  0.50000000  0.50000000  0.00000000  1
  Li  Li0  1  -0.00000000  -0.00000000  0.50000000  1
  Mn  Mn0  1  0.65346110  0.34653890  0.50000000  1
  Mn  Mn1  1  0.34653890  0.65346110  0.50000000  1
  Si  Si0  1  0.89107663  0.23221331  0.22607298  1
  Si  Si1  1  0.23221331  0.89107663  0.22607298  1
  Si  Si2  1  0.10892337  0.76778669  0.77392702  1
  Si  Si3  1  0.76778669  0.10892337  0.77392702  1
  O  O0  1  0.04614164  0.04614164  0.16760381  1
  O  O1  1  0.95385836  0.95385836  0.83239619  1
  O  O2  1  0.04602671  0.54462544  0.15953504  1
  O  O3  1  0.54462544  0.04602671  0.15953504  1
  O  O4  1  0.95397329  0.45537456  0.84046496  1
  O  O5  1  0.45537456  0.95397329  0.84046496  1
  O  O6  1  0.92653978  0.28503754  0.38616521  1
  O  O7  1  0.28503754  0.92653978  0.38616521  1
  O  O8  1  0.07346022  0.71496246  0.61383479  1
  O  O9  1  0.71496246  0.07346022  0.61383479  1
  O  O10  1  0.60877277  0.60877277  0.39580540  1
  O  O11  1  0.39122723  0.39122723  0.60419460  1
loop_
_geom_bond_atom_site_label_1
_geom_bond_atom_site_label_2
_geom_bond_distance
_geom_bond_site_symmetry_2
K0 O3 3.027126 1_555
K0 O4 3.027126 1_554
K0 O5 3.027126 1_554
K0 O2 3.027126 1_555
K0 O4 3.054937 1_454
K0 O5 3.054937 1_544
K0 O2 3.054937 1_655
K0 O3 3.054937 1_565
K0 O0 3.116778 1_555
K0 O1 3.116778 1_554
K0 O1 3.141593 1_444
K0 O0 3.141593 1_665
Li0 O8 2.086462 1_545
Li0 O9 2.086462 1_455
Li0 O7 2.086462 1_545
Li0 O6 2.086462 1_455
Li0 O11 2.190030 1_555
Li0 O10 2.190030 1_445
Mn0 O10 1.861700 1_555
Mn0 O11 1.861700 1_555
Mn0 O9 2.005813 1_555
Mn0 O6 2.005813 1_555
Mn0 O7 2.251005 1_545
Mn0 O8 2.251005 1_655
Mn1 O10 1.861700 1_555
Mn1 O11 1.861700 1_555
Mn1 O8 2.005813 1_555
Mn1 O7 2.005813 1_555
Mn1 O6 2.251005 1_455
Mn1 O9 2.251005 1_565
O0 Si0 1.629422 1_455
O0 Si1 1.629422 1_545
O1 Si2 1.629422 1_655
O1 Si3 1.629422 1_565
O2 Si1 1.640143 1_555
O2 Si0 1.642438 1_455
O3 Si0 1.640143 1_555
O3 Si1 1.642438 1_545
O4 Si3 1.640143 1_555
O4 Si2 1.642438 1_655
O5 Si2 1.640143 1_555
O5 Si3 1.642438 1_565
O6 Si0 1.593866 1_555
O7 Si1 1.593866 1_555
O8 Si2 1.593866 1_555
O9 Si3 1.593866 1_555
