# generated using pymatgen
data_Sn5Ge2(SbTe5)2
_symmetry_space_group_name_H-M   'P 1'
_cell_length_a   4.40253855
_cell_length_b   4.40253855
_cell_length_c   37.64247997
_cell_angle_alpha   90.00000000
_cell_angle_beta   86.64752603
_cell_angle_gamma   120.00000000
_symmetry_Int_Tables_number   1
_chemical_formula_structural   Sn5Ge2(SbTe5)2
_chemical_formula_sum   'Sn5 Ge2 Sb2 Te10'
_cell_volume   630.40960387
_cell_formula_units_Z   1
loop_
 _symmetry_equiv_pos_site_id
 _symmetry_equiv_pos_as_xyz
  1  'x, y, z'
loop_
 _atom_site_type_symbol
 _atom_site_label
 _atom_site_symmetry_multiplicity
 _atom_site_fract_x
 _atom_site_fract_y
 _atom_site_fract_z
 _atom_site_occupancy
  Sn  Sn0  1  0.29961231  0.14980615  0.55058154  1
  Sn  Sn1  1  0.89799423  0.44899712  0.65300865  1
  Sn  Sn2  1  0.49761168  0.74880584  0.75358247  1
  Sn  Sn3  1  0.09677773  0.04838886  0.85483341  1
  Sn  Sn4  1  0.69422634  0.34711317  0.95866048  1
  Ge  Ge0  1  0.09561560  0.54780780  0.35657659  1
  Ge  Ge1  1  0.69888722  0.84944361  0.45166918  1
  Sb  Sb0  1  0.90363433  0.95181717  0.14454850  1
  Sb  Sb1  1  0.49786876  0.24893438  0.25319685  1
  Te  Te0  1  0.40160873  0.70080437  0.89758690  1
  Te  Te1  1  0.20252302  0.10126151  0.69621546  1
  Te  Te2  1  0.80242550  0.40121275  0.79636176  1
  Te  Te3  1  0.00708075  0.50354037  0.48937888  1
  Te  Te4  1  0.60360052  0.80180026  0.59459922  1
  Te  Te5  1  0.40346061  0.20173031  0.39480908  1
  Te  Te6  1  0.19859640  0.59929820  0.20210539  1
  Te  Te7  1  0.79984961  0.89992481  0.30022558  1
  Te  Te8  1  0.99948031  0.99974016  0.00077953  1
  Te  Te9  1  0.59914633  0.29957316  0.10128051  1
loop_
_geom_bond_atom_site_label_1
_geom_bond_atom_site_label_2
_geom_bond_distance
_geom_bond_site_symmetry_2
Sn0 Te4 3.032111 1_545
Sn0 Te4 3.032111 1_555
Sn0 Te4 3.032111 1_445
Sn0 Te3 3.426976 1_555
Sn0 Te3 3.426976 1_545
Sn0 Te3 3.426976 1_655
Sn1 Te1 3.015615 1_665
Sn1 Te1 3.015615 1_555
Sn1 Te1 3.015615 1_655
Sn1 Te4 3.357516 1_555
Sn1 Te4 3.357516 1_545
Sn1 Te4 3.357516 1_655
Sn2 Te2 3.007006 1_455
Sn2 Te2 3.007006 1_555
Sn2 Te2 3.007006 1_565
Sn2 Te1 3.332069 1_555
Sn2 Te1 3.332069 1_665
Sn2 Te1 3.332069 1_565
Sn3 Te0 3.006488 1_545
Sn3 Te0 3.006488 1_555
Sn3 Te0 3.006488 1_445
Sn3 Te2 3.359043 1_445
Sn3 Te2 3.359043 1_455
Sn3 Te2 3.359043 1_555
Sn4 Te8 2.993831 1_546
Sn4 Te8 2.993831 1_446
Sn4 Te8 2.993831 1_556
Sn4 Te0 3.423727 1_545
Sn4 Te0 3.423727 1_655
Sn4 Te0 3.423727 1_555
Ge0 Te5 2.919338 1_555
Ge0 Te5 2.919338 1_455
Ge0 Te5 2.919338 1_565
Ge0 Te7 3.307525 1_445
Ge0 Te7 3.307525 1_555
Ge0 Te7 3.307525 1_455
Ge1 Te3 2.909731 1_665
Ge1 Te3 2.909731 1_555
Ge1 Te3 2.909731 1_655
Sb0 Te9 3.016852 1_565
Sb0 Te9 3.016852 1_665
Sb0 Te9 3.016852 1_555
Sb0 Te6 3.336685 1_665
Sb0 Te6 3.336685 1_655
Sb0 Te6 3.336685 1_555
Sb1 Te7 3.095218 1_545
Sb1 Te7 3.095218 1_445
Sb1 Te7 3.095218 1_555
Sb1 Te6 3.184753 1_555
Sb1 Te6 3.184753 1_545
Sb1 Te6 3.184753 1_655
