# generated using pymatgen
data_ZrCuGeAs
_symmetry_space_group_name_H-M   'P 1'
_cell_length_a   3.71818527
_cell_length_b   3.71818527
_cell_length_c   9.63639502
_cell_angle_alpha   90.00000000
_cell_angle_beta   90.00000000
_cell_angle_gamma   90.00000000
_symmetry_Int_Tables_number   1
_chemical_formula_structural   ZrCuGeAs
_chemical_formula_sum   'Zr2 Cu2 Ge2 As2'
_cell_volume   133.22221391
_cell_formula_units_Z   2
loop_
 _symmetry_equiv_pos_site_id
 _symmetry_equiv_pos_as_xyz
  1  'x, y, z'
loop_
 _atom_site_type_symbol
 _atom_site_label
 _atom_site_symmetry_multiplicity
 _atom_site_fract_x
 _atom_site_fract_y
 _atom_site_fract_z
 _atom_site_occupancy
  Zr  Zr0  1  -0.00000000  0.50000000  0.77343793  1
  Zr  Zr1  1  0.50000000  0.00000000  0.22656207  1
  Cu  Cu0  1  -0.00000000  -0.00000000  0.50000000  1
  Cu  Cu1  1  0.50000000  0.50000000  0.50000000  1
  Ge  Ge0  1  0.00000000  0.00000000  0.00000000  1
  Ge  Ge1  1  0.50000000  0.50000000  -0.00000000  1
  As  As0  1  -0.00000000  0.50000000  0.32600715  1
  As  As1  1  0.50000000  -0.00000000  0.67399285  1
loop_
_geom_bond_atom_site_label_1
_geom_bond_atom_site_label_2
_geom_bond_distance
_geom_bond_site_symmetry_2
Ge0 Ge1 2.629154 1_545
Ge0 Ge1 2.629154 1_445
Ge0 Ge1 2.629154 1_455
Ge0 Ge1 2.629154 1_555
Ge0 Zr0 2.867537 1_554
Ge0 Zr0 2.867537 1_544
Ge0 Zr1 2.867537 1_555
Ge0 Zr1 2.867537 1_455
Ge1 Zr0 2.867537 1_554
Ge1 Zr0 2.867537 1_654
Ge1 Zr1 2.867537 1_565
Ge1 Zr1 2.867537 1_555
As0 Cu0 2.503483 1_555
As0 Cu1 2.503483 1_455
As0 Cu1 2.503483 1_555
As0 Cu0 2.503483 1_565
As0 Zr1 2.798352 1_565
As0 Zr1 2.798352 1_465
As0 Zr1 2.798352 1_555
As0 Zr1 2.798352 1_455
As1 Cu0 2.503483 1_655
As1 Cu0 2.503483 1_555
As1 Cu1 2.503483 1_555
As1 Cu1 2.503483 1_545
As1 Zr0 2.798352 1_555
As1 Zr0 2.798352 1_655
As1 Zr0 2.798352 1_545
As1 Zr0 2.798352 1_645
