# generated using pymatgen
data_Zr4Ni(PO4)6
_symmetry_space_group_name_H-M   'P 1'
_cell_length_a   9.11851900
_cell_length_b   8.97233500
_cell_length_c   15.40829721
_cell_angle_alpha   54.97679650
_cell_angle_beta   90.00000000
_cell_angle_gamma   90.00000000
_symmetry_Int_Tables_number   1
_chemical_formula_structural   Zr4Ni(PO4)6
_chemical_formula_sum   'Zr8 Ni2 P12 O48'
_cell_volume   1032.34711637
_cell_formula_units_Z   2
loop_
 _symmetry_equiv_pos_site_id
 _symmetry_equiv_pos_as_xyz
  1  'x, y, z'
loop_
 _atom_site_type_symbol
 _atom_site_label
 _atom_site_symmetry_multiplicity
 _atom_site_fract_x
 _atom_site_fract_y
 _atom_site_fract_z
 _atom_site_occupancy
  Zr  Zr0  1  0.72134300  0.64630100  0.10493400  1
  Zr  Zr1  1  0.27865700  0.64630100  0.60493400  1
  Zr  Zr2  1  0.80607000  0.36057100  0.88501000  1
  Zr  Zr3  1  0.19393000  0.36057100  0.38501000  1
  Zr  Zr4  1  0.72239100  0.87251200  0.38146100  1
  Zr  Zr5  1  0.27760900  0.87251200  0.88146100  1
  Zr  Zr6  1  0.77776100  0.12960400  0.62301300  1
  Zr  Zr7  1  0.22223900  0.12960400  0.12301300  1
  Ni  Ni0  1  0.53126600  0.45715600  0.32432600  1
  Ni  Ni1  1  0.46873400  0.45715600  0.82432600  1
  P  P0  1  0.37444000  0.74494600  0.35246100  1
  P  P1  1  0.62556000  0.74494600  0.85246100  1
  P  P2  1  0.13432700  0.25004700  0.64562400  1
  P  P3  1  0.86567300  0.25004700  0.14562400  1
  P  P4  1  0.50000200  0.04154500  0.99423400  1
  P  P5  1  0.49999800  0.04154500  0.49423400  1
  P  P6  1  0.00173400  0.95976100  0.00735900  1
  P  P7  1  0.99826600  0.95976100  0.50735900  1
  P  P8  1  0.35329600  0.46989800  0.14682600  1
  P  P9  1  0.64670400  0.46989800  0.64682600  1
  P  P10  1  0.15367700  0.53029900  0.85836000  1
  P  P11  1  0.84632300  0.53029900  0.35836000  1
  O  O0  1  0.53579000  0.80090100  0.33153700  1
  O  O1  1  0.46421000  0.80090100  0.83153700  1
  O  O2  1  0.96932600  0.20382200  0.66442800  1
  O  O3  1  0.03067400  0.20382200  0.16442800  1
  O  O4  1  0.61355700  0.88945700  0.05718600  1
  O  O5  1  0.38644300  0.88945700  0.55718600  1
  O  O6  1  0.89262300  0.11755800  0.93633600  1
  O  O7  1  0.10737700  0.11755800  0.43633600  1
  O  O8  1  0.27089000  0.89820300  0.27367800  1
  O  O9  1  0.72911000  0.89820300  0.77367800  1
  O  O10  1  0.22873100  0.08514100  0.72632000  1
  O  O11  1  0.77126900  0.08514100  0.22632000  1
  O  O12  1  0.31563700  0.64414700  0.03970200  1
  O  O13  1  0.68436300  0.64414700  0.53970200  1
  O  O14  1  0.20634700  0.35849100  0.96243500  1
  O  O15  1  0.79365300  0.35849100  0.46243500  1
  O  O16  1  0.58185000  0.23198000  0.92604300  1
  O  O17  1  0.41815000  0.23198000  0.42604300  1
  O  O18  1  0.91329000  0.78045700  0.07145600  1
  O  O19  1  0.08671000  0.78045700  0.57145600  1
  O  O20  1  0.24622200  0.43429200  0.23445000  1
  O  O21  1  0.75377800  0.43429200  0.73445000  1
  O  O22  1  0.26921300  0.55993600  0.77211700  1
  O  O23  1  0.73078700  0.55993600  0.27211700  1
  O  O24  1  0.32947600  0.67895100  0.46604400  1
  O  O25  1  0.67052400  0.67895100  0.96604400  1
  O  O26  1  0.17383300  0.31155400  0.53150600  1
  O  O27  1  0.82616700  0.31155400  0.03150600  1
  O  O28  1  0.51016300  0.49744700  0.18184900  1
  O  O29  1  0.48983700  0.49744700  0.68184900  1
  O  O30  1  0.99952600  0.50415300  0.82786100  1
  O  O31  1  0.00047400  0.50415300  0.32786100  1
  O  O32  1  0.35584700  0.30294800  0.14233800  1
  O  O33  1  0.64415300  0.30294800  0.64233800  1
  O  O34  1  0.15355800  0.69762200  0.86087000  1
  O  O35  1  0.84644200  0.69762200  0.36087000  1
  O  O36  1  0.41726400  0.01972000  0.91524600  1
  O  O37  1  0.58273600  0.01972000  0.41524600  1
  O  O38  1  0.08227800  0.99059200  0.08270100  1
  O  O39  1  0.91772200  0.99059200  0.58270100  1
  O  O40  1  0.35934200  0.57883600  0.34346800  1
  O  O41  1  0.64065800  0.57883600  0.84346800  1
  O  O42  1  0.16996300  0.40903700  0.65475400  1
  O  O43  1  0.83003700  0.40903700  0.15475400  1
  O  O44  1  0.39564600  0.04941600  0.06920800  1
  O  O45  1  0.60435400  0.04941600  0.56920800  1
  O  O46  1  0.10548600  0.94899900  0.93316000  1
  O  O47  1  0.89451400  0.94899900  0.43316000  1
loop_
_geom_bond_atom_site_label_1
_geom_bond_atom_site_label_2
_geom_bond_distance
_geom_bond_site_symmetry_2
Ni0 O23 1.988978 1_555
Ni0 O17 1.991878 1_555
Ni0 O28 2.018972 1_555
Ni0 O40 2.026372 1_555
Ni1 O22 1.988978 1_555
Ni1 O16 1.991878 1_555
Ni1 O29 2.018972 1_555
Ni1 O41 2.026372 1_555
O0 P0 1.528022 1_555
O0 Zr4 2.113543 1_555
O1 P1 1.528022 1_555
O1 Zr5 2.113543 1_555
O2 P2 1.543291 1_655
O2 Zr6 2.095155 1_555
O3 P3 1.543291 1_455
O3 Zr7 2.095155 1_555
O4 P4 1.534876 1_564
O4 Zr0 2.103481 1_555
O5 P5 1.534876 1_565
O5 Zr1 2.103481 1_555
O6 P6 1.553571 1_646
O6 Zr2 2.005793 1_555
O7 P7 1.553571 1_445
O7 Zr3 2.005793 1_555
O8 P0 1.529709 1_555
O8 Zr7 2.089116 1_565
O9 P1 1.529709 1_555
O9 Zr6 2.089116 1_565
O10 P2 1.537719 1_555
O10 Zr5 2.077975 1_545
O11 P3 1.537719 1_555
O11 Zr4 2.077975 1_545
O12 P8 1.524679 1_555
O12 Zr5 2.128177 1_554
O13 P9 1.524679 1_555
O13 Zr4 2.128177 1_555
O14 P10 1.530073 1_555
O14 Zr7 2.127913 1_556
O15 P11 1.530073 1_555
O15 Zr6 2.127913 1_555
O16 P4 1.587391 1_555
O16 Zr2 2.252513 1_555
O17 P5 1.587391 1_555
O17 Zr3 2.252513 1_555
O18 P6 1.546041 1_655
O18 Zr0 2.016365 1_555
O19 P7 1.546041 1_455
O19 Zr1 2.016365 1_555
O20 P8 1.543735 1_555
O20 Zr3 2.070118 1_555
O21 P9 1.543735 1_555
O21 Zr2 2.070118 1_555
O22 P10 1.594013 1_555
O22 Zr1 2.225418 1_555
O23 P11 1.594013 1_555
O23 Zr0 2.225418 1_555
O24 P0 1.546662 1_555
O24 Zr1 2.039806 1_555
O25 P1 1.546662 1_555
O25 Zr0 2.039806 1_556
O26 P2 1.553176 1_555
O26 Zr3 2.045171 1_555
O27 P3 1.553176 1_555
O27 Zr2 2.045171 1_554
O28 P8 1.597326 1_555
O28 Zr0 2.253799 1_555
O29 P9 1.597326 1_555
O29 Zr1 2.253799 1_555
O30 P10 1.542143 1_655
O30 Zr2 2.060279 1_555
O31 P11 1.542143 1_455
O31 Zr3 2.060279 1_555
O32 P8 1.538837 1_555
O32 Zr7 2.126844 1_555
O33 P9 1.538837 1_555
O33 Zr6 2.126844 1_555
O34 P10 1.523803 1_555
O34 Zr5 2.100936 1_555
O35 P11 1.523803 1_555
O35 Zr4 2.100936 1_555
O36 P4 1.536996 1_555
O36 Zr5 2.103894 1_545
O37 P5 1.536996 1_555
O37 Zr4 2.103894 1_545
O38 P6 1.527154 1_555
O38 Zr7 2.111752 1_565
O39 P7 1.527154 1_555
O39 Zr6 2.111752 1_565
O40 P0 1.580024 1_555
O40 Zr3 2.254115 1_555
O41 P1 1.580024 1_555
O41 Zr2 2.254115 1_555
O42 P2 1.546175 1_555
O42 Zr1 2.056144 1_555
O43 P3 1.546175 1_555
O43 Zr0 2.056144 1_555
O44 P4 1.529267 1_554
O44 Zr7 2.095194 1_555
O45 P5 1.529267 1_555
O45 Zr6 2.095194 1_555
O46 P6 1.529106 1_556
O46 Zr5 2.048502 1_555
O47 P7 1.529106 1_555
O47 Zr4 2.048502 1_555
