# generated using pymatgen
data_Ca4Cd3Au
_symmetry_space_group_name_H-M   'P 1'
_cell_length_a   3.89206200
_cell_length_b   3.89206200
_cell_length_c   14.44083500
_cell_angle_alpha   90.00000000
_cell_angle_beta   90.00000000
_cell_angle_gamma   90.00000000
_symmetry_Int_Tables_number   1
_chemical_formula_structural   Ca4Cd3Au
_chemical_formula_sum   'Ca4 Cd3 Au1'
_cell_volume   218.75188578
_cell_formula_units_Z   1
loop_
 _symmetry_equiv_pos_site_id
 _symmetry_equiv_pos_as_xyz
  1  'x, y, z'
loop_
 _atom_site_type_symbol
 _atom_site_label
 _atom_site_symmetry_multiplicity
 _atom_site_fract_x
 _atom_site_fract_y
 _atom_site_fract_z
 _atom_site_occupancy
  Ca  Ca0  1  0.50000000  0.50000000  0.11782900  1
  Ca  Ca1  1  0.50000000  0.50000000  0.37379400  1
  Ca  Ca2  1  0.50000000  0.50000000  0.62620600  1
  Ca  Ca3  1  0.50000000  0.50000000  0.88217100  1
  Cd  Cd0  1  0.00000000  0.00000000  0.24936700  1
  Cd  Cd1  1  0.00000000  0.00000000  0.50000000  1
  Cd  Cd2  1  0.00000000  0.00000000  0.75063300  1
  Au  Au0  1  0.00000000  0.00000000  0.00000000  1
loop_
_geom_bond_atom_site_label_1
_geom_bond_atom_site_label_2
_geom_bond_distance
_geom_bond_site_symmetry_2
Ca0 Cd0 3.343986 1_665
Ca0 Cd0 3.343986 1_555
Ca0 Cd0 3.343986 1_565
Ca0 Cd0 3.343986 1_655
Ca1 Cd0 3.286742 1_555
Ca1 Cd0 3.286742 1_565
Ca1 Cd0 3.286742 1_655
Ca1 Cd0 3.286742 1_665
Ca1 Cd1 3.300856 1_665
Ca1 Cd1 3.300856 1_555
Ca1 Cd1 3.300856 1_565
Ca1 Cd1 3.300856 1_655
Ca2 Cd2 3.286742 1_565
Ca2 Cd2 3.286742 1_655
Ca2 Cd2 3.286742 1_555
Ca2 Cd2 3.286742 1_665
Ca2 Cd1 3.300856 1_655
Ca2 Cd1 3.300856 1_665
Ca2 Cd1 3.300856 1_555
Ca2 Cd1 3.300856 1_565
Ca3 Cd2 3.343986 1_565
Ca3 Cd2 3.343986 1_655
Ca3 Cd2 3.343986 1_555
Ca3 Cd2 3.343986 1_665
Au0 Ca0 3.235636 1_455
Au0 Ca0 3.235636 1_555
Au0 Ca0 3.235636 1_445
Au0 Ca0 3.235636 1_545
Au0 Ca3 3.235636 1_554
Au0 Ca3 3.235636 1_454
Au0 Ca3 3.235636 1_544
Au0 Ca3 3.235636 1_444
