# generated using pymatgen
data_Ca5Sb3
_symmetry_space_group_name_H-M   'P 1'
_cell_length_a   9.05910246
_cell_length_b   9.05910237
_cell_length_c   7.00507848
_cell_angle_alpha   90.00000000
_cell_angle_beta   90.00000000
_cell_angle_gamma   120.00000033
_symmetry_Int_Tables_number   1
_chemical_formula_structural   Ca5Sb3
_chemical_formula_sum   'Ca10 Sb6'
_cell_volume   497.86772599
_cell_formula_units_Z   2
loop_
 _symmetry_equiv_pos_site_id
 _symmetry_equiv_pos_as_xyz
  1  'x, y, z'
loop_
 _atom_site_type_symbol
 _atom_site_label
 _atom_site_symmetry_multiplicity
 _atom_site_fract_x
 _atom_site_fract_y
 _atom_site_fract_z
 _atom_site_occupancy
  Ca  Ca0  1  0.33333300  0.66666700  -0.00000000  1
  Ca  Ca1  1  0.66666700  0.33333300  0.50000000  1
  Ca  Ca2  1  0.66666700  0.33333300  -0.00000000  1
  Ca  Ca3  1  0.33333300  0.66666700  0.50000000  1
  Ca  Ca4  1  0.25194712  0.00000000  0.25000000  1
  Ca  Ca5  1  0.25194712  0.25194712  0.75000000  1
  Ca  Ca6  1  -0.00000000  0.74805288  0.75000000  1
  Ca  Ca7  1  0.00000000  0.25194712  0.25000000  1
  Ca  Ca8  1  0.74805288  0.74805288  0.25000000  1
  Ca  Ca9  1  0.74805288  0.00000000  0.75000000  1
  Sb  Sb0  1  0.61122621  0.00000000  0.25000000  1
  Sb  Sb1  1  0.61122621  0.61122621  0.75000000  1
  Sb  Sb2  1  0.00000000  0.38877379  0.75000000  1
  Sb  Sb3  1  -0.00000000  0.61122621  0.25000000  1
  Sb  Sb4  1  0.38877379  0.38877379  0.25000000  1
  Sb  Sb5  1  0.38877379  0.00000000  0.75000000  1
loop_
_geom_bond_atom_site_label_1
_geom_bond_atom_site_label_2
_geom_bond_distance
_geom_bond_site_symmetry_2
Ca0 Sb5 3.304715 1_564
Ca0 Sb3 3.304715 1_555
Ca0 Sb0 3.304718 1_565
Ca0 Sb2 3.304718 1_554
Ca0 Sb4 3.304723 1_555
Ca0 Sb1 3.304723 1_554
Ca1 Sb0 3.304715 1_555
Ca1 Sb2 3.304715 1_655
Ca1 Sb5 3.304718 1_555
Ca1 Sb3 3.304718 1_655
Ca1 Sb1 3.304723 1_555
Ca1 Sb4 3.304723 1_555
Ca2 Sb0 3.304715 1_555
Ca2 Sb2 3.304715 1_654
Ca2 Sb5 3.304718 1_554
Ca2 Sb3 3.304718 1_655
Ca2 Sb1 3.304723 1_554
Ca2 Sb4 3.304723 1_555
Ca3 Sb5 3.304715 1_565
Ca3 Sb3 3.304715 1_555
Ca3 Sb0 3.304718 1_565
Ca3 Sb2 3.304718 1_555
Ca3 Sb4 3.304723 1_555
Ca3 Sb1 3.304723 1_555
Ca4 Sb3 3.094343 1_545
Ca4 Sb4 3.094343 1_555
Ca4 Sb0 3.254746 1_555
Ca4 Sb5 3.715401 1_555
Ca4 Sb5 3.715401 1_554
Ca5 Sb5 3.094343 1_555
Ca5 Sb2 3.094343 1_555
Ca5 Sb1 3.254746 1_555
Ca5 Sb4 3.715401 1_555
Ca5 Sb4 3.715401 1_556
Ca6 Sb5 3.094343 1_565
Ca6 Sb1 3.094343 1_455
Ca6 Sb2 3.254746 1_555
Ca6 Sb3 3.715401 1_556
Ca6 Sb3 3.715401 1_555
Ca7 Sb0 3.094343 1_455
Ca7 Sb4 3.094343 1_555
Ca7 Sb3 3.254746 1_555
Ca7 Sb2 3.715401 1_554
Ca7 Sb2 3.715401 1_555
Ca8 Sb0 3.094343 1_565
Ca8 Sb3 3.094343 1_655
Ca8 Sb4 3.254746 1_555
Ca8 Sb1 3.715401 1_555
Ca8 Sb1 3.715401 1_554
Ca9 Sb1 3.094343 1_545
Ca9 Sb2 3.094343 1_655
Ca9 Sb5 3.254746 1_555
Ca9 Sb0 3.715401 1_555
Ca9 Sb0 3.715401 1_556
