# generated using pymatgen
data_Ba5Ga6
_symmetry_space_group_name_H-M   'P 1'
_cell_length_a   7.84507367
_cell_length_b   7.84507367
_cell_length_c   14.62542000
_cell_angle_alpha   90.00000000
_cell_angle_beta   90.00000000
_cell_angle_gamma   119.99999724
_symmetry_Int_Tables_number   1
_chemical_formula_structural   Ba5Ga6
_chemical_formula_sum   'Ba10 Ga12'
_cell_volume   779.53037616
_cell_formula_units_Z   2
loop_
 _symmetry_equiv_pos_site_id
 _symmetry_equiv_pos_as_xyz
  1  'x, y, z'
loop_
 _atom_site_type_symbol
 _atom_site_label
 _atom_site_symmetry_multiplicity
 _atom_site_fract_x
 _atom_site_fract_y
 _atom_site_fract_z
 _atom_site_occupancy
  Ba  Ba0  1  0.34994000  0.99173700  0.25000000  1
  Ba  Ba1  1  0.64179600  0.65006000  0.25000000  1
  Ba  Ba2  1  0.00826300  0.35820400  0.25000000  1
  Ba  Ba3  1  0.65006000  0.00826300  0.75000000  1
  Ba  Ba4  1  0.99173700  0.64179600  0.75000000  1
  Ba  Ba5  1  0.35820400  0.34994000  0.75000000  1
  Ba  Ba6  1  0.66666700  0.33333300  0.99794100  1
  Ba  Ba7  1  0.66666700  0.33333300  0.50205900  1
  Ba  Ba8  1  0.33333300  0.66666700  0.00205900  1
  Ba  Ba9  1  0.33333300  0.66666700  0.49794100  1
  Ga  Ga0  1  0.20243200  0.19800600  0.07740700  1
  Ga  Ga1  1  0.99557400  0.79756800  0.07740700  1
  Ga  Ga2  1  0.80199400  0.00442600  0.07740700  1
  Ga  Ga3  1  0.20243200  0.19800600  0.42259300  1
  Ga  Ga4  1  0.99557400  0.79756800  0.42259300  1
  Ga  Ga5  1  0.80199400  0.00442600  0.42259300  1
  Ga  Ga6  1  0.00442600  0.20243200  0.57740700  1
  Ga  Ga7  1  0.80335200  0.79192000  0.57813500  1
  Ga  Ga8  1  0.19800600  0.99557400  0.57740700  1
  Ga  Ga9  1  0.00442600  0.20243200  0.92259300  1
  Ga  Ga10  1  0.80335200  0.79192000  0.92186500  1
  Ga  Ga11  1  0.19800600  0.99557400  0.92259300  1
loop_
_geom_bond_atom_site_label_1
_geom_bond_atom_site_label_2
_geom_bond_distance
_geom_bond_site_symmetry_2
Ba0 Ga4 3.490843 1_455
Ba0 Ga1 3.490843 1_455
Ba0 Ga3 3.493151 1_565
Ba0 Ga0 3.493151 1_565
Ba1 Ga5 3.490843 1_565
Ba1 Ga2 3.490843 1_565
Ba1 Ga4 3.493156 1_555
Ba1 Ga1 3.493156 1_555
Ba2 Ga3 3.490848 1_555
Ba2 Ga0 3.490848 1_555
Ba2 Ga5 3.493155 1_455
Ba2 Ga2 3.493155 1_455
Ba3 Ga6 3.490843 1_655
Ba3 Ga9 3.490843 1_655
Ba3 Ga10 3.561745 1_545
Ba3 Ga7 3.561745 1_545
Ba4 Ga10 3.410274 1_555
Ba4 Ga7 3.410274 1_555
Ba4 Ga11 3.493155 1_655
Ba4 Ga8 3.493155 1_655
Ba5 Ga11 3.490843 1_545
Ba5 Ga8 3.490843 1_545
Ba5 Ga6 3.493156 1_555
Ba5 Ga9 3.493156 1_555
Ba6 Ga10 3.387199 1_555
Ba6 Ga2 3.446039 1_556
Ba6 Ga1 3.446045 1_556
Ba6 Ga0 3.446046 1_556
Ba6 Ga9 3.465720 1_655
Ba6 Ga11 3.465726 1_545
Ba7 Ga7 3.387199 1_555
Ba7 Ga5 3.446039 1_555
Ba7 Ga4 3.446045 1_555
Ba7 Ga3 3.446046 1_555
Ba7 Ga6 3.465720 1_655
Ba7 Ga8 3.465726 1_545
Ba8 Ga11 3.446039 1_554
Ba8 Ga9 3.446045 1_554
Ba8 Ga1 3.465720 1_455
Ba8 Ga2 3.465726 1_565
Ba8 Ga0 3.465728 1_555
Ba8 Ga10 3.509181 1_554
Ba9 Ga8 3.446039 1_555
Ba9 Ga6 3.446045 1_555
Ba9 Ga4 3.465720 1_455
Ba9 Ga5 3.465726 1_565
Ba9 Ga3 3.465728 1_555
Ba9 Ga7 3.509181 1_555
Ga0 Ga2 2.721088 1_455
Ga0 Ga1 2.721088 1_445
Ga0 Ga9 2.755866 1_554
Ga0 Ga11 2.755866 1_544
Ga1 Ga10 2.717392 1_554
Ga1 Ga2 2.721087 1_565
Ga1 Ga11 2.755866 1_654
Ga2 Ga9 2.755866 1_654
Ga3 Ga5 2.721088 1_455
Ga3 Ga4 2.721088 1_445
Ga3 Ga6 2.755866 1_555
Ga3 Ga8 2.755866 1_545
Ga4 Ga7 2.717392 1_555
Ga4 Ga5 2.721087 1_565
Ga4 Ga8 2.755866 1_655
Ga5 Ga6 2.755866 1_655
Ga5 Ga7 2.823509 1_545
Ga6 Ga8 2.721087 1_545
Ga6 Ga7 2.789245 1_445
Ga7 Ga8 2.681773 1_655
Ga10 Ga11 2.681773 1_655
Ga10 Ga9 2.789245 1_665
Ga10 Ga2 2.823509 1_566
Ga11 Ga9 2.721087 1_565
