# generated using pymatgen
data_K2Mo6H2Cl14O
_symmetry_space_group_name_H-M   'P 1'
_cell_length_a   13.23880976
_cell_length_b   13.23880976
_cell_length_c   9.64891877
_cell_angle_alpha   71.06116451
_cell_angle_beta   71.06116451
_cell_angle_gamma   75.68213883
_symmetry_Int_Tables_number   1
_chemical_formula_structural   K2Mo6H2Cl14O
_chemical_formula_sum   'K4 Mo12 H4 Cl28 O2'
_cell_volume   1493.81877747
_cell_formula_units_Z   2
loop_
 _symmetry_equiv_pos_site_id
 _symmetry_equiv_pos_as_xyz
  1  'x, y, z'
loop_
 _atom_site_type_symbol
 _atom_site_label
 _atom_site_symmetry_multiplicity
 _atom_site_fract_x
 _atom_site_fract_y
 _atom_site_fract_z
 _atom_site_occupancy
  K  K0  1  0.55677200  0.44401800  0.25180500  1
  K  K1  1  0.44401800  0.55677200  0.75180500  1
  K  K2  1  0.94893900  0.04880900  0.03664300  1
  K  K3  1  0.04880900  0.94893900  0.53664300  1
  Mo  Mo0  1  0.93843800  0.69668700  0.43104200  1
  Mo  Mo1  1  0.69668700  0.93843800  0.93104200  1
  Mo  Mo2  1  0.05246200  0.32240000  0.56512500  1
  Mo  Mo3  1  0.32240000  0.05246200  0.06512500  1
  Mo  Mo4  1  0.83481100  0.48328000  0.68800200  1
  Mo  Mo5  1  0.48328000  0.83481100  0.18800200  1
  Mo  Mo6  1  0.17122000  0.53103000  0.28815100  1
  Mo  Mo7  1  0.53103000  0.17122000  0.78815100  1
  Mo  Mo8  1  0.09574500  0.52548700  0.66572200  1
  Mo  Mo9  1  0.52548700  0.09574500  0.16572200  1
  Mo  Mo10  1  0.91041400  0.49268000  0.31609800  1
  Mo  Mo11  1  0.49268000  0.91041400  0.81609800  1
  H  H0  1  0.17315600  0.75528400  0.78136700  1
  H  H1  1  0.75528400  0.17315600  0.28136700  1
  H  H2  1  0.25794400  0.83297500  0.71575300  1
  H  H3  1  0.83297500  0.25794400  0.21575300  1
  Cl  Cl0  1  0.00835400  0.68497900  0.16161000  1
  Cl  Cl1  1  0.68497900  0.00835400  0.66161000  1
  Cl  Cl2  1  0.98087500  0.36625100  0.82700600  1
  Cl  Cl3  1  0.36625100  0.98087500  0.32700600  1
  Cl  Cl4  1  0.86025900  0.65472600  0.72046400  1
  Cl  Cl5  1  0.65472600  0.86025900  0.22046400  1
  Cl  Cl6  1  0.09647700  0.36269500  0.27531200  1
  Cl  Cl7  1  0.36269500  0.09647700  0.77531200  1
  Cl  Cl8  1  0.74319900  0.58545300  0.48248400  1
  Cl  Cl9  1  0.58545300  0.74319900  0.98248400  1
  Cl  Cl10  1  0.23489300  0.34830100  0.54160400  1
  Cl  Cl11  1  0.34830100  0.23489300  0.04160400  1
  Cl  Cl12  1  0.18100800  0.66134500  0.43026500  1
  Cl  Cl13  1  0.66134500  0.18100800  0.93026500  1
  Cl  Cl14  1  0.85559900  0.31241800  0.61132600  1
  Cl  Cl15  1  0.31241800  0.85559900  0.11132600  1
  Cl  Cl16  1  0.90418700  0.89507400  0.37051900  1
  Cl  Cl17  1  0.89507400  0.90418700  0.87051900  1
  Cl  Cl18  1  0.09276200  0.12685600  0.65598300  1
  Cl  Cl19  1  0.12685600  0.09276200  0.15598300  1
  Cl  Cl20  1  0.66598100  0.46300700  0.88420700  1
  Cl  Cl21  1  0.46300700  0.66598100  0.38420700  1
  Cl  Cl22  1  0.35464800  0.53390200  0.11074800  1
  Cl  Cl23  1  0.53390200  0.35464800  0.61074800  1
  Cl  Cl24  1  0.81666100  0.44677000  0.16795200  1
  Cl  Cl25  1  0.44677000  0.81666100  0.66795200  1
  Cl  Cl26  1  0.18202600  0.55436200  0.83725500  1
  Cl  Cl27  1  0.55436200  0.18202600  0.33725500  1
  O  O0  1  0.18211300  0.83026800  0.72655700  1
  O  O1  1  0.83026800  0.18211300  0.22655700  1
loop_
_geom_bond_atom_site_label_1
_geom_bond_atom_site_label_2
_geom_bond_distance
_geom_bond_site_symmetry_2
K2 O1 2.792801 1_555
K3 O0 2.792801 1_555
H0 O0 0.977718 1_555
H1 O1 0.977718 1_555
H2 O0 0.983579 1_555
H3 O1 0.983579 1_555
Cl0 Mo0 2.503592 1_455
Cl0 Mo6 2.865956 1_555
Cl0 Mo10 2.880810 1_455
Cl1 Mo1 2.503592 1_545
Cl1 Mo7 2.865956 1_555
Cl1 Mo11 2.880810 1_545
Cl2 Mo2 2.597281 1_655
Cl2 Mo4 2.606037 1_555
Cl2 Mo8 2.664288 1_655
Cl3 Mo3 2.597281 1_565
Cl3 Mo5 2.606037 1_555
Cl3 Mo9 2.664288 1_565
Cl4 Mo4 2.504301 1_555
Cl4 Mo0 2.565090 1_555
Cl4 Mo8 3.131304 1_655
Cl5 Mo5 2.504301 1_555
Cl5 Mo1 2.565090 1_554
Cl5 Mo9 3.131304 1_565
Cl6 Mo2 2.563510 1_555
Cl6 Mo10 2.626327 1_455
Cl6 Mo6 2.703774 1_555
Cl7 Mo3 2.563510 1_556
Cl7 Mo11 2.626327 1_545
Cl7 Mo7 2.703774 1_555
Cl8 Mo4 2.498326 1_555
Cl8 Mo10 2.571909 1_555
Cl8 Mo0 3.109843 1_555
Cl9 Mo5 2.498326 1_556
Cl9 Mo11 2.571909 1_555
Cl9 Mo1 3.109843 1_555
Cl10 Mo2 2.450597 1_555
Cl10 Mo8 2.929922 1_555
Cl10 Mo6 3.005449 1_555
Cl11 Mo3 2.450597 1_555
Cl11 Mo9 2.929922 1_555
Cl11 Mo7 3.005449 1_554
Cl12 Mo8 2.521449 1_555
Cl12 Mo6 2.575850 1_555
Cl12 Mo0 3.126524 1_455
Cl13 Mo9 2.521449 1_556
Cl13 Mo7 2.575850 1_555
Cl13 Mo1 3.126524 1_545
Cl14 Mo4 2.527061 1_555
Cl14 Mo2 2.527168 1_655
Cl14 Mo10 3.072198 1_555
Cl15 Mo5 2.527061 1_555
Cl15 Mo3 2.527168 1_565
Cl15 Mo11 3.072198 1_554
Cl16 Mo0 2.455996 1_555
Cl16 K2 3.158016 1_565
Cl16 K3 3.186385 1_655
Cl17 Mo1 2.455996 1_555
Cl17 K3 3.158016 1_655
Cl17 K2 3.186385 1_566
Cl18 Mo2 2.429453 1_555
Cl18 K3 3.175831 1_545
Cl18 K2 3.486205 1_456
Cl19 Mo3 2.429453 1_555
Cl19 K2 3.175831 1_455
Cl19 K3 3.486205 1_545
Cl20 Mo4 2.423222 1_555
Cl20 K0 3.317590 1_556
Cl20 K1 3.378050 1_555
Cl21 Mo5 2.423222 1_555
Cl21 K1 3.317590 1_555
Cl21 K0 3.378050 1_555
Cl22 Mo6 2.476630 1_555
Cl22 K0 3.188521 1_555
Cl22 K1 3.212993 1_554
Cl23 Mo7 2.476630 1_555
Cl23 K1 3.188521 1_555
Cl23 K0 3.212993 1_555
Cl24 Mo10 2.458048 1_555
Cl24 K0 3.275622 1_555
Cl25 Mo11 2.458048 1_555
Cl25 K1 3.275622 1_555
Cl26 Mo8 2.458480 1_555
Cl26 K1 3.300363 1_555
Cl27 Mo9 2.458480 1_555
Cl27 K0 3.300363 1_555
