# generated using pymatgen
data_Y3Ge13Pt4
_symmetry_space_group_name_H-M   'P 1'
_cell_length_a   9.10970153
_cell_length_b   9.10970153
_cell_length_c   9.17047569
_cell_angle_alpha   89.65004786
_cell_angle_beta   89.65004786
_cell_angle_gamma   89.92926009
_symmetry_Int_Tables_number   1
_chemical_formula_structural   Y3Ge13Pt4
_chemical_formula_sum   'Y6 Ge26 Pt8'
_cell_volume   760.99823065
_cell_formula_units_Z   2
loop_
 _symmetry_equiv_pos_site_id
 _symmetry_equiv_pos_as_xyz
  1  'x, y, z'
loop_
 _atom_site_type_symbol
 _atom_site_label
 _atom_site_symmetry_multiplicity
 _atom_site_fract_x
 _atom_site_fract_y
 _atom_site_fract_z
 _atom_site_occupancy
  Y  Y0  1  0.00034300  0.00084600  0.50047200  1
  Y  Y1  1  0.00084600  0.00034300  0.00047200  1
  Y  Y2  1  0.74661000  0.49846300  0.74886000  1
  Y  Y3  1  0.49846300  0.74661000  0.24886000  1
  Y  Y4  1  0.25679700  0.50137600  0.75041800  1
  Y  Y5  1  0.50137600  0.25679700  0.25041800  1
  Ge  Ge0  1  0.49606400  0.00710500  0.75345300  1
  Ge  Ge1  1  0.00710500  0.49606400  0.25345300  1
  Ge  Ge2  1  0.14751000  0.17411300  0.75336100  1
  Ge  Ge3  1  0.17411300  0.14751000  0.25336100  1
  Ge  Ge4  1  0.84631900  0.16650500  0.75090000  1
  Ge  Ge5  1  0.16650500  0.84631900  0.25090000  1
  Ge  Ge6  1  0.50256900  0.68179900  0.61214900  1
  Ge  Ge7  1  0.68179900  0.50256900  0.11214900  1
  Ge  Ge8  1  0.00413800  0.38714300  0.51462100  1
  Ge  Ge9  1  0.38714300  0.00413800  0.01462100  1
  Ge  Ge10  1  0.00010200  0.66991500  0.60342600  1
  Ge  Ge11  1  0.66991500  0.00010200  0.10342600  1
  Ge  Ge12  1  0.26541700  0.50429800  0.14209000  1
  Ge  Ge13  1  0.50429800  0.26541700  0.64209000  1
  Ge  Ge14  1  0.00140000  0.66742600  0.90047700  1
  Ge  Ge15  1  0.66742600  0.00140000  0.40047700  1
  Ge  Ge16  1  0.21993300  0.88023800  0.75078800  1
  Ge  Ge17  1  0.88023800  0.21993300  0.25078800  1
  Ge  Ge18  1  0.99731000  0.38510500  0.98579100  1
  Ge  Ge19  1  0.38510500  0.99731000  0.48579100  1
  Ge  Ge20  1  0.50167800  0.66385100  0.91338500  1
  Ge  Ge21  1  0.66385100  0.50167800  0.41338500  1
  Ge  Ge22  1  0.74960100  0.88848900  0.75121000  1
  Ge  Ge23  1  0.88848900  0.74960100  0.25121000  1
  Ge  Ge24  1  0.35226600  0.49681700  0.42075100  1
  Ge  Ge25  1  0.49681700  0.35226600  0.92075100  1
  Pt  Pt0  1  0.75048000  0.25090800  0.00203900  1
  Pt  Pt1  1  0.25090800  0.75048000  0.50203900  1
  Pt  Pt2  1  0.75052800  0.25187200  0.50100500  1
  Pt  Pt3  1  0.25187200  0.75052800  0.00100500  1
  Pt  Pt4  1  0.75402300  0.75637500  0.50006900  1
  Pt  Pt5  1  0.75637500  0.75402300  0.00006900  1
  Pt  Pt6  1  0.25217100  0.24809700  0.50513500  1
  Pt  Pt7  1  0.24809700  0.25217100  0.00513500  1
loop_
_geom_bond_atom_site_label_1
_geom_bond_atom_site_label_2
_geom_bond_distance
_geom_bond_site_symmetry_2
Ge0 Ge22 2.548729 1_545
Ge0 Ge13 2.560472 1_555
Ge0 Ge9 2.586833 1_556
Ge0 Ge19 2.662310 1_545
Ge0 Ge16 2.769866 1_545
Ge1 Ge23 2.548729 1_455
Ge1 Ge12 2.560472 1_555
Ge1 Ge8 2.586833 1_555
Ge1 Ge18 2.662310 1_454
Ge1 Ge17 2.769866 1_455
Ge2 Pt6 2.549779 1_555
Ge2 Pt7 2.593019 1_556
Ge2 Ge4 2.744955 1_455
Ge2 Y1 3.057888 1_556
Ge2 Y0 3.123286 1_555
Ge2 Y4 3.144180 1_555
Ge3 Pt7 2.549779 1_555
Ge3 Pt6 2.593019 1_555
Ge3 Ge5 2.744955 1_545
Ge3 Y0 3.057888 1_555
Ge3 Y1 3.123286 1_555
Ge3 Y5 3.144180 1_555
Ge4 Pt2 2.572725 1_555
Ge4 Pt0 2.579330 1_556
Ge4 Y1 3.082652 1_656
Ge4 Y0 3.085122 1_655
Ge4 Y2 3.156412 1_555
Ge5 Pt3 2.572725 1_555
Ge5 Pt1 2.579330 1_555
Ge5 Y0 3.082652 1_565
Ge5 Y1 3.085122 1_565
Ge5 Y3 3.156412 1_555
Ge6 Pt1 2.585325 1_555
Ge6 Pt4 2.594550 1_555
Ge6 Y4 3.044814 1_555
Ge6 Y2 3.050047 1_555
Ge6 Y3 3.380316 1_555
Ge7 Pt0 2.585325 1_555
Ge7 Pt5 2.594550 1_555
Ge7 Y5 3.044814 1_555
Ge7 Y3 3.050047 1_555
Ge7 Y2 3.380316 1_554
Ge8 Pt6 2.590224 1_555
Ge8 Pt2 2.623752 1_455
Ge8 Y2 3.332499 1_455
Ge8 Y4 3.339242 1_555
Ge8 Y0 3.522454 1_555
Ge9 Pt7 2.590224 1_555
Ge9 Pt3 2.623752 1_545
Ge9 Y3 3.332499 1_545
Ge9 Y5 3.339242 1_555
Ge9 Y1 3.522454 1_555
Ge10 Pt4 2.560559 1_455
Ge10 Pt1 2.567709 1_555
Ge10 Ge8 2.706513 1_555
Ge10 Ge14 2.724153 1_555
Ge10 Y2 3.081659 1_455
Ge10 Y4 3.105943 1_555
Ge10 Y0 3.153559 1_565
Ge11 Pt5 2.560559 1_545
Ge11 Pt0 2.567709 1_555
Ge11 Ge9 2.706513 1_555
Ge11 Ge15 2.724153 1_555
Ge11 Y3 3.081659 1_545
Ge11 Y5 3.105943 1_555
Ge11 Y1 3.153559 1_655
Ge12 Pt3 2.585811 1_555
Ge12 Pt7 2.629855 1_555
Ge12 Ge24 2.680182 1_555
Ge12 Y3 3.225163 1_555
Ge12 Y5 3.267652 1_555
Ge12 Y4 3.593418 1_554
Ge13 Pt2 2.585811 1_555
Ge13 Pt6 2.629855 1_555
Ge13 Ge25 2.680182 1_555
Ge13 Y2 3.225163 1_555
Ge13 Y4 3.267652 1_555
Ge13 Y5 3.593418 1_555
Ge14 Pt5 2.533434 1_456
Ge14 Pt3 2.582196 1_556
Ge14 Ge18 2.683888 1_455
Ge14 Y4 3.093945 1_555
Ge14 Y2 3.124751 1_455
Ge14 Y1 3.173723 1_566
Ge15 Pt4 2.533434 1_545
Ge15 Pt2 2.582196 1_555
Ge15 Ge19 2.683888 1_545
Ge15 Y5 3.093945 1_555
Ge15 Y3 3.124751 1_545
Ge15 Y0 3.173723 1_655
Ge16 Pt1 2.589355 1_555
Ge16 Pt3 2.592353 1_556
Ge16 Ge2 2.756626 1_565
Ge16 Y1 3.223755 1_566
Ge16 Y0 3.240062 1_565
Ge16 Y4 3.467227 1_555
Ge17 Pt0 2.589355 1_555
Ge17 Pt2 2.592353 1_555
Ge17 Ge3 2.756626 1_655
Ge17 Y0 3.223755 1_655
Ge17 Y1 3.240062 1_655
Ge17 Y5 3.467227 1_555
Ge18 Pt0 2.563812 1_556
Ge18 Pt7 2.590913 1_656
Ge18 Y2 3.321212 1_555
Ge18 Y4 3.359263 1_655
Ge18 Y1 3.506946 1_656
Ge19 Pt1 2.563812 1_555
Ge19 Pt6 2.590913 1_565
Ge19 Y3 3.321212 1_555
Ge19 Y5 3.359263 1_565
Ge19 Y0 3.506946 1_565
Ge20 Pt3 2.535489 1_556
Ge20 Pt5 2.593316 1_556
Ge20 Ge6 2.766278 1_555
Ge20 Ge25 2.839231 1_555
Ge20 Ge7 2.858557 1_556
Ge20 Y4 3.078395 1_555
Ge20 Y2 3.082726 1_555
Ge20 Y3 3.171916 1_556
Ge21 Pt2 2.535489 1_555
Ge21 Pt4 2.593316 1_555
Ge21 Ge7 2.766278 1_555
Ge21 Ge24 2.839231 1_555
Ge21 Ge6 2.858557 1_555
Ge21 Y5 3.078395 1_555
Ge21 Y3 3.082726 1_555
Ge21 Y2 3.171916 1_555
Ge22 Pt5 2.584553 1_556
Ge22 Pt4 2.605163 1_555
Ge22 Ge4 2.682530 1_565
Ge22 Y0 3.386027 1_665
Ge22 Y1 3.405872 1_666
Ge22 Y2 3.553357 1_555
Ge23 Pt4 2.584553 1_555
Ge23 Pt5 2.605163 1_555
Ge23 Ge5 2.682530 1_655
Ge23 Y1 3.386027 1_665
Ge23 Y0 3.405872 1_665
Ge23 Y3 3.553357 1_555
Ge24 Pt6 2.557153 1_555
Ge24 Pt1 2.599113 1_555
Ge24 Ge6 2.804704 1_555
Ge24 Y5 3.012367 1_555
Ge24 Y3 3.061799 1_555
Ge24 Y4 3.141206 1_555
Ge25 Pt7 2.557153 1_556
Ge25 Pt0 2.599113 1_556
Ge25 Ge7 2.804704 1_556
Ge25 Y4 3.012367 1_555
Ge25 Y2 3.061799 1_555
Ge25 Y5 3.141206 1_556
Pt0 Y5 3.206033 1_555
Pt0 Y1 3.224803 1_655
Pt0 Y2 3.227138 1_554
Pt1 Y4 3.206033 1_555
Pt1 Y0 3.224803 1_565
Pt1 Y3 3.227138 1_555
Pt2 Y2 3.205453 1_555
Pt2 Y0 3.224204 1_655
Pt2 Y5 3.239841 1_555
Pt3 Y3 3.205453 1_555
Pt3 Y1 3.224204 1_565
Pt3 Y4 3.239841 1_554
Pt4 Y0 3.163453 1_665
Pt4 Y2 3.265445 1_555
Pt4 Y3 3.286858 1_555
Pt5 Y1 3.163453 1_665
Pt5 Y3 3.265445 1_555
Pt5 Y2 3.286858 1_554
Pt6 Y0 3.217605 1_555
Pt6 Y4 3.232617 1_555
Pt6 Y5 3.248036 1_555
Pt7 Y1 3.217605 1_555
Pt7 Y5 3.232617 1_555
Pt7 Y4 3.248036 1_554
