# generated using pymatgen
data_KAl2P2O11
_symmetry_space_group_name_H-M   'P 1'
_cell_length_a   9.89217200
_cell_length_b   9.10571400
_cell_length_c   11.71385325
_cell_angle_alpha   53.15434062
_cell_angle_beta   90.00000000
_cell_angle_gamma   90.00000000
_symmetry_Int_Tables_number   1
_chemical_formula_structural   KAl2P2O11
_chemical_formula_sum   'K4 Al8 P8 O44'
_cell_volume   844.37071389
_cell_formula_units_Z   4
loop_
 _symmetry_equiv_pos_site_id
 _symmetry_equiv_pos_as_xyz
  1  'x, y, z'
loop_
 _atom_site_type_symbol
 _atom_site_label
 _atom_site_symmetry_multiplicity
 _atom_site_fract_x
 _atom_site_fract_y
 _atom_site_fract_z
 _atom_site_occupancy
  K  K0  1  0.31880200  0.37177500  0.51665900  1
  K  K1  1  0.68119800  0.62822500  0.48334100  1
  K  K2  1  0.81880200  0.62822500  0.98334100  1
  K  K3  1  0.18119800  0.37177500  0.01665900  1
  Al  Al0  1  0.25552500  0.69074000  0.11404100  1
  Al  Al1  1  0.74447500  0.30926000  0.88595900  1
  Al  Al2  1  0.75552500  0.30926000  0.38595900  1
  Al  Al3  1  0.24447500  0.69074000  0.61404100  1
  Al  Al4  1  0.55186700  0.96067300  0.89875900  1
  Al  Al5  1  0.44813300  0.03932700  0.10124100  1
  Al  Al6  1  0.05186700  0.03932700  0.60124100  1
  Al  Al7  1  0.94813300  0.96067300  0.39875900  1
  P  P0  1  0.53382900  0.63092900  0.20313100  1
  P  P1  1  0.46617100  0.36907100  0.79686900  1
  P  P2  1  0.03382900  0.36907100  0.29686900  1
  P  P3  1  0.96617100  0.63092900  0.70313100  1
  P  P4  1  0.30773300  0.84854500  0.79120800  1
  P  P5  1  0.69226700  0.15145500  0.20879200  1
  P  P6  1  0.80773300  0.15145500  0.70879200  1
  P  P7  1  0.19226700  0.84854500  0.29120800  1
  O  O0  1  0.21417500  0.01544400  0.69229800  1
  O  O1  1  0.78582500  0.98455600  0.30770200  1
  O  O2  1  0.71417500  0.98455600  0.80770200  1
  O  O3  1  0.28582500  0.01544400  0.19229800  1
  O  O4  1  0.49658400  0.21865700  0.77272000  1
  O  O5  1  0.50341600  0.78134300  0.22728000  1
  O  O6  1  0.99658400  0.78134300  0.72728000  1
  O  O7  1  0.00341600  0.21865700  0.27272000  1
  O  O8  1  0.06652000  0.91966100  0.97401500  1
  O  O9  1  0.93348000  0.08033900  0.02598500  1
  O  O10  1  0.56652000  0.08033900  0.52598500  1
  O  O11  1  0.43348000  0.91966100  0.47401500  1
  O  O12  1  0.18582200  0.73006400  0.23695000  1
  O  O13  1  0.81417800  0.26993600  0.76305000  1
  O  O14  1  0.68582200  0.26993600  0.26305000  1
  O  O15  1  0.31417800  0.73006400  0.73695000  1
  O  O16  1  0.38347300  0.91332600  0.02438000  1
  O  O17  1  0.61652700  0.08667400  0.97562000  1
  O  O18  1  0.88347300  0.08667400  0.47562000  1
  O  O19  1  0.11652700  0.91332600  0.52438000  1
  O  O20  1  0.25063600  0.72407000  0.94522600  1
  O  O21  1  0.74936400  0.27593000  0.05477400  1
  O  O22  1  0.75063600  0.27593000  0.55477400  1
  O  O23  1  0.24936400  0.72407000  0.44522600  1
  O  O24  1  0.12528600  0.50861800  0.17204100  1
  O  O25  1  0.87471400  0.49138200  0.82795900  1
  O  O26  1  0.62528600  0.49138200  0.32795900  1
  O  O27  1  0.37471400  0.50861800  0.67204100  1
  O  O28  1  0.59223500  0.91985900  0.57519000  1
  O  O29  1  0.40776500  0.08014100  0.42481000  1
  O  O30  1  0.09223500  0.08014100  0.92481000  1
  O  O31  1  0.90776500  0.91985900  0.07519000  1
  O  O32  1  0.45025400  0.91296200  0.79417500  1
  O  O33  1  0.54974600  0.08703800  0.20582500  1
  O  O34  1  0.95025400  0.08703800  0.70582500  1
  O  O35  1  0.04974600  0.91296200  0.29417500  1
  O  O36  1  0.60200100  0.72294300  0.05660800  1
  O  O37  1  0.39799900  0.27705700  0.94339200  1
  O  O38  1  0.10200100  0.27705700  0.44339200  1
  O  O39  1  0.89799900  0.72294300  0.55660800  1
  O  O40  1  0.39732200  0.53883600  0.21457500  1
  O  O41  1  0.60267800  0.46116400  0.78542500  1
  O  O42  1  0.89732200  0.46116400  0.28542500  1
  O  O43  1  0.10267800  0.53883600  0.71457500  1
loop_
_geom_bond_atom_site_label_1
_geom_bond_atom_site_label_2
_geom_bond_distance
_geom_bond_site_symmetry_2
K0 O38 2.639628 1_555
K0 O0 2.797447 1_555
K0 O27 2.809169 1_555
K0 O23 2.871121 1_555
K0 O40 2.997168 1_555
K0 O4 3.002996 1_555
K0 O12 3.207709 1_555
K1 O39 2.639628 1_555
K1 O1 2.797447 1_555
K1 O26 2.809169 1_555
K1 O22 2.871121 1_555
K1 O41 2.997168 1_555
K1 O5 3.002996 1_555
K1 O13 3.207709 1_555
K2 O36 2.639628 1_556
K2 O2 2.797447 1_555
K2 O25 2.809169 1_555
K2 O21 2.871121 1_556
K2 O42 2.997168 1_556
K2 O6 3.002996 1_555
K2 O14 3.207709 1_556
K3 O37 2.639628 1_554
K3 O3 2.797447 1_555
K3 O24 2.809169 1_555
K3 O20 2.871121 1_554
K3 O43 2.997168 1_554
K3 O7 3.002996 1_555
K3 O15 3.207709 1_554
Al0 O20 1.812478 1_554
Al0 O12 1.815153 1_555
Al0 O40 1.820437 1_555
Al0 O24 1.876243 1_555
Al0 O16 2.063969 1_555
Al0 O8 2.535861 1_554
Al1 O21 1.812478 1_556
Al1 O13 1.815153 1_555
Al1 O41 1.820437 1_555
Al1 O25 1.876243 1_555
Al1 O17 2.063969 1_555
Al1 O9 2.535861 1_556
Al2 O22 1.812478 1_555
Al2 O14 1.815153 1_555
Al2 O42 1.820437 1_555
Al2 O26 1.876243 1_555
Al2 O18 2.063969 1_555
Al2 O10 2.535861 1_555
Al3 O23 1.812478 1_555
Al3 O15 1.815153 1_555
Al3 O43 1.820437 1_555
Al3 O27 1.876243 1_555
Al3 O19 2.063969 1_555
Al3 O11 2.535861 1_555
Al4 O32 1.827088 1_555
Al4 O2 1.866729 1_555
Al4 O36 1.884244 1_556
Al4 O17 1.942931 1_565
Al4 O4 1.958998 1_565
Al4 O16 2.089300 1_556
Al5 O33 1.827088 1_555
Al5 O3 1.866729 1_555
Al5 O37 1.884244 1_554
Al5 O16 1.942931 1_545
Al5 O5 1.958998 1_545
Al5 O17 2.089300 1_554
Al6 O34 1.827088 1_455
Al6 O0 1.866729 1_555
Al6 O38 1.884244 1_555
Al6 O19 1.942931 1_545
Al6 O6 1.958998 1_445
Al6 O18 2.089300 1_455
Al7 O35 1.827088 1_655
Al7 O1 1.866729 1_555
Al7 O39 1.884244 1_555
Al7 O18 1.942931 1_565
Al7 O7 1.958998 1_665
Al7 O19 2.089300 1_655
O0 P4 1.548149 1_545
O1 P5 1.548149 1_565
O2 P6 1.548149 1_565
O3 P7 1.548149 1_545
O4 P1 1.584636 1_555
O5 P0 1.584636 1_555
O6 P3 1.584636 1_555
O7 P2 1.584636 1_555
O10 O28 1.233750 1_545
O10 O29 1.968096 1_555
O11 O29 1.233750 1_565
O11 O28 1.968096 1_555
O12 P7 1.547353 1_555
O13 P6 1.547353 1_555
O14 P5 1.547353 1_555
O15 P4 1.547353 1_555
O20 P4 1.551178 1_555
O21 P5 1.551178 1_555
O22 P6 1.551178 1_555
O23 P7 1.551178 1_555
O24 P2 1.530636 1_555
O25 P3 1.530636 1_555
O26 P0 1.530636 1_555
O27 P1 1.530636 1_555
O30 O8 1.233750 1_545
O30 O9 1.968096 1_456
O31 O9 1.233750 1_565
O31 O8 1.968096 1_654
O32 P4 1.535372 1_555
O33 P5 1.535372 1_555
O34 P6 1.535372 1_555
O35 P7 1.535372 1_555
O36 P0 1.542057 1_555
O37 P1 1.542057 1_555
O38 P2 1.542057 1_555
O39 P3 1.542057 1_555
O40 P0 1.552353 1_555
O41 P1 1.552353 1_555
O42 P2 1.552353 1_655
O43 P3 1.552353 1_455
