# generated using pymatgen
data_Y(CrFe5)2
_symmetry_space_group_name_H-M   'P 1'
_cell_length_a   4.68341400
_cell_length_b   6.39559403
_cell_length_c   6.39559403
_cell_angle_alpha   97.34617795
_cell_angle_beta   111.47799009
_cell_angle_gamma   68.52200991
_symmetry_Int_Tables_number   1
_chemical_formula_structural   Y(CrFe5)2
_chemical_formula_sum   'Y1 Cr2 Fe10'
_cell_volume   165.88242230
_cell_formula_units_Z   1
loop_
 _symmetry_equiv_pos_site_id
 _symmetry_equiv_pos_as_xyz
  1  'x, y, z'
loop_
 _atom_site_type_symbol
 _atom_site_label
 _atom_site_symmetry_multiplicity
 _atom_site_fract_x
 _atom_site_fract_y
 _atom_site_fract_z
 _atom_site_occupancy
  Y  Y0  1  0.00000000  0.00000000  0.00000000  1
  Cr  Cr0  1  0.00000000  0.36838100  0.36838100  1
  Cr  Cr1  1  0.00000000  0.63161900  0.63161900  1
  Fe  Fe0  1  0.50000000  0.00000000  0.50000000  1
  Fe  Fe1  1  0.00000000  0.00000000  0.50000000  1
  Fe  Fe2  1  0.50000000  0.50000000  0.00000000  1
  Fe  Fe3  1  0.00000000  0.50000000  0.00000000  1
  Fe  Fe4  1  0.72591400  0.77408600  0.22591400  1
  Fe  Fe5  1  0.27408600  0.22591400  0.77408600  1
  Fe  Fe6  1  0.50000000  0.77166800  0.77166800  1
  Fe  Fe7  1  0.50000000  0.22833200  0.22833200  1
  Fe  Fe8  1  0.64054600  0.35945400  0.64054600  1
  Fe  Fe9  1  0.35945400  0.64054600  0.35945400  1
loop_
_geom_bond_atom_site_label_1
_geom_bond_atom_site_label_2
_geom_bond_distance
_geom_bond_site_symmetry_2
Cr0 Cr1 2.223497 1_555
Cr0 Fe4 2.553356 1_455
Cr0 Fe5 2.553356 1_555
Cr0 Fe2 2.601265 1_455
Cr0 Fe3 2.601265 1_555
Cr0 Fe1 2.601265 1_555
Cr0 Fe0 2.601265 1_555
Cr0 Fe7 2.623542 1_455
Cr0 Fe7 2.623542 1_555
Cr0 Fe9 2.847609 1_555
Cr0 Fe8 2.847609 1_555
Cr0 Fe8 2.847609 1_455
Cr0 Fe9 2.847609 1_455
Cr0 Y0 3.111610 1_555
Cr1 Fe5 2.553356 1_555
Cr1 Fe4 2.553356 1_455
Cr1 Fe1 2.601265 1_565
Cr1 Fe0 2.601265 1_465
Cr1 Fe3 2.601265 1_556
Cr1 Fe2 2.601265 1_556
Cr1 Fe6 2.623542 1_555
Cr1 Fe6 2.623542 1_455
Cr1 Fe8 2.847609 1_455
Cr1 Fe8 2.847609 1_555
Cr1 Fe9 2.847609 1_555
Cr1 Fe9 2.847609 1_455
Cr1 Y0 3.111610 1_566
Fe0 Fe1 2.341707 1_655
Fe0 Fe1 2.341707 1_555
Fe0 Fe6 2.408363 1_545
Fe0 Fe7 2.408363 1_555
Fe0 Fe5 2.422992 1_555
Fe0 Fe4 2.422992 1_545
Fe0 Fe8 2.583155 1_555
Fe0 Fe9 2.583155 1_545
Fe0 Y0 3.197797 1_555
Fe0 Y0 3.197797 1_656
Fe1 Fe6 2.408363 1_545
Fe1 Fe7 2.408363 1_455
Fe1 Fe5 2.422992 1_555
Fe1 Fe4 2.422992 1_445
Fe1 Fe8 2.583155 1_455
Fe1 Fe9 2.583155 1_545
Fe1 Y0 3.197797 1_555
Fe1 Y0 3.197797 1_556
Fe2 Fe3 2.341707 1_655
Fe2 Fe3 2.341707 1_555
Fe2 Fe6 2.408363 1_554
Fe2 Fe7 2.408363 1_555
Fe2 Fe4 2.422992 1_555
Fe2 Fe5 2.422992 1_554
Fe2 Fe9 2.583155 1_555
Fe2 Fe8 2.583155 1_554
Fe2 Y0 3.197797 1_565
Fe2 Y0 3.197797 1_655
Fe3 Fe6 2.408363 1_454
Fe3 Fe7 2.408363 1_555
Fe3 Fe4 2.422992 1_455
Fe3 Fe5 2.422992 1_554
Fe3 Fe9 2.583155 1_555
Fe3 Fe8 2.583155 1_454
Fe3 Y0 3.197797 1_555
Fe3 Y0 3.197797 1_565
Fe4 Fe9 2.595734 1_655
Fe4 Fe9 2.595734 1_555
Fe4 Fe6 2.703574 1_554
Fe4 Fe7 2.703574 1_565
Fe4 Y0 3.012174 1_565
Fe4 Y0 3.012174 1_665
Fe5 Fe8 2.595734 1_455
Fe5 Fe8 2.595734 1_555
Fe5 Fe6 2.703574 1_545
Fe5 Fe7 2.703574 1_556
Fe5 Y0 3.012174 1_556
Fe5 Y0 3.012174 1_656
Fe6 Fe8 2.579722 1_555
Fe6 Fe9 2.579722 1_555
Fe6 Y0 3.033695 1_666
Fe6 Y0 3.033695 1_566
Fe7 Fe8 2.579722 1_555
Fe7 Fe9 2.579722 1_555
Fe7 Y0 3.033695 1_655
Fe7 Y0 3.033695 1_555
Fe8 Fe9 2.357373 1_555
Fe8 Y0 3.014555 1_656
Fe9 Y0 3.014555 1_565
