# generated using pymatgen
data_Zn3Si4(WO7)2
_symmetry_space_group_name_H-M   'P 1'
_cell_length_a   8.04661609
_cell_length_b   10.29752099
_cell_length_c   9.25933062
_cell_angle_alpha   66.44412018
_cell_angle_beta   64.24562650
_cell_angle_gamma   67.00153311
_symmetry_Int_Tables_number   1
_chemical_formula_structural   Zn3Si4(WO7)2
_chemical_formula_sum   'Zn6 Si8 W4 O28'
_cell_volume   611.15253751
_cell_formula_units_Z   2
loop_
 _symmetry_equiv_pos_site_id
 _symmetry_equiv_pos_as_xyz
  1  'x, y, z'
loop_
 _atom_site_type_symbol
 _atom_site_label
 _atom_site_symmetry_multiplicity
 _atom_site_fract_x
 _atom_site_fract_y
 _atom_site_fract_z
 _atom_site_occupancy
  Zn  Zn0  1  0.04781500  0.87489700  0.41427700  1
  Zn  Zn1  1  0.33699000  0.62510300  0.08572300  1
  Zn  Zn2  1  0.66301000  0.37489700  0.91427700  1
  Zn  Zn3  1  0.59285700  0.25000000  0.75000000  1
  Zn  Zn4  1  0.95218500  0.12510300  0.58572300  1
  Zn  Zn5  1  0.40714300  0.75000000  0.25000000  1
  Si  Si0  1  0.48402600  0.31142300  0.33627900  1
  Si  Si1  1  0.86827100  0.81142300  0.83627900  1
  Si  Si2  1  0.46444400  0.91208800  0.81118800  1
  Si  Si3  1  0.81228100  0.41208800  0.31118800  1
  Si  Si4  1  0.13172900  0.18857700  0.16372100  1
  Si  Si5  1  0.53555600  0.08791200  0.18881200  1
  Si  Si6  1  0.18771900  0.58791200  0.68881200  1
  Si  Si7  1  0.51597400  0.68857700  0.66372100  1
  W  W0  1  0.18623400  0.25000000  0.75000000  1
  W  W1  1  0.81376600  0.75000000  0.25000000  1
  W  W2  1  0.00000000  0.00000000  0.00000000  1
  W  W3  1  0.00000000  0.50000000  0.50000000  1
  O  O0  1  0.09465500  0.63866700  0.53929900  1
  O  O1  1  0.07498600  0.60374400  0.24721200  1
  O  O2  1  0.56076300  0.91060200  0.24962800  1
  O  O3  1  0.07405900  0.10374400  0.74721200  1
  O  O4  1  0.72547000  0.65026500  0.51824000  1
  O  O5  1  0.99369500  0.35639000  0.15675200  1
  O  O6  1  0.27900600  0.41060200  0.74962800  1
  O  O7  1  0.89397500  0.84973500  0.98176000  1
  O  O8  1  0.00630500  0.64361000  0.84324800  1
  O  O9  1  0.35130300  0.67942400  0.60950500  1
  O  O10  1  0.92501400  0.39625600  0.75278800  1
  O  O11  1  0.27453000  0.34973500  0.48176000  1
  O  O12  1  0.50683800  0.14361000  0.34324800  1
  O  O13  1  0.72737800  0.13866700  0.03929900  1
  O  O14  1  0.35976800  0.17942400  0.10950500  1
  O  O15  1  0.10602500  0.15026500  0.01824000  1
  O  O16  1  0.06667200  0.08071400  0.35102500  1
  O  O17  1  0.64869700  0.32057600  0.39049500  1
  O  O18  1  0.49841100  0.41928600  0.14897500  1
  O  O19  1  0.64023200  0.82057600  0.89049500  1
  O  O20  1  0.49316200  0.85639000  0.65675200  1
  O  O21  1  0.92594100  0.89625600  0.25278800  1
  O  O22  1  0.50158900  0.58071400  0.85102500  1
  O  O23  1  0.43923700  0.08939800  0.75037200  1
  O  O24  1  0.93332800  0.91928600  0.64897500  1
  O  O25  1  0.72099400  0.58939800  0.25037200  1
  O  O26  1  0.27262200  0.86133300  0.96070100  1
  O  O27  1  0.90534500  0.36133300  0.46070100  1
loop_
_geom_bond_atom_site_label_1
_geom_bond_atom_site_label_2
_geom_bond_distance
_geom_bond_site_symmetry_2
O0 Si6 1.663502 1_555
O0 W3 2.063374 1_555
O0 Zn0 2.193521 1_555
O1 Zn1 2.022095 1_555
O1 W1 2.048728 1_455
O1 W3 2.064390 1_555
O2 Si5 1.637086 1_565
O2 W1 2.061620 1_555
O2 Zn5 2.419144 1_555
O3 Zn4 2.022095 1_455
O3 W0 2.048723 1_555
O3 W2 2.064390 1_556
O4 Si7 1.656389 1_555
O4 W3 2.125169 1_655
O4 W1 2.173994 1_555
O5 Si3 1.640726 1_555
O5 Si4 1.642363 1_655
O6 Si6 1.637086 1_555
O6 W0 2.061615 1_555
O6 Zn3 2.419151 1_555
O7 Si1 1.656394 1_555
O7 W2 2.125169 1_666
O7 W1 2.173994 1_556
O8 Si6 1.640726 1_555
O8 Si1 1.642363 1_455
O9 Si7 1.652302 1_555
O9 Si6 1.654106 1_555
O10 Zn2 2.022095 1_555
O10 W0 2.048728 1_655
O10 W3 2.064390 1_655
O11 Si0 1.656389 1_555
O11 W3 2.125169 1_555
O11 W0 2.173994 1_555
O12 Si5 1.640732 1_555
O12 Si0 1.642359 1_555
O13 Si5 1.663502 1_555
O13 W2 2.063379 1_655
O13 Zn2 2.193521 1_554
O14 Si4 1.652294 1_555
O14 Si5 1.654100 1_555
O15 Si4 1.656394 1_555
O15 W2 2.125169 1_555
O15 W0 2.173994 1_554
O16 Si4 1.625192 1_555
O16 Zn0 2.009936 1_545
O16 Zn4 2.122573 1_455
O17 Si0 1.652302 1_555
O17 Si3 1.654106 1_555
O18 Si0 1.625191 1_555
O18 Zn1 2.009933 1_555
O18 Zn2 2.122572 1_554
O19 Si1 1.652294 1_555
O19 Si2 1.654100 1_555
O20 Si2 1.640732 1_555
O20 Si7 1.642359 1_555
O21 Zn0 2.022095 1_655
O21 W1 2.048723 1_555
O21 W2 2.064390 1_665
O22 Si7 1.625191 1_555
O22 Zn2 2.009933 1_555
O22 Zn1 2.122572 1_556
O23 Si2 1.637086 1_545
O23 W0 2.061620 1_555
O23 Zn3 2.419144 1_555
O24 Si1 1.625192 1_555
O24 Zn4 2.009936 1_565
O24 Zn0 2.122573 1_655
O25 Si3 1.637086 1_555
O25 W1 2.061615 1_555
O25 Zn5 2.419151 1_555
O26 Si2 1.663502 1_555
O26 W2 2.063379 1_566
O26 Zn1 2.193521 1_556
O27 Si3 1.663502 1_555
O27 W3 2.063374 1_655
O27 Zn4 2.193521 1_555
