# generated using pymatgen
data_MnAl24Cr
_symmetry_space_group_name_H-M   'P 1'
_cell_length_a   6.43253100
_cell_length_b   6.43253100
_cell_length_c   10.51052259
_cell_angle_alpha   89.86267584
_cell_angle_beta   89.86267584
_cell_angle_gamma   70.41038771
_symmetry_Int_Tables_number   1
_chemical_formula_structural   MnAl24Cr
_chemical_formula_sum   'Mn1 Al24 Cr1'
_cell_volume   409.72421853
_cell_formula_units_Z   1
loop_
 _symmetry_equiv_pos_site_id
 _symmetry_equiv_pos_as_xyz
  1  'x, y, z'
loop_
 _atom_site_type_symbol
 _atom_site_label
 _atom_site_symmetry_multiplicity
 _atom_site_fract_x
 _atom_site_fract_y
 _atom_site_fract_z
 _atom_site_occupancy
  Mn  Mn0  1  0.50000000  0.50000000  0.50000000  1
  Al  Al0  1  0.71172015  0.10342326  0.59237132  1
  Al  Al1  1  0.21206481  0.60231185  0.09309652  1
  Al  Al2  1  0.78793519  0.39768815  0.90690348  1
  Al  Al3  1  0.28827985  0.89657674  0.40762868  1
  Al  Al4  1  0.10342326  0.71172015  0.59237132  1
  Al  Al5  1  0.60231185  0.21206481  0.09309652  1
  Al  Al6  1  0.39768815  0.78793519  0.90690348  1
  Al  Al7  1  0.89657674  0.28827985  0.40762868  1
  Al  Al8  1  0.66264534  0.03358145  0.84747521  1
  Al  Al9  1  0.16345187  0.53275673  0.34807302  1
  Al  Al10  1  0.83654813  0.46724327  0.65192698  1
  Al  Al11  1  0.33735466  0.96641855  0.15252479  1
  Al  Al12  1  0.46724327  0.83654813  0.65192698  1
  Al  Al13  1  0.96641855  0.33735466  0.15252479  1
  Al  Al14  1  0.03358145  0.66264534  0.84747521  1
  Al  Al15  1  0.53275673  0.16345187  0.34807302  1
  Al  Al16  1  0.24454041  0.24454041  0.94032505  1
  Al  Al17  1  0.74500605  0.74500605  0.44049195  1
  Al  Al18  1  0.25499395  0.25499395  0.55950805  1
  Al  Al19  1  0.75545959  0.75545959  0.05967495  1
  Al  Al20  1  0.43988746  0.43988746  0.74394723  1
  Al  Al21  1  0.94080361  0.94080361  0.24562579  1
  Al  Al22  1  0.05919639  0.05919639  0.75437421  1
  Al  Al23  1  0.56011254  0.56011254  0.25605277  1
  Cr  Cr0  1  0.00000000  -0.00000000  -0.00000000  1
loop_
_geom_bond_atom_site_label_1
_geom_bond_atom_site_label_2
_geom_bond_distance
_geom_bond_site_symmetry_2
Al0 Mn0 2.640023 1_555
Al0 Al7 2.743039 1_555
Al0 Al22 2.750576 1_655
Al0 Al8 2.752452 1_555
Al0 Al17 2.755825 1_545
Al0 Al12 2.759046 1_545
Al0 Al20 2.783043 1_555
Al0 Al15 2.789045 1_555
Al0 Al10 2.789806 1_555
Al0 Al18 2.789924 1_555
Al0 Al4 2.905180 1_645
Al1 Cr0 2.648915 1_565
Al1 Al9 2.750286 1_555
Al1 Al13 2.754595 1_455
Al1 Al16 2.758985 1_554
Al1 Al6 2.759496 1_554
Al1 Al23 2.761920 1_555
Al1 Al19 2.789918 1_455
Al1 Al11 2.792922 1_555
Al1 Al21 2.794882 1_455
Al1 Al14 2.800727 1_554
Al1 Al5 2.894381 1_555
Al2 Cr0 2.648915 1_656
Al2 Al5 2.759496 1_556
Al2 Al20 2.761920 1_555
Al2 Al8 2.792922 1_555
Al2 Al22 2.794882 1_655
Al2 Al6 2.894381 1_555
Al3 Mn0 2.640023 1_555
Al3 Al4 2.743039 1_555
Al3 Al9 2.789806 1_555
Al3 Al7 2.905180 1_465
Al4 Mn0 2.640023 1_555
Al4 Al9 2.789045 1_555
Al5 Cr0 2.648915 1_655
Al5 Al8 2.800727 1_554
Al6 Cr0 2.648915 1_566
Al6 Al8 2.754595 1_565
Al7 Mn0 2.640023 1_555
Al7 Al9 2.759046 1_655
Al8 Cr0 2.650739 1_656
Al9 Mn0 2.643852 1_555
Al10 Mn0 2.643852 1_555
Al10 Al12 2.739057 1_555
Al10 Al2 2.750286 1_555
Al10 Al22 2.751933 1_655
Al10 Al18 2.753584 1_655
Al10 Al4 2.759046 1_655
Al10 Al17 2.785574 1_555
Al10 Al20 2.786601 1_555
Al10 Al7 2.789045 1_555
Al10 Al14 2.916105 1_655
Al11 Cr0 2.650739 1_565
Al11 Al23 2.747837 1_555
Al11 Al13 2.751155 1_465
Al11 Al19 2.752012 1_555
Al11 Al3 2.752452 1_555
Al11 Al5 2.754595 1_565
Al11 Al21 2.785768 1_455
Al11 Al16 2.793289 1_564
Al11 Al6 2.800727 1_554
Al11 Al15 2.916105 1_565
Al12 Mn0 2.643852 1_555
Al12 Al6 2.750286 1_555
Al12 Al22 2.751933 1_565
Al12 Al18 2.753584 1_565
Al12 Al17 2.785574 1_555
Al12 Al20 2.786601 1_555
Al12 Al3 2.789045 1_555
Al12 Al4 2.789806 1_555
Al12 Al8 2.916105 1_565
Al13 Cr0 2.650739 1_655
Al13 Al23 2.747837 1_555
Al13 Al19 2.752012 1_555
Al13 Al7 2.752452 1_555
Al13 Al21 2.785768 1_545
Al13 Al5 2.792922 1_555
Al13 Al16 2.793289 1_654
Al13 Al2 2.800727 1_554
Al13 Al9 2.916105 1_655
Al14 Cr0 2.650739 1_566
Al14 Al20 2.747837 1_555
Al14 Al8 2.751155 1_465
Al14 Al16 2.752012 1_555
Al14 Al4 2.752452 1_555
Al14 Al2 2.754595 1_455
Al14 Al22 2.785768 1_565
Al14 Al6 2.792922 1_555
Al14 Al19 2.793289 1_456
Al15 Mn0 2.643852 1_555
Al15 Al9 2.739057 1_555
Al15 Al5 2.750286 1_555
Al15 Al21 2.751933 1_545
Al15 Al17 2.753584 1_545
Al15 Al3 2.759046 1_545
Al15 Al18 2.785574 1_555
Al15 Al23 2.786601 1_555
Al15 Al7 2.789806 1_555
Al16 Cr0 2.644221 1_556
Al16 Al8 2.752012 1_555
Al16 Al5 2.758985 1_556
Al16 Al22 2.763721 1_555
Al16 Al6 2.789918 1_545
Al16 Al2 2.789918 1_455
Al16 Al20 2.907257 1_555
Al17 Mn0 2.648566 1_555
Al17 Al23 2.749115 1_555
Al17 Al9 2.753584 1_655
Al17 Al4 2.755825 1_655
Al17 Al3 2.789924 1_555
Al17 Al7 2.789924 1_555
Al17 Al21 2.899381 1_555
Al18 Mn0 2.648566 1_555
Al18 Al20 2.749115 1_555
Al18 Al7 2.755825 1_455
Al18 Al3 2.755825 1_545
Al18 Al9 2.785574 1_555
Al18 Al4 2.789924 1_555
Al18 Al22 2.899381 1_555
Al19 Cr0 2.644221 1_665
Al19 Al2 2.758985 1_554
Al19 Al6 2.758985 1_554
Al19 Al21 2.763721 1_555
Al19 Al5 2.789918 1_565
Al19 Al8 2.793289 1_564
Al19 Al23 2.907257 1_555
Al20 Mn0 2.638931 1_555
Al20 Al8 2.747837 1_555
Al20 Al6 2.761920 1_555
Al20 Al4 2.783043 1_555
Al21 Cr0 2.653816 1_665
Al21 Al7 2.750576 1_565
Al21 Al3 2.750576 1_655
Al21 Al9 2.751933 1_655
Al21 Al5 2.794882 1_565
Al22 Cr0 2.653816 1_556
Al22 Al4 2.750576 1_545
Al22 Al8 2.785768 1_455
Al22 Al6 2.794882 1_545
Al23 Mn0 2.638931 1_555
Al23 Al5 2.761920 1_555
Al23 Al3 2.783043 1_555
Al23 Al7 2.783043 1_555
Al23 Al9 2.786601 1_555
