# generated using pymatgen
data_Dy5(CoSn3)6
_symmetry_space_group_name_H-M   'P 1'
_cell_length_a   13.74378300
_cell_length_b   13.74378300
_cell_length_c   16.74563284
_cell_angle_alpha   114.22802778
_cell_angle_beta   114.22802778
_cell_angle_gamma   90.00000000
_symmetry_Int_Tables_number   1
_chemical_formula_structural   Dy5(CoSn3)6
_chemical_formula_sum   'Dy20 Co24 Sn72'
_cell_volume   2575.93281049
_cell_formula_units_Z   4
loop_
 _symmetry_equiv_pos_site_id
 _symmetry_equiv_pos_as_xyz
  1  'x, y, z'
loop_
 _atom_site_type_symbol
 _atom_site_label
 _atom_site_symmetry_multiplicity
 _atom_site_fract_x
 _atom_site_fract_y
 _atom_site_fract_z
 _atom_site_occupancy
  Dy  Dy0  1  0.00000000  0.50000000  0.00000000  1
  Dy  Dy1  1  0.50000000  -0.00000000  0.00000000  1
  Dy  Dy2  1  0.25000000  0.25000000  0.50000000  1
  Dy  Dy3  1  0.75000000  0.75000000  0.50000000  1
  Dy  Dy4  1  0.54532526  0.05145378  0.36349032  1
  Dy  Dy5  1  0.31816506  0.55145378  0.36349032  1
  Dy  Dy6  1  0.43183494  0.43796346  0.13650968  1
  Dy  Dy7  1  0.20467474  0.93796346  0.13650968  1
  Dy  Dy8  1  0.81816506  0.31203654  0.36349032  1
  Dy  Dy9  1  0.04532526  0.81203654  0.36349032  1
  Dy  Dy10  1  0.70467474  0.69854622  0.13650968  1
  Dy  Dy11  1  0.93183494  0.19854622  0.13650968  1
  Dy  Dy12  1  0.68796346  0.45467474  0.63650968  1
  Dy  Dy13  1  0.18796346  0.68183494  0.63650968  1
  Dy  Dy14  1  0.30145378  0.56816506  0.86349032  1
  Dy  Dy15  1  0.80145378  0.79532526  0.86349032  1
  Dy  Dy16  1  0.94854622  0.18183494  0.63650968  1
  Dy  Dy17  1  0.44854622  0.95467474  0.63650968  1
  Dy  Dy18  1  0.56203654  0.29532526  0.86349032  1
  Dy  Dy19  1  0.06203654  0.06816506  0.86349032  1
  Co  Co0  1  0.87340963  0.37340963  0.74681926  1
  Co  Co1  1  0.37340963  0.87340963  0.74681926  1
  Co  Co2  1  0.37659037  0.37659037  0.75318074  1
  Co  Co3  1  0.87659037  0.87659037  0.75318074  1
  Co  Co4  1  0.62659037  0.12659037  0.25318074  1
  Co  Co5  1  0.12659037  0.62659037  0.25318074  1
  Co  Co6  1  0.62340963  0.62340963  0.24681926  1
  Co  Co7  1  0.12340963  0.12340963  0.24681926  1
  Co  Co8  1  0.74929040  0.00401885  0.49994997  1
  Co  Co9  1  0.25065957  0.50401885  0.49994997  1
  Co  Co10  1  0.49934043  0.25406888  0.00005003  1
  Co  Co11  1  0.00070960  0.75406888  0.00005003  1
  Co  Co12  1  0.75065957  0.49593112  0.49994997  1
  Co  Co13  1  0.24929040  0.99593112  0.49994997  1
  Co  Co14  1  0.50070960  0.74598115  0.00005003  1
  Co  Co15  1  0.99934043  0.24598115  0.00005003  1
  Co  Co16  1  0.50406888  0.25070960  0.50005003  1
  Co  Co17  1  0.00406888  0.74934043  0.50005003  1
  Co  Co18  1  0.25401885  0.50065957  0.99994997  1
  Co  Co19  1  0.75401885  0.99929040  0.99994997  1
  Co  Co20  1  0.99598115  0.24934043  0.50005003  1
  Co  Co21  1  0.49598115  0.75070960  0.50005003  1
  Co  Co22  1  0.74593112  0.49929040  0.99994997  1
  Co  Co23  1  0.24593112  0.00065957  0.99994997  1
  Sn  Sn0  1  0.66507463  0.12500000  0.75000000  1
  Sn  Sn1  1  0.58492537  0.62500000  0.75000000  1
  Sn  Sn2  1  0.16507463  0.12500000  0.75000000  1
  Sn  Sn3  1  0.08492537  0.62500000  0.75000000  1
  Sn  Sn4  1  0.37500000  0.33492537  0.25000000  1
  Sn  Sn5  1  0.87500000  0.41507463  0.25000000  1
  Sn  Sn6  1  0.37500000  0.83492537  0.25000000  1
  Sn  Sn7  1  0.87500000  0.91507463  0.25000000  1
  Sn  Sn8  1  0.82619858  0.32619858  0.00000000  1
  Sn  Sn9  1  0.67380142  0.82619858  0.00000000  1
  Sn  Sn10  1  0.07619858  0.07619858  0.50000000  1
  Sn  Sn11  1  0.92380142  0.57619858  0.50000000  1
  Sn  Sn12  1  0.17380142  0.67380142  0.00000000  1
  Sn  Sn13  1  0.32619858  0.17380142  0.00000000  1
  Sn  Sn14  1  0.42380142  0.42380142  0.50000000  1
  Sn  Sn15  1  0.57619858  0.92380142  0.50000000  1
  Sn  Sn16  1  0.67256056  0.17256056  0.00000000  1
  Sn  Sn17  1  0.82743944  0.67256056  0.00000000  1
  Sn  Sn18  1  0.92256056  0.92256056  0.50000000  1
  Sn  Sn19  1  0.07743944  0.42256056  0.50000000  1
  Sn  Sn20  1  0.32743944  0.82743944  0.00000000  1
  Sn  Sn21  1  0.17256056  0.32743944  0.00000000  1
  Sn  Sn22  1  0.57743944  0.57743944  0.50000000  1
  Sn  Sn23  1  0.42256056  0.07743944  0.50000000  1
  Sn  Sn24  1  0.70343010  0.20513915  0.58917660  1
  Sn  Sn25  1  0.38574650  0.70513915  0.58917660  1
  Sn  Sn26  1  0.36425350  0.36596255  0.91082340  1
  Sn  Sn27  1  0.04656990  0.86596255  0.91082340  1
  Sn  Sn28  1  0.88574650  0.38403745  0.58917660  1
  Sn  Sn29  1  0.20343010  0.88403745  0.58917660  1
  Sn  Sn30  1  0.54656990  0.54486085  0.91082340  1
  Sn  Sn31  1  0.86425350  0.04486085  0.91082340  1
  Sn  Sn32  1  0.61596255  0.29656990  0.41082340  1
  Sn  Sn33  1  0.11596255  0.61425350  0.41082340  1
  Sn  Sn34  1  0.45513915  0.63574650  0.08917660  1
  Sn  Sn35  1  0.95513915  0.95343010  0.08917660  1
  Sn  Sn36  1  0.79486085  0.11425350  0.41082340  1
  Sn  Sn37  1  0.29486085  0.79656990  0.41082340  1
  Sn  Sn38  1  0.63403745  0.45343010  0.08917660  1
  Sn  Sn39  1  0.13403745  0.13574650  0.08917660  1
  Sn  Sn40  1  0.82698799  0.00712946  0.67122475  1
  Sn  Sn41  1  0.34423675  0.50712946  0.67122475  1
  Sn  Sn42  1  0.40576325  0.08590471  0.82877525  1
  Sn  Sn43  1  0.92301201  0.58590471  0.82877525  1
  Sn  Sn44  1  0.84423675  0.66409529  0.67122475  1
  Sn  Sn45  1  0.32698799  0.16409529  0.67122475  1
  Sn  Sn46  1  0.42301201  0.74287054  0.82877525  1
  Sn  Sn47  1  0.90576325  0.24287054  0.82877525  1
  Sn  Sn48  1  0.33590471  0.17301201  0.32877525  1
  Sn  Sn49  1  0.83590471  0.65576325  0.32877525  1
  Sn  Sn50  1  0.25712946  0.59423675  0.17122475  1
  Sn  Sn51  1  0.75712946  0.07698799  0.17122475  1
  Sn  Sn52  1  0.99287054  0.15576325  0.32877525  1
  Sn  Sn53  1  0.49287054  0.67301201  0.32877525  1
  Sn  Sn54  1  0.91409529  0.57698799  0.17122475  1
  Sn  Sn55  1  0.41409529  0.09423675  0.17122475  1
  Sn  Sn56  1  0.50936070  0.33528962  0.67136126  1
  Sn  Sn57  1  0.66200056  0.83528962  0.67136126  1
  Sn  Sn58  1  0.08799944  0.41392837  0.82863874  1
  Sn  Sn59  1  0.24063930  0.91392837  0.82863874  1
  Sn  Sn60  1  0.16200056  0.33607163  0.67136126  1
  Sn  Sn61  1  0.00936070  0.83607163  0.67136126  1
  Sn  Sn62  1  0.74063930  0.41471038  0.82863874  1
  Sn  Sn63  1  0.58799944  0.91471038  0.82863874  1
  Sn  Sn64  1  0.66392837  0.49063930  0.32863874  1
  Sn  Sn65  1  0.16392837  0.33799944  0.32863874  1
  Sn  Sn66  1  0.58528962  0.91200056  0.17136126  1
  Sn  Sn67  1  0.08528962  0.75936070  0.17136126  1
  Sn  Sn68  1  0.66471038  0.83799944  0.32863874  1
  Sn  Sn69  1  0.16471038  0.99063930  0.32863874  1
  Sn  Sn70  1  0.58607163  0.25936070  0.17136126  1
  Sn  Sn71  1  0.08607163  0.41200056  0.17136126  1
loop_
_geom_bond_atom_site_label_1
_geom_bond_atom_site_label_2
_geom_bond_distance
_geom_bond_site_symmetry_2
Dy0 Sn50 3.320113 1_555
Dy0 Sn47 3.320113 1_454
Dy0 Sn54 3.320113 1_455
Dy0 Sn43 3.320113 1_454
Dy0 Sn58 3.340488 1_554
Dy0 Sn71 3.340488 1_555
Dy0 Sn67 3.340488 1_555
Dy0 Sn62 3.340488 1_454
Dy0 Sn21 3.353998 1_555
Dy0 Sn17 3.353998 1_455
Dy0 Sn12 3.378116 1_555
Dy0 Sn8 3.378116 1_455
Dy1 Sn42 3.320113 1_554
Dy1 Sn55 3.320113 1_555
Dy1 Sn51 3.320113 1_555
Dy1 Sn46 3.320113 1_544
Dy1 Sn59 3.340488 1_544
Dy1 Sn70 3.340488 1_555
Dy1 Sn66 3.340488 1_545
Dy1 Sn63 3.340488 1_544
Dy1 Sn20 3.353998 1_545
Dy1 Sn16 3.353998 1_555
Dy1 Sn13 3.378116 1_555
Dy1 Sn9 3.378116 1_545
Dy2 Sn52 3.320113 1_455
Dy2 Sn41 3.320113 1_555
Dy2 Sn48 3.320113 1_555
Dy2 Sn45 3.320113 1_555
Dy2 Sn60 3.340488 1_555
Dy2 Sn65 3.340488 1_555
Dy2 Sn69 3.340488 1_545
Dy2 Sn56 3.340488 1_555
Dy2 Sn23 3.353998 1_555
Dy2 Sn19 3.353998 1_555
Dy2 Sn14 3.378116 1_555
Dy2 Sn10 3.378116 1_555
Dy3 Sn49 3.320113 1_555
Dy3 Sn44 3.320113 1_555
Dy3 Sn53 3.320113 1_555
Dy3 Sn40 3.320113 1_565
Dy3 Sn61 3.340488 1_655
Dy3 Sn64 3.340488 1_555
Dy3 Sn57 3.340488 1_555
Dy3 Sn68 3.340488 1_555
Dy3 Sn22 3.353998 1_555
Dy3 Sn18 3.353998 1_555
Dy3 Sn11 3.378116 1_555
Dy3 Sn15 3.378116 1_555
Dy4 Sn6 3.107189 1_545
Dy4 Sn32 3.177518 1_555
Dy4 Sn24 3.189722 1_555
Dy4 Sn36 3.215987 1_555
Dy4 Sn23 3.270381 1_555
Dy4 Sn66 3.273478 1_545
Dy4 Sn55 3.279089 1_555
Dy4 Sn48 3.291981 1_555
Dy4 Sn15 3.313470 1_545
Dy4 Sn68 3.319636 1_545
Dy5 Sn4 3.107189 1_555
Dy5 Sn37 3.177518 1_555
Dy5 Sn25 3.189722 1_555
Dy5 Sn33 3.215987 1_555
Dy5 Sn22 3.270381 1_555
Dy5 Sn71 3.273478 1_555
Dy5 Sn50 3.279089 1_555
Dy5 Sn53 3.291981 1_555
Dy5 Sn14 3.313470 1_555
Dy5 Sn65 3.319636 1_555
Dy6 Sn4 3.107189 1_555
Dy6 Sn34 3.177518 1_555
Dy6 Sn26 3.189722 1_554
Dy6 Sn38 3.215987 1_555
Dy6 Sn21 3.270381 1_555
Dy6 Sn64 3.273478 1_555
Dy6 Sn53 3.279089 1_555
Dy6 Sn50 3.291981 1_555
Dy6 Sn13 3.313470 1_555
Dy6 Sn70 3.319636 1_555
Dy7 Sn6 3.107189 1_555
Dy7 Sn39 3.177518 1_565
Dy7 Sn27 3.189722 1_554
Dy7 Sn35 3.215987 1_455
Dy7 Sn20 3.270381 1_555
Dy7 Sn69 3.273478 1_555
Dy7 Sn48 3.279089 1_565
Dy7 Sn55 3.291981 1_565
Dy7 Sn12 3.313470 1_555
Dy7 Sn67 3.319636 1_555
Dy8 Sn5 3.107189 1_555
Dy8 Sn36 3.177518 1_555
Dy8 Sn28 3.189722 1_555
Dy8 Sn32 3.215987 1_555
Dy8 Sn19 3.270381 1_655
Dy8 Sn70 3.273478 1_555
Dy8 Sn51 3.279089 1_555
Dy8 Sn52 3.291981 1_555
Dy8 Sn11 3.313470 1_555
Dy8 Sn64 3.319636 1_555
Dy9 Sn7 3.107189 1_455
Dy9 Sn33 3.177518 1_555
Dy9 Sn29 3.189722 1_555
Dy9 Sn37 3.215987 1_555
Dy9 Sn18 3.270381 1_455
Dy9 Sn67 3.273478 1_555
Dy9 Sn54 3.279089 1_455
Dy9 Sn49 3.291981 1_455
Dy9 Sn10 3.313470 1_565
Dy9 Sn69 3.319636 1_555
Dy10 Sn7 3.107189 1_555
Dy10 Sn38 3.177518 1_555
Dy10 Sn30 3.189722 1_554
Dy10 Sn34 3.215987 1_555
Dy10 Sn17 3.270381 1_555
Dy10 Sn68 3.273478 1_555
Dy10 Sn49 3.279089 1_555
Dy10 Sn54 3.291981 1_555
Dy10 Sn9 3.313470 1_555
Dy10 Sn66 3.319636 1_555
Dy11 Sn5 3.107189 1_555
Dy11 Sn35 3.177518 1_545
Dy11 Sn31 3.189722 1_554
Dy11 Sn39 3.215987 1_655
Dy11 Sn16 3.270381 1_555
Dy11 Sn65 3.273478 1_655
Dy11 Sn52 3.279089 1_555
Dy11 Sn51 3.291981 1_555
Dy11 Sn8 3.313470 1_555
Dy11 Sn71 3.319636 1_655
Dy12 Sn1 3.107189 1_555
Dy12 Sn28 3.177518 1_555
Dy12 Sn32 3.189722 1_555
Dy12 Sn24 3.215987 1_555
Dy12 Sn22 3.270381 1_555
Dy12 Sn62 3.273478 1_555
Dy12 Sn43 3.279089 1_555
Dy12 Sn44 3.291981 1_555
Dy12 Sn14 3.313470 1_555
Dy12 Sn56 3.319636 1_555
Dy13 Sn3 3.107189 1_555
Dy13 Sn25 3.177518 1_555
Dy13 Sn33 3.189722 1_555
Dy13 Sn29 3.215987 1_555
Dy13 Sn19 3.270381 1_555
Dy13 Sn59 3.273478 1_555
Dy13 Sn46 3.279089 1_555
Dy13 Sn41 3.291981 1_555
Dy13 Sn11 3.313470 1_455
Dy13 Sn61 3.319636 1_555
Dy14 Sn3 3.107189 1_555
Dy14 Sn30 3.177518 1_555
Dy14 Sn34 3.189722 1_556
Dy14 Sn26 3.215987 1_555
Dy14 Sn20 3.270381 1_556
Dy14 Sn60 3.273478 1_555
Dy14 Sn41 3.279089 1_555
Dy14 Sn46 3.291981 1_555
Dy14 Sn12 3.313470 1_556
Dy14 Sn58 3.319636 1_555
Dy15 Sn1 3.107189 1_555
Dy15 Sn27 3.177518 1_655
Dy15 Sn35 3.189722 1_556
Dy15 Sn31 3.215987 1_565
Dy15 Sn17 3.270381 1_556
Dy15 Sn57 3.273478 1_555
Dy15 Sn44 3.279089 1_555
Dy15 Sn43 3.291981 1_555
Dy15 Sn9 3.313470 1_556
Dy15 Sn63 3.319636 1_555
Dy16 Sn2 3.107189 1_655
Dy16 Sn24 3.177518 1_555
Dy16 Sn36 3.189722 1_555
Dy16 Sn28 3.215987 1_555
Dy16 Sn18 3.270381 1_545
Dy16 Sn58 3.273478 1_655
Dy16 Sn47 3.279089 1_555
Dy16 Sn40 3.291981 1_555
Dy16 Sn10 3.313470 1_655
Dy16 Sn60 3.319636 1_655
Dy17 Sn0 3.107189 1_565
Dy17 Sn29 3.177518 1_555
Dy17 Sn37 3.189722 1_555
Dy17 Sn25 3.215987 1_555
Dy17 Sn23 3.270381 1_565
Dy17 Sn63 3.273478 1_555
Dy17 Sn42 3.279089 1_565
Dy17 Sn45 3.291981 1_565
Dy17 Sn15 3.313470 1_555
Dy17 Sn57 3.319636 1_555
Dy18 Sn0 3.107189 1_555
Dy18 Sn26 3.177518 1_555
Dy18 Sn38 3.189722 1_556
Dy18 Sn30 3.215987 1_555
Dy18 Sn16 3.270381 1_556
Dy18 Sn56 3.273478 1_555
Dy18 Sn45 3.279089 1_555
Dy18 Sn42 3.291981 1_555
Dy18 Sn8 3.313470 1_556
Dy18 Sn62 3.319636 1_555
Dy19 Sn2 3.107189 1_555
Dy19 Sn31 3.177518 1_455
Dy19 Sn39 3.189722 1_556
Dy19 Sn27 3.215987 1_545
Dy19 Sn21 3.270381 1_556
Dy19 Sn61 3.273478 1_545
Dy19 Sn40 3.279089 1_455
Dy19 Sn47 3.291981 1_455
Dy19 Sn13 3.313470 1_556
Dy19 Sn59 3.319636 1_545
Co0 Sn47 2.611514 1_555
Co0 Sn43 2.611514 1_555
Co0 Sn58 2.634932 1_655
Co0 Sn62 2.634932 1_555
Co0 Sn24 2.775355 1_555
Co0 Sn28 2.775355 1_555
Co0 Dy16 2.997477 1_555
Co0 Dy12 2.997477 1_555
Co0 Dy0 3.452650 1_656
Co1 Sn42 2.611514 1_565
Co1 Sn46 2.611514 1_555
Co1 Sn59 2.634932 1_555
Co1 Sn63 2.634932 1_555
Co1 Sn29 2.775355 1_555
Co1 Sn25 2.775355 1_555
Co1 Dy17 2.997477 1_555
Co1 Dy13 2.997477 1_555
Co1 Dy1 3.452650 1_566
Co2 Sn41 2.611514 1_555
Co2 Sn45 2.611514 1_555
Co2 Sn60 2.634932 1_555
Co2 Sn56 2.634932 1_555
Co2 Sn30 2.775355 1_555
Co2 Sn26 2.775355 1_555
Co2 Dy14 2.997477 1_555
Co2 Dy18 2.997477 1_555
Co2 Dy2 3.452650 1_555
Co3 Sn44 2.611514 1_555
Co3 Sn40 2.611514 1_565
Co3 Sn61 2.634932 1_655
Co3 Sn57 2.634932 1_555
Co3 Sn27 2.775355 1_655
Co3 Sn31 2.775355 1_565
Co3 Dy19 2.997477 1_665
Co3 Dy15 2.997477 1_555
Co3 Dy3 3.452650 1_555
Co4 Sn55 2.611514 1_555
Co4 Sn51 2.611514 1_555
Co4 Sn70 2.634932 1_555
Co4 Sn66 2.634932 1_545
Co4 Sn36 2.775355 1_555
Co4 Sn32 2.775355 1_555
Co4 Dy8 2.997477 1_555
Co4 Dy4 2.997477 1_555
Co4 Dy1 3.452650 1_555
Co5 Sn50 2.611514 1_555
Co5 Sn54 2.611514 1_455
Co5 Sn71 2.634932 1_555
Co5 Sn67 2.634932 1_555
Co5 Sn37 2.775355 1_555
Co5 Sn33 2.775355 1_555
Co5 Dy9 2.997477 1_555
Co5 Dy5 2.997477 1_555
Co5 Dy0 3.452650 1_555
Co6 Sn49 2.611514 1_555
Co6 Sn53 2.611514 1_555
Co6 Sn64 2.634932 1_555
Co6 Sn68 2.634932 1_555
Co6 Sn38 2.775355 1_555
Co6 Sn34 2.775355 1_555
Co6 Dy10 2.997477 1_555
Co6 Dy6 2.997477 1_555
Co6 Dy3 3.452650 1_555
Co7 Sn52 2.611514 1_455
Co7 Sn48 2.611514 1_555
Co7 Sn65 2.634932 1_555
Co7 Sn69 2.634932 1_545
Co7 Sn39 2.775355 1_555
Co7 Sn35 2.775355 1_445
Co7 Dy11 2.997477 1_455
Co7 Dy7 2.997477 1_545
Co7 Dy2 3.452650 1_555
Co8 Sn68 2.584167 1_545
Co8 Sn40 2.598815 1_555
Co8 Sn15 2.622445 1_545
Co8 Sn18 2.631258 1_545
Co8 Sn36 2.745566 1_555
Co8 Sn24 2.766504 1_555
Co8 Dy16 2.995800 1_555
Co8 Dy4 3.077370 1_555
Co8 Dy3 3.491536 1_545
Co9 Sn65 2.584167 1_555
Co9 Sn41 2.598815 1_555
Co9 Sn14 2.622445 1_555
Co9 Sn19 2.631258 1_555
Co9 Sn33 2.745566 1_555
Co9 Sn25 2.766504 1_555
Co9 Dy13 2.995800 1_555
Co9 Dy5 3.077370 1_555
Co9 Dy2 3.491536 1_555
Co10 Sn70 2.584167 1_555
Co10 Sn42 2.598815 1_554
Co10 Sn13 2.622445 1_555
Co10 Sn16 2.631258 1_555
Co10 Sn38 2.745566 1_555
Co10 Sn26 2.766504 1_554
Co10 Dy18 2.995800 1_554
Co10 Dy6 3.077370 1_555
Co10 Dy1 3.491536 1_555
Co11 Sn67 2.584167 1_555
Co11 Sn43 2.598815 1_454
Co11 Sn12 2.622445 1_555
Co11 Sn17 2.631258 1_455
Co11 Sn35 2.745566 1_455
Co11 Sn27 2.766504 1_554
Co11 Dy15 2.995800 1_454
Co11 Dy7 3.077370 1_555
Co11 Dy0 3.491536 1_555
Co12 Sn64 2.584167 1_555
Co12 Sn44 2.598815 1_555
Co12 Sn11 2.622445 1_555
Co12 Sn22 2.631258 1_555
Co12 Sn32 2.745566 1_555
Co12 Sn28 2.766504 1_555
Co12 Dy12 2.995800 1_555
Co12 Dy8 3.077370 1_555
Co12 Dy3 3.491536 1_555
Co13 Sn69 2.584167 1_555
Co13 Sn45 2.598815 1_565
Co13 Sn10 2.622445 1_565
Co13 Sn23 2.631258 1_565
Co13 Sn37 2.745566 1_555
Co13 Sn29 2.766504 1_555
Co13 Dy17 2.995800 1_555
Co13 Dy9 3.077370 1_555
Co13 Dy2 3.491536 1_565
Co14 Sn66 2.584167 1_555
Co14 Sn46 2.598815 1_554
Co14 Sn9 2.622445 1_555
Co14 Sn20 2.631258 1_555
Co14 Sn34 2.745566 1_555
Co14 Sn30 2.766504 1_554
Co14 Dy14 2.995800 1_554
Co14 Dy10 3.077370 1_555
Co14 Dy1 3.491536 1_565
Co15 Sn71 2.584167 1_655
Co15 Sn47 2.598815 1_554
Co15 Sn8 2.622445 1_555
Co15 Sn21 2.631258 1_655
Co15 Sn39 2.745566 1_655
Co15 Sn31 2.766504 1_554
Co15 Dy19 2.995800 1_654
Co15 Dy11 3.077370 1_555
Co15 Dy0 3.491536 1_655
Co16 Sn56 2.584167 1_555
Co16 Sn48 2.598815 1_555
Co16 Sn14 2.622445 1_555
Co16 Sn23 2.631258 1_555
Co16 Sn24 2.745566 1_555
Co16 Sn32 2.766504 1_555
Co16 Dy4 2.995800 1_555
Co16 Dy12 3.077370 1_555
Co16 Dy2 3.491536 1_555
Co17 Sn61 2.584167 1_555
Co17 Sn49 2.598815 1_455
Co17 Sn11 2.622445 1_455
Co17 Sn18 2.631258 1_455
Co17 Sn29 2.745566 1_555
Co17 Sn33 2.766504 1_555
Co17 Dy9 2.995800 1_555
Co17 Dy13 3.077370 1_555
Co17 Dy3 3.491536 1_455
Co18 Sn58 2.584167 1_555
Co18 Sn50 2.598815 1_556
Co18 Sn12 2.622445 1_556
Co18 Sn21 2.631258 1_556
Co18 Sn26 2.745566 1_555
Co18 Sn34 2.766504 1_556
Co18 Dy6 2.995800 1_556
Co18 Dy14 3.077370 1_555
Co18 Dy0 3.491536 1_556
Co19 Sn63 2.584167 1_555
Co19 Sn51 2.598815 1_566
Co19 Sn9 2.622445 1_556
Co19 Sn16 2.631258 1_566
Co19 Sn31 2.745566 1_565
Co19 Sn35 2.766504 1_556
Co19 Dy11 2.995800 1_566
Co19 Dy15 3.077370 1_555
Co19 Dy1 3.491536 1_566
Co20 Sn60 2.584167 1_655
Co20 Sn52 2.598815 1_555
Co20 Sn10 2.622445 1_655
Co20 Sn19 2.631258 1_655
Co20 Sn28 2.745566 1_555
Co20 Sn36 2.766504 1_555
Co20 Dy8 2.995800 1_555
Co20 Dy16 3.077370 1_555
Co20 Dy2 3.491536 1_655
Co21 Sn57 2.584167 1_555
Co21 Sn53 2.598815 1_555
Co21 Sn15 2.622445 1_555
Co21 Sn22 2.631258 1_555
Co21 Sn25 2.745566 1_555
Co21 Sn37 2.766504 1_555
Co21 Dy5 2.995800 1_555
Co21 Dy17 3.077370 1_555
Co21 Dy3 3.491536 1_555
Co22 Sn62 2.584167 1_555
Co22 Sn54 2.598815 1_556
Co22 Sn8 2.622445 1_556
Co22 Sn17 2.631258 1_556
Co22 Sn30 2.745566 1_555
Co22 Sn38 2.766504 1_556
Co22 Dy10 2.995800 1_556
Co22 Dy18 3.077370 1_555
Co22 Dy0 3.491536 1_656
Co23 Sn59 2.584167 1_545
Co23 Sn55 2.598815 1_556
Co23 Sn13 2.622445 1_556
Co23 Sn20 2.631258 1_546
Co23 Sn27 2.745566 1_545
Co23 Sn39 2.766504 1_556
Co23 Dy7 2.995800 1_546
Co23 Dy19 3.077370 1_555
Co23 Dy1 3.491536 1_556
Sn0 Sn40 3.157819 1_555
Sn0 Sn47 3.157819 1_555
Sn1 Sn46 3.157819 1_555
Sn1 Sn41 3.157819 1_555
Sn2 Sn45 3.157819 1_555
Sn2 Sn42 3.157819 1_555
Sn3 Sn43 3.157819 1_455
Sn3 Sn44 3.157819 1_455
Sn4 Sn48 3.157819 1_555
Sn4 Sn55 3.157819 1_555
Sn5 Sn54 3.157819 1_555
Sn10 Sn18 2.986208 1_445
Sn11 Sn19 2.986208 1_655
Sn12 Sn20 2.986208 1_555
Sn13 Sn21 2.986208 1_555
Sn14 Sn22 2.986208 1_555
Sn15 Sn23 2.986208 1_565
Sn16 Sn8 2.986208 1_555
Sn17 Sn9 2.986208 1_555
Sn49 Sn5 3.157819 1_555
Sn50 Sn6 3.157819 1_555
Sn51 Sn7 3.157819 1_545
Sn52 Sn7 3.157819 1_545
Sn53 Sn6 3.157819 1_555
Sn56 Sn62 3.000215 1_555
Sn57 Sn63 3.000215 1_555
Sn58 Sn60 3.000215 1_555
Sn59 Sn61 3.000215 1_555
Sn64 Sn70 3.000215 1_555
Sn65 Sn71 3.000215 1_555
Sn66 Sn68 3.000215 1_555
Sn67 Sn69 3.000215 1_555
