# generated using pymatgen
data_TaCr3(AgS4)2
_symmetry_space_group_name_H-M   'P 1'
_cell_length_a   7.23621600
_cell_length_b   7.33651100
_cell_length_c   10.29541000
_cell_angle_alpha   90.00000000
_cell_angle_beta   90.00000000
_cell_angle_gamma   90.00000000
_symmetry_Int_Tables_number   1
_chemical_formula_structural   TaCr3(AgS4)2
_chemical_formula_sum   'Ta2 Cr6 Ag4 S16'
_cell_volume   546.56867973
_cell_formula_units_Z   2
loop_
 _symmetry_equiv_pos_site_id
 _symmetry_equiv_pos_as_xyz
  1  'x, y, z'
loop_
 _atom_site_type_symbol
 _atom_site_label
 _atom_site_symmetry_multiplicity
 _atom_site_fract_x
 _atom_site_fract_y
 _atom_site_fract_z
 _atom_site_occupancy
  Ta  Ta0  1  0.50000000  0.79106500  0.25000000  1
  Ta  Ta1  1  0.50000000  0.20893500  0.75000000  1
  Cr  Cr0  1  0.73487600  0.00000000  0.50000000  1
  Cr  Cr1  1  0.74112100  0.50000000  0.50000000  1
  Cr  Cr2  1  0.25887900  0.50000000  0.00000000  1
  Cr  Cr3  1  0.00000000  0.75927300  0.25000000  1
  Cr  Cr4  1  0.26512400  0.00000000  0.00000000  1
  Cr  Cr5  1  0.00000000  0.24072700  0.75000000  1
  Ag  Ag0  1  0.77448700  0.71787900  0.88138300  1
  Ag  Ag1  1  0.22551300  0.28212100  0.38138300  1
  Ag  Ag2  1  0.22551300  0.71787900  0.61861700  1
  Ag  Ag3  1  0.77448700  0.28212100  0.11861700  1
  S  S0  1  0.75747500  0.99900800  0.26233800  1
  S  S1  1  0.51363800  0.74863500  0.48644000  1
  S  S2  1  0.74838500  0.54321500  0.26466600  1
  S  S3  1  0.48636200  0.25136500  0.98644000  1
  S  S4  1  0.25161500  0.54321500  0.23533400  1
  S  S5  1  0.04719900  0.75450700  0.01747900  1
  S  S6  1  0.24252500  0.99900800  0.23766200  1
  S  S7  1  0.48636200  0.74863500  0.01356000  1
  S  S8  1  0.25161500  0.45678500  0.76466600  1
  S  S9  1  0.04719900  0.24549300  0.98252100  1
  S  S10  1  0.24252500  0.00099200  0.76233800  1
  S  S11  1  0.95280100  0.75450700  0.48252100  1
  S  S12  1  0.75747500  0.00099200  0.73766200  1
  S  S13  1  0.51363800  0.25136500  0.51356000  1
  S  S14  1  0.74838500  0.45678500  0.73533400  1
  S  S15  1  0.95280100  0.24549300  0.51747900  1
loop_
_geom_bond_atom_site_label_1
_geom_bond_atom_site_label_2
_geom_bond_distance
_geom_bond_site_symmetry_2
Cr0 S11 2.400622 1_545
Cr0 S15 2.400622 1_555
Cr0 S1 2.446081 1_545
Cr0 S13 2.446081 1_555
Cr0 S0 2.452297 1_545
Cr0 S12 2.452297 1_555
Cr1 S11 2.421795 1_555
Cr1 S15 2.421795 1_555
Cr1 S2 2.444081 1_555
Cr1 S14 2.444081 1_555
Cr1 S13 2.461012 1_555
Cr1 S1 2.461012 1_555
Cr2 S5 2.421795 1_555
Cr2 S9 2.421795 1_554
Cr2 S4 2.444081 1_555
Cr2 S8 2.444081 1_554
Cr2 S3 2.461012 1_554
Cr2 S7 2.461012 1_555
Cr3 S11 2.418393 1_455
Cr3 S5 2.418393 1_555
Cr3 S4 2.418775 1_555
Cr3 S2 2.418775 1_455
Cr3 S0 2.487865 1_455
Cr3 S6 2.487865 1_555
Cr4 S5 2.400622 1_545
Cr4 S9 2.400622 1_554
Cr4 S3 2.446081 1_554
Cr4 S7 2.446081 1_545
Cr4 S10 2.452297 1_554
Cr4 S6 2.452297 1_545
Cr5 S15 2.418393 1_455
Cr5 S9 2.418393 1_555
Cr5 S8 2.418775 1_555
Cr5 S14 2.418775 1_455
Cr5 S12 2.487865 1_455
Cr5 S10 2.487865 1_555
Ag0 S5 2.435116 1_656
Ag0 S14 2.442500 1_555
Ag0 S7 2.499938 1_556
Ag0 S12 2.553185 1_565
Ag1 S15 2.435116 1_455
Ag1 S4 2.442500 1_555
Ag1 S13 2.499938 1_555
Ag1 S6 2.553185 1_545
Ag2 S11 2.435116 1_455
Ag2 S8 2.442500 1_555
Ag2 S1 2.499938 1_555
Ag2 S10 2.553185 1_565
Ag3 S9 2.435116 1_654
Ag3 S2 2.442500 1_555
Ag3 S3 2.499938 1_554
Ag3 S0 2.553185 1_545
S0 Ta0 2.411395 1_555
S1 Ta0 2.456053 1_555
S2 Ta0 2.561199 1_555
S3 Ta1 2.456053 1_555
S4 Ta0 2.561199 1_555
S6 Ta0 2.411395 1_555
S7 Ta0 2.456053 1_555
S8 Ta1 2.561199 1_555
S10 Ta1 2.411395 1_555
S12 Ta1 2.411395 1_555
S13 Ta1 2.456053 1_555
S14 Ta1 2.561199 1_555
