# generated using pymatgen
data_ZrCdH10C6O17
_symmetry_space_group_name_H-M   'P 1'
_cell_length_a   17.12553900
_cell_length_b   9.04145900
_cell_length_c   10.08891199
_cell_angle_alpha   74.17343566
_cell_angle_beta   90.00000000
_cell_angle_gamma   90.00000000
_symmetry_Int_Tables_number   1
_chemical_formula_structural   ZrCdH10C6O17
_chemical_formula_sum   'Zr4 Cd4 H40 C24 O68'
_cell_volume   1502.94658541
_cell_formula_units_Z   4
loop_
 _symmetry_equiv_pos_site_id
 _symmetry_equiv_pos_as_xyz
  1  'x, y, z'
loop_
 _atom_site_type_symbol
 _atom_site_label
 _atom_site_symmetry_multiplicity
 _atom_site_fract_x
 _atom_site_fract_y
 _atom_site_fract_z
 _atom_site_occupancy
  Zr  Zr0  1  0.40460100  0.80775600  0.88710700  1
  Zr  Zr1  1  0.90460100  0.19224400  0.61289300  1
  Zr  Zr2  1  0.59539900  0.19224400  0.11289300  1
  Zr  Zr3  1  0.09539900  0.80775600  0.38710700  1
  Cd  Cd0  1  0.38168000  0.44383800  0.47865500  1
  Cd  Cd1  1  0.88168000  0.55616200  0.02134500  1
  Cd  Cd2  1  0.61832000  0.55616200  0.52134500  1
  Cd  Cd3  1  0.11832000  0.44383800  0.97865500  1
  H  H0  1  0.44713800  0.11372700  0.01556800  1
  H  H1  1  0.94713800  0.88627300  0.48443200  1
  H  H2  1  0.55286200  0.88627300  0.98443200  1
  H  H3  1  0.05286200  0.11372700  0.51556800  1
  H  H4  1  0.43567900  0.11146300  0.17568800  1
  H  H5  1  0.93567900  0.88853700  0.32431200  1
  H  H6  1  0.56432100  0.88853700  0.82431200  1
  H  H7  1  0.06432100  0.11146300  0.67568800  1
  H  H8  1  0.20158000  0.42394300  0.49704000  1
  H  H9  1  0.70158000  0.57605700  0.00296000  1
  H  H10  1  0.79842000  0.57605700  0.50296000  1
  H  H11  1  0.29842000  0.42394300  0.99704000  1
  H  H12  1  0.22588100  0.35626900  0.37659200  1
  H  H13  1  0.72588100  0.64373100  0.12340800  1
  H  H14  1  0.77411900  0.64373100  0.62340800  1
  H  H15  1  0.27411900  0.35626900  0.87659200  1
  H  H16  1  0.24820500  0.76433300  0.98523100  1
  H  H17  1  0.74820500  0.23566700  0.51476900  1
  H  H18  1  0.75179500  0.23566700  0.01476900  1
  H  H19  1  0.25179500  0.76433300  0.48523100  1
  H  H20  1  0.27527500  0.92690600  0.00866700  1
  H  H21  1  0.77527500  0.07309400  0.49133300  1
  H  H22  1  0.72472500  0.07309400  0.99133300  1
  H  H23  1  0.22472500  0.92690600  0.50866700  1
  H  H24  1  0.29348600  0.02033300  0.19317300  1
  H  H25  1  0.79348600  0.97966700  0.30682700  1
  H  H26  1  0.70651400  0.97966700  0.80682700  1
  H  H27  1  0.20651400  0.02033300  0.69317300  1
  H  H28  1  0.26685900  0.15012100  0.06379200  1
  H  H29  1  0.76685900  0.84987900  0.43620800  1
  H  H30  1  0.73314100  0.84987900  0.93620800  1
  H  H31  1  0.23314100  0.15012100  0.56379200  1
  H  H32  1  0.60347100  0.92124100  0.61503200  1
  H  H33  1  0.10347100  0.07875900  0.88496800  1
  H  H34  1  0.39652900  0.07875900  0.38496800  1
  H  H35  1  0.89652900  0.92124100  0.11503200  1
  H  H36  1  0.60227600  0.08105100  0.65383900  1
  H  H37  1  0.10227600  0.91894900  0.84616100  1
  H  H38  1  0.39772400  0.91894900  0.34616100  1
  H  H39  1  0.89772400  0.08105100  0.15383900  1
  C  C0  1  0.56180800  0.38578300  0.30922300  1
  C  C1  1  0.06180800  0.61421700  0.19077700  1
  C  C2  1  0.43819200  0.61421700  0.69077700  1
  C  C3  1  0.93819200  0.38578300  0.80922300  1
  C  C4  1  0.65055600  0.35262300  0.32365200  1
  C  C5  1  0.15055600  0.64737700  0.17634800  1
  C  C6  1  0.34944400  0.64737700  0.67634800  1
  C  C7  1  0.84944400  0.35262300  0.82365200  1
  C  C8  1  0.40413500  0.69995300  0.20140100  1
  C  C9  1  0.90413500  0.30004700  0.29859900  1
  C  C10  1  0.59586500  0.30004700  0.79859900  1
  C  C11  1  0.09586500  0.69995300  0.70140100  1
  C  C12  1  0.37724100  0.55577700  0.15903000  1
  C  C13  1  0.87724100  0.44422300  0.34097000  1
  C  C14  1  0.62275900  0.44422300  0.84097000  1
  C  C15  1  0.12275900  0.55577700  0.65903000  1
  C  C16  1  0.88818400  0.84186000  0.74169900  1
  C  C17  1  0.38818400  0.15814000  0.75830100  1
  C  C18  1  0.11181600  0.15814000  0.25830100  1
  C  C19  1  0.61181600  0.84186000  0.24169900  1
  C  C20  1  0.40812500  0.09336000  0.63578500  1
  C  C21  1  0.90812500  0.90664000  0.86421500  1
  C  C22  1  0.59187500  0.90664000  0.36421500  1
  C  C23  1  0.09187500  0.09336000  0.13578500  1
  O  O0  1  0.52852400  0.44934300  0.38954500  1
  O  O1  1  0.02852400  0.55065700  0.11045500  1
  O  O2  1  0.47147600  0.55065700  0.61045500  1
  O  O3  1  0.97147600  0.44934300  0.88954500  1
  O  O4  1  0.47081100  0.65886700  0.78691300  1
  O  O5  1  0.97081100  0.34113300  0.71308700  1
  O  O6  1  0.52918900  0.34113300  0.21308700  1
  O  O7  1  0.02918900  0.65886700  0.28691300  1
  O  O8  1  0.32121600  0.71289600  0.76258300  1
  O  O9  1  0.82121600  0.28710400  0.73741700  1
  O  O10  1  0.67878400  0.28710400  0.23741700  1
  O  O11  1  0.17878400  0.71289600  0.26258300  1
  O  O12  1  0.31131800  0.61268900  0.58231400  1
  O  O13  1  0.81131800  0.38731100  0.91768600  1
  O  O14  1  0.68868200  0.38731100  0.41768600  1
  O  O15  1  0.18868200  0.61268900  0.08231400  1
  O  O16  1  0.92412900  0.18567900  0.39928800  1
  O  O17  1  0.42412900  0.81432100  0.10071200  1
  O  O18  1  0.07587100  0.81432100  0.60071200  1
  O  O19  1  0.57587100  0.18567900  0.89928800  1
  O  O20  1  0.90318200  0.29999900  0.17484000  1
  O  O21  1  0.40318200  0.70000100  0.32516000  1
  O  O22  1  0.09681800  0.70000100  0.82516000  1
  O  O23  1  0.59681800  0.29999900  0.67484000  1
  O  O24  1  0.37553100  0.57447700  0.02745500  1
  O  O25  1  0.87553100  0.42552300  0.47254500  1
  O  O26  1  0.62446900  0.42552300  0.97254500  1
  O  O27  1  0.12446900  0.57447700  0.52745500  1
  O  O28  1  0.85720100  0.56250700  0.25168300  1
  O  O29  1  0.35720100  0.43749300  0.24831700  1
  O  O30  1  0.14279900  0.43749300  0.74831700  1
  O  O31  1  0.64279900  0.56250700  0.75168300  1
  O  O32  1  0.89617600  0.94177500  0.62302000  1
  O  O33  1  0.39617600  0.05822500  0.87698000  1
  O  O34  1  0.10382400  0.05822500  0.37698000  1
  O  O35  1  0.60382400  0.94177500  0.12302000  1
  O  O36  1  0.36663200  0.29372400  0.73758100  1
  O  O37  1  0.86663200  0.70627600  0.76241900  1
  O  O38  1  0.63336800  0.70627600  0.26241900  1
  O  O39  1  0.13336800  0.29372400  0.23758100  1
  O  O40  1  0.41013000  0.18096500  0.51513400  1
  O  O41  1  0.91013000  0.81903500  0.98486600  1
  O  O42  1  0.58987000  0.81903500  0.48486600  1
  O  O43  1  0.08987000  0.18096500  0.01513400  1
  O  O44  1  0.57787600  0.05057700  0.33124100  1
  O  O45  1  0.07787600  0.94942300  0.16875900  1
  O  O46  1  0.42212400  0.94942300  0.66875900  1
  O  O47  1  0.92212400  0.05057700  0.83124100  1
  O  O48  1  0.46905900  0.15291000  0.09018900  1
  O  O49  1  0.96905900  0.84709000  0.40981100  1
  O  O50  1  0.53094100  0.84709000  0.90981100  1
  O  O51  1  0.03094100  0.15291000  0.59018900  1
  O  O52  1  0.24109200  0.35812100  0.46978000  1
  O  O53  1  0.74109200  0.64187900  0.03022000  1
  O  O54  1  0.75890800  0.64187900  0.53022000  1
  O  O55  1  0.25890800  0.35812100  0.96978000  1
  O  O56  1  0.28287600  0.85425700  0.94849800  1
  O  O57  1  0.78287600  0.14574300  0.55150200  1
  O  O58  1  0.71712400  0.14574300  0.05150200  1
  O  O59  1  0.21712400  0.85425700  0.44849800  1
  O  O60  1  0.26042800  0.03946800  0.11047000  1
  O  O61  1  0.76042800  0.96053200  0.38953000  1
  O  O62  1  0.73957200  0.96053200  0.88953000  1
  O  O63  1  0.23957200  0.03946800  0.61047000  1
  O  O64  1  0.61516900  0.97134500  0.68900600  1
  O  O65  1  0.11516900  0.02865500  0.81099400  1
  O  O66  1  0.38483100  0.02865500  0.31099400  1
  O  O67  1  0.88483100  0.97134500  0.18900600  1
loop_
_geom_bond_atom_site_label_1
_geom_bond_atom_site_label_2
_geom_bond_distance
_geom_bond_site_symmetry_2
Cd0 O40 2.354714 1_555
Cd0 O29 2.377409 1_555
Cd0 O12 2.397344 1_555
Cd0 O2 2.401303 1_555
Cd0 O21 2.437548 1_555
Cd0 O52 2.538358 1_555
Cd0 O36 2.607420 1_555
Cd0 O0 2.666542 1_555
Cd1 O41 2.354714 1_554
Cd1 O28 2.377409 1_555
Cd1 O13 2.397344 1_554
Cd1 O3 2.401303 1_554
Cd1 O20 2.437548 1_555
Cd1 O53 2.538358 1_555
Cd1 O37 2.607420 1_554
Cd1 O1 2.666542 1_655
Cd2 O42 2.354714 1_555
Cd2 O31 2.377409 1_555
Cd2 O14 2.397344 1_555
Cd2 O0 2.401303 1_555
Cd2 O23 2.437548 1_555
Cd2 O54 2.538358 1_555
Cd2 O38 2.607420 1_555
Cd2 O2 2.666542 1_555
Cd3 O43 2.354714 1_556
Cd3 O30 2.377409 1_555
Cd3 O15 2.397344 1_556
Cd3 O1 2.401303 1_556
Cd3 O22 2.437548 1_555
Cd3 O55 2.538358 1_555
Cd3 O39 2.607420 1_556
Cd3 O3 2.666542 1_455
H0 O48 0.989290 1_555
H1 O49 0.989290 1_555
H2 O50 0.989290 1_555
H3 O51 0.989290 1_555
H4 O48 1.017331 1_555
H4 O66 1.620137 1_555
H5 O49 1.017331 1_555
H5 O67 1.620137 1_555
H6 O50 1.017331 1_555
H6 O64 1.620137 1_555
H7 O51 1.017331 1_555
H7 O65 1.620137 1_555
H8 O52 0.988415 1_555
H9 O53 0.988415 1_555
H10 O54 0.988415 1_555
H11 O55 0.988415 1_555
H12 O52 0.980121 1_555
H13 O53 0.980121 1_555
H14 O54 0.980121 1_555
H15 O55 0.980121 1_555
H16 O56 0.993268 1_555
H17 O57 0.993268 1_555
H18 O58 0.993268 1_555
H19 O59 0.993268 1_555
H20 O56 1.017049 1_554
H21 O57 1.017049 1_555
H22 O58 1.017049 1_556
H23 O59 1.017049 1_555
H24 O60 0.983818 1_555
H25 O61 0.983818 1_555
H26 O62 0.983818 1_555
H27 O63 0.983818 1_555
H28 O60 0.988860 1_555
H29 O61 0.988860 1_555
H30 O62 0.988860 1_555
H31 O63 0.988860 1_555
H32 O64 0.993357 1_555
H33 O65 0.993357 1_555
H34 O66 0.993357 1_555
H35 O67 0.993357 1_555
H36 O64 0.983131 1_545
H37 O65 0.983131 1_565
H38 O66 0.983131 1_565
H39 O67 0.983131 1_545
C0 O0 1.251343 1_555
C0 O6 1.276449 1_555
C1 O1 1.251343 1_555
C1 O7 1.276449 1_555
C2 O2 1.251343 1_555
C2 O4 1.276449 1_555
C3 O3 1.251343 1_555
C3 O5 1.276449 1_555
C4 O14 1.259765 1_555
C4 O10 1.273839 1_555
C5 O15 1.259765 1_555
C5 O11 1.273839 1_555
C6 O12 1.259765 1_555
C6 O8 1.273839 1_555
C7 O13 1.259765 1_555
C7 O9 1.273839 1_555
C8 O21 1.248819 1_555
C8 O17 1.282764 1_555
C9 O20 1.248819 1_555
C9 O16 1.282764 1_555
C10 O23 1.248819 1_555
C10 O19 1.282764 1_555
C11 O22 1.248819 1_555
C11 O18 1.282764 1_555
C12 O29 1.243988 1_555
C12 O24 1.291953 1_555
C13 O28 1.243988 1_555
C13 O25 1.291953 1_555
C14 O31 1.243988 1_555
C14 O26 1.291953 1_555
C15 O30 1.243988 1_555
C15 O27 1.291953 1_555
C16 O37 1.242144 1_555
C16 O32 1.295554 1_555
C17 O36 1.242144 1_555
C17 O33 1.295554 1_555
C18 O39 1.242144 1_555
C18 O34 1.295554 1_555
C19 O38 1.242144 1_555
C19 O35 1.295554 1_555
C20 O40 1.258704 1_555
C20 O46 1.275006 1_545
C21 O41 1.258704 1_555
C21 O47 1.275006 1_565
C22 O42 1.258704 1_555
C22 O44 1.275006 1_565
C23 O43 1.258704 1_555
C23 O45 1.275006 1_545
O4 Zr0 2.204978 1_555
O5 Zr1 2.204978 1_555
O6 Zr2 2.204978 1_555
O7 Zr3 2.204978 1_555
O8 Zr0 2.222807 1_555
O9 Zr1 2.222807 1_555
O10 Zr2 2.222807 1_555
O11 Zr3 2.222807 1_555
O16 Zr1 2.197577 1_555
O17 Zr0 2.197577 1_554
O18 Zr3 2.197577 1_555
O19 Zr2 2.197577 1_556
O24 Zr0 2.252206 1_554
O25 Zr1 2.252206 1_555
O26 Zr2 2.252206 1_556
O27 Zr3 2.252206 1_555
O32 Zr1 2.243544 1_565
O33 Zr0 2.243544 1_545
O34 Zr3 2.243544 1_545
O35 Zr2 2.243544 1_565
O44 Zr2 2.245968 1_555
O45 Zr3 2.245968 1_555
O46 Zr0 2.245968 1_555
O47 Zr1 2.245968 1_555
O48 Zr2 2.214660 1_555
O49 Zr3 2.214660 1_655
O50 Zr0 2.214660 1_555
O51 Zr1 2.214660 1_455
O56 Zr0 2.246777 1_555
O57 Zr1 2.246777 1_555
O58 Zr2 2.246777 1_555
O59 Zr3 2.246777 1_555
