# generated using pymatgen
data_SrMnPF
_symmetry_space_group_name_H-M   'P 1'
_cell_length_a   4.17743000
_cell_length_b   4.17743000
_cell_length_c   9.12236800
_cell_angle_alpha   90.00000000
_cell_angle_beta   90.00000000
_cell_angle_gamma   90.00000000
_symmetry_Int_Tables_number   1
_chemical_formula_structural   SrMnPF
_chemical_formula_sum   'Sr2 Mn2 P2 F2'
_cell_volume   159.19372699
_cell_formula_units_Z   2
loop_
 _symmetry_equiv_pos_site_id
 _symmetry_equiv_pos_as_xyz
  1  'x, y, z'
loop_
 _atom_site_type_symbol
 _atom_site_label
 _atom_site_symmetry_multiplicity
 _atom_site_fract_x
 _atom_site_fract_y
 _atom_site_fract_z
 _atom_site_occupancy
  Sr  Sr0  1  0.00000000  0.50000000  0.84750000  1
  Sr  Sr1  1  0.50000000  0.00000000  0.15250000  1
  Mn  Mn0  1  0.50000000  0.50000000  0.50000000  1
  Mn  Mn1  1  0.00000000  0.00000000  0.50000000  1
  P  P0  1  0.00000000  0.50000000  0.33457000  1
  P  P1  1  0.50000000  0.00000000  0.66543000  1
  F  F0  1  0.50000000  0.50000000  0.00000000  1
  F  F1  1  0.00000000  0.00000000  0.00000000  1
loop_
_geom_bond_atom_site_label_1
_geom_bond_atom_site_label_2
_geom_bond_distance
_geom_bond_site_symmetry_2
Mn0 P0 2.576850 1_555
Mn0 P0 2.576850 1_655
Mn0 P1 2.576850 1_565
Mn0 P1 2.576850 1_555
Mn1 P0 2.576850 1_545
Mn1 P0 2.576850 1_555
Mn1 P1 2.576850 1_555
Mn1 P1 2.576850 1_455
P0 Sr1 3.388817 1_555
P0 Sr1 3.388817 1_565
P0 Sr1 3.388817 1_465
P0 Sr1 3.388817 1_455
P1 Sr0 3.388817 1_555
P1 Sr0 3.388817 1_645
P1 Sr0 3.388817 1_655
P1 Sr0 3.388817 1_545
F0 Sr0 2.509594 1_654
F0 Sr0 2.509594 1_554
F0 Sr1 2.509594 1_555
F0 Sr1 2.509594 1_565
F1 Sr0 2.509594 1_544
F1 Sr0 2.509594 1_554
F1 Sr1 2.509594 1_555
F1 Sr1 2.509594 1_455
