# generated using pymatgen
data_Eu5Ta4O15
_symmetry_space_group_name_H-M   'P 1'
_cell_length_a   5.70211660
_cell_length_b   5.70211660
_cell_length_c   11.53694400
_cell_angle_alpha   90.00000000
_cell_angle_beta   90.00000000
_cell_angle_gamma   120.00000692
_symmetry_Int_Tables_number   1
_chemical_formula_structural   Eu5Ta4O15
_chemical_formula_sum   'Eu5 Ta4 O15'
_cell_volume   324.85800503
_cell_formula_units_Z   1
loop_
 _symmetry_equiv_pos_site_id
 _symmetry_equiv_pos_as_xyz
  1  'x, y, z'
loop_
 _atom_site_type_symbol
 _atom_site_label
 _atom_site_symmetry_multiplicity
 _atom_site_fract_x
 _atom_site_fract_y
 _atom_site_fract_z
 _atom_site_occupancy
  Eu  Eu0  1  0.00000000  0.00000000  0.00000000  1
  Eu  Eu1  1  0.66666700  0.33333300  0.23097800  1
  Eu  Eu2  1  0.33333300  0.66666700  0.76902200  1
  Eu  Eu3  1  0.66666700  0.33333300  0.56138500  1
  Eu  Eu4  1  0.33333300  0.66666700  0.43861500  1
  Ta  Ta0  1  0.66666700  0.33333300  0.89552000  1
  Ta  Ta1  1  0.33333300  0.66666700  0.10448000  1
  Ta  Ta2  1  0.00000000  0.00000000  0.68045500  1
  Ta  Ta3  1  0.00000000  0.00000000  0.31954500  1
  O  O0  1  0.50000000  0.00000000  0.00000000  1
  O  O1  1  0.50000000  0.50000000  0.00000000  1
  O  O2  1  0.00000000  0.50000000  0.00000000  1
  O  O3  1  0.32938600  0.16469300  0.80264800  1
  O  O4  1  0.83530700  0.67061400  0.80264800  1
  O  O5  1  0.83530700  0.16469300  0.80264800  1
  O  O6  1  0.67061400  0.83530700  0.19735200  1
  O  O7  1  0.16469300  0.32938600  0.19735200  1
  O  O8  1  0.16469300  0.83530700  0.19735200  1
  O  O9  1  0.34063400  0.17031700  0.39566200  1
  O  O10  1  0.82968300  0.65936600  0.39566200  1
  O  O11  1  0.82968300  0.17031700  0.39566200  1
  O  O12  1  0.65936600  0.82968300  0.60433800  1
  O  O13  1  0.17031700  0.34063400  0.60433800  1
  O  O14  1  0.17031700  0.82968300  0.60433800  1
loop_
_geom_bond_atom_site_label_1
_geom_bond_atom_site_label_2
_geom_bond_distance
_geom_bond_site_symmetry_2
Eu0 O7 2.798163 1_555
Eu0 O6 2.798163 1_445
Eu0 O3 2.798163 1_554
Eu0 O4 2.798163 1_444
Eu0 O8 2.798163 1_545
Eu0 O5 2.798163 1_454
Eu0 O1 2.851058 1_555
Eu0 O1 2.851058 1_445
Eu0 O2 2.851058 1_555
Eu0 O0 2.851058 1_455
Eu0 O0 2.851058 1_555
Eu0 O2 2.851058 1_545
Eu1 O11 2.490366 1_555
Eu1 O10 2.490369 1_555
Eu1 O9 2.490369 1_555
Eu1 O7 2.877394 1_655
Eu1 O6 2.877394 1_545
Eu1 O8 2.877396 1_655
Eu1 O8 2.877396 1_545
Eu1 O6 2.877400 1_555
Eu1 O7 2.877400 1_555
Eu1 O2 3.132181 1_655
Eu1 O0 3.132181 1_555
Eu1 O1 3.132184 1_555
Eu2 O14 2.490366 1_555
Eu2 O13 2.490369 1_555
Eu2 O12 2.490369 1_555
Eu2 O3 2.877394 1_565
Eu2 O4 2.877394 1_455
Eu2 O5 2.877396 1_565
Eu2 O5 2.877396 1_455
Eu2 O4 2.877400 1_555
Eu2 O3 2.877400 1_555
Eu2 O0 3.132181 1_566
Eu2 O2 3.132181 1_556
Eu2 O1 3.132184 1_556
Eu3 O11 2.499523 1_555
Eu3 O9 2.499526 1_555
Eu3 O10 2.499526 1_555
Eu3 O12 2.894025 1_545
Eu3 O13 2.894025 1_655
Eu3 O14 2.894028 1_655
Eu3 O14 2.894028 1_545
Eu3 O12 2.894031 1_555
Eu3 O13 2.894031 1_555
Eu3 O5 3.243698 1_555
Eu3 O4 3.243701 1_555
Eu3 O3 3.243701 1_555
Eu4 O14 2.499523 1_555
Eu4 O12 2.499526 1_555
Eu4 O13 2.499526 1_555
Eu4 O9 2.894025 1_565
Eu4 O10 2.894025 1_455
Eu4 O11 2.894028 1_565
Eu4 O11 2.894028 1_455
Eu4 O9 2.894031 1_555
Eu4 O10 2.894031 1_555
Eu4 O8 3.243698 1_555
Eu4 O6 3.243701 1_555
Eu4 O7 3.243701 1_555
O0 Ta0 2.040207 1_554
O0 Ta1 2.040207 1_545
O1 Ta0 2.040211 1_554
O1 Ta1 2.040211 1_555
O2 Ta0 2.040207 1_454
O2 Ta1 2.040207 1_555
O3 Ta0 1.980427 1_555
O3 Ta2 2.152456 1_555
O4 Ta0 1.980427 1_555
O4 Ta2 2.152456 1_665
O5 Ta0 1.980423 1_555
O5 Ta2 2.152456 1_655
O6 Ta1 1.980427 1_555
O6 Ta3 2.152456 1_665
O7 Ta1 1.980427 1_555
O7 Ta3 2.152456 1_555
O8 Ta1 1.980423 1_555
O8 Ta3 2.152456 1_565
O9 Ta3 1.897540 1_555
O10 Ta3 1.897540 1_665
O11 Ta3 1.897540 1_655
O12 Ta2 1.897540 1_665
O13 Ta2 1.897540 1_555
O14 Ta2 1.897540 1_565
