# generated using pymatgen
data_Ho6N8O33
_symmetry_space_group_name_H-M   'P 1'
_cell_length_a   9.21219100
_cell_length_b   10.20532533
_cell_length_c   10.23339272
_cell_angle_alpha   115.72437756
_cell_angle_beta   91.52893969
_cell_angle_gamma   112.91274752
_symmetry_Int_Tables_number   1
_chemical_formula_structural   Ho6N8O33
_chemical_formula_sum   'Ho6 N8 O33'
_cell_volume   775.82987692
_cell_formula_units_Z   1
loop_
 _symmetry_equiv_pos_site_id
 _symmetry_equiv_pos_as_xyz
  1  'x, y, z'
loop_
 _atom_site_type_symbol
 _atom_site_label
 _atom_site_symmetry_multiplicity
 _atom_site_fract_x
 _atom_site_fract_y
 _atom_site_fract_z
 _atom_site_occupancy
  Ho  Ho0  1  0.83982300  0.91665100  0.68587500  1
  Ho  Ho1  1  0.16017700  0.08334900  0.31412500  1
  Ho  Ho2  1  0.81419300  0.78833900  0.41493700  1
  Ho  Ho3  1  0.18580700  0.21166100  0.58506300  1
  Ho  Ho4  1  0.16316400  0.81576000  0.69011900  1
  Ho  Ho5  1  0.83683600  0.18424000  0.30988100  1
  N  N0  1  0.35504100  0.71679700  0.14197800  1
  N  N1  1  0.64495900  0.28320300  0.85802200  1
  N  N2  1  0.58011200  0.88077500  0.78813600  1
  N  N3  1  0.41988800  0.11922500  0.21186400  1
  N  N4  1  0.83736200  0.52269300  0.14178600  1
  N  N5  1  0.16263800  0.47730700  0.85821400  1
  N  N6  1  0.68202100  0.47099700  0.45127400  1
  N  N7  1  0.31797900  0.52900300  0.54872600  1
  O  O0  1  0.88330300  0.73153400  0.65687500  1
  O  O1  1  0.11669700  0.26846600  0.34312500  1
  O  O2  1  0.45347100  0.87483000  0.81036400  1
  O  O3  1  0.54652900  0.12517000  0.18963600  1
  O  O4  1  0.62034600  0.33065300  0.48261900  1
  O  O5  1  0.37965400  0.66934700  0.51738100  1
  O  O6  1  0.35966600  0.62641000  0.09955400  1
  O  O7  1  0.64033400  0.37359000  0.90044600  1
  O  O8  1  0.10924200  0.96253800  0.75874500  1
  O  O9  1  0.89075800  0.03746200  0.24125500  1
  O  O10  1  0.91832200  0.17141200  0.53551600  1
  O  O11  1  0.08167800  0.82858800  0.46448400  1
  O  O12  1  0.59842200  0.76346900  0.78773700  1
  O  O13  1  0.40157800  0.23653100  0.21226300  1
  O  O14  1  0.83602900  0.52830100  0.47486500  1
  O  O15  1  0.16397100  0.47169900  0.52513500  1
  O  O16  1  0.71260900  0.92525200  0.45997300  1
  O  O17  1  0.28739100  0.07474800  0.54002700  1
  O  O18  1  0.22718000  0.70097400  0.16864600  1
  O  O19  1  0.77282000  0.29902600  0.83135400  1
  O  O20  1  0.30533900  0.99407100  0.23654700  1
  O  O21  1  0.69466100  0.00592900  0.76345300  1
  O  O22  1  0.00000000  0.00000000  0.50000000  1
  O  O23  1  0.47701000  0.82380400  0.15653900  1
  O  O24  1  0.52299000  0.17619600  0.84346100  1
  O  O25  1  0.91703100  0.46721300  0.11345500  1
  O  O26  1  0.08296900  0.53278700  0.88654500  1
  O  O27  1  0.84211400  0.66620500  0.08002900  1
  O  O28  1  0.15788600  0.33379500  0.91997100  1
  O  O29  1  0.59519700  0.57310800  0.39259100  1
  O  O30  1  0.40480300  0.42689200  0.60740900  1
  O  O31  1  0.75258800  0.42130900  0.23790600  1
  O  O32  1  0.24741200  0.57869100  0.76209400  1
loop_
_geom_bond_atom_site_label_1
_geom_bond_atom_site_label_2
_geom_bond_distance
_geom_bond_site_symmetry_2
Ho0 O21 1.904233 1_565
Ho0 O0 1.981508 1_555
Ho0 O8 2.372442 1_655
Ho1 O20 1.904233 1_545
Ho1 O1 1.981508 1_555
Ho1 O9 2.372442 1_455
Ho2 O16 1.876854 1_555
Ho2 O22 1.939784 1_665
Ho2 O29 2.244068 1_555
Ho2 O11 2.337118 1_655
Ho3 O17 1.876854 1_555
Ho3 O22 1.939784 1_555
Ho3 O30 2.244068 1_555
Ho3 O10 2.337118 1_455
Ho4 O8 1.633558 1_555
Ho4 O11 2.481653 1_555
Ho4 O2 2.637215 1_555
Ho5 O9 1.633558 1_555
Ho5 O10 2.481653 1_555
Ho5 O3 2.637215 1_555
N0 O6 0.851540 1_555
N0 O23 1.171161 1_555
N0 O18 1.181211 1_555
N1 O7 0.851540 1_555
N1 O24 1.171161 1_555
N1 O19 1.181211 1_555
N2 O2 1.177922 1_555
N2 O12 1.270690 1_555
N2 O21 1.433001 1_565
N3 O3 1.177922 1_555
N3 O13 1.270690 1_555
N3 O20 1.433001 1_545
N4 O25 1.065691 1_555
N4 O31 1.715585 1_555
N4 O27 1.816971 1_555
N5 O26 1.065691 1_555
N5 O32 1.715585 1_555
N5 O28 1.816971 1_555
N6 O14 1.275246 1_555
N6 O4 1.500653 1_555
N6 O29 1.803583 1_555
N7 O15 1.275246 1_555
N7 O5 1.500653 1_555
N7 O30 1.803583 1_555
