# generated using pymatgen
data_Rb2As2Se6O
_symmetry_space_group_name_H-M   'P 1'
_cell_length_a   11.69505063
_cell_length_b   11.69505063
_cell_length_c   12.23817008
_cell_angle_alpha   59.86683484
_cell_angle_beta   59.86683484
_cell_angle_gamma   28.19607112
_symmetry_Int_Tables_number   1
_chemical_formula_structural   Rb2As2Se6O
_chemical_formula_sum   'Rb4 As4 Se12 O2'
_cell_volume   676.69894713
_cell_formula_units_Z   2
loop_
 _symmetry_equiv_pos_site_id
 _symmetry_equiv_pos_as_xyz
  1  'x, y, z'
loop_
 _atom_site_type_symbol
 _atom_site_label
 _atom_site_symmetry_multiplicity
 _atom_site_fract_x
 _atom_site_fract_y
 _atom_site_fract_z
 _atom_site_occupancy
  Rb  Rb0  1  0.56271300  0.59499100  0.55128500  1
  Rb  Rb1  1  0.40500900  0.43728700  0.94871500  1
  Rb  Rb2  1  0.43728700  0.40500900  0.44871500  1
  Rb  Rb3  1  0.59499100  0.56271300  0.05128500  1
  As  As0  1  0.14012100  0.22055400  0.21469300  1
  As  As1  1  0.77944600  0.85987900  0.28530700  1
  As  As2  1  0.85987900  0.77944600  0.78530700  1
  As  As3  1  0.22055400  0.14012100  0.71469300  1
  Se  Se0  1  0.71738900  0.65223600  0.18656600  1
  Se  Se1  1  0.34776400  0.28261100  0.31343400  1
  Se  Se2  1  0.28261100  0.34776400  0.81343400  1
  Se  Se3  1  0.65223600  0.71738900  0.68656600  1
  Se  Se4  1  0.17479900  0.21031200  0.40476200  1
  Se  Se5  1  0.78968800  0.82520100  0.09523800  1
  Se  Se6  1  0.82520100  0.78968800  0.59523800  1
  Se  Se7  1  0.21031200  0.17479900  0.90476200  1
  Se  Se8  1  0.03406300  0.07604100  0.32257200  1
  Se  Se9  1  0.92395900  0.96593700  0.17742800  1
  Se  Se10  1  0.96593700  0.92395900  0.67742800  1
  Se  Se11  1  0.07604100  0.03406300  0.82257200  1
  O  O0  1  0.87685200  0.12314800  0.75000000  1
  O  O1  1  0.12314800  0.87685200  0.25000000  1
loop_
_geom_bond_atom_site_label_1
_geom_bond_atom_site_label_2
_geom_bond_distance
_geom_bond_site_symmetry_2
Rb0 Se3 3.556357 1_555
Rb0 Se4 3.625386 1_655
Rb0 Se4 3.639840 1_565
Rb0 Se0 3.830275 1_555
Rb1 Se2 3.556357 1_555
Rb1 Se5 3.625386 1_546
Rb1 Se5 3.639840 1_456
Rb1 Se1 3.830275 1_556
Rb2 Se1 3.556357 1_555
Rb2 Se6 3.625386 1_455
Rb2 Se6 3.639840 1_545
Rb2 Se2 3.830275 1_555
Rb3 Se0 3.556357 1_555
Rb3 Se7 3.625386 1_564
Rb3 Se7 3.639840 1_654
Rb3 Se3 3.830275 1_554
As0 Se8 2.438966 1_555
As0 Se0 2.452923 1_455
As0 Se4 2.484221 1_555
As1 Se9 2.438966 1_555
As1 Se1 2.452923 1_565
As1 Se5 2.484221 1_555
As2 Se10 2.438966 1_555
As2 Se2 2.452923 1_655
As2 Se6 2.484221 1_555
As3 Se11 2.438966 1_555
As3 Se3 2.452923 1_545
As3 Se7 2.484221 1_555
Se0 Se5 2.419097 1_555
Se1 Se4 2.419097 1_555
Se2 Se7 2.419097 1_555
Se3 Se6 2.419097 1_555
O0 Se11 2.042340 1_655
O0 Se10 2.042340 1_545
O0 Rb0 3.102240 1_555
O0 Rb1 3.102240 1_555
O1 Se8 2.042340 1_565
O1 Se9 2.042340 1_455
O1 Rb3 3.102240 1_555
O1 Rb2 3.102240 1_555
