# generated using pymatgen
data_HfGeRh
_symmetry_space_group_name_H-M   'P 1'
_cell_length_a   3.96154926
_cell_length_b   6.54131919
_cell_length_c   7.54955343
_cell_angle_alpha   89.99962661
_cell_angle_beta   90.00000059
_cell_angle_gamma   89.99999991
_symmetry_Int_Tables_number   1
_chemical_formula_structural   HfGeRh
_chemical_formula_sum   'Hf4 Ge4 Rh4'
_cell_volume   195.63730208
_cell_formula_units_Z   4
loop_
 _symmetry_equiv_pos_site_id
 _symmetry_equiv_pos_as_xyz
  1  'x, y, z'
loop_
 _atom_site_type_symbol
 _atom_site_label
 _atom_site_symmetry_multiplicity
 _atom_site_fract_x
 _atom_site_fract_y
 _atom_site_fract_z
 _atom_site_occupancy
  Hf  Hf0  1  0.75000000  0.47582456  0.19177765  1
  Hf  Hf1  1  0.75000000  0.97588842  0.30813309  1
  Hf  Hf2  1  0.24999999  0.52415452  0.80823687  1
  Hf  Hf3  1  0.25000000  0.02412246  0.69184792  1
  Ge  Ge0  1  0.75000001  0.23699295  0.88471585  1
  Ge  Ge1  1  0.74999999  0.73696306  0.61519234  1
  Ge  Ge2  1  0.24999999  0.76300718  0.11530700  1
  Ge  Ge3  1  0.25000001  0.26302997  0.38478454  1
  Rh  Rh0  1  0.75000001  0.35370669  0.56774600  1
  Rh  Rh1  1  0.74999999  0.85372280  0.93225977  1
  Rh  Rh2  1  0.25000000  0.64628540  0.43219954  1
  Rh  Rh3  1  0.25000000  0.14630299  0.06780043  1
loop_
_geom_bond_atom_site_label_1
_geom_bond_atom_site_label_2
_geom_bond_distance
_geom_bond_site_symmetry_2
Hf0 Rh2 2.908834 1_655
Hf0 Rh2 2.908834 1_555
Hf0 Rh0 2.948652 1_555
Hf0 Rh3 3.073393 1_555
Hf0 Rh3 3.073393 1_655
Hf0 Rh1 3.154224 1_554
Hf1 Rh3 2.908288 1_565
Hf1 Rh3 2.908288 1_665
Hf1 Rh1 2.948056 1_554
Hf1 Rh2 3.073963 1_655
Hf1 Rh2 3.073963 1_555
Hf1 Rh0 3.154279 1_565
Hf2 Rh0 2.909126 1_455
Hf2 Rh0 2.909126 1_555
Hf2 Rh2 2.949176 1_555
Hf2 Rh1 3.073712 1_555
Hf2 Rh1 3.073712 1_455
Hf2 Rh3 3.154198 1_556
Hf3 Rh1 2.908624 1_545
Hf3 Rh1 2.908624 1_445
Hf3 Rh3 2.948658 1_556
Hf3 Rh0 3.073959 1_455
Hf3 Rh0 3.073959 1_555
Hf3 Rh2 3.154542 1_545
Ge0 Rh3 2.487142 1_656
Ge0 Rh3 2.487142 1_556
Ge0 Rh0 2.511814 1_555
Ge0 Rh1 2.532654 1_545
Ge0 Hf2 2.790209 1_655
Ge0 Hf2 2.790210 1_555
Ge0 Hf0 2.795479 1_556
Ge0 Hf3 2.825341 1_655
Ge0 Hf3 2.825341 1_555
Ge1 Rh2 2.486742 1_555
Ge1 Rh2 2.486743 1_655
Ge1 Rh1 2.512616 1_555
Ge1 Rh0 2.532465 1_555
Ge1 Hf3 2.790481 1_565
Ge1 Hf3 2.790481 1_665
Ge1 Hf1 2.795789 1_555
Ge1 Hf2 2.825819 1_655
Ge1 Hf2 2.825819 1_555
Ge2 Rh1 2.487026 1_454
Ge2 Rh1 2.487026 1_554
Ge2 Rh2 2.511274 1_555
Ge2 Rh3 2.532780 1_565
Ge2 Hf0 2.790289 1_455
Ge2 Hf0 2.790289 1_555
Ge2 Hf2 2.795608 1_554
Ge2 Hf1 2.825213 1_455
Ge2 Hf1 2.825213 1_555
Ge3 Rh0 2.486610 1_555
Ge3 Rh0 2.486610 1_455
Ge3 Rh3 2.511952 1_555
Ge3 Rh2 2.532425 1_555
Ge3 Hf1 2.790396 1_545
Ge3 Hf1 2.790396 1_445
Ge3 Hf3 2.795749 1_555
Ge3 Hf0 2.825628 1_555
Ge3 Hf0 2.825628 1_455
