# generated using pymatgen
data_Dy3(SiNi3)2
_symmetry_space_group_name_H-M   'P 1'
_cell_length_a   7.53459761
_cell_length_b   7.53459761
_cell_length_c   7.53459761
_cell_angle_alpha   109.47122063
_cell_angle_beta   109.47122063
_cell_angle_gamma   109.47122063
_symmetry_Int_Tables_number   1
_chemical_formula_structural   Dy3(SiNi3)2
_chemical_formula_sum   'Dy6 Si4 Ni12'
_cell_volume   329.27465260
_cell_formula_units_Z   2
loop_
 _symmetry_equiv_pos_site_id
 _symmetry_equiv_pos_as_xyz
  1  'x, y, z'
loop_
 _atom_site_type_symbol
 _atom_site_label
 _atom_site_symmetry_multiplicity
 _atom_site_fract_x
 _atom_site_fract_y
 _atom_site_fract_z
 _atom_site_occupancy
  Dy  Dy0  1  0.71293320  0.71293320  0.00000000  1
  Dy  Dy1  1  0.28706680  -0.00000000  0.28706680  1
  Dy  Dy2  1  -0.00000000  0.28706680  0.28706680  1
  Dy  Dy3  1  0.28706680  0.28706680  0.00000000  1
  Dy  Dy4  1  0.71293320  0.00000000  0.71293320  1
  Dy  Dy5  1  0.00000000  0.71293320  0.71293320  1
  Si  Si0  1  0.00000000  0.00000000  0.50000000  1
  Si  Si1  1  0.00000000  0.50000000  0.00000000  1
  Si  Si2  1  0.50000000  0.00000000  0.00000000  1
  Si  Si3  1  0.50000000  0.50000000  0.50000000  1
  Ni  Ni0  1  0.33051135  0.33051135  0.66102270  1
  Ni  Ni1  1  0.66948865  0.00000000  0.33051135  1
  Ni  Ni2  1  -0.00000000  0.66948865  0.33051135  1
  Ni  Ni3  1  0.66948865  0.33051135  0.00000000  1
  Ni  Ni4  1  0.33051135  0.66102270  0.33051135  1
  Ni  Ni5  1  0.00000000  0.33051135  0.66948865  1
  Ni  Ni6  1  0.33051135  0.66948865  -0.00000000  1
  Ni  Ni7  1  0.33051135  -0.00000000  0.66948865  1
  Ni  Ni8  1  0.66102270  0.33051135  0.33051135  1
  Ni  Ni9  1  0.66948865  0.66948865  0.33897730  1
  Ni  Ni10  1  0.66948865  0.33897730  0.66948865  1
  Ni  Ni11  1  0.33897730  0.66948865  0.66948865  1
loop_
_geom_bond_atom_site_label_1
_geom_bond_atom_site_label_2
_geom_bond_distance
_geom_bond_site_symmetry_2
Dy0 Ni9 2.789407 1_555
Dy0 Ni6 2.789407 1_555
Dy0 Ni3 2.789407 1_555
Dy0 Ni0 2.789407 1_554
Dy0 Ni2 2.900252 1_655
Dy0 Ni10 2.900252 1_554
Dy0 Ni11 2.900252 1_554
Dy0 Ni1 2.900252 1_565
Dy0 Si2 3.092845 1_565
Dy0 Si0 3.092845 1_665
Dy0 Si1 3.092845 1_655
Dy0 Si3 3.092845 1_554
Dy1 Ni10 2.789407 1_555
Dy1 Ni7 2.789407 1_555
Dy1 Ni4 2.789407 1_545
Dy1 Ni1 2.789407 1_555
Dy1 Ni6 2.900252 1_545
Dy1 Ni8 2.900252 1_555
Dy1 Ni2 2.900252 1_545
Dy1 Ni0 2.900252 1_555
Dy1 Si2 3.092845 1_555
Dy1 Si1 3.092845 1_545
Dy1 Si3 3.092845 1_555
Dy1 Si0 3.092845 1_555
Dy2 Ni11 2.789407 1_555
Dy2 Ni5 2.789407 1_555
Dy2 Ni8 2.789407 1_455
Dy2 Ni2 2.789407 1_555
Dy2 Ni4 2.900252 1_555
Dy2 Ni3 2.900252 1_455
Dy2 Ni1 2.900252 1_455
Dy2 Ni0 2.900252 1_555
Dy2 Si1 3.092845 1_555
Dy2 Si3 3.092845 1_555
Dy2 Si2 3.092845 1_455
Dy2 Si0 3.092845 1_555
Dy3 Ni0 2.789407 1_554
Dy3 Ni9 2.789407 1_555
Dy3 Ni6 2.789407 1_555
Dy3 Ni3 2.789407 1_555
Dy3 Ni8 2.900252 1_555
Dy3 Ni5 2.900252 1_554
Dy3 Ni4 2.900252 1_555
Dy3 Ni7 2.900252 1_554
Dy3 Si2 3.092845 1_555
Dy3 Si3 3.092845 1_555
Dy3 Si1 3.092845 1_555
Dy3 Si0 3.092845 1_554
Dy4 Ni10 2.789407 1_555
Dy4 Ni4 2.789407 1_545
Dy4 Ni7 2.789407 1_555
Dy4 Ni1 2.789407 1_555
Dy4 Ni5 2.900252 1_655
Dy4 Ni11 2.900252 1_545
Dy4 Ni9 2.900252 1_545
Dy4 Ni3 2.900252 1_556
Dy4 Si3 3.092845 1_545
Dy4 Si0 3.092845 1_655
Dy4 Si1 3.092845 1_656
Dy4 Si2 3.092845 1_556
Dy5 Ni11 2.789407 1_555
Dy5 Ni8 2.789407 1_455
Dy5 Ni2 2.789407 1_555
Dy5 Ni5 2.789407 1_555
Dy5 Ni9 2.900252 1_455
Dy5 Ni10 2.900252 1_455
Dy5 Ni6 2.900252 1_556
Dy5 Ni7 2.900252 1_565
Dy5 Si0 3.092845 1_565
Dy5 Si2 3.092845 1_566
Dy5 Si3 3.092845 1_455
Dy5 Si1 3.092845 1_556
Ni0 Si0 2.390010 1_555
Ni0 Si3 2.390010 1_555
Ni0 Ni7 2.512252 1_555
Ni0 Ni5 2.512252 1_555
Ni0 Ni11 2.512252 1_555
Ni0 Ni10 2.512252 1_555
Ni1 Si2 2.390010 1_555
Ni1 Si0 2.390010 1_655
Ni1 Ni6 2.512252 1_545
Ni1 Ni9 2.512252 1_545
Ni1 Ni5 2.512252 1_655
Ni1 Ni8 2.512252 1_555
Ni2 Si1 2.390010 1_555
Ni2 Si0 2.390010 1_565
Ni2 Ni7 2.512252 1_565
Ni2 Ni4 2.512252 1_555
Ni2 Ni9 2.512252 1_455
Ni2 Ni3 2.512252 1_455
Ni3 Si2 2.390010 1_555
Ni3 Si1 2.390010 1_655
Ni3 Ni7 2.512252 1_554
Ni3 Ni8 2.512252 1_555
Ni4 Si3 2.390010 1_555
Ni4 Si1 2.390010 1_555
Ni4 Ni9 2.512252 1_555
Ni4 Ni6 2.512252 1_555
Ni5 Si1 2.390010 1_556
Ni5 Si0 2.390010 1_555
Ni5 Ni6 2.512252 1_556
Ni6 Si2 2.390010 1_565
Ni6 Si1 2.390010 1_555
Ni7 Si2 2.390010 1_556
Ni7 Si0 2.390010 1_555
Ni8 Si2 2.390010 1_555
Ni8 Si3 2.390010 1_555
Ni8 Ni9 2.512252 1_555
Ni9 Si0 2.390010 1_665
Ni9 Si3 2.390010 1_555
Ni10 Si1 2.390010 1_656
Ni10 Si3 2.390010 1_555
Ni10 Ni3 2.512252 1_556
Ni10 Ni5 2.512252 1_655
Ni10 Ni8 2.512252 1_555
Ni11 Si2 2.390010 1_566
Ni11 Si3 2.390010 1_555
Ni11 Ni6 2.512252 1_556
Ni11 Ni7 2.512252 1_565
Ni11 Ni4 2.512252 1_555
