# generated using pymatgen
data_CsNd(PO3)4
_symmetry_space_group_name_H-M   'P 1'
_cell_length_a   13.33543853
_cell_length_b   13.33543853
_cell_length_c   13.33231934
_cell_angle_alpha   70.53176342
_cell_angle_beta   70.53176342
_cell_angle_gamma   109.48443881
_symmetry_Int_Tables_number   1
_chemical_formula_structural   CsNd(PO3)4
_chemical_formula_sum   'Cs6 Nd6 P24 O72'
_cell_volume   1824.98604063
_cell_formula_units_Z   6
loop_
 _symmetry_equiv_pos_site_id
 _symmetry_equiv_pos_as_xyz
  1  'x, y, z'
loop_
 _atom_site_type_symbol
 _atom_site_label
 _atom_site_symmetry_multiplicity
 _atom_site_fract_x
 _atom_site_fract_y
 _atom_site_fract_z
 _atom_site_occupancy
  Cs  Cs0  1  0.76317600  0.49943800  0.50130300  1
  Cs  Cs1  1  0.00134900  0.00091700  0.23538800  1
  Cs  Cs2  1  0.73542300  0.23613400  0.26312600  1
  Cs  Cs3  1  0.49943800  0.76317600  0.00130300  1
  Cs  Cs4  1  0.00091700  0.00134900  0.73538800  1
  Cs  Cs5  1  0.23613400  0.73542300  0.76312600  1
  Nd  Nd0  1  0.62104000  0.87225700  0.25196500  1
  Nd  Nd1  1  0.87225700  0.62104000  0.75196500  1
  Nd  Nd2  1  0.37484100  0.25195500  0.37289500  1
  Nd  Nd3  1  0.12610500  0.75087000  0.12523400  1
  Nd  Nd4  1  0.75087000  0.12610500  0.62523400  1
  Nd  Nd5  1  0.25195500  0.37484100  0.87289500  1
  P  P0  1  0.75808300  0.08079400  0.91433200  1
  P  P1  1  0.49396700  0.67153300  0.58518400  1
  P  P2  1  0.74147700  0.82680900  0.67828200  1
  P  P3  1  0.00664500  0.42025600  0.82041000  1
  P  P4  1  0.08079400  0.75808300  0.41433200  1
  P  P5  1  0.67153300  0.49396700  0.08518400  1
  P  P6  1  0.82680900  0.74147700  0.17828200  1
  P  P7  1  0.42025600  0.00664500  0.32041000  1
  P  P8  1  0.57873100  0.58486500  0.24268700  1
  P  P9  1  0.17307400  0.91429100  0.50530000  1
  P  P10  1  0.32772400  0.82151700  0.25869200  1
  P  P11  1  0.91931800  0.67733700  0.99494400  1
  P  P12  1  0.25867100  0.08643500  0.91989500  1
  P  P13  1  0.99508800  0.41432400  0.32766900  1
  P  P14  1  0.24253200  0.32138300  0.17224600  1
  P  P15  1  0.50505000  0.17832700  0.58030100  1
  P  P16  1  0.08643500  0.25867100  0.41989500  1
  P  P17  1  0.41432400  0.99508800  0.82766900  1
  P  P18  1  0.32138300  0.24253200  0.67224600  1
  P  P19  1  0.17832700  0.50505000  0.08030100  1
  P  P20  1  0.58486500  0.57873100  0.74268700  1
  P  P21  1  0.91429100  0.17307400  0.00530000  1
  P  P22  1  0.82151700  0.32772400  0.75869200  1
  P  P23  1  0.67733700  0.91931800  0.49494400  1
  O  O0  1  0.88906400  0.12696400  0.91287900  1
  O  O1  1  0.53998200  0.80185900  0.58747700  1
  O  O2  1  0.61081900  0.69797500  0.76199900  1
  O  O3  1  0.95924900  0.37185000  0.73884800  1
  O  O4  1  0.12696400  0.88906400  0.41287900  1
  O  O5  1  0.80185900  0.53998200  0.08747700  1
  O  O6  1  0.69797500  0.61081900  0.26199900  1
  O  O7  1  0.37185000  0.95924900  0.23884800  1
  O  O8  1  0.62751800  0.58747500  0.11065900  1
  O  O9  1  0.30187200  0.91252900  0.45976700  1
  O  O10  1  0.19805100  0.73835100  0.38902200  1
  O  O11  1  0.87291100  0.76205000  0.03997800  1
  O  O12  1  0.38908900  0.08711500  0.87247200  1
  O  O13  1  0.03984800  0.41291100  0.19800800  1
  O  O14  1  0.11047300  0.23851300  0.30175400  1
  O  O15  1  0.45999200  0.26196400  0.62720000  1
  O  O16  1  0.08711500  0.38908900  0.37247200  1
  O  O17  1  0.41291100  0.03984800  0.69800800  1
  O  O18  1  0.23851300  0.11047300  0.80175400  1
  O  O19  1  0.26196400  0.45999200  0.12720000  1
  O  O20  1  0.58747500  0.62751800  0.61065900  1
  O  O21  1  0.91252900  0.30187200  0.95976700  1
  O  O22  1  0.73835100  0.19805100  0.88902200  1
  O  O23  1  0.76205000  0.87291100  0.53997800  1
  O  O24  1  0.65708300  0.97669400  0.04045900  1
  O  O25  1  0.52006900  0.69927100  0.45808100  1
  O  O26  1  0.84358400  0.80294800  0.67957200  1
  O  O27  1  0.98215200  0.52272500  0.82029000  1
  O  O28  1  0.97669400  0.65708300  0.54045900  1
  O  O29  1  0.69927100  0.52006900  0.95808100  1
  O  O30  1  0.80294800  0.84358400  0.17957200  1
  O  O31  1  0.52272500  0.98215200  0.32029000  1
  O  O32  1  0.47786500  0.45811200  0.34317900  1
  O  O33  1  0.19688200  0.04032400  0.48274600  1
  O  O34  1  0.30177400  0.81955100  0.15746200  1
  O  O35  1  0.02299100  0.67985900  0.01782700  1
  O  O36  1  0.15723700  0.95909700  0.02256800  1
  O  O37  1  0.01728400  0.54064200  0.30223500  1
  O  O38  1  0.34294900  0.32090500  0.19870900  1
  O  O39  1  0.48263600  0.17947700  0.47687900  1
  O  O40  1  0.95909700  0.15723700  0.52256800  1
  O  O41  1  0.54064200  0.01728400  0.80223500  1
  O  O42  1  0.32090500  0.34294900  0.69870900  1
  O  O43  1  0.17947700  0.48263600  0.97687900  1
  O  O44  1  0.45811200  0.47786500  0.84317900  1
  O  O45  1  0.04032400  0.19688200  0.98274600  1
  O  O46  1  0.81955100  0.30177400  0.65746200  1
  O  O47  1  0.67985900  0.02299100  0.51782700  1
  O  O48  1  0.78120800  0.06106000  0.80647800  1
  O  O49  1  0.36800000  0.58836700  0.69500000  1
  O  O50  1  0.71860700  0.91232600  0.71976900  1
  O  O51  1  0.13249400  0.43832900  0.78211500  1
  O  O52  1  0.06106000  0.78120800  0.30647800  1
  O  O53  1  0.58836700  0.36800000  0.19500000  1
  O  O54  1  0.91232600  0.71860700  0.21976900  1
  O  O55  1  0.43832900  0.13249400  0.28211500  1
  O  O56  1  0.56362000  0.69517700  0.21665600  1
  O  O57  1  0.08744800  0.80620700  0.63232200  1
  O  O58  1  0.41427100  0.78168300  0.27950900  1
  O  O59  1  0.93898600  0.72040900  0.86759500  1
  O  O60  1  0.27956800  0.19376500  0.93888900  1
  O  O61  1  0.86756300  0.30646100  0.41216600  1
  O  O62  1  0.21662800  0.28018300  0.08799800  1
  O  O63  1  0.63211000  0.21965400  0.56158000  1
  O  O64  1  0.19376500  0.27956800  0.43888900  1
  O  O65  1  0.30646100  0.86756300  0.91216600  1
  O  O66  1  0.28018300  0.21662800  0.58799800  1
  O  O67  1  0.21965400  0.63211000  0.06158000  1
  O  O68  1  0.69517700  0.56362000  0.71665600  1
  O  O69  1  0.80620700  0.08744800  0.13232200  1
  O  O70  1  0.78168300  0.41427100  0.77950900  1
  O  O71  1  0.72040900  0.93898600  0.36759500  1
loop_
_geom_bond_atom_site_label_1
_geom_bond_atom_site_label_2
_geom_bond_distance
_geom_bond_site_symmetry_2
Cs0 O68 3.196671 1_555
Cs0 O63 3.214994 1_555
Cs0 O54 3.228029 1_555
Cs0 O28 3.244785 1_555
Cs0 O46 3.248862 1_555
Cs0 O37 3.258788 1_655
Cs0 O15 3.547478 1_555
Cs0 O20 3.547586 1_555
Cs0 O6 3.562748 1_555
Cs0 O70 3.619067 1_555
Cs0 O61 3.646680 1_555
Cs0 O52 3.647590 1_655
Cs1 O62 3.194012 1_555
Cs1 O52 3.213278 1_545
Cs1 O71 3.223150 1_445
Cs1 O45 3.241058 1_554
Cs1 O36 3.252654 1_545
Cs1 O30 3.256662 1_445
Cs1 O4 3.547813 1_545
Cs1 O14 3.548342 1_555
Cs1 O23 3.563089 1_445
Cs1 O60 3.617706 1_554
Cs1 O69 3.649871 1_455
Cs1 O54 3.651264 1_445
Cs2 O53 3.191573 1_555
Cs2 O69 3.212463 1_555
Cs2 O61 3.225949 1_555
Cs2 O39 3.243182 1_555
Cs2 O31 3.244586 1_545
Cs2 O47 3.262410 1_555
Cs2 O5 3.547467 1_555
Cs2 O21 3.548604 1_554
Cs2 O13 3.562853 1_655
Cs2 O55 3.621617 1_555
Cs2 O71 3.645292 1_545
Cs2 O63 3.652460 1_555
Cs3 O56 3.196671 1_555
Cs3 O67 3.214994 1_555
Cs3 O50 3.228029 1_554
Cs3 O24 3.244785 1_555
Cs3 O34 3.248862 1_555
Cs3 O41 3.258788 1_564
Cs3 O19 3.547478 1_555
Cs3 O8 3.547586 1_555
Cs3 O2 3.562748 1_554
Cs3 O58 3.619067 1_555
Cs3 O65 3.646680 1_554
Cs3 O48 3.647590 1_564
Cs4 O66 3.194012 1_555
Cs4 O48 3.213278 1_455
Cs4 O59 3.223150 1_445
Cs4 O33 3.241058 1_555
Cs4 O40 3.252654 1_455
Cs4 O26 3.256662 1_445
Cs4 O0 3.547813 1_455
Cs4 O18 3.548342 1_555
Cs4 O11 3.563089 1_446
Cs4 O64 3.617706 1_555
Cs4 O57 3.649871 1_545
Cs4 O50 3.651264 1_445
Cs5 O49 3.191573 1_555
Cs5 O57 3.212463 1_555
Cs5 O65 3.225949 1_555
Cs5 O43 3.243182 1_555
Cs5 O27 3.244586 1_455
Cs5 O35 3.262410 1_556
Cs5 O1 3.547467 1_555
Cs5 O9 3.548604 1_555
Cs5 O17 3.562853 1_565
Cs5 O51 3.621617 1_555
Cs5 O59 3.645292 1_455
Cs5 O67 3.652460 1_556
Nd0 O25 2.433525 1_555
Nd0 O58 2.450386 1_555
Nd0 O31 2.464125 1_555
Nd0 O24 2.480830 1_555
Nd0 O56 2.481802 1_555
Nd0 O30 2.503295 1_555
Nd0 O71 2.532563 1_555
Nd0 O69 2.544206 1_565
Nd1 O29 2.433525 1_555
Nd1 O70 2.450386 1_555
Nd1 O27 2.464125 1_555
Nd1 O28 2.480830 1_555
Nd1 O68 2.481802 1_555
Nd1 O26 2.503295 1_555
Nd1 O59 2.532563 1_555
Nd1 O57 2.544206 1_655
Nd2 O38 2.432137 1_555
Nd2 O32 2.448275 1_555
Nd2 O64 2.476608 1_555
Nd2 O33 2.490344 1_555
Nd2 O55 2.494281 1_555
Nd2 O53 2.498060 1_555
Nd2 O39 2.506909 1_555
Nd2 O66 2.515843 1_555
Nd3 O34 2.452202 1_555
Nd3 O36 2.464789 1_555
Nd3 O37 2.475420 1_555
Nd3 O35 2.487146 1_555
Nd3 O52 2.498737 1_555
Nd3 O65 2.505641 1_554
Nd3 O67 2.508557 1_555
Nd3 O54 2.515188 1_455
Nd4 O46 2.452202 1_555
Nd4 O40 2.464789 1_555
Nd4 O41 2.475420 1_555
Nd4 O47 2.487146 1_555
Nd4 O48 2.498737 1_555
Nd4 O61 2.505641 1_555
Nd4 O63 2.508557 1_555
Nd4 O50 2.515188 1_545
Nd5 O42 2.432137 1_555
Nd5 O44 2.448275 1_555
Nd5 O60 2.476608 1_555
Nd5 O45 2.490344 1_555
Nd5 O51 2.494281 1_555
Nd5 O49 2.498060 1_555
Nd5 O43 2.506909 1_555
Nd5 O62 2.515843 1_556
O0 P21 1.628774 1_556
O0 P0 1.637820 1_555
O1 P23 1.619335 1_555
O1 P1 1.653615 1_555
O2 P2 1.631532 1_555
O2 P20 1.637036 1_555
O3 P22 1.625147 1_555
O3 P3 1.628643 1_655
O4 P9 1.628774 1_555
O4 P4 1.637820 1_555
O5 P11 1.619335 1_554
O5 P5 1.653615 1_555
O6 P6 1.631532 1_555
O6 P8 1.637036 1_555
O7 P10 1.625147 1_555
O7 P7 1.628643 1_565
O8 P5 1.628650 1_555
O8 P8 1.644271 1_555
O9 P9 1.631124 1_555
O9 P7 1.639578 1_565
O10 P4 1.615592 1_555
O10 P10 1.634858 1_555
O11 P6 1.627235 1_555
O11 P11 1.640269 1_554
O12 P17 1.614391 1_545
O12 P12 1.636238 1_555
O13 P19 1.628492 1_555
O13 P13 1.639025 1_455
O14 P16 1.630675 1_555
O14 P14 1.645255 1_555
O15 P15 1.630177 1_555
O15 P18 1.637447 1_555
O16 P13 1.614391 1_455
O16 P16 1.636238 1_555
O17 P15 1.628492 1_555
O17 P17 1.639025 1_545
O18 P12 1.630675 1_555
O18 P18 1.645255 1_555
O19 P19 1.630177 1_555
O19 P14 1.637447 1_555
O20 P1 1.628650 1_555
O20 P20 1.644271 1_555
O21 P21 1.631124 1_556
O21 P3 1.639578 1_655
O22 P0 1.615592 1_555
O22 P22 1.634858 1_555
O23 P2 1.627235 1_555
O23 P23 1.640269 1_555
O24 P0 1.501953 1_564
O25 P1 1.494219 1_555
O26 P2 1.502202 1_555
O27 P3 1.506837 1_655
O28 P4 1.501953 1_655
O29 P5 1.494219 1_556
O30 P6 1.502202 1_555
O31 P7 1.506837 1_565
O32 P8 1.494629 1_555
O33 P9 1.503167 1_545
O34 P10 1.506916 1_555
O35 P11 1.504178 1_454
O36 P12 1.507017 1_564
O37 P13 1.503292 1_455
O38 P14 1.495606 1_555
O39 P15 1.501500 1_555
O40 P16 1.507017 1_655
O41 P17 1.503292 1_545
O42 P18 1.495606 1_555
O43 P19 1.501500 1_556
O44 P20 1.494629 1_555
O45 P21 1.503167 1_456
O46 P22 1.506916 1_555
O47 P23 1.504178 1_545
O48 P0 1.497608 1_555
O49 P1 1.493604 1_555
O50 P2 1.496501 1_555
O51 P3 1.487376 1_555
O52 P4 1.497608 1_555
O53 P5 1.493604 1_555
O54 P6 1.496501 1_555
O55 P7 1.487376 1_555
O56 P8 1.493027 1_555
O57 P9 1.495101 1_555
O58 P10 1.488450 1_555
O59 P11 1.494672 1_555
O60 P12 1.487596 1_555
O61 P13 1.497057 1_555
O62 P14 1.492043 1_555
O63 P15 1.496824 1_555
O64 P16 1.487596 1_555
O65 P17 1.497057 1_555
O66 P18 1.492043 1_555
O67 P19 1.496824 1_555
O68 P20 1.493027 1_555
O69 P21 1.495101 1_555
O70 P22 1.488450 1_555
O71 P23 1.494672 1_555
