# generated using pymatgen
data_NdEuHfMnO6
_symmetry_space_group_name_H-M   'P 1'
_cell_length_a   5.70225800
_cell_length_b   5.70225800
_cell_length_c   5.70225800
_cell_angle_alpha   60.00000000
_cell_angle_beta   60.00000000
_cell_angle_gamma   60.00000000
_symmetry_Int_Tables_number   1
_chemical_formula_structural   NdEuHfMnO6
_chemical_formula_sum   'Nd1 Eu1 Hf1 Mn1 O6'
_cell_volume   131.10691299
_cell_formula_units_Z   1
loop_
 _symmetry_equiv_pos_site_id
 _symmetry_equiv_pos_as_xyz
  1  'x, y, z'
loop_
 _atom_site_type_symbol
 _atom_site_label
 _atom_site_symmetry_multiplicity
 _atom_site_fract_x
 _atom_site_fract_y
 _atom_site_fract_z
 _atom_site_occupancy
  Nd  Nd0  1  0.25000000  0.25000000  0.25000000  1
  Eu  Eu0  1  0.75000000  0.75000000  0.75000000  1
  Hf  Hf0  1  -0.00000000  0.00000000  -0.00000000  1
  Mn  Mn0  1  0.50000000  0.50000000  0.50000000  1
  O  O0  1  0.74819558  0.25180442  0.25180442  1
  O  O1  1  0.25180442  0.74819558  0.74819558  1
  O  O2  1  0.74819558  0.25180442  0.74819558  1
  O  O3  1  0.25180442  0.74819558  0.25180442  1
  O  O4  1  0.74819558  0.74819558  0.25180442  1
  O  O5  1  0.25180442  0.25180442  0.74819558  1
loop_
_geom_bond_atom_site_label_1
_geom_bond_atom_site_label_2
_geom_bond_distance
_geom_bond_site_symmetry_2
Nd0 O0 2.851166 1_555
Nd0 O5 2.851166 1_555
Nd0 O3 2.851166 1_555
Nd0 O1 2.851166 1_545
Nd0 O4 2.851166 1_455
Nd0 O1 2.851166 1_554
Nd0 O2 2.851166 1_455
Nd0 O2 2.851166 1_554
Nd0 O4 2.851166 1_545
Nd0 O0 2.851166 1_455
Nd0 O5 2.851166 1_554
Nd0 O3 2.851166 1_545
Eu0 O2 2.851166 1_565
Eu0 O0 2.851166 1_556
Eu0 O4 2.851166 1_556
Eu0 O0 2.851166 1_565
Eu0 O1 2.851166 1_655
Eu0 O1 2.851166 1_555
Eu0 O3 2.851166 1_655
Eu0 O5 2.851166 1_565
Eu0 O5 2.851166 1_655
Eu0 O3 2.851166 1_556
Eu0 O2 2.851166 1_555
Eu0 O4 2.851166 1_555
Hf0 O0 2.030604 1_455
Hf0 O3 2.030604 1_545
Hf0 O5 2.030604 1_554
Hf0 O4 2.030604 1_445
Hf0 O1 2.030604 1_544
Hf0 O2 2.030604 1_454
Mn0 O4 2.001501 1_555
Mn0 O1 2.001501 1_555
Mn0 O2 2.001501 1_555
Mn0 O3 2.001501 1_555
Mn0 O0 2.001501 1_555
Mn0 O5 2.001501 1_555
