# generated using pymatgen
data_CsHfMg30O31
_symmetry_space_group_name_H-M   'P 1'
_cell_length_a   8.67212500
_cell_length_b   8.73454000
_cell_length_c   8.76107000
_cell_angle_alpha   90.00000000
_cell_angle_beta   90.00000000
_cell_angle_gamma   90.00000000
_symmetry_Int_Tables_number   1
_chemical_formula_structural   CsHfMg30O31
_chemical_formula_sum   'Cs1 Hf1 Mg30 O31'
_cell_volume   663.62496814
_cell_formula_units_Z   1
loop_
 _symmetry_equiv_pos_site_id
 _symmetry_equiv_pos_as_xyz
  1  'x, y, z'
loop_
 _atom_site_type_symbol
 _atom_site_label
 _atom_site_symmetry_multiplicity
 _atom_site_fract_x
 _atom_site_fract_y
 _atom_site_fract_z
 _atom_site_occupancy
  Cs  Cs0  1  0.00000000  0.00000000  0.98875500  1
  Hf  Hf0  1  0.50000000  0.00000000  0.97006500  1
  Mg  Mg0  1  0.00000000  0.50000000  0.00218500  1
  Mg  Mg1  1  0.50000000  0.50000000  0.00407300  1
  Mg  Mg2  1  0.00000000  0.00000000  0.49337000  1
  Mg  Mg3  1  0.50000000  0.00000000  0.49710300  1
  Mg  Mg4  1  0.00000000  0.50000000  0.49872700  1
  Mg  Mg5  1  0.50000000  0.50000000  0.49688500  1
  Mg  Mg6  1  0.75143300  0.73724400  0.00307800  1
  Mg  Mg7  1  0.24856700  0.73724400  0.00307800  1
  Mg  Mg8  1  0.75143300  0.26275600  0.00307800  1
  Mg  Mg9  1  0.24856700  0.26275600  0.00307800  1
  Mg  Mg10  1  0.75043700  0.74694000  0.49850500  1
  Mg  Mg11  1  0.24956300  0.74694000  0.49850500  1
  Mg  Mg12  1  0.75043700  0.25306000  0.49850500  1
  Mg  Mg13  1  0.24956300  0.25306000  0.49850500  1
  Mg  Mg14  1  0.75884400  0.00000000  0.72892000  1
  Mg  Mg15  1  0.24115600  0.00000000  0.72892000  1
  Mg  Mg16  1  0.75244900  0.50000000  0.74839700  1
  Mg  Mg17  1  0.24755100  0.50000000  0.74839700  1
  Mg  Mg18  1  0.74680200  0.00000000  0.25981900  1
  Mg  Mg19  1  0.25319800  0.00000000  0.25981900  1
  Mg  Mg20  1  0.75001400  0.50000000  0.25325400  1
  Mg  Mg21  1  0.24998600  0.50000000  0.25325400  1
  Mg  Mg22  1  0.00000000  0.74098000  0.74240100  1
  Mg  Mg23  1  0.50000000  0.73993700  0.74453900  1
  Mg  Mg24  1  0.00000000  0.25902000  0.74240100  1
  Mg  Mg25  1  0.50000000  0.26006300  0.74453900  1
  Mg  Mg26  1  0.00000000  0.74485900  0.25562600  1
  Mg  Mg27  1  0.50000000  0.75077500  0.25195700  1
  Mg  Mg28  1  0.00000000  0.25514100  0.25562600  1
  Mg  Mg29  1  0.50000000  0.24922500  0.25195700  1
  O  O0  1  0.00000000  0.00000000  0.70711900  1
  O  O1  1  0.00000000  0.50000000  0.74280900  1
  O  O2  1  0.50000000  0.50000000  0.74878000  1
  O  O3  1  0.00000000  0.00000000  0.27910100  1
  O  O4  1  0.50000000  0.00000000  0.25962900  1
  O  O5  1  0.00000000  0.50000000  0.25831500  1
  O  O6  1  0.50000000  0.50000000  0.25211600  1
  O  O7  1  0.75528600  0.74868200  0.75114900  1
  O  O8  1  0.24471400  0.74868200  0.75114900  1
  O  O9  1  0.75528600  0.25131800  0.75114900  1
  O  O10  1  0.24471400  0.25131800  0.75114900  1
  O  O11  1  0.75008700  0.74798300  0.25153000  1
  O  O12  1  0.24991300  0.74798300  0.25153000  1
  O  O13  1  0.75008700  0.25201700  0.25153000  1
  O  O14  1  0.24991300  0.25201700  0.25153000  1
  O  O15  1  0.71728700  0.00000000  0.02521600  1
  O  O16  1  0.28271300  0.00000000  0.02521600  1
  O  O17  1  0.74169500  0.50000000  0.00057600  1
  O  O18  1  0.25830500  0.50000000  0.00057600  1
  O  O19  1  0.74202700  0.00000000  0.49828500  1
  O  O20  1  0.25797300  0.00000000  0.49828500  1
  O  O21  1  0.74722300  0.50000000  0.50110300  1
  O  O22  1  0.25277700  0.50000000  0.50110300  1
  O  O23  1  0.00000000  0.71468200  0.00380800  1
  O  O24  1  0.50000000  0.74423900  0.00390600  1
  O  O25  1  0.00000000  0.28531800  0.00380800  1
  O  O26  1  0.50000000  0.25576100  0.00390600  1
  O  O27  1  0.00000000  0.74282500  0.49901200  1
  O  O28  1  0.50000000  0.74704000  0.50014000  1
  O  O29  1  0.00000000  0.25717500  0.49901200  1
  O  O30  1  0.50000000  0.25296000  0.50014000  1
loop_
_geom_bond_atom_site_label_1
_geom_bond_atom_site_label_2
_geom_bond_distance
_geom_bond_site_symmetry_2
Cs0 O0 2.467433 1_555
Cs0 O15 2.472445 1_456
Cs0 O16 2.472445 1_556
Cs0 O25 2.495609 1_556
Cs0 O23 2.495609 1_546
Cs0 O3 2.543742 1_556
Hf0 O15 1.945303 1_556
Hf0 O16 1.945303 1_556
Hf0 O24 2.253543 1_546
Hf0 O26 2.253543 1_556
Hf0 O4 2.536890 1_556
Mg0 O23 1.875202 1_555
Mg0 O25 1.875202 1_555
Mg0 O18 2.240098 1_555
Mg0 O17 2.240098 1_455
Mg0 O5 2.243973 1_555
Mg0 O1 2.272411 1_554
Mg1 O18 2.096233 1_555
Mg1 O17 2.096233 1_555
Mg1 O26 2.133316 1_555
Mg1 O24 2.133316 1_555
Mg1 O6 2.173122 1_555
Mg1 O2 2.236640 1_554
Mg2 O0 1.872670 1_555
Mg2 O3 1.877226 1_555
Mg2 O20 2.237588 1_555
Mg2 O19 2.237588 1_455
Mg2 O29 2.246849 1_555
Mg2 O27 2.246849 1_545
Mg3 O4 2.080526 1_555
Mg3 O19 2.098914 1_555
Mg3 O20 2.098914 1_555
Mg3 O28 2.209649 1_545
Mg3 O30 2.209649 1_555
Mg4 O5 2.106266 1_555
Mg4 O27 2.120966 1_555
Mg4 O29 2.120966 1_555
Mg4 O1 2.138419 1_555
Mg4 O22 2.192213 1_555
Mg4 O21 2.192213 1_455
Mg5 O21 2.144267 1_555
Mg5 O22 2.144267 1_555
Mg5 O6 2.144438 1_555
Mg5 O30 2.157969 1_555
Mg5 O28 2.157969 1_555
Mg5 O2 2.206870 1_555
Mg6 O17 2.074053 1_555
Mg6 O23 2.164603 1_655
Mg6 O11 2.178757 1_555
Mg6 O24 2.181326 1_555
Mg6 O7 2.209680 1_554
Mg6 O15 2.322191 1_565
Mg7 O18 2.074053 1_555
Mg7 O23 2.164603 1_555
Mg7 O12 2.178757 1_555
Mg7 O24 2.181326 1_555
Mg7 O8 2.209680 1_554
Mg7 O16 2.322191 1_565
Mg8 O17 2.074053 1_555
Mg8 O25 2.164603 1_655
Mg8 O13 2.178757 1_555
Mg8 O26 2.181326 1_555
Mg8 O9 2.209680 1_554
Mg8 O15 2.322191 1_555
Mg9 O18 2.074053 1_555
Mg9 O25 2.164603 1_555
Mg9 O14 2.178757 1_555
Mg9 O26 2.181326 1_555
Mg9 O10 2.209680 1_554
Mg9 O16 2.322191 1_555
Mg10 O21 2.157207 1_555
Mg10 O11 2.163787 1_555
Mg10 O27 2.164545 1_655
Mg10 O28 2.171868 1_555
Mg10 O19 2.211566 1_565
Mg10 O7 2.213883 1_555
Mg11 O22 2.157207 1_555
Mg11 O12 2.163787 1_555
Mg11 O27 2.164545 1_555
Mg11 O28 2.171868 1_555
Mg11 O20 2.211566 1_565
Mg11 O8 2.213883 1_555
Mg12 O21 2.157207 1_555
Mg12 O13 2.163787 1_555
Mg12 O29 2.164545 1_655
Mg12 O30 2.171868 1_555
Mg12 O19 2.211566 1_555
Mg12 O9 2.213883 1_555
Mg13 O22 2.157207 1_555
Mg13 O14 2.163787 1_555
Mg13 O29 2.164545 1_555
Mg13 O30 2.171868 1_555
Mg13 O20 2.211566 1_555
Mg13 O10 2.213883 1_555
Mg14 O19 2.025866 1_555
Mg14 O0 2.100039 1_655
Mg14 O9 2.203985 1_555
Mg14 O7 2.203985 1_545
Mg14 O15 2.620767 1_556
Mg15 O20 2.025866 1_555
Mg15 O0 2.100039 1_555
Mg15 O10 2.203985 1_555
Mg15 O8 2.203985 1_545
Mg15 O16 2.620767 1_556
Mg16 O1 2.147351 1_655
Mg16 O21 2.167034 1_555
Mg16 O7 2.172396 1_555
Mg16 O9 2.172396 1_555
Mg16 O2 2.189272 1_555
Mg16 O17 2.211325 1_556
Mg17 O1 2.147351 1_555
Mg17 O22 2.167034 1_555
Mg17 O8 2.172396 1_555
Mg17 O10 2.172396 1_555
Mg17 O2 2.189272 1_555
Mg17 O18 2.211325 1_556
Mg18 O15 2.071249 1_555
Mg18 O19 2.089628 1_555
Mg18 O4 2.140298 1_555
Mg18 O3 2.202253 1_655
Mg18 O13 2.202634 1_555
Mg18 O11 2.202634 1_545
Mg19 O16 2.071249 1_555
Mg19 O20 2.089628 1_555
Mg19 O4 2.140298 1_555
Mg19 O3 2.202253 1_555
Mg19 O14 2.202634 1_555
Mg19 O12 2.202634 1_545
Mg20 O11 2.166070 1_555
Mg20 O13 2.166070 1_555
Mg20 O6 2.168176 1_555
Mg20 O5 2.168363 1_655
Mg20 O21 2.171557 1_555
Mg20 O17 2.214905 1_555
Mg21 O12 2.166070 1_555
Mg21 O14 2.166070 1_555
Mg21 O6 2.168176 1_555
Mg21 O5 2.168363 1_555
Mg21 O22 2.171557 1_555
Mg21 O18 2.214905 1_555
Mg22 O1 2.104852 1_555
Mg22 O7 2.124639 1_455
Mg22 O8 2.124639 1_555
Mg22 O27 2.132409 1_555
Mg22 O0 2.283439 1_565
Mg22 O23 2.301695 1_556
Mg23 O2 2.096069 1_555
Mg23 O28 2.142095 1_555
Mg23 O7 2.215946 1_555
Mg23 O8 2.215946 1_555
Mg23 O24 2.272643 1_556
Mg24 O1 2.104852 1_555
Mg24 O9 2.124639 1_455
Mg24 O10 2.124639 1_555
Mg24 O29 2.132409 1_555
Mg24 O0 2.283439 1_555
Mg24 O25 2.301695 1_556
Mg25 O2 2.096069 1_555
Mg25 O30 2.142095 1_555
Mg25 O9 2.215946 1_555
Mg25 O10 2.215946 1_555
Mg25 O26 2.272643 1_556
Mg26 O27 2.132396 1_555
Mg26 O5 2.138860 1_555
Mg26 O11 2.167746 1_455
Mg26 O12 2.167746 1_555
Mg26 O23 2.221885 1_555
Mg26 O3 2.238009 1_565
Mg27 O11 2.168926 1_555
Mg27 O12 2.168926 1_555
Mg27 O24 2.173942 1_555
Mg27 O28 2.174593 1_555
Mg27 O4 2.177903 1_565
Mg27 O6 2.190405 1_555
Mg28 O29 2.132396 1_555
Mg28 O5 2.138860 1_555
Mg28 O13 2.167746 1_455
Mg28 O14 2.167746 1_555
Mg28 O25 2.221885 1_555
Mg28 O3 2.238009 1_555
Mg29 O13 2.168926 1_555
Mg29 O14 2.168926 1_555
Mg29 O26 2.173942 1_555
Mg29 O30 2.174593 1_555
Mg29 O4 2.177903 1_555
Mg29 O6 2.190405 1_555
