# generated using pymatgen
data_Cs2P2Pd
_symmetry_space_group_name_H-M   'P 1'
_cell_length_a   8.26364767
_cell_length_b   8.26364767
_cell_length_c   6.22677730
_cell_angle_alpha   90.00000000
_cell_angle_beta   90.00000000
_cell_angle_gamma   130.57913177
_symmetry_Int_Tables_number   1
_chemical_formula_structural   Cs2P2Pd
_chemical_formula_sum   'Cs4 P4 Pd2'
_cell_volume   322.95308103
_cell_formula_units_Z   2
loop_
 _symmetry_equiv_pos_site_id
 _symmetry_equiv_pos_as_xyz
  1  'x, y, z'
loop_
 _atom_site_type_symbol
 _atom_site_label
 _atom_site_symmetry_multiplicity
 _atom_site_fract_x
 _atom_site_fract_y
 _atom_site_fract_z
 _atom_site_occupancy
  Cs  Cs0  1  0.78739190  0.21260810  0.25000000  1
  Cs  Cs1  1  0.21260810  0.78739190  0.75000000  1
  Cs  Cs2  1  0.41717794  0.58282206  0.25000000  1
  Cs  Cs3  1  0.58282206  0.41717794  0.75000000  1
  P  P0  1  0.94323150  0.74454300  0.25000000  1
  P  P1  1  0.05676850  0.25545700  0.75000000  1
  P  P2  1  0.25545700  0.05676850  0.25000000  1
  P  P3  1  0.74454300  0.94323150  0.75000000  1
  Pd  Pd0  1  -0.00000000  -0.00000000  -0.00000000  1
  Pd  Pd1  1  -0.00000000  -0.00000000  0.50000000  1
loop_
_geom_bond_atom_site_label_1
_geom_bond_atom_site_label_2
_geom_bond_distance
_geom_bond_site_symmetry_2
Cs0 Pd0 3.551434 1_655
Cs0 Pd1 3.551434 1_655
Cs0 P2 3.690001 1_555
Cs0 P0 3.690001 1_555
Cs0 P3 3.707874 1_544
Cs0 P3 3.707874 1_545
Cs0 P1 3.707874 1_655
Cs0 P1 3.707874 1_654
Cs1 Pd0 3.551434 1_566
Cs1 Pd1 3.551434 1_565
Cs1 P1 3.690001 1_555
Cs1 P3 3.690001 1_555
Cs1 P0 3.707874 1_456
Cs1 P0 3.707874 1_455
Cs1 P2 3.707874 1_565
Cs1 P2 3.707874 1_566
Cs2 P2 3.622884 1_555
Cs2 P0 3.622884 1_555
Cs2 P1 3.924235 1_554
Cs2 P3 3.924235 1_555
Cs2 P1 3.924235 1_555
Cs2 P3 3.924235 1_554
Cs3 P1 3.622884 1_555
Cs3 P3 3.622884 1_555
Cs3 P2 3.924235 1_555
Cs3 P0 3.924235 1_555
Cs3 P2 3.924235 1_556
Cs3 P0 3.924235 1_556
P0 P2 2.157149 1_665
P0 Pd0 2.410671 1_665
P0 Pd1 2.410671 1_665
P1 P3 2.157149 1_445
P1 Pd0 2.410671 1_556
P1 Pd1 2.410671 1_555
P2 Pd0 2.410671 1_555
P2 Pd1 2.410671 1_555
P3 Pd1 2.410671 1_665
P3 Pd0 2.410671 1_666
