# generated using pymatgen
data_FeHO2
_symmetry_space_group_name_H-M   'P 1'
_cell_length_a   3.07818100
_cell_length_b   7.72335474
_cell_length_c   7.63874768
_cell_angle_alpha   92.99281848
_cell_angle_beta   101.62537995
_cell_angle_gamma   78.50457629
_symmetry_Int_Tables_number   1
_chemical_formula_structural   FeHO2
_chemical_formula_sum   'Fe4 H4 O8'
_cell_volume   174.29546895
_cell_formula_units_Z   4
loop_
 _symmetry_equiv_pos_site_id
 _symmetry_equiv_pos_as_xyz
  1  'x, y, z'
loop_
 _atom_site_type_symbol
 _atom_site_label
 _atom_site_symmetry_multiplicity
 _atom_site_fract_x
 _atom_site_fract_y
 _atom_site_fract_z
 _atom_site_occupancy
  Fe  Fe0  1  0.35532700  0.49536500  0.20611900  1
  Fe  Fe1  1  0.14854500  0.20475000  0.50187300  1
  Fe  Fe2  1  0.64463800  0.50468400  0.79386700  1
  Fe  Fe3  1  0.85148600  0.79521800  0.49813300  1
  H  H0  1  0.90855800  0.24391800  0.06094500  1
  H  H1  1  0.09141400  0.75608600  0.93902000  1
  H  H2  1  0.84624100  0.06643200  0.75894000  1
  H  H3  1  0.15372800  0.93355600  0.24100300  1
  O  O0  1  0.83746600  0.37106200  0.04631500  1
  O  O1  1  0.16250000  0.62893600  0.95362800  1
  O  O2  1  0.78855300  0.05276800  0.62995200  1
  O  O3  1  0.21149800  0.94721100  0.37012500  1
  O  O4  1  0.46360600  0.71045600  0.63756900  1
  O  O5  1  0.53644800  0.28951000  0.36247700  1
  O  O6  1  0.83607800  0.62829900  0.30044000  1
  O  O7  1  0.16391400  0.37175000  0.69959500  1
loop_
_geom_bond_atom_site_label_1
_geom_bond_atom_site_label_2
_geom_bond_distance
_geom_bond_site_symmetry_2
Fe0 O5 1.960037 1_555
Fe0 O6 1.964871 1_455
Fe0 O6 1.965138 1_555
Fe0 O1 2.153789 1_554
Fe0 O0 2.157369 1_555
Fe0 O0 2.157824 1_455
Fe1 O7 1.933670 1_555
Fe1 O5 1.970999 1_555
Fe1 O5 1.971033 1_455
Fe1 O2 2.153503 1_555
Fe1 O2 2.153661 1_455
Fe1 O3 2.173175 1_545
Fe2 O4 1.959261 1_555
Fe2 O7 1.964748 1_655
Fe2 O7 1.965002 1_555
Fe2 O0 2.153691 1_556
Fe2 O1 2.157033 1_555
Fe2 O1 2.157475 1_655
Fe3 O6 1.933111 1_555
Fe3 O4 1.971159 1_555
Fe3 O4 1.971202 1_655
Fe3 O3 2.153330 1_555
Fe3 O3 2.153444 1_655
Fe3 O2 2.173484 1_565
H0 O0 0.969851 1_555
H1 O1 0.969876 1_555
H2 O2 0.969327 1_555
H3 O3 0.970318 1_555
