# generated using pymatgen
data_KRbCl2
_symmetry_space_group_name_H-M   'P 1'
_cell_length_a   7.91658225
_cell_length_b   7.91658225
_cell_length_c   7.91658165
_cell_angle_alpha   33.45854670
_cell_angle_beta   33.45854670
_cell_angle_gamma   33.45854338
_symmetry_Int_Tables_number   1
_chemical_formula_structural   KRbCl2
_chemical_formula_sum   'K1 Rb1 Cl2'
_cell_volume   134.31187851
_cell_formula_units_Z   1
loop_
 _symmetry_equiv_pos_site_id
 _symmetry_equiv_pos_as_xyz
  1  'x, y, z'
loop_
 _atom_site_type_symbol
 _atom_site_label
 _atom_site_symmetry_multiplicity
 _atom_site_fract_x
 _atom_site_fract_y
 _atom_site_fract_z
 _atom_site_occupancy
  K  K0  1  0.00000000  0.00000000  -0.00000000  1
  Rb  Rb0  1  0.50000000  0.50000000  0.50000000  1
  Cl  Cl0  1  0.25407007  0.25407007  0.25407007  1
  Cl  Cl1  1  0.74592993  0.74592993  0.74592993  1
loop_
_geom_bond_atom_site_label_1
_geom_bond_atom_site_label_2
_geom_bond_distance
_geom_bond_site_symmetry_2
Cl0 K0 3.174282 1_556
Cl0 K0 3.174282 1_655
Cl0 K0 3.174282 1_565
Cl0 Rb0 3.279751 1_554
Cl0 Rb0 3.279751 1_455
Cl0 Rb0 3.279751 1_545
Cl1 K0 3.174282 1_665
Cl1 K0 3.174282 1_566
Cl1 K0 3.174282 1_656
Cl1 Rb0 3.279751 1_556
Cl1 Rb0 3.279751 1_655
Cl1 Rb0 3.279751 1_565
