# generated using pymatgen
data_Zn(AgO2)2
_symmetry_space_group_name_H-M   'P 1'
_cell_length_a   6.40680398
_cell_length_b   6.40680398
_cell_length_c   15.36182500
_cell_angle_alpha   90.00000000
_cell_angle_beta   90.00000000
_cell_angle_gamma   119.99999981
_symmetry_Int_Tables_number   1
_chemical_formula_structural   Zn(AgO2)2
_chemical_formula_sum   'Zn6 Ag12 O24'
_cell_volume   546.08006110
_cell_formula_units_Z   6
loop_
 _symmetry_equiv_pos_site_id
 _symmetry_equiv_pos_as_xyz
  1  'x, y, z'
loop_
 _atom_site_type_symbol
 _atom_site_label
 _atom_site_symmetry_multiplicity
 _atom_site_fract_x
 _atom_site_fract_y
 _atom_site_fract_z
 _atom_site_occupancy
  Zn  Zn0  1  0.00000000  0.00000000  0.95152500  1
  Zn  Zn1  1  0.66666700  0.33333300  0.61962300  1
  Zn  Zn2  1  0.33333300  0.66666700  0.66547500  1
  Zn  Zn3  1  0.33333300  0.66666700  0.28676200  1
  Zn  Zn4  1  0.66666700  0.33333300  0.99806300  1
  Zn  Zn5  1  0.66666700  0.33333300  0.37965400  1
  Ag  Ag0  1  0.99834100  0.49917100  0.83316200  1
  Ag  Ag1  1  0.50082900  0.49917100  0.83316200  1
  Ag  Ag2  1  0.66102000  0.83051000  0.50036300  1
  Ag  Ag3  1  0.50082900  0.00165900  0.83316200  1
  Ag  Ag4  1  0.16949000  0.83051000  0.50036300  1
  Ag  Ag5  1  0.00000000  0.00000000  0.33439600  1
  Ag  Ag6  1  0.00000000  0.00000000  0.70982500  1
  Ag  Ag7  1  0.33666400  0.16833200  0.16633300  1
  Ag  Ag8  1  0.16949000  0.33898000  0.50036300  1
  Ag  Ag9  1  0.83166800  0.16833200  0.16633300  1
  Ag  Ag10  1  0.83166800  0.66333600  0.16633300  1
  Ag  Ag11  1  0.33333300  0.66666700  0.04530800  1
  O  O0  1  0.35883100  0.17941600  0.91279700  1
  O  O1  1  0.66666700  0.33333300  0.74996900  1
  O  O2  1  0.82058400  0.17941600  0.91279700  1
  O  O3  1  0.82058400  0.64116900  0.91279700  1
  O  O4  1  0.02045100  0.51022600  0.58488900  1
  O  O5  1  0.18780400  0.37560800  0.75825500  1
  O  O6  1  0.33333300  0.66666700  0.41794300  1
  O  O7  1  0.18780400  0.81219600  0.75825500  1
  O  O8  1  0.33333300  0.66666700  0.91007700  1
  O  O9  1  0.48977400  0.51022600  0.58488900  1
  O  O10  1  0.48977400  0.97954900  0.58488900  1
  O  O11  1  0.62439200  0.81219600  0.75825500  1
  O  O12  1  0.68252900  0.84126500  0.24161500  1
  O  O13  1  0.83815100  0.67630300  0.42112200  1
  O  O14  1  0.83815100  0.16184900  0.42112200  1
  O  O15  1  0.00000000  0.00000000  0.07965100  1
  O  O16  1  0.00000000  0.00000000  0.57057800  1
  O  O17  1  0.15873500  0.84126500  0.24161500  1
  O  O18  1  0.15873500  0.31747100  0.24161500  1
  O  O19  1  0.32369700  0.16184900  0.42112200  1
  O  O20  1  0.52135400  0.04270800  0.09080300  1
  O  O21  1  0.52135400  0.47864600  0.09080300  1
  O  O22  1  0.66666700  0.33333300  0.25331500  1
  O  O23  1  0.95729200  0.47864600  0.09080300  1
loop_
_geom_bond_atom_site_label_1
_geom_bond_atom_site_label_2
_geom_bond_distance
_geom_bond_site_symmetry_2
Ag0 O7 2.094084 1_655
Ag0 O5 2.094088 1_655
Ag0 O3 2.158072 1_555
Ag0 O2 2.158072 1_555
Ag0 O8 2.202452 1_655
Ag0 O1 2.240513 1_555
Ag1 O5 2.094083 1_555
Ag1 O11 2.094083 1_555
Ag1 O3 2.158072 1_555
Ag1 O0 2.158072 1_555
Ag1 O8 2.202452 1_555
Ag1 O1 2.240522 1_555
Ag2 O16 2.168158 1_665
Ag2 O9 2.202070 1_555
Ag2 O10 2.202075 1_555
Ag2 O13 2.206115 1_555
Ag2 O14 2.206120 1_565
Ag2 O6 2.215572 1_555
Ag3 O7 2.094084 1_545
Ag3 O11 2.094088 1_545
Ag3 O0 2.158072 1_555
Ag3 O2 2.158072 1_555
Ag3 O8 2.202452 1_545
Ag3 O1 2.240513 1_555
Ag4 O16 2.168158 1_565
Ag4 O10 2.202070 1_555
Ag4 O4 2.202070 1_555
Ag4 O19 2.206120 1_565
Ag4 O13 2.206120 1_455
Ag4 O6 2.215567 1_555
Ag5 O13 2.236207 1_445
Ag5 O19 2.236207 1_555
Ag5 O14 2.236212 1_455
Ag5 O17 2.265879 1_545
Ag5 O12 2.265883 1_445
Ag5 O18 2.265883 1_555
Ag6 O16 2.139088 1_555
Ag6 O7 2.212857 1_545
Ag6 O5 2.212857 1_555
Ag6 O11 2.212857 1_445
Ag7 O20 2.084830 1_555
Ag7 O21 2.084830 1_555
Ag7 O17 2.153862 1_545
Ag7 O18 2.153867 1_555
Ag7 O22 2.266721 1_555
Ag7 O15 2.294000 1_555
Ag8 O16 2.168158 1_555
Ag8 O9 2.202070 1_555
Ag8 O4 2.202075 1_555
Ag8 O19 2.206115 1_555
Ag8 O14 2.206120 1_455
Ag8 O6 2.215572 1_555
Ag9 O23 2.084830 1_555
Ag9 O20 2.084830 1_555
Ag9 O12 2.153862 1_545
Ag9 O18 2.153862 1_655
Ag9 O22 2.266716 1_555
Ag9 O15 2.294000 1_655
Ag10 O23 2.084830 1_555
Ag10 O21 2.084830 1_555
Ag10 O17 2.153862 1_655
Ag10 O12 2.153867 1_555
Ag10 O22 2.266721 1_555
Ag10 O15 2.294000 1_665
Ag11 O8 2.077395 1_554
Ag11 O20 2.200387 1_565
Ag11 O23 2.200387 1_455
Ag11 O21 2.200392 1_555
O0 Zn0 2.077945 1_555
O0 Zn4 2.152440 1_555
O1 Zn1 2.002352 1_555
O2 Zn0 2.077951 1_655
O2 Zn4 2.152431 1_555
O3 Zn0 2.077945 1_665
O3 Zn4 2.152440 1_555
O4 Zn1 2.034182 1_455
O4 Zn2 2.132194 1_555
O5 Zn2 2.153924 1_555
O6 Zn3 2.015180 1_555
O7 Zn2 2.153919 1_555
O9 Zn1 2.034193 1_555
O9 Zn2 2.132194 1_555
O10 Zn1 2.034182 1_565
O10 Zn2 2.132194 1_555
O11 Zn2 2.153924 1_555
O12 Zn3 2.057887 1_555
O13 Zn5 2.006747 1_555
O14 Zn5 2.006736 1_555
O15 Zn0 1.968249 1_554
O17 Zn3 2.057887 1_555
O18 Zn3 2.057887 1_555
O19 Zn5 2.006747 1_555
O20 Zn4 2.151712 1_554
O21 Zn4 2.151716 1_554
O22 Zn5 1.940798 1_555
O23 Zn4 2.151712 1_554
