# generated using pymatgen
data_ErHfF7
_symmetry_space_group_name_H-M   'P 1'
_cell_length_a   5.62698966
_cell_length_b   5.94607355
_cell_length_c   8.09911626
_cell_angle_alpha   102.68361498
_cell_angle_beta   90.00000000
_cell_angle_gamma   90.00000000
_symmetry_Int_Tables_number   1
_chemical_formula_structural   ErHfF7
_chemical_formula_sum   'Er2 Hf2 F14'
_cell_volume   264.37150888
_cell_formula_units_Z   2
loop_
 _symmetry_equiv_pos_site_id
 _symmetry_equiv_pos_as_xyz
  1  'x, y, z'
loop_
 _atom_site_type_symbol
 _atom_site_label
 _atom_site_symmetry_multiplicity
 _atom_site_fract_x
 _atom_site_fract_y
 _atom_site_fract_z
 _atom_site_occupancy
  Er  Er0  1  0.69852415  0.65475921  0.68613935  1
  Er  Er1  1  0.19852415  0.34524079  0.31386065  1
  Hf  Hf0  1  0.70802910  0.81215787  0.22557219  1
  Hf  Hf1  1  0.20802910  0.18784213  0.77442781  1
  F  F0  1  0.89357757  0.45777727  0.47708593  1
  F  F1  1  0.39357757  0.54222273  0.52291407  1
  F  F2  1  0.43187915  0.92771133  0.76960129  1
  F  F3  1  0.93187915  0.07228867  0.23039871  1
  F  F4  1  0.95131614  0.95148628  0.75910240  1
  F  F5  1  0.45131614  0.04851372  0.24089760  1
  F  F6  1  0.99103975  0.45541564  0.78882527  1
  F  F7  1  0.49103975  0.54458436  0.21117473  1
  F  F8  1  0.69813548  0.75579762  0.97549905  1
  F  F9  1  0.19813548  0.24420238  0.02450095  1
  F  F10  1  0.70354260  0.86648220  0.47689498  1
  F  F11  1  0.20354260  0.13351780  0.52310502  1
  F  F12  1  0.50031705  0.38149606  0.78353050  1
  F  F13  1  0.00031705  0.61850394  0.21646950  1
loop_
_geom_bond_atom_site_label_1
_geom_bond_atom_site_label_2
_geom_bond_distance
_geom_bond_site_symmetry_2
Er0 F0 2.138318 1_555
Er0 F1 2.179760 1_555
Er0 F2 2.204653 1_555
Er0 F4 2.242255 1_555
Er0 F12 2.251449 1_555
Er0 F8 2.287995 1_555
Er0 F6 2.288838 1_555
Er0 F10 2.322618 1_555
Er1 F1 2.138318 1_555
Er1 F0 2.179760 1_455
Er1 F3 2.204653 1_455
Er1 F5 2.242255 1_555
Er1 F13 2.251449 1_555
Er1 F9 2.287995 1_555
Er1 F7 2.288838 1_555
Er1 F11 2.322618 1_555
F2 Hf1 1.988474 1_565
F3 Hf0 1.988474 1_545
F4 Hf1 2.000141 1_665
F5 Hf0 2.000141 1_545
F6 Hf1 1.988537 1_655
F7 Hf0 1.988537 1_555
F8 Hf0 1.979766 1_556
F9 Hf1 1.979766 1_554
F10 Hf0 1.989843 1_555
F11 Hf1 1.989843 1_555
F12 Hf1 1.999777 1_555
F13 Hf0 1.999777 1_455
