# generated using pymatgen
data_NaCoO2
_symmetry_space_group_name_H-M   'P 1'
_cell_length_a   3.00972721
_cell_length_b   3.00972721
_cell_length_c   5.50827100
_cell_angle_alpha   90.00000000
_cell_angle_beta   90.00000000
_cell_angle_gamma   119.99998274
_symmetry_Int_Tables_number   1
_chemical_formula_structural   NaCoO2
_chemical_formula_sum   'Na1 Co1 O2'
_cell_volume   43.21159298
_cell_formula_units_Z   1
loop_
 _symmetry_equiv_pos_site_id
 _symmetry_equiv_pos_as_xyz
  1  'x, y, z'
loop_
 _atom_site_type_symbol
 _atom_site_label
 _atom_site_symmetry_multiplicity
 _atom_site_fract_x
 _atom_site_fract_y
 _atom_site_fract_z
 _atom_site_occupancy
  Na  Na0  1  0.00000000  0.00000000  0.50000000  1
  Co  Co0  1  0.00000000  0.00000000  0.00000000  1
  O  O0  1  0.33333300  0.66666700  0.19751200  1
  O  O1  1  0.66666700  0.33333300  0.80248800  1
loop_
_geom_bond_atom_site_label_1
_geom_bond_atom_site_label_2
_geom_bond_distance
_geom_bond_site_symmetry_2
Na0 O1 2.407417 1_455
Na0 O0 2.407417 1_545
Na0 O1 2.407419 1_555
Na0 O0 2.407419 1_445
Na0 O1 2.407419 1_445
Na0 O0 2.407419 1_555
Co0 O0 2.050150 1_545
Co0 O1 2.050150 1_454
Co0 O0 2.050152 1_445
Co0 O1 2.050152 1_554
Co0 O0 2.050152 1_555
Co0 O1 2.050152 1_444
