# generated using pymatgen
data_Zr2Ti3(PbO3)5
_symmetry_space_group_name_H-M   'P 1'
_cell_length_a   4.01868900
_cell_length_b   4.48972100
_cell_length_c   19.87734200
_cell_angle_alpha   90.00000000
_cell_angle_beta   90.00000000
_cell_angle_gamma   90.00000000
_symmetry_Int_Tables_number   1
_chemical_formula_structural   Zr2Ti3(PbO3)5
_chemical_formula_sum   'Zr2 Ti3 Pb5 O15'
_cell_volume   358.64275509
_cell_formula_units_Z   1
loop_
 _symmetry_equiv_pos_site_id
 _symmetry_equiv_pos_as_xyz
  1  'x, y, z'
loop_
 _atom_site_type_symbol
 _atom_site_label
 _atom_site_symmetry_multiplicity
 _atom_site_fract_x
 _atom_site_fract_y
 _atom_site_fract_z
 _atom_site_occupancy
  Zr  Zr0  1  0.50000000  0.47952100  0.10523100  1
  Zr  Zr1  1  0.50000000  0.47952100  0.89476900  1
  Ti  Ti0  1  0.50000000  0.48664700  0.30659200  1
  Ti  Ti1  1  0.50000000  0.48616800  0.50000000  1
  Ti  Ti2  1  0.50000000  0.48664700  0.69340800  1
  Pb  Pb0  1  0.00000000  0.04020400  0.00000000  1
  Pb  Pb1  1  0.00000000  0.04089800  0.20937300  1
  Pb  Pb2  1  0.00000000  0.04547400  0.40349800  1
  Pb  Pb3  1  0.00000000  0.04547400  0.59650200  1
  Pb  Pb4  1  0.00000000  0.04089800  0.79062700  1
  O  O0  1  0.50000000  0.91863600  0.10494200  1
  O  O1  1  0.50000000  0.87652200  0.30575900  1
  O  O2  1  0.50000000  0.87526000  0.50000000  1
  O  O3  1  0.50000000  0.87652200  0.69424100  1
  O  O4  1  0.50000000  0.91863600  0.89505800  1
  O  O5  1  0.00000000  0.37240000  0.10581700  1
  O  O6  1  0.00000000  0.39366300  0.30716300  1
  O  O7  1  0.00000000  0.39255800  0.50000000  1
  O  O8  1  0.00000000  0.39366300  0.69283700  1
  O  O9  1  0.00000000  0.37240000  0.89418300  1
  O  O10  1  0.50000000  0.39081800  0.00000000  1
  O  O11  1  0.50000000  0.38238700  0.21112400  1
  O  O12  1  0.50000000  0.38070300  0.40376600  1
  O  O13  1  0.50000000  0.38070300  0.59623400  1
  O  O14  1  0.50000000  0.38238700  0.78887600  1
loop_
_geom_bond_atom_site_label_1
_geom_bond_atom_site_label_2
_geom_bond_distance
_geom_bond_site_symmetry_2
O0 Zr0 1.971512 1_555
O0 Zr0 2.518224 1_565
O1 Ti0 1.750508 1_555
O2 Ti1 1.746915 1_555
O3 Ti2 1.750508 1_555
O4 Zr1 1.971512 1_555
O4 Zr1 2.518224 1_565
O5 Zr0 2.066133 1_555
O5 Zr0 2.066133 1_455
O5 Pb1 2.540133 1_555
O5 Pb0 2.578488 1_555
O6 Ti0 2.052286 1_455
O6 Ti0 2.052286 1_555
O6 Pb2 2.471962 1_555
O6 Pb1 2.507360 1_555
O7 Ti1 2.052828 1_455
O7 Ti1 2.052828 1_555
O7 Pb3 2.471403 1_555
O7 Pb2 2.471403 1_555
O8 Ti2 2.052286 1_555
O8 Ti2 2.052286 1_455
O8 Pb3 2.471962 1_555
O8 Pb4 2.507360 1_555
O9 Zr1 2.066133 1_455
O9 Zr1 2.066133 1_555
O9 Pb4 2.540133 1_555
O9 Pb0 2.578488 1_556
O10 Zr0 2.129288 1_555
O10 Zr1 2.129288 1_554
O10 Pb0 2.552536 1_655
O10 Pb0 2.552536 1_555
O11 Ti0 1.954531 1_555
O11 Zr0 2.149575 1_555
O11 Pb1 2.527716 1_555
O11 Pb1 2.527716 1_655
O12 Ti1 1.970610 1_555
O12 Ti0 1.989266 1_555
O12 Pb2 2.510533 1_555
O12 Pb2 2.510533 1_655
O13 Ti1 1.970610 1_555
O13 Ti2 1.989266 1_555
O13 Pb3 2.510533 1_555
O13 Pb3 2.510533 1_655
O14 Ti2 1.954531 1_555
O14 Zr1 2.149575 1_555
O14 Pb4 2.527716 1_655
O14 Pb4 2.527716 1_555
