# generated using pymatgen
data_Na5OsN4
_symmetry_space_group_name_H-M   'P 1'
_cell_length_a   5.75477400
_cell_length_b   7.30470500
_cell_length_c   7.74286600
_cell_angle_alpha   90.00000000
_cell_angle_beta   90.00000000
_cell_angle_gamma   90.00000000
_symmetry_Int_Tables_number   1
_chemical_formula_structural   Na5OsN4
_chemical_formula_sum   'Na10 Os2 N8'
_cell_volume   325.48628826
_cell_formula_units_Z   2
loop_
 _symmetry_equiv_pos_site_id
 _symmetry_equiv_pos_as_xyz
  1  'x, y, z'
loop_
 _atom_site_type_symbol
 _atom_site_label
 _atom_site_symmetry_multiplicity
 _atom_site_fract_x
 _atom_site_fract_y
 _atom_site_fract_z
 _atom_site_occupancy
  Na  Na0  1  0.76219100  0.23747600  0.31046500  1
  Na  Na1  1  0.76219100  0.23747600  0.68953500  1
  Na  Na2  1  0.76219100  0.76252400  0.31046500  1
  Na  Na3  1  0.76219100  0.76252400  0.68953500  1
  Na  Na4  1  0.23780900  0.26252400  0.18953500  1
  Na  Na5  1  0.23780900  0.26252400  0.81046500  1
  Na  Na6  1  0.23780900  0.73747600  0.18953500  1
  Na  Na7  1  0.23780900  0.73747600  0.81046500  1
  Na  Na8  1  0.33338400  0.50000000  0.50000000  1
  Na  Na9  1  0.66661600  0.00000000  0.00000000  1
  Os  Os0  1  0.28655000  0.00000000  0.50000000  1
  Os  Os1  1  0.71345000  0.50000000  0.00000000  1
  N  N0  1  0.10609200  0.79130700  0.50000000  1
  N  N1  1  0.10609200  0.20869300  0.50000000  1
  N  N2  1  0.89390800  0.70869300  0.00000000  1
  N  N3  1  0.89390800  0.29130700  0.00000000  1
  N  N4  1  0.53456700  0.50000000  0.19812400  1
  N  N5  1  0.53456700  0.50000000  0.80187600  1
  N  N6  1  0.46543300  0.00000000  0.30187600  1
  N  N7  1  0.46543300  0.00000000  0.69812400  1
loop_
_geom_bond_atom_site_label_1
_geom_bond_atom_site_label_2
_geom_bond_distance
_geom_bond_site_symmetry_2
N0 Os0 1.844557 1_565
N0 Na2 2.472776 1_455
N0 Na3 2.472776 1_455
N0 Na8 2.497781 1_555
N0 Na6 2.551053 1_555
N0 Na7 2.551053 1_555
N1 Os0 1.844557 1_555
N1 Na1 2.472776 1_455
N1 Na0 2.472776 1_455
N1 Na8 2.497781 1_555
N1 Na5 2.551053 1_555
N1 Na4 2.551053 1_555
N2 Os1 1.844557 1_555
N2 Na7 2.472776 1_654
N2 Na6 2.472776 1_655
N2 Na9 2.497781 1_565
N2 Na2 2.551053 1_555
N2 Na3 2.551053 1_554
N3 Os1 1.844557 1_555
N3 Na4 2.472776 1_655
N3 Na5 2.472776 1_654
N3 Na9 2.497781 1_555
N3 Na1 2.551053 1_554
N3 Na0 2.551053 1_555
N4 Os1 1.847439 1_555
N4 Na6 2.435175 1_555
N4 Na4 2.435175 1_555
N4 Na2 2.479909 1_555
N4 Na0 2.479909 1_555
N4 Na8 2.608407 1_555
N5 Os1 1.847439 1_556
N5 Na5 2.435175 1_555
N5 Na7 2.435175 1_555
N5 Na3 2.479909 1_555
N5 Na1 2.479909 1_555
N5 Na8 2.608407 1_555
N6 Os0 1.847439 1_555
N6 Na0 2.435175 1_555
N6 Na2 2.435175 1_545
N6 Na6 2.479909 1_545
N6 Na4 2.479909 1_555
N6 Na9 2.608407 1_555
N7 Os0 1.847439 1_555
N7 Na1 2.435175 1_555
N7 Na3 2.435175 1_545
N7 Na5 2.479909 1_555
N7 Na7 2.479909 1_545
N7 Na9 2.608407 1_556
