# generated using pymatgen
data_Sc2GaB2Ir5
_symmetry_space_group_name_H-M   'P 1'
_cell_length_a   9.40553400
_cell_length_b   9.40553400
_cell_length_c   3.07333300
_cell_angle_alpha   90.00000000
_cell_angle_beta   90.00000000
_cell_angle_gamma   90.00000000
_symmetry_Int_Tables_number   1
_chemical_formula_structural   Sc2GaB2Ir5
_chemical_formula_sum   'Sc4 Ga2 B4 Ir10'
_cell_volume   271.87954511
_cell_formula_units_Z   2
loop_
 _symmetry_equiv_pos_site_id
 _symmetry_equiv_pos_as_xyz
  1  'x, y, z'
loop_
 _atom_site_type_symbol
 _atom_site_label
 _atom_site_symmetry_multiplicity
 _atom_site_fract_x
 _atom_site_fract_y
 _atom_site_fract_z
 _atom_site_occupancy
  Sc  Sc0  1  0.67523700  0.17523700  0.00000000  1
  Sc  Sc1  1  0.32476300  0.82476300  0.00000000  1
  Sc  Sc2  1  0.17523700  0.32476300  0.00000000  1
  Sc  Sc3  1  0.82476300  0.67523700  0.00000000  1
  Ga  Ga0  1  0.00000000  0.00000000  0.00000000  1
  Ga  Ga1  1  0.50000000  0.50000000  0.00000000  1
  B  B0  1  0.12499800  0.62499800  0.00000000  1
  B  B1  1  0.87500200  0.37500200  0.00000000  1
  B  B2  1  0.62499800  0.87500200  0.00000000  1
  B  B3  1  0.37500200  0.12499800  0.00000000  1
  Ir  Ir0  1  0.21586700  0.07149600  0.50000000  1
  Ir  Ir1  1  0.78413300  0.92850400  0.50000000  1
  Ir  Ir2  1  0.07149600  0.78413300  0.50000000  1
  Ir  Ir3  1  0.71586700  0.42850400  0.50000000  1
  Ir  Ir4  1  0.92850400  0.21586700  0.50000000  1
  Ir  Ir5  1  0.28413300  0.57149600  0.50000000  1
  Ir  Ir6  1  0.57149600  0.71586700  0.50000000  1
  Ir  Ir7  1  0.42850400  0.28413300  0.50000000  1
  Ir  Ir8  1  0.50000000  0.00000000  0.50000000  1
  Ir  Ir9  1  0.00000000  0.50000000  0.50000000  1
loop_
_geom_bond_atom_site_label_1
_geom_bond_atom_site_label_2
_geom_bond_distance
_geom_bond_site_symmetry_2
Ga0 Ir0 2.633599 1_555
Ga0 Ir0 2.633599 1_554
Ga0 Ir2 2.633599 1_544
Ga0 Ir2 2.633599 1_545
Ga0 Ir4 2.633599 1_455
Ga0 Ir4 2.633599 1_454
Ga0 Ir1 2.633599 1_444
Ga0 Ir1 2.633599 1_445
Ga1 Ir6 2.633599 1_555
Ga1 Ir6 2.633599 1_554
Ga1 Ir3 2.633599 1_554
Ga1 Ir3 2.633599 1_555
Ga1 Ir5 2.633599 1_555
Ga1 Ir5 2.633599 1_554
Ga1 Ir7 2.633599 1_555
Ga1 Ir7 2.633599 1_554
B0 Ir5 2.203368 1_555
B0 Ir5 2.203368 1_554
B0 Ir2 2.203368 1_554
B0 Ir2 2.203368 1_555
B0 Ir9 2.264014 1_555
B0 Ir9 2.264014 1_554
B0 Sc1 2.657161 1_555
B0 Sc2 2.863132 1_555
B0 Sc3 2.863132 1_455
B1 Ir4 2.203368 1_555
B1 Ir4 2.203368 1_554
B1 Ir3 2.203368 1_554
B1 Ir3 2.203368 1_555
B1 Ir9 2.264014 1_655
B1 Ir9 2.264014 1_654
B1 Sc0 2.657161 1_555
B1 Sc3 2.863132 1_555
B1 Sc2 2.863132 1_655
B2 Ir6 2.203368 1_555
B2 Ir6 2.203368 1_554
B2 Ir1 2.203368 1_554
B2 Ir1 2.203368 1_555
B2 Ir8 2.264014 1_565
B2 Ir8 2.264014 1_564
B2 Sc3 2.657161 1_555
B2 Sc1 2.863132 1_555
B2 Sc0 2.863132 1_565
B3 Ir7 2.203368 1_555
B3 Ir7 2.203368 1_554
B3 Ir0 2.203368 1_554
B3 Ir0 2.203368 1_555
B3 Ir8 2.264014 1_555
B3 Ir8 2.264014 1_554
B3 Sc2 2.657161 1_555
B3 Sc0 2.863132 1_555
B3 Sc1 2.863132 1_545
Ir0 Sc2 2.860391 1_556
Ir0 Sc2 2.860391 1_555
Ir0 Sc1 2.965775 1_545
Ir0 Sc1 2.965775 1_546
Ir1 Sc3 2.860391 1_555
Ir1 Sc3 2.860391 1_556
Ir1 Sc0 2.965775 1_566
Ir1 Sc0 2.965775 1_565
Ir2 Sc1 2.860391 1_556
Ir2 Sc1 2.860391 1_555
Ir2 Sc3 2.965775 1_455
Ir2 Sc3 2.965775 1_456
Ir3 Sc0 2.860391 1_555
Ir3 Sc0 2.860391 1_556
Ir3 Sc3 2.965775 1_556
Ir3 Sc3 2.965775 1_555
Ir4 Sc0 2.860391 1_556
Ir4 Sc0 2.860391 1_555
Ir4 Sc2 2.965775 1_656
Ir4 Sc2 2.965775 1_655
Ir5 Sc1 2.860391 1_555
Ir5 Sc1 2.860391 1_556
Ir5 Sc2 2.965775 1_556
Ir5 Sc2 2.965775 1_555
Ir6 Sc3 2.860391 1_556
Ir6 Sc3 2.860391 1_555
Ir6 Sc1 2.965775 1_555
Ir6 Sc1 2.965775 1_556
Ir7 Sc2 2.860391 1_556
Ir7 Sc2 2.860391 1_555
Ir7 Sc0 2.965775 1_555
Ir7 Sc0 2.965775 1_556
Ir8 Sc0 2.791855 1_555
Ir8 Sc0 2.791855 1_556
Ir8 Sc1 2.791855 1_545
Ir8 Sc1 2.791855 1_546
Ir9 Sc2 2.791855 1_555
Ir9 Sc2 2.791855 1_556
Ir9 Sc3 2.791855 1_455
Ir9 Sc3 2.791855 1_456
