# generated using pymatgen
data_LaLuMg2
_symmetry_space_group_name_H-M   'P 1'
_cell_length_a   5.43398568
_cell_length_b   5.43398568
_cell_length_c   5.43398568
_cell_angle_alpha   60.00000000
_cell_angle_beta   60.00000000
_cell_angle_gamma   60.00000000
_symmetry_Int_Tables_number   1
_chemical_formula_structural   LaLuMg2
_chemical_formula_sum   'La1 Lu1 Mg2'
_cell_volume   113.45939668
_cell_formula_units_Z   1
loop_
 _symmetry_equiv_pos_site_id
 _symmetry_equiv_pos_as_xyz
  1  'x, y, z'
loop_
 _atom_site_type_symbol
 _atom_site_label
 _atom_site_symmetry_multiplicity
 _atom_site_fract_x
 _atom_site_fract_y
 _atom_site_fract_z
 _atom_site_occupancy
  La  La0  1  0.50000000  0.50000000  0.50000000  1
  Lu  Lu0  1  0.00000000  0.00000000  -0.00000000  1
  Mg  Mg0  1  0.25000000  0.25000000  0.25000000  1
  Mg  Mg1  1  0.75000000  0.75000000  0.75000000  1
loop_
_geom_bond_atom_site_label_1
_geom_bond_atom_site_label_2
_geom_bond_distance
_geom_bond_site_symmetry_2
La0 Mg1 3.327623 1_555
La0 Mg0 3.327623 1_655
La0 Mg1 3.327623 1_554
La0 Mg0 3.327623 1_565
La0 Mg1 3.327623 1_455
La0 Mg0 3.327623 1_555
La0 Mg1 3.327623 1_545
La0 Mg0 3.327623 1_556
La0 Lu0 3.842408 1_556
La0 Lu0 3.842408 1_566
La0 Lu0 3.842408 1_655
La0 Lu0 3.842408 1_656
La0 Lu0 3.842408 1_665
La0 Lu0 3.842408 1_565
Lu0 Mg0 3.327623 1_455
Lu0 Mg0 3.327623 1_555
Lu0 Mg1 3.327623 1_444
Lu0 Mg1 3.327623 1_544
Lu0 Mg1 3.327623 1_454
Lu0 Mg0 3.327623 1_545
Lu0 Mg1 3.327623 1_445
Lu0 Mg0 3.327623 1_554
