# generated using pymatgen
data_Ca(NiO2)2
_symmetry_space_group_name_H-M   'P 1'
_cell_length_a   6.07991020
_cell_length_b   6.25030257
_cell_length_c   6.25191539
_cell_angle_alpha   89.97059518
_cell_angle_beta   120.75910702
_cell_angle_gamma   120.95046762
_symmetry_Int_Tables_number   1
_chemical_formula_structural   Ca(NiO2)2
_chemical_formula_sum   'Ca2 Ni4 O8'
_cell_volume   163.60470882
_cell_formula_units_Z   2
loop_
 _symmetry_equiv_pos_site_id
 _symmetry_equiv_pos_as_xyz
  1  'x, y, z'
loop_
 _atom_site_type_symbol
 _atom_site_label
 _atom_site_symmetry_multiplicity
 _atom_site_fract_x
 _atom_site_fract_y
 _atom_site_fract_z
 _atom_site_occupancy
  Ca  Ca0  1  0.24966700  0.12716500  0.87745400  1
  Ca  Ca1  1  0.75025500  0.87288200  0.12247500  1
  Ni  Ni0  1  0.49999100  0.00000700  0.49999900  1
  Ni  Ni1  1  0.50005900  0.50005800  0.50004300  1
  Ni  Ni2  1  0.00001400  0.49994100  0.00000900  1
  Ni  Ni3  1  0.99999200  0.49996800  0.49996800  1
  O  O0  1  0.04931600  0.73797200  0.23782200  1
  O  O1  1  0.45473500  0.76089300  0.68878300  1
  O  O2  1  0.45210800  0.68581400  0.25858400  1
  O  O3  1  0.95574700  0.69402700  0.68938200  1
  O  O4  1  0.54798000  0.31414500  0.74150200  1
  O  O5  1  0.54513300  0.23906200  0.31113900  1
  O  O6  1  0.04453100  0.30608700  0.31076300  1
  O  O7  1  0.95047300  0.26197900  0.76207700  1
loop_
_geom_bond_atom_site_label_1
_geom_bond_atom_site_label_2
_geom_bond_distance
_geom_bond_site_symmetry_2
Ca0 O7 2.184771 1_455
Ca0 O4 2.184801 1_555
Ca0 O3 2.186996 1_445
Ca0 O5 2.189815 1_556
Ca1 O0 2.184581 1_655
Ca1 O2 2.184898 1_555
Ca1 O6 2.187297 1_665
Ca1 O1 2.189800 1_554
Ni0 O1 1.899932 1_545
Ni0 O5 1.899960 1_555
Ni0 O7 1.914911 1_555
Ni0 O0 1.915684 1_545
Ni0 O4 2.276653 1_555
Ni0 O2 2.277020 1_545
Ni1 O2 1.899481 1_555
Ni1 O4 1.900146 1_555
Ni1 O6 1.932898 1_555
Ni1 O3 1.933630 1_555
Ni1 O1 2.218749 1_555
Ni1 O5 2.218987 1_555
Ni2 O7 1.897053 1_454
Ni2 O0 1.897772 1_555
Ni2 O4 1.920850 1_454
Ni2 O2 1.921085 1_555
Ni2 O6 2.261170 1_555
Ni2 O3 2.261470 1_454
Ni3 O6 1.899397 1_655
Ni3 O3 1.899688 1_555
Ni3 O1 1.929509 1_655
Ni3 O5 1.929969 1_555
Ni3 O7 2.242784 1_555
Ni3 O0 2.242827 1_655
