# generated using pymatgen
data_B10H14S
_symmetry_space_group_name_H-M   'P 1'
_cell_length_a   7.60174200
_cell_length_b   12.29749500
_cell_length_c   12.79413400
_cell_angle_alpha   90.00000000
_cell_angle_beta   90.00000000
_cell_angle_gamma   90.00000000
_symmetry_Int_Tables_number   1
_chemical_formula_structural   B10H14S
_chemical_formula_sum   'B40 H56 S4'
_cell_volume   1196.02615056
_cell_formula_units_Z   4
loop_
 _symmetry_equiv_pos_site_id
 _symmetry_equiv_pos_as_xyz
  1  'x, y, z'
loop_
 _atom_site_type_symbol
 _atom_site_label
 _atom_site_symmetry_multiplicity
 _atom_site_fract_x
 _atom_site_fract_y
 _atom_site_fract_z
 _atom_site_occupancy
  B  B0  1  0.76967400  0.54310100  0.07079100  1
  B  B1  1  0.73032600  0.45689900  0.57079100  1
  B  B2  1  0.26967400  0.95689900  0.92920900  1
  B  B3  1  0.23032600  0.04310100  0.42920900  1
  B  B4  1  0.90663400  0.42678600  0.08104500  1
  B  B5  1  0.59336600  0.57321400  0.58104500  1
  B  B6  1  0.40663400  0.07321400  0.91895500  1
  B  B7  1  0.09336600  0.92678600  0.41895500  1
  B  B8  1  0.68608600  0.41271600  0.03637400  1
  B  B9  1  0.81391400  0.58728400  0.53637400  1
  B  B10  1  0.18608600  0.08728400  0.96362600  1
  B  B11  1  0.31391400  0.91271600  0.46362600  1
  B  B12  1  0.54185500  0.51458500  0.08503800  1
  B  B13  1  0.95814500  0.48541500  0.58503800  1
  B  B14  1  0.04185500  0.98541500  0.91496200  1
  B  B15  1  0.45814500  0.01458500  0.41496200  1
  B  B16  1  0.89864100  0.52517900  0.18495900  1
  B  B17  1  0.60135900  0.47482100  0.68495900  1
  B  B18  1  0.39864100  0.97482100  0.81504100  1
  B  B19  1  0.10135900  0.02517900  0.31504100  1
  B  B20  1  0.92546300  0.38335100  0.20865100  1
  B  B21  1  0.57453700  0.61664900  0.70865100  1
  B  B22  1  0.42546300  0.11664900  0.79134900  1
  B  B23  1  0.07453700  0.88335100  0.29134900  1
  B  B24  1  0.76884300  0.31849400  0.12559100  1
  B  B25  1  0.73115700  0.68150600  0.62559100  1
  B  B26  1  0.26884300  0.18150600  0.87440900  1
  B  B27  1  0.23115700  0.81849400  0.37440900  1
  B  B28  1  0.52709900  0.37651200  0.12848700  1
  B  B29  1  0.97290100  0.62348800  0.62848700  1
  B  B30  1  0.02709900  0.12348800  0.87151300  1
  B  B31  1  0.47290100  0.87651200  0.37151300  1
  B  B32  1  0.48885200  0.48880800  0.21362000  1
  B  B33  1  0.01114800  0.51119200  0.71362000  1
  B  B34  1  0.98885200  0.01119200  0.78638000  1
  B  B35  1  0.51114800  0.98880800  0.28638000  1
  B  B36  1  0.66219800  0.58232100  0.18697900  1
  B  B37  1  0.83780200  0.41767900  0.68697900  1
  B  B38  1  0.16219800  0.91767900  0.81302100  1
  B  B39  1  0.33780200  0.08232100  0.31302100  1
  H  H0  1  0.02565600  0.41656600  0.02161900  1
  H  H1  1  0.47434400  0.58343400  0.52161900  1
  H  H2  1  0.52565600  0.08343400  0.97838100  1
  H  H3  1  0.97434400  0.91656600  0.47838100  1
  H  H4  1  0.66190100  0.37711200  0.95069700  1
  H  H5  1  0.83809900  0.62288800  0.45069700  1
  H  H6  1  0.16190100  0.12288800  0.04930300  1
  H  H7  1  0.33809900  0.87711200  0.54930300  1
  H  H8  1  0.43829500  0.55665100  0.02789800  1
  H  H9  1  0.06170500  0.44334900  0.52789900  1
  H  H10  1  0.93829500  0.94334900  0.97210100  1
  H  H11  1  0.56170500  0.05665100  0.47210200  1
  H  H12  1  0.01283200  0.58693600  0.20804900  1
  H  H13  1  0.48716800  0.41306400  0.70804900  1
  H  H14  1  0.51283200  0.91306400  0.79195100  1
  H  H15  1  0.98716800  0.08693600  0.29195100  1
  H  H16  1  0.04601400  0.33983700  0.25031300  1
  H  H17  1  0.45398600  0.66016300  0.75031300  1
  H  H18  1  0.54601400  0.16016300  0.74968700  1
  H  H19  1  0.95398600  0.83983700  0.24968700  1
  H  H20  1  0.78741900  0.22461300  0.10543100  1
  H  H21  1  0.71258100  0.77538700  0.60543100  1
  H  H22  1  0.28741900  0.27538700  0.89456900  1
  H  H23  1  0.21258100  0.72461300  0.39456900  1
  H  H24  1  0.41038400  0.31502200  0.10975600  1
  H  H25  1  0.08961600  0.68497800  0.60975600  1
  H  H26  1  0.91038400  0.18497800  0.89024400  1
  H  H27  1  0.58961600  0.81502200  0.39024400  1
  H  H28  1  0.35654500  0.50741500  0.26001100  1
  H  H29  1  0.14345500  0.49258500  0.76001100  1
  H  H30  1  0.85654500  0.99258500  0.73998900  1
  H  H31  1  0.64345500  0.00741500  0.23998900  1
  H  H32  1  0.64556300  0.67503800  0.21264900  1
  H  H33  1  0.85443700  0.32496200  0.71264900  1
  H  H34  1  0.14556300  0.82496200  0.78735100  1
  H  H35  1  0.35443700  0.17503800  0.28735100  1
  H  H36  1  0.87339900  0.46460100  0.27032300  1
  H  H37  1  0.62660100  0.53539900  0.77032300  1
  H  H38  1  0.37339900  0.03539900  0.72967700  1
  H  H39  1  0.12660100  0.96460100  0.22967700  1
  H  H40  1  0.78095100  0.32423000  0.22888500  1
  H  H41  1  0.71904900  0.67577000  0.72888500  1
  H  H42  1  0.28095100  0.17577000  0.77111500  1
  H  H43  1  0.21904900  0.82423000  0.27111500  1
  H  H44  1  0.52982300  0.38433000  0.23206200  1
  H  H45  1  0.97017700  0.61567000  0.73206200  1
  H  H46  1  0.02982300  0.11567000  0.76793800  1
  H  H47  1  0.47017700  0.88433000  0.26793800  1
  H  H48  1  0.62327500  0.52458700  0.27187300  1
  H  H49  1  0.87672500  0.47541300  0.77187300  1
  H  H50  1  0.12327500  0.97541300  0.72812700  1
  H  H51  1  0.37672500  0.02458700  0.22812700  1
  H  H52  1  0.71521900  0.71649100  0.98044000  1
  H  H53  1  0.78478100  0.28350900  0.48044000  1
  H  H54  1  0.21521900  0.78350900  0.01956000  1
  H  H55  1  0.28478100  0.21649100  0.51956000  1
  S  S0  1  0.85409500  0.64836100  0.97873200  1
  S  S1  1  0.64590500  0.35163900  0.47873200  1
  S  S2  1  0.35409500  0.85163900  0.02126800  1
  S  S3  1  0.14590500  0.14836100  0.52126800  1
loop_
_geom_bond_atom_site_label_1
_geom_bond_atom_site_label_2
_geom_bond_distance
_geom_bond_site_symmetry_2
B0 B36 1.763483 1_555
B0 B16 1.772934 1_555
B0 B4 1.774026 1_555
B0 B12 1.776346 1_555
B0 B8 1.780047 1_555
B0 S0 1.864041 1_554
B1 B37 1.763483 1_555
B1 B17 1.772934 1_555
B1 B5 1.774026 1_555
B1 B13 1.776346 1_555
B1 B9 1.780047 1_555
B1 S1 1.864041 1_555
B2 B38 1.763483 1_555
B2 B6 1.774026 1_565
B2 S2 1.864041 1_556
B3 B39 1.763483 1_555
B3 B7 1.774026 1_545
B3 S3 1.864041 1_555
B4 H0 1.188476 1_655
B5 H1 1.188476 1_555
B6 H2 1.188476 1_555
B7 H3 1.188476 1_455
B8 H4 1.194603 1_554
B9 H5 1.194603 1_555
B10 H6 1.194603 1_556
B10 B2 1.780047 1_545
B11 H7 1.194603 1_555
B11 B3 1.780047 1_565
B12 H8 1.192389 1_555
B13 H9 1.192381 1_655
B14 H10 1.192381 1_455
B14 B2 1.776346 1_555
B15 H11 1.192389 1_555
B15 B3 1.776346 1_555
B16 H12 1.190612 1_655
B16 H36 1.335886 1_555
B17 H13 1.190612 1_555
B17 H37 1.335886 1_555
B18 H14 1.190612 1_555
B18 H38 1.335886 1_565
B18 B2 1.772934 1_555
B19 H15 1.190612 1_455
B19 H39 1.335886 1_545
B19 B3 1.772934 1_555
B20 H16 1.187540 1_655
B20 H36 1.333254 1_555
B20 H40 1.342535 1_555
B21 H17 1.187540 1_555
B21 H37 1.333254 1_555
B21 H41 1.342535 1_555
B22 H18 1.187540 1_555
B22 H38 1.333254 1_555
B22 H42 1.342535 1_555
B23 H19 1.187540 1_455
B23 H39 1.333254 1_555
B23 H43 1.342535 1_555
B24 H20 1.191361 1_555
B24 H40 1.326635 1_555
B25 H21 1.191361 1_555
B25 H41 1.326635 1_555
B26 H22 1.191361 1_555
B26 H42 1.326635 1_555
B27 H23 1.191361 1_555
B27 H43 1.326635 1_555
B28 H24 1.190134 1_555
B28 H44 1.328797 1_555
B29 H25 1.190134 1_655
B29 H45 1.328797 1_555
B30 H26 1.190134 1_455
B30 H46 1.328797 1_555
B31 H27 1.190134 1_555
B31 H47 1.328797 1_555
B32 H28 1.190042 1_555
B32 H48 1.339117 1_555
B32 H44 1.342919 1_555
B33 H29 1.190042 1_555
B33 H49 1.339117 1_455
B33 H45 1.342919 1_455
B34 H30 1.190042 1_545
B34 H50 1.339117 1_645
B34 H46 1.342919 1_655
B35 H31 1.190042 1_565
B35 H51 1.339117 1_565
B35 H47 1.342919 1_555
B36 H32 1.193264 1_555
B36 H48 1.330915 1_555
B37 H33 1.193264 1_555
B37 H49 1.330915 1_555
B38 H34 1.193264 1_555
B38 H50 1.330915 1_555
B39 H35 1.193264 1_555
B39 H51 1.330915 1_555
H52 S0 1.347937 1_555
H53 S1 1.347937 1_555
H54 S2 1.347937 1_555
H55 S3 1.347937 1_555
