# generated using pymatgen
data_Ag(MoSe)3
_symmetry_space_group_name_H-M   'P 1'
_cell_length_a   4.49059834
_cell_length_b   8.46385358
_cell_length_c   8.46240076
_cell_angle_alpha   120.00385435
_cell_angle_beta   90.00000000
_cell_angle_gamma   90.00000000
_symmetry_Int_Tables_number   1
_chemical_formula_structural   Ag(MoSe)3
_chemical_formula_sum   'Ag2 Mo6 Se6'
_cell_volume   278.53495480
_cell_formula_units_Z   2
loop_
 _symmetry_equiv_pos_site_id
 _symmetry_equiv_pos_as_xyz
  1  'x, y, z'
loop_
 _atom_site_type_symbol
 _atom_site_label
 _atom_site_symmetry_multiplicity
 _atom_site_fract_x
 _atom_site_fract_y
 _atom_site_fract_z
 _atom_site_occupancy
  Ag  Ag0  1  0.75000000  0.33324889  0.66644349  1
  Ag  Ag1  1  0.25000000  0.66694346  0.33329676  1
  Mo  Mo0  1  0.75000000  0.05781408  0.85492734  1
  Mo  Mo1  1  0.75000000  0.14499924  0.20299364  1
  Mo  Mo2  1  0.75000000  0.79704190  0.94213494  1
  Mo  Mo3  1  0.25000000  0.94208206  0.14509559  1
  Mo  Mo4  1  0.25000000  0.85489977  0.79705269  1
  Mo  Mo5  1  0.25000000  0.20289211  0.05793883  1
  Se  Se0  1  0.75000000  0.71091399  0.60007057  1
  Se  Se1  1  0.75000000  0.39980610  0.11085613  1
  Se  Se2  1  0.75000000  0.88921150  0.28912241  1
  Se  Se3  1  0.25000000  0.28910846  0.39990978  1
  Se  Se4  1  0.25000000  0.60009517  0.88909045  1
  Se  Se5  1  0.25000000  0.11094327  0.71106736  1
loop_
_geom_bond_atom_site_label_1
_geom_bond_atom_site_label_2
_geom_bond_distance
_geom_bond_site_symmetry_2
Ag0 Se3 3.070104 1_555
Ag0 Se3 3.070104 1_655
Ag0 Se5 3.071621 1_655
Ag0 Se5 3.071621 1_555
Ag0 Se4 3.071881 1_655
Ag0 Se4 3.071881 1_555
Ag1 Se2 3.069775 1_555
Ag1 Se2 3.069775 1_455
Ag1 Se0 3.071827 1_555
Ag1 Se0 3.071827 1_455
Ag1 Se1 3.072510 1_455
Ag1 Se1 3.072510 1_555
Mo0 Se1 2.607565 1_556
Mo0 Se0 2.634209 1_545
Mo0 Se5 2.696877 1_555
Mo0 Se5 2.696877 1_655
Mo1 Se2 2.606983 1_545
Mo1 Se1 2.634542 1_555
Mo1 Se3 2.696880 1_555
Mo1 Se3 2.696880 1_655
Mo2 Se0 2.607722 1_555
Mo2 Se2 2.634343 1_556
Mo2 Se4 2.696882 1_655
Mo2 Se4 2.696882 1_555
Mo3 Se4 2.607713 1_554
Mo3 Se3 2.634869 1_565
Mo3 Se2 2.696773 1_455
Mo3 Se2 2.696773 1_555
Mo4 Se5 2.608240 1_565
Mo4 Se4 2.633929 1_555
Mo4 Se0 2.696949 1_555
Mo4 Se0 2.696949 1_455
Mo5 Se3 2.606749 1_555
Mo5 Se5 2.633883 1_554
Mo5 Se1 2.696887 1_555
Mo5 Se1 2.696887 1_455
