# generated using pymatgen
data_KYMnWO6
_symmetry_space_group_name_H-M   'P 1'
_cell_length_a   5.54978589
_cell_length_b   5.73043400
_cell_length_c   8.29749441
_cell_angle_alpha   90.00000000
_cell_angle_beta   90.66213175
_cell_angle_gamma   90.00000000
_symmetry_Int_Tables_number   1
_chemical_formula_structural   KYMnWO6
_chemical_formula_sum   'K2 Y2 Mn2 W2 O12'
_cell_volume   263.86495339
_cell_formula_units_Z   2
loop_
 _symmetry_equiv_pos_site_id
 _symmetry_equiv_pos_as_xyz
  1  'x, y, z'
loop_
 _atom_site_type_symbol
 _atom_site_label
 _atom_site_symmetry_multiplicity
 _atom_site_fract_x
 _atom_site_fract_y
 _atom_site_fract_z
 _atom_site_occupancy
  K  K0  1  0.24556300  0.74855600  0.00361400  1
  K  K1  1  0.75443700  0.24855600  0.99638600  1
  Y  Y0  1  0.25831000  0.83709200  0.50185100  1
  Y  Y1  1  0.74169000  0.33709200  0.49814900  1
  Mn  Mn0  1  0.74886500  0.78056300  0.25159800  1
  Mn  Mn1  1  0.25113500  0.28056300  0.74840200  1
  W  W0  1  0.76535200  0.76963400  0.74435100  1
  W  W1  1  0.23464800  0.26963400  0.25564900  1
  O  O0  1  0.56489200  0.04248800  0.67722700  1
  O  O1  1  0.43510800  0.54248800  0.32277300  1
  O  O2  1  0.52606900  0.07701400  0.32479200  1
  O  O3  1  0.47393100  0.57701400  0.67520800  1
  O  O4  1  0.94463600  0.44640900  0.24740600  1
  O  O5  1  0.05536400  0.94640900  0.75259400  1
  O  O6  1  0.92574500  0.47099400  0.75635600  1
  O  O7  1  0.07425500  0.97099400  0.24364400  1
  O  O8  1  0.85629300  0.73012800  0.50373100  1
  O  O9  1  0.14370700  0.23012800  0.49626900  1
  O  O10  1  0.71018300  0.78051100  0.96666800  1
  O  O11  1  0.28981700  0.28051100  0.03333200  1
loop_
_geom_bond_atom_site_label_1
_geom_bond_atom_site_label_2
_geom_bond_distance
_geom_bond_site_symmetry_2
K0 O7 2.557161 1_555
K0 O5 2.585938 1_554
K0 O10 2.606656 1_554
K0 O11 2.704328 1_555
K0 O10 2.989105 1_454
K0 O11 3.067908 1_565
K0 O1 3.074033 1_555
K0 O6 3.131324 1_454
K0 O4 3.155485 1_455
K0 O3 3.174547 1_554
K1 O6 2.557161 1_555
K1 O4 2.585938 1_556
K1 O11 2.606656 1_556
K1 O10 2.704328 1_545
K1 O11 2.989105 1_656
K1 O10 3.067908 1_555
K1 O0 3.074033 1_555
K1 O7 3.131324 1_646
K1 O5 3.155485 1_645
K1 O2 3.174547 1_556
Mn0 O7 2.111639 1_655
Mn0 O8 2.187904 1_555
Mn0 O2 2.191109 1_565
Mn0 O4 2.202085 1_555
Mn0 O1 2.294746 1_555
Mn0 O10 2.371460 1_554
Mn1 O6 2.111639 1_455
Mn1 O9 2.187904 1_555
Mn1 O3 2.191109 1_555
Mn1 O5 2.202085 1_545
Mn1 O0 2.294746 1_555
Mn1 O11 2.371460 1_556
O0 W0 1.994573 1_545
O0 Y1 2.460564 1_555
O0 Y0 2.518066 1_545
O1 W1 1.994573 1_555
O1 Y0 2.460564 1_555
O1 Y1 2.518066 1_555
O2 W1 2.035143 1_555
O2 Y1 2.383787 1_555
O2 Y0 2.511432 1_545
O3 W0 2.035143 1_555
O3 Y0 2.383787 1_555
O3 Y1 2.511432 1_555
O4 W1 1.902315 1_655
O4 Y1 2.458411 1_555
O5 W0 1.902315 1_455
O5 Y0 2.458411 1_555
O6 W0 1.931038 1_555
O6 Y1 2.484305 1_555
O7 W1 1.931038 1_565
O7 Y0 2.484305 1_555
O8 W0 2.077366 1_555
O8 Y0 2.314001 1_655
O8 Y1 2.340661 1_555
O9 W1 2.077366 1_555
O9 Y1 2.314001 1_455
O9 Y0 2.340661 1_545
O10 W0 1.874435 1_555
O11 W1 1.874435 1_555
