# generated using pymatgen
data_CeFe4(CuO4)3
_symmetry_space_group_name_H-M   'P 1'
_cell_length_a   6.48998052
_cell_length_b   6.48998052
_cell_length_c   6.48998052
_cell_angle_alpha   109.47122063
_cell_angle_beta   109.47122063
_cell_angle_gamma   109.47122063
_symmetry_Int_Tables_number   1
_chemical_formula_structural   CeFe4(CuO4)3
_chemical_formula_sum   'Ce1 Fe4 Cu3 O12'
_cell_volume   210.43030705
_cell_formula_units_Z   1
loop_
 _symmetry_equiv_pos_site_id
 _symmetry_equiv_pos_as_xyz
  1  'x, y, z'
loop_
 _atom_site_type_symbol
 _atom_site_label
 _atom_site_symmetry_multiplicity
 _atom_site_fract_x
 _atom_site_fract_y
 _atom_site_fract_z
 _atom_site_occupancy
  Ce  Ce0  1  0.00000000  0.00000000  0.00000000  1
  Fe  Fe0  1  0.00000000  0.00000000  0.50000000  1
  Fe  Fe1  1  0.50000000  0.00000000  0.00000000  1
  Fe  Fe2  1  0.00000000  0.50000000  0.00000000  1
  Fe  Fe3  1  0.50000000  0.50000000  0.50000000  1
  Cu  Cu0  1  0.50000000  0.00000000  0.50000000  1
  Cu  Cu1  1  0.00000000  0.50000000  0.50000000  1
  Cu  Cu2  1  0.50000000  0.50000000  0.00000000  1
  O  O0  1  0.69522300  0.83507300  0.53029600  1
  O  O1  1  0.69522300  0.16492700  0.86015000  1
  O  O2  1  0.30477700  0.83507300  0.13985000  1
  O  O3  1  0.30477700  0.16492700  0.46970400  1
  O  O4  1  0.83507300  0.53029600  0.69522300  1
  O  O5  1  0.16492700  0.86015000  0.69522300  1
  O  O6  1  0.83507300  0.13985000  0.30477700  1
  O  O7  1  0.16492700  0.46970400  0.30477700  1
  O  O8  1  0.53029600  0.69522300  0.83507300  1
  O  O9  1  0.86015000  0.69522300  0.16492700  1
  O  O10  1  0.13985000  0.30477700  0.83507300  1
  O  O11  1  0.46970400  0.30477700  0.16492700  1
loop_
_geom_bond_atom_site_label_1
_geom_bond_atom_site_label_2
_geom_bond_distance
_geom_bond_site_symmetry_2
Ce0 O11 2.596965 1_555
Ce0 O3 2.596965 1_555
Ce0 O7 2.596965 1_555
Ce0 O2 2.596965 1_545
Ce0 O10 2.596965 1_554
Ce0 O6 2.596965 1_455
Ce0 O0 2.596965 1_444
Ce0 O4 2.596965 1_444
Ce0 O8 2.596965 1_444
Ce0 O9 2.596965 1_445
Ce0 O5 2.596965 1_544
Ce0 O1 2.596965 1_454
Fe0 O5 2.021125 1_545
Fe0 O10 2.021125 1_555
Fe0 O3 2.021125 1_555
Fe0 O9 2.021125 1_445
Fe0 O6 2.021125 1_455
Fe0 O0 2.021125 1_445
Fe1 O1 2.021125 1_554
Fe1 O6 2.021125 1_555
Fe1 O11 2.021125 1_555
Fe1 O5 2.021125 1_544
Fe1 O2 2.021125 1_545
Fe1 O8 2.021125 1_544
Fe2 O9 2.021125 1_455
Fe2 O2 2.021125 1_555
Fe2 O7 2.021125 1_555
Fe2 O1 2.021125 1_454
Fe2 O10 2.021125 1_554
Fe2 O4 2.021125 1_454
Fe3 O8 2.021125 1_555
Fe3 O4 2.021125 1_555
Fe3 O7 2.021125 1_555
Fe3 O11 2.021125 1_555
Fe3 O3 2.021125 1_555
Fe3 O0 2.021125 1_555
Cu0 O0 1.915192 1_545
Cu0 O1 1.915192 1_555
Cu0 O2 1.915192 1_545
Cu0 O3 1.915192 1_555
Cu1 O4 1.915192 1_455
Cu1 O5 1.915192 1_555
Cu1 O6 1.915192 1_455
Cu1 O7 1.915192 1_555
Cu2 O8 1.915192 1_554
Cu2 O9 1.915192 1_555
Cu2 O10 1.915192 1_554
Cu2 O11 1.915192 1_555
