# generated using pymatgen
data_Y7(TeAu)2
_symmetry_space_group_name_H-M   'P 1'
_cell_length_a   9.42527544
_cell_length_b   9.42506161
_cell_length_c   9.42506161
_cell_angle_alpha   155.05939762
_cell_angle_beta   117.30160843
_cell_angle_gamma   68.56644211
_symmetry_Int_Tables_number   1
_chemical_formula_structural   Y7(TeAu)2
_chemical_formula_sum   'Y7 Te2 Au2'
_cell_volume   310.86742969
_cell_formula_units_Z   1
loop_
 _symmetry_equiv_pos_site_id
 _symmetry_equiv_pos_as_xyz
  1  'x, y, z'
loop_
 _atom_site_type_symbol
 _atom_site_label
 _atom_site_symmetry_multiplicity
 _atom_site_fract_x
 _atom_site_fract_y
 _atom_site_fract_z
 _atom_site_occupancy
  Y  Y0  1  0.54117966  0.12566741  0.41551025  1
  Y  Y1  1  0.28983862  0.87432425  0.41551338  1
  Y  Y2  1  0.93815801  0.31526203  0.62289598  1
  Y  Y3  1  0.30759053  0.68472712  0.62286441  1
  Y  Y4  1  0.62479268  0.35936360  0.26542907  1
  Y  Y5  1  0.90605578  0.64063656  0.26541922  1
  Y  Y6  1  0.00500515  0.00000525  0.00499990  1
  Te  Te0  1  0.26111229  0.50000480  0.76110749  1
  Te  Te1  1  0.66604115  0.00000791  0.66603224  1
  Au  Au0  1  0.16350766  0.23798411  0.92552255  1
  Au  Au1  1  0.68757947  0.76201597  0.92556350  1
loop_
_geom_bond_atom_site_label_1
_geom_bond_atom_site_label_2
_geom_bond_distance
_geom_bond_site_symmetry_2
Te0 Y3 3.180499 1_555
Te0 Y2 3.180725 1_455
Te0 Y0 3.204037 1_566
Te0 Y0 3.204042 1_555
Te0 Y1 3.204158 1_556
Te0 Y1 3.204161 1_545
Te0 Y6 3.232689 1_566
Te0 Y6 3.232689 1_555
Te1 Y0 3.141094 1_555
Te1 Y1 3.141384 1_545
Te1 Y5 3.144779 1_545
Te1 Y5 3.144782 1_556
Te1 Y4 3.144954 1_545
Te1 Y4 3.144957 1_556
Te1 Y6 3.324229 1_656
Au0 Y3 2.928378 1_545
Au0 Y3 2.928383 1_556
Au0 Y1 2.942966 1_545
Au0 Y1 2.942966 1_556
Au0 Y5 2.984352 1_445
Au0 Y5 2.984355 1_456
Au0 Y2 3.202596 1_455
Au1 Y2 2.928302 1_566
Au1 Y2 2.928302 1_555
Au1 Y0 2.943065 1_566
Au1 Y0 2.943070 1_555
Au1 Y4 2.984466 1_566
Au1 Y4 2.984466 1_555
Au1 Y3 3.203383 1_555
