# generated using pymatgen
data_Mg5Cr(Si2O9)2
_symmetry_space_group_name_H-M   'P 1'
_cell_length_a   5.33364500
_cell_length_b   5.36920009
_cell_length_c   29.48019624
_cell_angle_alpha   90.28311205
_cell_angle_beta   90.32873512
_cell_angle_gamma   119.54590694
_symmetry_Int_Tables_number   1
_chemical_formula_structural   Mg5Cr(Si2O9)2
_chemical_formula_sum   'Mg10 Cr2 Si8 O36'
_cell_volume   734.41123526
_cell_formula_units_Z   2
loop_
 _symmetry_equiv_pos_site_id
 _symmetry_equiv_pos_as_xyz
  1  'x, y, z'
loop_
 _atom_site_type_symbol
 _atom_site_label
 _atom_site_symmetry_multiplicity
 _atom_site_fract_x
 _atom_site_fract_y
 _atom_site_fract_z
 _atom_site_occupancy
  Mg  Mg0  1  0.99184100  0.38203000  0.46832200  1
  Mg  Mg1  1  0.65080700  0.03550700  0.71673800  1
  Mg  Mg2  1  0.00291000  0.68214500  0.71651800  1
  Mg  Mg3  1  0.99748800  0.36579600  0.96529800  1
  Mg  Mg4  1  0.64980400  0.33871300  0.21691500  1
  Mg  Mg5  1  0.32542200  0.35709800  0.71640700  1
  Mg  Mg6  1  0.33375600  0.03136700  0.46819300  1
  Mg  Mg7  1  0.00245800  0.04319300  0.21669700  1
  Mg  Mg8  1  0.65160100  0.71186000  0.96502500  1
  Mg  Mg9  1  0.32593400  0.69096100  0.21679700  1
  Cr  Cr0  1  0.25961300  0.97378000  0.97070100  1
  Cr  Cr1  1  0.60244500  0.63719500  0.46413100  1
  Si  Si0  1  0.66060100  0.02704500  0.31130900  1
  Si  Si1  1  0.32817300  0.02320800  0.62200900  1
  Si  Si2  1  0.99497300  0.35899800  0.62200500  1
  Si  Si3  1  0.99256100  0.35405900  0.12237400  1
  Si  Si4  1  0.65924100  0.35714800  0.81114200  1
  Si  Si5  1  0.32641200  0.69248000  0.81096300  1
  Si  Si6  1  0.32698200  0.36167900  0.31129200  1
  Si  Si7  1  0.32626900  0.01939600  0.12224500  1
  O  O0  1  0.62673300  0.05439700  0.93862300  1
  O  O1  1  0.17654800  0.68544100  0.10416400  1
  O  O2  1  0.65520700  0.35305700  0.75520300  1
  O  O3  1  0.68214500  0.02200800  0.49632800  1
  O  O4  1  0.99697300  0.35497400  0.17816100  1
  O  O5  1  0.98066200  0.01110600  0.74561900  1
  O  O6  1  0.99484800  0.18303100  0.33039900  1
  O  O7  1  0.96092400  0.72591200  0.49527100  1
  O  O8  1  0.67569800  0.69003000  0.18794800  1
  O  O9  1  0.32164300  0.68729000  0.75509400  1
  O  O10  1  0.65823000  0.20491200  0.10333900  1
  O  O11  1  0.31404200  0.73399900  0.00113800  1
  O  O12  1  0.67253300  0.70615100  0.68768500  1
  O  O13  1  0.33202500  0.02776900  0.67782800  1
  O  O14  1  0.50531700  0.02531900  0.82927900  1
  O  O15  1  0.33297500  0.02414400  0.17807900  1
  O  O16  1  0.02721700  0.74507600  0.93134700  1
  O  O17  1  0.18458200  0.21391300  0.60376800  1
  O  O18  1  0.99710800  0.36443700  0.67781700  1
  O  O19  1  0.64280600  0.39459200  0.43207100  1
  O  O20  1  0.13919600  0.16672300  0.10361300  1
  O  O21  1  0.13866200  0.69074300  0.60345400  1
  O  O22  1  0.94401200  0.99329200  0.44052300  1
  O  O23  1  0.65597400  0.02730000  0.25549200  1
  O  O24  1  0.01990100  0.02699900  0.00158200  1
  O  O25  1  0.66113500  0.16729300  0.60330300  1
  O  O26  1  0.31966600  0.35716300  0.25548600  1
  O  O27  1  0.35854000  0.69554800  0.43421400  1
  O  O28  1  0.61129300  0.32559200  0.99407400  1
  O  O29  1  0.99361800  0.53608400  0.82966000  1
  O  O30  1  0.50642000  0.20695000  0.33017700  1
  O  O31  1  0.48287700  0.51515500  0.82984300  1
  O  O32  1  0.97641600  0.69198900  0.24586100  1
  O  O33  1  0.34063500  0.33971300  0.93883800  1
  O  O34  1  0.37294400  0.41295000  0.50325600  1
  O  O35  1  0.48320500  0.69529400  0.32938100  1
loop_
_geom_bond_atom_site_label_1
_geom_bond_atom_site_label_2
_geom_bond_distance
_geom_bond_site_symmetry_2
Mg0 O3 2.007258 1_555
Mg0 O7 2.086800 1_555
Mg0 O27 2.112404 1_655
Mg0 O22 2.132771 1_545
Mg0 O19 2.171179 1_555
Mg0 O34 2.204856 1_655
Mg1 O5 2.012102 1_555
Mg1 O12 2.015547 1_545
Mg1 O13 2.028769 1_555
Mg1 O2 2.033352 1_555
Mg1 O9 2.159362 1_545
Mg1 O18 2.162026 1_555
Mg2 O12 2.012972 1_455
Mg2 O5 2.015600 1_465
Mg2 O9 2.028613 1_555
Mg2 O18 2.034901 1_455
Mg2 O13 2.158061 1_565
Mg2 O2 2.162031 1_455
Mg3 O0 2.008147 1_555
Mg3 O33 2.060557 1_655
Mg3 O11 2.131265 1_656
Mg3 O28 2.143005 1_555
Mg3 O24 2.167879 1_656
Mg3 O16 2.208497 1_655
Mg4 O8 2.016618 1_555
Mg4 O32 2.017138 1_555
Mg4 O23 2.040289 1_555
Mg4 O15 2.040312 1_555
Mg4 O26 2.144111 1_555
Mg4 O4 2.146485 1_555
Mg5 O5 2.058871 1_455
Mg5 O12 2.066057 1_555
Mg5 O18 2.099477 1_455
Mg5 O2 2.101732 1_555
Mg5 O9 2.111807 1_555
Mg5 O13 2.112671 1_555
Mg6 O7 2.023865 1_445
Mg6 O3 2.053809 1_555
Mg6 O27 2.119133 1_545
Mg6 O19 2.127129 1_555
Mg6 O22 2.142006 1_445
Mg6 O34 2.205440 1_555
Mg7 O8 2.014747 1_445
Mg7 O32 2.018258 1_445
Mg7 O26 2.039055 1_555
Mg7 O4 2.039730 1_455
Mg7 O23 2.144801 1_455
Mg7 O15 2.148009 1_555
Mg8 O33 2.010224 1_555
Mg8 O0 2.063835 1_565
Mg8 O24 2.136085 1_666
Mg8 O11 2.149620 1_556
Mg8 O28 2.158885 1_555
Mg8 O16 2.168719 1_655
Mg9 O8 2.056902 1_555
Mg9 O32 2.058603 1_455
Mg9 O15 2.111612 1_565
Mg9 O4 2.113117 1_455
Mg9 O26 2.115567 1_555
Mg9 O23 2.117214 1_565
Cr0 O16 1.690725 1_555
Cr0 O24 1.707686 1_566
Cr0 O11 1.709947 1_556
Cr0 O28 2.009770 1_565
Cr0 O0 2.026116 1_565
Cr0 O33 2.028525 1_565
Cr1 O34 1.689608 1_555
Cr1 O19 1.703839 1_555
Cr1 O27 1.720437 1_555
Cr1 O7 1.950051 1_555
Cr1 O22 2.012789 1_555
Cr1 O3 2.111951 1_565
O1 Si3 1.646335 1_455
O1 Si7 1.646336 1_565
O2 Si4 1.649006 1_555
O4 Si3 1.644593 1_555
O6 Si0 1.645494 1_555
O6 Si6 1.648170 1_655
O9 Si5 1.646965 1_555
O10 Si3 1.646731 1_555
O10 Si7 1.647774 1_555
O13 Si1 1.645476 1_555
O14 Si5 1.642708 1_545
O14 Si4 1.645012 1_555
O15 Si7 1.645979 1_555
O17 Si2 1.642460 1_455
O17 Si1 1.642644 1_555
O18 Si2 1.645338 1_555
O20 Si7 1.642989 1_555
O20 Si3 1.644570 1_455
O21 Si1 1.646781 1_565
O21 Si2 1.651439 1_455
O23 Si0 1.645557 1_555
O25 Si2 1.646048 1_555
O25 Si1 1.648302 1_555
O26 Si6 1.645186 1_555
O29 Si4 1.641804 1_555
O29 Si5 1.644805 1_655
O30 Si6 1.642774 1_555
O30 Si0 1.643792 1_555
O31 Si5 1.642021 1_555
O31 Si4 1.642225 1_555
O35 Si6 1.643376 1_555
O35 Si0 1.644652 1_565
