# generated using pymatgen
data_Gd2Co2I
_symmetry_space_group_name_H-M   'P 1'
_cell_length_a   4.02103847
_cell_length_b   4.02103847
_cell_length_c   17.12762197
_cell_angle_alpha   90.00000000
_cell_angle_beta   90.00000000
_cell_angle_gamma   120.00000338
_symmetry_Int_Tables_number   1
_chemical_formula_structural   Gd2Co2I
_chemical_formula_sum   'Gd4 Co4 I2'
_cell_volume   239.83034988
_cell_formula_units_Z   2
loop_
 _symmetry_equiv_pos_site_id
 _symmetry_equiv_pos_as_xyz
  1  'x, y, z'
loop_
 _atom_site_type_symbol
 _atom_site_label
 _atom_site_symmetry_multiplicity
 _atom_site_fract_x
 _atom_site_fract_y
 _atom_site_fract_z
 _atom_site_occupancy
  Gd  Gd0  1  -0.00000000  0.00000000  0.10505782  1
  Gd  Gd1  1  0.00000000  -0.00000000  0.89494218  1
  Gd  Gd2  1  0.00000000  -0.00000000  0.60505782  1
  Gd  Gd3  1  -0.00000000  0.00000000  0.39494218  1
  Co  Co0  1  0.33333300  0.66666700  0.50250575  1
  Co  Co1  1  0.66666700  0.33333300  0.49749425  1
  Co  Co2  1  0.66666700  0.33333300  0.00250575  1
  Co  Co3  1  0.33333300  0.66666700  0.99749425  1
  I  I0  1  0.33333300  0.66666700  0.25000000  1
  I  I1  1  0.66666700  0.33333300  0.75000000  1
loop_
_geom_bond_atom_site_label_1
_geom_bond_atom_site_label_2
_geom_bond_distance
_geom_bond_site_symmetry_2
Gd0 I0 3.398890 1_545
Gd0 I0 3.398892 1_445
Gd0 I0 3.398892 1_555
Gd1 I1 3.398890 1_455
Gd1 I1 3.398892 1_445
Gd1 I1 3.398892 1_555
Gd2 I1 3.398890 1_455
Gd2 I1 3.398892 1_555
Gd2 I1 3.398892 1_445
Gd3 I0 3.398890 1_545
Gd3 I0 3.398892 1_445
Gd3 I0 3.398892 1_555
Co0 Co1 2.323131 1_455
Co0 Co1 2.323131 1_565
Co0 Co1 2.323139 1_555
Co0 Gd2 2.911146 1_565
Co0 Gd2 2.911149 1_665
Co0 Gd2 2.911149 1_555
Co0 Gd3 2.963726 1_565
Co0 Gd3 2.963729 1_665
Co0 Gd3 2.963729 1_555
Co1 Gd3 2.911146 1_655
Co1 Gd3 2.911149 1_665
Co1 Gd3 2.911149 1_555
Co1 Gd2 2.963726 1_655
Co1 Gd2 2.963729 1_665
Co1 Gd2 2.963729 1_555
Co2 Co3 2.323131 1_654
Co2 Co3 2.323131 1_544
Co2 Co3 2.323139 1_554
Co2 Gd0 2.911146 1_655
Co2 Gd0 2.911149 1_665
Co2 Gd0 2.911149 1_555
Co2 Gd1 2.963726 1_654
Co2 Gd1 2.963729 1_554
Co2 Gd1 2.963729 1_664
Co3 Gd1 2.911146 1_565
Co3 Gd1 2.911149 1_665
Co3 Gd1 2.911149 1_555
Co3 Gd0 2.963726 1_566
Co3 Gd0 2.963729 1_666
Co3 Gd0 2.963729 1_556
