# generated using pymatgen
data_Ba3Nd3Co6O17
_symmetry_space_group_name_H-M   'P 1'
_cell_length_a   8.60202641
_cell_length_b   8.60202641
_cell_length_c   9.49624803
_cell_angle_alpha   58.64369927
_cell_angle_beta   58.64369927
_cell_angle_gamma   38.22570071
_symmetry_Int_Tables_number   1
_chemical_formula_structural   Ba3Nd3Co6O17
_chemical_formula_sum   'Ba3 Nd3 Co6 O17'
_cell_volume   362.91328599
_cell_formula_units_Z   1
loop_
 _symmetry_equiv_pos_site_id
 _symmetry_equiv_pos_as_xyz
  1  'x, y, z'
loop_
 _atom_site_type_symbol
 _atom_site_label
 _atom_site_symmetry_multiplicity
 _atom_site_fract_x
 _atom_site_fract_y
 _atom_site_fract_z
 _atom_site_occupancy
  Ba  Ba0  1  0.33263800  0.33263800  0.33194900  1
  Ba  Ba1  1  0.66736200  0.66736200  0.66805100  1
  Ba  Ba2  1  0.00000000  0.00000000  0.00000000  1
  Nd  Nd0  1  0.17440100  0.17440100  0.15056000  1
  Nd  Nd1  1  0.50000000  0.50000000  0.50000000  1
  Nd  Nd2  1  0.82559900  0.82559900  0.84944000  1
  Co  Co0  1  0.25346100  0.25346100  0.74748300  1
  Co  Co1  1  0.58216300  0.58216300  0.08910300  1
  Co  Co2  1  0.91913900  0.91913900  0.41846300  1
  Co  Co3  1  0.41783700  0.41783700  0.91089700  1
  Co  Co4  1  0.74653900  0.74653900  0.25251700  1
  Co  Co5  1  0.08086100  0.08086100  0.58153700  1
  O  O0  1  0.92214600  0.42758600  0.92669900  1
  O  O1  1  0.24906800  0.76827600  0.26950300  1
  O  O2  1  0.61872400  0.08857100  0.58881300  1
  O  O3  1  0.42758600  0.92214600  0.92669900  1
  O  O4  1  0.76827600  0.24906800  0.26950300  1
  O  O5  1  0.08857100  0.61872400  0.58881300  1
  O  O6  1  0.07785400  0.57241400  0.07330100  1
  O  O7  1  0.38127600  0.91142900  0.41118700  1
  O  O8  1  0.75093200  0.23172400  0.73049700  1
  O  O9  1  0.57241400  0.07785400  0.07330100  1
  O  O10  1  0.91142900  0.38127600  0.41118700  1
  O  O11  1  0.23172400  0.75093200  0.73049700  1
  O  O12  1  0.50000000  0.50000000  0.00000000  1
  O  O13  1  0.82364500  0.82364500  0.33376900  1
  O  O14  1  0.17635500  0.17635500  0.66623100  1
  O  O15  1  0.66824500  0.66824500  0.16507200  1
  O  O16  1  0.33175500  0.33175500  0.83492800  1
loop_
_geom_bond_atom_site_label_1
_geom_bond_atom_site_label_2
_geom_bond_distance
_geom_bond_site_symmetry_2
Ba0 O14 2.765583 1_555
Ba0 O12 2.809356 1_555
Ba0 O13 2.819911 1_455
Ba0 O13 2.819911 1_545
Ba0 O9 2.884105 1_555
Ba0 O6 2.884105 1_555
Ba0 O4 2.968108 1_555
Ba0 O1 2.968108 1_555
Ba0 O7 2.996284 1_545
Ba0 O10 2.996284 1_455
Ba0 O5 3.035421 1_555
Ba0 O2 3.035421 1_555
Ba1 O13 2.765583 1_555
Ba1 O12 2.809356 1_556
Ba1 O14 2.819911 1_655
Ba1 O14 2.819911 1_565
Ba1 O3 2.884105 1_555
Ba1 O0 2.884105 1_555
Ba1 O11 2.968108 1_555
Ba1 O8 2.968108 1_555
Ba1 O5 2.996284 1_655
Ba1 O2 2.996284 1_565
Ba1 O7 3.035421 1_555
Ba1 O10 3.035421 1_555
Ba2 O12 2.816560 1_455
Ba2 O12 2.816560 1_545
Ba2 O14 2.873396 1_554
Ba2 O13 2.873396 1_445
Ba2 O3 2.900344 1_544
Ba2 O0 2.900344 1_454
Ba2 O9 2.900344 1_455
Ba2 O6 2.900344 1_545
Ba2 O1 2.966631 1_545
Ba2 O4 2.966631 1_455
Ba2 O8 2.966631 1_454
Ba2 O11 2.966631 1_544
Nd0 O9 2.549978 1_555
Nd0 O6 2.549978 1_555
Nd0 O0 2.555033 1_454
Nd0 O3 2.555033 1_544
Nd0 O7 2.615673 1_545
Nd0 O10 2.615673 1_455
Nd0 O1 2.648743 1_545
Nd0 O4 2.648743 1_455
Nd0 O16 2.661251 1_554
Nd0 O15 2.819012 1_455
Nd0 O15 2.819012 1_545
Nd1 O10 2.528024 1_555
Nd1 O7 2.528024 1_555
Nd1 O2 2.528024 1_555
Nd1 O5 2.528024 1_555
Nd1 O8 2.570926 1_555
Nd1 O11 2.570926 1_555
Nd1 O1 2.570926 1_555
Nd1 O4 2.570926 1_555
Nd1 O15 2.831057 1_555
Nd1 O16 2.831057 1_555
Nd2 O3 2.549978 1_555
Nd2 O0 2.549978 1_555
Nd2 O6 2.555033 1_656
Nd2 O9 2.555033 1_566
Nd2 O2 2.615673 1_565
Nd2 O5 2.615673 1_655
Nd2 O8 2.648743 1_565
Nd2 O11 2.648743 1_655
Nd2 O15 2.661251 1_556
Nd2 O16 2.819012 1_655
Nd2 O16 2.819012 1_565
Co0 O14 1.797667 1_555
Co0 O16 1.863721 1_555
Co0 O3 2.039716 1_545
Co0 O0 2.039716 1_455
Co0 O5 2.109391 1_555
Co0 O2 2.109391 1_555
Co1 O15 1.894847 1_555
Co1 O12 1.935093 1_555
Co1 O0 2.007462 1_554
Co1 O3 2.007462 1_554
Co1 O4 2.060670 1_555
Co1 O1 2.060670 1_555
Co2 O5 1.898597 1_655
Co2 O2 1.898597 1_565
Co2 O1 1.919746 1_655
Co2 O4 1.919746 1_565
Co2 O13 2.105158 1_555
Co3 O16 1.894847 1_555
Co3 O12 1.935093 1_556
Co3 O6 2.007462 1_556
Co3 O9 2.007462 1_556
Co3 O8 2.060670 1_555
Co3 O11 2.060670 1_555
Co4 O13 1.797667 1_555
Co4 O15 1.863721 1_555
Co4 O6 2.039716 1_655
Co4 O9 2.039716 1_565
Co4 O7 2.109391 1_555
Co4 O10 2.109391 1_555
Co5 O10 1.898597 1_455
Co5 O7 1.898597 1_545
Co5 O8 1.919746 1_455
Co5 O11 1.919746 1_545
Co5 O14 2.105158 1_555
