# generated using pymatgen
data_Rb2U3P4H4O19
_symmetry_space_group_name_H-M   'P 1'
_cell_length_a   9.78419159
_cell_length_b   9.78419159
_cell_length_c   11.32014129
_cell_angle_alpha   83.86669469
_cell_angle_beta   83.86669469
_cell_angle_gamma   65.17535898
_symmetry_Int_Tables_number   1
_chemical_formula_structural   Rb2U3P4H4O19
_chemical_formula_sum   'Rb4 U6 P8 H8 O38'
_cell_volume   975.60672905
_cell_formula_units_Z   2
loop_
 _symmetry_equiv_pos_site_id
 _symmetry_equiv_pos_as_xyz
  1  'x, y, z'
loop_
 _atom_site_type_symbol
 _atom_site_label
 _atom_site_symmetry_multiplicity
 _atom_site_fract_x
 _atom_site_fract_y
 _atom_site_fract_z
 _atom_site_occupancy
  Rb  Rb0  1  0.51716500  0.95719400  0.67917000  1
  Rb  Rb1  1  0.04232800  0.48306100  0.82031400  1
  Rb  Rb2  1  0.48306100  0.04232800  0.32031400  1
  Rb  Rb3  1  0.95719400  0.51716500  0.17917000  1
  U  U0  1  0.52982500  0.46600400  0.24900300  1
  U  U1  1  0.46600400  0.52982500  0.74900300  1
  U  U2  1  0.92657700  0.73727500  0.48878300  1
  U  U3  1  0.26329200  0.07126300  0.00786500  1
  U  U4  1  0.07126300  0.26329200  0.50786500  1
  U  U5  1  0.73727500  0.92657700  0.98878300  1
  P  P0  1  0.69277300  0.59837100  0.46699000  1
  P  P1  1  0.40521800  0.30195300  0.03247400  1
  P  P2  1  0.30195300  0.40521800  0.53247400  1
  P  P3  1  0.59837100  0.69277300  0.96699000  1
  P  P4  1  0.83548700  0.25297800  0.03035500  1
  P  P5  1  0.74592000  0.16425700  0.46747700  1
  P  P6  1  0.16425700  0.74592000  0.96747700  1
  P  P7  1  0.25297800  0.83548700  0.53035500  1
  H  H0  1  0.77895900  0.34619300  0.92750000  1
  H  H1  1  0.65298400  0.22163000  0.57009300  1
  H  H2  1  0.22163000  0.65298400  0.07009300  1
  H  H3  1  0.34619300  0.77895900  0.42750000  1
  H  H4  1  0.93232200  0.05343900  0.21966400  1
  H  H5  1  0.94675300  0.06720200  0.27979600  1
  H  H6  1  0.06720200  0.94675300  0.77979600  1
  H  H7  1  0.05343900  0.93232200  0.71966400  1
  O  O0  1  0.00292900  0.22262600  0.02718700  1
  O  O1  1  0.77642300  0.99687600  0.47127400  1
  O  O2  1  0.99687600  0.77642300  0.97127400  1
  O  O3  1  0.22262600  0.00292900  0.52718700  1
  O  O4  1  0.87138800  0.72916100  0.64748500  1
  O  O5  1  0.26875200  0.12816800  0.84954400  1
  O  O6  1  0.12816800  0.26875200  0.34954400  1
  O  O7  1  0.72916100  0.87138800  0.14748500  1
  O  O8  1  0.61596800  0.54938000  0.57687100  1
  O  O9  1  0.45447700  0.38906700  0.93043400  1
  O  O10  1  0.38906700  0.45447700  0.43043400  1
  O  O11  1  0.54938000  0.61596800  0.07687100  1
  O  O12  1  0.63757000  0.56708300  0.35097800  1
  O  O13  1  0.44322200  0.33911000  0.15387200  1
  O  O14  1  0.33911000  0.44322200  0.65387200  1
  O  O15  1  0.56708300  0.63757000  0.85097800  1
  O  O16  1  0.66946900  0.76519000  0.46194900  1
  O  O17  1  0.23761700  0.32893900  0.03586000  1
  O  O18  1  0.32893900  0.23761700  0.53586000  1
  O  O19  1  0.76519000  0.66946900  0.96194900  1
  O  O20  1  0.80616500  0.11174600  0.02626500  1
  O  O21  1  0.88731900  0.19356400  0.47012100  1
  O  O22  1  0.19356400  0.88731900  0.97012100  1
  O  O23  1  0.11174600  0.80616500  0.52626500  1
  O  O24  1  0.74774900  0.34348200  0.14015200  1
  O  O25  1  0.65526000  0.25115400  0.35737200  1
  O  O26  1  0.25115400  0.65526000  0.85737200  1
  O  O27  1  0.34348200  0.74774900  0.64015200  1
  O  O28  1  0.98202900  0.73005100  0.33144200  1
  O  O29  1  0.27317400  0.01433800  0.16511000  1
  O  O30  1  0.01433800  0.27317400  0.66511000  1
  O  O31  1  0.73005100  0.98202900  0.83144200  1
  O  O32  1  0.86863500  0.51053600  0.46282400  1
  O  O33  1  0.48956100  0.12653800  0.02630400  1
  O  O34  1  0.12653800  0.48956100  0.52630400  1
  O  O35  1  0.51053600  0.86863500  0.96282400  1
  O  O36  1  0.34843800  0.62882400  0.24217400  1
  O  O37  1  0.62882400  0.34843800  0.74217400  1
loop_
_geom_bond_atom_site_label_1
_geom_bond_atom_site_label_2
_geom_bond_distance
_geom_bond_site_symmetry_2
H0 P4 1.407305 1_556
H1 P5 1.405827 1_555
H2 P6 1.405827 1_554
H3 P7 1.407305 1_555
H4 H5 0.746670 1_555
H6 H7 0.746670 1_555
O0 P4 1.534487 1_455
O0 U3 2.347947 1_555
O0 Rb3 3.358170 1_455
O0 Rb1 3.388599 1_554
O1 P5 1.533047 1_565
O1 U2 2.338902 1_555
O1 Rb2 3.342254 1_565
O1 Rb0 3.388196 1_555
O2 P6 1.533047 1_655
O2 U5 2.338902 1_555
O2 Rb1 3.342254 1_655
O2 Rb3 3.388196 1_556
O3 P7 1.534487 1_545
O3 U4 2.347947 1_555
O3 Rb0 3.358170 1_545
O3 Rb2 3.388599 1_555
O4 U2 1.823081 1_555
O4 Rb1 2.955314 1_655
O4 Rb0 3.245097 1_555
O5 U3 1.821037 1_556
O5 Rb0 2.949447 1_545
O5 Rb1 3.244433 1_555
O6 U4 1.821037 1_555
O6 Rb3 2.949447 1_455
O6 Rb2 3.244433 1_555
O7 U5 1.823081 1_554
O7 Rb2 2.955314 1_565
O7 Rb3 3.245097 1_555
O8 P0 1.522172 1_555
O8 U1 2.351917 1_555
O9 P1 1.519420 1_556
O9 U1 2.367302 1_555
O10 P2 1.519420 1_555
O10 U0 2.367302 1_555
O11 P3 1.522172 1_554
O11 U0 2.351917 1_555
O12 P0 1.576845 1_555
O12 U0 2.191211 1_555
O12 Rb3 3.379602 1_555
O13 P1 1.577478 1_555
O13 U0 2.187054 1_555
O13 Rb2 3.189243 1_555
O14 P2 1.577478 1_555
O14 U1 2.187054 1_555
O14 Rb1 3.189243 1_555
O15 P3 1.576845 1_555
O15 U1 2.191211 1_555
O15 Rb0 3.379602 1_555
O16 P0 1.545856 1_555
O16 U2 2.462461 1_555
O16 Rb2 2.965285 1_565
O16 Rb0 3.106406 1_555
O17 P1 1.544483 1_555
O17 U3 2.478236 1_555
O17 Rb3 2.999306 1_455
O17 Rb1 3.109525 1_554
O18 P2 1.544483 1_555
O18 U4 2.478236 1_555
O18 Rb0 2.999306 1_545
O18 Rb2 3.109525 1_555
O19 P3 1.545856 1_555
O19 U5 2.462461 1_555
O19 Rb1 2.965285 1_655
O19 Rb3 3.106406 1_556
O20 P4 1.530793 1_555
O20 U5 2.273210 1_544
O21 P5 1.530004 1_555
O21 U4 2.268189 1_655
O22 P6 1.530004 1_555
O22 U3 2.268189 1_566
O23 P7 1.530793 1_555
O23 U2 2.273210 1_455
O24 P4 1.560381 1_555
O24 U0 2.260460 1_555
O24 Rb3 3.249647 1_555
O25 P5 1.561974 1_555
O25 U0 2.243761 1_555
O25 Rb2 3.227074 1_555
O26 P6 1.561974 1_555
O26 U1 2.243761 1_555
O26 Rb1 3.227074 1_555
O27 P7 1.560381 1_555
O27 U1 2.260460 1_555
O27 Rb0 3.249647 1_555
O28 U2 1.805537 1_555
O28 Rb3 2.941186 1_555
O29 U3 1.807704 1_555
O29 Rb2 2.953810 1_555
O30 U4 1.807704 1_555
O30 Rb1 2.953810 1_555
O31 U5 1.805537 1_555
O31 Rb0 2.941186 1_555
O32 P0 1.565609 1_555
O32 U4 2.442905 1_655
O32 U2 2.561300 1_555
O32 Rb3 3.236309 1_555
O33 P1 1.567026 1_555
O33 U5 2.420395 1_544
O33 U3 2.522985 1_555
O33 Rb2 3.342581 1_555
O34 P2 1.567026 1_555
O34 U2 2.420395 1_455
O34 U4 2.522985 1_555
O34 Rb1 3.342581 1_555
O35 P3 1.565609 1_555
O35 U3 2.442905 1_566
O35 U5 2.561300 1_555
O35 Rb0 3.236309 1_555
O36 U0 1.822766 1_555
O37 U1 1.822766 1_555
