# generated using pymatgen
data_Li5IO6
_symmetry_space_group_name_H-M   'P 1'
_cell_length_a   5.06926289
_cell_length_b   5.06919124
_cell_length_c   14.21508996
_cell_angle_alpha   90.00002887
_cell_angle_beta   90.00043646
_cell_angle_gamma   119.99853063
_symmetry_Int_Tables_number   1
_chemical_formula_structural   Li5IO6
_chemical_formula_sum   'Li15 I3 O18'
_cell_volume   316.35169384
_cell_formula_units_Z   3
loop_
 _symmetry_equiv_pos_site_id
 _symmetry_equiv_pos_as_xyz
  1  'x, y, z'
loop_
 _atom_site_type_symbol
 _atom_site_label
 _atom_site_symmetry_multiplicity
 _atom_site_fract_x
 _atom_site_fract_y
 _atom_site_fract_z
 _atom_site_occupancy
  Li  Li0  1  0.55676189  0.77834167  0.00005045  1
  Li  Li1  1  0.22158329  0.77831052  0.33332141  1
  Li  Li2  1  0.22161544  0.44329338  0.66666211  1
  Li  Li3  1  0.88974738  0.44475380  0.50000553  1
  Li  Li4  1  0.55522016  0.44498762  0.83333682  1
  Li  Li5  1  0.55522234  0.11022233  0.16666170  1
  Li  Li6  1  0.54763712  0.77384555  0.49997194  1
  Li  Li7  1  0.22607855  0.77389889  0.83332419  1
  Li  Li8  1  0.22611940  0.45228954  0.16668645  1
  Li  Li9  1  0.88922418  0.44460723  0.00001702  1
  Li  Li10  1  0.55539827  0.44457485  0.33332993  1
  Li  Li11  1  0.55536608  0.11080094  0.66666567  1
  Li  Li12  1  0.22748509  0.11383249  0.49993993  1
  Li  Li13  1  0.88639959  0.11369930  0.83333476  1
  Li  Li14  1  0.88624646  0.77256442  0.16669545  1
  I  I0  1  0.22251496  0.11122792  1.00003395  1
  I  I1  1  0.88872680  0.11115651  0.33334698  1
  I  I2  1  0.88875403  0.77760714  0.66664902  1
  O  O0  1  0.22431216  0.41293305  0.92212787  1
  O  O1  1  0.58707093  0.81132500  0.25541928  1
  O  O2  1  0.22431220  0.81137076  0.07794514  1
  O  O3  1  0.18854605  0.77573969  0.58872174  1
  O  O4  1  0.58703111  0.77576670  0.74454814  1
  O  O5  1  0.18859414  0.41286884  0.41124767  1
  O  O6  1  0.92186394  0.11388321  0.07530879  1
  O  O7  1  0.88604398  0.80784100  0.40860578  1
  O  O8  1  0.92184646  0.80791223  0.92473449  1
  O  O9  1  0.19211619  0.07826874  0.74192116  1
  O  O10  1  0.88607954  0.07823821  0.59132894  1
  O  O11  1  0.19205884  0.11384160  0.25806069  1
  O  O12  1  0.52427386  0.11103164  0.92284058  1
  O  O13  1  0.88893759  0.41313723  0.25615956  1
  O  O14  1  0.52425650  0.41318888  0.07721878  1
  O  O15  1  0.58684110  0.47585674  0.58945244  1
  O  O16  1  0.88897135  0.47580897  0.74381219  1
  O  O17  1  0.58674703  0.11096944  0.41051444  1
loop_
_geom_bond_atom_site_label_1
_geom_bond_atom_site_label_2
_geom_bond_distance
_geom_bond_site_symmetry_2
Li0 O6 2.077286 1_565
Li0 O8 2.077608 1_554
Li0 O14 2.086092 1_555
Li0 O12 2.086537 1_564
Li0 O2 2.091993 1_555
Li0 O0 2.092042 1_554
Li1 O11 2.077130 1_565
Li1 O7 2.077380 1_455
Li1 O13 2.086122 1_455
Li1 O17 2.086359 1_565
Li1 O1 2.092123 1_555
Li1 O5 2.092125 1_555
Li2 O9 2.077037 1_555
Li2 O10 2.077706 1_455
Li2 O16 2.085987 1_455
Li2 O15 2.086636 1_555
Li2 O4 2.091831 1_555
Li2 O3 2.092395 1_555
Li3 O5 2.039096 1_655
Li3 O3 2.039236 1_655
Li3 O15 2.059484 1_555
Li3 O17 2.059526 1_555
Li3 O10 2.258978 1_555
Li3 O7 2.260670 1_555
Li4 O4 2.039662 1_555
Li4 O0 2.039811 1_555
Li4 O16 2.059627 1_555
Li4 O12 2.060019 1_555
Li4 O8 2.260010 1_555
Li4 O9 2.260718 1_555
Li5 O2 2.039158 1_545
Li5 O1 2.039188 1_545
Li5 O13 2.059286 1_555
Li5 O14 2.059353 1_555
Li5 O6 2.259786 1_555
Li5 O11 2.260832 1_555
Li6 O17 2.058663 1_565
Li6 O15 2.058980 1_555
Li6 O10 2.088939 1_565
Li6 O7 2.088969 1_555
Li6 O5 2.218420 1_555
Li6 O3 2.218737 1_555
Li7 O16 2.059252 1_455
Li7 O12 2.059517 1_565
Li7 O8 2.088683 1_455
Li7 O9 2.089023 1_565
Li7 O4 2.218868 1_555
Li7 O0 2.219328 1_555
Li8 O13 2.058988 1_455
Li8 O14 2.059235 1_555
Li8 O6 2.088807 1_455
Li8 O11 2.089068 1_555
Li8 O2 2.218416 1_555
Li8 O1 2.218421 1_555
Li9 O8 2.063915 1_554
Li9 O6 2.064199 1_555
Li9 O12 2.087413 1_554
Li9 O14 2.087591 1_555
Li9 O0 2.099962 1_654
Li9 O2 2.100268 1_655
Li10 O7 2.063733 1_555
Li10 O11 2.064030 1_555
Li10 O13 2.087352 1_555
Li10 O17 2.087499 1_555
Li10 O1 2.100053 1_555
Li10 O5 2.100306 1_555
Li11 O9 2.063674 1_555
Li11 O10 2.064321 1_555
Li11 O16 2.087383 1_555
Li11 O15 2.087921 1_555
Li11 O4 2.099632 1_545
Li11 O3 2.100478 1_545
Li12 O5 2.055507 1_555
Li12 O3 2.056876 1_545
Li12 O7 2.098287 1_445
Li12 O10 2.098389 1_455
Li12 O17 2.226959 1_555
Li12 O15 2.227654 1_555
Li13 O0 2.056707 1_655
Li13 O4 2.056913 1_545
Li13 O9 2.097843 1_655
Li13 O8 2.098014 1_545
Li13 O12 2.228017 1_555
Li13 O16 2.228255 1_555
Li14 O1 2.056053 1_555
Li14 O2 2.056735 1_655
Li14 O11 2.097882 1_665
Li14 O6 2.097959 1_565
Li14 O14 2.227331 1_555
Li14 O13 2.227570 1_555
I0 O6 1.867758 1_456
I0 O8 1.868019 1_445
I0 O14 1.882888 1_556
I0 O12 1.882978 1_555
I0 O2 1.884416 1_546
I0 O0 1.884581 1_555
I1 O7 1.867586 1_545
I1 O11 1.867898 1_655
I1 O17 1.882884 1_555
I1 O13 1.882980 1_555
I1 O5 1.884497 1_655
I1 O1 1.884533 1_545
I2 O9 1.867881 1_665
I2 O10 1.868060 1_565
I2 O15 1.882905 1_555
I2 O16 1.882909 1_555
I2 O3 1.884452 1_655
I2 O4 1.884532 1_555
