# generated using pymatgen
data_KMg6Ti
_symmetry_space_group_name_H-M   'P 1'
_cell_length_a   6.54708242
_cell_length_b   6.54708242
_cell_length_c   5.28092400
_cell_angle_alpha   90.00000000
_cell_angle_beta   90.00000000
_cell_angle_gamma   118.95011367
_symmetry_Int_Tables_number   1
_chemical_formula_structural   KMg6Ti
_chemical_formula_sum   'K1 Mg6 Ti1'
_cell_volume   198.07705886
_cell_formula_units_Z   1
loop_
 _symmetry_equiv_pos_site_id
 _symmetry_equiv_pos_as_xyz
  1  'x, y, z'
loop_
 _atom_site_type_symbol
 _atom_site_label
 _atom_site_symmetry_multiplicity
 _atom_site_fract_x
 _atom_site_fract_y
 _atom_site_fract_z
 _atom_site_occupancy
  K  K0  1  0.58366700  0.41633300  0.50000000  1
  Mg  Mg0  1  0.93012000  0.59305300  0.00000000  1
  Mg  Mg1  1  0.40694700  0.06988000  0.00000000  1
  Mg  Mg2  1  0.40631100  0.59368900  0.00000000  1
  Mg  Mg3  1  0.60836600  0.92816700  0.50000000  1
  Mg  Mg4  1  0.07183300  0.39163400  0.50000000  1
  Mg  Mg5  1  0.07662100  0.92337900  0.50000000  1
  Ti  Ti0  1  0.91613600  0.08386400  0.00000000  1
loop_
_geom_bond_atom_site_label_1
_geom_bond_atom_site_label_2
_geom_bond_distance
_geom_bond_site_symmetry_2
K0 Mg3 3.275803 1_555
K0 Mg4 3.275803 1_555
K0 Mg3 3.277393 1_545
K0 Mg4 3.277393 1_655
K0 Mg1 3.303790 1_556
K0 Mg0 3.303790 1_556
K0 Mg0 3.303790 1_555
K0 Mg1 3.303790 1_555
K0 Mg2 3.312692 1_556
K0 Mg2 3.312692 1_555
K0 Mg5 3.326301 1_655
K0 Mg5 3.326301 1_545
Mg0 Mg2 3.115648 1_655
Mg0 Mg1 3.171234 1_665
Mg0 Mg5 3.249771 1_654
Mg0 Mg5 3.249771 1_655
Mg0 Ti0 3.258682 1_565
Mg0 Mg4 3.279683 1_655
Mg0 Mg4 3.279683 1_654
Mg0 Ti0 3.290361 1_555
Mg0 Mg2 3.431438 1_555
Mg0 Mg1 3.479468 1_555
Mg1 Mg2 3.115648 1_545
Mg1 Mg5 3.249771 1_545
Mg1 Mg5 3.249771 1_544
Mg1 Ti0 3.258682 1_455
Mg1 Mg3 3.279683 1_544
Mg1 Mg3 3.279683 1_545
Mg1 Ti0 3.290361 1_555
Mg1 Mg2 3.431438 1_555
Mg2 Mg4 3.273075 1_555
Mg2 Mg4 3.273075 1_554
Mg2 Mg3 3.273075 1_555
Mg2 Mg3 3.273075 1_554
Mg2 Ti0 3.327197 1_565
Mg2 Ti0 3.327197 1_455
Mg3 Mg5 3.081000 1_655
Mg3 Ti0 3.175353 1_566
Mg3 Ti0 3.175353 1_565
Mg3 Mg5 3.466313 1_555
Mg4 Mg5 3.081000 1_545
Mg4 Ti0 3.175353 1_455
Mg4 Ti0 3.175353 1_456
Mg4 Mg5 3.466313 1_555
Mg5 Ti0 3.201372 1_465
Mg5 Ti0 3.201372 1_466
