# generated using pymatgen
data_Mg6ZnB
_symmetry_space_group_name_H-M   'P 1'
_cell_length_a   6.12674607
_cell_length_b   6.12674607
_cell_length_c   4.14608600
_cell_angle_alpha   90.00000000
_cell_angle_beta   90.00000000
_cell_angle_gamma   93.62599571
_symmetry_Int_Tables_number   1
_chemical_formula_structural   Mg6ZnB
_chemical_formula_sum   'Mg6 Zn1 B1'
_cell_volume   155.32014898
_cell_formula_units_Z   1
loop_
 _symmetry_equiv_pos_site_id
 _symmetry_equiv_pos_as_xyz
  1  'x, y, z'
loop_
 _atom_site_type_symbol
 _atom_site_label
 _atom_site_symmetry_multiplicity
 _atom_site_fract_x
 _atom_site_fract_y
 _atom_site_fract_z
 _atom_site_occupancy
  Mg  Mg0  1  0.39433700  0.11159000  0.50000000  1
  Mg  Mg1  1  0.88841000  0.60566300  0.50000000  1
  Mg  Mg2  1  0.20764300  0.44102700  0.00000000  1
  Mg  Mg3  1  0.55897300  0.79235700  0.00000000  1
  Mg  Mg4  1  0.69798200  0.30201800  0.00000000  1
  Mg  Mg5  1  0.09573100  0.90426900  0.00000000  1
  Zn  Zn0  1  0.89183500  0.10816500  0.50000000  1
  B  B0  1  0.26509900  0.73490100  0.50000000  1
loop_
_geom_bond_atom_site_label_1
_geom_bond_atom_site_label_2
_geom_bond_distance
_geom_bond_site_symmetry_2
Mg0 Zn0 3.049443 1_555
Mg0 Zn0 3.077446 1_455
Mg1 Zn0 3.049443 1_555
Mg1 Zn0 3.077446 1_565
Mg4 Zn0 2.701321 1_554
Mg4 Zn0 2.701321 1_555
Mg5 Zn0 2.759709 1_465
Mg5 Zn0 2.759709 1_464
B0 Mg1 2.392095 1_455
B0 Mg0 2.392095 1_565
B0 Mg5 2.566562 1_556
B0 Mg5 2.566562 1_555
B0 Mg3 2.753729 1_556
B0 Mg2 2.753729 1_556
B0 Mg3 2.753729 1_555
B0 Mg2 2.753729 1_555
