# generated using pymatgen
data_SrLa3Ti2(CoO6)2
_symmetry_space_group_name_H-M   'P 1'
_cell_length_a   5.56302400
_cell_length_b   5.56302400
_cell_length_c   7.87863600
_cell_angle_alpha   90.00000000
_cell_angle_beta   90.00000000
_cell_angle_gamma   90.00000000
_symmetry_Int_Tables_number   1
_chemical_formula_structural   SrLa3Ti2(CoO6)2
_chemical_formula_sum   'Sr1 La3 Ti2 Co2 O12'
_cell_volume   243.82200784
_cell_formula_units_Z   1
loop_
 _symmetry_equiv_pos_site_id
 _symmetry_equiv_pos_as_xyz
  1  'x, y, z'
loop_
 _atom_site_type_symbol
 _atom_site_label
 _atom_site_symmetry_multiplicity
 _atom_site_fract_x
 _atom_site_fract_y
 _atom_site_fract_z
 _atom_site_occupancy
  Sr  Sr0  1  0.50000000  0.50000000  0.00000000  1
  La  La0  1  0.00000000  0.00000000  0.00000000  1
  La  La1  1  0.50000000  0.50000000  0.50000000  1
  La  La2  1  0.00000000  0.00000000  0.50000000  1
  Ti  Ti0  1  0.00000000  0.50000000  0.75150900  1
  Ti  Ti1  1  0.50000000  0.00000000  0.24849100  1
  Co  Co0  1  0.50000000  0.00000000  0.74918700  1
  Co  Co1  1  0.00000000  0.50000000  0.25081300  1
  O  O0  1  0.24450200  0.75251800  0.74295700  1
  O  O1  1  0.75549800  0.24748200  0.74295700  1
  O  O2  1  0.24748200  0.75549800  0.25704300  1
  O  O3  1  0.75251800  0.24450200  0.25704300  1
  O  O4  1  0.24450200  0.24748200  0.74295700  1
  O  O5  1  0.75549800  0.75251800  0.74295700  1
  O  O6  1  0.24748200  0.24450200  0.25704300  1
  O  O7  1  0.75251800  0.75549800  0.25704300  1
  O  O8  1  0.50000000  0.00000000  0.99757600  1
  O  O9  1  0.00000000  0.50000000  0.00242400  1
  O  O10  1  0.50000000  0.00000000  0.50040200  1
  O  O11  1  0.00000000  0.50000000  0.49959800  1
loop_
_geom_bond_atom_site_label_1
_geom_bond_atom_site_label_2
_geom_bond_distance
_geom_bond_site_symmetry_2
La0 O9 2.781578 1_545
La0 O8 2.781578 1_554
La0 O8 2.781578 1_454
La0 O9 2.781578 1_555
La0 O2 2.801201 1_545
La0 O6 2.801201 1_555
La0 O3 2.801201 1_455
La0 O7 2.801201 1_445
La0 O4 2.801201 1_554
La0 O1 2.801201 1_454
La0 O0 2.801201 1_544
La0 O5 2.801201 1_444
La1 O0 2.767240 1_555
La1 O5 2.767240 1_555
La1 O4 2.767240 1_555
La1 O1 2.767240 1_555
La1 O3 2.767240 1_555
La1 O7 2.767240 1_555
La1 O6 2.767240 1_555
La1 O2 2.767240 1_555
La1 O10 2.781514 1_565
La1 O10 2.781514 1_555
La1 O11 2.781514 1_555
La1 O11 2.781514 1_655
La2 O1 2.722048 1_455
La2 O4 2.722048 1_555
La2 O0 2.722048 1_545
La2 O5 2.722048 1_445
La2 O6 2.722048 1_555
La2 O2 2.722048 1_545
La2 O7 2.722048 1_445
La2 O3 2.722048 1_455
La2 O11 2.781514 1_545
La2 O11 2.781514 1_555
La2 O10 2.781514 1_555
La2 O10 2.781514 1_455
Co0 O8 1.956967 1_555
Co0 O10 1.960086 1_555
Co0 O4 1.979408 1_555
Co0 O1 1.979408 1_555
Co0 O0 1.979408 1_545
Co0 O5 1.979408 1_545
Co1 O9 1.956967 1_555
Co1 O11 1.960086 1_555
Co1 O2 1.979408 1_555
Co1 O6 1.979408 1_555
Co1 O3 1.979408 1_455
Co1 O7 1.979408 1_455
O0 Ti0 1.956518 1_555
O0 Sr0 2.845136 1_556
O1 Ti0 1.956518 1_655
O1 Sr0 2.845136 1_556
O2 Ti1 1.956518 1_565
O2 Sr0 2.845136 1_555
O3 Ti1 1.956518 1_555
O3 Sr0 2.845136 1_555
O4 Ti0 1.956518 1_555
O4 Sr0 2.845136 1_556
O5 Ti0 1.956518 1_655
O5 Sr0 2.845136 1_556
O6 Ti1 1.956518 1_555
O6 Sr0 2.845136 1_555
O7 Ti1 1.956518 1_565
O7 Sr0 2.845136 1_555
O8 Ti1 1.976868 1_556
O8 Sr0 2.781578 1_546
O8 Sr0 2.781578 1_556
O9 Ti0 1.976868 1_554
O9 Sr0 2.781578 1_455
O9 Sr0 2.781578 1_555
O10 Ti1 1.984715 1_555
O11 Ti0 1.984715 1_555
