# generated using pymatgen
data_BaSr3(CoO3)4
_symmetry_space_group_name_H-M   'P 1'
_cell_length_a   4.79441613
_cell_length_b   5.54183117
_cell_length_c   9.55395123
_cell_angle_alpha   89.98811056
_cell_angle_beta   90.60361055
_cell_angle_gamma   89.55942759
_symmetry_Int_Tables_number   1
_chemical_formula_structural   BaSr3(CoO3)4
_chemical_formula_sum   'Ba1 Sr3 Co4 O12'
_cell_volume   253.82539972
_cell_formula_units_Z   1
loop_
 _symmetry_equiv_pos_site_id
 _symmetry_equiv_pos_as_xyz
  1  'x, y, z'
loop_
 _atom_site_type_symbol
 _atom_site_label
 _atom_site_symmetry_multiplicity
 _atom_site_fract_x
 _atom_site_fract_y
 _atom_site_fract_z
 _atom_site_occupancy
  Ba  Ba0  1  0.25151200  0.50093800  0.16563000  1
  Sr  Sr0  1  0.24749600  0.99898900  0.66719200  1
  Sr  Sr1  1  0.75419300  0.00112100  0.33744100  1
  Sr  Sr2  1  0.74492700  0.49891800  0.83191800  1
  Co  Co0  1  0.99977300  0.99963000  0.99523100  1
  Co  Co1  1  0.49996700  0.49999900  0.50428200  1
  Co  Co2  1  0.49979900  0.99970500  0.99533100  1
  Co  Co3  1  0.00092700  0.50016200  0.50452300  1
  O  O0  1  0.74232400  0.50117500  0.35273600  1
  O  O1  1  0.74935300  0.99955700  0.84513900  1
  O  O2  1  0.24969600  0.00111700  0.14643800  1
  O  O3  1  0.26059200  0.49907400  0.65550400  1
  O  O4  1  0.75017700  0.77450800  0.07243100  1
  O  O5  1  0.74959200  0.22941800  0.07405300  1
  O  O6  1  0.75897300  0.26915500  0.57994300  1
  O  O7  1  0.75041200  0.72786200  0.58036100  1
  O  O8  1  0.24093900  0.73458100  0.43019800  1
  O  O9  1  0.24985200  0.26896500  0.42996700  1
  O  O10  1  0.24936700  0.22353800  0.91677700  1
  O  O11  1  0.25012900  0.77158800  0.91490400  1
loop_
_geom_bond_atom_site_label_1
_geom_bond_atom_site_label_2
_geom_bond_distance
_geom_bond_site_symmetry_2
Ba0 O2 2.776098 1_555
Ba0 O2 2.777868 1_565
Ba0 O11 2.825918 1_554
Ba0 O10 2.831484 1_554
Ba0 O9 2.833710 1_555
Ba0 O8 2.840997 1_555
Ba0 O0 2.940117 1_555
Ba0 O5 2.953224 1_555
Ba0 O4 2.960909 1_455
Ba0 O5 2.971929 1_455
Ba0 O4 2.984516 1_555
Ba0 O0 3.040915 1_455
Co0 O1 1.860508 1_555
Co0 O2 1.867206 1_666
Co0 O4 1.890414 1_556
Co0 O10 1.890738 1_665
Co0 O11 1.903499 1_655
Co0 O5 1.903533 1_566
Co1 O3 1.854598 1_555
Co1 O0 1.866028 1_555
Co1 O7 1.889447 1_555
Co1 O9 1.894050 1_555
Co1 O6 1.912441 1_555
Co1 O8 1.920824 1_555
Co2 O4 1.870576 1_556
Co2 O10 1.871176 1_565
Co2 O1 1.877952 1_555
Co2 O2 1.886375 1_566
Co2 O5 1.904051 1_566
Co2 O11 1.904141 1_555
Co3 O6 1.882513 1_455
Co3 O7 1.885547 1_455
Co3 O8 1.885710 1_555
Co3 O9 1.888938 1_555
Co3 O3 1.895433 1_555
Co3 O0 1.897959 1_455
O0 Sr1 2.775273 1_555
O0 Sr1 2.775489 1_565
O1 Sr2 2.770137 1_565
O1 Sr2 2.777591 1_555
O1 Sr0 2.931491 1_555
O1 Sr0 2.946146 1_655
O2 Sr1 3.010823 1_455
O2 Sr1 3.014542 1_555
O3 Sr0 2.772972 1_555
O3 Sr0 2.774832 1_545
O3 Sr2 2.854893 1_555
O3 Sr2 3.006809 1_455
O4 Sr2 2.759373 1_554
O4 Sr1 2.826425 1_565
O5 Sr2 2.753115 1_554
O5 Sr1 2.816115 1_555
O6 Sr2 2.724809 1_555
O6 Sr1 2.752376 1_555
O6 Sr0 2.885607 1_645
O6 Sr0 3.008149 1_545
O7 Sr2 2.717941 1_555
O7 Sr1 2.771241 1_565
O7 Sr0 2.939308 1_655
O7 Sr0 2.957466 1_555
O8 Sr0 2.697300 1_555
O8 Sr1 2.883761 1_465
O8 Sr1 3.020569 1_565
O9 Sr0 2.715649 1_545
O9 Sr1 2.939814 1_455
O9 Sr1 2.970173 1_555
O10 Sr0 2.689897 1_545
O10 Sr2 2.954174 1_555
O10 Sr2 2.955815 1_455
O11 Sr0 2.680882 1_555
O11 Sr2 2.919700 1_555
O11 Sr2 2.965658 1_455
