# generated using pymatgen
data_Mg6FeC
_symmetry_space_group_name_H-M   'P 1'
_cell_length_a   13.77461033
_cell_length_b   13.77461033
_cell_length_c   6.33994200
_cell_angle_alpha   90.00000000
_cell_angle_beta   90.00000000
_cell_angle_gamma   94.15573298
_symmetry_Int_Tables_number   1
_chemical_formula_structural   Mg6FeC
_chemical_formula_sum   'Mg48 Fe8 C8'
_cell_volume   1199.77708348
_cell_formula_units_Z   8
loop_
 _symmetry_equiv_pos_site_id
 _symmetry_equiv_pos_as_xyz
  1  'x, y, z'
loop_
 _atom_site_type_symbol
 _atom_site_label
 _atom_site_symmetry_multiplicity
 _atom_site_fract_x
 _atom_site_fract_y
 _atom_site_fract_z
 _atom_site_occupancy
  Mg  Mg0_0  1  0.47378050  0.35539700  0.25000000  1
  Mg  Mg0_1  1  0.47378050  0.35539700  0.75000000  1
  Mg  Mg0_2  1  0.47378050  0.85539700  0.25000000  1
  Mg  Mg0_3  1  0.47378050  0.85539700  0.75000000  1
  Mg  Mg0_4  1  0.97378050  0.35539700  0.25000000  1
  Mg  Mg0_5  1  0.97378050  0.35539700  0.75000000  1
  Mg  Mg0_6  1  0.97378050  0.85539700  0.25000000  1
  Mg  Mg0_7  1  0.97378050  0.85539700  0.75000000  1
  Mg  Mg1_0  1  0.14460300  0.02621950  0.25000000  1
  Mg  Mg1_1  1  0.14460300  0.02621950  0.75000000  1
  Mg  Mg1_2  1  0.14460300  0.52621950  0.25000000  1
  Mg  Mg1_3  1  0.14460300  0.52621950  0.75000000  1
  Mg  Mg1_4  1  0.64460300  0.02621950  0.25000000  1
  Mg  Mg1_5  1  0.64460300  0.02621950  0.75000000  1
  Mg  Mg1_6  1  0.64460300  0.52621950  0.25000000  1
  Mg  Mg1_7  1  0.64460300  0.52621950  0.75000000  1
  Mg  Mg2_0  1  0.42307750  0.07692250  0.25000000  1
  Mg  Mg2_1  1  0.42307750  0.07692250  0.75000000  1
  Mg  Mg2_2  1  0.42307750  0.57692250  0.25000000  1
  Mg  Mg2_3  1  0.42307750  0.57692250  0.75000000  1
  Mg  Mg2_4  1  0.92307750  0.07692250  0.25000000  1
  Mg  Mg2_5  1  0.92307750  0.07692250  0.75000000  1
  Mg  Mg2_6  1  0.92307750  0.57692250  0.25000000  1
  Mg  Mg2_7  1  0.92307750  0.57692250  0.75000000  1
  Mg  Mg3_0  1  0.30112350  0.42856700  0.00000000  1
  Mg  Mg3_1  1  0.30112350  0.42856700  0.50000000  1
  Mg  Mg3_2  1  0.30112350  0.92856700  0.00000000  1
  Mg  Mg3_3  1  0.30112350  0.92856700  0.50000000  1
  Mg  Mg3_4  1  0.80112350  0.42856700  0.00000000  1
  Mg  Mg3_5  1  0.80112350  0.42856700  0.50000000  1
  Mg  Mg3_6  1  0.80112350  0.92856700  0.00000000  1
  Mg  Mg3_7  1  0.80112350  0.92856700  0.50000000  1
  Mg  Mg4_0  1  0.07143300  0.19887650  0.00000000  1
  Mg  Mg4_1  1  0.07143300  0.19887650  0.50000000  1
  Mg  Mg4_2  1  0.07143300  0.69887650  0.00000000  1
  Mg  Mg4_3  1  0.07143300  0.69887650  0.50000000  1
  Mg  Mg4_4  1  0.57143300  0.19887650  0.00000000  1
  Mg  Mg4_5  1  0.57143300  0.19887650  0.50000000  1
  Mg  Mg4_6  1  0.57143300  0.69887650  0.00000000  1
  Mg  Mg4_7  1  0.57143300  0.69887650  0.50000000  1
  Mg  Mg5_0  1  0.29588950  0.20411050  0.00000000  1
  Mg  Mg5_1  1  0.29588950  0.20411050  0.50000000  1
  Mg  Mg5_2  1  0.29588950  0.70411050  0.00000000  1
  Mg  Mg5_3  1  0.29588950  0.70411050  0.50000000  1
  Mg  Mg5_4  1  0.79588950  0.20411050  0.00000000  1
  Mg  Mg5_5  1  0.79588950  0.20411050  0.50000000  1
  Mg  Mg5_6  1  0.79588950  0.70411050  0.00000000  1
  Mg  Mg5_7  1  0.79588950  0.70411050  0.50000000  1
  Fe  Fe0_0  1  0.16578150  0.33421850  0.25000000  1
  Fe  Fe0_1  1  0.16578150  0.33421850  0.75000000  1
  Fe  Fe0_2  1  0.16578150  0.83421850  0.25000000  1
  Fe  Fe0_3  1  0.16578150  0.83421850  0.75000000  1
  Fe  Fe0_4  1  0.66578150  0.33421850  0.25000000  1
  Fe  Fe0_5  1  0.66578150  0.33421850  0.75000000  1
  Fe  Fe0_6  1  0.66578150  0.83421850  0.25000000  1
  Fe  Fe0_7  1  0.66578150  0.83421850  0.75000000  1
  C  C0_0  1  0.12431150  0.37568850  0.00000000  1
  C  C0_1  1  0.12431150  0.37568850  0.50000000  1
  C  C0_2  1  0.12431150  0.87568850  0.00000000  1
  C  C0_3  1  0.12431150  0.87568850  0.50000000  1
  C  C0_4  1  0.62431150  0.37568850  0.00000000  1
  C  C0_5  1  0.62431150  0.37568850  0.50000000  1
  C  C0_6  1  0.62431150  0.87568850  0.00000000  1
  C  C0_7  1  0.62431150  0.87568850  0.50000000  1
loop_
_geom_bond_atom_site_label_1
_geom_bond_atom_site_label_2
_geom_bond_distance
_geom_bond_site_symmetry_2
Mg0_0 Mg2_2 3.179288 1_555
Mg0_0 Mg5_0 3.481255 1_555
Mg0_0 Mg5_1 3.481255 1_555
Mg0_1 Mg2_3 3.179288 1_555
Mg0_1 Mg5_1 3.481255 1_555
Mg0_1 Mg5_0 3.481255 1_556
Mg0_2 Mg2_0 3.179288 1_565
Mg0_2 Mg5_2 3.481255 1_555
Mg0_2 Mg5_3 3.481255 1_555
Mg0_3 Mg2_1 3.179288 1_565
Mg0_3 Mg5_3 3.481255 1_555
Mg0_3 Mg5_2 3.481255 1_556
Mg0_4 Mg2_6 3.179288 1_555
Mg0_4 Mg5_4 3.481255 1_555
Mg0_4 Mg5_5 3.481255 1_555
Mg0_5 Mg2_7 3.179288 1_555
Mg0_5 Mg5_5 3.481255 1_555
Mg0_5 Mg5_4 3.481255 1_556
Mg0_6 Mg2_4 3.179288 1_565
Mg0_6 Mg5_6 3.481255 1_555
Mg0_6 Mg5_7 3.481255 1_555
Mg0_7 Mg2_5 3.179288 1_565
Mg0_7 Mg5_6 3.481255 1_556
Mg0_7 Mg5_7 3.481255 1_555
Mg1_0 Mg2_4 3.179288 1_455
Mg1_0 Mg5_0 3.481255 1_555
Mg1_0 Mg5_1 3.481255 1_555
Mg1_1 Mg2_5 3.179288 1_455
Mg1_1 Mg5_0 3.481255 1_556
Mg1_1 Mg5_1 3.481255 1_555
Mg1_2 Mg2_6 3.179288 1_455
Mg1_2 Mg5_2 3.481255 1_555
Mg1_2 Mg5_3 3.481255 1_555
Mg1_3 Mg2_7 3.179288 1_455
Mg1_3 Mg5_3 3.481255 1_555
Mg1_3 Mg5_2 3.481255 1_556
Mg1_4 Mg2_0 3.179288 1_555
Mg1_4 Mg5_4 3.481255 1_555
Mg1_4 Mg5_5 3.481255 1_555
Mg1_5 Mg2_1 3.179288 1_555
Mg1_5 Mg5_5 3.481255 1_555
Mg1_5 Mg5_4 3.481255 1_556
Mg1_6 Mg2_2 3.179288 1_555
Mg1_6 Mg5_7 3.481255 1_555
Mg1_6 Mg5_6 3.481255 1_555
Mg1_7 Mg2_3 3.179288 1_555
Mg1_7 Mg5_7 3.481255 1_555
Mg1_7 Mg5_6 3.481255 1_556
Mg2_0 Mg3_3 3.002107 1_545
Mg2_0 Mg3_2 3.002107 1_545
Mg2_0 Mg4_5 3.002107 1_555
Mg2_0 Mg4_4 3.002107 1_555
Mg2_0 Mg5_0 3.015925 1_555
Mg2_0 Mg5_1 3.015925 1_555
Mg2_0 Mg2_1 3.169971 1_555
Mg2_0 Mg2_1 3.169971 1_554
Mg2_1 Mg3_2 3.002107 1_546
Mg2_1 Mg3_3 3.002107 1_545
Mg2_1 Mg4_5 3.002107 1_555
Mg2_1 Mg4_4 3.002107 1_556
Mg2_1 Mg5_0 3.015925 1_556
Mg2_1 Mg5_1 3.015925 1_555
Mg2_2 Mg4_7 3.002107 1_555
Mg2_2 Mg4_6 3.002107 1_555
Mg2_2 Mg3_0 3.002107 1_555
Mg2_2 Mg3_1 3.002107 1_555
Mg2_2 Mg5_3 3.015925 1_555
Mg2_2 Mg5_2 3.015925 1_555
Mg2_2 Mg2_3 3.169971 1_554
Mg2_2 Mg2_3 3.169971 1_555
Mg2_3 Mg4_7 3.002107 1_555
Mg2_3 Mg4_6 3.002107 1_556
Mg2_3 Mg3_0 3.002107 1_556
Mg2_3 Mg3_1 3.002107 1_555
Mg2_3 Mg5_3 3.015925 1_555
Mg2_3 Mg5_2 3.015925 1_556
Mg2_4 Mg3_6 3.002107 1_545
Mg2_4 Mg3_7 3.002107 1_545
Mg2_4 Mg4_1 3.002107 1_655
Mg2_4 Mg4_0 3.002107 1_655
Mg2_4 Mg5_4 3.015925 1_555
Mg2_4 Mg5_5 3.015925 1_555
Mg2_4 Mg2_5 3.169971 1_554
Mg2_4 Mg2_5 3.169971 1_555
Mg2_5 Mg3_6 3.002107 1_546
Mg2_5 Mg3_7 3.002107 1_545
Mg2_5 Mg4_1 3.002107 1_655
Mg2_5 Mg4_0 3.002107 1_656
Mg2_5 Mg5_4 3.015925 1_556
Mg2_5 Mg5_5 3.015925 1_555
Mg2_6 Mg3_5 3.002107 1_555
Mg2_6 Mg3_4 3.002107 1_555
Mg2_6 Mg4_3 3.002107 1_655
Mg2_6 Mg4_2 3.002107 1_655
Mg2_6 Mg5_6 3.015925 1_555
Mg2_6 Mg5_7 3.015925 1_555
Mg2_6 Mg2_7 3.169971 1_555
Mg2_6 Mg2_7 3.169971 1_554
Mg2_7 Mg3_4 3.002107 1_556
Mg2_7 Mg3_5 3.002107 1_555
Mg2_7 Mg4_3 3.002107 1_655
Mg2_7 Mg4_2 3.002107 1_656
Mg2_7 Mg5_7 3.015925 1_555
Mg2_7 Mg5_6 3.015925 1_556
Mg3_0 Mg5_0 3.087414 1_555
Mg3_1 Mg5_1 3.087414 1_555
Mg3_2 Mg5_2 3.087414 1_555
Mg3_3 Mg5_3 3.087414 1_555
Mg3_4 Mg5_4 3.087414 1_555
Mg3_5 Mg5_5 3.087414 1_555
Mg3_6 Mg5_6 3.087414 1_555
Mg3_7 Mg5_7 3.087414 1_555
Mg4_0 Mg5_0 3.087414 1_555
Mg4_1 Mg5_1 3.087414 1_555
Mg4_2 Mg5_2 3.087414 1_555
Mg4_3 Mg5_3 3.087414 1_555
Mg4_4 Mg5_4 3.087414 1_555
Mg4_5 Mg5_5 3.087414 1_555
Mg4_6 Mg5_6 3.087414 1_555
Mg4_7 Mg5_7 3.087414 1_555
Mg5_0 Mg5_1 3.169971 1_554
Mg5_0 Mg5_1 3.169971 1_555
Mg5_2 Mg5_3 3.169971 1_554
Mg5_2 Mg5_3 3.169971 1_555
Mg5_4 Mg5_5 3.169971 1_555
Mg5_4 Mg5_5 3.169971 1_554
Mg5_6 Mg5_7 3.169971 1_555
Mg5_6 Mg5_7 3.169971 1_554
Fe0_0 Mg3_0 2.706579 1_555
Fe0_0 Mg3_1 2.706579 1_555
Fe0_0 Mg4_0 2.706579 1_555
Fe0_0 Mg4_1 2.706579 1_555
Fe0_0 Mg5_0 3.066198 1_555
Fe0_0 Mg5_1 3.066198 1_555
Fe0_1 Mg3_0 2.706579 1_556
Fe0_1 Mg3_1 2.706579 1_555
Fe0_1 Mg4_1 2.706579 1_555
Fe0_1 Mg4_0 2.706579 1_556
Fe0_1 Mg5_0 3.066198 1_556
Fe0_1 Mg5_1 3.066198 1_555
Fe0_2 Mg4_3 2.706579 1_555
Fe0_2 Mg4_2 2.706579 1_555
Fe0_2 Mg3_3 2.706579 1_555
Fe0_2 Mg3_2 2.706579 1_555
Fe0_2 Mg5_3 3.066198 1_555
Fe0_2 Mg5_2 3.066198 1_555
Fe0_3 Mg4_3 2.706579 1_555
Fe0_3 Mg4_2 2.706579 1_556
Fe0_3 Mg3_2 2.706579 1_556
Fe0_3 Mg3_3 2.706579 1_555
Fe0_3 Mg5_3 3.066198 1_555
Fe0_3 Mg5_2 3.066198 1_556
Fe0_4 Mg3_5 2.706579 1_555
Fe0_4 Mg4_4 2.706579 1_555
Fe0_4 Mg3_4 2.706579 1_555
Fe0_4 Mg4_5 2.706579 1_555
Fe0_4 Mg5_4 3.066198 1_555
Fe0_4 Mg5_5 3.066198 1_555
Fe0_5 Mg4_4 2.706579 1_556
Fe0_5 Mg3_4 2.706579 1_556
Fe0_5 Mg3_5 2.706579 1_555
Fe0_5 Mg4_5 2.706579 1_555
Fe0_5 Mg5_4 3.066198 1_556
Fe0_5 Mg5_5 3.066198 1_555
Fe0_6 Mg3_7 2.706579 1_555
Fe0_6 Mg4_6 2.706579 1_555
Fe0_6 Mg3_6 2.706579 1_555
Fe0_6 Mg4_7 2.706579 1_555
Fe0_6 Mg5_6 3.066198 1_555
Fe0_6 Mg5_7 3.066198 1_555
Fe0_7 Mg3_7 2.706579 1_555
Fe0_7 Mg4_7 2.706579 1_555
Fe0_7 Mg3_6 2.706579 1_556
Fe0_7 Mg4_6 2.706579 1_556
Fe0_7 Mg5_7 3.066198 1_555
Fe0_7 Mg5_6 3.066198 1_556
C0_0 Fe0_1 1.792230 1_554
C0_0 Fe0_0 1.792230 1_555
C0_0 Mg3_0 2.491017 1_555
C0_0 Mg4_0 2.491017 1_555
C0_0 Mg0_4 2.608780 1_455
C0_0 Mg0_5 2.608780 1_454
C0_0 Mg1_3 2.608780 1_554
C0_0 Mg1_2 2.608780 1_555
C0_1 Fe0_1 1.792230 1_555
C0_1 Fe0_0 1.792230 1_555
C0_1 Mg3_1 2.491017 1_555
C0_1 Mg4_1 2.491017 1_555
C0_1 Mg0_4 2.608780 1_455
C0_1 Mg0_5 2.608780 1_455
C0_1 Mg1_2 2.608780 1_555
C0_1 Mg1_3 2.608780 1_555
C0_2 Fe0_2 1.792230 1_555
C0_2 Fe0_3 1.792230 1_554
C0_2 Mg4_2 2.491017 1_555
C0_2 Mg3_2 2.491017 1_555
C0_2 Mg0_7 2.608780 1_454
C0_2 Mg0_6 2.608780 1_455
C0_2 Mg1_1 2.608780 1_564
C0_2 Mg1_0 2.608780 1_565
C0_3 Fe0_2 1.792230 1_555
C0_3 Fe0_3 1.792230 1_555
C0_3 Mg4_3 2.491017 1_555
C0_3 Mg3_3 2.491017 1_555
C0_3 Mg0_6 2.608780 1_455
C0_3 Mg0_7 2.608780 1_455
C0_3 Mg1_1 2.608780 1_565
C0_3 Mg1_0 2.608780 1_565
C0_4 Fe0_5 1.792230 1_554
C0_4 Fe0_4 1.792230 1_555
C0_4 Mg4_4 2.491017 1_555
C0_4 Mg3_4 2.491017 1_555
C0_4 Mg1_7 2.608780 1_554
C0_4 Mg1_6 2.608780 1_555
C0_4 Mg0_0 2.608780 1_555
C0_4 Mg0_1 2.608780 1_554
C0_5 Fe0_5 1.792230 1_555
C0_5 Fe0_4 1.792230 1_555
C0_5 Mg3_5 2.491017 1_555
C0_5 Mg4_5 2.491017 1_555
C0_5 Mg1_6 2.608780 1_555
C0_5 Mg1_7 2.608780 1_555
C0_5 Mg0_1 2.608780 1_555
C0_5 Mg0_0 2.608780 1_555
C0_6 Fe0_6 1.792230 1_555
C0_6 Fe0_7 1.792230 1_554
C0_6 Mg3_6 2.491017 1_555
C0_6 Mg4_6 2.491017 1_555
C0_6 Mg0_3 2.608780 1_554
C0_6 Mg0_2 2.608780 1_555
C0_6 Mg1_5 2.608780 1_564
C0_6 Mg1_4 2.608780 1_565
C0_7 Fe0_6 1.792230 1_555
C0_7 Fe0_7 1.792230 1_555
C0_7 Mg4_7 2.491017 1_555
C0_7 Mg3_7 2.491017 1_555
C0_7 Mg0_3 2.608780 1_555
C0_7 Mg0_2 2.608780 1_555
C0_7 Mg1_5 2.608780 1_565
C0_7 Mg1_4 2.608780 1_565
