# generated using pymatgen
data_Ho3CrS6
_symmetry_space_group_name_H-M   'P 1'
_cell_length_a   3.74511955
_cell_length_b   13.24352486
_cell_length_c   15.89482313
_cell_angle_alpha   90.00000000
_cell_angle_beta   90.00000000
_cell_angle_gamma   90.00000000
_symmetry_Int_Tables_number   1
_chemical_formula_structural   Ho3CrS6
_chemical_formula_sum   'Ho12 Cr4 S24'
_cell_volume   788.36071802
_cell_formula_units_Z   4
loop_
 _symmetry_equiv_pos_site_id
 _symmetry_equiv_pos_as_xyz
  1  'x, y, z'
loop_
 _atom_site_type_symbol
 _atom_site_label
 _atom_site_symmetry_multiplicity
 _atom_site_fract_x
 _atom_site_fract_y
 _atom_site_fract_z
 _atom_site_occupancy
  Ho  Ho0  1  0.00000000  0.54889849  0.27863988  1
  Ho  Ho1  1  0.00000000  0.45110151  0.72136012  1
  Ho  Ho2  1  0.50000000  0.95110151  0.77863988  1
  Ho  Ho3  1  0.50000000  0.04889849  0.22136012  1
  Ho  Ho4  1  -0.00000000  0.75637962  0.09901103  1
  Ho  Ho5  1  -0.00000000  0.24362038  0.90098897  1
  Ho  Ho6  1  0.50000000  0.74362038  0.59901103  1
  Ho  Ho7  1  0.50000000  0.25637962  0.40098897  1
  Ho  Ho8  1  0.00000000  0.31791093  0.14734314  1
  Ho  Ho9  1  0.00000000  0.68208907  0.85265686  1
  Ho  Ho10  1  0.50000000  0.18208907  0.64734314  1
  Ho  Ho11  1  0.50000000  0.81791093  0.35265686  1
  Cr  Cr0  1  -0.00000000  -0.00000000  0.50000000  1
  Cr  Cr1  1  0.50000000  0.50000000  0.00000000  1
  Cr  Cr2  1  0.00000000  -0.00000000  0.00000000  1
  Cr  Cr3  1  0.50000000  0.50000000  0.50000000  1
  S  S0  1  0.00000000  0.11930584  0.10929963  1
  S  S1  1  -0.00000000  0.88069416  0.89070037  1
  S  S2  1  0.50000000  0.38069416  0.60929963  1
  S  S3  1  0.50000000  0.61930584  0.39070037  1
  S  S4  1  0.00000000  0.18839373  0.28987077  1
  S  S5  1  -0.00000000  0.81160627  0.71012923  1
  S  S6  1  0.50000000  0.31160627  0.78987077  1
  S  S7  1  0.50000000  0.68839373  0.21012923  1
  S  S8  1  0.00000000  0.18094531  0.51995131  1
  S  S9  1  -0.00000000  0.81905469  0.48004869  1
  S  S10  1  0.50000000  0.31905469  0.01995131  1
  S  S11  1  0.50000000  0.68094531  0.98004869  1
  S  S12  1  -0.00000000  0.52097897  0.09803207  1
  S  S13  1  0.00000000  0.47902103  0.90196793  1
  S  S14  1  0.50000000  0.97902103  0.59803207  1
  S  S15  1  0.50000000  0.02097897  0.40196793  1
  S  S16  1  -0.00000000  0.10414255  0.75254786  1
  S  S17  1  -0.00000000  0.89585745  0.24745214  1
  S  S18  1  0.50000000  0.39585745  0.25254786  1
  S  S19  1  0.50000000  0.60414255  0.74745214  1
  S  S20  1  -0.00000000  0.41679480  0.42444562  1
  S  S21  1  0.00000000  0.58320520  0.57555438  1
  S  S22  1  0.50000000  0.08320520  0.92444562  1
  S  S23  1  0.50000000  0.91679480  0.07555438  1
loop_
_geom_bond_atom_site_label_1
_geom_bond_atom_site_label_2
_geom_bond_distance
_geom_bond_site_symmetry_2
Ho0 S3 2.747460 1_455
Ho0 S3 2.747460 1_555
Ho0 S18 2.790414 1_455
Ho0 S18 2.790414 1_555
Ho0 S7 2.846971 1_455
Ho0 S7 2.846971 1_555
Ho0 S12 2.894444 1_555
Ho0 S20 2.903770 1_555
Ho1 S2 2.747460 1_555
Ho1 S2 2.747460 1_455
Ho1 S19 2.790414 1_555
Ho1 S19 2.790414 1_455
Ho1 S6 2.846971 1_455
Ho1 S6 2.846971 1_555
Ho1 S13 2.894444 1_555
Ho1 S21 2.903770 1_555
Ho2 S1 2.747460 1_655
Ho2 S1 2.747460 1_555
Ho2 S16 2.790414 1_565
Ho2 S16 2.790414 1_665
Ho2 S5 2.846971 1_655
Ho2 S5 2.846971 1_555
Ho2 S14 2.894444 1_555
Ho2 S22 2.903770 1_565
Ho3 S0 2.747460 1_655
Ho3 S0 2.747460 1_555
Ho3 S17 2.790414 1_645
Ho3 S17 2.790414 1_545
Ho3 S4 2.846971 1_555
Ho3 S4 2.846971 1_655
Ho3 S15 2.894444 1_555
Ho3 S23 2.903770 1_545
Ho4 S7 2.727018 1_555
Ho4 S7 2.727018 1_455
Ho4 S11 2.842527 1_554
Ho4 S11 2.842527 1_454
Ho4 S23 2.856367 1_555
Ho4 S23 2.856367 1_455
Ho4 S17 2.996506 1_555
Ho4 S12 3.117573 1_555
Ho5 S6 2.727018 1_555
Ho5 S6 2.727018 1_455
Ho5 S10 2.842527 1_556
Ho5 S10 2.842527 1_456
Ho5 S22 2.856367 1_455
Ho5 S22 2.856367 1_555
Ho5 S16 2.996506 1_555
Ho5 S13 3.117573 1_555
Ho6 S5 2.727018 1_655
Ho6 S5 2.727018 1_555
Ho6 S9 2.842527 1_555
Ho6 S9 2.842527 1_655
Ho6 S21 2.856367 1_655
Ho6 S21 2.856367 1_555
Ho6 S19 2.996506 1_555
Ho6 S14 3.117573 1_555
Ho7 S4 2.727018 1_655
Ho7 S4 2.727018 1_555
Ho7 S8 2.842527 1_555
Ho7 S8 2.842527 1_655
Ho7 S20 2.856367 1_655
Ho7 S20 2.856367 1_555
Ho7 S18 2.996506 1_555
Ho7 S15 3.117573 1_555
Ho8 S0 2.698847 1_555
Ho8 S18 2.714477 1_455
Ho8 S18 2.714477 1_555
Ho8 S10 2.758045 1_455
Ho8 S10 2.758045 1_555
Ho8 S12 2.801225 1_555
Ho8 S4 2.841549 1_555
Ho9 S1 2.698847 1_555
Ho9 S19 2.714477 1_455
Ho9 S19 2.714477 1_555
Ho9 S11 2.758045 1_555
Ho9 S11 2.758045 1_455
Ho9 S13 2.801225 1_555
Ho9 S5 2.841549 1_555
Ho10 S2 2.698847 1_555
Ho10 S16 2.714477 1_655
Ho10 S16 2.714477 1_555
Ho10 S8 2.758045 1_655
Ho10 S8 2.758045 1_555
Ho10 S14 2.801225 1_545
Ho10 S6 2.841549 1_555
Ho11 S3 2.698847 1_555
Ho11 S17 2.714477 1_555
Ho11 S17 2.714477 1_655
Ho11 S9 2.758045 1_555
Ho11 S9 2.758045 1_655
Ho11 S15 2.801225 1_565
Ho11 S7 2.841549 1_555
Cr0 S8 2.417246 1_555
Cr0 S9 2.417246 1_545
Cr0 S15 2.451870 1_555
Cr0 S15 2.451870 1_455
Cr0 S14 2.451870 1_445
Cr0 S14 2.451870 1_545
Cr1 S10 2.417246 1_555
Cr1 S11 2.417246 1_554
Cr1 S13 2.451870 1_654
Cr1 S13 2.451870 1_554
Cr1 S12 2.451870 1_555
Cr1 S12 2.451870 1_655
Cr2 S1 2.348340 1_544
Cr2 S0 2.348340 1_555
Cr2 S22 2.482528 1_454
Cr2 S22 2.482528 1_554
Cr2 S23 2.482528 1_445
Cr2 S23 2.482528 1_545
Cr3 S2 2.348340 1_555
Cr3 S3 2.348340 1_555
Cr3 S21 2.482528 1_555
Cr3 S21 2.482528 1_655
Cr3 S20 2.482528 1_555
Cr3 S20 2.482528 1_655
