# generated using pymatgen
data_CaPr(FeO3)2
_symmetry_space_group_name_H-M   'P 1'
_cell_length_a   5.47764600
_cell_length_b   5.54056400
_cell_length_c   7.76342200
_cell_angle_alpha   90.00000000
_cell_angle_beta   90.00000000
_cell_angle_gamma   90.00000000
_symmetry_Int_Tables_number   1
_chemical_formula_structural   CaPr(FeO3)2
_chemical_formula_sum   'Ca2 Pr2 Fe4 O12'
_cell_volume   235.61402141
_cell_formula_units_Z   2
loop_
 _symmetry_equiv_pos_site_id
 _symmetry_equiv_pos_as_xyz
  1  'x, y, z'
loop_
 _atom_site_type_symbol
 _atom_site_label
 _atom_site_symmetry_multiplicity
 _atom_site_fract_x
 _atom_site_fract_y
 _atom_site_fract_z
 _atom_site_occupancy
  Ca  Ca0  1  0.49112100  0.20829500  0.00000000  1
  Ca  Ca1  1  0.99112100  0.79170500  0.50000000  1
  Pr  Pr0  1  0.00987100  0.70899500  0.00000000  1
  Pr  Pr1  1  0.50987100  0.29100500  0.50000000  1
  Fe  Fe0  1  0.00050100  0.24794000  0.75032800  1
  Fe  Fe1  1  0.00050100  0.24794000  0.24967200  1
  Fe  Fe2  1  0.50050100  0.75206000  0.25032800  1
  Fe  Fe3  1  0.50050100  0.75206000  0.74967200  1
  O  O0  1  0.07757600  0.23071200  0.50000000  1
  O  O1  1  0.21406300  0.96298900  0.79081400  1
  O  O2  1  0.21406300  0.96298900  0.20918600  1
  O  O3  1  0.28632200  0.46283100  0.20667200  1
  O  O4  1  0.28632200  0.46283100  0.79332800  1
  O  O5  1  0.41967100  0.73176700  0.50000000  1
  O  O6  1  0.57757600  0.76928800  0.00000000  1
  O  O7  1  0.71406300  0.03701100  0.70918600  1
  O  O8  1  0.71406300  0.03701100  0.29081400  1
  O  O9  1  0.78632200  0.53716900  0.70667200  1
  O  O10  1  0.78632200  0.53716900  0.29332800  1
  O  O11  1  0.91967100  0.26823300  0.00000000  1
loop_
_geom_bond_atom_site_label_1
_geom_bond_atom_site_label_2
_geom_bond_distance
_geom_bond_site_symmetry_2
Ca0 O11 2.370819 1_555
Ca0 O3 2.412821 1_555
Ca0 O4 2.412821 1_554
Ca0 O6 2.478019 1_545
Ca0 O2 2.605342 1_545
Ca0 O1 2.605342 1_544
Ca0 O8 2.736641 1_555
Ca0 O7 2.736641 1_554
Ca1 O5 2.370819 1_655
Ca1 O9 2.412821 1_555
Ca1 O10 2.412821 1_555
Ca1 O0 2.478019 1_665
Ca1 O7 2.605342 1_565
Ca1 O8 2.605342 1_565
Ca1 O2 2.736641 1_655
Ca1 O1 2.736641 1_655
Fe0 O7 1.982316 1_455
Fe0 O1 1.989934 1_545
Fe0 O0 1.991021 1_555
Fe0 O11 1.991411 1_456
Fe0 O4 1.995043 1_555
Fe0 O9 2.014755 1_455
Fe1 O8 1.982316 1_455
Fe1 O2 1.989934 1_545
Fe1 O0 1.991021 1_555
Fe1 O11 1.991411 1_455
Fe1 O3 1.995043 1_555
Fe1 O10 2.014755 1_455
Fe2 O2 1.982316 1_555
Fe2 O8 1.989934 1_565
Fe2 O6 1.991021 1_555
Fe2 O5 1.991411 1_555
Fe2 O10 1.995043 1_555
Fe2 O3 2.014755 1_555
Fe3 O1 1.982316 1_555
Fe3 O7 1.989934 1_565
Fe3 O6 1.991021 1_556
Fe3 O5 1.991411 1_555
Fe3 O9 1.995043 1_555
Fe3 O4 2.014755 1_555
O0 Pr1 2.391406 1_555
O1 Pr0 2.422562 1_556
O2 Pr0 2.422562 1_555
O3 Pr0 2.593773 1_555
O3 Pr1 2.755278 1_555
O4 Pr0 2.593773 1_556
O4 Pr1 2.755278 1_555
O5 Pr1 2.491551 1_555
O6 Pr0 2.391406 1_655
O7 Pr1 2.422562 1_555
O8 Pr1 2.422562 1_555
O9 Pr1 2.593773 1_555
O9 Pr0 2.755278 1_656
O10 Pr1 2.593773 1_555
O10 Pr0 2.755278 1_655
O11 Pr0 2.491551 1_655
