# generated using pymatgen
data_Ca2(TlPb)3
_symmetry_space_group_name_H-M   'P 1'
_cell_length_a   4.84986889
_cell_length_b   4.86557365
_cell_length_c   9.82409690
_cell_angle_alpha   90.00000000
_cell_angle_beta   90.00000000
_cell_angle_gamma   90.00000000
_symmetry_Int_Tables_number   1
_chemical_formula_structural   Ca2(TlPb)3
_chemical_formula_sum   'Ca2 Tl3 Pb3'
_cell_volume   231.82308797
_cell_formula_units_Z   1
loop_
 _symmetry_equiv_pos_site_id
 _symmetry_equiv_pos_as_xyz
  1  'x, y, z'
loop_
 _atom_site_type_symbol
 _atom_site_label
 _atom_site_symmetry_multiplicity
 _atom_site_fract_x
 _atom_site_fract_y
 _atom_site_fract_z
 _atom_site_occupancy
  Ca  Ca0  1  0.00000000  -0.00000000  0.74914334  1
  Ca  Ca1  1  0.00000000  -0.00000000  0.25085666  1
  Tl  Tl0  1  0.50000000  -0.00000000  0.50000000  1
  Tl  Tl1  1  0.00000000  0.50000000  0.00000000  1
  Tl  Tl2  1  0.00000000  0.50000000  0.50000000  1
  Pb  Pb0  1  0.50000000  0.50000000  0.74808083  1
  Pb  Pb1  1  0.50000000  0.50000000  0.25191917  1
  Pb  Pb2  1  0.50000000  -0.00000000  0.00000000  1
loop_
_geom_bond_atom_site_label_1
_geom_bond_atom_site_label_2
_geom_bond_distance
_geom_bond_site_symmetry_2
Ca0 Pb0 3.434948 1_445
Ca0 Pb0 3.434948 1_545
Ca0 Pb0 3.434948 1_555
Ca0 Pb0 3.434948 1_455
Ca0 Tl0 3.445445 1_455
Ca0 Tl0 3.445445 1_555
Ca0 Tl2 3.450976 1_555
Ca0 Tl2 3.450976 1_545
Ca0 Pb2 3.457423 1_456
Ca0 Pb2 3.457423 1_556
Ca0 Tl1 3.462935 1_546
Ca0 Tl1 3.462935 1_556
Ca1 Pb1 3.434948 1_455
Ca1 Pb1 3.434948 1_445
Ca1 Pb1 3.434948 1_555
Ca1 Pb1 3.434948 1_545
Ca1 Tl0 3.445445 1_455
Ca1 Tl0 3.445445 1_555
Ca1 Tl2 3.450976 1_555
Ca1 Tl2 3.450976 1_545
Ca1 Pb2 3.457423 1_555
Ca1 Pb2 3.457423 1_455
Ca1 Tl1 3.462935 1_555
Ca1 Tl1 3.462935 1_545
Tl0 Tl2 3.434932 1_545
Tl0 Tl2 3.434932 1_655
Tl0 Tl2 3.434932 1_645
Tl0 Tl2 3.434932 1_555
Pb0 Tl2 3.438038 1_655
Pb0 Tl2 3.438038 1_555
Pb0 Tl0 3.443581 1_555
Pb0 Tl0 3.443581 1_565
Pb0 Tl1 3.464871 1_556
Pb0 Tl1 3.464871 1_656
Pb1 Tl2 3.438038 1_555
Pb1 Tl2 3.438038 1_655
Pb1 Tl0 3.443581 1_555
Pb1 Tl0 3.443581 1_565
Pb1 Tl1 3.464871 1_655
Pb1 Tl1 3.464871 1_555
Pb2 Tl1 3.434932 1_645
Pb2 Tl1 3.434932 1_555
Pb2 Tl1 3.434932 1_545
Pb2 Tl1 3.434932 1_655
