# generated using pymatgen
data_KVFeP2H5O11
_symmetry_space_group_name_H-M   'P 1'
_cell_length_a   9.80013300
_cell_length_b   9.84633600
_cell_length_c   12.39218938
_cell_angle_alpha   51.19545010
_cell_angle_beta   90.00000000
_cell_angle_gamma   90.00000000
_symmetry_Int_Tables_number   1
_chemical_formula_structural   KVFeP2H5O11
_chemical_formula_sum   'K4 V4 Fe4 P8 H20 O44'
_cell_volume   931.86449572
_cell_formula_units_Z   4
loop_
 _symmetry_equiv_pos_site_id
 _symmetry_equiv_pos_as_xyz
  1  'x, y, z'
loop_
 _atom_site_type_symbol
 _atom_site_label
 _atom_site_symmetry_multiplicity
 _atom_site_fract_x
 _atom_site_fract_y
 _atom_site_fract_z
 _atom_site_occupancy
  K  K0  1  0.69594700  0.88165000  0.60054000  1
  K  K1  1  0.19594700  0.11835000  0.89946000  1
  K  K2  1  0.30405300  0.11835000  0.39946000  1
  K  K3  1  0.80405300  0.88165000  0.10054000  1
  V  V0  1  0.95173200  0.52238000  0.86876900  1
  V  V1  1  0.45173200  0.47762000  0.63123100  1
  V  V2  1  0.04826800  0.47762000  0.13123100  1
  V  V3  1  0.54826800  0.52238000  0.36876900  1
  Fe  Fe0  1  0.72901400  0.21506200  0.18900700  1
  Fe  Fe1  1  0.22901400  0.78493800  0.31099300  1
  Fe  Fe2  1  0.27098600  0.78493800  0.81099300  1
  Fe  Fe3  1  0.77098600  0.21506200  0.68900700  1
  P  P0  1  0.82171400  0.34006700  0.37152600  1
  P  P1  1  0.32171400  0.65993300  0.12847400  1
  P  P2  1  0.17828600  0.65993300  0.62847400  1
  P  P3  1  0.67828600  0.34006700  0.87152600  1
  P  P4  1  0.02910900  0.14246800  0.14742900  1
  P  P5  1  0.52910900  0.85753200  0.35257100  1
  P  P6  1  0.97089100  0.85753200  0.85257100  1
  P  P7  1  0.47089100  0.14246800  0.64742900  1
  H  H0  1  0.47462200  0.35207200  0.10216100  1
  H  H1  1  0.97462200  0.64792800  0.39783900  1
  H  H2  1  0.52537800  0.64792800  0.89783900  1
  H  H3  1  0.02537800  0.35207200  0.60216100  1
  H  H4  1  0.52466900  0.43599500  0.17505100  1
  H  H5  1  0.02466900  0.56400500  0.32494900  1
  H  H6  1  0.47533100  0.56400500  0.82494900  1
  H  H7  1  0.97533100  0.43599500  0.67505100  1
  H  H8  1  0.58632300  0.70321800  0.03352800  1
  H  H9  1  0.08632300  0.29678200  0.46647200  1
  H  H10  1  0.41367700  0.29678200  0.96647200  1
  H  H11  1  0.91367700  0.70321800  0.53352800  1
  H  H12  1  0.65087800  0.84089400  0.88512000  1
  H  H13  1  0.15087800  0.15910600  0.61488000  1
  H  H14  1  0.34912200  0.15910600  0.11488000  1
  H  H15  1  0.84912200  0.84089400  0.38512000  1
  H  H16  1  0.79633700  0.54242500  0.02939000  1
  H  H17  1  0.29633700  0.45757500  0.47061000  1
  H  H18  1  0.20366300  0.45757500  0.97061000  1
  H  H19  1  0.70366300  0.54242500  0.52939000  1
  O  O0  1  0.12258200  0.99898500  0.17590100  1
  O  O1  1  0.62258200  0.00101500  0.32409900  1
  O  O2  1  0.87741800  0.00101500  0.82409900  1
  O  O3  1  0.37741800  0.99898500  0.67590100  1
  O  O4  1  0.83510400  0.23553800  0.52880900  1
  O  O5  1  0.33510400  0.76446200  0.97119100  1
  O  O6  1  0.16489600  0.76446200  0.47119100  1
  O  O7  1  0.66489600  0.23553800  0.02880900  1
  O  O8  1  0.64928700  0.71577700  0.96562800  1
  O  O9  1  0.14928700  0.28422300  0.53437200  1
  O  O10  1  0.35071300  0.28422300  0.03437200  1
  O  O11  1  0.85071300  0.71577700  0.46562800  1
  O  O12  1  0.54856500  0.35405600  0.15634800  1
  O  O13  1  0.04856500  0.64594400  0.34365200  1
  O  O14  1  0.45143500  0.64594400  0.84365200  1
  O  O15  1  0.95143500  0.35405600  0.65634800  1
  O  O16  1  0.72846400  0.50133300  0.30168400  1
  O  O17  1  0.22846400  0.49866700  0.19831600  1
  O  O18  1  0.27153600  0.49866700  0.69831600  1
  O  O19  1  0.77153600  0.50133300  0.80168400  1
  O  O20  1  0.77269600  0.21435600  0.34516900  1
  O  O21  1  0.27269600  0.78564400  0.15483100  1
  O  O22  1  0.22730400  0.78564400  0.65483100  1
  O  O23  1  0.72730400  0.21435600  0.84516900  1
  O  O24  1  0.88771600  0.06388200  0.21887000  1
  O  O25  1  0.38771600  0.93611800  0.28113000  1
  O  O26  1  0.11228400  0.93611800  0.78113000  1
  O  O27  1  0.61228400  0.06388200  0.71887000  1
  O  O28  1  0.96929700  0.40969000  0.30928500  1
  O  O29  1  0.46929700  0.59031000  0.19071500  1
  O  O30  1  0.03070300  0.59031000  0.69071500  1
  O  O31  1  0.53070300  0.40969000  0.80928500  1
  O  O32  1  0.85724500  0.44386600  0.05939800  1
  O  O33  1  0.35724500  0.55613400  0.44060200  1
  O  O34  1  0.14275500  0.55613400  0.94060200  1
  O  O35  1  0.64275500  0.44386600  0.55939800  1
  O  O36  1  0.09349000  0.23695500  0.19885300  1
  O  O37  1  0.59349000  0.76304500  0.30114700  1
  O  O38  1  0.90651000  0.76304500  0.80114700  1
  O  O39  1  0.40651000  0.23695500  0.69885300  1
  O  O40  1  0.01005600  0.27312500  0.98755300  1
  O  O41  1  0.51005600  0.72687500  0.51244700  1
  O  O42  1  0.98994400  0.72687500  0.01244700  1
  O  O43  1  0.48994400  0.27312500  0.48755300  1
loop_
_geom_bond_atom_site_label_1
_geom_bond_atom_site_label_2
_geom_bond_distance
_geom_bond_site_symmetry_2
K0 O38 2.857167 1_555
K0 O20 2.884245 1_565
K0 O1 2.930449 1_565
K0 O41 2.986323 1_555
K0 O19 3.014312 1_555
K0 O27 3.056098 1_565
K1 O39 2.857167 1_555
K1 O21 2.884245 1_546
K1 O0 2.930449 1_546
K1 O40 2.986323 1_555
K1 O18 3.014312 1_555
K1 O26 3.056098 1_545
K2 O36 2.857167 1_555
K2 O22 2.884245 1_545
K2 O3 2.930449 1_545
K2 O43 2.986323 1_555
K2 O17 3.014312 1_555
K2 O25 3.056098 1_545
K3 O37 2.857167 1_555
K3 O23 2.884245 1_564
K3 O2 2.930449 1_564
K3 O42 2.986323 1_555
K3 O16 3.014312 1_555
K3 O24 3.056098 1_565
Fe0 O7 1.968473 1_555
Fe0 O1 1.977451 1_555
Fe0 O20 1.977727 1_555
Fe0 O24 2.020229 1_555
Fe0 O12 2.114221 1_555
Fe0 O32 2.167786 1_555
Fe1 O6 1.968473 1_555
Fe1 O0 1.977451 1_555
Fe1 O21 1.977727 1_555
Fe1 O25 2.020229 1_555
Fe1 O13 2.114221 1_555
Fe1 O33 2.167786 1_555
Fe2 O5 1.968473 1_555
Fe2 O3 1.977451 1_555
Fe2 O22 1.977727 1_555
Fe2 O26 2.020229 1_555
Fe2 O14 2.114221 1_555
Fe2 O34 2.167786 1_555
Fe3 O4 1.968473 1_555
Fe3 O2 1.977451 1_555
Fe3 O23 1.977727 1_555
Fe3 O27 2.020229 1_555
Fe3 O15 2.114221 1_555
Fe3 O35 2.167786 1_555
H0 O12 0.996418 1_555
H1 O13 0.996418 1_655
H2 O14 0.996418 1_555
H3 O15 0.996418 1_455
H4 O12 0.996919 1_555
H4 O29 1.735079 1_555
H5 O13 0.996919 1_555
H5 O28 1.735079 1_455
H6 O14 0.996919 1_555
H6 O31 1.735079 1_555
H7 O15 0.996919 1_555
H7 O30 1.735079 1_655
H8 O8 0.986733 1_554
H9 O9 0.986733 1_555
H10 O10 0.986733 1_556
H11 O11 0.986733 1_555
H12 O8 0.986326 1_555
H13 O9 0.986326 1_555
H14 O10 0.986326 1_555
H15 O11 0.986326 1_555
H16 O32 0.991993 1_555
H17 O33 0.991993 1_555
H18 O34 0.991993 1_555
H19 O35 0.991993 1_555
O0 P4 1.528016 1_565
O1 P5 1.528016 1_545
O2 P6 1.528016 1_545
O3 P7 1.528016 1_565
O4 P0 1.536620 1_555
O5 P1 1.536620 1_556
O6 P2 1.536620 1_555
O7 P3 1.536620 1_554
O16 P0 1.543739 1_555
O16 V3 2.017063 1_555
O17 P1 1.543739 1_555
O17 V2 2.017063 1_555
O18 P2 1.543739 1_555
O18 V1 2.017063 1_555
O19 P3 1.543739 1_555
O19 V0 2.017063 1_555
O20 P0 1.541521 1_555
O21 P1 1.541521 1_555
O22 P2 1.541521 1_555
O23 P3 1.541521 1_555
O24 P4 1.563335 1_655
O25 P5 1.563335 1_555
O26 P6 1.563335 1_455
O27 P7 1.563335 1_555
O28 P0 1.579252 1_555
O28 V2 2.016230 1_655
O29 P1 1.579252 1_555
O29 V3 2.016230 1_555
O30 P2 1.579252 1_555
O30 V0 2.016230 1_455
O31 P3 1.579252 1_555
O31 V1 2.016230 1_555
O32 V0 2.178696 1_554
O32 V2 2.185916 1_655
O33 V1 2.178696 1_555
O33 V3 2.185916 1_555
O34 V2 2.178696 1_556
O34 V0 2.185916 1_455
O35 V3 2.178696 1_555
O35 V1 2.185916 1_555
O36 P4 1.553319 1_555
O36 V2 2.006280 1_555
O37 P5 1.553319 1_555
O37 V3 2.006280 1_555
O38 P6 1.553319 1_555
O38 V0 2.006280 1_555
O39 P7 1.553319 1_555
O39 V1 2.006280 1_555
O40 P4 1.555835 1_556
O40 V0 1.997242 1_455
O41 P5 1.555835 1_555
O41 V1 1.997242 1_555
O42 P6 1.555835 1_554
O42 V2 1.997242 1_655
O43 P7 1.555835 1_555
O43 V3 1.997242 1_555
