# generated using pymatgen
data_MgCdAg2
_symmetry_space_group_name_H-M   'P 1'
_cell_length_a   3.22428753
_cell_length_b   3.22428753
_cell_length_c   7.07126181
_cell_angle_alpha   90.00000000
_cell_angle_beta   90.00000000
_cell_angle_gamma   90.00000000
_symmetry_Int_Tables_number   1
_chemical_formula_structural   MgCdAg2
_chemical_formula_sum   'Mg1 Cd1 Ag2'
_cell_volume   73.51305045
_cell_formula_units_Z   1
loop_
 _symmetry_equiv_pos_site_id
 _symmetry_equiv_pos_as_xyz
  1  'x, y, z'
loop_
 _atom_site_type_symbol
 _atom_site_label
 _atom_site_symmetry_multiplicity
 _atom_site_fract_x
 _atom_site_fract_y
 _atom_site_fract_z
 _atom_site_occupancy
  Mg  Mg0  1  0.50000000  0.50000000  0.00000000  1
  Cd  Cd0  1  0.50000000  0.50000000  0.50000000  1
  Ag  Ag0  1  0.00000000  -0.00000000  0.76049882  1
  Ag  Ag1  1  -0.00000000  0.00000000  0.23950118  1
loop_
_geom_bond_atom_site_label_1
_geom_bond_atom_site_label_2
_geom_bond_distance
_geom_bond_site_symmetry_2
Ag0 Mg0 2.840108 1_456
Ag0 Mg0 2.840108 1_546
Ag0 Mg0 2.840108 1_556
Ag0 Mg0 2.840108 1_446
Ag0 Cd0 2.931072 1_445
Ag0 Cd0 2.931072 1_545
Ag0 Cd0 2.931072 1_455
Ag0 Cd0 2.931072 1_555
Ag1 Mg0 2.840108 1_545
Ag1 Mg0 2.840108 1_455
Ag1 Mg0 2.840108 1_555
Ag1 Mg0 2.840108 1_445
Ag1 Cd0 2.931072 1_445
Ag1 Cd0 2.931072 1_545
Ag1 Cd0 2.931072 1_455
Ag1 Cd0 2.931072 1_555
