# generated using pymatgen
data_La2CuSbS5
_symmetry_space_group_name_H-M   'P 1'
_cell_length_a   8.56477892
_cell_length_b   8.56477892
_cell_length_c   8.56477892
_cell_angle_alpha   127.58732529
_cell_angle_beta   126.72594417
_cell_angle_gamma   77.99728616
_symmetry_Int_Tables_number   1
_chemical_formula_structural   La2CuSbS5
_chemical_formula_sum   'La4 Cu2 Sb2 S10'
_cell_volume   386.68550831
_cell_formula_units_Z   2
loop_
 _symmetry_equiv_pos_site_id
 _symmetry_equiv_pos_as_xyz
  1  'x, y, z'
loop_
 _atom_site_type_symbol
 _atom_site_label
 _atom_site_symmetry_multiplicity
 _atom_site_fract_x
 _atom_site_fract_y
 _atom_site_fract_z
 _atom_site_occupancy
  La  La0  1  0.78230900  0.50000000  0.28230900  1
  La  La1  1  0.28230900  0.00000000  0.28230900  1
  La  La2  1  0.41594300  0.88428400  0.80022700  1
  La  La3  1  0.91594300  0.11571600  0.53165900  1
  Cu  Cu0  1  0.31666200  0.50000000  0.81666200  1
  Cu  Cu1  1  0.81666200  0.00000000  0.81666200  1
  Sb  Sb0  1  0.74744000  0.57917400  0.82661400  1
  Sb  Sb1  1  0.24744000  0.42082600  0.16826600  1
  S  S0  1  0.01323700  0.55982100  0.77567400  1
  S  S1  1  0.21585400  0.44017900  0.45341700  1
  S  S2  1  0.71585400  0.26243700  0.77567400  1
  S  S3  1  0.51323700  0.73756300  0.45341700  1
  S  S4  1  0.56031700  0.78543400  0.13520200  1
  S  S5  1  0.34976800  0.21456600  0.77488300  1
  S  S6  1  0.84976800  0.07488400  0.13520200  1
  S  S7  1  0.06031700  0.92511600  0.77488300  1
  S  S8  1  0.03316900  0.74193600  0.27510500  1
  S  S9  1  0.53316900  0.25806400  0.29123400  1
loop_
_geom_bond_atom_site_label_1
_geom_bond_atom_site_label_2
_geom_bond_distance
_geom_bond_site_symmetry_2
La0 S7 3.094759 1_655
La0 S6 3.094763 1_555
La0 S0 3.132841 1_655
La0 S1 3.132847 1_655
La0 S3 3.170146 1_555
La0 S2 3.170146 1_554
La0 S4 3.184063 1_555
La0 S5 3.184063 1_554
La0 S8 3.328671 1_655
La0 S9 3.328678 1_555
La1 S4 3.094755 1_545
La1 S5 3.094755 1_555
La1 S3 3.132846 1_545
La1 S2 3.132846 1_555
La1 S1 3.170139 1_555
La1 S0 3.170142 1_544
La1 S6 3.184062 1_455
La1 S7 3.184068 1_544
La1 S9 3.328664 1_555
La1 S8 3.328671 1_545
La2 S7 2.881931 1_555
La2 S5 2.881932 1_565
La2 S6 2.960034 1_566
La2 S4 2.960036 1_556
La2 S9 2.967329 1_566
La2 S3 3.011255 1_555
La2 S1 3.011262 1_555
La2 S8 3.130642 1_555
La2 Sb0 3.436300 1_555
La3 S6 2.881927 1_555
La3 S4 2.881932 1_545
La3 S7 2.960029 1_645
La3 S5 2.960036 1_655
La3 S8 2.967325 1_645
La3 S2 3.011255 1_555
La3 S0 3.011263 1_655
La3 S9 3.130640 1_555
La3 Sb1 3.436300 1_656
Cu0 S4 2.225031 1_556
Cu0 S5 2.225031 1_555
Cu0 S1 2.390367 1_555
Cu0 S0 2.390372 1_555
Cu1 S7 2.225031 1_645
Cu1 S6 2.225035 1_556
Cu1 S2 2.390371 1_555
Cu1 S3 2.390371 1_545
S0 Sb0 2.518518 1_455
S1 Sb1 2.518521 1_555
S2 Sb0 2.518516 1_555
S3 Sb1 2.518516 1_555
S8 Sb0 2.516155 1_454
S8 Sb1 2.933955 1_555
S9 Sb1 2.516156 1_555
S9 Sb0 2.933949 1_555
