# generated using pymatgen
data_Li2PdF6
_symmetry_space_group_name_H-M   'P 1'
_cell_length_a   4.59132366
_cell_length_b   4.59474161
_cell_length_c   8.97414494
_cell_angle_alpha   90.00000000
_cell_angle_beta   89.99784356
_cell_angle_gamma   90.00000000
_symmetry_Int_Tables_number   1
_chemical_formula_structural   Li2PdF6
_chemical_formula_sum   'Li4 Pd2 F12'
_cell_volume   189.31807553
_cell_formula_units_Z   2
loop_
 _symmetry_equiv_pos_site_id
 _symmetry_equiv_pos_as_xyz
  1  'x, y, z'
loop_
 _atom_site_type_symbol
 _atom_site_label
 _atom_site_symmetry_multiplicity
 _atom_site_fract_x
 _atom_site_fract_y
 _atom_site_fract_z
 _atom_site_occupancy
  Li  Li0  1  0.00007565  0.00013780  0.33645523  1
  Li  Li1  1  0.50007565  0.49986220  0.83645523  1
  Li  Li2  1  0.99992435  0.99986220  0.66354477  1
  Li  Li3  1  0.49992435  0.50013780  0.16354477  1
  Pd  Pd0  1  0.50000000  0.50000000  0.50000000  1
  Pd  Pd1  1  -0.00000000  0.00000000  -0.00000000  1
  F  F0  1  0.30498485  0.69403854  0.66149116  1
  F  F1  1  0.19501515  0.19403854  0.83850884  1
  F  F2  1  0.70501167  0.29618253  0.00002209  1
  F  F3  1  0.79498833  0.79618253  0.49997791  1
  F  F4  1  0.29498833  0.70381747  0.99997791  1
  F  F5  1  0.20501167  0.20381747  0.50002209  1
  F  F6  1  0.19512079  0.19399298  0.16147041  1
  F  F7  1  0.30487921  0.69399298  0.33852959  1
  F  F8  1  0.80487921  0.80600702  0.83852959  1
  F  F9  1  0.69512079  0.30600702  0.66147041  1
  F  F10  1  0.80498485  0.80596146  0.16149116  1
  F  F11  1  0.69501515  0.30596146  0.33850884  1
loop_
_geom_bond_atom_site_label_1
_geom_bond_atom_site_label_2
_geom_bond_distance
_geom_bond_site_symmetry_2
F0 Pd0 1.922703 1_555
F0 Li2 1.984097 1_455
F0 Li1 2.015890 1_555
F1 Pd1 1.922703 1_556
F1 Li1 1.984097 1_555
F1 Li2 2.015890 1_445
F2 Pd1 1.919991 1_655
F2 Li1 1.978869 1_554
F2 Li3 1.979452 1_555
F3 Pd0 1.919991 1_555
F3 Li2 1.978869 1_555
F3 Li0 1.979452 1_665
F4 Pd1 1.919991 1_566
F4 Li3 1.978869 1_556
F4 Li1 1.979452 1_555
F5 Pd0 1.919991 1_555
F5 Li0 1.978869 1_555
F5 Li2 1.979452 1_445
F6 Pd1 1.922743 1_555
F6 Li3 1.984312 1_555
F6 Li0 2.015237 1_555
F7 Pd0 1.922743 1_555
F7 Li0 1.984312 1_565
F7 Li3 2.015237 1_555
F8 Pd1 1.922743 1_666
F8 Li1 1.984312 1_555
F8 Li2 2.015237 1_555
F9 Pd0 1.922743 1_555
F9 Li2 1.984312 1_545
F9 Li1 2.015237 1_555
F10 Pd1 1.922703 1_665
F10 Li3 1.984097 1_555
F10 Li0 2.015890 1_665
F11 Pd0 1.922703 1_555
F11 Li0 1.984097 1_655
F11 Li3 2.015890 1_555
