# generated using pymatgen
data_Lu2(Ga3Co)3
_symmetry_space_group_name_H-M   'P 1'
_cell_length_a   7.33362680
_cell_length_b   7.33362680
_cell_length_c   9.34235700
_cell_angle_alpha   90.00000000
_cell_angle_beta   90.00000000
_cell_angle_gamma   119.91024215
_symmetry_Int_Tables_number   1
_chemical_formula_structural   Lu2(Ga3Co)3
_chemical_formula_sum   'Lu4 Ga18 Co6'
_cell_volume   435.52871396
_cell_formula_units_Z   2
loop_
 _symmetry_equiv_pos_site_id
 _symmetry_equiv_pos_as_xyz
  1  'x, y, z'
loop_
 _atom_site_type_symbol
 _atom_site_label
 _atom_site_symmetry_multiplicity
 _atom_site_fract_x
 _atom_site_fract_y
 _atom_site_fract_z
 _atom_site_occupancy
  Lu  Lu0  1  0.33156100  0.00323200  0.25000000  1
  Lu  Lu1  1  0.99676800  0.66843900  0.75000000  1
  Lu  Lu2  1  0.66843900  0.99676800  0.75000000  1
  Lu  Lu3  1  0.00323200  0.33156100  0.25000000  1
  Ga  Ga0  1  0.33382700  0.99888000  0.92703700  1
  Ga  Ga1  1  0.00112000  0.66617300  0.07296300  1
  Ga  Ga2  1  0.33382700  0.99888000  0.57296300  1
  Ga  Ga3  1  0.00112000  0.66617300  0.42703700  1
  Ga  Ga4  1  0.66617300  0.00112000  0.07296300  1
  Ga  Ga5  1  0.99888000  0.33382700  0.92703700  1
  Ga  Ga6  1  0.66617300  0.00112000  0.42703700  1
  Ga  Ga7  1  0.99888000  0.33382700  0.57296300  1
  Ga  Ga8  1  0.66665000  0.66665000  0.94115400  1
  Ga  Ga9  1  0.33335000  0.33335000  0.05884600  1
  Ga  Ga10  1  0.66665000  0.66665000  0.55884600  1
  Ga  Ga11  1  0.33335000  0.33335000  0.44115400  1
  Ga  Ga12  1  0.11953100  0.11953100  0.75000000  1
  Ga  Ga13  1  0.88046900  0.88046900  0.25000000  1
  Ga  Ga14  1  0.44835900  0.66418200  0.25000000  1
  Ga  Ga15  1  0.33581800  0.55164100  0.75000000  1
  Ga  Ga16  1  0.55164100  0.33581800  0.75000000  1
  Ga  Ga17  1  0.66418200  0.44835900  0.25000000  1
  Co  Co0  1  0.00000000  0.00000000  0.00000000  1
  Co  Co1  1  0.00000000  0.00000000  0.50000000  1
  Co  Co2  1  0.32828900  0.67171100  0.00000000  1
  Co  Co3  1  0.32828900  0.67171100  0.50000000  1
  Co  Co4  1  0.67171100  0.32828900  0.00000000  1
  Co  Co5  1  0.67171100  0.32828900  0.50000000  1
loop_
_geom_bond_atom_site_label_1
_geom_bond_atom_site_label_2
_geom_bond_distance
_geom_bond_site_symmetry_2
Ga0 Ga12 2.715695 1_565
Ga0 Ga16 2.730658 1_565
Ga0 Ga9 2.746187 1_566
Ga0 Ga4 2.785560 1_566
Ga0 Ga1 2.797870 1_556
Ga0 Lu1 2.957075 1_455
Ga0 Lu2 2.965703 1_555
Ga0 Lu0 3.017538 1_566
Ga1 Ga13 2.715695 1_455
Ga1 Ga17 2.730658 1_455
Ga1 Ga8 2.746187 1_454
Ga1 Ga5 2.785560 1_454
Ga1 Lu0 2.957075 1_565
Ga1 Lu3 2.965703 1_555
Ga1 Lu1 3.017538 1_454
Ga2 Ga6 2.785560 1_565
Ga2 Ga3 2.797870 1_555
Ga2 Lu1 2.957075 1_455
Ga2 Lu2 2.965703 1_555
Ga2 Lu0 3.017538 1_565
Ga3 Ga7 2.785560 1_455
Ga3 Lu0 2.957075 1_565
Ga3 Lu3 2.965703 1_555
Ga3 Lu1 3.017538 1_455
Ga4 Ga8 2.746187 1_544
Ga4 Ga5 2.797870 1_554
Ga4 Lu3 2.957075 1_655
Ga4 Lu0 2.965703 1_555
Ga4 Lu2 3.017538 1_544
Ga5 Ga9 2.746187 1_656
Ga5 Lu2 2.957075 1_545
Ga5 Lu1 2.965703 1_555
Ga5 Lu3 3.017538 1_656
Ga6 Ga7 2.797870 1_555
Ga6 Lu3 2.957075 1_655
Ga6 Lu0 2.965703 1_555
Ga6 Lu2 3.017538 1_545
Ga7 Lu2 2.957075 1_545
Ga7 Lu1 2.965703 1_555
Ga7 Lu3 3.017538 1_655
Ga8 Ga9 2.683236 1_556
Ga8 Lu1 3.003121 1_555
Ga8 Lu2 3.003121 1_555
Ga9 Lu3 3.003121 1_555
Ga9 Lu0 3.003121 1_555
Ga10 Ga11 2.683236 1_555
Ga10 Ga6 2.746187 1_565
Ga10 Ga3 2.746187 1_655
Ga10 Ga15 2.783204 1_555
Ga10 Ga16 2.783204 1_555
Ga10 Lu1 3.003121 1_555
Ga10 Lu2 3.003121 1_555
Ga11 Ga2 2.746187 1_545
Ga11 Ga7 2.746187 1_455
Ga11 Ga17 2.783204 1_555
Ga11 Ga14 2.783204 1_555
Ga11 Lu3 3.003121 1_555
Ga11 Lu0 3.003121 1_555
Ga12 Ga2 2.715695 1_545
Ga12 Ga7 2.715695 1_455
Ga12 Ga5 2.715695 1_455
Ga12 Ga16 2.746862 1_555
Ga12 Ga15 2.746862 1_555
Ga12 Lu1 2.963799 1_445
Ga12 Lu2 2.963799 1_445
Ga13 Ga4 2.715695 1_565
Ga13 Ga3 2.715695 1_655
Ga13 Ga6 2.715695 1_565
Ga13 Ga17 2.746862 1_555
Ga13 Ga14 2.746862 1_555
Ga13 Lu0 2.963799 1_665
Ga13 Lu3 2.963799 1_665
Ga14 Ga6 2.730658 1_565
Ga14 Ga4 2.730658 1_565
Ga14 Ga17 2.740189 1_555
Ga14 Ga9 2.783204 1_555
Ga14 Lu3 2.943683 1_555
Ga14 Lu0 3.006693 1_565
Ga15 Ga7 2.730658 1_455
Ga15 Ga5 2.730658 1_455
Ga15 Ga16 2.740189 1_555
Ga15 Ga8 2.783204 1_555
Ga15 Lu2 2.943683 1_555
Ga15 Lu1 3.006693 1_455
Ga16 Ga2 2.730658 1_545
Ga16 Ga8 2.783204 1_555
Ga16 Lu1 2.943683 1_555
Ga16 Lu2 3.006693 1_545
Ga17 Ga3 2.730658 1_655
Ga17 Ga9 2.783204 1_555
Ga17 Lu0 2.943683 1_555
Ga17 Lu3 3.006693 1_655
Co0 Ga13 2.495092 1_445
Co0 Ga12 2.495092 1_554
Co0 Ga9 2.508953 1_555
Co0 Ga8 2.508953 1_444
Co0 Ga5 2.545243 1_454
Co0 Ga1 2.545243 1_545
Co0 Ga4 2.545243 1_455
Co0 Ga0 2.545243 1_544
Co1 Ga12 2.495092 1_555
Co1 Ga13 2.495092 1_445
Co1 Ga10 2.508953 1_445
Co1 Ga11 2.508953 1_555
Co1 Ga7 2.545243 1_455
Co1 Ga2 2.545243 1_545
Co1 Ga3 2.545243 1_545
Co1 Ga6 2.545243 1_455
Co2 Ga1 2.475060 1_555
Co2 Ga0 2.475060 1_554
Co2 Ga14 2.506368 1_555
Co2 Ga15 2.506368 1_554
Co2 Ga5 2.543779 1_454
Co2 Ga4 2.543779 1_565
Co2 Ga9 2.559858 1_555
Co2 Ga8 2.559858 1_554
Co3 Ga3 2.475060 1_555
Co3 Ga2 2.475060 1_555
Co3 Ga14 2.506368 1_555
Co3 Ga15 2.506368 1_555
Co3 Ga7 2.543779 1_455
Co3 Ga6 2.543779 1_565
Co3 Ga11 2.559858 1_555
Co3 Ga10 2.559858 1_555
Co4 Ga4 2.475060 1_555
Co4 Ga5 2.475060 1_554
Co4 Ga17 2.506368 1_555
Co4 Ga16 2.506368 1_554
Co4 Ga0 2.543779 1_544
Co4 Ga1 2.543779 1_655
Co4 Ga9 2.559858 1_555
Co4 Ga8 2.559858 1_554
Co5 Ga6 2.475060 1_555
Co5 Ga7 2.475060 1_555
Co5 Ga17 2.506368 1_555
Co5 Ga16 2.506368 1_555
Co5 Ga2 2.543779 1_545
Co5 Ga3 2.543779 1_655
Co5 Ga10 2.559858 1_555
Co5 Ga11 2.559858 1_555
