# generated using pymatgen
data_CaVBiO6
_symmetry_space_group_name_H-M   'P 1'
_cell_length_a   5.38215100
_cell_length_b   7.11331200
_cell_length_c   7.58352703
_cell_angle_alpha   78.16652583
_cell_angle_beta   90.00000000
_cell_angle_gamma   90.00000000
_symmetry_Int_Tables_number   1
_chemical_formula_structural   CaVBiO6
_chemical_formula_sum   'Ca2 V2 Bi2 O12'
_cell_volume   284.16445357
_cell_formula_units_Z   2
loop_
 _symmetry_equiv_pos_site_id
 _symmetry_equiv_pos_as_xyz
  1  'x, y, z'
loop_
 _atom_site_type_symbol
 _atom_site_label
 _atom_site_symmetry_multiplicity
 _atom_site_fract_x
 _atom_site_fract_y
 _atom_site_fract_z
 _atom_site_occupancy
  Ca  Ca0  1  0.74019800  0.73098100  0.06581500  1
  Ca  Ca1  1  0.24019800  0.26901900  0.93418500  1
  V  V0  1  0.70886600  0.22025900  0.21142400  1
  V  V1  1  0.20886600  0.77974100  0.78857600  1
  Bi  Bi0  1  0.23298900  0.40003700  0.43061700  1
  Bi  Bi1  1  0.73298900  0.59996300  0.56938300  1
  O  O0  1  0.97137000  0.35130300  0.65128900  1
  O  O1  1  0.04407200  0.24258700  0.24038400  1
  O  O2  1  0.51749800  0.18861800  0.40673500  1
  O  O3  1  0.01749800  0.81138200  0.59326500  1
  O  O4  1  0.45214500  0.39635900  0.67343800  1
  O  O5  1  0.65557300  0.03827800  0.10381700  1
  O  O6  1  0.95214500  0.60364100  0.32656200  1
  O  O7  1  0.47137000  0.64869700  0.34871100  1
  O  O8  1  0.15557300  0.96172200  0.89618300  1
  O  O9  1  0.54407200  0.75741300  0.75961600  1
  O  O10  1  0.08375500  0.58456800  0.92932700  1
  O  O11  1  0.58375500  0.41543200  0.07067300  1
loop_
_geom_bond_atom_site_label_1
_geom_bond_atom_site_label_2
_geom_bond_distance
_geom_bond_site_symmetry_2
Ca0 O6 2.301562 1_555
Ca0 O5 2.308035 1_565
Ca0 O11 2.390529 1_555
Ca0 O10 2.453006 1_654
Ca0 O9 2.522407 1_554
Ca0 O7 2.554124 1_555
Ca0 O8 2.912182 1_654
Ca1 O4 2.301562 1_555
Ca1 O8 2.308035 1_545
Ca1 O10 2.390529 1_555
Ca1 O11 2.453006 1_556
Ca1 O1 2.522407 1_556
Ca1 O0 2.554124 1_455
Ca1 O5 2.912182 1_556
Bi0 O6 2.129858 1_455
Bi0 O0 2.159959 1_455
Bi0 O7 2.170241 1_555
Bi0 O2 2.179675 1_555
Bi0 O4 2.182457 1_555
Bi0 O1 2.243233 1_555
Bi1 O4 2.129858 1_555
Bi1 O7 2.159959 1_555
Bi1 O0 2.170241 1_555
Bi1 O3 2.179675 1_655
Bi1 O6 2.182457 1_555
Bi1 O9 2.243233 1_555
O1 V0 1.828291 1_455
O2 V0 1.780047 1_555
O3 V1 1.780047 1_555
O5 V0 1.690308 1_555
O8 V1 1.690308 1_555
O9 V1 1.828291 1_555
O10 V1 1.706581 1_555
O11 V0 1.706581 1_555
