# generated using pymatgen
data_MgSi2
_symmetry_space_group_name_H-M   'P 1'
_cell_length_a   5.14273350
_cell_length_b   5.14273350
_cell_length_c   10.53809818
_cell_angle_alpha   72.26130501
_cell_angle_beta   72.26130501
_cell_angle_gamma   52.30279794
_symmetry_Int_Tables_number   1
_chemical_formula_structural   MgSi2
_chemical_formula_sum   'Mg4 Si8'
_cell_volume   207.43718303
_cell_formula_units_Z   4
loop_
 _symmetry_equiv_pos_site_id
 _symmetry_equiv_pos_as_xyz
  1  'x, y, z'
loop_
 _atom_site_type_symbol
 _atom_site_label
 _atom_site_symmetry_multiplicity
 _atom_site_fract_x
 _atom_site_fract_y
 _atom_site_fract_z
 _atom_site_occupancy
  Mg  Mg0  1  0.42571400  0.42571400  0.73699700  1
  Mg  Mg1  1  0.50000000  0.50000000  0.00000000  1
  Mg  Mg2  1  0.57428600  0.57428600  0.26300300  1
  Mg  Mg3  1  0.00000000  0.00000000  0.50000000  1
  Si  Si0  1  0.82138700  0.82138700  0.97192000  1
  Si  Si1  1  0.72930900  0.72930900  0.74312900  1
  Si  Si2  1  0.31001400  0.31001400  0.47972400  1
  Si  Si3  1  0.27069100  0.27069100  0.25687100  1
  Si  Si4  1  0.10568500  0.10568500  0.82257900  1
  Si  Si5  1  0.17861300  0.17861300  0.02808000  1
  Si  Si6  1  0.89431500  0.89431500  0.17742100  1
  Si  Si7  1  0.68998600  0.68998600  0.52027600  1
loop_
_geom_bond_atom_site_label_1
_geom_bond_atom_site_label_2
_geom_bond_distance
_geom_bond_site_symmetry_2
Mg0 Si7 2.717771 1_555
Mg0 Si4 2.781118 1_555
Mg0 Si1 2.825549 1_555
Mg0 Si1 2.889704 1_545
Mg0 Si1 2.889704 1_455
Mg0 Si4 3.119162 1_565
Mg0 Si4 3.119162 1_655
Mg0 Si5 3.140609 1_556
Mg0 Si2 3.233805 1_555
Mg0 Si0 3.251991 1_455
Mg0 Si0 3.251991 1_545
Mg1 Si3 2.814119 1_555
Mg1 Si1 2.814119 1_554
Mg1 Si5 2.876774 1_565
Mg1 Si5 2.876774 1_655
Mg1 Si0 2.876774 1_454
Mg1 Si0 2.876774 1_544
Mg1 Si0 2.880270 1_554
Mg1 Si5 2.880270 1_555
Mg1 Si6 2.889111 1_455
Mg1 Si6 2.889111 1_545
Mg1 Si4 2.889111 1_654
Mg1 Si4 2.889111 1_564
Mg2 Si2 2.717771 1_555
Mg2 Si6 2.781118 1_555
Mg2 Si3 2.825549 1_555
Mg2 Si3 2.889704 1_565
Mg2 Si3 2.889704 1_655
Mg2 Si6 3.119162 1_455
Mg2 Si6 3.119162 1_545
Mg2 Si0 3.140609 1_554
Mg2 Si7 3.233805 1_555
Mg2 Si5 3.251991 1_655
Mg2 Si5 3.251991 1_565
Mg3 Si7 2.796932 1_445
Mg3 Si2 2.796932 1_555
Mg3 Si1 2.909219 1_445
Mg3 Si3 2.909219 1_555
Mg3 Si7 2.917948 1_545
Mg3 Si7 2.917948 1_455
Mg3 Si2 2.917948 1_545
Mg3 Si2 2.917948 1_455
Si0 Si6 2.476482 1_556
Si0 Si4 2.561668 1_665
Si0 Si5 2.587637 1_566
Si0 Si5 2.587637 1_656
Si0 Si1 2.815514 1_555
Si1 Si7 2.495155 1_555
Si1 Si4 2.548062 1_655
Si1 Si4 2.548062 1_565
Si2 Si3 2.495155 1_555
Si2 Si7 2.495355 1_545
Si2 Si7 2.495355 1_455
Si3 Si6 2.548062 1_545
Si3 Si6 2.548062 1_455
Si3 Si5 2.815514 1_555
Si4 Si5 2.476482 1_556
Si5 Si6 2.561668 1_445
