# generated using pymatgen
data_HgAu4
_symmetry_space_group_name_H-M   'P 1'
_cell_length_a   23.91261124
_cell_length_b   23.91261124
_cell_length_c   23.91261254
_cell_angle_alpha   14.44775018
_cell_angle_beta   14.44775018
_cell_angle_gamma   14.44775077
_symmetry_Int_Tables_number   1
_chemical_formula_structural   HgAu4
_chemical_formula_sum   'Hg8 Au32'
_cell_volume   741.03268399
_cell_formula_units_Z   8
loop_
 _symmetry_equiv_pos_site_id
 _symmetry_equiv_pos_as_xyz
  1  'x, y, z'
loop_
 _atom_site_type_symbol
 _atom_site_label
 _atom_site_symmetry_multiplicity
 _atom_site_fract_x
 _atom_site_fract_y
 _atom_site_fract_z
 _atom_site_occupancy
  Hg  Hg0_0  1  0.00000000  0.00000000  0.00000000  1
  Hg  Hg0_1  1  0.00000000  0.00000000  0.50000000  1
  Hg  Hg0_2  1  0.00000000  0.50000000  0.00000000  1
  Hg  Hg0_3  1  0.00000000  0.50000000  0.50000000  1
  Hg  Hg0_4  1  0.50000000  0.00000000  0.00000000  1
  Hg  Hg0_5  1  0.50000000  0.00000000  0.50000000  1
  Hg  Hg0_6  1  0.50000000  0.50000000  0.00000000  1
  Hg  Hg0_7  1  0.50000000  0.50000000  0.50000000  1
  Au  Au0_0  1  0.29838015  0.29838014  0.29838014  1
  Au  Au0_1  1  0.29838015  0.29838014  0.79838015  1
  Au  Au0_2  1  0.29838015  0.79838014  0.29838014  1
  Au  Au0_3  1  0.29838015  0.79838014  0.79838014  1
  Au  Au0_4  1  0.79838015  0.29838014  0.29838014  1
  Au  Au0_5  1  0.79838015  0.29838014  0.79838014  1
  Au  Au0_6  1  0.79838015  0.79838014  0.29838014  1
  Au  Au0_7  1  0.79838015  0.79838014  0.79838014  1
  Au  Au1_0  1  0.09936951  0.09936951  0.09936951  1
  Au  Au1_1  1  0.09936951  0.09936951  0.59936951  1
  Au  Au1_2  1  0.09936951  0.59936951  0.09936951  1
  Au  Au1_3  1  0.09936951  0.59936951  0.59936951  1
  Au  Au1_4  1  0.59936951  0.09936951  0.09936951  1
  Au  Au1_5  1  0.59936951  0.09936951  0.59936951  1
  Au  Au1_6  1  0.59936951  0.59936951  0.09936951  1
  Au  Au1_7  1  0.59936951  0.59936951  0.59936951  1
  Au  Au2_0  1  0.40063049  0.40063049  0.40063049  1
  Au  Au2_1  1  0.40063049  0.40063049  0.90063049  1
  Au  Au2_2  1  0.40063049  0.90063049  0.40063049  1
  Au  Au2_3  1  0.40063049  0.90063049  0.90063049  1
  Au  Au2_4  1  0.90063049  0.40063049  0.40063049  1
  Au  Au2_5  1  0.90063049  0.40063049  0.90063049  1
  Au  Au2_6  1  0.90063049  0.90063049  0.40063049  1
  Au  Au2_7  1  0.90063049  0.90063049  0.90063049  1
  Au  Au3_0  1  0.20161986  0.20161985  0.20161986  1
  Au  Au3_1  1  0.20161986  0.20161985  0.70161986  1
  Au  Au3_2  1  0.20161986  0.70161985  0.20161986  1
  Au  Au3_3  1  0.20161986  0.70161985  0.70161986  1
  Au  Au3_4  1  0.70161986  0.20161985  0.20161986  1
  Au  Au3_5  1  0.70161986  0.20161985  0.70161986  1
  Au  Au3_6  1  0.70161986  0.70161985  0.20161986  1
  Au  Au3_7  1  0.70161986  0.70161985  0.70161986  1
loop_
_geom_bond_atom_site_label_1
_geom_bond_atom_site_label_2
_geom_bond_distance
_geom_bond_site_symmetry_2
Hg0_0 Hg0_3 3.006930 1_554
Hg0_0 Hg0_5 3.006930 1_554
Hg0_0 Hg0_3 3.006930 1_545
Hg0_0 Hg0_5 3.006930 1_455
Hg0_0 Hg0_6 3.006931 1_455
Hg0_0 Hg0_6 3.006931 1_545
Hg0_1 Hg0_4 3.006930 1_555
Hg0_1 Hg0_2 3.006930 1_546
Hg0_1 Hg0_2 3.006930 1_555
Hg0_1 Hg0_4 3.006930 1_456
Hg0_1 Hg0_7 3.006931 1_455
Hg0_1 Hg0_7 3.006931 1_545
Hg0_2 Hg0_7 3.006930 1_455
Hg0_2 Hg0_7 3.006930 1_554
Hg0_2 Hg0_4 3.006931 1_555
Hg0_2 Hg0_4 3.006931 1_465
Hg0_3 Hg0_6 3.006930 1_555
Hg0_3 Hg0_6 3.006930 1_456
Hg0_3 Hg0_5 3.006931 1_555
Hg0_3 Hg0_5 3.006931 1_465
Hg0_4 Hg0_7 3.006930 1_554
Hg0_4 Hg0_7 3.006930 1_545
Hg0_5 Hg0_6 3.006930 1_555
Hg0_5 Hg0_6 3.006930 1_546
Au0_0 Au1_1 2.878211 1_555
Au0_0 Au1_2 2.878212 1_555
Au0_0 Au1_4 2.878212 1_555
Au0_0 Au0_5 3.006930 1_455
Au0_0 Au0_5 3.006930 1_554
Au0_0 Au0_3 3.006930 1_545
Au0_0 Au0_3 3.006930 1_554
Au0_0 Au0_6 3.006931 1_455
Au0_0 Au0_6 3.006931 1_545
Au0_0 Hg0_6 3.027987 1_555
Au0_0 Hg0_5 3.027987 1_555
Au0_0 Hg0_3 3.027987 1_555
Au0_1 Au1_0 2.878211 1_556
Au0_1 Au1_3 2.878212 1_555
Au0_1 Au1_5 2.878212 1_555
Au0_1 Au0_4 3.006930 1_456
Au0_1 Au0_2 3.006930 1_546
Au0_1 Au0_2 3.006930 1_555
Au0_1 Au0_4 3.006930 1_555
Au0_1 Au0_7 3.006931 1_455
Au0_1 Au0_7 3.006931 1_545
Au0_1 Hg0_7 3.027987 1_555
Au0_1 Hg0_4 3.027987 1_556
Au0_1 Hg0_2 3.027987 1_556
Au0_2 Au1_3 2.878211 1_555
Au0_2 Au1_0 2.878212 1_565
Au0_2 Au1_6 2.878212 1_555
Au0_2 Au0_7 3.006930 1_455
Au0_2 Au0_7 3.006930 1_554
Au0_2 Au0_4 3.006931 1_555
Au0_2 Au0_4 3.006931 1_465
Au0_2 Hg0_4 3.027987 1_565
Au0_2 Hg0_7 3.027987 1_555
Au0_2 Hg0_1 3.027987 1_565
Au0_3 Au1_2 2.878211 1_556
Au0_3 Au1_1 2.878212 1_565
Au0_3 Au1_7 2.878212 1_555
Au0_3 Au0_6 3.006930 1_456
Au0_3 Au0_6 3.006930 1_555
Au0_3 Au0_5 3.006931 1_465
Au0_3 Au0_5 3.006931 1_555
Au0_3 Hg0_5 3.027987 1_565
Au0_3 Hg0_6 3.027987 1_556
Au0_3 Hg0_0 3.027987 1_566
Au0_4 Au1_5 2.878211 1_555
Au0_4 Au1_0 2.878212 1_655
Au0_4 Au1_6 2.878212 1_555
Au0_4 Au0_7 3.006930 1_545
Au0_4 Au0_7 3.006930 1_554
Au0_4 Hg0_2 3.027987 1_655
Au0_4 Hg0_1 3.027987 1_655
Au0_4 Hg0_7 3.027987 1_555
Au0_5 Au1_4 2.878211 1_556
Au0_5 Au1_1 2.878212 1_655
Au0_5 Au1_7 2.878212 1_555
Au0_5 Au0_6 3.006930 1_546
Au0_5 Au0_6 3.006930 1_555
Au0_5 Hg0_3 3.027987 1_655
Au0_5 Hg0_0 3.027987 1_656
Au0_5 Hg0_6 3.027987 1_556
Au0_6 Au1_7 2.878211 1_555
Au0_6 Au1_2 2.878212 1_655
Au0_6 Au1_4 2.878212 1_565
Au0_6 Hg0_0 3.027987 1_665
Au0_6 Hg0_5 3.027987 1_565
Au0_6 Hg0_3 3.027987 1_655
Au0_7 Au1_6 2.878211 1_556
Au0_7 Au1_3 2.878212 1_655
Au0_7 Au1_5 2.878212 1_565
Au0_7 Hg0_1 3.027987 1_665
Au0_7 Hg0_2 3.027987 1_656
Au0_7 Hg0_4 3.027987 1_566
Au1_0 Au2_6 2.862858 1_445
Au1_0 Au2_5 2.862858 1_454
Au1_0 Au2_3 2.862858 1_544
Au1_0 Au1_5 3.006930 1_455
Au1_0 Au1_3 3.006930 1_545
Au1_0 Au1_3 3.006930 1_554
Au1_0 Au1_5 3.006930 1_554
Au1_0 Au1_6 3.006931 1_455
Au1_0 Au1_6 3.006931 1_545
Au1_1 Au2_7 2.862858 1_445
Au1_1 Au2_4 2.862858 1_455
Au1_1 Au2_2 2.862858 1_545
Au1_1 Au1_4 3.006930 1_555
Au1_1 Au1_2 3.006930 1_555
Au1_1 Au1_4 3.006930 1_456
Au1_1 Au1_2 3.006930 1_546
Au1_1 Au1_7 3.006931 1_455
Au1_1 Au1_7 3.006931 1_545
Au1_2 Au2_4 2.862858 1_455
Au1_2 Au2_7 2.862858 1_454
Au1_2 Au2_1 2.862858 1_554
Au1_2 Au1_7 3.006930 1_455
Au1_2 Au1_7 3.006930 1_554
Au1_2 Au1_4 3.006931 1_465
Au1_2 Au1_4 3.006931 1_555
Au1_3 Au2_5 2.862858 1_455
Au1_3 Au2_6 2.862858 1_455
Au1_3 Au2_0 2.862858 1_555
Au1_3 Au1_6 3.006930 1_555
Au1_3 Au1_6 3.006930 1_456
Au1_3 Au1_5 3.006931 1_465
Au1_3 Au1_5 3.006931 1_555
Au1_4 Au2_2 2.862858 1_545
Au1_4 Au2_7 2.862858 1_544
Au1_4 Au2_1 2.862858 1_554
Au1_4 Au1_7 3.006930 1_545
Au1_4 Au1_7 3.006930 1_554
Au1_5 Au2_3 2.862858 1_545
Au1_5 Au2_6 2.862858 1_545
Au1_5 Au2_0 2.862858 1_555
Au1_5 Au1_6 3.006930 1_555
Au1_5 Au1_6 3.006930 1_546
Au1_6 Au2_0 2.862858 1_555
Au1_6 Au2_5 2.862858 1_554
Au1_6 Au2_3 2.862858 1_554
Au1_7 Au2_1 2.862858 1_555
Au1_7 Au2_4 2.862858 1_555
Au1_7 Au2_2 2.862858 1_555
Au2_0 Au3_1 2.878211 1_555
Au2_0 Au3_2 2.878212 1_555
Au2_0 Au3_4 2.878212 1_555
Au2_0 Au2_5 3.006930 1_455
Au2_0 Au2_3 3.006930 1_545
Au2_0 Au2_5 3.006930 1_554
Au2_0 Au2_3 3.006930 1_554
Au2_0 Au2_6 3.006931 1_545
Au2_0 Au2_6 3.006931 1_455
Au2_1 Au3_0 2.878211 1_556
Au2_1 Au3_3 2.878212 1_555
Au2_1 Au3_5 2.878212 1_555
Au2_1 Au2_2 3.006930 1_555
Au2_1 Au2_4 3.006930 1_456
Au2_1 Au2_4 3.006930 1_555
Au2_1 Au2_2 3.006930 1_546
Au2_1 Au2_7 3.006931 1_455
Au2_1 Au2_7 3.006931 1_545
Au2_2 Au3_3 2.878211 1_555
Au2_2 Au3_6 2.878212 1_555
Au2_2 Au3_0 2.878212 1_565
Au2_2 Au2_7 3.006930 1_455
Au2_2 Au2_7 3.006930 1_554
Au2_2 Au2_4 3.006931 1_555
Au2_2 Au2_4 3.006931 1_465
Au2_3 Au3_2 2.878211 1_556
Au2_3 Au3_7 2.878212 1_555
Au2_3 Au3_1 2.878212 1_565
Au2_3 Au2_6 3.006930 1_555
Au2_3 Au2_6 3.006930 1_456
Au2_3 Au2_5 3.006931 1_465
Au2_3 Au2_5 3.006931 1_555
Au2_4 Au3_5 2.878211 1_555
Au2_4 Au3_0 2.878212 1_655
Au2_4 Au3_6 2.878212 1_555
Au2_4 Au2_7 3.006930 1_554
Au2_4 Au2_7 3.006930 1_545
Au2_5 Au3_4 2.878211 1_556
Au2_5 Au3_7 2.878212 1_555
Au2_5 Au3_1 2.878212 1_655
Au2_5 Au2_6 3.006930 1_555
Au2_5 Au2_6 3.006930 1_546
Au2_6 Au3_7 2.878211 1_555
Au2_6 Au3_2 2.878212 1_655
Au2_6 Au3_4 2.878212 1_565
Au2_7 Au3_6 2.878211 1_556
Au2_7 Au3_5 2.878212 1_565
Au2_7 Au3_3 2.878212 1_655
Au3_0 Au3_5 3.006930 1_455
Au3_0 Au3_3 3.006930 1_554
Au3_0 Au3_3 3.006930 1_545
Au3_0 Au3_5 3.006930 1_554
Au3_0 Au3_6 3.006931 1_455
Au3_0 Au3_6 3.006931 1_545
Au3_0 Hg0_1 3.027987 1_555
Au3_0 Hg0_2 3.027987 1_555
Au3_0 Hg0_4 3.027987 1_555
Au3_1 Au3_2 3.006930 1_555
Au3_1 Au3_4 3.006930 1_456
Au3_1 Au3_2 3.006930 1_546
Au3_1 Au3_4 3.006930 1_555
Au3_1 Au3_7 3.006931 1_455
Au3_1 Au3_7 3.006931 1_545
Au3_1 Hg0_0 3.027987 1_556
Au3_1 Hg0_3 3.027987 1_555
Au3_1 Hg0_5 3.027987 1_555
Au3_2 Au3_7 3.006930 1_455
Au3_2 Au3_7 3.006930 1_554
Au3_2 Au3_4 3.006931 1_555
Au3_2 Au3_4 3.006931 1_465
Au3_2 Hg0_3 3.027987 1_555
Au3_2 Hg0_6 3.027987 1_555
Au3_2 Hg0_0 3.027987 1_565
Au3_3 Au3_6 3.006930 1_555
Au3_3 Au3_6 3.006930 1_456
Au3_3 Au3_5 3.006931 1_465
Au3_3 Au3_5 3.006931 1_555
Au3_3 Hg0_2 3.027987 1_556
Au3_3 Hg0_1 3.027987 1_565
Au3_3 Hg0_7 3.027987 1_555
Au3_4 Au3_7 3.006930 1_554
Au3_4 Au3_7 3.006930 1_545
Au3_4 Hg0_5 3.027987 1_555
Au3_4 Hg0_6 3.027987 1_555
Au3_4 Hg0_0 3.027987 1_655
Au3_5 Au3_6 3.006930 1_555
Au3_5 Au3_6 3.006930 1_546
Au3_5 Hg0_4 3.027987 1_556
Au3_5 Hg0_7 3.027987 1_555
Au3_5 Hg0_1 3.027987 1_655
Au3_6 Hg0_7 3.027987 1_555
Au3_6 Hg0_4 3.027987 1_565
Au3_6 Hg0_2 3.027987 1_655
Au3_7 Hg0_6 3.027987 1_556
Au3_7 Hg0_3 3.027987 1_655
Au3_7 Hg0_5 3.027987 1_565
