# generated using pymatgen
data_Li3RhN2
_symmetry_space_group_name_H-M   'P 1'
_cell_length_a   8.50870900
_cell_length_b   9.82500984
_cell_length_c   9.82501066
_cell_angle_alpha   89.99999683
_cell_angle_beta   125.26438576
_cell_angle_gamma   54.73561087
_symmetry_Int_Tables_number   1
_chemical_formula_structural   Li3RhN2
_chemical_formula_sum   'Li24 Rh8 N16'
_cell_volume   474.20823551
_cell_formula_units_Z   8
loop_
 _symmetry_equiv_pos_site_id
 _symmetry_equiv_pos_as_xyz
  1  'x, y, z'
loop_
 _atom_site_type_symbol
 _atom_site_label
 _atom_site_symmetry_multiplicity
 _atom_site_fract_x
 _atom_site_fract_y
 _atom_site_fract_z
 _atom_site_occupancy
  Li  Li0  1  0.23281000  0.02807900  0.99143300  1
  Li  Li1  1  0.76719000  0.76088900  0.50856700  1
  Li  Li2  1  0.76719000  0.47192100  0.75862300  1
  Li  Li3  1  0.23281000  0.73911100  0.74137700  1
  Li  Li4  1  0.24994400  0.75862300  0.26945600  1
  Li  Li5  1  0.75005600  0.74137700  0.01951200  1
  Li  Li6  1  0.24994400  0.99143300  0.48048800  1
  Li  Li7  1  0.75005600  0.50856700  0.23054400  1
  Li  Li8  1  0.71103200  0.01951200  0.73911100  1
  Li  Li9  1  0.71103200  0.26945600  0.47192100  1
  Li  Li10  1  0.28896800  0.23054400  0.76088900  1
  Li  Li11  1  0.28896800  0.48048800  0.02807900  1
  Li  Li12  1  0.76719000  0.97192100  0.00856700  1
  Li  Li13  1  0.23281000  0.23911100  0.49143300  1
  Li  Li14  1  0.23281000  0.52807900  0.24137700  1
  Li  Li15  1  0.76719000  0.26088900  0.25862300  1
  Li  Li16  1  0.75005600  0.24137700  0.73054400  1
  Li  Li17  1  0.24994400  0.25862300  0.98048800  1
  Li  Li18  1  0.75005600  0.00856700  0.51951200  1
  Li  Li19  1  0.24994400  0.49143300  0.76945600  1
  Li  Li20  1  0.28896800  0.98048800  0.26088900  1
  Li  Li21  1  0.28896800  0.73054400  0.52807900  1
  Li  Li22  1  0.71103200  0.76945600  0.23911100  1
  Li  Li23  1  0.71103200  0.51951200  0.97192100  1
  Rh  Rh0  1  0.23504200  0.00000000  0.73504200  1
  Rh  Rh1  1  0.76495800  0.73504200  0.76495800  1
  Rh  Rh2  1  0.76495800  0.50000000  0.50000000  1
  Rh  Rh3  1  0.23504200  0.76495800  0.00000000  1
  Rh  Rh4  1  0.76495800  0.00000000  0.26495800  1
  Rh  Rh5  1  0.23504200  0.26495800  0.23504200  1
  Rh  Rh6  1  0.23504200  0.50000000  0.50000000  1
  Rh  Rh7  1  0.76495800  0.23504200  0.00000000  1
  N  N0  1  0.00000000  0.00000000  0.50000000  1
  N  N1  1  0.00000000  0.50000000  0.00000000  1
  N  N2  1  0.00000000  0.50000000  0.50000000  1
  N  N3  1  0.00000000  0.00000000  0.00000000  1
  N  N4  1  0.50000000  0.98491500  0.75000000  1
  N  N5  1  0.50000000  0.51508500  0.25000000  1
  N  N6  1  0.00000000  0.25000000  0.73491500  1
  N  N7  1  0.00000000  0.75000000  0.76508500  1
  N  N8  1  0.53017000  0.73491500  0.51508500  1
  N  N9  1  0.46983000  0.76508500  0.98491500  1
  N  N10  1  0.50000000  0.01508500  0.25000000  1
  N  N11  1  0.50000000  0.48491500  0.75000000  1
  N  N12  1  0.00000000  0.75000000  0.26508500  1
  N  N13  1  0.00000000  0.25000000  0.23491500  1
  N  N14  1  0.46983000  0.26508500  0.48491500  1
  N  N15  1  0.53017000  0.23491500  0.01508500  1
loop_
_geom_bond_atom_site_label_1
_geom_bond_atom_site_label_2
_geom_bond_distance
_geom_bond_site_symmetry_2
Li0 N6 2.068285 1_555
Li0 N10 2.152781 1_556
Li0 N3 2.197900 1_556
Li0 N9 2.209038 1_545
Li1 N7 2.068285 1_655
Li1 N10 2.152781 1_565
Li1 N2 2.197900 1_655
Li1 N8 2.209038 1_555
Li2 N6 2.068285 1_655
Li2 N11 2.152781 1_555
Li2 N1 2.197900 1_656
Li2 N8 2.209038 1_555
Li3 N7 2.068285 1_555
Li3 N11 2.152781 1_555
Li3 N0 2.197900 1_565
Li3 N9 2.209039 1_555
Li4 N8 2.068285 1_555
Li4 N12 2.152781 1_555
Li4 N3 2.197900 1_565
Li4 N5 2.209038 1_555
Li5 N9 2.068285 1_554
Li5 N12 2.152781 1_655
Li5 N1 2.197900 1_655
Li5 N4 2.209038 1_554
Li6 N8 2.068285 1_555
Li6 N13 2.152781 1_565
Li6 N0 2.197900 1_565
Li6 N4 2.209039 1_555
Li7 N9 2.068285 1_554
Li7 N13 2.152781 1_655
Li7 N2 2.197900 1_655
Li7 N5 2.209038 1_555
Li8 N4 2.068285 1_545
Li8 N14 2.152781 1_555
Li8 N3 2.197900 1_656
Li8 N7 2.209038 1_645
Li9 N5 2.068285 1_555
Li9 N14 2.152781 1_555
Li9 N0 2.197900 1_655
Li9 N6 2.209039 1_655
Li10 N4 2.068285 1_545
Li10 N15 2.152781 1_556
Li10 N2 2.197900 1_555
Li10 N6 2.209038 1_555
Li11 N5 2.068285 1_555
Li11 N15 2.152781 1_555
Li11 N1 2.197900 1_555
Li11 N7 2.209038 1_554
Li12 N12 2.068285 1_655
Li12 N4 2.152781 1_554
Li12 N3 2.197900 1_665
Li12 N15 2.209038 1_565
Li13 N13 2.068285 1_555
Li13 N4 2.152781 1_545
Li13 N2 2.197900 1_555
Li13 N14 2.209038 1_555
Li14 N12 2.068285 1_555
Li14 N5 2.152781 1_555
Li14 N1 2.197900 1_555
Li14 N14 2.209038 1_555
Li15 N13 2.068285 1_655
Li15 N5 2.152781 1_555
Li15 N0 2.197900 1_655
Li15 N15 2.209039 1_555
Li16 N14 2.068285 1_555
Li16 N6 2.152781 1_655
Li16 N3 2.197900 1_656
Li16 N11 2.209038 1_555
Li17 N15 2.068285 1_556
Li17 N6 2.152781 1_555
Li17 N1 2.197900 1_556
Li17 N10 2.209038 1_556
Li18 N14 2.068285 1_555
Li18 N7 2.152781 1_645
Li18 N0 2.197900 1_655
Li18 N10 2.209039 1_555
Li19 N15 2.068285 1_556
Li19 N7 2.152781 1_555
Li19 N2 2.197900 1_555
Li19 N11 2.209038 1_555
Li20 N10 2.068285 1_565
Li20 N8 2.152781 1_555
Li20 N3 2.197900 1_565
Li20 N13 2.209038 1_565
Li21 N11 2.068285 1_555
Li21 N8 2.152781 1_555
Li21 N0 2.197900 1_565
Li21 N12 2.209039 1_555
Li22 N10 2.068285 1_565
Li22 N9 2.152781 1_554
Li22 N2 2.197900 1_655
Li22 N12 2.209038 1_655
Li23 N11 2.068285 1_555
Li23 N9 2.152781 1_555
Li23 N1 2.197900 1_656
Li23 N13 2.209038 1_656
N0 Rh4 1.999904 1_455
N0 Rh0 1.999904 1_555
N1 Rh1 1.999904 1_454
N1 Rh5 1.999904 1_555
N2 Rh2 1.999904 1_455
N2 Rh6 1.999904 1_555
N3 Rh3 1.999904 1_545
N3 Rh7 1.999904 1_455
N4 Rh1 2.087513 1_555
N4 Rh0 2.087514 1_565
N5 Rh3 2.087513 1_555
N5 Rh2 2.087514 1_555
N6 Rh2 2.087513 1_455
N6 Rh0 2.087513 1_555
N7 Rh1 2.087514 1_455
N7 Rh3 2.087514 1_556
N8 Rh2 2.087513 1_555
N8 Rh1 2.087514 1_555
N9 Rh0 2.087513 1_565
N9 Rh3 2.087514 1_556
N10 Rh5 2.087513 1_555
N10 Rh4 2.087514 1_555
N11 Rh7 2.087513 1_556
N11 Rh6 2.087514 1_555
N12 Rh6 2.087513 1_555
N12 Rh4 2.087513 1_465
N13 Rh5 2.087514 1_555
N13 Rh7 2.087514 1_455
N14 Rh6 2.087513 1_555
N14 Rh5 2.087514 1_555
N15 Rh4 2.087513 1_555
N15 Rh7 2.087514 1_555
