# generated using pymatgen
data_MnZn(FeO2)4
_symmetry_space_group_name_H-M   'P 1'
_cell_length_a   6.05651949
_cell_length_b   6.05651949
_cell_length_c   6.05651949
_cell_angle_alpha   90.00000000
_cell_angle_beta   60.00000000
_cell_angle_gamma   120.00000000
_symmetry_Int_Tables_number   1
_chemical_formula_structural   MnZn(FeO2)4
_chemical_formula_sum   'Mn1 Zn1 Fe4 O8'
_cell_volume   157.09210494
_cell_formula_units_Z   1
loop_
 _symmetry_equiv_pos_site_id
 _symmetry_equiv_pos_as_xyz
  1  'x, y, z'
loop_
 _atom_site_type_symbol
 _atom_site_label
 _atom_site_symmetry_multiplicity
 _atom_site_fract_x
 _atom_site_fract_y
 _atom_site_fract_z
 _atom_site_occupancy
  Mn  Mn0  1  0.00000000  0.00000000  0.00000000  1
  Zn  Zn0  1  0.50000000  0.75000000  0.75000000  1
  Fe  Fe0  1  0.74927600  0.37463800  0.87608600  1
  Fe  Fe1  1  0.25072400  0.37463800  0.37463800  1
  Fe  Fe2  1  0.25072400  0.87608600  0.37463800  1
  Fe  Fe3  1  0.74927600  0.37463800  0.37463800  1
  O  O0  1  0.27443200  0.13721600  0.58835200  1
  O  O1  1  0.72556800  0.13721600  0.13721600  1
  O  O2  1  0.72556800  0.58835200  0.13721600  1
  O  O3  1  0.27443200  0.13721600  0.13721600  1
  O  O4  1  0.22912300  0.61456200  0.15631500  1
  O  O5  1  0.77087700  0.61456200  0.61456200  1
  O  O6  1  0.77087700  0.15631500  0.61456200  1
  O  O7  1  0.22912300  0.61456200  0.61456200  1
loop_
_geom_bond_atom_site_label_1
_geom_bond_atom_site_label_2
_geom_bond_distance
_geom_bond_site_symmetry_2
Mn0 O0 2.035652 1_554
Mn0 O2 2.035652 1_445
Mn0 O3 2.035652 1_555
Mn0 O1 2.035652 1_455
Fe0 O1 2.038633 1_556
Fe0 O2 2.038633 1_556
Fe0 O3 2.038633 1_556
Fe0 O7 2.059156 1_655
Fe0 O5 2.059156 1_555
Fe0 O6 2.059156 1_555
Fe1 O0 2.038633 1_555
Fe1 O2 2.038633 1_555
Fe1 O3 2.038633 1_555
Fe1 O6 2.059156 1_455
Fe1 O7 2.059160 1_555
Fe1 O4 2.059160 1_555
Fe2 O3 2.038633 1_565
Fe2 O0 2.038633 1_565
Fe2 O1 2.038633 1_565
Fe2 O5 2.059156 1_455
Fe2 O7 2.059156 1_555
Fe2 O4 2.059156 1_555
Fe3 O2 2.038633 1_555
Fe3 O1 2.038633 1_555
Fe3 O0 2.038633 1_555
Fe3 O4 2.059156 1_655
Fe3 O5 2.059160 1_555
Fe3 O6 2.059160 1_555
O4 Zn0 2.009279 1_554
O5 Zn0 2.009279 1_555
O6 Zn0 2.009279 1_545
O7 Zn0 2.009279 1_555
