# generated using pymatgen
data_ScGeOs
_symmetry_space_group_name_H-M   'P 1'
_cell_length_a   6.98596228
_cell_length_b   6.98596228
_cell_length_c   3.42700403
_cell_angle_alpha   90.00000000
_cell_angle_beta   90.00000000
_cell_angle_gamma   119.99999563
_symmetry_Int_Tables_number   1
_chemical_formula_structural   ScGeOs
_chemical_formula_sum   'Sc3 Ge3 Os3'
_cell_volume   144.84307576
_cell_formula_units_Z   3
loop_
 _symmetry_equiv_pos_site_id
 _symmetry_equiv_pos_as_xyz
  1  'x, y, z'
loop_
 _atom_site_type_symbol
 _atom_site_label
 _atom_site_symmetry_multiplicity
 _atom_site_fract_x
 _atom_site_fract_y
 _atom_site_fract_z
 _atom_site_occupancy
  Sc  Sc0  1  0.40160643  0.40160643  0.50000000  1
  Sc  Sc1  1  0.59839357  -0.00000000  0.50000000  1
  Sc  Sc2  1  -0.00000000  0.59839357  0.50000000  1
  Ge  Ge0  1  0.66666700  0.33333300  0.00000000  1
  Ge  Ge1  1  0.33333300  0.66666700  -0.00000000  1
  Ge  Ge2  1  0.00000000  0.00000000  0.50000000  1
  Os  Os0  1  0.74400931  0.74400931  -0.00000000  1
  Os  Os1  1  0.25599069  0.00000000  0.00000000  1
  Os  Os2  1  0.00000000  0.25599069  -0.00000000  1
loop_
_geom_bond_atom_site_label_1
_geom_bond_atom_site_label_2
_geom_bond_distance
_geom_bond_site_symmetry_2
Ge0 Os2 2.640596 1_655
Ge0 Os1 2.640601 1_555
Ge0 Os0 2.640603 1_555
Ge0 Sc1 2.734142 1_554
Ge0 Sc1 2.734142 1_555
Ge0 Sc2 2.734144 1_654
Ge0 Sc2 2.734144 1_655
Ge0 Sc0 2.734147 1_555
Ge0 Sc0 2.734147 1_554
Ge1 Os1 2.640596 1_565
Ge1 Os2 2.640601 1_555
Ge1 Os0 2.640603 1_555
Ge1 Sc2 2.734142 1_555
Ge1 Sc2 2.734142 1_554
Ge1 Sc1 2.734144 1_565
Ge1 Sc1 2.734144 1_564
Ge1 Sc0 2.734147 1_555
Ge1 Sc0 2.734147 1_554
Ge2 Os2 2.476743 1_556
Ge2 Os1 2.476743 1_555
Ge2 Os1 2.476743 1_556
Ge2 Os2 2.476743 1_555
Ge2 Os0 2.476743 1_446
Ge2 Os0 2.476743 1_445
Ge2 Sc2 2.805607 1_545
Ge2 Sc1 2.805607 1_455
Ge2 Sc0 2.805608 1_555
Os0 Sc0 2.942417 1_555
Os0 Sc0 2.942417 1_554
Os0 Sc1 2.998050 1_565
Os0 Sc1 2.998050 1_564
Os0 Sc2 2.998050 1_654
Os0 Sc2 2.998050 1_655
Os1 Sc1 2.942417 1_555
Os1 Sc1 2.942417 1_554
Os1 Sc0 2.998050 1_555
Os1 Sc0 2.998050 1_554
Os1 Sc2 2.998050 1_544
Os1 Sc2 2.998050 1_545
Os2 Sc2 2.942417 1_554
Os2 Sc2 2.942417 1_555
Os2 Sc0 2.998050 1_555
Os2 Sc0 2.998050 1_554
Os2 Sc1 2.998050 1_454
Os2 Sc1 2.998050 1_455
