# generated using pymatgen
data_ScBIr3
_symmetry_space_group_name_H-M   'P 1'
_cell_length_a   4.12710079
_cell_length_b   4.12710079
_cell_length_c   4.12710079
_cell_angle_alpha   90.00000000
_cell_angle_beta   90.00000000
_cell_angle_gamma   90.00000000
_symmetry_Int_Tables_number   1
_chemical_formula_structural   ScBIr3
_chemical_formula_sum   'Sc1 B1 Ir3'
_cell_volume   70.29674651
_cell_formula_units_Z   1
loop_
 _symmetry_equiv_pos_site_id
 _symmetry_equiv_pos_as_xyz
  1  'x, y, z'
loop_
 _atom_site_type_symbol
 _atom_site_label
 _atom_site_symmetry_multiplicity
 _atom_site_fract_x
 _atom_site_fract_y
 _atom_site_fract_z
 _atom_site_occupancy
  Sc  Sc0  1  -0.00000000  -0.00000000  -0.00000000  1
  B  B0  1  0.50000000  0.50000000  0.50000000  1
  Ir  Ir0  1  -0.00000000  0.50000000  0.50000000  1
  Ir  Ir1  1  0.50000000  -0.00000000  0.50000000  1
  Ir  Ir2  1  0.50000000  0.50000000  -0.00000000  1
loop_
_geom_bond_atom_site_label_1
_geom_bond_atom_site_label_2
_geom_bond_distance
_geom_bond_site_symmetry_2
B0 Ir0 2.063550 1_655
B0 Ir1 2.063550 1_565
B0 Ir0 2.063550 1_555
B0 Ir2 2.063550 1_556
B0 Ir1 2.063550 1_555
B0 Ir2 2.063550 1_555
Ir0 Sc0 2.918301 1_556
Ir0 Sc0 2.918301 1_565
Ir0 Sc0 2.918301 1_566
Ir0 Sc0 2.918301 1_555
Ir1 Sc0 2.918301 1_556
Ir1 Sc0 2.918301 1_656
Ir1 Sc0 2.918301 1_655
Ir1 Sc0 2.918301 1_555
Ir2 Sc0 2.918301 1_665
Ir2 Sc0 2.918301 1_565
Ir2 Sc0 2.918301 1_655
Ir2 Sc0 2.918301 1_555
