# generated using pymatgen
data_Al3GaN4
_symmetry_space_group_name_H-M   'P 1'
_cell_length_a   3.12543778
_cell_length_b   5.03769359
_cell_length_c   5.41117312
_cell_angle_alpha   89.96446562
_cell_angle_beta   90.00000000
_cell_angle_gamma   90.00000000
_symmetry_Int_Tables_number   1
_chemical_formula_structural   Al3GaN4
_chemical_formula_sum   'Al3 Ga1 N4'
_cell_volume   85.19889294
_cell_formula_units_Z   1
loop_
 _symmetry_equiv_pos_site_id
 _symmetry_equiv_pos_as_xyz
  1  'x, y, z'
loop_
 _atom_site_type_symbol
 _atom_site_label
 _atom_site_symmetry_multiplicity
 _atom_site_fract_x
 _atom_site_fract_y
 _atom_site_fract_z
 _atom_site_occupancy
  Al  Al0  1  0.50000000  0.50009873  0.83271961  1
  Al  Al1  1  0.50000000  0.00076357  0.16503569  1
  Al  Al2  1  -0.00000000  0.00088655  0.66841720  1
  Ga  Ga0  1  0.00000000  0.49971489  0.33383626  1
  N  N0  1  -0.00000000  0.11013543  0.33370446  1
  N  N1  1  0.50000000  0.12258652  0.83282614  1
  N  N2  1  0.50000000  0.62590355  0.15872248  1
  N  N3  1  -0.00000000  0.62350976  0.67473716  1
loop_
_geom_bond_atom_site_label_1
_geom_bond_atom_site_label_2
_geom_bond_distance
_geom_bond_site_symmetry_2
Al0 N2 1.874819 1_556
Al0 N3 1.886466 1_555
Al0 N3 1.886466 1_655
Al0 N1 1.901791 1_555
Al1 N2 1.888760 1_545
Al1 N0 1.891906 1_555
Al1 N0 1.891906 1_655
Al1 N1 1.899155 1_554
Al2 N0 1.892635 1_555
Al2 N1 1.900029 1_455
Al2 N1 1.900029 1_555
Al2 N3 1.901395 1_545
Ga0 N2 1.934773 1_455
Ga0 N2 1.934773 1_555
Ga0 N3 1.947608 1_555
Ga0 N0 1.962583 1_555
