# generated using pymatgen
data_V3OF11
_symmetry_space_group_name_H-M   'P 1'
_cell_length_a   5.29500000
_cell_length_b   5.48183332
_cell_length_c   15.04101052
_cell_angle_alpha   79.65922950
_cell_angle_beta   89.74645953
_cell_angle_gamma   89.58568159
_symmetry_Int_Tables_number   1
_chemical_formula_structural   V3OF11
_chemical_formula_sum   'V6 O2 F22'
_cell_volume   429.48038952
_cell_formula_units_Z   2
loop_
 _symmetry_equiv_pos_site_id
 _symmetry_equiv_pos_as_xyz
  1  'x, y, z'
loop_
 _atom_site_type_symbol
 _atom_site_label
 _atom_site_symmetry_multiplicity
 _atom_site_fract_x
 _atom_site_fract_y
 _atom_site_fract_z
 _atom_site_occupancy
  V  V0  1  0.99475000  0.97036900  0.99309100  1
  V  V1  1  0.49971600  0.16614400  0.66658200  1
  V  V2  1  0.99987400  0.33375200  0.33290600  1
  V  V3  1  0.47789200  0.44554200  0.00446500  1
  V  V4  1  0.99957000  0.66602600  0.66652500  1
  V  V5  1  0.50009100  0.83382000  0.33292800  1
  O  O0  1  0.29501700  0.20336300  0.02503200  1
  O  O1  1  0.09209800  0.06325200  0.89039900  1
  F  F0  1  0.20057000  0.02616900  0.35691600  1
  F  F1  1  0.70152900  0.14126800  0.30958000  1
  F  F2  1  0.41705400  0.20883700  0.55128400  1
  F  F3  1  0.08629900  0.37689800  0.21769000  1
  F  F4  1  0.58311700  0.12527700  0.78197400  1
  F  F5  1  0.91699000  0.29213000  0.44850900  1
  F  F6  1  0.58932100  0.47335900  0.11268600  1
  F  F7  1  0.20030200  0.35849100  0.69032200  1
  F  F8  1  0.29855800  0.52724800  0.35655700  1
  F  F9  1  0.20682800  0.69234200  0.02655000  1
  F  F10  1  0.77721100  0.29484400  0.97528700  1
  F  F11  1  0.70131400  0.47328100  0.64327700  1
  F  F12  1  0.79929300  0.64116400  0.30930000  1
  F  F13  1  0.41981600  0.56412500  0.88904100  1
  F  F14  1  0.08423600  0.70794100  0.55122300  1
  F  F15  1  0.41762700  0.87668500  0.21760400  1
  F  F16  1  0.91738200  0.62454500  0.78224300  1
  F  F17  1  0.58278300  0.79153300  0.44837500  1
  F  F18  1  0.92939300  0.98642800  0.11136400  1
  F  F19  1  0.29816100  0.85959200  0.69011700  1
  F  F20  1  0.71392600  0.80189100  0.97510400  1
  F  F21  1  0.79928200  0.97368600  0.64306800  1
loop_
_geom_bond_atom_site_label_1
_geom_bond_atom_site_label_2
_geom_bond_distance
_geom_bond_site_symmetry_2
O0 V3 1.632278 1_555
O0 V0 2.155546 1_444
O1 V0 1.620222 1_445
F0 V2 1.965094 1_455
F0 V5 1.965859 1_545
F1 V2 1.973310 1_555
F1 V5 1.977800 1_545
F2 V1 1.764461 1_555
F3 V2 1.765198 1_455
F4 V1 1.767291 1_555
F5 V2 1.766440 1_555
F6 V3 1.766313 1_555
F7 V1 1.964371 1_555
F7 V4 1.964879 1_455
F8 V5 1.974219 1_555
F8 V2 1.979294 1_455
F9 V0 1.882034 1_454
F9 V3 2.032192 1_555
F10 V3 1.868690 1_556
F10 V0 2.089126 1_545
F11 V4 1.973425 1_555
F11 V1 1.976843 1_555
F12 V2 1.963812 1_555
F12 V5 1.963964 1_555
F13 V3 1.768568 1_556
F14 V4 1.764363 1_455
F15 V5 1.764531 1_555
F16 V4 1.767238 1_555
F17 V5 1.766756 1_555
F18 V0 1.828248 1_554
F19 V1 1.974158 1_565
F19 V4 1.978871 1_455
F20 V0 1.802874 1_555
F20 V3 2.300803 1_556
F21 V4 1.964035 1_555
F21 V1 1.964430 1_565
