# generated using pymatgen
data_MgZn2Bi6Ru8O27
_symmetry_space_group_name_H-M   'P 1'
_cell_length_a   7.41730012
_cell_length_b   10.34206392
_cell_length_c   7.37094962
_cell_angle_alpha   90.39979415
_cell_angle_beta   90.63113439
_cell_angle_gamma   90.00798116
_symmetry_Int_Tables_number   1
_chemical_formula_structural   MgZn2Bi6Ru8O27
_chemical_formula_sum   'Mg1 Zn2 Bi6 Ru8 O27'
_cell_volume   565.37887886
_cell_formula_units_Z   1
loop_
 _symmetry_equiv_pos_site_id
 _symmetry_equiv_pos_as_xyz
  1  'x, y, z'
loop_
 _atom_site_type_symbol
 _atom_site_label
 _atom_site_symmetry_multiplicity
 _atom_site_fract_x
 _atom_site_fract_y
 _atom_site_fract_z
 _atom_site_occupancy
  Mg  Mg0  1  0.52085129  0.76088480  0.50236546  1
  Zn  Zn0  1  0.81258506  0.27771791  0.72576450  1
  Zn  Zn1  1  0.92094686  0.99592422  0.58199158  1
  Bi  Bi0  1  0.21728285  0.76368608  0.23966776  1
  Bi  Bi1  1  0.76692672  0.23709280  0.23883859  1
  Bi  Bi2  1  0.22524416  0.76188653  0.76405890  1
  Bi  Bi3  1  0.50191826  0.48841881  0.98449312  1
  Bi  Bi4  1  0.00286565  0.49019596  0.00120498  1
  Bi  Bi5  1  0.48646699  0.05076573  0.51572125  1
  Ru  Ru0  1  0.24899728  0.25332957  0.24512924  1
  Ru  Ru1  1  0.75860161  0.74544903  0.76163081  1
  Ru  Ru2  1  0.75975732  0.74908667  0.23839837  1
  Ru  Ru3  1  0.24265063  0.25179831  0.74986870  1
  Ru  Ru4  1  0.50163348  0.99386902  0.00508351  1
  Ru  Ru5  1  0.00675928  0.50236822  0.49797865  1
  Ru  Ru6  1  0.99370767  0.00494180  0.99998730  1
  Ru  Ru7  1  0.50048491  0.48925423  0.49985141  1
  O  O0  1  0.24642848  0.91743318  0.99919359  1
  O  O1  1  0.75424183  0.40882561  0.51457793  1
  O  O2  1  0.24453390  0.33402002  0.99867480  1
  O  O3  1  0.76808599  0.83690243  0.50340912  1
  O  O4  1  0.55967477  0.62441801  0.31013023  1
  O  O5  1  0.00840868  0.12973239  0.77117735  1
  O  O6  1  0.95791968  0.62618262  0.70181255  1
  O  O7  1  0.44106786  0.12133795  0.20206096  1
  O  O8  1  0.54804720  0.62174041  0.70228141  1
  O  O9  1  0.04224594  0.14262184  0.17461869  1
  O  O10  1  0.95933479  0.62710260  0.29478585  1
  O  O11  1  0.41525309  0.10983258  0.80197016  1
  O  O12  1  0.74339784  0.06869150  0.01972036  1
  O  O13  1  0.25541019  0.56820721  0.49244778  1
  O  O14  1  0.74715024  0.66331351  0.00044557  1
  O  O15  1  0.25422250  0.18240727  0.49663321  1
  O  O16  1  0.44383239  0.37256311  0.70820410  1
  O  O17  1  0.95497301  0.87280108  0.18358673  1
  O  O18  1  0.03834946  0.37689971  0.28866548  1
  O  O19  1  0.55253219  0.87053854  0.79793511  1
  O  O20  1  0.45562212  0.37093919  0.29251399  1
  O  O21  1  0.95682163  0.87334334  0.80363125  1
  O  O22  1  0.05472202  0.38318019  0.70614154  1
  O  O23  1  0.55063748  0.86954038  0.19884533  1
  O  O24  1  0.75424082  0.34780815  0.98030210  1
  O  O25  1  0.30491566  0.88175999  0.50276906  1
  O  O26  1  0.25173524  0.62493745  0.00142766  1
loop_
_geom_bond_atom_site_label_1
_geom_bond_atom_site_label_2
_geom_bond_distance
_geom_bond_site_symmetry_2
Mg0 O3 1.995047 1_555
Mg0 O4 2.015884 1_555
Mg0 O25 2.031915 1_555
Mg0 O8 2.075105 1_555
Mg0 O23 2.522434 1_555
Bi0 O26 2.276605 1_555
Bi0 O17 2.284559 1_455
Bi0 O25 2.369287 1_555
Bi0 O0 2.400947 1_554
Bi0 O10 2.417723 1_455
Bi0 O23 2.724512 1_555
Bi0 O13 2.771246 1_555
Bi1 O24 2.231144 1_554
Bi1 O9 2.316101 1_655
Bi1 O12 2.372070 1_555
Bi1 O18 2.500810 1_655
Bi1 O1 2.692223 1_555
Bi1 O7 2.707162 1_555
Bi1 O20 2.723547 1_555
Bi2 O26 2.265595 1_556
Bi2 O21 2.320881 1_455
Bi2 O0 2.360382 1_555
Bi2 O25 2.377743 1_555
Bi2 O6 2.466171 1_455
Bi2 O19 2.683319 1_555
Bi3 O26 2.335793 1_556
Bi3 O24 2.370607 1_555
Bi3 O16 2.390634 1_555
Bi3 O2 2.492234 1_555
Bi3 O8 2.529998 1_555
Bi3 O14 2.566223 1_556
Bi3 O20 2.608524 1_556
Bi3 O4 2.802337 1_556
Bi4 O26 2.312691 1_555
Bi4 O24 2.362807 1_454
Bi4 O2 2.413179 1_554
Bi4 O18 2.440122 1_555
Bi4 O22 2.467389 1_554
Bi4 O10 2.600874 1_455
Bi4 O14 2.608434 1_455
Bi4 O6 2.643158 1_454
Bi5 O15 2.199718 1_555
Bi5 O25 2.207199 1_545
Bi5 O11 2.260668 1_555
Bi5 O7 2.449037 1_555
O0 Ru4 2.051162 1_556
O0 Ru6 2.081708 1_465
O1 Ru7 2.059978 1_555
O1 Zn0 2.112753 1_555
O1 Ru5 2.113101 1_655
O2 Ru0 2.004341 1_556
O2 Ru3 2.016004 1_555
O3 Zn1 2.073044 1_555
O3 Ru1 2.133137 1_555
O3 Ru2 2.148698 1_555
O4 Ru7 2.035441 1_555
O4 Ru2 2.042222 1_555
O5 Zn1 2.057513 1_445
O5 Ru6 2.134560 1_455
O5 Zn0 2.135689 1_455
O5 Ru3 2.155280 1_555
O6 Ru1 1.977065 1_555
O6 Ru5 2.003379 1_655
O7 Ru0 1.999563 1_555
O7 Ru4 2.008873 1_545
O8 Ru7 2.046449 1_555
O8 Ru1 2.060066 1_555
O9 Ru6 1.943720 1_454
O9 Ru0 1.976463 1_555
O10 Ru2 1.987447 1_555
O10 Ru5 2.011597 1_655
O11 Ru3 1.984877 1_555
O11 Ru4 2.023462 1_546
O12 Ru4 1.954566 1_545
O12 Ru6 1.976825 1_554
O13 Ru5 1.966852 1_555
O13 Ru7 1.993221 1_555
O14 Ru2 1.961273 1_555
O14 Ru1 1.962536 1_554
O15 Ru3 1.997844 1_555
O15 Ru0 1.998389 1_555
O16 Ru3 1.973797 1_555
O16 Ru7 2.007859 1_555
O17 Ru6 1.953421 1_564
O17 Ru2 1.979006 1_555
O18 Ru5 2.024632 1_555
O18 Ru0 2.045307 1_555
O19 Ru1 2.021436 1_555
O19 Ru4 2.021491 1_556
O20 Ru7 1.976407 1_555
O20 Ru0 1.982941 1_555
O21 Ru6 1.996403 1_565
O21 Ru1 1.997680 1_555
O21 Zn1 2.089581 1_555
O22 Ru3 1.972277 1_555
O22 Ru5 2.003680 1_555
O22 Zn0 2.107972 1_455
O23 Ru4 1.959474 1_555
O23 Ru2 2.009586 1_555
O24 Zn0 2.057131 1_555
