# generated using pymatgen
data_Ti6Be15Cu8
_symmetry_space_group_name_H-M   'P 1'
_cell_length_a   7.56897432
_cell_length_b   7.56897849
_cell_length_c   7.56897547
_cell_angle_alpha   60.00169905
_cell_angle_beta   60.00174262
_cell_angle_gamma   60.00169265
_symmetry_Int_Tables_number   1
_chemical_formula_structural   Ti6Be15Cu8
_chemical_formula_sum   'Ti6 Be15 Cu8'
_cell_volume   306.62901906
_cell_formula_units_Z   1
loop_
 _symmetry_equiv_pos_site_id
 _symmetry_equiv_pos_as_xyz
  1  'x, y, z'
loop_
 _atom_site_type_symbol
 _atom_site_label
 _atom_site_symmetry_multiplicity
 _atom_site_fract_x
 _atom_site_fract_y
 _atom_site_fract_z
 _atom_site_occupancy
  Ti  Ti0  1  0.69740159  0.30259431  0.30259273  1
  Ti  Ti1  1  0.30259133  0.69740837  0.69740661  1
  Ti  Ti2  1  0.30259160  0.69740442  0.30259524  1
  Ti  Ti3  1  0.69740552  0.30259443  0.69740876  1
  Ti  Ti4  1  0.30258946  0.30259468  0.69740497  1
  Ti  Ti5  1  0.69740332  0.69740849  0.30259496  1
  Be  Be0  1  0.32650642  0.32650965  0.32650918  1
  Be  Be1  1  0.67349009  0.67349281  0.67349329  1
  Be  Be2  1  0.32649850  0.32650068  0.02048951  1
  Be  Be3  1  0.32649818  0.02048868  0.32650113  1
  Be  Be4  1  0.67349791  0.67350086  0.97950979  1
  Be  Be5  1  0.67349817  0.97950917  0.67350133  1
  Be  Be6  1  0.02049175  0.32649897  0.32649963  1
  Be  Be7  1  0.97951238  0.67349899  0.67349904  1
  Be  Be8  1  0.49999681  0.99999534  0.00000629  1
  Be  Be9  1  0.99999896  0.50001017  0.49999040  1
  Be  Be10  1  0.99999347  0.50000386  0.00000414  1
  Be  Be11  1  0.50000238  0.00000204  0.49999152  1
  Be  Be12  1  0.99999851  0.00000062  0.49999176  1
  Be  Be13  1  0.49999550  0.50000379  0.00000538  1
  Be  Be14  1  -0.00000246  0.00000162  0.00000234  1
  Cu  Cu0  1  0.12199653  0.12198531  0.12198916  1
  Cu  Cu1  1  0.87801650  0.87800091  0.87800797  1
  Cu  Cu2  1  0.12200144  0.12198654  0.63402511  1
  Cu  Cu3  1  0.12199747  0.63402642  0.12198939  1
  Cu  Cu4  1  0.87801630  0.87800512  0.36597489  1
  Cu  Cu5  1  0.87801672  0.36597577  0.87800784  1
  Cu  Cu6  1  0.63402219  0.12198967  0.12199745  1
  Cu  Cu7  1  0.36597147  0.87800931  0.87801221  1
loop_
_geom_bond_atom_site_label_1
_geom_bond_atom_site_label_2
_geom_bond_distance
_geom_bond_site_symmetry_2
Ti0 Ti5 2.988355 1_555
Ti0 Ti3 2.988368 1_555
Ti0 Ti2 2.988384 1_555
Ti0 Ti4 2.988402 1_555
Ti1 Ti2 2.988332 1_555
Ti1 Ti4 2.988350 1_555
Ti1 Ti5 2.988399 1_555
Ti1 Ti3 2.988415 1_555
Ti2 Ti5 2.988334 1_555
Ti2 Ti4 2.988383 1_555
Ti3 Ti4 2.988366 1_555
Ti3 Ti5 2.988414 1_555
Be0 Be13 2.188675 1_555
Be0 Be11 2.188676 1_555
Be0 Be9 2.188685 1_455
Be0 Be6 2.316294 1_555
Be0 Be2 2.316319 1_555
Be0 Be3 2.316328 1_555
Be0 Cu2 2.323883 1_555
Be0 Cu3 2.323885 1_555
Be0 Cu6 2.323896 1_555
Be0 Ti0 2.638734 1_555
Be0 Ti4 2.638739 1_555
Be0 Ti2 2.638743 1_555
Be1 Be9 2.188700 1_555
Be1 Be13 2.188709 1_556
Be1 Be11 2.188711 1_565
Be1 Be4 2.316291 1_555
Be1 Be5 2.316292 1_555
Be1 Be7 2.316320 1_555
Be1 Cu7 2.323917 1_555
Be1 Cu4 2.323928 1_555
Be1 Cu5 2.323933 1_555
Be1 Ti3 2.638763 1_555
Be1 Ti5 2.638768 1_555
Be1 Ti1 2.638771 1_555
Be2 Be8 2.188674 1_545
Be2 Be6 2.316231 1_555
Be2 Be3 2.316256 1_555
Be2 Cu0 2.323793 1_555
Be2 Cu3 2.323878 1_555
Be2 Cu6 2.323893 1_555
Be2 Ti4 2.638804 1_554
Be2 Ti3 2.638901 1_554
Be2 Ti1 2.638910 1_554
Be3 Be8 2.188631 1_545
Be3 Be6 2.316229 1_555
Be3 Cu0 2.323775 1_555
Be3 Cu2 2.323859 1_555
Be3 Cu6 2.323871 1_555
Be3 Ti2 2.638792 1_545
Be3 Ti5 2.638890 1_545
Be3 Ti1 2.638892 1_545
Be4 Be8 2.188637 1_556
Be4 Be5 2.316230 1_555
Be4 Be7 2.316263 1_555
Be4 Cu1 2.323795 1_555
Be4 Cu7 2.323872 1_555
Be4 Cu5 2.323882 1_555
Be4 Ti5 2.638800 1_556
Be4 Ti0 2.638905 1_556
Be4 Ti2 2.638913 1_556
Be5 Be8 2.188679 1_556
Be5 Be7 2.316258 1_555
Be5 Cu1 2.323817 1_555
Be5 Cu7 2.323884 1_555
Be5 Cu4 2.323898 1_555
Be5 Ti3 2.638809 1_565
Be5 Ti0 2.638921 1_565
Be5 Ti4 2.638922 1_565
Be6 Be9 2.188672 1_455
Be6 Cu0 2.323822 1_555
Be6 Cu3 2.323911 1_555
Be6 Cu2 2.323912 1_555
Be6 Ti0 2.638831 1_455
Be6 Ti3 2.638928 1_455
Be6 Ti5 2.638935 1_455
Be7 Be9 2.188667 1_555
Be7 Cu1 2.323761 1_555
Be7 Cu5 2.323846 1_555
Be7 Cu4 2.323852 1_555
Be7 Ti1 2.638769 1_655
Be7 Ti4 2.638876 1_655
Be7 Ti2 2.638882 1_655
Be8 Cu7 2.336652 1_554
Be8 Cu6 2.336685 1_565
Be8 Cu0 2.336699 1_565
Be8 Cu1 2.336818 1_554
Be8 Ti5 2.734629 1_555
Be8 Ti2 2.734640 1_555
Be8 Ti3 2.734706 1_564
Be8 Ti4 2.734712 1_564
Be9 Cu4 2.336667 1_555
Be9 Cu3 2.336705 1_655
Be9 Cu5 2.336808 1_555
Be9 Cu2 2.336846 1_655
Be9 Ti2 2.734578 1_655
Be9 Ti5 2.734597 1_555
Be9 Ti4 2.734646 1_655
Be9 Ti3 2.734670 1_555
Be10 Be4 2.188637 1_554
Be10 Be6 2.188647 1_655
Be10 Be7 2.188666 1_554
Be10 Be2 2.188676 1_655
Be10 Cu5 2.336626 1_554
Be10 Cu1 2.336679 1_554
Be10 Cu3 2.336690 1_655
Be10 Cu0 2.336812 1_655
Be10 Ti5 2.734638 1_555
Be10 Ti0 2.734662 1_555
Be10 Ti1 2.734683 1_654
Be10 Ti4 2.734707 1_654
Be11 Be3 2.188647 1_555
Be11 Be5 2.188694 1_545
Be11 Cu6 2.336663 1_555
Be11 Cu2 2.336706 1_555
Be11 Cu4 2.336783 1_545
Be11 Cu7 2.336827 1_545
Be11 Ti5 2.734589 1_545
Be11 Ti0 2.734598 1_555
Be11 Ti1 2.734651 1_545
Be11 Ti4 2.734659 1_555
Be12 Be3 2.188649 1_655
Be12 Be6 2.188654 1_655
Be12 Be7 2.188657 1_545
Be12 Be5 2.188662 1_545
Be12 Cu4 2.336584 1_545
Be12 Cu0 2.336713 1_655
Be12 Cu2 2.336756 1_655
Be12 Cu1 2.336799 1_545
Be12 Ti2 2.734636 1_645
Be12 Ti0 2.734648 1_555
Be12 Ti1 2.734691 1_645
Be12 Ti3 2.734708 1_555
Be13 Be4 2.188644 1_554
Be13 Be2 2.188694 1_555
Be13 Cu3 2.336687 1_555
Be13 Cu7 2.336733 1_554
Be13 Cu6 2.336786 1_555
Be13 Cu5 2.336830 1_554
Be13 Ti2 2.734584 1_555
Be13 Ti0 2.734588 1_555
Be13 Ti1 2.734656 1_554
Be13 Ti3 2.734666 1_554
Be14 Cu0 2.261678 1_555
Be14 Cu1 2.261719 1_444
Be14 Cu4 2.261775 1_445
Be14 Cu7 2.261783 1_544
Be14 Cu5 2.261785 1_454
Be14 Cu3 2.261791 1_545
Be14 Cu6 2.261792 1_455
Be14 Cu2 2.261804 1_554
Cu0 Cu7 2.611595 1_544
Cu0 Cu4 2.611635 1_445
Cu0 Cu5 2.611636 1_454
Cu0 Ti2 2.673528 1_545
Cu0 Ti4 2.673548 1_554
Cu0 Ti0 2.673617 1_455
Cu1 Cu3 2.611643 1_656
Cu1 Cu2 2.611689 1_665
Cu1 Cu6 2.611730 1_566
Cu1 Ti1 2.673488 1_655
Cu1 Ti5 2.673567 1_556
Cu1 Ti3 2.673606 1_565
Cu2 Cu7 2.611615 1_545
Cu2 Cu5 2.611697 1_455
Cu2 Ti4 2.673400 1_555
Cu2 Ti1 2.673493 1_545
Cu2 Ti3 2.673605 1_455
Cu3 Cu7 2.611616 1_554
Cu3 Cu4 2.611655 1_455
Cu3 Ti2 2.673414 1_555
Cu3 Ti1 2.673523 1_554
Cu3 Ti5 2.673596 1_455
Cu4 Cu6 2.611692 1_565
Cu4 Ti2 2.673476 1_655
Cu4 Ti5 2.673487 1_555
Cu4 Ti0 2.673564 1_565
Cu5 Cu6 2.611743 1_556
Cu5 Ti4 2.673458 1_655
Cu5 Ti3 2.673498 1_555
Cu5 Ti0 2.673537 1_556
Cu6 Ti0 2.673422 1_555
Cu6 Ti5 2.673513 1_545
Cu6 Ti3 2.673559 1_554
Cu7 Ti1 2.673468 1_555
Cu7 Ti2 2.673527 1_556
Cu7 Ti4 2.673539 1_565
