# generated using pymatgen
data_Lu3Mg2CrS8
_symmetry_space_group_name_H-M   'P 1'
_cell_length_a   7.67933455
_cell_length_b   7.59994369
_cell_length_c   7.67917010
_cell_angle_alpha   59.64837587
_cell_angle_beta   59.98182140
_cell_angle_gamma   59.65153028
_symmetry_Int_Tables_number   1
_chemical_formula_structural   Lu3Mg2CrS8
_chemical_formula_sum   'Lu3 Mg2 Cr1 S8'
_cell_volume   315.17806098
_cell_formula_units_Z   1
loop_
 _symmetry_equiv_pos_site_id
 _symmetry_equiv_pos_as_xyz
  1  'x, y, z'
loop_
 _atom_site_type_symbol
 _atom_site_label
 _atom_site_symmetry_multiplicity
 _atom_site_fract_x
 _atom_site_fract_y
 _atom_site_fract_z
 _atom_site_occupancy
  Lu  Lu0  1  0.50002700  0.50000200  0.49997800  1
  Lu  Lu1  1  0.50002800  0.49999300  0.99999400  1
  Lu  Lu2  1  0.00001100  0.49998900  0.50002600  1
  Mg  Mg0  1  0.87478100  0.87575900  0.87477400  1
  Mg  Mg1  1  0.12528400  0.12424700  0.12525100  1
  Cr  Cr0  1  0.49985300  0.00000500  0.49994700  1
  S  S0  1  0.73106600  0.76406400  0.73104200  1
  S  S1  1  0.26884900  0.23599100  0.72615700  1
  S  S2  1  0.25588500  0.73261100  0.25586400  1
  S  S3  1  0.72612500  0.23593100  0.26890800  1
  S  S4  1  0.74411500  0.26737700  0.74414100  1
  S  S5  1  0.27388500  0.76405700  0.73110300  1
  S  S6  1  0.26891700  0.23595400  0.26897200  1
  S  S7  1  0.73117900  0.76401700  0.27384300  1
loop_
_geom_bond_atom_site_label_1
_geom_bond_atom_site_label_2
_geom_bond_distance
_geom_bond_site_symmetry_2
Lu0 S4 2.640515 1_555
Lu0 S2 2.640549 1_555
Lu0 S3 2.680692 1_555
Lu0 S7 2.680708 1_555
Lu0 S1 2.680807 1_555
Lu0 S5 2.680881 1_555
Lu1 S4 2.641197 1_555
Lu1 S2 2.641302 1_556
Lu1 S0 2.680307 1_555
Lu1 S3 2.680417 1_556
Lu1 S6 2.680518 1_556
Lu1 S5 2.680523 1_555
Lu2 S2 2.641253 1_555
Lu2 S4 2.641324 1_455
Lu2 S1 2.680174 1_555
Lu2 S6 2.680291 1_555
Lu2 S0 2.680329 1_455
Lu2 S7 2.680410 1_455
Mg0 S4 2.417296 1_565
Mg0 S7 2.502700 1_556
Mg0 S5 2.503063 1_655
Mg0 S0 2.503843 1_555
Mg1 S2 2.417407 1_545
Mg1 S1 2.502860 1_554
Mg1 S6 2.503320 1_555
Mg1 S3 2.503422 1_455
Cr0 S5 2.494650 1_545
Cr0 S6 2.495194 1_555
Cr0 S7 2.495695 1_545
Cr0 S3 2.496173 1_555
Cr0 S1 2.496256 1_555
Cr0 S0 2.497339 1_545
