# generated using pymatgen
data_BiSbWO6
_symmetry_space_group_name_H-M   'P 1'
_cell_length_a   8.80210745
_cell_length_b   8.80210745
_cell_length_c   5.41434276
_cell_angle_alpha   89.30531658
_cell_angle_beta   89.30531658
_cell_angle_gamma   36.27912218
_symmetry_Int_Tables_number   1
_chemical_formula_structural   BiSbWO6
_chemical_formula_sum   'Bi2 Sb2 W2 O12'
_cell_volume   248.19874909
_cell_formula_units_Z   2
loop_
 _symmetry_equiv_pos_site_id
 _symmetry_equiv_pos_as_xyz
  1  'x, y, z'
loop_
 _atom_site_type_symbol
 _atom_site_label
 _atom_site_symmetry_multiplicity
 _atom_site_fract_x
 _atom_site_fract_y
 _atom_site_fract_z
 _atom_site_occupancy
  Bi  Bi0  1  0.28306531  0.37596943  0.02851194  1
  Bi  Bi1  1  0.62403057  0.71693469  0.97148806  1
  Sb  Sb0  1  0.77265209  0.87582611  0.45964685  1
  Sb  Sb1  1  0.12417389  0.22734791  0.54035315  1
  W  W0  1  0.51305070  0.48694930  0.50000000  1
  W  W1  1  0.00981543  0.99018457  0.00000000  1
  O  O0  1  0.52318224  -0.00354160  0.21113573  1
  O  O1  1  0.00354160  0.47681776  0.78886427  1
  O  O2  1  0.00545420  0.50353179  0.29731626  1
  O  O3  1  0.49646821  -0.00545420  0.70268374  1
  O  O4  1  0.32332738  0.71974246  0.25066551  1
  O  O5  1  0.28025754  0.67667262  0.74933449  1
  O  O6  1  0.81892553  0.22406972  0.24435399  1
  O  O7  1  0.77593028  0.18107447  0.75564601  1
  O  O8  1  0.47491297  0.31080873  0.41637035  1
  O  O9  1  0.68919127  0.52508703  0.58362965  1
  O  O10  1  0.96556507  0.81994530  0.09286646  1
  O  O11  1  0.18005470  0.03443493  0.90713354  1
loop_
_geom_bond_atom_site_label_1
_geom_bond_atom_site_label_2
_geom_bond_distance
_geom_bond_site_symmetry_2
Bi0 O2 2.209004 1_555
Bi0 O1 2.247956 1_554
Bi0 O0 2.278391 1_555
Bi0 O10 2.367380 1_455
Bi0 O8 2.466934 1_555
Bi1 O3 2.209004 1_565
Bi1 O0 2.247956 1_566
Bi1 O1 2.278391 1_655
Bi1 O11 2.367380 1_565
Bi1 O9 2.466934 1_555
O0 Sb0 2.009348 1_545
O1 Sb1 2.009348 1_555
O2 Sb1 2.143198 1_555
O2 Sb0 2.215785 1_455
O3 Sb0 2.143198 1_545
O3 Sb1 2.215785 1_555
O4 W0 1.811206 1_555
O4 W1 2.131913 1_555
O5 W0 1.811206 1_555
O5 W1 2.131913 1_556
O6 W1 1.801904 1_645
O6 W0 2.112291 1_555
O7 W1 1.801904 1_646
O7 W0 2.112291 1_555
O8 W0 1.892438 1_555
O8 Sb0 2.323305 1_545
O9 W0 1.892438 1_555
O9 Sb1 2.323305 1_655
O10 W1 1.888891 1_655
O10 Sb0 2.379977 1_555
O11 W1 1.888891 1_546
O11 Sb1 2.379977 1_555
