# generated using pymatgen
data_K2TlHgI6
_symmetry_space_group_name_H-M   'P 1'
_cell_length_a   8.67007242
_cell_length_b   8.67007242
_cell_length_c   8.67007242
_cell_angle_alpha   60.00000000
_cell_angle_beta   60.00000000
_cell_angle_gamma   60.00000000
_symmetry_Int_Tables_number   1
_chemical_formula_structural   K2TlHgI6
_chemical_formula_sum   'K2 Tl1 Hg1 I6'
_cell_volume   460.84319312
_cell_formula_units_Z   1
loop_
 _symmetry_equiv_pos_site_id
 _symmetry_equiv_pos_as_xyz
  1  'x, y, z'
loop_
 _atom_site_type_symbol
 _atom_site_label
 _atom_site_symmetry_multiplicity
 _atom_site_fract_x
 _atom_site_fract_y
 _atom_site_fract_z
 _atom_site_occupancy
  K  K0  1  0.75000000  0.75000000  0.75000000  1
  K  K1  1  0.25000000  0.25000000  0.25000000  1
  Tl  Tl0  1  0.00000000  0.00000000  0.00000000  1
  Hg  Hg0  1  0.50000000  0.50000000  0.50000000  1
  I  I0  1  0.74571200  0.25428800  0.25428800  1
  I  I1  1  0.25428800  0.25428800  0.74571200  1
  I  I2  1  0.25428800  0.74571200  0.74571200  1
  I  I3  1  0.25428800  0.74571200  0.25428800  1
  I  I4  1  0.74571200  0.25428800  0.74571200  1
  I  I5  1  0.74571200  0.74571200  0.25428800  1
loop_
_geom_bond_atom_site_label_1
_geom_bond_atom_site_label_2
_geom_bond_distance
_geom_bond_site_symmetry_2
Hg0 I4 3.012757 1_555
Hg0 I5 3.012757 1_555
Hg0 I2 3.012757 1_555
Hg0 I0 3.012757 1_555
Hg0 I1 3.012757 1_555
Hg0 I3 3.012757 1_555
I0 Tl0 3.117910 1_655
I1 Tl0 3.117910 1_556
I2 Tl0 3.117910 1_566
I3 Tl0 3.117910 1_565
I4 Tl0 3.117910 1_656
I5 Tl0 3.117910 1_665
