# generated using pymatgen
data_Ca4MgSn3
_symmetry_space_group_name_H-M   'P 1'
_cell_length_a   9.25624678
_cell_length_b   9.25624678
_cell_length_c   9.25624678
_cell_angle_alpha   96.13428290
_cell_angle_beta   96.13428290
_cell_angle_gamma   141.83940097
_symmetry_Int_Tables_number   1
_chemical_formula_structural   Ca4MgSn3
_chemical_formula_sum   'Ca8 Mg2 Sn6'
_cell_volume   463.08463369
_cell_formula_units_Z   2
loop_
 _symmetry_equiv_pos_site_id
 _symmetry_equiv_pos_as_xyz
  1  'x, y, z'
loop_
 _atom_site_type_symbol
 _atom_site_label
 _atom_site_symmetry_multiplicity
 _atom_site_fract_x
 _atom_site_fract_y
 _atom_site_fract_z
 _atom_site_occupancy
  Ca  Ca0  1  0.08277400  0.21715200  0.29992600  1
  Ca  Ca1  1  0.91722600  0.78284800  0.70007400  1
  Ca  Ca2  1  0.78284800  0.08277400  0.86562200  1
  Ca  Ca3  1  0.41722600  0.71715200  0.13437800  1
  Ca  Ca4  1  0.21715200  0.91722600  0.13437800  1
  Ca  Ca5  1  0.58277400  0.28284800  0.86562200  1
  Ca  Ca6  1  0.71715200  0.58277400  0.29992600  1
  Ca  Ca7  1  0.28284800  0.41722600  0.70007400  1
  Mg  Mg0  1  0.25000000  0.75000000  0.50000000  1
  Mg  Mg1  1  0.75000000  0.25000000  0.50000000  1
  Sn  Sn0  1  0.15295400  0.65295400  0.80590700  1
  Sn  Sn1  1  0.84704600  0.34704600  0.19409300  1
  Sn  Sn2  1  0.34704600  0.15295400  0.50000000  1
  Sn  Sn3  1  0.65295400  0.84704600  0.50000000  1
  Sn  Sn4  1  0.25000000  0.25000000  0.00000000  1
  Sn  Sn5  1  0.75000000  0.75000000  0.00000000  1
loop_
_geom_bond_atom_site_label_1
_geom_bond_atom_site_label_2
_geom_bond_distance
_geom_bond_site_symmetry_2
Ca0 Sn4 3.248740 1_555
Ca0 Sn5 3.248740 1_445
Ca0 Sn1 3.329655 1_455
Ca0 Sn2 3.364430 1_555
Ca0 Sn3 3.534333 1_445
Ca0 Sn3 3.534333 1_555
Ca1 Sn5 3.248740 1_556
Ca1 Sn4 3.248740 1_666
Ca1 Sn0 3.329655 1_655
Ca1 Sn3 3.364430 1_555
Ca1 Sn2 3.534333 1_665
Ca1 Sn2 3.534333 1_555
Ca2 Sn4 3.248740 1_656
Ca2 Sn5 3.248740 1_546
Ca2 Sn3 3.329658 1_545
Ca2 Sn1 3.364438 1_556
Ca2 Sn0 3.534332 1_545
Ca2 Sn0 3.534337 1_655
Ca3 Sn4 3.248740 1_555
Ca3 Sn5 3.248740 1_555
Ca3 Sn3 3.329658 1_555
Ca3 Sn0 3.364438 1_554
Ca3 Sn1 3.534332 1_565
Ca3 Sn1 3.534337 1_455
Ca4 Sn4 3.248740 1_565
Ca4 Sn5 3.248740 1_455
Ca4 Sn2 3.329658 1_565
Ca4 Sn0 3.364438 1_554
Ca4 Sn1 3.534332 1_565
Ca4 Sn1 3.534337 1_455
Ca5 Sn5 3.248740 1_556
Ca5 Sn4 3.248740 1_556
Ca5 Sn2 3.329658 1_555
Ca5 Sn1 3.364438 1_556
Ca5 Sn0 3.534332 1_545
Ca5 Sn0 3.534337 1_655
Ca6 Sn4 3.248740 1_555
Ca6 Sn5 3.248740 1_555
Ca6 Sn1 3.329655 1_555
Ca6 Sn3 3.364430 1_555
Ca6 Sn2 3.534333 1_665
Ca6 Sn2 3.534333 1_555
Ca7 Sn5 3.248740 1_556
Ca7 Sn4 3.248740 1_556
Ca7 Sn0 3.329655 1_555
Ca7 Sn2 3.364430 1_555
Ca7 Sn3 3.534333 1_445
Ca7 Sn3 3.534333 1_555
Mg0 Sn0 3.074049 1_555
Mg0 Sn1 3.074052 1_455
Mg0 Sn2 3.074058 1_565
Mg0 Sn3 3.074058 1_555
Mg1 Sn1 3.074049 1_555
Mg1 Sn0 3.074052 1_655
Mg1 Sn2 3.074058 1_555
Mg1 Sn3 3.074058 1_545
Sn4 Sn5 3.025802 1_555
Sn4 Sn5 3.025802 1_445
