# generated using pymatgen
data_MgTi4O8
_symmetry_space_group_name_H-M   'P 1'
_cell_length_a   7.46470073
_cell_length_b   7.46470073
_cell_length_c   9.62230652
_cell_angle_alpha   50.86856861
_cell_angle_beta   50.86856861
_cell_angle_gamma   22.77007604
_symmetry_Int_Tables_number   1
_chemical_formula_structural   MgTi4O8
_chemical_formula_sum   'Mg1 Ti4 O8'
_cell_volume   158.79594836
_cell_formula_units_Z   1
loop_
 _symmetry_equiv_pos_site_id
 _symmetry_equiv_pos_as_xyz
  1  'x, y, z'
loop_
 _atom_site_type_symbol
 _atom_site_label
 _atom_site_symmetry_multiplicity
 _atom_site_fract_x
 _atom_site_fract_y
 _atom_site_fract_z
 _atom_site_occupancy
  Mg  Mg0  1  0.67113900  0.67113900  0.79432700  1
  Ti  Ti0  1  0.37441000  0.37441000  0.42617000  1
  Ti  Ti1  1  0.85763100  0.85763100  0.79688900  1
  Ti  Ti2  1  0.16265500  0.16265500  0.16003900  1
  Ti  Ti3  1  0.64578100  0.64578100  0.51385600  1
  O  O0  1  0.14468700  0.14468700  0.37745500  1
  O  O1  1  0.54091000  0.54091000  0.24393200  1
  O  O2  1  0.46987300  0.46987300  0.71036200  1
  O  O3  1  0.85614000  0.85614000  0.58770800  1
  O  O4  1  0.82579300  0.82579300  0.35392800  1
  O  O5  1  0.21324600  0.21324600  0.89898100  1
  O  O6  1  0.16050400  0.16050400  0.65749000  1
  O  O7  1  0.78151900  0.78151900  0.04821800  1
loop_
_geom_bond_atom_site_label_1
_geom_bond_atom_site_label_2
_geom_bond_distance
_geom_bond_site_symmetry_2
Mg0 O6 2.047704 1_655
Mg0 O6 2.047704 1_565
Mg0 O3 2.086359 1_555
Mg0 O5 2.089068 1_655
Mg0 O5 2.089068 1_565
O0 Ti2 1.933251 1_555
O0 Ti3 1.980221 1_545
O0 Ti3 1.980221 1_455
O1 Ti0 1.873847 1_555
O1 Ti2 2.036146 1_565
O1 Ti2 2.036146 1_655
O2 Ti1 1.949899 1_455
O2 Ti1 1.949899 1_545
O2 Ti3 1.983860 1_555
O3 Ti1 2.026921 1_555
O3 Ti0 2.030702 1_565
O3 Ti0 2.030702 1_655
O4 Ti0 1.948760 1_655
O4 Ti0 1.948760 1_565
O4 Ti3 2.022159 1_555
O5 Ti2 2.112706 1_556
O5 Ti1 2.220144 1_545
O5 Ti1 2.220144 1_455
O6 Ti3 2.124000 1_545
O6 Ti3 2.124000 1_455
O6 Ti0 2.404858 1_555
O7 Ti1 1.902847 1_554
O7 Ti2 1.986301 1_565
O7 Ti2 1.986301 1_655
