# generated using pymatgen
data_BaSrCeHfO6
_symmetry_space_group_name_H-M   'P 1'
_cell_length_a   6.06367303
_cell_length_b   6.07083949
_cell_length_c   8.56025075
_cell_angle_alpha   90.18052120
_cell_angle_beta   90.19117685
_cell_angle_gamma   90.03505021
_symmetry_Int_Tables_number   1
_chemical_formula_structural   BaSrCeHfO6
_chemical_formula_sum   'Ba2 Sr2 Ce2 Hf2 O12'
_cell_volume   315.11302474
_cell_formula_units_Z   2
loop_
 _symmetry_equiv_pos_site_id
 _symmetry_equiv_pos_as_xyz
  1  'x, y, z'
loop_
 _atom_site_type_symbol
 _atom_site_label
 _atom_site_symmetry_multiplicity
 _atom_site_fract_x
 _atom_site_fract_y
 _atom_site_fract_z
 _atom_site_occupancy
  Ba  Ba0  1  0.50510991  0.52071008  0.24983480  1
  Ba  Ba1  1  0.49489009  0.47928992  0.75016520  1
  Sr  Sr0  1  0.99544225  0.02901348  0.25164738  1
  Sr  Sr1  1  0.00455775  0.97098652  0.74835262  1
  Ce  Ce0  1  -0.00000000  0.50000000  0.00000000  1
  Ce  Ce1  1  0.50000000  0.00000000  0.50000000  1
  Hf  Hf0  1  0.50000000  0.00000000  0.00000000  1
  Hf  Hf1  1  -0.00000000  0.50000000  0.50000000  1
  O  O0  1  0.22595097  0.20629423  0.95558230  1
  O  O1  1  0.27075786  0.71231545  0.53166966  1
  O  O2  1  0.77404903  0.79370577  0.04441770  1
  O  O3  1  0.72924214  0.28768455  0.46833034  1
  O  O4  1  0.28917526  0.72827868  0.96568941  1
  O  O5  1  0.20326323  0.22269948  0.54219657  1
  O  O6  1  0.71082474  0.27172132  0.03431059  1
  O  O7  1  0.79673677  0.77730052  0.45780343  1
  O  O8  1  0.41726800  0.99591055  0.24021284  1
  O  O9  1  0.06210171  0.46661786  0.25950223  1
  O  O10  1  0.58273200  0.00408945  0.75978716  1
  O  O11  1  0.93789829  0.53338214  0.74049777  1
loop_
_geom_bond_atom_site_label_1
_geom_bond_atom_site_label_2
_geom_bond_distance
_geom_bond_site_symmetry_2
Ba0 O6 2.691602 1_555
Ba0 O9 2.707626 1_555
Ba0 O3 2.710847 1_555
Ba0 O2 2.921010 1_555
Ba0 O8 2.935307 1_555
Ba0 O7 2.946348 1_555
Ba0 O1 3.033172 1_555
Ba0 O4 3.036238 1_554
Ba0 O8 3.230619 1_545
Ba1 O4 2.691602 1_555
Ba1 O11 2.707626 1_555
Ba1 O1 2.710847 1_555
Ba1 O0 2.921010 1_555
Ba1 O10 2.935307 1_555
Ba1 O5 2.946348 1_555
Ba1 O3 3.033172 1_555
Ba1 O6 3.036238 1_556
Ba1 O10 3.230619 1_565
Ce0 O6 2.254882 1_455
Ce0 O4 2.254882 1_554
Ce0 O11 2.261605 1_454
Ce0 O9 2.261605 1_555
Ce0 O0 2.281042 1_554
Ce0 O2 2.281042 1_455
Ce1 O3 2.249106 1_555
Ce1 O1 2.249106 1_545
Ce1 O8 2.278146 1_545
Ce1 O10 2.278146 1_555
Ce1 O7 2.280367 1_545
Ce1 O5 2.280367 1_555
Hf0 O4 2.105579 1_544
Hf0 O6 2.105579 1_555
Hf0 O0 2.115596 1_554
Hf0 O2 2.115596 1_545
Hf0 O8 2.118435 1_545
Hf0 O10 2.118435 1_554
Hf1 O3 2.102985 1_455
Hf1 O1 2.102985 1_555
Hf1 O9 2.103293 1_555
Hf1 O11 2.103293 1_455
Hf1 O5 2.118249 1_555
Hf1 O7 2.118249 1_455
O0 Sr1 2.637327 1_545
O0 Sr0 3.094200 1_456
O1 Sr1 2.918341 1_555
O2 Sr0 2.637327 1_565
O2 Sr1 3.094200 1_654
O3 Sr0 2.918341 1_555
O4 Sr1 2.934240 1_555
O5 Sr1 2.632514 1_545
O5 Sr0 3.019183 1_455
O6 Sr0 2.934240 1_555
O7 Sr0 2.632514 1_565
O7 Sr1 3.019183 1_655
O8 Sr0 2.567986 1_465
O9 Sr0 2.687553 1_455
O10 Sr1 2.567986 1_645
O11 Sr1 2.687553 1_655
