# generated using pymatgen
data_TmIn7Cu5
_symmetry_space_group_name_H-M   'P 1'
_cell_length_a   7.24439830
_cell_length_b   7.24439830
_cell_length_c   7.24439830
_cell_angle_alpha   134.34340918
_cell_angle_beta   98.75477692
_cell_angle_gamma   98.55952891
_symmetry_Int_Tables_number   1
_chemical_formula_structural   TmIn7Cu5
_chemical_formula_sum   'Tm1 In7 Cu5'
_cell_volume   250.60377800
_cell_formula_units_Z   1
loop_
 _symmetry_equiv_pos_site_id
 _symmetry_equiv_pos_as_xyz
  1  'x, y, z'
loop_
 _atom_site_type_symbol
 _atom_site_label
 _atom_site_symmetry_multiplicity
 _atom_site_fract_x
 _atom_site_fract_y
 _atom_site_fract_z
 _atom_site_occupancy
  Tm  Tm0  1  0.99828100  0.00000000  0.99828100  1
  In  In0  1  0.34171200  0.00000000  0.34171200  1
  In  In1  1  0.66638000  0.00000000  0.66638000  1
  In  In2  1  0.67289400  0.66127900  0.01161500  1
  In  In3  1  0.35033600  0.33872100  0.01161500  1
  In  In4  1  0.22668000  0.50000000  0.72668000  1
  In  In5  1  0.18593300  0.69799000  0.48794300  1
  In  In6  1  0.78995300  0.30201000  0.48794300  1
  Cu  Cu0  1  0.50391200  0.00220700  0.99570500  1
  Cu  Cu1  1  0.50391200  0.50820700  0.50170500  1
  Cu  Cu2  1  0.99349700  0.49179300  0.99570500  1
  Cu  Cu3  1  0.99349700  0.99779300  0.50170500  1
  Cu  Cu4  1  0.77301300  0.50000000  0.27301300  1
loop_
_geom_bond_atom_site_label_1
_geom_bond_atom_site_label_2
_geom_bond_distance
_geom_bond_site_symmetry_2
In0 In4 3.012816 1_544
In0 In4 3.012816 1_555
In0 In1 3.062683 1_555
In0 In5 3.170423 1_545
In0 In6 3.170423 1_555
In0 Tm0 3.239679 1_454
In1 Tm0 3.130914 1_555
In1 In5 3.313917 1_545
In1 In6 3.313917 1_555
In2 In3 3.048818 1_555
In2 In4 3.090060 1_554
In2 In6 3.117503 1_554
In2 In6 3.117503 1_565
In2 Tm0 3.204061 1_564
In3 In4 3.090060 1_554
In3 In5 3.117503 1_544
In3 In5 3.117503 1_555
In3 Tm0 3.204061 1_454
In4 In6 2.928135 1_455
In4 In5 2.928135 1_555
In4 Tm0 3.541419 1_454
In4 Tm0 3.541419 1_465
In5 Tm0 3.378048 1_454
In5 Tm0 3.378048 1_465
In6 Tm0 3.378048 1_565
In6 Tm0 3.378048 1_554
Cu0 In6 2.703962 1_556
Cu0 Cu4 2.725572 1_556
Cu0 In3 2.765461 1_556
Cu0 Cu1 2.776888 1_545
Cu0 In4 2.791009 1_545
Cu0 In1 2.807930 1_555
Cu0 Cu1 2.844342 1_556
Cu0 In5 2.875947 1_545
Cu0 In0 2.934471 1_556
Cu0 In2 2.977732 1_546
Cu0 Tm0 3.581088 1_555
Cu0 Tm0 3.663592 1_455
Cu1 In6 2.703962 1_555
Cu1 Cu4 2.725572 1_555
Cu1 In3 2.765461 1_555
Cu1 In4 2.791009 1_555
Cu1 In1 2.807930 1_565
Cu1 In5 2.875947 1_555
Cu1 In0 2.934471 1_555
Cu1 In2 2.977732 1_556
Cu1 Tm0 3.581088 1_565
Cu1 Tm0 3.663592 1_454
Cu2 In5 2.703964 1_656
Cu2 Cu4 2.725567 1_556
Cu2 In2 2.765454 1_556
Cu2 Cu3 2.776888 1_545
Cu2 In4 2.791014 1_655
Cu2 In1 2.807926 1_555
Cu2 Cu3 2.844342 1_556
Cu2 In6 2.875945 1_555
Cu2 In0 2.934475 1_666
Cu2 In3 2.977739 1_656
Cu2 Tm0 3.581089 1_555
Cu2 Tm0 3.663591 1_565
Cu3 In5 2.703967 1_655
Cu3 Cu4 2.725570 1_555
Cu3 In2 2.765457 1_555
Cu3 In4 2.791012 1_665
Cu3 In1 2.807923 1_565
Cu3 In6 2.875942 1_565
Cu3 In0 2.934478 1_665
Cu3 In3 2.977736 1_666
Cu3 Tm0 3.581087 1_565
Cu3 Tm0 3.663594 1_564
Cu4 In5 2.759144 1_655
Cu4 In6 2.759144 1_555
Cu4 In2 2.898998 1_555
Cu4 In3 2.898998 1_555
Cu4 In1 2.985195 1_565
Cu4 In1 2.985195 1_554
Cu4 Tm0 3.523528 1_565
Cu4 Tm0 3.523528 1_554
