# generated using pymatgen
data_Bi2(SO4)3
_symmetry_space_group_name_H-M   'P 1'
_cell_length_a   9.30099952
_cell_length_b   9.30099952
_cell_length_c   8.25113094
_cell_angle_alpha   79.26585869
_cell_angle_beta   79.26585869
_cell_angle_gamma   42.79705538
_symmetry_Int_Tables_number   1
_chemical_formula_structural   Bi2(SO4)3
_chemical_formula_sum   'Bi4 S6 O24'
_cell_volume   475.15180570
_cell_formula_units_Z   2
loop_
 _symmetry_equiv_pos_site_id
 _symmetry_equiv_pos_as_xyz
  1  'x, y, z'
loop_
 _atom_site_type_symbol
 _atom_site_label
 _atom_site_symmetry_multiplicity
 _atom_site_fract_x
 _atom_site_fract_y
 _atom_site_fract_z
 _atom_site_occupancy
  Bi  Bi0  1  0.54788048  0.75243183  0.45218624  1
  Bi  Bi1  1  0.24756817  0.45211952  0.04781376  1
  Bi  Bi2  1  0.45211952  0.24756817  0.54781376  1
  Bi  Bi3  1  0.75243183  0.54788048  0.95218624  1
  S  S0  1  0.09875970  0.27821236  0.30853281  1
  S  S1  1  0.72178764  0.90124030  0.19146719  1
  S  S2  1  0.90124030  0.72178764  0.69146719  1
  S  S3  1  0.27821236  0.09875970  0.80853281  1
  S  S4  1  0.57680407  0.42319593  0.25000000  1
  S  S5  1  0.42319593  0.57680407  0.75000000  1
  O  O0  1  0.90770685  0.39528930  0.41929040  1
  O  O1  1  0.60471070  0.09229315  0.08070960  1
  O  O2  1  0.09229315  0.60471070  0.58070960  1
  O  O3  1  0.39528930  0.90770685  0.91929040  1
  O  O4  1  0.21729881  0.32553302  0.32728862  1
  O  O5  1  0.67446698  0.78270119  0.17271138  1
  O  O6  1  0.78270119  0.67446698  0.67271138  1
  O  O7  1  0.32553302  0.21729881  0.82728862  1
  O  O8  1  0.04911552  0.34678517  0.13091521  1
  O  O9  1  0.65321483  0.95088448  0.36908479  1
  O  O10  1  0.95088448  0.65321483  0.86908479  1
  O  O11  1  0.34678517  0.04911552  0.63091521  1
  O  O12  1  0.23402750  0.04992360  0.33470384  1
  O  O13  1  0.95007640  0.76597250  0.16529616  1
  O  O14  1  0.76597250  0.95007640  0.66529616  1
  O  O15  1  0.04992360  0.23402750  0.83470384  1
  O  O16  1  0.52120498  0.61897360  0.25370410  1
  O  O17  1  0.38102640  0.47879502  0.24629590  1
  O  O18  1  0.47879502  0.38102640  0.74629590  1
  O  O19  1  0.61897360  0.52120498  0.75370410  1
  O  O20  1  0.67543900  0.28300712  0.40122511  1
  O  O21  1  0.71699288  0.32456100  0.09877489  1
  O  O22  1  0.32456100  0.71699288  0.59877489  1
  O  O23  1  0.28300712  0.67543900  0.90122511  1
loop_
_geom_bond_atom_site_label_1
_geom_bond_atom_site_label_2
_geom_bond_distance
_geom_bond_site_symmetry_2
Bi0 O12 2.306217 1_565
Bi0 O16 2.375924 1_555
Bi0 O22 2.409627 1_555
Bi0 O0 2.447719 1_555
Bi0 O5 2.452816 1_555
Bi0 O11 2.490349 1_565
Bi0 O9 2.601758 1_555
Bi0 O6 2.696569 1_555
Bi0 O19 2.790110 1_555
Bi1 O13 2.306217 1_455
Bi1 O17 2.375924 1_555
Bi1 O23 2.409627 1_554
Bi1 O1 2.447719 1_555
Bi1 O4 2.452816 1_555
Bi1 O10 2.490349 1_454
Bi1 O8 2.601758 1_555
Bi1 O7 2.696569 1_554
Bi1 O18 2.790110 1_554
Bi2 O14 2.306217 1_545
Bi2 O18 2.375924 1_555
Bi2 O20 2.409627 1_555
Bi2 O2 2.447719 1_555
Bi2 O7 2.452816 1_555
Bi2 O9 2.490349 1_545
Bi2 O11 2.601758 1_555
Bi2 O4 2.696569 1_555
Bi2 O17 2.790110 1_555
Bi3 O15 2.306217 1_655
Bi3 O19 2.375924 1_555
Bi3 O21 2.409627 1_556
Bi3 O3 2.447719 1_555
Bi3 O6 2.452816 1_555
Bi3 O8 2.490349 1_656
Bi3 O10 2.601758 1_555
Bi3 O5 2.696569 1_556
Bi3 O16 2.790110 1_556
O0 S0 1.450755 1_655
O1 S1 1.450755 1_545
O2 S2 1.450755 1_455
O3 S3 1.450755 1_565
O4 S0 1.494758 1_555
O5 S1 1.494758 1_555
O6 S2 1.494758 1_555
O7 S3 1.494758 1_555
O8 S0 1.496502 1_555
O9 S1 1.496502 1_555
O10 S2 1.496502 1_555
O11 S3 1.496502 1_555
O12 S0 1.465614 1_555
O13 S1 1.465614 1_555
O14 S2 1.465614 1_555
O15 S3 1.465614 1_555
O16 S4 1.488985 1_555
O17 S4 1.488985 1_555
O18 S5 1.488985 1_555
O19 S5 1.488985 1_555
O20 S4 1.470926 1_555
O21 S4 1.470926 1_555
O22 S5 1.470926 1_555
O23 S5 1.470926 1_555
