# generated using pymatgen
data_RbDy(SO4)2
_symmetry_space_group_name_H-M   'P 1'
_cell_length_a   5.34935100
_cell_length_b   9.58405000
_cell_length_c   13.55566700
_cell_angle_alpha   90.00000000
_cell_angle_beta   90.00000000
_cell_angle_gamma   90.00000000
_symmetry_Int_Tables_number   1
_chemical_formula_structural   RbDy(SO4)2
_chemical_formula_sum   'Rb4 Dy4 S8 O32'
_cell_volume   694.97800126
_cell_formula_units_Z   4
loop_
 _symmetry_equiv_pos_site_id
 _symmetry_equiv_pos_as_xyz
  1  'x, y, z'
loop_
 _atom_site_type_symbol
 _atom_site_label
 _atom_site_symmetry_multiplicity
 _atom_site_fract_x
 _atom_site_fract_y
 _atom_site_fract_z
 _atom_site_occupancy
  Rb  Rb0  1  0.25000000  0.07768700  0.25000000  1
  Rb  Rb1  1  0.25000000  0.42231300  0.75000000  1
  Rb  Rb2  1  0.75000000  0.92231300  0.75000000  1
  Rb  Rb3  1  0.75000000  0.57768700  0.25000000  1
  Dy  Dy0  1  0.17288100  0.75000000  0.50000000  1
  Dy  Dy1  1  0.32711900  0.75000000  0.00000000  1
  Dy  Dy2  1  0.82711900  0.25000000  0.50000000  1
  Dy  Dy3  1  0.67288100  0.25000000  0.00000000  1
  S  S0  1  0.76402100  0.91346000  0.08288700  1
  S  S1  1  0.76402100  0.58654000  0.91711300  1
  S  S2  1  0.73597900  0.91346000  0.41711300  1
  S  S3  1  0.73597900  0.58654000  0.58288700  1
  S  S4  1  0.23597900  0.08654000  0.91711300  1
  S  S5  1  0.23597900  0.41346000  0.08288700  1
  S  S6  1  0.26402100  0.08654000  0.58288700  1
  S  S7  1  0.26402100  0.41346000  0.41711300  1
  O  O0  1  0.01253100  0.84753500  0.09958800  1
  O  O1  1  0.01253100  0.65246500  0.90041200  1
  O  O2  1  0.48746900  0.84753500  0.40041200  1
  O  O3  1  0.48746900  0.65246500  0.59958800  1
  O  O4  1  0.98746900  0.15246500  0.90041200  1
  O  O5  1  0.98746900  0.34753500  0.09958800  1
  O  O6  1  0.51253100  0.15246500  0.59958800  1
  O  O7  1  0.51253100  0.34753500  0.40041200  1
  O  O8  1  0.56517900  0.84258400  0.14237400  1
  O  O9  1  0.56517900  0.65741600  0.85762600  1
  O  O10  1  0.93482100  0.84258400  0.35762600  1
  O  O11  1  0.93482100  0.65741600  0.64237400  1
  O  O12  1  0.43482100  0.15741600  0.85762600  1
  O  O13  1  0.43482100  0.34258400  0.14237400  1
  O  O14  1  0.06517900  0.15741600  0.64237400  1
  O  O15  1  0.06517900  0.34258400  0.35762600  1
  O  O16  1  0.28131800  0.56413600  0.39034100  1
  O  O17  1  0.28131800  0.93586400  0.60965900  1
  O  O18  1  0.21868200  0.56413600  0.10965900  1
  O  O19  1  0.21868200  0.93586400  0.89034100  1
  O  O20  1  0.71868200  0.43586400  0.60965900  1
  O  O21  1  0.71868200  0.06413600  0.39034100  1
  O  O22  1  0.78131800  0.43586400  0.89034100  1
  O  O23  1  0.78131800  0.06413600  0.10965900  1
  O  O24  1  0.18553400  0.39749200  0.52226100  1
  O  O25  1  0.18553400  0.10250800  0.47773900  1
  O  O26  1  0.31446600  0.39749200  0.97773900  1
  O  O27  1  0.31446600  0.10250800  0.02226100  1
  O  O28  1  0.81446600  0.60250800  0.47773900  1
  O  O29  1  0.81446600  0.89749200  0.52226100  1
  O  O30  1  0.68553400  0.60250800  0.02226100  1
  O  O31  1  0.68553400  0.89749200  0.97773900  1
loop_
_geom_bond_atom_site_label_1
_geom_bond_atom_site_label_2
_geom_bond_distance
_geom_bond_site_symmetry_2
Dy0 O2 2.351217 1_555
Dy0 O3 2.351217 1_555
Dy0 O17 2.391506 1_555
Dy0 O16 2.391506 1_555
Dy0 O29 2.401090 1_455
Dy0 O28 2.401090 1_455
Dy0 O10 2.476666 1_455
Dy0 O11 2.476666 1_455
Dy1 O0 2.351217 1_555
Dy1 O1 2.351217 1_554
Dy1 O18 2.391506 1_555
Dy1 O19 2.391506 1_554
Dy1 O31 2.401090 1_554
Dy1 O30 2.401090 1_555
Dy1 O9 2.476666 1_554
Dy1 O8 2.476666 1_555
Dy2 O7 2.351217 1_555
Dy2 O6 2.351217 1_555
Dy2 O20 2.391506 1_555
Dy2 O21 2.391506 1_555
Dy2 O24 2.401090 1_655
Dy2 O25 2.401090 1_655
Dy2 O15 2.476666 1_655
Dy2 O14 2.476666 1_655
Dy3 O5 2.351217 1_555
Dy3 O4 2.351217 1_554
Dy3 O23 2.391506 1_555
Dy3 O22 2.391506 1_554
Dy3 O26 2.401090 1_554
Dy3 O27 2.401090 1_555
Dy3 O12 2.476666 1_554
Dy3 O13 2.476666 1_555
O0 S0 1.489187 1_455
O0 Rb0 3.261354 1_565
O1 S1 1.489187 1_455
O1 Rb1 3.261354 1_555
O2 S2 1.489187 1_555
O2 Rb0 3.261354 1_565
O3 S3 1.489187 1_555
O3 Rb1 3.261354 1_555
O4 S4 1.489187 1_655
O4 Rb2 3.261354 1_545
O5 S5 1.489187 1_655
O5 Rb3 3.261354 1_555
O6 S6 1.489187 1_555
O6 Rb2 3.261354 1_545
O7 S7 1.489187 1_555
O7 Rb3 3.261354 1_555
O8 S0 1.497693 1_555
O8 Rb3 3.090537 1_555
O8 Rb0 3.169890 1_565
O9 S1 1.497693 1_555
O9 Rb2 3.090537 1_555
O9 Rb1 3.169890 1_555
O10 S2 1.497693 1_555
O10 Rb3 3.090537 1_555
O10 Rb0 3.169890 1_665
O11 S3 1.497693 1_555
O11 Rb2 3.090537 1_555
O11 Rb1 3.169890 1_655
O12 S4 1.497693 1_555
O12 Rb1 3.090537 1_555
O12 Rb2 3.169890 1_545
O13 S5 1.497693 1_555
O13 Rb0 3.090537 1_555
O13 Rb3 3.169890 1_555
O14 S6 1.497693 1_555
O14 Rb1 3.090537 1_555
O14 Rb2 3.169890 1_445
O15 S7 1.497693 1_555
O15 Rb0 3.090537 1_555
O15 Rb3 3.169890 1_455
O16 S7 1.491862 1_555
O16 Rb3 3.149893 1_555
O16 Rb3 3.422600 1_455
O17 S6 1.491862 1_565
O17 Rb2 3.149893 1_555
O17 Rb2 3.422600 1_455
O18 S5 1.491862 1_555
O18 Rb3 3.149893 1_455
O18 Rb3 3.422600 1_555
O19 S4 1.491862 1_565
O19 Rb2 3.149893 1_455
O19 Rb2 3.422600 1_555
O20 S3 1.491862 1_555
O20 Rb1 3.149893 1_555
O20 Rb1 3.422600 1_655
O21 S2 1.491862 1_545
O21 Rb0 3.149893 1_555
O21 Rb0 3.422600 1_655
O22 S1 1.491862 1_555
O22 Rb1 3.149893 1_655
O22 Rb1 3.422600 1_555
O23 S0 1.491862 1_545
O23 Rb0 3.149893 1_655
O23 Rb0 3.422600 1_555
O24 S7 1.493762 1_555
O24 Rb1 3.115451 1_555
O25 S6 1.493762 1_555
O25 Rb0 3.115451 1_555
O26 S5 1.493762 1_556
O26 Rb1 3.115451 1_555
O27 S4 1.493762 1_554
O27 Rb0 3.115451 1_555
O28 S3 1.493762 1_555
O28 Rb3 3.115451 1_555
O29 S2 1.493762 1_555
O29 Rb2 3.115451 1_555
O30 S1 1.493762 1_554
O30 Rb3 3.115451 1_555
O31 S0 1.493762 1_556
O31 Rb2 3.115451 1_555
