# generated using pymatgen
data_BaGdInWO6
_symmetry_space_group_name_H-M   'P 1'
_cell_length_a   8.52907384
_cell_length_b   8.54858930
_cell_length_c   8.51723309
_cell_angle_alpha   90.00000000
_cell_angle_beta   90.00000000
_cell_angle_gamma   90.00000000
_symmetry_Int_Tables_number   1
_chemical_formula_structural   BaGdInWO6
_chemical_formula_sum   'Ba4 Gd4 In4 W4 O24'
_cell_volume   621.00466092
_cell_formula_units_Z   4
loop_
 _symmetry_equiv_pos_site_id
 _symmetry_equiv_pos_as_xyz
  1  'x, y, z'
loop_
 _atom_site_type_symbol
 _atom_site_label
 _atom_site_symmetry_multiplicity
 _atom_site_fract_x
 _atom_site_fract_y
 _atom_site_fract_z
 _atom_site_occupancy
  Ba  Ba0  1  -0.00000000  0.00000000  0.00000000  1
  Ba  Ba1  1  0.50000000  0.50000000  0.50000000  1
  Ba  Ba2  1  0.50000000  0.00000000  0.50000000  1
  Ba  Ba3  1  -0.00000000  0.50000000  0.00000000  1
  Gd  Gd0  1  0.75000000  0.75000000  0.75000000  1
  Gd  Gd1  1  0.25000000  0.25000000  0.75000000  1
  Gd  Gd2  1  0.25000000  0.75000000  0.25000000  1
  Gd  Gd3  1  0.75000000  0.25000000  0.25000000  1
  In  In0  1  -0.00000000  0.50000000  0.50000000  1
  In  In1  1  0.50000000  0.50000000  0.00000000  1
  In  In2  1  0.50000000  0.00000000  0.00000000  1
  In  In3  1  -0.00000000  0.00000000  0.50000000  1
  W  W0  1  0.25000000  0.25000000  0.25000000  1
  W  W1  1  0.75000000  0.75000000  0.25000000  1
  W  W2  1  0.75000000  0.25000000  0.75000000  1
  W  W3  1  0.25000000  0.75000000  0.75000000  1
  O  O0  1  0.02064188  0.23321780  0.25487916  1
  O  O1  1  0.97935812  0.76678220  0.25487916  1
  O  O2  1  0.97935812  0.23321780  0.74512084  1
  O  O3  1  0.02064188  0.76678220  0.74512084  1
  O  O4  1  0.26590866  0.02097759  0.24305173  1
  O  O5  1  0.26590866  0.97902241  0.75694827  1
  O  O6  1  0.73409134  0.97902241  0.24305173  1
  O  O7  1  0.73409134  0.02097759  0.75694827  1
  O  O8  1  0.23018247  0.25561453  0.01972741  1
  O  O9  1  0.76981753  0.25561453  0.98027259  1
  O  O10  1  0.23018247  0.74438547  0.98027259  1
  O  O11  1  0.76981753  0.74438547  0.01972741  1
  O  O12  1  0.47935812  0.26678220  0.24512084  1
  O  O13  1  0.52064188  0.73321780  0.24512084  1
  O  O14  1  0.52064188  0.26678220  0.75487916  1
  O  O15  1  0.47935812  0.73321780  0.75487916  1
  O  O16  1  0.23409134  0.47902241  0.25694827  1
  O  O17  1  0.23409134  0.52097759  0.74305173  1
  O  O18  1  0.76590866  0.52097759  0.25694827  1
  O  O19  1  0.76590866  0.47902241  0.74305173  1
  O  O20  1  0.26981753  0.24438547  0.48027259  1
  O  O21  1  0.73018247  0.24438547  0.51972741  1
  O  O22  1  0.26981753  0.75561453  0.51972741  1
  O  O23  1  0.73018247  0.75561453  0.48027259  1
loop_
_geom_bond_atom_site_label_1
_geom_bond_atom_site_label_2
_geom_bond_distance
_geom_bond_site_symmetry_2
Ba0 O9 2.942347 1_454
Ba0 O8 2.942347 1_555
Ba0 O11 2.942347 1_445
Ba0 O10 2.942347 1_544
Ba0 O3 2.952698 1_544
Ba0 O1 2.952698 1_445
Ba0 O0 2.952698 1_555
Ba0 O2 2.952698 1_454
Ba0 O6 3.075908 1_445
Ba0 O4 3.075908 1_555
Ba0 O5 3.075908 1_544
Ba0 O7 3.075908 1_454
Ba1 O20 2.942347 1_555
Ba1 O22 2.942347 1_555
Ba1 O23 2.942347 1_555
Ba1 O21 2.942347 1_555
Ba1 O15 2.952698 1_555
Ba1 O14 2.952698 1_555
Ba1 O13 2.952698 1_555
Ba1 O12 2.952698 1_555
Ba1 O18 3.075908 1_555
Ba1 O19 3.075908 1_555
Ba1 O16 3.075908 1_555
Ba1 O17 3.075908 1_555
Ba2 O20 2.871778 1_555
Ba2 O22 2.871778 1_545
Ba2 O21 2.871778 1_555
Ba2 O23 2.871778 1_545
Ba2 O5 2.967824 1_545
Ba2 O4 2.967824 1_555
Ba2 O6 2.967824 1_545
Ba2 O7 2.967824 1_555
Ba2 O15 3.153544 1_545
Ba2 O13 3.153544 1_545
Ba2 O14 3.153544 1_555
Ba2 O12 3.153544 1_555
Ba3 O10 2.871778 1_554
Ba3 O11 2.871778 1_455
Ba3 O9 2.871778 1_454
Ba3 O8 2.871778 1_555
Ba3 O16 2.967824 1_555
Ba3 O17 2.967824 1_554
Ba3 O18 2.967824 1_455
Ba3 O19 2.967824 1_454
Ba3 O2 3.153544 1_454
Ba3 O0 3.153544 1_555
Ba3 O1 3.153544 1_455
Ba3 O3 3.153544 1_554
Gd0 O11 2.304041 1_556
Gd0 O23 2.304041 1_555
Gd0 O3 2.313152 1_655
Gd0 O15 2.313152 1_555
Gd0 O7 2.321201 1_565
Gd0 O19 2.321201 1_555
Gd1 O20 2.304041 1_555
Gd1 O8 2.304041 1_556
Gd1 O14 2.313152 1_555
Gd1 O2 2.313152 1_455
Gd1 O17 2.321201 1_555
Gd1 O5 2.321201 1_545
Gd2 O10 2.304041 1_554
Gd2 O22 2.304041 1_555
Gd2 O1 2.313152 1_455
Gd2 O13 2.313152 1_555
Gd2 O4 2.321201 1_565
Gd2 O16 2.321201 1_555
Gd3 O21 2.304041 1_555
Gd3 O9 2.304041 1_554
Gd3 O0 2.313152 1_655
Gd3 O12 2.313152 1_555
Gd3 O6 2.321201 1_545
Gd3 O18 2.321201 1_555
O0 W0 1.961906 1_555
O1 W1 1.961906 1_555
O2 W2 1.961906 1_555
O3 W3 1.961906 1_555
O4 W0 1.963407 1_555
O5 W3 1.963407 1_555
O6 W1 1.963407 1_555
O7 W2 1.963407 1_555
O8 W0 1.969140 1_555
O9 W2 1.969140 1_555
O10 W3 1.969140 1_555
O11 W1 1.969140 1_555
O12 W0 1.961906 1_555
O13 W1 1.961906 1_555
O14 W2 1.961906 1_555
O15 W3 1.961906 1_555
O16 W0 1.963407 1_555
O17 W3 1.963407 1_555
O18 W1 1.963407 1_555
O19 W2 1.963407 1_555
O20 W0 1.969140 1_555
O21 W2 1.969140 1_555
O22 W3 1.969140 1_555
O23 W1 1.969140 1_555
