# generated using pymatgen
data_NdNi(BO2)5
_symmetry_space_group_name_H-M   'P 1'
_cell_length_a   7.65157800
_cell_length_b   8.71285141
_cell_length_c   9.56929329
_cell_angle_alpha   93.24596835
_cell_angle_beta   90.00000000
_cell_angle_gamma   90.00000000
_symmetry_Int_Tables_number   1
_chemical_formula_structural   NdNi(BO2)5
_chemical_formula_sum   'Nd4 Ni4 B20 O40'
_cell_volume   636.93316899
_cell_formula_units_Z   4
loop_
 _symmetry_equiv_pos_site_id
 _symmetry_equiv_pos_as_xyz
  1  'x, y, z'
loop_
 _atom_site_type_symbol
 _atom_site_label
 _atom_site_symmetry_multiplicity
 _atom_site_fract_x
 _atom_site_fract_y
 _atom_site_fract_z
 _atom_site_occupancy
  Nd  Nd0  1  0.68114300  0.31890300  0.26388900  1
  Nd  Nd1  1  0.18114400  0.18109800  0.23611100  1
  Nd  Nd2  1  0.31885700  0.68109700  0.73611000  1
  Nd  Nd3  1  0.81885700  0.81890300  0.76388900  1
  Ni  Ni0  1  0.91067300  0.89730600  0.37279300  1
  Ni  Ni1  1  0.41067400  0.60269400  0.12720800  1
  Ni  Ni2  1  0.08932600  0.10269400  0.62720700  1
  Ni  Ni3  1  0.58932700  0.39730500  0.87279200  1
  B  B0  1  0.81356200  0.56932500  0.08750200  1
  B  B1  1  0.31356200  0.93067500  0.41249800  1
  B  B2  1  0.18643900  0.43067600  0.91249700  1
  B  B3  1  0.68643800  0.06932500  0.58750200  1
  B  B4  1  0.09946900  0.65800800  0.50104000  1
  B  B5  1  0.59946800  0.84199200  0.99895900  1
  B  B6  1  0.90053200  0.34199200  0.49896000  1
  B  B7  1  0.40053200  0.15800800  0.00104100  1
  B  B8  1  0.03426300  0.77975000  0.05541700  1
  B  B9  1  0.53426300  0.72025000  0.44458400  1
  B  B10  1  0.96573700  0.22025000  0.94458300  1
  B  B11  1  0.46573700  0.27975000  0.55541600  1
  B  B12  1  0.82470000  0.01622200  0.10684600  1
  B  B13  1  0.32469900  0.48377700  0.39315400  1
  B  B14  1  0.17530100  0.98377800  0.89315500  1
  B  B15  1  0.67530000  0.51622200  0.60684600  1
  B  B16  1  0.07775800  0.58827100  0.24108900  1
  B  B17  1  0.57775700  0.91172800  0.25891100  1
  B  B18  1  0.92224200  0.41172900  0.75891100  1
  B  B19  1  0.42224300  0.08827100  0.74109000  1
  O  O0  1  0.94943100  0.26195600  0.38088100  1
  O  O1  1  0.44943000  0.23804300  0.11912000  1
  O  O2  1  0.05056900  0.73804300  0.61911900  1
  O  O3  1  0.55057000  0.76195700  0.88088000  1
  O  O4  1  0.15260600  0.00244000  0.43076200  1
  O  O5  1  0.65260500  0.49756000  0.06923800  1
  O  O6  1  0.84739400  0.99755900  0.56923800  1
  O  O7  1  0.34739500  0.50244000  0.93076200  1
  O  O8  1  0.87692300  0.68437000  0.00975600  1
  O  O9  1  0.37692400  0.81563000  0.49024400  1
  O  O10  1  0.12307700  0.31563000  0.99024500  1
  O  O11  1  0.62307600  0.18437100  0.50975600  1
  O  O12  1  0.72552100  0.95614400  0.98558900  1
  O  O13  1  0.22552100  0.54385600  0.51441200  1
  O  O14  1  0.27447900  0.04385600  0.01441100  1
  O  O15  1  0.77447800  0.45614400  0.48558800  1
  O  O16  1  0.89221200  0.17205900  0.08087200  1
  O  O17  1  0.39221200  0.32794100  0.41912800  1
  O  O18  1  0.10778800  0.82794100  0.91912700  1
  O  O19  1  0.60778800  0.67205900  0.58087300  1
  O  O20  1  0.97277100  0.91436300  0.14836800  1
  O  O21  1  0.47277000  0.58563700  0.35163300  1
  O  O22  1  0.02722900  0.08563600  0.85163200  1
  O  O23  1  0.52723000  0.41436400  0.64836700  1
  O  O24  1  0.15281600  0.68497300  0.13511600  1
  O  O25  1  0.65281500  0.81502600  0.36488400  1
  O  O26  1  0.84718500  0.31502700  0.86488300  1
  O  O27  1  0.34718500  0.18497400  0.63511600  1
  O  O28  1  0.91133300  0.51593200  0.19605800  1
  O  O29  1  0.41133400  0.98406800  0.30394300  1
  O  O30  1  0.08866700  0.48406900  0.80394200  1
  O  O31  1  0.58866600  0.01593200  0.69605700  1
  O  O32  1  0.03589000  0.68793100  0.37086800  1
  O  O33  1  0.53589000  0.81206800  0.12913200  1
  O  O34  1  0.96411000  0.31206900  0.62913100  1
  O  O35  1  0.46411100  0.18793100  0.87086800  1
  O  O36  1  0.20964300  0.46839400  0.26802300  1
  O  O37  1  0.70964300  0.03160600  0.23197800  1
  O  O38  1  0.79035700  0.53160600  0.73197700  1
  O  O39  1  0.29035700  0.96839400  0.76802300  1
loop_
_geom_bond_atom_site_label_1
_geom_bond_atom_site_label_2
_geom_bond_distance
_geom_bond_site_symmetry_2
Nd0 O1 2.334182 1_555
Nd0 O0 2.403443 1_555
Nd0 O15 2.480597 1_555
Nd0 O5 2.503721 1_555
Nd0 O37 2.513987 1_555
Nd0 O28 2.568415 1_555
Nd0 O16 2.656813 1_555
Nd0 O17 2.662196 1_555
Nd0 O11 2.723823 1_555
Nd0 O21 2.902951 1_555
Nd1 O0 2.334183 1_455
Nd1 O1 2.403421 1_555
Nd1 O14 2.480608 1_555
Nd1 O4 2.503727 1_555
Nd1 O36 2.513978 1_555
Nd1 O29 2.568423 1_545
Nd1 O17 2.656804 1_555
Nd1 O16 2.662202 1_455
Nd1 O10 2.723814 1_554
Nd1 O20 2.902955 1_445
Nd2 O3 2.334187 1_555
Nd2 O2 2.403436 1_555
Nd2 O13 2.480591 1_555
Nd2 O7 2.503729 1_555
Nd2 O39 2.513988 1_555
Nd2 O30 2.568411 1_555
Nd2 O18 2.656813 1_555
Nd2 O19 2.662185 1_555
Nd2 O9 2.723819 1_555
Nd2 O23 2.902941 1_555
Nd3 O2 2.334181 1_655
Nd3 O3 2.403430 1_555
Nd3 O12 2.480607 1_555
Nd3 O6 2.503715 1_555
Nd3 O38 2.513988 1_555
Nd3 O31 2.568423 1_565
Nd3 O19 2.656807 1_555
Nd3 O18 2.662190 1_655
Nd3 O8 2.723826 1_556
Nd3 O22 2.902937 1_665
Ni0 O32 2.059710 1_655
Ni0 O6 2.084530 1_555
Ni0 O25 2.099126 1_555
Ni0 O4 2.125109 1_665
Ni0 O20 2.212721 1_555
Ni0 O37 2.393655 1_565
Ni1 O33 2.059699 1_555
Ni1 O7 2.084542 1_554
Ni1 O24 2.099123 1_555
Ni1 O5 2.125098 1_555
Ni1 O21 2.212717 1_555
Ni1 O36 2.393660 1_555
Ni2 O34 2.059707 1_455
Ni2 O4 2.084535 1_555
Ni2 O27 2.099133 1_555
Ni2 O6 2.125106 1_445
Ni2 O22 2.212720 1_555
Ni2 O39 2.393665 1_545
Ni3 O35 2.059699 1_555
Ni3 O5 2.084543 1_556
Ni3 O26 2.099120 1_555
Ni3 O7 2.125108 1_555
Ni3 O23 2.212721 1_555
Ni3 O38 2.393659 1_555
B0 O8 1.370305 1_555
B0 O28 1.381996 1_555
B0 O5 1.387775 1_555
B1 O9 1.370308 1_555
B1 O29 1.381993 1_555
B1 O4 1.387768 1_565
B2 O10 1.370326 1_555
B2 O30 1.381993 1_555
B2 O7 1.387765 1_555
B3 O11 1.370315 1_555
B3 O31 1.381993 1_555
B3 O6 1.387772 1_545
B4 O2 1.346770 1_555
B4 O32 1.375887 1_555
B4 O13 1.396513 1_555
B5 O3 1.346765 1_555
B5 O33 1.375896 1_556
B5 O12 1.396516 1_555
B6 O0 1.346771 1_555
B6 O34 1.375876 1_555
B6 O15 1.396524 1_555
B7 O1 1.346765 1_555
B7 O35 1.375896 1_554
B7 O14 1.396516 1_555
B8 O24 1.468927 1_555
B8 O18 1.501915 1_554
B8 O20 1.506656 1_455
B8 O8 1.513204 1_455
B9 O25 1.468923 1_555
B9 O19 1.501906 1_555
B9 O21 1.506659 1_555
B9 O9 1.513195 1_555
B10 O26 1.468928 1_555
B10 O16 1.501906 1_556
B10 O22 1.506663 1_655
B10 O10 1.513206 1_655
B11 O27 1.468923 1_555
B11 O17 1.501898 1_555
B11 O23 1.506665 1_555
B11 O11 1.513191 1_555
B12 O12 1.458598 1_544
B12 O37 1.486157 1_555
B12 O16 1.486749 1_555
B12 O20 1.506344 1_545
B13 O13 1.458604 1_555
B13 O36 1.486145 1_555
B13 O17 1.486744 1_555
B13 O21 1.506346 1_555
B14 O14 1.458586 1_566
B14 O39 1.486153 1_555
B14 O18 1.486748 1_555
B14 O22 1.506347 1_565
B15 O15 1.458601 1_555
B15 O38 1.486150 1_555
B15 O19 1.486747 1_555
B15 O23 1.506330 1_555
B16 O24 1.471345 1_555
B16 O28 1.474369 1_455
B16 O36 1.485319 1_555
B16 O32 1.508904 1_555
B17 O25 1.471345 1_555
B17 O29 1.474362 1_555
B17 O37 1.485329 1_565
B17 O33 1.508903 1_555
B18 O26 1.471335 1_555
B18 O30 1.474373 1_655
B18 O38 1.485319 1_555
B18 O34 1.508912 1_555
B19 O27 1.471357 1_555
B19 O31 1.474361 1_555
B19 O39 1.485323 1_545
B19 O35 1.508897 1_555
