# generated using pymatgen
data_CaFeO3
_symmetry_space_group_name_H-M   'P 1'
_cell_length_a   5.43404702
_cell_length_b   6.65514250
_cell_length_c   6.65512054
_cell_angle_alpha   70.83781826
_cell_angle_beta   90.00104610
_cell_angle_gamma   90.00102779
_symmetry_Int_Tables_number   1
_chemical_formula_structural   CaFeO3
_chemical_formula_sum   'Ca4 Fe4 O12'
_cell_volume   227.34295851
_cell_formula_units_Z   4
loop_
 _symmetry_equiv_pos_site_id
 _symmetry_equiv_pos_as_xyz
  1  'x, y, z'
loop_
 _atom_site_type_symbol
 _atom_site_label
 _atom_site_symmetry_multiplicity
 _atom_site_fract_x
 _atom_site_fract_y
 _atom_site_fract_z
 _atom_site_occupancy
  Ca  Ca0  1  0.50000600  0.74714400  0.24715700  1
  Ca  Ca1  1  0.99999400  0.00284900  0.50283100  1
  Ca  Ca2  1  0.50000600  0.24715700  0.74714400  1
  Ca  Ca3  1  0.99999300  0.50283000  0.00284800  1
  Fe  Fe0  1  0.99999000  0.50028600  0.50028600  1
  Fe  Fe1  1  0.50002200  0.74973500  0.74973500  1
  Fe  Fe2  1  0.99998400  0.00027500  0.00027000  1
  Fe  Fe3  1  0.50001700  0.24972700  0.24972700  1
  O  O0  1  0.24991800  0.37504100  0.37504500  1
  O  O1  1  0.75008000  0.62495800  0.62495800  1
  O  O2  1  0.24992200  0.87505000  0.87505100  1
  O  O3  1  0.75009200  0.12495600  0.12495600  1
  O  O4  1  0.99999500  0.74861700  0.24859400  1
  O  O5  1  0.49999800  0.00137100  0.50139200  1
  O  O6  1  0.99999600  0.24859800  0.74861300  1
  O  O7  1  0.49999900  0.50138800  0.00137300  1
  O  O8  1  0.24991900  0.62496000  0.62496100  1
  O  O9  1  0.75008100  0.87505300  0.87505300  1
  O  O10  1  0.24991500  0.12496000  0.12496000  1
  O  O11  1  0.75007400  0.37504600  0.37504700  1
loop_
_geom_bond_atom_site_label_1
_geom_bond_atom_site_label_2
_geom_bond_distance
_geom_bond_site_symmetry_2
Ca0 O7 2.665872 1_555
Ca0 O11 2.705506 1_555
Ca0 O9 2.705553 1_554
Ca0 O2 2.705558 1_554
Ca0 O0 2.705558 1_555
Ca0 O4 2.717009 1_555
Ca0 O4 2.717129 1_455
Ca0 O1 2.736301 1_555
Ca0 O8 2.736383 1_555
Ca0 O3 2.736400 1_565
Ca0 O10 2.736465 1_565
Ca0 O5 2.757649 1_565
Ca1 O6 2.665823 1_555
Ca1 O0 2.705582 1_655
Ca1 O11 2.705627 1_555
Ca1 O9 2.705738 1_545
Ca1 O2 2.705739 1_645
Ca1 O5 2.717047 1_555
Ca1 O5 2.717092 1_655
Ca1 O3 2.736243 1_555
Ca1 O10 2.736304 1_655
Ca1 O1 2.736370 1_545
Ca1 O8 2.736419 1_645
Ca1 O4 2.757687 1_545
Ca2 O5 2.665861 1_555
Ca2 O11 2.705494 1_555
Ca2 O0 2.705529 1_555
Ca2 O9 2.705559 1_545
Ca2 O2 2.705571 1_545
Ca2 O6 2.717015 1_555
Ca2 O6 2.717124 1_455
Ca2 O1 2.736308 1_555
Ca2 O8 2.736384 1_555
Ca2 O3 2.736393 1_556
Ca2 O10 2.736459 1_556
Ca2 O7 2.757638 1_556
Ca3 O4 2.665834 1_555
Ca3 O0 2.705605 1_655
Ca3 O11 2.705629 1_555
Ca3 O9 2.705747 1_554
Ca3 O2 2.705748 1_654
Ca3 O7 2.717037 1_555
Ca3 O7 2.717103 1_655
Ca3 O3 2.736243 1_555
Ca3 O10 2.736307 1_655
Ca3 O1 2.736354 1_554
Ca3 O8 2.736404 1_654
Ca3 O6 2.757676 1_554
Fe0 O1 1.916527 1_555
Fe0 O8 1.916577 1_655
Fe0 O11 1.920856 1_555
Fe0 O0 1.920972 1_655
Fe0 O6 1.928635 1_555
Fe0 O4 1.928666 1_555
Fe1 O1 1.917901 1_555
Fe1 O8 1.918012 1_555
Fe1 O9 1.922008 1_555
Fe1 O2 1.922189 1_555
Fe1 O5 1.928493 1_565
Fe1 O7 1.928516 1_556
Fe2 O3 1.916546 1_555
Fe2 O10 1.916684 1_655
Fe2 O9 1.920653 1_544
Fe2 O2 1.920849 1_644
Fe2 O6 1.928499 1_554
Fe2 O4 1.928507 1_545
Fe3 O3 1.917920 1_555
Fe3 O10 1.917951 1_555
Fe3 O11 1.922011 1_555
Fe3 O0 1.922189 1_555
Fe3 O7 1.928633 1_555
Fe3 O5 1.928656 1_555
