# generated using pymatgen
data_RbCaZrF7
_symmetry_space_group_name_H-M   'P 1'
_cell_length_a   6.67234720
_cell_length_b   6.67234720
_cell_length_c   8.66226200
_cell_angle_alpha   90.00000000
_cell_angle_beta   90.00000000
_cell_angle_gamma   116.80564358
_symmetry_Int_Tables_number   1
_chemical_formula_structural   RbCaZrF7
_chemical_formula_sum   'Rb2 Ca2 Zr2 F14'
_cell_volume   344.20482984
_cell_formula_units_Z   2
loop_
 _symmetry_equiv_pos_site_id
 _symmetry_equiv_pos_as_xyz
  1  'x, y, z'
loop_
 _atom_site_type_symbol
 _atom_site_label
 _atom_site_symmetry_multiplicity
 _atom_site_fract_x
 _atom_site_fract_y
 _atom_site_fract_z
 _atom_site_occupancy
  Rb  Rb0  1  0.00000000  0.00000000  0.00000000  1
  Rb  Rb1  1  0.00000000  0.00000000  0.50000000  1
  Ca  Ca0  1  0.30936100  0.69063900  0.75000000  1
  Ca  Ca1  1  0.69063900  0.30936100  0.25000000  1
  Zr  Zr0  1  0.69282300  0.30717700  0.75000000  1
  Zr  Zr1  1  0.30717700  0.69282300  0.25000000  1
  F  F0  1  0.51032200  0.48967800  0.75000000  1
  F  F1  1  0.48967800  0.51032200  0.25000000  1
  F  F2  1  0.69999400  0.30000600  0.98707000  1
  F  F3  1  0.30000600  0.69999400  0.01293000  1
  F  F4  1  0.30000600  0.69999400  0.48707000  1
  F  F5  1  0.69999400  0.30000600  0.51293000  1
  F  F6  1  0.67161000  0.97807500  0.75000000  1
  F  F7  1  0.32839000  0.02192500  0.25000000  1
  F  F8  1  0.02192500  0.32839000  0.75000000  1
  F  F9  1  0.97807500  0.67161000  0.25000000  1
  F  F10  1  0.34897200  0.06389700  0.75000000  1
  F  F11  1  0.65102800  0.93610300  0.25000000  1
  F  F12  1  0.93610300  0.65102800  0.75000000  1
  F  F13  1  0.06389700  0.34897200  0.25000000  1
loop_
_geom_bond_atom_site_label_1
_geom_bond_atom_site_label_2
_geom_bond_distance
_geom_bond_site_symmetry_2
Ca0 F4 2.280049 1_555
Ca0 F3 2.280049 1_556
Ca0 F0 2.284199 1_555
Ca0 F8 2.310711 1_555
Ca0 F6 2.310711 1_555
Ca0 F12 2.383022 1_455
Ca0 F10 2.383022 1_565
Ca1 F5 2.280049 1_555
Ca1 F2 2.280049 1_554
Ca1 F1 2.284199 1_555
Ca1 F7 2.310711 1_555
Ca1 F9 2.310711 1_555
Ca1 F11 2.383022 1_545
Ca1 F13 2.383022 1_655
F0 Zr0 2.074376 1_555
F1 Zr1 2.074376 1_555
F2 Zr0 2.055179 1_555
F3 Zr1 2.055179 1_555
F4 Zr1 2.055179 1_555
F5 Zr0 2.055179 1_555
F6 Zr0 2.135792 1_565
F6 Rb1 3.036944 1_665
F6 Rb0 3.036944 1_666
F7 Zr1 2.135792 1_545
F7 Rb1 3.036944 1_555
F7 Rb0 3.036944 1_555
F8 Zr0 2.135792 1_455
F8 Rb0 3.036944 1_556
F8 Rb1 3.036944 1_555
F9 Zr1 2.135792 1_655
F9 Rb0 3.036944 1_665
F9 Rb1 3.036944 1_665
F10 Zr0 2.130666 1_555
F10 Rb0 3.065585 1_556
F10 Rb1 3.065585 1_555
F11 Zr1 2.130666 1_555
F11 Rb0 3.065585 1_665
F11 Rb1 3.065585 1_665
F12 Zr0 2.130666 1_555
F12 Rb0 3.065585 1_666
F12 Rb1 3.065585 1_665
F13 Zr1 2.130666 1_555
F13 Rb1 3.065585 1_555
F13 Rb0 3.065585 1_555
