# generated using pymatgen
data_NdCoSbPbO6
_symmetry_space_group_name_H-M   'P 1'
_cell_length_a   5.82443800
_cell_length_b   5.64614500
_cell_length_c   9.79315090
_cell_angle_alpha   55.10631918
_cell_angle_beta   90.00000000
_cell_angle_gamma   90.00000000
_symmetry_Int_Tables_number   1
_chemical_formula_structural   NdCoSbPbO6
_chemical_formula_sum   'Nd2 Co2 Sb2 Pb2 O12'
_cell_volume   264.15339289
_cell_formula_units_Z   2
loop_
 _symmetry_equiv_pos_site_id
 _symmetry_equiv_pos_as_xyz
  1  'x, y, z'
loop_
 _atom_site_type_symbol
 _atom_site_label
 _atom_site_symmetry_multiplicity
 _atom_site_fract_x
 _atom_site_fract_y
 _atom_site_fract_z
 _atom_site_occupancy
  Nd  Nd0  1  0.81016100  0.26734200  0.24804000  1
  Nd  Nd1  1  0.18983900  0.26734200  0.74804000  1
  Co  Co0  1  0.73543800  0.50373300  0.49737400  1
  Co  Co1  1  0.26456200  0.50373300  0.99737400  1
  Sb  Sb0  1  0.74104000  0.99923800  0.00127000  1
  Sb  Sb1  1  0.25896000  0.99923800  0.50127000  1
  Pb  Pb0  1  0.72809100  0.74987000  0.74555600  1
  Pb  Pb1  1  0.27190900  0.74987000  0.24555600  1
  O  O0  1  0.43961400  0.65445000  0.55024900  1
  O  O1  1  0.56038600  0.65445000  0.05024900  1
  O  O2  1  0.04262100  0.31296800  0.46449200  1
  O  O3  1  0.95737900  0.31296800  0.96449200  1
  O  O4  1  0.26612500  0.85747700  0.74325100  1
  O  O5  1  0.73387500  0.85747700  0.24325100  1
  O  O6  1  0.21821800  0.17657400  0.25568800  1
  O  O7  1  0.78178200  0.17657400  0.75568800  1
  O  O8  1  0.98080700  0.74683800  0.54238300  1
  O  O9  1  0.01919300  0.74683800  0.04238300  1
  O  O10  1  0.54741800  0.23151000  0.45169600  1
  O  O11  1  0.45258200  0.23151000  0.95169600  1
loop_
_geom_bond_atom_site_label_1
_geom_bond_atom_site_label_2
_geom_bond_distance
_geom_bond_site_symmetry_2
Nd0 O5 2.383090 1_545
Nd0 O1 2.408692 1_555
Nd0 O6 2.423439 1_655
Nd0 O10 2.428778 1_555
Nd0 O9 2.574827 1_655
Nd0 O2 2.649082 1_655
Nd0 O3 2.773797 1_554
Nd0 O8 2.870814 1_545
Nd1 O4 2.383090 1_545
Nd1 O0 2.408692 1_555
Nd1 O7 2.423439 1_455
Nd1 O11 2.428778 1_555
Nd1 O8 2.574827 1_455
Nd1 O3 2.649082 1_455
Nd1 O2 2.773797 1_555
Nd1 O9 2.870814 1_546
Co0 O0 2.113098 1_555
Co0 O5 2.120331 1_555
Co0 O7 2.130289 1_555
Co0 O10 2.132701 1_555
Co0 O8 2.193849 1_555
Co0 O2 2.204940 1_655
Co1 O1 2.113098 1_556
Co1 O4 2.120331 1_555
Co1 O6 2.130289 1_556
Co1 O11 2.132701 1_555
Co1 O9 2.193849 1_556
Co1 O3 2.204940 1_455
O0 Sb1 2.014601 1_555
O1 Sb0 2.014601 1_555
O2 Sb1 2.031072 1_545
O2 Pb1 2.532680 1_555
O3 Sb0 2.031072 1_546
O3 Pb0 2.532680 1_555
O4 Sb1 2.021887 1_555
O5 Sb0 2.021887 1_555
O6 Sb1 2.021851 1_545
O6 Pb1 2.487076 1_545
O7 Sb0 2.021851 1_546
O7 Pb0 2.487076 1_545
O8 Sb1 2.039900 1_655
O8 Pb0 2.482893 1_555
O9 Sb0 2.039900 1_455
O9 Pb1 2.482893 1_555
O10 Sb1 2.012434 1_545
O11 Sb0 2.012434 1_546
