# generated using pymatgen
data_SmMgVS4
_symmetry_space_group_name_H-M   'P 1'
_cell_length_a   7.77511973
_cell_length_b   7.63549580
_cell_length_c   7.62975190
_cell_angle_alpha   59.58189813
_cell_angle_beta   59.36610646
_cell_angle_gamma   59.39762996
_symmetry_Int_Tables_number   1
_chemical_formula_structural   SmMgVS4
_chemical_formula_sum   'Sm2 Mg2 V2 S8'
_cell_volume   316.26649779
_cell_formula_units_Z   2
loop_
 _symmetry_equiv_pos_site_id
 _symmetry_equiv_pos_as_xyz
  1  'x, y, z'
loop_
 _atom_site_type_symbol
 _atom_site_label
 _atom_site_symmetry_multiplicity
 _atom_site_fract_x
 _atom_site_fract_y
 _atom_site_fract_z
 _atom_site_occupancy
  Sm  Sm0  1  0.50001000  0.50001300  0.49997400  1
  Sm  Sm1  1  0.00000300  0.49999200  0.50001600  1
  Mg  Mg0  1  0.87705400  0.87305400  0.87285500  1
  Mg  Mg1  1  0.12295100  0.12693700  0.12715200  1
  V  V0  1  0.49998900  0.49999300  0.00000500  1
  V  V1  1  0.49995800  0.00003000  0.50000000  1
  S  S0  1  0.70748500  0.75701900  0.75704100  1
  S  S1  1  0.27056700  0.22486900  0.73397100  1
  S  S2  1  0.27062400  0.73401200  0.22478500  1
  S  S3  1  0.72154600  0.24300600  0.24293400  1
  S  S4  1  0.72936400  0.26598500  0.77520200  1
  S  S5  1  0.27846900  0.75698500  0.75706200  1
  S  S6  1  0.29252000  0.24296400  0.24297300  1
  S  S7  1  0.72946500  0.77513600  0.26603200  1
loop_
_geom_bond_atom_site_label_1
_geom_bond_atom_site_label_2
_geom_bond_distance
_geom_bond_site_symmetry_2
Mg0 S7 2.443175 1_556
Mg0 S4 2.444524 1_565
Mg0 S0 2.544272 1_555
Mg0 S5 2.544306 1_655
Mg1 S1 2.443192 1_554
Mg1 S2 2.444498 1_545
Mg1 S3 2.544247 1_455
Mg1 S6 2.544266 1_555
S0 V0 2.526373 1_556
S0 V1 2.526720 1_565
S0 Sm1 2.770777 1_655
S1 V1 2.460920 1_555
S1 Sm1 2.748632 1_555
S1 Sm0 2.748734 1_555
S2 V0 2.460946 1_555
S2 Sm0 2.748576 1_555
S2 Sm1 2.748704 1_555
S3 V0 2.526397 1_555
S3 V1 2.526481 1_555
S3 Sm0 2.770731 1_555
S4 V0 2.461009 1_556
S4 Sm0 2.748613 1_555
S4 Sm1 2.748723 1_655
S5 V0 2.526283 1_556
S5 V1 2.526334 1_565
S5 Sm0 2.770801 1_555
S6 V1 2.526175 1_555
S6 V0 2.526252 1_555
S6 Sm1 2.770871 1_555
S7 V1 2.461196 1_565
S7 Sm1 2.748641 1_655
S7 Sm0 2.748706 1_555
