# generated using pymatgen
data_BaSnS2
_symmetry_space_group_name_H-M   'P 1'
_cell_length_a   6.16379800
_cell_length_b   6.33619705
_cell_length_c   12.32491665
_cell_angle_alpha   90.00000000
_cell_angle_beta   90.00000000
_cell_angle_gamma   96.36065930
_symmetry_Int_Tables_number   1
_chemical_formula_structural   BaSnS2
_chemical_formula_sum   'Ba4 Sn4 S8'
_cell_volume   478.38701294
_cell_formula_units_Z   4
loop_
 _symmetry_equiv_pos_site_id
 _symmetry_equiv_pos_as_xyz
  1  'x, y, z'
loop_
 _atom_site_type_symbol
 _atom_site_label
 _atom_site_symmetry_multiplicity
 _atom_site_fract_x
 _atom_site_fract_y
 _atom_site_fract_z
 _atom_site_occupancy
  Ba  Ba0  1  0.93624959  0.23916793  0.88064159  1
  Ba  Ba1  1  0.06375041  0.26083207  0.38064159  1
  Ba  Ba2  1  0.06375041  0.76083207  0.11935841  1
  Ba  Ba3  1  0.93624959  0.73916793  0.61935841  1
  Sn  Sn0  1  0.45608637  0.70284187  0.86758521  1
  Sn  Sn1  1  0.54391363  0.29715813  0.13241479  1
  Sn  Sn2  1  0.54391363  0.79715813  0.36758521  1
  Sn  Sn3  1  0.45608637  0.20284187  0.63241479  1
  S  S0  1  0.42434401  0.10627300  0.83656087  1
  S  S1  1  0.57565599  0.39372700  0.33656087  1
  S  S2  1  0.57565599  0.89372700  0.16343913  1
  S  S3  1  0.42434401  0.60627300  0.66343913  1
  S  S4  1  0.86903481  0.23302308  0.62474603  1
  S  S5  1  0.86903481  0.73302308  0.87525397  1
  S  S6  1  0.13096519  0.76697692  0.37525397  1
  S  S7  1  0.13096519  0.26697692  0.12474603  1
loop_
_geom_bond_atom_site_label_1
_geom_bond_atom_site_label_2
_geom_bond_distance
_geom_bond_site_symmetry_2
Ba0 S4 3.180663 1_555
Ba0 S5 3.188529 1_545
Ba0 S5 3.202338 1_555
Ba0 S0 3.220454 1_555
Ba0 S7 3.236683 1_656
Ba0 S0 3.258326 1_655
Ba1 S7 3.180663 1_555
Ba1 S6 3.188529 1_555
Ba1 S6 3.202338 1_545
Ba1 S1 3.220454 1_555
Ba1 S4 3.236683 1_455
Ba1 S1 3.258326 1_455
Ba2 S6 3.180663 1_555
Ba2 S7 3.188529 1_565
Ba2 S7 3.202338 1_555
Ba2 S2 3.220454 1_555
Ba2 S5 3.236683 1_454
Ba2 S2 3.258326 1_455
Ba3 S5 3.180663 1_555
Ba3 S4 3.188529 1_555
Ba3 S4 3.202338 1_565
Ba3 S3 3.220454 1_555
Ba3 S6 3.236683 1_655
Ba3 S3 3.258326 1_655
S0 Sn3 2.591684 1_555
S0 Sn0 2.613343 1_545
S1 Sn1 2.591684 1_555
S1 Sn2 2.613343 1_555
S2 Sn2 2.591684 1_555
S2 Sn1 2.613343 1_565
S3 Sn0 2.591684 1_555
S3 Sn3 2.613343 1_555
S4 Sn3 2.533054 1_555
S5 Sn0 2.533054 1_555
S6 Sn2 2.533054 1_555
S7 Sn1 2.533054 1_555
