# generated using pymatgen
data_ErSb3
_symmetry_space_group_name_H-M   'P 1'
_cell_length_a   6.51824409
_cell_length_b   6.51824409
_cell_length_c   5.89265300
_cell_angle_alpha   90.00000000
_cell_angle_beta   90.00000000
_cell_angle_gamma   120.00000095
_symmetry_Int_Tables_number   1
_chemical_formula_structural   ErSb3
_chemical_formula_sum   'Er2 Sb6'
_cell_volume   216.82169475
_cell_formula_units_Z   2
loop_
 _symmetry_equiv_pos_site_id
 _symmetry_equiv_pos_as_xyz
  1  'x, y, z'
loop_
 _atom_site_type_symbol
 _atom_site_label
 _atom_site_symmetry_multiplicity
 _atom_site_fract_x
 _atom_site_fract_y
 _atom_site_fract_z
 _atom_site_occupancy
  Er  Er0  1  0.33333300  0.66666700  0.75000000  1
  Er  Er1  1  0.66666700  0.33333300  0.25000000  1
  Sb  Sb0  1  0.17415000  0.34829900  0.25000000  1
  Sb  Sb1  1  0.65170100  0.82585000  0.25000000  1
  Sb  Sb2  1  0.17415000  0.82585000  0.25000000  1
  Sb  Sb3  1  0.82585000  0.65170100  0.75000000  1
  Sb  Sb4  1  0.34829900  0.17415000  0.75000000  1
  Sb  Sb5  1  0.82585000  0.17415000  0.75000000  1
loop_
_geom_bond_atom_site_label_1
_geom_bond_atom_site_label_2
_geom_bond_distance
_geom_bond_site_symmetry_2
Er0 Sb5 3.260217 1_455
Er0 Sb5 3.260217 1_565
Er0 Sb3 3.260217 1_455
Er0 Sb4 3.260217 1_565
Er0 Sb4 3.260217 1_555
Er0 Sb3 3.260217 1_555
Er0 Sb2 3.451180 1_555
Er0 Sb2 3.451180 1_556
Er0 Sb1 3.451186 1_556
Er0 Sb1 3.451186 1_555
Er0 Sb0 3.451186 1_555
Er0 Sb0 3.451186 1_556
Er1 Sb2 3.260217 1_545
Er1 Sb2 3.260217 1_655
Er1 Sb1 3.260217 1_545
Er1 Sb0 3.260217 1_655
Er1 Sb0 3.260217 1_555
Er1 Sb1 3.260217 1_555
Er1 Sb5 3.451180 1_555
Er1 Sb5 3.451180 1_554
Er1 Sb3 3.451186 1_555
Er1 Sb3 3.451186 1_554
Er1 Sb4 3.451186 1_554
Er1 Sb4 3.451186 1_555
