# generated using pymatgen
data_Ba2ThCu2S5
_symmetry_space_group_name_H-M   'P 1'
_cell_length_a   7.16921518
_cell_length_b   7.16921518
_cell_length_c   9.45330302
_cell_angle_alpha   65.47243334
_cell_angle_beta   65.47243334
_cell_angle_gamma   33.56588827
_symmetry_Int_Tables_number   1
_chemical_formula_structural   Ba2ThCu2S5
_chemical_formula_sum   'Ba2 Th1 Cu2 S5'
_cell_volume   242.07254522
_cell_formula_units_Z   1
loop_
 _symmetry_equiv_pos_site_id
 _symmetry_equiv_pos_as_xyz
  1  'x, y, z'
loop_
 _atom_site_type_symbol
 _atom_site_label
 _atom_site_symmetry_multiplicity
 _atom_site_fract_x
 _atom_site_fract_y
 _atom_site_fract_z
 _atom_site_occupancy
  Ba  Ba0  1  0.17562400  0.17562400  0.30756100  1
  Ba  Ba1  1  0.82437600  0.82437600  0.69243900  1
  Th  Th0  1  0.00000000  0.00000000  0.00000000  1
  Cu  Cu0  1  0.55414800  0.55414800  0.70167500  1
  Cu  Cu1  1  0.44585200  0.44585200  0.29832500  1
  S  S0  1  0.14622600  0.14622600  0.68742300  1
  S  S1  1  0.85377400  0.85377400  0.31257700  1
  S  S2  1  0.38725900  0.38725900  0.93239700  1
  S  S3  1  0.61274100  0.61274100  0.06760300  1
  S  S4  1  0.50000000  0.50000000  0.50000000  1
loop_
_geom_bond_atom_site_label_1
_geom_bond_atom_site_label_2
_geom_bond_distance
_geom_bond_site_symmetry_2
Ba0 S4 3.098991 1_455
Ba0 S4 3.098991 1_545
Ba0 S1 3.220090 1_455
Ba0 S1 3.220090 1_545
Ba0 S0 3.435267 1_555
Ba0 S3 3.445894 1_455
Ba0 S3 3.445894 1_545
Ba0 S2 3.476087 1_554
Ba1 S4 3.098991 1_565
Ba1 S4 3.098991 1_655
Ba1 S0 3.220090 1_565
Ba1 S0 3.220090 1_655
Ba1 S1 3.435267 1_555
Ba1 S2 3.445894 1_565
Ba1 S2 3.445894 1_655
Ba1 S3 3.476087 1_556
Cu0 S4 2.327275 1_555
Cu0 S2 2.381708 1_555
Cu0 S0 2.398640 1_565
Cu0 S0 2.398640 1_655
Cu1 S4 2.327275 1_555
Cu1 S3 2.381708 1_555
Cu1 S1 2.398640 1_455
Cu1 S1 2.398640 1_545
S0 Th0 2.759893 1_556
S1 Th0 2.759893 1_665
S2 Th0 2.818988 1_656
S2 Th0 2.818988 1_566
S3 Th0 2.818988 1_655
S3 Th0 2.818988 1_565
