# generated using pymatgen
data_Dy3Mg2MnS8
_symmetry_space_group_name_H-M   'P 1'
_cell_length_a   7.81924450
_cell_length_b   7.69897523
_cell_length_c   7.81874871
_cell_angle_alpha   59.59103105
_cell_angle_beta   59.92470117
_cell_angle_gamma   59.61955300
_symmetry_Int_Tables_number   1
_chemical_formula_structural   Dy3Mg2MnS8
_chemical_formula_sum   'Dy3 Mg2 Mn1 S8'
_cell_volume   330.64215588
_cell_formula_units_Z   1
loop_
 _symmetry_equiv_pos_site_id
 _symmetry_equiv_pos_as_xyz
  1  'x, y, z'
loop_
 _atom_site_type_symbol
 _atom_site_label
 _atom_site_symmetry_multiplicity
 _atom_site_fract_x
 _atom_site_fract_y
 _atom_site_fract_z
 _atom_site_occupancy
  Dy  Dy0  1  0.49996900  0.50005300  0.50001100  1
  Dy  Dy1  1  0.49996700  0.50002500  0.99996900  1
  Dy  Dy2  1  0.99999100  0.49999200  0.50001000  1
  Mg  Mg0  1  0.87520400  0.87417600  0.87529400  1
  Mg  Mg1  1  0.12484900  0.12577700  0.12471100  1
  Mn  Mn0  1  0.50001200  0.00000200  0.50000400  1
  S  S0  1  0.73343900  0.76434800  0.73352500  1
  S  S1  1  0.26787800  0.23402700  0.73010200  1
  S  S2  1  0.25468700  0.73609900  0.25476700  1
  S  S3  1  0.72991800  0.23369600  0.26808200  1
  S  S4  1  0.74529600  0.26387900  0.74522900  1
  S  S5  1  0.27008300  0.76628100  0.73192500  1
  S  S6  1  0.26656800  0.23565200  0.26648600  1
  S  S7  1  0.73214300  0.76598900  0.26988700  1
loop_
_geom_bond_atom_site_label_1
_geom_bond_atom_site_label_2
_geom_bond_distance
_geom_bond_site_symmetry_2
Dy0 S2 2.700125 1_555
Dy0 S4 2.700188 1_555
Dy0 S7 2.735242 1_555
Dy0 S1 2.735314 1_555
Dy0 S5 2.736657 1_555
Dy0 S3 2.737461 1_555
Dy1 S2 2.694584 1_556
Dy1 S4 2.694637 1_555
Dy1 S6 2.732707 1_556
Dy1 S0 2.732788 1_555
Dy1 S5 2.743176 1_555
Dy1 S3 2.743924 1_556
Dy2 S2 2.693140 1_655
Dy2 S4 2.693166 1_555
Dy2 S6 2.734382 1_655
Dy2 S0 2.734411 1_555
Dy2 S7 2.743373 1_555
Dy2 S1 2.743424 1_655
Mg0 S4 2.435523 1_565
Mg0 S0 2.510144 1_555
Mg0 S7 2.519045 1_556
Mg0 S5 2.521812 1_655
Mg1 S2 2.435365 1_545
Mg1 S6 2.510167 1_555
Mg1 S1 2.519119 1_554
Mg1 S3 2.522139 1_455
Mn0 S3 2.541360 1_555
Mn0 S5 2.541633 1_545
Mn0 S1 2.545237 1_555
Mn0 S7 2.545277 1_545
Mn0 S0 2.567872 1_545
Mn0 S6 2.567950 1_555
