# generated using pymatgen
data_Sr2(SbPd)3
_symmetry_space_group_name_H-M   'P 1'
_cell_length_a   3.17260400
_cell_length_b   3.17260400
_cell_length_c   22.45141000
_cell_angle_alpha   90.00000000
_cell_angle_beta   90.00000000
_cell_angle_gamma   90.00000000
_symmetry_Int_Tables_number   1
_chemical_formula_structural   Sr2(SbPd)3
_chemical_formula_sum   'Sr2 Sb3 Pd3'
_cell_volume   225.98278460
_cell_formula_units_Z   1
loop_
 _symmetry_equiv_pos_site_id
 _symmetry_equiv_pos_as_xyz
  1  'x, y, z'
loop_
 _atom_site_type_symbol
 _atom_site_label
 _atom_site_symmetry_multiplicity
 _atom_site_fract_x
 _atom_site_fract_y
 _atom_site_fract_z
 _atom_site_occupancy
  Sr  Sr0  1  0.50000000  0.50000000  0.75781900  1
  Sr  Sr1  1  0.50000000  0.50000000  0.24218100  1
  Sb  Sb0  1  0.50000000  0.50000000  0.38554900  1
  Sb  Sb1  1  0.50000000  0.50000000  0.61445100  1
  Sb  Sb2  1  0.50000000  0.50000000  0.00000000  1
  Pd  Pd0  1  0.50000000  0.50000000  0.11537200  1
  Pd  Pd1  1  0.50000000  0.50000000  0.88462800  1
  Pd  Pd2  1  0.50000000  0.50000000  0.50000000  1
loop_
_geom_bond_atom_site_label_1
_geom_bond_atom_site_label_2
_geom_bond_distance
_geom_bond_site_symmetry_2
Sb0 Sr1 3.218814 1_555
Sb1 Sr0 3.218814 1_555
Pd0 Sb2 2.590264 1_555
Pd0 Sr1 2.847041 1_555
Pd1 Sb2 2.590264 1_556
Pd1 Sr0 2.847041 1_555
Pd2 Sb1 2.569586 1_555
Pd2 Sb0 2.569586 1_555
