# generated using pymatgen
data_MgSi2
_symmetry_space_group_name_H-M   'P 1'
_cell_length_a   4.46363900
_cell_length_b   5.07496205
_cell_length_c   5.55161833
_cell_angle_alpha   69.83486572
_cell_angle_beta   66.90020115
_cell_angle_gamma   66.22108681
_symmetry_Int_Tables_number   1
_chemical_formula_structural   MgSi2
_chemical_formula_sum   'Mg2 Si4'
_cell_volume   103.22462746
_cell_formula_units_Z   2
loop_
 _symmetry_equiv_pos_site_id
 _symmetry_equiv_pos_as_xyz
  1  'x, y, z'
loop_
 _atom_site_type_symbol
 _atom_site_label
 _atom_site_symmetry_multiplicity
 _atom_site_fract_x
 _atom_site_fract_y
 _atom_site_fract_z
 _atom_site_occupancy
  Mg  Mg0  1  0.30725700  0.09369100  0.29105600  1
  Mg  Mg1  1  0.69274300  0.90630900  0.70894400  1
  Si  Si0  1  0.93765500  0.25683400  0.85363400  1
  Si  Si1  1  0.62621700  0.49151700  0.25956200  1
  Si  Si2  1  0.06234500  0.74316600  0.14636600  1
  Si  Si3  1  0.37378300  0.50848300  0.74043800  1
loop_
_geom_bond_atom_site_label_1
_geom_bond_atom_site_label_2
_geom_bond_distance
_geom_bond_site_symmetry_2
Mg0 Si1 2.830725 1_555
Mg0 Si1 2.839220 1_545
Mg0 Si2 2.871803 1_545
Mg0 Si1 2.927827 1_455
Mg0 Si2 2.943170 1_555
Mg0 Si2 3.032388 1_645
Mg0 Si3 3.036269 1_554
Mg0 Mg1 3.065867 1_445
Mg0 Mg1 3.088516 1_545
Mg0 Si0 3.103420 1_554
Mg0 Si0 3.130492 1_455
Mg0 Si3 3.145517 1_545
Mg0 Si0 3.155990 1_454
Mg0 Mg1 3.277913 1_544
Mg1 Si3 2.830725 1_555
Mg1 Si3 2.839220 1_565
Mg1 Si0 2.871803 1_565
Mg1 Si3 2.927827 1_655
Mg1 Si0 2.943170 1_555
Mg1 Si0 3.032388 1_465
Mg1 Si1 3.036269 1_556
Mg1 Si2 3.103420 1_556
Mg1 Si2 3.130492 1_655
Mg1 Si1 3.145517 1_565
Mg1 Si2 3.155990 1_656
Si0 Si3 2.511426 1_655
Si0 Si2 2.522961 1_646
Si0 Si3 2.540954 1_555
Si0 Si1 2.546895 1_556
Si1 Si3 2.474653 1_555
Si1 Si2 2.511426 1_655
Si1 Si2 2.540954 1_555
Si2 Si3 2.546895 1_554
