# generated using pymatgen
data_Al14(CuS8)3
_symmetry_space_group_name_H-M   'P 1'
_cell_length_a   7.02787477
_cell_length_b   7.02787477
_cell_length_c   17.35692511
_cell_angle_alpha   89.91914215
_cell_angle_beta   89.91914215
_cell_angle_gamma   60.25845888
_symmetry_Int_Tables_number   1
_chemical_formula_structural   Al14(CuS8)3
_chemical_formula_sum   'Al14 Cu3 S24'
_cell_volume   744.34807258
_cell_formula_units_Z   1
loop_
 _symmetry_equiv_pos_site_id
 _symmetry_equiv_pos_as_xyz
  1  'x, y, z'
loop_
 _atom_site_type_symbol
 _atom_site_label
 _atom_site_symmetry_multiplicity
 _atom_site_fract_x
 _atom_site_fract_y
 _atom_site_fract_z
 _atom_site_occupancy
  Al  Al0  1  0.34058600  0.81896500  0.16503100  1
  Al  Al1  1  0.00571700  0.48919900  0.49919200  1
  Al  Al2  1  0.67396100  0.15182200  0.83088100  1
  Al  Al3  1  0.50000300  0.50000300  0.00613900  1
  Al  Al4  1  0.16437600  0.16437600  0.34033100  1
  Al  Al5  1  0.83607400  0.83607400  0.66785900  1
  Al  Al6  1  0.81896500  0.34058600  0.16503100  1
  Al  Al7  1  0.48919900  0.00571700  0.49919200  1
  Al  Al8  1  0.15182200  0.67396100  0.83088100  1
  Al  Al9  1  0.34047400  0.34047400  0.16497700  1
  Al  Al10  1  0.67418900  0.67418900  0.83079700  1
  Al  Al11  1  0.83131400  0.83131400  0.29454100  1
  Al  Al12  1  0.49403800  0.49403800  0.62369900  1
  Al  Al13  1  0.16642500  0.16642500  0.95862500  1
  Cu  Cu0  1  0.83349400  0.83349400  0.04141000  1
  Cu  Cu1  1  0.50292600  0.50292600  0.37691100  1
  Cu  Cu2  1  0.16649900  0.16649900  0.70573400  1
  S  S0  1  0.65741900  0.65741900  0.08575300  1
  S  S1  1  0.32393200  0.32393200  0.41807200  1
  S  S2  1  0.99150200  0.99150200  0.75330500  1
  S  S3  1  0.18521300  0.65734600  0.08560600  1
  S  S4  1  0.85136200  0.32648700  0.41877200  1
  S  S5  1  0.51916500  0.98930900  0.75240000  1
  S  S6  1  0.49960300  0.49960300  0.24299400  1
  S  S7  1  0.16939700  0.16939700  0.57760500  1
  S  S8  1  0.83334000  0.83334000  0.90981200  1
  S  S9  1  0.65734600  0.18521300  0.08560600  1
  S  S10  1  0.32648700  0.85136200  0.41877200  1
  S  S11  1  0.98930900  0.51916500  0.75240000  1
  S  S12  1  0.01243300  0.47649800  0.24606000  1
  S  S13  1  0.67493200  0.14605300  0.58159900  1
  S  S14  1  0.34437400  0.81114100  0.91435000  1
  S  S15  1  0.16656500  0.16656500  0.09106300  1
  S  S16  1  0.83190000  0.83190000  0.42337100  1
  S  S17  1  0.50047800  0.50047800  0.75978600  1
  S  S18  1  0.47649800  0.01243300  0.24606000  1
  S  S19  1  0.14605300  0.67493200  0.58159900  1
  S  S20  1  0.81114100  0.34437400  0.91435000  1
  S  S21  1  0.01083700  0.01083700  0.24652700  1
  S  S22  1  0.67709300  0.67709300  0.58099600  1
  S  S23  1  0.34447600  0.34447600  0.91418500  1
loop_
_geom_bond_atom_site_label_1
_geom_bond_atom_site_label_2
_geom_bond_distance
_geom_bond_site_symmetry_2
Al0 S3 2.371111 1_555
Al0 S6 2.371625 1_555
Al0 S0 2.372336 1_555
Al0 S18 2.456990 1_565
Al0 S21 2.466845 1_565
Al0 S15 2.478513 1_565
Al1 S7 2.378571 1_555
Al1 S4 2.381666 1_455
Al1 S1 2.398208 1_555
Al1 S19 2.451317 1_555
Al1 S22 2.462483 1_455
Al1 S16 2.470086 1_455
Al2 S2 2.358762 1_545
Al2 S5 2.363228 1_545
Al2 S8 2.376871 1_545
Al2 S17 2.458632 1_555
Al2 S20 2.482642 1_555
Al2 S23 2.484178 1_555
Al3 S0 2.362260 1_555
Al3 S3 2.363901 1_555
Al3 S9 2.363901 1_555
Al3 S23 2.476277 1_554
Al3 S14 2.477508 1_554
Al3 S20 2.477508 1_554
Al4 S10 2.345243 1_545
Al4 S4 2.345243 1_455
Al4 S1 2.364665 1_555
Al4 S21 2.478859 1_555
Al4 S18 2.509991 1_555
Al4 S12 2.509991 1_555
Al5 S2 2.403930 1_555
Al5 S19 2.412003 1_655
Al5 S13 2.412003 1_565
Al5 S5 2.426691 1_555
Al5 S11 2.426691 1_555
Al5 S22 2.453140 1_555
Al6 S9 2.371111 1_555
Al6 S6 2.371625 1_555
Al6 S0 2.372336 1_555
Al6 S12 2.456990 1_655
Al6 S21 2.466845 1_655
Al6 S15 2.478513 1_655
Al7 S7 2.378571 1_555
Al7 S10 2.381666 1_545
Al7 S1 2.398208 1_555
Al7 S13 2.451317 1_555
Al7 S22 2.462483 1_545
Al7 S16 2.470086 1_545
Al8 S2 2.358762 1_455
Al8 S11 2.363228 1_455
Al8 S8 2.376871 1_455
Al8 S17 2.458632 1_555
Al8 S14 2.482642 1_555
Al8 S23 2.484178 1_555
Al9 S6 2.363153 1_555
Al9 S9 2.373270 1_555
Al9 S3 2.373270 1_555
Al9 S12 2.453058 1_555
Al9 S18 2.453058 1_555
Al9 S15 2.474762 1_555
Al10 S11 2.354757 1_555
Al10 S5 2.354757 1_555
Al10 S8 2.373362 1_555
Al10 S17 2.446869 1_555
Al10 S20 2.486593 1_555
Al10 S14 2.486593 1_555
Al11 S16 2.236116 1_555
Al11 S12 2.323799 1_655
Al11 S18 2.323799 1_565
Al11 S21 2.334850 1_665
Al12 S13 2.246945 1_555
Al12 S19 2.246945 1_555
Al12 S22 2.344395 1_555
Al12 S17 2.363477 1_555
Al13 S23 2.296666 1_555
Al13 S15 2.298720 1_556
Al13 S14 2.300771 1_545
Al13 S20 2.300771 1_455
Cu0 S0 2.273486 1_555
Cu0 S9 2.279814 1_565
Cu0 S3 2.279814 1_655
Cu0 S8 2.284140 1_554
Cu1 S10 2.247605 1_555
Cu1 S4 2.247605 1_555
Cu1 S1 2.289159 1_555
Cu1 S6 2.324804 1_555
Cu2 S7 2.224147 1_555
Cu2 S2 2.280754 1_445
Cu2 S5 2.300057 1_545
Cu2 S11 2.300057 1_455
