# generated using pymatgen
data_Na3Al3Ge3O16
_symmetry_space_group_name_H-M   'P 1'
_cell_length_a   9.22037363
_cell_length_b   9.22037363
_cell_length_c   9.22037371
_cell_angle_alpha   90.56131329
_cell_angle_beta   90.56131329
_cell_angle_gamma   90.56131696
_symmetry_Int_Tables_number   1
_chemical_formula_structural   Na3Al3Ge3O16
_chemical_formula_sum   'Na6 Al6 Ge6 O32'
_cell_volume   783.75915155
_cell_formula_units_Z   2
loop_
 _symmetry_equiv_pos_site_id
 _symmetry_equiv_pos_as_xyz
  1  'x, y, z'
loop_
 _atom_site_type_symbol
 _atom_site_label
 _atom_site_symmetry_multiplicity
 _atom_site_fract_x
 _atom_site_fract_y
 _atom_site_fract_z
 _atom_site_occupancy
  Na  Na0  1  0.31415300  0.68532800  0.31329500  1
  Na  Na1  1  0.68532800  0.31329500  0.31415300  1
  Na  Na2  1  0.31329500  0.31415300  0.68532800  1
  Na  Na3  1  0.18532800  0.81415300  0.81329500  1
  Na  Na4  1  0.81329500  0.18532800  0.81415300  1
  Na  Na5  1  0.81415300  0.81329500  0.18532800  1
  Al  Al0  1  0.50324300  0.75238400  0.99738100  1
  Al  Al1  1  0.99738100  0.50324300  0.75238400  1
  Al  Al2  1  0.75238400  0.99738100  0.50324300  1
  Al  Al3  1  0.00324300  0.49738100  0.25238400  1
  Al  Al4  1  0.25238400  0.00324300  0.49738100  1
  Al  Al5  1  0.49738100  0.25238400  0.00324300  1
  Ge  Ge0  1  0.99892800  0.75143500  0.50323200  1
  Ge  Ge1  1  0.50323200  0.99892800  0.75143500  1
  Ge  Ge2  1  0.75143500  0.50323200  0.99892800  1
  Ge  Ge3  1  0.49892800  0.00323200  0.25143500  1
  Ge  Ge4  1  0.25143500  0.49892800  0.00323200  1
  Ge  Ge5  1  0.00323200  0.25143500  0.49892800  1
  O  O0  1  0.65192300  0.65131700  0.93901900  1
  O  O1  1  0.93901900  0.65192300  0.65131700  1
  O  O2  1  0.65131700  0.93901900  0.65192300  1
  O  O3  1  0.36123800  0.64481200  0.06879000  1
  O  O4  1  0.07022400  0.64353500  0.36154500  1
  O  O5  1  0.35814000  0.92807400  0.35648200  1
  O  O6  1  0.64353500  0.36154500  0.07022400  1
  O  O7  1  0.92807400  0.35648200  0.35814000  1
  O  O8  1  0.64481200  0.06879000  0.36123800  1
  O  O9  1  0.35648200  0.35814000  0.92807400  1
  O  O10  1  0.06879000  0.36123800  0.64481200  1
  O  O11  1  0.36154500  0.07022400  0.64353500  1
  O  O12  1  0.14353500  0.57022400  0.86154500  1
  O  O13  1  0.42807400  0.85814000  0.85648200  1
  O  O14  1  0.14481200  0.86123800  0.56879000  1
  O  O15  1  0.85648200  0.42807400  0.85814000  1
  O  O16  1  0.56879000  0.14481200  0.86123800  1
  O  O17  1  0.86154500  0.14353500  0.57022400  1
  O  O18  1  0.15192300  0.43901900  0.15131700  1
  O  O19  1  0.43901900  0.15131700  0.15192300  1
  O  O20  1  0.15131700  0.15192300  0.43901900  1
  O  O21  1  0.86123800  0.56879000  0.14481200  1
  O  O22  1  0.57022400  0.86154500  0.14353500  1
  O  O23  1  0.85814000  0.85648200  0.42807400  1
  O  O24  1  0.94215300  0.94215300  0.94215300  1
  O  O25  1  0.07155000  0.91418800  0.07163100  1
  O  O26  1  0.91418800  0.07163100  0.07155000  1
  O  O27  1  0.07163100  0.07155000  0.91418800  1
  O  O28  1  0.41418800  0.57155000  0.57163100  1
  O  O29  1  0.57163100  0.41418800  0.57155000  1
  O  O30  1  0.44215300  0.44215300  0.44215300  1
  O  O31  1  0.57155000  0.57163100  0.41418800  1
loop_
_geom_bond_atom_site_label_1
_geom_bond_atom_site_label_2
_geom_bond_distance
_geom_bond_site_symmetry_2
Na0 O5 2.300918 1_555
Na0 O4 2.326139 1_555
Na0 O3 2.327301 1_555
Na0 O31 2.760712 1_555
Na0 O28 2.765843 1_555
Na0 O30 2.812186 1_555
Na1 O7 2.300918 1_555
Na1 O6 2.326139 1_555
Na1 O8 2.327301 1_555
Na1 O29 2.760712 1_555
Na1 O31 2.765843 1_555
Na1 O30 2.812186 1_555
Na2 O9 2.300918 1_555
Na2 O11 2.326139 1_555
Na2 O10 2.327301 1_555
Na2 O28 2.760712 1_555
Na2 O29 2.765843 1_555
Na2 O30 2.812185 1_555
Na3 O13 2.300918 1_555
Na3 O12 2.326139 1_555
Na3 O14 2.327301 1_555
Na3 O27 2.760712 1_565
Na3 O25 2.765843 1_556
Na3 O24 2.812186 1_455
Na4 O15 2.300918 1_555
Na4 O17 2.326139 1_555
Na4 O16 2.327301 1_555
Na4 O26 2.760712 1_556
Na4 O27 2.765843 1_655
Na4 O24 2.812186 1_545
Na5 O23 2.300918 1_555
Na5 O22 2.326139 1_555
Na5 O21 2.327301 1_555
Na5 O25 2.760712 1_655
Na5 O26 2.765843 1_565
Na5 O24 2.812185 1_554
Al0 O0 1.751271 1_555
Al0 O3 1.770847 1_556
Al0 O13 1.771834 1_555
Al0 O22 1.776350 1_556
Al1 O1 1.751271 1_555
Al1 O10 1.770847 1_655
Al1 O15 1.771834 1_555
Al1 O12 1.776350 1_655
Al2 O2 1.751271 1_555
Al2 O8 1.770847 1_565
Al2 O23 1.771834 1_555
Al2 O17 1.776350 1_565
Al3 O18 1.751271 1_555
Al3 O21 1.770847 1_455
Al3 O7 1.771834 1_455
Al3 O4 1.776350 1_555
Al4 O20 1.751271 1_555
Al4 O14 1.770847 1_545
Al4 O5 1.771834 1_545
Al4 O11 1.776350 1_555
Al5 O19 1.751271 1_555
Al5 O16 1.770847 1_554
Al5 O9 1.771834 1_554
Al5 O6 1.776350 1_555
Ge0 O1 1.743764 1_555
Ge0 O23 1.767380 1_555
Ge0 O4 1.769972 1_655
Ge0 O14 1.773440 1_655
Ge1 O2 1.743764 1_555
Ge1 O13 1.767380 1_555
Ge1 O11 1.769972 1_565
Ge1 O16 1.773440 1_565
Ge2 O0 1.743764 1_555
Ge2 O15 1.767380 1_555
Ge2 O6 1.769972 1_556
Ge2 O21 1.773440 1_556
Ge3 O19 1.743764 1_555
Ge3 O5 1.767380 1_545
Ge3 O22 1.769972 1_545
Ge3 O8 1.773440 1_555
Ge4 O18 1.743764 1_555
Ge4 O9 1.767380 1_554
Ge4 O12 1.769972 1_554
Ge4 O3 1.773440 1_555
Ge5 O20 1.743764 1_555
Ge5 O7 1.767380 1_455
Ge5 O17 1.769972 1_455
Ge5 O10 1.773440 1_555
O24 O27 1.702745 1_665
O24 O26 1.702745 1_566
O24 O25 1.702745 1_656
O28 O30 1.702745 1_555
O29 O30 1.702745 1_555
O30 O31 1.702745 1_555
