# generated using pymatgen
data_NdAl4Co
_symmetry_space_group_name_H-M   'P 1'
_cell_length_a   4.01148412
_cell_length_b   6.85520510
_cell_length_c   7.62765410
_cell_angle_alpha   90.00000000
_cell_angle_beta   90.00000000
_cell_angle_gamma   90.00000000
_symmetry_Int_Tables_number   1
_chemical_formula_structural   NdAl4Co
_chemical_formula_sum   'Nd2 Al8 Co2'
_cell_volume   209.75702783
_cell_formula_units_Z   2
loop_
 _symmetry_equiv_pos_site_id
 _symmetry_equiv_pos_as_xyz
  1  'x, y, z'
loop_
 _atom_site_type_symbol
 _atom_site_label
 _atom_site_symmetry_multiplicity
 _atom_site_fract_x
 _atom_site_fract_y
 _atom_site_fract_z
 _atom_site_occupancy
  Nd  Nd0  1  0.00000000  0.38539687  0.75000000  1
  Nd  Nd1  1  -0.00000000  0.61460313  0.25000000  1
  Al  Al0  1  -0.00000000  0.00000000  0.50000000  1
  Al  Al1  1  -0.00000000  0.00000000  -0.00000000  1
  Al  Al2  1  0.50000000  0.04133964  0.75000000  1
  Al  Al3  1  0.50000000  0.95866036  0.25000000  1
  Al  Al4  1  0.50000000  0.29695344  0.07070140  1
  Al  Al5  1  0.50000000  0.70304656  0.92929860  1
  Al  Al6  1  0.50000000  0.29695344  0.42929860  1
  Al  Al7  1  0.50000000  0.70304656  0.57070140  1
  Co  Co0  1  0.00000000  0.81594050  0.75000000  1
  Co  Co1  1  0.00000000  0.18405950  0.25000000  1
loop_
_geom_bond_atom_site_label_1
_geom_bond_atom_site_label_2
_geom_bond_distance
_geom_bond_site_symmetry_2
Al0 Co1 2.286563 1_555
Al0 Co0 2.286563 1_545
Al0 Al3 2.782019 1_545
Al0 Al2 2.782019 1_455
Al0 Al2 2.782019 1_555
Al0 Al3 2.782019 1_445
Al0 Al6 2.908231 1_555
Al0 Al6 2.908231 1_455
Al0 Al7 2.908231 1_445
Al0 Al7 2.908231 1_545
Al0 Nd0 3.258274 1_555
Al0 Nd1 3.258274 1_545
Al1 Co1 2.286563 1_555
Al1 Co0 2.286563 1_544
Al1 Al3 2.782019 1_545
Al1 Al2 2.782019 1_554
Al1 Al2 2.782019 1_454
Al1 Al3 2.782019 1_445
Al1 Al4 2.908231 1_555
Al1 Al5 2.908231 1_444
Al1 Al5 2.908231 1_544
Al1 Al4 2.908231 1_455
Al1 Nd1 3.258274 1_545
Al1 Nd0 3.258274 1_554
Al2 Co0 2.531899 1_545
Al2 Co0 2.531899 1_645
Al2 Al7 2.692301 1_545
Al2 Al5 2.692301 1_545
Al2 Al4 3.009052 1_556
Al2 Al6 3.009052 1_555
Al2 Nd0 3.096113 1_555
Al2 Nd0 3.096113 1_655
Al3 Co1 2.531899 1_565
Al3 Co1 2.531899 1_665
Al3 Al6 2.692301 1_565
Al3 Al4 2.692301 1_565
Al3 Al7 3.009052 1_555
Al3 Al5 3.009052 1_554
Al3 Nd1 3.096113 1_655
Al3 Nd1 3.096113 1_555
Al4 Co1 2.548008 1_655
Al4 Co1 2.548008 1_555
Al4 Al6 2.735255 1_555
Al4 Al5 2.985489 1_554
Al4 Nd0 3.220945 1_554
Al4 Nd0 3.220945 1_654
Al4 Nd1 3.261157 1_655
Al4 Nd1 3.261157 1_555
Al5 Co0 2.548008 1_555
Al5 Co0 2.548008 1_655
Al5 Al7 2.735255 1_555
Al5 Nd1 3.220945 1_656
Al5 Nd1 3.220945 1_556
Al5 Nd0 3.261157 1_655
Al5 Nd0 3.261157 1_555
Al6 Co1 2.548008 1_655
Al6 Co1 2.548008 1_555
Al6 Al7 2.985489 1_555
Al6 Nd0 3.220945 1_655
Al6 Nd0 3.220945 1_555
Al6 Nd1 3.261157 1_555
Al6 Nd1 3.261157 1_655
Al7 Co0 2.548008 1_555
Al7 Co0 2.548008 1_655
Al7 Nd1 3.220945 1_555
Al7 Nd1 3.220945 1_655
Al7 Nd0 3.261157 1_655
Al7 Nd0 3.261157 1_555
Co0 Nd0 2.951465 1_555
Co1 Nd1 2.951465 1_555
