# generated using pymatgen
data_Li9Co7O16
_symmetry_space_group_name_H-M   'P 1'
_cell_length_a   8.82626099
_cell_length_b   8.82626099
_cell_length_c   5.87045316
_cell_angle_alpha   89.49770789
_cell_angle_beta   89.49770789
_cell_angle_gamma   38.54609027
_symmetry_Int_Tables_number   1
_chemical_formula_structural   Li9Co7O16
_chemical_formula_sum   'Li9 Co7 O16'
_cell_volume   284.96717467
_cell_formula_units_Z   1
loop_
 _symmetry_equiv_pos_site_id
 _symmetry_equiv_pos_as_xyz
  1  'x, y, z'
loop_
 _atom_site_type_symbol
 _atom_site_label
 _atom_site_symmetry_multiplicity
 _atom_site_fract_x
 _atom_site_fract_y
 _atom_site_fract_z
 _atom_site_occupancy
  Li  Li0  1  0.86997100  0.37602200  0.24843700  1
  Li  Li1  1  0.13002900  0.62397800  0.75156300  1
  Li  Li2  1  0.74992100  0.74992100  0.99957200  1
  Li  Li3  1  0.00000000  0.00000000  0.50000000  1
  Li  Li4  1  0.62397800  0.13002900  0.75156300  1
  Li  Li5  1  0.50000000  0.50000000  0.50000000  1
  Li  Li6  1  0.37602200  0.86997100  0.24843700  1
  Li  Li7  1  0.25007900  0.25007900  0.00042800  1
  Li  Li8  1  0.50000000  0.50000000  0.00000000  1
  Co  Co0  1  0.00000000  0.00000000  0.00000000  1
  Co  Co1  1  0.86857200  0.37574300  0.75699100  1
  Co  Co2  1  0.25032700  0.25032700  0.50159600  1
  Co  Co3  1  0.74967300  0.74967300  0.49840400  1
  Co  Co4  1  0.13142800  0.62425700  0.24300900  1
  Co  Co5  1  0.37574300  0.86857200  0.75699100  1
  Co  Co6  1  0.62425700  0.13142800  0.24300900  1
  O  O0  1  0.76708400  0.22362500  0.22997300  1
  O  O1  1  0.99613700  0.49726200  0.73544300  1
  O  O2  1  0.62738100  0.62738100  0.97858300  1
  O  O3  1  0.87084100  0.87084100  0.47905700  1
  O  O4  1  0.49726200  0.99613700  0.73544300  1
  O  O5  1  0.37317400  0.37317400  0.49162900  1
  O  O6  1  0.22362500  0.76708400  0.22997300  1
  O  O7  1  0.11580700  0.11580700  0.99618100  1
  O  O8  1  0.00386300  0.50273800  0.26455700  1
  O  O9  1  0.23291600  0.77637500  0.77002700  1
  O  O10  1  0.88419300  0.88419300  0.00381900  1
  O  O11  1  0.12915900  0.12915900  0.52094300  1
  O  O12  1  0.77637500  0.23291600  0.77002700  1
  O  O13  1  0.62682600  0.62682600  0.50837100  1
  O  O14  1  0.50273800  0.00386300  0.26455700  1
  O  O15  1  0.37261900  0.37261900  0.02141700  1
loop_
_geom_bond_atom_site_label_1
_geom_bond_atom_site_label_2
_geom_bond_distance
_geom_bond_site_symmetry_2
Li0 O7 2.093815 1_654
Li0 O13 2.098835 1_555
Li0 O0 2.135567 1_555
Li0 O2 2.140919 1_554
Li0 O8 2.174322 1_655
Li0 O11 2.178582 1_655
Li1 O10 2.093815 1_456
Li1 O5 2.098835 1_555
Li1 O9 2.135567 1_555
Li1 O15 2.140919 1_556
Li1 O1 2.174322 1_455
Li1 O3 2.178582 1_455
Li2 O2 2.046766 1_555
Li2 O1 2.126247 1_555
Li2 O4 2.126247 1_555
Li2 O14 2.134480 1_566
Li2 O8 2.134480 1_656
Li2 O10 2.237773 1_556
Li3 O9 2.071247 1_545
Li3 O12 2.071247 1_455
Li3 O0 2.071247 1_455
Li3 O6 2.071247 1_545
Li3 O11 2.156852 1_555
Li3 O3 2.156852 1_445
Li4 O10 2.093815 1_546
Li4 O5 2.098835 1_555
Li4 O12 2.135567 1_555
Li4 O15 2.140919 1_556
Li4 O4 2.174322 1_545
Li4 O3 2.178582 1_545
Li5 O5 2.114356 1_555
Li5 O13 2.114356 1_555
Li5 O12 2.242266 1_555
Li5 O9 2.242266 1_555
Li5 O6 2.242266 1_555
Li5 O0 2.242266 1_555
Li6 O7 2.093815 1_564
Li6 O13 2.098835 1_555
Li6 O6 2.135567 1_555
Li6 O2 2.140919 1_554
Li6 O14 2.174322 1_565
Li6 O11 2.178582 1_565
Li7 O15 2.046766 1_555
Li7 O8 2.126247 1_555
Li7 O14 2.126247 1_555
Li7 O1 2.134480 1_454
Li7 O4 2.134480 1_544
Li7 O7 2.237773 1_554
Li8 O6 2.081673 1_555
Li8 O0 2.081673 1_555
Li8 O12 2.081673 1_554
Li8 O9 2.081673 1_554
Li8 O2 2.125131 1_554
Li8 O15 2.125131 1_555
Co0 O0 1.896225 1_455
Co0 O6 1.896225 1_545
Co0 O9 1.896225 1_544
Co0 O12 1.896225 1_454
Co0 O10 1.929638 1_445
Co0 O7 1.929638 1_554
Co1 O2 1.939913 1_555
Co1 O12 1.964457 1_555
Co1 O11 2.028277 1_655
Co1 O7 2.040391 1_655
Co1 O13 2.048293 1_555
Co1 O1 2.078023 1_555
Co2 O1 2.004502 1_455
Co2 O4 2.004502 1_545
Co2 O14 2.012410 1_555
Co2 O8 2.012410 1_555
Co2 O11 2.021186 1_555
Co2 O5 2.047318 1_555
Co3 O8 2.004502 1_655
Co3 O14 2.004502 1_565
Co3 O4 2.012410 1_555
Co3 O1 2.012410 1_555
Co3 O3 2.021186 1_555
Co3 O13 2.047318 1_555
Co4 O15 1.939913 1_555
Co4 O6 1.964457 1_555
Co4 O3 2.028277 1_455
Co4 O10 2.040391 1_455
Co4 O5 2.048293 1_555
Co4 O8 2.078023 1_555
Co5 O2 1.939913 1_555
Co5 O9 1.964457 1_555
Co5 O11 2.028277 1_565
Co5 O7 2.040391 1_565
Co5 O13 2.048293 1_555
Co5 O4 2.078023 1_555
Co6 O15 1.939913 1_555
Co6 O0 1.964457 1_555
Co6 O3 2.028277 1_545
Co6 O10 2.040391 1_545
Co6 O5 2.048293 1_555
Co6 O14 2.078023 1_555
