# generated using pymatgen
data_Cu2WO4
_symmetry_space_group_name_H-M   'P 1'
_cell_length_a   7.14439024
_cell_length_b   8.50663779
_cell_length_c   8.47512114
_cell_angle_alpha   117.18524466
_cell_angle_beta   116.71216217
_cell_angle_gamma   82.76995399
_symmetry_Int_Tables_number   1
_chemical_formula_structural   Cu2WO4
_chemical_formula_sum   'Cu8 W4 O16'
_cell_volume   407.22265768
_cell_formula_units_Z   4
loop_
 _symmetry_equiv_pos_site_id
 _symmetry_equiv_pos_as_xyz
  1  'x, y, z'
loop_
 _atom_site_type_symbol
 _atom_site_label
 _atom_site_symmetry_multiplicity
 _atom_site_fract_x
 _atom_site_fract_y
 _atom_site_fract_z
 _atom_site_occupancy
  Cu  Cu0  1  0.22618300  0.07941000  0.53839500  1
  Cu  Cu1  1  0.59786000  0.11266400  0.69002400  1
  Cu  Cu2  1  0.40214000  0.88733600  0.30997600  1
  Cu  Cu3  1  0.45673900  0.79874900  0.59023800  1
  Cu  Cu4  1  0.77381700  0.92059000  0.46160500  1
  Cu  Cu5  1  0.24236200  0.53417300  0.99855500  1
  Cu  Cu6  1  0.54326100  0.20125100  0.40976200  1
  Cu  Cu7  1  0.75763800  0.46582700  0.00144500  1
  W  W0  1  0.60471000  0.20357700  0.03894900  1
  W  W1  1  0.39529000  0.79642300  0.96105100  1
  W  W2  1  0.14429600  0.17499900  0.03532500  1
  W  W3  1  0.85570400  0.82500100  0.96467500  1
  O  O0  1  0.85305400  0.07283900  0.95653000  1
  O  O1  1  0.83353600  0.17106600  0.53727900  1
  O  O2  1  0.78875200  0.39581300  0.20399100  1
  O  O3  1  0.14694600  0.92716100  0.04347000  1
  O  O4  1  0.16646400  0.82893400  0.46272100  1
  O  O5  1  0.27959900  0.28718000  0.30251500  1
  O  O6  1  0.68139800  0.98247300  0.09313700  1
  O  O7  1  0.36841200  0.33394900  0.04458600  1
  O  O8  1  0.98127500  0.32119700  0.93873200  1
  O  O9  1  0.21124800  0.60418700  0.79600900  1
  O  O10  1  0.01626800  0.80740000  0.52120100  1
  O  O11  1  0.72040100  0.71282000  0.69748500  1
  O  O12  1  0.31860200  0.01752700  0.90686300  1
  O  O13  1  0.63158800  0.66605100  0.95541400  1
  O  O14  1  0.01872500  0.67880300  0.06126800  1
  O  O15  1  0.98373200  0.19260000  0.47879900  1
loop_
_geom_bond_atom_site_label_1
_geom_bond_atom_site_label_2
_geom_bond_distance
_geom_bond_site_symmetry_2
Cu0 O15 1.849498 1_455
Cu0 O4 1.966585 1_545
Cu1 O0 2.319909 1_555
Cu2 O3 2.319909 1_555
Cu3 O11 1.905270 1_555
Cu3 O4 1.907697 1_555
Cu4 O10 1.849498 1_655
Cu4 O1 1.966585 1_565
Cu5 O7 1.941496 1_556
Cu5 O9 1.977035 1_555
Cu5 O14 2.005026 1_556
Cu5 O8 2.485921 1_455
Cu6 O5 1.905270 1_555
Cu6 O1 1.907697 1_555
Cu7 O13 1.941496 1_554
Cu7 O2 1.977035 1_555
Cu7 O8 2.005026 1_554
Cu7 O14 2.485921 1_655
O0 W2 2.050940 1_656
O0 W3 2.138148 1_545
O0 W0 2.186431 1_556
O1 O15 1.428712 1_555
O2 W0 1.776867 1_555
O3 W3 2.050940 1_454
O3 W2 2.138148 1_565
O3 W1 2.186431 1_554
O5 W2 1.806277 1_555
O6 W3 1.999235 1_554
O6 W0 2.086234 1_565
O6 W1 2.252654 1_554
O7 W0 1.906592 1_555
O7 W2 2.175582 1_555
O8 W2 1.811588 1_656
O9 W1 1.776867 1_555
O10 O4 1.428712 1_555
O11 W3 1.806277 1_555
O12 W2 1.999235 1_556
O12 W1 2.086234 1_545
O12 W0 2.252654 1_556
O13 W1 1.906592 1_555
O13 W3 2.175582 1_555
O14 W3 1.811588 1_454
