# generated using pymatgen
data_Sm2ScNbO7
_symmetry_space_group_name_H-M   'P 1'
_cell_length_a   7.46905800
_cell_length_b   7.46905800
_cell_length_c   7.46905800
_cell_angle_alpha   120.52940011
_cell_angle_beta   119.35585691
_cell_angle_gamma   90.10239845
_symmetry_Int_Tables_number   1
_chemical_formula_structural   Sm2ScNbO7
_chemical_formula_sum   'Sm4 Sc2 Nb2 O14'
_cell_volume   294.85016444
_cell_formula_units_Z   2
loop_
 _symmetry_equiv_pos_site_id
 _symmetry_equiv_pos_as_xyz
  1  'x, y, z'
loop_
 _atom_site_type_symbol
 _atom_site_label
 _atom_site_symmetry_multiplicity
 _atom_site_fract_x
 _atom_site_fract_y
 _atom_site_fract_z
 _atom_site_occupancy
  Sm  Sm0  1  0.00000000  0.50000000  0.00000000  1
  Sm  Sm1  1  0.00000000  0.00000000  0.50000000  1
  Sm  Sm2  1  0.00000000  0.50000000  0.50000000  1
  Sm  Sm3  1  0.50000000  0.50000000  0.00000000  1
  Sc  Sc0  1  0.50000000  0.00000000  0.00000000  1
  Sc  Sc1  1  0.50000000  0.50000000  0.50000000  1
  Nb  Nb0  1  0.50000000  0.00000000  0.50000000  1
  Nb  Nb1  1  0.00000000  0.00000000  0.00000000  1
  O  O0  1  0.82023000  0.07023000  0.75000000  1
  O  O1  1  0.40314400  0.65314400  0.75000000  1
  O  O2  1  0.84161600  0.67468500  0.76690500  1
  O  O3  1  0.40778100  0.07471200  0.73309500  1
  O  O4  1  0.84161600  0.07471200  0.16693100  1
  O  O5  1  0.40778100  0.67468500  0.33306900  1
  O  O6  1  0.17977000  0.92977000  0.25000000  1
  O  O7  1  0.59685600  0.34685600  0.25000000  1
  O  O8  1  0.15838400  0.32531500  0.23309500  1
  O  O9  1  0.59221900  0.92528800  0.26690500  1
  O  O10  1  0.15838400  0.92528800  0.83306900  1
  O  O11  1  0.59221900  0.32531500  0.66693100  1
  O  O12  1  0.87780600  0.62780600  0.25000000  1
  O  O13  1  0.12219400  0.37219400  0.75000000  1
loop_
_geom_bond_atom_site_label_1
_geom_bond_atom_site_label_2
_geom_bond_distance
_geom_bond_site_symmetry_2
Nb0 O3 2.001750 1_555
Nb0 O9 2.001750 1_545
Nb0 O5 2.001757 1_545
Nb0 O11 2.001757 1_555
Nb0 O6 2.025862 1_545
Nb0 O0 2.025862 1_555
Nb1 O4 2.001757 1_455
Nb1 O10 2.001757 1_544
Nb1 O2 2.001757 1_444
Nb1 O8 2.001757 1_555
Nb1 O0 2.025862 1_454
Nb1 O6 2.025862 1_545
O0 Sm0 2.651478 1_656
O0 Sm1 2.651478 1_655
O1 Sc1 2.115618 1_555
O1 Sc0 2.115618 1_566
O1 Sm3 2.483316 1_556
O1 Sm2 2.483316 1_555
O2 Sc1 2.131955 1_555
O2 Sm0 2.535119 1_656
O2 Sm2 2.598295 1_655
O3 Sc0 2.131962 1_556
O3 Sm1 2.535124 1_555
O3 Sm3 2.598290 1_556
O4 Sc0 2.131955 1_555
O4 Sm1 2.535124 1_655
O4 Sm2 2.598290 1_655
O5 Sc1 2.131955 1_555
O5 Sm0 2.535124 1_555
O5 Sm3 2.598290 1_555
O6 Sm1 2.651478 1_565
O6 Sm0 2.651478 1_555
O7 Sc0 2.115618 1_555
O7 Sc1 2.115618 1_555
O7 Sm2 2.483316 1_655
O7 Sm3 2.483316 1_555
O8 Sc1 2.131955 1_555
O8 Sm0 2.535119 1_555
O8 Sm2 2.598295 1_555
O9 Sc0 2.131962 1_565
O9 Sm1 2.535124 1_665
O9 Sm3 2.598290 1_555
O10 Sc0 2.131955 1_566
O10 Sm1 2.535124 1_565
O10 Sm2 2.598290 1_555
O11 Sc1 2.131955 1_555
O11 Sm0 2.535124 1_656
O11 Sm3 2.598290 1_556
O12 Sm0 2.256988 1_655
O12 Sm1 2.256988 1_665
O12 Sm3 2.318193 1_555
O12 Sm2 2.318193 1_655
O13 Sm1 2.256988 1_555
O13 Sm0 2.256988 1_556
O13 Sm2 2.318193 1_555
O13 Sm3 2.318193 1_556
