# generated using pymatgen
data_VS2NO8
_symmetry_space_group_name_H-M   'P 1'
_cell_length_a   5.12147349
_cell_length_b   5.12147349
_cell_length_c   8.38406700
_cell_angle_alpha   90.00000000
_cell_angle_beta   90.00000000
_cell_angle_gamma   119.99999341
_symmetry_Int_Tables_number   1
_chemical_formula_structural   VS2NO8
_chemical_formula_sum   'V1 S2 N1 O8'
_cell_volume   190.44749246
_cell_formula_units_Z   1
loop_
 _symmetry_equiv_pos_site_id
 _symmetry_equiv_pos_as_xyz
  1  'x, y, z'
loop_
 _atom_site_type_symbol
 _atom_site_label
 _atom_site_symmetry_multiplicity
 _atom_site_fract_x
 _atom_site_fract_y
 _atom_site_fract_z
 _atom_site_occupancy
  V  V0  1  0.00000000  0.00000000  0.00000000  1
  S  S0  1  0.33333300  0.66666700  0.20516100  1
  S  S1  1  0.66666700  0.33333300  0.79483900  1
  N  N0  1  0.00000000  0.00000000  0.50000000  1
  O  O0  1  0.16134500  0.35429500  0.13713200  1
  O  O1  1  0.64570500  0.80705000  0.13713200  1
  O  O2  1  0.35429500  0.16134500  0.86286800  1
  O  O3  1  0.19295000  0.83865500  0.13713200  1
  O  O4  1  0.80705000  0.64570500  0.86286800  1
  O  O5  1  0.83865500  0.19295000  0.86286800  1
  O  O6  1  0.33333300  0.66666700  0.37495500  1
  O  O7  1  0.66666700  0.33333300  0.62504500  1
loop_
_geom_bond_atom_site_label_1
_geom_bond_atom_site_label_2
_geom_bond_distance
_geom_bond_site_symmetry_2
O0 S0 1.500464 1_555
O0 V0 1.948783 1_555
O1 S0 1.500464 1_555
O1 V0 1.948783 1_665
O2 S1 1.500464 1_555
O2 V0 1.948783 1_556
O3 S0 1.500460 1_555
O3 V0 1.948783 1_565
O4 S1 1.500464 1_555
O4 V0 1.948783 1_666
O5 S1 1.500460 1_555
O5 V0 1.948783 1_656
O6 S0 1.423564 1_555
O7 S1 1.423564 1_555
