# generated using pymatgen
data_Ba2CaMn2(P2O7)2
_symmetry_space_group_name_H-M   'P 1'
_cell_length_a   5.39396454
_cell_length_b   10.40754024
_cell_length_c   7.86287715
_cell_angle_alpha   100.72872301
_cell_angle_beta   90.11983899
_cell_angle_gamma   78.87187023
_symmetry_Int_Tables_number   1
_chemical_formula_structural   Ba2CaMn2(P2O7)2
_chemical_formula_sum   'Ba2 Ca1 Mn2 P4 O14'
_cell_volume   425.27306165
_cell_formula_units_Z   1
loop_
 _symmetry_equiv_pos_site_id
 _symmetry_equiv_pos_as_xyz
  1  'x, y, z'
loop_
 _atom_site_type_symbol
 _atom_site_label
 _atom_site_symmetry_multiplicity
 _atom_site_fract_x
 _atom_site_fract_y
 _atom_site_fract_z
 _atom_site_occupancy
  Ba  Ba0  1  0.08882600  0.68963500  0.91114600  1
  Ba  Ba1  1  0.92310700  0.30931800  0.07574000  1
  Ca  Ca0  1  0.50877600  0.99992900  0.99533100  1
  Mn  Mn0  1  0.17696000  0.57694700  0.35504700  1
  Mn  Mn1  1  0.84560100  0.40031700  0.59208800  1
  P  P0  1  0.62184300  0.72531200  0.23965300  1
  P  P1  1  0.38035500  0.28889500  0.76145700  1
  P  P2  1  0.60277700  0.71694500  0.60685900  1
  P  P3  1  0.39364500  0.26452000  0.38624500  1
  O  O0  1  0.64251700  0.31533100  0.38186500  1
  O  O1  1  0.36131300  0.65870800  0.59008900  1
  O  O2  1  0.60715000  0.81909200  0.77174400  1
  O  O3  1  0.36031500  0.15531600  0.23729400  1
  O  O4  1  0.15801000  0.38101600  0.40665300  1
  O  O5  1  0.84239800  0.60478900  0.59515400  1
  O  O6  1  0.62953900  0.79079800  0.44511100  1
  O  O7  1  0.38554700  0.20501800  0.56308800  1
  O  O8  1  0.13250700  0.39551800  0.78578100  1
  O  O9  1  0.83965800  0.60083800  0.20276400  1
  O  O10  1  0.61729900  0.35152800  0.78106700  1
  O  O11  1  0.35978600  0.68950500  0.20929600  1
  O  O12  1  0.37395900  0.18715700  0.87633400  1
  O  O13  1  0.67311100  0.82892500  0.13852800  1
loop_
_geom_bond_atom_site_label_1
_geom_bond_atom_site_label_2
_geom_bond_distance
_geom_bond_site_symmetry_2
Ba0 O11 2.760078 1_556
Ba0 O13 2.850120 1_456
Ba0 O1 2.857798 1_555
Ba0 O5 2.888296 1_455
Ba0 O2 2.992285 1_455
Ba0 O8 2.999378 1_555
Ba0 O9 3.033046 1_456
Ba1 O0 2.830359 1_555
Ba1 O12 2.840613 1_654
Ba1 O10 2.892325 1_554
Ba1 O8 2.905521 1_654
Ba1 O4 2.925846 1_655
Ba1 O9 2.958351 1_555
Ba1 O3 3.005077 1_655
Ca0 O3 2.288480 1_566
Ca0 O2 2.302377 1_555
Ca0 O12 2.308732 1_565
Ca0 O13 2.313842 1_556
Mn0 O11 2.146781 1_555
Mn0 O4 2.173010 1_555
Mn0 O9 2.175514 1_455
Mn0 O1 2.204954 1_555
Mn0 O5 2.552178 1_455
Mn1 O5 2.120422 1_555
Mn1 O10 2.124196 1_555
Mn1 O0 2.129941 1_555
Mn1 O8 2.169227 1_655
Mn1 O4 2.185515 1_655
O0 P3 1.537493 1_555
O1 P2 1.534721 1_555
O2 P2 1.519199 1_555
O3 P3 1.509346 1_555
O4 P3 1.563581 1_555
O5 P2 1.555535 1_555
O6 P2 1.623782 1_555
O6 P0 1.636077 1_555
O7 P3 1.627935 1_555
O7 P1 1.636904 1_555
O8 P1 1.550689 1_555
O9 P0 1.554586 1_555
O10 P1 1.538015 1_555
O11 P0 1.537113 1_555
O12 P1 1.519389 1_555
O13 P0 1.518826 1_555
