# generated using pymatgen
data_YbMnGe
_symmetry_space_group_name_H-M   'P 1'
_cell_length_a   4.23664300
_cell_length_b   7.19543600
_cell_length_c   7.61825900
_cell_angle_alpha   90.00000000
_cell_angle_beta   90.00000000
_cell_angle_gamma   90.00000000
_symmetry_Int_Tables_number   1
_chemical_formula_structural   YbMnGe
_chemical_formula_sum   'Yb4 Mn4 Ge4'
_cell_volume   232.23876743
_cell_formula_units_Z   4
loop_
 _symmetry_equiv_pos_site_id
 _symmetry_equiv_pos_as_xyz
  1  'x, y, z'
loop_
 _atom_site_type_symbol
 _atom_site_label
 _atom_site_symmetry_multiplicity
 _atom_site_fract_x
 _atom_site_fract_y
 _atom_site_fract_z
 _atom_site_occupancy
  Yb  Yb0  1  0.75000000  0.98962100  0.68344900  1
  Yb  Yb1  1  0.25000000  0.01037900  0.31655100  1
  Yb  Yb2  1  0.25000000  0.51037900  0.18344900  1
  Yb  Yb3  1  0.75000000  0.48962100  0.81655100  1
  Mn  Mn0  1  0.75000000  0.87044800  0.05704800  1
  Mn  Mn1  1  0.25000000  0.62955200  0.55704800  1
  Mn  Mn2  1  0.75000000  0.37044800  0.44295200  1
  Mn  Mn3  1  0.25000000  0.12955200  0.94295200  1
  Ge  Ge0  1  0.75000000  0.21323400  0.11193600  1
  Ge  Ge1  1  0.25000000  0.78676600  0.88806400  1
  Ge  Ge2  1  0.25000000  0.28676600  0.61193600  1
  Ge  Ge3  1  0.75000000  0.71323400  0.38806400  1
loop_
_geom_bond_atom_site_label_1
_geom_bond_atom_site_label_2
_geom_bond_distance
_geom_bond_site_symmetry_2
Mn0 Yb0 2.972544 1_554
Mn0 Yb1 3.067481 1_565
Mn0 Yb1 3.067481 1_665
Mn1 Yb2 2.972544 1_555
Mn1 Yb3 3.067481 1_555
Mn1 Yb3 3.067481 1_455
Mn2 Yb3 2.972544 1_555
Mn2 Yb2 3.067481 1_655
Mn2 Yb2 3.067481 1_555
Mn3 Yb1 2.972544 1_556
Mn3 Yb0 3.067481 1_545
Mn3 Yb0 3.067481 1_445
Ge0 Mn0 2.501689 1_545
Ge0 Mn3 2.550912 1_554
Ge0 Mn3 2.550912 1_654
Ge0 Mn2 2.763868 1_555
Ge0 Yb3 3.003159 1_554
Ge0 Yb1 3.007939 1_555
Ge0 Yb1 3.007939 1_655
Ge0 Yb2 3.058679 1_655
Ge0 Yb2 3.058679 1_555
Ge1 Mn3 2.501689 1_565
Ge1 Mn0 2.550912 1_456
Ge1 Mn0 2.550912 1_556
Ge1 Mn1 2.763868 1_555
Ge1 Yb2 3.003159 1_556
Ge1 Yb0 3.007939 1_455
Ge1 Yb0 3.007939 1_555
Ge1 Yb3 3.058679 1_555
Ge1 Yb3 3.058679 1_455
Ge2 Mn1 2.501689 1_555
Ge2 Mn2 2.550912 1_455
Ge2 Mn2 2.550912 1_555
Ge2 Mn3 2.763868 1_555
Ge2 Yb1 3.003159 1_555
Ge2 Yb3 3.007939 1_455
Ge2 Yb3 3.007939 1_555
Ge2 Yb0 3.058679 1_545
Ge2 Yb0 3.058679 1_445
Ge3 Mn2 2.501689 1_555
Ge3 Mn1 2.550912 1_555
Ge3 Mn1 2.550912 1_655
Ge3 Mn0 2.763868 1_555
Ge3 Yb0 3.003159 1_555
Ge3 Yb2 3.007939 1_555
Ge3 Yb2 3.007939 1_655
Ge3 Yb1 3.058679 1_665
Ge3 Yb1 3.058679 1_565
