# generated using pymatgen
data_Na5IO6
_symmetry_space_group_name_H-M   'P 1'
_cell_length_a   5.63696942
_cell_length_b   5.63696942
_cell_length_c   5.60796752
_cell_angle_alpha   79.52007855
_cell_angle_beta   79.52007855
_cell_angle_gamma   119.22340103
_symmetry_Int_Tables_number   1
_chemical_formula_structural   Na5IO6
_chemical_formula_sum   'Na5 I1 O6'
_cell_volume   145.11418382
_cell_formula_units_Z   1
loop_
 _symmetry_equiv_pos_site_id
 _symmetry_equiv_pos_as_xyz
  1  'x, y, z'
loop_
 _atom_site_type_symbol
 _atom_site_label
 _atom_site_symmetry_multiplicity
 _atom_site_fract_x
 _atom_site_fract_y
 _atom_site_fract_z
 _atom_site_occupancy
  Na  Na0  1  0.83355149  0.16644851  -0.00000000  1
  Na  Na1  1  0.16644851  0.83355149  -0.00000000  1
  Na  Na2  1  0.67093664  0.32906336  0.50000000  1
  Na  Na3  1  0.32906336  0.67093664  0.50000000  1
  Na  Na4  1  -0.00000000  -0.00000000  0.50000000  1
  I  I0  1  0.50000000  0.50000000  -0.00000000  1
  O  O0  1  0.43044037  0.15353039  0.21489116  1
  O  O1  1  0.56955963  0.84646961  0.78510884  1
  O  O2  1  0.84646961  0.56955963  0.78510884  1
  O  O3  1  0.15353039  0.43044037  0.21489116  1
  O  O4  1  0.70244026  0.70244026  0.20167156  1
  O  O5  1  0.29755974  0.29755974  0.79832844  1
loop_
_geom_bond_atom_site_label_1
_geom_bond_atom_site_label_2
_geom_bond_distance
_geom_bond_site_symmetry_2
Na0 O4 2.323559 1_545
Na0 O5 2.323559 1_654
Na0 O2 2.330530 1_554
Na0 O0 2.330530 1_555
Na0 O1 2.396326 1_544
Na0 O3 2.396326 1_655
Na1 O4 2.323559 1_455
Na1 O5 2.323559 1_564
Na1 O1 2.330530 1_554
Na1 O3 2.330530 1_555
Na1 O0 2.396326 1_565
Na1 O2 2.396326 1_454
Na2 O0 2.329715 1_555
Na2 O2 2.329715 1_555
Na2 O5 2.346561 1_555
Na2 O4 2.346561 1_555
Na2 O1 2.617397 1_545
Na2 O3 2.617397 1_655
Na3 O3 2.329715 1_555
Na3 O1 2.329715 1_555
Na3 O5 2.346561 1_555
Na3 O4 2.346561 1_555
Na3 O0 2.617397 1_565
Na3 O2 2.617397 1_455
Na4 O1 2.286406 1_445
Na4 O2 2.286406 1_445
Na4 O3 2.286406 1_555
Na4 O0 2.286406 1_555
Na4 O5 2.778568 1_555
Na4 O4 2.778568 1_445
I0 O5 1.884409 1_554
I0 O4 1.884409 1_555
I0 O1 1.909066 1_554
I0 O2 1.909066 1_554
I0 O0 1.909066 1_555
I0 O3 1.909066 1_555
