# generated using pymatgen
data_TiZn(BiO3)2
_symmetry_space_group_name_H-M   'P 1'
_cell_length_a   3.91860900
_cell_length_b   3.91860900
_cell_length_c   8.05799600
_cell_angle_alpha   90.00000000
_cell_angle_beta   90.00000000
_cell_angle_gamma   90.00000000
_symmetry_Int_Tables_number   1
_chemical_formula_structural   TiZn(BiO3)2
_chemical_formula_sum   'Ti1 Zn1 Bi2 O6'
_cell_volume   123.73452933
_cell_formula_units_Z   1
loop_
 _symmetry_equiv_pos_site_id
 _symmetry_equiv_pos_as_xyz
  1  'x, y, z'
loop_
 _atom_site_type_symbol
 _atom_site_label
 _atom_site_symmetry_multiplicity
 _atom_site_fract_x
 _atom_site_fract_y
 _atom_site_fract_z
 _atom_site_occupancy
  Ti  Ti0  1  0.50000000  0.50000000  0.50000000  1
  Zn  Zn0  1  0.50000000  0.50000000  0.00000000  1
  Bi  Bi0  1  0.00000000  0.00000000  0.77828200  1
  Bi  Bi1  1  0.00000000  0.00000000  0.22171800  1
  O  O0  1  0.50000000  0.00000000  0.00000000  1
  O  O1  1  0.00000000  0.50000000  0.00000000  1
  O  O2  1  0.50000000  0.00000000  0.50000000  1
  O  O3  1  0.00000000  0.50000000  0.50000000  1
  O  O4  1  0.50000000  0.50000000  0.74157000  1
  O  O5  1  0.50000000  0.50000000  0.25843000  1
loop_
_geom_bond_atom_site_label_1
_geom_bond_atom_site_label_2
_geom_bond_distance
_geom_bond_site_symmetry_2
Bi0 O1 2.651570 1_546
Bi0 O0 2.651570 1_456
Bi0 O0 2.651570 1_556
Bi0 O1 2.651570 1_556
Bi0 O4 2.786622 1_455
Bi0 O4 2.786622 1_555
Bi0 O4 2.786622 1_445
Bi0 O4 2.786622 1_545
Bi1 O1 2.651570 1_545
Bi1 O0 2.651570 1_455
Bi1 O0 2.651570 1_555
Bi1 O1 2.651570 1_555
Bi1 O5 2.786622 1_445
Bi1 O5 2.786622 1_545
Bi1 O5 2.786622 1_455
Bi1 O5 2.786622 1_555
O0 Zn0 1.959305 1_555
O0 Zn0 1.959305 1_545
O1 Zn0 1.959305 1_555
O1 Zn0 1.959305 1_455
O2 Ti0 1.959305 1_555
O2 Ti0 1.959305 1_545
O3 Ti0 1.959305 1_555
O3 Ti0 1.959305 1_455
O4 Ti0 1.946570 1_555
O4 Zn0 2.082428 1_556
O5 Ti0 1.946570 1_555
O5 Zn0 2.082428 1_555
