# generated using pymatgen
data_Ce9In2Cu
_symmetry_space_group_name_H-M   'P 1'
_cell_length_a   5.56913400
_cell_length_b   10.90864900
_cell_length_c   10.90864900
_cell_angle_alpha   90.00000000
_cell_angle_beta   90.00000000
_cell_angle_gamma   90.00000000
_symmetry_Int_Tables_number   1
_chemical_formula_structural   Ce9In2Cu
_chemical_formula_sum   'Ce18 In4 Cu2'
_cell_volume   662.71927733
_cell_formula_units_Z   2
loop_
 _symmetry_equiv_pos_site_id
 _symmetry_equiv_pos_as_xyz
  1  'x, y, z'
loop_
 _atom_site_type_symbol
 _atom_site_label
 _atom_site_symmetry_multiplicity
 _atom_site_fract_x
 _atom_site_fract_y
 _atom_site_fract_z
 _atom_site_occupancy
  Ce  Ce0  1  0.50000000  0.00000000  0.50000000  1
  Ce  Ce1  1  0.50000000  0.50000000  0.00000000  1
  Ce  Ce2  1  0.50000000  0.04073200  0.18210600  1
  Ce  Ce3  1  0.50000000  0.95926800  0.81789400  1
  Ce  Ce4  1  0.50000000  0.81789400  0.04073200  1
  Ce  Ce5  1  0.50000000  0.45926800  0.68210600  1
  Ce  Ce6  1  0.50000000  0.18210600  0.95926800  1
  Ce  Ce7  1  0.50000000  0.54073200  0.31789400  1
  Ce  Ce8  1  0.50000000  0.68210600  0.54073200  1
  Ce  Ce9  1  0.50000000  0.31789400  0.45926800  1
  Ce  Ce10  1  0.24243200  0.18316600  0.68316600  1
  Ce  Ce11  1  0.75756800  0.81683400  0.31683400  1
  Ce  Ce12  1  0.24243200  0.81683400  0.31683400  1
  Ce  Ce13  1  0.24243200  0.31683400  0.18316600  1
  Ce  Ce14  1  0.75756800  0.31683400  0.18316600  1
  Ce  Ce15  1  0.75756800  0.18316600  0.68316600  1
  Ce  Ce16  1  0.75756800  0.68316600  0.81683400  1
  Ce  Ce17  1  0.24243200  0.68316600  0.81683400  1
  In  In0  1  0.00000000  0.61700100  0.11700100  1
  In  In1  1  0.00000000  0.38299900  0.88299900  1
  In  In2  1  0.00000000  0.88299900  0.61700100  1
  In  In3  1  0.00000000  0.11700100  0.38299900  1
  Cu  Cu0  1  0.00000000  0.00000000  0.00000000  1
  Cu  Cu1  1  0.00000000  0.50000000  0.50000000  1
loop_
_geom_bond_atom_site_label_1
_geom_bond_atom_site_label_2
_geom_bond_distance
_geom_bond_site_symmetry_2
Ce0 Ce15 3.168966 1_555
Ce0 Ce10 3.168966 1_555
Ce0 Ce11 3.168966 1_545
Ce0 Ce12 3.168966 1_545
Ce0 In3 3.318405 1_655
Ce0 In2 3.318405 1_645
Ce0 In3 3.318405 1_555
Ce0 In2 3.318405 1_545
Ce0 Ce2 3.496144 1_555
Ce0 Ce3 3.496144 1_545
Ce0 Ce8 3.496144 1_545
Ce0 Ce9 3.496144 1_555
Ce1 Ce16 3.168966 1_554
Ce1 Ce17 3.168966 1_554
Ce1 Ce14 3.168966 1_555
Ce1 Ce13 3.168966 1_555
Ce1 In1 3.318405 1_554
Ce1 In1 3.318405 1_654
Ce1 In0 3.318405 1_655
Ce1 In0 3.318405 1_555
Ce1 Ce7 3.496144 1_555
Ce1 Ce4 3.496144 1_555
Ce1 Ce6 3.496144 1_554
Ce1 Ce5 3.496144 1_554
Ce2 Ce4 2.878796 1_545
Ce2 Ce6 2.878796 1_554
Ce2 Cu0 3.449282 1_655
Ce2 Cu0 3.449282 1_555
Ce2 In3 3.639858 1_655
Ce2 In3 3.639858 1_555
Ce3 Ce4 2.878796 1_556
Ce3 Ce6 2.878796 1_565
Ce3 Cu0 3.449282 1_666
Ce3 Cu0 3.449282 1_566
Ce3 In2 3.639858 1_555
Ce3 In2 3.639858 1_655
Ce4 Cu0 3.449282 1_665
Ce4 Cu0 3.449282 1_565
Ce4 In0 3.639858 1_655
Ce4 In0 3.639858 1_555
Ce5 Ce9 2.878796 1_555
Ce5 Ce8 2.878796 1_555
Ce5 Cu1 3.449282 1_555
Ce5 Cu1 3.449282 1_655
Ce5 In1 3.639858 1_555
Ce5 In1 3.639858 1_655
Ce6 Cu0 3.449282 1_656
Ce6 Cu0 3.449282 1_556
Ce6 In1 3.639858 1_655
Ce6 In1 3.639858 1_555
Ce7 Ce9 2.878796 1_555
Ce7 Ce8 2.878796 1_555
Ce7 Cu1 3.449282 1_555
Ce7 Cu1 3.449282 1_655
Ce7 In0 3.639858 1_655
Ce7 In0 3.639858 1_555
Ce8 Cu1 3.449282 1_555
Ce8 Cu1 3.449282 1_655
Ce8 In2 3.639858 1_555
Ce8 In2 3.639858 1_655
Ce9 Cu1 3.449282 1_555
Ce9 Cu1 3.449282 1_655
Ce9 In3 3.639858 1_555
Ce9 In3 3.639858 1_655
Ce10 Ce15 2.700273 1_455
Ce10 Ce15 2.868861 1_555
Ce10 Ce9 3.191089 1_555
Ce10 Ce3 3.191089 1_545
Ce10 Ce5 3.336055 1_555
Ce10 Ce6 3.336055 1_555
Ce10 In1 3.365541 1_555
Ce10 In3 3.614640 1_555
Ce10 In2 3.614640 1_545
Ce11 Ce12 2.700273 1_655
Ce11 Ce12 2.868861 1_555
Ce11 Ce8 3.191089 1_555
Ce11 Ce2 3.191089 1_565
Ce11 Ce7 3.336055 1_555
Ce11 Ce4 3.336055 1_555
Ce11 In0 3.365541 1_655
Ce11 In3 3.614640 1_665
Ce11 In2 3.614640 1_655
Ce12 Ce8 3.191089 1_555
Ce12 Ce2 3.191089 1_565
Ce12 Ce7 3.336055 1_555
Ce12 Ce4 3.336055 1_555
Ce12 In0 3.365541 1_555
Ce12 In3 3.614640 1_565
Ce12 In2 3.614640 1_555
Ce13 Ce14 2.700273 1_455
Ce13 Ce14 2.868861 1_555
Ce13 Ce6 3.191089 1_554
Ce13 Ce7 3.191089 1_555
Ce13 Ce9 3.336055 1_555
Ce13 Ce2 3.336055 1_555
Ce13 In3 3.365541 1_555
Ce13 In0 3.614640 1_555
Ce13 In1 3.614640 1_554
Ce14 Ce6 3.191089 1_554
Ce14 Ce7 3.191089 1_555
Ce14 Ce9 3.336055 1_555
Ce14 Ce2 3.336055 1_555
Ce14 In3 3.365541 1_655
Ce14 In0 3.614640 1_655
Ce14 In1 3.614640 1_654
Ce15 Ce9 3.191089 1_555
Ce15 Ce3 3.191089 1_545
Ce15 Ce5 3.336055 1_555
Ce15 Ce6 3.336055 1_555
Ce15 In1 3.365541 1_655
Ce15 In3 3.614640 1_655
Ce15 In2 3.614640 1_645
Ce16 Ce17 2.700273 1_655
Ce16 Ce17 2.868861 1_555
Ce16 Ce5 3.191089 1_555
Ce16 Ce4 3.191089 1_556
Ce16 Ce8 3.336055 1_555
Ce16 Ce3 3.336055 1_555
Ce16 In2 3.365541 1_655
Ce16 In1 3.614640 1_655
Ce16 In0 3.614640 1_656
Ce17 Ce5 3.191089 1_555
Ce17 Ce4 3.191089 1_556
Ce17 Ce8 3.336055 1_555
Ce17 Ce3 3.336055 1_555
Ce17 In2 3.365541 1_555
Ce17 In1 3.614640 1_555
Ce17 In0 3.614640 1_556
