# generated using pymatgen
data_Ag3As
_symmetry_space_group_name_H-M   'P 1'
_cell_length_a   5.94003953
_cell_length_b   5.94003953
_cell_length_c   4.80040700
_cell_angle_alpha   90.00000000
_cell_angle_beta   90.00000000
_cell_angle_gamma   119.99999480
_symmetry_Int_Tables_number   1
_chemical_formula_structural   Ag3As
_chemical_formula_sum   'Ag6 As2'
_cell_volume   146.68556755
_cell_formula_units_Z   2
loop_
 _symmetry_equiv_pos_site_id
 _symmetry_equiv_pos_as_xyz
  1  'x, y, z'
loop_
 _atom_site_type_symbol
 _atom_site_label
 _atom_site_symmetry_multiplicity
 _atom_site_fract_x
 _atom_site_fract_y
 _atom_site_fract_z
 _atom_site_occupancy
  Ag  Ag0  1  0.16659900  0.33319800  0.25000000  1
  Ag  Ag1  1  0.66680200  0.83340100  0.25000000  1
  Ag  Ag2  1  0.16659900  0.83340100  0.25000000  1
  Ag  Ag3  1  0.83340100  0.66680200  0.75000000  1
  Ag  Ag4  1  0.33319800  0.16659900  0.75000000  1
  Ag  Ag5  1  0.83340100  0.16659900  0.75000000  1
  As  As0  1  0.33333300  0.66666700  0.75000000  1
  As  As1  1  0.66666700  0.33333300  0.25000000  1
loop_
_geom_bond_atom_site_label_1
_geom_bond_atom_site_label_2
_geom_bond_distance
_geom_bond_site_symmetry_2
Ag0 Ag4 2.949395 1_554
Ag0 Ag4 2.949395 1_555
Ag0 Ag5 2.949395 1_455
Ag0 Ag5 2.949395 1_454
Ag0 As0 2.950205 1_554
Ag0 As0 2.950205 1_555
Ag0 Ag2 2.968814 1_545
Ag0 Ag1 2.968814 1_445
Ag0 As1 2.970017 1_455
Ag0 As1 2.970023 1_555
Ag0 Ag2 2.971226 1_555
Ag0 Ag1 2.971226 1_555
Ag1 Ag3 2.949395 1_554
Ag1 Ag3 2.949395 1_555
Ag1 Ag5 2.949395 1_564
Ag1 Ag5 2.949395 1_565
Ag1 As0 2.950205 1_554
Ag1 As0 2.950205 1_555
Ag1 Ag2 2.968814 1_655
Ag1 As1 2.970017 1_565
Ag1 As1 2.970023 1_555
Ag1 Ag2 2.971226 1_555
Ag2 Ag3 2.949395 1_454
Ag2 Ag3 2.949395 1_455
Ag2 Ag4 2.949395 1_565
Ag2 Ag4 2.949395 1_564
Ag2 As0 2.950202 1_555
Ag2 As0 2.950202 1_554
Ag2 As1 2.970020 1_455
Ag2 As1 2.970020 1_565
Ag3 As1 2.950205 1_556
Ag3 As1 2.950205 1_555
Ag3 Ag5 2.968814 1_565
Ag3 Ag4 2.968814 1_665
Ag3 As0 2.970017 1_655
Ag3 As0 2.970023 1_555
Ag3 Ag5 2.971226 1_555
Ag3 Ag4 2.971226 1_555
Ag4 As1 2.950205 1_556
Ag4 As1 2.950205 1_555
Ag4 Ag5 2.968814 1_455
Ag4 As0 2.970017 1_545
Ag4 As0 2.970023 1_555
Ag4 Ag5 2.971226 1_555
Ag5 As1 2.950202 1_556
Ag5 As1 2.950202 1_555
Ag5 As0 2.970020 1_545
Ag5 As0 2.970020 1_655
