# generated using pymatgen
data_LuN7O15
_symmetry_space_group_name_H-M   'P 1'
_cell_length_a   11.16375797
_cell_length_b   11.16375797
_cell_length_c   9.30528400
_cell_angle_alpha   90.00000000
_cell_angle_beta   90.00000000
_cell_angle_gamma   119.99999985
_symmetry_Int_Tables_number   1
_chemical_formula_structural   LuN7O15
_chemical_formula_sum   'Lu3 N21 O45'
_cell_volume   1004.34076376
_cell_formula_units_Z   3
loop_
 _symmetry_equiv_pos_site_id
 _symmetry_equiv_pos_as_xyz
  1  'x, y, z'
loop_
 _atom_site_type_symbol
 _atom_site_label
 _atom_site_symmetry_multiplicity
 _atom_site_fract_x
 _atom_site_fract_y
 _atom_site_fract_z
 _atom_site_occupancy
  Lu  Lu0  1  0.32909200  0.32909200  0.00000000  1
  Lu  Lu1  1  0.67090800  0.00000000  0.33333300  1
  Lu  Lu2  1  0.00000000  0.67090800  0.66666700  1
  N  N0  1  0.73782900  0.10051700  0.04255100  1
  N  N1  1  0.89948300  0.63731200  0.37588400  1
  N  N2  1  0.36268800  0.26217100  0.70921800  1
  N  N3  1  0.07938600  0.07938600  0.00000000  1
  N  N4  1  0.92061400  0.00000000  0.33333300  1
  N  N5  1  0.00000000  0.92061400  0.66666700  1
  N  N6  1  0.66424100  0.24898000  0.39527000  1
  N  N7  1  0.75102000  0.41526000  0.72860400  1
  N  N8  1  0.58474000  0.33575900  0.06193700  1
  N  N9  1  0.00000000  0.45496600  0.16666700  1
  N  N10  1  0.54503400  0.54503400  0.50000000  1
  N  N11  1  0.45496600  0.00000000  0.83333300  1
  N  N12  1  0.33575900  0.58474000  0.93806300  1
  N  N13  1  0.41526000  0.75102000  0.27139600  1
  N  N14  1  0.24898000  0.66424100  0.60473000  1
  N  N15  1  0.26217100  0.36268800  0.29078200  1
  N  N16  1  0.63731200  0.89948300  0.62411600  1
  N  N17  1  0.10051700  0.73782900  0.95744900  1
  N  N18  1  0.72708800  0.72708800  0.00000000  1
  N  N19  1  0.27291200  0.00000000  0.33333300  1
  N  N20  1  0.00000000  0.27291200  0.66666700  1
  O  O0  1  0.17566500  0.33435700  0.18670300  1
  O  O1  1  0.66564300  0.84130900  0.52003700  1
  O  O2  1  0.15869100  0.82433500  0.85337000  1
  O  O3  1  0.23028900  0.37328100  0.41592600  1
  O  O4  1  0.62671900  0.85700800  0.74925900  1
  O  O5  1  0.14299200  0.76971100  0.08259300  1
  O  O6  1  0.43597200  0.57324000  0.97697600  1
  O  O7  1  0.42676000  0.86273200  0.31030900  1
  O  O8  1  0.13726800  0.56402800  0.64364200  1
  O  O9  1  0.62346800  0.00313800  0.59013300  1
  O  O10  1  0.99686200  0.62033000  0.92346600  1
  O  O11  1  0.37967000  0.37653200  0.25680000  1
  O  O12  1  0.21859900  0.46730500  0.92271400  1
  O  O13  1  0.53269500  0.75129400  0.25604700  1
  O  O14  1  0.24870600  0.78140100  0.58938000  1
  O  O15  1  0.89900200  0.08491100  0.40665500  1
  O  O16  1  0.91508900  0.81409100  0.73998800  1
  O  O17  1  0.18590900  0.10099800  0.07332100  1
  O  O18  1  0.76971100  0.14299200  0.91740700  1
  O  O19  1  0.85700800  0.62671900  0.25074100  1
  O  O20  1  0.37328100  0.23028900  0.58407400  1
  O  O21  1  0.82433500  0.15869100  0.14663000  1
  O  O22  1  0.84130900  0.66564300  0.47996300  1
  O  O23  1  0.33435700  0.17566500  0.81329700  1
  O  O24  1  0.30223300  0.64315000  0.25049700  1
  O  O25  1  0.35685000  0.65908300  0.58383000  1
  O  O26  1  0.34091700  0.69776700  0.91716300  1
  O  O27  1  0.56402800  0.13726800  0.35635800  1
  O  O28  1  0.86273200  0.42676000  0.68969100  1
  O  O29  1  0.57324000  0.43597200  0.02302400  1
  O  O30  1  0.00000000  0.02879000  0.66666700  1
  O  O31  1  0.97121000  0.97121000  0.00000000  1
  O  O32  1  0.02879000  0.00000000  0.33333300  1
  O  O33  1  0.62033000  0.99686200  0.07653400  1
  O  O34  1  0.00313800  0.62346800  0.40986700  1
  O  O35  1  0.37653200  0.37967000  0.74320000  1
  O  O36  1  0.69776700  0.34091700  0.08283700  1
  O  O37  1  0.65908300  0.35685000  0.41617000  1
  O  O38  1  0.64315000  0.30223300  0.74950300  1
  O  O39  1  0.10099800  0.18590900  0.92667900  1
  O  O40  1  0.81409100  0.91508900  0.26001200  1
  O  O41  1  0.08491100  0.89900200  0.59334500  1
  O  O42  1  0.78140100  0.24870600  0.41062000  1
  O  O43  1  0.75129400  0.53269500  0.74395300  1
  O  O44  1  0.46730500  0.21859900  0.07728600  1
loop_
_geom_bond_atom_site_label_1
_geom_bond_atom_site_label_2
_geom_bond_distance
_geom_bond_site_symmetry_2
Lu0 O17 2.331171 1_555
Lu0 O39 2.331171 1_554
Lu0 O29 2.376212 1_555
Lu0 O6 2.376212 1_554
Lu0 O35 2.451620 1_554
Lu0 O11 2.451620 1_555
Lu0 O0 2.460932 1_555
Lu0 O23 2.460932 1_554
Lu0 O44 2.514524 1_555
Lu0 O12 2.514524 1_554
Lu1 O40 2.331171 1_545
Lu1 O15 2.331173 1_555
Lu1 O7 2.376212 1_545
Lu1 O27 2.376212 1_555
Lu1 O33 2.451611 1_545
Lu1 O9 2.451620 1_555
Lu1 O21 2.460928 1_555
Lu1 O1 2.460930 1_545
Lu1 O13 2.514524 1_545
Lu1 O42 2.514527 1_555
Lu2 O16 2.331171 1_455
Lu2 O41 2.331173 1_555
Lu2 O28 2.376212 1_455
Lu2 O8 2.376212 1_555
Lu2 O10 2.451611 1_455
Lu2 O34 2.451620 1_555
Lu2 O2 2.460928 1_555
Lu2 O22 2.460930 1_455
Lu2 O43 2.514524 1_455
Lu2 O14 2.514527 1_555
N0 O18 1.240491 1_554
N0 O33 1.281323 1_545
N0 O21 1.290422 1_555
N1 O19 1.240482 1_555
N1 O34 1.281323 1_655
N1 O22 1.290416 1_555
N2 O20 1.240491 1_555
N2 O35 1.281321 1_555
N2 O23 1.290423 1_555
N3 O31 1.207651 1_445
N3 O17 1.284904 1_555
N3 O39 1.284904 1_554
N4 O32 1.207651 1_655
N4 O40 1.284904 1_545
N4 O15 1.284909 1_555
N5 O30 1.207651 1_565
N5 O16 1.284904 1_455
N5 O41 1.284909 1_555
N6 O27 1.242100 1_555
N6 O37 1.249265 1_555
N6 O42 1.317245 1_555
N7 O28 1.242099 1_555
N7 O38 1.249257 1_555
N7 O43 1.317255 1_555
N8 O29 1.242109 1_555
N8 O36 1.249254 1_555
N8 O44 1.317250 1_555
N12 O6 1.242109 1_555
N12 O26 1.249254 1_555
N12 O12 1.317250 1_555
N13 O7 1.242099 1_555
N13 O24 1.249257 1_555
N13 O13 1.317255 1_555
N14 O8 1.242100 1_555
N14 O25 1.249265 1_555
N14 O14 1.317245 1_555
N15 O3 1.240491 1_555
N15 O11 1.281321 1_555
N15 O0 1.290423 1_555
N16 O4 1.240482 1_555
N16 O9 1.281323 1_565
N16 O1 1.290416 1_555
N17 O5 1.240491 1_556
N17 O10 1.281323 1_455
N17 O2 1.290422 1_555
