# generated using pymatgen
data_KDy2F7
_symmetry_space_group_name_H-M   'P 1'
_cell_length_a   8.28673432
_cell_length_b   8.28673432
_cell_length_c   12.06128985
_cell_angle_alpha   59.73020919
_cell_angle_beta   59.73020919
_cell_angle_gamma   58.40471473
_symmetry_Int_Tables_number   1
_chemical_formula_structural   KDy2F7
_chemical_formula_sum   'K4 Dy8 F28'
_cell_volume   575.96130879
_cell_formula_units_Z   4
loop_
 _symmetry_equiv_pos_site_id
 _symmetry_equiv_pos_as_xyz
  1  'x, y, z'
loop_
 _atom_site_type_symbol
 _atom_site_label
 _atom_site_symmetry_multiplicity
 _atom_site_fract_x
 _atom_site_fract_y
 _atom_site_fract_z
 _atom_site_occupancy
  K  K0  1  0.85639100  0.85639100  0.63274700  1
  K  K1  1  0.34928100  0.34928100  0.95805500  1
  K  K2  1  0.88153300  0.88153300  0.26487600  1
  K  K3  1  0.37950300  0.37950300  0.59390600  1
  Dy  Dy0  1  0.85925400  0.37835500  0.61146900  1
  Dy  Dy1  1  0.37835500  0.85925400  0.61146900  1
  Dy  Dy2  1  0.87640000  0.87640000  0.93331300  1
  Dy  Dy3  1  0.35866900  0.35866900  0.29025900  1
  Dy  Dy4  1  0.87828700  0.35281200  0.29385900  1
  Dy  Dy5  1  0.35281200  0.87828700  0.29385900  1
  Dy  Dy6  1  0.88109900  0.35579000  0.93182900  1
  Dy  Dy7  1  0.35579000  0.88109900  0.93182900  1
  F  F0  1  0.76181900  0.23915800  0.84854000  1
  F  F1  1  0.23915800  0.76181900  0.84854000  1
  F  F2  1  0.78521300  0.24908600  0.52784600  1
  F  F3  1  0.24908600  0.78521300  0.52784600  1
  F  F4  1  0.62400700  0.62400700  0.88147900  1
  F  F5  1  0.01309800  0.01309800  0.36116300  1
  F  F6  1  0.72376400  0.72376400  0.53605100  1
  F  F7  1  0.94528100  0.61329300  0.11156100  1
  F  F8  1  0.61329300  0.94528100  0.11156100  1
  F  F9  1  0.21997900  0.21997900  0.86248100  1
  F  F10  1  0.28578300  0.62112200  0.11276500  1
  F  F11  1  0.62112200  0.28578300  0.11276500  1
  F  F12  1  0.00174200  0.47024500  0.37514300  1
  F  F13  1  0.47024500  0.00174200  0.37514300  1
  F  F14  1  0.93696900  0.29517000  0.11310800  1
  F  F15  1  0.29517000  0.93696900  0.11310800  1
  F  F16  1  0.61517000  0.61517000  0.34906900  1
  F  F17  1  0.01424000  0.01424000  0.70008200  1
  F  F18  1  0.96337800  0.61886600  0.87321000  1
  F  F19  1  0.61886600  0.96337800  0.87321000  1
  F  F20  1  0.27805700  0.61423400  0.35056100  1
  F  F21  1  0.61423400  0.27805700  0.35056100  1
  F  F22  1  0.23036300  0.23036300  0.22992100  1
  F  F23  1  0.51451900  0.51451900  0.68301000  1
  F  F24  1  0.22482200  0.22482200  0.52516200  1
  F  F25  1  0.98124900  0.45774100  0.69663800  1
  F  F26  1  0.45774100  0.98124900  0.69663800  1
  F  F27  1  0.00356100  0.00356100  0.99256700  1
loop_
_geom_bond_atom_site_label_1
_geom_bond_atom_site_label_2
_geom_bond_distance
_geom_bond_site_symmetry_2
Dy0 F25 2.221506 1_555
Dy0 F2 2.223294 1_555
Dy0 F23 2.301636 1_555
Dy0 F6 2.306124 1_555
Dy0 F12 2.336599 1_655
Dy0 F0 2.341319 1_555
Dy0 F17 2.442983 1_655
Dy0 F24 2.448846 1_655
Dy1 F26 2.221506 1_555
Dy1 F3 2.223294 1_555
Dy1 F23 2.301636 1_555
Dy1 F6 2.306124 1_555
Dy1 F13 2.336599 1_565
Dy1 F1 2.341319 1_555
Dy1 F17 2.442983 1_565
Dy1 F24 2.448846 1_565
Dy2 F7 2.215649 1_556
Dy2 F8 2.215649 1_556
Dy2 F19 2.240670 1_555
Dy2 F18 2.240670 1_555
Dy2 F17 2.326189 1_665
Dy2 F27 2.326692 1_665
Dy2 F1 2.423385 1_655
Dy2 F0 2.423385 1_565
Dy3 F10 2.216112 1_555
Dy3 F11 2.216112 1_555
Dy3 F21 2.245212 1_555
Dy3 F20 2.245212 1_555
Dy3 F24 2.332498 1_555
Dy3 F22 2.352717 1_555
Dy3 F13 2.384814 1_555
Dy3 F12 2.384814 1_555
Dy4 F16 2.225501 1_555
Dy4 F14 2.226004 1_555
Dy4 F7 2.245506 1_555
Dy4 F21 2.263621 1_555
Dy4 F5 2.268693 1_655
Dy4 F2 2.313677 1_555
Dy4 F22 2.356914 1_655
Dy4 F12 2.443545 1_655
Dy5 F16 2.225501 1_555
Dy5 F15 2.226004 1_555
Dy5 F8 2.245506 1_555
Dy5 F20 2.263621 1_555
Dy5 F5 2.268693 1_565
Dy5 F3 2.313677 1_555
Dy5 F22 2.356914 1_565
Dy5 F13 2.443545 1_565
Dy6 F4 2.197634 1_555
Dy6 F14 2.217394 1_556
Dy6 F11 2.243612 1_556
Dy6 F9 2.263104 1_655
Dy6 F18 2.288005 1_555
Dy6 F25 2.322632 1_555
Dy6 F27 2.361383 1_655
Dy6 F0 2.429238 1_555
Dy7 F4 2.197634 1_555
Dy7 F15 2.217394 1_556
Dy7 F10 2.243612 1_556
Dy7 F9 2.263104 1_565
Dy7 F19 2.288005 1_555
Dy7 F26 2.322632 1_555
Dy7 F27 2.361383 1_565
Dy7 F1 2.429238 1_555
F0 K1 2.767354 1_555
F1 K1 2.767354 1_555
F2 K0 2.669944 1_545
F2 K3 2.732446 1_555
F3 K0 2.669944 1_455
F3 K3 2.732446 1_555
F4 K0 2.941788 1_555
F5 K0 2.700522 1_445
F5 K2 2.743064 1_445
F6 K2 2.699130 1_555
F6 K0 2.761547 1_555
F9 K3 2.680555 1_555
F9 K1 2.705264 1_555
F12 K2 2.754190 1_455
F13 K2 2.754190 1_545
F16 K3 2.952368 1_555
F17 K0 2.831324 1_445
F18 K0 2.842628 1_555
F18 K1 3.126184 1_655
F19 K0 2.842628 1_555
F19 K1 3.126184 1_565
F20 K3 2.850138 1_555
F21 K3 2.850138 1_555
F22 K1 2.682660 1_554
F23 K3 2.719327 1_555
F23 K1 2.749675 1_555
F24 K3 2.799643 1_555
F25 K0 2.689495 1_555
F25 K3 2.700459 1_655
F26 K0 2.689495 1_555
F26 K3 2.700459 1_565
F27 K2 2.684638 1_446
