# generated using pymatgen
data_Mg4Si3
_symmetry_space_group_name_H-M   'P 1'
_cell_length_a   5.85980000
_cell_length_b   7.64591097
_cell_length_c   12.52182146
_cell_angle_alpha   84.50526088
_cell_angle_beta   83.90181643
_cell_angle_gamma   72.67189795
_symmetry_Int_Tables_number   1
_chemical_formula_structural   Mg4Si3
_chemical_formula_sum   'Mg16 Si12'
_cell_volume   531.31277855
_cell_formula_units_Z   4
loop_
 _symmetry_equiv_pos_site_id
 _symmetry_equiv_pos_as_xyz
  1  'x, y, z'
loop_
 _atom_site_type_symbol
 _atom_site_label
 _atom_site_symmetry_multiplicity
 _atom_site_fract_x
 _atom_site_fract_y
 _atom_site_fract_z
 _atom_site_occupancy
  Mg  Mg0  1  0.99444600  0.28617300  0.97774400  1
  Mg  Mg1  1  0.50272200  0.31935900  0.89502500  1
  Mg  Mg2  1  0.67895500  0.09645700  0.46792700  1
  Mg  Mg3  1  0.58741900  0.76984000  0.24304200  1
  Mg  Mg4  1  0.92298700  0.94782100  0.81488100  1
  Mg  Mg5  1  0.39371900  0.94074800  0.91455000  1
  Mg  Mg6  1  0.85852800  0.43831600  0.40603000  1
  Mg  Mg7  1  0.07960800  0.75950100  0.36426700  1
  Mg  Mg8  1  0.92046500  0.62500900  0.59231400  1
  Mg  Mg9  1  0.31080500  0.62084500  0.73094300  1
  Mg  Mg10  1  0.79720600  0.13219100  0.23165200  1
  Mg  Mg11  1  0.25328900  0.09727800  0.35157700  1
  Mg  Mg12  1  0.50562400  0.94213000  0.67487100  1
  Mg  Mg13  1  0.71058500  0.28530900  0.66254700  1
  Mg  Mg14  1  0.54033500  0.47566100  0.10861100  1
  Mg  Mg15  1  0.05351700  0.47580800  0.17578100  1
  Si  Si0  1  0.17940400  0.23451100  0.57278500  1
  Si  Si1  1  0.51520500  0.78252600  0.47453100  1
  Si  Si2  1  0.20121300  0.65232800  0.96795200  1
  Si  Si3  1  0.74499300  0.03007700  0.03087400  1
  Si  Si4  1  0.77425500  0.55546300  0.80146600  1
  Si  Si5  1  0.16245400  0.29399700  0.76318500  1
  Si  Si6  1  0.40645700  0.40551400  0.32610900  1
  Si  Si7  1  0.14282800  0.84976700  0.12271400  1
  Si  Si8  1  0.40288500  0.49207200  0.50759600  1
  Si  Si9  1  0.08898000  0.93361100  0.58198900  1
  Si  Si10  1  0.78847100  0.67291800  0.97852300  1
  Si  Si11  1  0.33947800  0.10382200  0.12464200  1
loop_
_geom_bond_atom_site_label_1
_geom_bond_atom_site_label_2
_geom_bond_distance
_geom_bond_site_symmetry_2
Mg0 Si5 2.762848 1_655
Mg0 Si3 2.768086 1_556
Mg0 Si11 2.834606 1_656
Mg0 Si10 2.842152 1_555
Mg0 Si4 2.988084 1_555
Mg1 Si3 2.779088 1_556
Mg1 Si5 2.780224 1_555
Mg1 Si2 2.803539 1_555
Mg1 Si4 2.841300 1_555
Mg2 Si9 2.823034 1_645
Mg2 Si1 2.829495 1_545
Mg2 Si6 2.972928 1_555
Mg2 Si0 3.002548 1_555
Mg2 Si8 3.035706 1_555
Mg2 Mg6 3.101159 1_555
Mg2 Mg7 3.197523 1_645
Mg3 Si11 2.890045 1_565
Mg3 Si1 2.891282 1_555
Mg3 Si7 3.023260 1_555
Mg4 Si3 2.852028 1_566
Mg4 Si9 2.976136 1_655
Mg4 Si10 3.009479 1_555
Mg4 Si2 3.012773 1_655
Mg5 Si10 2.728327 1_555
Mg5 Si2 2.760771 1_555
Mg5 Si3 2.913785 1_566
Mg5 Si11 2.964940 1_566
Mg5 Si7 2.981173 1_556
Mg5 Si5 3.179439 1_565
Mg6 Si8 2.764074 1_555
Mg6 Si1 2.936187 1_555
Mg6 Si0 2.964690 1_655
Mg6 Si6 3.014788 1_555
Mg7 Si6 2.861348 1_555
Mg7 Si8 2.950046 1_555
Mg7 Si7 3.045772 1_555
Mg7 Si1 3.084748 1_555
Mg7 Si9 3.158824 1_555
Mg8 Si4 2.720976 1_555
Mg8 Si9 2.803859 1_655
Mg8 Si1 2.822299 1_555
Mg8 Si8 2.829752 1_655
Mg8 Si0 2.939204 1_655
Mg9 Si4 2.832167 1_555
Mg9 Si5 2.861862 1_555
Mg9 Si9 2.948975 1_555
Mg9 Si2 2.986284 1_555
Mg9 Si8 2.995397 1_555
Mg10 Si3 2.775889 1_555
Mg10 Si7 2.827979 1_645
Mg10 Si6 2.838413 1_555
Mg10 Mg2 2.971611 1_555
Mg11 Si6 2.741678 1_555
Mg11 Si11 2.831147 1_555
Mg11 Si1 2.847766 1_545
Mg11 Si0 2.998684 1_555
Mg11 Mg2 3.017495 1_555
Mg11 Si9 3.202078 1_545
Mg12 Si0 2.777061 1_565
Mg12 Si9 2.833752 1_555
Mg12 Si1 2.881153 1_555
Mg12 Mg2 2.950934 1_565
Mg12 Mg9 3.000102 1_555
Mg12 Mg5 3.002888 1_555
Mg12 Mg8 3.048279 1_555
Mg12 Si5 3.062550 1_565
Mg12 Mg4 3.169510 1_555
Mg12 Mg13 3.179866 1_565
Mg12 Si4 3.254477 1_555
Mg13 Si0 2.784453 1_655
Mg13 Si8 2.823612 1_555
Mg13 Si4 2.952420 1_555
Mg13 Mg2 2.997928 1_555
Mg13 Si5 3.071379 1_655
Mg13 Si9 3.107657 1_645
Mg14 Si10 2.715683 1_554
Mg14 Si2 2.750411 1_554
Mg14 Si6 2.799526 1_555
Mg14 Si7 3.111127 1_555
Mg15 Si6 2.842666 1_555
Mg15 Si11 2.930713 1_555
Mg15 Si2 2.981227 1_554
Mg15 Si7 3.056864 1_555
Mg15 Si10 3.080971 1_454
Si0 Si5 2.455885 1_555
Si0 Si9 2.499893 1_545
Si0 Si8 2.694548 1_555
Si1 Si8 2.484594 1_555
Si1 Si9 2.692205 1_555
Si2 Si7 2.502627 1_556
Si3 Si7 2.647505 1_645
Si4 Si5 2.577564 1_655
Si6 Si8 2.423341 1_555
Si10 Si2 2.366648 1_655
Si10 Si4 2.488768 1_555
Si10 Si3 2.800862 1_566
Si11 Si3 2.465547 1_555
Si11 Si7 2.539674 1_545
