# generated using pymatgen
data_K2TlRuF6
_symmetry_space_group_name_H-M   'P 1'
_cell_length_a   6.54007163
_cell_length_b   6.54007163
_cell_length_c   6.54007163
_cell_angle_alpha   60.00000000
_cell_angle_beta   60.00000000
_cell_angle_gamma   60.00000000
_symmetry_Int_Tables_number   1
_chemical_formula_structural   K2TlRuF6
_chemical_formula_sum   'K2 Tl1 Ru1 F6'
_cell_volume   197.80283750
_cell_formula_units_Z   1
loop_
 _symmetry_equiv_pos_site_id
 _symmetry_equiv_pos_as_xyz
  1  'x, y, z'
loop_
 _atom_site_type_symbol
 _atom_site_label
 _atom_site_symmetry_multiplicity
 _atom_site_fract_x
 _atom_site_fract_y
 _atom_site_fract_z
 _atom_site_occupancy
  K  K0  1  0.25000000  0.25000000  0.25000000  1
  K  K1  1  0.75000000  0.75000000  0.75000000  1
  Tl  Tl0  1  0.50000000  0.50000000  0.50000000  1
  Ru  Ru0  1  0.00000000  0.00000000  0.00000000  1
  F  F0  1  0.21901300  0.21901300  0.78098700  1
  F  F1  1  0.21901300  0.78098700  0.78098700  1
  F  F2  1  0.78098700  0.78098700  0.21901300  1
  F  F3  1  0.21901300  0.78098700  0.21901300  1
  F  F4  1  0.78098700  0.21901300  0.78098700  1
  F  F5  1  0.78098700  0.21901300  0.21901300  1
loop_
_geom_bond_atom_site_label_1
_geom_bond_atom_site_label_2
_geom_bond_distance
_geom_bond_site_symmetry_2
F0 Ru0 2.025664 1_556
F0 Tl0 2.598865 1_555
F0 K0 3.282571 1_555
F0 K1 3.282571 1_545
F0 K1 3.282571 1_455
F0 K0 3.282571 1_556
F1 Ru0 2.025664 1_566
F1 Tl0 2.598865 1_555
F1 K1 3.282571 1_455
F1 K0 3.282571 1_556
F1 K0 3.282571 1_565
F1 K1 3.282571 1_555
F2 Ru0 2.025664 1_665
F2 Tl0 2.598865 1_555
F2 K1 3.282571 1_554
F2 K0 3.282571 1_655
F2 K0 3.282571 1_565
F2 K1 3.282571 1_555
F3 Ru0 2.025664 1_565
F3 Tl0 2.598865 1_555
F3 K0 3.282571 1_555
F3 K1 3.282571 1_455
F3 K1 3.282571 1_554
F3 K0 3.282571 1_565
F4 Ru0 2.025664 1_656
F4 Tl0 2.598865 1_555
F4 K1 3.282571 1_545
F4 K0 3.282571 1_556
F4 K0 3.282571 1_655
F4 K1 3.282571 1_555
F5 Ru0 2.025664 1_655
F5 Tl0 2.598865 1_555
F5 K0 3.282571 1_555
F5 K1 3.282571 1_554
F5 K1 3.282571 1_545
F5 K0 3.282571 1_655
