# generated using pymatgen
data_Ba2GdSbO6
_symmetry_space_group_name_H-M   'P 1'
_cell_length_a   8.57713516
_cell_length_b   8.57713516
_cell_length_c   8.57713516
_cell_angle_alpha   90.00000000
_cell_angle_beta   90.00000000
_cell_angle_gamma   90.00000000
_symmetry_Int_Tables_number   1
_chemical_formula_structural   Ba2GdSbO6
_chemical_formula_sum   'Ba8 Gd4 Sb4 O24'
_cell_volume   630.99622561
_cell_formula_units_Z   4
loop_
 _symmetry_equiv_pos_site_id
 _symmetry_equiv_pos_as_xyz
  1  'x, y, z'
loop_
 _atom_site_type_symbol
 _atom_site_label
 _atom_site_symmetry_multiplicity
 _atom_site_fract_x
 _atom_site_fract_y
 _atom_site_fract_z
 _atom_site_occupancy
  Ba  Ba0  1  0.50000000  0.50000000  0.50000000  1
  Ba  Ba1  1  0.00000000  -0.00000000  0.00000000  1
  Ba  Ba2  1  0.00000000  -0.00000000  0.50000000  1
  Ba  Ba3  1  0.00000000  0.50000000  0.00000000  1
  Ba  Ba4  1  0.50000000  -0.00000000  0.00000000  1
  Ba  Ba5  1  0.50000000  0.50000000  0.00000000  1
  Ba  Ba6  1  0.50000000  -0.00000000  0.50000000  1
  Ba  Ba7  1  0.00000000  0.50000000  0.50000000  1
  Gd  Gd0  1  0.75000000  0.75000000  0.75000000  1
  Gd  Gd1  1  0.75000000  0.25000000  0.25000000  1
  Gd  Gd2  1  0.25000000  0.75000000  0.25000000  1
  Gd  Gd3  1  0.25000000  0.25000000  0.75000000  1
  Sb  Sb0  1  0.25000000  0.25000000  0.25000000  1
  Sb  Sb1  1  0.25000000  0.75000000  0.75000000  1
  Sb  Sb2  1  0.75000000  0.25000000  0.75000000  1
  Sb  Sb3  1  0.75000000  0.75000000  0.25000000  1
  O  O0  1  0.24229211  0.25821043  0.48508802  1
  O  O1  1  0.24229211  0.74178957  0.51491198  1
  O  O2  1  0.75770789  0.25821043  0.51491198  1
  O  O3  1  0.75770789  0.74178957  0.48508802  1
  O  O4  1  0.25821043  0.48508802  0.24229211  1
  O  O5  1  0.74178957  0.51491198  0.24229211  1
  O  O6  1  0.25821043  0.51491198  0.75770789  1
  O  O7  1  0.74178957  0.48508802  0.75770789  1
  O  O8  1  0.48508802  0.24229211  0.25821043  1
  O  O9  1  0.51491198  0.24229211  0.74178957  1
  O  O10  1  0.51491198  0.75770789  0.25821043  1
  O  O11  1  0.48508802  0.75770789  0.74178957  1
  O  O12  1  0.25770789  0.24178957  0.01491198  1
  O  O13  1  0.25770789  0.75821043  0.98508802  1
  O  O14  1  0.74229211  0.24178957  0.98508802  1
  O  O15  1  0.74229211  0.75821043  0.01491198  1
  O  O16  1  0.24178957  0.01491198  0.25770789  1
  O  O17  1  0.75821043  0.98508802  0.25770789  1
  O  O18  1  0.24178957  0.98508802  0.74229211  1
  O  O19  1  0.75821043  0.01491198  0.74229211  1
  O  O20  1  0.01491198  0.25770789  0.24178957  1
  O  O21  1  0.98508802  0.25770789  0.75821043  1
  O  O22  1  0.98508802  0.74229211  0.24178957  1
  O  O23  1  0.01491198  0.74229211  0.75821043  1
loop_
_geom_bond_atom_site_label_1
_geom_bond_atom_site_label_2
_geom_bond_distance
_geom_bond_site_symmetry_2
Ba0 O0 3.033663 1_555
Ba0 O1 3.033663 1_555
Ba0 O4 3.033663 1_555
Ba0 O5 3.033663 1_555
Ba0 O11 3.033663 1_555
Ba0 O6 3.033663 1_555
Ba0 O8 3.033663 1_555
Ba0 O7 3.033663 1_555
Ba0 O9 3.033663 1_555
Ba0 O10 3.033663 1_555
Ba0 O2 3.033663 1_555
Ba0 O3 3.033663 1_555
Ba1 O22 3.033663 1_445
Ba1 O18 3.033663 1_544
Ba1 O14 3.033663 1_454
Ba1 O23 3.033663 1_544
Ba1 O19 3.033663 1_454
Ba1 O15 3.033663 1_445
Ba1 O21 3.033663 1_454
Ba1 O12 3.033663 1_555
Ba1 O16 3.033663 1_555
Ba1 O13 3.033663 1_544
Ba1 O17 3.033663 1_445
Ba1 O20 3.033663 1_555
Ba2 O16 2.938718 1_555
Ba2 O17 2.938718 1_445
Ba2 O19 2.938718 1_455
Ba2 O18 2.938718 1_545
Ba2 O2 3.039750 1_455
Ba2 O3 3.039750 1_445
Ba2 O1 3.039750 1_545
Ba2 O0 3.039750 1_555
Ba2 O23 3.131633 1_545
Ba2 O22 3.131633 1_445
Ba2 O20 3.131633 1_555
Ba2 O21 3.131633 1_455
Ba3 O21 2.938718 1_454
Ba3 O20 2.938718 1_555
Ba3 O22 2.938718 1_455
Ba3 O23 2.938718 1_554
Ba3 O6 3.039750 1_554
Ba3 O7 3.039750 1_454
Ba3 O4 3.039750 1_555
Ba3 O5 3.039750 1_455
Ba3 O15 3.131633 1_455
Ba3 O14 3.131633 1_454
Ba3 O12 3.131633 1_555
Ba3 O13 3.131633 1_554
Ba4 O12 2.938718 1_555
Ba4 O13 2.938718 1_544
Ba4 O15 2.938718 1_545
Ba4 O14 2.938718 1_554
Ba4 O10 3.039750 1_545
Ba4 O11 3.039750 1_544
Ba4 O9 3.039750 1_554
Ba4 O8 3.039750 1_555
Ba4 O18 3.131633 1_544
Ba4 O19 3.131633 1_554
Ba4 O16 3.131633 1_555
Ba4 O17 3.131633 1_545
Ba5 O7 2.938718 1_554
Ba5 O6 2.938718 1_554
Ba5 O4 2.938718 1_555
Ba5 O5 2.938718 1_555
Ba5 O15 3.039750 1_555
Ba5 O12 3.039750 1_555
Ba5 O14 3.039750 1_554
Ba5 O13 3.039750 1_554
Ba5 O9 3.131633 1_554
Ba5 O8 3.131633 1_555
Ba5 O11 3.131633 1_554
Ba5 O10 3.131633 1_555
Ba6 O10 2.938718 1_545
Ba6 O11 2.938718 1_545
Ba6 O9 2.938718 1_555
Ba6 O8 2.938718 1_555
Ba6 O19 3.039750 1_555
Ba6 O17 3.039750 1_545
Ba6 O16 3.039750 1_555
Ba6 O18 3.039750 1_545
Ba6 O0 3.131633 1_555
Ba6 O1 3.131633 1_545
Ba6 O2 3.131633 1_555
Ba6 O3 3.131633 1_545
Ba7 O2 2.938718 1_455
Ba7 O3 2.938718 1_455
Ba7 O0 2.938718 1_555
Ba7 O1 2.938718 1_555
Ba7 O21 3.039750 1_455
Ba7 O23 3.039750 1_555
Ba7 O22 3.039750 1_455
Ba7 O20 3.039750 1_555
Ba7 O4 3.131633 1_555
Ba7 O5 3.131633 1_455
Ba7 O6 3.131633 1_555
Ba7 O7 3.131633 1_455
Gd0 O19 2.274238 1_565
Gd0 O23 2.274238 1_655
Gd0 O15 2.274238 1_556
Gd0 O11 2.274238 1_555
Gd0 O7 2.274238 1_555
Gd0 O3 2.274238 1_555
Gd1 O20 2.274238 1_655
Gd1 O17 2.274238 1_545
Gd1 O14 2.274238 1_554
Gd1 O8 2.274238 1_555
Gd1 O2 2.274238 1_555
Gd1 O5 2.274238 1_555
Gd2 O22 2.274238 1_455
Gd2 O13 2.274238 1_554
Gd2 O16 2.274238 1_565
Gd2 O4 2.274238 1_555
Gd2 O10 2.274238 1_555
Gd2 O1 2.274238 1_555
Gd3 O18 2.274238 1_545
Gd3 O21 2.274238 1_455
Gd3 O12 2.274238 1_556
Gd3 O0 2.274238 1_555
Gd3 O9 2.274238 1_555
Gd3 O6 2.274238 1_555
O0 Sb0 2.018694 1_555
O1 Sb1 2.018694 1_555
O2 Sb2 2.018694 1_555
O3 Sb3 2.018694 1_555
O4 Sb0 2.018694 1_555
O5 Sb3 2.018694 1_555
O6 Sb1 2.018694 1_555
O7 Sb2 2.018694 1_555
O8 Sb0 2.018694 1_555
O9 Sb2 2.018694 1_555
O10 Sb3 2.018694 1_555
O11 Sb1 2.018694 1_555
O12 Sb0 2.018694 1_555
O13 Sb1 2.018694 1_555
O14 Sb2 2.018694 1_555
O15 Sb3 2.018694 1_555
O16 Sb0 2.018694 1_555
O17 Sb3 2.018694 1_555
O18 Sb1 2.018694 1_555
O19 Sb2 2.018694 1_555
O20 Sb0 2.018694 1_555
O21 Sb2 2.018694 1_555
O22 Sb3 2.018694 1_555
O23 Sb1 2.018694 1_555
