# generated using pymatgen
data_Nb12IrAu3
_symmetry_space_group_name_H-M   'P 1'
_cell_length_a   5.22285700
_cell_length_b   5.23924800
_cell_length_c   10.49004200
_cell_angle_alpha   90.00000000
_cell_angle_beta   90.00000000
_cell_angle_gamma   90.00000000
_symmetry_Int_Tables_number   1
_chemical_formula_structural   Nb12IrAu3
_chemical_formula_sum   'Nb12 Ir1 Au3'
_cell_volume   287.04786331
_cell_formula_units_Z   1
loop_
 _symmetry_equiv_pos_site_id
 _symmetry_equiv_pos_as_xyz
  1  'x, y, z'
loop_
 _atom_site_type_symbol
 _atom_site_label
 _atom_site_symmetry_multiplicity
 _atom_site_fract_x
 _atom_site_fract_y
 _atom_site_fract_z
 _atom_site_occupancy
  Nb  Nb0  1  0.50000000  0.00000000  0.37780500  1
  Nb  Nb1  1  0.50000000  0.00000000  0.87399500  1
  Nb  Nb2  1  0.74909700  0.50000000  0.00000000  1
  Nb  Nb3  1  0.75454400  0.50000000  0.50000000  1
  Nb  Nb4  1  0.00000000  0.75362900  0.25249100  1
  Nb  Nb5  1  0.00000000  0.75362900  0.74750900  1
  Nb  Nb6  1  0.50000000  0.00000000  0.12600500  1
  Nb  Nb7  1  0.50000000  0.00000000  0.62219500  1
  Nb  Nb8  1  0.25090300  0.50000000  0.00000000  1
  Nb  Nb9  1  0.24545600  0.50000000  0.50000000  1
  Nb  Nb10  1  0.00000000  0.24637100  0.25249100  1
  Nb  Nb11  1  0.00000000  0.24637100  0.74750900  1
  Ir  Ir0  1  0.00000000  0.00000000  0.50000000  1
  Au  Au0  1  0.50000000  0.50000000  0.25119700  1
  Au  Au1  1  0.50000000  0.50000000  0.74880300  1
  Au  Au2  1  0.00000000  0.00000000  0.00000000  1
loop_
_geom_bond_atom_site_label_1
_geom_bond_atom_site_label_2
_geom_bond_distance
_geom_bond_site_symmetry_2
Nb0 Nb7 2.563661 1_555
Nb0 Nb6 2.641393 1_555
Nb0 Nb10 3.195897 1_655
Nb0 Nb10 3.195897 1_555
Nb0 Nb4 3.195897 1_645
Nb0 Nb4 3.195897 1_545
Nb0 Nb3 3.205144 1_555
Nb0 Nb3 3.205144 1_545
Nb0 Nb9 3.205144 1_555
Nb0 Nb9 3.205144 1_545
Nb1 Nb7 2.641393 1_555
Nb1 Nb6 2.643595 1_556
Nb1 Nb11 3.200974 1_655
Nb1 Nb11 3.200974 1_555
Nb1 Nb5 3.200974 1_645
Nb1 Nb5 3.200974 1_545
Nb1 Nb2 3.209700 1_546
Nb1 Nb8 3.209700 1_556
Nb1 Nb2 3.209700 1_556
Nb1 Nb8 3.209700 1_546
Nb2 Nb8 2.601996 1_555
Nb2 Nb8 2.620861 1_655
Nb2 Nb6 3.209700 1_555
Nb2 Nb6 3.209700 1_565
Nb2 Nb4 3.240109 1_655
Nb2 Nb5 3.240109 1_654
Nb3 Nb9 2.563963 1_655
Nb3 Nb9 2.658894 1_555
Nb3 Nb5 3.185976 1_655
Nb3 Nb4 3.185976 1_655
Nb3 Nb7 3.205144 1_555
Nb3 Nb7 3.205144 1_565
Nb4 Nb9 3.185976 1_555
Nb4 Nb6 3.200974 1_565
Nb4 Nb6 3.200974 1_465
Nb4 Nb8 3.240109 1_555
Nb5 Nb9 3.185976 1_555
Nb5 Nb7 3.195897 1_465
Nb5 Nb7 3.195897 1_565
Nb5 Nb8 3.240109 1_556
Nb6 Nb8 3.209700 1_555
Nb6 Nb8 3.209700 1_545
Nb7 Nb9 3.205144 1_555
Nb7 Nb9 3.205144 1_545
Nb10 Nb4 2.581598 1_545
Nb10 Nb4 2.657650 1_555
Nb10 Nb9 3.185976 1_555
Nb10 Nb3 3.185976 1_455
Nb10 Nb6 3.200974 1_455
Nb10 Nb6 3.200974 1_555
Nb10 Nb2 3.240109 1_455
Nb10 Nb8 3.240109 1_555
Nb11 Nb5 2.581598 1_545
Nb11 Nb5 2.657650 1_555
Nb11 Nb9 3.185976 1_555
Nb11 Nb3 3.185976 1_455
Nb11 Nb7 3.195897 1_455
Nb11 Nb7 3.195897 1_555
Nb11 Nb8 3.240109 1_556
Nb11 Nb2 3.240109 1_456
Ir0 Nb11 2.899543 1_555
Ir0 Nb5 2.899543 1_545
Ir0 Nb10 2.899543 1_555
Ir0 Nb4 2.899543 1_545
Ir0 Nb7 2.909063 1_555
Ir0 Nb7 2.909063 1_455
Ir0 Nb0 2.909063 1_555
Ir0 Nb0 2.909063 1_455
Ir0 Nb9 2.916489 1_555
Ir0 Nb9 2.916489 1_545
Ir0 Nb3 2.916489 1_455
Ir0 Nb3 2.916489 1_445
Au0 Nb3 2.929042 1_555
Au0 Nb9 2.929042 1_555
Au0 Nb4 2.930106 1_655
Au0 Nb4 2.930106 1_555
Au0 Nb10 2.930106 1_655
Au0 Nb10 2.930106 1_555
Au0 Nb6 2.930376 1_555
Au0 Nb6 2.930376 1_565
Au0 Nb0 2.937063 1_555
Au0 Nb0 2.937063 1_565
Au0 Nb2 2.938737 1_555
Au0 Nb8 2.938737 1_555
Au1 Nb3 2.929042 1_555
Au1 Nb9 2.929042 1_555
Au1 Nb5 2.930106 1_555
Au1 Nb5 2.930106 1_655
Au1 Nb11 2.930106 1_555
Au1 Nb11 2.930106 1_655
Au1 Nb1 2.930376 1_565
Au1 Nb1 2.930376 1_555
Au1 Nb7 2.937063 1_555
Au1 Nb7 2.937063 1_565
Au1 Nb8 2.938737 1_556
Au1 Nb2 2.938737 1_556
Au2 Nb6 2.926894 1_555
Au2 Nb6 2.926894 1_455
Au2 Nb1 2.926894 1_454
Au2 Nb1 2.926894 1_554
Au2 Nb2 2.929105 1_445
Au2 Nb8 2.929105 1_545
Au2 Nb2 2.929105 1_455
Au2 Nb8 2.929105 1_555
Au2 Nb10 2.946432 1_555
Au2 Nb4 2.946432 1_545
Au2 Nb11 2.946432 1_554
Au2 Nb5 2.946432 1_544
