# generated using pymatgen
data_U5B4Rh15
_symmetry_space_group_name_H-M   'P 1'
_cell_length_a   4.21667800
_cell_length_b   4.21667800
_cell_length_c   20.79527000
_cell_angle_alpha   90.00000000
_cell_angle_beta   90.00000000
_cell_angle_gamma   90.00000000
_symmetry_Int_Tables_number   1
_chemical_formula_structural   U5B4Rh15
_chemical_formula_sum   'U5 B4 Rh15'
_cell_volume   369.74766463
_cell_formula_units_Z   1
loop_
 _symmetry_equiv_pos_site_id
 _symmetry_equiv_pos_as_xyz
  1  'x, y, z'
loop_
 _atom_site_type_symbol
 _atom_site_label
 _atom_site_symmetry_multiplicity
 _atom_site_fract_x
 _atom_site_fract_y
 _atom_site_fract_z
 _atom_site_occupancy
  U  U0  1  0.00000000  0.00000000  0.90769900  1
  U  U1  1  0.00000000  0.00000000  0.09230100  1
  U  U2  1  0.00000000  0.00000000  0.29650900  1
  U  U3  1  0.00000000  0.00000000  0.50000000  1
  U  U4  1  0.00000000  0.00000000  0.70349100  1
  B  B0  1  0.50000000  0.50000000  0.18851500  1
  B  B1  1  0.50000000  0.50000000  0.39683700  1
  B  B2  1  0.50000000  0.50000000  0.60316300  1
  B  B3  1  0.50000000  0.50000000  0.81148500  1
  Rh  Rh0  1  0.50000000  0.50000000  0.90789400  1
  Rh  Rh1  1  0.50000000  0.50000000  0.09210600  1
  Rh  Rh2  1  0.50000000  0.50000000  0.29519100  1
  Rh  Rh3  1  0.50000000  0.50000000  0.50000000  1
  Rh  Rh4  1  0.50000000  0.50000000  0.70480900  1
  Rh  Rh5  1  0.50000000  0.00000000  0.00000000  1
  Rh  Rh6  1  0.50000000  0.00000000  0.19641600  1
  Rh  Rh7  1  0.50000000  0.00000000  0.39888600  1
  Rh  Rh8  1  0.50000000  0.00000000  0.60111400  1
  Rh  Rh9  1  0.50000000  0.00000000  0.80358400  1
  Rh  Rh10  1  0.00000000  0.50000000  0.00000000  1
  Rh  Rh11  1  0.00000000  0.50000000  0.19641600  1
  Rh  Rh12  1  0.00000000  0.50000000  0.39888600  1
  Rh  Rh13  1  0.00000000  0.50000000  0.60111400  1
  Rh  Rh14  1  0.00000000  0.50000000  0.80358400  1
loop_
_geom_bond_atom_site_label_1
_geom_bond_atom_site_label_2
_geom_bond_distance
_geom_bond_site_symmetry_2
B0 Rh1 2.004851 1_555
B0 Rh6 2.114731 1_565
B0 Rh11 2.114731 1_655
B0 Rh6 2.114731 1_555
B0 Rh11 2.114731 1_555
B0 Rh2 2.218356 1_555
B1 Rh7 2.108770 1_555
B1 Rh12 2.108770 1_555
B1 Rh12 2.108770 1_655
B1 Rh7 2.108770 1_565
B1 Rh2 2.113756 1_555
B1 Rh3 2.145302 1_555
B2 Rh8 2.108770 1_565
B2 Rh13 2.108770 1_555
B2 Rh8 2.108770 1_555
B2 Rh13 2.108770 1_655
B2 Rh4 2.113756 1_555
B2 Rh3 2.145302 1_555
B3 Rh0 2.004851 1_555
B3 Rh9 2.114731 1_565
B3 Rh9 2.114731 1_555
B3 Rh14 2.114731 1_555
B3 Rh14 2.114731 1_655
B3 Rh4 2.218356 1_555
Rh0 U0 2.981644 1_655
Rh0 U0 2.981644 1_565
Rh0 U0 2.981644 1_555
Rh0 U0 2.981644 1_665
Rh1 U1 2.981644 1_555
Rh1 U1 2.981644 1_565
Rh1 U1 2.981644 1_655
Rh1 U1 2.981644 1_665
Rh2 U2 2.981768 1_555
Rh2 U2 2.981768 1_565
Rh2 U2 2.981768 1_655
Rh2 U2 2.981768 1_665
Rh3 U3 2.981642 1_565
Rh3 U3 2.981642 1_655
Rh3 U3 2.981642 1_665
Rh3 U3 2.981642 1_555
Rh4 U4 2.981768 1_655
Rh4 U4 2.981768 1_665
Rh4 U4 2.981768 1_565
Rh4 U4 2.981768 1_555
Rh5 U0 2.851190 1_654
Rh5 U0 2.851190 1_554
Rh5 U1 2.851190 1_555
Rh5 U1 2.851190 1_655
Rh6 U2 2.962697 1_555
Rh6 U2 2.962697 1_655
Rh6 U1 3.022044 1_655
Rh6 U1 3.022044 1_555
Rh7 U3 2.977652 1_555
Rh7 U3 2.977652 1_655
Rh7 U2 2.996256 1_655
Rh7 U2 2.996256 1_555
Rh8 U3 2.977652 1_555
Rh8 U3 2.977652 1_655
Rh8 U4 2.996256 1_555
Rh8 U4 2.996256 1_655
Rh9 U4 2.962697 1_555
Rh9 U4 2.962697 1_655
Rh9 U0 3.022044 1_655
Rh9 U0 3.022044 1_555
Rh10 U0 2.851190 1_564
Rh10 U0 2.851190 1_554
Rh10 U1 2.851190 1_555
Rh10 U1 2.851190 1_565
Rh11 U2 2.962697 1_555
Rh11 U2 2.962697 1_565
Rh11 U1 3.022044 1_565
Rh11 U1 3.022044 1_555
Rh12 U3 2.977652 1_565
Rh12 U3 2.977652 1_555
Rh12 U2 2.996256 1_565
Rh12 U2 2.996256 1_555
Rh13 U3 2.977652 1_555
Rh13 U3 2.977652 1_565
Rh13 U4 2.996256 1_555
Rh13 U4 2.996256 1_565
Rh14 U4 2.962697 1_565
Rh14 U4 2.962697 1_555
Rh14 U0 3.022044 1_555
Rh14 U0 3.022044 1_565
