# generated using pymatgen
data_MgTiGaS4
_symmetry_space_group_name_H-M   'P 1'
_cell_length_a   7.41190927
_cell_length_b   7.37244107
_cell_length_c   7.38361987
_cell_angle_alpha   58.86848810
_cell_angle_beta   59.86997339
_cell_angle_gamma   59.82657047
_symmetry_Int_Tables_number   1
_chemical_formula_structural   MgTiGaS4
_chemical_formula_sum   'Mg2 Ti2 Ga2 S8'
_cell_volume   282.13736106
_cell_formula_units_Z   2
loop_
 _symmetry_equiv_pos_site_id
 _symmetry_equiv_pos_as_xyz
  1  'x, y, z'
loop_
 _atom_site_type_symbol
 _atom_site_label
 _atom_site_symmetry_multiplicity
 _atom_site_fract_x
 _atom_site_fract_y
 _atom_site_fract_z
 _atom_site_occupancy
  Mg  Mg0  1  0.87463400  0.87575600  0.87497500  1
  Mg  Mg1  1  0.12537000  0.12425400  0.12501500  1
  Ti  Ti0  1  0.50001000  0.49998700  0.99999900  1
  Ti  Ti1  1  0.49999600  0.00001000  0.50000700  1
  Ga  Ga0  1  0.50000600  0.50000500  0.49998400  1
  Ga  Ga1  1  0.99999900  0.49998800  0.50002000  1
  S  S0  1  0.74058000  0.73946100  0.73933000  1
  S  S1  1  0.26692500  0.25096100  0.71517500  1
  S  S2  1  0.26671500  0.71559900  0.25095200  1
  S  S3  1  0.71939900  0.26052900  0.26067900  1
  S  S4  1  0.73328000  0.28439800  0.74904500  1
  S  S5  1  0.28060000  0.73946400  0.73931700  1
  S  S6  1  0.25941400  0.26053800  0.26067900  1
  S  S7  1  0.73307700  0.74904700  0.28482300  1
loop_
_geom_bond_atom_site_label_1
_geom_bond_atom_site_label_2
_geom_bond_distance
_geom_bond_site_symmetry_2
Mg0 S4 2.438664 1_565
Mg0 S7 2.450675 1_556
Mg0 S5 2.458158 1_655
Mg0 S0 2.458311 1_555
Mg1 S2 2.438741 1_545
Mg1 S1 2.450627 1_554
Mg1 S3 2.458188 1_455
Mg1 S6 2.458299 1_555
Ga0 S7 2.509245 1_555
Ga0 S1 2.509291 1_555
Ga0 S2 2.510866 1_555
Ga0 S4 2.510925 1_555
Ga0 S3 2.517644 1_555
Ga0 S5 2.517699 1_555
Ga1 S1 2.509343 1_655
Ga1 S7 2.509525 1_555
Ga1 S4 2.510525 1_555
Ga1 S2 2.510612 1_655
Ga1 S0 2.517670 1_555
Ga1 S6 2.517709 1_655
S0 Ti1 2.490476 1_565
S0 Ti0 2.491263 1_555
S1 Ti1 2.449979 1_555
S2 Ti0 2.452771 1_554
S3 Ti1 2.490273 1_555
S3 Ti0 2.491662 1_554
S4 Ti0 2.452661 1_555
S5 Ti1 2.490386 1_565
S5 Ti0 2.491777 1_555
S6 Ti1 2.490484 1_555
S6 Ti0 2.491275 1_554
S7 Ti1 2.450125 1_565
