# generated using pymatgen
data_Li4MnCo3O8
_symmetry_space_group_name_H-M   'P 1'
_cell_length_a   6.67681615
_cell_length_b   6.67681615
_cell_length_c   9.92392076
_cell_angle_alpha   51.71288318
_cell_angle_beta   51.71288318
_cell_angle_gamma   25.24039138
_symmetry_Int_Tables_number   1
_chemical_formula_structural   Li4MnCo3O8
_chemical_formula_sum   'Li4 Mn1 Co3 O8'
_cell_volume   145.74322843
_cell_formula_units_Z   1
loop_
 _symmetry_equiv_pos_site_id
 _symmetry_equiv_pos_as_xyz
  1  'x, y, z'
loop_
 _atom_site_type_symbol
 _atom_site_label
 _atom_site_symmetry_multiplicity
 _atom_site_fract_x
 _atom_site_fract_y
 _atom_site_fract_z
 _atom_site_occupancy
  Li  Li0  1  0.12388700  0.12388700  0.12948900  1
  Li  Li1  1  0.87611300  0.87611300  0.87051100  1
  Li  Li2  1  0.62682800  0.62682800  0.61644800  1
  Li  Li3  1  0.37317200  0.37317200  0.38355200  1
  Mn  Mn0  1  0.50000000  0.50000000  0.00000000  1
  Co  Co0  1  0.25615000  0.25615000  0.74437600  1
  Co  Co1  1  0.00000000  0.00000000  0.50000000  1
  Co  Co2  1  0.74385000  0.74385000  0.25562400  1
  O  O0  1  0.05527100  0.05527100  0.83530600  1
  O  O1  1  0.81438600  0.81438600  0.56824700  1
  O  O2  1  0.56004400  0.56004400  0.32021100  1
  O  O3  1  0.32257000  0.32257000  0.06773100  1
  O  O4  1  0.18561400  0.18561400  0.43175300  1
  O  O5  1  0.94472900  0.94472900  0.16469400  1
  O  O6  1  0.67743000  0.67743000  0.93226900  1
  O  O7  1  0.43995600  0.43995600  0.67978900  1
loop_
_geom_bond_atom_site_label_1
_geom_bond_atom_site_label_2
_geom_bond_distance
_geom_bond_site_symmetry_2
Li0 O2 2.098328 1_455
Li0 O2 2.098328 1_545
Li0 O5 2.129949 1_445
Li0 O6 2.170576 1_454
Li0 O6 2.170576 1_544
Li0 O3 2.250273 1_555
Li1 O7 2.098328 1_565
Li1 O7 2.098328 1_655
Li1 O0 2.129949 1_665
Li1 O3 2.170576 1_566
Li1 O3 2.170576 1_656
Li1 O6 2.250273 1_555
Li2 O4 2.071573 1_565
Li2 O4 2.071573 1_655
Li2 O7 2.093124 1_555
Li2 O1 2.172017 1_555
Li2 O0 2.267826 1_655
Li2 O0 2.267826 1_565
Li3 O1 2.071573 1_545
Li3 O1 2.071573 1_455
Li3 O2 2.093124 1_555
Li3 O4 2.172017 1_555
Li3 O5 2.267826 1_545
Li3 O5 2.267826 1_455
Mn0 O5 1.955319 1_455
Mn0 O5 1.955319 1_545
Mn0 O0 1.955319 1_654
Mn0 O0 1.955319 1_564
Mn0 O6 1.955517 1_554
Mn0 O3 1.955517 1_555
Co0 O1 2.018587 1_545
Co0 O1 2.018587 1_455
Co0 O7 2.048942 1_555
Co0 O6 2.056273 1_455
Co0 O6 2.056273 1_545
Co0 O0 2.160274 1_555
Co1 O7 2.037379 1_455
Co1 O7 2.037379 1_545
Co1 O2 2.037379 1_455
Co1 O2 2.037379 1_545
Co1 O4 2.056386 1_555
Co1 O1 2.056386 1_445
Co2 O4 2.018587 1_655
Co2 O4 2.018587 1_565
Co2 O2 2.048942 1_555
Co2 O3 2.056273 1_565
Co2 O3 2.056273 1_655
Co2 O5 2.160274 1_555
