# generated using pymatgen
data_Sm4Cr3Fe31
_symmetry_space_group_name_H-M   'P 1'
_cell_length_a   6.39432035
_cell_length_b   6.39432035
_cell_length_c   12.83213356
_cell_angle_alpha   82.48567993
_cell_angle_beta   82.48567993
_cell_angle_gamma   82.47096233
_symmetry_Int_Tables_number   1
_chemical_formula_structural   Sm4Cr3Fe31
_chemical_formula_sum   'Sm4 Cr3 Fe31'
_cell_volume   512.22296783
_cell_formula_units_Z   1
loop_
 _symmetry_equiv_pos_site_id
 _symmetry_equiv_pos_as_xyz
  1  'x, y, z'
loop_
 _atom_site_type_symbol
 _atom_site_label
 _atom_site_symmetry_multiplicity
 _atom_site_fract_x
 _atom_site_fract_y
 _atom_site_fract_z
 _atom_site_occupancy
  Sm  Sm0  1  0.65954000  0.65954000  0.32855800  1
  Sm  Sm1  1  0.65575900  0.65575900  0.82882100  1
  Sm  Sm2  1  0.34367500  0.34367500  0.17086300  1
  Sm  Sm3  1  0.34532300  0.34532300  0.67405000  1
  Cr  Cr0  1  0.91226200  0.91226200  0.95539300  1
  Cr  Cr1  1  0.08822800  0.08822800  0.04524000  1
  Cr  Cr2  1  0.09225900  0.09225900  0.54641200  1
  Fe  Fe0  1  0.00110000  0.00110000  0.24801500  1
  Fe  Fe1  1  0.99952800  0.99952800  0.75101100  1
  Fe  Fe2  1  0.00084800  0.49876000  0.50105800  1
  Fe  Fe3  1  0.99976400  0.50050100  0.99940200  1
  Fe  Fe4  1  0.50050100  0.99976400  0.99940200  1
  Fe  Fe5  1  0.49876000  0.00084800  0.50105800  1
  Fe  Fe6  1  0.84533200  0.34105500  0.16883900  1
  Fe  Fe7  1  0.84459000  0.33864800  0.67066800  1
  Fe  Fe8  1  0.33927400  0.33927400  0.42254500  1
  Fe  Fe9  1  0.33826400  0.33826400  0.92345300  1
  Fe  Fe10  1  0.34105500  0.84533200  0.16883900  1
  Fe  Fe11  1  0.33864800  0.84459000  0.67066800  1
  Fe  Fe12  1  0.15614200  0.65911600  0.32957600  1
  Fe  Fe13  1  0.15515400  0.66037000  0.83008200  1
  Fe  Fe14  1  0.66167400  0.66167400  0.07649400  1
  Fe  Fe15  1  0.65999800  0.65999800  0.57856400  1
  Fe  Fe16  1  0.65911600  0.15614200  0.32957600  1
  Fe  Fe17  1  0.66037000  0.15515400  0.83008200  1
  Fe  Fe18  1  0.29639600  0.70222300  0.50008800  1
  Fe  Fe19  1  0.29416700  0.70579600  0.99971300  1
  Fe  Fe20  1  0.70565200  0.99975800  0.14602400  1
  Fe  Fe21  1  0.70429600  0.99892200  0.64711800  1
  Fe  Fe22  1  0.99888300  0.29392200  0.35229000  1
  Fe  Fe23  1  0.00071800  0.29348000  0.85391100  1
  Fe  Fe24  1  0.29392200  0.99888300  0.35229000  1
  Fe  Fe25  1  0.29348000  0.00071800  0.85391100  1
  Fe  Fe26  1  0.99975800  0.70565200  0.14602400  1
  Fe  Fe27  1  0.99892200  0.70429600  0.64711800  1
  Fe  Fe28  1  0.70222300  0.29639600  0.50008800  1
  Fe  Fe29  1  0.70579600  0.29416700  0.99971300  1
  Fe  Fe30  1  0.90862300  0.90862300  0.45304400  1
loop_
_geom_bond_atom_site_label_1
_geom_bond_atom_site_label_2
_geom_bond_distance
_geom_bond_site_symmetry_2
Cr0 Cr1 2.207189 1_666
Cr0 Fe1 2.610965 1_555
Cr0 Fe4 2.621450 1_555
Cr0 Fe3 2.621450 1_555
Cr0 Fe14 2.630621 1_556
Cr0 Fe17 2.638338 1_565
Cr0 Fe13 2.638338 1_655
Cr0 Fe25 2.701146 1_665
Cr0 Fe23 2.701146 1_665
Cr0 Fe29 2.711433 1_565
Cr0 Fe19 2.711433 1_655
Cr0 Fe26 2.713172 1_556
Cr0 Fe20 2.713172 1_556
Cr0 Sm1 3.180679 1_555
Cr1 Fe0 2.591215 1_555
Cr1 Fe3 2.627968 1_454
Cr1 Fe4 2.627968 1_544
Cr1 Fe10 2.628636 1_545
Cr1 Fe6 2.628636 1_455
Cr1 Fe9 2.630124 1_554
Cr1 Fe26 2.705710 1_445
Cr1 Fe20 2.705710 1_445
Cr1 Fe29 2.717329 1_454
Cr1 Fe19 2.717329 1_544
Cr1 Fe25 2.718001 1_554
Cr1 Fe23 2.718001 1_554
Cr1 Sm2 3.164042 1_555
Cr2 Fe30 2.300073 1_445
Cr2 Fe5 2.594586 1_555
Cr2 Fe2 2.594586 1_555
Cr2 Fe8 2.618501 1_555
Cr2 Fe1 2.621818 1_445
Cr2 Fe11 2.622073 1_545
Cr2 Fe7 2.622073 1_455
Cr2 Fe21 2.743746 1_445
Cr2 Fe27 2.743746 1_445
Cr2 Fe24 2.751635 1_545
Cr2 Fe22 2.751635 1_455
Cr2 Fe28 2.758443 1_455
Cr2 Fe18 2.758443 1_545
Cr2 Sm3 3.161037 1_555
Fe0 Fe10 2.422662 1_545
Fe0 Fe6 2.422662 1_455
Fe0 Fe26 2.436356 1_445
Fe0 Fe20 2.436356 1_445
Fe0 Fe24 2.437185 1_545
Fe0 Fe22 2.437185 1_455
Fe0 Fe16 2.442292 1_455
Fe0 Fe12 2.442292 1_545
Fe0 Fe30 2.626615 1_445
Fe0 Sm0 3.267651 1_445
Fe0 Sm2 3.271096 1_555
Fe1 Fe17 2.417848 1_565
Fe1 Fe13 2.417848 1_655
Fe1 Fe7 2.421987 1_565
Fe1 Fe11 2.421987 1_655
Fe1 Fe23 2.435586 1_665
Fe1 Fe25 2.435586 1_665
Fe1 Fe21 2.450040 1_555
Fe1 Fe27 2.450040 1_555
Fe1 Sm1 3.283137 1_555
Fe1 Sm3 3.300364 1_665
Fe2 Fe8 2.420356 1_555
Fe2 Fe27 2.423691 1_455
Fe2 Fe7 2.428987 1_455
Fe2 Fe28 2.445134 1_455
Fe2 Fe22 2.454511 1_455
Fe2 Fe30 2.619852 1_455
Fe2 Sm0 3.286345 1_455
Fe2 Sm3 3.299255 1_555
Fe3 Fe9 2.415626 1_655
Fe3 Fe6 2.421657 1_556
Fe3 Sm1 3.276313 1_555
Fe3 Sm2 3.285268 1_656
Fe4 Fe9 2.415626 1_565
Fe4 Sm1 3.276313 1_555
Fe4 Sm2 3.285268 1_566
Fe5 Fe8 2.420356 1_555
Fe5 Sm0 3.286345 1_545
Fe5 Sm3 3.299255 1_555
Fe6 Sm0 3.095173 1_555
Fe6 Sm2 3.192319 1_655
Fe6 Sm2 3.202326 1_555
Fe7 Sm1 3.079277 1_555
Fe7 Sm3 3.181844 1_555
Fe7 Sm3 3.213747 1_655
Fe8 Sm0 3.106327 1_555
Fe8 Sm2 3.222526 1_555
Fe8 Sm3 3.237969 1_555
Fe9 Sm1 3.083543 1_555
Fe9 Sm2 3.184260 1_556
Fe9 Sm3 3.189268 1_555
Fe10 Fe4 2.421657 1_554
Fe10 Fe14 2.466585 1_555
Fe10 Fe12 2.481717 1_555
Fe10 Fe19 2.518470 1_554
Fe10 Fe26 2.528329 1_455
Fe10 Fe20 2.616317 1_555
Fe10 Fe24 2.633994 1_555
Fe10 Sm0 3.095173 1_555
Fe10 Sm2 3.192319 1_565
Fe10 Sm2 3.202326 1_555
Fe11 Fe5 2.428987 1_565
Fe11 Fe13 2.460292 1_555
Fe11 Fe15 2.471118 1_555
Fe11 Fe27 2.523555 1_455
Fe11 Fe18 2.536399 1_555
Fe11 Fe21 2.621759 1_555
Fe11 Fe25 2.640067 1_565
Fe11 Sm1 3.079277 1_555
Fe11 Sm3 3.181844 1_555
Fe11 Sm3 3.213747 1_565
Fe12 Fe2 2.446371 1_555
Fe12 Fe8 2.465126 1_555
Fe12 Fe24 2.513088 1_555
Fe12 Fe18 2.530518 1_555
Fe12 Fe30 2.627568 1_455
Fe12 Fe22 2.628650 1_455
Fe12 Fe26 2.644041 1_455
Fe12 Sm2 3.075067 1_555
Fe12 Sm0 3.176812 1_455
Fe12 Sm0 3.217561 1_555
Fe13 Fe3 2.423565 1_455
Fe13 Fe9 2.477528 1_555
Fe13 Fe19 2.520266 1_555
Fe13 Fe25 2.522167 1_565
Fe13 Fe23 2.629252 1_555
Fe13 Fe27 2.637533 1_455
Fe13 Sm3 3.053200 1_555
Fe13 Sm1 3.195240 1_555
Fe13 Sm1 3.199462 1_455
Fe14 Fe3 2.416155 1_554
Fe14 Fe4 2.416155 1_554
Fe14 Fe6 2.466585 1_555
Fe14 Fe20 2.505593 1_555
Fe14 Fe26 2.505593 1_555
Fe14 Fe29 2.632825 1_554
Fe14 Fe19 2.632825 1_554
Fe14 Sm2 3.087268 1_555
Fe14 Sm1 3.188558 1_554
Fe14 Sm0 3.231013 1_555
Fe15 Fe2 2.432028 1_655
Fe15 Fe5 2.432028 1_565
Fe15 Fe7 2.471118 1_555
Fe15 Fe21 2.505090 1_555
Fe15 Fe27 2.505090 1_555
Fe15 Fe28 2.620933 1_555
Fe15 Fe18 2.620933 1_555
Fe15 Fe30 2.640461 1_555
Fe15 Sm3 3.061047 1_555
Fe15 Sm1 3.204493 1_555
Fe15 Sm0 3.208879 1_555
Fe16 Fe5 2.446371 1_555
Fe16 Fe8 2.465126 1_555
Fe16 Fe6 2.481717 1_555
Fe16 Fe22 2.513088 1_555
Fe16 Fe28 2.530518 1_555
Fe16 Fe30 2.627568 1_545
Fe16 Fe24 2.628650 1_545
Fe16 Fe20 2.644041 1_545
Fe16 Sm2 3.075067 1_555
Fe16 Sm0 3.176812 1_545
Fe16 Sm0 3.217561 1_555
Fe17 Fe4 2.423565 1_545
Fe17 Fe7 2.460292 1_555
Fe17 Fe9 2.477528 1_555
Fe17 Fe29 2.520266 1_555
Fe17 Fe23 2.522167 1_655
Fe17 Fe25 2.629252 1_555
Fe17 Fe21 2.637533 1_545
Fe17 Sm3 3.053200 1_555
Fe17 Sm1 3.195240 1_555
Fe17 Sm1 3.199462 1_545
Fe18 Fe2 2.428612 1_555
Fe18 Fe5 2.445134 1_565
Fe18 Fe27 2.497857 1_455
Fe18 Fe24 2.500920 1_555
Fe18 Fe8 2.611004 1_555
Fe18 Fe30 2.753170 1_455
Fe18 Sm3 2.992042 1_555
Fe18 Sm0 2.994248 1_555
Fe19 Fe3 2.432698 1_455
Fe19 Fe4 2.433246 1_555
Fe19 Fe25 2.476687 1_565
Fe19 Fe26 2.478809 1_456
Fe19 Fe9 2.629801 1_555
Fe19 Sm1 2.986755 1_555
Fe19 Sm2 2.990802 1_556
Fe20 Fe4 2.430280 1_554
Fe20 Fe29 2.478809 1_564
Fe20 Fe26 2.479225 1_555
Fe20 Fe6 2.528329 1_565
Fe20 Sm2 2.991913 1_565
Fe20 Sm0 2.993438 1_555
Fe21 Fe5 2.423691 1_565
Fe21 Fe27 2.483609 1_555
Fe21 Fe28 2.497857 1_565
Fe21 Fe7 2.523555 1_565
Fe21 Fe30 2.751329 1_555
Fe21 Sm3 2.992461 1_565
Fe21 Sm1 2.999804 1_555
Fe22 Fe24 2.487090 1_645
Fe22 Fe28 2.500920 1_555
Fe22 Fe8 2.526122 1_655
Fe22 Fe6 2.633994 1_555
Fe22 Fe30 2.723776 1_545
Fe22 Sm0 2.987302 1_555
Fe22 Sm2 3.004931 1_655
Fe23 Fe3 2.424708 1_455
Fe23 Fe25 2.467896 1_555
Fe23 Fe29 2.476687 1_455
Fe23 Fe9 2.503896 1_555
Fe23 Fe7 2.640067 1_455
Fe23 Sm3 2.992222 1_555
Fe23 Sm1 2.997840 1_455
Fe24 Fe5 2.454511 1_565
Fe24 Fe8 2.526122 1_565
Fe24 Fe30 2.723776 1_455
Fe24 Sm0 2.987302 1_555
Fe24 Sm2 3.004931 1_565
Fe25 Fe4 2.424708 1_545
Fe25 Fe9 2.503896 1_555
Fe25 Sm3 2.992222 1_555
Fe25 Sm1 2.997840 1_545
Fe26 Fe3 2.430280 1_554
Fe26 Fe6 2.616317 1_555
Fe26 Sm2 2.991913 1_655
Fe26 Sm0 2.993438 1_555
Fe27 Fe7 2.621759 1_555
Fe27 Fe30 2.751329 1_555
Fe27 Sm3 2.992461 1_655
Fe27 Sm1 2.999804 1_555
Fe28 Fe5 2.428612 1_555
Fe28 Fe7 2.536399 1_555
Fe28 Fe8 2.611004 1_555
Fe28 Fe30 2.753170 1_545
Fe28 Sm3 2.992042 1_555
Fe28 Sm0 2.994248 1_555
Fe29 Fe4 2.432698 1_545
Fe29 Fe3 2.433246 1_555
Fe29 Fe6 2.518470 1_556
Fe29 Fe9 2.629801 1_555
Fe29 Sm1 2.986755 1_555
Fe29 Sm2 2.990802 1_556
Fe30 Fe5 2.619852 1_565
Fe30 Sm0 3.101757 1_555
