# generated using pymatgen
data_Fe3P2O9
_symmetry_space_group_name_H-M   'P 1'
_cell_length_a   9.98874200
_cell_length_b   8.30641600
_cell_length_c   9.60533389
_cell_angle_alpha   60.52223523
_cell_angle_beta   90.00000000
_cell_angle_gamma   90.00000000
_symmetry_Int_Tables_number   1
_chemical_formula_structural   Fe3P2O9
_chemical_formula_sum   'Fe12 P8 O36'
_cell_volume   693.79158411
_cell_formula_units_Z   4
loop_
 _symmetry_equiv_pos_site_id
 _symmetry_equiv_pos_as_xyz
  1  'x, y, z'
loop_
 _atom_site_type_symbol
 _atom_site_label
 _atom_site_symmetry_multiplicity
 _atom_site_fract_x
 _atom_site_fract_y
 _atom_site_fract_z
 _atom_site_occupancy
  Fe  Fe0  1  0.38535900  0.41625000  0.47714400  1
  Fe  Fe1  1  0.88535900  0.58375000  0.02285600  1
  Fe  Fe2  1  0.61464100  0.58375000  0.52285600  1
  Fe  Fe3  1  0.11464100  0.41625000  0.97714400  1
  Fe  Fe4  1  0.61841900  0.05697900  0.06605000  1
  Fe  Fe5  1  0.11841900  0.94302100  0.43395000  1
  Fe  Fe6  1  0.38158100  0.94302100  0.93395000  1
  Fe  Fe7  1  0.88158100  0.05697900  0.56605000  1
  Fe  Fe8  1  0.37660800  0.26599300  0.21922200  1
  Fe  Fe9  1  0.87660800  0.73400700  0.28077800  1
  Fe  Fe10  1  0.62339200  0.73400700  0.78077800  1
  Fe  Fe11  1  0.12339200  0.26599300  0.71922200  1
  P  P0  1  0.40602200  0.38439700  0.83022300  1
  P  P1  1  0.90602200  0.61560300  0.66977700  1
  P  P2  1  0.59397800  0.61560300  0.16977700  1
  P  P3  1  0.09397800  0.38439700  0.33022300  1
  P  P4  1  0.67163900  0.01762800  0.35911000  1
  P  P5  1  0.17163900  0.98237200  0.14089000  1
  P  P6  1  0.32836100  0.98237200  0.64089000  1
  P  P7  1  0.82836100  0.01762800  0.85911000  1
  O  O0  1  0.31365800  0.39405900  0.69754500  1
  O  O1  1  0.81365800  0.60594100  0.80245500  1
  O  O2  1  0.68634200  0.60594100  0.30245500  1
  O  O3  1  0.18634200  0.39405900  0.19754500  1
  O  O4  1  0.52845900  0.51498600  0.76608300  1
  O  O5  1  0.02845900  0.48501400  0.73391700  1
  O  O6  1  0.47154100  0.48501400  0.23391700  1
  O  O7  1  0.97154100  0.51498600  0.26608300  1
  O  O8  1  0.32488900  0.41985400  0.95069000  1
  O  O9  1  0.82488900  0.58014600  0.54931000  1
  O  O10  1  0.67511100  0.58014600  0.04931000  1
  O  O11  1  0.17511100  0.41985400  0.45069000  1
  O  O12  1  0.45752400  0.17652800  0.92627900  1
  O  O13  1  0.95752400  0.82347200  0.57372100  1
  O  O14  1  0.54247600  0.82347200  0.07372100  1
  O  O15  1  0.04247600  0.17652800  0.42627900  1
  O  O16  1  0.62751800  0.84050400  0.51386300  1
  O  O17  1  0.12751800  0.15949600  0.98613700  1
  O  O18  1  0.37248200  0.15949600  0.48613700  1
  O  O19  1  0.87248200  0.84050400  0.01386300  1
  O  O20  1  0.55385400  0.11816600  0.23877000  1
  O  O21  1  0.05385400  0.88183400  0.26123000  1
  O  O22  1  0.44614600  0.88183400  0.76123000  1
  O  O23  1  0.94614600  0.11816600  0.73877000  1
  O  O24  1  0.74427700  0.14917300  0.40217100  1
  O  O25  1  0.24427700  0.85082700  0.09782900  1
  O  O26  1  0.25572300  0.85082700  0.59782900  1
  O  O27  1  0.75572300  0.14917300  0.90217100  1
  O  O28  1  0.75820300  0.95979000  0.25426600  1
  O  O29  1  0.25820300  0.04021000  0.24573400  1
  O  O30  1  0.24179700  0.04021000  0.74573400  1
  O  O31  1  0.74179700  0.95979000  0.75426600  1
  O  O32  1  0.44495200  0.65234000  0.42328400  1
  O  O33  1  0.94495200  0.34766000  0.07671600  1
  O  O34  1  0.55504800  0.34766000  0.57671600  1
  O  O35  1  0.05504800  0.65234000  0.92328400  1
loop_
_geom_bond_atom_site_label_1
_geom_bond_atom_site_label_2
_geom_bond_distance
_geom_bond_site_symmetry_2
Fe0 O32 1.862594 1_555
Fe0 O34 1.891036 1_555
Fe0 O18 2.095502 1_555
Fe0 O11 2.113871 1_555
Fe0 O0 2.155149 1_555
Fe0 O6 2.283020 1_555
Fe1 O33 1.862594 1_555
Fe1 O35 1.891036 1_654
Fe1 O19 2.095502 1_555
Fe1 O10 2.113871 1_555
Fe1 O1 2.155149 1_554
Fe1 O7 2.283020 1_555
Fe2 O34 1.862594 1_555
Fe2 O32 1.891036 1_555
Fe2 O16 2.095502 1_555
Fe2 O9 2.113871 1_555
Fe2 O2 2.155149 1_555
Fe2 O4 2.283020 1_555
Fe3 O35 1.862594 1_555
Fe3 O33 1.891036 1_456
Fe3 O17 2.095502 1_555
Fe3 O8 2.113871 1_555
Fe3 O3 2.155149 1_556
Fe3 O5 2.283020 1_555
Fe4 O27 1.938789 1_554
Fe4 O12 2.014782 1_554
Fe4 O14 2.049948 1_545
Fe4 O20 2.063123 1_555
Fe4 O28 2.105544 1_545
Fe5 O26 1.938789 1_555
Fe5 O13 2.014782 1_455
Fe5 O15 2.049948 1_565
Fe5 O21 2.063123 1_555
Fe5 O29 2.105544 1_565
Fe6 O25 1.938789 1_556
Fe6 O14 2.014782 1_556
Fe6 O12 2.049948 1_565
Fe6 O22 2.063123 1_555
Fe6 O30 2.105544 1_565
Fe7 O24 1.938789 1_555
Fe7 O15 2.014782 1_655
Fe7 O13 2.049948 1_545
Fe7 O23 2.063123 1_555
Fe7 O31 2.105544 1_545
Fe8 O20 2.109659 1_555
Fe8 O6 2.116986 1_555
Fe8 O29 2.123897 1_555
Fe8 O3 2.137508 1_555
Fe8 O18 2.263907 1_555
Fe8 O8 2.304114 1_554
Fe9 O21 2.109659 1_655
Fe9 O7 2.116986 1_555
Fe9 O28 2.123897 1_555
Fe9 O2 2.137508 1_555
Fe9 O19 2.263907 1_555
Fe9 O9 2.304114 1_555
Fe10 O22 2.109659 1_555
Fe10 O4 2.116986 1_555
Fe10 O31 2.123897 1_555
Fe10 O1 2.137508 1_555
Fe10 O16 2.263907 1_555
Fe10 O10 2.304114 1_556
Fe11 O23 2.109659 1_455
Fe11 O5 2.116986 1_555
Fe11 O30 2.123897 1_555
Fe11 O0 2.137508 1_555
Fe11 O17 2.263907 1_555
Fe11 O11 2.304114 1_555
O0 P0 1.543084 1_555
O1 P1 1.543084 1_555
O2 P2 1.543084 1_555
O3 P3 1.543084 1_555
O4 P0 1.547319 1_555
O5 P1 1.547319 1_455
O6 P2 1.547319 1_555
O7 P3 1.547319 1_655
O8 P0 1.554947 1_555
O9 P1 1.554947 1_555
O10 P2 1.554947 1_555
O11 P3 1.554947 1_555
O12 P0 1.590398 1_555
O13 P1 1.590398 1_555
O14 P2 1.590398 1_555
O15 P3 1.590398 1_555
O16 P4 1.554363 1_565
O17 P5 1.554363 1_546
O18 P6 1.554363 1_545
O19 P7 1.554363 1_564
O20 P4 1.570894 1_555
O21 P5 1.570894 1_555
O22 P6 1.570894 1_555
O23 P7 1.570894 1_555
O24 P4 1.528473 1_555
O25 P5 1.528473 1_555
O26 P6 1.528473 1_555
O27 P7 1.528473 1_555
O28 P4 1.571238 1_565
O29 P5 1.571238 1_545
O30 P6 1.571238 1_545
O31 P7 1.571238 1_565
