# generated using pymatgen
data_La15CuGe9
_symmetry_space_group_name_H-M   'P 1'
_cell_length_a   6.91157406
_cell_length_b   15.73129020
_cell_length_c   15.73138473
_cell_angle_alpha   120.00068142
_cell_angle_beta   89.99987323
_cell_angle_gamma   90.00008240
_symmetry_Int_Tables_number   1
_chemical_formula_structural   La15CuGe9
_chemical_formula_sum   'La30 Cu2 Ge18'
_cell_volume   1481.27574236
_cell_formula_units_Z   2
loop_
 _symmetry_equiv_pos_site_id
 _symmetry_equiv_pos_as_xyz
  1  'x, y, z'
loop_
 _atom_site_type_symbol
 _atom_site_label
 _atom_site_symmetry_multiplicity
 _atom_site_fract_x
 _atom_site_fract_y
 _atom_site_fract_z
 _atom_site_occupancy
  La  La0  1  0.98199694  0.65919801  0.67772125  1
  La  La1  1  0.98199793  0.01850644  0.34077516  1
  La  La2  1  0.48200184  0.34081663  0.32228346  1
  La  La3  1  0.98199232  0.01853388  0.67774835  1
  La  La4  1  0.98199078  0.32228843  0.98149809  1
  La  La5  1  0.48199657  0.98146162  0.65920338  1
  La  La6  1  0.98198509  0.32227822  0.34081933  1
  La  La7  1  0.48198848  0.98143230  0.32223123  1
  La  La8  1  0.48200218  0.67772121  0.01851599  1
  La  La9  1  0.48199336  0.67773646  0.65918264  1
  La  La10  1  0.98199755  0.65918796  0.98143739  1
  La  La11  1  0.48200486  0.34083101  0.01857157  1
  La  La12  1  0.73412539  0.42128279  0.84253999  1
  La  La13  1  0.73411888  0.42128556  0.57873669  1
  La  La14  1  0.23409763  0.57873231  0.15746749  1
  La  La15  1  0.73413510  0.15749008  0.57874039  1
  La  La16  1  0.23410446  0.57873337  0.42126183  1
  La  La17  1  0.23412122  0.84249253  0.42124954  1
  La  La18  1  0.70216231  0.08306792  0.16617975  1
  La  La19  1  0.70214388  0.08311366  0.91693768  1
  La  La20  1  0.20205310  0.91691521  0.83380504  1
  La  La21  1  0.70216067  0.83380569  0.91688312  1
  La  La22  1  0.20206150  0.91686534  0.08306291  1
  La  La23  1  0.20204081  0.16619185  0.08311820  1
  La  La24  1  0.75243704  0.75447960  0.50898825  1
  La  La25  1  0.75243656  0.75447726  0.24548771  1
  La  La26  1  0.25239132  0.24551652  0.49100425  1
  La  La27  1  0.75244093  0.49101224  0.24551580  1
  La  La28  1  0.25239150  0.24552186  0.75450667  1
  La  La29  1  0.25238384  0.50900906  0.75448902  1
  Cu  Cu0  1  0.99630387  0.66665004  0.33332914  1
  Cu  Cu1  1  0.49640920  0.33339879  0.66667952  1
  Ge  Ge0  1  0.75858309  0.87047554  0.74085874  1
  Ge  Ge1  1  0.75859106  0.87042137  0.12953476  1
  Ge  Ge2  1  0.25856197  0.12953090  0.25914693  1
  Ge  Ge3  1  0.75859924  0.25914020  0.12959900  1
  Ge  Ge4  1  0.25858711  0.12959175  0.87045417  1
  Ge  Ge5  1  0.25857024  0.74082531  0.87038144  1
  Ge  Ge6  1  0.69594612  0.20176298  0.40356916  1
  Ge  Ge7  1  0.69595368  0.20177837  0.79822446  1
  Ge  Ge8  1  0.19596535  0.79826878  0.59649399  1
  Ge  Ge9  1  0.69594906  0.59645139  0.79821966  1
  Ge  Ge10  1  0.19596828  0.79822669  0.20177166  1
  Ge  Ge11  1  0.19597100  0.40350032  0.20175666  1
  Ge  Ge12  1  0.75266959  0.53674624  0.07348883  1
  Ge  Ge13  1  0.75265519  0.53674207  0.46326234  1
  Ge  Ge14  1  0.25263722  0.46324402  0.92649101  1
  Ge  Ge15  1  0.75267338  0.92648364  0.46324168  1
  Ge  Ge16  1  0.25261911  0.46323203  0.53676428  1
  Ge  Ge17  1  0.25263218  0.07354455  0.53677038  1
loop_
_geom_bond_atom_site_label_1
_geom_bond_atom_site_label_2
_geom_bond_distance
_geom_bond_site_symmetry_2
Cu0 La17 2.905281 1_655
Cu0 La16 2.905323 1_655
Cu0 La14 2.905415 1_655
Cu0 La27 2.926844 1_555
Cu0 La24 2.927107 1_555
Cu0 La25 2.927234 1_555
Cu1 La13 2.904740 1_555
Cu1 La12 2.905103 1_555
Cu1 La15 2.905669 1_555
Cu1 La29 2.927185 1_555
Cu1 La26 2.927893 1_555
Cu1 La28 2.928222 1_555
Ge0 La19 3.122252 1_565
Ge0 La21 3.122535 1_555
Ge0 La24 3.159216 1_555
Ge0 La5 3.255098 1_555
Ge0 La9 3.256186 1_555
Ge0 La20 3.316345 1_655
Ge0 La3 3.332766 1_565
Ge0 La0 3.334128 1_555
Ge1 La18 3.121916 1_565
Ge1 La21 3.122179 1_554
Ge1 La25 3.159602 1_555
Ge1 La8 3.255725 1_555
Ge1 La7 3.255742 1_555
Ge1 La22 3.316189 1_655
Ge1 La10 3.333509 1_554
Ge1 La1 3.333555 1_565
Ge2 La23 3.122602 1_555
Ge2 La22 3.122604 1_545
Ge2 La26 3.159039 1_555
Ge2 La1 3.255161 1_455
Ge2 La6 3.256235 1_455
Ge2 La18 3.317282 1_555
Ge2 La7 3.333098 1_545
Ge2 La2 3.334321 1_555
Ge3 La19 3.122212 1_554
Ge3 La18 3.122392 1_555
Ge3 La27 3.159219 1_555
Ge3 La2 3.255598 1_555
Ge3 La11 3.255980 1_555
Ge3 La23 3.316170 1_655
Ge3 La6 3.333293 1_555
Ge3 La4 3.333670 1_554
Ge4 La20 3.122445 1_545
Ge4 La23 3.122554 1_556
Ge4 La28 3.159341 1_555
Ge4 La4 3.255747 1_455
Ge4 La3 3.255866 1_455
Ge4 La19 3.316983 1_555
Ge4 La11 3.333668 1_556
Ge4 La5 3.333807 1_545
Ge5 La22 3.122531 1_556
Ge5 La20 3.122691 1_555
Ge5 La29 3.158462 1_555
Ge5 La0 3.255281 1_455
Ge5 La10 3.255657 1_455
Ge5 La21 3.317286 1_555
Ge5 La9 3.333275 1_555
Ge5 La8 3.333805 1_556
Ge6 La15 3.172986 1_555
Ge6 La13 3.173716 1_555
Ge6 La1 3.216779 1_555
Ge6 La6 3.216937 1_555
Ge6 La18 3.234404 1_555
Ge6 La26 3.288951 1_555
Ge6 La7 3.376783 1_545
Ge6 La2 3.377000 1_555
Ge7 La15 3.173506 1_555
Ge7 La12 3.173654 1_555
Ge7 La3 3.216632 1_555
Ge7 La4 3.216987 1_555
Ge7 La19 3.234269 1_555
Ge7 La28 3.289135 1_555
Ge7 La5 3.376682 1_545
Ge7 La11 3.377070 1_556
Ge8 La17 3.173587 1_555
Ge8 La16 3.174158 1_555
Ge8 La5 3.216132 1_555
Ge8 La9 3.216517 1_555
Ge8 La20 3.233325 1_555
Ge8 La24 3.289133 1_455
Ge8 La3 3.376145 1_465
Ge8 La0 3.376647 1_455
Ge9 La13 3.173306 1_555
Ge9 La12 3.173412 1_555
Ge9 La10 3.216454 1_555
Ge9 La0 3.216752 1_555
Ge9 La21 3.233906 1_555
Ge9 La29 3.289053 1_555
Ge9 La8 3.376459 1_556
Ge9 La9 3.376814 1_555
Ge10 La17 3.173510 1_555
Ge10 La14 3.173533 1_555
Ge10 La7 3.216149 1_555
Ge10 La8 3.216789 1_555
Ge10 La22 3.233844 1_555
Ge10 La25 3.288955 1_455
Ge10 La1 3.376276 1_465
Ge10 La10 3.376969 1_454
Ge11 La16 3.173857 1_555
Ge11 La14 3.174038 1_555
Ge11 La11 3.216154 1_555
Ge11 La2 3.216423 1_555
Ge11 La23 3.233269 1_555
Ge11 La27 3.289171 1_455
Ge11 La4 3.376191 1_454
Ge11 La6 3.376542 1_455
Ge12 La25 3.128126 1_555
Ge12 La27 3.128626 1_555
Ge12 La12 3.148984 1_554
Ge12 La11 3.328963 1_555
Ge12 La8 3.329227 1_555
Ge12 La4 3.332548 1_554
Ge12 La10 3.332971 1_554
Ge12 La14 3.518627 1_655
Ge12 La14 3.762322 1_555
Ge13 La24 3.128274 1_555
Ge13 La27 3.128414 1_555
Ge13 La13 3.148759 1_555
Ge13 La2 3.328946 1_555
Ge13 La9 3.328986 1_555
Ge13 La6 3.332614 1_555
Ge13 La0 3.332627 1_555
Ge13 La16 3.518823 1_655
Ge13 La16 3.762244 1_555
Ge14 La28 3.127961 1_555
Ge14 La29 3.128565 1_555
Ge14 La14 3.149358 1_556
Ge14 La10 3.329135 1_455
Ge14 La4 3.329216 1_455
Ge14 La8 3.332894 1_556
Ge14 La11 3.333079 1_556
Ge14 La12 3.518894 1_555
Ge14 La12 3.761816 1_455
Ge15 La24 3.128391 1_555
Ge15 La25 3.128411 1_555
Ge15 La15 3.149747 1_565
Ge15 La5 3.329412 1_555
Ge15 La7 3.329521 1_555
Ge15 La1 3.332946 1_565
Ge15 La3 3.333103 1_565
Ge15 La17 3.518808 1_655
Ge15 La17 3.762243 1_555
Ge16 La26 3.127764 1_555
Ge16 La29 3.127843 1_555
Ge16 La16 3.149747 1_555
Ge16 La6 3.328983 1_455
Ge16 La0 3.329132 1_455
Ge16 La2 3.332961 1_555
Ge16 La9 3.333193 1_555
Ge16 La13 3.518834 1_555
Ge16 La13 3.761604 1_455
Ge17 La28 3.128082 1_555
Ge17 La26 3.128100 1_555
Ge17 La17 3.150360 1_545
Ge17 La1 3.329481 1_455
Ge17 La3 3.329511 1_455
Ge17 La5 3.333348 1_545
Ge17 La7 3.333557 1_545
Ge17 La15 3.518965 1_555
Ge17 La15 3.761692 1_455
