# generated using pymatgen
data_PuU3(W2C3)2
_symmetry_space_group_name_H-M   'P 1'
_cell_length_a   3.16642000
_cell_length_b   5.57300312
_cell_length_c   11.42361899
_cell_angle_alpha   76.74912198
_cell_angle_beta   90.00000000
_cell_angle_gamma   90.00000000
_symmetry_Int_Tables_number   1
_chemical_formula_structural   PuU3(W2C3)2
_chemical_formula_sum   'Pu1 U3 W4 C6'
_cell_volume   196.21944216
_cell_formula_units_Z   1
loop_
 _symmetry_equiv_pos_site_id
 _symmetry_equiv_pos_as_xyz
  1  'x, y, z'
loop_
 _atom_site_type_symbol
 _atom_site_label
 _atom_site_symmetry_multiplicity
 _atom_site_fract_x
 _atom_site_fract_y
 _atom_site_fract_z
 _atom_site_occupancy
  Pu  Pu0  1  0.50000000  0.73419300  0.10345800  1
  U  U0  1  0.00000000  0.23029500  0.60389000  1
  U  U1  1  0.00000000  0.77021400  0.39425500  1
  U  U2  1  0.50000000  0.26842300  0.89505900  1
  W  W0  1  0.50000000  0.28604700  0.34976300  1
  W  W1  1  0.00000000  0.78172000  0.84486800  1
  W  W2  1  0.00000000  0.22318700  0.15567600  1
  W  W3  1  0.50000000  0.71405400  0.65316100  1
  C  C0  1  0.00000000  0.49278900  0.99714900  1
  C  C1  1  0.50000000  0.99792800  0.50073600  1
  C  C2  1  0.00000000  0.50359200  0.25549200  1
  C  C3  1  0.50000000  0.00567600  0.75268000  1
  C  C4  1  0.50000000  0.00070000  0.24712600  1
  C  C5  1  0.00000000  0.49118300  0.74668700  1
loop_
_geom_bond_atom_site_label_1
_geom_bond_atom_site_label_2
_geom_bond_distance
_geom_bond_site_symmetry_2
C0 W2 2.071152 1_556
C0 W1 2.082036 1_555
C0 U2 2.469545 1_455
C0 U2 2.469545 1_555
C0 Pu0 2.557412 1_456
C0 Pu0 2.557412 1_556
C1 W3 2.066861 1_555
C1 W0 2.069581 1_565
C1 U0 2.504337 1_665
C1 U0 2.504337 1_565
C1 U1 2.510844 1_555
C1 U1 2.510844 1_655
C2 W0 2.130170 1_455
C2 W0 2.130170 1_555
C2 W2 2.135202 1_555
C2 U1 2.408406 1_555
C2 Pu0 2.480185 1_555
C2 Pu0 2.480185 1_455
C3 W1 2.137949 1_545
C3 W1 2.137949 1_645
C3 W3 2.186503 1_545
C3 U2 2.425162 1_555
C3 U0 2.446876 1_655
C3 U0 2.446876 1_555
C4 W2 2.131083 1_555
C4 W2 2.131083 1_655
C4 W0 2.181363 1_555
C4 U1 2.447792 1_545
C4 U1 2.447792 1_645
C4 Pu0 2.452954 1_545
C5 W3 2.140657 1_555
C5 W3 2.140657 1_455
C5 W1 2.170751 1_555
C5 U0 2.421196 1_555
C5 U2 2.440482 1_455
C5 U2 2.440482 1_555
