# generated using pymatgen
data_Eu2Se3
_symmetry_space_group_name_H-M   'P 1'
_cell_length_a   7.37937307
_cell_length_b   7.37937307
_cell_length_c   13.55202583
_cell_angle_alpha   100.44568431
_cell_angle_beta   100.44568431
_cell_angle_gamma   109.51674532
_symmetry_Int_Tables_number   1
_chemical_formula_structural   Eu2Se3
_chemical_formula_sum   'Eu8 Se12'
_cell_volume   660.34932028
_cell_formula_units_Z   4
loop_
 _symmetry_equiv_pos_site_id
 _symmetry_equiv_pos_as_xyz
  1  'x, y, z'
loop_
 _atom_site_type_symbol
 _atom_site_label
 _atom_site_symmetry_multiplicity
 _atom_site_fract_x
 _atom_site_fract_y
 _atom_site_fract_z
 _atom_site_occupancy
  Eu  Eu0  1  0.71033800  0.96033800  0.92067600  1
  Eu  Eu1  1  0.53966200  0.78966200  0.57932400  1
  Eu  Eu2  1  0.28966200  0.03966200  0.07932400  1
  Eu  Eu3  1  0.46033800  0.21033800  0.42067600  1
  Eu  Eu4  1  0.37144900  0.62144900  0.24289800  1
  Eu  Eu5  1  0.87855100  0.12855100  0.25710200  1
  Eu  Eu6  1  0.62855100  0.37855100  0.75710200  1
  Eu  Eu7  1  0.12144900  0.87144900  0.74289800  1
  Se  Se0  1  0.85662400  0.10662400  0.75000000  1
  Se  Se1  1  0.39337600  0.64337600  0.75000000  1
  Se  Se2  1  0.14337600  0.89337600  0.25000000  1
  Se  Se3  1  0.60662400  0.35662400  0.25000000  1
  Se  Se4  1  0.55046500  0.81605000  0.08965600  1
  Se  Se5  1  0.68395000  0.94953500  0.41034400  1
  Se  Se6  1  0.22639400  0.46081000  0.41034400  1
  Se  Se7  1  0.03919000  0.27360600  0.08965600  1
  Se  Se8  1  0.44953500  0.18395000  0.91034400  1
  Se  Se9  1  0.31605000  0.05046500  0.58965600  1
  Se  Se10  1  0.77360600  0.53919000  0.58965600  1
  Se  Se11  1  0.96081000  0.72639400  0.91034400  1
loop_
_geom_bond_atom_site_label_1
_geom_bond_atom_site_label_2
_geom_bond_distance
_geom_bond_site_symmetry_2
Eu0 Se8 2.924794 1_565
Eu0 Se11 2.924801 1_555
Eu0 Se1 2.951742 1_555
Eu0 Se0 2.951742 1_565
Eu0 Se7 2.965501 1_666
Eu0 Se4 2.965504 1_556
Eu1 Se9 2.924794 1_565
Eu1 Se10 2.924801 1_555
Eu1 Se1 2.951742 1_555
Eu1 Se0 2.951742 1_565
Eu1 Se6 2.965501 1_555
Eu1 Se5 2.965504 1_555
Eu2 Se4 2.924794 1_545
Eu2 Se7 2.924801 1_555
Eu2 Se3 2.951742 1_555
Eu2 Se2 2.951742 1_545
Eu2 Se11 2.965501 1_444
Eu2 Se8 2.965504 1_554
Eu3 Se5 2.924794 1_545
Eu3 Se6 2.924801 1_555
Eu3 Se3 2.951742 1_555
Eu3 Se2 2.951742 1_545
Eu3 Se10 2.965501 1_555
Eu3 Se9 2.965504 1_555
Eu4 Se6 2.951063 1_555
Eu4 Se5 2.951066 1_555
Eu4 Se4 2.988108 1_555
Eu4 Se7 2.988111 1_555
Eu4 Se2 3.018906 1_555
Eu4 Se3 3.018906 1_555
Eu5 Se7 2.951063 1_655
Eu5 Se4 2.951066 1_545
Eu5 Se5 2.988108 1_545
Eu5 Se6 2.988111 1_655
Eu5 Se3 3.018906 1_555
Eu5 Se2 3.018906 1_645
Eu6 Se10 2.951063 1_555
Eu6 Se9 2.951066 1_555
Eu6 Se8 2.988108 1_555
Eu6 Se11 2.988111 1_555
Eu6 Se1 3.018906 1_555
Eu6 Se0 3.018906 1_555
Eu7 Se11 2.951063 1_455
Eu7 Se8 2.951066 1_565
Eu7 Se9 2.988108 1_565
Eu7 Se10 2.988111 1_455
Eu7 Se0 3.018906 1_465
Eu7 Se1 3.018906 1_555
