# generated using pymatgen
data_La3Ni2Sn7
_symmetry_space_group_name_H-M   'P 1'
_cell_length_a   4.62294750
_cell_length_b   4.63304121
_cell_length_c   14.07646829
_cell_angle_alpha   90.00000000
_cell_angle_beta   99.45125582
_cell_angle_gamma   90.00000000
_symmetry_Int_Tables_number   1
_chemical_formula_structural   La3Ni2Sn7
_chemical_formula_sum   'La3 Ni2 Sn7'
_cell_volume   297.40152507
_cell_formula_units_Z   1
loop_
 _symmetry_equiv_pos_site_id
 _symmetry_equiv_pos_as_xyz
  1  'x, y, z'
loop_
 _atom_site_type_symbol
 _atom_site_label
 _atom_site_symmetry_multiplicity
 _atom_site_fract_x
 _atom_site_fract_y
 _atom_site_fract_z
 _atom_site_occupancy
  La  La0  1  0.18438867  -0.00000000  0.36877933  1
  La  La1  1  0.81561033  -0.00000000  0.63122067  1
  La  La2  1  0.50000000  0.50000000  0.00000000  1
  Ni  Ni0  1  0.37216371  0.50000000  0.74432741  1
  Ni  Ni1  1  0.62783629  0.50000000  0.25567259  1
  Sn  Sn0  1  0.08996861  0.50000000  0.17993723  1
  Sn  Sn1  1  0.91003139  0.50000000  0.82006277  1
  Sn  Sn2  1  0.28169522  0.50000000  0.56339144  1
  Sn  Sn3  1  0.71830478  0.50000000  0.43660856  1
  Sn  Sn4  1  -0.00000000  -0.00000000  0.00000000  1
  Sn  Sn5  1  0.58979799  -0.00000000  0.17959798  1
  Sn  Sn6  1  0.41020201  -0.00000000  0.82040202  1
loop_
_geom_bond_atom_site_label_1
_geom_bond_atom_site_label_2
_geom_bond_distance
_geom_bond_site_symmetry_2
La0 Sn3 3.405319 1_445
La0 Sn3 3.405319 1_455
La0 Sn3 3.405329 1_545
La0 Sn3 3.405329 1_555
La0 Sn0 3.498845 1_555
La0 Sn0 3.498845 1_545
La0 Sn5 3.499041 1_455
La0 Sn5 3.499041 1_555
La0 Sn2 3.559284 1_555
La0 Sn2 3.559284 1_545
La0 Ni1 3.629838 1_455
La0 Ni1 3.629838 1_445
La0 Ni1 3.629844 1_555
La0 Ni1 3.629844 1_545
La1 Sn2 3.405323 1_645
La1 Sn2 3.405323 1_655
La1 Sn2 3.405326 1_545
La1 Sn2 3.405326 1_555
La1 Sn1 3.498845 1_555
La1 Sn1 3.498845 1_545
La1 Sn6 3.499038 1_555
La1 Sn6 3.499044 1_655
La1 Sn3 3.559284 1_555
La1 Sn3 3.559284 1_545
La1 Ni0 3.629841 1_655
La1 Ni0 3.629841 1_645
La1 Ni0 3.629841 1_555
La1 Ni0 3.629841 1_545
La2 Sn4 3.272488 1_655
La2 Sn4 3.272488 1_565
La2 Sn4 3.272488 1_665
La2 Sn4 3.272488 1_555
La2 Sn6 3.403711 1_564
La2 Sn6 3.403711 1_554
La2 Sn5 3.403711 1_555
La2 Sn5 3.403711 1_565
La2 Sn1 3.403734 1_454
La2 Sn0 3.403734 1_655
La2 Sn1 3.403734 1_554
La2 Sn0 3.403734 1_555
La2 Ni0 3.550113 1_554
La2 Ni1 3.550113 1_555
Ni0 Sn2 2.512366 1_555
Ni0 Sn1 2.539450 1_555
Ni0 Sn1 2.539450 1_455
Ni0 Sn6 2.545995 1_565
Ni0 Sn6 2.545995 1_555
Ni1 Sn3 2.512366 1_555
Ni1 Sn0 2.539450 1_555
Ni1 Sn0 2.539450 1_655
Ni1 Sn5 2.545995 1_555
Ni1 Sn5 2.545995 1_565
Sn2 Sn3 2.905512 1_455
Sn2 Sn3 2.905520 1_555
