# generated using pymatgen
data_Mg2Ni3O8
_symmetry_space_group_name_H-M   'P 1'
_cell_length_a   5.72953041
_cell_length_b   5.72953041
_cell_length_c   9.16958800
_cell_angle_alpha   90.00000000
_cell_angle_beta   90.00000000
_cell_angle_gamma   120.00000468
_symmetry_Int_Tables_number   1
_chemical_formula_structural   Mg2Ni3O8
_chemical_formula_sum   'Mg4 Ni6 O16'
_cell_volume   260.68646981
_cell_formula_units_Z   2
loop_
 _symmetry_equiv_pos_site_id
 _symmetry_equiv_pos_as_xyz
  1  'x, y, z'
loop_
 _atom_site_type_symbol
 _atom_site_label
 _atom_site_symmetry_multiplicity
 _atom_site_fract_x
 _atom_site_fract_y
 _atom_site_fract_z
 _atom_site_occupancy
  Mg  Mg0  1  0.66666700  0.33333300  0.02713400  1
  Mg  Mg1  1  0.33333300  0.66666700  0.52713400  1
  Mg  Mg2  1  0.66666700  0.33333300  0.41854600  1
  Mg  Mg3  1  0.33333300  0.66666700  0.91854600  1
  Ni  Ni0  1  0.67032700  0.83516300  0.24685800  1
  Ni  Ni1  1  0.83516300  0.16483700  0.74685800  1
  Ni  Ni2  1  0.16483700  0.32967300  0.24685800  1
  Ni  Ni3  1  0.83516300  0.67032700  0.74685800  1
  Ni  Ni4  1  0.32967300  0.16483700  0.74685800  1
  Ni  Ni5  1  0.16483700  0.83516300  0.24685800  1
  O  O0  1  0.84373600  0.15626400  0.14255000  1
  O  O1  1  0.68747200  0.84373600  0.64255000  1
  O  O2  1  0.15626400  0.31252800  0.64255000  1
  O  O3  1  0.84373600  0.68747200  0.14255000  1
  O  O4  1  0.31252800  0.15626400  0.14255000  1
  O  O5  1  0.15626400  0.84373600  0.64255000  1
  O  O6  1  0.51922800  0.48077200  0.86317200  1
  O  O7  1  0.03845500  0.51922800  0.36317200  1
  O  O8  1  0.48077200  0.96154500  0.36317200  1
  O  O9  1  0.51922800  0.03845500  0.86317200  1
  O  O10  1  0.00000000  0.00000000  0.34985100  1
  O  O11  1  0.00000000  0.00000000  0.84985100  1
  O  O12  1  0.33333300  0.66666700  0.14023200  1
  O  O13  1  0.96154500  0.48077200  0.86317200  1
  O  O14  1  0.48077200  0.51922800  0.36317200  1
  O  O15  1  0.66666700  0.33333300  0.64023200  1
loop_
_geom_bond_atom_site_label_1
_geom_bond_atom_site_label_2
_geom_bond_distance
_geom_bond_site_symmetry_2
Mg0 O0 2.051293 1_555
Mg0 O3 2.051297 1_555
Mg0 O4 2.051297 1_555
Mg0 O13 2.097914 1_554
Mg0 O9 2.097914 1_554
Mg0 O6 2.097914 1_554
Mg1 O5 2.051293 1_555
Mg1 O1 2.051297 1_555
Mg1 O2 2.051297 1_555
Mg1 O8 2.097914 1_555
Mg1 O7 2.097914 1_555
Mg1 O14 2.097914 1_555
Mg2 O7 1.913384 1_655
Mg2 O8 1.913384 1_545
Mg2 O14 1.913393 1_555
Mg2 O15 2.032769 1_555
Mg3 O9 1.913384 1_565
Mg3 O13 1.913384 1_455
Mg3 O6 1.913393 1_555
Mg3 O12 2.032769 1_556
Ni0 O3 1.859775 1_555
Ni0 O0 1.859779 1_565
Ni0 O10 1.888855 1_665
Ni0 O14 1.904677 1_555
Ni0 O8 1.904684 1_555
Ni0 O12 1.937001 1_555
Ni1 O2 1.859779 1_655
Ni1 O1 1.859779 1_545
Ni1 O11 1.888860 1_655
Ni1 O9 1.904676 1_555
Ni1 O13 1.904676 1_555
Ni1 O15 1.936992 1_555
Ni2 O4 1.859775 1_555
Ni2 O0 1.859779 1_455
Ni2 O10 1.888855 1_555
Ni2 O14 1.904677 1_555
Ni2 O7 1.904684 1_555
Ni2 O12 1.937001 1_555
Ni3 O1 1.859775 1_555
Ni3 O5 1.859779 1_655
Ni3 O11 1.888855 1_665
Ni3 O6 1.904677 1_555
Ni3 O13 1.904684 1_555
Ni3 O15 1.937001 1_555
Ni4 O2 1.859775 1_555
Ni4 O5 1.859779 1_545
Ni4 O11 1.888855 1_555
Ni4 O6 1.904677 1_555
Ni4 O9 1.904684 1_555
Ni4 O15 1.937001 1_555
Ni5 O4 1.859779 1_565
Ni5 O3 1.859779 1_455
Ni5 O10 1.888860 1_565
Ni5 O7 1.904676 1_555
Ni5 O8 1.904676 1_555
Ni5 O12 1.936992 1_555
