# generated using pymatgen
data_CaPrTi2O6
_symmetry_space_group_name_H-M   'P 1'
_cell_length_a   5.50420100
_cell_length_b   5.55026100
_cell_length_c   7.83562600
_cell_angle_alpha   90.00000000
_cell_angle_beta   90.00000000
_cell_angle_gamma   90.00000000
_symmetry_Int_Tables_number   1
_chemical_formula_structural   CaPrTi2O6
_chemical_formula_sum   'Ca2 Pr2 Ti4 O12'
_cell_volume   239.37643221
_cell_formula_units_Z   2
loop_
 _symmetry_equiv_pos_site_id
 _symmetry_equiv_pos_as_xyz
  1  'x, y, z'
loop_
 _atom_site_type_symbol
 _atom_site_label
 _atom_site_symmetry_multiplicity
 _atom_site_fract_x
 _atom_site_fract_y
 _atom_site_fract_z
 _atom_site_occupancy
  Ca  Ca0  1  0.48958800  0.20731900  0.00000000  1
  Ca  Ca1  1  0.98958800  0.79268100  0.50000000  1
  Pr  Pr0  1  0.00966600  0.70890400  0.00000000  1
  Pr  Pr1  1  0.50966600  0.29109600  0.50000000  1
  Ti  Ti0  1  0.00045000  0.24829900  0.75037100  1
  Ti  Ti1  1  0.00045000  0.24829900  0.24962900  1
  Ti  Ti2  1  0.50045000  0.75170100  0.25037100  1
  Ti  Ti3  1  0.50045000  0.75170100  0.74962900  1
  O  O0  1  0.07783100  0.22948800  0.50000000  1
  O  O1  1  0.21483700  0.96537800  0.79191100  1
  O  O2  1  0.21483700  0.96537800  0.20808900  1
  O  O3  1  0.28680900  0.46398600  0.20695800  1
  O  O4  1  0.28680900  0.46398600  0.79304200  1
  O  O5  1  0.41818700  0.73198900  0.50000000  1
  O  O6  1  0.57783100  0.77051200  0.00000000  1
  O  O7  1  0.71483700  0.03462200  0.70808900  1
  O  O8  1  0.71483700  0.03462200  0.29191100  1
  O  O9  1  0.78680900  0.53601400  0.70695800  1
  O  O10  1  0.78680900  0.53601400  0.29304200  1
  O  O11  1  0.91818700  0.26801100  0.00000000  1
loop_
_geom_bond_atom_site_label_1
_geom_bond_atom_site_label_2
_geom_bond_distance
_geom_bond_site_symmetry_2
Ca0 O11 2.383024 1_555
Ca0 O4 2.429998 1_554
Ca0 O3 2.429998 1_555
Ca0 O6 2.472568 1_545
Ca0 O1 2.597839 1_544
Ca0 O2 2.597839 1_545
Ca0 O8 2.772662 1_555
Ca0 O7 2.772662 1_554
Ca1 O5 2.383024 1_655
Ca1 O10 2.429998 1_555
Ca1 O9 2.429998 1_555
Ca1 O0 2.472568 1_665
Ca1 O7 2.597839 1_565
Ca1 O8 2.597839 1_565
Ca1 O2 2.772662 1_655
Ca1 O1 2.772662 1_655
O0 Ti1 2.010229 1_555
O0 Ti0 2.010229 1_555
O0 Pr1 2.401376 1_555
O1 Ti0 1.991032 1_565
O1 Ti3 1.996918 1_555
O1 Pr0 2.441357 1_556
O2 Ti1 1.991032 1_565
O2 Ti2 1.996918 1_555
O2 Pr0 2.441357 1_555
O3 Ti1 2.007292 1_555
O3 Ti2 2.012108 1_555
O3 Pr0 2.608561 1_555
O3 Pr1 2.774501 1_555
O4 Ti0 2.007292 1_555
O4 Ti3 2.012108 1_555
O4 Pr0 2.608561 1_556
O4 Pr1 2.774501 1_555
O5 Ti2 2.010702 1_555
O5 Ti3 2.010702 1_555
O5 Pr1 2.498337 1_555
O6 Ti2 2.010229 1_555
O6 Ti3 2.010229 1_554
O6 Pr0 2.401376 1_655
O7 Ti3 1.991032 1_545
O7 Ti0 1.996918 1_655
O7 Pr1 2.441357 1_555
O8 Ti2 1.991032 1_545
O8 Ti1 1.996918 1_655
O8 Pr1 2.441357 1_555
O9 Ti3 2.007292 1_555
O9 Ti0 2.012108 1_655
O9 Pr1 2.608561 1_555
O9 Pr0 2.774501 1_656
O10 Ti2 2.007292 1_555
O10 Ti1 2.012108 1_655
O10 Pr1 2.608561 1_555
O10 Pr0 2.774501 1_655
O11 Ti0 2.010702 1_654
O11 Ti1 2.010702 1_655
O11 Pr0 2.498337 1_655
