# generated using pymatgen
data_PrSm3
_symmetry_space_group_name_H-M   'P 1'
_cell_length_a   7.44767264
_cell_length_b   7.44767319
_cell_length_c   5.83890193
_cell_angle_alpha   90.00000000
_cell_angle_beta   90.00000000
_cell_angle_gamma   119.99999857
_symmetry_Int_Tables_number   1
_chemical_formula_structural   PrSm3
_chemical_formula_sum   'Pr2 Sm6'
_cell_volume   280.48071744
_cell_formula_units_Z   2
loop_
 _symmetry_equiv_pos_site_id
 _symmetry_equiv_pos_as_xyz
  1  'x, y, z'
loop_
 _atom_site_type_symbol
 _atom_site_label
 _atom_site_symmetry_multiplicity
 _atom_site_fract_x
 _atom_site_fract_y
 _atom_site_fract_z
 _atom_site_occupancy
  Pr  Pr0  1  0.33333300  0.66666700  0.75000000  1
  Pr  Pr1  1  0.66666700  0.33333300  0.25000000  1
  Sm  Sm0  1  0.16644727  0.33289454  0.25000000  1
  Sm  Sm1  1  0.66710546  0.83355273  0.25000000  1
  Sm  Sm2  1  0.16644727  0.83355273  0.25000000  1
  Sm  Sm3  1  0.83355273  0.66710546  0.75000000  1
  Sm  Sm4  1  0.33289454  0.16644727  0.75000000  1
  Sm  Sm5  1  0.83355273  0.16644727  0.75000000  1
loop_
_geom_bond_atom_site_label_1
_geom_bond_atom_site_label_2
_geom_bond_distance
_geom_bond_site_symmetry_2
Pr0 Sm2 3.627351 1_556
Pr0 Sm2 3.627351 1_555
Pr0 Sm1 3.627354 1_556
Pr0 Sm1 3.627354 1_555
Pr0 Sm0 3.627354 1_555
Pr0 Sm0 3.627354 1_556
Pr0 Sm3 3.723834 1_455
Pr0 Sm4 3.723834 1_565
Pr0 Sm5 3.723838 1_565
Pr0 Sm5 3.723838 1_455
Pr0 Sm3 3.723841 1_555
Pr0 Sm4 3.723841 1_555
Pr1 Sm5 3.627351 1_554
Pr1 Sm5 3.627351 1_555
Pr1 Sm4 3.627354 1_555
Pr1 Sm4 3.627354 1_554
Pr1 Sm3 3.627354 1_555
Pr1 Sm3 3.627354 1_554
Pr1 Sm0 3.723834 1_655
Pr1 Sm1 3.723834 1_545
Pr1 Sm2 3.723838 1_545
Pr1 Sm2 3.723838 1_655
Pr1 Sm0 3.723841 1_555
Pr1 Sm1 3.723841 1_555
Sm0 Sm5 3.623997 1_455
Sm0 Sm5 3.623997 1_454
Sm0 Sm4 3.623997 1_555
Sm0 Sm4 3.623997 1_554
Sm0 Sm1 3.718935 1_445
Sm0 Sm2 3.718935 1_545
Sm0 Sm1 3.728739 1_555
Sm0 Sm2 3.728739 1_555
Sm1 Sm3 3.623997 1_554
Sm1 Sm3 3.623997 1_555
Sm1 Sm5 3.623997 1_565
Sm1 Sm5 3.623997 1_564
Sm1 Sm2 3.718934 1_655
Sm1 Sm2 3.728738 1_555
Sm2 Sm3 3.623997 1_454
Sm2 Sm3 3.623997 1_455
Sm2 Sm4 3.623997 1_565
Sm2 Sm4 3.623997 1_564
Sm3 Sm4 3.718935 1_665
Sm3 Sm5 3.718935 1_565
Sm3 Sm4 3.728739 1_555
Sm3 Sm5 3.728739 1_555
Sm4 Sm5 3.718934 1_455
Sm4 Sm5 3.728738 1_555
