# generated using pymatgen
data_Sm4NiS7
_symmetry_space_group_name_H-M   'P 1'
_cell_length_a   9.75831192
_cell_length_b   9.75831192
_cell_length_c   6.68255600
_cell_angle_alpha   90.00000000
_cell_angle_beta   90.00000000
_cell_angle_gamma   119.99999947
_symmetry_Int_Tables_number   1
_chemical_formula_structural   Sm4NiS7
_chemical_formula_sum   'Sm8 Ni2 S14'
_cell_volume   551.09013023
_cell_formula_units_Z   2
loop_
 _symmetry_equiv_pos_site_id
 _symmetry_equiv_pos_as_xyz
  1  'x, y, z'
loop_
 _atom_site_type_symbol
 _atom_site_label
 _atom_site_symmetry_multiplicity
 _atom_site_fract_x
 _atom_site_fract_y
 _atom_site_fract_z
 _atom_site_occupancy
  Sm  Sm0  1  0.33333300  0.66666700  0.82554700  1
  Sm  Sm1  1  0.66666700  0.33333300  0.32554700  1
  Sm  Sm2  1  0.77156300  0.62704700  0.78273100  1
  Sm  Sm3  1  0.85548400  0.22843700  0.78273100  1
  Sm  Sm4  1  0.22843700  0.37295300  0.28273100  1
  Sm  Sm5  1  0.37295300  0.14451600  0.78273100  1
  Sm  Sm6  1  0.14451600  0.77156300  0.28273100  1
  Sm  Sm7  1  0.62704700  0.85548400  0.28273100  1
  Ni  Ni0  1  0.00000000  0.00000000  0.97655600  1
  Ni  Ni1  1  0.00000000  0.00000000  0.47655600  1
  S  S0  1  0.92781900  0.49653900  0.53815000  1
  S  S1  1  0.56872000  0.07218100  0.53815000  1
  S  S2  1  0.07218100  0.50346100  0.03815000  1
  S  S3  1  0.50346100  0.43128000  0.53815000  1
  S  S4  1  0.43128000  0.92781900  0.03815000  1
  S  S5  1  0.49653900  0.56872000  0.03815000  1
  S  S6  1  0.33333300  0.66666700  0.43434300  1
  S  S7  1  0.66666700  0.33333300  0.93434300  1
  S  S8  1  0.77555400  0.90898900  0.70163700  1
  S  S9  1  0.13343500  0.22444600  0.70163700  1
  S  S10  1  0.22444600  0.09101100  0.20163700  1
  S  S11  1  0.09101100  0.86656500  0.70163700  1
  S  S12  1  0.86656500  0.77555400  0.20163700  1
  S  S13  1  0.90898900  0.13343500  0.20163700  1
loop_
_geom_bond_atom_site_label_1
_geom_bond_atom_site_label_2
_geom_bond_distance
_geom_bond_site_symmetry_2
Ni0 S13 2.429607 1_456
Ni0 S10 2.429607 1_556
Ni0 S12 2.429607 1_446
Ni0 S11 2.648733 1_545
Ni0 S8 2.648733 1_445
Ni0 S9 2.648733 1_555
Ni1 S11 2.429607 1_545
Ni1 S8 2.429607 1_445
Ni1 S9 2.429607 1_555
Ni1 S13 2.648733 1_455
Ni1 S10 2.648733 1_555
Ni1 S12 2.648733 1_445
S0 Sm1 2.643980 1_555
S0 Sm3 2.857886 1_555
S0 Sm2 2.925770 1_555
S0 Sm6 2.985363 1_655
S1 Sm1 2.643979 1_555
S1 Sm5 2.857886 1_555
S1 Sm3 2.925770 1_555
S1 Sm7 2.985363 1_545
S2 Sm0 2.643980 1_554
S2 Sm6 2.857886 1_555
S2 Sm4 2.925770 1_555
S2 Sm3 2.985363 1_454
S3 Sm1 2.643987 1_555
S3 Sm2 2.857886 1_555
S3 Sm5 2.925770 1_555
S3 Sm4 2.985363 1_555
S4 Sm0 2.643979 1_554
S4 Sm7 2.857886 1_555
S4 Sm6 2.925770 1_555
S4 Sm5 2.985363 1_564
S5 Sm0 2.643987 1_554
S5 Sm4 2.857886 1_555
S5 Sm7 2.925770 1_555
S5 Sm2 2.985363 1_554
S6 Sm0 2.614243 1_555
S6 Sm6 2.712052 1_555
S6 Sm7 2.712059 1_555
S6 Sm4 2.712061 1_555
S7 Sm1 2.614243 1_556
S7 Sm3 2.712052 1_555
S7 Sm5 2.712059 1_555
S7 Sm2 2.712061 1_555
S8 Sm2 2.785241 1_555
S8 Sm3 2.861472 1_565
S8 Sm7 3.074494 1_555
S9 Sm3 2.785241 1_455
S9 Sm5 2.861472 1_555
S9 Sm4 3.074494 1_555
S10 Sm4 2.785241 1_555
S10 Sm6 2.861472 1_545
S10 Sm5 3.074494 1_554
S11 Sm5 2.785241 1_565
S11 Sm2 2.861472 1_455
S11 Sm6 3.074494 1_555
S12 Sm6 2.785241 1_655
S12 Sm7 2.861472 1_555
S12 Sm2 3.074494 1_554
S13 Sm7 2.785241 1_545
S13 Sm4 2.861472 1_655
S13 Sm3 3.074494 1_554
