# generated using pymatgen
data_Cs2(B2O3)9
_symmetry_space_group_name_H-M   'P 1'
_cell_length_a   8.89209532
_cell_length_b   8.89209532
_cell_length_c   15.39216800
_cell_angle_alpha   90.00000000
_cell_angle_beta   90.00000000
_cell_angle_gamma   93.29451008
_symmetry_Int_Tables_number   1
_chemical_formula_structural   Cs2(B2O3)9
_chemical_formula_sum   'Cs4 B36 O54'
_cell_volume   1215.03747638
_cell_formula_units_Z   2
loop_
 _symmetry_equiv_pos_site_id
 _symmetry_equiv_pos_as_xyz
  1  'x, y, z'
loop_
 _atom_site_type_symbol
 _atom_site_label
 _atom_site_symmetry_multiplicity
 _atom_site_fract_x
 _atom_site_fract_y
 _atom_site_fract_z
 _atom_site_occupancy
  Cs  Cs0  1  0.51592100  0.99468600  0.38221700  1
  Cs  Cs1  1  0.48407900  0.00531400  0.88221700  1
  Cs  Cs2  1  0.00531400  0.48407900  0.11778300  1
  Cs  Cs3  1  0.99468600  0.51592100  0.61778300  1
  B  B0  1  0.84075900  0.08245300  0.20181300  1
  B  B1  1  0.16465100  0.03611300  0.06475200  1
  B  B2  1  0.68289300  0.14746500  0.07960400  1
  B  B3  1  0.31843300  0.11843400  0.18540100  1
  B  B4  1  0.71605400  0.14858900  0.65186000  1
  B  B5  1  0.26481000  0.11498800  0.60437400  1
  B  B6  1  0.91754700  0.15924100  0.29818700  1
  B  B7  1  0.03611300  0.16465100  0.93524800  1
  B  B8  1  0.85141100  0.28394600  0.84814000  1
  B  B9  1  0.11498800  0.26481000  0.39562600  1
  B  B10  1  0.85253500  0.31710600  0.42039600  1
  B  B11  1  0.11843400  0.31843300  0.81459900  1
  B  B12  1  0.64035100  0.35964900  0.75000000  1
  B  B13  1  0.33497600  0.33497600  0.50000000  1
  B  B14  1  0.42828700  0.37613400  0.24181800  1
  B  B15  1  0.57603000  0.39551800  0.01703500  1
  B  B16  1  0.60448200  0.42397000  0.48296500  1
  B  B17  1  0.37613400  0.42828700  0.75818200  1
  B  B18  1  0.62386600  0.57171300  0.25818200  1
  B  B19  1  0.39551800  0.57603000  0.98296500  1
  B  B20  1  0.57171300  0.62386600  0.74181800  1
  B  B21  1  0.42397000  0.60448200  0.51703500  1
  B  B22  1  0.66502400  0.66502400  0.00000000  1
  B  B23  1  0.35964900  0.64035100  0.25000000  1
  B  B24  1  0.88156600  0.68156700  0.31459900  1
  B  B25  1  0.14746500  0.68289400  0.92039600  1
  B  B26  1  0.88501200  0.73519000  0.89562600  1
  B  B27  1  0.14858900  0.71605400  0.34814000  1
  B  B28  1  0.96388700  0.83534900  0.43524800  1
  B  B29  1  0.08245300  0.84075900  0.79818700  1
  B  B30  1  0.73519000  0.88501200  0.10437400  1
  B  B31  1  0.28394600  0.85141100  0.15186000  1
  B  B32  1  0.68156700  0.88156600  0.68540100  1
  B  B33  1  0.31710600  0.85253500  0.57960400  1
  B  B34  1  0.83534900  0.96388700  0.56475200  1
  B  B35  1  0.15924100  0.91754700  0.70181300  1
  O  O0  1  0.65601700  0.03053400  0.70324700  1
  O  O1  1  0.33923000  0.00390600  0.55949500  1
  O  O2  1  0.06565300  0.06565300  0.00000000  1
  O  O3  1  0.79917700  0.11018200  0.57799300  1
  O  O4  1  0.18088800  0.06787600  0.67958100  1
  O  O5  1  0.22038000  0.15187100  0.11819200  1
  O  O6  1  0.78360000  0.18961900  0.14606500  1
  O  O7  1  0.88981800  0.20082300  0.92200700  1
  O  O8  1  0.06787600  0.18088900  0.32041900  1
  O  O9  1  0.81038100  0.21640000  0.35393500  1
  O  O10  1  0.15187100  0.22038000  0.88180800  1
  O  O11  1  0.59691200  0.24511800  0.03716700  1
  O  O12  1  0.39784300  0.22214500  0.23274700  1
  O  O13  1  0.70251200  0.29301800  0.67073100  1
  O  O14  1  0.27028900  0.25845000  0.57900200  1
  O  O15  1  0.70698200  0.29748800  0.82926900  1
  O  O16  1  0.25845000  0.27028900  0.42099800  1
  O  O17  1  0.49822900  0.30929800  0.48831300  1
  O  O18  1  0.47697300  0.32236200  0.75784200  1
  O  O19  1  0.96946600  0.34398300  0.79675300  1
  O  O20  1  0.00390600  0.33923000  0.44050500  1
  O  O21  1  0.75488200  0.40308800  0.46283300  1
  O  O22  1  0.22214500  0.39784300  0.76725300  1
  O  O23  1  0.58114000  0.41886000  0.25000000  1
  O  O24  1  0.42742500  0.42742500  0.00000000  1
  O  O25  1  0.32236200  0.47697300  0.24215800  1
  O  O26  1  0.69070200  0.50177100  0.01168700  1
  O  O27  1  0.67763800  0.52302700  0.74215800  1
  O  O28  1  0.30929800  0.49822900  0.51168700  1
  O  O29  1  0.57257500  0.57257500  0.50000000  1
  O  O30  1  0.41886000  0.58114000  0.75000000  1
  O  O31  1  0.77785500  0.60215700  0.26725300  1
  O  O32  1  0.24511800  0.59691200  0.96283300  1
  O  O33  1  0.99609400  0.66077000  0.94050500  1
  O  O34  1  0.03053400  0.65601700  0.29675300  1
  O  O35  1  0.52302700  0.67763800  0.25784200  1
  O  O36  1  0.50177100  0.69070200  0.98831300  1
  O  O37  1  0.74155000  0.72971100  0.92099800  1
  O  O38  1  0.29301800  0.70251200  0.32926900  1
  O  O39  1  0.72971100  0.74155000  0.07900200  1
  O  O40  1  0.29748800  0.70698200  0.17073100  1
  O  O41  1  0.60215700  0.77785500  0.73274700  1
  O  O42  1  0.40308800  0.75488200  0.53716700  1
  O  O43  1  0.84812900  0.77962000  0.38180800  1
  O  O44  1  0.18961900  0.78360000  0.85393500  1
  O  O45  1  0.93212400  0.81911100  0.82041900  1
  O  O46  1  0.11018200  0.79917700  0.42200700  1
  O  O47  1  0.77962000  0.84812900  0.61819200  1
  O  O48  1  0.21640000  0.81038100  0.64606500  1
  O  O49  1  0.81911200  0.93212400  0.17958100  1
  O  O50  1  0.20082300  0.88981800  0.07799300  1
  O  O51  1  0.93434700  0.93434700  0.50000000  1
  O  O52  1  0.66077000  0.99609400  0.05949500  1
  O  O53  1  0.34398300  0.96946600  0.20324700  1
loop_
_geom_bond_atom_site_label_1
_geom_bond_atom_site_label_2
_geom_bond_distance
_geom_bond_site_symmetry_2
Cs0 O1 3.152113 1_565
Cs0 O53 3.152294 1_555
Cs0 O9 3.215408 1_565
Cs0 O17 3.250926 1_565
Cs0 O12 3.275734 1_565
Cs0 O38 3.278835 1_555
Cs0 O42 3.316024 1_555
Cs0 O35 3.411364 1_555
Cs0 O16 3.499812 1_565
Cs0 O43 3.610102 1_555
Cs1 O52 3.152113 1_546
Cs1 O0 3.152294 1_555
Cs1 O44 3.215408 1_545
Cs1 O36 3.250926 1_545
Cs1 O41 3.275734 1_545
Cs1 O15 3.278835 1_555
Cs1 O11 3.316024 1_556
Cs1 O18 3.411364 1_555
Cs1 O37 3.499812 1_545
Cs1 O10 3.610102 1_555
Cs2 O33 3.152113 1_454
Cs2 O34 3.152294 1_555
Cs2 O6 3.215408 1_455
Cs2 O26 3.250926 1_455
Cs2 O31 3.275734 1_455
Cs2 O40 3.278835 1_555
Cs2 O32 3.316024 1_554
Cs2 O25 3.411364 1_555
Cs2 O39 3.499812 1_455
Cs2 O5 3.610102 1_555
Cs3 O20 3.152113 1_655
Cs3 O19 3.152294 1_555
Cs3 O48 3.215408 1_655
Cs3 O28 3.250926 1_655
Cs3 O22 3.275734 1_655
Cs3 O13 3.278835 1_555
Cs3 O21 3.316024 1_555
Cs3 O27 3.411364 1_555
Cs3 O14 3.499812 1_655
Cs3 O47 3.610102 1_555
B0 O49 1.382552 1_545
B0 O6 1.399422 1_555
B1 O2 1.365232 1_555
B1 O50 1.373079 1_545
B1 O5 1.386746 1_555
B2 O11 1.357028 1_555
B2 O52 1.384124 1_545
B2 O6 1.396539 1_555
B3 O12 1.343621 1_555
B3 O53 1.384314 1_545
B3 O5 1.395914 1_555
B4 O13 1.328914 1_555
B4 O0 1.395776 1_555
B4 O3 1.408787 1_555
B5 O14 1.332328 1_555
B5 O1 1.402098 1_555
B5 O4 1.427053 1_555
B6 O8 1.382553 1_655
B6 O9 1.399422 1_555
B7 O2 1.365232 1_556
B7 O7 1.373079 1_455
B7 O10 1.386746 1_555
B8 O15 1.328914 1_555
B8 O19 1.395776 1_555
B8 O7 1.408787 1_555
B9 O16 1.332328 1_555
B9 O20 1.402098 1_555
B9 O8 1.427048 1_555
B10 O21 1.357033 1_555
B10 O20 1.384125 1_655
B10 O9 1.396534 1_555
B11 O22 1.343621 1_555
B11 O19 1.384314 1_455
B11 O10 1.395914 1_555
B12 O27 1.476376 1_555
B12 O18 1.476376 1_555
B12 O13 1.477466 1_555
B12 O15 1.477466 1_555
B13 O14 1.492516 1_555
B13 O16 1.492516 1_555
B13 O17 1.493289 1_555
B13 O28 1.493289 1_555
B14 O25 1.337267 1_555
B14 O12 1.387485 1_555
B14 O23 1.395790 1_555
B15 O26 1.352202 1_555
B15 O24 1.392287 1_555
B15 O11 1.395566 1_555
B16 O17 1.352202 1_555
B16 O29 1.392287 1_555
B16 O21 1.395566 1_555
B17 O18 1.337267 1_555
B17 O22 1.387485 1_555
B17 O30 1.395790 1_555
B18 O35 1.337267 1_555
B18 O31 1.387485 1_555
B18 O23 1.395790 1_555
B19 O36 1.352202 1_555
B19 O24 1.392287 1_556
B19 O32 1.395566 1_555
B20 O27 1.337267 1_555
B20 O41 1.387485 1_555
B20 O30 1.395790 1_555
B21 O28 1.352202 1_555
B21 O29 1.392287 1_555
B21 O42 1.395566 1_555
B22 O39 1.492516 1_555
B22 O37 1.492516 1_554
B22 O36 1.493289 1_554
B22 O26 1.493289 1_555
B23 O35 1.476376 1_555
B23 O25 1.476376 1_555
B23 O38 1.477466 1_555
B23 O40 1.477466 1_555
B24 O31 1.343621 1_555
B24 O34 1.384314 1_655
B24 O43 1.395914 1_555
B25 O32 1.357033 1_555
B25 O33 1.384125 1_455
B25 O44 1.396534 1_555
B26 O37 1.332328 1_555
B26 O33 1.402098 1_555
B26 O45 1.427048 1_555
B27 O38 1.328914 1_555
B27 O34 1.395776 1_555
B27 O46 1.408787 1_555
B28 O51 1.365232 1_555
B28 O46 1.373079 1_655
B28 O43 1.386746 1_555
B29 O45 1.382553 1_455
B29 O44 1.399422 1_555
B30 O39 1.332328 1_555
B30 O52 1.402098 1_555
B30 O49 1.427053 1_555
B31 O40 1.328914 1_555
B31 O53 1.395776 1_555
B31 O50 1.408787 1_555
B32 O41 1.343621 1_555
B32 O0 1.384314 1_565
B32 O47 1.395914 1_555
B33 O42 1.357033 1_555
B33 O1 1.384125 1_565
B33 O48 1.396534 1_555
B34 O51 1.365232 1_555
B34 O3 1.373079 1_565
B34 O47 1.386746 1_555
B35 O4 1.382552 1_565
B35 O48 1.399422 1_555
