# generated using pymatgen
data_La4AsBrO8
_symmetry_space_group_name_H-M   'P 1'
_cell_length_a   8.52135200
_cell_length_b   8.52135200
_cell_length_c   13.67468000
_cell_angle_alpha   90.00000000
_cell_angle_beta   90.00000000
_cell_angle_gamma   90.00000000
_symmetry_Int_Tables_number   1
_chemical_formula_structural   La4AsBrO8
_chemical_formula_sum   'La16 As4 Br4 O32'
_cell_volume   992.96555444
_cell_formula_units_Z   4
loop_
 _symmetry_equiv_pos_site_id
 _symmetry_equiv_pos_as_xyz
  1  'x, y, z'
loop_
 _atom_site_type_symbol
 _atom_site_label
 _atom_site_symmetry_multiplicity
 _atom_site_fract_x
 _atom_site_fract_y
 _atom_site_fract_z
 _atom_site_occupancy
  La  La0  1  0.51628600  0.24530500  0.16806800  1
  La  La1  1  0.48371400  0.75469500  0.83193200  1
  La  La2  1  0.48371400  0.75469500  0.16806800  1
  La  La3  1  0.75469500  0.51628600  0.66806800  1
  La  La4  1  0.51628600  0.24530500  0.83193200  1
  La  La5  1  0.24530500  0.48371400  0.33193200  1
  La  La6  1  0.24530500  0.48371400  0.66806800  1
  La  La7  1  0.75469500  0.51628600  0.33193200  1
  La  La8  1  0.24472400  0.01302500  0.33232100  1
  La  La9  1  0.75527600  0.98697500  0.66767900  1
  La  La10  1  0.75527600  0.98697500  0.33232100  1
  La  La11  1  0.98697500  0.24472400  0.83232100  1
  La  La12  1  0.24472400  0.01302500  0.66767900  1
  La  La13  1  0.01302500  0.75527600  0.16767900  1
  La  La14  1  0.01302500  0.75527600  0.83232100  1
  La  La15  1  0.98697500  0.24472400  0.16767900  1
  As  As0  1  0.25203800  0.04255100  0.00000000  1
  As  As1  1  0.74796200  0.95744900  0.00000000  1
  As  As2  1  0.95744900  0.25203800  0.50000000  1
  As  As3  1  0.04255100  0.74796200  0.50000000  1
  Br  Br0  1  0.25278700  0.55527900  0.00000000  1
  Br  Br1  1  0.74721300  0.44472100  0.00000000  1
  Br  Br2  1  0.44472100  0.25278700  0.50000000  1
  Br  Br3  1  0.55527900  0.74721300  0.50000000  1
  O  O0  1  0.08746200  0.16278700  0.00000000  1
  O  O1  1  0.91253800  0.83721300  0.00000000  1
  O  O2  1  0.83721300  0.08746200  0.50000000  1
  O  O3  1  0.16278700  0.91253800  0.50000000  1
  O  O4  1  0.25696000  0.24974600  0.23030300  1
  O  O5  1  0.74304000  0.75025400  0.76969700  1
  O  O6  1  0.74304000  0.75025400  0.23030300  1
  O  O7  1  0.75025400  0.25696000  0.73030300  1
  O  O8  1  0.25696000  0.24974600  0.76969700  1
  O  O9  1  0.24974600  0.74304000  0.26969700  1
  O  O10  1  0.24974600  0.74304000  0.73030300  1
  O  O11  1  0.75025400  0.25696000  0.26969700  1
  O  O12  1  0.41606200  0.16328500  0.00000000  1
  O  O13  1  0.58393800  0.83671500  0.00000000  1
  O  O14  1  0.83671500  0.41606200  0.50000000  1
  O  O15  1  0.16328500  0.58393800  0.50000000  1
  O  O16  1  0.00000000  0.50000000  0.23875300  1
  O  O17  1  0.00000000  0.50000000  0.76124700  1
  O  O18  1  0.50000000  0.00000000  0.73875300  1
  O  O19  1  0.50000000  0.00000000  0.26124700  1
  O  O20  1  0.07050100  0.25212400  0.39600900  1
  O  O21  1  0.92949900  0.74787600  0.60399100  1
  O  O22  1  0.92949900  0.74787600  0.39600900  1
  O  O23  1  0.74787600  0.07050100  0.89600900  1
  O  O24  1  0.07050100  0.25212400  0.60399100  1
  O  O25  1  0.25212400  0.92949900  0.10399100  1
  O  O26  1  0.25212400  0.92949900  0.89600900  1
  O  O27  1  0.74787600  0.07050100  0.10399100  1
  O  O28  1  0.00000000  0.00000000  0.25000000  1
  O  O29  1  0.00000000  0.00000000  0.75000000  1
  O  O30  1  0.50000000  0.50000000  0.25000000  1
  O  O31  1  0.50000000  0.50000000  0.75000000  1
loop_
_geom_bond_atom_site_label_1
_geom_bond_atom_site_label_2
_geom_bond_distance
_geom_bond_site_symmetry_2
La0 O4 2.368324 1_555
La0 O11 2.432321 1_555
La0 O30 2.446414 1_555
La0 O19 2.452001 1_555
La0 O12 2.549501 1_555
La0 O27 2.623192 1_555
La1 O5 2.368324 1_555
La1 O10 2.432321 1_555
La1 O31 2.446414 1_555
La1 O18 2.452001 1_565
La1 O13 2.549501 1_556
La1 O26 2.623192 1_555
La2 O6 2.368324 1_555
La2 O9 2.432321 1_555
La2 O30 2.446414 1_555
La2 O19 2.452001 1_565
La2 O13 2.549501 1_555
La2 O25 2.623192 1_555
La3 O7 2.368324 1_555
La3 O5 2.432321 1_555
La3 O31 2.446414 1_555
La3 O17 2.452001 1_655
La3 O14 2.549501 1_555
La3 O21 2.623192 1_555
La4 O8 2.368324 1_555
La4 O7 2.432321 1_555
La4 O31 2.446414 1_555
La4 O18 2.452001 1_555
La4 O12 2.549501 1_556
La4 O23 2.623192 1_555
La5 O9 2.368324 1_555
La5 O4 2.432321 1_555
La5 O30 2.446414 1_555
La5 O16 2.452001 1_555
La5 O15 2.549501 1_555
La5 O20 2.623192 1_555
La6 O10 2.368324 1_555
La6 O8 2.432321 1_555
La6 O31 2.446414 1_555
La6 O17 2.452001 1_555
La6 O15 2.549501 1_555
La6 O24 2.623192 1_555
La7 O11 2.368324 1_555
La7 O6 2.432321 1_555
La7 O30 2.446414 1_555
La7 O16 2.452001 1_655
La7 O14 2.549501 1_555
La7 O22 2.623192 1_555
La8 O28 2.372416 1_555
La8 O19 2.385131 1_555
La8 O4 2.454812 1_555
La8 O9 2.455223 1_545
La8 O3 2.545266 1_545
La8 O20 2.667164 1_555
La9 O29 2.372416 1_665
La9 O18 2.385131 1_565
La9 O5 2.454812 1_555
La9 O7 2.455223 1_565
La9 O2 2.545266 1_565
La9 O21 2.667164 1_555
La10 O28 2.372416 1_665
La10 O19 2.385131 1_565
La10 O6 2.454812 1_555
La10 O11 2.455223 1_565
La10 O2 2.545266 1_565
La10 O22 2.667164 1_555
La11 O29 2.372416 1_655
La11 O17 2.385131 1_655
La11 O7 2.454812 1_555
La11 O8 2.455223 1_655
La11 O0 2.545266 1_656
La11 O23 2.667164 1_555
La12 O29 2.372416 1_555
La12 O18 2.385131 1_555
La12 O8 2.454812 1_555
La12 O10 2.455223 1_545
La12 O3 2.545266 1_545
La12 O24 2.667164 1_555
La13 O28 2.372416 1_565
La13 O16 2.385131 1_555
La13 O9 2.454812 1_555
La13 O6 2.455223 1_455
La13 O1 2.545266 1_455
La13 O25 2.667164 1_555
La14 O29 2.372416 1_565
La14 O17 2.385131 1_555
La14 O10 2.454812 1_555
La14 O5 2.455223 1_455
La14 O1 2.545266 1_456
La14 O26 2.667164 1_555
La15 O28 2.372416 1_655
La15 O16 2.385131 1_655
La15 O11 2.454812 1_555
La15 O4 2.455223 1_655
La15 O0 2.545266 1_655
La15 O27 2.667164 1_555
As0 O26 1.717633 1_544
As0 O25 1.717633 1_545
As0 O12 1.735525 1_555
As0 O0 1.736809 1_555
As1 O23 1.717633 1_564
As1 O27 1.717633 1_565
As1 O13 1.735525 1_555
As1 O1 1.736809 1_555
As2 O24 1.717633 1_655
As2 O20 1.717633 1_655
As2 O14 1.735525 1_555
As2 O2 1.736809 1_555
As3 O21 1.717633 1_455
As3 O22 1.717633 1_455
As3 O15 1.735525 1_555
As3 O3 1.736809 1_555
Br0 La2 3.470151 1_555
Br0 La1 3.470151 1_554
Br0 La13 3.512313 1_555
Br0 La14 3.512313 1_554
Br1 La0 3.470151 1_555
Br1 La4 3.470151 1_554
Br1 La11 3.512313 1_554
Br1 La15 3.512313 1_555
Br2 La5 3.470151 1_555
Br2 La6 3.470151 1_555
Br2 La8 3.512313 1_555
Br2 La12 3.512313 1_555
Br3 La7 3.470151 1_555
Br3 La3 3.470151 1_555
Br3 La10 3.512313 1_555
Br3 La9 3.512313 1_555
