# generated using pymatgen
data_CaTiNiP2O9
_symmetry_space_group_name_H-M   'P 1'
_cell_length_a   6.49134000
_cell_length_b   7.51922200
_cell_length_c   14.28101000
_cell_angle_alpha   90.00000000
_cell_angle_beta   90.00000000
_cell_angle_gamma   90.00000000
_symmetry_Int_Tables_number   1
_chemical_formula_structural   CaTiNiP2O9
_chemical_formula_sum   'Ca4 Ti4 Ni4 P8 O36'
_cell_volume   697.05362088
_cell_formula_units_Z   4
loop_
 _symmetry_equiv_pos_site_id
 _symmetry_equiv_pos_as_xyz
  1  'x, y, z'
loop_
 _atom_site_type_symbol
 _atom_site_label
 _atom_site_symmetry_multiplicity
 _atom_site_fract_x
 _atom_site_fract_y
 _atom_site_fract_z
 _atom_site_occupancy
  Ca  Ca0  1  0.75000000  0.88218100  0.78088900  1
  Ca  Ca1  1  0.75000000  0.61781900  0.28088900  1
  Ca  Ca2  1  0.25000000  0.11781900  0.21911100  1
  Ca  Ca3  1  0.25000000  0.38218100  0.71911100  1
  Ti  Ti0  1  0.75000000  0.34446800  0.88331100  1
  Ti  Ti1  1  0.25000000  0.65553200  0.11668900  1
  Ti  Ti2  1  0.25000000  0.84446800  0.61668900  1
  Ti  Ti3  1  0.75000000  0.15553200  0.38331100  1
  Ni  Ni0  1  0.50000000  0.00000000  0.00000000  1
  Ni  Ni1  1  0.50000000  0.50000000  0.50000000  1
  Ni  Ni2  1  0.00000000  0.50000000  0.50000000  1
  Ni  Ni3  1  0.00000000  0.00000000  0.00000000  1
  P  P0  1  0.25000000  0.35021500  0.93759400  1
  P  P1  1  0.75000000  0.64978500  0.06240600  1
  P  P2  1  0.75000000  0.85021500  0.56240600  1
  P  P3  1  0.25000000  0.14978500  0.43759400  1
  P  P4  1  0.75000000  0.39143100  0.69167100  1
  P  P5  1  0.25000000  0.60856900  0.30832900  1
  P  P6  1  0.25000000  0.89143100  0.80832900  1
  P  P7  1  0.75000000  0.10856900  0.19167100  1
  O  O0  1  0.05188600  0.60682900  0.36776200  1
  O  O1  1  0.55188600  0.39317100  0.63223800  1
  O  O2  1  0.94811400  0.10682900  0.13223800  1
  O  O3  1  0.44811400  0.89317100  0.86776200  1
  O  O4  1  0.94811400  0.39317100  0.63223800  1
  O  O5  1  0.44811400  0.60682900  0.36776200  1
  O  O6  1  0.05188600  0.89317100  0.86776200  1
  O  O7  1  0.55188600  0.10682900  0.13223800  1
  O  O8  1  0.25000000  0.33299100  0.48479000  1
  O  O9  1  0.75000000  0.66700900  0.51521000  1
  O  O10  1  0.75000000  0.83299100  0.01521000  1
  O  O11  1  0.25000000  0.16700900  0.98479000  1
  O  O12  1  0.75000000  0.14109900  0.94184700  1
  O  O13  1  0.25000000  0.85890100  0.05815300  1
  O  O14  1  0.25000000  0.64109900  0.55815300  1
  O  O15  1  0.75000000  0.35890100  0.44184700  1
  O  O16  1  0.75000000  0.21965800  0.75590700  1
  O  O17  1  0.25000000  0.78034200  0.24409300  1
  O  O18  1  0.25000000  0.71965800  0.74409300  1
  O  O19  1  0.75000000  0.28034200  0.25590700  1
  O  O20  1  0.43825900  0.12987700  0.37094600  1
  O  O21  1  0.93825900  0.87012300  0.62905400  1
  O  O22  1  0.56174100  0.62987700  0.12905400  1
  O  O23  1  0.06174100  0.37012300  0.87094600  1
  O  O24  1  0.56174100  0.87012300  0.62905400  1
  O  O25  1  0.06174100  0.12987700  0.37094600  1
  O  O26  1  0.43825900  0.37012300  0.87094600  1
  O  O27  1  0.93825900  0.62987700  0.12905400  1
  O  O28  1  0.75000000  0.95790000  0.26727800  1
  O  O29  1  0.25000000  0.04210000  0.73272200  1
  O  O30  1  0.25000000  0.45790000  0.23272200  1
  O  O31  1  0.75000000  0.54210000  0.76727800  1
  O  O32  1  0.75000000  0.99404500  0.48657800  1
  O  O33  1  0.25000000  0.00595500  0.51342200  1
  O  O34  1  0.25000000  0.49404500  0.01342200  1
  O  O35  1  0.75000000  0.50595500  0.98657800  1
loop_
_geom_bond_atom_site_label_1
_geom_bond_atom_site_label_2
_geom_bond_distance
_geom_bond_site_symmetry_2
Ca0 O6 2.320821 1_655
Ca0 O3 2.320821 1_555
Ca0 O21 2.490664 1_555
Ca0 O24 2.490664 1_555
Ca0 O16 2.562522 1_565
Ca0 O31 2.564522 1_555
Ca1 O0 2.320821 1_655
Ca1 O5 2.320821 1_555
Ca1 O27 2.490664 1_555
Ca1 O22 2.490664 1_555
Ca1 O19 2.562522 1_555
Ca1 O28 2.564522 1_555
Ca2 O2 2.320821 1_455
Ca2 O7 2.320821 1_555
Ca2 O20 2.490664 1_555
Ca2 O25 2.490664 1_555
Ca2 O17 2.562522 1_545
Ca2 O30 2.564522 1_555
Ca3 O4 2.320821 1_455
Ca3 O1 2.320821 1_555
Ca3 O26 2.490664 1_555
Ca3 O23 2.490664 1_555
Ca3 O18 2.562522 1_555
Ca3 O29 2.564522 1_555
Ni0 O11 2.063432 1_554
Ni0 O10 2.063432 1_545
Ni0 O7 2.079685 1_555
Ni0 O3 2.079685 1_544
Ni0 O13 2.109247 1_545
Ni0 O12 2.109247 1_554
Ni1 O8 2.063432 1_555
Ni1 O9 2.063432 1_555
Ni1 O1 2.079685 1_555
Ni1 O5 2.079685 1_555
Ni1 O14 2.109247 1_555
Ni1 O15 2.109247 1_555
Ni2 O9 2.063432 1_455
Ni2 O8 2.063432 1_555
Ni2 O0 2.079685 1_555
Ni2 O4 2.079685 1_455
Ni2 O14 2.109247 1_555
Ni2 O15 2.109247 1_455
Ni3 O11 2.063432 1_554
Ni3 O10 2.063432 1_445
Ni3 O2 2.079685 1_455
Ni3 O6 2.079685 1_544
Ni3 O13 2.109247 1_545
Ni3 O12 2.109247 1_454
O0 P5 1.540919 1_555
O1 P4 1.540919 1_555
O2 P7 1.540919 1_555
O3 P6 1.540919 1_555
O4 P4 1.540919 1_555
O5 P5 1.540919 1_555
O6 P6 1.540919 1_555
O7 P7 1.540919 1_555
O8 P3 1.533615 1_555
O9 P2 1.533615 1_555
O10 P1 1.533615 1_555
O11 P0 1.533615 1_555
O12 Ti0 1.742756 1_555
O13 Ti1 1.742756 1_555
O14 Ti2 1.742756 1_555
O15 Ti3 1.742756 1_555
O16 P4 1.584225 1_555
O16 Ti0 2.047232 1_555
O17 P5 1.584225 1_555
O17 Ti1 2.047232 1_555
O18 P6 1.584225 1_555
O18 Ti2 2.047232 1_555
O19 P7 1.584225 1_555
O19 Ti3 2.047232 1_555
O20 P3 1.556196 1_555
O20 Ti3 2.040446 1_555
O21 P2 1.556196 1_555
O21 Ti2 2.040446 1_655
O22 P1 1.556196 1_555
O22 Ti1 2.040446 1_555
O23 P0 1.556196 1_555
O23 Ti0 2.040446 1_455
O24 P2 1.556196 1_555
O24 Ti2 2.040446 1_555
O25 P3 1.556196 1_555
O25 Ti3 2.040446 1_455
O26 P0 1.556196 1_555
O26 Ti0 2.040446 1_555
O27 P1 1.556196 1_555
O27 Ti1 2.040446 1_655
O28 P7 1.565037 1_565
O28 Ti3 2.225800 1_565
O29 P6 1.565037 1_545
O29 Ti2 2.225800 1_545
O30 P5 1.565037 1_555
O30 Ti1 2.225800 1_555
O31 P4 1.565037 1_555
O31 Ti0 2.225800 1_555
O32 P2 1.530455 1_555
O32 Ti3 1.910321 1_565
O33 P3 1.530455 1_555
O33 Ti2 1.910321 1_545
O34 P0 1.530455 1_554
O34 Ti1 1.910321 1_555
O35 P1 1.530455 1_556
O35 Ti0 1.910321 1_555
