# generated using pymatgen
data_Li5Mn(CoO4)2
_symmetry_space_group_name_H-M   'P 1'
_cell_length_a   2.93586100
_cell_length_b   2.93586200
_cell_length_c   20.01711695
_cell_angle_alpha   85.79450798
_cell_angle_beta   90.00000000
_cell_angle_gamma   120.00000001
_symmetry_Int_Tables_number   1
_chemical_formula_structural   Li5Mn(CoO4)2
_chemical_formula_sum   'Li5 Mn1 Co2 O8'
_cell_volume   148.88146403
_cell_formula_units_Z   1
loop_
 _symmetry_equiv_pos_site_id
 _symmetry_equiv_pos_as_xyz
  1  'x, y, z'
loop_
 _atom_site_type_symbol
 _atom_site_label
 _atom_site_symmetry_multiplicity
 _atom_site_fract_x
 _atom_site_fract_y
 _atom_site_fract_z
 _atom_site_occupancy
  Li  Li0  1  0.87656700  0.75313500  0.37029800  1
  Li  Li1  1  0.12437500  0.24875000  0.62687500  1
  Li  Li2  1  0.37775800  0.75551500  0.86672700  1
  Li  Li3  1  0.62163200  0.24326400  0.13510500  1
  Li  Li4  1  0.25000500  0.50001100  0.24998400  1
  Mn  Mn0  1  0.00098400  0.00196800  0.99704800  1
  Co  Co0  1  0.49901300  0.99802600  0.50296200  1
  Co  Co1  1  0.75028800  0.50057500  0.74913700  1
  O  O0  1  0.81410900  0.62821800  0.55767300  1
  O  O1  1  0.06480300  0.12960600  0.80559100  1
  O  O2  1  0.31695900  0.63391800  0.04912300  1
  O  O3  1  0.56121100  0.12242300  0.31636500  1
  O  O4  1  0.93840800  0.87681500  0.18477700  1
  O  O5  1  0.18229500  0.36459000  0.45311500  1
  O  O6  1  0.43530300  0.87060600  0.69409100  1
  O  O7  1  0.68629000  0.37258000  0.94113000  1
loop_
_geom_bond_atom_site_label_1
_geom_bond_atom_site_label_2
_geom_bond_distance
_geom_bond_site_symmetry_2
Li0 O3 2.007544 1_665
Li0 O3 2.007544 1_565
Li0 O3 2.007547 1_555
Li0 O5 2.366758 1_555
Li0 O5 2.366759 1_665
Li0 O5 2.366760 1_655
Li1 O6 2.161112 1_445
Li1 O6 2.161112 1_545
Li1 O6 2.161112 1_555
Li1 O0 2.185905 1_555
Li1 O0 2.185905 1_455
Li1 O0 2.185906 1_445
Li2 O1 2.088051 1_665
Li2 O1 2.088051 1_555
Li2 O1 2.088053 1_565
Li2 O7 2.252842 1_555
Li2 O7 2.252844 1_455
Li2 O7 2.252844 1_565
Li3 O4 1.963316 1_555
Li3 O4 1.963318 1_445
Li3 O4 1.963320 1_545
Li3 O2 2.411239 1_655
Li3 O2 2.411240 1_555
Li3 O2 2.411242 1_545
Li4 O4 2.136483 1_455
Li4 O4 2.136487 1_555
Li4 O4 2.136487 1_445
Li4 O3 2.150819 1_565
Li4 O3 2.150821 1_455
Li4 O3 2.150821 1_555
Mn0 O2 1.987934 1_446
Mn0 O2 1.987934 1_546
Mn0 O2 1.987935 1_556
Mn0 O7 2.029034 1_555
Mn0 O7 2.029035 1_455
Mn0 O7 2.029035 1_445
Co0 O5 1.965081 1_665
Co0 O5 1.965081 1_565
Co0 O5 1.965084 1_555
Co0 O0 2.015901 1_565
Co0 O0 2.015903 1_455
Co0 O0 2.015903 1_555
Co1 O6 2.019526 1_655
Co1 O6 2.019526 1_545
Co1 O6 2.019528 1_555
Co1 O1 2.034929 1_655
Co1 O1 2.034931 1_555
Co1 O1 2.034931 1_665
