# generated using pymatgen
data_Ca5P12Ir19
_symmetry_space_group_name_H-M   'P 1'
_cell_length_a   12.60659582
_cell_length_b   12.60656401
_cell_length_c   3.97562974
_cell_angle_alpha   90.00000320
_cell_angle_beta   90.00000021
_cell_angle_gamma   119.99983315
_symmetry_Int_Tables_number   1
_chemical_formula_structural   Ca5P12Ir19
_chemical_formula_sum   'Ca5 P12 Ir19'
_cell_volume   547.18206638
_cell_formula_units_Z   1
loop_
 _symmetry_equiv_pos_site_id
 _symmetry_equiv_pos_as_xyz
  1  'x, y, z'
loop_
 _atom_site_type_symbol
 _atom_site_label
 _atom_site_symmetry_multiplicity
 _atom_site_fract_x
 _atom_site_fract_y
 _atom_site_fract_z
 _atom_site_occupancy
  Ca  Ca0  1  0.00000010  0.18234669  0.50000009  1
  Ca  Ca1  1  0.81765788  0.81767063  0.49999994  1
  Ca  Ca2  1  0.18235230  0.00000827  0.50000003  1
  Ca  Ca3  1  0.66665965  0.33331480  -0.00000002  1
  Ca  Ca4  1  0.33333426  0.66666985  0.00000007  1
  P  P0  1  0.48408414  0.31093930  0.50000004  1
  P  P1  1  0.81951071  0.00000288  0.00000002  1
  P  P2  1  0.18048491  0.18048723  -0.00000000  1
  P  P3  1  0.00000296  0.81952437  -0.00000000  1
  P  P4  1  0.35783876  0.00000218  -0.00000002  1
  P  P5  1  0.68905384  0.17313314  0.50000006  1
  P  P6  1  0.82685530  0.51590589  0.50000001  1
  P  P7  1  0.51591430  0.82686354  0.49999999  1
  P  P8  1  0.17315534  0.68905964  0.49999999  1
  P  P9  1  0.31094413  0.48408772  0.49999999  1
  P  P10  1  -0.00000111  0.35782573  0.00000000  1
  P  P11  1  0.64216294  0.64217244  -0.00000005  1
  Ir  Ir0  1  0.80237152  0.18072882  -0.00000000  1
  Ir  Ir1  1  0.37835881  0.19761596  0.00000002  1
  Ir  Ir2  1  0.63838095  0.50763063  0.49999997  1
  Ir  Ir3  1  0.86924095  0.36158978  0.50000000  1
  Ir  Ir4  1  0.36162025  0.86925216  0.49999996  1
  Ir  Ir5  1  0.50763051  0.63839587  0.50000002  1
  Ir  Ir6  1  0.13075990  0.49235649  0.49999997  1
  Ir  Ir7  1  0.81925412  0.62164159  -0.00000005  1
  Ir  Ir8  1  0.62163626  0.81926802  0.00000005  1
  Ir  Ir9  1  0.18075490  0.80239022  -0.00000003  1
  Ir  Ir10  1  0.19762207  0.37835909  -0.00000002  1
  Ir  Ir11  1  0.00000965  0.71358835  0.49999999  1
  Ir  Ir12  1  0.28641835  0.28642210  0.50000000  1
  Ir  Ir13  1  0.71357249  0.00000472  0.49999997  1
  Ir  Ir14  1  0.00000307  0.53801768  -0.00000001  1
  Ir  Ir15  1  0.46196429  0.46197007  0.00000001  1
  Ir  Ir16  1  0.53802872  -0.00000308  -0.00000003  1
  Ir  Ir17  1  -0.00000134  0.00000922  0.00000004  1
  Ir  Ir18  1  0.49236411  0.13074800  0.50000000  1
loop_
_geom_bond_atom_site_label_1
_geom_bond_atom_site_label_2
_geom_bond_distance
_geom_bond_site_symmetry_2
Ca0 P10 2.974091 1_556
Ca0 P10 2.974091 1_555
Ca0 P2 3.030227 1_556
Ca0 P2 3.030228 1_555
Ca0 P1 3.030249 1_456
Ca0 P1 3.030249 1_455
Ca0 Ir17 3.038939 1_556
Ca0 Ir17 3.038940 1_555
Ca0 Ir12 3.165691 1_555
Ca0 Ir13 3.165783 1_455
Ca0 Ir10 3.179317 1_556
Ca0 Ir10 3.179318 1_555
Ca0 Ir0 3.179340 1_456
Ca0 Ir0 3.179340 1_455
Ca0 Ir3 3.398252 1_455
Ca0 Ir6 3.398342 1_555
Ca1 P11 2.974256 1_555
Ca1 P11 2.974256 1_556
Ca1 P1 3.030140 1_565
Ca1 P1 3.030140 1_566
Ca1 P3 3.030262 1_655
Ca1 P3 3.030262 1_656
Ca1 Ir17 3.038974 1_665
Ca1 Ir17 3.038974 1_666
Ca1 Ir13 3.165674 1_565
Ca1 Ir11 3.165854 1_655
Ca1 Ir8 3.179345 1_555
Ca1 Ir8 3.179345 1_556
Ca1 Ir7 3.179407 1_555
Ca1 Ir7 3.179408 1_556
Ca1 Ir5 3.398561 1_555
Ca1 Ir2 3.398686 1_555
Ca2 P4 2.974187 1_556
Ca2 P4 2.974188 1_555
Ca2 P2 3.030206 1_556
Ca2 P2 3.030206 1_555
Ca2 P3 3.030250 1_545
Ca2 P3 3.030250 1_546
Ca2 Ir17 3.039109 1_555
Ca2 Ir17 3.039110 1_556
Ca2 Ir12 3.165649 1_555
Ca2 Ir11 3.165702 1_545
Ca2 Ir1 3.179218 1_556
Ca2 Ir1 3.179218 1_555
Ca2 Ir9 3.179331 1_546
Ca2 Ir9 3.179331 1_545
Ca2 Ir18 3.398397 1_555
Ca2 Ir4 3.398507 1_545
Ca3 P5 2.946002 1_554
Ca3 P5 2.946003 1_555
Ca3 P0 2.946074 1_554
Ca3 P0 2.946074 1_555
Ca3 P6 2.946144 1_555
Ca3 P6 2.946144 1_554
Ca3 Ir18 3.112807 1_554
Ca3 Ir18 3.112808 1_555
Ca3 Ir3 3.112932 1_554
Ca3 Ir3 3.112933 1_555
Ca3 Ir2 3.113040 1_555
Ca3 Ir2 3.113040 1_554
Ca3 Ir0 3.149320 1_555
Ca3 Ir1 3.149370 1_555
Ca3 Ir7 3.149638 1_555
Ca4 P8 2.945956 1_555
Ca4 P8 2.945957 1_554
Ca4 P9 2.946076 1_555
Ca4 P9 2.946076 1_554
Ca4 P7 2.946077 1_555
Ca4 P7 2.946077 1_554
Ca4 Ir5 3.112828 1_555
Ca4 Ir5 3.112828 1_554
Ca4 Ir4 3.112896 1_555
Ca4 Ir4 3.112896 1_554
Ca4 Ir6 3.112920 1_555
Ca4 Ir6 3.112920 1_554
Ca4 Ir9 3.149338 1_555
Ca4 Ir8 3.149382 1_555
Ca4 Ir10 3.149467 1_555
Ir0 P10 2.372614 1_655
Ir0 P1 2.393691 1_555
Ir0 P5 2.421681 1_554
Ir0 P5 2.421682 1_555
Ir0 Ir13 2.800863 1_554
Ir0 Ir13 2.800863 1_555
Ir0 Ir3 2.817545 1_555
Ir0 Ir3 2.817545 1_554
Ir0 Ir16 2.950217 1_555
Ir1 P4 2.372489 1_555
Ir1 P2 2.393865 1_555
Ir1 P0 2.421715 1_555
Ir1 P0 2.421715 1_554
Ir1 Ir12 2.801034 1_555
Ir1 Ir12 2.801034 1_554
Ir1 Ir18 2.817649 1_555
Ir1 Ir18 2.817649 1_554
Ir1 Ir15 2.950356 1_555
Ir2 P0 2.260281 1_555
Ir2 P6 2.325614 1_555
Ir2 P11 2.598000 1_556
Ir2 P11 2.598000 1_555
Ir2 Ir7 2.817661 1_556
Ir2 Ir7 2.817661 1_555
Ir2 Ir5 2.855126 1_555
Ir3 P6 2.260438 1_555
Ir3 P5 2.325427 1_555
Ir3 P10 2.597911 1_656
Ir3 P10 2.597911 1_655
Ir3 Ir6 2.855173 1_655
Ir4 P7 2.260194 1_555
Ir4 P8 2.325515 1_555
Ir4 P4 2.597918 1_566
Ir4 P4 2.597918 1_565
Ir4 Ir9 2.817595 1_555
Ir4 Ir9 2.817596 1_556
Ir5 P9 2.260287 1_555
Ir5 P7 2.325474 1_555
Ir5 P11 2.597947 1_556
Ir5 P11 2.597948 1_555
Ir5 Ir8 2.817644 1_556
Ir5 Ir8 2.817644 1_555
Ir6 P8 2.260418 1_555
Ir6 P9 2.325383 1_555
Ir6 P10 2.597962 1_555
Ir6 P10 2.597962 1_556
Ir7 P11 2.372540 1_555
Ir7 P3 2.393950 1_655
Ir7 P6 2.421799 1_554
Ir7 P6 2.421800 1_555
Ir8 P11 2.372560 1_555
Ir8 P1 2.393816 1_565
Ir8 P7 2.421680 1_555
Ir8 P7 2.421681 1_554
Ir9 P4 2.372431 1_565
Ir9 P3 2.393987 1_555
Ir9 P8 2.421760 1_554
Ir9 P8 2.421760 1_555
Ir10 P10 2.372543 1_555
Ir10 P2 2.393787 1_555
Ir10 P9 2.421721 1_555
Ir10 P9 2.421721 1_554
Ir10 Ir12 2.800932 1_554
Ir10 Ir12 2.800932 1_555
Ir10 Ir6 2.817542 1_555
Ir10 Ir6 2.817542 1_554
Ir10 Ir15 2.950208 1_555
Ir11 P8 2.352679 1_555
Ir11 P6 2.352786 1_455
Ir11 P3 2.394797 1_556
Ir11 P3 2.394797 1_555
Ir11 Ir9 2.801029 1_556
Ir11 Ir9 2.801030 1_555
Ir11 Ir7 2.801108 1_456
Ir11 Ir7 2.801108 1_455
Ir12 P9 2.352580 1_555
Ir12 P0 2.352631 1_555
Ir12 P2 2.394763 1_555
Ir12 P2 2.394763 1_556
Ir13 P5 2.352382 1_555
Ir13 P7 2.352540 1_545
Ir13 P1 2.394797 1_555
Ir13 P1 2.394797 1_556
Ir13 Ir8 2.800960 1_545
Ir13 Ir8 2.800960 1_546
Ir14 P10 2.271575 1_555
Ir14 Ir6 2.819369 1_555
Ir14 Ir6 2.819369 1_554
Ir14 Ir3 2.819445 1_454
Ir14 Ir3 2.819445 1_455
Ir14 P6 2.860993 1_454
Ir14 P6 2.860993 1_455
Ir14 P8 2.861041 1_555
Ir14 P8 2.861041 1_554
Ir14 Ir7 2.950534 1_455
Ir14 Ir9 2.950543 1_555
Ir15 P11 2.271718 1_555
Ir15 Ir2 2.819361 1_555
Ir15 Ir2 2.819362 1_554
Ir15 Ir5 2.819423 1_555
Ir15 Ir5 2.819423 1_554
Ir15 P9 2.860881 1_555
Ir15 P9 2.860881 1_554
Ir15 P0 2.860985 1_554
Ir15 P0 2.860986 1_555
Ir16 P4 2.271615 1_555
Ir16 Ir4 2.819284 1_544
Ir16 Ir4 2.819284 1_545
Ir16 Ir18 2.819338 1_554
Ir16 Ir18 2.819338 1_555
Ir16 P7 2.860850 1_544
Ir16 P7 2.860850 1_545
Ir16 P5 2.860892 1_554
Ir16 P5 2.860893 1_555
Ir16 Ir8 2.950137 1_545
Ir17 P2 2.275268 1_555
Ir17 P1 2.275299 1_455
Ir17 P3 2.275321 1_545
Ir18 P5 2.260299 1_555
Ir18 P0 2.325542 1_555
Ir18 P4 2.597880 1_555
Ir18 P4 2.597880 1_556
Ir18 Ir4 2.854913 1_545
