# generated using pymatgen
data_CsLiMg6
_symmetry_space_group_name_H-M   'P 1'
_cell_length_a   5.34082200
_cell_length_b   7.26036200
_cell_length_c   11.75886100
_cell_angle_alpha   90.00000000
_cell_angle_beta   90.00000000
_cell_angle_gamma   90.00000000
_symmetry_Int_Tables_number   1
_chemical_formula_structural   CsLiMg6
_chemical_formula_sum   'Cs2 Li2 Mg12'
_cell_volume   455.96513470
_cell_formula_units_Z   2
loop_
 _symmetry_equiv_pos_site_id
 _symmetry_equiv_pos_as_xyz
  1  'x, y, z'
loop_
 _atom_site_type_symbol
 _atom_site_label
 _atom_site_symmetry_multiplicity
 _atom_site_fract_x
 _atom_site_fract_y
 _atom_site_fract_z
 _atom_site_occupancy
  Cs  Cs0  1  0.50000000  0.50000000  0.17533000  1
  Cs  Cs1  1  0.50000000  0.00000000  0.67533000  1
  Li  Li0  1  0.00000000  0.50000000  0.35011800  1
  Li  Li1  1  0.00000000  0.00000000  0.85011800  1
  Mg  Mg0  1  0.00000000  0.78584700  0.06880300  1
  Mg  Mg1  1  0.00000000  0.21415300  0.06880300  1
  Mg  Mg2  1  0.00000000  0.50000000  0.83161900  1
  Mg  Mg3  1  0.50000000  0.74413900  0.92178000  1
  Mg  Mg4  1  0.50000000  0.25586100  0.92178000  1
  Mg  Mg5  1  0.50000000  0.50000000  0.66176800  1
  Mg  Mg6  1  0.00000000  0.28584700  0.56880300  1
  Mg  Mg7  1  0.00000000  0.71415300  0.56880300  1
  Mg  Mg8  1  0.00000000  0.00000000  0.33161900  1
  Mg  Mg9  1  0.50000000  0.24413900  0.42178000  1
  Mg  Mg10  1  0.50000000  0.75586100  0.42178000  1
  Mg  Mg11  1  0.50000000  0.00000000  0.16176800  1
loop_
_geom_bond_atom_site_label_1
_geom_bond_atom_site_label_2
_geom_bond_distance
_geom_bond_site_symmetry_2
Cs0 Li0 3.369775 1_555
Cs0 Li0 3.369775 1_655
Cs0 Mg10 3.442249 1_555
Cs0 Mg9 3.442249 1_555
Cs0 Mg3 3.468572 1_554
Cs0 Mg4 3.468572 1_554
Cs0 Mg0 3.606561 1_655
Cs0 Mg0 3.606561 1_555
Cs0 Mg1 3.606561 1_555
Cs0 Mg1 3.606561 1_655
Cs0 Mg11 3.633682 1_565
Cs0 Mg11 3.633682 1_555
Cs1 Li1 3.369775 1_555
Cs1 Li1 3.369775 1_655
Cs1 Mg3 3.442249 1_545
Cs1 Mg4 3.442249 1_555
Cs1 Mg9 3.468572 1_555
Cs1 Mg10 3.468572 1_545
Cs1 Mg6 3.606561 1_555
Cs1 Mg6 3.606561 1_655
Cs1 Mg7 3.606561 1_645
Cs1 Mg7 3.606561 1_545
Cs1 Mg5 3.633682 1_555
Cs1 Mg5 3.633682 1_545
Li0 Mg7 3.005001 1_555
Li0 Mg6 3.005001 1_555
Li0 Mg9 3.360360 1_555
Li0 Mg10 3.360360 1_455
Li0 Mg10 3.360360 1_555
Li0 Mg9 3.360360 1_455
Li1 Mg1 3.005001 1_556
Li1 Mg0 3.005001 1_546
Li1 Mg4 3.360360 1_555
Li1 Mg3 3.360360 1_545
Li1 Mg4 3.360360 1_455
Li1 Mg3 3.360360 1_445
Mg0 Mg1 3.109657 1_565
Mg0 Mg3 3.195563 1_554
Mg0 Mg3 3.195563 1_454
Mg0 Mg11 3.277742 1_565
Mg0 Mg11 3.277742 1_465
Mg0 Mg8 3.459504 1_565
Mg0 Mg2 3.476447 1_554
Mg1 Mg4 3.195563 1_554
Mg1 Mg4 3.195563 1_454
Mg1 Mg11 3.277742 1_555
Mg1 Mg11 3.277742 1_455
Mg1 Mg8 3.459504 1_555
Mg1 Mg2 3.476447 1_554
Mg2 Mg5 3.334684 1_455
Mg2 Mg5 3.334684 1_555
Mg2 Mg3 3.375943 1_455
Mg2 Mg3 3.375943 1_555
Mg2 Mg4 3.375943 1_455
Mg2 Mg4 3.375943 1_555
Mg2 Mg7 3.459504 1_555
Mg2 Mg6 3.459504 1_555
Mg3 Mg5 3.534099 1_555
Mg3 Mg4 3.545075 1_555
Mg4 Mg5 3.534099 1_555
Mg5 Mg7 3.277742 1_655
Mg5 Mg7 3.277742 1_555
Mg5 Mg6 3.277742 1_655
Mg5 Mg6 3.277742 1_555
Mg5 Mg9 3.378527 1_555
Mg6 Mg7 3.109657 1_555
Mg6 Mg9 3.195563 1_455
Mg6 Mg9 3.195563 1_555
Mg6 Mg8 3.476447 1_555
Mg7 Mg8 3.476447 1_565
Mg8 Mg9 3.375943 1_455
Mg8 Mg9 3.375943 1_555
Mg10 Mg7 3.195563 1_555
Mg10 Mg7 3.195563 1_655
Mg10 Mg8 3.375943 1_665
Mg10 Mg8 3.375943 1_565
Mg10 Mg5 3.378527 1_555
Mg10 Mg11 3.534099 1_565
Mg10 Mg9 3.545075 1_565
Mg11 Mg8 3.334684 1_555
Mg11 Mg8 3.334684 1_655
Mg11 Mg3 3.378527 1_544
Mg11 Mg4 3.378527 1_554
Mg11 Mg9 3.534099 1_555
