# generated using pymatgen
data_Zr3(CrGa3)2
_symmetry_space_group_name_H-M   'P 1'
_cell_length_a   5.35877200
_cell_length_b   7.79450900
_cell_length_c   8.81154800
_cell_angle_alpha   90.00000000
_cell_angle_beta   90.00000000
_cell_angle_gamma   90.00000000
_symmetry_Int_Tables_number   1
_chemical_formula_structural   Zr3(CrGa3)2
_chemical_formula_sum   'Zr6 Cr4 Ga12'
_cell_volume   368.04951830
_cell_formula_units_Z   2
loop_
 _symmetry_equiv_pos_site_id
 _symmetry_equiv_pos_as_xyz
  1  'x, y, z'
loop_
 _atom_site_type_symbol
 _atom_site_label
 _atom_site_symmetry_multiplicity
 _atom_site_fract_x
 _atom_site_fract_y
 _atom_site_fract_z
 _atom_site_occupancy
  Zr  Zr0  1  0.50000000  0.15371100  0.77903900  1
  Zr  Zr1  1  0.50000000  0.15371100  0.22096100  1
  Zr  Zr2  1  0.00000000  0.84628900  0.72096100  1
  Zr  Zr3  1  0.00000000  0.84628900  0.27903900  1
  Zr  Zr4  1  0.50000000  0.71532600  0.50000000  1
  Zr  Zr5  1  0.00000000  0.28467400  0.00000000  1
  Cr  Cr0  1  0.25000000  0.50000000  0.25000000  1
  Cr  Cr1  1  0.25000000  0.50000000  0.75000000  1
  Cr  Cr2  1  0.75000000  0.50000000  0.25000000  1
  Cr  Cr3  1  0.75000000  0.50000000  0.75000000  1
  Ga  Ga0  1  0.50000000  0.76417900  0.18640600  1
  Ga  Ga1  1  0.50000000  0.76417900  0.81359400  1
  Ga  Ga2  1  0.00000000  0.23582100  0.31359400  1
  Ga  Ga3  1  0.00000000  0.23582100  0.68640600  1
  Ga  Ga4  1  0.50000000  0.36597900  0.50000000  1
  Ga  Ga5  1  0.00000000  0.63402100  0.00000000  1
  Ga  Ga6  1  0.00000000  0.56186300  0.50000000  1
  Ga  Ga7  1  0.50000000  0.43813700  0.00000000  1
  Ga  Ga8  1  0.26046200  0.04099800  0.50000000  1
  Ga  Ga9  1  0.73953800  0.04099800  0.50000000  1
  Ga  Ga10  1  0.23953800  0.95900200  0.00000000  1
  Ga  Ga11  1  0.76046200  0.95900200  0.00000000  1
loop_
_geom_bond_atom_site_label_1
_geom_bond_atom_site_label_2
_geom_bond_distance
_geom_bond_site_symmetry_2
Cr0 Ga2 2.519695 1_555
Cr0 Ga0 2.519695 1_555
Cr0 Ga7 2.622975 1_555
Cr0 Ga6 2.622975 1_555
Cr0 Cr2 2.679386 1_555
Cr0 Cr2 2.679386 1_455
Cr0 Ga4 2.781858 1_555
Cr0 Ga5 2.781858 1_555
Cr0 Zr3 3.024182 1_555
Cr0 Zr1 3.024182 1_555
Cr0 Zr4 3.076424 1_555
Cr0 Zr5 3.076424 1_555
Cr1 Ga3 2.519695 1_555
Cr1 Ga1 2.519695 1_555
Cr1 Ga7 2.622975 1_556
Cr1 Ga6 2.622975 1_555
Cr1 Cr3 2.679386 1_455
Cr1 Cr3 2.679386 1_555
Cr1 Ga5 2.781858 1_556
Cr1 Ga4 2.781858 1_555
Cr1 Zr2 3.024182 1_555
Cr1 Zr0 3.024182 1_555
Cr1 Zr4 3.076424 1_555
Cr1 Zr5 3.076424 1_556
Cr2 Ga2 2.519695 1_655
Cr2 Ga0 2.519695 1_555
Cr2 Ga7 2.622975 1_555
Cr2 Ga6 2.622975 1_655
Cr2 Ga4 2.781858 1_555
Cr2 Ga5 2.781858 1_655
Cr2 Zr3 3.024182 1_655
Cr2 Zr1 3.024182 1_555
Cr2 Zr5 3.076424 1_655
Cr2 Zr4 3.076424 1_555
Cr3 Ga3 2.519695 1_655
Cr3 Ga1 2.519695 1_555
Cr3 Ga7 2.622975 1_556
Cr3 Ga6 2.622975 1_655
Cr3 Ga4 2.781858 1_555
Cr3 Ga5 2.781858 1_656
Cr3 Zr2 3.024182 1_655
Cr3 Zr0 3.024182 1_555
Cr3 Zr5 3.076424 1_656
Cr3 Zr4 3.076424 1_555
Ga0 Ga11 2.636668 1_555
Ga0 Ga10 2.636668 1_555
Ga0 Zr4 2.789362 1_555
Ga0 Zr3 2.873146 1_555
Ga0 Zr3 2.873146 1_655
Ga0 Zr1 3.051440 1_565
Ga1 Ga10 2.636668 1_556
Ga1 Ga11 2.636668 1_556
Ga1 Zr4 2.789362 1_555
Ga1 Zr2 2.873146 1_555
Ga1 Zr2 2.873146 1_655
Ga1 Zr0 3.051440 1_565
Ga2 Ga8 2.636668 1_555
Ga2 Ga9 2.636668 1_455
Ga2 Zr5 2.789362 1_555
Ga2 Zr1 2.873146 1_555
Ga2 Zr1 2.873146 1_455
Ga2 Zr3 3.051440 1_545
Ga3 Ga8 2.636668 1_555
Ga3 Ga9 2.636668 1_455
Ga3 Zr5 2.789362 1_556
Ga3 Zr0 2.873146 1_455
Ga3 Zr0 2.873146 1_555
Ga3 Zr2 3.051440 1_545
Ga4 Zr4 2.722988 1_555
Ga4 Ga8 2.839742 1_555
Ga4 Ga9 2.839742 1_555
Ga4 Zr0 2.963609 1_555
Ga4 Zr1 2.963609 1_555
Ga5 Zr5 2.722988 1_555
Ga5 Zr2 2.963609 1_554
Ga5 Zr3 2.963609 1_555
Ga6 Zr4 2.934268 1_455
Ga6 Zr4 2.934268 1_555
Ga6 Zr2 2.950552 1_555
Ga6 Zr3 2.950552 1_555
Ga7 Zr5 2.934268 1_655
Ga7 Zr5 2.934268 1_555
Ga7 Zr0 2.950552 1_554
Ga7 Zr1 2.950552 1_555
Ga8 Ga9 2.567259 1_555
Ga8 Ga9 2.791513 1_455
Ga8 Zr3 2.835890 1_545
Ga8 Zr2 2.835890 1_545
Ga8 Zr4 2.844547 1_545
Ga8 Zr1 2.909479 1_555
Ga8 Zr0 2.909479 1_555
Ga9 Zr2 2.835890 1_645
Ga9 Zr3 2.835890 1_645
Ga9 Zr4 2.844547 1_545
Ga9 Zr1 2.909479 1_555
Ga9 Zr0 2.909479 1_555
Ga10 Ga11 2.567259 1_455
Ga10 Ga11 2.791513 1_555
Ga10 Zr0 2.835890 1_564
Ga10 Zr1 2.835890 1_565
Ga10 Ga5 2.839742 1_555
Ga10 Zr5 2.844547 1_565
Ga10 Zr2 2.909479 1_554
Ga10 Zr3 2.909479 1_555
Ga11 Zr0 2.835890 1_564
Ga11 Zr1 2.835890 1_565
Ga11 Ga5 2.839742 1_655
Ga11 Zr5 2.844547 1_665
Ga11 Zr2 2.909479 1_654
Ga11 Zr3 2.909479 1_655
