# generated using pymatgen
data_BaSrSmSbO6
_symmetry_space_group_name_H-M   'P 1'
_cell_length_a   8.53283330
_cell_length_b   8.53963637
_cell_length_c   8.52650270
_cell_angle_alpha   90.00000000
_cell_angle_beta   90.00000000
_cell_angle_gamma   90.00000000
_symmetry_Int_Tables_number   1
_chemical_formula_structural   BaSrSmSbO6
_chemical_formula_sum   'Ba4 Sr4 Sm4 Sb4 O24'
_cell_volume   621.30317552
_cell_formula_units_Z   4
loop_
 _symmetry_equiv_pos_site_id
 _symmetry_equiv_pos_as_xyz
  1  'x, y, z'
loop_
 _atom_site_type_symbol
 _atom_site_label
 _atom_site_symmetry_multiplicity
 _atom_site_fract_x
 _atom_site_fract_y
 _atom_site_fract_z
 _atom_site_occupancy
  Ba  Ba0  1  -0.00000000  0.00000000  0.00000000  1
  Ba  Ba1  1  0.50000000  0.50000000  0.50000000  1
  Ba  Ba2  1  -0.00000000  0.50000000  -0.00000000  1
  Ba  Ba3  1  -0.00000000  0.00000000  0.50000000  1
  Sr  Sr0  1  -0.00000000  0.50000000  0.50000000  1
  Sr  Sr1  1  0.50000000  0.00000000  0.50000000  1
  Sr  Sr2  1  0.50000000  0.50000000  0.00000000  1
  Sr  Sr3  1  0.50000000  0.00000000  0.00000000  1
  Sm  Sm0  1  0.25210671  0.25047809  0.25066857  1
  Sm  Sm1  1  0.74789329  0.74952191  0.25066857  1
  Sm  Sm2  1  0.74789329  0.25047809  0.74933143  1
  Sm  Sm3  1  0.25210671  0.74952191  0.74933143  1
  Sb  Sb0  1  0.74633202  0.74929210  0.75051415  1
  Sb  Sb1  1  0.25366798  0.25070790  0.75051415  1
  Sb  Sb2  1  0.25366798  0.74929210  0.24948585  1
  Sb  Sb3  1  0.74633202  0.25070790  0.24948585  1
  O  O0  1  0.98195218  0.22520474  0.27173610  1
  O  O1  1  0.01804782  0.77479526  0.27173610  1
  O  O2  1  0.01804782  0.22520474  0.72826390  1
  O  O3  1  0.98195218  0.77479526  0.72826390  1
  O  O4  1  0.28240687  0.98311260  0.22010061  1
  O  O5  1  0.28240687  0.01688740  0.77989939  1
  O  O6  1  0.71759313  0.01688740  0.22010061  1
  O  O7  1  0.71759313  0.98311260  0.77989939  1
  O  O8  1  0.22871505  0.27540948  0.98402731  1
  O  O9  1  0.77128495  0.27540948  0.01597269  1
  O  O10  1  0.22871505  0.72459052  0.01597269  1
  O  O11  1  0.77128495  0.72459052  0.98402731  1
  O  O12  1  0.51554942  0.28656439  0.22000216  1
  O  O13  1  0.48445058  0.71343561  0.22000216  1
  O  O14  1  0.48445058  0.28656439  0.77999784  1
  O  O15  1  0.51554942  0.71343561  0.77999784  1
  O  O16  1  0.22189171  0.51685963  0.28593163  1
  O  O17  1  0.22189171  0.48314037  0.71406837  1
  O  O18  1  0.77810829  0.48314037  0.28593163  1
  O  O19  1  0.77810829  0.51685963  0.71406837  1
  O  O20  1  0.28480004  0.21773914  0.51759625  1
  O  O21  1  0.71519996  0.21773914  0.48240375  1
  O  O22  1  0.28480004  0.78226086  0.48240375  1
  O  O23  1  0.71519996  0.78226086  0.51759625  1
loop_
_geom_bond_atom_site_label_1
_geom_bond_atom_site_label_2
_geom_bond_distance
_geom_bond_site_symmetry_2
Ba0 O3 3.015059 1_444
Ba0 O2 3.015059 1_554
Ba0 O1 3.015059 1_545
Ba0 O0 3.015059 1_455
Ba0 O7 3.057705 1_444
Ba0 O6 3.057705 1_455
Ba0 O4 3.057705 1_545
Ba0 O5 3.057705 1_554
Ba0 O8 3.059193 1_554
Ba0 O9 3.059193 1_455
Ba0 O11 3.059193 1_444
Ba0 O10 3.059193 1_545
Ba1 O18 2.997275 1_555
Ba1 O19 2.997275 1_555
Ba1 O16 2.997275 1_555
Ba1 O17 2.997275 1_555
Ba1 O13 3.006558 1_555
Ba1 O12 3.006558 1_555
Ba1 O14 3.006558 1_555
Ba1 O15 3.006558 1_555
Ba1 O22 3.033881 1_555
Ba1 O20 3.033881 1_555
Ba1 O23 3.033881 1_555
Ba1 O21 3.033881 1_555
Ba2 O11 2.739647 1_454
Ba2 O8 2.739647 1_554
Ba2 O9 2.739647 1_455
Ba2 O10 2.739647 1_555
Ba2 O18 3.090208 1_455
Ba2 O19 3.090208 1_454
Ba2 O16 3.090208 1_555
Ba2 O17 3.090208 1_554
Ba2 O1 3.301331 1_555
Ba2 O2 3.301331 1_554
Ba2 O3 3.301331 1_454
Ba2 O0 3.301331 1_455
Ba3 O2 2.740500 1_555
Ba3 O3 2.740500 1_445
Ba3 O1 2.740500 1_545
Ba3 O0 2.740500 1_455
Ba3 O23 3.063587 1_445
Ba3 O22 3.063587 1_545
Ba3 O20 3.063587 1_555
Ba3 O21 3.063587 1_455
O0 Sb3 2.031149 1_555
O0 Sm0 2.322223 1_655
O0 Sr0 3.052629 1_655
O1 Sb2 2.031149 1_555
O1 Sm1 2.322223 1_455
O1 Sr0 3.052629 1_555
O2 Sb1 2.031149 1_555
O2 Sm2 2.322223 1_455
O2 Sr0 3.052629 1_555
O3 Sb0 2.031149 1_555
O3 Sm3 2.322223 1_655
O3 Sr0 3.052629 1_655
O4 Sb2 2.027287 1_555
O4 Sm0 2.312531 1_565
O4 Sr3 2.643868 1_565
O4 Sr1 3.027171 1_565
O5 Sb1 2.027287 1_555
O5 Sm3 2.312531 1_545
O5 Sr3 2.643868 1_556
O5 Sr1 3.027171 1_555
O6 Sb3 2.027287 1_555
O6 Sm1 2.312531 1_545
O6 Sr3 2.643868 1_555
O6 Sr1 3.027171 1_555
O7 Sb0 2.027287 1_555
O7 Sm2 2.312531 1_565
O7 Sr3 2.643868 1_566
O7 Sr1 3.027171 1_565
O8 Sb1 2.013483 1_555
O8 Sm0 2.292171 1_556
O8 Sr2 3.009220 1_556
O9 Sb3 2.013483 1_555
O9 Sm2 2.292171 1_554
O9 Sr2 3.009220 1_555
O10 Sb2 2.013483 1_555
O10 Sm3 2.292171 1_554
O10 Sr2 3.009220 1_555
O11 Sb0 2.013483 1_555
O11 Sm1 2.292171 1_556
O11 Sr2 3.009220 1_556
O12 Sb3 2.008687 1_555
O12 Sm0 2.283954 1_555
O12 Sr2 2.618876 1_555
O12 Sr3 3.086257 1_555
O13 Sb2 2.008687 1_555
O13 Sm1 2.283954 1_555
O13 Sr2 2.618876 1_555
O13 Sr3 3.086257 1_565
O14 Sb1 2.008687 1_555
O14 Sm2 2.283954 1_555
O14 Sr2 2.618876 1_556
O14 Sr3 3.086257 1_556
O15 Sb0 2.008687 1_555
O15 Sm3 2.283954 1_555
O15 Sr2 2.618876 1_556
O15 Sr3 3.086257 1_566
O16 Sb2 2.027281 1_555
O16 Sm0 2.309025 1_555
O16 Sr0 2.633840 1_555
O17 Sb1 2.027281 1_555
O17 Sm3 2.309025 1_555
O17 Sr0 2.633840 1_555
O18 Sb3 2.027281 1_555
O18 Sm1 2.309025 1_555
O18 Sr0 2.633840 1_655
O19 Sb0 2.027281 1_555
O19 Sm2 2.309025 1_555
O19 Sr0 2.633840 1_655
O20 Sb1 2.023346 1_555
O20 Sm0 2.309974 1_555
O20 Sr1 2.617594 1_555
O21 Sb3 2.023346 1_555
O21 Sm2 2.309974 1_555
O21 Sr1 2.617594 1_555
O22 Sb2 2.023346 1_555
O22 Sm3 2.309974 1_555
O22 Sr1 2.617594 1_565
O23 Sb0 2.023346 1_555
O23 Sm1 2.309974 1_555
O23 Sr1 2.617594 1_565
