# generated using pymatgen
data_MgTi4(CuO4)3
_symmetry_space_group_name_H-M   'P 1'
_cell_length_a   6.47458023
_cell_length_b   6.64756728
_cell_length_c   6.47458193
_cell_angle_alpha   108.74000931
_cell_angle_beta   109.04652995
_cell_angle_gamma   109.56398114
_symmetry_Int_Tables_number   1
_chemical_formula_structural   MgTi4(CuO4)3
_chemical_formula_sum   'Mg1 Ti4 Cu3 O12'
_cell_volume   217.27859638
_cell_formula_units_Z   1
loop_
 _symmetry_equiv_pos_site_id
 _symmetry_equiv_pos_as_xyz
  1  'x, y, z'
loop_
 _atom_site_type_symbol
 _atom_site_label
 _atom_site_symmetry_multiplicity
 _atom_site_fract_x
 _atom_site_fract_y
 _atom_site_fract_z
 _atom_site_occupancy
  Mg  Mg0  1  0.86935600  0.35406600  0.48471100  1
  Ti  Ti0  1  0.97021900  0.97653600  0.49636800  1
  Ti  Ti1  1  0.97488600  0.46352100  0.01048300  1
  Ti  Ti2  1  0.45303800  0.46352100  0.48863500  1
  Ti  Ti3  1  0.48016800  0.97653600  0.00631700  1
  Cu  Cu0  1  0.48756500  0.47667200  0.98910600  1
  Cu  Cu1  1  0.15675400  0.71916100  0.56240700  1
  Cu  Cu2  1  0.49303800  0.98129300  0.48825500  1
  O  O0  1  0.80184500  0.28101600  0.11408900  1
  O  O1  1  0.18308400  0.67314000  0.85248100  1
  O  O2  1  0.82066000  0.67314000  0.49005700  1
  O  O3  1  0.29611500  0.46727600  0.17116200  1
  O  O4  1  0.49379000  0.17199300  0.30926100  1
  O  O5  1  0.12073000  0.79319900  0.29444100  1
  O  O6  1  0.68114300  0.86593900  0.18479600  1
  O  O7  1  0.49875900  0.79319900  0.67246900  1
  O  O8  1  0.16692700  0.28101600  0.47916900  1
  O  O9  1  0.68125700  0.48403900  0.80278200  1
  O  O10  1  0.86273300  0.17199300  0.67820200  1
  O  O11  1  0.29959800  0.10982500  0.81022600  1
loop_
_geom_bond_atom_site_label_1
_geom_bond_atom_site_label_2
_geom_bond_distance
_geom_bond_site_symmetry_2
Mg0 O10 2.002698 1_555
Mg0 O4 2.002708 1_555
Mg0 O8 2.146992 1_655
Mg0 O0 2.146995 1_555
Mg0 O2 2.237709 1_555
Mg0 O1 2.237709 1_655
Cu0 O3 1.969494 1_556
Cu0 O9 2.003665 1_555
Cu0 O11 2.011736 1_555
Cu0 O6 2.134734 1_556
Cu1 O5 1.915252 1_555
Cu1 O7 1.915258 1_555
Cu1 O2 1.960884 1_455
Cu1 O1 1.960890 1_555
Cu1 O11 2.218012 1_565
Cu1 Mg0 2.277261 1_455
Cu2 O4 1.973242 1_565
Cu2 O10 1.973247 1_565
Cu2 O5 1.986901 1_555
Cu2 O7 1.986901 1_555
O0 Ti1 1.811138 1_555
O0 Ti3 2.059655 1_545
O1 Ti3 1.902701 1_556
O1 Ti1 2.315888 1_456
O2 Ti0 1.902703 1_555
O2 Ti2 2.315890 1_555
O3 Ti2 1.986178 1_555
O3 Ti1 1.986185 1_455
O4 Ti3 1.927699 1_545
O4 Ti2 2.066479 1_555
O5 Ti1 1.991663 1_455
O5 Ti0 2.178846 1_455
O6 Ti3 1.942747 1_555
O6 Ti0 1.942747 1_555
O7 Ti2 1.991660 1_555
O7 Ti3 2.178850 1_556
O8 Ti2 1.811131 1_555
O8 Ti0 2.059663 1_445
O9 Ti1 2.015988 1_556
O9 Ti2 2.015988 1_555
O10 Ti0 1.927690 1_545
O10 Ti1 2.066485 1_556
O11 Ti0 2.052216 1_445
O11 Ti3 2.052223 1_546
