# generated using pymatgen
data_Nd3Os
_symmetry_space_group_name_H-M   'P 1'
_cell_length_a   6.59153424
_cell_length_b   7.47061995
_cell_length_c   9.59680460
_cell_angle_alpha   90.00134254
_cell_angle_beta   89.99902815
_cell_angle_gamma   90.00385621
_symmetry_Int_Tables_number   1
_chemical_formula_structural   Nd3Os
_chemical_formula_sum   'Nd12 Os4'
_cell_volume   472.57398184
_cell_formula_units_Z   4
loop_
 _symmetry_equiv_pos_site_id
 _symmetry_equiv_pos_as_xyz
  1  'x, y, z'
loop_
 _atom_site_type_symbol
 _atom_site_label
 _atom_site_symmetry_multiplicity
 _atom_site_fract_x
 _atom_site_fract_y
 _atom_site_fract_z
 _atom_site_occupancy
  Nd  Nd0  1  0.32661540  0.67261256  0.06655442  1
  Nd  Nd1  1  0.17337535  0.17260840  0.43345084  1
  Nd  Nd2  1  0.67338658  0.32736187  0.56660547  1
  Nd  Nd3  1  0.82662399  0.82736313  0.93339836  1
  Nd  Nd4  1  0.67338729  0.32735449  0.93339768  1
  Nd  Nd5  1  0.82662142  0.82736692  0.56660151  1
  Nd  Nd6  1  0.32661091  0.67261390  0.43344514  1
  Nd  Nd7  1  0.17337656  0.17261017  0.06654993  1
  Nd  Nd8  1  0.86208461  0.54662342  0.25000996  1
  Nd  Nd9  1  0.63792582  0.04661304  0.25001470  1
  Nd  Nd10  1  0.13792349  0.45338687  0.74998792  1
  Nd  Nd11  1  0.36206528  0.95339353  0.74998640  1
  Os  Os0  1  0.04304499  0.88824852  0.25001860  1
  Os  Os1  1  0.45696781  0.38824327  0.25001791  1
  Os  Os2  1  0.95700576  0.11179945  0.74997737  1
  Os  Os3  1  0.54298473  0.61180045  0.74998279  1
loop_
_geom_bond_atom_site_label_1
_geom_bond_atom_site_label_2
_geom_bond_distance
_geom_bond_site_symmetry_2
Nd0 Os1 2.889950 1_555
Nd0 Os0 3.031337 1_555
Nd0 Os3 3.386774 1_554
Nd1 Os0 2.889526 1_545
Nd1 Os1 3.031158 1_555
Nd1 Os2 3.386377 1_455
Nd2 Os3 2.889845 1_555
Nd2 Os2 3.030809 1_555
Nd2 Os1 3.387180 1_555
Nd3 Os2 2.890024 1_565
Nd3 Os3 3.030958 1_555
Nd3 Os0 3.387427 1_656
Nd4 Os3 2.890185 1_555
Nd4 Os2 3.030966 1_555
Nd4 Os1 3.387408 1_556
Nd5 Os2 2.889702 1_565
Nd5 Os3 3.030778 1_555
Nd5 Os0 3.387085 1_655
Nd6 Os1 2.889675 1_555
Nd6 Os0 3.031184 1_555
Nd6 Os3 3.386558 1_555
Nd7 Os0 2.889794 1_545
Nd7 Os1 3.031334 1_555
Nd7 Os2 3.386802 1_454
Nd8 Os0 2.817065 1_655
Nd8 Os1 2.920660 1_555
Nd9 Os1 2.817238 1_555
Nd9 Os0 2.920773 1_645
Nd10 Os2 2.816691 1_455
Nd10 Os3 2.920426 1_555
Nd11 Os3 2.816879 1_555
Nd11 Os2 2.920538 1_465
