# generated using pymatgen
data_GdInO3
_symmetry_space_group_name_H-M   'P 1'
_cell_length_a   5.60347600
_cell_length_b   5.93298600
_cell_length_c   8.21589500
_cell_angle_alpha   90.00000000
_cell_angle_beta   90.00000000
_cell_angle_gamma   90.00000000
_symmetry_Int_Tables_number   1
_chemical_formula_structural   GdInO3
_chemical_formula_sum   'Gd4 In4 O12'
_cell_volume   273.14026096
_cell_formula_units_Z   4
loop_
 _symmetry_equiv_pos_site_id
 _symmetry_equiv_pos_as_xyz
  1  'x, y, z'
loop_
 _atom_site_type_symbol
 _atom_site_label
 _atom_site_symmetry_multiplicity
 _atom_site_fract_x
 _atom_site_fract_y
 _atom_site_fract_z
 _atom_site_occupancy
  Gd  Gd0  1  0.02024000  0.43658900  0.25000000  1
  Gd  Gd1  1  0.97976000  0.56341100  0.75000000  1
  Gd  Gd2  1  0.52024000  0.06341100  0.75000000  1
  Gd  Gd3  1  0.47976000  0.93658900  0.25000000  1
  In  In0  1  0.00000000  0.00000000  0.00000000  1
  In  In1  1  0.50000000  0.50000000  0.00000000  1
  In  In2  1  0.00000000  0.00000000  0.50000000  1
  In  In3  1  0.50000000  0.50000000  0.50000000  1
  O  O0  1  0.31444500  0.18954200  0.07057000  1
  O  O1  1  0.68555500  0.81045800  0.92943000  1
  O  O2  1  0.81444500  0.31045800  0.92943000  1
  O  O3  1  0.68555500  0.81045800  0.57057000  1
  O  O4  1  0.18555500  0.68954200  0.07057000  1
  O  O5  1  0.31444500  0.18954200  0.42943000  1
  O  O6  1  0.18555500  0.68954200  0.42943000  1
  O  O7  1  0.81444500  0.31045800  0.57057000  1
  O  O8  1  0.63880800  0.56590700  0.25000000  1
  O  O9  1  0.36119200  0.43409300  0.75000000  1
  O  O10  1  0.13880800  0.93409300  0.75000000  1
  O  O11  1  0.86119200  0.06590700  0.25000000  1
loop_
_geom_bond_atom_site_label_1
_geom_bond_atom_site_label_2
_geom_bond_distance
_geom_bond_site_symmetry_2
Gd0 O8 2.270882 1_455
Gd0 O4 2.298609 1_555
Gd0 O6 2.298609 1_555
Gd0 O11 2.372969 1_455
Gd0 O0 2.653175 1_555
Gd0 O5 2.653175 1_555
Gd0 O2 2.970949 1_454
Gd0 O7 2.970949 1_455
Gd1 O9 2.270882 1_655
Gd1 O7 2.298609 1_555
Gd1 O2 2.298609 1_555
Gd1 O10 2.372969 1_655
Gd1 O3 2.653175 1_555
Gd1 O1 2.653175 1_555
Gd1 O6 2.970949 1_655
Gd1 O4 2.970949 1_656
Gd2 O10 2.270882 1_545
Gd2 O3 2.298609 1_545
Gd2 O1 2.298609 1_545
Gd2 O9 2.372969 1_555
Gd2 O7 2.653175 1_555
Gd2 O2 2.653175 1_555
Gd2 O5 2.970949 1_555
Gd2 O0 2.970949 1_556
Gd3 O11 2.270882 1_565
Gd3 O0 2.298609 1_565
Gd3 O5 2.298609 1_565
Gd3 O8 2.372969 1_555
Gd3 O4 2.653175 1_555
Gd3 O6 2.653175 1_555
Gd3 O1 2.970949 1_554
Gd3 O3 2.970949 1_555
In0 O0 2.169186 1_555
In0 O1 2.169186 1_444
In0 O4 2.193172 1_545
In0 O2 2.193172 1_454
In0 O11 2.230850 1_455
In0 O10 2.230850 1_544
In1 O4 2.169186 1_555
In1 O2 2.169186 1_554
In1 O1 2.193172 1_554
In1 O0 2.193172 1_555
In1 O8 2.230850 1_555
In1 O9 2.230850 1_554
In2 O5 2.169186 1_555
In2 O3 2.169186 1_445
In2 O7 2.193172 1_455
In2 O6 2.193172 1_545
In2 O11 2.230850 1_455
In2 O10 2.230850 1_545
In3 O7 2.169186 1_555
In3 O6 2.169186 1_555
In3 O3 2.193172 1_555
In3 O5 2.193172 1_555
In3 O8 2.230850 1_555
In3 O9 2.230850 1_555
