# generated using pymatgen
data_SrVZn(PO4)2
_symmetry_space_group_name_H-M   'P 1'
_cell_length_a   5.53321900
_cell_length_b   7.04323946
_cell_length_c   9.52228361
_cell_angle_alpha   110.93407439
_cell_angle_beta   101.57921467
_cell_angle_gamma   98.14936883
_symmetry_Int_Tables_number   1
_chemical_formula_structural   SrVZn(PO4)2
_chemical_formula_sum   'Sr2 V2 Zn2 P4 O16'
_cell_volume   330.18035608
_cell_formula_units_Z   2
loop_
 _symmetry_equiv_pos_site_id
 _symmetry_equiv_pos_as_xyz
  1  'x, y, z'
loop_
 _atom_site_type_symbol
 _atom_site_label
 _atom_site_symmetry_multiplicity
 _atom_site_fract_x
 _atom_site_fract_y
 _atom_site_fract_z
 _atom_site_occupancy
  Sr  Sr0  1  0.19891000  0.75148000  0.04657800  1
  Sr  Sr1  1  0.80109000  0.24852000  0.95342200  1
  V  V0  1  0.07816100  0.28922800  0.56147900  1
  V  V1  1  0.92183900  0.71077200  0.43852100  1
  Zn  Zn0  1  0.34719100  0.73169400  0.64678500  1
  Zn  Zn1  1  0.65280900  0.26830600  0.35321500  1
  P  P0  1  0.15854800  0.19089700  0.23160500  1
  P  P1  1  0.84145200  0.80910300  0.76839500  1
  P  P2  1  0.53885800  0.72115000  0.30061700  1
  P  P3  1  0.46114200  0.27885000  0.69938300  1
  O  O0  1  0.90992000  0.65727800  0.89755300  1
  O  O1  1  0.44999300  0.26189100  0.21375700  1
  O  O2  1  0.89614900  0.02886500  0.77028200  1
  O  O3  1  0.25917300  0.41797700  0.70027100  1
  O  O4  1  0.55000700  0.73810900  0.78624300  1
  O  O5  1  0.42433200  0.17585300  0.57800100  1
  O  O6  1  0.57566800  0.82414700  0.42199900  1
  O  O7  1  0.39875400  0.12902200  0.86434400  1
  O  O8  1  0.10385100  0.97113500  0.22971800  1
  O  O9  1  0.60124600  0.87097800  0.13565600  1
  O  O10  1  0.09008000  0.34272200  0.10244700  1
  O  O11  1  0.97156400  0.19247700  0.39046600  1
  O  O12  1  0.02843600  0.80752300  0.60953400  1
  O  O13  1  0.25588000  0.58537000  0.36533500  1
  O  O14  1  0.74082700  0.58202300  0.29972900  1
  O  O15  1  0.74412000  0.41463000  0.63466500  1
loop_
_geom_bond_atom_site_label_1
_geom_bond_atom_site_label_2
_geom_bond_distance
_geom_bond_site_symmetry_2
O0 Sr0 1.768152 1_656
O0 P1 1.914998 1_555
O1 Zn1 1.539283 1_555
O1 P0 1.679770 1_555
O2 P1 1.527367 1_545
O2 Sr1 2.093405 1_555
O3 V0 1.388109 1_555
O3 P3 1.586668 1_555
O4 Zn0 1.539283 1_555
O4 P1 1.679770 1_555
O5 P3 1.080798 1_555
O6 P2 1.080798 1_555
O7 Sr1 2.141137 1_555
O7 P3 2.235873 1_555
O8 P0 1.527367 1_565
O8 Sr0 2.093405 1_555
O9 Sr0 2.141137 1_555
O9 P2 2.235873 1_555
O10 Sr1 1.768152 1_454
O10 P0 1.914998 1_555
O11 V0 1.473619 1_655
O11 Zn1 1.916541 1_555
O11 P0 1.994599 1_655
O12 V1 1.473619 1_455
O12 Zn0 1.916541 1_555
O12 P1 1.994599 1_455
O13 P2 2.032240 1_555
O13 V1 2.285202 1_455
O13 Zn0 2.415599 1_555
O14 V1 1.388109 1_555
O14 P2 1.586668 1_555
O15 P3 2.032240 1_555
O15 V0 2.285202 1_655
O15 Zn1 2.415599 1_555
