# generated using pymatgen
data_Ce(As3Ru)4
_symmetry_space_group_name_H-M   'P 1'
_cell_length_a   7.38787845
_cell_length_b   7.38787962
_cell_length_c   7.38787904
_cell_angle_alpha   109.47121098
_cell_angle_beta   109.47120455
_cell_angle_gamma   109.47119806
_symmetry_Int_Tables_number   1
_chemical_formula_structural   Ce(As3Ru)4
_chemical_formula_sum   'Ce1 As12 Ru4'
_cell_volume   310.41142449
_cell_formula_units_Z   1
loop_
 _symmetry_equiv_pos_site_id
 _symmetry_equiv_pos_as_xyz
  1  'x, y, z'
loop_
 _atom_site_type_symbol
 _atom_site_label
 _atom_site_symmetry_multiplicity
 _atom_site_fract_x
 _atom_site_fract_y
 _atom_site_fract_z
 _atom_site_occupancy
  Ce  Ce0  1  0.00000000  0.00000000  0.00000000  1
  As  As0  1  0.85054879  0.65136208  0.50191087  1
  As  As1  1  0.14945121  0.34863792  0.49808913  1
  As  As2  1  0.14945121  0.65136208  0.80081229  1
  As  As3  1  0.85054879  0.34863792  0.19918771  1
  As  As4  1  0.65136208  0.50191087  0.85054879  1
  As  As5  1  0.34863792  0.49808913  0.14945121  1
  As  As6  1  0.65136208  0.80081229  0.14945121  1
  As  As7  1  0.34863792  0.19918771  0.85054879  1
  As  As8  1  0.50191087  0.85054879  0.65136208  1
  As  As9  1  0.49808913  0.14945121  0.34863792  1
  As  As10  1  0.80081229  0.14945121  0.65136208  1
  As  As11  1  0.19918771  0.85054879  0.34863792  1
  Ru  Ru0  1  0.50000000  0.50000000  0.50000000  1
  Ru  Ru1  1  0.50000000  0.00000000  0.00000000  1
  Ru  Ru2  1  0.00000000  0.50000000  0.00000000  1
  Ru  Ru3  1  0.00000000  0.00000000  0.50000000  1
loop_
_geom_bond_atom_site_label_1
_geom_bond_atom_site_label_2
_geom_bond_distance
_geom_bond_site_symmetry_2
As0 Ru0 2.447898 1_555
As0 Ru3 2.447898 1_665
As0 As2 2.549869 1_655
As0 As3 2.582472 1_555
As0 Ce0 3.235904 1_666
As1 Ru0 2.447898 1_555
As1 Ru3 2.447898 1_555
As1 As3 2.549869 1_455
As1 As2 2.582472 1_555
As1 Ce0 3.235904 1_555
As2 Ru1 2.447899 1_566
As2 Ru2 2.447904 1_556
As2 Ce0 3.235905 1_566
As3 Ru1 2.447899 1_555
As3 Ru2 2.447904 1_655
As3 Ce0 3.235905 1_655
As4 Ru2 2.447898 1_656
As4 Ru0 2.447898 1_555
As4 As6 2.549869 1_556
As4 As7 2.582472 1_555
As4 Ce0 3.235905 1_666
As5 Ru2 2.447898 1_555
As5 Ru0 2.447898 1_555
As5 As7 2.549869 1_554
As5 As6 2.582472 1_555
As5 Ce0 3.235905 1_555
As6 Ru3 2.447898 1_665
As6 Ru1 2.447904 1_565
As6 Ce0 3.235905 1_665
As7 Ru3 2.447898 1_555
As7 Ru1 2.447904 1_556
As7 Ce0 3.235905 1_556
As8 Ru1 2.447898 1_566
As8 Ru0 2.447898 1_555
As8 Ce0 3.235904 1_666
As9 Ru1 2.447898 1_555
As9 Ru0 2.447898 1_555
As9 Ce0 3.235904 1_555
As10 Ru2 2.447898 1_656
As10 Ru3 2.447904 1_655
As10 As8 2.549870 1_545
As10 As9 2.582472 1_555
As10 Ce0 3.235905 1_656
As11 Ru2 2.447898 1_555
As11 Ru3 2.447904 1_565
As11 As9 2.549870 1_565
As11 As8 2.582472 1_555
As11 Ce0 3.235905 1_565
