# generated using pymatgen
data_UAl7Fe5
_symmetry_space_group_name_H-M   'P 1'
_cell_length_a   6.63955183
_cell_length_b   6.63266292
_cell_length_c   6.63282383
_cell_angle_alpha   135.91930694
_cell_angle_beta   98.10894917
_cell_angle_gamma   98.05953545
_symmetry_Int_Tables_number   1
_chemical_formula_structural   UAl7Fe5
_chemical_formula_sum   'U1 Al7 Fe5'
_cell_volume   188.39411559
_cell_formula_units_Z   1
loop_
 _symmetry_equiv_pos_site_id
 _symmetry_equiv_pos_as_xyz
  1  'x, y, z'
loop_
 _atom_site_type_symbol
 _atom_site_label
 _atom_site_symmetry_multiplicity
 _atom_site_fract_x
 _atom_site_fract_y
 _atom_site_fract_z
 _atom_site_occupancy
  U  U0  1  0.99342923  0.00014858  0.99329479  1
  Al  Al0  1  0.34139949  -0.00009055  0.34144668  1
  Al  Al1  1  0.65415742  0.00002173  0.65415444  1
  Al  Al2  1  0.66127467  0.65445393  0.00676851  1
  Al  Al3  1  0.35233599  0.34564920  0.00676602  1
  Al  Al4  1  0.22504255  0.49994274  0.72504617  1
  Al  Al5  1  0.21056419  0.71298753  0.49750945  1
  Al  Al6  1  0.78453195  0.28708773  0.49749831  1
  Fe  Fe0  1  0.50304162  0.00017694  0.00039116  1
  Fe  Fe1  1  0.50305663  0.50263130  0.50281793  1
  Fe  Fe2  1  0.00013860  0.49725921  0.00044767  1
  Fe  Fe3  1  0.00016871  -0.00023362  0.50299908  1
  Fe  Fe4  1  0.77085996  0.49996628  0.27085878  1
loop_
_geom_bond_atom_site_label_1
_geom_bond_atom_site_label_2
_geom_bond_distance
_geom_bond_site_symmetry_2
Al0 Fe0 2.638058 1_555
Al0 Fe1 2.638291 1_555
Al0 Fe2 2.639487 1_545
Al0 Fe3 2.639507 1_555
Al0 Al4 2.686884 1_555
Al0 Al4 2.687154 1_544
Al0 Al1 2.719643 1_555
Al0 Al5 2.840441 1_545
Al0 Al6 2.844798 1_555
Al0 U0 3.028451 1_454
Al1 Fe0 2.632046 1_556
Al1 Fe1 2.632062 1_545
Al1 Fe3 2.632772 1_655
Al1 Fe2 2.633103 1_656
Al1 Fe4 2.688109 1_556
Al1 Fe4 2.688133 1_545
Al1 Al6 2.843986 1_555
Al1 Al5 2.846236 1_545
Al1 U0 2.949843 1_555
Al2 Fe2 2.602396 1_655
Al2 Fe3 2.603261 1_665
Al2 Fe4 2.660054 1_555
Al2 Fe0 2.676943 1_565
Al2 Fe1 2.677209 1_554
Al2 Al3 2.687839 1_555
Al2 Al6 2.744249 1_554
Al2 Al6 2.744857 1_565
Al2 Al4 2.796524 1_554
Al2 U0 3.010146 1_564
Al3 Fe1 2.601566 1_555
Al3 Fe0 2.601767 1_555
Al3 Fe4 2.662924 1_555
Al3 Fe2 2.678334 1_555
Al3 Fe3 2.678376 1_554
Al3 Al5 2.744218 1_555
Al3 Al5 2.745042 1_544
Al3 Al4 2.792433 1_554
Al3 U0 3.008733 1_454
Al4 Fe3 2.524892 1_555
Al4 Fe2 2.525020 1_556
Al4 Fe1 2.525157 1_555
Al4 Fe0 2.525210 1_566
Al4 Al5 2.710127 1_555
Al4 Al6 2.713110 1_455
Al4 U0 3.203004 1_465
Al4 U0 3.203113 1_454
Al5 Fe3 2.496130 1_565
Al5 Fe2 2.496274 1_555
Al5 Fe1 2.555461 1_555
Al5 Fe0 2.555825 1_566
Al5 Fe4 2.707942 1_455
Al5 U0 3.102920 1_454
Al5 U0 3.103031 1_465
Al6 Fe1 2.496611 1_555
Al6 Fe0 2.497099 1_555
Al6 Fe3 2.555999 1_655
Al6 Fe2 2.556012 1_656
Al6 Fe4 2.703436 1_555
Al6 U0 3.103939 1_554
Al6 U0 3.103979 1_565
Fe0 Fe1 2.476888 1_544
Fe0 Fe1 2.501111 1_555
Fe0 Fe4 2.504448 1_555
Fe0 U0 3.262950 1_554
Fe0 U0 3.377252 1_454
Fe1 Fe4 2.504108 1_555
Fe1 U0 3.263269 1_565
Fe1 U0 3.377545 1_454
Fe2 Fe3 2.476483 1_554
Fe2 Fe3 2.501515 1_565
Fe2 Fe4 2.503273 1_455
Fe2 U0 3.257149 1_454
Fe2 U0 3.376121 1_464
Fe3 Fe4 2.503621 1_445
Fe3 U0 3.256846 1_455
Fe3 U0 3.376587 1_454
Fe4 U0 3.152102 1_554
Fe4 U0 3.152658 1_565
