# generated using pymatgen
data_Sr2CrO4
_symmetry_space_group_name_H-M   'P 1'
_cell_length_a   3.77230850
_cell_length_b   3.77229940
_cell_length_c   6.85647296
_cell_angle_alpha   105.96952536
_cell_angle_beta   105.96956307
_cell_angle_gamma   90.00011025
_symmetry_Int_Tables_number   1
_chemical_formula_structural   Sr2CrO4
_chemical_formula_sum   'Sr2 Cr1 O4'
_cell_volume   89.88109875
_cell_formula_units_Z   1
loop_
 _symmetry_equiv_pos_site_id
 _symmetry_equiv_pos_as_xyz
  1  'x, y, z'
loop_
 _atom_site_type_symbol
 _atom_site_label
 _atom_site_symmetry_multiplicity
 _atom_site_fract_x
 _atom_site_fract_y
 _atom_site_fract_z
 _atom_site_occupancy
  Sr  Sr0  1  0.64591532  0.64607475  0.29194682  1
  Sr  Sr1  1  0.35392414  0.35408300  0.70805608  1
  Cr  Cr0  1  1.00031406  -0.00030954  -0.00000547  1
  O  O0  1  0.84335662  0.84348124  0.68675503  1
  O  O1  1  0.15651766  0.15664290  0.31324779  1
  O  O2  1  0.99994617  0.49997641  0.99999904  1
  O  O3  1  0.50002403  0.00005123  0.00000170  1
loop_
_geom_bond_atom_site_label_1
_geom_bond_atom_site_label_2
_geom_bond_distance
_geom_bond_site_symmetry_2
Cr0 O3 1.885047 1_655
Cr0 O2 1.885080 1_544
Cr0 O2 1.887220 1_554
Cr0 O3 1.887262 1_555
Cr0 O0 1.978480 1_544
Cr0 O1 1.978567 1_655
O0 Sr0 2.493683 1_555
O0 Sr1 2.670452 1_665
O0 Sr1 2.670724 1_655
O0 Sr1 2.670906 1_565
O0 Sr1 2.671169 1_555
O1 Sr1 2.493683 1_555
O1 Sr0 2.670455 1_445
O1 Sr0 2.670724 1_545
O1 Sr0 2.670906 1_455
O1 Sr0 2.671165 1_555
O2 Sr1 2.637678 1_655
O2 Sr0 2.637719 1_656
O2 Sr1 2.637847 1_555
O2 Sr0 2.637848 1_556
O3 Sr0 2.637683 1_545
O3 Sr1 2.637707 1_544
O3 Sr1 2.637835 1_554
O3 Sr0 2.637854 1_555
