# generated using pymatgen
data_Y(VSn)6
_symmetry_space_group_name_H-M   'P 1'
_cell_length_a   5.47883331
_cell_length_b   5.47882900
_cell_length_c   9.22869354
_cell_angle_alpha   90.00000000
_cell_angle_beta   90.00000000
_cell_angle_gamma   119.99997509
_symmetry_Int_Tables_number   1
_chemical_formula_structural   Y(VSn)6
_chemical_formula_sum   'Y1 V6 Sn6'
_cell_volume   239.90914276
_cell_formula_units_Z   1
loop_
 _symmetry_equiv_pos_site_id
 _symmetry_equiv_pos_as_xyz
  1  'x, y, z'
loop_
 _atom_site_type_symbol
 _atom_site_label
 _atom_site_symmetry_multiplicity
 _atom_site_fract_x
 _atom_site_fract_y
 _atom_site_fract_z
 _atom_site_occupancy
  Y  Y0  1  -0.00000000  0.00000000  -0.00000000  1
  V  V0  1  0.50000000  0.50000000  0.75138818  1
  V  V1  1  0.50000000  0.00000000  0.75138818  1
  V  V2  1  -0.00000000  0.50000000  0.75138718  1
  V  V3  1  0.50000000  0.50000000  0.24861182  1
  V  V4  1  0.50000000  0.00000000  0.24861182  1
  V  V5  1  -0.00000000  0.50000000  0.24861282  1
  Sn  Sn0  1  -0.00000000  0.00000000  0.67028839  1
  Sn  Sn1  1  -0.00000000  -0.00000000  0.32971161  1
  Sn  Sn2  1  0.66666800  0.33333400  0.50000000  1
  Sn  Sn3  1  0.33333200  0.66666600  0.50000000  1
  Sn  Sn4  1  0.66666900  0.33333400  -0.00000000  1
  Sn  Sn5  1  0.33333100  0.66666600  -0.00000000  1
loop_
_geom_bond_atom_site_label_1
_geom_bond_atom_site_label_2
_geom_bond_distance
_geom_bond_site_symmetry_2
Sn0 V2 2.839815 1_545
Sn0 V2 2.839815 1_555
Sn0 V0 2.839819 1_555
Sn0 V0 2.839819 1_445
Sn0 V1 2.839819 1_555
Sn0 V1 2.839819 1_455
Sn0 Y0 3.042807 1_556
Sn1 V5 2.839815 1_555
Sn1 V5 2.839815 1_545
Sn1 V3 2.839819 1_445
Sn1 V3 2.839819 1_555
Sn1 V4 2.839819 1_555
Sn1 V4 2.839819 1_455
Sn1 Y0 3.042807 1_555
Sn2 V5 2.807799 1_655
Sn2 V2 2.807799 1_655
Sn2 V1 2.807811 1_555
Sn2 V4 2.807811 1_555
Sn2 V3 2.807811 1_555
Sn2 V0 2.807811 1_555
Sn3 V5 2.807799 1_555
Sn3 V2 2.807799 1_555
Sn3 V4 2.807811 1_565
Sn3 V1 2.807811 1_565
Sn3 V3 2.807811 1_555
Sn3 V0 2.807811 1_555
Sn4 V4 2.786678 1_555
Sn4 V1 2.786678 1_554
Sn4 V2 2.786678 1_654
Sn4 V5 2.786678 1_655
Sn4 V3 2.786681 1_555
Sn4 V0 2.786681 1_554
Sn4 Y0 3.163196 1_655
Sn4 Y0 3.163201 1_665
Sn4 Y0 3.163218 1_555
Sn5 V4 2.786678 1_565
Sn5 V1 2.786678 1_564
Sn5 V2 2.786678 1_554
Sn5 V5 2.786678 1_555
Sn5 V3 2.786681 1_555
Sn5 V0 2.786681 1_554
Sn5 Y0 3.163196 1_565
Sn5 Y0 3.163201 1_555
Sn5 Y0 3.163218 1_665
