# generated using pymatgen
data_CeCo9Si4
_symmetry_space_group_name_H-M   'P 1'
_cell_length_a   7.91946252
_cell_length_b   7.91946252
_cell_length_c   7.91946252
_cell_angle_alpha   121.55829510
_cell_angle_beta   121.55829510
_cell_angle_gamma   87.32150041
_symmetry_Int_Tables_number   1
_chemical_formula_structural   CeCo9Si4
_chemical_formula_sum   'Ce2 Co18 Si8'
_cell_volume   342.53502600
_cell_formula_units_Z   2
loop_
 _symmetry_equiv_pos_site_id
 _symmetry_equiv_pos_as_xyz
  1  'x, y, z'
loop_
 _atom_site_type_symbol
 _atom_site_label
 _atom_site_symmetry_multiplicity
 _atom_site_fract_x
 _atom_site_fract_y
 _atom_site_fract_z
 _atom_site_occupancy
  Ce  Ce0  1  0.75000000  0.75000000  0.00000000  1
  Ce  Ce1  1  0.25000000  0.25000000  0.00000000  1
  Co  Co0  1  0.06930300  0.19979100  0.26909400  1
  Co  Co1  1  0.93069700  0.80020900  0.73090600  1
  Co  Co2  1  0.56930300  0.30020900  0.86951200  1
  Co  Co3  1  0.43069700  0.69979100  0.13048800  1
  Co  Co4  1  0.80020900  0.06930300  0.86951200  1
  Co  Co5  1  0.19979100  0.93069700  0.13048800  1
  Co  Co6  1  0.69979100  0.56930300  0.26909400  1
  Co  Co7  1  0.30020900  0.43069700  0.73090600  1
  Co  Co8  1  0.44890400  0.94890400  0.75925000  1
  Co  Co9  1  0.18965400  0.68965400  0.24075000  1
  Co  Co10  1  0.94890400  0.18965400  0.50000000  1
  Co  Co11  1  0.68965400  0.44890400  0.50000000  1
  Co  Co12  1  0.55109600  0.05109600  0.24075000  1
  Co  Co13  1  0.81034600  0.31034600  0.75925000  1
  Co  Co14  1  0.05109600  0.81034600  0.50000000  1
  Co  Co15  1  0.31034600  0.55109600  0.50000000  1
  Co  Co16  1  0.00000000  0.50000000  0.50000000  1
  Co  Co17  1  0.50000000  0.00000000  0.50000000  1
  Si  Si0  1  0.04864800  0.54864800  0.83929600  1
  Si  Si1  1  0.70935200  0.20935200  0.16070400  1
  Si  Si2  1  0.54864800  0.70935200  0.50000000  1
  Si  Si3  1  0.20935200  0.04864800  0.50000000  1
  Si  Si4  1  0.95135200  0.45135200  0.16070400  1
  Si  Si5  1  0.29064800  0.79064800  0.83929600  1
  Si  Si6  1  0.45135200  0.29064800  0.50000000  1
  Si  Si7  1  0.79064800  0.95135200  0.50000000  1
loop_
_geom_bond_atom_site_label_1
_geom_bond_atom_site_label_2
_geom_bond_distance
_geom_bond_site_symmetry_2
Ce0 Co14 3.136270 1_655
Ce0 Co13 3.136270 1_554
Ce0 Co9 3.136270 1_655
Ce0 Co12 3.136270 1_565
Ce0 Co10 3.136270 1_565
Ce0 Co11 3.136270 1_554
Ce0 Co8 3.136270 1_554
Ce0 Co15 3.136270 1_554
Ce0 Si5 3.229600 1_554
Ce0 Si6 3.229600 1_554
Ce0 Si3 3.229600 1_665
Ce0 Si1 3.229600 1_565
Ce0 Si0 3.229600 1_654
Ce0 Si4 3.229600 1_555
Ce0 Si2 3.229600 1_554
Ce0 Si7 3.229600 1_555
Ce0 Co2 3.298444 1_554
Ce0 Co6 3.298444 1_555
Ce0 Co3 3.298444 1_555
Ce0 Co7 3.298444 1_554
Ce0 Co1 3.298444 1_554
Ce0 Co5 3.298444 1_655
Ce0 Co0 3.298444 1_665
Ce0 Co4 3.298444 1_564
Ce1 Co11 3.136270 1_555
Ce1 Co12 3.136270 1_555
Ce1 Co9 3.136270 1_555
Ce1 Co15 3.136270 1_555
Ce1 Co14 3.136270 1_544
Ce1 Co13 3.136270 1_454
Ce1 Co10 3.136270 1_454
Ce1 Co8 3.136270 1_544
Ce1 Si1 3.229600 1_555
Ce1 Si7 3.229600 1_444
Ce1 Si5 3.229600 1_544
Ce1 Si2 3.229600 1_555
Ce1 Si4 3.229600 1_455
Ce1 Si3 3.229600 1_554
Ce1 Si6 3.229600 1_555
Ce1 Si0 3.229600 1_554
Ce1 Co4 3.298444 1_454
Ce1 Co5 3.298444 1_545
Ce1 Co1 3.298444 1_444
Ce1 Co0 3.298444 1_555
Ce1 Co7 3.298444 1_554
Ce1 Co6 3.298444 1_555
Ce1 Co2 3.298444 1_554
Ce1 Co3 3.298444 1_555
Co0 Co5 2.312416 1_545
Co0 Co4 2.312416 1_454
Co0 Co16 2.382326 1_555
Co0 Si6 2.459864 1_555
Co0 Si3 2.459864 1_555
Co0 Co15 2.499095 1_555
Co0 Co10 2.499095 1_455
Co0 Si4 2.520944 1_455
Co0 Si1 2.520944 1_455
Co0 Co7 2.524954 1_555
Co1 Co5 2.312416 1_656
Co1 Co4 2.312416 1_565
Co1 Co16 2.382326 1_655
Co1 Si7 2.459864 1_555
Co1 Si2 2.459864 1_555
Co1 Co11 2.499095 1_555
Co1 Co14 2.499095 1_655
Co1 Si5 2.520944 1_655
Co1 Si0 2.520944 1_655
Co1 Co6 2.524954 1_555
Co2 Co6 2.312416 1_556
Co2 Co7 2.312416 1_555
Co2 Si4 2.459864 1_556
Co2 Si1 2.459864 1_556
Co2 Co8 2.499095 1_545
Co2 Si6 2.520944 1_555
Co2 Si3 2.520944 1_555
Co2 Co4 2.524954 1_555
Co3 Co7 2.312416 1_554
Co3 Co6 2.312416 1_555
Co3 Si5 2.459864 1_554
Co3 Si0 2.459864 1_554
Co3 Co9 2.499095 1_555
Co3 Si7 2.520944 1_555
Co3 Si2 2.520944 1_555
Co3 Co5 2.524954 1_555
Co4 Si4 2.459864 1_556
Co4 Si1 2.459864 1_556
Co4 Co8 2.499095 1_545
Co4 Si7 2.520944 1_545
Co4 Si2 2.520944 1_545
Co5 Si5 2.459864 1_554
Co5 Si0 2.459864 1_554
Co5 Co9 2.499095 1_555
Co5 Si6 2.520944 1_565
Co5 Si3 2.520944 1_565
Co6 Si7 2.459864 1_555
Co6 Si2 2.459864 1_555
Co6 Si4 2.520944 1_555
Co6 Si1 2.520944 1_555
Co7 Si6 2.459864 1_555
Co7 Si3 2.459864 1_555
Co7 Si5 2.520944 1_555
Co7 Si0 2.520944 1_555
Co8 Si1 2.299148 1_566
Co8 Si5 2.313751 1_555
Co8 Si2 2.432866 1_555
Co8 Si3 2.432866 1_565
Co9 Si0 2.299148 1_554
Co9 Si4 2.313751 1_455
Co9 Si3 2.432866 1_565
Co9 Si2 2.432866 1_555
Co10 Si3 2.299148 1_655
Co10 Si7 2.313751 1_545
Co10 Si0 2.432866 1_655
Co10 Si1 2.432866 1_555
Co10 Co7 2.499095 1_655
Co10 Co16 2.509452 1_655
Co10 Co12 2.557149 1_555
Co10 Co13 2.557149 1_555
Co11 Si2 2.299148 1_555
Co11 Si6 2.313751 1_555
Co11 Si1 2.432866 1_555
Co11 Si0 2.432866 1_655
Co11 Co6 2.499095 1_555
Co11 Co16 2.509452 1_655
Co11 Co12 2.557149 1_555
Co11 Co13 2.557149 1_555
Co12 Si5 2.299148 1_544
Co12 Si1 2.313751 1_555
Co12 Si7 2.432866 1_545
Co12 Si6 2.432866 1_555
Co12 Co3 2.499095 1_545
Co12 Co5 2.499095 1_545
Co12 Co17 2.509452 1_555
Co13 Si4 2.299148 1_556
Co13 Si0 2.313751 1_655
Co13 Si7 2.432866 1_545
Co13 Si6 2.432866 1_555
Co13 Co2 2.499095 1_555
Co13 Co4 2.499095 1_555
Co13 Co17 2.509452 1_555
Co14 Si7 2.299148 1_455
Co14 Si3 2.313751 1_565
Co14 Si4 2.432866 1_455
Co14 Si5 2.432866 1_555
Co14 Co6 2.499095 1_455
Co14 Co16 2.509452 1_555
Co14 Co9 2.557149 1_555
Co14 Co8 2.557149 1_555
Co15 Si6 2.299148 1_555
Co15 Si2 2.313751 1_555
Co15 Si5 2.432866 1_555
Co15 Si4 2.432866 1_455
Co15 Co7 2.499095 1_555
Co15 Co16 2.509452 1_555
Co15 Co9 2.557149 1_555
Co15 Co8 2.557149 1_555
Co16 Si4 2.315971 1_455
Co16 Si5 2.315971 1_555
Co16 Si0 2.315971 1_555
Co16 Si1 2.315971 1_455
Co16 Co7 2.382326 1_555
Co16 Co6 2.382326 1_455
Co17 Si3 2.315971 1_555
Co17 Si7 2.315971 1_545
Co17 Si2 2.315971 1_545
Co17 Si6 2.315971 1_555
Co17 Co3 2.382326 1_545
Co17 Co2 2.382326 1_555
Co17 Co4 2.382326 1_555
Co17 Co5 2.382326 1_545
Co17 Co8 2.509452 1_545
Co17 Co9 2.509452 1_545
Si0 Si5 2.772961 1_555
Si1 Si4 2.772961 1_555
Si2 Si7 2.772961 1_555
Si3 Si6 2.772961 1_555
