# generated using pymatgen
data_LiMnP3(H5O7)2
_symmetry_space_group_name_H-M   'P 1'
_cell_length_a   7.30586791
_cell_length_b   10.04432963
_cell_length_c   10.07727871
_cell_angle_alpha   61.58293775
_cell_angle_beta   70.66106546
_cell_angle_gamma   86.28449457
_symmetry_Int_Tables_number   1
_chemical_formula_structural   LiMnP3(H5O7)2
_chemical_formula_sum   'Li2 Mn2 P6 H20 O28'
_cell_volume   609.84632641
_cell_formula_units_Z   2
loop_
 _symmetry_equiv_pos_site_id
 _symmetry_equiv_pos_as_xyz
  1  'x, y, z'
loop_
 _atom_site_type_symbol
 _atom_site_label
 _atom_site_symmetry_multiplicity
 _atom_site_fract_x
 _atom_site_fract_y
 _atom_site_fract_z
 _atom_site_occupancy
  Li  Li0  1  0.12778500  0.32032500  0.31986800  1
  Li  Li1  1  0.87221500  0.67967500  0.68013200  1
  Mn  Mn0  1  0.44244200  0.28791500  0.80593300  1
  Mn  Mn1  1  0.55755800  0.71208500  0.19406700  1
  P  P0  1  0.99133700  0.86249700  0.84359500  1
  P  P1  1  0.00866300  0.13750300  0.15640500  1
  P  P2  1  0.83195700  0.32294400  0.90192000  1
  P  P3  1  0.16804300  0.67705600  0.09808000  1
  P  P4  1  0.91165100  0.79973900  0.30691500  1
  P  P5  1  0.08834900  0.20026100  0.69308500  1
  H  H0  1  0.51934300  0.69455600  0.87138600  1
  H  H1  1  0.48065700  0.30544400  0.12861400  1
  H  H2  1  0.57282400  0.80794400  0.68719200  1
  H  H3  1  0.42717600  0.19205600  0.31280800  1
  H  H4  1  0.79968400  0.96143500  0.61821000  1
  H  H5  1  0.20031600  0.03856500  0.38179000  1
  H  H6  1  0.24077700  0.91775100  0.53071300  1
  H  H7  1  0.75922300  0.08224900  0.46928700  1
  H  H8  1  0.70689000  0.51124500  0.49635800  1
  H  H9  1  0.29311000  0.48875500  0.50364200  1
  H  H10  1  0.18689300  0.64102600  0.44231600  1
  H  H11  1  0.81310700  0.35897400  0.55768400  1
  H  H12  1  0.80305800  0.48330800  0.21766100  1
  H  H13  1  0.19694200  0.51669200  0.78233900  1
  H  H14  1  0.40566900  0.58251500  0.77204600  1
  H  H15  1  0.59433100  0.41748500  0.22795400  1
  H  H16  1  0.37296900  0.98583600  0.11776900  1
  H  H17  1  0.62703100  0.01416400  0.88223100  1
  H  H18  1  0.42149600  0.93857900  0.27394100  1
  H  H19  1  0.57850400  0.06142100  0.72605900  1
  O  O0  1  0.12005800  0.02238000  0.77292200  1
  O  O1  1  0.87994200  0.97762000  0.22707800  1
  O  O2  1  0.87061400  0.25341600  0.07131100  1
  O  O3  1  0.12938600  0.74658400  0.92868900  1
  O  O4  1  0.00377600  0.16120700  0.29463000  1
  O  O5  1  0.99622400  0.83879300  0.70537000  1
  O  O6  1  0.20393700  0.14643300  0.03831200  1
  O  O7  1  0.79606300  0.85356700  0.96168800  1
  O  O8  1  0.05195200  0.52340000  0.20910600  1
  O  O9  1  0.94804800  0.47660000  0.79089400  1
  O  O10  1  0.61336400  0.30996600  0.94495200  1
  O  O11  1  0.38663600  0.69003400  0.05504800  1
  O  O12  1  0.27125600  0.28747900  0.66141900  1
  O  O13  1  0.72874400  0.71252100  0.33858100  1
  O  O14  1  0.01701700  0.24480200  0.55537100  1
  O  O15  1  0.98298300  0.75519800  0.44462900  1
  O  O16  1  0.91143300  0.20038600  0.84196700  1
  O  O17  1  0.08856700  0.79961400  0.15803300  1
  O  O18  1  0.57558800  0.70039600  0.76370200  1
  O  O19  1  0.42441200  0.29960400  0.23629800  1
  O  O20  1  0.31042400  0.99406900  0.41820900  1
  O  O21  1  0.68957600  0.00593100  0.58179100  1
  O  O22  1  0.69599200  0.40794100  0.58644800  1
  O  O23  1  0.30400800  0.59205900  0.41355200  1
  O  O24  1  0.66807800  0.50158400  0.22128300  1
  O  O25  1  0.33192200  0.49841600  0.77871700  1
  O  O26  1  0.45998900  0.92695900  0.17588100  1
  O  O27  1  0.54001100  0.07304100  0.82411900  1
loop_
_geom_bond_atom_site_label_1
_geom_bond_atom_site_label_2
_geom_bond_distance
_geom_bond_site_symmetry_2
Li0 O8 1.951811 1_555
Li0 O14 1.989135 1_555
Li0 O4 2.041326 1_555
Li0 O19 2.085320 1_555
Li1 O9 1.951811 1_555
Li1 O15 1.989135 1_555
Li1 O5 2.041326 1_555
Li1 O18 2.085320 1_555
Mn0 O25 2.138017 1_555
Mn0 O27 2.170365 1_555
Mn0 O22 2.194277 1_555
Mn0 O12 2.213162 1_555
Mn0 O6 2.233963 1_556
Mn0 O10 2.249626 1_555
Mn1 O24 2.138017 1_555
Mn1 O26 2.170365 1_555
Mn1 O23 2.194277 1_555
Mn1 O13 2.213162 1_555
Mn1 O7 2.233963 1_554
Mn1 O11 2.249626 1_555
H0 O18 0.998537 1_555
H0 O11 1.762044 1_556
H1 O19 0.998537 1_555
H1 O10 1.762044 1_554
H2 O18 0.988216 1_555
H3 O19 0.988216 1_555
H4 O21 0.987106 1_565
H5 O20 0.987106 1_545
H6 O20 0.986507 1_555
H7 O21 0.986507 1_555
H8 O22 0.986639 1_555
H9 O23 0.986639 1_555
H10 O23 0.987376 1_555
H11 O22 0.987376 1_555
H12 O24 0.983153 1_555
H13 O25 0.983153 1_555
H14 O25 0.994639 1_555
H15 O24 0.994639 1_555
H16 O26 0.982392 1_555
H17 O27 0.982392 1_555
H18 O26 0.995323 1_555
H19 O27 0.995323 1_555
O0 P5 1.610866 1_555
O0 P0 1.623009 1_445
O1 P4 1.610866 1_555
O1 P1 1.623009 1_665
O2 P1 1.605757 1_655
O2 P2 1.624945 1_554
O3 P0 1.605757 1_455
O3 P3 1.624945 1_556
O4 P1 1.509911 1_555
O5 P0 1.509911 1_555
O6 P1 1.500041 1_555
O7 P0 1.500041 1_555
O8 P3 1.500267 1_555
O9 P2 1.500267 1_555
O10 P2 1.506649 1_555
O11 P3 1.506649 1_555
O12 P5 1.502730 1_555
O13 P4 1.502730 1_555
O14 P5 1.501846 1_555
O15 P4 1.501846 1_555
O16 P2 1.612587 1_555
O16 P5 1.624445 1_655
O17 P3 1.612587 1_555
O17 P4 1.624445 1_455
