# generated using pymatgen
data_Ca2LaMn2O7
_symmetry_space_group_name_H-M   'P 1'
_cell_length_a   3.93978800
_cell_length_b   10.15477497
_cell_length_c   7.61384400
_cell_angle_alpha   100.80374869
_cell_angle_beta   89.99733610
_cell_angle_gamma   101.18581950
_symmetry_Int_Tables_number   1
_chemical_formula_structural   Ca2LaMn2O7
_chemical_formula_sum   'Ca4 La2 Mn4 O14'
_cell_volume   293.32021481
_cell_formula_units_Z   2
loop_
 _symmetry_equiv_pos_site_id
 _symmetry_equiv_pos_as_xyz
  1  'x, y, z'
loop_
 _atom_site_type_symbol
 _atom_site_label
 _atom_site_symmetry_multiplicity
 _atom_site_fract_x
 _atom_site_fract_y
 _atom_site_fract_z
 _atom_site_occupancy
  Ca  Ca0  1  0.31465800  0.62933000  0.65730900  1
  Ca  Ca1  1  0.31467500  0.62933100  0.15732600  1
  Ca  Ca2  1  0.68533500  0.37066000  0.34269700  1
  Ca  Ca3  1  0.68531600  0.37066100  0.84268600  1
  La  La0  1  0.49997900  0.99997900  0.25003700  1
  La  La1  1  0.49999400  0.99999000  0.74995900  1
  Mn  Mn0  1  0.10213300  0.20426600  0.55106700  1
  Mn  Mn1  1  0.89790800  0.79577600  0.44893900  1
  Mn  Mn2  1  0.10211200  0.20424400  0.05104400  1
  Mn  Mn3  1  0.89789000  0.79574800  0.94895700  1
  O  O0  1  0.99999900  0.99999700  0.50000300  1
  O  O1  1  0.00000400  0.99999900  0.99999200  1
  O  O2  1  0.19972400  0.39949900  0.59982300  1
  O  O3  1  0.19973500  0.39949700  0.09983500  1
  O  O4  1  0.80026700  0.60050700  0.40016400  1
  O  O5  1  0.80025500  0.60050800  0.90017300  1
  O  O6  1  0.09600700  0.19207600  0.29801700  1
  O  O7  1  0.09599800  0.19208800  0.79802300  1
  O  O8  1  0.90399100  0.80790900  0.70197600  1
  O  O9  1  0.90401500  0.80792300  0.20197800  1
  O  O10  1  0.59644000  0.19293500  0.54821300  1
  O  O11  1  0.59644300  0.19292800  0.04821700  1
  O  O12  1  0.40355900  0.80707200  0.45178300  1
  O  O13  1  0.40356400  0.80707800  0.95178100  1
loop_
_geom_bond_atom_site_label_1
_geom_bond_atom_site_label_2
_geom_bond_distance
_geom_bond_site_symmetry_2
Ca0 O2 2.247366 1_555
Ca0 O12 2.577346 1_555
Ca0 O13 2.577821 1_555
Ca0 O8 2.632302 1_455
Ca0 O8 2.632570 1_555
Ca0 O4 2.753415 1_555
Ca0 O4 2.753428 1_455
Ca0 O5 2.754017 1_455
Ca0 O5 2.754187 1_555
Ca1 O3 2.247395 1_555
Ca1 O13 2.577492 1_554
Ca1 O12 2.577700 1_555
Ca1 O9 2.632385 1_455
Ca1 O9 2.632656 1_555
Ca1 O5 2.753375 1_554
Ca1 O5 2.753552 1_454
Ca1 O4 2.753897 1_455
Ca1 O4 2.754044 1_555
Ca2 O4 2.247522 1_555
Ca2 O10 2.577153 1_555
Ca2 O11 2.577783 1_555
Ca2 O6 2.632357 1_655
Ca2 O6 2.632580 1_555
Ca2 O2 2.753295 1_655
Ca2 O2 2.753338 1_555
Ca2 O3 2.754012 1_655
Ca2 O3 2.754241 1_555
Ca3 O5 2.247522 1_555
Ca3 O11 2.577302 1_556
Ca3 O10 2.577712 1_555
Ca3 O7 2.632299 1_655
Ca3 O7 2.632495 1_555
Ca3 O3 2.753371 1_556
Ca3 O3 2.753505 1_656
Ca3 O2 2.754041 1_655
Ca3 O2 2.754228 1_555
La0 O12 2.679641 1_555
La0 O10 2.679809 1_565
La0 O13 2.679937 1_554
La0 O11 2.680388 1_565
La0 O9 2.721464 1_455
La0 O9 2.721817 1_555
La0 O6 2.721864 1_665
La0 O6 2.721969 1_565
La0 O0 2.738980 1_455
La0 O0 2.739170 1_555
La0 O1 2.739522 1_654
La0 O1 2.739564 1_554
La1 O12 2.679599 1_555
La1 O10 2.679954 1_565
La1 O13 2.680094 1_555
La1 O11 2.680153 1_566
La1 O8 2.721708 1_455
La1 O7 2.721801 1_665
La1 O8 2.721910 1_555
La1 O7 2.722046 1_565
La1 O0 2.738995 1_555
La1 O0 2.739114 1_455
La1 O1 2.739362 1_555
La1 O1 2.739520 1_655
Mn0 O7 1.907185 1_555
Mn0 O6 1.907210 1_555
Mn0 O2 1.909055 1_555
Mn0 O10 1.972899 1_555
Mn0 O10 1.973116 1_455
Mn0 O0 1.997412 1_445
Mn1 O9 1.907145 1_555
Mn1 O8 1.907184 1_555
Mn1 O4 1.909407 1_555
Mn1 O12 1.972976 1_555
Mn1 O12 1.973001 1_655
Mn1 O0 1.996943 1_555
Mn2 O7 1.907033 1_554
Mn2 O6 1.907289 1_555
Mn2 O3 1.909250 1_555
Mn2 O11 1.972956 1_555
Mn2 O11 1.973043 1_455
Mn2 O1 1.997177 1_544
Mn3 O9 1.907009 1_556
Mn3 O8 1.907332 1_555
Mn3 O5 1.909123 1_555
Mn3 O13 1.972971 1_555
Mn3 O13 1.973043 1_655
Mn3 O1 1.997236 1_655
