# generated using pymatgen
data_BaMg6Si
_symmetry_space_group_name_H-M   'P 1'
_cell_length_a   4.95048000
_cell_length_b   6.08745900
_cell_length_c   14.27059600
_cell_angle_alpha   90.00000000
_cell_angle_beta   90.00000000
_cell_angle_gamma   90.00000000
_symmetry_Int_Tables_number   1
_chemical_formula_structural   BaMg6Si
_chemical_formula_sum   'Ba2 Mg12 Si2'
_cell_volume   430.05645528
_cell_formula_units_Z   2
loop_
 _symmetry_equiv_pos_site_id
 _symmetry_equiv_pos_as_xyz
  1  'x, y, z'
loop_
 _atom_site_type_symbol
 _atom_site_label
 _atom_site_symmetry_multiplicity
 _atom_site_fract_x
 _atom_site_fract_y
 _atom_site_fract_z
 _atom_site_occupancy
  Ba  Ba0  1  0.50000000  0.50000000  0.20217800  1
  Ba  Ba1  1  0.50000000  0.00000000  0.70217800  1
  Mg  Mg0  1  0.50000000  0.24240600  0.43837700  1
  Mg  Mg1  1  0.50000000  0.75759400  0.43837700  1
  Mg  Mg2  1  0.00000000  0.75529000  0.07297000  1
  Mg  Mg3  1  0.00000000  0.24471000  0.07297000  1
  Mg  Mg4  1  0.00000000  0.00000000  0.30312900  1
  Mg  Mg5  1  0.00000000  0.50000000  0.37096000  1
  Mg  Mg6  1  0.50000000  0.74240600  0.93837700  1
  Mg  Mg7  1  0.50000000  0.25759400  0.93837700  1
  Mg  Mg8  1  0.00000000  0.25529000  0.57297000  1
  Mg  Mg9  1  0.00000000  0.74471000  0.57297000  1
  Mg  Mg10  1  0.00000000  0.50000000  0.80312900  1
  Mg  Mg11  1  0.00000000  0.00000000  0.87096000  1
  Si  Si0  1  0.50000000  0.00000000  0.10103500  1
  Si  Si1  1  0.50000000  0.50000000  0.60103500  1
loop_
_geom_bond_atom_site_label_1
_geom_bond_atom_site_label_2
_geom_bond_distance
_geom_bond_site_symmetry_2
Ba0 Si0 3.368621 1_555
Ba0 Si0 3.368621 1_565
Ba0 Mg5 3.453732 1_555
Ba0 Mg5 3.453732 1_655
Ba0 Mg2 3.455693 1_555
Ba0 Mg3 3.455693 1_655
Ba0 Mg2 3.455693 1_655
Ba0 Mg3 3.455693 1_555
Ba0 Mg1 3.717598 1_555
Ba0 Mg0 3.717598 1_555
Ba1 Si1 3.368621 1_555
Ba1 Si1 3.368621 1_545
Ba1 Mg11 3.453732 1_655
Ba1 Mg11 3.453732 1_555
Ba1 Mg8 3.455693 1_555
Ba1 Mg8 3.455693 1_655
Ba1 Mg9 3.455693 1_645
Ba1 Mg9 3.455693 1_545
Ba1 Mg6 3.717598 1_545
Ba1 Mg7 3.717598 1_555
Mg0 Si1 2.801251 1_555
Mg0 Mg5 3.084044 1_655
Mg0 Mg5 3.084044 1_555
Mg1 Si1 2.801251 1_555
Mg1 Mg5 3.084044 1_555
Mg1 Mg5 3.084044 1_655
Mg2 Si0 2.916558 1_565
Mg2 Si0 2.916558 1_465
Mg3 Si0 2.916558 1_555
Mg3 Si0 2.916558 1_455
Mg4 Mg5 3.193946 1_555
Mg4 Mg5 3.193946 1_545
Mg5 Mg8 3.244942 1_555
Mg5 Mg9 3.244942 1_555
Mg6 Si0 2.801251 1_566
Mg7 Si0 2.801251 1_556
Mg8 Si1 2.916558 1_555
Mg8 Si1 2.916558 1_455
Mg9 Si1 2.916558 1_555
Mg9 Si1 2.916558 1_455
Mg10 Mg11 3.193946 1_555
Mg10 Mg11 3.193946 1_565
Mg11 Mg6 3.084044 1_545
Mg11 Mg7 3.084044 1_455
Mg11 Mg7 3.084044 1_555
Mg11 Mg6 3.084044 1_445
Mg11 Mg2 3.244942 1_546
Mg11 Mg3 3.244942 1_556
