# generated using pymatgen
data_CdCuPd2
_symmetry_space_group_name_H-M   'P 1'
_cell_length_a   10.81839443
_cell_length_b   10.81839443
_cell_length_c   10.81839443
_cell_angle_alpha   124.60399093
_cell_angle_beta   118.49300259
_cell_angle_gamma   87.42354280
_symmetry_Int_Tables_number   1
_chemical_formula_structural   CdCuPd2
_chemical_formula_sum   'Cd1 Cu1 Pd2'
_cell_volume   870.10725495
_cell_formula_units_Z   1
loop_
 _symmetry_equiv_pos_site_id
 _symmetry_equiv_pos_as_xyz
  1  'x, y, z'
loop_
 _atom_site_type_symbol
 _atom_site_label
 _atom_site_symmetry_multiplicity
 _atom_site_fract_x
 _atom_site_fract_y
 _atom_site_fract_z
 _atom_site_occupancy
  Cd  Cd0  1  0.00000000  0.50000000  0.50000000  1
  Cu  Cu0  1  0.00000000  0.00000000  0.00000000  1
  Pd  Pd0  1  0.00000000  0.23601900  0.23601900  1
  Pd  Pd1  1  0.00000000  0.76398100  0.76398100  1
loop_
_geom_bond_atom_site_label_1
_geom_bond_atom_site_label_2
_geom_bond_distance
_geom_bond_site_symmetry_2
Cd0 Pd1 2.654863 1_555
Cd0 Pd0 2.654863 1_555
Cu0 Pd1 2.373648 1_544
Cu0 Pd0 2.373648 1_555
