# generated using pymatgen
data_Ba3Tb
_symmetry_space_group_name_H-M   'P 1'
_cell_length_a   7.27053775
_cell_length_b   7.27053775
_cell_length_c   7.27053775
_cell_angle_alpha   132.15209103
_cell_angle_beta   132.15209103
_cell_angle_gamma   69.98892146
_symmetry_Int_Tables_number   1
_chemical_formula_structural   Ba3Tb
_chemical_formula_sum   'Ba3 Tb1'
_cell_volume   207.10289776
_cell_formula_units_Z   1
loop_
 _symmetry_equiv_pos_site_id
 _symmetry_equiv_pos_as_xyz
  1  'x, y, z'
loop_
 _atom_site_type_symbol
 _atom_site_label
 _atom_site_symmetry_multiplicity
 _atom_site_fract_x
 _atom_site_fract_y
 _atom_site_fract_z
 _atom_site_occupancy
  Ba  Ba0  1  0.75000000  0.25000000  0.50000000  1
  Ba  Ba1  1  0.25000000  0.75000000  0.50000000  1
  Ba  Ba2  1  0.50000000  0.50000000  0.00000000  1
  Tb  Tb0  1  0.00000000  0.00000000  0.00000000  1
loop_
_geom_bond_atom_site_label_1
_geom_bond_atom_site_label_2
_geom_bond_distance
_geom_bond_site_symmetry_2
Ba0 Ba1 4.169633 1_656
Ba0 Ba1 4.169633 1_555
Ba0 Ba1 4.169633 1_645
Ba0 Ba1 4.169633 1_544
Ba0 Ba2 4.190661 1_556
Ba0 Tb0 4.190661 1_655
Ba0 Tb0 4.190661 1_555
Ba0 Tb0 4.190661 1_656
Ba0 Ba2 4.190661 1_555
Ba0 Ba2 4.190661 1_545
Ba0 Ba2 4.190661 1_656
Ba0 Tb0 4.190661 1_666
Ba1 Ba2 4.190661 1_556
Ba1 Tb0 4.190661 1_565
Ba1 Ba2 4.190661 1_555
Ba1 Tb0 4.190661 1_555
Ba1 Tb0 4.190661 1_566
Ba1 Ba2 4.190661 1_566
Ba1 Tb0 4.190661 1_666
Ba1 Ba2 4.190661 1_455
Ba2 Tb0 4.169633 1_666
Ba2 Tb0 4.169633 1_554
Ba2 Tb0 4.169633 1_655
Ba2 Tb0 4.169633 1_565
