# generated using pymatgen
data_Cu2AsO5
_symmetry_space_group_name_H-M   'P 1'
_cell_length_a   5.74473822
_cell_length_b   8.10273236
_cell_length_c   8.75253898
_cell_angle_alpha   90.00000000
_cell_angle_beta   90.00000000
_cell_angle_gamma   90.00000000
_symmetry_Int_Tables_number   1
_chemical_formula_structural   Cu2AsO5
_chemical_formula_sum   'Cu8 As4 O20'
_cell_volume   407.41385204
_cell_formula_units_Z   4
loop_
 _symmetry_equiv_pos_site_id
 _symmetry_equiv_pos_as_xyz
  1  'x, y, z'
loop_
 _atom_site_type_symbol
 _atom_site_label
 _atom_site_symmetry_multiplicity
 _atom_site_fract_x
 _atom_site_fract_y
 _atom_site_fract_z
 _atom_site_occupancy
  Cu  Cu0  1  0.50000000  0.85167266  0.61027978  1
  Cu  Cu1  1  0.50000000  0.14832734  0.38972022  1
  Cu  Cu2  1  0.00000000  0.64832734  0.11027978  1
  Cu  Cu3  1  0.00000000  0.35167266  0.88972022  1
  Cu  Cu4  1  0.25247852  0.50000000  0.50000000  1
  Cu  Cu5  1  0.24752148  -0.00000000  -0.00000000  1
  Cu  Cu6  1  0.74752148  0.50000000  0.50000000  1
  Cu  Cu7  1  0.75247852  -0.00000000  -0.00000000  1
  As  As0  1  0.50000000  0.76299890  0.24921110  1
  As  As1  1  0.50000000  0.23700110  0.75078890  1
  As  As2  1  0.00000000  0.73700110  0.74921110  1
  As  As3  1  0.00000000  0.26299890  0.25078890  1
  O  O0  1  0.50000000  0.90835736  0.39170977  1
  O  O1  1  0.50000000  0.09164264  0.60829023  1
  O  O2  1  0.00000000  0.59164264  0.89170977  1
  O  O3  1  0.00000000  0.40835736  0.10829023  1
  O  O4  1  0.50000000  0.86420082  0.07466707  1
  O  O5  1  0.50000000  0.13579918  0.92533293  1
  O  O6  1  0.00000000  0.63579918  0.57466707  1
  O  O7  1  0.00000000  0.36420082  0.42533293  1
  O  O8  1  0.50000000  0.62844757  0.56830997  1
  O  O9  1  0.50000000  0.37155243  0.43169003  1
  O  O10  1  0.00000000  0.87155243  0.06830997  1
  O  O11  1  0.00000000  0.12844757  0.93169003  1
  O  O12  1  0.74449263  0.64932555  0.26335598  1
  O  O13  1  0.74449263  0.35067445  0.73664402  1
  O  O14  1  0.75550737  0.85067445  0.76335598  1
  O  O15  1  0.75550737  0.14932555  0.23664402  1
  O  O16  1  0.25550737  0.35067445  0.73664402  1
  O  O17  1  0.25550737  0.64932555  0.26335598  1
  O  O18  1  0.24449263  0.14932555  0.23664402  1
  O  O19  1  0.24449263  0.85067445  0.76335598  1
loop_
_geom_bond_atom_site_label_1
_geom_bond_atom_site_label_2
_geom_bond_distance
_geom_bond_site_symmetry_2
Cu0 O8 1.845659 1_555
Cu0 O1 1.944490 1_565
Cu0 O0 1.967407 1_555
Cu0 O19 1.987372 1_555
Cu0 O14 1.987372 1_555
Cu1 O9 1.845659 1_555
Cu1 O0 1.944490 1_545
Cu1 O1 1.967407 1_555
Cu1 O15 1.987372 1_555
Cu1 O18 1.987372 1_555
Cu2 O10 1.845659 1_555
Cu2 O3 1.944490 1_555
Cu2 O2 1.967407 1_554
Cu2 O17 1.987372 1_555
Cu2 O12 1.987372 1_455
Cu3 O11 1.845659 1_555
Cu3 O2 1.944490 1_555
Cu3 O3 1.967407 1_556
Cu3 O16 1.987372 1_555
Cu3 O13 1.987372 1_455
Cu4 O9 1.860810 1_555
Cu4 O8 1.860810 1_555
Cu4 O6 1.934317 1_555
Cu4 O7 1.934317 1_555
Cu4 O16 2.398810 1_555
Cu4 O17 2.398810 1_555
Cu5 O10 1.860810 1_545
Cu5 O11 1.860810 1_554
Cu5 O5 1.934317 1_554
Cu5 O4 1.934317 1_545
Cu5 O19 2.398810 1_544
Cu5 O18 2.398810 1_555
Cu6 O9 1.860810 1_555
Cu6 O8 1.860810 1_555
Cu6 O7 1.934317 1_655
Cu6 O6 1.934317 1_655
Cu6 O12 2.398810 1_555
Cu6 O13 2.398810 1_555
Cu7 O10 1.860810 1_645
Cu7 O11 1.860810 1_654
Cu7 O5 1.934317 1_554
Cu7 O4 1.934317 1_545
Cu7 O14 2.398810 1_544
Cu7 O15 2.398810 1_555
As0 O12 1.684173 1_555
As0 O17 1.684173 1_555
As0 O0 1.715455 1_555
As0 O4 1.733868 1_555
As1 O16 1.684173 1_555
As1 O13 1.684173 1_555
As1 O1 1.715455 1_555
As1 O5 1.733868 1_555
As2 O19 1.684173 1_555
As2 O14 1.684173 1_455
As2 O2 1.715455 1_555
As2 O6 1.733868 1_555
As3 O15 1.684173 1_455
As3 O18 1.684173 1_555
As3 O3 1.715455 1_555
As3 O7 1.733868 1_555
