# generated using pymatgen
data_BaTl(CoO3)2
_symmetry_space_group_name_H-M   'P 1'
_cell_length_a   23.40037709
_cell_length_b   23.40037709
_cell_length_c   23.40037709
_cell_angle_alpha   171.01032737
_cell_angle_beta   171.01032737
_cell_angle_gamma   12.72642597
_symmetry_Int_Tables_number   1
_chemical_formula_structural   BaTl(CoO3)2
_chemical_formula_sum   'Ba2 Tl2 Co4 O12'
_cell_volume   312.84995615
_cell_formula_units_Z   2
loop_
 _symmetry_equiv_pos_site_id
 _symmetry_equiv_pos_as_xyz
  1  'x, y, z'
loop_
 _atom_site_type_symbol
 _atom_site_label
 _atom_site_symmetry_multiplicity
 _atom_site_fract_x
 _atom_site_fract_y
 _atom_site_fract_z
 _atom_site_occupancy
  Ba  Ba0  1  0.40675700  0.90675700  0.50000000  1
  Ba  Ba1  1  0.09324300  0.59324300  0.50000000  1
  Tl  Tl0  1  0.97361900  0.47361900  0.50000000  1
  Tl  Tl1  1  0.52638100  0.02638100  0.50000000  1
  Co  Co0  1  0.78831900  0.28831900  0.50000000  1
  Co  Co1  1  0.64177200  0.14177200  0.50000000  1
  Co  Co2  1  0.85822800  0.35822800  0.50000000  1
  Co  Co3  1  0.71168100  0.21168100  0.50000000  1
  O  O0  1  0.63412000  0.63412000  0.00000000  1
  O  O1  1  0.78803400  0.78803400  0.00000000  1
  O  O2  1  0.48046600  0.98046600  0.50000000  1
  O  O3  1  0.21196600  0.21196600  0.00000000  1
  O  O4  1  0.01953400  0.51953400  0.50000000  1
  O  O5  1  0.36588000  0.36588000  0.00000000  1
  O  O6  1  0.86169100  0.86169100  0.00000000  1
  O  O7  1  0.57074000  0.07074000  0.50000000  1
  O  O8  1  0.13830900  0.13830900  0.00000000  1
  O  O9  1  0.28793600  0.28793600  0.00000000  1
  O  O10  1  0.71206400  0.71206400  0.00000000  1
  O  O11  1  0.92926000  0.42926000  0.50000000  1
loop_
_geom_bond_atom_site_label_1
_geom_bond_atom_site_label_2
_geom_bond_distance
_geom_bond_site_symmetry_2
Ba0 O5 2.641586 1_555
Ba0 O5 2.641586 1_566
Ba0 O6 2.785110 1_556
Ba0 O6 2.785110 1_455
Ba0 O11 2.796726 1_555
Ba0 O11 2.796726 1_566
Ba0 O11 2.796726 1_454
Ba0 O11 2.796726 1_465
Ba1 O0 2.641586 1_455
Ba1 O0 2.641586 1_556
Ba1 O8 2.785110 1_566
Ba1 O8 2.785110 1_555
Ba1 O7 2.796726 1_465
Ba1 O7 2.796726 1_454
Ba1 O7 2.796726 1_566
Ba1 O7 2.796726 1_555
Co0 O1 1.833918 1_556
Co0 O1 1.833918 1_545
Co0 O9 1.833957 1_555
Co0 O9 1.833957 1_656
Co1 O8 1.840930 1_656
Co1 O8 1.840930 1_555
Co1 O0 1.868088 1_545
Co1 O0 1.868088 1_556
Co2 O6 1.840930 1_556
Co2 O6 1.840930 1_545
Co2 O5 1.868088 1_656
Co2 O5 1.868088 1_555
Co3 O3 1.833918 1_656
Co3 O3 1.833918 1_555
Co3 O10 1.833957 1_545
Co3 O10 1.833957 1_556
O2 Tl1 2.135618 1_565
O2 Tl0 2.612964 1_465
O2 Tl0 2.612964 1_566
O2 Tl0 2.612964 1_454
O2 Tl0 2.612964 1_555
O4 Tl0 2.135618 1_455
O4 Tl1 2.612964 1_555
O4 Tl1 2.612964 1_454
O4 Tl1 2.612964 1_566
O4 Tl1 2.612964 1_465
O7 Tl1 2.063245 1_555
O11 Tl0 2.063245 1_555
