# generated using pymatgen
data_Ba2RuN3
_symmetry_space_group_name_H-M   'P 1'
_cell_length_a   6.67778013
_cell_length_b   11.93305224
_cell_length_c   13.13720248
_cell_angle_alpha   90.00000182
_cell_angle_beta   90.00327213
_cell_angle_gamma   153.31506293
_symmetry_Int_Tables_number   1
_chemical_formula_structural   Ba2RuN3
_chemical_formula_sum   'Ba8 Ru4 N12'
_cell_volume   470.12597143
_cell_formula_units_Z   4
loop_
 _symmetry_equiv_pos_site_id
 _symmetry_equiv_pos_as_xyz
  1  'x, y, z'
loop_
 _atom_site_type_symbol
 _atom_site_label
 _atom_site_symmetry_multiplicity
 _atom_site_fract_x
 _atom_site_fract_y
 _atom_site_fract_z
 _atom_site_occupancy
  Ba  Ba0  1  0.49983000  0.06365600  0.86294600  1
  Ba  Ba1  1  0.50017000  0.56382600  0.63705400  1
  Ba  Ba2  1  0.50017000  0.93634400  0.13705300  1
  Ba  Ba3  1  0.49983000  0.43617400  0.36294700  1
  Ba  Ba4  1  0.50012600  0.86061600  0.58064200  1
  Ba  Ba5  1  0.49987400  0.36049100  0.91935800  1
  Ba  Ba6  1  0.49987400  0.13938400  0.41935800  1
  Ba  Ba7  1  0.50012600  0.63950900  0.08064200  1
  Ru  Ru0  1  0.50006300  0.23883400  0.66459600  1
  Ru  Ru1  1  0.49993700  0.73877000  0.83540400  1
  Ru  Ru2  1  0.49993700  0.76116600  0.33540400  1
  Ru  Ru3  1  0.50006300  0.26123000  0.16459600  1
  N  N0  1  0.00000000  0.51104400  0.75000000  1
  N  N1  1  0.00000000  0.48895600  0.25000000  1
  N  N2  1  0.50041100  0.08355700  0.62928200  1
  N  N3  1  0.49958900  0.58314600  0.87071800  1
  N  N4  1  0.49958900  0.91644300  0.37071800  1
  N  N5  1  0.50041100  0.41685400  0.12928200  1
  N  N6  1  0.49979800  0.16168200  0.05200200  1
  N  N7  1  0.50020200  0.66188400  0.44799800  1
  N  N8  1  0.50020200  0.83831800  0.94799800  1
  N  N9  1  0.49979800  0.33811600  0.55200200  1
  N  N10  1  0.00000000  0.01082800  0.75000000  1
  N  N11  1  0.00000000  0.98917200  0.25000000  1
loop_
_geom_bond_atom_site_label_1
_geom_bond_atom_site_label_2
_geom_bond_distance
_geom_bond_site_symmetry_2
Ba0 N6 2.745426 1_556
Ba0 N8 2.913926 1_545
Ba0 N3 3.009001 1_655
Ba0 N3 3.010467 1_445
Ba0 N2 3.078599 1_555
Ba0 N10 3.158968 1_555
Ba0 N0 3.161550 1_655
Ba1 N7 2.745426 1_555
Ba1 N9 2.913926 1_555
Ba1 N2 3.009001 1_455
Ba1 N2 3.010467 1_665
Ba1 N3 3.078599 1_555
Ba1 N10 3.158967 1_665
Ba1 N0 3.161550 1_555
Ba2 N8 2.745414 1_554
Ba2 N6 2.913921 1_565
Ba2 N5 3.009000 1_455
Ba2 N5 3.010467 1_665
Ba2 N4 3.078612 1_555
Ba2 N11 3.158974 1_655
Ba2 N1 3.161556 1_555
Ba3 N9 2.745414 1_555
Ba3 N7 2.913921 1_555
Ba3 N4 3.009000 1_655
Ba3 N4 3.010467 1_445
Ba3 N5 3.078612 1_555
Ba3 N11 3.158973 1_545
Ba3 N1 3.161556 1_655
Ba4 N2 2.734377 1_565
Ba4 N4 2.837891 1_555
Ba4 N0 2.934361 1_555
Ba4 N10 2.934730 1_665
Ba4 N7 2.943233 1_555
Ba4 N9 3.033200 1_665
Ba4 N9 3.035050 1_455
Ba5 N3 2.734366 1_555
Ba5 N5 2.837888 1_556
Ba5 N0 2.934366 1_655
Ba5 N10 2.934735 1_555
Ba5 N6 2.943242 1_556
Ba5 N8 3.033201 1_445
Ba5 N8 3.035051 1_655
Ba6 N4 2.734377 1_545
Ba6 N2 2.837891 1_555
Ba6 N1 2.934361 1_655
Ba6 N11 2.934730 1_545
Ba6 N9 2.943233 1_555
Ba6 N7 3.033200 1_445
Ba6 N7 3.035050 1_655
Ba7 N5 2.734366 1_555
Ba7 N3 2.837888 1_554
Ba7 N1 2.934366 1_555
Ba7 N11 2.934735 1_655
Ba7 N8 2.943242 1_554
Ba7 N6 3.033201 1_665
Ba7 N6 3.035051 1_455
N0 Ru0 1.891188 1_455
N0 Ru1 1.891189 1_555
N1 Ru2 1.891188 1_555
N1 Ru3 1.891189 1_455
N2 Ru0 1.912138 1_555
N3 Ru1 1.912127 1_555
N4 Ru2 1.912138 1_555
N5 Ru3 1.912127 1_555
N6 Ru3 1.896134 1_555
N7 Ru2 1.896127 1_555
N8 Ru1 1.896134 1_555
N9 Ru0 1.896127 1_555
N10 Ru0 1.891354 1_555
N10 Ru1 1.891355 1_445
N11 Ru2 1.891354 1_455
N11 Ru3 1.891355 1_565
