# generated using pymatgen
data_Ca2Al2(SiO4)3
_symmetry_space_group_name_H-M   'P 1'
_cell_length_a   4.70477000
_cell_length_b   5.51656900
_cell_length_c   19.38931846
_cell_angle_alpha   74.59062415
_cell_angle_beta   90.00000000
_cell_angle_gamma   90.00000000
_symmetry_Int_Tables_number   1
_chemical_formula_structural   Ca2Al2(SiO4)3
_chemical_formula_sum   'Ca4 Al4 Si6 O24'
_cell_volume   485.14373414
_cell_formula_units_Z   2
loop_
 _symmetry_equiv_pos_site_id
 _symmetry_equiv_pos_as_xyz
  1  'x, y, z'
loop_
 _atom_site_type_symbol
 _atom_site_label
 _atom_site_symmetry_multiplicity
 _atom_site_fract_x
 _atom_site_fract_y
 _atom_site_fract_z
 _atom_site_occupancy
  Ca  Ca0  1  0.00934700  0.40447100  0.60091300  1
  Ca  Ca1  1  0.00934700  0.59552900  0.89908700  1
  Ca  Ca2  1  0.99065300  0.59552900  0.39908700  1
  Ca  Ca3  1  0.99065300  0.40447100  0.10091300  1
  Al  Al0  1  0.00000000  0.00000000  0.50000000  1
  Al  Al1  1  0.00000000  0.00000000  0.00000000  1
  Al  Al2  1  0.19421000  0.50000000  0.75000000  1
  Al  Al3  1  0.80579000  0.50000000  0.25000000  1
  Si  Si0  1  0.49860600  0.87427100  0.61916900  1
  Si  Si1  1  0.49860600  0.12572900  0.88083100  1
  Si  Si2  1  0.50139400  0.12572900  0.38083100  1
  Si  Si3  1  0.50139400  0.87427100  0.11916900  1
  Si  Si4  1  0.80823200  0.00000000  0.75000000  1
  Si  Si5  1  0.19176800  0.00000000  0.25000000  1
  O  O0  1  0.62235300  0.02952600  0.67661800  1
  O  O1  1  0.36214300  0.60754100  0.66688300  1
  O  O2  1  0.62235300  0.97047400  0.82338200  1
  O  O3  1  0.36214300  0.39245900  0.83311700  1
  O  O4  1  0.37764700  0.97047400  0.32338200  1
  O  O5  1  0.63785700  0.39245900  0.33311700  1
  O  O6  1  0.37764700  0.02952600  0.17661800  1
  O  O7  1  0.63785700  0.60754100  0.16688300  1
  O  O8  1  0.82592300  0.30862100  0.50088700  1
  O  O9  1  0.17407700  0.69137900  0.49911300  1
  O  O10  1  0.82592300  0.69137900  0.99911300  1
  O  O11  1  0.17407700  0.30862100  0.00088700  1
  O  O12  1  0.99375500  0.25708500  0.73061000  1
  O  O13  1  0.99375500  0.74291500  0.76939000  1
  O  O14  1  0.00624500  0.74291500  0.26939000  1
  O  O15  1  0.00624500  0.25708500  0.23061000  1
  O  O16  1  0.25579800  0.05853600  0.57342100  1
  O  O17  1  0.76473000  0.80382600  0.57481600  1
  O  O18  1  0.25579800  0.94146400  0.92657900  1
  O  O19  1  0.76473000  0.19617400  0.92518400  1
  O  O20  1  0.74420200  0.94146400  0.42657900  1
  O  O21  1  0.23527000  0.19617400  0.42518400  1
  O  O22  1  0.74420200  0.05853600  0.07342100  1
  O  O23  1  0.23527000  0.80382600  0.07481600  1
loop_
_geom_bond_atom_site_label_1
_geom_bond_atom_site_label_2
_geom_bond_distance
_geom_bond_site_symmetry_2
Ca0 O8 2.308830 1_455
Ca0 O9 2.311176 1_555
Ca0 O16 2.410615 1_555
Ca0 O17 2.416947 1_455
Ca0 O12 2.429768 1_455
Ca0 O1 2.531324 1_555
Ca0 O0 2.852100 1_455
Ca1 O10 2.308830 1_455
Ca1 O11 2.311176 1_556
Ca1 O18 2.410615 1_555
Ca1 O19 2.416947 1_455
Ca1 O13 2.429768 1_455
Ca1 O3 2.531324 1_555
Ca1 O2 2.852100 1_455
Ca2 O9 2.308830 1_655
Ca2 O8 2.311176 1_555
Ca2 O20 2.410615 1_555
Ca2 O21 2.416947 1_655
Ca2 O14 2.429768 1_655
Ca2 O5 2.531324 1_555
Ca2 O4 2.852100 1_655
Ca3 O11 2.308830 1_655
Ca3 O10 2.311176 1_554
Ca3 O22 2.410615 1_555
Ca3 O23 2.416947 1_655
Ca3 O15 2.429768 1_655
Ca3 O7 2.531324 1_555
Ca3 O6 2.852100 1_655
Al0 O9 1.893465 1_545
Al0 O8 1.893465 1_455
Al0 O21 1.914793 1_555
Al0 O17 1.914793 1_445
Al0 O16 1.955378 1_555
Al0 O20 1.955378 1_445
Al1 O11 1.893465 1_555
Al1 O10 1.893465 1_444
Al1 O19 1.914793 1_454
Al1 O23 1.914793 1_545
Al1 O22 1.955378 1_455
Al1 O18 1.955378 1_544
Al2 O3 1.750799 1_555
Al2 O1 1.750799 1_555
Al2 O12 1.759052 1_455
Al2 O13 1.759052 1_455
Al3 O5 1.750799 1_555
Al3 O7 1.750799 1_555
Al3 O15 1.759052 1_655
Al3 O14 1.759052 1_655
O0 Si4 1.640911 1_555
O0 Si0 1.679366 1_545
O1 Si0 1.646141 1_555
O2 Si4 1.640911 1_565
O2 Si1 1.679366 1_565
O3 Si1 1.646141 1_555
O4 Si5 1.640911 1_565
O4 Si2 1.679366 1_565
O5 Si2 1.646141 1_555
O6 Si5 1.640911 1_555
O6 Si3 1.679366 1_545
O7 Si3 1.646141 1_555
O12 Si4 1.622102 1_555
O13 Si4 1.622102 1_565
O14 Si5 1.622102 1_565
O15 Si5 1.622102 1_555
O16 Si0 1.626625 1_545
O17 Si0 1.623519 1_555
O18 Si1 1.626625 1_565
O19 Si1 1.623519 1_555
O20 Si2 1.626625 1_565
O21 Si2 1.623519 1_555
O22 Si3 1.626625 1_545
O23 Si3 1.623519 1_555
