# generated using pymatgen
data_Mg2In
_symmetry_space_group_name_H-M   'P 1'
_cell_length_a   16.21393090
_cell_length_b   16.21393090
_cell_length_c   10.00318436
_cell_angle_alpha   90.00000000
_cell_angle_beta   90.00000000
_cell_angle_gamma   155.81935592
_symmetry_Int_Tables_number   1
_chemical_formula_structural   Mg2In
_chemical_formula_sum   'Mg32 In16'
_cell_volume   1077.18581817
_cell_formula_units_Z   16
loop_
 _symmetry_equiv_pos_site_id
 _symmetry_equiv_pos_as_xyz
  1  'x, y, z'
loop_
 _atom_site_type_symbol
 _atom_site_label
 _atom_site_symmetry_multiplicity
 _atom_site_fract_x
 _atom_site_fract_y
 _atom_site_fract_z
 _atom_site_occupancy
  Mg  Mg0_0  1  0.38678206  0.11321794  0.37500000  1
  Mg  Mg0_1  1  0.38678206  0.11321794  0.87500000  1
  Mg  Mg0_2  1  0.38678206  0.61321795  0.37500000  1
  Mg  Mg0_3  1  0.38678206  0.61321795  0.87500000  1
  Mg  Mg0_4  1  0.88678205  0.11321795  0.37500000  1
  Mg  Mg0_5  1  0.88678205  0.11321795  0.87500000  1
  Mg  Mg0_6  1  0.88678205  0.61321795  0.37500000  1
  Mg  Mg0_7  1  0.88678205  0.61321795  0.87500000  1
  Mg  Mg1_0  1  0.22045904  0.27954096  0.37500000  1
  Mg  Mg1_1  1  0.22045904  0.27954096  0.87500000  1
  Mg  Mg1_2  1  0.22045904  0.77954096  0.37500000  1
  Mg  Mg1_3  1  0.22045904  0.77954096  0.87500000  1
  Mg  Mg1_4  1  0.72045904  0.27954096  0.37500000  1
  Mg  Mg1_5  1  0.72045904  0.27954096  0.87500000  1
  Mg  Mg1_6  1  0.72045904  0.77954096  0.37500000  1
  Mg  Mg1_7  1  0.72045904  0.77954096  0.87500000  1
  Mg  Mg2_0  1  0.11321794  0.38678206  0.12500000  1
  Mg  Mg2_1  1  0.11321794  0.38678206  0.62500000  1
  Mg  Mg2_2  1  0.11321795  0.88678205  0.12500000  1
  Mg  Mg2_3  1  0.11321795  0.88678205  0.62500000  1
  Mg  Mg2_4  1  0.61321795  0.38678206  0.12500000  1
  Mg  Mg2_5  1  0.61321795  0.38678206  0.62500000  1
  Mg  Mg2_6  1  0.61321795  0.88678205  0.12500000  1
  Mg  Mg2_7  1  0.61321795  0.88678205  0.62500000  1
  Mg  Mg3_0  1  0.27954096  0.22045904  0.12500000  1
  Mg  Mg3_1  1  0.27954096  0.22045904  0.62500000  1
  Mg  Mg3_2  1  0.27954096  0.72045904  0.12500000  1
  Mg  Mg3_3  1  0.27954096  0.72045904  0.62500000  1
  Mg  Mg3_4  1  0.77954096  0.22045904  0.12500000  1
  Mg  Mg3_5  1  0.77954096  0.22045904  0.62500000  1
  Mg  Mg3_6  1  0.77954096  0.72045904  0.12500000  1
  Mg  Mg3_7  1  0.77954096  0.72045904  0.62500000  1
  In  In0_0  1  0.05526319  0.44473681  0.37500000  1
  In  In0_1  1  0.05526319  0.44473681  0.87500000  1
  In  In0_2  1  0.05526319  0.94473681  0.37500000  1
  In  In0_3  1  0.05526319  0.94473681  0.87500000  1
  In  In0_4  1  0.55526319  0.44473681  0.37500000  1
  In  In0_5  1  0.55526319  0.44473681  0.87500000  1
  In  In0_6  1  0.55526319  0.94473681  0.37500000  1
  In  In0_7  1  0.55526319  0.94473681  0.87500000  1
  In  In1_0  1  0.44473681  0.05526319  0.12500000  1
  In  In1_1  1  0.44473681  0.05526319  0.62500000  1
  In  In1_2  1  0.44473681  0.55526319  0.12500000  1
  In  In1_3  1  0.44473681  0.55526319  0.62500000  1
  In  In1_4  1  0.94473681  0.05526319  0.12500000  1
  In  In1_5  1  0.94473681  0.05526319  0.62500000  1
  In  In1_6  1  0.94473681  0.55526319  0.12500000  1
  In  In1_7  1  0.94473681  0.55526319  0.62500000  1
loop_
_geom_bond_atom_site_label_1
_geom_bond_atom_site_label_2
_geom_bond_distance
_geom_bond_site_symmetry_2
Mg0_0 Mg2_4 3.113772 1_555
Mg0_0 Mg2_5 3.113772 1_555
Mg0_0 Mg2_2 3.113772 1_545
Mg0_0 Mg2_3 3.113772 1_545
Mg0_0 Mg1_2 3.150110 1_545
Mg0_0 Mg1_4 3.150110 1_555
Mg0_0 Mg0_6 3.396063 1_445
Mg0_0 Mg0_6 3.396063 1_555
Mg0_1 Mg2_2 3.113772 1_546
Mg0_1 Mg2_4 3.113772 1_556
Mg0_1 Mg2_3 3.113772 1_545
Mg0_1 Mg2_5 3.113772 1_555
Mg0_1 Mg1_5 3.150110 1_555
Mg0_1 Mg1_3 3.150110 1_545
Mg0_1 Mg0_7 3.396063 1_445
Mg0_1 Mg0_7 3.396063 1_555
Mg0_2 Mg2_6 3.113772 1_555
Mg0_2 Mg2_7 3.113772 1_555
Mg0_2 Mg2_1 3.113772 1_555
Mg0_2 Mg2_0 3.113772 1_555
Mg0_2 Mg1_6 3.150110 1_555
Mg0_2 Mg1_0 3.150110 1_555
Mg0_2 Mg0_4 3.396063 1_565
Mg0_2 Mg0_4 3.396063 1_455
Mg0_3 Mg2_6 3.113772 1_556
Mg0_3 Mg2_0 3.113772 1_556
Mg0_3 Mg2_7 3.113772 1_555
Mg0_3 Mg2_1 3.113772 1_555
Mg0_3 Mg1_7 3.150110 1_555
Mg0_3 Mg1_1 3.150110 1_555
Mg0_3 Mg0_5 3.396063 1_565
Mg0_3 Mg0_5 3.396063 1_455
Mg0_4 Mg2_6 3.113772 1_545
Mg0_4 Mg2_7 3.113772 1_545
Mg0_4 Mg2_0 3.113772 1_655
Mg0_4 Mg2_1 3.113772 1_655
Mg0_4 Mg1_6 3.150110 1_545
Mg0_4 Mg1_0 3.150110 1_655
Mg0_5 Mg2_6 3.113772 1_546
Mg0_5 Mg2_0 3.113772 1_656
Mg0_5 Mg2_7 3.113772 1_545
Mg0_5 Mg2_1 3.113772 1_655
Mg0_5 Mg1_7 3.150110 1_545
Mg0_5 Mg1_1 3.150110 1_655
Mg0_6 Mg2_5 3.113772 1_555
Mg0_6 Mg2_2 3.113772 1_655
Mg0_6 Mg2_3 3.113772 1_655
Mg0_6 Mg2_4 3.113772 1_555
Mg0_6 Mg1_2 3.150110 1_655
Mg0_6 Mg1_4 3.150110 1_555
Mg0_7 Mg2_4 3.113772 1_556
Mg0_7 Mg2_2 3.113772 1_656
Mg0_7 Mg2_5 3.113772 1_555
Mg0_7 Mg2_3 3.113772 1_655
Mg0_7 Mg1_3 3.150110 1_655
Mg0_7 Mg1_5 3.150110 1_555
Mg1_0 Mg3_0 3.124679 1_555
Mg1_0 Mg3_1 3.124679 1_555
Mg1_0 Mg1_6 3.396063 1_555
Mg1_0 Mg1_6 3.396063 1_445
Mg1_1 Mg3_0 3.124679 1_556
Mg1_1 Mg3_1 3.124679 1_555
Mg1_1 Mg1_7 3.396063 1_445
Mg1_1 Mg1_7 3.396063 1_555
Mg1_2 Mg3_3 3.124679 1_555
Mg1_2 Mg3_2 3.124679 1_555
Mg1_2 Mg1_4 3.396063 1_455
Mg1_2 Mg1_4 3.396063 1_565
Mg1_3 Mg3_2 3.124679 1_556
Mg1_3 Mg3_3 3.124679 1_555
Mg1_3 Mg1_5 3.396063 1_455
Mg1_3 Mg1_5 3.396063 1_565
Mg1_4 Mg3_4 3.124679 1_555
Mg1_4 Mg3_5 3.124679 1_555
Mg1_5 Mg3_4 3.124679 1_556
Mg1_5 Mg3_5 3.124679 1_555
Mg1_6 Mg3_6 3.124679 1_555
Mg1_6 Mg3_7 3.124679 1_555
Mg1_7 Mg3_6 3.124679 1_556
Mg1_7 Mg3_7 3.124679 1_555
Mg2_0 Mg3_4 3.150110 1_455
Mg2_0 Mg3_2 3.150110 1_555
Mg2_0 Mg2_6 3.396063 1_445
Mg2_0 Mg2_6 3.396063 1_555
Mg2_1 Mg3_3 3.150110 1_555
Mg2_1 Mg3_5 3.150110 1_455
Mg2_1 Mg2_7 3.396063 1_555
Mg2_1 Mg2_7 3.396063 1_445
Mg2_2 Mg3_0 3.150110 1_565
Mg2_2 Mg3_6 3.150110 1_455
Mg2_2 Mg2_4 3.396063 1_455
Mg2_2 Mg2_4 3.396063 1_565
Mg2_3 Mg3_1 3.150110 1_565
Mg2_3 Mg3_7 3.150110 1_455
Mg2_3 Mg2_5 3.396063 1_455
Mg2_3 Mg2_5 3.396063 1_565
Mg2_4 Mg3_0 3.150110 1_555
Mg2_4 Mg3_6 3.150110 1_555
Mg2_5 Mg3_1 3.150110 1_555
Mg2_5 Mg3_7 3.150110 1_555
Mg2_6 Mg3_4 3.150110 1_565
Mg2_6 Mg3_2 3.150110 1_555
Mg2_7 Mg3_5 3.150110 1_565
Mg2_7 Mg3_3 3.150110 1_555
Mg3_0 Mg3_6 3.396063 1_555
Mg3_0 Mg3_6 3.396063 1_445
Mg3_1 Mg3_7 3.396063 1_445
Mg3_1 Mg3_7 3.396063 1_555
Mg3_2 Mg3_4 3.396063 1_565
Mg3_2 Mg3_4 3.396063 1_455
Mg3_3 Mg3_5 3.396063 1_565
Mg3_3 Mg3_5 3.396063 1_455
In0_0 Mg0_4 3.092692 1_455
In0_0 Mg0_2 3.092692 1_555
In0_0 Mg2_0 3.103383 1_555
In0_0 Mg2_1 3.103383 1_555
In0_0 Mg3_3 3.130898 1_555
In0_0 Mg3_4 3.130898 1_455
In0_0 Mg3_2 3.130898 1_555
In0_0 Mg3_5 3.130898 1_455
In0_0 Mg1_2 3.180272 1_555
In0_0 Mg1_4 3.180272 1_455
In0_0 In0_6 3.396063 1_555
In0_0 In0_6 3.396063 1_445
In0_1 Mg0_5 3.092692 1_455
In0_1 Mg0_3 3.092692 1_555
In0_1 Mg2_0 3.103383 1_556
In0_1 Mg2_1 3.103383 1_555
In0_1 Mg3_2 3.130898 1_556
In0_1 Mg3_4 3.130898 1_456
In0_1 Mg3_3 3.130898 1_555
In0_1 Mg3_5 3.130898 1_455
In0_1 Mg1_3 3.180272 1_555
In0_1 Mg1_5 3.180272 1_455
In0_1 In0_7 3.396063 1_445
In0_1 In0_7 3.396063 1_555
In0_2 Mg0_6 3.092692 1_455
In0_2 Mg0_0 3.092692 1_565
In0_2 Mg2_2 3.103383 1_555
In0_2 Mg2_3 3.103383 1_555
In0_2 Mg3_0 3.130898 1_565
In0_2 Mg3_1 3.130898 1_565
In0_2 Mg3_7 3.130898 1_455
In0_2 Mg3_6 3.130898 1_455
In0_2 Mg1_0 3.180272 1_565
In0_2 Mg1_6 3.180272 1_455
In0_2 In0_4 3.396063 1_565
In0_2 In0_4 3.396063 1_455
In0_3 Mg0_7 3.092692 1_455
In0_3 Mg0_1 3.092692 1_565
In0_3 Mg2_2 3.103383 1_556
In0_3 Mg2_3 3.103383 1_555
In0_3 Mg3_0 3.130898 1_566
In0_3 Mg3_6 3.130898 1_456
In0_3 Mg3_1 3.130898 1_565
In0_3 Mg3_7 3.130898 1_455
In0_3 Mg1_1 3.180272 1_565
In0_3 Mg1_7 3.180272 1_455
In0_3 In0_5 3.396063 1_565
In0_3 In0_5 3.396063 1_455
In0_4 Mg0_6 3.092692 1_555
In0_4 Mg0_0 3.092692 1_555
In0_4 Mg2_5 3.103383 1_555
In0_4 Mg2_4 3.103383 1_555
In0_4 Mg3_0 3.130898 1_555
In0_4 Mg3_1 3.130898 1_555
In0_4 Mg3_7 3.130898 1_555
In0_4 Mg3_6 3.130898 1_555
In0_4 Mg1_0 3.180272 1_555
In0_4 Mg1_6 3.180272 1_555
In0_5 Mg0_7 3.092692 1_555
In0_5 Mg0_1 3.092692 1_555
In0_5 Mg2_4 3.103383 1_556
In0_5 Mg2_5 3.103383 1_555
In0_5 Mg3_0 3.130898 1_556
In0_5 Mg3_6 3.130898 1_556
In0_5 Mg3_1 3.130898 1_555
In0_5 Mg3_7 3.130898 1_555
In0_5 Mg1_1 3.180272 1_555
In0_5 Mg1_7 3.180272 1_555
In0_6 Mg0_2 3.092692 1_555
In0_6 Mg0_4 3.092692 1_565
In0_6 Mg2_6 3.103383 1_555
In0_6 Mg2_7 3.103383 1_555
In0_6 Mg3_4 3.130898 1_565
In0_6 Mg3_5 3.130898 1_565
In0_6 Mg3_3 3.130898 1_555
In0_6 Mg3_2 3.130898 1_555
In0_6 Mg1_2 3.180272 1_555
In0_6 Mg1_4 3.180272 1_565
In0_7 Mg0_3 3.092692 1_555
In0_7 Mg0_5 3.092692 1_565
In0_7 Mg2_6 3.103383 1_556
In0_7 Mg2_7 3.103383 1_555
In0_7 Mg3_4 3.130898 1_566
In0_7 Mg3_2 3.130898 1_556
In0_7 Mg3_5 3.130898 1_565
In0_7 Mg3_3 3.130898 1_555
In0_7 Mg1_3 3.180272 1_555
In0_7 Mg1_5 3.180272 1_565
In1_0 Mg2_2 3.092692 1_545
In1_0 Mg2_4 3.092692 1_555
In1_0 Mg0_1 3.103383 1_554
In1_0 Mg0_0 3.103383 1_555
In1_0 Mg1_3 3.130898 1_544
In1_0 Mg1_5 3.130898 1_554
In1_0 Mg1_2 3.130898 1_545
In1_0 Mg1_4 3.130898 1_555
In1_0 Mg3_2 3.180272 1_545
In1_0 Mg3_4 3.180272 1_555
In1_0 In1_6 3.396063 1_555
In1_0 In1_6 3.396063 1_445
In1_1 Mg2_3 3.092692 1_545
In1_1 Mg2_5 3.092692 1_555
In1_1 Mg0_0 3.103383 1_555
In1_1 Mg0_1 3.103383 1_555
In1_1 Mg1_2 3.130898 1_545
In1_1 Mg1_4 3.130898 1_555
In1_1 Mg1_5 3.130898 1_555
In1_1 Mg1_3 3.130898 1_545
In1_1 Mg3_3 3.180272 1_545
In1_1 Mg3_5 3.180272 1_555
In1_1 In1_7 3.396063 1_445
In1_1 In1_7 3.396063 1_555
In1_2 Mg2_6 3.092692 1_555
In1_2 Mg2_0 3.092692 1_555
In1_2 Mg0_3 3.103383 1_554
In1_2 Mg0_2 3.103383 1_555
In1_2 Mg1_7 3.130898 1_554
In1_2 Mg1_1 3.130898 1_554
In1_2 Mg1_0 3.130898 1_555
In1_2 Mg1_6 3.130898 1_555
In1_2 Mg3_6 3.180272 1_555
In1_2 Mg3_0 3.180272 1_555
In1_2 In1_4 3.396063 1_565
In1_2 In1_4 3.396063 1_455
In1_3 Mg2_7 3.092692 1_555
In1_3 Mg2_1 3.092692 1_555
In1_3 Mg0_2 3.103383 1_555
In1_3 Mg0_3 3.103383 1_555
In1_3 Mg1_0 3.130898 1_555
In1_3 Mg1_6 3.130898 1_555
In1_3 Mg1_7 3.130898 1_555
In1_3 Mg1_1 3.130898 1_555
In1_3 Mg3_7 3.180272 1_555
In1_3 Mg3_1 3.180272 1_555
In1_3 In1_5 3.396063 1_565
In1_3 In1_5 3.396063 1_455
In1_4 Mg2_6 3.092692 1_545
In1_4 Mg2_0 3.092692 1_655
In1_4 Mg0_5 3.103383 1_554
In1_4 Mg0_4 3.103383 1_555
In1_4 Mg1_7 3.130898 1_544
In1_4 Mg1_1 3.130898 1_654
In1_4 Mg1_6 3.130898 1_545
In1_4 Mg1_0 3.130898 1_655
In1_4 Mg3_6 3.180272 1_545
In1_4 Mg3_0 3.180272 1_655
In1_5 Mg2_7 3.092692 1_545
In1_5 Mg2_1 3.092692 1_655
In1_5 Mg0_4 3.103383 1_555
In1_5 Mg0_5 3.103383 1_555
In1_5 Mg1_6 3.130898 1_545
In1_5 Mg1_0 3.130898 1_655
In1_5 Mg1_7 3.130898 1_545
In1_5 Mg1_1 3.130898 1_655
In1_5 Mg3_7 3.180272 1_545
In1_5 Mg3_1 3.180272 1_655
In1_6 Mg2_4 3.092692 1_555
In1_6 Mg2_2 3.092692 1_655
In1_6 Mg0_7 3.103383 1_554
In1_6 Mg0_6 3.103383 1_555
In1_6 Mg1_3 3.130898 1_654
In1_6 Mg1_5 3.130898 1_554
In1_6 Mg1_2 3.130898 1_655
In1_6 Mg1_4 3.130898 1_555
In1_6 Mg3_2 3.180272 1_655
In1_6 Mg3_4 3.180272 1_555
In1_7 Mg2_5 3.092692 1_555
In1_7 Mg2_3 3.092692 1_655
In1_7 Mg0_6 3.103383 1_555
In1_7 Mg0_7 3.103383 1_555
In1_7 Mg1_2 3.130898 1_655
In1_7 Mg1_4 3.130898 1_555
In1_7 Mg1_3 3.130898 1_655
In1_7 Mg1_5 3.130898 1_555
In1_7 Mg3_3 3.180272 1_655
In1_7 Mg3_5 3.180272 1_555
