# generated using pymatgen
data_Li5SbS
_symmetry_space_group_name_H-M   'P 1'
_cell_length_a   4.30626400
_cell_length_b   4.30771300
_cell_length_c   12.82165300
_cell_angle_alpha   90.00000000
_cell_angle_beta   90.00000000
_cell_angle_gamma   90.00000000
_symmetry_Int_Tables_number   1
_chemical_formula_structural   Li5SbS
_chemical_formula_sum   'Li10 Sb2 S2'
_cell_volume   237.84357889
_cell_formula_units_Z   2
loop_
 _symmetry_equiv_pos_site_id
 _symmetry_equiv_pos_as_xyz
  1  'x, y, z'
loop_
 _atom_site_type_symbol
 _atom_site_label
 _atom_site_symmetry_multiplicity
 _atom_site_fract_x
 _atom_site_fract_y
 _atom_site_fract_z
 _atom_site_occupancy
  Li  Li0  1  0.00000000  0.48653500  0.25000000  1
  Li  Li1  1  0.00000000  0.51346500  0.75000000  1
  Li  Li2  1  0.00000000  0.99059800  0.10651300  1
  Li  Li3  1  0.00000000  0.00940200  0.60651300  1
  Li  Li4  1  0.00000000  0.00940200  0.89348700  1
  Li  Li5  1  0.00000000  0.99059800  0.39348700  1
  Li  Li6  1  0.50000000  0.50997000  0.89359900  1
  Li  Li7  1  0.50000000  0.49003000  0.10640100  1
  Li  Li8  1  0.50000000  0.50997000  0.60640100  1
  Li  Li9  1  0.50000000  0.49003000  0.39359900  1
  Sb  Sb0  1  0.50000000  0.99029800  0.25000000  1
  Sb  Sb1  1  0.50000000  0.00970200  0.75000000  1
  S  S0  1  0.00000000  0.50000000  0.00000000  1
  S  S1  1  0.00000000  0.50000000  0.50000000  1
loop_
_geom_bond_atom_site_label_1
_geom_bond_atom_site_label_2
_geom_bond_distance
_geom_bond_site_symmetry_2
Li0 Li5 2.819336 1_545
Li0 Li2 2.819336 1_545
Li0 Li7 2.833043 1_455
Li0 Li9 2.833043 1_555
Li0 Li7 2.833043 1_555
Li0 Li9 2.833043 1_455
Li0 Li2 2.845952 1_555
Li0 Li5 2.845952 1_555
Li0 Sb0 3.034058 1_545
Li0 Sb0 3.034058 1_445
Li0 Sb0 3.056986 1_455
Li0 Sb0 3.056986 1_555
Li1 Li3 2.819336 1_565
Li1 Li4 2.819336 1_565
Li1 Li6 2.833043 1_455
Li1 Li6 2.833043 1_555
Li1 Li8 2.833043 1_555
Li1 Li8 2.833043 1_455
Li1 Li3 2.845952 1_555
Li1 Li4 2.845952 1_555
Li1 Sb1 3.034058 1_565
Li1 Sb1 3.034058 1_465
Li1 Sb1 3.056986 1_555
Li1 Sb1 3.056986 1_455
Li2 S0 2.516214 1_555
Li2 S0 2.584621 1_565
Li2 Sb0 2.832071 1_555
Li2 Sb0 2.832071 1_455
Li3 S1 2.516214 1_555
Li3 S1 2.584621 1_545
Li3 Sb1 2.832071 1_455
Li3 Sb1 2.832071 1_555
Li4 S0 2.516214 1_556
Li4 S0 2.584621 1_546
Li4 Sb1 2.832071 1_455
Li4 Sb1 2.832071 1_555
Li5 S1 2.516214 1_555
Li5 S1 2.584621 1_565
Li5 Sb0 2.832071 1_455
Li5 Sb0 2.832071 1_555
Li6 S0 2.549307 1_656
Li6 S0 2.549307 1_556
Li6 Sb1 2.832677 1_565
Li6 Sb1 2.834432 1_555
Li7 S0 2.549307 1_555
Li7 S0 2.549307 1_655
Li7 Sb0 2.832677 1_545
Li7 Sb0 2.834432 1_555
Li8 S1 2.549307 1_555
Li8 S1 2.549307 1_655
Li8 Sb1 2.832677 1_565
Li8 Sb1 2.834432 1_555
Li9 S1 2.549307 1_555
Li9 S1 2.549307 1_655
Li9 Sb0 2.832677 1_545
Li9 Sb0 2.834432 1_555
