# generated using pymatgen
data_LiLa2Co2Sb2(PbO6)2
_symmetry_space_group_name_H-M   'P 1'
_cell_length_a   5.77737231
_cell_length_b   6.08887395
_cell_length_c   8.13319806
_cell_angle_alpha   87.41463266
_cell_angle_beta   90.27771142
_cell_angle_gamma   91.84506119
_symmetry_Int_Tables_number   1
_chemical_formula_structural   LiLa2Co2Sb2(PbO6)2
_chemical_formula_sum   'Li1 La2 Co2 Sb2 Pb2 O12'
_cell_volume   285.66607924
_cell_formula_units_Z   1
loop_
 _symmetry_equiv_pos_site_id
 _symmetry_equiv_pos_as_xyz
  1  'x, y, z'
loop_
 _atom_site_type_symbol
 _atom_site_label
 _atom_site_symmetry_multiplicity
 _atom_site_fract_x
 _atom_site_fract_y
 _atom_site_fract_z
 _atom_site_occupancy
  Li  Li0  1  0.02389200  0.38062900  0.45678500  1
  La  La0  1  0.49773400  0.42797300  0.75664300  1
  La  La1  1  0.01286300  0.02786400  0.23415300  1
  Co  Co0  1  0.97319600  0.70285300  0.58974600  1
  Co  Co1  1  0.50724800  0.96403000  0.99374500  1
  Sb  Sb0  1  0.99308500  0.49960100  0.99743400  1
  Sb  Sb1  1  0.50578900  0.97796600  0.48940600  1
  Pb  Pb0  1  0.50311900  0.52086300  0.25353000  1
  Pb  Pb1  1  0.01072100  0.03537500  0.77797700  1
  O  O0  1  0.59713700  0.95073700  0.24388900  1
  O  O1  1  0.08517800  0.48676300  0.75413300  1
  O  O2  1  0.45090000  0.02521000  0.73615600  1
  O  O3  1  0.92629400  0.44430100  0.23345600  1
  O  O4  1  0.21661900  0.79927400  0.43381600  1
  O  O5  1  0.71604700  0.68174900  0.94167100  1
  O  O6  1  0.81016400  0.13665500  0.50674600  1
  O  O7  1  0.25063000  0.27651700  0.02471600  1
  O  O8  1  0.32030300  0.24538200  0.44682900  1
  O  O9  1  0.76435000  0.23241600  0.95605400  1
  O  O10  1  0.64434000  0.67962800  0.54026000  1
  O  O11  1  0.19039100  0.77504600  0.03285500  1
loop_
_geom_bond_atom_site_label_1
_geom_bond_atom_site_label_2
_geom_bond_distance
_geom_bond_site_symmetry_2
Li0 O3 1.925641 1_455
Li0 O8 1.927552 1_555
Li0 O6 1.931034 1_455
La0 O10 2.418704 1_555
La0 O1 2.421443 1_555
La0 O2 2.471600 1_555
La0 O5 2.511773 1_555
La0 O9 2.518040 1_555
La0 O7 2.721432 1_556
La0 O8 2.964866 1_555
La1 O4 2.417254 1_545
La1 O0 2.433378 1_445
La1 O11 2.539164 1_545
La1 O7 2.595545 1_555
La1 O3 2.599989 1_455
La1 O6 2.633083 1_455
La1 O8 2.815388 1_555
La1 O9 2.925415 1_454
Co0 O10 1.942194 1_555
Co0 O1 1.955765 1_655
Co0 O4 1.956475 1_655
Co0 Pb1 2.595808 1_665
Co1 O0 2.095931 1_556
Co1 O2 2.136506 1_565
Co1 O11 2.147876 1_556
Co1 O9 2.184886 1_565
Co1 O5 2.189264 1_555
Co1 O7 2.471889 1_566
O0 Sb1 2.083048 1_555
O0 Pb0 2.653785 1_555
O1 Sb0 2.057120 1_455
O1 Pb1 2.766440 1_555
O2 Sb1 2.067595 1_545
O2 Pb1 2.570446 1_555
O3 Sb0 1.971724 1_554
O3 Pb0 2.511044 1_555
O4 Sb1 2.024670 1_555
O5 Sb0 2.014795 1_555
O6 Sb1 1.986520 1_545
O6 Pb1 2.547096 1_655
O7 Sb0 2.051340 1_454
O8 Sb1 1.994347 1_545
O8 Pb0 2.462691 1_555
O9 Sb0 2.100691 1_555
O9 Pb1 2.418638 1_655
O10 Sb1 2.033292 1_555
O10 Pb0 2.678190 1_555
O11 Sb0 2.027934 1_454
O11 Pb1 2.770547 1_564
