# generated using pymatgen
data_RbYb(WO4)2
_symmetry_space_group_name_H-M   'P 1'
_cell_length_a   5.94250711
_cell_length_b   5.94250711
_cell_length_c   7.63141331
_cell_angle_alpha   90.00000000
_cell_angle_beta   90.00000000
_cell_angle_gamma   119.99999964
_symmetry_Int_Tables_number   1
_chemical_formula_structural   RbYb(WO4)2
_chemical_formula_sum   'Rb1 Yb1 W2 O8'
_cell_volume   233.38612241
_cell_formula_units_Z   1
loop_
 _symmetry_equiv_pos_site_id
 _symmetry_equiv_pos_as_xyz
  1  'x, y, z'
loop_
 _atom_site_type_symbol
 _atom_site_label
 _atom_site_symmetry_multiplicity
 _atom_site_fract_x
 _atom_site_fract_y
 _atom_site_fract_z
 _atom_site_occupancy
  Rb  Rb0  1  0.00000000  0.00000000  0.00000000  1
  Yb  Yb0  1  0.00000000  0.00000000  0.50000000  1
  W  W0  1  0.33333300  0.66666700  0.24971045  1
  W  W1  1  0.66666700  0.33333300  0.75028955  1
  O  O0  1  0.16788954  0.83211046  0.32542421  1
  O  O1  1  0.83211046  0.16788954  0.67457579  1
  O  O2  1  0.16788954  0.33578007  0.32542421  1
  O  O3  1  0.83211046  0.66421993  0.67457579  1
  O  O4  1  0.66421993  0.83211046  0.32542421  1
  O  O5  1  0.33578007  0.16788954  0.67457579  1
  O  O6  1  0.33333300  0.66666700  0.02046190  1
  O  O7  1  0.66666700  0.33333300  0.97953810  1
loop_
_geom_bond_atom_site_label_1
_geom_bond_atom_site_label_2
_geom_bond_distance
_geom_bond_site_symmetry_2
O0 W0 1.798222 1_555
O0 Yb0 2.181981 1_565
O0 Rb0 3.025497 1_565
O1 W1 1.798222 1_555
O1 Yb0 2.181981 1_655
O1 Rb0 3.025497 1_656
O2 W0 1.798222 1_555
O2 Yb0 2.181985 1_555
O2 Rb0 3.025500 1_555
O3 W1 1.798222 1_555
O3 Yb0 2.181985 1_665
O3 Rb0 3.025500 1_666
O4 W0 1.798222 1_555
O4 Yb0 2.181985 1_665
O4 Rb0 3.025500 1_665
O5 W1 1.798222 1_555
O5 Yb0 2.181985 1_555
O5 Rb0 3.025500 1_556
O6 W0 1.749490 1_555
O6 Rb0 3.434456 1_565
O6 Rb0 3.434462 1_555
O6 Rb0 3.434462 1_665
O7 W1 1.749490 1_555
O7 Rb0 3.434456 1_656
O7 Rb0 3.434462 1_556
O7 Rb0 3.434462 1_666
