# generated using pymatgen
data_Te16Rh9
_symmetry_space_group_name_H-M   'P 1'
_cell_length_a   7.92506583
_cell_length_b   8.81664652
_cell_length_c   8.79816206
_cell_angle_alpha   77.62754015
_cell_angle_beta   90.00000000
_cell_angle_gamma   90.00000000
_symmetry_Int_Tables_number   1
_chemical_formula_structural   Te16Rh9
_chemical_formula_sum   'Te16 Rh9'
_cell_volume   600.47228955
_cell_formula_units_Z   1
loop_
 _symmetry_equiv_pos_site_id
 _symmetry_equiv_pos_as_xyz
  1  'x, y, z'
loop_
 _atom_site_type_symbol
 _atom_site_label
 _atom_site_symmetry_multiplicity
 _atom_site_fract_x
 _atom_site_fract_y
 _atom_site_fract_z
 _atom_site_occupancy
  Te  Te0  1  0.75018613  0.05025529  0.78424485  1
  Te  Te1  1  0.00000000  0.29906172  0.03507046  1
  Te  Te2  1  0.50000000  0.79552803  0.53745436  1
  Te  Te3  1  0.25462714  0.53773303  0.29286714  1
  Te  Te4  1  0.24981387  0.94974471  0.21575515  1
  Te  Te5  1  0.50000000  0.20447197  0.46254564  1
  Te  Te6  1  0.00000000  0.70093828  0.96492954  1
  Te  Te7  1  0.74537286  0.46226697  0.70713286  1
  Te  Te8  1  0.00000000  0.78958799  0.54891149  1
  Te  Te9  1  0.74537286  0.53773303  0.29286714  1
  Te  Te10  1  0.50000000  0.29081041  0.04417896  1
  Te  Te11  1  0.24981387  0.05025529  0.78424485  1
  Te  Te12  1  0.50000000  0.70918959  0.95582104  1
  Te  Te13  1  0.25462714  0.46226697  0.70713286  1
  Te  Te14  1  0.00000000  0.21041201  0.45108851  1
  Te  Te15  1  0.75018613  0.94974471  0.21575515  1
  Rh  Rh0  1  0.50000000  0.25369695  0.75544703  1
  Rh  Rh1  1  0.74327347  0.50000000  -0.00000000  1
  Rh  Rh2  1  0.24187189  0.00000000  0.50000000  1
  Rh  Rh3  1  0.00000000  0.73685556  0.26325681  1
  Rh  Rh4  1  0.50000000  0.74630305  0.24455297  1
  Rh  Rh5  1  0.75812811  0.00000000  0.50000000  1
  Rh  Rh6  1  0.25672653  0.50000000  -0.00000000  1
  Rh  Rh7  1  0.00000000  0.26314444  0.73674319  1
  Rh  Rh8  1  0.00000000  0.00000000  -0.00000000  1
loop_
_geom_bond_atom_site_label_1
_geom_bond_atom_site_label_2
_geom_bond_distance
_geom_bond_site_symmetry_2
Rh0 Te10 2.629916 1_556
Rh0 Te13 2.647392 1_555
Rh0 Te7 2.647392 1_555
Rh0 Te11 2.649146 1_555
Rh0 Te0 2.649146 1_555
Rh0 Te5 2.703429 1_555
Rh1 Te12 2.638660 1_554
Rh1 Te10 2.638660 1_555
Rh1 Te7 2.667890 1_554
Rh1 Te9 2.667890 1_555
Rh1 Te1 2.671895 1_655
Rh1 Te6 2.671895 1_654
Rh2 Te4 2.632355 1_545
Rh2 Te11 2.632355 1_555
Rh2 Te8 2.637972 1_545
Rh2 Te14 2.637972 1_555
Rh2 Te2 2.699771 1_545
Rh2 Te5 2.699771 1_555
Rh3 Te3 2.650670 1_555
Rh3 Te9 2.650670 1_455
Rh3 Te8 2.652024 1_555
Rh3 Te15 2.698350 1_455
Rh3 Te4 2.698350 1_555
Rh3 Te6 2.710292 1_554
Rh4 Te12 2.629916 1_554
Rh4 Te3 2.647392 1_555
Rh4 Te9 2.647392 1_555
Rh4 Te4 2.649146 1_555
Rh4 Te15 2.649146 1_555
Rh4 Te2 2.703429 1_555
Rh5 Te15 2.632355 1_545
Rh5 Te0 2.632355 1_555
Rh5 Te8 2.637972 1_645
Rh5 Te14 2.637972 1_655
Rh5 Te2 2.699771 1_545
Rh5 Te5 2.699771 1_555
Rh6 Te12 2.638660 1_554
Rh6 Te10 2.638660 1_555
Rh6 Te13 2.667890 1_554
Rh6 Te3 2.667890 1_555
Rh6 Te1 2.671895 1_555
Rh6 Te6 2.671895 1_554
Rh7 Te7 2.650670 1_455
Rh7 Te13 2.650670 1_555
Rh7 Te14 2.652024 1_555
Rh7 Te0 2.698350 1_455
Rh7 Te11 2.698350 1_555
Rh7 Te1 2.710292 1_556
Rh8 Te4 2.712714 1_545
Rh8 Te15 2.712714 1_445
Rh8 Te0 2.712714 1_454
Rh8 Te11 2.712714 1_554
Rh8 Te1 2.719586 1_555
Rh8 Te6 2.719586 1_544
