# generated using pymatgen
data_LaMg
_symmetry_space_group_name_H-M   'P 1'
_cell_length_a   6.07489729
_cell_length_b   6.07489729
_cell_length_c   6.74897538
_cell_angle_alpha   63.05514473
_cell_angle_beta   63.05514473
_cell_angle_gamma   59.94279658
_symmetry_Int_Tables_number   1
_chemical_formula_structural   LaMg
_chemical_formula_sum   'La3 Mg3'
_cell_volume   183.72965328
_cell_formula_units_Z   3
loop_
 _symmetry_equiv_pos_site_id
 _symmetry_equiv_pos_as_xyz
  1  'x, y, z'
loop_
 _atom_site_type_symbol
 _atom_site_label
 _atom_site_symmetry_multiplicity
 _atom_site_fract_x
 _atom_site_fract_y
 _atom_site_fract_z
 _atom_site_occupancy
  La  La0  1  0.99737800  0.31906900  0.00756000  1
  La  La1  1  0.68093100  0.00262200  0.99244000  1
  La  La2  1  0.48549900  0.51450100  0.50000000  1
  Mg  Mg0  1  0.33472100  0.66527900  0.00000000  1
  Mg  Mg1  1  0.16949200  0.16802200  0.50114300  1
  Mg  Mg2  1  0.83197800  0.83050800  0.49885700  1
loop_
_geom_bond_atom_site_label_1
_geom_bond_atom_site_label_2
_geom_bond_distance
_geom_bond_site_symmetry_2
La0 La1 3.385119 1_554
La0 Mg2 3.444125 1_545
La0 Mg0 3.451419 1_645
La0 Mg0 3.498422 1_555
La0 Mg1 3.501293 1_654
La0 Mg1 3.529484 1_655
La0 La2 3.545695 1_654
La0 La2 3.554759 1_555
La0 La1 3.570235 1_564
La0 La1 3.570235 1_654
La0 Mg0 3.570896 1_655
La0 Mg2 3.575168 1_554
La1 Mg1 3.444125 1_655
La1 Mg0 3.451419 1_646
La1 Mg0 3.498422 1_556
La1 Mg2 3.501293 1_546
La1 Mg2 3.529484 1_545
La1 La2 3.545695 1_546
La1 La2 3.554759 1_555
La1 Mg0 3.570896 1_546
La1 Mg1 3.575168 1_556
La2 Mg2 3.438982 1_455
La2 Mg1 3.438982 1_565
La2 Mg1 3.483552 1_555
La2 Mg2 3.483552 1_555
La2 Mg0 3.496384 1_555
La2 Mg0 3.496384 1_556
La2 Mg1 3.598500 1_655
La2 Mg2 3.598500 1_545
Mg0 Mg2 3.503342 1_554
Mg0 Mg1 3.503342 1_555
Mg0 Mg2 3.513313 1_455
Mg0 Mg1 3.513313 1_564
Mg1 Mg2 3.479580 1_455
Mg1 Mg2 3.479580 1_545
Mg1 Mg2 3.560450 1_445
