# generated using pymatgen
data_CaAg4(RuO3)4
_symmetry_space_group_name_H-M   'P 1'
_cell_length_a   7.29680610
_cell_length_b   7.35931282
_cell_length_c   7.35529541
_cell_angle_alpha   59.98193680
_cell_angle_beta   90.02553528
_cell_angle_gamma   120.28377823
_symmetry_Int_Tables_number   1
_chemical_formula_structural   CaAg4(RuO3)4
_chemical_formula_sum   'Ca1 Ag4 Ru4 O12'
_cell_volume   278.07233632
_cell_formula_units_Z   1
loop_
 _symmetry_equiv_pos_site_id
 _symmetry_equiv_pos_as_xyz
  1  'x, y, z'
loop_
 _atom_site_type_symbol
 _atom_site_label
 _atom_site_symmetry_multiplicity
 _atom_site_fract_x
 _atom_site_fract_y
 _atom_site_fract_z
 _atom_site_occupancy
  Ca  Ca0  1  0.16130400  0.94135400  0.77859500  1
  Ag  Ag0  1  0.43237900  0.45516300  0.02205200  1
  Ag  Ag1  1  0.02181900  0.05859600  0.03578800  1
  Ag  Ag2  1  0.02181900  0.42743600  0.03578800  1
  Ag  Ag3  1  0.01978300  0.05724200  0.40530000  1
  Ru  Ru0  1  0.51091600  0.00355900  0.00379800  1
  Ru  Ru1  1  0.51102400  0.00363400  0.49211700  1
  Ru  Ru2  1  0.51102400  0.51527400  0.49211700  1
  Ru  Ru3  1  0.00395100  0.50279400  0.49836400  1
  O  O0  1  0.82558100  0.25541000  0.43007800  1
  O  O1  1  0.56699700  0.13137700  0.18402000  1
  O  O2  1  0.56699700  0.75160100  0.18402000  1
  O  O3  1  0.82597300  0.25569800  0.81457700  1
  O  O4  1  0.82558100  0.64009300  0.43007800  1
  O  O5  1  0.43179600  0.25085100  0.43009400  1
  O  O6  1  0.56757600  0.75111600  0.56534400  1
  O  O7  1  0.17875200  0.75588600  0.16698000  1
  O  O8  1  0.17919700  0.34686500  0.57642300  1
  O  O9  1  0.43101800  0.24998900  0.81865300  1
  O  O10  1  0.43101800  0.86237600  0.81865300  1
  O  O11  1  0.17919700  0.75590800  0.57642300  1
loop_
_geom_bond_atom_site_label_1
_geom_bond_atom_site_label_2
_geom_bond_distance
_geom_bond_site_symmetry_2
Ca0 O10 2.297754 1_555
Ca0 O9 2.297758 1_565
Ca0 O5 2.298462 1_565
Ca0 O11 2.510240 1_555
Ca0 O8 2.510240 1_565
Ca0 O7 2.512675 1_556
Ag0 O5 2.597467 1_555
Ag0 O9 2.600628 1_554
Ag0 O10 2.600635 1_554
Ag0 O6 2.741680 1_554
Ag0 O1 2.753436 1_555
Ag0 O2 2.753448 1_555
Ag1 O3 2.553578 1_454
Ag1 O4 2.562355 1_445
Ag1 O9 2.638511 1_554
Ag1 O2 2.698808 1_445
Ag1 O8 2.758611 1_554
Ag1 O7 2.761568 1_545
Ag1 Ca0 2.807052 1_544
Ag2 O3 2.553582 1_454
Ag2 O0 2.562352 1_455
Ag2 O10 2.638509 1_554
Ag2 O1 2.698808 1_455
Ag2 O11 2.758611 1_554
Ag2 O7 2.761562 1_555
Ag2 Ca0 2.807040 1_554
Ag3 O0 2.553155 1_455
Ag3 O4 2.553162 1_445
Ag3 O5 2.653476 1_555
Ag3 O6 2.683572 1_445
Ag3 O8 2.768145 1_555
Ag3 O11 2.768157 1_545
Ag3 Ca0 2.806302 1_545
O0 Ru1 1.943021 1_555
O0 Ru3 1.945570 1_655
O1 Ru1 1.915207 1_555
O1 Ru0 1.915294 1_555
O2 Ru2 1.915207 1_555
O2 Ru0 1.915288 1_565
O3 Ru0 1.944670 1_556
O3 Ru3 1.947306 1_655
O4 Ru2 1.943022 1_555
O4 Ru3 1.945564 1_655
O5 Ru1 2.020514 1_555
O5 Ru2 2.020521 1_555
O6 Ru2 1.919791 1_555
O6 Ru1 1.919798 1_565
O7 Ru0 1.998862 1_565
O7 Ru3 2.025208 1_555
O8 Ru2 1.997239 1_555
O8 Ru3 2.025273 1_555
O9 Ru0 2.019399 1_556
O9 Ru2 2.020152 1_555
O10 Ru0 2.019399 1_566
O10 Ru1 2.020150 1_565
O11 Ru1 1.997241 1_565
O11 Ru3 2.025262 1_555
