# generated using pymatgen
data_Li9Mn2Co5O16
_symmetry_space_group_name_H-M   'P 1'
_cell_length_a   7.79787245
_cell_length_b   7.79787245
_cell_length_c   13.06037265
_cell_angle_alpha   87.24606481
_cell_angle_beta   87.24606481
_cell_angle_gamma   21.42383042
_symmetry_Int_Tables_number   1
_chemical_formula_structural   Li9Mn2Co5O16
_chemical_formula_sum   'Li9 Mn2 Co5 O16'
_cell_volume   289.73092163
_cell_formula_units_Z   1
loop_
 _symmetry_equiv_pos_site_id
 _symmetry_equiv_pos_as_xyz
  1  'x, y, z'
loop_
 _atom_site_type_symbol
 _atom_site_label
 _atom_site_symmetry_multiplicity
 _atom_site_fract_x
 _atom_site_fract_y
 _atom_site_fract_z
 _atom_site_occupancy
  Li  Li0  1  0.56295200  0.56295200  0.82629300  1
  Li  Li1  1  0.43704800  0.43704800  0.17370700  1
  Li  Li2  1  0.31532400  0.31532400  0.56332500  1
  Li  Li3  1  0.18765400  0.18765400  0.93985700  1
  Li  Li4  1  0.06533000  0.06533000  0.30190500  1
  Li  Li5  1  0.93467000  0.93467000  0.69809500  1
  Li  Li6  1  0.81234600  0.81234600  0.06014300  1
  Li  Li7  1  0.68467600  0.68467600  0.43667500  1
  Li  Li8  1  0.00000000  0.00000000  0.00000000  1
  Mn  Mn0  1  0.12454600  0.12454600  0.62707000  1
  Mn  Mn1  1  0.87545400  0.87545400  0.37293000  1
  Co  Co0  1  0.75546400  0.75546400  0.75276400  1
  Co  Co1  1  0.61735600  0.61735600  0.10872100  1
  Co  Co2  1  0.50000000  0.50000000  0.50000000  1
  Co  Co3  1  0.38264400  0.38264400  0.89127900  1
  Co  Co4  1  0.24453600  0.24453600  0.24723600  1
  O  O0  1  0.54253100  0.54253100  0.65714300  1
  O  O1  1  0.40187600  0.40187600  0.02565500  1
  O  O2  1  0.29227200  0.29227200  0.40224200  1
  O  O3  1  0.16275500  0.16275500  0.76874800  1
  O  O4  1  0.03890300  0.03890300  0.15429500  1
  O  O5  1  0.90646200  0.90646200  0.51535200  1
  O  O6  1  0.78894100  0.78894100  0.89733700  1
  O  O7  1  0.66284000  0.66284000  0.28388200  1
  O  O8  1  0.59812400  0.59812400  0.97434500  1
  O  O9  1  0.45746900  0.45746900  0.34285700  1
  O  O10  1  0.33716000  0.33716000  0.71611800  1
  O  O11  1  0.21105900  0.21105900  0.10266300  1
  O  O12  1  0.09353800  0.09353800  0.48464800  1
  O  O13  1  0.96109700  0.96109700  0.84570500  1
  O  O14  1  0.83724500  0.83724500  0.23125200  1
  O  O15  1  0.70772800  0.70772800  0.59775800  1
loop_
_geom_bond_atom_site_label_1
_geom_bond_atom_site_label_2
_geom_bond_distance
_geom_bond_site_symmetry_2
Li0 O8 2.032555 1_555
Li0 O13 2.136001 1_545
Li0 O13 2.136001 1_455
Li0 O3 2.211828 1_565
Li0 O3 2.211828 1_655
Li0 O0 2.246315 1_555
Li1 O1 2.032555 1_555
Li1 O4 2.136001 1_655
Li1 O4 2.136001 1_565
Li1 O14 2.211828 1_545
Li1 O14 2.211828 1_455
Li1 O9 2.246315 1_555
Li2 O10 2.039467 1_555
Li2 O5 2.087635 1_455
Li2 O5 2.087635 1_545
Li2 O2 2.150222 1_555
Li2 O15 2.224638 1_455
Li2 O15 2.224638 1_545
Li3 O8 2.031124 1_545
Li3 O8 2.031124 1_455
Li3 O11 2.173568 1_556
Li3 O6 2.175758 1_545
Li3 O6 2.175758 1_455
Li3 O3 2.285403 1_555
Li4 O4 1.989202 1_555
Li4 O7 2.086749 1_455
Li4 O7 2.086749 1_545
Li4 O9 2.243280 1_455
Li4 O9 2.243280 1_545
Li4 O12 2.446230 1_555
Li5 O13 1.989202 1_555
Li5 O10 2.086749 1_655
Li5 O10 2.086749 1_565
Li5 O0 2.243280 1_655
Li5 O0 2.243280 1_565
Li5 O5 2.446230 1_555
Li6 O1 2.031124 1_655
Li6 O1 2.031124 1_565
Li6 O6 2.173568 1_554
Li6 O11 2.175758 1_655
Li6 O11 2.175758 1_565
Li6 O14 2.285403 1_555
Li7 O7 2.039467 1_555
Li7 O12 2.087635 1_655
Li7 O12 2.087635 1_565
Li7 O15 2.150222 1_555
Li7 O2 2.224638 1_565
Li7 O2 2.224638 1_655
Li8 O1 2.103500 1_455
Li8 O8 2.103500 1_454
Li8 O8 2.103500 1_544
Li8 O1 2.103500 1_545
Li8 O13 2.129251 1_444
Li8 O4 2.129251 1_555
Mn0 O12 1.942198 1_555
Mn0 O0 1.945836 1_455
Mn0 O0 1.945836 1_545
Mn0 O15 1.955606 1_455
Mn0 O15 1.955606 1_545
Mn0 O3 1.967903 1_555
Mn1 O5 1.942198 1_555
Mn1 O9 1.945836 1_655
Mn1 O9 1.945836 1_565
Mn1 O2 1.955606 1_655
Mn1 O2 1.955606 1_565
Mn1 O14 1.967903 1_555
Co0 O10 1.959208 1_655
Co0 O10 1.959208 1_565
Co0 O6 1.980685 1_555
Co0 O3 2.033134 1_655
Co0 O3 2.033134 1_565
Co0 O15 2.185925 1_555
Co1 O8 1.793729 1_554
Co1 O4 1.957132 1_655
Co1 O4 1.957132 1_565
Co1 O11 2.039049 1_655
Co1 O11 2.039049 1_565
Co1 O7 2.423874 1_555
Co2 O12 2.041424 1_565
Co2 O12 2.041424 1_655
Co2 O5 2.041424 1_545
Co2 O5 2.041424 1_455
Co2 O9 2.183509 1_555
Co2 O0 2.183509 1_555
Co3 O1 1.793729 1_556
Co3 O13 1.957132 1_455
Co3 O13 1.957132 1_545
Co3 O6 2.039049 1_545
Co3 O6 2.039049 1_455
Co3 O10 2.423874 1_555
Co4 O7 1.959208 1_545
Co4 O7 1.959208 1_455
Co4 O11 1.980685 1_555
Co4 O14 2.033134 1_455
Co4 O14 2.033134 1_545
Co4 O2 2.185925 1_555
