# generated using pymatgen
data_CeCoSi3
_symmetry_space_group_name_H-M   'P 1'
_cell_length_a   5.54809688
_cell_length_b   5.54809688
_cell_length_c   5.54809688
_cell_angle_alpha   136.67322400
_cell_angle_beta   136.67322400
_cell_angle_gamma   62.94121987
_symmetry_Int_Tables_number   1
_chemical_formula_structural   CeCoSi3
_chemical_formula_sum   'Ce1 Co1 Si3'
_cell_volume   79.39754017
_cell_formula_units_Z   1
loop_
 _symmetry_equiv_pos_site_id
 _symmetry_equiv_pos_as_xyz
  1  'x, y, z'
loop_
 _atom_site_type_symbol
 _atom_site_label
 _atom_site_symmetry_multiplicity
 _atom_site_fract_x
 _atom_site_fract_y
 _atom_site_fract_z
 _atom_site_occupancy
  Ce  Ce0  1  0.00008026  0.00008026  0.00000000  1
  Co  Co0  1  0.66199748  0.66199748  -0.00000000  1
  Si  Si0  1  0.42565388  0.42565388  -0.00000000  1
  Si  Si1  1  0.26063469  0.76063469  0.50000000  1
  Si  Si2  1  0.76063469  0.26063469  0.50000000  1
loop_
_geom_bond_atom_site_label_1
_geom_bond_atom_site_label_2
_geom_bond_distance
_geom_bond_site_symmetry_2
Ce0 Si0 2.980862 1_444
Ce0 Si0 2.980862 1_545
Ce0 Si0 2.980862 1_556
Ce0 Si0 2.980862 1_455
Ce0 Si1 3.054505 1_444
Ce0 Si2 3.054505 1_455
Ce0 Si1 3.054505 1_545
Ce0 Si2 3.054505 1_444
Ce0 Co0 3.199627 1_445
Ce0 Si2 3.205517 1_555
Ce0 Si1 3.205517 1_555
Ce0 Si2 3.205517 1_454
Ce0 Si1 3.205517 1_544
Ce0 Co0 3.276830 1_556
Ce0 Co0 3.276830 1_545
Ce0 Co0 3.276830 1_444
Ce0 Co0 3.276830 1_455
Co0 Si0 2.236764 1_555
Co0 Si2 2.250807 1_554
Co0 Si1 2.250807 1_554
Co0 Si1 2.250807 1_655
Co0 Si2 2.250807 1_565
Si0 Si2 2.575607 1_454
Si0 Si1 2.575607 1_555
Si0 Si1 2.575607 1_544
Si0 Si2 2.575607 1_555
