# generated using pymatgen
data_RbUH2SeO7F
_symmetry_space_group_name_H-M   'P 1'
_cell_length_a   8.60937400
_cell_length_b   13.68505800
_cell_length_c   14.02728000
_cell_angle_alpha   90.00000000
_cell_angle_beta   90.00000000
_cell_angle_gamma   90.00000000
_symmetry_Int_Tables_number   1
_chemical_formula_structural   RbUH2SeO7F
_chemical_formula_sum   'Rb8 U8 H16 Se8 O56 F8'
_cell_volume   1652.69107914
_cell_formula_units_Z   8
loop_
 _symmetry_equiv_pos_site_id
 _symmetry_equiv_pos_as_xyz
  1  'x, y, z'
loop_
 _atom_site_type_symbol
 _atom_site_label
 _atom_site_symmetry_multiplicity
 _atom_site_fract_x
 _atom_site_fract_y
 _atom_site_fract_z
 _atom_site_occupancy
  Rb  Rb0  1  0.32523300  0.18259900  0.75000000  1
  Rb  Rb1  1  0.82523300  0.31740100  0.75000000  1
  Rb  Rb2  1  0.67476700  0.81740100  0.25000000  1
  Rb  Rb3  1  0.17476700  0.68259900  0.25000000  1
  Rb  Rb4  1  0.40144500  0.37136400  0.25000000  1
  Rb  Rb5  1  0.90144500  0.12863600  0.25000000  1
  Rb  Rb6  1  0.59855500  0.62863600  0.75000000  1
  Rb  Rb7  1  0.09855500  0.87136400  0.75000000  1
  U  U0  1  0.60962900  0.19720400  0.48882600  1
  U  U1  1  0.10962900  0.30279600  0.01117400  1
  U  U2  1  0.39037100  0.80279600  0.98882600  1
  U  U3  1  0.89037100  0.69720400  0.51117400  1
  U  U4  1  0.39037100  0.80279600  0.51117400  1
  U  U5  1  0.89037100  0.69720400  0.98882600  1
  U  U6  1  0.60962900  0.19720400  0.01117400  1
  U  U7  1  0.10962900  0.30279600  0.48882600  1
  H  H0  1  0.48414700  0.96420700  0.69464300  1
  H  H1  1  0.98414700  0.53579300  0.80535700  1
  H  H2  1  0.51585300  0.03579300  0.19464300  1
  H  H3  1  0.01585300  0.46420700  0.30535700  1
  H  H4  1  0.51585300  0.03579300  0.30535700  1
  H  H5  1  0.01585300  0.46420700  0.19464300  1
  H  H6  1  0.48414700  0.96420700  0.80535700  1
  H  H7  1  0.98414700  0.53579300  0.69464300  1
  H  H8  1  0.45996800  0.40375800  0.80550000  1
  H  H9  1  0.95996800  0.09624200  0.69450000  1
  H  H10  1  0.54003200  0.59624200  0.30550000  1
  H  H11  1  0.04003200  0.90375800  0.19450000  1
  H  H12  1  0.54003200  0.59624200  0.19450000  1
  H  H13  1  0.04003200  0.90375800  0.30550000  1
  H  H14  1  0.45996800  0.40375800  0.69450000  1
  H  H15  1  0.95996800  0.09624200  0.80550000  1
  Se  Se0  1  0.73627100  0.44985100  0.47198900  1
  Se  Se1  1  0.23627100  0.05014900  0.02801100  1
  Se  Se2  1  0.26372900  0.55014900  0.97198900  1
  Se  Se3  1  0.76372900  0.94985100  0.52801100  1
  Se  Se4  1  0.26372900  0.55014900  0.52801100  1
  Se  Se5  1  0.76372900  0.94985100  0.97198900  1
  Se  Se6  1  0.73627100  0.44985100  0.02801100  1
  Se  Se7  1  0.23627100  0.05014900  0.47198900  1
  O  O0  1  0.63219900  0.23565800  0.36619600  1
  O  O1  1  0.13219900  0.26434200  0.13380400  1
  O  O2  1  0.36780100  0.76434200  0.86619600  1
  O  O3  1  0.86780100  0.73565800  0.63380400  1
  O  O4  1  0.36780100  0.76434200  0.63380400  1
  O  O5  1  0.86780100  0.73565800  0.86619600  1
  O  O6  1  0.63219900  0.23565800  0.13380400  1
  O  O7  1  0.13219900  0.26434200  0.36619600  1
  O  O8  1  0.59171800  0.16091700  0.61276700  1
  O  O9  1  0.09171800  0.33908300  0.88723300  1
  O  O10  1  0.40828200  0.83908300  0.11276700  1
  O  O11  1  0.90828200  0.66091700  0.38723300  1
  O  O12  1  0.40828200  0.83908300  0.38723300  1
  O  O13  1  0.90828200  0.66091700  0.11276700  1
  O  O14  1  0.59171800  0.16091700  0.88723300  1
  O  O15  1  0.09171800  0.33908300  0.61276700  1
  O  O16  1  0.40947500  0.08921300  0.42887700  1
  O  O17  1  0.90947500  0.41078700  0.07112300  1
  O  O18  1  0.59052500  0.91078700  0.92887700  1
  O  O19  1  0.09052500  0.58921300  0.57112300  1
  O  O20  1  0.59052500  0.91078700  0.57112300  1
  O  O21  1  0.09052500  0.58921300  0.92887700  1
  O  O22  1  0.40947500  0.08921300  0.07112300  1
  O  O23  1  0.90947500  0.41078700  0.42887700  1
  O  O24  1  0.72969200  0.04534300  0.45455900  1
  O  O25  1  0.22969200  0.45465700  0.04544100  1
  O  O26  1  0.27030800  0.95465700  0.95455900  1
  O  O27  1  0.77030800  0.54534300  0.54544100  1
  O  O28  1  0.27030800  0.95465700  0.54544100  1
  O  O29  1  0.77030800  0.54534300  0.95455900  1
  O  O30  1  0.72969200  0.04534300  0.04544100  1
  O  O31  1  0.22969200  0.45465700  0.45455900  1
  O  O32  1  0.66724500  0.36025800  0.54336100  1
  O  O33  1  0.16724500  0.13974200  0.95663900  1
  O  O34  1  0.33275500  0.63974200  0.04336100  1
  O  O35  1  0.83275500  0.86025800  0.45663900  1
  O  O36  1  0.33275500  0.63974200  0.45663900  1
  O  O37  1  0.83275500  0.86025800  0.04336100  1
  O  O38  1  0.66724500  0.36025800  0.95663900  1
  O  O39  1  0.16724500  0.13974200  0.54336100  1
  O  O40  1  0.61700300  0.47784400  0.38517000  1
  O  O41  1  0.11700300  0.02215600  0.11483000  1
  O  O42  1  0.38299700  0.52215600  0.88517000  1
  O  O43  1  0.88299700  0.97784400  0.61483000  1
  O  O44  1  0.38299700  0.52215600  0.61483000  1
  O  O45  1  0.88299700  0.97784400  0.88517000  1
  O  O46  1  0.61700300  0.47784400  0.11483000  1
  O  O47  1  0.11700300  0.02215600  0.38517000  1
  O  O48  1  0.41917100  0.97899600  0.75000000  1
  O  O49  1  0.91917100  0.52100400  0.75000000  1
  O  O50  1  0.58082900  0.02100400  0.25000000  1
  O  O51  1  0.08082900  0.47899600  0.25000000  1
  O  O52  1  0.50093500  0.36859900  0.75000000  1
  O  O53  1  0.00093500  0.13140100  0.75000000  1
  O  O54  1  0.49906500  0.63140100  0.25000000  1
  O  O55  1  0.99906500  0.86859900  0.25000000  1
  F  F0  1  0.37824700  0.28065900  0.50333300  1
  F  F1  1  0.87824700  0.21934100  0.99666700  1
  F  F2  1  0.62175300  0.71934100  0.00333300  1
  F  F3  1  0.12175300  0.78065900  0.49666700  1
  F  F4  1  0.62175300  0.71934100  0.49666700  1
  F  F5  1  0.12175300  0.78065900  0.00333300  1
  F  F6  1  0.37824700  0.28065900  0.99666700  1
  F  F7  1  0.87824700  0.21934100  0.50333300  1
loop_
_geom_bond_atom_site_label_1
_geom_bond_atom_site_label_2
_geom_bond_distance
_geom_bond_site_symmetry_2
H0 O48 0.978191 1_555
H1 O49 0.978191 1_555
H2 O50 0.978191 1_555
H3 O51 0.978191 1_555
H4 O50 0.978191 1_555
H5 O51 0.978191 1_555
H6 O48 0.978191 1_555
H7 O49 0.978191 1_555
H8 O52 0.980811 1_555
H9 O53 0.980811 1_655
H10 O54 0.980811 1_555
H11 O55 0.980811 1_455
H12 O54 0.980811 1_555
H13 O55 0.980811 1_455
H14 O52 0.980811 1_555
H15 O53 0.980811 1_655
O0 U0 1.809326 1_555
O0 Rb4 3.170548 1_555
O0 Rb5 3.189825 1_555
O1 U1 1.809326 1_555
O1 Rb5 3.170548 1_455
O1 Rb4 3.189825 1_555
O2 U2 1.809326 1_555
O2 Rb6 3.170548 1_555
O2 Rb7 3.189825 1_555
O3 U3 1.809326 1_555
O3 Rb7 3.170548 1_655
O3 Rb6 3.189825 1_555
O4 U4 1.809326 1_555
O4 Rb6 3.170548 1_555
O4 Rb7 3.189825 1_555
O5 U5 1.809326 1_555
O5 Rb7 3.170548 1_655
O5 Rb6 3.189825 1_555
O6 U6 1.809326 1_555
O6 Rb4 3.170548 1_555
O6 Rb5 3.189825 1_555
O7 U7 1.809326 1_555
O7 Rb5 3.170548 1_455
O7 Rb4 3.189825 1_555
O8 U0 1.814650 1_555
O8 Rb0 3.009545 1_555
O8 Rb1 3.511897 1_555
O9 U1 1.814650 1_556
O9 Rb1 3.009545 1_455
O9 Rb0 3.511897 1_555
O10 U2 1.814650 1_554
O10 Rb2 3.009545 1_555
O10 Rb3 3.511897 1_555
O11 U3 1.814650 1_555
O11 Rb3 3.009545 1_655
O11 Rb2 3.511897 1_555
O12 U4 1.814650 1_555
O12 Rb2 3.009545 1_555
O12 Rb3 3.511897 1_555
O13 U5 1.814650 1_554
O13 Rb3 3.009545 1_655
O13 Rb2 3.511897 1_555
O14 U6 1.814650 1_556
O14 Rb0 3.009545 1_555
O14 Rb1 3.511897 1_555
O15 U7 1.814650 1_555
O15 Rb1 3.009545 1_455
O15 Rb0 3.511897 1_555
O16 Se7 1.695617 1_555
O16 U0 2.420878 1_555
O17 Se6 1.695617 1_555
O17 U1 2.420878 1_655
O18 Se5 1.695617 1_555
O18 U2 2.420878 1_555
O19 Se4 1.695617 1_555
O19 U3 2.420878 1_455
O20 Se3 1.695617 1_555
O20 U4 2.420878 1_555
O21 Se2 1.695617 1_555
O21 U5 2.420878 1_455
O22 Se1 1.695617 1_555
O22 U6 2.420878 1_555
O23 Se0 1.695617 1_555
O23 U7 2.420878 1_655
O24 Se3 1.689738 1_545
O24 U0 2.370346 1_555
O24 Rb5 3.423347 1_555
O25 Se2 1.689738 1_554
O25 U1 2.370346 1_555
O25 Rb4 3.423347 1_555
O26 Se1 1.689738 1_566
O26 U2 2.370346 1_555
O26 Rb7 3.423347 1_555
O27 Se0 1.689738 1_555
O27 U3 2.370346 1_555
O27 Rb6 3.423347 1_555
O28 Se7 1.689738 1_565
O28 U4 2.370346 1_555
O28 Rb7 3.423347 1_555
O29 Se6 1.689738 1_556
O29 U5 2.370346 1_555
O29 Rb6 3.423347 1_555
O30 Se5 1.689738 1_544
O30 U6 2.370346 1_555
O30 Rb5 3.423347 1_555
O31 Se4 1.689738 1_555
O31 U7 2.370346 1_555
O31 Rb4 3.423347 1_555
O32 Se0 1.690785 1_555
O32 U0 2.410478 1_555
O32 Rb1 3.255127 1_555
O33 Se1 1.690785 1_556
O33 U1 2.410478 1_556
O33 Rb0 3.255127 1_555
O34 Se2 1.690785 1_554
O34 U2 2.410478 1_554
O34 Rb3 3.255127 1_555
O35 Se3 1.690785 1_555
O35 U3 2.410478 1_555
O35 Rb2 3.255127 1_555
O36 Se4 1.690785 1_555
O36 U4 2.410478 1_555
O36 Rb3 3.255127 1_555
O37 Se5 1.690785 1_554
O37 U5 2.410478 1_554
O37 Rb2 3.255127 1_555
O38 Se6 1.690785 1_556
O38 U6 2.410478 1_556
O38 Rb1 3.255127 1_555
O39 Se7 1.690785 1_555
O39 U7 2.410478 1_555
O39 Rb0 3.255127 1_555
O40 Se0 1.638365 1_555
O40 Rb4 3.026966 1_555
O41 Se1 1.638365 1_555
O41 Rb5 3.026966 1_455
O42 Se2 1.638365 1_555
O42 Rb6 3.026966 1_555
O43 Se3 1.638365 1_555
O43 Rb7 3.026966 1_655
O44 Se4 1.638365 1_555
O44 Rb6 3.026966 1_555
O45 Se5 1.638365 1_555
O45 Rb7 3.026966 1_655
O46 Se6 1.638365 1_555
O46 Rb4 3.026966 1_555
O47 Se7 1.638365 1_555
O47 Rb5 3.026966 1_455
O48 Rb0 2.901318 1_565
O48 Rb7 3.128715 1_555
O49 Rb1 2.901318 1_555
O49 Rb6 3.128715 1_555
O50 Rb2 2.901318 1_545
O50 Rb5 3.128715 1_555
O51 Rb3 2.901318 1_555
O51 Rb4 3.128715 1_555
O52 Rb1 2.878574 1_555
O52 Rb0 2.960976 1_555
O53 Rb0 2.878574 1_555
O53 Rb1 2.960976 1_455
O54 Rb3 2.878574 1_555
O54 Rb2 2.960976 1_555
O55 Rb2 2.878574 1_555
O55 Rb3 2.960976 1_655
F0 U0 2.305223 1_555
F0 U7 2.341251 1_555
F1 U1 2.305223 1_656
F1 U6 2.341251 1_556
F2 U2 2.305223 1_554
F2 U5 2.341251 1_554
F3 U3 2.305223 1_455
F3 U4 2.341251 1_555
F4 U4 2.305223 1_555
F4 U3 2.341251 1_555
F5 U5 2.305223 1_454
F5 U2 2.341251 1_554
F6 U6 2.305223 1_556
F6 U1 2.341251 1_556
F7 U7 2.305223 1_655
F7 U0 2.341251 1_555
