# generated using pymatgen
data_AcMg3
_symmetry_space_group_name_H-M   'P 1'
_cell_length_a   7.25469384
_cell_length_b   7.25469384
_cell_length_c   5.23773188
_cell_angle_alpha   90.00000000
_cell_angle_beta   90.00000000
_cell_angle_gamma   120.00000472
_symmetry_Int_Tables_number   1
_chemical_formula_structural   AcMg3
_chemical_formula_sum   'Ac2 Mg6'
_cell_volume   238.73277833
_cell_formula_units_Z   2
loop_
 _symmetry_equiv_pos_site_id
 _symmetry_equiv_pos_as_xyz
  1  'x, y, z'
loop_
 _atom_site_type_symbol
 _atom_site_label
 _atom_site_symmetry_multiplicity
 _atom_site_fract_x
 _atom_site_fract_y
 _atom_site_fract_z
 _atom_site_occupancy
  Ac  Ac0  1  0.66666700  0.33333300  0.25000000  1
  Ac  Ac1  1  0.33333300  0.66666700  0.75000000  1
  Mg  Mg0  1  0.14897507  0.29795115  0.25000000  1
  Mg  Mg1  1  0.14897507  0.85102493  0.25000000  1
  Mg  Mg2  1  0.70204885  0.85102493  0.25000000  1
  Mg  Mg3  1  0.29795115  0.14897507  0.75000000  1
  Mg  Mg4  1  0.85102493  0.14897507  0.75000000  1
  Mg  Mg5  1  0.85102493  0.70204885  0.75000000  1
loop_
_geom_bond_atom_site_label_1
_geom_bond_atom_site_label_2
_geom_bond_distance
_geom_bond_site_symmetry_2
Ac0 Mg3 3.496407 1_555
Ac0 Mg5 3.496407 1_554
Ac0 Mg3 3.496407 1_554
Ac0 Mg5 3.496407 1_555
Ac0 Mg4 3.496407 1_554
Ac0 Mg4 3.496407 1_555
Ac0 Mg2 3.634145 1_545
Ac0 Mg0 3.634145 1_655
Ac0 Mg1 3.634153 1_545
Ac0 Mg1 3.634153 1_655
Ac0 Mg0 3.634159 1_555
Ac0 Mg2 3.634159 1_555
Ac1 Mg2 3.496407 1_555
Ac1 Mg2 3.496407 1_556
Ac1 Mg0 3.496407 1_555
Ac1 Mg0 3.496407 1_556
Ac1 Mg1 3.496407 1_556
Ac1 Mg1 3.496407 1_555
Ac1 Mg5 3.634145 1_455
Ac1 Mg3 3.634145 1_565
Ac1 Mg4 3.634153 1_455
Ac1 Mg4 3.634153 1_565
Ac1 Mg5 3.634159 1_555
Ac1 Mg3 3.634159 1_555
Mg0 Mg4 3.219106 1_455
Mg0 Mg4 3.219106 1_454
Mg0 Mg3 3.219113 1_555
Mg0 Mg3 3.219113 1_554
Mg0 Mg2 3.242313 1_445
Mg0 Mg1 3.242313 1_545
Mg1 Mg5 3.219106 1_455
Mg1 Mg5 3.219106 1_454
Mg1 Mg3 3.219106 1_565
Mg1 Mg3 3.219106 1_564
Mg1 Mg2 3.242313 1_455
Mg2 Mg4 3.219106 1_565
Mg2 Mg4 3.219106 1_564
Mg2 Mg5 3.219113 1_554
Mg2 Mg5 3.219113 1_555
Mg3 Mg5 3.242313 1_445
Mg3 Mg4 3.242313 1_455
Mg4 Mg5 3.242313 1_545
