# generated using pymatgen
data_Mn5Nb7N2
_symmetry_space_group_name_H-M   'P 1'
_cell_length_a   8.18318831
_cell_length_b   8.18318831
_cell_length_c   8.18318831
_cell_angle_alpha   120.29092334
_cell_angle_beta   119.84129896
_cell_angle_gamma   89.88597215
_symmetry_Int_Tables_number   1
_chemical_formula_structural   Mn5Nb7N2
_chemical_formula_sum   'Mn10 Nb14 N4'
_cell_volume   387.08748702
_cell_formula_units_Z   2
loop_
 _symmetry_equiv_pos_site_id
 _symmetry_equiv_pos_as_xyz
  1  'x, y, z'
loop_
 _atom_site_type_symbol
 _atom_site_label
 _atom_site_symmetry_multiplicity
 _atom_site_fract_x
 _atom_site_fract_y
 _atom_site_fract_z
 _atom_site_occupancy
  Mn  Mn0  1  0.11546300  0.69862900  0.41683400  1
  Mn  Mn1  1  0.78179400  0.69862900  0.08316600  1
  Mn  Mn2  1  0.79193200  0.69164000  0.39970700  1
  Mn  Mn3  1  0.79193200  0.39222500  0.10029300  1
  Mn  Mn4  1  0.88453700  0.30137100  0.58316600  1
  Mn  Mn5  1  0.21820600  0.30137100  0.91683400  1
  Mn  Mn6  1  0.20806800  0.30836000  0.60029300  1
  Mn  Mn7  1  0.20806800  0.60777500  0.89970700  1
  Mn  Mn8  1  0.50000000  0.50000000  0.00000000  1
  Mn  Mn9  1  0.00000000  0.50000000  0.50000000  1
  Nb  Nb0  1  0.18821600  0.93821600  0.25000000  1
  Nb  Nb1  1  0.57185300  0.32185300  0.25000000  1
  Nb  Nb2  1  0.18297100  0.92882300  0.86564900  1
  Nb  Nb3  1  0.56317400  0.31732300  0.63435100  1
  Nb  Nb4  1  0.56317400  0.92882300  0.24585200  1
  Nb  Nb5  1  0.18297100  0.31732300  0.25414800  1
  Nb  Nb6  1  0.81178400  0.06178400  0.75000000  1
  Nb  Nb7  1  0.42814700  0.67814700  0.75000000  1
  Nb  Nb8  1  0.81702900  0.07117700  0.13435100  1
  Nb  Nb9  1  0.43682600  0.68267700  0.36564900  1
  Nb  Nb10  1  0.43682600  0.07117700  0.75414800  1
  Nb  Nb11  1  0.81702900  0.68267700  0.74585200  1
  Nb  Nb12  1  0.00000000  0.50000000  0.00000000  1
  Nb  Nb13  1  0.00000000  0.00000000  0.50000000  1
  N  N0  1  0.00000000  0.00000000  0.00000000  1
  N  N1  1  0.50000000  0.00000000  0.50000000  1
  N  N2  1  0.50000000  0.00000000  0.00000000  1
  N  N3  1  0.50000000  0.50000000  0.50000000  1
loop_
_geom_bond_atom_site_label_1
_geom_bond_atom_site_label_2
_geom_bond_distance
_geom_bond_site_symmetry_2
Mn0 Mn9 2.399974 1_555
Mn0 Nb12 2.524972 1_555
Mn0 Nb13 2.524972 1_565
Mn0 Mn3 2.579824 1_455
Mn0 Mn2 2.579824 1_455
Mn0 Mn1 2.737019 1_455
Mn0 Nb7 2.743178 1_555
Mn0 Nb9 2.854449 1_555
Mn0 Nb10 2.854449 1_565
Mn0 Nb5 2.889347 1_555
Mn0 Nb2 2.889354 1_555
Mn0 Nb0 3.094496 1_555
Mn1 Mn8 2.399968 1_555
Mn1 Nb13 2.524972 1_665
Mn1 Nb12 2.524979 1_655
Mn1 Mn2 2.579815 1_555
Mn1 Mn3 2.579824 1_555
Mn1 Nb7 2.743173 1_554
Mn1 Nb8 2.854449 1_565
Mn1 Nb11 2.854450 1_554
Mn1 Nb4 2.889347 1_555
Mn1 Nb3 2.889351 1_554
Mn1 Nb0 3.094503 1_655
Mn2 Mn8 2.434949 1_555
Mn2 Mn9 2.434956 1_655
Mn2 Mn3 2.439383 1_555
Mn2 Nb13 2.545047 1_665
Mn2 Nb9 2.775165 1_555
Mn2 Nb11 2.775174 1_555
Mn2 Nb1 2.826202 1_555
Mn2 Nb6 2.863146 1_565
Mn2 Nb4 2.993605 1_555
Mn2 Nb2 2.993612 1_655
Mn3 Mn8 2.434949 1_555
Mn3 Mn9 2.434949 1_655
Mn3 Nb12 2.545054 1_655
Mn3 Nb10 2.775165 1_554
Mn3 Nb8 2.775165 1_555
Mn3 Nb1 2.826195 1_555
Mn3 Nb6 2.863150 1_554
Mn3 Nb5 2.993609 1_655
Mn3 Nb3 2.993616 1_554
Mn4 Mn9 2.399974 1_655
Mn4 Nb12 2.524972 1_656
Mn4 Nb13 2.524972 1_655
Mn4 Mn7 2.579824 1_655
Mn4 Mn6 2.579824 1_655
Mn4 Mn5 2.737019 1_655
Mn4 Nb1 2.743178 1_555
Mn4 Nb3 2.854449 1_555
Mn4 Nb4 2.854449 1_545
Mn4 Nb11 2.889347 1_555
Mn4 Nb8 2.889354 1_555
Mn4 Nb6 3.094496 1_555
Mn5 Mn8 2.399968 1_556
Mn5 Nb13 2.524972 1_555
Mn5 Nb12 2.524979 1_556
Mn5 Mn6 2.579815 1_555
Mn5 Mn7 2.579824 1_555
Mn5 Nb1 2.743173 1_556
Mn5 Nb2 2.854449 1_545
Mn5 Nb5 2.854450 1_556
Mn5 Nb10 2.889347 1_555
Mn5 Nb9 2.889351 1_556
Mn5 Nb6 3.094503 1_455
Mn6 Mn8 2.434949 1_556
Mn6 Mn9 2.434956 1_555
Mn6 Mn7 2.439383 1_555
Mn6 Nb13 2.545047 1_555
Mn6 Nb3 2.775165 1_555
Mn6 Nb5 2.775174 1_555
Mn6 Nb7 2.826202 1_555
Mn6 Nb0 2.863146 1_545
Mn6 Nb10 2.993605 1_555
Mn6 Nb8 2.993612 1_455
Mn7 Mn9 2.434949 1_555
Mn7 Mn8 2.434949 1_556
Mn7 Nb12 2.545054 1_556
Mn7 Nb2 2.775165 1_555
Mn7 Nb4 2.775165 1_556
Mn7 Nb7 2.826195 1_555
Mn7 Nb0 2.863150 1_556
Mn7 Nb11 2.993609 1_455
Mn7 Nb9 2.993616 1_556
Mn8 Nb7 2.909341 1_554
Mn8 Nb1 2.909341 1_555
Mn8 Nb4 2.911898 1_555
Mn8 Nb10 2.911898 1_554
Mn8 Nb3 2.911898 1_554
Mn8 Nb9 2.911898 1_555
Mn9 Nb7 2.909341 1_555
Mn9 Nb1 2.909341 1_455
Mn9 Nb11 2.911897 1_455
Mn9 Nb5 2.911897 1_555
Mn9 Nb2 2.911898 1_555
Mn9 Nb8 2.911898 1_455
N0 Nb6 2.172013 1_454
N0 Nb0 2.172013 1_545
N0 Nb2 2.186007 1_544
N0 Nb8 2.186007 1_455
N0 Nb5 2.186013 1_555
N0 Nb11 2.186013 1_444
N1 Nb0 2.172013 1_545
N1 Nb6 2.172013 1_555
N1 Nb10 2.186007 1_555
N1 Nb4 2.186007 1_545
N1 Nb3 2.186015 1_555
N1 Nb9 2.186015 1_545
N2 Nb2 2.190868 1_544
N2 Nb8 2.190868 1_555
N2 Nb4 2.190868 1_545
N2 Nb10 2.190868 1_554
N2 Nb1 2.200310 1_555
N2 Nb7 2.200310 1_544
N3 Nb9 2.190860 1_555
N3 Nb3 2.190860 1_555
N3 Nb11 2.190866 1_555
N3 Nb5 2.190866 1_555
N3 Nb7 2.200310 1_555
N3 Nb1 2.200310 1_555
