# generated using pymatgen
data_NaY(SeO3)4
_symmetry_space_group_name_H-M   'P 1'
_cell_length_a   5.39530425
_cell_length_b   5.39530425
_cell_length_c   7.62614404
_cell_angle_alpha   90.00000000
_cell_angle_beta   90.00000000
_cell_angle_gamma   90.00000000
_symmetry_Int_Tables_number   1
_chemical_formula_structural   NaY(SeO3)4
_chemical_formula_sum   'Na1 Y1 Se4 O12'
_cell_volume   221.99177533
_cell_formula_units_Z   1
loop_
 _symmetry_equiv_pos_site_id
 _symmetry_equiv_pos_as_xyz
  1  'x, y, z'
loop_
 _atom_site_type_symbol
 _atom_site_label
 _atom_site_symmetry_multiplicity
 _atom_site_fract_x
 _atom_site_fract_y
 _atom_site_fract_z
 _atom_site_occupancy
  Na  Na0  1  0.50000000  0.50000000  0.50000000  1
  Y  Y0  1  0.00000000  -0.00000000  -0.00000000  1
  Se  Se0  1  -0.00000000  0.50000000  0.74572401  1
  Se  Se1  1  0.00000000  0.50000000  0.25427599  1
  Se  Se2  1  0.50000000  -0.00000000  0.74572401  1
  Se  Se3  1  0.50000000  -0.00000000  0.25427599  1
  O  O0  1  0.24058110  0.24058110  0.77119561  1
  O  O1  1  0.24058110  0.24058110  0.22880439  1
  O  O2  1  0.75941890  0.75941890  0.22880439  1
  O  O3  1  0.75941890  0.75941890  0.77119561  1
  O  O4  1  0.75941890  0.24058110  0.22880439  1
  O  O5  1  0.75941890  0.24058110  0.77119561  1
  O  O6  1  0.24058110  0.75941890  0.22880439  1
  O  O7  1  0.24058110  0.75941890  0.77119561  1
  O  O8  1  -0.00000000  0.50000000  0.50000000  1
  O  O9  1  -0.00000000  0.50000000  0.00000000  1
  O  O10  1  0.50000000  0.00000000  0.50000000  1
  O  O11  1  0.50000000  -0.00000000  0.00000000  1
loop_
_geom_bond_atom_site_label_1
_geom_bond_atom_site_label_2
_geom_bond_distance
_geom_bond_site_symmetry_2
Na0 O8 2.697652 1_555
Na0 O8 2.697652 1_655
Na0 O10 2.697652 1_555
Na0 O10 2.697652 1_565
Na0 O7 2.862754 1_555
Na0 O0 2.862754 1_555
Na0 O4 2.862754 1_555
Na0 O5 2.862754 1_555
Na0 O1 2.862754 1_555
Na0 O2 2.862754 1_555
Na0 O6 2.862754 1_555
Na0 O3 2.862754 1_555
O0 Se0 1.918740 1_555
O0 Se2 1.918740 1_555
O0 Y0 2.532649 1_556
O1 Se1 1.918740 1_555
O1 Se3 1.918740 1_555
O1 Y0 2.532649 1_555
O2 Se1 1.918740 1_655
O2 Se3 1.918740 1_565
O2 Y0 2.532649 1_665
O3 Se0 1.918740 1_655
O3 Se2 1.918740 1_565
O3 Y0 2.532649 1_666
O4 Se1 1.918740 1_655
O4 Se3 1.918740 1_555
O4 Y0 2.532649 1_655
O5 Se0 1.918740 1_655
O5 Se2 1.918740 1_555
O5 Y0 2.532649 1_656
O6 Se1 1.918740 1_555
O6 Se3 1.918740 1_565
O6 Y0 2.532649 1_565
O7 Se0 1.918740 1_555
O7 Se2 1.918740 1_565
O7 Y0 2.532649 1_566
O8 Se0 1.873927 1_555
O8 Se1 1.873927 1_555
O9 Se0 1.939145 1_554
O9 Se1 1.939145 1_555
O9 Y0 2.697652 1_565
O9 Y0 2.697652 1_555
O10 Se3 1.873927 1_555
O10 Se2 1.873927 1_555
O11 Se3 1.939145 1_555
O11 Se2 1.939145 1_554
O11 Y0 2.697652 1_555
O11 Y0 2.697652 1_655
