# generated using pymatgen
data_Zn2BO4
_symmetry_space_group_name_H-M   'P 1'
_cell_length_a   3.21562900
_cell_length_b   9.34204700
_cell_length_c   9.46417100
_cell_angle_alpha   90.00000000
_cell_angle_beta   90.00000000
_cell_angle_gamma   90.00000000
_symmetry_Int_Tables_number   1
_chemical_formula_structural   Zn2BO4
_chemical_formula_sum   'Zn8 B4 O16'
_cell_volume   284.30897077
_cell_formula_units_Z   4
loop_
 _symmetry_equiv_pos_site_id
 _symmetry_equiv_pos_as_xyz
  1  'x, y, z'
loop_
 _atom_site_type_symbol
 _atom_site_label
 _atom_site_symmetry_multiplicity
 _atom_site_fract_x
 _atom_site_fract_y
 _atom_site_fract_z
 _atom_site_occupancy
  Zn  Zn0  1  0.25000000  0.07020200  0.12059200  1
  Zn  Zn1  1  0.75000000  0.92979800  0.87940800  1
  Zn  Zn2  1  0.75000000  0.57020200  0.37940800  1
  Zn  Zn3  1  0.25000000  0.42979800  0.62059200  1
  Zn  Zn4  1  0.25000000  0.69139500  0.10464700  1
  Zn  Zn5  1  0.75000000  0.30860500  0.89535300  1
  Zn  Zn6  1  0.75000000  0.19139500  0.39535300  1
  Zn  Zn7  1  0.25000000  0.80860500  0.60464700  1
  B  B0  1  0.25000000  0.37685800  0.16388900  1
  B  B1  1  0.75000000  0.62314200  0.83611100  1
  B  B2  1  0.75000000  0.87685800  0.33611100  1
  B  B3  1  0.25000000  0.12314200  0.66388900  1
  O  O0  1  0.25000000  0.25105000  0.24265900  1
  O  O1  1  0.75000000  0.74895000  0.75734100  1
  O  O2  1  0.75000000  0.75105000  0.25734100  1
  O  O3  1  0.25000000  0.24895000  0.74265900  1
  O  O4  1  0.25000000  0.50938500  0.23019000  1
  O  O5  1  0.75000000  0.49061500  0.76981000  1
  O  O6  1  0.75000000  0.00938500  0.26981000  1
  O  O7  1  0.25000000  0.99061500  0.73019000  1
  O  O8  1  0.25000000  0.37084500  0.01903100  1
  O  O9  1  0.75000000  0.62915500  0.98096900  1
  O  O10  1  0.75000000  0.87084500  0.48096900  1
  O  O11  1  0.25000000  0.12915500  0.51903100  1
  O  O12  1  0.25000000  0.61549900  0.51168800  1
  O  O13  1  0.75000000  0.38450100  0.48831200  1
  O  O14  1  0.75000000  0.11549900  0.98831200  1
  O  O15  1  0.25000000  0.88450100  0.01168800  1
loop_
_geom_bond_atom_site_label_1
_geom_bond_atom_site_label_2
_geom_bond_distance
_geom_bond_site_symmetry_2
B0 O8 1.372111 1_555
B0 O4 1.388007 1_555
B0 O0 1.391797 1_555
B1 O9 1.372111 1_555
B1 O5 1.388007 1_555
B1 O1 1.391797 1_555
B2 O10 1.372111 1_555
B2 O6 1.388007 1_565
B2 O2 1.391797 1_555
B3 O11 1.372111 1_555
B3 O7 1.388007 1_545
B3 O3 1.391797 1_555
O0 Zn0 2.046707 1_555
O0 Zn6 2.232494 1_555
O0 Zn6 2.232494 1_455
O1 Zn1 2.046707 1_555
O1 Zn7 2.232494 1_655
O1 Zn7 2.232494 1_555
O2 Zn2 2.046707 1_555
O2 Zn4 2.232494 1_555
O2 Zn4 2.232494 1_655
O3 Zn3 2.046707 1_555
O3 Zn5 2.232494 1_555
O3 Zn5 2.232494 1_455
O4 Zn4 2.074344 1_555
O4 Zn2 2.214102 1_555
O4 Zn2 2.214102 1_455
O5 Zn5 2.074344 1_555
O5 Zn3 2.214102 1_555
O5 Zn3 2.214102 1_655
O6 Zn6 2.074344 1_555
O6 Zn0 2.214102 1_555
O6 Zn0 2.214102 1_655
O7 Zn7 2.074344 1_555
O7 Zn1 2.214102 1_555
O7 Zn1 2.214102 1_455
O8 Zn5 2.072014 1_454
O8 Zn5 2.072014 1_554
O9 Zn4 2.072014 1_556
O9 Zn4 2.072014 1_656
O10 Zn7 2.072014 1_555
O10 Zn7 2.072014 1_655
O11 Zn6 2.072014 1_555
O11 Zn6 2.072014 1_455
O12 Zn7 2.007099 1_555
O12 Zn3 2.017905 1_555
O12 Zn2 2.081212 1_455
O12 Zn2 2.081212 1_555
O13 Zn6 2.007099 1_555
O13 Zn2 2.017905 1_555
O13 Zn3 2.081212 1_555
O13 Zn3 2.081212 1_655
O14 Zn5 2.007099 1_555
O14 Zn1 2.017905 1_545
O14 Zn0 2.081212 1_556
O14 Zn0 2.081212 1_656
O15 Zn4 2.007099 1_555
O15 Zn0 2.017905 1_565
O15 Zn1 2.081212 1_454
O15 Zn1 2.081212 1_554
