# generated using pymatgen
data_DyCo4B
_symmetry_space_group_name_H-M   'P 1'
_cell_length_a   4.99243565
_cell_length_b   4.99395983
_cell_length_c   6.82815700
_cell_angle_alpha   90.00000000
_cell_angle_beta   90.00000000
_cell_angle_gamma   119.98990116
_symmetry_Int_Tables_number   1
_chemical_formula_structural   DyCo4B
_chemical_formula_sum   'Dy2 Co8 B2'
_cell_volume   147.44696465
_cell_formula_units_Z   2
loop_
 _symmetry_equiv_pos_site_id
 _symmetry_equiv_pos_as_xyz
  1  'x, y, z'
loop_
 _atom_site_type_symbol
 _atom_site_label
 _atom_site_symmetry_multiplicity
 _atom_site_fract_x
 _atom_site_fract_y
 _atom_site_fract_z
 _atom_site_occupancy
  Dy  Dy0  1  0.99999000  0.00000000  0.00000000  1
  Dy  Dy1  1  0.99999600  0.00000000  0.50000000  1
  Co  Co0  1  0.33325700  0.66660000  0.00000000  1
  Co  Co1  1  0.66665700  0.33340000  0.00000000  1
  Co  Co2  1  0.49999900  0.00000000  0.28835200  1
  Co  Co3  1  0.49999500  0.50000400  0.28840000  1
  Co  Co4  1  0.99999100  0.49999600  0.28840000  1
  Co  Co5  1  0.49999900  0.00000000  0.71164800  1
  Co  Co6  1  0.49999500  0.50000400  0.71160000  1
  Co  Co7  1  0.99999100  0.49999600  0.71160000  1
  B  B0  1  0.33325900  0.66658800  0.50000000  1
  B  B1  1  0.66667100  0.33341200  0.50000000  1
loop_
_geom_bond_atom_site_label_1
_geom_bond_atom_site_label_2
_geom_bond_distance
_geom_bond_site_symmetry_2
Co0 Co7 2.440190 1_454
Co0 Co4 2.440190 1_455
Co0 Co3 2.440363 1_555
Co0 Co6 2.440363 1_554
Co0 Co2 2.440528 1_565
Co0 Co5 2.440528 1_564
Co0 Dy0 2.882679 1_465
Co0 Dy0 2.882964 1_565
Co0 Dy0 2.883269 1_455
Co1 Co3 2.440190 1_555
Co1 Co6 2.440190 1_554
Co1 Co4 2.440363 1_555
Co1 Co7 2.440363 1_554
Co1 Co2 2.440528 1_555
Co1 Co5 2.440528 1_554
Co1 Dy0 2.882679 1_455
Co1 Dy0 2.882964 1_555
Co1 Dy0 2.883269 1_565
Co2 Dy1 2.884360 1_555
Co2 Dy1 2.884386 1_455
Co3 Dy1 2.884862 1_565
Co3 Dy1 2.884875 1_455
Co4 Dy1 2.884862 1_555
Co4 Dy1 2.884875 1_565
Co5 Dy1 2.884360 1_555
Co5 Dy1 2.884386 1_455
Co6 Dy1 2.884862 1_565
Co6 Dy1 2.884875 1_455
Co7 Dy1 2.884862 1_555
Co7 Dy1 2.884875 1_565
B0 Co4 2.040637 1_455
B0 Co7 2.040637 1_455
B0 Co3 2.040796 1_555
B0 Co6 2.040796 1_555
B0 Co5 2.041620 1_565
B0 Co2 2.041620 1_565
B0 Dy1 2.882714 1_465
B0 Dy1 2.882982 1_565
B0 Dy1 2.883217 1_455
B1 Co3 2.040637 1_555
B1 Co6 2.040637 1_555
B1 Co4 2.040796 1_555
B1 Co7 2.040796 1_555
B1 Co5 2.041620 1_555
B1 Co2 2.041620 1_555
B1 Dy1 2.882714 1_455
B1 Dy1 2.882982 1_555
B1 Dy1 2.883217 1_565
