# generated using pymatgen
data_HoCu5Sn
_symmetry_space_group_name_H-M   'P 1'
_cell_length_a   4.99688800
_cell_length_b   8.21311900
_cell_length_c   10.57952900
_cell_angle_alpha   90.00000000
_cell_angle_beta   90.00000000
_cell_angle_gamma   90.00000000
_symmetry_Int_Tables_number   1
_chemical_formula_structural   HoCu5Sn
_chemical_formula_sum   'Ho4 Cu20 Sn4'
_cell_volume   434.18424863
_cell_formula_units_Z   4
loop_
 _symmetry_equiv_pos_site_id
 _symmetry_equiv_pos_as_xyz
  1  'x, y, z'
loop_
 _atom_site_type_symbol
 _atom_site_label
 _atom_site_symmetry_multiplicity
 _atom_site_fract_x
 _atom_site_fract_y
 _atom_site_fract_z
 _atom_site_occupancy
  Ho  Ho0  1  0.25000000  0.75103200  0.06278100  1
  Ho  Ho1  1  0.75000000  0.24896800  0.93721900  1
  Ho  Ho2  1  0.75000000  0.74896800  0.56278100  1
  Ho  Ho3  1  0.25000000  0.25103200  0.43721900  1
  Cu  Cu0  1  0.25000000  0.81399000  0.74457200  1
  Cu  Cu1  1  0.75000000  0.18601000  0.25542800  1
  Cu  Cu2  1  0.75000000  0.68601000  0.24457200  1
  Cu  Cu3  1  0.25000000  0.31399000  0.75542800  1
  Cu  Cu4  1  0.50175600  0.56584800  0.81302300  1
  Cu  Cu5  1  0.49824400  0.43415200  0.18697700  1
  Cu  Cu6  1  0.49824400  0.93415200  0.31302300  1
  Cu  Cu7  1  0.00175600  0.43415200  0.18697700  1
  Cu  Cu8  1  0.50175600  0.06584800  0.68697700  1
  Cu  Cu9  1  0.99824400  0.56584800  0.81302300  1
  Cu  Cu10  1  0.99824400  0.06584800  0.68697700  1
  Cu  Cu11  1  0.00175600  0.93415200  0.31302300  1
  Cu  Cu12  1  0.25000000  0.91332300  0.51755800  1
  Cu  Cu13  1  0.75000000  0.08667700  0.48244200  1
  Cu  Cu14  1  0.75000000  0.58667700  0.01755800  1
  Cu  Cu15  1  0.25000000  0.41332300  0.98244200  1
  Cu  Cu16  1  0.25000000  0.55870900  0.60172000  1
  Cu  Cu17  1  0.75000000  0.44129100  0.39828000  1
  Cu  Cu18  1  0.75000000  0.94129100  0.10172000  1
  Cu  Cu19  1  0.25000000  0.05870900  0.89828000  1
  Sn  Sn0  1  0.25000000  0.63961900  0.36105100  1
  Sn  Sn1  1  0.75000000  0.36038100  0.63894900  1
  Sn  Sn2  1  0.75000000  0.86038100  0.86105100  1
  Sn  Sn3  1  0.25000000  0.13961900  0.13894900  1
loop_
_geom_bond_atom_site_label_1
_geom_bond_atom_site_label_2
_geom_bond_distance
_geom_bond_site_symmetry_2
Ho0 Sn0 3.285551 1_555
Ho0 Sn3 3.291670 1_565
Ho0 Sn2 3.406412 1_454
Ho0 Sn2 3.406412 1_554
Ho1 Sn1 3.285551 1_555
Ho1 Sn2 3.291670 1_545
Ho1 Sn3 3.406412 1_656
Ho1 Sn3 3.406412 1_556
Ho2 Sn2 3.285551 1_555
Ho2 Sn1 3.291670 1_555
Ho2 Sn0 3.406412 1_655
Ho2 Sn0 3.406412 1_555
Ho3 Sn3 3.285551 1_555
Ho3 Sn0 3.291670 1_555
Ho3 Sn1 3.406412 1_555
Ho3 Sn1 3.406412 1_455
Cu0 Cu8 2.496536 1_565
Cu0 Cu10 2.496536 1_465
Cu0 Cu4 2.502102 1_555
Cu0 Cu9 2.502102 1_455
Cu0 Cu12 2.536484 1_555
Cu0 Cu16 2.584570 1_555
Cu0 Cu19 2.585365 1_565
Cu0 Sn2 2.811750 1_455
Cu0 Sn2 2.811750 1_555
Cu0 Ho2 3.197867 1_555
Cu0 Ho2 3.197867 1_455
Cu0 Ho0 3.405981 1_556
Cu1 Cu11 2.496536 1_645
Cu1 Cu6 2.496536 1_545
Cu1 Cu7 2.502102 1_655
Cu1 Cu5 2.502102 1_555
Cu1 Cu13 2.536484 1_555
Cu1 Cu17 2.584570 1_555
Cu1 Cu18 2.585365 1_545
Cu1 Sn3 2.811750 1_555
Cu1 Sn3 2.811750 1_655
Cu1 Ho3 3.197867 1_655
Cu1 Ho3 3.197867 1_555
Cu1 Ho1 3.405981 1_554
Cu2 Cu7 2.496536 1_655
Cu2 Cu5 2.496536 1_555
Cu2 Cu6 2.502102 1_555
Cu2 Sn0 2.811750 1_555
Cu2 Sn0 2.811750 1_655
Cu2 Ho0 3.197867 1_555
Cu2 Ho0 3.197867 1_655
Cu2 Ho2 3.405981 1_555
Cu3 Cu4 2.496536 1_555
Cu3 Cu9 2.496536 1_455
Cu3 Cu8 2.502102 1_555
Cu3 Sn1 2.811750 1_455
Cu3 Sn1 2.811750 1_555
Cu3 Ho1 3.197867 1_555
Cu3 Ho1 3.197867 1_455
Cu3 Ho3 3.405981 1_555
Cu4 Cu9 2.480895 1_555
Cu4 Cu9 2.515993 1_455
Cu4 Sn2 2.765613 1_555
Cu4 Sn1 2.788910 1_555
Cu4 Ho1 3.168363 1_555
Cu4 Ho2 3.287801 1_555
Cu4 Ho0 3.298132 1_556
Cu5 Cu7 2.480895 1_555
Cu5 Cu7 2.515993 1_655
Cu5 Sn3 2.765613 1_555
Cu5 Sn0 2.788910 1_555
Cu5 Ho0 3.168363 1_555
Cu5 Ho3 3.287801 1_555
Cu5 Ho1 3.298132 1_554
Cu6 Sn0 2.765613 1_555
Cu6 Sn3 2.788910 1_565
Cu6 Ho3 3.168363 1_565
Cu6 Ho0 3.287801 1_555
Cu6 Ho2 3.298132 1_555
Cu7 Sn3 2.765613 1_555
Cu7 Sn0 2.788910 1_555
Cu7 Ho0 3.168363 1_555
Cu7 Ho3 3.287801 1_555
Cu7 Ho1 3.298132 1_454
Cu8 Sn1 2.765613 1_555
Cu8 Sn2 2.788910 1_545
Cu8 Ho2 3.168363 1_545
Cu8 Ho1 3.287801 1_555
Cu8 Ho3 3.298132 1_555
Cu9 Sn2 2.765613 1_555
Cu9 Sn1 2.788910 1_555
Cu9 Ho1 3.168363 1_555
Cu9 Ho2 3.287801 1_555
Cu9 Ho0 3.298132 1_656
Cu10 Cu8 2.480895 1_555
Cu10 Cu13 2.500074 1_555
Cu10 Cu3 2.502102 1_655
Cu10 Cu8 2.515993 1_655
Cu10 Cu12 2.522782 1_645
Cu10 Cu19 2.565812 1_655
Cu10 Sn1 2.765613 1_555
Cu10 Sn2 2.788910 1_545
Cu10 Ho2 3.168363 1_545
Cu10 Ho1 3.287801 1_555
Cu10 Ho3 3.298132 1_655
Cu11 Cu6 2.480895 1_555
Cu11 Cu12 2.500074 1_555
Cu11 Cu2 2.502102 1_455
Cu11 Cu6 2.515993 1_455
Cu11 Cu13 2.522782 1_465
Cu11 Cu18 2.565812 1_455
Cu11 Sn0 2.765613 1_555
Cu11 Sn3 2.788910 1_565
Cu11 Ho3 3.168363 1_565
Cu11 Ho0 3.287801 1_555
Cu11 Ho2 3.298132 1_455
Cu12 Cu6 2.500074 1_555
Cu12 Cu8 2.522782 1_565
Cu12 Sn0 2.791938 1_555
Cu12 Ho2 2.879803 1_555
Cu12 Ho2 2.879803 1_455
Cu12 Ho3 2.900951 1_565
Cu12 Cu16 3.045551 1_555
Cu13 Cu8 2.500074 1_555
Cu13 Cu6 2.522782 1_545
Cu13 Sn1 2.791938 1_555
Cu13 Ho3 2.879803 1_555
Cu13 Ho3 2.879803 1_655
Cu13 Ho2 2.900951 1_545
Cu13 Cu17 3.045551 1_555
Cu14 Cu9 2.500074 1_554
Cu14 Cu4 2.500074 1_554
Cu14 Cu7 2.522782 1_655
Cu14 Cu5 2.522782 1_555
Cu14 Cu2 2.536484 1_555
Cu14 Sn2 2.791938 1_554
Cu14 Ho0 2.879803 1_555
Cu14 Ho0 2.879803 1_655
Cu14 Ho1 2.900951 1_554
Cu14 Cu18 3.045551 1_555
Cu15 Cu5 2.500074 1_556
Cu15 Cu7 2.500074 1_556
Cu15 Cu4 2.522782 1_555
Cu15 Cu9 2.522782 1_455
Cu15 Cu3 2.536484 1_555
Cu15 Sn3 2.791938 1_556
Cu15 Ho1 2.879803 1_555
Cu15 Ho1 2.879803 1_455
Cu15 Ho0 2.900951 1_556
Cu15 Cu19 3.045551 1_555
Cu16 Cu4 2.565812 1_555
Cu16 Cu9 2.565812 1_455
Cu16 Cu3 2.585365 1_555
Cu16 Sn0 2.631453 1_555
Cu16 Ho2 2.975519 1_455
Cu16 Ho2 2.975519 1_555
Cu16 Sn1 3.008428 1_555
Cu16 Sn1 3.008428 1_455
Cu16 Ho3 3.068299 1_555
Cu17 Cu7 2.565812 1_655
Cu17 Cu5 2.565812 1_555
Cu17 Cu2 2.585365 1_555
Cu17 Sn1 2.631453 1_555
Cu17 Ho3 2.975519 1_555
Cu17 Ho3 2.975519 1_655
Cu17 Sn0 3.008428 1_555
Cu17 Sn0 3.008428 1_655
Cu17 Ho2 3.068299 1_555
Cu18 Cu6 2.565812 1_555
Cu18 Cu2 2.584570 1_555
Cu18 Sn2 2.631453 1_554
Cu18 Ho0 2.975519 1_555
Cu18 Ho0 2.975519 1_655
Cu18 Sn3 3.008428 1_665
Cu18 Sn3 3.008428 1_565
Cu18 Ho1 3.068299 1_564
Cu19 Cu8 2.565812 1_555
Cu19 Cu3 2.584570 1_555
Cu19 Sn3 2.631453 1_556
Cu19 Ho1 2.975519 1_555
Cu19 Ho1 2.975519 1_455
Cu19 Sn2 3.008428 1_545
Cu19 Sn2 3.008428 1_445
Cu19 Ho0 3.068299 1_546
