# generated using pymatgen
data_RbVSeO5
_symmetry_space_group_name_H-M   'P 1'
_cell_length_a   7.66504888
_cell_length_b   7.66696681
_cell_length_c   9.35114230
_cell_angle_alpha   85.97579121
_cell_angle_beta   90.00000000
_cell_angle_gamma   90.00000000
_symmetry_Int_Tables_number   1
_chemical_formula_structural   RbVSeO5
_chemical_formula_sum   'Rb4 V4 Se4 O20'
_cell_volume   548.18998498
_cell_formula_units_Z   4
loop_
 _symmetry_equiv_pos_site_id
 _symmetry_equiv_pos_as_xyz
  1  'x, y, z'
loop_
 _atom_site_type_symbol
 _atom_site_label
 _atom_site_symmetry_multiplicity
 _atom_site_fract_x
 _atom_site_fract_y
 _atom_site_fract_z
 _atom_site_occupancy
  Rb  Rb0  1  0.98741052  0.92071462  0.14311871  1
  Rb  Rb1  1  0.48741052  0.07928538  0.85688129  1
  Rb  Rb2  1  0.76437943  0.60668787  0.61010044  1
  Rb  Rb3  1  0.26437943  0.39331213  0.38989956  1
  V  V0  1  0.82672970  0.43415944  0.24448247  1
  V  V1  1  0.32672970  0.56584056  0.75551753  1
  V  V2  1  0.44719488  0.93721469  0.25644575  1
  V  V3  1  0.94719488  0.06278531  0.74355425  1
  Se  Se0  1  0.53246866  0.62407084  0.06582175  1
  Se  Se1  1  0.03246866  0.37592916  0.93417825  1
  Se  Se2  1  0.24465460  0.88210867  0.54237768  1
  Se  Se3  1  0.74465460  0.11789133  0.45762232  1
  O  O0  1  0.85584393  0.90971240  0.84824843  1
  O  O1  1  0.35584393  0.09028760  0.15175157  1
  O  O2  1  0.62963114  0.42138043  0.31996018  1
  O  O3  1  0.12963114  0.57861957  0.68003982  1
  O  O4  1  0.68449315  0.98207321  0.32897417  1
  O  O5  1  0.18449315  0.01792679  0.67102583  1
  O  O6  1  0.31329091  0.76665955  0.27894550  1
  O  O7  1  0.81329091  0.23334045  0.72105450  1
  O  O8  1  0.87486518  0.97319478  0.55753540  1
  O  O9  1  0.37486518  0.02680522  0.44246460  1
  O  O10  1  0.93139794  0.59313968  0.31432433  1
  O  O11  1  0.43139794  0.40686032  0.68567567  1
  O  O12  1  0.90952328  0.22925361  0.36274505  1
  O  O13  1  0.40952328  0.77074639  0.63725495  1
  O  O14  1  0.73771543  0.53079141  0.06002414  1
  O  O15  1  0.23771543  0.46920859  0.93997586  1
  O  O16  1  0.59220156  0.82801625  0.11496048  1
  O  O17  1  0.09220156  0.17198375  0.88503952  1
  O  O18  1  0.99899968  0.32480774  0.11201004  1
  O  O19  1  0.49899968  0.67519226  0.88798996  1
loop_
_geom_bond_atom_site_label_1
_geom_bond_atom_site_label_2
_geom_bond_distance
_geom_bond_site_symmetry_2
O0 V3 1.632433 1_565
O0 Rb0 2.942766 1_556
O0 Rb1 3.112371 1_565
O0 Rb2 3.402154 1_555
O1 V2 1.632433 1_545
O1 Rb1 2.942766 1_554
O1 Rb0 3.112371 1_445
O1 Rb3 3.402154 1_555
O2 V0 1.667476 1_555
O2 Rb3 2.879662 1_555
O2 Rb2 3.314736 1_555
O3 V1 1.667476 1_555
O3 Rb2 2.879662 1_455
O3 Rb3 3.314736 1_555
O4 Se3 1.708811 1_565
O4 V2 1.979753 1_555
O4 Rb0 2.957648 1_555
O5 Se2 1.708811 1_545
O5 V3 1.979753 1_455
O5 Rb1 2.957648 1_555
O6 V2 1.664041 1_555
O6 Rb3 2.998965 1_555
O6 Rb0 3.006196 1_455
O7 V3 1.664041 1_555
O7 Rb2 2.998965 1_555
O7 Rb1 3.006196 1_555
O8 Se3 1.718813 1_565
O8 V3 1.993166 1_565
O8 Rb2 2.942963 1_555
O9 Se2 1.718813 1_545
O9 V2 1.993166 1_545
O9 Rb3 2.942963 1_555
O10 V0 1.633293 1_555
O10 Rb0 2.913888 1_555
O10 Rb3 3.034642 1_655
O10 Rb2 3.056131 1_555
O11 V1 1.633293 1_555
O11 Rb1 2.913888 1_555
O11 Rb2 3.034642 1_555
O11 Rb3 3.056131 1_555
O12 Se3 1.734018 1_555
O12 V0 1.962127 1_555
O12 Rb3 3.014928 1_655
O12 Rb0 3.294252 1_545
O13 Se2 1.734018 1_555
O13 V1 1.962127 1_555
O13 Rb2 3.014928 1_555
O13 Rb1 3.294252 1_565
O14 Se0 1.730575 1_555
O14 V0 1.952006 1_555
O15 Se1 1.730575 1_555
O15 V1 1.952006 1_555
O16 Se0 1.722382 1_555
O16 V2 1.960169 1_555
O16 Rb1 3.086764 1_564
O16 Rb0 3.126875 1_555
O17 Se1 1.722382 1_555
O17 V3 1.960169 1_455
O17 Rb0 3.086764 1_446
O17 Rb1 3.126875 1_555
O18 Se1 1.700968 1_654
O18 V0 2.031461 1_555
O18 Rb0 3.092679 1_545
O18 Rb3 3.370137 1_655
O19 Se0 1.700968 1_556
O19 V1 2.031461 1_555
O19 Rb1 3.092679 1_565
O19 Rb2 3.370137 1_555
