# generated using pymatgen
data_CsIrN2
_symmetry_space_group_name_H-M   'P 1'
_cell_length_a   6.19305900
_cell_length_b   12.35611100
_cell_length_c   16.66595900
_cell_angle_alpha   90.00000000
_cell_angle_beta   90.00000000
_cell_angle_gamma   90.00000000
_symmetry_Int_Tables_number   1
_chemical_formula_structural   CsIrN2
_chemical_formula_sum   'Cs16 Ir16 N32'
_cell_volume   1275.31458840
_cell_formula_units_Z   16
loop_
 _symmetry_equiv_pos_site_id
 _symmetry_equiv_pos_as_xyz
  1  'x, y, z'
loop_
 _atom_site_type_symbol
 _atom_site_label
 _atom_site_symmetry_multiplicity
 _atom_site_fract_x
 _atom_site_fract_y
 _atom_site_fract_z
 _atom_site_occupancy
  Cs  Cs0  1  0.24485100  0.99953000  0.43603000  1
  Cs  Cs1  1  0.74485100  0.50047000  0.56397000  1
  Cs  Cs2  1  0.75514900  0.49953000  0.06397000  1
  Cs  Cs3  1  0.25514900  0.00047000  0.93603000  1
  Cs  Cs4  1  0.75514900  0.00047000  0.56397000  1
  Cs  Cs5  1  0.25514900  0.49953000  0.43603000  1
  Cs  Cs6  1  0.24485100  0.50047000  0.93603000  1
  Cs  Cs7  1  0.74485100  0.99953000  0.06397000  1
  Cs  Cs8  1  0.36199400  0.25131800  0.31058300  1
  Cs  Cs9  1  0.86199400  0.24868200  0.68941700  1
  Cs  Cs10  1  0.63800600  0.75131800  0.18941700  1
  Cs  Cs11  1  0.13800600  0.74868200  0.81058300  1
  Cs  Cs12  1  0.63800600  0.74868200  0.68941700  1
  Cs  Cs13  1  0.13800600  0.75131800  0.31058300  1
  Cs  Cs14  1  0.36199400  0.24868200  0.81058300  1
  Cs  Cs15  1  0.86199400  0.25131800  0.18941700  1
  Ir  Ir0  1  0.74737900  0.00073200  0.31343200  1
  Ir  Ir1  1  0.24737900  0.49926800  0.68656800  1
  Ir  Ir2  1  0.25262100  0.50073200  0.18656800  1
  Ir  Ir3  1  0.75262100  0.99926800  0.81343200  1
  Ir  Ir4  1  0.25262100  0.99926800  0.68656800  1
  Ir  Ir5  1  0.75262100  0.50073200  0.31343200  1
  Ir  Ir6  1  0.74737900  0.49926800  0.81343200  1
  Ir  Ir7  1  0.24737900  0.00073200  0.18656800  1
  Ir  Ir8  1  0.83463600  0.25326800  0.43754400  1
  Ir  Ir9  1  0.33463600  0.24673200  0.56245600  1
  Ir  Ir10  1  0.16536400  0.75326800  0.06245600  1
  Ir  Ir11  1  0.66536400  0.74673200  0.93754400  1
  Ir  Ir12  1  0.16536400  0.74673200  0.56245600  1
  Ir  Ir13  1  0.66536400  0.75326800  0.43754400  1
  Ir  Ir14  1  0.83463600  0.24673200  0.93754400  1
  Ir  Ir15  1  0.33463600  0.25326800  0.06245600  1
  N  N0  1  0.12062000  0.25532900  0.47582300  1
  N  N1  1  0.62062000  0.24467100  0.52417700  1
  N  N2  1  0.87938000  0.75532900  0.02417700  1
  N  N3  1  0.37938000  0.74467100  0.97582300  1
  N  N4  1  0.87938000  0.74467100  0.52417700  1
  N  N5  1  0.37938000  0.75532900  0.47582300  1
  N  N6  1  0.12062000  0.24467100  0.97582300  1
  N  N7  1  0.62062000  0.25532900  0.02417700  1
  N  N8  1  0.73758900  0.38866400  0.39338500  1
  N  N9  1  0.23758900  0.11133600  0.60661500  1
  N  N10  1  0.26241100  0.88866400  0.10661500  1
  N  N11  1  0.76241100  0.61133600  0.89338500  1
  N  N12  1  0.26241100  0.61133600  0.60661500  1
  N  N13  1  0.76241100  0.88866400  0.39338500  1
  N  N14  1  0.73758900  0.11133600  0.89338500  1
  N  N15  1  0.23758900  0.38866400  0.10661500  1
  N  N16  1  0.78689100  0.13497900  0.36788200  1
  N  N17  1  0.28689100  0.36502100  0.63211800  1
  N  N18  1  0.21310900  0.63497900  0.13211800  1
  N  N19  1  0.71310900  0.86502100  0.86788200  1
  N  N20  1  0.21310900  0.86502100  0.63211800  1
  N  N21  1  0.71310900  0.63497900  0.36788200  1
  N  N22  1  0.78689100  0.36502100  0.86788200  1
  N  N23  1  0.28689100  0.13497900  0.13211800  1
  N  N24  1  0.52835800  0.48583200  0.23640300  1
  N  N25  1  0.02835800  0.01416800  0.76359700  1
  N  N26  1  0.47164200  0.98583200  0.26359700  1
  N  N27  1  0.97164200  0.51416800  0.73640300  1
  N  N28  1  0.47164200  0.51416800  0.76359700  1
  N  N29  1  0.97164200  0.98583200  0.23640300  1
  N  N30  1  0.52835800  0.01416800  0.73640300  1
  N  N31  1  0.02835800  0.48583200  0.26359700  1
loop_
_geom_bond_atom_site_label_1
_geom_bond_atom_site_label_2
_geom_bond_distance
_geom_bond_site_symmetry_2
Cs0 N9 3.161165 1_565
Cs0 N5 3.199766 1_555
Cs0 N26 3.203101 1_555
Cs0 N0 3.319887 1_565
Cs0 N13 3.362811 1_455
Cs0 N16 3.483508 1_465
Cs0 N13 3.557456 1_555
Cs0 N20 3.671608 1_555
Cs0 N29 3.736345 1_455
Cs1 N8 3.161165 1_555
Cs1 N4 3.199766 1_555
Cs1 N27 3.203101 1_555
Cs1 N1 3.319887 1_555
Cs1 N12 3.362811 1_555
Cs1 N17 3.483508 1_555
Cs1 N12 3.557456 1_655
Cs1 N21 3.671608 1_555
Cs1 N28 3.736345 1_555
Cs2 N11 3.161165 1_554
Cs2 N7 3.199766 1_555
Cs2 N24 3.203101 1_555
Cs2 N2 3.319887 1_555
Cs2 N15 3.362811 1_655
Cs2 N18 3.483508 1_655
Cs2 N15 3.557456 1_555
Cs2 N22 3.671608 1_554
Cs2 N31 3.736345 1_655
Cs3 N10 3.161165 1_546
Cs3 N6 3.199766 1_555
Cs3 N25 3.203101 1_555
Cs3 N3 3.319887 1_545
Cs3 N14 3.362811 1_555
Cs3 N19 3.483508 1_545
Cs3 N14 3.557456 1_455
Cs3 N23 3.671608 1_556
Cs3 N30 3.736345 1_555
Cs4 N13 3.161165 1_545
Cs4 N1 3.199766 1_555
Cs4 N30 3.203101 1_555
Cs4 N4 3.319887 1_545
Cs4 N9 3.362811 1_655
Cs4 N20 3.483508 1_645
Cs4 N9 3.557456 1_555
Cs4 N16 3.671608 1_555
Cs4 N25 3.736345 1_655
Cs5 N12 3.161165 1_555
Cs5 N0 3.199766 1_555
Cs5 N31 3.203101 1_555
Cs5 N5 3.319887 1_555
Cs5 N8 3.362811 1_555
Cs5 N21 3.483508 1_555
Cs5 N8 3.557456 1_455
Cs5 N17 3.671608 1_555
Cs5 N24 3.736345 1_555
Cs6 N15 3.161165 1_556
Cs6 N3 3.199766 1_555
Cs6 N28 3.203101 1_555
Cs6 N6 3.319887 1_555
Cs6 N11 3.362811 1_455
Cs6 N22 3.483508 1_455
Cs6 N11 3.557456 1_555
Cs6 N18 3.671608 1_556
Cs6 N27 3.736345 1_455
Cs7 N14 3.161165 1_564
Cs7 N2 3.199766 1_555
Cs7 N29 3.203101 1_555
Cs7 N7 3.319887 1_565
Cs7 N10 3.362811 1_555
Cs7 N23 3.483508 1_565
Cs7 N10 3.557456 1_655
Cs7 N19 3.671608 1_554
Cs7 N26 3.736345 1_555
Cs8 N0 3.133829 1_555
Cs8 N16 3.146847 1_555
Cs8 N8 3.192962 1_555
Cs8 N24 3.314584 1_555
Cs8 N23 3.336036 1_555
Cs8 N26 3.440228 1_545
Cs8 N31 3.644042 1_555
Cs9 N1 3.133829 1_555
Cs9 N17 3.146847 1_655
Cs9 N9 3.192962 1_655
Cs9 N25 3.314584 1_655
Cs9 N22 3.336036 1_555
Cs9 N27 3.440228 1_555
Cs9 N30 3.644042 1_555
Cs10 N2 3.133829 1_555
Cs10 N18 3.146847 1_555
Cs10 N10 3.192962 1_555
Cs10 N26 3.314584 1_555
Cs10 N21 3.336036 1_555
Cs10 N24 3.440228 1_555
Cs10 N29 3.644042 1_555
Cs11 N3 3.133829 1_555
Cs11 N19 3.146847 1_455
Cs11 N11 3.192962 1_455
Cs11 N27 3.314584 1_455
Cs11 N20 3.336036 1_555
Cs11 N25 3.440228 1_565
Cs11 N28 3.644042 1_555
Cs12 N4 3.133829 1_555
Cs12 N20 3.146847 1_555
Cs12 N12 3.192962 1_555
Cs12 N28 3.314584 1_555
Cs12 N19 3.336036 1_555
Cs12 N30 3.440228 1_565
Cs12 N27 3.644042 1_555
Cs13 N5 3.133829 1_555
Cs13 N21 3.146847 1_455
Cs13 N13 3.192962 1_455
Cs13 N29 3.314584 1_455
Cs13 N18 3.336036 1_555
Cs13 N31 3.440228 1_555
Cs13 N26 3.644042 1_555
Cs14 N6 3.133829 1_555
Cs14 N22 3.146847 1_555
Cs14 N14 3.192962 1_555
Cs14 N30 3.314584 1_555
Cs14 N17 3.336036 1_555
Cs14 N28 3.440228 1_555
Cs14 N25 3.644042 1_555
Cs15 N7 3.133829 1_555
Cs15 N23 3.146847 1_655
Cs15 N15 3.192962 1_655
Cs15 N31 3.314584 1_655
Cs15 N16 3.336036 1_555
Cs15 N29 3.440228 1_545
Cs15 N24 3.644042 1_555
Ir0 N29 1.900240 1_545
Ir0 N16 1.906537 1_555
Ir0 N26 1.907824 1_545
Ir0 N13 1.923972 1_545
Ir1 N28 1.900240 1_555
Ir1 N17 1.906537 1_555
Ir1 N27 1.907824 1_455
Ir1 N12 1.923972 1_555
Ir2 N31 1.900240 1_555
Ir2 N18 1.906537 1_555
Ir2 N24 1.907824 1_555
Ir2 N15 1.923972 1_555
Ir3 N30 1.900240 1_565
Ir3 N19 1.906537 1_555
Ir3 N25 1.907824 1_665
Ir3 N14 1.923972 1_565
Ir4 N25 1.900240 1_565
Ir4 N20 1.906537 1_555
Ir4 N30 1.907824 1_565
Ir4 N9 1.923972 1_565
Ir5 N24 1.900240 1_555
Ir5 N21 1.906537 1_555
Ir5 N31 1.907824 1_655
Ir5 N8 1.923972 1_555
Ir6 N27 1.900240 1_555
Ir6 N22 1.906537 1_555
Ir6 N28 1.907824 1_555
Ir6 N11 1.923972 1_555
Ir7 N26 1.900240 1_545
Ir7 N23 1.906537 1_555
Ir7 N29 1.907824 1_445
Ir7 N10 1.923972 1_545
Ir8 N0 1.882681 1_655
Ir8 N16 1.889859 1_555
Ir8 N8 1.923972 1_555
Ir8 N1 1.962811 1_555
Ir9 N1 1.882681 1_555
Ir9 N17 1.889859 1_555
Ir9 N9 1.923972 1_555
Ir9 N0 1.962811 1_555
Ir10 N2 1.882681 1_455
Ir10 N18 1.889859 1_555
Ir10 N10 1.923972 1_555
Ir10 N3 1.962811 1_554
Ir11 N3 1.882681 1_555
Ir11 N19 1.889859 1_555
Ir11 N11 1.923972 1_555
Ir11 N2 1.962811 1_556
Ir12 N4 1.882681 1_455
Ir12 N20 1.889859 1_555
Ir12 N12 1.923972 1_555
Ir12 N5 1.962811 1_555
Ir13 N5 1.882681 1_555
Ir13 N21 1.889859 1_555
Ir13 N13 1.923972 1_555
Ir13 N4 1.962811 1_555
Ir14 N6 1.882681 1_655
Ir14 N22 1.889859 1_555
Ir14 N14 1.923972 1_555
Ir14 N7 1.962811 1_556
Ir15 N7 1.882681 1_555
Ir15 N23 1.889859 1_555
Ir15 N15 1.923972 1_555
Ir15 N6 1.962811 1_554
