# generated using pymatgen
data_RbYMg6
_symmetry_space_group_name_H-M   'P 1'
_cell_length_a   5.38095100
_cell_length_b   7.32337300
_cell_length_c   11.84703000
_cell_angle_alpha   90.00000000
_cell_angle_beta   90.00000000
_cell_angle_gamma   90.00000000
_symmetry_Int_Tables_number   1
_chemical_formula_structural   RbYMg6
_chemical_formula_sum   'Rb2 Y2 Mg12'
_cell_volume   466.85249059
_cell_formula_units_Z   2
loop_
 _symmetry_equiv_pos_site_id
 _symmetry_equiv_pos_as_xyz
  1  'x, y, z'
loop_
 _atom_site_type_symbol
 _atom_site_label
 _atom_site_symmetry_multiplicity
 _atom_site_fract_x
 _atom_site_fract_y
 _atom_site_fract_z
 _atom_site_occupancy
  Rb  Rb0  1  0.50000000  0.50000000  0.83317800  1
  Rb  Rb1  1  0.50000000  0.00000000  0.33317800  1
  Y  Y0  1  0.50000000  0.50000000  0.34081700  1
  Y  Y1  1  0.50000000  0.00000000  0.84081700  1
  Mg  Mg0  1  0.50000000  0.25485000  0.08079300  1
  Mg  Mg1  1  0.50000000  0.74515000  0.08079300  1
  Mg  Mg2  1  0.00000000  0.22624100  0.92802100  1
  Mg  Mg3  1  0.00000000  0.77375900  0.92802100  1
  Mg  Mg4  1  0.00000000  0.50000000  0.16360400  1
  Mg  Mg5  1  0.00000000  0.50000000  0.64477600  1
  Mg  Mg6  1  0.50000000  0.75485000  0.58079300  1
  Mg  Mg7  1  0.50000000  0.24515000  0.58079300  1
  Mg  Mg8  1  0.00000000  0.72624100  0.42802100  1
  Mg  Mg9  1  0.00000000  0.27375900  0.42802100  1
  Mg  Mg10  1  0.00000000  0.00000000  0.66360400  1
  Mg  Mg11  1  0.00000000  0.00000000  0.14477600  1
loop_
_geom_bond_atom_site_label_1
_geom_bond_atom_site_label_2
_geom_bond_distance
_geom_bond_site_symmetry_2
Rb0 Y1 3.662805 1_555
Rb0 Y1 3.662805 1_565
Rb1 Y0 3.662805 1_555
Rb1 Y0 3.662805 1_545
Mg0 Mg2 3.249350 1_654
Mg0 Mg2 3.249350 1_554
Mg0 Mg11 3.361033 1_655
Mg0 Mg11 3.361033 1_555
Mg0 Mg4 3.379991 1_655
Mg0 Mg4 3.379991 1_555
Mg0 Y1 3.400878 1_554
Mg0 Rb0 3.439277 1_554
Mg0 Rb1 3.524696 1_555
Mg0 Y0 3.565494 1_555
Mg1 Mg3 3.249350 1_654
Mg1 Mg3 3.249350 1_554
Mg1 Mg11 3.361033 1_565
Mg1 Mg11 3.361033 1_665
Mg1 Mg4 3.379991 1_655
Mg1 Mg4 3.379991 1_555
Mg1 Y1 3.400878 1_564
Mg1 Rb0 3.439277 1_554
Mg1 Rb1 3.524696 1_565
Mg1 Y0 3.565494 1_555
Mg2 Mg3 3.313694 1_545
Mg2 Y1 3.324322 1_455
Mg2 Y1 3.324322 1_555
Mg2 Mg4 3.436398 1_556
Mg2 Rb0 3.538437 1_555
Mg2 Rb0 3.538437 1_455
Mg3 Y1 3.324322 1_565
Mg3 Y1 3.324322 1_465
Mg3 Mg4 3.436398 1_556
Mg3 Rb0 3.538437 1_555
Mg3 Rb0 3.538437 1_455
Mg4 Y0 3.412673 1_455
Mg4 Y0 3.412673 1_555
Mg4 Mg8 3.543734 1_555
Mg4 Mg9 3.543734 1_555
Mg5 Mg8 3.056022 1_555
Mg5 Mg9 3.056022 1_555
Mg5 Mg7 3.361033 1_555
Mg5 Mg6 3.361033 1_455
Mg5 Mg6 3.361033 1_555
Mg5 Mg7 3.361033 1_455
Mg5 Rb0 3.495783 1_455
Mg5 Rb0 3.495783 1_555
Mg6 Mg8 3.249350 1_555
Mg6 Mg8 3.249350 1_655
Mg6 Y0 3.400878 1_555
Mg6 Rb1 3.439277 1_565
Mg6 Rb0 3.524696 1_555
Mg6 Y1 3.565494 1_565
Mg7 Mg9 3.249350 1_555
Mg7 Mg9 3.249350 1_655
Mg7 Y0 3.400878 1_555
Mg7 Rb1 3.439277 1_555
Mg7 Rb0 3.524696 1_555
Mg7 Y1 3.565494 1_555
Mg8 Mg9 3.313694 1_555
Mg8 Y0 3.324322 1_455
Mg8 Y0 3.324322 1_555
Mg8 Rb1 3.538437 1_465
Mg8 Rb1 3.538437 1_565
Mg9 Y0 3.324322 1_455
Mg9 Y0 3.324322 1_555
Mg9 Rb1 3.538437 1_455
Mg9 Rb1 3.538437 1_555
Mg10 Mg6 3.379991 1_445
Mg10 Mg6 3.379991 1_545
Mg10 Mg7 3.379991 1_455
Mg10 Mg7 3.379991 1_555
Mg10 Y1 3.412673 1_555
Mg10 Y1 3.412673 1_455
Mg10 Mg9 3.436398 1_555
Mg10 Mg8 3.436398 1_545
Mg10 Mg2 3.543734 1_555
Mg10 Mg3 3.543734 1_545
Mg11 Mg3 3.056022 1_544
Mg11 Mg2 3.056022 1_554
Mg11 Rb1 3.495783 1_455
Mg11 Rb1 3.495783 1_555
