# generated using pymatgen
data_CrFeS2
_symmetry_space_group_name_H-M   'P 1'
_cell_length_a   3.29334797
_cell_length_b   3.29334797
_cell_length_c   5.31589500
_cell_angle_alpha   90.00000000
_cell_angle_beta   90.00000000
_cell_angle_gamma   119.99999945
_symmetry_Int_Tables_number   1
_chemical_formula_structural   CrFeS2
_chemical_formula_sum   'Cr1 Fe1 S2'
_cell_volume   49.93238023
_cell_formula_units_Z   1
loop_
 _symmetry_equiv_pos_site_id
 _symmetry_equiv_pos_as_xyz
  1  'x, y, z'
loop_
 _atom_site_type_symbol
 _atom_site_label
 _atom_site_symmetry_multiplicity
 _atom_site_fract_x
 _atom_site_fract_y
 _atom_site_fract_z
 _atom_site_occupancy
  Cr  Cr0  1  0.00000000  0.00000000  0.50000000  1
  Fe  Fe0  1  0.00000000  0.00000000  0.00000000  1
  S  S0  1  0.33333300  0.66666700  0.23631000  1
  S  S1  1  0.66666700  0.33333300  0.76369000  1
loop_
_geom_bond_atom_site_label_1
_geom_bond_atom_site_label_2
_geom_bond_distance
_geom_bond_site_symmetry_2
Cr0 S0 2.362260 1_545
Cr0 S1 2.362260 1_455
Cr0 S0 2.362262 1_445
Cr0 S1 2.362262 1_555
Cr0 S1 2.362262 1_445
Cr0 S0 2.362262 1_555
Fe0 S0 2.278905 1_545
Fe0 S1 2.278905 1_454
Fe0 S0 2.278908 1_445
Fe0 S1 2.278908 1_554
Fe0 S0 2.278908 1_555
Fe0 S1 2.278908 1_444
