# generated using pymatgen
data_Li4MnCo2O7
_symmetry_space_group_name_H-M   'P 1'
_cell_length_a   5.13086200
_cell_length_b   5.87826530
_cell_length_c   8.60315161
_cell_angle_alpha   91.65026444
_cell_angle_beta   94.56918277
_cell_angle_gamma   108.80228321
_symmetry_Int_Tables_number   1
_chemical_formula_structural   Li4MnCo2O7
_chemical_formula_sum   'Li8 Mn2 Co4 O14'
_cell_volume   244.44040315
_cell_formula_units_Z   2
loop_
 _symmetry_equiv_pos_site_id
 _symmetry_equiv_pos_as_xyz
  1  'x, y, z'
loop_
 _atom_site_type_symbol
 _atom_site_label
 _atom_site_symmetry_multiplicity
 _atom_site_fract_x
 _atom_site_fract_y
 _atom_site_fract_z
 _atom_site_occupancy
  Li  Li0  1  0.85928100  0.21609200  0.71121800  1
  Li  Li1  1  0.71419000  0.92562900  0.43527900  1
  Li  Li2  1  0.28212400  0.06575900  0.57529800  1
  Li  Li3  1  0.13831400  0.78112500  0.29017100  1
  Li  Li4  1  0.57257100  0.63908300  0.14400300  1
  Li  Li5  1  0.00288300  0.50370800  0.99451600  1
  Li  Li6  1  0.43111200  0.36912200  0.84838900  1
  Li  Li7  1  0.85735400  0.71356900  0.71323200  1
  Mn  Mn0  1  0.99830300  0.99605800  0.99541000  1
  Mn  Mn1  1  0.57224000  0.14484600  0.14404300  1
  Co  Co0  1  0.71574500  0.43129800  0.43251800  1
  Co  Co1  1  0.42690500  0.85388900  0.85342700  1
  Co  Co2  1  0.28598600  0.57145100  0.57168300  1
  Co  Co3  1  0.14325000  0.28686800  0.28798100  1
  O  O0  1  0.15810100  0.02461000  0.80299700  1
  O  O1  1  0.00715300  0.71488500  0.50473000  1
  O  O2  1  0.54129600  0.87190400  0.64733200  1
  O  O3  1  0.40283100  0.59426200  0.36276900  1
  O  O4  1  0.83828400  0.45104500  0.22221900  1
  O  O5  1  0.25750100  0.31083400  0.07759900  1
  O  O6  1  0.72159500  0.15563500  0.93505800  1
  O  O7  1  0.55618000  0.41324000  0.62504900  1
  O  O8  1  0.45030100  0.12590500  0.35314000  1
  O  O9  1  0.02521100  0.26245500  0.49577000  1
  O  O10  1  0.88428500  0.97688700  0.21062400  1
  O  O11  1  0.27808900  0.84385200  0.06067100  1
  O  O12  1  0.70923200  0.70531700  0.92989200  1
  O  O13  1  0.16968200  0.55067100  0.77497900  1
loop_
_geom_bond_atom_site_label_1
_geom_bond_atom_site_label_2
_geom_bond_distance
_geom_bond_site_symmetry_2
Li0 O9 2.089408 1_655
Li0 O6 2.104313 1_555
Li0 O13 2.117786 1_655
Li0 O2 2.173177 1_545
Li0 O0 2.282945 1_655
Li0 O7 2.310560 1_555
Li1 O2 2.079729 1_555
Li1 O3 2.121510 1_555
Li1 O9 2.123502 1_665
Li1 O8 2.154432 1_565
Li1 O10 2.172722 1_555
Li1 O1 2.291504 1_655
Li2 O7 2.082049 1_555
Li2 O2 2.082558 1_545
Li2 O9 2.104028 1_555
Li2 O0 2.104169 1_555
Li2 O1 2.128085 1_545
Li2 O8 2.151167 1_555
Li3 O1 2.020443 1_555
Li3 O3 2.074624 1_555
Li3 O4 2.083795 1_455
Li3 O10 2.088404 1_455
Li3 O11 2.155391 1_555
Li3 O8 2.161197 1_565
Li4 O12 2.026682 1_554
Li4 O4 2.097933 1_555
Li4 O5 2.107482 1_555
Li4 O3 2.124129 1_555
Li4 O10 2.137917 1_555
Li4 O11 2.301143 1_555
Li5 O11 2.074150 1_556
Li5 O5 2.087031 1_556
Li5 O6 2.109406 1_455
Li5 O13 2.123944 1_555
Li5 O4 2.185544 1_456
Li5 O12 2.244810 1_455
Li6 O13 2.040493 1_555
Li6 O0 2.062656 1_555
Li6 O7 2.070942 1_555
Li6 O12 2.091992 1_555
Li6 O5 2.218426 1_556
Li6 O6 2.331243 1_555
Li7 O1 2.006254 1_655
Li7 O7 2.014369 1_555
Li7 O0 2.056852 1_665
Li7 O12 2.064323 1_555
Li7 O13 2.156379 1_655
Li7 O2 2.162008 1_555
Mn0 O0 1.893187 1_665
Mn0 O12 1.901513 1_555
Mn0 O5 1.970015 1_666
Mn0 O11 1.976097 1_656
Mn0 O10 1.981200 1_556
Mn0 O6 1.983499 1_565
Mn1 O4 1.937937 1_555
Mn1 O8 1.945714 1_555
Mn1 O11 1.988946 1_545
Mn1 O6 2.004639 1_554
Mn1 O10 2.184419 1_545
Mn1 O5 2.188007 1_555
Co0 O1 1.893697 1_655
Co0 O7 1.896124 1_555
Co0 O8 1.936265 1_555
Co0 O4 1.956628 1_555
Co0 O9 2.170639 1_655
Co0 O3 2.174038 1_555
Co1 O2 1.906833 1_555
Co1 O13 1.909629 1_555
Co1 O0 1.979759 1_565
Co1 O6 1.988929 1_565
Co1 O11 1.989808 1_556
Co1 O12 1.997658 1_555
Co2 O13 1.887214 1_555
Co2 O2 1.888237 1_555
Co2 O3 1.934294 1_555
Co2 O9 1.934375 1_555
Co2 O7 1.936976 1_555
Co2 O1 1.940020 1_555
Co3 O3 1.923043 1_555
Co3 O9 1.927252 1_555
Co3 O10 1.938355 1_445
Co3 O5 1.941621 1_555
Co3 O8 2.131251 1_555
Co3 O4 2.136277 1_455
