# generated using pymatgen
data_SrLaScO4
_symmetry_space_group_name_H-M   'P 1'
_cell_length_a   6.87002147
_cell_length_b   6.87002147
_cell_length_c   5.89051400
_cell_angle_alpha   90.00000000
_cell_angle_beta   90.00000000
_cell_angle_gamma   130.52829079
_symmetry_Int_Tables_number   1
_chemical_formula_structural   SrLaScO4
_chemical_formula_sum   'Sr2 La2 Sc2 O8'
_cell_volume   211.31564687
_cell_formula_units_Z   2
loop_
 _symmetry_equiv_pos_site_id
 _symmetry_equiv_pos_as_xyz
  1  'x, y, z'
loop_
 _atom_site_type_symbol
 _atom_site_label
 _atom_site_symmetry_multiplicity
 _atom_site_fract_x
 _atom_site_fract_y
 _atom_site_fract_z
 _atom_site_occupancy
  Sr  Sr0  1  0.60496600  0.39503400  0.51322300  1
  Sr  Sr1  1  0.39503400  0.60496600  0.01322300  1
  La  La0  1  0.89149100  0.10850900  0.48188100  1
  La  La1  1  0.10850900  0.89149100  0.98188100  1
  Sc  Sc0  1  0.25447100  0.74552900  0.49589800  1
  Sc  Sc1  1  0.74552900  0.25447100  0.99589800  1
  O  O0  1  0.01633800  0.47517700  0.74341900  1
  O  O1  1  0.98366200  0.52482300  0.24341900  1
  O  O2  1  0.47517700  0.01633800  0.24341900  1
  O  O3  1  0.52482300  0.98366200  0.74341900  1
  O  O4  1  0.58294400  0.41705600  0.93846200  1
  O  O5  1  0.92951800  0.07048200  0.08369800  1
  O  O6  1  0.41705600  0.58294400  0.43846200  1
  O  O7  1  0.07048200  0.92951800  0.58369800  1
loop_
_geom_bond_atom_site_label_1
_geom_bond_atom_site_label_2
_geom_bond_distance
_geom_bond_site_symmetry_2
La0 O7 2.312808 1_645
La0 O5 2.393028 1_555
La0 O0 2.578091 1_655
La0 O3 2.578091 1_545
La0 O1 2.863635 1_555
La0 O2 2.863635 1_555
La0 O6 2.903596 1_545
La0 O6 2.903596 1_655
La1 O5 2.312808 1_466
La1 O7 2.393028 1_555
La1 O2 2.578091 1_566
La1 O1 2.578091 1_456
La1 O3 2.863635 1_555
La1 O0 2.863635 1_555
La1 O4 2.903596 1_455
La1 O4 2.903596 1_565
O0 Sc0 2.074340 1_555
O0 Sc1 2.075088 1_455
O0 Sr1 2.659806 1_556
O0 Sr0 2.847202 1_455
O1 Sc1 2.074340 1_554
O1 Sc0 2.075088 1_655
O1 Sr0 2.659806 1_555
O1 Sr1 2.847202 1_655
O2 Sc1 2.074340 1_554
O2 Sc0 2.075088 1_545
O2 Sr0 2.659806 1_555
O2 Sr1 2.847202 1_545
O3 Sc0 2.074340 1_555
O3 Sc1 2.075088 1_565
O3 Sr1 2.659806 1_556
O3 Sr0 2.847202 1_565
O4 Sc1 2.056969 1_555
O4 Sr1 2.385987 1_556
O4 Sr0 2.519907 1_555
O5 Sc1 2.353590 1_554
O5 Sr1 2.936188 1_655
O5 Sr1 2.936188 1_545
O6 Sc0 2.056969 1_555
O6 Sr0 2.385987 1_555
O6 Sr1 2.519907 1_555
O7 Sc0 2.353590 1_555
O7 Sr0 2.936188 1_565
O7 Sr0 2.936188 1_455
