# generated using pymatgen
data_ThAlCo
_symmetry_space_group_name_H-M   'P 1'
_cell_length_a   7.33881968
_cell_length_b   7.33881968
_cell_length_c   3.47187300
_cell_angle_alpha   90.00000000
_cell_angle_beta   90.00000000
_cell_angle_gamma   95.67735832
_symmetry_Int_Tables_number   1
_chemical_formula_structural   ThAlCo
_chemical_formula_sum   'Th3 Al3 Co3'
_cell_volume   186.07185813
_cell_formula_units_Z   3
loop_
 _symmetry_equiv_pos_site_id
 _symmetry_equiv_pos_as_xyz
  1  'x, y, z'
loop_
 _atom_site_type_symbol
 _atom_site_label
 _atom_site_symmetry_multiplicity
 _atom_site_fract_x
 _atom_site_fract_y
 _atom_site_fract_z
 _atom_site_occupancy
  Th  Th0  1  0.28223600  0.34769600  0.00000000  1
  Th  Th1  1  0.65230400  0.71776400  0.00000000  1
  Th  Th2  1  0.97290800  0.02709200  0.50000000  1
  Al  Al0  1  0.72877900  0.27122100  0.00000000  1
  Al  Al1  1  0.06046300  0.67668100  0.00000000  1
  Al  Al2  1  0.32331900  0.93953700  0.00000000  1
  Co  Co0  1  0.56001900  0.43998100  0.50000000  1
  Co  Co1  1  0.90744300  0.48737000  0.50000000  1
  Co  Co2  1  0.51263000  0.09255700  0.50000000  1
loop_
_geom_bond_atom_site_label_1
_geom_bond_atom_site_label_2
_geom_bond_distance
_geom_bond_site_symmetry_2
Al0 Co0 2.526800 1_555
Al0 Co0 2.526800 1_554
Al0 Co2 2.614850 1_555
Al0 Co2 2.614850 1_554
Al0 Co1 2.614850 1_555
Al0 Co1 2.614850 1_554
Al0 Th2 3.173068 1_555
Al0 Th2 3.173068 1_554
Al1 Co1 2.428187 1_455
Al1 Co1 2.428187 1_454
Al1 Al2 2.589639 1_555
Al1 Th1 3.040072 1_455
Al1 Th0 3.042290 1_555
Al1 Th2 3.219692 1_465
Al1 Th2 3.219692 1_464
Al2 Co2 2.428187 1_564
Al2 Co2 2.428187 1_565
Al2 Th0 3.040072 1_565
Al2 Th1 3.042290 1_555
Al2 Th2 3.219692 1_465
Al2 Th2 3.219692 1_464
Co0 Co1 2.538974 1_555
Co0 Co2 2.538974 1_555
Co0 Th1 2.711988 1_556
Co0 Th1 2.711988 1_555
Co0 Th0 2.711988 1_555
Co0 Th0 2.711988 1_556
Co1 Th2 3.458626 1_555
Co2 Th2 3.458626 1_555
