# generated using pymatgen
data_Fe14Cu7(PO4)18
_symmetry_space_group_name_H-M   'P 1'
_cell_length_a   9.89190200
_cell_length_b   11.13135937
_cell_length_c   12.87022627
_cell_angle_alpha   70.88029253
_cell_angle_beta   72.27074583
_cell_angle_gamma   78.71324264
_symmetry_Int_Tables_number   1
_chemical_formula_structural   Fe14Cu7(PO4)18
_chemical_formula_sum   'Fe14 Cu7 P18 O72'
_cell_volume   1268.10363953
_cell_formula_units_Z   1
loop_
 _symmetry_equiv_pos_site_id
 _symmetry_equiv_pos_as_xyz
  1  'x, y, z'
loop_
 _atom_site_type_symbol
 _atom_site_label
 _atom_site_symmetry_multiplicity
 _atom_site_fract_x
 _atom_site_fract_y
 _atom_site_fract_z
 _atom_site_occupancy
  Fe  Fe0  1  0.01568900  0.53321100  0.86801100  1
  Fe  Fe1  1  0.34893400  0.19914300  0.53473000  1
  Fe  Fe2  1  0.68229700  0.86661200  0.20104200  1
  Fe  Fe3  1  0.65106600  0.80085700  0.46527000  1
  Fe  Fe4  1  0.98431100  0.46678900  0.13198900  1
  Fe  Fe5  1  0.31770300  0.13338800  0.79895800  1
  Fe  Fe6  1  0.90228500  0.37701000  0.57313300  1
  Fe  Fe7  1  0.23550100  0.04371900  0.23972100  1
  Fe  Fe8  1  0.56924200  0.71059900  0.90633100  1
  Fe  Fe9  1  0.76449900  0.95628100  0.76027900  1
  Fe  Fe10  1  0.09771500  0.62299000  0.42686700  1
  Fe  Fe11  1  0.43075800  0.28940100  0.09366900  1
  Fe  Fe12  1  0.33336100  0.66684100  0.66644100  1
  Fe  Fe13  1  0.66663900  0.33315900  0.33355900  1
  Cu  Cu0  1  0.88899900  0.30777200  0.84093100  1
  Cu  Cu1  1  0.22103400  0.97497400  0.50706900  1
  Cu  Cu2  1  0.55427400  0.64163600  0.17372900  1
  Cu  Cu3  1  0.77896600  0.02502600  0.49293100  1
  Cu  Cu4  1  0.11100100  0.69222800  0.15906900  1
  Cu  Cu5  1  0.44572600  0.35836400  0.82627100  1
  Cu  Cu6  1  0.00000000  0.00000000  0.00000000  1
  P  P0  1  0.82599600  0.57870100  0.34248800  1
  P  P1  1  0.15729100  0.24237000  0.00898600  1
  P  P2  1  0.49245900  0.91195600  0.67587400  1
  P  P3  1  0.84270900  0.75763000  0.99101400  1
  P  P4  1  0.17400400  0.42129900  0.65751200  1
  P  P5  1  0.50754100  0.08804400  0.32412600  1
  P  P6  1  0.99993400  0.77190800  0.62897200  1
  P  P7  1  0.33322300  0.43851500  0.29574900  1
  P  P8  1  0.66585200  0.10573800  0.96196500  1
  P  P9  1  0.66677700  0.56148500  0.70425100  1
  P  P10  1  0.00006600  0.22809200  0.37102800  1
  P  P11  1  0.33414800  0.89426200  0.03803500  1
  P  P12  1  0.94949200  0.90284700  0.27905000  1
  P  P13  1  0.28257800  0.56950200  0.94628800  1
  P  P14  1  0.61590400  0.23611000  0.61293400  1
  P  P15  1  0.71742200  0.43049800  0.05371200  1
  P  P16  1  0.05050800  0.09715300  0.72095000  1
  P  P17  1  0.38409600  0.76389000  0.38706600  1
  O  O0  1  0.74465100  0.71562300  0.33956400  1
  O  O1  1  0.07687000  0.38007900  0.00662500  1
  O  O2  1  0.41133000  0.04906300  0.67275200  1
  O  O3  1  0.92313000  0.61992100  0.99337500  1
  O  O4  1  0.25534900  0.28437700  0.66043600  1
  O  O5  1  0.58867000  0.95093700  0.32724800  1
  O  O6  1  0.72540800  0.48470700  0.35846600  1
  O  O7  1  0.05485000  0.14930700  0.02460400  1
  O  O8  1  0.39144000  0.81815900  0.69235000  1
  O  O9  1  0.94515000  0.85069300  0.97539600  1
  O  O10  1  0.27459200  0.51529300  0.64153400  1
  O  O11  1  0.60856000  0.18184100  0.30765000  1
  O  O12  1  0.83443200  0.90230700  0.39445800  1
  O  O13  1  0.16693300  0.56918300  0.06114400  1
  O  O14  1  0.50039700  0.23617700  0.72763300  1
  O  O15  1  0.83306700  0.43081700  0.93885600  1
  O  O16  1  0.16556800  0.09769300  0.60554200  1
  O  O17  1  0.49960300  0.76382300  0.27236700  1
  O  O18  1  0.71367600  0.33750800  0.58282100  1
  O  O19  1  0.04722400  0.00406600  0.24959400  1
  O  O20  1  0.38039400  0.67081200  0.91641200  1
  O  O21  1  0.95277600  0.99593400  0.75040600  1
  O  O22  1  0.28632400  0.66249200  0.41717900  1
  O  O23  1  0.61960600  0.32918800  0.08358800  1
  O  O24  1  0.00300300  0.71991100  0.53180700  1
  O  O25  1  0.33641900  0.38651700  0.19841000  1
  O  O26  1  0.66899100  0.05326900  0.86502300  1
  O  O27  1  0.66358100  0.61348300  0.80159000  1
  O  O28  1  0.99699700  0.28008900  0.46819300  1
  O  O29  1  0.33100900  0.94673100  0.13497700  1
  O  O30  1  0.14771500  0.81710600  0.61160400  1
  O  O31  1  0.48116000  0.48355400  0.27832600  1
  O  O32  1  0.81201400  0.15330800  0.94391400  1
  O  O33  1  0.51884000  0.51644600  0.72167400  1
  O  O34  1  0.85228500  0.18289400  0.38839600  1
  O  O35  1  0.18798600  0.84669200  0.05608600  1
  O  O36  1  0.79080500  0.45214800  0.70157100  1
  O  O37  1  0.12418900  0.11863800  0.36833700  1
  O  O38  1  0.45936500  0.78544600  0.03491900  1
  O  O39  1  0.87581100  0.88136200  0.63166300  1
  O  O40  1  0.20919500  0.54785200  0.29842900  1
  O  O41  1  0.54063500  0.21455400  0.96508100  1
  O  O42  1  0.62856000  0.56662900  0.04024700  1
  O  O43  1  0.96152800  0.23366700  0.70709900  1
  O  O44  1  0.29471700  0.89979100  0.37358400  1
  O  O45  1  0.03847200  0.76633300  0.29290100  1
  O  O46  1  0.37144000  0.43337100  0.95975300  1
  O  O47  1  0.70528300  0.10020900  0.62641600  1
  O  O48  1  0.97206800  0.66863100  0.74510300  1
  O  O49  1  0.30569100  0.33502400  0.41177600  1
  O  O50  1  0.63953800  0.00240400  0.07796000  1
  O  O51  1  0.69430900  0.66497600  0.58822400  1
  O  O52  1  0.02793200  0.33136900  0.25489700  1
  O  O53  1  0.36046200  0.99759600  0.92204000  1
  O  O54  1  0.06117300  0.40766500  0.77643800  1
  O  O55  1  0.39522000  0.07396200  0.44305500  1
  O  O56  1  0.72965400  0.74183100  0.10964400  1
  O  O57  1  0.60478000  0.92603800  0.55694500  1
  O  O58  1  0.93882700  0.59233500  0.22356200  1
  O  O59  1  0.27034600  0.25816900  0.89035600  1
  O  O60  1  0.87495400  0.92606000  0.18180900  1
  O  O61  1  0.20809500  0.59263400  0.84883300  1
  O  O62  1  0.54162700  0.25922800  0.51533000  1
  O  O63  1  0.79190500  0.40736600  0.15116700  1
  O  O64  1  0.12504600  0.07394000  0.81819100  1
  O  O65  1  0.45837300  0.74077200  0.48467000  1
  O  O66  1  0.90827300  0.54115900  0.43668200  1
  O  O67  1  0.23967700  0.20618500  0.10322600  1
  O  O68  1  0.57494200  0.87452600  0.77004700  1
  O  O69  1  0.76032300  0.79381500  0.89677400  1
  O  O70  1  0.09172700  0.45884100  0.56331800  1
  O  O71  1  0.42505800  0.12547400  0.22995300  1
loop_
_geom_bond_atom_site_label_1
_geom_bond_atom_site_label_2
_geom_bond_distance
_geom_bond_site_symmetry_2
Fe0 O48 1.886737 1_455
Fe0 O54 2.013536 1_555
Fe0 O3 2.036593 1_455
Fe0 O61 2.054406 1_555
Fe0 O15 2.125052 1_455
Fe0 O1 2.171663 1_556
Fe1 O49 1.888367 1_555
Fe1 O55 2.010391 1_555
Fe1 O4 2.030815 1_555
Fe1 O62 2.059774 1_555
Fe1 O16 2.125246 1_555
Fe1 O2 2.155794 1_555
Fe2 O50 1.887401 1_565
Fe2 O56 2.003111 1_555
Fe2 O5 2.029644 1_555
Fe2 O60 2.056712 1_555
Fe2 O17 2.128084 1_555
Fe2 O0 2.164413 1_555
Fe3 O51 1.888367 1_555
Fe3 O57 2.010391 1_555
Fe3 O0 2.030815 1_555
Fe3 O65 2.059774 1_555
Fe3 O12 2.125246 1_555
Fe3 O5 2.155794 1_555
Fe4 O52 1.886737 1_655
Fe4 O58 2.013536 1_555
Fe4 O1 2.036593 1_655
Fe4 O63 2.054406 1_555
Fe4 O13 2.125052 1_655
Fe4 O3 2.171663 1_554
Fe5 O53 1.887401 1_545
Fe5 O59 2.003111 1_555
Fe5 O2 2.029644 1_555
Fe5 O64 2.056712 1_555
Fe5 O14 2.128084 1_555
Fe5 O4 2.164413 1_555
Fe6 O28 1.911556 1_555
Fe6 O18 1.957872 1_555
Fe6 O36 2.020536 1_555
Fe6 O66 2.074414 1_555
Fe6 O43 2.075886 1_555
Fe6 O70 2.192249 1_655
Fe7 O29 1.911522 1_545
Fe7 O19 1.954606 1_555
Fe7 O37 2.020582 1_555
Fe7 O67 2.064506 1_555
Fe7 O44 2.077787 1_545
Fe7 O71 2.193022 1_555
Fe8 O27 1.910572 1_555
Fe8 O20 1.959909 1_555
Fe8 O38 2.016835 1_556
Fe8 O68 2.071892 1_555
Fe8 O42 2.078833 1_556
Fe8 O69 2.216976 1_555
Fe9 O26 1.911522 1_565
Fe9 O21 1.954606 1_555
Fe9 O39 2.020582 1_555
Fe9 O69 2.064506 1_555
Fe9 O47 2.077787 1_565
Fe9 O68 2.193022 1_555
Fe10 O24 1.911556 1_555
Fe10 O22 1.957872 1_555
Fe10 O40 2.020536 1_555
Fe10 O70 2.074414 1_555
Fe10 O45 2.075886 1_555
Fe10 O66 2.192249 1_455
Fe11 O25 1.910572 1_555
Fe11 O23 1.959909 1_555
Fe11 O41 2.016835 1_554
Fe11 O71 2.071892 1_555
Fe11 O46 2.078833 1_554
Fe11 O67 2.216976 1_555
Fe12 O10 2.034227 1_555
Fe12 O8 2.035137 1_555
Fe12 O65 2.248250 1_555
Fe12 O61 2.255444 1_555
Fe12 O30 2.341339 1_555
Fe12 O33 2.342357 1_555
Fe13 O6 2.034227 1_555
Fe13 O11 2.035137 1_555
Fe13 O62 2.248250 1_555
Fe13 O63 2.255444 1_555
Fe13 O34 2.341339 1_555
Fe13 O31 2.342357 1_555
Cu0 O32 1.922991 1_555
Cu0 O54 2.025276 1_655
Cu0 O43 2.026938 1_555
Cu0 O15 2.044498 1_555
Cu0 O36 2.303249 1_555
Cu1 O30 1.944214 1_555
Cu1 O44 2.030653 1_555
Cu1 O55 2.036084 1_565
Cu1 O16 2.047081 1_565
Cu1 O37 2.287952 1_565
Cu2 O31 1.945540 1_555
Cu2 O42 2.029541 1_555
Cu2 O17 2.044265 1_555
Cu2 O56 2.053577 1_555
Cu2 O38 2.279335 1_555
Cu3 O34 1.944214 1_555
Cu3 O47 2.030653 1_555
Cu3 O57 2.036084 1_545
Cu3 O12 2.047081 1_545
Cu3 O39 2.287952 1_545
Cu4 O35 1.922991 1_555
Cu4 O58 2.025276 1_455
Cu4 O45 2.026938 1_555
Cu4 O13 2.044498 1_555
Cu4 O40 2.303249 1_555
Cu5 O33 1.945540 1_555
Cu5 O46 2.029541 1_555
Cu5 O14 2.044265 1_555
Cu5 O59 2.053577 1_555
Cu5 O41 2.279335 1_555
Cu6 O7 1.989785 1_555
Cu6 O9 1.989785 1_444
Cu6 O60 2.248734 1_445
Cu6 O64 2.248734 1_554
Cu6 O35 2.378979 1_545
Cu6 O32 2.378979 1_454
O0 P0 1.572470 1_555
O1 P1 1.578097 1_555
O2 P2 1.573193 1_545
O3 P3 1.578097 1_555
O4 P4 1.572470 1_555
O5 P5 1.573193 1_565
O6 P0 1.506312 1_555
O7 P1 1.513547 1_555
O8 P2 1.505967 1_555
O9 P3 1.513547 1_555
O10 P4 1.506312 1_555
O11 P5 1.505967 1_555
O12 P12 1.571263 1_555
O13 P13 1.569087 1_554
O14 P14 1.567738 1_555
O15 P15 1.569087 1_556
O16 P16 1.571263 1_555
O17 P17 1.567738 1_555
O18 P14 1.507315 1_555
O19 P12 1.507033 1_445
O20 P13 1.507413 1_555
O21 P16 1.507033 1_665
O22 P17 1.507315 1_555
O23 P15 1.507413 1_555
O24 P6 1.530988 1_455
O25 P7 1.532708 1_555
O26 P8 1.531475 1_555
O27 P9 1.532708 1_555
O28 P10 1.530988 1_655
O29 P11 1.531475 1_555
O30 P6 1.566927 1_455
O31 P7 1.567415 1_555
O32 P8 1.561820 1_555
O33 P9 1.567415 1_555
O34 P10 1.566927 1_655
O35 P11 1.561820 1_555
O36 P9 1.550774 1_555
O37 P10 1.552202 1_555
O38 P11 1.554761 1_555
O39 P6 1.552202 1_555
O40 P7 1.550774 1_555
O41 P8 1.554761 1_555
O42 P15 1.580588 1_555
O43 P16 1.584359 1_655
O44 P17 1.580564 1_555
O45 P12 1.584359 1_455
O46 P13 1.580588 1_555
O47 P14 1.580564 1_555
O48 P6 1.542414 1_555
O49 P7 1.542527 1_555
O50 P8 1.541152 1_554
O51 P9 1.542527 1_555
O52 P10 1.542414 1_555
O53 P11 1.541152 1_556
O54 P4 1.576448 1_555
O55 P5 1.573896 1_555
O56 P3 1.572855 1_554
O57 P2 1.573896 1_555
O58 P0 1.576448 1_555
O59 P1 1.572855 1_556
O60 P12 1.565976 1_555
O61 P13 1.568224 1_555
O62 P14 1.568572 1_555
O63 P15 1.568224 1_555
O64 P16 1.565976 1_555
O65 P17 1.568572 1_555
O66 P0 1.562883 1_555
O67 P1 1.565557 1_555
O68 P2 1.564202 1_555
O69 P3 1.565557 1_555
O70 P4 1.562883 1_555
O71 P5 1.564202 1_555
