# generated using pymatgen
data_Mg6TiV
_symmetry_space_group_name_H-M   'P 1'
_cell_length_a   4.86526600
_cell_length_b   6.13557700
_cell_length_c   10.98076600
_cell_angle_alpha   90.00000000
_cell_angle_beta   90.00000000
_cell_angle_gamma   90.00000000
_symmetry_Int_Tables_number   1
_chemical_formula_structural   Mg6TiV
_chemical_formula_sum   'Mg12 Ti2 V2'
_cell_volume   327.78919760
_cell_formula_units_Z   2
loop_
 _symmetry_equiv_pos_site_id
 _symmetry_equiv_pos_as_xyz
  1  'x, y, z'
loop_
 _atom_site_type_symbol
 _atom_site_label
 _atom_site_symmetry_multiplicity
 _atom_site_fract_x
 _atom_site_fract_y
 _atom_site_fract_z
 _atom_site_occupancy
  Mg  Mg0  1  0.00000000  0.74215600  0.08077100  1
  Mg  Mg1  1  0.00000000  0.25784400  0.08077100  1
  Mg  Mg2  1  0.00000000  0.00000000  0.33035100  1
  Mg  Mg3  1  0.50000000  0.25858900  0.42027400  1
  Mg  Mg4  1  0.50000000  0.74141100  0.42027400  1
  Mg  Mg5  1  0.50000000  0.00000000  0.16757300  1
  Mg  Mg6  1  0.00000000  0.24215600  0.58077100  1
  Mg  Mg7  1  0.00000000  0.75784400  0.58077100  1
  Mg  Mg8  1  0.00000000  0.50000000  0.83035100  1
  Mg  Mg9  1  0.50000000  0.75858900  0.92027400  1
  Mg  Mg10  1  0.50000000  0.24141100  0.92027400  1
  Mg  Mg11  1  0.50000000  0.50000000  0.66757300  1
  Ti  Ti0  1  0.50000000  0.50000000  0.18536700  1
  Ti  Ti1  1  0.50000000  0.00000000  0.68536700  1
  V  V0  1  0.00000000  0.50000000  0.31461900  1
  V  V1  1  0.00000000  0.00000000  0.81461900  1
loop_
_geom_bond_atom_site_label_1
_geom_bond_atom_site_label_2
_geom_bond_distance
_geom_bond_site_symmetry_2
Mg0 V0 2.966691 1_555
Mg0 Mg1 2.971534 1_555
Mg0 Mg9 3.005637 1_454
Mg0 Mg9 3.005637 1_554
Mg0 Mg5 3.054340 1_465
Mg0 Mg5 3.054340 1_565
Mg0 Ti0 3.073168 1_555
Mg0 Ti0 3.073168 1_455
Mg0 Mg8 3.125527 1_554
Mg0 Mg1 3.164043 1_565
Mg0 Mg2 3.164422 1_565
Mg0 V1 3.323268 1_564
Mg1 V0 2.966691 1_555
Mg1 Mg10 3.005637 1_454
Mg1 Mg10 3.005637 1_554
Mg1 Mg5 3.054340 1_555
Mg1 Mg5 3.054340 1_455
Mg1 Ti0 3.073168 1_455
Mg1 Ti0 3.073168 1_555
Mg1 Mg8 3.125527 1_554
Mg1 Mg2 3.164422 1_555
Mg1 V1 3.323268 1_554
Mg2 Mg5 3.018708 1_455
Mg2 Mg5 3.018708 1_555
Mg2 Mg3 3.067570 1_555
Mg2 Mg4 3.067570 1_445
Mg2 Mg4 3.067570 1_545
Mg2 Mg3 3.067570 1_455
Mg2 V0 3.072648 1_545
Mg2 V0 3.072648 1_555
Mg2 Mg7 3.125527 1_545
Mg2 Mg6 3.125527 1_555
Mg3 Mg4 2.962392 1_555
Mg3 Ti0 2.974483 1_555
Mg3 Mg6 3.005637 1_655
Mg3 Mg6 3.005637 1_555
Mg3 V0 3.075328 1_555
Mg3 V0 3.075328 1_655
Mg3 Mg4 3.173185 1_545
Mg3 Mg5 3.196415 1_555
Mg3 Ti1 3.315231 1_555
Mg4 Ti0 2.974483 1_555
Mg4 Mg7 3.005637 1_555
Mg4 Mg7 3.005637 1_655
Mg4 V0 3.075328 1_555
Mg4 V0 3.075328 1_655
Mg4 Mg5 3.196415 1_565
Mg4 Ti1 3.315231 1_565
Mg5 Ti0 3.074005 1_545
Mg5 Ti0 3.074005 1_555
Mg5 Mg9 3.093228 1_544
Mg6 V1 2.966691 1_555
Mg6 Mg7 2.971534 1_545
Mg6 Ti1 3.073168 1_555
Mg6 Ti1 3.073168 1_455
Mg6 Mg7 3.164043 1_555
Mg6 Mg8 3.164422 1_555
Mg6 V0 3.323268 1_555
Mg7 V1 2.966691 1_565
Mg7 Ti1 3.073168 1_465
Mg7 Ti1 3.073168 1_565
Mg7 Mg8 3.164422 1_555
Mg7 V0 3.323268 1_555
Mg8 Mg9 3.067570 1_555
Mg8 Mg9 3.067570 1_455
Mg8 V1 3.072648 1_565
Mg8 V1 3.072648 1_555
Mg9 Ti1 2.974483 1_565
Mg9 V1 3.075328 1_565
Mg9 V1 3.075328 1_665
Mg9 Ti0 3.315231 1_556
Mg10 Mg9 2.962392 1_545
Mg10 Ti1 2.974483 1_555
Mg10 Mg8 3.067570 1_655
Mg10 Mg8 3.067570 1_555
Mg10 V1 3.075328 1_555
Mg10 V1 3.075328 1_655
Mg10 Mg5 3.093228 1_556
Mg10 Mg9 3.173185 1_555
Mg10 Mg11 3.196415 1_555
Mg10 Ti0 3.315231 1_556
Mg11 Mg8 3.018708 1_655
Mg11 Mg8 3.018708 1_555
Mg11 Mg7 3.054340 1_555
Mg11 Mg6 3.054340 1_655
Mg11 Mg7 3.054340 1_655
Mg11 Mg6 3.054340 1_555
Mg11 Ti1 3.074005 1_555
Mg11 Ti1 3.074005 1_565
Mg11 Mg3 3.093228 1_555
Mg11 Mg4 3.093228 1_555
Mg11 Mg9 3.196415 1_555
Ti0 V0 2.816394 1_655
Ti0 V0 2.816394 1_555
Ti1 V1 2.816394 1_555
Ti1 V1 2.816394 1_655
