# generated using pymatgen
data_NdB2Ir3
_symmetry_space_group_name_H-M   'P 1'
_cell_length_a   5.93478846
_cell_length_b   11.31133342
_cell_length_c   11.31133342
_cell_angle_alpha   119.99846958
_cell_angle_beta   90.01877299
_cell_angle_gamma   90.01877299
_symmetry_Int_Tables_number   1
_chemical_formula_structural   NdB2Ir3
_chemical_formula_sum   'Nd8 B16 Ir24'
_cell_volume   657.61254178
_cell_formula_units_Z   8
loop_
 _symmetry_equiv_pos_site_id
 _symmetry_equiv_pos_as_xyz
  1  'x, y, z'
loop_
 _atom_site_type_symbol
 _atom_site_label
 _atom_site_symmetry_multiplicity
 _atom_site_fract_x
 _atom_site_fract_y
 _atom_site_fract_z
 _atom_site_occupancy
  Nd  Nd0_0  1  0.25000000  0.25000000  0.25000000  1
  Nd  Nd0_1  1  0.25000000  0.25000000  0.75000000  1
  Nd  Nd0_2  1  0.25000000  0.75000000  0.25000000  1
  Nd  Nd0_3  1  0.25000000  0.75000000  0.75000000  1
  Nd  Nd0_4  1  0.75000000  0.25000000  0.25000000  1
  Nd  Nd0_5  1  0.75000000  0.25000000  0.75000000  1
  Nd  Nd0_6  1  0.75000000  0.75000000  0.25000000  1
  Nd  Nd0_7  1  0.75000000  0.75000000  0.75000000  1
  B  B0_0  1  0.25000000  0.41663940  0.08336061  1
  B  B0_1  1  0.25000000  0.41663940  0.58336061  1
  B  B0_2  1  0.25000000  0.91663940  0.08336061  1
  B  B0_3  1  0.25000000  0.91663939  0.58336060  1
  B  B0_4  1  0.75000000  0.41663940  0.08336061  1
  B  B0_5  1  0.75000000  0.41663940  0.58336060  1
  B  B0_6  1  0.75000000  0.91663940  0.08336060  1
  B  B0_7  1  0.75000000  0.91663939  0.58336060  1
  B  B1_0  1  0.25000000  0.08336060  0.41663940  1
  B  B1_1  1  0.25000000  0.08336060  0.91663940  1
  B  B1_2  1  0.25000000  0.58336060  0.41663940  1
  B  B1_3  1  0.25000000  0.58336060  0.91663940  1
  B  B1_4  1  0.75000000  0.08336060  0.41663940  1
  B  B1_5  1  0.75000000  0.08336060  0.91663940  1
  B  B1_6  1  0.75000000  0.58336060  0.41663940  1
  B  B1_7  1  0.75000000  0.58336060  0.91663940  1
  Ir  Ir0_0  1  0.00000000  0.25000000  0.00000000  1
  Ir  Ir0_1  1  0.00000000  0.25000000  0.50000000  1
  Ir  Ir0_2  1  0.00000000  0.75000000  0.00000000  1
  Ir  Ir0_3  1  0.00000000  0.75000000  0.50000000  1
  Ir  Ir0_4  1  0.50000000  0.25000000  0.00000000  1
  Ir  Ir0_5  1  0.50000000  0.25000000  0.50000000  1
  Ir  Ir0_6  1  0.50000000  0.75000000  0.00000000  1
  Ir  Ir0_7  1  0.50000000  0.75000000  0.50000000  1
  Ir  Ir1_0  1  0.00000000  0.00000000  0.25000000  1
  Ir  Ir1_1  1  0.00000000  0.00000000  0.75000000  1
  Ir  Ir1_2  1  0.00000000  0.50000000  0.25000000  1
  Ir  Ir1_3  1  0.00000000  0.50000000  0.75000000  1
  Ir  Ir1_4  1  0.50000000  0.00000000  0.25000000  1
  Ir  Ir1_5  1  0.50000000  0.00000000  0.75000000  1
  Ir  Ir1_6  1  0.50000000  0.50000000  0.25000000  1
  Ir  Ir1_7  1  0.50000000  0.50000000  0.75000000  1
  Ir  Ir2_0  1  0.00000000  0.00000000  0.00000000  1
  Ir  Ir2_1  1  0.00000000  0.00000000  0.50000000  1
  Ir  Ir2_2  1  0.00000000  0.50000000  0.00000000  1
  Ir  Ir2_3  1  0.00000000  0.50000000  0.50000000  1
  Ir  Ir2_4  1  0.50000000  0.00000000  0.00000000  1
  Ir  Ir2_5  1  0.50000000  0.00000000  0.50000000  1
  Ir  Ir2_6  1  0.50000000  0.50000000  0.00000000  1
  Ir  Ir2_7  1  0.50000000  0.50000000  0.50000000  1
loop_
_geom_bond_atom_site_label_1
_geom_bond_atom_site_label_2
_geom_bond_distance
_geom_bond_site_symmetry_2
Nd0_0 Nd0_4 2.967394 1_555
Nd0_0 Nd0_4 2.967394 1_455
Nd0_1 Nd0_5 2.967394 1_555
Nd0_1 Nd0_5 2.967394 1_455
Nd0_2 Nd0_6 2.967394 1_555
Nd0_2 Nd0_6 2.967394 1_455
Nd0_3 Nd0_7 2.967394 1_455
Nd0_3 Nd0_7 2.967394 1_555
B0_0 Ir1_6 2.205304 1_555
B0_0 Ir0_0 2.205304 1_555
B0_0 Ir2_2 2.206492 1_555
B0_0 Ir2_6 2.206492 1_555
B0_0 Ir1_2 2.206550 1_555
B0_0 Ir0_4 2.206550 1_555
B0_0 Nd0_0 3.264741 1_555
B0_0 Nd0_2 3.265618 1_555
B0_0 Nd0_1 3.265618 1_554
B0_1 Ir1_7 2.205304 1_555
B0_1 Ir0_1 2.205304 1_555
B0_1 Ir2_3 2.206492 1_555
B0_1 Ir2_7 2.206492 1_555
B0_1 Ir1_3 2.206550 1_555
B0_1 Ir0_5 2.206550 1_555
B0_1 Nd0_1 3.264741 1_555
B0_1 Nd0_3 3.265618 1_555
B0_1 Nd0_0 3.265618 1_555
B0_2 Ir1_4 2.205304 1_565
B0_2 Ir0_2 2.205304 1_555
B0_2 Ir2_0 2.206492 1_565
B0_2 Ir2_4 2.206492 1_565
B0_2 Ir1_0 2.206550 1_565
B0_2 Ir0_6 2.206550 1_555
B0_2 Nd0_2 3.264741 1_555
B0_2 Nd0_0 3.265618 1_565
B0_2 Nd0_3 3.265618 1_554
B0_3 Ir0_3 2.205304 1_555
B0_3 Ir1_5 2.205304 1_565
B0_3 Ir2_1 2.206492 1_565
B0_3 Ir2_5 2.206492 1_565
B0_3 Ir1_1 2.206550 1_565
B0_3 Ir0_7 2.206550 1_555
B0_3 Nd0_3 3.264741 1_555
B0_3 Nd0_2 3.265618 1_555
B0_3 Nd0_1 3.265618 1_565
B0_4 Ir1_2 2.205304 1_655
B0_4 Ir0_4 2.205304 1_555
B0_4 Ir2_2 2.206492 1_655
B0_4 Ir2_6 2.206492 1_555
B0_4 Ir0_0 2.206550 1_655
B0_4 Ir1_6 2.206550 1_555
B0_4 Nd0_4 3.264741 1_555
B0_4 Nd0_6 3.265618 1_555
B0_4 Nd0_5 3.265618 1_554
B0_5 Ir1_3 2.205304 1_655
B0_5 Ir0_5 2.205304 1_555
B0_5 Ir2_7 2.206492 1_555
B0_5 Ir2_3 2.206492 1_655
B0_5 Ir1_7 2.206550 1_555
B0_5 Ir0_1 2.206550 1_655
B0_5 Nd0_5 3.264741 1_555
B0_5 Nd0_7 3.265618 1_555
B0_5 Nd0_4 3.265618 1_555
B0_6 Ir1_0 2.205304 1_665
B0_6 Ir0_6 2.205304 1_555
B0_6 Ir2_0 2.206492 1_665
B0_6 Ir2_4 2.206492 1_565
B0_6 Ir1_4 2.206550 1_565
B0_6 Ir0_2 2.206550 1_655
B0_6 Nd0_6 3.264741 1_555
B0_6 Nd0_4 3.265618 1_565
B0_6 Nd0_7 3.265618 1_554
B0_7 Ir1_1 2.205304 1_665
B0_7 Ir0_7 2.205304 1_555
B0_7 Ir2_1 2.206492 1_665
B0_7 Ir2_5 2.206492 1_565
B0_7 Ir0_3 2.206550 1_655
B0_7 Ir1_5 2.206550 1_565
B0_7 Nd0_7 3.264741 1_555
B0_7 Nd0_6 3.265618 1_555
B0_7 Nd0_5 3.265618 1_565
B1_0 Ir0_5 2.205304 1_555
B1_0 Ir1_0 2.205304 1_555
B1_0 Ir2_5 2.206492 1_555
B1_0 Ir2_1 2.206492 1_555
B1_0 Ir0_1 2.206550 1_555
B1_0 Ir1_4 2.206550 1_555
B1_0 Nd0_0 3.264741 1_555
B1_0 Nd0_1 3.265618 1_555
B1_0 Nd0_2 3.265618 1_545
B1_1 Ir0_4 2.205304 1_556
B1_1 Ir1_1 2.205304 1_555
B1_1 Ir2_0 2.206492 1_556
B1_1 Ir2_4 2.206492 1_556
B1_1 Ir0_0 2.206550 1_556
B1_1 Ir1_5 2.206550 1_555
B1_1 Nd0_1 3.264741 1_555
B1_1 Nd0_0 3.265618 1_556
B1_1 Nd0_3 3.265618 1_545
B1_2 Ir0_7 2.205304 1_555
B1_2 Ir1_2 2.205304 1_555
B1_2 Ir2_7 2.206492 1_555
B1_2 Ir2_3 2.206492 1_555
B1_2 Ir0_3 2.206550 1_555
B1_2 Ir1_6 2.206550 1_555
B1_2 Nd0_2 3.264741 1_555
B1_2 Nd0_3 3.265618 1_555
B1_2 Nd0_0 3.265618 1_555
B1_3 Ir1_3 2.205304 1_555
B1_3 Ir0_6 2.205304 1_556
B1_3 Ir2_2 2.206492 1_556
B1_3 Ir2_6 2.206492 1_556
B1_3 Ir0_2 2.206550 1_556
B1_3 Ir1_7 2.206550 1_555
B1_3 Nd0_3 3.264741 1_555
B1_3 Nd0_1 3.265618 1_555
B1_3 Nd0_2 3.265618 1_556
B1_4 Ir0_1 2.205304 1_655
B1_4 Ir1_4 2.205304 1_555
B1_4 Ir2_5 2.206492 1_555
B1_4 Ir2_1 2.206492 1_655
B1_4 Ir0_5 2.206550 1_555
B1_4 Ir1_0 2.206550 1_655
B1_4 Nd0_4 3.264741 1_555
B1_4 Nd0_5 3.265618 1_555
B1_4 Nd0_6 3.265618 1_545
B1_5 Ir0_0 2.205304 1_656
B1_5 Ir1_5 2.205304 1_555
B1_5 Ir2_0 2.206492 1_656
B1_5 Ir2_4 2.206492 1_556
B1_5 Ir0_4 2.206550 1_556
B1_5 Ir1_1 2.206550 1_655
B1_5 Nd0_5 3.264741 1_555
B1_5 Nd0_4 3.265618 1_556
B1_5 Nd0_7 3.265618 1_545
B1_6 Ir1_6 2.205304 1_555
B1_6 Ir0_3 2.205304 1_655
B1_6 Ir2_7 2.206492 1_555
B1_6 Ir2_3 2.206492 1_655
B1_6 Ir0_7 2.206550 1_555
B1_6 Ir1_2 2.206550 1_655
B1_6 Nd0_6 3.264741 1_555
B1_6 Nd0_7 3.265618 1_555
B1_6 Nd0_4 3.265618 1_555
B1_7 Ir0_2 2.205304 1_656
B1_7 Ir1_7 2.205304 1_555
B1_7 Ir2_2 2.206492 1_656
B1_7 Ir2_6 2.206492 1_556
B1_7 Ir1_3 2.206550 1_655
B1_7 Ir0_6 2.206550 1_556
B1_7 Nd0_7 3.264741 1_555
B1_7 Nd0_5 3.265618 1_555
B1_7 Nd0_6 3.265618 1_556
Ir0_0 Nd0_5 3.193000 1_454
Ir0_0 Nd0_0 3.193000 1_555
Ir0_0 Nd0_1 3.193861 1_554
Ir0_0 Nd0_4 3.193861 1_455
Ir0_1 Nd0_4 3.193000 1_455
Ir0_1 Nd0_1 3.193000 1_555
Ir0_1 Nd0_0 3.193861 1_555
Ir0_1 Nd0_5 3.193861 1_455
Ir0_2 Nd0_2 3.193000 1_555
Ir0_2 Nd0_7 3.193000 1_454
Ir0_2 Nd0_6 3.193861 1_455
Ir0_2 Nd0_3 3.193861 1_554
Ir0_3 Nd0_6 3.193000 1_455
Ir0_3 Nd0_3 3.193000 1_555
Ir0_3 Nd0_2 3.193861 1_555
Ir0_3 Nd0_7 3.193861 1_455
Ir0_4 Nd0_4 3.193000 1_555
Ir0_4 Nd0_1 3.193000 1_554
Ir0_4 Nd0_0 3.193861 1_555
Ir0_4 Nd0_5 3.193861 1_554
Ir0_5 Nd0_5 3.193000 1_555
Ir0_5 Nd0_0 3.193000 1_555
Ir0_5 Nd0_4 3.193861 1_555
Ir0_5 Nd0_1 3.193861 1_555
Ir0_6 Nd0_6 3.193000 1_555
Ir0_6 Nd0_3 3.193000 1_554
Ir0_6 Nd0_2 3.193861 1_555
Ir0_6 Nd0_7 3.193861 1_554
Ir0_7 Nd0_7 3.193000 1_555
Ir0_7 Nd0_2 3.193000 1_555
Ir0_7 Nd0_6 3.193861 1_555
Ir0_7 Nd0_3 3.193861 1_555
Ir1_0 Nd0_0 3.193000 1_555
Ir1_0 Nd0_6 3.193000 1_445
Ir1_0 Nd0_2 3.193861 1_545
Ir1_0 Nd0_4 3.193861 1_455
Ir1_1 Nd0_1 3.193000 1_555
Ir1_1 Nd0_7 3.193000 1_445
Ir1_1 Nd0_5 3.193861 1_455
Ir1_1 Nd0_3 3.193861 1_545
Ir1_2 Nd0_4 3.193000 1_455
Ir1_2 Nd0_2 3.193000 1_555
Ir1_2 Nd0_6 3.193861 1_455
Ir1_2 Nd0_0 3.193861 1_555
Ir1_3 Nd0_5 3.193000 1_455
Ir1_3 Nd0_3 3.193000 1_555
Ir1_3 Nd0_7 3.193861 1_455
Ir1_3 Nd0_1 3.193861 1_555
Ir1_4 Nd0_4 3.193000 1_555
Ir1_4 Nd0_2 3.193000 1_545
Ir1_4 Nd0_0 3.193861 1_555
Ir1_4 Nd0_6 3.193861 1_545
Ir1_5 Nd0_5 3.193000 1_555
Ir1_5 Nd0_3 3.193000 1_545
Ir1_5 Nd0_1 3.193861 1_555
Ir1_5 Nd0_7 3.193861 1_545
Ir1_6 Nd0_6 3.193000 1_555
Ir1_6 Nd0_0 3.193000 1_555
Ir1_6 Nd0_4 3.193861 1_555
Ir1_6 Nd0_2 3.193861 1_555
Ir1_7 Nd0_1 3.193000 1_555
Ir1_7 Nd0_7 3.193000 1_555
Ir1_7 Nd0_5 3.193861 1_555
Ir1_7 Nd0_3 3.193861 1_555
Ir2_0 Nd0_0 3.192627 1_555
Ir2_0 Nd0_7 3.192627 1_444
Ir2_0 Nd0_4 3.194349 1_455
Ir2_0 Nd0_3 3.194349 1_544
Ir2_1 Nd0_6 3.192627 1_445
Ir2_1 Nd0_1 3.192627 1_555
Ir2_1 Nd0_2 3.194349 1_545
Ir2_1 Nd0_5 3.194349 1_455
Ir2_2 Nd0_5 3.192627 1_454
Ir2_2 Nd0_2 3.192627 1_555
Ir2_2 Nd0_1 3.194349 1_554
Ir2_2 Nd0_6 3.194349 1_455
Ir2_3 Nd0_3 3.192627 1_555
Ir2_3 Nd0_4 3.192627 1_455
Ir2_3 Nd0_7 3.194349 1_455
Ir2_3 Nd0_0 3.194349 1_555
Ir2_4 Nd0_4 3.192627 1_555
Ir2_4 Nd0_3 3.192627 1_544
Ir2_4 Nd0_0 3.194349 1_555
Ir2_4 Nd0_7 3.194349 1_544
Ir2_5 Nd0_2 3.192627 1_545
Ir2_5 Nd0_5 3.192627 1_555
Ir2_5 Nd0_1 3.194349 1_555
Ir2_5 Nd0_6 3.194349 1_545
Ir2_6 Nd0_1 3.192627 1_554
Ir2_6 Nd0_6 3.192627 1_555
Ir2_6 Nd0_2 3.194349 1_555
Ir2_6 Nd0_5 3.194349 1_554
Ir2_7 Nd0_0 3.192627 1_555
Ir2_7 Nd0_7 3.192627 1_555
Ir2_7 Nd0_4 3.194349 1_555
Ir2_7 Nd0_3 3.194349 1_555
