# generated using pymatgen
data_CsPb2Br5
_symmetry_space_group_name_H-M   'P 1'
_cell_length_a   9.85759737
_cell_length_b   9.85759737
_cell_length_c   9.85759737
_cell_angle_alpha   128.68028022
_cell_angle_beta   128.68028022
_cell_angle_gamma   75.52556316
_symmetry_Int_Tables_number   1
_chemical_formula_structural   CsPb2Br5
_chemical_formula_sum   'Cs2 Pb4 Br10'
_cell_volume   567.98329617
_cell_formula_units_Z   2
loop_
 _symmetry_equiv_pos_site_id
 _symmetry_equiv_pos_as_xyz
  1  'x, y, z'
loop_
 _atom_site_type_symbol
 _atom_site_label
 _atom_site_symmetry_multiplicity
 _atom_site_fract_x
 _atom_site_fract_y
 _atom_site_fract_z
 _atom_site_occupancy
  Cs  Cs0  1  0.75000000  0.75000000  0.00000000  1
  Cs  Cs1  1  0.25000000  0.25000000  0.00000000  1
  Pb  Pb0  1  0.66742019  0.83257981  0.50000000  1
  Pb  Pb1  1  0.33257981  0.16742019  0.50000000  1
  Pb  Pb2  1  0.83257981  0.33257981  0.16515962  1
  Pb  Pb3  1  0.16742019  0.66742019  0.83484038  1
  Br  Br0  1  0.50000000  0.50000000  0.00000000  1
  Br  Br1  1  0.00000000  0.00000000  0.00000000  1
  Br  Br2  1  0.71988282  0.52738758  0.50000000  1
  Br  Br3  1  0.28011718  0.47261242  0.50000000  1
  Br  Br4  1  0.02738758  0.21988282  0.50000000  1
  Br  Br5  1  0.97261242  0.78011718  0.50000000  1
  Br  Br6  1  0.52738758  0.02738758  0.80750376  1
  Br  Br7  1  0.47261242  0.97261242  0.19249624  1
  Br  Br8  1  0.21988282  0.71988282  0.19249624  1
  Br  Br9  1  0.78011718  0.28011718  0.80750376  1
loop_
_geom_bond_atom_site_label_1
_geom_bond_atom_site_label_2
_geom_bond_distance
_geom_bond_site_symmetry_2
Br0 Pb2 3.178771 1_555
Br0 Pb3 3.178771 1_554
Br0 Pb1 3.178771 1_554
Br0 Pb0 3.178771 1_555
Br0 Cs0 3.896476 1_555
Br0 Cs1 3.896476 1_555
Br1 Pb3 3.178771 1_544
Br1 Pb2 3.178771 1_455
Br1 Pb0 3.178771 1_444
Br1 Pb1 3.178771 1_555
Br1 Cs0 3.896476 1_445
Br1 Cs1 3.896476 1_555
Br2 Pb0 2.922419 1_555
Br2 Pb2 3.377976 1_555
Br2 Pb3 3.377976 1_655
Br2 Cs0 3.764846 1_556
Br2 Cs1 3.764846 1_555
Br3 Pb1 2.922419 1_555
Br3 Pb2 3.377976 1_455
Br3 Pb3 3.377976 1_555
Br3 Cs1 3.764846 1_555
Br3 Cs0 3.764846 1_556
Br4 Pb1 2.922419 1_555
Br4 Pb3 3.377976 1_555
Br4 Pb2 3.377976 1_455
Br4 Cs1 3.764846 1_556
Br4 Cs0 3.764846 1_445
Br5 Pb0 2.922419 1_555
Br5 Pb2 3.377976 1_555
Br5 Pb3 3.377976 1_655
Br5 Cs1 3.764846 1_666
Br5 Cs0 3.764846 1_555
Br6 Pb2 2.922419 1_556
Br6 Pb0 3.377969 1_545
Br6 Pb1 3.377969 1_555
Br6 Cs1 3.764852 1_556
Br6 Cs0 3.764852 1_546
Br7 Pb3 2.922419 1_554
Br7 Pb0 3.377969 1_555
Br7 Pb1 3.377969 1_565
Br7 Cs0 3.764852 1_555
Br7 Cs1 3.764852 1_565
Br8 Pb3 2.922429 1_554
Br8 Pb0 3.377978 1_555
Br8 Pb1 3.377978 1_565
Br8 Cs1 3.764844 1_555
Br8 Cs0 3.764844 1_455
Br9 Pb2 2.922429 1_556
Br9 Pb1 3.377978 1_555
Br9 Pb0 3.377978 1_545
Br9 Cs0 3.764844 1_556
Br9 Cs1 3.764844 1_656
