# generated using pymatgen
data_Mg14NbFeO16
_symmetry_space_group_name_H-M   'P 1'
_cell_length_a   8.63440978
_cell_length_b   8.64323098
_cell_length_c   4.27460213
_cell_angle_alpha   90.00000000
_cell_angle_beta   90.00000000
_cell_angle_gamma   90.00000000
_symmetry_Int_Tables_number   1
_chemical_formula_structural   Mg14NbFeO16
_chemical_formula_sum   'Mg14 Nb1 Fe1 O16'
_cell_volume   319.01012918
_cell_formula_units_Z   1
loop_
 _symmetry_equiv_pos_site_id
 _symmetry_equiv_pos_as_xyz
  1  'x, y, z'
loop_
 _atom_site_type_symbol
 _atom_site_label
 _atom_site_symmetry_multiplicity
 _atom_site_fract_x
 _atom_site_fract_y
 _atom_site_fract_z
 _atom_site_occupancy
  Mg  Mg0  1  0.50000000  -0.00000000  0.00000000  1
  Mg  Mg1  1  0.50000000  0.50000000  0.00000000  1
  Mg  Mg2  1  -0.00000000  0.24561914  0.50000000  1
  Mg  Mg3  1  -0.00000000  0.75438086  0.50000000  1
  Mg  Mg4  1  0.50000000  0.24926276  0.50000000  1
  Mg  Mg5  1  0.50000000  0.75073724  0.50000000  1
  Mg  Mg6  1  0.25283239  -0.00000000  0.50000000  1
  Mg  Mg7  1  0.25524514  0.50000000  0.50000000  1
  Mg  Mg8  1  0.74716761  -0.00000000  0.50000000  1
  Mg  Mg9  1  0.74475486  0.50000000  0.50000000  1
  Mg  Mg10  1  0.25264833  0.24713961  -0.00000000  1
  Mg  Mg11  1  0.25264833  0.75286039  -0.00000000  1
  Mg  Mg12  1  0.74735167  0.24713961  -0.00000000  1
  Mg  Mg13  1  0.74735167  0.75286039  0.00000000  1
  Nb  Nb0  1  -0.00000000  0.50000000  0.00000000  1
  Fe  Fe0  1  -0.00000000  -0.00000000  0.00000000  1
  O  O0  1  0.25821917  -0.00000000  0.00000000  1
  O  O1  1  0.26206284  0.50000000  0.00000000  1
  O  O2  1  0.74178083  -0.00000000  0.00000000  1
  O  O3  1  0.73793716  0.50000000  -0.00000000  1
  O  O4  1  0.24897311  0.24972992  0.50000000  1
  O  O5  1  0.24897311  0.75027008  0.50000000  1
  O  O6  1  0.75102689  0.24972992  0.50000000  1
  O  O7  1  0.75102689  0.75027008  0.50000000  1
  O  O8  1  -0.00000000  -0.00000000  0.50000000  1
  O  O9  1  -0.00000000  0.50000000  0.50000000  1
  O  O10  1  0.50000000  -0.00000000  0.50000000  1
  O  O11  1  0.50000000  0.50000000  0.50000000  1
  O  O12  1  -0.00000000  0.24390661  0.00000000  1
  O  O13  1  -0.00000000  0.75609339  0.00000000  1
  O  O14  1  0.50000000  0.24959184  0.00000000  1
  O  O15  1  0.50000000  0.75040816  0.00000000  1
loop_
_geom_bond_atom_site_label_1
_geom_bond_atom_site_label_2
_geom_bond_distance
_geom_bond_site_symmetry_2
Mg0 O0 2.087635 1_555
Mg0 O2 2.087635 1_555
Mg0 O10 2.137301 1_555
Mg0 O10 2.137301 1_554
Mg0 O15 2.157280 1_545
Mg0 O14 2.157280 1_555
Mg1 O3 2.054447 1_555
Mg1 O1 2.054447 1_555
Mg1 O11 2.137301 1_555
Mg1 O11 2.137301 1_554
Mg1 O14 2.164336 1_555
Mg1 O15 2.164336 1_555
Mg2 O8 2.122943 1_555
Mg2 O12 2.137352 1_556
Mg2 O12 2.137352 1_555
Mg2 O4 2.150029 1_555
Mg2 O6 2.150029 1_455
Mg2 O9 2.198673 1_555
Mg3 O8 2.122943 1_565
Mg3 O13 2.137352 1_555
Mg3 O13 2.137352 1_556
Mg3 O7 2.150029 1_455
Mg3 O5 2.150029 1_555
Mg3 O9 2.198673 1_555
Mg4 O14 2.137303 1_556
Mg4 O14 2.137303 1_555
Mg4 O10 2.154436 1_555
Mg4 O11 2.167180 1_555
Mg4 O6 2.167473 1_555
Mg4 O4 2.167473 1_555
Mg5 O15 2.137303 1_556
Mg5 O15 2.137303 1_555
Mg5 O10 2.154436 1_565
Mg5 O11 2.167180 1_555
Mg5 O5 2.167473 1_555
Mg5 O7 2.167473 1_555
Mg6 O10 2.134146 1_555
Mg6 O0 2.137807 1_555
Mg6 O0 2.137807 1_556
Mg6 O5 2.158731 1_545
Mg6 O4 2.158731 1_555
Mg6 O8 2.183058 1_555
Mg7 O11 2.113314 1_555
Mg7 O1 2.138112 1_555
Mg7 O1 2.138112 1_556
Mg7 O4 2.163820 1_555
Mg7 O5 2.163820 1_555
Mg7 O9 2.203891 1_555
Mg8 O10 2.134146 1_555
Mg8 O2 2.137807 1_556
Mg8 O2 2.137807 1_555
Mg8 O7 2.158731 1_545
Mg8 O6 2.158731 1_555
Mg8 O8 2.183058 1_655
Mg9 O11 2.113314 1_555
Mg9 O3 2.138112 1_556
Mg9 O3 2.138112 1_555
Mg9 O6 2.163820 1_555
Mg9 O7 2.163820 1_555
Mg9 O9 2.203891 1_655
Mg10 O14 2.135841 1_555
Mg10 O0 2.136626 1_555
Mg10 O4 2.137654 1_554
Mg10 O4 2.137654 1_555
Mg10 O12 2.181648 1_555
Mg10 O1 2.187042 1_555
Mg11 O15 2.135841 1_555
Mg11 O0 2.136626 1_565
Mg11 O5 2.137654 1_554
Mg11 O5 2.137654 1_555
Mg11 O13 2.181648 1_555
Mg11 O1 2.187042 1_555
Mg12 O14 2.135841 1_555
Mg12 O2 2.136626 1_555
Mg12 O6 2.137654 1_554
Mg12 O6 2.137654 1_555
Mg12 O12 2.181648 1_655
Mg12 O3 2.187042 1_555
Mg13 O15 2.135841 1_555
Mg13 O2 2.136626 1_565
Mg13 O7 2.137654 1_555
Mg13 O7 2.137654 1_554
Mg13 O13 2.181648 1_655
Mg13 O3 2.187042 1_555
Nb0 O9 2.137301 1_554
Nb0 O9 2.137301 1_555
Nb0 O12 2.213474 1_555
Nb0 O13 2.213474 1_555
Nb0 O3 2.262758 1_455
Nb0 O1 2.262758 1_555
Fe0 O12 2.108141 1_555
Fe0 O13 2.108141 1_545
Fe0 O8 2.137301 1_554
Fe0 O8 2.137301 1_555
Fe0 O2 2.229570 1_455
Fe0 O0 2.229570 1_555
