# generated using pymatgen
data_TiAsRu
_symmetry_space_group_name_H-M   'P 1'
_cell_length_a   7.44602903
_cell_length_b   7.44578211
_cell_length_c   7.44596693
_cell_angle_alpha   128.31043487
_cell_angle_beta   120.69199511
_cell_angle_gamma   82.51265285
_symmetry_Int_Tables_number   1
_chemical_formula_structural   TiAsRu
_chemical_formula_sum   'Ti6 As6 Ru6'
_cell_volume   267.74193655
_cell_formula_units_Z   6
loop_
 _symmetry_equiv_pos_site_id
 _symmetry_equiv_pos_as_xyz
  1  'x, y, z'
loop_
 _atom_site_type_symbol
 _atom_site_label
 _atom_site_symmetry_multiplicity
 _atom_site_fract_x
 _atom_site_fract_y
 _atom_site_fract_z
 _atom_site_occupancy
  Ti  Ti0  1  0.46806012  0.24276939  0.27471776  1
  Ti  Ti1  1  0.53191226  0.80661939  0.77474147  1
  Ti  Ti2  1  0.75085287  0.66832396  0.41760743  1
  Ti  Ti3  1  0.24924539  0.66681518  0.91758185  1
  Ti  Ti4  1  0.05462771  0.84742398  0.29273704  1
  Ti  Ti5  1  0.94533662  0.23808474  0.79277171  1
  As  As0  1  0.83567874  0.57927337  0.74899096  1
  As  As1  1  0.16439896  0.91331181  0.74358170  1
  As  As2  1  0.66972242  0.91330769  0.24896360  1
  As  As3  1  0.33031295  0.57926714  0.24364273  1
  As  As4  1  0.28566290  0.28690361  0.50128504  1
  As  As5  1  0.71428304  0.21575595  0.00141075  1
  Ru  Ru0  1  0.66390253  0.49552204  0.91228156  1
  Ru  Ru1  1  0.33609758  0.24844114  0.83165471  1
  Ru  Ru2  1  0.91674668  0.24837017  0.41227141  1
  Ru  Ru3  1  0.08322006  0.49554696  0.33163762  1
  Ru  Ru4  1  -0.00016918  0.99736813  0.99710745  1
  Ru  Ru5  1  0.50010736  0.99729236  0.49741621  1
loop_
_geom_bond_atom_site_label_1
_geom_bond_atom_site_label_2
_geom_bond_distance
_geom_bond_site_symmetry_2
As0 Ru4 2.480714 1_655
As0 Ru2 2.493867 1_555
As0 Ru0 2.497724 1_555
As0 Ti3 2.654420 1_655
As0 Ti1 2.657195 1_555
As0 Ti4 2.669084 1_656
As0 Ti0 2.681515 1_555
As0 Ti2 2.693570 1_555
As0 Ti5 2.727846 1_555
As1 Ru4 2.480635 1_555
As1 Ru3 2.493454 1_555
As1 Ru1 2.497544 1_565
As1 Ti2 2.654298 1_455
As1 Ti0 2.656934 1_566
As1 Ti5 2.669495 1_465
As1 Ti1 2.680905 1_555
As1 Ti3 2.693826 1_555
As1 Ti4 2.727562 1_555
As2 Ru5 2.480625 1_555
As2 Ru0 2.493731 1_554
As2 Ru2 2.497457 1_565
As2 Ti2 2.654700 1_555
As2 Ti0 2.657057 1_565
As2 Ti5 2.669319 1_565
As2 Ti1 2.681061 1_554
As2 Ti3 2.693630 1_554
As2 Ti4 2.727480 1_655
As3 Ru5 2.480231 1_555
As3 Ru1 2.493678 1_554
As3 Ru3 2.497774 1_555
As3 Ti3 2.654672 1_554
As3 Ti1 2.657022 1_555
As3 Ti4 2.669636 1_555
As3 Ti0 2.681378 1_555
As3 Ti2 2.694151 1_555
As3 Ti5 2.727807 1_454
As4 Ru0 2.481518 1_555
As4 Ru3 2.481979 1_555
As4 Ru1 2.485282 1_555
As4 Ru2 2.485642 1_455
As4 Ru5 2.504604 1_545
As4 Ru4 2.505109 1_544
As4 Ti0 2.516710 1_555
As4 Ti3 2.733208 1_555
As4 Ti4 2.918643 1_545
As4 Ti1 3.278911 1_555
As5 Ru1 2.481101 1_554
As5 Ru2 2.481315 1_555
As5 Ru0 2.485273 1_554
As5 Ru3 2.485456 1_655
As5 Ru4 2.503948 1_644
As5 Ru5 2.504070 1_544
As5 Ti1 2.517241 1_544
As5 Ti2 2.731892 1_555
As5 Ti5 2.919616 1_554
As5 Ti0 3.278459 1_555
Ru0 Ti5 2.756710 1_555
Ru0 Ti4 2.779386 1_656
Ru0 Ru5 2.813685 1_545
Ru0 Ti2 2.821352 1_556
Ru0 Ti1 2.949690 1_555
Ru1 Ti4 2.756888 1_545
Ru1 Ti5 2.779654 1_455
Ru1 Ru5 2.814143 1_545
Ru1 Ti3 2.820961 1_555
Ru1 Ti0 2.950191 1_556
Ru2 Ti4 2.756491 1_645
Ru2 Ti5 2.779788 1_555
Ru2 Ru4 2.814181 1_644
Ru2 Ti3 2.821344 1_655
Ru2 Ti0 2.950046 1_555
Ru3 Ti5 2.756666 1_454
Ru3 Ti4 2.779605 1_555
Ru3 Ru4 2.813359 1_544
Ru3 Ti2 2.820627 1_455
Ru3 Ti1 2.949855 1_555
Ru4 Ti2 2.822855 1_455
Ru4 Ti3 2.825191 1_555
Ru4 Ti5 2.872842 1_465
Ru4 Ti4 2.875738 1_556
Ru4 Ti1 3.063136 1_455
Ru4 Ti0 3.063854 1_566
Ru5 Ti2 2.823974 1_555
Ru5 Ti3 2.824454 1_554
Ru5 Ti5 2.873862 1_565
Ru5 Ti4 2.875093 1_555
Ru5 Ti1 3.063271 1_555
Ru5 Ti0 3.063896 1_565
