# generated using pymatgen
data_NaCrSe2
_symmetry_space_group_name_H-M   'P 1'
_cell_length_a   3.73797088
_cell_length_b   3.73797088
_cell_length_c   9.95773200
_cell_angle_alpha   90.00000000
_cell_angle_beta   90.00000000
_cell_angle_gamma   120.00001566
_symmetry_Int_Tables_number   1
_chemical_formula_structural   NaCrSe2
_chemical_formula_sum   'Na1 Cr1 Se2'
_cell_volume   120.49327964
_cell_formula_units_Z   1
loop_
 _symmetry_equiv_pos_site_id
 _symmetry_equiv_pos_as_xyz
  1  'x, y, z'
loop_
 _atom_site_type_symbol
 _atom_site_label
 _atom_site_symmetry_multiplicity
 _atom_site_fract_x
 _atom_site_fract_y
 _atom_site_fract_z
 _atom_site_occupancy
  Na  Na0  1  0.00000000  0.00000000  0.50000000  1
  Cr  Cr0  1  0.00000000  0.00000000  0.00000000  1
  Se  Se0  1  0.00000000  0.00000000  0.23268100  1
  Se  Se1  1  0.00000000  0.00000000  0.76731900  1
loop_
_geom_bond_atom_site_label_1
_geom_bond_atom_site_label_2
_geom_bond_distance
_geom_bond_site_symmetry_2
Na0 Se1 2.661891 1_555
Na0 Se0 2.661891 1_555
Cr0 Se0 2.316975 1_555
Cr0 Se1 2.316975 1_554
