# generated using pymatgen
data_Sm(Al2Fe)4
_symmetry_space_group_name_H-M   'P 1'
_cell_length_a   5.06091600
_cell_length_b   6.69482570
_cell_length_c   6.69482570
_cell_angle_alpha   81.78644462
_cell_angle_beta   67.79185826
_cell_angle_gamma   67.79185826
_symmetry_Int_Tables_number   1
_chemical_formula_structural   Sm(Al2Fe)4
_chemical_formula_sum   'Sm1 Al8 Fe4'
_cell_volume   194.42758083
_cell_formula_units_Z   1
loop_
 _symmetry_equiv_pos_site_id
 _symmetry_equiv_pos_as_xyz
  1  'x, y, z'
loop_
 _atom_site_type_symbol
 _atom_site_label
 _atom_site_symmetry_multiplicity
 _atom_site_fract_x
 _atom_site_fract_y
 _atom_site_fract_z
 _atom_site_occupancy
  Sm  Sm0  1  0.00000000  0.00000000  0.00000000  1
  Al  Al0  1  0.00000000  0.34111900  0.65888100  1
  Al  Al1  1  0.00000000  0.65888100  0.34111900  1
  Al  Al2  1  0.65888100  0.34111900  0.34111900  1
  Al  Al3  1  0.34111900  0.65888100  0.65888100  1
  Al  Al4  1  0.50000000  0.77761200  0.22238800  1
  Al  Al5  1  0.50000000  0.22238800  0.77761200  1
  Al  Al6  1  0.72238800  0.77761200  0.77761200  1
  Al  Al7  1  0.27761200  0.22238800  0.22238800  1
  Fe  Fe0  1  0.00000000  0.00000000  0.50000000  1
  Fe  Fe1  1  0.50000000  0.00000000  0.50000000  1
  Fe  Fe2  1  0.50000000  0.50000000  0.00000000  1
  Fe  Fe3  1  0.00000000  0.50000000  0.00000000  1
loop_
_geom_bond_atom_site_label_1
_geom_bond_atom_site_label_2
_geom_bond_distance
_geom_bond_site_symmetry_2
Al0 Fe1 2.653474 1_555
Al0 Fe2 2.653474 1_456
Al0 Fe0 2.653474 1_555
Al0 Fe3 2.653474 1_556
Al0 Al5 2.736122 1_455
Al0 Al5 2.736122 1_555
Al0 Al1 2.785360 1_555
Al0 Al7 2.803766 1_555
Al0 Al6 2.803766 1_455
Al0 Sm0 2.990097 1_556
Al1 Fe2 2.653474 1_555
Al1 Fe1 2.653474 1_465
Al1 Fe3 2.653474 1_555
Al1 Fe0 2.653474 1_565
Al1 Al4 2.736122 1_455
Al1 Al4 2.736122 1_555
Al1 Al7 2.803766 1_555
Al1 Al6 2.803766 1_455
Al1 Sm0 2.990097 1_565
Al2 Fe3 2.653474 1_655
Al2 Fe0 2.653474 1_655
Al2 Fe2 2.653474 1_555
Al2 Fe1 2.653474 1_555
Al2 Al7 2.736122 1_655
Al2 Al7 2.736122 1_555
Al2 Al3 2.785360 1_555
Al2 Al4 2.803766 1_555
Al2 Al5 2.803766 1_555
Al2 Sm0 2.990097 1_655
Al3 Fe0 2.653474 1_565
Al3 Fe3 2.653474 1_556
Al3 Fe1 2.653474 1_565
Al3 Fe2 2.653474 1_556
Al3 Al6 2.736122 1_455
Al3 Al6 2.736122 1_555
Al3 Al5 2.803766 1_555
Al3 Al4 2.803766 1_555
Al3 Sm0 2.990097 1_566
Al4 Fe0 2.541961 1_565
Al4 Fe3 2.541961 1_655
Al4 Fe1 2.541962 1_565
Al4 Fe2 2.541962 1_555
Al4 Al7 2.756803 1_565
Al4 Al6 2.756803 1_554
Al4 Sm0 3.194245 1_565
Al4 Sm0 3.194245 1_665
Al5 Fe0 2.541961 1_655
Al5 Fe3 2.541961 1_556
Al5 Fe2 2.541962 1_556
Al5 Fe1 2.541962 1_555
Al5 Al6 2.756803 1_545
Al5 Al7 2.756803 1_556
Al5 Sm0 3.194245 1_656
Al5 Sm0 3.194245 1_556
Al6 Fe3 2.541962 1_656
Al6 Fe0 2.541962 1_665
Al6 Fe2 2.541962 1_556
Al6 Fe1 2.541962 1_565
Al6 Sm0 3.194244 1_566
Al6 Sm0 3.194245 1_666
Al7 Fe3 2.541962 1_555
Al7 Fe0 2.541962 1_555
Al7 Fe2 2.541962 1_555
Al7 Fe1 2.541962 1_555
Al7 Sm0 3.194244 1_655
Al7 Sm0 3.194245 1_555
Fe0 Fe1 2.530458 1_455
Fe0 Fe1 2.530458 1_555
Fe0 Sm0 3.347413 1_555
Fe0 Sm0 3.347413 1_556
Fe1 Sm0 3.347412 1_556
Fe1 Sm0 3.347412 1_655
Fe2 Fe3 2.530458 1_555
Fe2 Fe3 2.530458 1_655
Fe2 Sm0 3.347412 1_565
Fe2 Sm0 3.347412 1_655
Fe3 Sm0 3.347413 1_555
Fe3 Sm0 3.347413 1_565
