# generated using pymatgen
data_Te4Mo3W(SeS)2
_symmetry_space_group_name_H-M   'P 1'
_cell_length_a   3.39621211
_cell_length_b   3.39621211
_cell_length_c   38.69734400
_cell_angle_alpha   90.00000000
_cell_angle_beta   90.00000000
_cell_angle_gamma   120.00000222
_symmetry_Int_Tables_number   1
_chemical_formula_structural   Te4Mo3W(SeS)2
_chemical_formula_sum   'Te4 Mo3 W1 Se2 S2'
_cell_volume   386.54618695
_cell_formula_units_Z   1
loop_
 _symmetry_equiv_pos_site_id
 _symmetry_equiv_pos_as_xyz
  1  'x, y, z'
loop_
 _atom_site_type_symbol
 _atom_site_label
 _atom_site_symmetry_multiplicity
 _atom_site_fract_x
 _atom_site_fract_y
 _atom_site_fract_z
 _atom_site_occupancy
  Te  Te0  1  0.00000000  0.00000000  0.33022900  1
  Te  Te1  1  0.00000000  0.00000000  0.70595100  1
  Te  Te2  1  0.00000000  0.00000000  0.23340100  1
  Te  Te3  1  0.00000000  0.00000000  0.60911600  1
  Mo  Mo0  1  0.00000000  0.00000000  0.09390400  1
  Mo  Mo1  1  0.33333300  0.66666700  0.28179500  1
  Mo  Mo2  1  0.33333300  0.66666700  0.65752800  1
  W  W0  1  0.00000000  0.00000000  0.46965400  1
  Se  Se0  1  0.33333300  0.66666700  0.05129000  1
  Se  Se1  1  0.33333300  0.66666700  0.13654100  1
  S  S0  1  0.33333300  0.66666700  0.43070800  1
  S  S1  1  0.33333300  0.66666700  0.50863100  1
loop_
_geom_bond_atom_site_label_1
_geom_bond_atom_site_label_2
_geom_bond_distance
_geom_bond_site_symmetry_2
Mo0 Se0 2.562051 1_545
Mo0 Se0 2.562053 1_445
Mo0 Se0 2.562053 1_555
Mo0 Se1 2.562624 1_545
Mo0 Se1 2.562626 1_445
Mo0 Se1 2.562626 1_555
Mo1 Te2 2.711424 1_565
Mo1 Te2 2.711426 1_555
Mo1 Te2 2.711426 1_665
Mo1 Te0 2.712494 1_565
Mo1 Te0 2.712496 1_555
Mo1 Te0 2.712496 1_665
Mo2 Te3 2.711906 1_565
Mo2 Te3 2.711908 1_665
Mo2 Te3 2.711908 1_555
Mo2 Te1 2.712200 1_565
Mo2 Te1 2.712202 1_665
Mo2 Te1 2.712202 1_555
S0 W0 2.473078 1_565
S0 W0 2.473080 1_555
S0 W0 2.473080 1_665
S1 W0 2.473809 1_565
S1 W0 2.473812 1_555
S1 W0 2.473812 1_665
