# generated using pymatgen
data_Li3MnCoO5
_symmetry_space_group_name_H-M   'P 1'
_cell_length_a   5.09053100
_cell_length_b   5.86494041
_cell_length_c   6.63663963
_cell_angle_alpha   103.90927003
_cell_angle_beta   98.06141736
_cell_angle_gamma   107.31041741
_symmetry_Int_Tables_number   1
_chemical_formula_structural   Li3MnCoO5
_chemical_formula_sum   'Li6 Mn2 Co2 O10'
_cell_volume   178.76178122
_cell_formula_units_Z   2
loop_
 _symmetry_equiv_pos_site_id
 _symmetry_equiv_pos_as_xyz
  1  'x, y, z'
loop_
 _atom_site_type_symbol
 _atom_site_label
 _atom_site_symmetry_multiplicity
 _atom_site_fract_x
 _atom_site_fract_y
 _atom_site_fract_z
 _atom_site_occupancy
  Li  Li0  1  0.80757300  0.60099100  0.10279500  1
  Li  Li1  1  0.61008600  0.19952200  0.68978600  1
  Li  Li2  1  0.00000000  0.00000000  0.50000000  1
  Li  Li3  1  0.19242700  0.39900900  0.89720500  1
  Li  Li4  1  0.38991400  0.80047800  0.31021400  1
  Li  Li5  1  0.00000000  0.50000000  0.50000000  1
  Mn  Mn0  1  0.59945200  0.70097600  0.69536300  1
  Mn  Mn1  1  0.40054800  0.29902400  0.30463700  1
  Co  Co0  1  0.19597500  0.88997000  0.88891800  1
  Co  Co1  1  0.80402500  0.11003000  0.11108200  1
  O  O0  1  0.89760100  0.57703100  0.80451900  1
  O  O1  1  0.67710200  0.15361700  0.38324100  1
  O  O2  1  0.10869700  0.97083300  0.20397300  1
  O  O3  1  0.32583500  0.36588800  0.58828300  1
  O  O4  1  0.51325300  0.75978700  0.97644300  1
  O  O5  1  0.67416500  0.63411200  0.41171700  1
  O  O6  1  0.48674700  0.24021300  0.02355700  1
  O  O7  1  0.89130300  0.02916700  0.79602700  1
  O  O8  1  0.10239900  0.42296900  0.19548100  1
  O  O9  1  0.32289800  0.84638300  0.61675900  1
loop_
_geom_bond_atom_site_label_1
_geom_bond_atom_site_label_2
_geom_bond_distance
_geom_bond_site_symmetry_2
Li0 O0 2.075434 1_554
Li0 O2 2.130257 1_655
Li0 O6 2.142123 1_555
Li0 O4 2.160730 1_554
Li0 O8 2.168713 1_655
Li0 O5 2.231549 1_555
Li1 O9 2.044157 1_545
Li1 O1 2.076957 1_555
Li1 O3 2.093424 1_555
Li1 O7 2.109847 1_555
Li1 O0 2.138343 1_555
Li1 O6 2.362837 1_556
Li2 O7 2.096384 1_455
Li2 O2 2.096384 1_545
Li2 O5 2.168919 1_445
Li2 O3 2.168919 1_555
Li2 O9 2.230178 1_545
Li2 O1 2.230178 1_455
Li3 O8 2.075434 1_556
Li3 O7 2.130257 1_455
Li3 O4 2.142123 1_555
Li3 O6 2.160730 1_556
Li3 O0 2.168713 1_455
Li3 O3 2.231549 1_555
Li4 O1 2.044157 1_565
Li4 O9 2.076957 1_555
Li4 O5 2.093424 1_555
Li4 O2 2.109847 1_555
Li4 O8 2.138343 1_555
Li4 O4 2.362837 1_554
Li5 O9 2.080407 1_555
Li5 O1 2.080407 1_455
Li5 O3 2.106784 1_555
Li5 O5 2.106784 1_455
Li5 O8 2.134676 1_555
Li5 O0 2.134676 1_455
Mn0 O9 1.924500 1_555
Mn0 O3 1.931142 1_555
Mn0 O7 1.939099 1_565
Mn0 O5 1.943380 1_555
Mn0 O4 1.949779 1_555
Mn0 O0 1.989502 1_555
Mn1 O1 1.924500 1_555
Mn1 O5 1.931142 1_555
Mn1 O2 1.939099 1_545
Mn1 O3 1.943380 1_555
Mn1 O6 1.949779 1_555
Mn1 O8 1.989502 1_555
Co0 O0 1.896708 1_455
Co0 O9 1.987171 1_555
Co0 O6 2.036201 1_566
Co0 O7 2.044320 1_465
Co0 O4 2.052537 1_555
Co0 O2 2.168732 1_556
Co1 O8 1.896708 1_655
Co1 O1 1.987171 1_555
Co1 O4 2.036201 1_544
Co1 O2 2.044320 1_645
Co1 O6 2.052537 1_555
Co1 O7 2.168732 1_554
