# generated using pymatgen
data_Ac2Mg
_symmetry_space_group_name_H-M   'P 1'
_cell_length_a   19.15760706
_cell_length_b   19.15760706
_cell_length_c   12.05590064
_cell_angle_alpha   90.00000000
_cell_angle_beta   90.00000000
_cell_angle_gamma   154.81317354
_symmetry_Int_Tables_number   1
_chemical_formula_structural   Ac2Mg
_chemical_formula_sum   'Ac32 Mg16'
_cell_volume   1883.01792556
_cell_formula_units_Z   16
loop_
 _symmetry_equiv_pos_site_id
 _symmetry_equiv_pos_as_xyz
  1  'x, y, z'
loop_
 _atom_site_type_symbol
 _atom_site_label
 _atom_site_symmetry_multiplicity
 _atom_site_fract_x
 _atom_site_fract_y
 _atom_site_fract_z
 _atom_site_occupancy
  Ac  Ac0_0  1  0.11288828  0.38711172  0.12500000  1
  Ac  Ac0_1  1  0.11288828  0.38711172  0.62500000  1
  Ac  Ac0_2  1  0.11288828  0.88711172  0.12500000  1
  Ac  Ac0_3  1  0.11288828  0.88711172  0.62500000  1
  Ac  Ac0_4  1  0.61288829  0.38711172  0.12500000  1
  Ac  Ac0_5  1  0.61288829  0.38711172  0.62500000  1
  Ac  Ac0_6  1  0.61288829  0.88711171  0.12500000  1
  Ac  Ac0_7  1  0.61288829  0.88711171  0.62500000  1
  Ac  Ac1_0  1  0.45833814  0.04166186  0.12500000  1
  Ac  Ac1_1  1  0.45833814  0.04166186  0.62500000  1
  Ac  Ac1_2  1  0.45833814  0.54166186  0.12500000  1
  Ac  Ac1_3  1  0.45833814  0.54166186  0.62500000  1
  Ac  Ac1_4  1  0.95833814  0.04166186  0.12500000  1
  Ac  Ac1_5  1  0.95833814  0.04166186  0.62500000  1
  Ac  Ac1_6  1  0.95833814  0.54166186  0.12500000  1
  Ac  Ac1_7  1  0.95833814  0.54166186  0.62500000  1
  Ac  Ac2_0  1  0.38711172  0.11288828  0.37500000  1
  Ac  Ac2_1  1  0.38711172  0.11288828  0.87500000  1
  Ac  Ac2_2  1  0.38711172  0.61288829  0.37500000  1
  Ac  Ac2_3  1  0.38711172  0.61288829  0.87500000  1
  Ac  Ac2_4  1  0.88711172  0.11288828  0.37500000  1
  Ac  Ac2_5  1  0.88711172  0.11288828  0.87500000  1
  Ac  Ac2_6  1  0.88711171  0.61288829  0.37500000  1
  Ac  Ac2_7  1  0.88711171  0.61288829  0.87500000  1
  Ac  Ac3_0  1  0.04166186  0.45833814  0.37500000  1
  Ac  Ac3_1  1  0.04166186  0.45833814  0.87500000  1
  Ac  Ac3_2  1  0.04166186  0.95833814  0.37500000  1
  Ac  Ac3_3  1  0.04166186  0.95833814  0.87500000  1
  Ac  Ac3_4  1  0.54166186  0.45833814  0.37500000  1
  Ac  Ac3_5  1  0.54166186  0.45833814  0.87500000  1
  Ac  Ac3_6  1  0.54166186  0.95833814  0.37500000  1
  Ac  Ac3_7  1  0.54166186  0.95833814  0.87500000  1
  Mg  Mg0_0  1  0.28565838  0.21434162  0.12500000  1
  Mg  Mg0_1  1  0.28565838  0.21434162  0.62500000  1
  Mg  Mg0_2  1  0.28565838  0.71434162  0.12500000  1
  Mg  Mg0_3  1  0.28565838  0.71434162  0.62500000  1
  Mg  Mg0_4  1  0.78565838  0.21434162  0.12500000  1
  Mg  Mg0_5  1  0.78565838  0.21434162  0.62500000  1
  Mg  Mg0_6  1  0.78565838  0.71434162  0.12500000  1
  Mg  Mg0_7  1  0.78565838  0.71434162  0.62500000  1
  Mg  Mg1_0  1  0.21434162  0.28565838  0.37500000  1
  Mg  Mg1_1  1  0.21434162  0.28565838  0.87500000  1
  Mg  Mg1_2  1  0.21434162  0.78565838  0.37500000  1
  Mg  Mg1_3  1  0.21434162  0.78565838  0.87500000  1
  Mg  Mg1_4  1  0.71434162  0.28565838  0.37500000  1
  Mg  Mg1_5  1  0.71434162  0.28565838  0.87500000  1
  Mg  Mg1_6  1  0.71434162  0.78565838  0.37500000  1
  Mg  Mg1_7  1  0.71434162  0.78565838  0.87500000  1
loop_
_geom_bond_atom_site_label_1
_geom_bond_atom_site_label_2
_geom_bond_distance
_geom_bond_site_symmetry_2
Ac0_0 Mg0_4 3.563937 1_455
Ac0_0 Mg0_2 3.563937 1_555
Ac0_0 Ac2_4 3.777069 1_455
Ac0_0 Ac2_2 3.777069 1_555
Ac0_0 Ac2_5 3.777069 1_454
Ac0_0 Ac2_3 3.777069 1_554
Ac0_0 Ac3_0 4.022157 1_555
Ac0_0 Ac3_1 4.022157 1_554
Ac0_0 Ac1_2 4.135323 1_555
Ac0_0 Ac1_4 4.135323 1_455
Ac0_0 Ac0_6 4.176953 1_445
Ac0_0 Ac0_6 4.176953 1_555
Ac0_1 Mg0_3 3.563937 1_555
Ac0_1 Mg0_5 3.563937 1_455
Ac0_1 Ac2_3 3.777069 1_555
Ac0_1 Ac2_5 3.777069 1_455
Ac0_1 Ac2_2 3.777069 1_555
Ac0_1 Ac2_4 3.777069 1_455
Ac0_1 Ac3_1 4.022157 1_555
Ac0_1 Ac3_0 4.022157 1_555
Ac0_1 Ac1_3 4.135323 1_555
Ac0_1 Ac1_5 4.135323 1_455
Ac0_1 Ac0_7 4.176953 1_445
Ac0_1 Ac0_7 4.176953 1_555
Ac0_2 Mg0_0 3.563937 1_565
Ac0_2 Mg0_6 3.563937 1_455
Ac0_2 Ac2_6 3.777069 1_455
Ac0_2 Ac2_0 3.777069 1_565
Ac0_2 Ac2_7 3.777069 1_454
Ac0_2 Ac2_1 3.777069 1_564
Ac0_2 Ac3_2 4.022157 1_555
Ac0_2 Ac3_3 4.022157 1_554
Ac0_2 Ac1_0 4.135323 1_565
Ac0_2 Ac1_6 4.135323 1_455
Ac0_2 Ac0_4 4.176953 1_565
Ac0_2 Ac0_4 4.176953 1_455
Ac0_3 Mg0_1 3.563937 1_565
Ac0_3 Mg0_7 3.563937 1_455
Ac0_3 Ac2_7 3.777069 1_455
Ac0_3 Ac2_1 3.777069 1_565
Ac0_3 Ac2_6 3.777069 1_455
Ac0_3 Ac2_0 3.777069 1_565
Ac0_3 Ac3_3 4.022157 1_555
Ac0_3 Ac3_2 4.022157 1_555
Ac0_3 Ac1_1 4.135323 1_565
Ac0_3 Ac1_7 4.135323 1_455
Ac0_3 Ac0_5 4.176953 1_455
Ac0_3 Ac0_5 4.176953 1_565
Ac0_4 Mg0_6 3.563937 1_555
Ac0_4 Mg0_0 3.563937 1_555
Ac0_4 Ac2_6 3.777069 1_555
Ac0_4 Ac2_0 3.777069 1_555
Ac0_4 Ac2_7 3.777069 1_554
Ac0_4 Ac2_1 3.777069 1_554
Ac0_4 Ac3_4 4.022157 1_555
Ac0_4 Ac3_5 4.022157 1_554
Ac0_4 Ac1_6 4.135323 1_555
Ac0_4 Ac1_0 4.135323 1_555
Ac0_5 Mg0_7 3.563937 1_555
Ac0_5 Mg0_1 3.563937 1_555
Ac0_5 Ac2_7 3.777069 1_555
Ac0_5 Ac2_1 3.777069 1_555
Ac0_5 Ac2_6 3.777069 1_555
Ac0_5 Ac2_0 3.777069 1_555
Ac0_5 Ac3_5 4.022157 1_555
Ac0_5 Ac3_4 4.022157 1_555
Ac0_5 Ac1_7 4.135323 1_555
Ac0_5 Ac1_1 4.135323 1_555
Ac0_6 Mg0_4 3.563937 1_565
Ac0_6 Mg0_2 3.563937 1_555
Ac0_6 Ac2_2 3.777069 1_555
Ac0_6 Ac2_4 3.777069 1_565
Ac0_6 Ac2_3 3.777069 1_554
Ac0_6 Ac2_5 3.777069 1_564
Ac0_6 Ac3_6 4.022157 1_555
Ac0_6 Ac3_7 4.022157 1_554
Ac0_6 Ac1_2 4.135323 1_555
Ac0_6 Ac1_4 4.135323 1_565
Ac0_7 Mg0_5 3.563937 1_565
Ac0_7 Mg0_3 3.563937 1_555
Ac0_7 Ac2_3 3.777069 1_555
Ac0_7 Ac2_5 3.777069 1_565
Ac0_7 Ac2_2 3.777069 1_555
Ac0_7 Ac2_4 3.777069 1_565
Ac0_7 Ac3_7 4.022157 1_555
Ac0_7 Ac3_6 4.022157 1_555
Ac0_7 Ac1_3 4.135323 1_555
Ac0_7 Ac1_5 4.135323 1_565
Ac1_0 Mg0_2 3.566674 1_545
Ac1_0 Mg0_4 3.566674 1_555
Ac1_0 Mg1_4 3.673714 1_555
Ac1_0 Mg1_2 3.673714 1_545
Ac1_0 Mg1_5 3.673714 1_554
Ac1_0 Mg1_3 3.673714 1_544
Ac1_0 Ac2_0 4.022157 1_555
Ac1_0 Ac2_1 4.022157 1_554
Ac1_0 Ac1_6 4.176953 1_445
Ac1_0 Ac1_6 4.176953 1_555
Ac1_0 Ac3_6 4.334974 1_545
Ac1_0 Ac3_7 4.334974 1_544
Ac1_1 Mg0_3 3.566674 1_545
Ac1_1 Mg0_5 3.566674 1_555
Ac1_1 Mg1_5 3.673714 1_555
Ac1_1 Mg1_3 3.673714 1_545
Ac1_1 Mg1_2 3.673714 1_545
Ac1_1 Mg1_4 3.673714 1_555
Ac1_1 Ac2_1 4.022157 1_555
Ac1_1 Ac2_0 4.022157 1_555
Ac1_1 Ac1_7 4.176953 1_445
Ac1_1 Ac1_7 4.176953 1_555
Ac1_1 Ac3_7 4.334974 1_545
Ac1_1 Ac3_6 4.334974 1_545
Ac1_2 Mg0_6 3.566674 1_555
Ac1_2 Mg0_0 3.566674 1_555
Ac1_2 Mg1_0 3.673714 1_555
Ac1_2 Mg1_6 3.673714 1_555
Ac1_2 Mg1_1 3.673714 1_554
Ac1_2 Mg1_7 3.673714 1_554
Ac1_2 Ac2_2 4.022157 1_555
Ac1_2 Ac2_3 4.022157 1_554
Ac1_2 Ac1_4 4.176953 1_565
Ac1_2 Ac1_4 4.176953 1_455
Ac1_2 Ac3_4 4.334974 1_555
Ac1_2 Ac3_5 4.334974 1_554
Ac1_3 Mg0_1 3.566674 1_555
Ac1_3 Mg0_7 3.566674 1_555
Ac1_3 Mg1_1 3.673714 1_555
Ac1_3 Mg1_7 3.673714 1_555
Ac1_3 Mg1_0 3.673714 1_555
Ac1_3 Mg1_6 3.673714 1_555
Ac1_3 Ac2_3 4.022157 1_555
Ac1_3 Ac2_2 4.022157 1_555
Ac1_3 Ac1_5 4.176953 1_565
Ac1_3 Ac1_5 4.176953 1_455
Ac1_3 Ac3_5 4.334974 1_555
Ac1_3 Ac3_4 4.334974 1_555
Ac1_4 Mg0_6 3.566674 1_545
Ac1_4 Mg0_0 3.566674 1_655
Ac1_4 Mg1_6 3.673714 1_545
Ac1_4 Mg1_0 3.673714 1_655
Ac1_4 Mg1_1 3.673714 1_654
Ac1_4 Mg1_7 3.673714 1_544
Ac1_4 Ac2_4 4.022157 1_555
Ac1_4 Ac2_5 4.022157 1_554
Ac1_4 Ac3_2 4.334974 1_645
Ac1_4 Ac3_3 4.334974 1_644
Ac1_5 Mg0_7 3.566674 1_545
Ac1_5 Mg0_1 3.566674 1_655
Ac1_5 Mg1_1 3.673714 1_655
Ac1_5 Mg1_7 3.673714 1_545
Ac1_5 Mg1_0 3.673714 1_655
Ac1_5 Mg1_6 3.673714 1_545
Ac1_5 Ac2_5 4.022157 1_555
Ac1_5 Ac2_4 4.022157 1_555
Ac1_5 Ac3_3 4.334974 1_645
Ac1_5 Ac3_2 4.334974 1_645
Ac1_6 Mg0_4 3.566674 1_555
Ac1_6 Mg0_2 3.566674 1_655
Ac1_6 Mg1_4 3.673714 1_555
Ac1_6 Mg1_2 3.673714 1_655
Ac1_6 Mg1_3 3.673714 1_654
Ac1_6 Mg1_5 3.673714 1_554
Ac1_6 Ac2_6 4.022157 1_555
Ac1_6 Ac2_7 4.022157 1_554
Ac1_6 Ac3_0 4.334974 1_655
Ac1_6 Ac3_1 4.334974 1_654
Ac1_7 Mg0_5 3.566674 1_555
Ac1_7 Mg0_3 3.566674 1_655
Ac1_7 Mg1_3 3.673714 1_655
Ac1_7 Mg1_5 3.673714 1_555
Ac1_7 Mg1_2 3.673714 1_655
Ac1_7 Mg1_4 3.673714 1_555
Ac1_7 Ac2_7 4.022157 1_555
Ac1_7 Ac2_6 4.022157 1_555
Ac1_7 Ac3_1 4.334974 1_655
Ac1_7 Ac3_0 4.334974 1_655
Ac2_0 Mg1_4 3.563937 1_555
Ac2_0 Mg1_2 3.563937 1_545
Ac2_0 Ac3_2 4.135323 1_545
Ac2_0 Ac3_4 4.135323 1_555
Ac2_0 Ac2_6 4.176953 1_445
Ac2_0 Ac2_6 4.176953 1_555
Ac2_1 Mg1_3 3.563937 1_545
Ac2_1 Mg1_5 3.563937 1_555
Ac2_1 Ac3_5 4.135323 1_555
Ac2_1 Ac3_3 4.135323 1_545
Ac2_1 Ac2_7 4.176953 1_445
Ac2_1 Ac2_7 4.176953 1_555
Ac2_2 Mg1_6 3.563937 1_555
Ac2_2 Mg1_0 3.563937 1_555
Ac2_2 Ac3_0 4.135323 1_555
Ac2_2 Ac3_6 4.135323 1_555
Ac2_2 Ac2_4 4.176953 1_565
Ac2_2 Ac2_4 4.176953 1_455
Ac2_3 Mg1_7 3.563937 1_555
Ac2_3 Mg1_1 3.563937 1_555
Ac2_3 Ac3_1 4.135323 1_555
Ac2_3 Ac3_7 4.135323 1_555
Ac2_3 Ac2_5 4.176953 1_565
Ac2_3 Ac2_5 4.176953 1_455
Ac2_4 Mg1_0 3.563937 1_655
Ac2_4 Mg1_6 3.563937 1_545
Ac2_4 Ac3_0 4.135323 1_655
Ac2_4 Ac3_6 4.135323 1_545
Ac2_5 Mg1_1 3.563937 1_655
Ac2_5 Mg1_7 3.563937 1_545
Ac2_5 Ac3_1 4.135323 1_655
Ac2_5 Ac3_7 4.135323 1_545
Ac2_6 Mg1_2 3.563937 1_655
Ac2_6 Mg1_4 3.563937 1_555
Ac2_6 Ac3_2 4.135323 1_655
Ac2_6 Ac3_4 4.135323 1_555
Ac2_7 Mg1_3 3.563937 1_655
Ac2_7 Mg1_5 3.563937 1_555
Ac2_7 Ac3_3 4.135323 1_655
Ac2_7 Ac3_5 4.135323 1_555
Ac3_0 Mg1_4 3.566674 1_455
Ac3_0 Mg1_2 3.566674 1_555
Ac3_0 Mg0_2 3.673714 1_555
Ac3_0 Mg0_4 3.673714 1_455
Ac3_0 Mg0_5 3.673714 1_455
Ac3_0 Mg0_3 3.673714 1_555
Ac3_0 Ac3_6 4.176953 1_555
Ac3_0 Ac3_6 4.176953 1_445
Ac3_1 Mg1_3 3.566674 1_555
Ac3_1 Mg1_5 3.566674 1_455
Ac3_1 Mg0_3 3.673714 1_555
Ac3_1 Mg0_5 3.673714 1_455
Ac3_1 Mg0_2 3.673714 1_556
Ac3_1 Mg0_4 3.673714 1_456
Ac3_1 Ac3_7 4.176953 1_555
Ac3_1 Ac3_7 4.176953 1_445
Ac3_2 Mg1_6 3.566674 1_455
Ac3_2 Mg1_0 3.566674 1_565
Ac3_2 Mg0_0 3.673714 1_565
Ac3_2 Mg0_6 3.673714 1_455
Ac3_2 Mg0_1 3.673714 1_565
Ac3_2 Mg0_7 3.673714 1_455
Ac3_2 Ac3_4 4.176953 1_565
Ac3_2 Ac3_4 4.176953 1_455
Ac3_3 Mg1_7 3.566674 1_455
Ac3_3 Mg1_1 3.566674 1_565
Ac3_3 Mg0_1 3.673714 1_565
Ac3_3 Mg0_7 3.673714 1_455
Ac3_3 Mg0_6 3.673714 1_456
Ac3_3 Mg0_0 3.673714 1_566
Ac3_3 Ac3_5 4.176953 1_565
Ac3_3 Ac3_5 4.176953 1_455
Ac3_4 Mg1_0 3.566674 1_555
Ac3_4 Mg1_6 3.566674 1_555
Ac3_4 Mg0_0 3.673714 1_555
Ac3_4 Mg0_6 3.673714 1_555
Ac3_4 Mg0_1 3.673714 1_555
Ac3_4 Mg0_7 3.673714 1_555
Ac3_5 Mg1_1 3.566674 1_555
Ac3_5 Mg1_7 3.566674 1_555
Ac3_5 Mg0_7 3.673714 1_555
Ac3_5 Mg0_1 3.673714 1_555
Ac3_5 Mg0_6 3.673714 1_556
Ac3_5 Mg0_0 3.673714 1_556
Ac3_6 Mg1_2 3.566674 1_555
Ac3_6 Mg1_4 3.566674 1_565
Ac3_6 Mg0_4 3.673714 1_565
Ac3_6 Mg0_2 3.673714 1_555
Ac3_6 Mg0_5 3.673714 1_565
Ac3_6 Mg0_3 3.673714 1_555
Ac3_7 Mg1_3 3.566674 1_555
Ac3_7 Mg1_5 3.566674 1_565
Ac3_7 Mg0_5 3.673714 1_565
Ac3_7 Mg0_3 3.673714 1_555
Ac3_7 Mg0_4 3.673714 1_566
Ac3_7 Mg0_2 3.673714 1_556
