# generated using pymatgen
data_Ho3Pd4
_symmetry_space_group_name_H-M   'P 1'
_cell_length_a   5.69500032
_cell_length_b   7.79402852
_cell_length_c   7.79402794
_cell_angle_alpha   114.26867667
_cell_angle_beta   104.09689915
_cell_angle_gamma   104.09689807
_symmetry_Int_Tables_number   1
_chemical_formula_structural   Ho3Pd4
_chemical_formula_sum   'Ho6 Pd8'
_cell_volume   281.83113695
_cell_formula_units_Z   2
loop_
 _symmetry_equiv_pos_site_id
 _symmetry_equiv_pos_as_xyz
  1  'x, y, z'
loop_
 _atom_site_type_symbol
 _atom_site_label
 _atom_site_symmetry_multiplicity
 _atom_site_fract_x
 _atom_site_fract_y
 _atom_site_fract_z
 _atom_site_occupancy
  Ho  Ho0  1  0.40571138  0.12872060  0.37999159  1
  Ho  Ho1  1  0.02572078  0.62000841  0.74872901  1
  Ho  Ho2  1  0.27699177  0.25127099  0.87127940  1
  Ho  Ho3  1  0.59428862  0.87127940  0.62000841  1
  Ho  Ho4  1  0.97427922  0.37999159  0.25127099  1
  Ho  Ho5  1  0.72300823  0.74872901  0.12872060  1
  Pd  Pd0  1  0.00000000  0.00000000  0.00000000  1
  Pd  Pd1  1  0.50000000  0.00000000  0.00000000  1
  Pd  Pd2  1  0.22718814  0.67816318  0.16546380  1
  Pd  Pd3  1  0.06172434  0.83453620  0.51269938  1
  Pd  Pd4  1  0.54902496  0.48730062  0.32183682  1
  Pd  Pd5  1  0.77281186  0.32183682  0.83453620  1
  Pd  Pd6  1  0.93827566  0.16546380  0.48730062  1
  Pd  Pd7  1  0.45097504  0.51269938  0.67816318  1
loop_
_geom_bond_atom_site_label_1
_geom_bond_atom_site_label_2
_geom_bond_distance
_geom_bond_site_symmetry_2
Ho0 Pd7 2.835292 1_555
Ho0 Pd6 2.850380 1_555
Ho0 Pd0 2.865560 1_555
Ho0 Pd1 2.942946 1_555
Ho0 Pd2 2.960944 1_545
Ho0 Pd4 2.965261 1_555
Ho0 Pd6 3.021101 1_455
Ho0 Pd5 3.108547 1_555
Ho0 Pd3 3.303537 1_545
Ho1 Pd5 2.835294 1_455
Ho1 Pd7 2.850374 1_555
Ho1 Pd0 2.865562 1_566
Ho1 Pd1 2.942943 1_566
Ho1 Pd3 2.960944 1_555
Ho1 Pd2 2.965261 1_556
Ho1 Pd7 3.021106 1_455
Ho1 Pd6 3.108546 1_455
Ho1 Pd4 3.303540 1_455
Ho2 Pd6 2.835294 1_455
Ho2 Pd5 2.850374 1_555
Ho2 Pd0 2.865562 1_556
Ho2 Pd1 2.942943 1_556
Ho2 Pd4 2.960944 1_556
Ho2 Pd3 2.965260 1_545
Ho2 Pd5 3.021106 1_455
Ho2 Pd7 3.108546 1_555
Ho2 Pd2 3.303540 1_556
Ho3 Pd4 2.835292 1_555
Ho3 Pd3 2.850380 1_555
Ho3 Pd0 2.865560 1_666
Ho3 Pd1 2.942946 1_566
Ho3 Pd5 2.960944 1_565
Ho3 Pd7 2.965261 1_555
Ho3 Pd3 3.021101 1_655
Ho3 Pd2 3.108547 1_555
Ho3 Pd6 3.303537 1_565
Ho4 Pd2 2.835294 1_655
Ho4 Pd4 2.850374 1_555
Ho4 Pd0 2.865562 1_655
Ho4 Pd1 2.942943 1_555
Ho4 Pd6 2.960944 1_555
Ho4 Pd5 2.965261 1_554
Ho4 Pd4 3.021106 1_655
Ho4 Pd3 3.108546 1_655
Ho4 Pd7 3.303540 1_655
Ho5 Pd3 2.835294 1_655
Ho5 Pd2 2.850374 1_555
Ho5 Pd0 2.865562 1_665
Ho5 Pd1 2.942943 1_565
Ho5 Pd7 2.960944 1_554
Ho5 Pd6 2.965260 1_565
Ho5 Pd2 3.021106 1_655
Ho5 Pd4 3.108546 1_555
Ho5 Pd5 3.303540 1_554
Pd2 Pd5 2.901942 1_454
Pd2 Pd3 2.964471 1_555
Pd2 Pd4 2.964471 1_555
Pd3 Pd6 2.901942 1_465
Pd3 Pd4 2.964471 1_455
Pd4 Pd7 2.901942 1_555
Pd5 Pd6 2.964471 1_555
Pd5 Pd7 2.964471 1_555
Pd6 Pd7 2.964471 1_655
