# generated using pymatgen
data_BaAlCuWO5
_symmetry_space_group_name_H-M   'P 1'
_cell_length_a   3.99173400
_cell_length_b   3.99173400
_cell_length_c   8.90709100
_cell_angle_alpha   90.00000000
_cell_angle_beta   90.00000000
_cell_angle_gamma   90.00000000
_symmetry_Int_Tables_number   1
_chemical_formula_structural   BaAlCuWO5
_chemical_formula_sum   'Ba1 Al1 Cu1 W1 O5'
_cell_volume   141.92505648
_cell_formula_units_Z   1
loop_
 _symmetry_equiv_pos_site_id
 _symmetry_equiv_pos_as_xyz
  1  'x, y, z'
loop_
 _atom_site_type_symbol
 _atom_site_label
 _atom_site_symmetry_multiplicity
 _atom_site_fract_x
 _atom_site_fract_y
 _atom_site_fract_z
 _atom_site_occupancy
  Ba  Ba0  1  0.00000000  0.00000000  0.91877600  1
  Al  Al0  1  0.00000000  0.00000000  0.34395800  1
  Cu  Cu0  1  0.50000000  0.50000000  0.33125500  1
  W  W0  1  0.50000000  0.50000000  0.67898900  1
  O  O0  1  0.00000000  0.50000000  0.67451900  1
  O  O1  1  0.50000000  0.00000000  0.67451900  1
  O  O2  1  0.00000000  0.50000000  0.32401200  1
  O  O3  1  0.50000000  0.00000000  0.32401200  1
  O  O4  1  0.50000000  0.50000000  0.91002900  1
loop_
_geom_bond_atom_site_label_1
_geom_bond_atom_site_label_2
_geom_bond_distance
_geom_bond_site_symmetry_2
Ba0 O4 2.823657 1_545
Ba0 O4 2.823657 1_455
Ba0 O4 2.823657 1_555
Ba0 O4 2.823657 1_445
Ba0 O1 2.952424 1_555
Ba0 O0 2.952424 1_555
Ba0 O1 2.952424 1_455
Ba0 O0 2.952424 1_545
Al0 O3 2.003759 1_555
Al0 O3 2.003759 1_455
Al0 O2 2.003759 1_555
Al0 O2 2.003759 1_545
Cu0 O2 1.996909 1_655
Cu0 O3 1.996909 1_565
Cu0 O3 1.996909 1_555
Cu0 O2 1.996909 1_555
O0 W0 1.996264 1_455
O0 W0 1.996264 1_555
O1 W0 1.996264 1_545
O1 W0 1.996264 1_555
O4 W0 2.057894 1_555
