# generated using pymatgen
data_Ba2Sr(PO4)2
_symmetry_space_group_name_H-M   'P 1'
_cell_length_a   7.73871185
_cell_length_b   7.73871185
_cell_length_c   7.73871199
_cell_angle_alpha   42.52754135
_cell_angle_beta   42.52754135
_cell_angle_gamma   42.52754215
_symmetry_Int_Tables_number   1
_chemical_formula_structural   Ba2Sr(PO4)2
_chemical_formula_sum   'Ba2 Sr1 P2 O8'
_cell_volume   191.74838843
_cell_formula_units_Z   1
loop_
 _symmetry_equiv_pos_site_id
 _symmetry_equiv_pos_as_xyz
  1  'x, y, z'
loop_
 _atom_site_type_symbol
 _atom_site_label
 _atom_site_symmetry_multiplicity
 _atom_site_fract_x
 _atom_site_fract_y
 _atom_site_fract_z
 _atom_site_occupancy
  Ba  Ba0  1  0.20858400  0.20858400  0.20858400  1
  Ba  Ba1  1  0.79141600  0.79141600  0.79141600  1
  Sr  Sr0  1  0.00000000  0.00000000  0.00000000  1
  P  P0  1  0.40385500  0.40385500  0.40385500  1
  P  P1  1  0.59614500  0.59614500  0.59614500  1
  O  O0  1  0.27696400  0.73246500  0.27696400  1
  O  O1  1  0.27696400  0.27696400  0.73246500  1
  O  O2  1  0.73246500  0.27696400  0.27696400  1
  O  O3  1  0.72303600  0.26753500  0.72303600  1
  O  O4  1  0.72303600  0.72303600  0.26753500  1
  O  O5  1  0.26753500  0.72303600  0.72303600  1
  O  O6  1  0.33073400  0.33073400  0.33073400  1
  O  O7  1  0.66926600  0.66926600  0.66926600  1
loop_
_geom_bond_atom_site_label_1
_geom_bond_atom_site_label_2
_geom_bond_distance
_geom_bond_site_symmetry_2
Ba0 O6 2.575220 1_555
Ba0 O3 2.877260 1_554
Ba0 O5 2.877260 1_554
Ba0 O3 2.877260 1_455
Ba0 O5 2.877260 1_545
Ba0 O4 2.877260 1_545
Ba0 O4 2.877260 1_455
Ba0 O2 2.966671 1_455
Ba0 O0 2.966671 1_545
Ba0 O1 2.966671 1_554
Ba1 O7 2.575220 1_555
Ba1 O2 2.877260 1_556
Ba1 O0 2.877260 1_556
Ba1 O0 2.877260 1_655
Ba1 O2 2.877260 1_565
Ba1 O1 2.877260 1_565
Ba1 O1 2.877260 1_655
Ba1 O5 2.966671 1_655
Ba1 O3 2.966671 1_565
Ba1 O4 2.966671 1_556
O0 P0 1.567013 1_555
O0 Sr0 2.676626 1_565
O1 P0 1.567013 1_555
O1 Sr0 2.676626 1_556
O2 P0 1.567013 1_555
O2 Sr0 2.676626 1_655
O3 P1 1.567013 1_555
O3 Sr0 2.676626 1_656
O4 P1 1.567013 1_555
O4 Sr0 2.676626 1_665
O5 P1 1.567013 1_555
O5 Sr0 2.676626 1_566
O6 P0 1.541569 1_555
O7 P1 1.541569 1_555
