# generated using pymatgen
data_Lu2CoGe6
_symmetry_space_group_name_H-M   'P 1'
_cell_length_a   4.02958600
_cell_length_b   3.95568600
_cell_length_c   10.82234368
_cell_angle_alpha   100.53030211
_cell_angle_beta   90.00000000
_cell_angle_gamma   90.00000000
_symmetry_Int_Tables_number   1
_chemical_formula_structural   Lu2CoGe6
_chemical_formula_sum   'Lu2 Co1 Ge6'
_cell_volume   169.60046980
_cell_formula_units_Z   1
loop_
 _symmetry_equiv_pos_site_id
 _symmetry_equiv_pos_as_xyz
  1  'x, y, z'
loop_
 _atom_site_type_symbol
 _atom_site_label
 _atom_site_symmetry_multiplicity
 _atom_site_fract_x
 _atom_site_fract_y
 _atom_site_fract_z
 _atom_site_occupancy
  Lu  Lu0  1  0.50000000  0.22279700  0.44559400  1
  Lu  Lu1  1  0.50000000  0.88637700  0.77275300  1
  Co  Co0  1  0.00000000  0.44431400  0.88862900  1
  Ge  Ge0  1  0.50000000  0.50023400  0.00046900  1
  Ge  Ge1  1  0.50000000  0.61817800  0.23635500  1
  Ge  Ge2  1  0.00000000  0.00140300  0.00280600  1
  Ge  Ge3  1  0.00000000  0.12039600  0.24079200  1
  Ge  Ge4  1  0.00000000  0.33775500  0.67551000  1
  Ge  Ge5  1  0.00000000  0.76154600  0.52309200  1
loop_
_geom_bond_atom_site_label_1
_geom_bond_atom_site_label_2
_geom_bond_distance
_geom_bond_site_symmetry_2
Co0 Ge4 2.267603 1_555
Co0 Ge2 2.321146 1_556
Co0 Ge2 2.321150 1_566
Co0 Ge0 2.339970 1_456
Co0 Ge0 2.339970 1_556
Co0 Lu1 3.080804 1_445
Co0 Lu1 3.080804 1_545
Co0 Lu1 3.080809 1_455
Co0 Lu1 3.080809 1_555
Ge0 Ge1 2.509845 1_555
Ge0 Ge2 2.823449 1_555
Ge0 Ge2 2.823449 1_655
Ge0 Ge2 2.823452 1_665
Ge0 Ge2 2.823452 1_565
Ge0 Lu1 3.127678 1_544
Ge0 Lu1 3.127683 1_554
Ge1 Ge3 2.823734 1_565
Ge1 Ge3 2.823734 1_665
Ge1 Ge3 2.823737 1_655
Ge1 Ge3 2.823737 1_555
Ge1 Lu0 2.977978 1_565
Ge1 Lu0 2.977981 1_555
Ge2 Ge3 2.532190 1_555
Ge2 Lu1 3.170335 1_544
Ge2 Lu1 3.170335 1_444
Ge3 Lu0 2.967812 1_555
Ge3 Lu0 2.967812 1_455
Ge4 Ge5 2.557714 1_555
Ge4 Ge5 2.557714 1_545
Ge4 Lu1 3.006958 1_445
Ge4 Lu1 3.006958 1_545
Ge4 Lu1 3.006960 1_455
Ge4 Lu1 3.006960 1_555
Ge4 Lu0 3.169210 1_455
Ge4 Lu0 3.169210 1_555
Ge5 Lu0 2.941291 1_465
Ge5 Lu0 2.941291 1_555
Ge5 Lu0 2.941291 1_565
Ge5 Lu0 2.941291 1_455
Ge5 Lu1 3.334054 1_455
Ge5 Lu1 3.334054 1_555
