# generated using pymatgen
data_DyUAl4
_symmetry_space_group_name_H-M   'P 1'
_cell_length_a   5.54288985
_cell_length_b   5.54288985
_cell_length_c   5.54288985
_cell_angle_alpha   60.00000000
_cell_angle_beta   60.00000000
_cell_angle_gamma   60.00000000
_symmetry_Int_Tables_number   1
_chemical_formula_structural   DyUAl4
_chemical_formula_sum   'Dy1 U1 Al4'
_cell_volume   120.41864798
_cell_formula_units_Z   1
loop_
 _symmetry_equiv_pos_site_id
 _symmetry_equiv_pos_as_xyz
  1  'x, y, z'
loop_
 _atom_site_type_symbol
 _atom_site_label
 _atom_site_symmetry_multiplicity
 _atom_site_fract_x
 _atom_site_fract_y
 _atom_site_fract_z
 _atom_site_occupancy
  Dy  Dy0  1  0.75000000  0.75000000  0.75000000  1
  U  U0  1  0.00000000  0.00000000  0.00000000  1
  Al  Al0  1  0.37438700  0.37438700  0.37438700  1
  Al  Al1  1  0.37438700  0.87683900  0.37438700  1
  Al  Al2  1  0.87683900  0.37438700  0.37438700  1
  Al  Al3  1  0.37438700  0.37438700  0.87683900  1
loop_
_geom_bond_atom_site_label_1
_geom_bond_atom_site_label_2
_geom_bond_distance
_geom_bond_site_symmetry_2
Dy0 U0 3.394313 1_566
Dy0 U0 3.394313 1_656
Dy0 U0 3.394313 1_666
Dy0 U0 3.394313 1_665
Al0 Al2 2.757854 1_455
Al0 Al3 2.757854 1_554
Al0 Al1 2.757854 1_545
Al0 Al1 2.785036 1_555
Al0 Al2 2.785036 1_555
Al0 Al3 2.785036 1_555
Al0 U0 3.248369 1_655
Al0 U0 3.248369 1_556
Al0 U0 3.248369 1_565
Al0 Dy0 3.251266 1_455
Al0 Dy0 3.251266 1_545
Al0 Dy0 3.251266 1_554
Al1 Al3 2.757854 1_564
Al1 Al2 2.757854 1_465
Al1 Al2 2.785036 1_555
Al1 Al3 2.785036 1_555
Al1 U0 3.248369 1_565
Al1 U0 3.248369 1_566
Al1 U0 3.248369 1_665
Al1 Dy0 3.251266 1_554
Al1 Dy0 3.251266 1_455
Al1 Dy0 3.251266 1_555
Al2 Al3 2.757854 1_654
Al2 Al3 2.785036 1_555
Al2 U0 3.248369 1_655
Al2 U0 3.248369 1_665
Al2 U0 3.248369 1_656
Al2 Dy0 3.251266 1_554
Al2 Dy0 3.251266 1_545
Al2 Dy0 3.251266 1_555
Al3 U0 3.248369 1_556
Al3 U0 3.248369 1_566
Al3 U0 3.248369 1_656
Al3 Dy0 3.251266 1_545
Al3 Dy0 3.251266 1_455
Al3 Dy0 3.251266 1_555
