# generated using pymatgen
data_Ti4WC5
_symmetry_space_group_name_H-M   'P 1'
_cell_length_a   12.70632823
_cell_length_b   12.70632823
_cell_length_c   12.70632795
_cell_angle_alpha   13.86004929
_cell_angle_beta   13.86004929
_cell_angle_gamma   13.86004788
_symmetry_Int_Tables_number   1
_chemical_formula_structural   Ti4WC5
_chemical_formula_sum   'Ti4 W1 C5'
_cell_volume   102.44712782
_cell_formula_units_Z   1
loop_
 _symmetry_equiv_pos_site_id
 _symmetry_equiv_pos_as_xyz
  1  'x, y, z'
loop_
 _atom_site_type_symbol
 _atom_site_label
 _atom_site_symmetry_multiplicity
 _atom_site_fract_x
 _atom_site_fract_y
 _atom_site_fract_z
 _atom_site_occupancy
  Ti  Ti0  1  0.09933700  0.09933700  0.09933700  1
  Ti  Ti1  1  0.69974400  0.69974400  0.69974400  1
  Ti  Ti2  1  0.30025600  0.30025600  0.30025600  1
  Ti  Ti3  1  0.90066300  0.90066300  0.90066300  1
  W  W0  1  0.50000000  0.50000000  0.50000000  1
  C  C0  1  0.59996300  0.59996300  0.59996300  1
  C  C1  1  0.40003700  0.40003700  0.40003700  1
  C  C2  1  0.00000000  0.00000000  0.00000000  1
  C  C3  1  0.20014100  0.20014100  0.20014100  1
  C  C4  1  0.79985900  0.79985900  0.79985900  1
loop_
_geom_bond_atom_site_label_1
_geom_bond_atom_site_label_2
_geom_bond_distance
_geom_bond_site_symmetry_2
C0 Ti3 2.156680 1_554
C0 Ti3 2.156680 1_545
C0 Ti3 2.156680 1_455
C0 Ti2 2.178306 1_556
C0 Ti2 2.178306 1_565
C0 Ti2 2.178306 1_655
C1 Ti0 2.156680 1_556
C1 Ti0 2.156680 1_565
C1 Ti0 2.156680 1_655
C1 Ti1 2.178306 1_554
C1 Ti1 2.178306 1_455
C1 Ti1 2.178306 1_545
C2 Ti1 2.166296 1_445
C2 Ti2 2.166296 1_554
C2 Ti1 2.166296 1_544
C2 Ti1 2.166296 1_454
C2 Ti2 2.166296 1_545
C2 Ti2 2.166296 1_455
C3 W0 2.174968 1_554
C3 W0 2.174968 1_455
C3 W0 2.174968 1_545
C3 Ti3 2.183354 1_445
C3 Ti3 2.183354 1_544
C3 Ti3 2.183354 1_454
C4 W0 2.174968 1_556
C4 W0 2.174968 1_655
C4 W0 2.174968 1_565
C4 Ti0 2.183354 1_665
C4 Ti0 2.183354 1_656
C4 Ti0 2.183354 1_566
