# generated using pymatgen
data_CaCu3(P2O7)2
_symmetry_space_group_name_H-M   'P 1'
_cell_length_a   7.85721400
_cell_length_b   7.33478400
_cell_length_c   9.45766078
_cell_angle_alpha   69.67039860
_cell_angle_beta   90.00000000
_cell_angle_gamma   90.00000000
_symmetry_Int_Tables_number   1
_chemical_formula_structural   CaCu3(P2O7)2
_chemical_formula_sum   'Ca2 Cu6 P8 O28'
_cell_volume   511.10248316
_cell_formula_units_Z   2
loop_
 _symmetry_equiv_pos_site_id
 _symmetry_equiv_pos_as_xyz
  1  'x, y, z'
loop_
 _atom_site_type_symbol
 _atom_site_label
 _atom_site_symmetry_multiplicity
 _atom_site_fract_x
 _atom_site_fract_y
 _atom_site_fract_z
 _atom_site_occupancy
  Ca  Ca0  1  0.00000000  0.50000000  0.00000000  1
  Ca  Ca1  1  0.50000000  0.50000000  0.50000000  1
  Cu  Cu0  1  0.13005700  0.81024500  0.52189100  1
  Cu  Cu1  1  0.63005700  0.18975500  0.97810900  1
  Cu  Cu2  1  0.86994300  0.18975500  0.47810900  1
  Cu  Cu3  1  0.36994300  0.81024500  0.02189100  1
  Cu  Cu4  1  0.00000000  0.00000000  0.00000000  1
  Cu  Cu5  1  0.50000000  0.00000000  0.50000000  1
  P  P0  1  0.94736600  0.40552000  0.69965500  1
  P  P1  1  0.44736600  0.59448000  0.80034500  1
  P  P2  1  0.05263400  0.59448000  0.30034500  1
  P  P3  1  0.55263400  0.40552000  0.19965500  1
  P  P4  1  0.20840000  0.10692200  0.69583800  1
  P  P5  1  0.70840000  0.89307800  0.80416200  1
  P  P6  1  0.79160000  0.89307800  0.30416200  1
  P  P7  1  0.29160000  0.10692200  0.19583800  1
  O  O0  1  0.38078000  0.15772300  0.61470700  1
  O  O1  1  0.88078000  0.84227700  0.88529300  1
  O  O2  1  0.61922000  0.84227700  0.38529300  1
  O  O3  1  0.11922000  0.15772300  0.11470700  1
  O  O4  1  0.39832700  0.70228500  0.63432400  1
  O  O5  1  0.89832700  0.29771500  0.86567600  1
  O  O6  1  0.60167300  0.29771500  0.36567600  1
  O  O7  1  0.10167300  0.70228500  0.13432400  1
  O  O8  1  0.81757000  0.37526400  0.58815800  1
  O  O9  1  0.31757000  0.62473600  0.91184200  1
  O  O10  1  0.18243000  0.62473600  0.41184200  1
  O  O11  1  0.68243000  0.37526400  0.08815800  1
  O  O12  1  0.12770900  0.31726900  0.67191900  1
  O  O13  1  0.62770900  0.68273100  0.82808100  1
  O  O14  1  0.87229100  0.68273100  0.32808100  1
  O  O15  1  0.37229100  0.31726900  0.17191900  1
  O  O16  1  0.51116300  0.61642900  0.18168700  1
  O  O17  1  0.01116300  0.38357100  0.31831300  1
  O  O18  1  0.48883700  0.38357100  0.81831300  1
  O  O19  1  0.98883700  0.61642900  0.68168700  1
  O  O20  1  0.78490400  0.99122300  0.12951100  1
  O  O21  1  0.28490400  0.00877700  0.37048900  1
  O  O22  1  0.21509600  0.00877700  0.87048900  1
  O  O23  1  0.71509600  0.99122300  0.62951100  1
  O  O24  1  0.41185800  0.00409600  0.12163400  1
  O  O25  1  0.91185800  0.99590400  0.37836600  1
  O  O26  1  0.58814200  0.99590400  0.87836600  1
  O  O27  1  0.08814200  0.00409600  0.62163400  1
loop_
_geom_bond_atom_site_label_1
_geom_bond_atom_site_label_2
_geom_bond_distance
_geom_bond_site_symmetry_2
Ca0 O7 2.400667 1_555
Ca0 O5 2.400667 1_454
Ca0 O1 2.542578 1_454
Ca0 O3 2.542578 1_555
Ca0 O11 2.688548 1_455
Ca0 O9 2.688548 1_554
Ca0 O17 2.830847 1_555
Ca0 O19 2.830847 1_454
Ca1 O4 2.400667 1_555
Ca1 O6 2.400667 1_555
Ca1 O2 2.542578 1_555
Ca1 O0 2.542578 1_555
Ca1 O8 2.688548 1_555
Ca1 O10 2.688548 1_555
Ca1 O18 2.830847 1_555
Ca1 O16 2.830847 1_555
Cu0 O27 1.987963 1_565
Cu0 O19 2.010803 1_455
Cu0 O10 2.021895 1_555
Cu0 O21 2.049950 1_565
Cu0 O25 2.313411 1_455
Cu0 O4 2.369756 1_555
Cu1 O26 1.987963 1_545
Cu1 O18 2.010803 1_555
Cu1 O11 2.021895 1_556
Cu1 O20 2.049950 1_546
Cu1 O24 2.313411 1_556
Cu1 O5 2.369756 1_555
Cu2 O25 1.987963 1_545
Cu2 O17 2.010803 1_655
Cu2 O8 2.021895 1_555
Cu2 O23 2.049950 1_545
Cu2 O27 2.313411 1_655
Cu2 O6 2.369756 1_555
Cu3 O24 1.987963 1_565
Cu3 O16 2.010803 1_555
Cu3 O9 2.021895 1_554
Cu3 O22 2.049950 1_564
Cu3 O26 2.313411 1_554
Cu3 O7 2.369756 1_555
Cu4 O3 2.065135 1_555
Cu4 O1 2.065135 1_444
Cu4 O22 2.075078 1_554
Cu4 O20 2.075078 1_445
Cu4 O5 2.256756 1_454
Cu4 O7 2.256756 1_545
Cu5 O0 2.065135 1_555
Cu5 O2 2.065135 1_545
Cu5 O23 2.075078 1_545
Cu5 O21 2.075078 1_555
Cu5 O6 2.256756 1_555
Cu5 O4 2.256756 1_545
O0 P4 1.537340 1_555
O1 P5 1.537340 1_555
O2 P6 1.537340 1_555
O3 P7 1.537340 1_555
O4 P1 1.541574 1_555
O5 P0 1.541574 1_555
O6 P3 1.541574 1_555
O7 P2 1.541574 1_555
O8 P0 1.537494 1_555
O9 P1 1.537494 1_555
O10 P2 1.537494 1_555
O11 P3 1.537494 1_555
O12 P4 1.609662 1_555
O12 P0 1.616683 1_455
O13 P5 1.609662 1_555
O13 P1 1.616683 1_555
O14 P6 1.609662 1_555
O14 P2 1.616683 1_655
O15 P7 1.609662 1_555
O15 P3 1.616683 1_555
O16 P3 1.531507 1_555
O17 P2 1.531507 1_555
O18 P1 1.531507 1_555
O19 P0 1.531507 1_555
O20 P6 1.556655 1_555
O21 P7 1.556655 1_555
O22 P4 1.556655 1_555
O23 P5 1.556655 1_555
O24 P7 1.523793 1_555
O25 P6 1.523793 1_555
O26 P5 1.523793 1_555
O27 P4 1.523793 1_555
