# generated using pymatgen
data_Rb2ZnP4(HO2)8
_symmetry_space_group_name_H-M   'P 1'
_cell_length_a   7.05193797
_cell_length_b   7.48160108
_cell_length_c   7.78482699
_cell_angle_alpha   82.44288019
_cell_angle_beta   72.01351917
_cell_angle_gamma   86.68253636
_symmetry_Int_Tables_number   1
_chemical_formula_structural   Rb2ZnP4(HO2)8
_chemical_formula_sum   'Rb2 Zn1 P4 H8 O16'
_cell_volume   387.19540244
_cell_formula_units_Z   1
loop_
 _symmetry_equiv_pos_site_id
 _symmetry_equiv_pos_as_xyz
  1  'x, y, z'
loop_
 _atom_site_type_symbol
 _atom_site_label
 _atom_site_symmetry_multiplicity
 _atom_site_fract_x
 _atom_site_fract_y
 _atom_site_fract_z
 _atom_site_occupancy
  Rb  Rb0  1  0.40373500  0.28205900  0.21106500  1
  Rb  Rb1  1  0.59626500  0.71794100  0.78893500  1
  Zn  Zn0  1  0.00000000  0.50000000  0.00000000  1
  P  P0  1  0.73941700  0.80112500  0.25071800  1
  P  P1  1  0.26058300  0.19887500  0.74928200  1
  P  P2  1  0.15078800  0.74093900  0.25918600  1
  P  P3  1  0.84921200  0.25906100  0.74081400  1
  H  H0  1  0.42250400  0.73787600  0.41128900  1
  H  H1  1  0.57749600  0.26212400  0.58871100  1
  H  H2  1  0.22980100  0.96924200  0.04123200  1
  H  H3  1  0.77019900  0.03075800  0.95876800  1
  H  H4  1  0.88340600  0.30832300  0.35119600  1
  H  H5  1  0.11659400  0.69167700  0.64880400  1
  H  H6  1  0.88528000  0.17664400  0.20492600  1
  H  H7  1  0.11472000  0.82335600  0.79507400  1
  O  O0  1  0.74570800  0.65351500  0.13320500  1
  O  O1  1  0.25429200  0.34648500  0.86679500  1
  O  O2  1  0.55258500  0.78820000  0.42423100  1
  O  O3  1  0.44741500  0.21180000  0.57576900  1
  O  O4  1  0.76472500  0.99328100  0.15282400  1
  O  O5  1  0.23527500  0.00671900  0.84717600  1
  O  O6  1  0.91245300  0.76576500  0.35091100  1
  O  O7  1  0.08754700  0.23423500  0.64908900  1
  O  O8  1  0.19079200  0.61780600  0.11149700  1
  O  O9  1  0.80920800  0.38219400  0.88850300  1
  O  O10  1  0.22897400  0.67484900  0.41796400  1
  O  O11  1  0.77102600  0.32515100  0.58203600  1
  O  O12  1  0.23442400  0.93442900  0.17450400  1
  O  O13  1  0.76557600  0.06557100  0.82549600  1
  O  O14  1  0.94799300  0.28535700  0.22288900  1
  O  O15  1  0.05200700  0.71464300  0.77711100  1
loop_
_geom_bond_atom_site_label_1
_geom_bond_atom_site_label_2
_geom_bond_distance
_geom_bond_site_symmetry_2
H0 O2 1.049007 1_555
H0 O10 1.453226 1_555
H1 O3 1.049007 1_555
H1 O11 1.453226 1_555
H2 O12 1.046009 1_555
H2 O5 1.488665 1_564
H3 O13 1.046009 1_555
H3 O4 1.488665 1_546
H4 O14 0.994881 1_555
H5 O15 0.994881 1_555
H6 O14 0.993183 1_555
H7 O15 0.993183 1_555
O0 P0 1.514421 1_555
O0 Zn0 2.129946 1_655
O0 Rb1 3.141903 1_554
O1 P1 1.514421 1_555
O1 Zn0 2.129946 1_556
O1 Rb0 3.141903 1_556
O2 P0 1.565597 1_555
O2 Rb1 2.925889 1_555
O3 P1 1.565597 1_555
O3 Rb0 2.925889 1_555
O4 P0 1.528707 1_555
O4 Rb0 3.203466 1_565
O5 P1 1.528707 1_555
O5 Rb1 3.203466 1_545
O6 P2 1.620735 1_655
O6 P0 1.632026 1_555
O6 Rb1 3.435579 1_555
O7 P3 1.620735 1_455
O7 P1 1.632026 1_555
O7 Rb0 3.435579 1_555
O8 P2 1.516028 1_555
O8 Zn0 2.097659 1_555
O8 Rb0 2.989267 1_555
O8 Rb1 3.218942 1_554
O9 P3 1.516028 1_555
O9 Zn0 2.097659 1_656
O9 Rb1 2.989267 1_555
O9 Rb0 3.218942 1_556
O10 P2 1.518195 1_555
O10 Rb0 3.514108 1_555
O11 P3 1.518195 1_555
O11 Rb1 3.514108 1_555
O12 P2 1.576615 1_555
O12 Rb0 3.005805 1_565
O13 P3 1.576615 1_555
O13 Rb1 3.005805 1_545
O14 Zn0 2.160168 1_655
O14 Rb0 3.185392 1_655
O15 Zn0 2.160168 1_556
O15 Rb1 3.185392 1_455
