# generated using pymatgen
data_Li4MnCo2O7
_symmetry_space_group_name_H-M   'P 1'
_cell_length_a   4.98437500
_cell_length_b   6.57104664
_cell_length_c   7.81833090
_cell_angle_alpha   85.77012608
_cell_angle_beta   79.20805071
_cell_angle_gamma   82.17996310
_symmetry_Int_Tables_number   1
_chemical_formula_structural   Li4MnCo2O7
_chemical_formula_sum   'Li8 Mn2 Co4 O14'
_cell_volume   248.89525346
_cell_formula_units_Z   2
loop_
 _symmetry_equiv_pos_site_id
 _symmetry_equiv_pos_as_xyz
  1  'x, y, z'
loop_
 _atom_site_type_symbol
 _atom_site_label
 _atom_site_symmetry_multiplicity
 _atom_site_fract_x
 _atom_site_fract_y
 _atom_site_fract_z
 _atom_site_occupancy
  Li  Li0  1  0.65619800  0.71484700  0.20867600  1
  Li  Li1  1  0.34380200  0.28515300  0.79132400  1
  Li  Li2  1  0.07215600  0.85685600  0.35092200  1
  Li  Li3  1  0.50000000  0.00000000  0.50000000  1
  Li  Li4  1  0.20311300  0.57593200  0.06778700  1
  Li  Li5  1  0.92784400  0.14314400  0.64907800  1
  Li  Li6  1  0.79688700  0.42406800  0.93221300  1
  Li  Li7  1  0.00000000  0.00000000  0.00000000  1
  Mn  Mn0  1  0.56891600  0.85913700  0.86259100  1
  Mn  Mn1  1  0.43108400  0.14086300  0.13740900  1
  Co  Co0  1  0.29171500  0.42653400  0.42790900  1
  Co  Co1  1  0.70828500  0.57346600  0.57209100  1
  Co  Co2  1  0.13594600  0.71943300  0.72342800  1
  Co  Co3  1  0.86405400  0.28056700  0.27657200  1
  O  O0  1  0.87434200  0.71915100  0.95611600  1
  O  O1  1  0.59366800  0.29771500  0.53308300  1
  O  O2  1  0.34638100  0.87155700  0.09330600  1
  O  O3  1  0.73996700  0.02228800  0.25037700  1
  O  O4  1  0.45615300  0.59668000  0.81619600  1
  O  O5  1  0.18333800  0.14780100  0.36663900  1
  O  O6  1  0.02973700  0.44968600  0.66928900  1
  O  O7  1  0.40633200  0.70228500  0.46691700  1
  O  O8  1  0.12565800  0.28084900  0.04388400  1
  O  O9  1  0.81666200  0.85219900  0.63336100  1
  O  O10  1  0.26003300  0.97771200  0.74962300  1
  O  O11  1  0.97026300  0.55031400  0.33071100  1
  O  O12  1  0.65361900  0.12844300  0.90669400  1
  O  O13  1  0.54384700  0.40332000  0.18380400  1
loop_
_geom_bond_atom_site_label_1
_geom_bond_atom_site_label_2
_geom_bond_distance
_geom_bond_site_symmetry_2
Li0 O2 2.051964 1_555
Li0 O0 2.068378 1_554
Li0 O11 2.115739 1_555
Li0 O7 2.167036 1_555
Li0 O3 2.177053 1_565
Li0 O13 2.225604 1_555
Li1 O12 2.051964 1_555
Li1 O8 2.068378 1_556
Li1 O6 2.115739 1_555
Li1 O1 2.167036 1_555
Li1 O10 2.177053 1_545
Li1 O4 2.225604 1_555
Li2 O5 2.079832 1_565
Li2 O3 2.100652 1_465
Li2 O7 2.144277 1_555
Li2 O11 2.166958 1_455
Li2 O2 2.215979 1_555
Li2 O9 2.333748 1_455
Li3 O10 2.095777 1_545
Li3 O3 2.095777 1_555
Li3 O7 2.116694 1_545
Li3 O1 2.116694 1_555
Li3 O9 2.138078 1_545
Li3 O5 2.138078 1_555
Li4 O8 2.056183 1_555
Li4 O0 2.080444 1_454
Li4 O4 2.134636 1_554
Li4 O11 2.170169 1_455
Li4 O2 2.193473 1_555
Li4 O13 2.212367 1_555
Li5 O9 2.079832 1_545
Li5 O10 2.100652 1_645
Li5 O1 2.144277 1_555
Li5 O6 2.166958 1_655
Li5 O12 2.215979 1_555
Li5 O5 2.333748 1_655
Li6 O0 2.056183 1_555
Li6 O8 2.080444 1_656
Li6 O13 2.134636 1_556
Li6 O6 2.170169 1_655
Li6 O12 2.193473 1_555
Li6 O4 2.212367 1_555
Li7 O12 2.051728 1_454
Li7 O2 2.051728 1_545
Li7 O8 2.098616 1_555
Li7 O0 2.098616 1_444
Li7 O10 2.138635 1_544
Li7 O3 2.138635 1_455
Mn0 O0 1.906554 1_555
Mn0 O2 1.933524 1_556
Mn0 O12 1.943333 1_565
Mn0 O10 1.959280 1_555
Mn0 O4 1.963209 1_555
Mn0 O9 1.976582 1_555
Mn1 O8 1.906554 1_555
Mn1 O12 1.933524 1_554
Mn1 O2 1.943333 1_545
Mn1 O3 1.959280 1_555
Mn1 O13 1.963209 1_555
Mn1 O5 1.976582 1_555
Co0 O1 1.916230 1_555
Co0 O11 1.953553 1_455
Co0 O7 2.032509 1_555
Co0 O13 2.082680 1_555
Co0 O6 2.086907 1_555
Co0 O5 2.090810 1_555
Co1 O7 1.916230 1_555
Co1 O6 1.953553 1_655
Co1 O1 2.032509 1_555
Co1 O4 2.082680 1_555
Co1 O11 2.086907 1_555
Co1 O9 2.090810 1_555
Co2 O10 1.920729 1_555
Co2 O4 1.928954 1_555
Co2 O9 1.934127 1_455
Co2 O6 2.012753 1_555
Co2 O0 2.030189 1_455
Co2 O7 2.197916 1_555
Co3 O3 1.920729 1_555
Co3 O13 1.928954 1_555
Co3 O5 1.934127 1_655
Co3 O11 2.012753 1_555
Co3 O8 2.030189 1_655
Co3 O1 2.197916 1_555
