# generated using pymatgen
data_Li9Mn2Co5O16
_symmetry_space_group_name_H-M   'P 1'
_cell_length_a   5.91159143
_cell_length_b   5.91159143
_cell_length_c   9.71678652
_cell_angle_alpha   82.34428039
_cell_angle_beta   82.34428039
_cell_angle_gamma   58.13804645
_symmetry_Int_Tables_number   1
_chemical_formula_structural   Li9Mn2Co5O16
_chemical_formula_sum   'Li9 Mn2 Co5 O16'
_cell_volume   285.03606735
_cell_formula_units_Z   1
loop_
 _symmetry_equiv_pos_site_id
 _symmetry_equiv_pos_as_xyz
  1  'x, y, z'
loop_
 _atom_site_type_symbol
 _atom_site_label
 _atom_site_symmetry_multiplicity
 _atom_site_fract_x
 _atom_site_fract_y
 _atom_site_fract_z
 _atom_site_occupancy
  Li  Li0  1  0.62678900  0.13587700  0.73452100  1
  Li  Li1  1  0.86412300  0.37321100  0.26547900  1
  Li  Li2  1  0.13587700  0.62678900  0.73452100  1
  Li  Li3  1  0.12630200  0.12630200  0.73809800  1
  Li  Li4  1  0.37685700  0.37685700  0.26352200  1
  Li  Li5  1  0.62314300  0.62314300  0.73647700  1
  Li  Li6  1  0.87369800  0.87369800  0.26190200  1
  Li  Li7  1  0.37321100  0.86412300  0.26547900  1
  Li  Li8  1  0.50000000  0.50000000  0.50000000  1
  Mn  Mn0  1  0.24995600  0.24995600  0.00040000  1
  Mn  Mn1  1  0.75004400  0.75004400  0.99960000  1
  Co  Co0  1  0.00000000  0.00000000  0.50000000  1
  Co  Co1  1  0.74947600  0.25052400  0.00000000  1
  Co  Co2  1  0.00000000  0.50000000  0.50000000  1
  Co  Co3  1  0.25052400  0.74947600  0.00000000  1
  Co  Co4  1  0.50000000  0.00000000  0.50000000  1
  O  O0  1  0.44837300  0.94486100  0.88443100  1
  O  O1  1  0.70319600  0.16969300  0.38781800  1
  O  O2  1  0.94486100  0.44837300  0.88443100  1
  O  O3  1  0.94107100  0.94107100  0.89244100  1
  O  O4  1  0.17248200  0.17248200  0.38729200  1
  O  O5  1  0.44194400  0.44194400  0.88841600  1
  O  O6  1  0.69541700  0.69541700  0.38693100  1
  O  O7  1  0.16969300  0.70319600  0.38781800  1
  O  O8  1  0.83030700  0.29680400  0.61218200  1
  O  O9  1  0.05513900  0.55162700  0.11556900  1
  O  O10  1  0.29680400  0.83030700  0.61218200  1
  O  O11  1  0.30458300  0.30458300  0.61306900  1
  O  O12  1  0.55805600  0.55805600  0.11158400  1
  O  O13  1  0.82751800  0.82751800  0.61270800  1
  O  O14  1  0.05892900  0.05892900  0.10755900  1
  O  O15  1  0.55162700  0.05513900  0.11556900  1
loop_
_geom_bond_atom_site_label_1
_geom_bond_atom_site_label_2
_geom_bond_distance
_geom_bond_site_symmetry_2
Li0 O13 2.012207 1_545
Li0 O8 2.071625 1_555
Li0 O11 2.072484 1_555
Li0 O5 2.214062 1_555
Li0 O0 2.217917 1_545
Li0 O3 2.272122 1_545
Li1 O4 2.012207 1_655
Li1 O1 2.071625 1_555
Li1 O6 2.072484 1_555
Li1 O12 2.214062 1_555
Li1 O9 2.217917 1_655
Li1 O14 2.272122 1_655
Li2 O13 2.012207 1_455
Li2 O10 2.071625 1_555
Li2 O11 2.072484 1_555
Li2 O5 2.214062 1_555
Li2 O2 2.217917 1_455
Li2 O3 2.272122 1_455
Li3 O8 1.988597 1_455
Li3 O10 1.988597 1_545
Li3 O11 2.046419 1_555
Li3 O0 2.226251 1_545
Li3 O2 2.226251 1_455
Li3 O3 2.244558 1_445
Li4 O7 2.100625 1_555
Li4 O1 2.100625 1_555
Li4 O12 2.200706 1_555
Li4 O15 2.238204 1_555
Li4 O9 2.238204 1_555
Li4 O4 2.265515 1_555
Li5 O8 2.100619 1_555
Li5 O10 2.100619 1_555
Li5 O5 2.200711 1_555
Li5 O0 2.238211 1_555
Li5 O2 2.238211 1_555
Li5 O13 2.265511 1_555
Li6 O1 1.988597 1_565
Li6 O7 1.988597 1_655
Li6 O6 2.046419 1_555
Li6 O15 2.226251 1_565
Li6 O9 2.226251 1_655
Li6 O14 2.244558 1_665
Li7 O4 2.012207 1_565
Li7 O7 2.071625 1_555
Li7 O6 2.072484 1_555
Li7 O12 2.214062 1_555
Li7 O15 2.217917 1_565
Li7 O14 2.272122 1_565
Li8 O8 2.045938 1_555
Li8 O10 2.045938 1_555
Li8 O1 2.045938 1_555
Li8 O7 2.045938 1_555
Li8 O11 2.146805 1_555
Li8 O6 2.146805 1_555
Mn0 O15 1.943974 1_555
Mn0 O9 1.943974 1_555
Mn0 O0 1.963271 1_544
Mn0 O2 1.963271 1_454
Mn0 O14 2.086736 1_555
Mn0 O5 2.112368 1_554
Mn1 O2 1.943974 1_555
Mn1 O0 1.943974 1_555
Mn1 O15 1.963271 1_566
Mn1 O9 1.963271 1_656
Mn1 O3 2.086736 1_555
Mn1 O12 2.112368 1_556
Co0 O10 1.906066 1_545
Co0 O8 1.906066 1_455
Co0 O7 1.906066 1_545
Co0 O1 1.906066 1_455
Co0 O13 1.944556 1_445
Co0 O4 1.944556 1_555
Co1 O14 1.930859 1_655
Co1 O3 1.930859 1_544
Co1 O5 1.946170 1_554
Co1 O12 1.946170 1_555
Co1 O15 2.166524 1_555
Co1 O2 2.166524 1_554
Co2 O11 1.943336 1_555
Co2 O6 1.943336 1_455
Co2 O13 2.042284 1_455
Co2 O4 2.042284 1_555
Co2 O7 2.066252 1_555
Co2 O8 2.066252 1_455
Co3 O14 1.930859 1_565
Co3 O3 1.930859 1_454
Co3 O5 1.946170 1_554
Co3 O12 1.946170 1_555
Co3 O9 2.166524 1_555
Co3 O0 2.166524 1_554
Co4 O11 1.943336 1_555
Co4 O6 1.943336 1_545
Co4 O13 2.042284 1_545
Co4 O4 2.042284 1_555
Co4 O1 2.066252 1_555
Co4 O10 2.066252 1_545
