# generated using pymatgen
data_RbUB5O11F
_symmetry_space_group_name_H-M   'P 1'
_cell_length_a   6.50810176
_cell_length_b   6.50810176
_cell_length_c   14.38421751
_cell_angle_alpha   85.45567211
_cell_angle_beta   85.45567211
_cell_angle_gamma   60.28857300
_symmetry_Int_Tables_number   1
_chemical_formula_structural   RbUB5O11F
_chemical_formula_sum   'Rb2 U2 B10 O22 F2'
_cell_volume   526.92713982
_cell_formula_units_Z   2
loop_
 _symmetry_equiv_pos_site_id
 _symmetry_equiv_pos_as_xyz
  1  'x, y, z'
loop_
 _atom_site_type_symbol
 _atom_site_label
 _atom_site_symmetry_multiplicity
 _atom_site_fract_x
 _atom_site_fract_y
 _atom_site_fract_z
 _atom_site_occupancy
  Rb  Rb0  1  0.07207800  0.34100100  0.55074800  1
  Rb  Rb1  1  0.34100100  0.07207800  0.05074800  1
  U  U0  1  0.11304200  0.84794900  0.33259700  1
  U  U1  1  0.84794900  0.11304200  0.83259700  1
  B  B0  1  0.43145800  0.02878300  0.79923700  1
  B  B1  1  0.02878300  0.43145800  0.29923700  1
  B  B2  1  0.45679400  0.17785900  0.32858400  1
  B  B3  1  0.17785900  0.45679400  0.82858400  1
  B  B4  1  0.69484000  0.36460400  0.37190400  1
  B  B5  1  0.36460400  0.69484000  0.87190400  1
  B  B6  1  0.62944900  0.74985900  0.28267100  1
  B  B7  1  0.74985900  0.62944900  0.78267100  1
  B  B8  1  0.55788700  0.86451000  0.64433900  1
  B  B9  1  0.86451000  0.55788700  0.14433900  1
  O  O0  1  0.39939300  0.04914500  0.69792100  1
  O  O1  1  0.04914500  0.39939300  0.19792100  1
  O  O2  1  0.66878800  0.16122200  0.34479000  1
  O  O3  1  0.16122200  0.66878800  0.84479000  1
  O  O4  1  0.54086100  0.58770300  0.32125400  1
  O  O5  1  0.58770300  0.54086100  0.82125400  1
  O  O6  1  0.95151200  0.27316100  0.34890100  1
  O  O7  1  0.27316100  0.95151200  0.84890100  1
  O  O8  1  0.52374000  0.89332500  0.54980900  1
  O  O9  1  0.89332500  0.52374000  0.04980900  1
  O  O10  1  0.85828900  0.67938700  0.32229100  1
  O  O11  1  0.67938700  0.85828900  0.82229100  1
  O  O12  1  0.25190500  0.39455600  0.33432900  1
  O  O13  1  0.39455600  0.25190500  0.83432900  1
  O  O14  1  0.74202100  0.66003500  0.67972200  1
  O  O15  1  0.66003500  0.74202100  0.17972200  1
  O  O16  1  0.11007000  0.88363000  0.20720200  1
  O  O17  1  0.88363000  0.11007000  0.70720200  1
  O  O18  1  0.11095800  0.81236000  0.45771400  1
  O  O19  1  0.81236000  0.11095800  0.95771400  1
  O  O20  1  0.43782900  0.98585600  0.30761900  1
  O  O21  1  0.98585600  0.43782900  0.80761900  1
  F  F0  1  0.64912800  0.39097200  0.46955900  1
  F  F1  1  0.39097200  0.64912800  0.96955900  1
loop_
_geom_bond_atom_site_label_1
_geom_bond_atom_site_label_2
_geom_bond_distance
_geom_bond_site_symmetry_2
B0 O7 1.471250 1_545
B0 O13 1.473877 1_555
B0 O0 1.474842 1_555
B0 O11 1.482039 1_545
B1 O6 1.471250 1_455
B1 O12 1.473877 1_555
B1 O1 1.474842 1_555
B1 O10 1.482039 1_455
B2 O2 1.366917 1_555
B2 O20 1.373356 1_545
B2 O12 1.382280 1_555
B3 O3 1.366917 1_555
B3 O21 1.373356 1_455
B3 O13 1.382280 1_555
B4 F0 1.418619 1_555
B4 O4 1.465930 1_555
B4 O6 1.487357 1_555
B4 O2 1.499199 1_555
B5 F1 1.418619 1_555
B5 O5 1.465930 1_555
B5 O7 1.487357 1_555
B5 O3 1.499199 1_555
B6 O20 1.469942 1_555
B6 O10 1.472814 1_555
B6 O15 1.479970 1_555
B6 O4 1.487863 1_555
B7 O21 1.469942 1_555
B7 O11 1.472814 1_555
B7 O14 1.479970 1_555
B7 O5 1.487863 1_555
B8 O14 1.369135 1_555
B8 O0 1.376245 1_565
B8 O8 1.378265 1_555
B9 O15 1.369135 1_555
B9 O1 1.376245 1_655
B9 O9 1.378265 1_555
O0 Rb0 2.948514 1_555
O1 Rb1 2.948514 1_555
O6 Rb0 3.185584 1_655
O7 Rb1 3.185584 1_566
O8 Rb0 2.939354 1_565
O9 Rb1 2.939354 1_655
O12 Rb0 3.291981 1_555
O13 Rb1 3.291981 1_556
O14 Rb0 2.815093 1_655
O15 Rb1 2.815093 1_565
O16 U0 1.800658 1_555
O16 Rb1 3.111488 1_565
O17 U1 1.800658 1_555
O17 Rb0 3.111488 1_655
O18 U0 1.796101 1_555
O18 Rb0 3.366100 1_555
O19 U1 1.796101 1_555
O19 Rb1 3.366100 1_556
F0 Rb0 2.933985 1_655
F1 Rb1 2.933985 1_566
