# generated using pymatgen
data_Li9Mn2Co5O16
_symmetry_space_group_name_H-M   'P 1'
_cell_length_a   5.91736827
_cell_length_b   5.91736827
_cell_length_c   10.22319523
_cell_angle_alpha   72.49278667
_cell_angle_beta   72.49278667
_cell_angle_gamma   58.76349846
_symmetry_Int_Tables_number   1
_chemical_formula_structural   Li9Mn2Co5O16
_chemical_formula_sum   'Li9 Mn2 Co5 O16'
_cell_volume   287.25618587
_cell_formula_units_Z   1
loop_
 _symmetry_equiv_pos_site_id
 _symmetry_equiv_pos_as_xyz
  1  'x, y, z'
loop_
 _atom_site_type_symbol
 _atom_site_label
 _atom_site_symmetry_multiplicity
 _atom_site_fract_x
 _atom_site_fract_y
 _atom_site_fract_z
 _atom_site_occupancy
  Li  Li0  1  0.00000000  0.50000000  0.00000000  1
  Li  Li1  1  0.50000000  0.00000000  0.00000000  1
  Li  Li2  1  0.24918000  0.24918000  0.75351500  1
  Li  Li3  1  0.74501400  0.74501400  0.76278400  1
  Li  Li4  1  0.50000000  0.00000000  0.50000000  1
  Li  Li5  1  0.00000000  0.50000000  0.50000000  1
  Li  Li6  1  0.75082000  0.75082000  0.24648500  1
  Li  Li7  1  0.25498600  0.25498600  0.23721600  1
  Li  Li8  1  0.50000000  0.50000000  0.00000000  1
  Mn  Mn0  1  0.00000000  0.00000000  0.00000000  1
  Mn  Mn1  1  0.50000000  0.50000000  0.50000000  1
  Co  Co0  1  0.25599000  0.74750500  0.75632600  1
  Co  Co1  1  0.74750500  0.25599000  0.75632600  1
  Co  Co2  1  0.00000000  0.00000000  0.50000000  1
  Co  Co3  1  0.74401000  0.25249500  0.24367400  1
  Co  Co4  1  0.25249500  0.74401000  0.24367400  1
  O  O0  1  0.12082500  0.64931400  0.12169800  1
  O  O1  1  0.64931400  0.12082500  0.12169800  1
  O  O2  1  0.38681800  0.38681800  0.85813800  1
  O  O3  1  0.88385000  0.88385000  0.88305800  1
  O  O4  1  0.63084400  0.14442500  0.61477500  1
  O  O5  1  0.14442500  0.63084400  0.61477500  1
  O  O6  1  0.89140100  0.89140100  0.36567900  1
  O  O7  1  0.38478700  0.38478700  0.38107200  1
  O  O8  1  0.87917500  0.35068600  0.87830200  1
  O  O9  1  0.35068600  0.87917500  0.87830200  1
  O  O10  1  0.10859900  0.10859900  0.63432100  1
  O  O11  1  0.61521300  0.61521300  0.61892800  1
  O  O12  1  0.36915600  0.85557500  0.38522500  1
  O  O13  1  0.85557500  0.36915600  0.38522500  1
  O  O14  1  0.61318200  0.61318200  0.14186200  1
  O  O15  1  0.11615000  0.11615000  0.11694200  1
loop_
_geom_bond_atom_site_label_1
_geom_bond_atom_site_label_2
_geom_bond_distance
_geom_bond_site_symmetry_2
Li0 O15 2.074201 1_555
Li0 O3 2.074201 1_454
Li0 O0 2.165973 1_555
Li0 O8 2.165973 1_454
Li0 O2 2.188227 1_554
Li0 O14 2.188227 1_455
Li1 O15 2.074201 1_555
Li1 O3 2.074201 1_544
Li1 O1 2.165973 1_555
Li1 O9 2.165973 1_544
Li1 O2 2.188227 1_554
Li1 O14 2.188227 1_545
Li2 O9 2.049036 1_545
Li2 O8 2.049036 1_455
Li2 O2 2.051068 1_555
Li2 O4 2.155537 1_555
Li2 O5 2.155537 1_555
Li2 O10 2.192333 1_555
Li3 O9 2.110570 1_555
Li3 O8 2.110570 1_555
Li3 O3 2.185698 1_555
Li3 O5 2.267000 1_655
Li3 O4 2.267000 1_565
Li3 O11 2.305181 1_555
Li4 O11 2.085803 1_545
Li4 O7 2.085803 1_555
Li4 O4 2.131386 1_555
Li4 O12 2.131386 1_545
Li4 O10 2.176364 1_555
Li4 O6 2.176364 1_545
Li5 O11 2.085803 1_455
Li5 O7 2.085803 1_555
Li5 O5 2.131386 1_555
Li5 O13 2.131386 1_455
Li5 O10 2.176364 1_555
Li5 O6 2.176364 1_455
Li6 O0 2.049036 1_655
Li6 O1 2.049036 1_565
Li6 O14 2.051068 1_555
Li6 O12 2.155537 1_555
Li6 O13 2.155537 1_555
Li6 O6 2.192333 1_555
Li7 O1 2.110570 1_555
Li7 O0 2.110570 1_555
Li7 O15 2.185698 1_555
Li7 O12 2.267000 1_545
Li7 O13 2.267000 1_455
Li7 O7 2.305181 1_555
Li8 O8 2.070896 1_554
Li8 O9 2.070896 1_554
Li8 O0 2.070896 1_555
Li8 O1 2.070896 1_555
Li8 O14 2.152770 1_555
Li8 O2 2.152770 1_554
Mn0 O0 1.951502 1_545
Mn0 O1 1.951502 1_455
Mn0 O9 1.951502 1_544
Mn0 O8 1.951502 1_454
Mn0 O15 1.962831 1_555
Mn0 O3 1.962831 1_444
Mn1 O4 1.942930 1_555
Mn1 O5 1.942930 1_555
Mn1 O13 1.942930 1_555
Mn1 O12 1.942930 1_555
Mn1 O11 1.971621 1_555
Mn1 O7 1.971621 1_555
Co0 O2 1.916390 1_555
Co0 O9 1.983377 1_555
Co0 O10 2.000055 1_565
Co0 O11 2.059999 1_555
Co0 O3 2.061177 1_455
Co0 O5 2.157535 1_555
Co1 O2 1.916390 1_555
Co1 O8 1.983377 1_555
Co1 O10 2.000055 1_655
Co1 O11 2.059999 1_555
Co1 O3 2.061177 1_545
Co1 O4 2.157535 1_555
Co2 O4 2.000979 1_455
Co2 O13 2.000979 1_455
Co2 O5 2.000979 1_545
Co2 O12 2.000979 1_545
Co2 O10 2.049808 1_555
Co2 O6 2.049808 1_445
Co3 O14 1.916390 1_555
Co3 O1 1.983377 1_555
Co3 O6 2.000055 1_545
Co3 O7 2.059999 1_555
Co3 O15 2.061177 1_655
Co3 O13 2.157535 1_555
Co4 O14 1.916390 1_555
Co4 O0 1.983377 1_555
Co4 O6 2.000055 1_455
Co4 O7 2.059999 1_555
Co4 O15 2.061177 1_565
Co4 O12 2.157535 1_555
