# generated using pymatgen
data_Ba3Mo2(IO9)2
_symmetry_space_group_name_H-M   'P 1'
_cell_length_a   5.05474900
_cell_length_b   7.38700636
_cell_length_c   22.90496348
_cell_angle_alpha   87.83645069
_cell_angle_beta   83.66498305
_cell_angle_gamma   69.99282682
_symmetry_Int_Tables_number   1
_chemical_formula_structural   Ba3Mo2(IO9)2
_chemical_formula_sum   'Ba6 Mo4 I4 O36'
_cell_volume   798.73668931
_cell_formula_units_Z   2
loop_
 _symmetry_equiv_pos_site_id
 _symmetry_equiv_pos_as_xyz
  1  'x, y, z'
loop_
 _atom_site_type_symbol
 _atom_site_label
 _atom_site_symmetry_multiplicity
 _atom_site_fract_x
 _atom_site_fract_y
 _atom_site_fract_z
 _atom_site_occupancy
  Ba  Ba0  1  0.47388400  0.00000000  0.00000000  1
  Ba  Ba1  1  0.22388400  0.50000000  0.50000000  1
  Ba  Ba2  1  0.71814600  0.78705300  0.19224500  1
  Ba  Ba3  1  0.69744300  0.21294700  0.80775500  1
  Ba  Ba4  1  0.25519800  0.71294700  0.69224500  1
  Ba  Ba5  1  0.66039100  0.28705300  0.30775500  1
  Mo  Mo0  1  0.57128100  0.40813800  0.09505700  1
  Mo  Mo1  1  0.07447600  0.59186200  0.90494300  1
  Mo  Mo2  1  0.72941900  0.09186200  0.59505700  1
  Mo  Mo3  1  0.41633800  0.90813800  0.40494300  1
  I  I0  1  0.13450900  0.21969500  0.16124800  1
  I  I1  1  0.51545200  0.78030500  0.83875200  1
  I  I2  1  0.10420400  0.28030500  0.66124800  1
  I  I3  1  0.04575800  0.71969500  0.33875200  1
  O  O0  1  0.56816100  0.64670500  0.09538200  1
  O  O1  1  0.31024800  0.35329500  0.90461800  1
  O  O2  1  0.96486500  0.85329500  0.59538200  1
  O  O3  1  0.41354300  0.14670500  0.40461800  1
  O  O4  1  0.50491800  0.37194700  0.02459300  1
  O  O5  1  0.90145800  0.62805300  0.97540700  1
  O  O6  1  0.62686500  0.12805300  0.52459300  1
  O  O7  1  0.27951100  0.87194700  0.47540700  1
  O  O8  1  0.50254500  0.12480100  0.12044600  1
  O  O9  1  0.74779200  0.87519900  0.87955400  1
  O  O10  1  0.37734600  0.37519900  0.62044600  1
  O  O11  1  0.37299100  0.62480100  0.37955400  1
  O  O12  1  0.19904300  0.46823700  0.14428500  1
  O  O13  1  0.81156500  0.53176300  0.85571500  1
  O  O14  1  0.41728000  0.03176300  0.64428500  1
  O  O15  1  0.09332900  0.96823700  0.35571500  1
  O  O16  1  0.97942100  0.24791700  0.08362900  1
  O  O17  1  0.31096800  0.75208300  0.91637100  1
  O  O18  1  0.97733900  0.25208300  0.58362900  1
  O  O19  1  0.81305000  0.74791700  0.41637100  1
  O  O20  1  0.10712300  0.97644900  0.16883200  1
  O  O21  1  0.25240300  0.02355100  0.83116800  1
  O  O22  1  0.83357100  0.52355100  0.66883200  1
  O  O23  1  0.02595500  0.47644900  0.33116800  1
  O  O24  1  0.24972600  0.19890700  0.23560600  1
  O  O25  1  0.68423900  0.80109300  0.76439400  1
  O  O26  1  0.19863300  0.30109300  0.73560600  1
  O  O27  1  0.23533200  0.69890700  0.26439400  1
  O  O28  1  0.99785500  0.91780400  0.04047500  1
  O  O29  1  0.95613400  0.08219600  0.95952500  1
  O  O30  1  0.66565900  0.58219600  0.54047500  1
  O  O31  1  0.78833000  0.41780400  0.45952500  1
  O  O32  1  0.75300900  0.36876600  0.18580500  1
  O  O33  1  0.30758100  0.63123400  0.81419500  1
  O  O34  1  0.87177500  0.13123400  0.68580500  1
  O  O35  1  0.68881400  0.86876600  0.31419500  1
loop_
_geom_bond_atom_site_label_1
_geom_bond_atom_site_label_2
_geom_bond_distance
_geom_bond_site_symmetry_2
Ba0 O28 2.735492 1_445
Ba0 O29 2.735492 1_454
Ba0 O29 2.764393 1_554
Ba0 O28 2.764393 1_545
Ba0 O4 2.884852 1_555
Ba0 O5 2.884853 1_544
Ba0 O8 2.975495 1_555
Ba0 O9 2.975495 1_544
Ba0 O17 3.057159 1_544
Ba0 O16 3.057161 1_455
Ba0 O0 3.280145 1_545
Ba0 O1 3.280145 1_554
Ba1 O31 2.735492 1_455
Ba1 O30 2.735492 1_455
Ba1 O30 2.764393 1_555
Ba1 O31 2.764393 1_555
Ba1 O7 2.884852 1_555
Ba1 O6 2.884853 1_555
Ba1 O11 2.975495 1_555
Ba1 O10 2.975495 1_555
Ba1 O18 3.057159 1_455
Ba1 O19 3.057161 1_455
Ba1 O3 3.280145 1_555
Ba1 O2 3.280146 1_455
Ba2 O0 2.766715 1_555
Ba2 O20 2.775578 1_655
Ba2 O35 2.857150 1_555
Ba2 O8 2.888280 1_565
Ba2 O12 2.889773 1_655
Ba2 O20 3.022627 1_555
Ba2 O27 3.037617 1_555
Ba2 O32 3.042418 1_555
Ba2 O27 3.113938 1_655
Ba2 O24 3.260154 1_565
Ba3 O1 2.766713 1_555
Ba3 O21 2.775578 1_655
Ba3 O34 2.857151 1_555
Ba3 O9 2.888280 1_545
Ba3 O13 2.889776 1_555
Ba3 O21 3.022626 1_555
Ba3 O26 3.037613 1_555
Ba3 O33 3.042415 1_555
Ba3 O26 3.113942 1_655
Ba3 O25 3.260152 1_545
Ba4 O2 2.766716 1_455
Ba4 O22 2.775578 1_555
Ba4 O33 2.857151 1_555
Ba4 O10 2.888280 1_555
Ba4 O14 2.889776 1_565
Ba4 O22 3.022626 1_455
Ba4 O25 3.037613 1_455
Ba4 O34 3.042417 1_465
Ba4 O25 3.113942 1_555
Ba4 O26 3.260152 1_555
Ba5 O3 2.766716 1_555
Ba5 O23 2.775578 1_655
Ba5 O32 2.857150 1_555
Ba5 O11 2.888280 1_555
Ba5 O15 2.889776 1_645
Ba5 O23 3.022627 1_555
Ba5 O24 3.037617 1_555
Ba5 O35 3.042418 1_545
Ba5 O24 3.113938 1_655
Ba5 O27 3.260154 1_555
Mo0 O4 1.732726 1_555
Mo0 O0 1.757253 1_555
Mo0 O16 1.989693 1_555
Mo0 O12 2.001700 1_555
Mo0 O8 2.280508 1_555
Mo0 O32 2.332765 1_555
Mo1 O5 1.732726 1_455
Mo1 O1 1.757253 1_555
Mo1 O17 1.989697 1_555
Mo1 O13 2.001700 1_455
Mo1 O9 2.280508 1_455
Mo1 O33 2.332768 1_555
Mo2 O6 1.732726 1_555
Mo2 O2 1.757251 1_545
Mo2 O18 1.989697 1_555
Mo2 O14 2.001700 1_555
Mo2 O10 2.280508 1_555
Mo2 O34 2.332765 1_555
Mo3 O7 1.732726 1_555
Mo3 O3 1.757253 1_565
Mo3 O19 1.989693 1_555
Mo3 O15 2.001696 1_555
Mo3 O11 2.280508 1_555
Mo3 O35 2.332765 1_555
I0 O24 1.844315 1_555
I0 O20 1.849155 1_545
I0 O8 1.897121 1_555
I0 O32 1.897893 1_455
I0 O12 1.989015 1_555
I0 O16 1.996635 1_455
I1 O25 1.844315 1_555
I1 O21 1.849157 1_565
I1 O9 1.897121 1_555
I1 O33 1.897889 1_555
I1 O13 1.989015 1_555
I1 O17 1.996633 1_555
I2 O26 1.844315 1_555
I2 O22 1.849157 1_455
I2 O10 1.897121 1_555
I2 O34 1.897893 1_455
I2 O14 1.989015 1_555
I2 O18 1.996633 1_455
I3 O27 1.844313 1_555
I3 O23 1.849157 1_555
I3 O11 1.897117 1_555
I3 O35 1.897897 1_455
I3 O15 1.989015 1_555
I3 O19 1.996637 1_455
