# generated using pymatgen
data_SrMg3
_symmetry_space_group_name_H-M   'P 1'
_cell_length_a   13.16962141
_cell_length_b   13.16962141
_cell_length_c   13.16962141
_cell_angle_alpha   148.03506194
_cell_angle_beta   126.10496542
_cell_angle_gamma   64.04668885
_symmetry_Int_Tables_number   1
_chemical_formula_structural   SrMg3
_chemical_formula_sum   'Sr8 Mg24'
_cell_volume   966.56095498
_cell_formula_units_Z   8
loop_
 _symmetry_equiv_pos_site_id
 _symmetry_equiv_pos_as_xyz
  1  'x, y, z'
loop_
 _atom_site_type_symbol
 _atom_site_label
 _atom_site_symmetry_multiplicity
 _atom_site_fract_x
 _atom_site_fract_y
 _atom_site_fract_z
 _atom_site_occupancy
  Sr  Sr0_0  1  0.32704600  0.00000000  0.32704600  1
  Sr  Sr0_1  1  0.32704600  0.00000000  0.82704600  1
  Sr  Sr0_2  1  0.32704600  0.50000000  0.32704600  1
  Sr  Sr0_3  1  0.32704600  0.50000000  0.82704600  1
  Sr  Sr0_4  1  0.82704600  0.00000000  0.32704600  1
  Sr  Sr0_5  1  0.82704600  0.00000000  0.82704600  1
  Sr  Sr0_6  1  0.82704600  0.50000000  0.32704600  1
  Sr  Sr0_7  1  0.82704600  0.50000000  0.82704600  1
  Mg  Mg0_0  1  0.08201600  0.25000000  0.33201600  1
  Mg  Mg0_1  1  0.08201600  0.25000000  0.83201600  1
  Mg  Mg0_2  1  0.08201600  0.75000000  0.33201600  1
  Mg  Mg0_3  1  0.08201600  0.75000000  0.83201600  1
  Mg  Mg0_4  1  0.58201600  0.25000000  0.33201600  1
  Mg  Mg0_5  1  0.58201600  0.25000000  0.83201600  1
  Mg  Mg0_6  1  0.58201600  0.75000000  0.33201600  1
  Mg  Mg0_7  1  0.58201600  0.75000000  0.83201600  1
  Mg  Mg1_0  1  0.12436250  0.12056000  0.00380250  1
  Mg  Mg1_1  1  0.12436250  0.12056000  0.50380250  1
  Mg  Mg1_2  1  0.12436250  0.62056000  0.00380250  1
  Mg  Mg1_3  1  0.12436250  0.62056000  0.50380250  1
  Mg  Mg1_4  1  0.62436250  0.12056000  0.00380250  1
  Mg  Mg1_5  1  0.62436250  0.12056000  0.50380250  1
  Mg  Mg1_6  1  0.62436250  0.62056000  0.00380250  1
  Mg  Mg1_7  1  0.62436250  0.62056000  0.50380250  1
  Mg  Mg2_0  1  0.38324250  0.37944000  0.00380250  1
  Mg  Mg2_1  1  0.38324250  0.37944000  0.50380250  1
  Mg  Mg2_2  1  0.38324250  0.87944000  0.00380250  1
  Mg  Mg2_3  1  0.38324250  0.87944000  0.50380250  1
  Mg  Mg2_4  1  0.88324250  0.37944000  0.00380250  1
  Mg  Mg2_5  1  0.88324250  0.37944000  0.50380250  1
  Mg  Mg2_6  1  0.88324250  0.87944000  0.00380250  1
  Mg  Mg2_7  1  0.88324250  0.87944000  0.50380250  1
loop_
_geom_bond_atom_site_label_1
_geom_bond_atom_site_label_2
_geom_bond_distance
_geom_bond_site_symmetry_2
Sr0_0 Sr0_3 3.626166 1_544
Sr0_0 Sr0_3 3.626166 1_555
Sr0_1 Sr0_2 3.626166 1_556
Sr0_1 Sr0_2 3.626166 1_545
Sr0_4 Sr0_7 3.626166 1_544
Sr0_4 Sr0_7 3.626166 1_555
Sr0_5 Sr0_6 3.626166 1_545
Sr0_5 Sr0_6 3.626166 1_556
Mg0_0 Mg2_5 3.377437 1_455
Mg0_0 Mg2_6 3.377437 1_445
Mg0_0 Mg1_3 3.377437 1_555
Mg0_0 Mg1_0 3.377437 1_555
Mg0_0 Sr0_3 3.441132 1_555
Mg0_0 Sr0_0 3.441132 1_555
Mg0_0 Sr0_6 3.542526 1_455
Mg0_0 Sr0_5 3.542526 1_454
Mg0_1 Mg2_4 3.377437 1_456
Mg0_1 Mg2_7 3.377437 1_445
Mg0_1 Mg1_2 3.377437 1_556
Mg0_1 Mg1_1 3.377437 1_555
Mg0_1 Sr0_2 3.441132 1_556
Mg0_1 Sr0_1 3.441132 1_555
Mg0_1 Sr0_7 3.542526 1_455
Mg0_1 Sr0_4 3.542526 1_455
Mg0_2 Mg2_7 3.377437 1_455
Mg0_2 Mg2_4 3.377437 1_455
Mg0_2 Mg1_1 3.377437 1_565
Mg0_2 Mg1_2 3.377437 1_555
Mg0_2 Sr0_1 3.441132 1_565
Mg0_2 Sr0_2 3.441132 1_555
Mg0_2 Sr0_4 3.542526 1_465
Mg0_2 Sr0_7 3.542526 1_454
Mg0_3 Mg2_6 3.377437 1_456
Mg0_3 Mg2_5 3.377437 1_455
Mg0_3 Mg1_0 3.377437 1_566
Mg0_3 Mg1_3 3.377437 1_555
Mg0_3 Sr0_0 3.441132 1_566
Mg0_3 Sr0_3 3.441132 1_555
Mg0_3 Sr0_5 3.542526 1_465
Mg0_3 Sr0_6 3.542526 1_455
Mg0_4 Mg2_1 3.377437 1_555
Mg0_4 Mg2_2 3.377437 1_545
Mg0_4 Mg1_7 3.377437 1_555
Mg0_4 Mg1_4 3.377437 1_555
Mg0_4 Sr0_7 3.441132 1_555
Mg0_4 Sr0_4 3.441132 1_555
Mg0_4 Sr0_2 3.542526 1_555
Mg0_4 Sr0_1 3.542526 1_554
Mg0_5 Mg2_0 3.377437 1_556
Mg0_5 Mg2_3 3.377437 1_545
Mg0_5 Mg1_6 3.377437 1_556
Mg0_5 Mg1_5 3.377437 1_555
Mg0_5 Sr0_6 3.441132 1_556
Mg0_5 Sr0_5 3.441132 1_555
Mg0_5 Sr0_3 3.542526 1_555
Mg0_5 Sr0_0 3.542526 1_555
Mg0_6 Mg2_3 3.377437 1_555
Mg0_6 Mg2_0 3.377437 1_555
Mg0_6 Mg1_5 3.377437 1_565
Mg0_6 Mg1_6 3.377437 1_555
Mg0_6 Sr0_5 3.441132 1_565
Mg0_6 Sr0_6 3.441132 1_555
Mg0_6 Sr0_0 3.542526 1_565
Mg0_6 Sr0_3 3.542526 1_554
Mg0_7 Mg2_2 3.377437 1_556
Mg0_7 Mg2_1 3.377437 1_555
Mg0_7 Mg1_4 3.377437 1_566
Mg0_7 Mg1_7 3.377437 1_555
Mg0_7 Sr0_4 3.441132 1_566
Mg0_7 Sr0_7 3.441132 1_555
Mg0_7 Sr0_1 3.542526 1_565
Mg0_7 Sr0_2 3.542526 1_555
Mg1_0 Sr0_5 3.420461 1_454
Mg1_0 Sr0_1 3.522345 1_554
Mg1_0 Sr0_2 3.522345 1_555
Mg1_1 Sr0_4 3.420461 1_455
Mg1_1 Sr0_3 3.522345 1_555
Mg1_1 Sr0_0 3.522345 1_555
Mg1_2 Sr0_7 3.420461 1_454
Mg1_2 Sr0_0 3.522345 1_565
Mg1_2 Sr0_3 3.522345 1_554
Mg1_3 Sr0_6 3.420461 1_455
Mg1_3 Sr0_1 3.522345 1_565
Mg1_3 Sr0_2 3.522345 1_555
Mg1_4 Sr0_1 3.420461 1_554
Mg1_4 Sr0_5 3.522345 1_554
Mg1_4 Sr0_6 3.522345 1_555
Mg1_5 Sr0_0 3.420461 1_555
Mg1_5 Sr0_4 3.522345 1_555
Mg1_5 Sr0_7 3.522345 1_555
Mg1_6 Sr0_3 3.420461 1_554
Mg1_6 Sr0_4 3.522345 1_565
Mg1_6 Sr0_7 3.522345 1_554
Mg1_7 Sr0_2 3.420461 1_555
Mg1_7 Sr0_6 3.522345 1_555
Mg1_7 Sr0_5 3.522345 1_565
Mg2_0 Sr0_3 3.420461 1_554
Mg2_0 Sr0_2 3.522345 1_555
Mg2_0 Sr0_1 3.522345 1_554
Mg2_1 Sr0_2 3.420461 1_555
Mg2_1 Sr0_3 3.522345 1_555
Mg2_1 Sr0_0 3.522345 1_555
Mg2_2 Sr0_1 3.420461 1_564
Mg2_2 Sr0_0 3.522345 1_565
Mg2_2 Sr0_3 3.522345 1_554
Mg2_3 Sr0_0 3.420461 1_565
Mg2_3 Sr0_1 3.522345 1_565
Mg2_3 Sr0_2 3.522345 1_555
Mg2_4 Sr0_7 3.420461 1_554
Mg2_4 Sr0_6 3.522345 1_555
Mg2_4 Sr0_5 3.522345 1_554
Mg2_5 Sr0_6 3.420461 1_555
Mg2_5 Sr0_4 3.522345 1_555
Mg2_5 Sr0_7 3.522345 1_555
Mg2_6 Sr0_5 3.420461 1_564
Mg2_6 Sr0_4 3.522345 1_565
Mg2_6 Sr0_7 3.522345 1_554
Mg2_7 Sr0_4 3.420461 1_565
Mg2_7 Sr0_6 3.522345 1_555
Mg2_7 Sr0_5 3.522345 1_565
