# generated using pymatgen
data_V3Pb5O12F
_symmetry_space_group_name_H-M   'P 1'
_cell_length_a   10.29992550
_cell_length_b   10.29992550
_cell_length_c   7.54654000
_cell_angle_alpha   90.00000000
_cell_angle_beta   90.00000000
_cell_angle_gamma   119.99999681
_symmetry_Int_Tables_number   1
_chemical_formula_structural   V3Pb5O12F
_chemical_formula_sum   'V6 Pb10 O24 F2'
_cell_volume   693.34069453
_cell_formula_units_Z   2
loop_
 _symmetry_equiv_pos_site_id
 _symmetry_equiv_pos_as_xyz
  1  'x, y, z'
loop_
 _atom_site_type_symbol
 _atom_site_label
 _atom_site_symmetry_multiplicity
 _atom_site_fract_x
 _atom_site_fract_y
 _atom_site_fract_z
 _atom_site_occupancy
  V  V0  1  0.39915200  0.02825100  0.75000000  1
  V  V1  1  0.60084800  0.97174900  0.25000000  1
  V  V2  1  0.97174900  0.37090000  0.75000000  1
  V  V3  1  0.02825100  0.62910000  0.25000000  1
  V  V4  1  0.62910000  0.60084800  0.75000000  1
  V  V5  1  0.37090000  0.39915200  0.25000000  1
  Pb  Pb0  1  0.33333300  0.66666700  0.50716800  1
  Pb  Pb1  1  0.66666700  0.33333300  0.49283200  1
  Pb  Pb2  1  0.66666700  0.33333300  0.00716800  1
  Pb  Pb3  1  0.33333300  0.66666700  0.99283200  1
  Pb  Pb4  1  0.24658200  0.24261000  0.75000000  1
  Pb  Pb5  1  0.75341800  0.75739000  0.25000000  1
  Pb  Pb6  1  0.75739000  0.00397300  0.75000000  1
  Pb  Pb7  1  0.24261000  0.99602700  0.25000000  1
  Pb  Pb8  1  0.99602700  0.75341800  0.75000000  1
  Pb  Pb9  1  0.00397300  0.24658200  0.25000000  1
  O  O0  1  0.16688900  0.49069300  0.75000000  1
  O  O1  1  0.83311100  0.50930700  0.25000000  1
  O  O2  1  0.50930700  0.67619600  0.75000000  1
  O  O3  1  0.49069300  0.32380400  0.25000000  1
  O  O4  1  0.32380400  0.83311100  0.75000000  1
  O  O5  1  0.67619600  0.16688900  0.25000000  1
  O  O6  1  0.59643900  0.12303700  0.75000000  1
  O  O7  1  0.40356100  0.87696300  0.25000000  1
  O  O8  1  0.87696300  0.47340200  0.75000000  1
  O  O9  1  0.12303700  0.52659800  0.25000000  1
  O  O10  1  0.52659800  0.40356100  0.75000000  1
  O  O11  1  0.47340200  0.59643900  0.25000000  1
  O  O12  1  0.34104500  0.08877200  0.56752800  1
  O  O13  1  0.65895500  0.91122800  0.43247200  1
  O  O14  1  0.91122800  0.25227300  0.56752800  1
  O  O15  1  0.65895500  0.91122800  0.06752800  1
  O  O16  1  0.08877200  0.74772700  0.43247200  1
  O  O17  1  0.34104500  0.08877200  0.93247200  1
  O  O18  1  0.74772700  0.65895500  0.56752800  1
  O  O19  1  0.08877200  0.74772700  0.06752800  1
  O  O20  1  0.25227300  0.34104500  0.43247200  1
  O  O21  1  0.91122800  0.25227300  0.93247200  1
  O  O22  1  0.25227300  0.34104500  0.06752800  1
  O  O23  1  0.74772700  0.65895500  0.93247200  1
  F  F0  1  0.00000000  0.00000000  0.75000000  1
  F  F1  1  0.00000000  0.00000000  0.25000000  1
loop_
_geom_bond_atom_site_label_1
_geom_bond_atom_site_label_2
_geom_bond_distance
_geom_bond_site_symmetry_2
O0 V2 1.755634 1_455
O0 Pb3 2.544633 1_555
O0 Pb0 2.544633 1_555
O1 V3 1.755634 1_655
O1 Pb1 2.544633 1_555
O1 Pb2 2.544633 1_555
O2 V4 1.755642 1_555
O2 Pb0 2.544636 1_555
O2 Pb3 2.544636 1_555
O3 V5 1.755642 1_555
O3 Pb1 2.544636 1_555
O3 Pb2 2.544636 1_555
O4 V0 1.755632 1_565
O4 Pb0 2.544629 1_555
O4 Pb3 2.544629 1_555
O5 V1 1.755632 1_545
O5 Pb2 2.544629 1_555
O5 Pb1 2.544629 1_555
O6 V0 1.760248 1_555
O6 Pb6 2.507031 1_555
O6 Pb1 2.722970 1_555
O6 Pb2 2.722970 1_556
O7 V1 1.760248 1_555
O7 Pb7 2.507031 1_555
O7 Pb0 2.722970 1_555
O7 Pb3 2.722970 1_554
O8 V2 1.760257 1_555
O8 Pb8 2.507040 1_555
O8 Pb1 2.722972 1_555
O8 Pb2 2.722972 1_556
O9 V3 1.760257 1_555
O9 Pb9 2.507040 1_555
O9 Pb3 2.722972 1_554
O9 Pb0 2.722972 1_555
O10 V4 1.760248 1_555
O10 Pb4 2.507039 1_555
O10 Pb1 2.722977 1_555
O10 Pb2 2.722977 1_556
O11 V5 1.760248 1_555
O11 Pb5 2.507039 1_555
O11 Pb3 2.722977 1_554
O11 Pb0 2.722977 1_555
O12 V0 1.736686 1_555
O12 Pb7 2.591121 1_545
O12 Pb4 2.625881 1_555
O13 V1 1.736686 1_555
O13 Pb6 2.591121 1_565
O13 Pb5 2.625881 1_555
O14 V2 1.736681 1_555
O14 Pb9 2.591123 1_655
O14 Pb6 2.625875 1_555
O15 V1 1.736686 1_555
O15 Pb6 2.591121 1_564
O15 Pb5 2.625881 1_555
O16 V3 1.736681 1_555
O16 Pb8 2.591123 1_455
O16 Pb7 2.625875 1_555
O17 V0 1.736686 1_555
O17 Pb7 2.591121 1_546
O17 Pb4 2.625881 1_555
O18 V4 1.736680 1_555
O18 Pb5 2.591119 1_555
O18 Pb8 2.625873 1_555
O19 V3 1.736681 1_555
O19 Pb8 2.591123 1_454
O19 Pb7 2.625875 1_555
O20 V5 1.736680 1_555
O20 Pb4 2.591119 1_555
O20 Pb9 2.625873 1_555
O21 V2 1.736681 1_555
O21 Pb9 2.591123 1_656
O21 Pb6 2.625875 1_555
O22 V5 1.736680 1_555
O22 Pb4 2.591119 1_554
O22 Pb9 2.625873 1_555
O23 V4 1.736680 1_555
O23 Pb5 2.591119 1_556
O23 Pb8 2.625873 1_555
F0 Pb8 2.519565 1_445
F0 Pb4 2.519570 1_555
F0 Pb6 2.519575 1_455
F1 Pb9 2.519565 1_555
F1 Pb5 2.519570 1_445
F1 Pb7 2.519575 1_545
