# generated using pymatgen
data_MnZn(Br2O3)2
_symmetry_space_group_name_H-M   'P 1'
_cell_length_a   9.86570000
_cell_length_b   10.69007900
_cell_length_c   14.66910700
_cell_angle_alpha   90.00000000
_cell_angle_beta   90.00000000
_cell_angle_gamma   90.00000000
_symmetry_Int_Tables_number   1
_chemical_formula_structural   MnZn(Br2O3)2
_chemical_formula_sum   'Mn4 Zn4 Br16 O24'
_cell_volume   1547.07901842
_cell_formula_units_Z   4
loop_
 _symmetry_equiv_pos_site_id
 _symmetry_equiv_pos_as_xyz
  1  'x, y, z'
loop_
 _atom_site_type_symbol
 _atom_site_label
 _atom_site_symmetry_multiplicity
 _atom_site_fract_x
 _atom_site_fract_y
 _atom_site_fract_z
 _atom_site_occupancy
  Mn  Mn0  1  0.00000000  0.50000000  0.00000000  1
  Mn  Mn1  1  0.50000000  0.50000000  0.50000000  1
  Mn  Mn2  1  0.50000000  0.50000000  0.00000000  1
  Mn  Mn3  1  0.00000000  0.50000000  0.50000000  1
  Zn  Zn0  1  0.65738800  0.00000000  0.17280000  1
  Zn  Zn1  1  0.34261200  0.00000000  0.82720000  1
  Zn  Zn2  1  0.15738800  0.00000000  0.32720000  1
  Zn  Zn3  1  0.84261200  0.00000000  0.67280000  1
  Br  Br0  1  0.05658100  0.00000000  0.19119600  1
  Br  Br1  1  0.94341900  0.00000000  0.80880400  1
  Br  Br2  1  0.55658100  0.00000000  0.30880400  1
  Br  Br3  1  0.44341900  0.00000000  0.69119600  1
  Br  Br4  1  0.73544300  0.00000000  0.03144500  1
  Br  Br5  1  0.26455700  0.00000000  0.96855500  1
  Br  Br6  1  0.23544300  0.00000000  0.46855500  1
  Br  Br7  1  0.76455700  0.00000000  0.53144500  1
  Br  Br8  1  0.74113300  0.34399400  0.39624500  1
  Br  Br9  1  0.25886700  0.34399400  0.60375500  1
  Br  Br10  1  0.24113300  0.65600600  0.10375500  1
  Br  Br11  1  0.75886700  0.65600600  0.89624500  1
  Br  Br12  1  0.25886700  0.65600600  0.60375500  1
  Br  Br13  1  0.74113300  0.65600600  0.39624500  1
  Br  Br14  1  0.75886700  0.34399400  0.89624500  1
  Br  Br15  1  0.24113300  0.34399400  0.10375500  1
  O  O0  1  0.01280000  0.50000000  0.88465200  1
  O  O1  1  0.98720000  0.50000000  0.11534800  1
  O  O2  1  0.51280000  0.50000000  0.61534800  1
  O  O3  1  0.48720000  0.50000000  0.38465200  1
  O  O4  1  0.85899400  0.35083400  0.99191900  1
  O  O5  1  0.14100600  0.35083400  0.00808100  1
  O  O6  1  0.35899400  0.64916600  0.50808100  1
  O  O7  1  0.64100600  0.64916600  0.49191900  1
  O  O8  1  0.14100600  0.64916600  0.00808100  1
  O  O9  1  0.85899400  0.64916600  0.99191900  1
  O  O10  1  0.64100600  0.35083400  0.49191900  1
  O  O11  1  0.35899400  0.35083400  0.50808100  1
  O  O12  1  0.37183900  0.50000000  0.92411100  1
  O  O13  1  0.62816100  0.50000000  0.07588900  1
  O  O14  1  0.87183900  0.50000000  0.57588900  1
  O  O15  1  0.12816100  0.50000000  0.42411100  1
  O  O16  1  0.58946700  0.35371100  0.92339200  1
  O  O17  1  0.41053300  0.35371100  0.07660800  1
  O  O18  1  0.08946700  0.64628900  0.57660800  1
  O  O19  1  0.91053300  0.64628900  0.42339200  1
  O  O20  1  0.41053300  0.64628900  0.07660800  1
  O  O21  1  0.58946700  0.64628900  0.92339200  1
  O  O22  1  0.91053300  0.35371100  0.42339200  1
  O  O23  1  0.08946700  0.35371100  0.57660800  1
loop_
_geom_bond_atom_site_label_1
_geom_bond_atom_site_label_2
_geom_bond_distance
_geom_bond_site_symmetry_2
Mn0 O1 1.696758 1_455
Mn0 O0 1.696758 1_554
Mn0 O8 2.119437 1_555
Mn0 O5 2.119437 1_555
Mn0 O9 2.119437 1_454
Mn0 O4 2.119437 1_454
Mn1 O3 1.696758 1_555
Mn1 O2 1.696758 1_555
Mn1 O11 2.119437 1_555
Mn1 O6 2.119437 1_555
Mn1 O10 2.119437 1_555
Mn1 O7 2.119437 1_555
Mn2 O13 1.684627 1_555
Mn2 O12 1.684627 1_554
Mn2 O20 2.118381 1_555
Mn2 O16 2.118381 1_554
Mn2 O17 2.118381 1_555
Mn2 O21 2.118381 1_554
Mn3 O14 1.684627 1_455
Mn3 O15 1.684627 1_555
Mn3 O18 2.118381 1_555
Mn3 O23 2.118381 1_555
Mn3 O19 2.118381 1_455
Mn3 O22 2.118381 1_455
Br0 Zn2 2.229203 1_555
Br1 Zn3 2.229203 1_555
Br2 Zn0 2.229203 1_555
Br3 Zn1 2.229203 1_555
Br4 Zn0 2.211927 1_555
Br5 Zn1 2.211927 1_555
Br6 Zn2 2.211927 1_555
Br7 Zn3 2.211927 1_555
Br8 O10 1.717795 1_555
Br8 O22 1.721176 1_555
Br9 O11 1.717795 1_555
Br9 O23 1.721176 1_555
Br10 O8 1.717795 1_555
Br10 O20 1.721176 1_555
Br11 O9 1.717795 1_555
Br11 O21 1.721176 1_555
Br12 O6 1.717795 1_555
Br12 O18 1.721176 1_555
Br13 O7 1.717795 1_555
Br13 O19 1.721176 1_555
Br14 O4 1.717795 1_555
Br14 O16 1.721176 1_555
Br15 O5 1.717795 1_555
Br15 O17 1.721176 1_555
