# generated using pymatgen
data_Mg6BSbO8
_symmetry_space_group_name_H-M   'P 1'
_cell_length_a   8.94677589
_cell_length_b   4.38299652
_cell_length_c   4.38299652
_cell_angle_alpha   90.00000000
_cell_angle_beta   90.00000000
_cell_angle_gamma   90.00000000
_symmetry_Int_Tables_number   1
_chemical_formula_structural   Mg6BSbO8
_chemical_formula_sum   'Mg6 B1 Sb1 O8'
_cell_volume   171.87345625
_cell_formula_units_Z   1
loop_
 _symmetry_equiv_pos_site_id
 _symmetry_equiv_pos_as_xyz
  1  'x, y, z'
loop_
 _atom_site_type_symbol
 _atom_site_label
 _atom_site_symmetry_multiplicity
 _atom_site_fract_x
 _atom_site_fract_y
 _atom_site_fract_z
 _atom_site_occupancy
  Mg  Mg0  1  0.50000000  0.00000000  -0.00000000  1
  Mg  Mg1  1  0.50000000  0.50000000  0.50000000  1
  Mg  Mg2  1  0.26177243  0.00000000  0.50000000  1
  Mg  Mg3  1  0.73822757  0.00000000  0.50000000  1
  Mg  Mg4  1  0.26177243  0.50000000  0.00000000  1
  Mg  Mg5  1  0.73822757  0.50000000  -0.00000000  1
  B  B0  1  -0.00000000  0.00000000  -0.00000000  1
  Sb  Sb0  1  -0.00000000  0.50000000  0.50000000  1
  O  O0  1  0.27002081  0.00000000  -0.00000000  1
  O  O1  1  0.72997919  0.00000000  0.00000000  1
  O  O2  1  0.26402991  0.50000000  0.50000000  1
  O  O3  1  0.73597009  0.50000000  0.50000000  1
  O  O4  1  -0.00000000  0.00000000  0.50000000  1
  O  O5  1  0.50000000  0.00000000  0.50000000  1
  O  O6  1  -0.00000000  0.50000000  -0.00000000  1
  O  O7  1  0.50000000  0.50000000  -0.00000000  1
loop_
_geom_bond_atom_site_label_1
_geom_bond_atom_site_label_2
_geom_bond_distance
_geom_bond_site_symmetry_2
Mg0 O1 2.057572 1_555
Mg0 O0 2.057572 1_555
Mg0 O7 2.191498 1_555
Mg0 O5 2.191498 1_554
Mg0 O7 2.191498 1_545
Mg0 O5 2.191498 1_555
Mg1 O2 2.111172 1_555
Mg1 O3 2.111172 1_555
Mg1 O5 2.191498 1_555
Mg1 O7 2.191498 1_555
Mg1 O7 2.191498 1_556
Mg1 O5 2.191498 1_565
Mg2 O5 2.131369 1_555
Mg2 O2 2.191591 1_555
Mg2 O2 2.191591 1_545
Mg2 O0 2.192740 1_555
Mg2 O0 2.192740 1_556
Mg2 O4 2.342019 1_555
Mg3 O5 2.131369 1_555
Mg3 O3 2.191591 1_555
Mg3 O3 2.191591 1_545
Mg3 O1 2.192740 1_555
Mg3 O1 2.192740 1_556
Mg3 O4 2.342019 1_655
Mg4 O7 2.131369 1_555
Mg4 O2 2.191591 1_555
Mg4 O2 2.191591 1_554
Mg4 O0 2.192740 1_555
Mg4 O0 2.192740 1_565
Mg4 O6 2.342019 1_555
Mg5 O7 2.131369 1_555
Mg5 O3 2.191591 1_555
Mg5 O3 2.191591 1_554
Mg5 O1 2.192740 1_555
Mg5 O1 2.192740 1_565
Mg5 O6 2.342019 1_655
B0 O4 2.191498 1_555
B0 O4 2.191498 1_554
B0 O6 2.191498 1_555
B0 O6 2.191498 1_545
O2 Sb0 2.362216 1_555
O3 Sb0 2.362216 1_655
O4 Sb0 2.191498 1_545
O4 Sb0 2.191498 1_555
O6 Sb0 2.191498 1_555
O6 Sb0 2.191498 1_554
