# generated using pymatgen
data_YV5(H12O13)2
_symmetry_space_group_name_H-M   'P 1'
_cell_length_a   9.50941814
_cell_length_b   9.93982552
_cell_length_c   24.00569232
_cell_angle_alpha   80.37062767
_cell_angle_beta   81.62006722
_cell_angle_gamma   88.96706431
_symmetry_Int_Tables_number   1
_chemical_formula_structural   YV5(H12O13)2
_chemical_formula_sum   'Y4 V20 H96 O104'
_cell_volume   2213.16343637
_cell_formula_units_Z   4
loop_
 _symmetry_equiv_pos_site_id
 _symmetry_equiv_pos_as_xyz
  1  'x, y, z'
loop_
 _atom_site_type_symbol
 _atom_site_label
 _atom_site_symmetry_multiplicity
 _atom_site_fract_x
 _atom_site_fract_y
 _atom_site_fract_z
 _atom_site_occupancy
  Y  Y0  1  0.93215112  0.02448328  0.87647370  1
  Y  Y1  1  0.06784888  0.97551672  0.12352630  1
  Y  Y2  1  0.37680217  0.49339926  0.62011481  1
  Y  Y3  1  0.62319783  0.50660074  0.37988519  1
  V  V0  1  0.48266578  0.28185173  0.94616245  1
  V  V1  1  0.51733422  0.71814827  0.05383755  1
  V  V2  1  0.60769473  0.27632141  0.06187813  1
  V  V3  1  0.39230527  0.72367859  0.93812187  1
  V  V4  1  0.22063243  0.46500223  0.92349297  1
  V  V5  1  0.77936757  0.53499777  0.07650703  1
  V  V6  1  0.34014157  0.46321209  0.03804770  1
  V  V7  1  0.65985843  0.53678791  0.96195230  1
  V  V8  1  0.47482919  0.46095439  0.15003838  1
  V  V9  1  0.52517081  0.53904561  0.84996162  1
  V  V10  1  0.93634819  0.19410610  0.56859045  1
  V  V11  1  0.06365181  0.80589390  0.43140955  1
  V  V12  1  0.14937467  0.23513064  0.45530205  1
  V  V13  1  0.85062533  0.76486936  0.54469795  1
  V  V14  1  0.65906550  0.01634588  0.57684966  1
  V  V15  1  0.34093450  0.98365412  0.42315034  1
  V  V16  1  0.87223557  0.05340108  0.46245624  1
  V  V17  1  0.12776443  0.94659892  0.53754376  1
  V  V18  1  0.09847369  0.09582600  0.35130695  1
  V  V19  1  0.90152631  0.90417400  0.64869305  1
  H  H0  1  0.07995990  0.25898641  0.05166966  1
  H  H1  1  0.92004010  0.74101359  0.94833034  1
  H  H2  1  0.91828884  0.24632315  0.07631959  1
  H  H3  1  0.08171116  0.75367685  0.92368041  1
  H  H4  1  0.27344022  0.19366401  0.15314293  1
  H  H5  1  0.72655978  0.80633599  0.84685707  1
  H  H6  1  0.16061592  0.14876706  0.20846181  1
  H  H7  1  0.83938408  0.85123294  0.79153819  1
  H  H8  1  0.88662717  0.15402029  0.19861904  1
  H  H9  1  0.11337283  0.84597971  0.80138096  1
  H  H10  1  0.86925595  0.00059197  0.23107003  1
  H  H11  1  0.13074405  0.99940803  0.76892997  1
  H  H12  1  0.79369520  0.24955448  0.94698303  1
  H  H13  1  0.20630480  0.75044552  0.05301697  1
  H  H14  1  0.95120041  0.28630729  0.92056359  1
  H  H15  1  0.04879959  0.71369271  0.07943641  1
  H  H16  1  0.65096983  0.09224815  0.82973995  1
  H  H17  1  0.34903017  0.90775185  0.17026005  1
  H  H18  1  0.69549827  0.22955365  0.84572151  1
  H  H19  1  0.30450173  0.77044635  0.15427849  1
  H  H20  1  0.14203435  0.22944807  0.80696870  1
  H  H21  1  0.85796565  0.77055193  0.19303130  1
  H  H22  1  0.99531592  0.31115727  0.81091214  1
  H  H23  1  0.00468408  0.68884273  0.18908786  1
  H  H24  1  0.34418686  0.98660713  0.04918854  1
  H  H25  1  0.65581314  0.01339287  0.95081146  1
  H  H26  1  0.31253581  0.14251859  0.04810991  1
  H  H27  1  0.68746419  0.85748141  0.95189009  1
  H  H28  1  0.18149294  0.14797200  0.92388002  1
  H  H29  1  0.81850706  0.85202800  0.07611998  1
  H  H30  1  0.20738505  0.99114253  0.92892571  1
  H  H31  1  0.79261495  0.00885747  0.07107429  1
  H  H32  1  0.56317440  0.30633152  0.69336214  1
  H  H33  1  0.43682560  0.69366848  0.30663786  1
  H  H34  1  0.40692964  0.30359010  0.72948701  1
  H  H35  1  0.59307036  0.69640990  0.27051299  1
  H  H36  1  0.40139760  0.20863092  0.58643353  1
  H  H37  1  0.59860240  0.79136908  0.41356647  1
  H  H38  1  0.25660560  0.25498155  0.56736313  1
  H  H39  1  0.74339440  0.74501845  0.43263687  1
  H  H40  1  0.64440596  0.33646494  0.57611309  1
  H  H41  1  0.35559404  0.66353506  0.42388691  1
  H  H42  1  0.67620414  0.49403196  0.55737311  1
  H  H43  1  0.32379586  0.50596804  0.44262689  1
  H  H44  1  0.79212117  0.25217421  0.35371843  1
  H  H45  1  0.20787883  0.74782579  0.64628157  1
  H  H46  1  0.77932721  0.33169745  0.29156528  1
  H  H47  1  0.22067279  0.66830255  0.70843472  1
  H  H48  1  0.85326981  0.36699262  0.45179184  1
  H  H49  1  0.14673019  0.63300738  0.54820816  1
  H  H50  1  0.88757957  0.52384782  0.43357219  1
  H  H51  1  0.11242043  0.47615218  0.56642781  1
  H  H52  1  0.46429593  0.25607811  0.44625702  1
  H  H53  1  0.53570407  0.74392189  0.55374298  1
  H  H54  1  0.61377861  0.24495559  0.46622631  1
  H  H55  1  0.38622139  0.75504441  0.53377369  1
  H  H56  1  0.17489435  0.28718040  0.69044033  1
  H  H57  1  0.82510565  0.71281960  0.30955967  1
  H  H58  1  0.08217720  0.42574724  0.68302795  1
  H  H59  1  0.91782280  0.57425276  0.31697205  1
  H  H60  1  0.41932047  0.41193903  0.29979825  1
  H  H61  1  0.58067953  0.58806097  0.70020175  1
  H  H62  1  0.39171879  0.30664038  0.35766381  1
  H  H63  1  0.60828121  0.69335962  0.64233619  1
  H  H64  1  0.37897357  0.17362582  0.81151871  1
  H  H65  1  0.62102643  0.82637418  0.18848129  1
  H  H66  1  0.33934528  0.32775429  0.81846141  1
  H  H67  1  0.66065472  0.67224571  0.18153859  1
  H  H68  1  0.44427874  0.97776283  0.86156752  1
  H  H69  1  0.55572126  0.02223717  0.13843248  1
  H  H70  1  0.48323026  0.97796846  0.79437927  1
  H  H71  1  0.51676974  0.02203154  0.20562073  1
  H  H72  1  0.14243605  0.49282630  0.17117538  1
  H  H73  1  0.85756395  0.50717370  0.82882462  1
  H  H74  1  0.09907100  0.50148765  0.23773409  1
  H  H75  1  0.90092900  0.49851235  0.76226591  1
  H  H76  1  0.92600602  0.38800633  0.21004695  1
  H  H77  1  0.07399398  0.61199367  0.78995305  1
  H  H78  1  0.77418201  0.37513072  0.19406562  1
  H  H79  1  0.22581799  0.62486928  0.80593438  1
  H  H80  1  0.11739283  0.07876488  0.67602346  1
  H  H81  1  0.88260717  0.92123512  0.32397654  1
  H  H82  1  0.27512171  0.04891519  0.68753956  1
  H  H83  1  0.72487829  0.95108481  0.31246044  1
  H  H84  1  0.74789356  0.21909267  0.74703905  1
  H  H85  1  0.25210644  0.78090733  0.25296095  1
  H  H86  1  0.79184754  0.18924858  0.68468960  1
  H  H87  1  0.20815246  0.81075142  0.31531040  1
  H  H88  1  0.15457372  0.57601359  0.31640636  1
  H  H89  1  0.84542628  0.42398641  0.68359364  1
  H  H90  1  0.10166766  0.42067215  0.33811690  1
  H  H91  1  0.89833234  0.57932785  0.66188310  1
  H  H92  1  0.44118094  0.08243614  0.29497707  1
  H  H93  1  0.55881906  0.91756386  0.70502293  1
  H  H94  1  0.52835767  0.19655736  0.25197357  1
  H  H95  1  0.47164233  0.80344264  0.74802643  1
  O  O0  1  0.52352550  0.11984143  0.95037239  1
  O  O1  1  0.47647450  0.88015857  0.04962761  1
  O  O2  1  0.29766141  0.28791424  0.93304055  1
  O  O3  1  0.70233859  0.71208576  0.06695945  1
  O  O4  1  0.56143591  0.35169855  0.87270982  1
  O  O5  1  0.43856409  0.64830145  0.12729018  1
  O  O6  1  0.41863306  0.28393993  0.03150414  1
  O  O7  1  0.58136694  0.71606007  0.96849586  1
  O  O8  1  0.65946647  0.34038155  0.97630970  1
  O  O9  1  0.34053353  0.65961845  0.02369030  1
  O  O10  1  0.44823031  0.50029341  0.95176377  1
  O  O11  1  0.55176969  0.49970659  0.04823623  1
  O  O12  1  0.64460475  0.11191194  0.06648033  1
  O  O13  1  0.35539525  0.88808806  0.93351967  1
  O  O14  1  0.51504487  0.28532144  0.13301378  1
  O  O15  1  0.48495513  0.71467856  0.86698622  1
  O  O16  1  0.77687550  0.34701730  0.07285867  1
  O  O17  1  0.22312450  0.65298270  0.92714133  1
  O  O18  1  0.06228175  0.43602284  0.90920282  1
  O  O19  1  0.93771825  0.56397716  0.09079718  1
  O  O20  1  0.33414860  0.50275939  0.85076632  1
  O  O21  1  0.66585140  0.49724061  0.14923368  1
  O  O22  1  0.18813562  0.43561211  0.00924787  1
  O  O23  1  0.81186438  0.56438789  0.99075213  1
  O  O24  1  0.29696518  0.43867570  0.11172728  1
  O  O25  1  0.70303482  0.56132430  0.88827272  1
  O  O26  1  0.41044131  0.42964534  0.21833303  1
  O  O27  1  0.58955869  0.57035466  0.78166697  1
  O  O28  1  0.97499241  0.34917746  0.57676906  1
  O  O29  1  0.02500759  0.65082254  0.42323094  1
  O  O30  1  0.74133082  0.18734290  0.57880380  1
  O  O31  1  0.25866918  0.81265710  0.42119620  1
  O  O32  1  0.95036868  0.09191879  0.63963033  1
  O  O33  1  0.04963132  0.90808121  0.36036967  1
  O  O34  1  0.93938391  0.22335457  0.48215830  1
  O  O35  1  0.06061609  0.77664543  0.51784170  1
  O  O36  1  0.13543979  0.13901541  0.53802266  1
  O  O37  1  0.86456021  0.86098459  0.46197734  1
  O  O38  1  0.08977852  0.01688256  0.45229519  1
  O  O39  1  0.91022148  0.98311744  0.54770481  1
  O  O40  1  0.18618580  0.38971658  0.46424687  1
  O  O41  1  0.81381420  0.61028342  0.53575313  1
  O  O42  1  0.12080976  0.25832430  0.38023245  1
  O  O43  1  0.87919024  0.74167570  0.61976755  1
  O  O44  1  0.32990858  0.16308006  0.44020131  1
  O  O45  1  0.67009142  0.83691994  0.55979869  1
  O  O46  1  0.08848686  0.15030070  0.28376711  1
  O  O47  1  0.91151314  0.84969930  0.71623289  1
  O  O48  1  0.28821650  0.05299093  0.35176793  1
  O  O49  1  0.71178350  0.94700907  0.64823207  1
  O  O50  1  0.48926944  0.04621466  0.59188676  1
  O  O51  1  0.51073056  0.95378534  0.40811324  1
  O  O52  1  0.69697839  0.07660540  0.49173946  1
  O  O53  1  0.30302161  0.92339460  0.50826054  1
  O  O54  1  0.88930897  0.11048718  0.38948920  1
  O  O55  1  0.11069103  0.88951282  0.61051080  1
  O  O56  1  0.00938737  0.19399901  0.07465610  1
  O  O57  1  0.99061263  0.80600099  0.92534390  1
  O  O58  1  0.19639759  0.12916954  0.16983912  1
  O  O59  1  0.80360241  0.87083046  0.83016088  1
  O  O60  1  0.90110253  0.05769000  0.19307616  1
  O  O61  1  0.09889747  0.94231000  0.80692384  1
  O  O62  1  0.88074429  0.21131779  0.92690570  1
  O  O63  1  0.11925571  0.78868221  0.07309430  1
  O  O64  1  0.73708787  0.14964254  0.82956616  1
  O  O65  1  0.26291213  0.85035746  0.17043384  1
  O  O66  1  0.03650178  0.21773651  0.81395782  1
  O  O67  1  0.96349822  0.78226349  0.18604218  1
  O  O68  1  0.26430983  0.05153655  0.05596636  1
  O  O69  1  0.73569017  0.94846345  0.94403364  1
  O  O70  1  0.13697488  0.06240387  0.91884389  1
  O  O71  1  0.86302512  0.93759613  0.08115611  1
  O  O72  1  0.46298114  0.33301750  0.69074725  1
  O  O73  1  0.53701886  0.66698250  0.30925275  1
  O  O74  1  0.33744006  0.28808569  0.58282778  1
  O  O75  1  0.66255994  0.71191431  0.41717222  1
  O  O76  1  0.59843857  0.42760672  0.57359106  1
  O  O77  1  0.40156143  0.57239328  0.42640894  1
  O  O78  1  0.74882038  0.33276621  0.33294876  1
  O  O79  1  0.25117962  0.66723379  0.66705124  1
  O  O80  1  0.81321372  0.45479185  0.43443724  1
  O  O81  1  0.18678628  0.54520815  0.56556276  1
  O  O82  1  0.55070663  0.31174759  0.44744852  1
  O  O83  1  0.44929337  0.68825241  0.55255148  1
  O  O84  1  0.18005421  0.38780301  0.68344550  1
  O  O85  1  0.81994579  0.61219699  0.31655450  1
  O  O86  1  0.44263015  0.39061345  0.33887304  1
  O  O87  1  0.55736985  0.60938655  0.66112696  1
  O  O88  1  0.32371293  0.25542193  0.79652650  1
  O  O89  1  0.67628707  0.74457807  0.20347350  1
  O  O90  1  0.48475493  0.03448070  0.82521914  1
  O  O91  1  0.51524507  0.96551930  0.17478086  1
  O  O92  1  0.06503453  0.51556824  0.19980391  1
  O  O93  1  0.93496547  0.48443176  0.80019609  1
  O  O94  1  0.84177284  0.32573346  0.21774239  1
  O  O95  1  0.15822716  0.67426654  0.78225761  1
  O  O96  1  0.18669477  0.09100178  0.70186802  1
  O  O97  1  0.81330523  0.90899822  0.29813198  1
  O  O98  1  0.74036242  0.25455336  0.70659272  1
  O  O99  1  0.25963758  0.74544664  0.29340728  1
  O  O100  1  0.08833049  0.50570248  0.31102390  1
  O  O101  1  0.91166951  0.49429752  0.68897610  1
  O  O102  1  0.52434954  0.09784904  0.26443009  1
  O  O103  1  0.47565046  0.90215096  0.73556991  1
loop_
_geom_bond_atom_site_label_1
_geom_bond_atom_site_label_2
_geom_bond_distance
_geom_bond_site_symmetry_2
H0 O56 0.980093 1_555
H1 O57 0.980093 1_555
H2 O56 1.001587 1_655
H2 O16 1.665311 1_555
H3 O57 1.001587 1_455
H3 O17 1.665311 1_555
H4 O58 0.976596 1_555
H5 O59 0.976596 1_555
H6 O58 0.989665 1_555
H7 O59 0.989665 1_555
H8 O60 0.992978 1_555
H9 O61 0.992978 1_555
H10 O60 0.999101 1_555
H11 O61 0.999101 1_555
H12 O62 0.997811 1_555
H12 O8 1.687938 1_555
H13 O63 0.997811 1_555
H13 O9 1.687938 1_555
H14 O62 0.988928 1_555
H15 O63 0.988928 1_555
H16 O64 1.005574 1_555
H17 O65 1.005574 1_555
H18 O64 0.992351 1_555
H19 O65 0.992351 1_555
H20 O66 0.998710 1_555
H21 O67 0.998710 1_555
H22 O66 0.996760 1_655
H23 O67 0.996760 1_455
H24 O68 1.000699 1_565
H24 O1 1.629202 1_555
H25 O69 1.000699 1_545
H25 O0 1.629202 1_555
H26 O68 0.998202 1_555
H26 O6 1.702726 1_555
H27 O69 0.998202 1_555
H27 O7 1.702726 1_555
H28 O70 0.989716 1_555
H29 O71 0.989716 1_555
H30 O70 0.990652 1_565
H31 O71 0.990652 1_545
H32 O72 0.992391 1_555
H33 O73 0.992391 1_555
H34 O72 1.002325 1_555
H35 O73 1.002325 1_555
H36 O74 0.988072 1_555
H37 O75 0.988072 1_555
H38 O74 0.984956 1_555
H39 O75 0.984956 1_555
H40 O76 0.995261 1_555
H40 O30 1.728243 1_555
H41 O77 0.995261 1_555
H41 O31 1.728243 1_555
H42 O76 0.990993 1_555
H43 O77 0.990993 1_555
H44 O78 0.987007 1_555
H45 O79 0.987007 1_555
H46 O78 0.995294 1_555
H47 O79 0.995294 1_555
H48 O80 0.996449 1_555
H48 O34 1.738985 1_555
H49 O81 0.996449 1_555
H49 O35 1.738985 1_555
H50 O80 0.990016 1_555
H51 O81 0.990016 1_555
H52 O82 1.005368 1_555
H52 O44 1.628024 1_555
H53 O83 1.005368 1_555
H53 O45 1.628024 1_555
H54 O82 0.983881 1_555
H55 O83 0.983881 1_555
H56 O84 0.986979 1_555
H57 O85 0.986979 1_555
H58 O84 0.998724 1_555
H59 O85 0.998724 1_555
H60 O86 0.983022 1_555
H61 O87 0.983022 1_555
H62 O86 0.979545 1_555
H63 O87 0.979545 1_555
H64 O88 1.004258 1_555
H65 O89 1.004258 1_555
H66 O88 0.984687 1_555
H67 O89 0.984687 1_555
H68 O90 0.986264 1_565
H69 O91 0.986264 1_545
H70 O90 1.003186 1_565
H71 O91 1.003186 1_545
H72 O92 0.981684 1_555
H73 O93 0.981684 1_555
H74 O92 0.997530 1_555
H75 O93 0.997530 1_555
H76 O94 0.997683 1_555
H77 O95 0.997683 1_555
H78 O94 0.989445 1_555
H79 O95 0.989445 1_555
H80 O96 0.990621 1_555
H81 O97 0.990621 1_555
H82 O96 0.975479 1_555
H83 O97 0.975479 1_555
H84 O98 0.988413 1_555
H85 O99 0.988413 1_555
H86 O98 0.982453 1_555
H87 O99 0.982453 1_555
H88 O100 0.985776 1_555
H89 O101 0.985776 1_555
H90 O100 0.994840 1_555
H91 O101 0.994840 1_555
H92 O102 0.992191 1_555
H93 O103 0.992191 1_555
H94 O102 0.976415 1_555
H95 O103 0.976415 1_555
O0 V0 1.639776 1_555
O1 V1 1.639776 1_555
O2 V0 1.830107 1_555
O2 V4 1.885459 1_555
O3 V1 1.830107 1_555
O3 V5 1.885459 1_555
O4 V0 1.837519 1_555
O4 V9 1.891149 1_555
O5 V1 1.837519 1_555
O5 V8 1.891149 1_555
O6 V6 1.941289 1_555
O6 V2 2.031854 1_555
O6 V0 2.053896 1_554
O7 V7 1.941289 1_555
O7 V3 2.031854 1_555
O7 V1 2.053896 1_556
O8 V7 1.924798 1_555
O8 V2 2.036231 1_556
O8 V0 2.054181 1_555
O9 V6 1.924798 1_555
O9 V3 2.036231 1_554
O9 V1 2.054181 1_555
O10 V7 2.107338 1_555
O10 V6 2.149501 1_556
O10 V0 2.213355 1_555
O10 V3 2.255042 1_555
O10 V4 2.408957 1_555
O10 V9 2.414555 1_555
O11 V6 2.107338 1_555
O11 V7 2.149501 1_554
O11 V1 2.213355 1_555
O11 V2 2.255042 1_555
O11 V5 2.408957 1_555
O11 V8 2.414555 1_555
O12 V2 1.654157 1_555
O13 V3 1.654157 1_555
O14 V2 1.819364 1_555
O14 V8 1.878835 1_555
O15 V3 1.819364 1_555
O15 V9 1.878835 1_555
O16 V2 1.837902 1_555
O16 V5 1.885854 1_555
O17 V3 1.837902 1_555
O17 V4 1.885854 1_555
O18 V4 1.633223 1_555
O19 V5 1.633223 1_555
O20 V9 1.855056 1_555
O20 V4 1.897422 1_555
O21 V8 1.855056 1_555
O21 V5 1.897422 1_555
O22 V6 1.735428 1_555
O22 V4 2.008814 1_554
O23 V7 1.735428 1_555
O23 V5 2.008814 1_556
O24 V6 1.733230 1_555
O24 V8 2.071394 1_555
O25 V7 1.733230 1_555
O25 V9 2.071394 1_555
O26 V8 1.644132 1_555
O27 V9 1.644132 1_555
O28 V10 1.640776 1_555
O29 V11 1.640776 1_555
O30 V10 1.835827 1_555
O30 V14 1.894310 1_555
O31 V11 1.835827 1_555
O31 V15 1.894310 1_555
O32 V10 1.854622 1_555
O32 V19 1.900407 1_545
O33 V11 1.854622 1_555
O33 V18 1.900407 1_565
O34 V16 1.969620 1_555
O34 V12 2.006203 1_655
O34 V10 2.042414 1_555
O35 V17 1.969620 1_555
O35 V13 2.006203 1_455
O35 V11 2.042414 1_555
O36 V17 1.917310 1_545
O36 V10 2.028501 1_455
O36 V12 2.041258 1_555
O37 V16 1.917310 1_565
O37 V11 2.028501 1_655
O37 V13 2.041258 1_555
O38 V16 2.079970 1_455
O38 V17 2.129453 1_545
O38 V11 2.262338 1_545
O38 V12 2.267398 1_555
O38 V18 2.409826 1_555
O38 V15 2.421695 1_545
O39 V17 2.079970 1_655
O39 V16 2.129453 1_565
O39 V10 2.262338 1_565
O39 V13 2.267398 1_555
O39 V19 2.409826 1_555
O39 V14 2.421695 1_565
O40 V12 1.637478 1_555
O41 V13 1.637478 1_555
O42 V12 1.837369 1_555
O42 V18 1.888580 1_555
O43 V13 1.837369 1_555
O43 V19 1.888580 1_555
O44 V12 1.858157 1_555
O44 V15 1.893211 1_545
O45 V13 1.858157 1_555
O45 V14 1.893211 1_565
O46 V18 1.637155 1_555
O47 V19 1.637155 1_555
O48 V18 1.847595 1_555
O48 V15 1.872302 1_545
O49 V19 1.847595 1_555
O49 V14 1.872302 1_565
O50 V14 1.635318 1_555
O51 V15 1.635318 1_555
O52 V16 1.738907 1_555
O52 V14 2.011665 1_555
O53 V17 1.738907 1_555
O53 V15 2.011665 1_555
O54 V16 1.733331 1_555
O54 V18 2.078576 1_655
O55 V17 1.733331 1_555
O55 V19 2.078576 1_455
O56 Y1 2.386584 1_545
O57 Y0 2.386584 1_565
O58 Y1 2.468693 1_545
O59 Y0 2.468693 1_565
O60 Y1 2.367886 1_645
O61 Y0 2.367886 1_465
O62 Y0 2.387556 1_555
O63 Y1 2.387556 1_555
O64 Y0 2.512652 1_555
O65 Y1 2.512652 1_555
O66 Y0 2.365799 1_455
O67 Y1 2.365799 1_655
O68 Y1 2.334379 1_545
O69 Y0 2.334379 1_565
O70 Y0 2.387998 1_455
O71 Y1 2.387998 1_655
O72 Y2 2.354055 1_555
O73 Y3 2.354055 1_555
O74 Y2 2.417110 1_555
O75 Y3 2.417110 1_555
O76 Y2 2.371849 1_555
O77 Y3 2.371849 1_555
O78 Y3 2.422143 1_555
O79 Y2 2.422143 1_555
O80 Y3 2.382378 1_555
O81 Y2 2.382378 1_555
O82 Y3 2.351239 1_555
O83 Y2 2.351239 1_555
O84 Y2 2.370940 1_555
O85 Y3 2.370940 1_555
O86 Y3 2.488113 1_555
O87 Y2 2.488113 1_555
