# generated using pymatgen
data_Rb3IrCl6O
_symmetry_space_group_name_H-M   'P 1'
_cell_length_a   7.07831500
_cell_length_b   12.45526000
_cell_length_c   14.50404700
_cell_angle_alpha   90.00000000
_cell_angle_beta   90.00000000
_cell_angle_gamma   90.00000000
_symmetry_Int_Tables_number   1
_chemical_formula_structural   Rb3IrCl6O
_chemical_formula_sum   'Rb12 Ir4 Cl24 O4'
_cell_volume   1278.70947110
_cell_formula_units_Z   4
loop_
 _symmetry_equiv_pos_site_id
 _symmetry_equiv_pos_as_xyz
  1  'x, y, z'
loop_
 _atom_site_type_symbol
 _atom_site_label
 _atom_site_symmetry_multiplicity
 _atom_site_fract_x
 _atom_site_fract_y
 _atom_site_fract_z
 _atom_site_occupancy
  Rb  Rb0  1  0.25000000  0.88884400  0.53723000  1
  Rb  Rb1  1  0.75000000  0.11115600  0.46277000  1
  Rb  Rb2  1  0.75000000  0.61115600  0.03723000  1
  Rb  Rb3  1  0.25000000  0.38884400  0.96277000  1
  Rb  Rb4  1  0.25000000  0.55777400  0.64189300  1
  Rb  Rb5  1  0.75000000  0.44222600  0.35810700  1
  Rb  Rb6  1  0.75000000  0.94222600  0.14189300  1
  Rb  Rb7  1  0.25000000  0.05777400  0.85810700  1
  Rb  Rb8  1  0.25000000  0.67175300  0.27378200  1
  Rb  Rb9  1  0.75000000  0.32824700  0.72621800  1
  Rb  Rb10  1  0.75000000  0.82824700  0.77378200  1
  Rb  Rb11  1  0.25000000  0.17175300  0.22621800  1
  Ir  Ir0  1  0.25000000  0.72403300  0.90394300  1
  Ir  Ir1  1  0.75000000  0.27596700  0.09605700  1
  Ir  Ir2  1  0.75000000  0.77596700  0.40394300  1
  Ir  Ir3  1  0.25000000  0.22403300  0.59605700  1
  Cl  Cl0  1  0.01646700  0.60527600  0.84754000  1
  Cl  Cl1  1  0.98353300  0.39472400  0.15246000  1
  Cl  Cl2  1  0.98353300  0.89472400  0.34754000  1
  Cl  Cl3  1  0.51646700  0.39472400  0.15246000  1
  Cl  Cl4  1  0.01646700  0.10527600  0.65246000  1
  Cl  Cl5  1  0.48353300  0.60527600  0.84754000  1
  Cl  Cl6  1  0.48353300  0.10527600  0.65246000  1
  Cl  Cl7  1  0.51646700  0.89472400  0.34754000  1
  Cl  Cl8  1  0.25000000  0.63389300  0.04725400  1
  Cl  Cl9  1  0.75000000  0.36610700  0.95274600  1
  Cl  Cl10  1  0.75000000  0.86610700  0.54725400  1
  Cl  Cl11  1  0.25000000  0.13389300  0.45274600  1
  Cl  Cl12  1  0.01676100  0.84240500  0.96157500  1
  Cl  Cl13  1  0.98323900  0.15759500  0.03842500  1
  Cl  Cl14  1  0.98323900  0.65759500  0.46157500  1
  Cl  Cl15  1  0.51676100  0.15759500  0.03842500  1
  Cl  Cl16  1  0.01676100  0.34240500  0.53842500  1
  Cl  Cl17  1  0.48323900  0.84240500  0.96157500  1
  Cl  Cl18  1  0.48323900  0.34240500  0.53842500  1
  Cl  Cl19  1  0.51676100  0.65759500  0.46157500  1
  Cl  Cl20  1  0.25000000  0.81443100  0.75902900  1
  Cl  Cl21  1  0.75000000  0.18556900  0.24097100  1
  Cl  Cl22  1  0.75000000  0.68556900  0.25902900  1
  Cl  Cl23  1  0.25000000  0.31443100  0.74097100  1
  O  O0  1  0.25000000  0.93454200  0.16458200  1
  O  O1  1  0.75000000  0.06545800  0.83541800  1
  O  O2  1  0.75000000  0.56545800  0.66458200  1
  O  O3  1  0.25000000  0.43454200  0.33541800  1
loop_
_geom_bond_atom_site_label_1
_geom_bond_atom_site_label_2
_geom_bond_distance
_geom_bond_site_symmetry_2
Cl0 Ir0 2.364233 1_555
Cl0 Rb2 3.336522 1_456
Cl0 Rb4 3.461085 1_555
Cl0 Rb10 3.523435 1_455
Cl0 Rb3 3.576676 1_555
Cl1 Ir1 2.364233 1_555
Cl1 Rb3 3.336522 1_654
Cl1 Rb5 3.461085 1_555
Cl1 Rb11 3.523435 1_655
Cl1 Rb2 3.576676 1_555
Cl2 Ir2 2.364233 1_555
Cl2 Rb0 3.336522 1_655
Cl2 Rb6 3.461085 1_555
Cl2 Rb8 3.523435 1_655
Cl2 Rb1 3.576676 1_565
Cl3 Ir1 2.364233 1_555
Cl3 Rb3 3.336522 1_554
Cl3 Rb5 3.461085 1_555
Cl3 Rb11 3.523435 1_555
Cl3 Rb2 3.576676 1_555
Cl4 Ir3 2.364233 1_555
Cl4 Rb1 3.336522 1_455
Cl4 Rb7 3.461085 1_555
Cl4 Rb9 3.523435 1_455
Cl4 Rb0 3.576676 1_545
Cl5 Ir0 2.364233 1_555
Cl5 Rb2 3.336522 1_556
Cl5 Rb4 3.461085 1_555
Cl5 Rb10 3.523435 1_555
Cl5 Rb3 3.576676 1_555
Cl6 Ir3 2.364233 1_555
Cl6 Rb1 3.336522 1_555
Cl6 Rb7 3.461085 1_555
Cl6 Rb9 3.523435 1_555
Cl6 Rb0 3.576676 1_545
Cl7 Ir2 2.364233 1_555
Cl7 Rb0 3.336522 1_555
Cl7 Rb6 3.461085 1_555
Cl7 Rb8 3.523435 1_555
Cl7 Rb1 3.576676 1_565
Cl8 Ir0 2.362420 1_554
Cl8 Rb3 3.288939 1_554
Cl8 Rb8 3.319240 1_555
Cl8 Rb2 3.553445 1_455
Cl8 Rb2 3.553445 1_555
Cl9 Ir1 2.362420 1_556
Cl9 Rb2 3.288939 1_556
Cl9 Rb9 3.319240 1_555
Cl9 Rb3 3.553445 1_555
Cl9 Rb3 3.553445 1_655
Cl10 Ir2 2.362420 1_555
Cl10 Rb1 3.288939 1_565
Cl10 Rb10 3.319240 1_555
Cl10 Rb0 3.553445 1_655
Cl10 Rb0 3.553445 1_555
Cl11 Ir3 2.362420 1_555
Cl11 Rb0 3.288939 1_545
Cl11 Rb11 3.319240 1_555
Cl11 Rb1 3.553445 1_555
Cl11 Rb1 3.553445 1_455
Cl12 Ir0 2.366019 1_555
Cl12 Rb10 3.318934 1_455
Cl12 Rb6 3.457045 1_456
Cl12 Rb7 3.489040 1_565
Cl12 Rb2 3.614606 1_456
Cl13 Ir1 2.366019 1_555
Cl13 Rb11 3.318934 1_655
Cl13 Rb7 3.457045 1_654
Cl13 Rb6 3.489040 1_545
Cl13 Rb3 3.614606 1_654
Cl14 Ir2 2.366019 1_555
Cl14 Rb8 3.318934 1_655
Cl14 Rb4 3.457045 1_655
Cl14 Rb5 3.489040 1_555
Cl14 Rb0 3.614606 1_655
Cl15 Ir1 2.366019 1_555
Cl15 Rb11 3.318934 1_555
Cl15 Rb7 3.457045 1_554
Cl15 Rb6 3.489040 1_545
Cl15 Rb3 3.614606 1_554
Cl16 Ir3 2.366019 1_555
Cl16 Rb9 3.318934 1_455
Cl16 Rb5 3.457045 1_455
Cl16 Rb4 3.489040 1_555
Cl16 Rb1 3.614606 1_455
Cl17 Ir0 2.366019 1_555
Cl17 Rb10 3.318934 1_555
Cl17 Rb6 3.457045 1_556
Cl17 Rb7 3.489040 1_565
Cl17 Rb2 3.614606 1_556
Cl18 Ir3 2.366019 1_555
Cl18 Rb9 3.318934 1_555
Cl18 Rb5 3.457045 1_555
Cl18 Rb4 3.489040 1_555
Cl18 Rb1 3.614606 1_555
Cl19 Ir2 2.366019 1_555
Cl19 Rb8 3.318934 1_555
Cl19 Rb4 3.457045 1_555
Cl19 Rb5 3.489040 1_555
Cl19 Rb0 3.614606 1_555
Cl20 Ir0 2.384418 1_555
Cl20 Rb0 3.347835 1_555
Cl20 Rb7 3.354313 1_565
Cl20 Rb10 3.549794 1_455
Cl20 Rb10 3.549794 1_555
Cl20 Rb4 3.620152 1_555
Cl21 Ir1 2.384418 1_555
Cl21 Rb1 3.347835 1_555
Cl21 Rb6 3.354313 1_545
Cl21 Rb11 3.549794 1_655
Cl21 Rb11 3.549794 1_555
Cl21 Rb5 3.620152 1_555
Cl22 Ir2 2.384418 1_555
Cl22 Rb2 3.347835 1_555
Cl22 Rb5 3.354313 1_555
Cl22 Rb8 3.549794 1_555
Cl22 Rb8 3.549794 1_655
Cl22 Rb6 3.620152 1_555
Cl23 Ir3 2.384418 1_555
Cl23 Rb3 3.347835 1_555
Cl23 Rb4 3.354313 1_555
Cl23 Rb9 3.549794 1_455
Cl23 Rb9 3.549794 1_555
Cl23 Rb7 3.620152 1_555
O0 Rb11 3.086811 1_565
O0 Rb6 3.555712 1_555
O0 Rb6 3.555712 1_455
O1 Rb10 3.086811 1_545
O1 Rb7 3.555712 1_655
O1 Rb7 3.555712 1_555
O2 Rb9 3.086811 1_555
O2 Rb4 3.555712 1_555
O2 Rb4 3.555712 1_655
O3 Rb8 3.086811 1_555
O3 Rb5 3.555712 1_455
O3 Rb5 3.555712 1_555
