# generated using pymatgen
data_Li9Mn2Co5O16
_symmetry_space_group_name_H-M   'P 1'
_cell_length_a   5.08366600
_cell_length_b   5.89114957
_cell_length_c   10.09419816
_cell_angle_alpha   88.84453635
_cell_angle_beta   99.76659611
_cell_angle_gamma   107.65282792
_symmetry_Int_Tables_number   1
_chemical_formula_structural   Li9Mn2Co5O16
_chemical_formula_sum   'Li9 Mn2 Co5 O16'
_cell_volume   283.73972663
_cell_formula_units_Z   1
loop_
 _symmetry_equiv_pos_site_id
 _symmetry_equiv_pos_as_xyz
  1  'x, y, z'
loop_
 _atom_site_type_symbol
 _atom_site_label
 _atom_site_symmetry_multiplicity
 _atom_site_fract_x
 _atom_site_fract_y
 _atom_site_fract_z
 _atom_site_occupancy
  Li  Li0  1  0.99032400  0.62072900  0.37075300  1
  Li  Li1  1  0.49674400  0.25369500  0.75439400  1
  Li  Li2  1  0.00967600  0.37927100  0.62924700  1
  Li  Li3  1  0.50000000  0.00000000  0.00000000  1
  Li  Li4  1  0.00830500  0.12465700  0.87944400  1
  Li  Li5  1  0.50325600  0.74630500  0.24560600  1
  Li  Li6  1  0.99169500  0.87534300  0.12055600  1
  Li  Li7  1  0.50000000  0.50000000  0.50000000  1
  Li  Li8  1  0.50000000  0.50000000  0.00000000  1
  Mn  Mn0  1  0.99959500  0.37500500  0.12358600  1
  Mn  Mn1  1  0.00040500  0.62499500  0.87641400  1
  Co  Co0  1  0.50000000  0.00000000  0.50000000  1
  Co  Co1  1  0.49850000  0.25106900  0.24697200  1
  Co  Co2  1  0.00279700  0.87411000  0.62661300  1
  Co  Co3  1  0.99720300  0.12589000  0.37338700  1
  Co  Co4  1  0.50150000  0.74893100  0.75302800  1
  O  O0  1  0.74715400  0.52861000  0.18513700  1
  O  O1  1  0.24617500  0.17776900  0.55858800  1
  O  O2  1  0.73845000  0.29095900  0.42930200  1
  O  O3  1  0.23561400  0.92495100  0.81633300  1
  O  O4  1  0.74532500  0.03259700  0.68489100  1
  O  O5  1  0.21514700  0.67213300  0.05749700  1
  O  O6  1  0.75254600  0.79329900  0.92201600  1
  O  O7  1  0.22980800  0.43596300  0.30189500  1
  O  O8  1  0.26155000  0.70904100  0.57069800  1
  O  O9  1  0.78485300  0.32786700  0.94250300  1
  O  O10  1  0.25284600  0.47139000  0.81486300  1
  O  O11  1  0.76438600  0.07504900  0.18366700  1
  O  O12  1  0.24745400  0.20670100  0.07798400  1
  O  O13  1  0.75382500  0.82223100  0.44141200  1
  O  O14  1  0.25467500  0.96740300  0.31510900  1
  O  O15  1  0.77019200  0.56403700  0.69810500  1
loop_
_geom_bond_atom_site_label_1
_geom_bond_atom_site_label_2
_geom_bond_distance
_geom_bond_site_symmetry_2
Li0 O0 2.044883 1_555
Li0 O7 2.066747 1_655
Li0 O2 2.112994 1_555
Li0 O13 2.134017 1_555
Li0 O14 2.199485 1_655
Li0 O8 2.215499 1_655
Li1 O15 2.069421 1_555
Li1 O1 2.136621 1_555
Li1 O3 2.139480 1_545
Li1 O9 2.154850 1_555
Li1 O10 2.192578 1_555
Li1 O4 2.263108 1_555
Li2 O10 2.044883 1_555
Li2 O15 2.066747 1_455
Li2 O8 2.112994 1_555
Li2 O1 2.134017 1_555
Li2 O4 2.199485 1_455
Li2 O2 2.215499 1_455
Li3 O11 2.065528 1_555
Li3 O3 2.065528 1_544
Li3 O9 2.169821 1_554
Li3 O5 2.169821 1_545
Li3 O6 2.253992 1_544
Li3 O12 2.253992 1_555
Li4 O9 2.056583 1_455
Li4 O3 2.056657 1_545
Li4 O6 2.074169 1_445
Li4 O12 2.141061 1_556
Li4 O4 2.156533 1_455
Li4 O10 2.196360 1_555
Li5 O7 2.069421 1_555
Li5 O13 2.136621 1_555
Li5 O11 2.139480 1_565
Li5 O5 2.154850 1_555
Li5 O0 2.192578 1_555
Li5 O14 2.263108 1_555
Li6 O5 2.056583 1_655
Li6 O11 2.056657 1_565
Li6 O12 2.074169 1_665
Li6 O6 2.141061 1_554
Li6 O14 2.156533 1_655
Li6 O0 2.196360 1_555
Li7 O13 2.084796 1_555
Li7 O1 2.084796 1_555
Li7 O8 2.174766 1_555
Li7 O2 2.174766 1_555
Li7 O15 2.193653 1_555
Li7 O7 2.193653 1_555
Li8 O10 2.046255 1_554
Li8 O0 2.046255 1_555
Li8 O6 2.048436 1_554
Li8 O12 2.048436 1_555
Li8 O9 2.159085 1_554
Li8 O5 2.159085 1_555
Mn0 O5 1.935818 1_655
Mn0 O12 1.937925 1_655
Mn0 O9 1.941560 1_554
Mn0 O7 1.948007 1_655
Mn0 O11 1.959965 1_555
Mn0 O0 1.961969 1_555
Mn1 O9 1.935818 1_455
Mn1 O6 1.937925 1_455
Mn1 O5 1.941560 1_556
Mn1 O15 1.948007 1_455
Mn1 O3 1.959965 1_555
Mn1 O10 1.961969 1_555
Co0 O8 1.975035 1_545
Co0 O2 1.975035 1_555
Co0 O4 2.038371 1_555
Co0 O14 2.038371 1_545
Co0 O1 2.053051 1_555
Co0 O13 2.053051 1_545
Co1 O0 1.906261 1_555
Co1 O12 1.919353 1_555
Co1 O14 1.946459 1_545
Co1 O2 2.003111 1_555
Co1 O11 2.116720 1_555
Co1 O7 2.131488 1_555
Co2 O4 1.988869 1_465
Co2 O8 2.011062 1_555
Co2 O1 2.024544 1_565
Co2 O13 2.043505 1_455
Co2 O15 2.045028 1_455
Co2 O3 2.048700 1_555
Co3 O14 1.988869 1_645
Co3 O2 2.011062 1_555
Co3 O13 2.024544 1_545
Co3 O1 2.043505 1_655
Co3 O7 2.045028 1_655
Co3 O11 2.048700 1_555
Co4 O10 1.906261 1_555
Co4 O6 1.919353 1_555
Co4 O4 1.946459 1_565
Co4 O8 2.003111 1_555
Co4 O3 2.116720 1_555
Co4 O15 2.131488 1_555
