# generated using pymatgen
data_La6Cr(SiS7)2
_symmetry_space_group_name_H-M   'P 1'
_cell_length_a   10.38052134
_cell_length_b   10.38052134
_cell_length_c   5.78441300
_cell_angle_alpha   90.00000000
_cell_angle_beta   90.00000000
_cell_angle_gamma   119.99999582
_symmetry_Int_Tables_number   1
_chemical_formula_structural   La6Cr(SiS7)2
_chemical_formula_sum   'La6 Cr1 Si2 S14'
_cell_volume   539.79427610
_cell_formula_units_Z   1
loop_
 _symmetry_equiv_pos_site_id
 _symmetry_equiv_pos_as_xyz
  1  'x, y, z'
loop_
 _atom_site_type_symbol
 _atom_site_label
 _atom_site_symmetry_multiplicity
 _atom_site_fract_x
 _atom_site_fract_y
 _atom_site_fract_z
 _atom_site_occupancy
  La  La0  1  0.23450700  0.35626200  0.25115600  1
  La  La1  1  0.64373800  0.87824600  0.25115600  1
  La  La2  1  0.12175400  0.76549300  0.25115600  1
  La  La3  1  0.76681700  0.64428500  0.75261600  1
  La  La4  1  0.35571500  0.12253200  0.75261600  1
  La  La5  1  0.87746800  0.23318300  0.75261600  1
  Cr  Cr0  1  0.00000000  0.00000000  0.48960400  1
  Si  Si0  1  0.33333300  0.66666700  0.83507700  1
  Si  Si1  1  0.66666700  0.33333300  0.33732100  1
  S  S0  1  0.33333300  0.66666700  0.47042900  1
  S  S1  1  0.66666700  0.33333300  0.97239500  1
  S  S2  1  0.15773800  0.23949700  0.72559000  1
  S  S3  1  0.76050300  0.91824100  0.72559000  1
  S  S4  1  0.08175900  0.84226200  0.72559000  1
  S  S5  1  0.84120500  0.76087200  0.25476500  1
  S  S6  1  0.23912800  0.08033300  0.25476500  1
  S  S7  1  0.91966700  0.15879500  0.25476500  1
  S  S8  1  0.11552700  0.52310900  0.97520100  1
  S  S9  1  0.47689100  0.59241900  0.97520100  1
  S  S10  1  0.40758100  0.88447300  0.97520100  1
  S  S11  1  0.88474100  0.47531200  0.47790800  1
  S  S12  1  0.52468800  0.40943000  0.47790800  1
  S  S13  1  0.59057000  0.11525900  0.47790800  1
loop_
_geom_bond_atom_site_label_1
_geom_bond_atom_site_label_2
_geom_bond_distance
_geom_bond_site_symmetry_2
La0 S7 2.860789 1_455
La0 S6 2.888645 1_555
La0 S2 2.944417 1_555
La0 S9 2.952988 1_554
La0 S8 3.035155 1_554
La0 S12 3.071810 1_555
La0 S0 3.120576 1_555
La0 S2 3.221868 1_554
La1 S5 2.860797 1_555
La1 S7 2.888640 1_565
La1 S3 2.944417 1_555
La1 S10 2.952987 1_554
La1 S9 3.035155 1_554
La1 S13 3.071810 1_565
La1 S0 3.120576 1_555
La1 S3 3.221869 1_554
La2 S6 2.860788 1_565
La2 S5 2.888635 1_455
La2 S4 2.944414 1_555
La2 S8 2.952987 1_554
La2 S10 3.035155 1_554
La2 S11 3.071810 1_455
La2 S0 3.120576 1_555
La2 S4 3.221866 1_554
La3 S4 2.866582 1_655
La3 S3 2.881381 1_555
La3 S12 2.942486 1_555
La3 S11 3.040920 1_555
La3 S9 3.063467 1_555
La3 S5 3.069124 1_555
La3 S5 3.092463 1_556
La3 S1 3.124140 1_555
La4 S2 2.866582 1_555
La4 S4 2.881382 1_545
La4 S13 2.942481 1_555
La4 S12 3.040927 1_555
La4 S10 3.063458 1_545
La4 S6 3.069124 1_555
La4 S6 3.092463 1_556
La4 S1 3.124138 1_555
La5 S3 2.866582 1_545
La5 S2 2.881381 1_655
La5 S11 2.942490 1_555
La5 S13 3.040928 1_555
La5 S8 3.063464 1_655
La5 S7 3.069124 1_555
La5 S7 3.092463 1_556
La5 S1 3.124131 1_555
Cr0 S7 2.575339 1_455
Cr0 S6 2.575339 1_555
Cr0 S5 2.575339 1_445
Cr0 S4 2.579609 1_545
Cr0 S3 2.579609 1_445
Cr0 S2 2.579609 1_555
S0 Si0 2.109275 1_555
S1 Si1 2.110883 1_556
S8 Si0 2.149480 1_555
S9 Si0 2.149480 1_555
S10 Si0 2.149480 1_555
S11 Si1 2.149785 1_555
S12 Si1 2.149800 1_555
S13 Si1 2.149782 1_555
