# generated using pymatgen
data_LiCo(CO3)2
_symmetry_space_group_name_H-M   'P 1'
_cell_length_a   4.61796188
_cell_length_b   14.43568415
_cell_length_c   5.76915007
_cell_angle_alpha   82.63647483
_cell_angle_beta   89.92808205
_cell_angle_gamma   88.69433169
_symmetry_Int_Tables_number   1
_chemical_formula_structural   LiCo(CO3)2
_chemical_formula_sum   'Li4 Co4 C8 O24'
_cell_volume   381.32007196
_cell_formula_units_Z   4
loop_
 _symmetry_equiv_pos_site_id
 _symmetry_equiv_pos_as_xyz
  1  'x, y, z'
loop_
 _atom_site_type_symbol
 _atom_site_label
 _atom_site_symmetry_multiplicity
 _atom_site_fract_x
 _atom_site_fract_y
 _atom_site_fract_z
 _atom_site_occupancy
  Li  Li0  1  0.99954000  0.99989500  0.99946400  1
  Li  Li1  1  0.49769300  0.25049600  0.25096100  1
  Li  Li2  1  0.99996500  0.49998500  0.50043500  1
  Li  Li3  1  0.50295200  0.74955000  0.74902300  1
  Co  Co0  1  0.00245800  0.74978900  0.24978600  1
  Co  Co1  1  0.49887600  0.00001900  0.50044400  1
  Co  Co2  1  0.99850500  0.25031200  0.74984700  1
  Co  Co3  1  0.50030200  0.49983000  0.99930300  1
  C  C0  1  0.49926500  0.37361100  0.64339000  1
  C  C1  1  0.00761600  0.62339300  0.89319900  1
  C  C2  1  0.50103800  0.87368000  0.14244200  1
  C  C3  1  0.99864100  0.12367300  0.39272100  1
  C  C4  1  0.49945300  0.12670900  0.85797200  1
  C  C5  1  0.99403400  0.37654300  0.10677800  1
  C  C6  1  0.50033700  0.62595200  0.35579400  1
  C  C7  1  0.99962400  0.87644100  0.60798700  1
  O  O0  1  0.77736800  0.12972700  0.86565400  1
  O  O1  1  0.27037300  0.37787500  0.12440400  1
  O  O2  1  0.77803500  0.62933100  0.36116800  1
  O  O3  1  0.27761300  0.87957500  0.61600900  1
  O  O4  1  0.12641000  0.19481400  0.45876800  1
  O  O5  1  0.62997200  0.44387000  0.71063800  1
  O  O6  1  0.13766200  0.69365400  0.96157800  1
  O  O7  1  0.62839000  0.94494800  0.20820900  1
  O  O8  1  0.65512400  0.30599000  0.57242700  1
  O  O9  1  0.15963800  0.55276000  0.83132000  1
  O  O10  1  0.65795300  0.80520900  0.07675900  1
  O  O11  1  0.15622100  0.05545100  0.32672100  1
  O  O12  1  0.34222800  0.19497000  0.92433300  1
  O  O13  1  0.84236700  0.44727100  0.16752400  1
  O  O14  1  0.34343500  0.69356500  0.42646100  1
  O  O15  1  0.84281300  0.94480700  0.67468400  1
  O  O16  1  0.86365100  0.30634100  0.03841700  1
  O  O17  1  0.37060600  0.55542300  0.28887200  1
  O  O18  1  0.87188100  0.80536700  0.54166700  1
  O  O19  1  0.37131700  0.05567500  0.79184000  1
  O  O20  1  0.22128400  0.37064000  0.63908500  1
  O  O21  1  0.73134100  0.62176600  0.87564700  1
  O  O22  1  0.22303100  0.87054400  0.13416300  1
  O  O23  1  0.72098900  0.12054900  0.38410700  1
loop_
_geom_bond_atom_site_label_1
_geom_bond_atom_site_label_2
_geom_bond_distance
_geom_bond_site_symmetry_2
Li0 O22 2.167486 1_656
Li0 O0 2.169042 1_565
Li0 O7 2.197504 1_556
Li0 O19 2.200302 1_665
Li0 O15 2.253567 1_555
Li0 O11 2.269190 1_666
Li1 O1 2.141515 1_555
Li1 O23 2.171806 1_555
Li1 O16 2.193853 1_555
Li1 O4 2.198586 1_555
Li1 O8 2.240655 1_555
Li1 O12 2.263965 1_554
Li2 O20 2.168645 1_655
Li2 O2 2.170858 1_555
Li2 O5 2.202782 1_555
Li2 O17 2.206030 1_655
Li2 O9 2.273768 1_655
Li2 O13 2.280540 1_555
Li3 O21 2.148631 1_555
Li3 O3 2.176843 1_555
Li3 O18 2.189352 1_555
Li3 O6 2.191718 1_555
Li3 O14 2.252745 1_555
Li3 O10 2.269782 1_556
Co0 O10 1.977058 1_455
Co0 O14 1.977576 1_555
Co0 O6 2.032443 1_554
Co0 O18 2.040722 1_455
Co0 O22 2.074206 1_555
Co0 O2 2.074796 1_455
Co1 O11 1.972152 1_555
Co1 O15 1.977199 1_545
Co1 O19 2.034890 1_555
Co1 O7 2.037522 1_545
Co1 O3 2.072127 1_545
Co1 O23 2.076097 1_555
Co2 O12 1.977665 1_655
Co2 O8 1.985779 1_555
Co2 O4 2.032609 1_655
Co2 O16 2.033020 1_556
Co2 O20 2.068629 1_655
Co2 O0 2.073775 1_555
Co3 O9 1.938331 1_555
Co3 O13 1.942492 1_556
Co3 O5 2.026040 1_555
Co3 O17 2.028002 1_556
Co3 O1 2.122560 1_556
Co3 O21 2.123080 1_555
C0 O20 1.285775 1_555
C0 O5 1.293396 1_555
C0 O8 1.306983 1_555
C1 O21 1.280953 1_455
C1 O6 1.294576 1_555
C1 O9 1.311488 1_555
C2 O22 1.286816 1_555
C2 O7 1.294779 1_555
C2 O10 1.307035 1_555
C3 O23 1.285253 1_555
C3 O4 1.294787 1_655
C3 O11 1.306592 1_655
C4 O0 1.286144 1_555
C4 O19 1.294488 1_555
C4 O12 1.306956 1_555
C5 O1 1.281072 1_655
C5 O16 1.294576 1_555
C5 O13 1.309326 1_555
C6 O2 1.285000 1_555
C6 O17 1.293718 1_555
C6 O14 1.308774 1_555
C7 O3 1.286669 1_655
C7 O18 1.294542 1_555
C7 O15 1.307865 1_555
