# generated using pymatgen
data_Y3Al2
_symmetry_space_group_name_H-M   'P 1'
_cell_length_a   7.67811717
_cell_length_b   8.23629282
_cell_length_c   8.23629282
_cell_angle_alpha   89.99979951
_cell_angle_beta   90.00000000
_cell_angle_gamma   90.00000000
_symmetry_Int_Tables_number   1
_chemical_formula_structural   Y3Al2
_chemical_formula_sum   'Y12 Al8'
_cell_volume   520.85674449
_cell_formula_units_Z   4
loop_
 _symmetry_equiv_pos_site_id
 _symmetry_equiv_pos_as_xyz
  1  'x, y, z'
loop_
 _atom_site_type_symbol
 _atom_site_label
 _atom_site_symmetry_multiplicity
 _atom_site_fract_x
 _atom_site_fract_y
 _atom_site_fract_z
 _atom_site_occupancy
  Y  Y0  1  0.24997121  -0.00000000  0.50000000  1
  Y  Y1  1  0.75002879  -0.00000000  0.50000000  1
  Y  Y2  1  0.24997121  0.50000000  0.00000000  1
  Y  Y3  1  0.75002879  0.50000000  0.00000000  1
  Y  Y4  1  0.00000000  0.34690987  0.34690987  1
  Y  Y5  1  0.50000000  0.15312705  0.84687295  1
  Y  Y6  1  0.50000000  0.84687295  0.15312705  1
  Y  Y7  1  0.00000000  0.65309013  0.65309013  1
  Y  Y8  1  0.00000000  0.20056967  0.79943033  1
  Y  Y9  1  0.50000000  0.70053326  0.70053326  1
  Y  Y10  1  0.50000000  0.29946674  0.29946674  1
  Y  Y11  1  0.00000000  0.79943033  0.20056967  1
  Al  Al0  1  0.19748128  0.11801708  0.11801708  1
  Al  Al1  1  0.69751088  0.38199335  0.61800665  1
  Al  Al2  1  0.69751088  0.61800665  0.38199335  1
  Al  Al3  1  0.19748128  0.88198292  0.88198292  1
  Al  Al4  1  0.30248912  0.61800665  0.38199335  1
  Al  Al5  1  0.30248912  0.38199335  0.61800665  1
  Al  Al6  1  0.80251872  0.11801708  0.11801708  1
  Al  Al7  1  0.80251872  0.88198292  0.88198292  1
loop_
_geom_bond_atom_site_label_1
_geom_bond_atom_site_label_2
_geom_bond_distance
_geom_bond_site_symmetry_2
Al0 Al3 2.749302 1_544
Al0 Al6 3.032569 1_455
Al0 Y4 3.067134 1_555
Al0 Y11 3.105905 1_545
Al0 Y8 3.105905 1_554
Al0 Y10 3.140413 1_555
Al0 Y5 3.235148 1_554
Al0 Y6 3.235148 1_545
Al0 Y2 3.317428 1_555
Al0 Y0 3.317428 1_555
Al1 Al2 2.749049 1_555
Al1 Al5 3.033023 1_555
Al1 Y5 3.066970 1_555
Al1 Y10 3.105647 1_555
Al1 Y9 3.105647 1_555
Al1 Y8 3.140036 1_655
Al1 Y4 3.234697 1_655
Al1 Y7 3.234697 1_655
Al1 Y3 3.317517 1_556
Al1 Y1 3.317517 1_555
Al2 Al4 3.033023 1_555
Al2 Y6 3.066970 1_555
Al2 Y10 3.105647 1_555
Al2 Y9 3.105647 1_555
Al2 Y11 3.140036 1_655
Al2 Y4 3.234697 1_655
Al2 Y7 3.234697 1_655
Al2 Y3 3.317517 1_555
Al2 Y1 3.317517 1_565
Al3 Al7 3.032569 1_455
Al3 Y7 3.067134 1_555
Al3 Y8 3.105905 1_565
Al3 Y11 3.105905 1_556
Al3 Y9 3.140413 1_555
Al3 Y6 3.235148 1_556
Al3 Y5 3.235148 1_565
Al3 Y0 3.317428 1_565
Al3 Y2 3.317428 1_556
Al4 Al5 2.749049 1_555
Al4 Y6 3.066970 1_555
Al4 Y10 3.105647 1_555
Al4 Y9 3.105647 1_555
Al4 Y11 3.140036 1_555
Al4 Y4 3.234697 1_555
Al4 Y7 3.234697 1_555
Al4 Y2 3.317517 1_555
Al4 Y0 3.317517 1_565
Al5 Y5 3.066970 1_555
Al5 Y10 3.105647 1_555
Al5 Y9 3.105647 1_555
Al5 Y8 3.140036 1_555
Al5 Y4 3.234697 1_555
Al5 Y7 3.234697 1_555
Al5 Y0 3.317517 1_555
Al5 Y2 3.317517 1_556
Al6 Al7 2.749302 1_544
Al6 Y4 3.067134 1_655
Al6 Y11 3.105905 1_645
Al6 Y8 3.105905 1_654
Al6 Y10 3.140413 1_555
Al6 Y5 3.235148 1_554
Al6 Y6 3.235148 1_545
Al6 Y1 3.317428 1_555
Al6 Y3 3.317428 1_555
Al7 Y7 3.067134 1_655
Al7 Y11 3.105905 1_656
Al7 Y8 3.105905 1_665
Al7 Y9 3.140413 1_555
Al7 Y6 3.235148 1_556
Al7 Y5 3.235148 1_565
Al7 Y3 3.317428 1_556
Al7 Y1 3.317428 1_565
