# generated using pymatgen
data_La3Ni4(P2O)2
_symmetry_space_group_name_H-M   'P 1'
_cell_length_a   13.29695970
_cell_length_b   13.29695970
_cell_length_c   13.29695970
_cell_angle_alpha   162.65842730
_cell_angle_beta   162.65842730
_cell_angle_gamma   24.62016321
_symmetry_Int_Tables_number   1
_chemical_formula_structural   La3Ni4(P2O)2
_chemical_formula_sum   'La3 Ni4 P4 O2'
_cell_volume   208.81850499
_cell_formula_units_Z   1
loop_
 _symmetry_equiv_pos_site_id
 _symmetry_equiv_pos_as_xyz
  1  'x, y, z'
loop_
 _atom_site_type_symbol
 _atom_site_label
 _atom_site_symmetry_multiplicity
 _atom_site_fract_x
 _atom_site_fract_y
 _atom_site_fract_z
 _atom_site_occupancy
  La  La0  1  0.29775500  0.29775500  0.00000000  1
  La  La1  1  0.70224500  0.70224500  0.00000000  1
  La  La2  1  0.00000000  0.00000000  0.00000000  1
  Ni  Ni0  1  0.59273000  0.09273000  0.50000000  1
  Ni  Ni1  1  0.40727000  0.90727000  0.50000000  1
  Ni  Ni2  1  0.09273000  0.59273000  0.50000000  1
  Ni  Ni3  1  0.90727000  0.40727000  0.50000000  1
  P  P0  1  0.13133300  0.13133300  0.00000000  1
  P  P1  1  0.86866700  0.86866700  0.00000000  1
  P  P2  1  0.44984100  0.44984100  0.00000000  1
  P  P3  1  0.55015900  0.55015900  0.00000000  1
  O  O0  1  0.75000000  0.25000000  0.50000000  1
  O  O1  1  0.25000000  0.75000000  0.50000000  1
loop_
_geom_bond_atom_site_label_1
_geom_bond_atom_site_label_2
_geom_bond_distance
_geom_bond_site_symmetry_2
La0 O0 2.357545 1_454
La0 O1 2.357545 1_555
La0 O0 2.357545 1_555
La0 O1 2.357545 1_544
La1 O1 2.357545 1_554
La1 O1 2.357545 1_655
La1 O0 2.357545 1_554
La1 O0 2.357545 1_565
La2 P3 3.120156 1_556
La2 P3 3.120156 1_444
La2 P3 3.120156 1_545
La2 P3 3.120156 1_455
La2 P2 3.120156 1_556
La2 P2 3.120156 1_455
La2 P2 3.120156 1_545
La2 P2 3.120156 1_444
La2 Ni1 3.134237 1_444
La2 Ni3 3.134237 1_455
La2 Ni3 3.134237 1_444
La2 Ni1 3.134237 1_545
La2 Ni0 3.134237 1_454
La2 Ni0 3.134237 1_555
La2 Ni2 3.134237 1_555
La2 Ni2 3.134237 1_544
Ni0 P0 2.241531 1_656
Ni0 P0 2.241531 1_555
Ni0 P3 2.289521 1_556
Ni0 P3 2.289521 1_545
Ni1 P1 2.241531 1_556
Ni1 P1 2.241531 1_455
Ni1 P2 2.289521 1_566
Ni1 P2 2.289521 1_555
Ni2 P0 2.241531 1_566
Ni2 P0 2.241531 1_555
Ni2 P3 2.289521 1_455
Ni2 P3 2.289521 1_556
Ni3 P1 2.241531 1_556
Ni3 P1 2.241531 1_545
Ni3 P2 2.289521 1_656
Ni3 P2 2.289521 1_555
P2 P3 2.606510 1_555
