# generated using pymatgen
data_PtO2
_symmetry_space_group_name_H-M   'P 1'
_cell_length_a   4.99963900
_cell_length_b   4.99963900
_cell_length_c   4.99963900
_cell_angle_alpha   90.00000000
_cell_angle_beta   90.00000000
_cell_angle_gamma   90.00000000
_symmetry_Int_Tables_number   1
_chemical_formula_structural   PtO2
_chemical_formula_sum   'Pt4 O8'
_cell_volume   124.97292695
_cell_formula_units_Z   4
loop_
 _symmetry_equiv_pos_site_id
 _symmetry_equiv_pos_as_xyz
  1  'x, y, z'
loop_
 _atom_site_type_symbol
 _atom_site_label
 _atom_site_symmetry_multiplicity
 _atom_site_fract_x
 _atom_site_fract_y
 _atom_site_fract_z
 _atom_site_occupancy
  Pt  Pt0  1  0.50000000  0.50000000  0.00000000  1
  Pt  Pt1  1  0.50000000  0.00000000  0.50000000  1
  Pt  Pt2  1  0.00000000  0.50000000  0.50000000  1
  Pt  Pt3  1  0.00000000  0.00000000  0.00000000  1
  O  O0  1  0.15874800  0.84125200  0.34125200  1
  O  O1  1  0.84125200  0.34125200  0.15874800  1
  O  O2  1  0.34125200  0.15874800  0.84125200  1
  O  O3  1  0.65874800  0.65874800  0.65874800  1
  O  O4  1  0.84125200  0.15874800  0.65874800  1
  O  O5  1  0.15874800  0.65874800  0.84125200  1
  O  O6  1  0.65874800  0.84125200  0.15874800  1
  O  O7  1  0.34125200  0.34125200  0.34125200  1
loop_
_geom_bond_atom_site_label_1
_geom_bond_atom_site_label_2
_geom_bond_distance
_geom_bond_site_symmetry_2
O0 Pt3 2.042246 1_565
O0 Pt2 2.042246 1_555
O0 Pt1 2.042246 1_565
O1 Pt3 2.042246 1_655
O1 Pt0 2.042246 1_555
O1 Pt2 2.042246 1_655
O2 Pt1 2.042246 1_555
O2 Pt0 2.042246 1_556
O2 Pt3 2.042246 1_556
O3 Pt0 2.042246 1_556
O3 Pt1 2.042246 1_565
O3 Pt2 2.042246 1_655
O4 Pt1 2.042246 1_555
O4 Pt3 2.042246 1_656
O4 Pt2 2.042246 1_655
O5 Pt2 2.042246 1_555
O5 Pt3 2.042246 1_566
O5 Pt0 2.042246 1_556
O6 Pt3 2.042246 1_665
O6 Pt1 2.042246 1_565
O6 Pt0 2.042246 1_555
O7 Pt2 2.042246 1_555
O7 Pt1 2.042246 1_555
O7 Pt0 2.042246 1_555
