# generated using pymatgen
data_Yb6Fe2S11
_symmetry_space_group_name_H-M   'P 1'
_cell_length_a   6.52648898
_cell_length_b   6.52648898
_cell_length_c   33.82268400
_cell_angle_alpha   90.00000000
_cell_angle_beta   90.00000000
_cell_angle_gamma   147.13389291
_symmetry_Int_Tables_number   1
_chemical_formula_structural   Yb6Fe2S11
_chemical_formula_sum   'Yb12 Fe4 S22'
_cell_volume   781.82445123
_cell_formula_units_Z   2
loop_
 _symmetry_equiv_pos_site_id
 _symmetry_equiv_pos_as_xyz
  1  'x, y, z'
loop_
 _atom_site_type_symbol
 _atom_site_label
 _atom_site_symmetry_multiplicity
 _atom_site_fract_x
 _atom_site_fract_y
 _atom_site_fract_z
 _atom_site_occupancy
  Yb  Yb0  1  0.99933700  0.00066300  0.25000000  1
  Yb  Yb1  1  0.00066300  0.99933700  0.75000000  1
  Yb  Yb2  1  0.75733300  0.24266700  0.06222400  1
  Yb  Yb3  1  0.24266700  0.75733300  0.93777600  1
  Yb  Yb4  1  0.75733300  0.24266700  0.43777600  1
  Yb  Yb5  1  0.24266700  0.75733300  0.56222400  1
  Yb  Yb6  1  0.50000000  0.50000000  0.00000000  1
  Yb  Yb7  1  0.50000000  0.50000000  0.50000000  1
  Yb  Yb8  1  0.25542100  0.74457900  0.17840800  1
  Yb  Yb9  1  0.74457900  0.25542100  0.82159200  1
  Yb  Yb10  1  0.25542100  0.74457900  0.32159200  1
  Yb  Yb11  1  0.74457900  0.25542100  0.67840800  1
  Fe  Fe0  1  0.51627400  0.48372600  0.13522900  1
  Fe  Fe1  1  0.48372600  0.51627400  0.86477100  1
  Fe  Fe2  1  0.51627400  0.48372600  0.36477100  1
  Fe  Fe3  1  0.48372600  0.51627400  0.63522900  1
  S  S0  1  0.11985800  0.88014200  0.38581700  1
  S  S1  1  0.88014200  0.11985800  0.61418300  1
  S  S2  1  0.11985800  0.88014200  0.11418300  1
  S  S3  1  0.88014200  0.11985800  0.88581700  1
  S  S4  1  0.91480200  0.08519800  0.34365500  1
  S  S5  1  0.08519800  0.91480200  0.65634500  1
  S  S6  1  0.91480200  0.08519800  0.15634500  1
  S  S7  1  0.08519800  0.91480200  0.84365500  1
  S  S8  1  0.33770800  0.66229200  0.25000000  1
  S  S9  1  0.66229200  0.33770800  0.75000000  1
  S  S10  1  0.60118200  0.39881800  0.30313200  1
  S  S11  1  0.39881800  0.60118200  0.69686800  1
  S  S12  1  0.60118200  0.39881800  0.19686800  1
  S  S13  1  0.39881800  0.60118200  0.80313200  1
  S  S14  1  0.42206700  0.57793300  0.42188000  1
  S  S15  1  0.57793300  0.42206700  0.57812000  1
  S  S16  1  0.42206700  0.57793300  0.07812000  1
  S  S17  1  0.57793300  0.42206700  0.92188000  1
  S  S18  1  0.15220200  0.84779800  0.48302200  1
  S  S19  1  0.84779800  0.15220200  0.51697800  1
  S  S20  1  0.15220200  0.84779800  0.01697800  1
  S  S21  1  0.84779800  0.15220200  0.98302200  1
loop_
_geom_bond_atom_site_label_1
_geom_bond_atom_site_label_2
_geom_bond_distance
_geom_bond_site_symmetry_2
Fe0 S16 2.263206 1_555
Fe0 S12 2.340172 1_555
Fe0 S6 2.352206 1_455
Fe0 S6 2.352206 1_565
Fe0 S2 2.365879 1_655
Fe0 S2 2.365879 1_545
Fe1 S17 2.263206 1_555
Fe1 S13 2.340172 1_555
Fe1 S7 2.352206 1_545
Fe1 S7 2.352206 1_655
Fe1 S3 2.365879 1_455
Fe1 S3 2.365879 1_565
Fe2 S14 2.263206 1_555
Fe2 S10 2.340172 1_555
Fe2 S4 2.352206 1_455
Fe2 S4 2.352206 1_565
Fe2 S0 2.365879 1_545
Fe2 S0 2.365879 1_655
Fe3 S15 2.263206 1_555
Fe3 S11 2.340172 1_555
Fe3 S5 2.352206 1_545
Fe3 S5 2.352206 1_655
Fe3 S1 2.365879 1_455
Fe3 S1 2.365879 1_565
S0 Yb10 2.756678 1_555
S0 Yb4 3.075657 1_565
S0 Yb4 3.075657 1_455
S1 Yb11 2.756678 1_555
S1 Yb5 3.075657 1_545
S1 Yb5 3.075657 1_655
S2 Yb8 2.756678 1_555
S2 Yb2 3.075657 1_565
S2 Yb2 3.075657 1_455
S3 Yb9 2.756678 1_555
S3 Yb3 3.075657 1_545
S3 Yb3 3.075657 1_655
S4 Yb10 2.819113 1_655
S4 Yb10 2.819113 1_545
S4 Yb0 3.339793 1_555
S5 Yb11 2.819113 1_565
S5 Yb11 2.819113 1_455
S5 Yb1 3.339793 1_555
S6 Yb8 2.819113 1_655
S6 Yb8 2.819113 1_545
S6 Yb0 3.339793 1_555
S7 Yb9 2.819113 1_565
S7 Yb9 2.819113 1_455
S7 Yb1 3.339793 1_555
S8 Yb10 2.631479 1_555
S8 Yb8 2.631479 1_555
S8 Yb0 2.739279 1_565
S8 Yb0 2.739279 1_455
S9 Yb9 2.631479 1_555
S9 Yb11 2.631479 1_555
S9 Yb1 2.739279 1_655
S9 Yb1 2.739279 1_545
S10 Yb10 2.743647 1_545
S10 Yb10 2.743647 1_655
S10 Yb0 2.874740 1_455
S10 Yb0 2.874740 1_565
S11 Yb11 2.743647 1_455
S11 Yb11 2.743647 1_565
S11 Yb1 2.874740 1_545
S11 Yb1 2.874740 1_655
S12 Yb8 2.743647 1_545
S12 Yb8 2.743647 1_655
S12 Yb0 2.874740 1_455
S12 Yb0 2.874740 1_565
S13 Yb9 2.743647 1_455
S13 Yb9 2.743647 1_565
S13 Yb1 2.874740 1_545
S13 Yb1 2.874740 1_655
S14 Yb7 2.816623 1_555
S14 Yb4 2.819850 1_455
S14 Yb4 2.819850 1_565
S15 Yb7 2.816623 1_555
S15 Yb5 2.819850 1_655
S15 Yb5 2.819850 1_545
S16 Yb6 2.816623 1_555
S16 Yb2 2.819850 1_455
S16 Yb2 2.819850 1_565
S17 Yb6 2.816623 1_556
S17 Yb3 2.819850 1_545
S17 Yb3 2.819850 1_655
S18 Yb7 2.714715 1_455
S18 Yb7 2.714715 1_565
S18 Yb4 2.735549 1_455
S18 Yb4 2.735549 1_565
S18 Yb5 2.908416 1_555
S19 Yb7 2.714715 1_545
S19 Yb7 2.714715 1_655
S19 Yb5 2.735549 1_545
S19 Yb5 2.735549 1_655
S19 Yb4 2.908416 1_555
S20 Yb6 2.714715 1_455
S20 Yb6 2.714715 1_565
S20 Yb2 2.735549 1_455
S20 Yb2 2.735549 1_565
S20 Yb3 2.908416 1_554
S21 Yb6 2.714715 1_656
S21 Yb6 2.714715 1_546
S21 Yb3 2.735549 1_545
S21 Yb3 2.735549 1_655
S21 Yb2 2.908416 1_556
