# generated using pymatgen
data_ScTl2Mo15S19
_symmetry_space_group_name_H-M   'P 1'
_cell_length_a   18.92143500
_cell_length_b   9.48219600
_cell_length_c   9.54396348
_cell_angle_alpha   60.73301218
_cell_angle_beta   90.00000000
_cell_angle_gamma   90.00000000
_symmetry_Int_Tables_number   1
_chemical_formula_structural   ScTl2Mo15S19
_chemical_formula_sum   'Sc2 Tl4 Mo30 S38'
_cell_volume   1493.76774694
_cell_formula_units_Z   2
loop_
 _symmetry_equiv_pos_site_id
 _symmetry_equiv_pos_as_xyz
  1  'x, y, z'
loop_
 _atom_site_type_symbol
 _atom_site_label
 _atom_site_symmetry_multiplicity
 _atom_site_fract_x
 _atom_site_fract_y
 _atom_site_fract_z
 _atom_site_occupancy
  Sc  Sc0  1  0.25000000  0.83684300  0.18712500  1
  Sc  Sc1  1  0.75000000  0.16315700  0.81287500  1
  Tl  Tl0  1  0.37247600  0.66579100  0.66925500  1
  Tl  Tl1  1  0.87247600  0.33420900  0.33074500  1
  Tl  Tl2  1  0.62752400  0.33420900  0.33074500  1
  Tl  Tl3  1  0.12752400  0.66579100  0.66925500  1
  Mo  Mo0  1  0.44169100  0.15559000  0.01555200  1
  Mo  Mo1  1  0.43985200  0.82621300  0.15861200  1
  Mo  Mo2  1  0.44088100  0.01325300  0.82910300  1
  Mo  Mo3  1  0.94169100  0.84441000  0.98444800  1
  Mo  Mo4  1  0.93985200  0.17378700  0.84138800  1
  Mo  Mo5  1  0.94088100  0.98674700  0.17089700  1
  Mo  Mo6  1  0.55830900  0.84441000  0.98444800  1
  Mo  Mo7  1  0.56014800  0.17378700  0.84138800  1
  Mo  Mo8  1  0.55911900  0.98674700  0.17089700  1
  Mo  Mo9  1  0.05830900  0.15559000  0.01555200  1
  Mo  Mo10  1  0.06014800  0.82621300  0.15861200  1
  Mo  Mo11  1  0.05911900  0.01325300  0.82910300  1
  Mo  Mo12  1  0.36971300  0.18014100  0.31725800  1
  Mo  Mo13  1  0.36994600  0.50115100  0.18134100  1
  Mo  Mo14  1  0.36874600  0.31717400  0.50252600  1
  Mo  Mo15  1  0.86971300  0.81985900  0.68274200  1
  Mo  Mo16  1  0.86994600  0.49884900  0.81865900  1
  Mo  Mo17  1  0.86874600  0.68282600  0.49747400  1
  Mo  Mo18  1  0.63028700  0.81985900  0.68274200  1
  Mo  Mo19  1  0.63005400  0.49884900  0.81865900  1
  Mo  Mo20  1  0.63125400  0.68282600  0.49747400  1
  Mo  Mo21  1  0.13028700  0.18014100  0.31725800  1
  Mo  Mo22  1  0.13005400  0.50115100  0.18134100  1
  Mo  Mo23  1  0.13125400  0.31717400  0.50252600  1
  Mo  Mo24  1  0.25000000  0.34452900  0.16167400  1
  Mo  Mo25  1  0.25000000  0.48462800  0.34973300  1
  Mo  Mo26  1  0.25000000  0.15902000  0.49242400  1
  Mo  Mo27  1  0.75000000  0.65547100  0.83832600  1
  Mo  Mo28  1  0.75000000  0.51537200  0.65026700  1
  Mo  Mo29  1  0.75000000  0.84098000  0.50757600  1
  S  S0  1  0.44866300  0.96961900  0.31114000  1
  S  S1  1  0.44783900  0.71727700  0.97084300  1
  S  S2  1  0.44941100  0.31079700  0.71892800  1
  S  S3  1  0.94866300  0.03038100  0.68886000  1
  S  S4  1  0.94783900  0.28272300  0.02915700  1
  S  S5  1  0.94941100  0.68920300  0.28107200  1
  S  S6  1  0.55133700  0.03038100  0.68886000  1
  S  S7  1  0.55216100  0.28272300  0.02915700  1
  S  S8  1  0.55058900  0.68920300  0.28107200  1
  S  S9  1  0.05133700  0.96961900  0.31114000  1
  S  S10  1  0.05216100  0.71727700  0.97084300  1
  S  S11  1  0.05058900  0.31079700  0.71892800  1
  S  S12  1  0.36028400  0.02079400  0.61334900  1
  S  S13  1  0.35996100  0.36444100  0.02028600  1
  S  S14  1  0.35914300  0.61830100  0.36652100  1
  S  S15  1  0.86028400  0.97920600  0.38665100  1
  S  S16  1  0.85996100  0.63555900  0.97971400  1
  S  S17  1  0.85914300  0.38169900  0.63347900  1
  S  S18  1  0.63971600  0.97920600  0.38665100  1
  S  S19  1  0.64003900  0.63555900  0.97971400  1
  S  S20  1  0.64085700  0.38169900  0.63347900  1
  S  S21  1  0.13971600  0.02079400  0.61334900  1
  S  S22  1  0.14003900  0.36444100  0.02028600  1
  S  S23  1  0.14085700  0.61830100  0.36652100  1
  S  S24  1  0.34238300  0.00366500  0.99627500  1
  S  S25  1  0.84238300  0.99633500  0.00372500  1
  S  S26  1  0.65761700  0.99633500  0.00372500  1
  S  S27  1  0.15761700  0.00366500  0.99627500  1
  S  S28  1  0.53266300  0.66637200  0.66624900  1
  S  S29  1  0.03266300  0.33362800  0.33375100  1
  S  S30  1  0.46733700  0.33362800  0.33375100  1
  S  S31  1  0.96733700  0.66637200  0.66624900  1
  S  S32  1  0.25000000  0.04458700  0.30443000  1
  S  S33  1  0.25000000  0.64659600  0.05073600  1
  S  S34  1  0.25000000  0.30641000  0.64330900  1
  S  S35  1  0.75000000  0.95541300  0.69557000  1
  S  S36  1  0.75000000  0.35340400  0.94926400  1
  S  S37  1  0.75000000  0.69359000  0.35669100  1
loop_
_geom_bond_atom_site_label_1
_geom_bond_atom_site_label_2
_geom_bond_distance
_geom_bond_site_symmetry_2
Mo0 S24 2.428806 1_554
Mo0 S7 2.447915 1_555
Mo0 S2 2.475469 1_554
Mo0 S0 2.494280 1_545
Mo0 S13 2.530391 1_555
Mo1 S0 2.435458 1_555
Mo1 S8 2.441201 1_555
Mo1 S24 2.466574 1_564
Mo1 S1 2.472095 1_554
Mo1 S14 2.516191 1_555
Mo2 S24 2.425999 1_555
Mo2 S6 2.444051 1_555
Mo2 S1 2.451869 1_545
Mo2 S2 2.488200 1_555
Mo2 S12 2.535133 1_555
Mo3 S25 2.428806 1_556
Mo3 S10 2.447915 1_655
Mo3 S5 2.475469 1_556
Mo3 S3 2.494280 1_565
Mo3 S16 2.530391 1_555
Mo4 S3 2.435458 1_555
Mo4 S11 2.441201 1_655
Mo4 S25 2.466574 1_546
Mo4 S4 2.472095 1_556
Mo4 S17 2.516191 1_555
Mo5 S25 2.425999 1_555
Mo5 S9 2.444051 1_655
Mo5 S4 2.451869 1_565
Mo5 S5 2.488200 1_555
Mo5 S15 2.535133 1_555
Mo6 S26 2.428806 1_556
Mo6 S1 2.447915 1_555
Mo6 S8 2.475469 1_556
Mo6 S6 2.494280 1_565
Mo6 S19 2.530391 1_555
Mo7 S6 2.435458 1_555
Mo7 S2 2.441201 1_555
Mo7 S26 2.466574 1_546
Mo7 S7 2.472095 1_556
Mo7 S20 2.516191 1_555
Mo8 S26 2.425999 1_555
Mo8 S0 2.444051 1_555
Mo8 S7 2.451869 1_565
Mo8 S8 2.488200 1_555
Mo8 S18 2.535133 1_555
Mo9 S27 2.428806 1_554
Mo9 S4 2.447915 1_455
Mo9 S11 2.475469 1_554
Mo9 S9 2.494280 1_545
Mo9 S22 2.530391 1_555
Mo10 S9 2.435458 1_555
Mo10 S5 2.441201 1_455
Mo10 S27 2.466574 1_564
Mo10 S10 2.472095 1_554
Mo10 S23 2.516191 1_555
Mo11 S27 2.425999 1_555
Mo11 S3 2.444051 1_455
Mo11 S10 2.451869 1_545
Mo11 S11 2.488200 1_555
Mo11 S21 2.535133 1_555
Mo12 S30 2.403964 1_555
Mo12 S12 2.474996 1_555
Mo12 S13 2.505651 1_555
Mo12 S0 2.516707 1_545
Mo12 S32 2.636635 1_555
Mo13 S30 2.403279 1_555
Mo13 S13 2.455005 1_555
Mo13 S14 2.513734 1_555
Mo13 S1 2.526367 1_554
Mo13 S33 2.631685 1_555
Mo13 Mo25 2.740815 1_555
Mo14 S30 2.419352 1_555
Mo14 S12 2.477088 1_555
Mo14 S14 2.499400 1_555
Mo14 S2 2.544942 1_555
Mo14 S34 2.594220 1_555
Mo14 Mo25 2.726180 1_555
Mo15 S31 2.403964 1_555
Mo15 S15 2.474996 1_555
Mo15 S16 2.505651 1_555
Mo15 S3 2.516707 1_565
Mo15 S35 2.636635 1_555
Mo16 S31 2.403279 1_555
Mo16 S16 2.455005 1_555
Mo16 S17 2.513734 1_555
Mo16 S4 2.526367 1_556
Mo16 S36 2.631685 1_555
Mo16 Mo28 2.740815 1_555
Mo17 S31 2.419352 1_555
Mo17 S15 2.477088 1_555
Mo17 S17 2.499400 1_555
Mo17 S5 2.544942 1_555
Mo17 S37 2.594220 1_555
Mo17 Mo28 2.726180 1_555
Mo18 S28 2.403964 1_555
Mo18 S18 2.474996 1_555
Mo18 S19 2.505651 1_555
Mo18 S6 2.516707 1_565
Mo18 S35 2.636635 1_555
Mo19 S28 2.403279 1_555
Mo19 S19 2.455005 1_555
Mo19 S20 2.513734 1_555
Mo19 S7 2.526367 1_556
Mo19 S36 2.631685 1_555
Mo19 Mo28 2.740815 1_555
Mo20 S28 2.419352 1_555
Mo20 S18 2.477088 1_555
Mo20 S20 2.499400 1_555
Mo20 S8 2.544942 1_555
Mo20 S37 2.594220 1_555
Mo20 Mo28 2.726180 1_555
Mo21 S29 2.403964 1_555
Mo21 S21 2.474996 1_555
Mo21 S22 2.505651 1_555
Mo21 S9 2.516707 1_545
Mo21 S32 2.636635 1_555
Mo22 S29 2.403279 1_555
Mo22 S22 2.455005 1_555
Mo22 S23 2.513734 1_555
Mo22 S10 2.526367 1_554
Mo22 S33 2.631685 1_555
Mo22 Mo25 2.740815 1_555
Mo23 S29 2.419352 1_555
Mo23 S21 2.477088 1_555
Mo23 S23 2.499400 1_555
Mo23 S11 2.544942 1_555
Mo23 S34 2.594220 1_555
Mo23 Mo25 2.726180 1_555
Mo24 S13 2.436473 1_555
Mo24 S22 2.436473 1_555
Mo24 S32 2.481219 1_555
Mo24 S33 2.521867 1_555
Mo24 Mo25 2.705085 1_555
Mo25 S34 2.465095 1_555
Mo25 S14 2.468936 1_555
Mo25 S23 2.468936 1_555
Mo25 S33 2.493331 1_555
Mo25 Mo26 2.697405 1_555
Mo25 Sc0 2.914574 1_555
Mo26 S12 2.434189 1_555
Mo26 S21 2.434189 1_555
Mo26 S34 2.448421 1_555
Mo26 S32 2.510005 1_555
Mo27 S19 2.436473 1_555
Mo27 S16 2.436473 1_555
Mo27 S35 2.481219 1_555
Mo27 S36 2.521867 1_555
Mo27 Mo28 2.705085 1_555
Mo28 S37 2.465095 1_555
Mo28 S17 2.468936 1_555
Mo28 S20 2.468936 1_555
Mo28 S36 2.493331 1_555
Mo28 Mo29 2.697405 1_555
Mo28 Sc1 2.914574 1_555
Mo29 S18 2.434189 1_555
Mo29 S15 2.434189 1_555
Mo29 S37 2.448421 1_555
Mo29 S35 2.510005 1_555
S12 Tl0 3.148511 1_545
S13 Tl0 3.175680 1_554
S14 Sc0 2.832210 1_555
S14 Tl0 3.144282 1_555
S15 Tl1 3.148511 1_565
S16 Tl1 3.175680 1_556
S17 Sc1 2.832210 1_555
S17 Tl1 3.144282 1_555
S18 Tl2 3.148511 1_565
S19 Tl2 3.175680 1_556
S20 Sc1 2.832210 1_555
S20 Tl2 3.144282 1_555
S21 Tl3 3.148511 1_545
S22 Tl3 3.175680 1_554
S23 Sc0 2.832210 1_555
S23 Tl3 3.144282 1_555
S24 Sc0 2.461369 1_546
S25 Sc1 2.461369 1_564
S26 Sc1 2.461369 1_564
S27 Sc0 2.461369 1_546
S28 Tl0 3.031083 1_555
S29 Tl1 3.031083 1_455
S30 Tl2 3.031083 1_555
S31 Tl3 3.031083 1_655
S32 Sc0 2.700022 1_545
S33 Sc0 2.691588 1_555
S35 Sc1 2.700022 1_565
S36 Sc1 2.691588 1_555
