# generated using pymatgen
data_K4Ge(PS3)4
_symmetry_space_group_name_H-M   'P 1'
_cell_length_a   7.39448946
_cell_length_b   7.39448946
_cell_length_c   23.62218373
_cell_angle_alpha   81.38863294
_cell_angle_beta   81.38863294
_cell_angle_gamma   65.79184684
_symmetry_Int_Tables_number   1
_chemical_formula_structural   K4Ge(PS3)4
_chemical_formula_sum   'K8 Ge2 P8 S24'
_cell_volume   1159.15984126
_cell_formula_units_Z   2
loop_
 _symmetry_equiv_pos_site_id
 _symmetry_equiv_pos_as_xyz
  1  'x, y, z'
loop_
 _atom_site_type_symbol
 _atom_site_label
 _atom_site_symmetry_multiplicity
 _atom_site_fract_x
 _atom_site_fract_y
 _atom_site_fract_z
 _atom_site_occupancy
  K  K0  1  0.83506300  0.79244700  0.54572200  1
  K  K1  1  0.20755300  0.16493700  0.95427800  1
  K  K2  1  0.16493700  0.20755300  0.45427800  1
  K  K3  1  0.79244700  0.83506300  0.04572200  1
  K  K4  1  0.67995400  0.51551300  0.81624600  1
  K  K5  1  0.48448700  0.32004600  0.68375400  1
  K  K6  1  0.32004600  0.48448700  0.18375400  1
  K  K7  1  0.51551300  0.67995400  0.31624600  1
  Ge  Ge0  1  0.03641500  0.96358500  0.75000000  1
  Ge  Ge1  1  0.96358500  0.03641500  0.25000000  1
  P  P0  1  0.11344700  0.69510600  0.87391000  1
  P  P1  1  0.30489400  0.88655300  0.62609000  1
  P  P2  1  0.88655300  0.30489400  0.12609000  1
  P  P3  1  0.69510600  0.11344700  0.37391000  1
  P  P4  1  0.08301200  0.21085100  0.61654700  1
  P  P5  1  0.78914900  0.91698800  0.88345300  1
  P  P6  1  0.91698800  0.78914900  0.38345300  1
  P  P7  1  0.21085100  0.08301200  0.11654700  1
  S  S0  1  0.21259000  0.63432500  0.95012100  1
  S  S1  1  0.36567500  0.78741000  0.54987900  1
  S  S2  1  0.78741000  0.36567500  0.04987900  1
  S  S3  1  0.63432500  0.21259000  0.45012100  1
  S  S4  1  0.15017300  0.47153300  0.82912800  1
  S  S5  1  0.52846700  0.84982700  0.67087200  1
  S  S6  1  0.84982700  0.52846700  0.17087200  1
  S  S7  1  0.47153300  0.15017300  0.32912800  1
  S  S8  1  0.10849400  0.76400700  0.67961900  1
  S  S9  1  0.23599300  0.89150600  0.82038100  1
  S  S10  1  0.89150600  0.23599300  0.32038100  1
  S  S11  1  0.76400700  0.10849400  0.17961900  1
  S  S12  1  0.23131500  0.37494900  0.57881800  1
  S  S13  1  0.62505100  0.76868500  0.92118200  1
  S  S14  1  0.76868500  0.62505100  0.42118200  1
  S  S15  1  0.37494900  0.23131500  0.07881800  1
  S  S16  1  0.84552800  0.23821000  0.58116400  1
  S  S17  1  0.76179000  0.15447200  0.91883600  1
  S  S18  1  0.15447200  0.76179000  0.41883600  1
  S  S19  1  0.23821000  0.84552800  0.08116400  1
  S  S20  1  0.01441500  0.26655700  0.70757500  1
  S  S21  1  0.73344300  0.98558500  0.79242500  1
  S  S22  1  0.98558500  0.73344300  0.29242500  1
  S  S23  1  0.26655700  0.01441500  0.20757500  1
loop_
_geom_bond_atom_site_label_1
_geom_bond_atom_site_label_2
_geom_bond_distance
_geom_bond_site_symmetry_2
K0 S12 3.357392 1_655
K0 S5 3.411645 1_555
K0 S1 3.472885 1_555
K0 S3 3.475052 1_565
K0 S18 3.501164 1_655
K0 S14 3.528325 1_555
K0 S16 3.553418 1_565
K1 S13 3.357392 1_545
K1 S4 3.411645 1_555
K1 S0 3.472885 1_555
K1 S2 3.475052 1_456
K1 S19 3.501164 1_546
K1 S15 3.528325 1_556
K1 S17 3.553418 1_455
K2 S14 3.357392 1_455
K2 S7 3.411645 1_555
K2 S3 3.472885 1_555
K2 S1 3.475052 1_545
K2 S16 3.501164 1_455
K2 S12 3.528325 1_555
K2 S18 3.553418 1_545
K3 S15 3.357392 1_565
K3 S6 3.411645 1_555
K3 S2 3.472885 1_555
K3 S0 3.475052 1_654
K3 S17 3.501164 1_564
K3 S13 3.528325 1_554
K3 S19 3.553418 1_655
K4 S13 3.206093 1_555
K4 S17 3.247031 1_555
K4 S9 3.319134 1_555
K4 S4 3.412911 1_655
K4 S20 3.446061 1_655
K4 S21 3.609760 1_555
K5 S12 3.206093 1_555
K5 S16 3.247031 1_555
K5 S8 3.319134 1_555
K5 S5 3.412911 1_545
K5 S21 3.446061 1_545
K5 S20 3.609760 1_555
K6 S15 3.206093 1_555
K6 S19 3.247031 1_555
K6 S11 3.319134 1_555
K6 S6 3.412911 1_455
K6 S22 3.446061 1_455
K6 S23 3.609760 1_555
K7 S14 3.206093 1_555
K7 S18 3.247031 1_555
K7 S10 3.319134 1_555
K7 S7 3.412911 1_565
K7 S23 3.446061 1_565
K7 S22 3.609760 1_555
Ge0 S9 2.247308 1_555
Ge0 S8 2.247308 1_555
Ge0 S21 2.264385 1_455
Ge0 S20 2.264385 1_565
Ge1 S10 2.247308 1_555
Ge1 S11 2.247308 1_555
Ge1 S22 2.264385 1_545
Ge1 S23 2.264385 1_655
P0 S0 1.965486 1_555
P0 S4 1.998845 1_555
P0 S9 2.171484 1_555
P0 P5 2.283734 1_455
P1 S1 1.965486 1_555
P1 S5 1.998845 1_555
P1 S8 2.171484 1_555
P1 P4 2.283734 1_565
P2 S2 1.965486 1_555
P2 S6 1.998845 1_555
P2 S11 2.171484 1_555
P2 P7 2.283734 1_655
P3 S3 1.965486 1_555
P3 S7 1.998845 1_555
P3 S10 2.171484 1_555
P3 P6 2.283734 1_545
P4 S16 1.980119 1_455
P4 S12 1.985960 1_555
P4 S20 2.194980 1_555
P5 S17 1.980119 1_565
P5 S13 1.985960 1_555
P5 S21 2.194980 1_555
P6 S18 1.980119 1_655
P6 S14 1.985960 1_555
P6 S22 2.194980 1_555
P7 S19 1.980119 1_545
P7 S15 1.985960 1_555
P7 S23 2.194980 1_555
