# generated using pymatgen
data_La6Co13Sn
_symmetry_space_group_name_H-M   'P 1'
_cell_length_a   8.05804100
_cell_length_b   8.05804100
_cell_length_c   12.84676963
_cell_angle_alpha   108.27760021
_cell_angle_beta   108.27760021
_cell_angle_gamma   90.00000000
_symmetry_Int_Tables_number   1
_chemical_formula_structural   La6Co13Sn
_chemical_formula_sum   'La12 Co26 Sn2'
_cell_volume   747.63096925
_cell_formula_units_Z   2
loop_
 _symmetry_equiv_pos_site_id
 _symmetry_equiv_pos_as_xyz
  1  'x, y, z'
loop_
 _atom_site_type_symbol
 _atom_site_label
 _atom_site_symmetry_multiplicity
 _atom_site_fract_x
 _atom_site_fract_y
 _atom_site_fract_z
 _atom_site_occupancy
  La  La0  1  0.60036800  0.60036800  0.20073700  1
  La  La1  1  0.10036800  0.10036800  0.20073700  1
  La  La2  1  0.39963200  0.39963200  0.79926300  1
  La  La3  1  0.89963200  0.89963200  0.79926300  1
  La  La4  1  0.98119300  0.48119300  0.63844900  1
  La  La5  1  0.65725600  0.15725600  0.63844900  1
  La  La6  1  0.15725600  0.98119300  0.63844900  1
  La  La7  1  0.48119300  0.65725600  0.63844900  1
  La  La8  1  0.01880700  0.51880700  0.36155100  1
  La  La9  1  0.34274400  0.84274400  0.36155100  1
  La  La10  1  0.84274400  0.01880700  0.36155100  1
  La  La11  1  0.51880700  0.34274400  0.36155100  1
  Co  Co0  1  0.00000000  0.50000000  0.00000000  1
  Co  Co1  1  0.50000000  0.00000000  0.00000000  1
  Co  Co2  1  0.71430900  0.56474600  0.00000000  1
  Co  Co3  1  0.28569100  0.43525400  0.00000000  1
  Co  Co4  1  0.78569100  0.06474600  0.00000000  1
  Co  Co5  1  0.21430900  0.93525400  0.00000000  1
  Co  Co6  1  0.56474600  0.28569100  0.00000000  1
  Co  Co7  1  0.43525400  0.71430900  0.00000000  1
  Co  Co8  1  0.06474600  0.21430900  0.00000000  1
  Co  Co9  1  0.93525400  0.78569100  0.00000000  1
  Co  Co10  1  0.12041300  0.62041300  0.88790600  1
  Co  Co11  1  0.76749300  0.26749300  0.88790600  1
  Co  Co12  1  0.26749300  0.12041300  0.88790600  1
  Co  Co13  1  0.62041300  0.76749300  0.88790600  1
  Co  Co14  1  0.87958700  0.37958700  0.11209400  1
  Co  Co15  1  0.23250700  0.73250700  0.11209400  1
  Co  Co16  1  0.73250700  0.87958700  0.11209400  1
  Co  Co17  1  0.37958700  0.23250700  0.11209400  1
  Co  Co18  1  0.29834400  0.79834400  0.82319900  1
  Co  Co19  1  0.52485500  0.02485500  0.82319900  1
  Co  Co20  1  0.02485500  0.29834400  0.82319900  1
  Co  Co21  1  0.79834400  0.52485500  0.82319900  1
  Co  Co22  1  0.70165600  0.20165600  0.17680100  1
  Co  Co23  1  0.47514500  0.97514500  0.17680100  1
  Co  Co24  1  0.97514500  0.70165600  0.17680100  1
  Co  Co25  1  0.20165600  0.47514500  0.17680100  1
  Sn  Sn0  1  0.25000000  0.25000000  0.50000000  1
  Sn  Sn1  1  0.75000000  0.75000000  0.50000000  1
loop_
_geom_bond_atom_site_label_1
_geom_bond_atom_site_label_2
_geom_bond_distance
_geom_bond_site_symmetry_2
La0 Sn1 3.445731 1_555
La1 Sn0 3.445731 1_555
La2 Sn0 3.445731 1_555
La3 Sn1 3.445731 1_555
La4 Sn0 3.415271 1_655
La4 Sn1 3.415271 1_555
La5 Sn0 3.415271 1_555
La5 Sn1 3.415271 1_545
La6 Sn0 3.415271 1_565
La6 Sn1 3.415271 1_455
La7 Sn1 3.415271 1_555
La7 Sn0 3.415271 1_555
La8 Sn0 3.415271 1_555
La8 Sn1 3.415271 1_455
La9 Sn0 3.415271 1_565
La9 Sn1 3.415271 1_555
La10 Sn1 3.415271 1_545
La10 Sn0 3.415271 1_655
La11 Sn0 3.415271 1_555
La11 Sn1 3.415271 1_555
Co0 Co3 2.360489 1_555
Co0 Co2 2.360489 1_455
Co0 Co8 2.360489 1_555
Co0 Co9 2.360489 1_455
Co0 Co14 2.389460 1_455
Co0 Co10 2.389460 1_554
Co0 Co15 2.389460 1_555
Co0 Co11 2.389460 1_454
Co0 Co24 2.410353 1_455
Co0 Co21 2.410353 1_454
Co0 Co20 2.410353 1_554
Co0 Co25 2.410353 1_555
Co1 Co6 2.360489 1_555
Co1 Co5 2.360489 1_545
Co1 Co7 2.360489 1_545
Co1 Co4 2.360489 1_555
Co1 Co16 2.389460 1_545
Co1 Co17 2.389460 1_555
Co1 Co12 2.389460 1_554
Co1 Co13 2.389460 1_544
Co1 Co19 2.410353 1_554
Co1 Co23 2.410353 1_545
Co1 Co18 2.410353 1_544
Co1 Co22 2.410353 1_555
Co2 Co21 2.495505 1_554
Co2 Co24 2.495505 1_555
Co2 Co9 2.517843 1_555
Co2 Co7 2.551242 1_555
Co2 Co6 2.551242 1_555
Co2 La2 2.931978 1_554
Co2 La0 2.931984 1_555
Co3 Co8 2.517843 1_555
Co3 Co7 2.551242 1_555
Co3 Co6 2.551242 1_555
Co3 La0 2.931978 1_555
Co3 La2 2.931984 1_554
Co4 Co6 2.517843 1_555
Co4 Co8 2.551242 1_655
Co4 Co9 2.551242 1_545
Co4 La1 2.931979 1_655
Co4 La3 2.931983 1_544
Co5 Co7 2.517843 1_555
Co5 Co9 2.551242 1_455
Co5 Co8 2.551242 1_565
Co5 La3 2.931979 1_454
Co5 La1 2.931983 1_565
Co6 La0 2.931979 1_555
Co6 La2 2.931983 1_554
Co7 La2 2.931979 1_554
Co7 La0 2.931983 1_555
Co8 La3 2.931978 1_444
Co8 La1 2.931984 1_555
Co9 La1 2.931978 1_665
Co9 La3 2.931984 1_554
Co10 Co7 2.471354 1_556
Co10 Co5 2.471354 1_556
Co10 Co9 2.493650 1_456
Co10 Co3 2.493650 1_556
Co10 Co20 2.502908 1_555
Co10 Co21 2.502908 1_455
Co10 Co18 2.509505 1_555
Co10 Co15 2.581313 1_556
Co10 La4 2.877005 1_455
Co10 La2 3.140150 1_555
Co10 La3 3.140150 1_455
Co11 Co4 2.471354 1_556
Co11 Co6 2.471354 1_556
Co11 Co2 2.493650 1_556
Co11 Co8 2.493650 1_656
Co11 Co21 2.502908 1_555
Co11 Co20 2.502908 1_655
Co11 Co19 2.509505 1_555
Co11 Co14 2.581313 1_556
Co11 La5 2.877005 1_555
Co11 La3 3.140147 1_545
Co11 La2 3.140147 1_555
Co12 Co8 2.471354 1_556
Co12 Co3 2.471354 1_556
Co12 Co5 2.493650 1_546
Co12 Co6 2.493650 1_556
Co12 Co19 2.502908 1_555
Co12 Co18 2.502908 1_545
Co12 Co20 2.509505 1_555
Co12 Co17 2.581313 1_556
Co12 La6 2.877005 1_545
Co12 La3 3.140143 1_445
Co12 La2 3.140154 1_555
Co13 Co2 2.471354 1_556
Co13 Co9 2.471354 1_556
Co13 Co7 2.493650 1_556
Co13 Co4 2.493650 1_566
Co13 Co19 2.502908 1_565
Co13 Co18 2.502908 1_555
Co13 Co21 2.509505 1_555
Co13 Co16 2.581313 1_556
Co13 La7 2.877005 1_555
Co13 La2 3.140143 1_555
Co13 La3 3.140154 1_555
Co14 Co6 2.471354 1_555
Co14 Co4 2.471354 1_555
Co14 Co2 2.493650 1_555
Co14 Co8 2.493650 1_655
Co14 Co24 2.502908 1_555
Co14 Co25 2.502908 1_655
Co14 Co22 2.509505 1_555
Co14 La8 2.877005 1_655
Co14 La0 3.140150 1_555
Co14 La1 3.140150 1_655
Co15 Co7 2.471354 1_555
Co15 Co5 2.471354 1_555
Co15 Co3 2.493650 1_555
Co15 Co9 2.493650 1_455
Co15 Co24 2.502908 1_455
Co15 Co25 2.502908 1_555
Co15 Co23 2.509505 1_555
Co15 La9 2.877005 1_555
Co15 La1 3.140147 1_565
Co15 La0 3.140147 1_555
Co16 Co9 2.471354 1_555
Co16 Co2 2.471354 1_555
Co16 Co4 2.493650 1_565
Co16 Co7 2.493650 1_555
Co16 Co23 2.502908 1_555
Co16 Co22 2.502908 1_565
Co16 Co24 2.509505 1_555
Co16 La10 2.877005 1_565
Co16 La1 3.140143 1_665
Co16 La0 3.140154 1_555
Co17 Co3 2.471354 1_555
Co17 Co8 2.471354 1_555
Co17 Co6 2.493650 1_555
Co17 Co5 2.493650 1_545
Co17 Co23 2.502908 1_545
Co17 Co22 2.502908 1_555
Co17 Co25 2.509505 1_555
Co17 La11 2.877005 1_555
Co17 La0 3.140143 1_555
Co17 La1 3.140154 1_555
Co18 Co7 2.495505 1_556
Co18 Co5 2.495505 1_556
Co18 Co19 2.581272 1_565
Co18 La7 3.098006 1_555
Co18 La6 3.098006 1_555
Co18 La3 3.258953 1_455
Co18 La2 3.258953 1_555
Co18 La4 3.329618 1_455
Co19 Co6 2.495505 1_556
Co19 Co4 2.495505 1_556
Co19 La6 3.098006 1_545
Co19 La7 3.098006 1_545
Co19 La2 3.258959 1_555
Co19 La3 3.258959 1_545
Co19 La5 3.329618 1_555
Co20 Co8 2.495505 1_556
Co20 Co3 2.495505 1_556
Co20 Co21 2.581272 1_455
Co20 La4 3.098006 1_455
Co20 La5 3.098006 1_455
Co20 La3 3.258951 1_445
Co20 La2 3.258961 1_555
Co20 La6 3.329618 1_545
Co21 Co9 2.495505 1_556
Co21 La4 3.098006 1_555
Co21 La5 3.098006 1_555
Co21 La2 3.258951 1_555
Co21 La3 3.258961 1_555
Co21 La7 3.329618 1_555
Co22 Co6 2.495505 1_555
Co22 Co4 2.495505 1_555
Co22 Co23 2.581272 1_545
Co22 La11 3.098006 1_555
Co22 La10 3.098006 1_555
Co22 La0 3.258953 1_555
Co22 La1 3.258953 1_655
Co22 La8 3.329618 1_655
Co23 Co5 2.495505 1_555
Co23 Co7 2.495505 1_555
Co23 La11 3.098006 1_565
Co23 La10 3.098006 1_565
Co23 La1 3.258959 1_565
Co23 La0 3.258959 1_555
Co23 La9 3.329618 1_555
Co24 Co9 2.495505 1_555
Co24 Co25 2.581272 1_655
Co24 La8 3.098006 1_655
Co24 La9 3.098006 1_655
Co24 La1 3.258951 1_665
Co24 La0 3.258961 1_555
Co24 La10 3.329618 1_565
Co25 Co3 2.495505 1_555
Co25 Co8 2.495505 1_555
Co25 La8 3.098006 1_555
Co25 La9 3.098006 1_555
Co25 La0 3.258951 1_555
Co25 La1 3.258961 1_555
Co25 La11 3.329618 1_555
