# generated using pymatgen
data_Ca8Ti3Mn5O22
_symmetry_space_group_name_H-M   'P 1'
_cell_length_a   7.74028100
_cell_length_b   7.67857200
_cell_length_c   7.95052600
_cell_angle_alpha   90.00000000
_cell_angle_beta   90.00000000
_cell_angle_gamma   90.00000000
_symmetry_Int_Tables_number   1
_chemical_formula_structural   Ca8Ti3Mn5O22
_chemical_formula_sum   'Ca8 Ti3 Mn5 O22'
_cell_volume   472.53398687
_cell_formula_units_Z   1
loop_
 _symmetry_equiv_pos_site_id
 _symmetry_equiv_pos_as_xyz
  1  'x, y, z'
loop_
 _atom_site_type_symbol
 _atom_site_label
 _atom_site_symmetry_multiplicity
 _atom_site_fract_x
 _atom_site_fract_y
 _atom_site_fract_z
 _atom_site_occupancy
  Ca  Ca0  1  0.23353200  0.26864500  0.27285300  1
  Ca  Ca1  1  0.26428000  0.25607000  0.76050300  1
  Ca  Ca2  1  0.23353200  0.73135500  0.27285300  1
  Ca  Ca3  1  0.26428000  0.74393000  0.76050300  1
  Ca  Ca4  1  0.76646800  0.26864500  0.27285300  1
  Ca  Ca5  1  0.73572000  0.25607000  0.76050300  1
  Ca  Ca6  1  0.76646800  0.73135500  0.27285300  1
  Ca  Ca7  1  0.73572000  0.74393000  0.76050300  1
  Ti  Ti0  1  0.00000000  0.00000000  0.98513400  1
  Ti  Ti1  1  0.00000000  0.00000000  0.51092200  1
  Ti  Ti2  1  0.50000000  0.00000000  0.99654400  1
  Mn  Mn0  1  0.00000000  0.50000000  0.03029500  1
  Mn  Mn1  1  0.00000000  0.50000000  0.52437900  1
  Mn  Mn2  1  0.50000000  0.00000000  0.46418900  1
  Mn  Mn3  1  0.50000000  0.50000000  0.99467600  1
  Mn  Mn4  1  0.50000000  0.50000000  0.50718300  1
  O  O0  1  0.00000000  0.00000000  0.74619800  1
  O  O1  1  0.00000000  0.50000000  0.28025100  1
  O  O2  1  0.00000000  0.50000000  0.78003300  1
  O  O3  1  0.50000000  0.00000000  0.21979500  1
  O  O4  1  0.50000000  0.00000000  0.70138300  1
  O  O5  1  0.50000000  0.50000000  0.74653400  1
  O  O6  1  0.25157500  0.00000000  0.94957700  1
  O  O7  1  0.21102100  0.00000000  0.40398900  1
  O  O8  1  0.25920100  0.50000000  0.04849700  1
  O  O9  1  0.25330200  0.50000000  0.50476700  1
  O  O10  1  0.74842500  0.00000000  0.94957700  1
  O  O11  1  0.78897900  0.00000000  0.40398900  1
  O  O12  1  0.74079900  0.50000000  0.04849700  1
  O  O13  1  0.74669800  0.50000000  0.50476700  1
  O  O14  1  0.00000000  0.21212700  0.08922400  1
  O  O15  1  0.00000000  0.25241800  0.52457400  1
  O  O16  1  0.00000000  0.78787300  0.08922400  1
  O  O17  1  0.00000000  0.74758200  0.52457400  1
  O  O18  1  0.50000000  0.25323400  0.97446900  1
  O  O19  1  0.50000000  0.25920700  0.44443200  1
  O  O20  1  0.50000000  0.74676600  0.97446900  1
  O  O21  1  0.50000000  0.74079300  0.44443200  1
loop_
_geom_bond_atom_site_label_1
_geom_bond_atom_site_label_2
_geom_bond_distance
_geom_bond_site_symmetry_2
Ca0 O7 2.317878 1_555
Ca0 O14 2.363728 1_555
Ca0 O19 2.473904 1_555
Ca0 O8 2.525292 1_555
Ca0 O1 2.535105 1_555
Ca0 O9 2.564961 1_555
Ca0 O15 2.699669 1_555
Ca1 O6 2.477002 1_555
Ca1 O18 2.494655 1_555
Ca1 O5 2.617161 1_555
Ca1 O4 2.723237 1_555
Ca1 O9 2.765777 1_555
Ca1 O15 2.775562 1_555
Ca1 O2 2.777922 1_555
Ca1 O0 2.839642 1_555
Ca1 O8 2.958470 1_556
Ca1 O19 3.105534 1_555
Ca2 O7 2.317878 1_565
Ca2 O16 2.363728 1_555
Ca2 O21 2.473904 1_555
Ca2 O8 2.525292 1_555
Ca2 O1 2.535105 1_555
Ca2 O9 2.564961 1_555
Ca2 O17 2.699669 1_555
Ca3 O6 2.477002 1_565
Ca3 O20 2.494655 1_555
Ca3 O5 2.617161 1_555
Ca3 O4 2.723237 1_565
Ca3 O9 2.765777 1_555
Ca3 O17 2.775562 1_555
Ca3 O2 2.777922 1_555
Ca3 O0 2.839642 1_565
Ca3 O8 2.958470 1_556
Ca3 O21 3.105534 1_555
Ca4 O11 2.317878 1_555
Ca4 O14 2.363728 1_655
Ca4 O19 2.473904 1_555
Ca4 O12 2.525292 1_555
Ca4 O1 2.535105 1_655
Ca4 O13 2.564961 1_555
Ca4 O15 2.699669 1_655
Ca5 O10 2.477002 1_555
Ca5 O18 2.494655 1_555
Ca5 O5 2.617161 1_555
Ca5 O4 2.723237 1_555
Ca5 O13 2.765777 1_555
Ca5 O15 2.775562 1_655
Ca5 O2 2.777922 1_655
Ca5 O0 2.839642 1_655
Ca5 O12 2.958470 1_556
Ca5 O19 3.105534 1_555
Ca6 O11 2.317878 1_565
Ca6 O16 2.363728 1_655
Ca6 O21 2.473904 1_555
Ca6 O12 2.525292 1_555
Ca6 O1 2.535105 1_655
Ca6 O13 2.564961 1_555
Ca6 O17 2.699669 1_655
Ca7 O10 2.477002 1_565
Ca7 O20 2.494655 1_555
Ca7 O5 2.617161 1_555
Ca7 O4 2.723237 1_565
Ca7 O13 2.765777 1_555
Ca7 O17 2.775562 1_655
Ca7 O2 2.777922 1_655
Ca7 O0 2.839642 1_665
Ca7 O12 2.958470 1_556
Ca7 O21 3.105534 1_555
Mn0 O1 1.987282 1_555
Mn0 O2 1.989715 1_554
Mn0 O12 2.011501 1_455
Mn0 O8 2.011501 1_555
Mn0 O16 2.259560 1_555
Mn0 O14 2.259560 1_555
Mn1 O17 1.901077 1_555
Mn1 O15 1.901077 1_555
Mn1 O1 1.940946 1_555
Mn1 O9 1.966819 1_555
Mn1 O13 1.966819 1_455
Mn1 O2 2.032584 1_555
Mn2 O4 1.885817 1_555
Mn2 O3 1.943061 1_555
Mn2 O19 1.996528 1_555
Mn2 O21 1.996528 1_545
Mn2 O7 2.287413 1_555
Mn2 O11 2.287413 1_555
Mn3 O20 1.901609 1_555
Mn3 O18 1.901609 1_555
Mn3 O8 1.912341 1_556
Mn3 O12 1.912341 1_556
Mn3 O5 1.972859 1_555
Mn4 O5 1.902966 1_555
Mn4 O13 1.909608 1_555
Mn4 O9 1.909608 1_555
Mn4 O21 1.915074 1_555
Mn4 O19 1.915074 1_555
O0 Ti1 1.870568 1_555
O0 Ti0 1.899667 1_555
O3 Ti2 1.774963 1_554
O4 Ti2 2.346685 1_555
O6 Ti2 1.958801 1_555
O6 Ti0 1.967675 1_555
O7 Ti1 1.841376 1_555
O10 Ti2 1.958801 1_555
O10 Ti0 1.967675 1_655
O11 Ti1 1.841376 1_655
O14 Ti0 1.827011 1_554
O15 Ti1 1.941247 1_555
O16 Ti0 1.827011 1_564
O17 Ti1 1.941247 1_565
O18 Ti2 1.952380 1_555
O20 Ti2 1.952380 1_565
