# generated using pymatgen
data_KLaSiS4
_symmetry_space_group_name_H-M   'P 1'
_cell_length_a   6.64266600
_cell_length_b   6.64393100
_cell_length_c   8.85169323
_cell_angle_alpha   73.25276438
_cell_angle_beta   90.00000000
_cell_angle_gamma   90.00000000
_symmetry_Int_Tables_number   1
_chemical_formula_structural   KLaSiS4
_chemical_formula_sum   'K2 La2 Si2 S8'
_cell_volume   374.08589930
_cell_formula_units_Z   2
loop_
 _symmetry_equiv_pos_site_id
 _symmetry_equiv_pos_as_xyz
  1  'x, y, z'
loop_
 _atom_site_type_symbol
 _atom_site_label
 _atom_site_symmetry_multiplicity
 _atom_site_fract_x
 _atom_site_fract_y
 _atom_site_fract_z
 _atom_site_occupancy
  K  K0  1  0.75000000  0.27333200  0.93376700  1
  K  K1  1  0.25000000  0.72666800  0.06623300  1
  La  La0  1  0.75000000  0.23376100  0.44783000  1
  La  La1  1  0.25000000  0.76623900  0.55217000  1
  Si  Si0  1  0.75000000  0.78465500  0.31731400  1
  Si  Si1  1  0.25000000  0.21534500  0.68268600  1
  S  S0  1  0.50104700  0.00597900  0.72189500  1
  S  S1  1  0.00104700  0.99402100  0.27810500  1
  S  S2  1  0.49895300  0.99402100  0.27810500  1
  S  S3  1  0.99895300  0.00597900  0.72189500  1
  S  S4  1  0.75000000  0.58924600  0.16663300  1
  S  S5  1  0.25000000  0.41075400  0.83336700  1
  S  S6  1  0.75000000  0.60639600  0.56124400  1
  S  S7  1  0.25000000  0.39360400  0.43875600  1
loop_
_geom_bond_atom_site_label_1
_geom_bond_atom_site_label_2
_geom_bond_distance
_geom_bond_site_symmetry_2
K0 S4 3.338790 1_556
K0 S0 3.365553 1_555
K0 S3 3.365553 1_555
K0 S6 3.400708 1_555
K0 S5 3.490996 1_555
K0 S5 3.490996 1_655
K0 S2 3.500736 1_546
K0 S1 3.500736 1_646
K1 S5 3.338790 1_554
K1 S2 3.365553 1_555
K1 S1 3.365553 1_555
K1 S7 3.400708 1_555
K1 S4 3.490996 1_455
K1 S4 3.490996 1_555
K1 S3 3.500736 1_464
K1 S0 3.500736 1_564
La0 S4 2.895814 1_555
La0 S6 2.927384 1_555
La0 S0 2.965541 1_555
La0 S3 2.965541 1_555
La0 S2 2.992350 1_545
La0 S1 2.992350 1_645
La0 S7 3.480856 1_555
La0 S7 3.480856 1_655
La1 S5 2.895814 1_555
La1 S7 2.927384 1_555
La1 S2 2.965541 1_555
La1 S1 2.965541 1_555
La1 S3 2.992350 1_465
La1 S0 2.992350 1_565
La1 S6 3.480856 1_455
La1 S6 3.480856 1_555
S0 Si1 2.134973 1_555
S1 Si0 2.134973 1_455
S2 Si0 2.134973 1_555
S3 Si1 2.134973 1_655
S4 Si0 2.112452 1_555
S5 Si1 2.112452 1_555
S6 Si0 2.142674 1_555
S7 Si1 2.142674 1_555
