# generated using pymatgen
data_Si(H3C)2
_symmetry_space_group_name_H-M   'P 1'
_cell_length_a   10.39184965
_cell_length_b   10.39184965
_cell_length_c   17.36008015
_cell_angle_alpha   67.47203745
_cell_angle_beta   67.47203745
_cell_angle_gamma   66.80024985
_symmetry_Int_Tables_number   1
_chemical_formula_structural   Si(H3C)2
_chemical_formula_sum   'Si14 H84 C28'
_cell_volume   1530.95435129
_cell_formula_units_Z   14
loop_
 _symmetry_equiv_pos_site_id
 _symmetry_equiv_pos_as_xyz
  1  'x, y, z'
loop_
 _atom_site_type_symbol
 _atom_site_label
 _atom_site_symmetry_multiplicity
 _atom_site_fract_x
 _atom_site_fract_y
 _atom_site_fract_z
 _atom_site_occupancy
  Si  Si0  1  0.57371800  0.42628200  0.50000000  1
  Si  Si1  1  0.72012000  0.31257700  0.38355900  1
  Si  Si2  1  0.68742300  0.27988000  0.61644100  1
  Si  Si3  1  0.93618100  0.15222800  0.42374300  1
  Si  Si4  1  0.84777200  0.06381900  0.57625700  1
  Si  Si5  1  0.57828000  0.67396600  0.46058600  1
  Si  Si6  1  0.32603400  0.42172000  0.53941400  1
  Si  Si7  1  0.36692600  0.63307400  0.00000000  1
  Si  Si8  1  0.25289300  0.78004100  0.10098500  1
  Si  Si9  1  0.21995900  0.74710700  0.89901500  1
  Si  Si10  1  0.08960800  0.99547900  0.03737000  1
  Si  Si11  1  0.00452100  0.91039200  0.96263000  1
  Si  Si12  1  0.36653800  0.38477700  0.07541800  1
  Si  Si13  1  0.61522300  0.63346200  0.92458200  1
  H  H0  1  0.81709700  0.39863900  0.22148400  1
  H  H1  1  0.60136100  0.18290300  0.77851600  1
  H  H2  1  0.64494200  0.51765500  0.25989800  1
  H  H3  1  0.48234500  0.35505800  0.74010200  1
  H  H4  1  0.80436200  0.52643400  0.27106900  1
  H  H5  1  0.47356600  0.19563800  0.72893100  1
  H  H6  1  0.52387200  0.25837000  0.35978000  1
  H  H7  1  0.74163000  0.47612800  0.64022000  1
  H  H8  1  0.69903100  0.14670300  0.31893300  1
  H  H9  1  0.85329700  0.30096900  0.68106700  1
  H  H10  1  0.61248300  0.10474400  0.43244400  1
  H  H11  1  0.89525600  0.38751700  0.56755600  1
  H  H12  1  0.16076600  0.17928900  0.43053600  1
  H  H13  1  0.82071100  0.83923400  0.56946400  1
  H  H14  1  0.12665100  0.27948600  0.32773100  1
  H  H15  1  0.72051400  0.87334900  0.67226900  1
  H  H16  1  0.02364400  0.34984600  0.41910300  1
  H  H17  1  0.65015400  0.97635600  0.58089700  1
  H  H18  1  0.07632800  0.04554200  0.29723800  1
  H  H19  1  0.95445800  0.92367200  0.70276200  1
  H  H20  1  0.12192700  0.92141500  0.39330500  1
  H  H21  1  0.07858500  0.87807300  0.60669500  1
  H  H22  1  0.95682900  0.94217600  0.37513800  1
  H  H23  1  0.05782400  0.04317100  0.62486200  1
  H  H24  1  0.76545800  0.80525300  0.39943900  1
  H  H25  1  0.19474700  0.23454200  0.60056100  1
  H  H26  1  0.82470900  0.63389200  0.47257500  1
  H  H27  1  0.36610800  0.17529100  0.52742500  1
  H  H28  1  0.83463000  0.64402100  0.36541600  1
  H  H29  1  0.35597900  0.16537000  0.63458400  1
  H  H30  1  0.37123000  0.81535800  0.39257900  1
  H  H31  1  0.18464200  0.62877000  0.60742100  1
  H  H32  1  0.50671600  0.90683100  0.35195400  1
  H  H33  1  0.09316900  0.49328400  0.64804600  1
  H  H34  1  0.53565900  0.75898800  0.31339800  1
  H  H35  1  0.24101200  0.46434100  0.68660200  1
  H  H36  1  0.53635300  0.69332500  0.60845400  1
  H  H37  1  0.30667500  0.46364700  0.39154600  1
  H  H38  1  0.47663400  0.86655600  0.53731300  1
  H  H39  1  0.13344400  0.52336600  0.46268700  1
  H  H40  1  0.36780300  0.74503800  0.58458800  1
  H  H41  1  0.25496200  0.63219700  0.41541200  1
  H  H42  1  0.19929800  0.58432200  0.23973500  1
  H  H43  1  0.41567800  0.80070200  0.76026500  1
  H  H44  1  0.07989700  0.75796000  0.24953200  1
  H  H45  1  0.24204000  0.92010300  0.75046800  1
  H  H46  1  0.04961800  0.66490900  0.19366400  1
  H  H47  1  0.33509100  0.95038200  0.80633600  1
  H  H48  1  0.33113800  0.88376400  0.17914800  1
  H  H49  1  0.11623600  0.66886200  0.82085200  1
  H  H50  1  0.44960500  0.70874900  0.17137900  1
  H  H51  1  0.29125100  0.55039500  0.82862100  1
  H  H52  1  0.46634200  0.86288900  0.08005400  1
  H  H53  1  0.13711100  0.53365800  0.91994600  1
  H  H54  1  0.10358900  0.23346500  0.92594700  1
  H  H55  1  0.76653500  0.89641100  0.07405300  1
  H  H56  1  0.22413300  0.17973000  0.99019500  1
  H  H57  1  0.82027000  0.77586700  0.00980500  1
  H  H58  1  0.27259000  0.09669500  0.90653200  1
  H  H59  1  0.90330500  0.72741000  0.09346800  1
  H  H60  1  0.97731700  0.12724900  0.15324600  1
  H  H61  1  0.87275100  0.02268300  0.84675400  1
  H  H62  1  0.85080700  0.16611100  0.09622200  1
  H  H63  1  0.83388900  0.14919300  0.90377800  1
  H  H64  1  0.88643500  0.99723300  0.17636800  1
  H  H65  1  0.00276700  0.11356500  0.82363200  1
  H  H66  1  0.44518200  0.19665400  0.20231800  1
  H  H67  1  0.80334600  0.55481800  0.79768200  1
  H  H68  1  0.55565500  0.31693200  0.15204600  1
  H  H69  1  0.68306800  0.44434500  0.84795400  1
  H  H70  1  0.37723000  0.37138600  0.22056900  1
  H  H71  1  0.62861400  0.62277000  0.77943100  1
  H  H72  1  0.48218000  0.14735700  0.03996900  1
  H  H73  1  0.85264300  0.51782000  0.96003100  1
  H  H74  1  0.43809600  0.28880700  0.94742100  1
  H  H75  1  0.71119300  0.56190400  0.05257900  1
  H  H76  1  0.59368300  0.26530300  0.97730700  1
  H  H77  1  0.73469700  0.40631700  0.02269300  1
  H  H78  1  0.12816800  0.39375300  0.06584900  1
  H  H79  1  0.60624700  0.87183200  0.93415100  1
  H  H80  1  0.18132800  0.24888900  0.15465700  1
  H  H81  1  0.75111100  0.81867200  0.84534300  1
  H  H82  1  0.10643300  0.43059800  0.16311300  1
  H  H83  1  0.56940200  0.89356700  0.83688700  1
  C  C0  1  0.75048900  0.45228100  0.27367600  1
  C  C1  1  0.54771900  0.24951100  0.72632400  1
  C  C2  1  0.62946100  0.19423100  0.37345900  1
  C  C3  1  0.80576900  0.37053900  0.62654100  1
  C  C4  1  0.07472800  0.24988100  0.39792400  1
  C  C5  1  0.75011900  0.92527200  0.60207600  1
  C  C6  1  0.03073700  0.00082800  0.36710200  1
  C  C7  1  0.99917200  0.96926300  0.63289800  1
  C  C8  1  0.76946100  0.68971300  0.42083100  1
  C  C9  1  0.31028700  0.23053900  0.57916900  1
  C  C10  1  0.48894200  0.79976300  0.37110700  1
  C  C11  1  0.20023700  0.51105800  0.62889300  1
  C  C12  1  0.48006400  0.75147600  0.55708500  1
  C  C13  1  0.24852400  0.51993600  0.44291500  1
  C  C14  1  0.13410400  0.68735900  0.20553400  1
  C  C15  1  0.31264100  0.86589600  0.79446600  1
  C  C16  1  0.38837100  0.81283700  0.13527400  1
  C  C17  1  0.18716300  0.61162900  0.86472600  1
  C  C18  1  0.18156000  0.13988500  0.95743200  1
  C  C19  1  0.86011500  0.81844000  0.04256800  1
  C  C20  1  0.93638700  0.07875700  0.12433400  1
  C  C21  1  0.92124300  0.06361300  0.87566600  1
  C  C22  1  0.44393600  0.31135600  0.17145900  1
  C  C23  1  0.68864400  0.55606400  0.82854100  1
  C  C24  1  0.48112600  0.26039400  0.00266400  1
  C  C25  1  0.73960600  0.51887400  0.99733600  1
  C  C26  1  0.17733800  0.36306700  0.11867900  1
  C  C27  1  0.63693300  0.82266200  0.88132100  1
loop_
_geom_bond_atom_site_label_1
_geom_bond_atom_site_label_2
_geom_bond_distance
_geom_bond_site_symmetry_2
Si0 Si6 2.411873 1_555
Si0 Si5 2.411873 1_555
Si0 Si2 2.419569 1_555
Si0 Si1 2.419569 1_555
Si7 Si8 2.417437 1_555
Si7 Si9 2.417437 1_554
Si12 Si7 2.405714 1_555
Si13 Si7 2.405714 1_556
C0 H4 1.096827 1_555
C0 H2 1.100549 1_555
C0 H0 1.101473 1_555
C0 Si1 1.903603 1_555
C1 H5 1.096827 1_555
C1 H3 1.100549 1_555
C1 H1 1.101473 1_555
C1 Si2 1.903603 1_555
C2 H10 1.098003 1_555
C2 H6 1.098544 1_555
C2 H8 1.102337 1_555
C2 Si1 1.906697 1_555
C3 H11 1.098003 1_555
C3 H7 1.098544 1_555
C3 H9 1.102337 1_555
C3 Si2 1.906697 1_555
C4 H16 1.097617 1_555
C4 H14 1.100167 1_555
C4 H12 1.100428 1_555
C4 Si3 1.900452 1_455
C5 H17 1.097617 1_555
C5 H15 1.100167 1_555
C5 H13 1.100428 1_555
C5 Si4 1.900452 1_565
C6 H22 1.096543 1_445
C6 H20 1.101126 1_545
C6 H18 1.101209 1_555
C6 Si3 1.906514 1_455
C7 H23 1.096543 1_665
C7 H21 1.101126 1_655
C7 H19 1.101209 1_555
C7 Si4 1.906514 1_565
C8 H26 1.098423 1_555
C8 H28 1.098636 1_555
C8 H24 1.100944 1_555
C8 Si5 1.889207 1_555
C9 H27 1.098423 1_555
C9 H29 1.098636 1_555
C9 H25 1.100944 1_555
C9 Si6 1.889207 1_555
C10 H30 1.096469 1_555
C10 H34 1.099739 1_555
C10 H32 1.101818 1_555
C10 Si5 1.891190 1_555
C11 H31 1.096469 1_555
C11 H35 1.099739 1_555
C11 H33 1.101818 1_555
C11 Si6 1.891190 1_555
C12 H40 1.097086 1_555
C12 H38 1.100227 1_555
C12 H36 1.100395 1_555
C12 Si5 1.890231 1_555
C13 H41 1.097086 1_555
C13 H39 1.100227 1_555
C13 H37 1.100395 1_555
C13 Si6 1.890231 1_555
C14 H46 1.097525 1_555
C14 H42 1.098884 1_555
C14 H44 1.101406 1_555
C14 Si8 1.904218 1_555
C15 H47 1.097525 1_555
C15 H43 1.098884 1_555
C15 H45 1.101406 1_555
C15 Si9 1.904218 1_555
C16 H52 1.095815 1_555
C16 H50 1.100728 1_555
C16 H48 1.102174 1_555
C16 Si8 1.904792 1_555
C17 H53 1.095815 1_555
C17 H51 1.100728 1_555
C17 H49 1.102174 1_555
C17 Si9 1.904792 1_555
C18 H58 1.098168 1_555
C18 H56 1.099218 1_555
C18 H54 1.101012 1_555
C18 Si10 1.899664 1_546
C19 H59 1.098168 1_555
C19 H57 1.099218 1_555
C19 H55 1.101012 1_555
C19 Si11 1.899664 1_654
C20 H64 1.097237 1_545
C20 H62 1.100080 1_555
C20 H60 1.101378 1_555
C20 Si10 1.907068 1_645
C21 H65 1.097237 1_655
C21 H63 1.100080 1_555
C21 H61 1.101378 1_555
C21 Si11 1.907068 1_645
C22 H68 1.096817 1_555
C22 H70 1.100228 1_555
C22 H66 1.100814 1_555
C22 Si12 1.891606 1_555
C23 H69 1.096817 1_555
C23 H71 1.100228 1_555
C23 H67 1.100814 1_555
C23 Si13 1.891606 1_555
C24 H76 1.095344 1_554
C24 H72 1.100789 1_555
C24 H74 1.102025 1_554
C24 Si12 1.889376 1_555
C25 H77 1.095344 1_556
C25 H73 1.100789 1_555
C25 H75 1.102025 1_556
C25 Si13 1.889376 1_555
C26 H82 1.096497 1_555
C26 H78 1.100237 1_555
C26 H80 1.101304 1_555
C26 Si12 1.889126 1_555
C27 H83 1.096497 1_555
C27 H79 1.100237 1_555
C27 H81 1.101304 1_555
C27 Si13 1.889126 1_555
