# generated using pymatgen
data_LiLu2W2(ClO4)2
_symmetry_space_group_name_H-M   'P 1'
_cell_length_a   5.99103827
_cell_length_b   6.60960846
_cell_length_c   7.16114657
_cell_angle_alpha   73.76989339
_cell_angle_beta   78.33265144
_cell_angle_gamma   69.56921022
_symmetry_Int_Tables_number   1
_chemical_formula_structural   LiLu2W2(ClO4)2
_chemical_formula_sum   'Li1 Lu2 W2 Cl2 O8'
_cell_volume   253.40960184
_cell_formula_units_Z   1
loop_
 _symmetry_equiv_pos_site_id
 _symmetry_equiv_pos_as_xyz
  1  'x, y, z'
loop_
 _atom_site_type_symbol
 _atom_site_label
 _atom_site_symmetry_multiplicity
 _atom_site_fract_x
 _atom_site_fract_y
 _atom_site_fract_z
 _atom_site_occupancy
  Li  Li0  1  0.25309700  0.75114100  0.05966800  1
  Lu  Lu0  1  0.25842400  0.21971100  0.85757300  1
  Lu  Lu1  1  0.74421300  0.77299800  0.14646200  1
  W  W0  1  0.38685600  0.32311800  0.27965000  1
  W  W1  1  0.63045500  0.64889100  0.72379200  1
  Cl  Cl0  1  0.00322900  0.03497600  0.22031300  1
  Cl  Cl1  1  0.99487300  0.96251300  0.79671000  1
  O  O0  1  0.35336600  0.25123900  0.54768500  1
  O  O1  1  0.65608100  0.75483300  0.46229800  1
  O  O2  1  0.43093000  0.48381200  0.79261200  1
  O  O3  1  0.54113400  0.55033800  0.18982900  1
  O  O4  1  0.91885700  0.47956300  0.80175200  1
  O  O5  1  0.09397700  0.52625300  0.18106800  1
  O  O6  1  0.47990400  0.12043600  0.11371400  1
  O  O7  1  0.51502200  0.87017700  0.86391000  1
loop_
_geom_bond_atom_site_label_1
_geom_bond_atom_site_label_2
_geom_bond_distance
_geom_bond_site_symmetry_2
Li0 O5 1.950831 1_555
Li0 O3 1.992040 1_555
Li0 O7 2.098165 1_554
Lu0 O0 2.146001 1_555
Lu0 O4 2.180375 1_455
Lu0 O2 2.223235 1_555
Lu0 O7 2.278771 1_545
Lu0 O6 2.293355 1_556
Lu1 O3 2.141108 1_555
Lu1 O5 2.170330 1_655
Lu1 O1 2.195031 1_555
Lu1 O6 2.268575 1_565
Lu1 O7 2.484664 1_554
Cl0 Li0 2.373412 1_545
Cl0 Lu1 2.899276 1_445
Cl0 Lu0 2.915495 1_554
Cl1 Li0 2.467764 1_656
Cl1 Lu1 2.852300 1_556
Cl1 Lu0 2.852968 1_665
O0 W0 1.830641 1_555
O1 W1 1.801753 1_555
O2 W1 1.798334 1_555
O3 W0 1.926711 1_555
O4 W1 1.800130 1_555
O5 W0 1.925170 1_555
O6 W0 1.902107 1_555
O7 W1 1.859532 1_555
