# generated using pymatgen
data_Li9Fe4(PO5)4
_symmetry_space_group_name_H-M   'P 1'
_cell_length_a   4.91327400
_cell_length_b   5.64028029
_cell_length_c   15.97465330
_cell_angle_alpha   89.64614159
_cell_angle_beta   89.95973247
_cell_angle_gamma   89.74631541
_symmetry_Int_Tables_number   1
_chemical_formula_structural   Li9Fe4(PO5)4
_chemical_formula_sum   'Li9 Fe4 P4 O20'
_cell_volume   442.68058293
_cell_formula_units_Z   1
loop_
 _symmetry_equiv_pos_site_id
 _symmetry_equiv_pos_as_xyz
  1  'x, y, z'
loop_
 _atom_site_type_symbol
 _atom_site_label
 _atom_site_symmetry_multiplicity
 _atom_site_fract_x
 _atom_site_fract_y
 _atom_site_fract_z
 _atom_site_occupancy
  Li  Li0  1  0.99615400  0.64583900  0.59562300  1
  Li  Li1  1  0.00745900  0.15342200  0.90132800  1
  Li  Li2  1  0.00158200  0.17125400  0.50068600  1
  Li  Li3  1  0.50370100  0.32097500  0.79944500  1
  Li  Li4  1  0.50332400  0.33174200  0.41098100  1
  Li  Li5  1  0.49696500  0.83791200  0.09340800  1
  Li  Li6  1  0.50340000  0.34204600  0.98841600  1
  Li  Li7  1  0.49510400  0.83901400  0.51146400  1
  Li  Li8  1  0.00018700  0.68151300  0.19561500  1
  Fe  Fe0  1  0.02231200  0.15029000  0.70185700  1
  Fe  Fe1  1  0.00856800  0.66137600  0.79635100  1
  Fe  Fe2  1  0.50803400  0.33952800  0.20077300  1
  Fe  Fe3  1  0.50505400  0.84033600  0.30082300  1
  P  P0  1  0.01983600  0.17622800  0.09947400  1
  P  P1  1  0.00995700  0.66542100  0.40391000  1
  P  P2  1  0.50590700  0.33255800  0.59429700  1
  P  P3  1  0.49824900  0.82705000  0.90435800  1
  O  O0  1  0.12674100  0.35715900  0.16807800  1
  O  O1  1  0.12467900  0.76116200  0.31717100  1
  O  O2  1  0.10485500  0.34224100  0.80332500  1
  O  O3  1  0.05218400  0.80819600  0.69494400  1
  O  O4  1  0.09738600  0.40854000  0.41521000  1
  O  O5  1  0.12039200  0.92919300  0.12459300  1
  O  O6  1  0.11095700  0.25870400  0.01351100  1
  O  O7  1  0.10046500  0.82889400  0.47538000  1
  O  O8  1  0.18522600  0.32625000  0.59614400  1
  O  O9  1  0.18476200  0.84191000  0.88508500  1
  O  O10  1  0.60955300  0.24141300  0.68059600  1
  O  O11  1  0.62472300  0.67083900  0.83283800  1
  O  O12  1  0.55337900  0.16688200  0.29944300  1
  O  O13  1  0.60113300  0.66550600  0.20423300  1
  O  O14  1  0.60929100  0.58309400  0.57544800  1
  O  O15  1  0.60885900  0.08482100  0.90231900  1
  O  O16  1  0.60021300  0.16750300  0.52052200  1
  O  O17  1  0.54655600  0.69766600  0.98805600  1
  O  O18  1  0.69479400  0.18869100  0.10653600  1
  O  O19  1  0.68716800  0.68311400  0.39423400  1
loop_
_geom_bond_atom_site_label_1
_geom_bond_atom_site_label_2
_geom_bond_distance
_geom_bond_site_symmetry_2
Li0 O3 1.858094 1_655
Li0 O14 1.962204 1_555
Li0 O8 2.024179 1_655
Li0 O7 2.235423 1_655
Li1 O2 1.948604 1_555
Li1 O6 1.959560 1_556
Li1 O9 1.976125 1_545
Li1 O15 1.998001 1_455
Li2 O4 1.964518 1_555
Li2 O8 1.982202 1_555
Li2 O16 1.997296 1_455
Li2 O7 2.032069 1_545
Li3 O2 1.963735 1_555
Li3 O10 2.020768 1_555
Li3 O11 2.134479 1_555
Li3 O15 2.170220 1_555
Li4 O12 2.029208 1_555
Li4 O16 2.030781 1_555
Li4 O4 2.040266 1_555
Li4 O19 2.196388 1_555
Li5 O17 1.879258 1_554
Li5 O5 1.982409 1_555
Li5 O13 2.077842 1_555
Li5 O18 2.219372 1_565
Li6 O17 2.017879 1_555
Li6 O6 2.025874 1_556
Li6 O15 2.069297 1_555
Li6 O18 2.273342 1_556
Li7 O14 1.848913 1_555
Li7 O16 1.931912 1_565
Li7 O7 2.024374 1_555
Li7 O19 2.276236 1_555
Li8 O5 1.890600 1_555
Li8 O13 1.967824 1_455
Li8 O0 1.981539 1_555
Li8 O1 2.088414 1_555
Fe0 O3 1.938255 1_545
Fe0 O2 1.997619 1_555
Fe0 O8 2.112327 1_555
Fe0 O10 2.117042 1_455
Fe1 O3 1.827678 1_555
Fe1 O2 1.861804 1_555
Fe1 O9 1.955231 1_555
Fe1 O11 1.974154 1_455
Fe2 O12 1.860631 1_555
Fe2 O13 1.897763 1_555
Fe2 O0 1.947146 1_555
Fe2 O18 1.959336 1_555
Fe3 O12 1.858088 1_565
Fe3 O13 1.894647 1_555
Fe3 O1 1.940521 1_555
Fe3 O19 1.947354 1_555
O0 P0 1.593027 1_555
O1 P1 1.587965 1_555
O4 P1 1.519122 1_555
O5 P0 1.527678 1_565
O6 P0 1.515152 1_555
O7 P1 1.539071 1_555
O8 P2 1.576404 1_555
O9 P3 1.572699 1_555
O10 P2 1.553722 1_555
O11 P3 1.573004 1_555
O14 P2 1.531796 1_555
O15 P3 1.554548 1_545
O16 P2 1.574570 1_555
O17 P3 1.537348 1_555
O18 P0 1.602184 1_655
O19 P1 1.596197 1_655
