# generated using pymatgen
data_CsV3B2P4(H4O11)2
_symmetry_space_group_name_H-M   'P 1'
_cell_length_a   10.54751473
_cell_length_b   10.54751473
_cell_length_c   5.13093772
_cell_angle_alpha   80.72800578
_cell_angle_beta   80.72800578
_cell_angle_gamma   125.37907931
_symmetry_Int_Tables_number   1
_chemical_formula_structural   CsV3B2P4(H4O11)2
_chemical_formula_sum   'Cs1 V3 B2 P4 H8 O22'
_cell_volume   435.76831082
_cell_formula_units_Z   1
loop_
 _symmetry_equiv_pos_site_id
 _symmetry_equiv_pos_as_xyz
  1  'x, y, z'
loop_
 _atom_site_type_symbol
 _atom_site_label
 _atom_site_symmetry_multiplicity
 _atom_site_fract_x
 _atom_site_fract_y
 _atom_site_fract_z
 _atom_site_occupancy
  Cs  Cs0  1  0.00000000  0.00000000  0.50000000  1
  V  V0  1  0.00000000  0.50000000  0.50000000  1
  V  V1  1  0.50000000  0.00000000  0.50000000  1
  V  V2  1  0.50000000  0.50000000  0.00000000  1
  B  B0  1  0.83426600  0.16573400  0.00000000  1
  B  B1  1  0.16573400  0.83426600  0.00000000  1
  P  P0  1  0.14527000  0.42463800  0.97796500  1
  P  P1  1  0.42463800  0.14527000  0.97796500  1
  P  P2  1  0.85473000  0.57536200  0.02203500  1
  P  P3  1  0.57536200  0.85473000  0.02203500  1
  H  H0  1  0.72307800  0.21982200  0.75806800  1
  H  H1  1  0.21982200  0.72307800  0.75806800  1
  H  H2  1  0.27692200  0.78017800  0.24193200  1
  H  H3  1  0.78017800  0.27692200  0.24193200  1
  H  H4  1  0.31555500  0.39754900  0.53215800  1
  H  H5  1  0.39754900  0.31555500  0.53215800  1
  H  H6  1  0.68444500  0.60245100  0.46784200  1
  H  H7  1  0.60245100  0.68444500  0.46784200  1
  O  O0  1  0.83805100  0.26197600  0.74935000  1
  O  O1  1  0.26197600  0.83805100  0.74935000  1
  O  O2  1  0.16194900  0.73802400  0.25065000  1
  O  O3  1  0.73802400  0.16194900  0.25065000  1
  O  O4  1  0.00552700  0.24145400  0.99364200  1
  O  O5  1  0.24145400  0.00552700  0.99364200  1
  O  O6  1  0.99447300  0.75854600  0.00635800  1
  O  O7  1  0.75854600  0.99447300  0.00635800  1
  O  O8  1  0.87795500  0.55691300  0.73129100  1
  O  O9  1  0.55691300  0.87795500  0.73129100  1
  O  O10  1  0.12204500  0.44308700  0.26870900  1
  O  O11  1  0.44308700  0.12204500  0.26870900  1
  O  O12  1  0.14043800  0.54104000  0.76270900  1
  O  O13  1  0.54104000  0.14043800  0.76270900  1
  O  O14  1  0.85956200  0.45896000  0.23729100  1
  O  O15  1  0.45896000  0.85956200  0.23729100  1
  O  O16  1  0.30852700  0.45369100  0.87475200  1
  O  O17  1  0.45369100  0.30852700  0.87475200  1
  O  O18  1  0.69147300  0.54630900  0.12524800  1
  O  O19  1  0.54630900  0.69147300  0.12524800  1
  O  O20  1  0.34639900  0.34639900  0.41823000  1
  O  O21  1  0.65360100  0.65360100  0.58177000  1
loop_
_geom_bond_atom_site_label_1
_geom_bond_atom_site_label_2
_geom_bond_distance
_geom_bond_site_symmetry_2
Cs0 O20 3.229320 1_555
Cs0 O21 3.229320 1_445
Cs0 O6 3.299464 1_446
Cs0 O4 3.299464 1_554
Cs0 O5 3.299464 1_554
Cs0 O7 3.299464 1_446
B0 O3 1.483867 1_555
B0 O0 1.483867 1_554
B0 O7 1.484574 1_545
B0 O4 1.484574 1_654
B1 O2 1.483867 1_555
B1 O1 1.483867 1_554
B1 O6 1.484574 1_455
B1 O5 1.484574 1_564
H0 O0 1.010958 1_555
H0 O13 1.582862 1_555
H1 O1 1.010958 1_555
H1 O12 1.582862 1_555
H2 O2 1.010958 1_555
H2 O15 1.582862 1_555
H3 O3 1.010958 1_555
H3 O14 1.582862 1_555
H4 O20 0.991059 1_555
H5 O20 0.991059 1_555
H6 O21 0.991059 1_555
H7 O21 0.991059 1_555
O0 V0 2.037753 1_655
O1 V1 2.037753 1_565
O2 V0 2.037753 1_555
O3 V1 2.037753 1_555
O4 P0 1.589375 1_555
O5 P1 1.589375 1_555
O6 P2 1.589375 1_555
O7 P3 1.589375 1_555
O8 P2 1.534370 1_556
O8 V0 2.014413 1_655
O9 P3 1.534370 1_556
O9 V1 2.014413 1_565
O10 P0 1.534370 1_554
O10 V0 2.014413 1_555
O11 P1 1.534370 1_554
O11 V1 2.014413 1_555
O12 P0 1.543842 1_555
O12 V0 2.070615 1_555
O13 P1 1.543842 1_555
O13 V1 2.070615 1_555
O14 P2 1.543842 1_555
O14 V0 2.070615 1_655
O15 P3 1.543842 1_555
O15 V1 2.070615 1_565
O16 P0 1.543474 1_555
O16 V2 2.026649 1_556
O17 P1 1.543474 1_555
O17 V2 2.026649 1_556
O18 P2 1.543474 1_555
O18 V2 2.026649 1_555
O19 P3 1.543474 1_555
O19 V2 2.026649 1_555
O20 V2 2.138794 1_555
O21 V2 2.138794 1_556
