# generated using pymatgen
data_Li9Mn2Co5O16
_symmetry_space_group_name_H-M   'P 1'
_cell_length_a   5.09175171
_cell_length_b   7.76347861
_cell_length_c   7.76347810
_cell_angle_alpha   95.92479007
_cell_angle_beta   75.81446069
_cell_angle_gamma   75.81446525
_symmetry_Int_Tables_number   1
_chemical_formula_structural   Li9Mn2Co5O16
_chemical_formula_sum   'Li9 Mn2 Co5 O16'
_cell_volume   284.07211375
_cell_formula_units_Z   1
loop_
 _symmetry_equiv_pos_site_id
 _symmetry_equiv_pos_as_xyz
  1  'x, y, z'
loop_
 _atom_site_type_symbol
 _atom_site_label
 _atom_site_symmetry_multiplicity
 _atom_site_fract_x
 _atom_site_fract_y
 _atom_site_fract_z
 _atom_site_occupancy
  Li  Li0  1  0.98335100  0.13945500  0.38945500  1
  Li  Li1  1  0.01664900  0.61054500  0.86054500  1
  Li  Li2  1  0.50106500  0.01317100  0.51123600  1
  Li  Li3  1  0.49893500  0.48876400  0.98682900  1
  Li  Li4  1  0.00000000  0.87500000  0.62500000  1
  Li  Li5  1  0.00000000  0.37500000  0.12500000  1
  Li  Li6  1  0.49893500  0.73682900  0.73876400  1
  Li  Li7  1  0.50106500  0.26123600  0.26317100  1
  Li  Li8  1  0.50000000  0.37500000  0.62500000  1
  Mn  Mn0  1  0.00000000  0.00191800  0.99808200  1
  Mn  Mn1  1  0.00000000  0.74808200  0.25191800  1
  Co  Co0  1  0.00000000  0.49606800  0.50393200  1
  Co  Co1  1  0.50000000  0.87500000  0.12500000  1
  Co  Co2  1  0.00000000  0.25393200  0.74606800  1
  Co  Co3  1  0.50000000  0.62260100  0.37739900  1
  Co  Co4  1  0.50000000  0.12739900  0.87260100  1
  O  O0  1  0.75287800  0.98333500  0.23333500  1
  O  O1  1  0.77237300  0.49837300  0.74837300  1
  O  O2  1  0.25291800  0.85554400  0.35067000  1
  O  O3  1  0.25684700  0.35247900  0.87265500  1
  O  O4  1  0.76955100  0.75103700  0.48502400  1
  O  O5  1  0.76955100  0.23502400  0.00103700  1
  O  O6  1  0.25684700  0.62265500  0.60247900  1
  O  O7  1  0.25291800  0.10067000  0.10554400  1
  O  O8  1  0.22762700  0.25162700  0.50162700  1
  O  O9  1  0.24712200  0.76666500  0.01666500  1
  O  O10  1  0.74315300  0.12734500  0.64752100  1
  O  O11  1  0.74708200  0.64933000  0.14445600  1
  O  O12  1  0.23044900  0.99896300  0.76497600  1
  O  O13  1  0.23044900  0.51497600  0.24896300  1
  O  O14  1  0.74708200  0.89445600  0.89933000  1
  O  O15  1  0.74315300  0.39752100  0.37734500  1
loop_
_geom_bond_atom_site_label_1
_geom_bond_atom_site_label_2
_geom_bond_distance
_geom_bond_site_symmetry_2
Li0 O8 1.992225 1_655
Li0 O10 2.100687 1_555
Li0 O15 2.100687 1_555
Li0 O7 2.238406 1_655
Li0 O2 2.238406 1_645
Li0 O0 2.325114 1_545
Li1 O1 1.992225 1_455
Li1 O6 2.100687 1_555
Li1 O3 2.100687 1_555
Li1 O11 2.238406 1_456
Li1 O14 2.238406 1_455
Li1 O9 2.325114 1_556
Li2 O8 2.046281 1_555
Li2 O10 2.098976 1_555
Li2 O4 2.113382 1_545
Li2 O12 2.140165 1_545
Li2 O0 2.178940 1_545
Li2 O2 2.421305 1_545
Li3 O1 2.046281 1_555
Li3 O3 2.098976 1_555
Li3 O13 2.113382 1_556
Li3 O5 2.140165 1_556
Li3 O9 2.178941 1_556
Li3 O11 2.421305 1_556
Li4 O10 2.034788 1_465
Li4 O6 2.034788 1_555
Li4 O12 2.108668 1_555
Li4 O4 2.108668 1_455
Li4 O2 2.170502 1_555
Li4 O14 2.170502 1_455
Li5 O3 2.034788 1_554
Li5 O15 2.034788 1_455
Li5 O13 2.108668 1_555
Li5 O5 2.108668 1_455
Li5 O7 2.170502 1_555
Li5 O11 2.170502 1_455
Li6 O1 2.046281 1_555
Li6 O6 2.098976 1_555
Li6 O12 2.113382 1_555
Li6 O4 2.140165 1_555
Li6 O9 2.178940 1_556
Li6 O14 2.421305 1_555
Li7 O8 2.046281 1_555
Li7 O15 2.098976 1_555
Li7 O5 2.113382 1_555
Li7 O13 2.140165 1_555
Li7 O0 2.178941 1_545
Li7 O7 2.421305 1_555
Li8 O15 2.066116 1_555
Li8 O3 2.066116 1_555
Li8 O6 2.066116 1_555
Li8 O10 2.066116 1_555
Li8 O1 2.207001 1_555
Li8 O8 2.207001 1_555
Mn0 O12 1.894699 1_545
Mn0 O5 1.894700 1_456
Mn0 O7 1.954646 1_556
Mn0 O14 1.954646 1_445
Mn0 O0 1.989163 1_446
Mn0 O9 1.989163 1_546
Mn1 O4 1.894699 1_455
Mn1 O13 1.894700 1_555
Mn1 O11 1.954646 1_455
Mn1 O2 1.954646 1_555
Mn1 O9 1.989163 1_555
Mn1 O0 1.989163 1_455
Co0 O1 1.962080 1_455
Co0 O8 1.962081 1_555
Co0 O15 2.055867 1_455
Co0 O6 2.055867 1_555
Co0 O13 2.079089 1_555
Co0 O4 2.079089 1_455
Co1 O14 1.934553 1_554
Co1 O2 1.934553 1_555
Co1 O11 1.934553 1_555
Co1 O7 1.934553 1_565
Co1 O0 1.997038 1_555
Co1 O9 1.997038 1_555
Co2 O8 1.962080 1_555
Co2 O1 1.962081 1_455
Co2 O3 2.055867 1_555
Co2 O10 2.055867 1_455
Co2 O5 2.079089 1_456
Co2 O12 2.079089 1_545
Co3 O6 1.877631 1_555
Co3 O15 1.877631 1_555
Co3 O11 1.996652 1_555
Co3 O2 1.996652 1_555
Co3 O13 2.153345 1_555
Co3 O4 2.153345 1_555
Co4 O10 1.877631 1_555
Co4 O3 1.877631 1_555
Co4 O7 1.996652 1_556
Co4 O14 1.996652 1_545
Co4 O5 2.153345 1_556
Co4 O12 2.153345 1_545
