# generated using pymatgen
data_Li2(CoO2)3
_symmetry_space_group_name_H-M   'P 1'
_cell_length_a   5.09742785
_cell_length_b   5.09742785
_cell_length_c   10.20613600
_cell_angle_alpha   90.00000000
_cell_angle_beta   90.00000000
_cell_angle_gamma   119.19008521
_symmetry_Int_Tables_number   1
_chemical_formula_structural   Li2(CoO2)3
_chemical_formula_sum   'Li4 Co6 O12'
_cell_volume   231.51599269
_cell_formula_units_Z   2
loop_
 _symmetry_equiv_pos_site_id
 _symmetry_equiv_pos_as_xyz
  1  'x, y, z'
loop_
 _atom_site_type_symbol
 _atom_site_label
 _atom_site_symmetry_multiplicity
 _atom_site_fract_x
 _atom_site_fract_y
 _atom_site_fract_z
 _atom_site_occupancy
  Li  Li0  1  0.15368500  0.65368500  0.75000000  1
  Li  Li1  1  0.34631500  0.84631500  0.25000000  1
  Li  Li2  1  0.65368500  0.15368500  0.75000000  1
  Li  Li3  1  0.84631500  0.34631500  0.25000000  1
  Co  Co0  1  0.00000000  0.00000000  0.00000000  1
  Co  Co1  1  0.50000000  0.50000000  0.50000000  1
  Co  Co2  1  0.33243600  0.66756400  0.00000000  1
  Co  Co3  1  0.83243600  0.16756400  0.50000000  1
  Co  Co4  1  0.16756400  0.83243600  0.50000000  1
  Co  Co5  1  0.66756400  0.33243600  0.00000000  1
  O  O0  1  0.16767100  0.16767100  0.59163300  1
  O  O1  1  0.33232900  0.33232900  0.09163300  1
  O  O2  1  0.66767100  0.66767100  0.90836700  1
  O  O3  1  0.97408000  0.33136600  0.89086500  1
  O  O4  1  0.83232900  0.83232900  0.40836700  1
  O  O5  1  0.16863400  0.52592000  0.39086500  1
  O  O6  1  0.47408000  0.83136600  0.60913500  1
  O  O7  1  0.66863400  0.02592000  0.10913500  1
  O  O8  1  0.02592000  0.66863400  0.10913500  1
  O  O9  1  0.33136600  0.97408000  0.89086500  1
  O  O10  1  0.52592000  0.16863400  0.39086500  1
  O  O11  1  0.83136600  0.47408000  0.60913500  1
loop_
_geom_bond_atom_site_label_1
_geom_bond_atom_site_label_2
_geom_bond_distance
_geom_bond_site_symmetry_2
Li0 O6 2.027741 1_555
Li0 O9 2.027741 1_555
Li0 O3 2.034046 1_455
Li0 O11 2.034046 1_455
Li1 O8 2.027741 1_555
Li1 O5 2.027741 1_555
Li1 O7 2.034046 1_565
Li1 O10 2.034046 1_565
Li2 O11 2.027741 1_555
Li2 O3 2.027741 1_555
Li2 O6 2.034046 1_545
Li2 O9 2.034046 1_545
Li3 O10 2.027741 1_555
Li3 O7 2.027741 1_555
Li3 O8 2.034046 1_655
Li3 O5 2.034046 1_655
Co0 O2 1.953175 1_444
Co0 O1 1.953175 1_555
Co0 O8 2.080603 1_545
Co0 O9 2.080603 1_544
Co0 O3 2.080603 1_454
Co0 O7 2.080603 1_455
Co1 O0 1.953175 1_555
Co1 O4 1.953175 1_555
Co1 O10 2.080603 1_555
Co1 O11 2.080603 1_555
Co1 O5 2.080603 1_555
Co1 O6 2.080603 1_555
Co2 O9 1.920996 1_554
Co2 O8 1.920996 1_555
Co2 O2 1.947780 1_554
Co2 O1 1.947780 1_555
Co2 O7 2.112074 1_565
Co2 O3 2.112074 1_454
Co3 O10 1.920996 1_555
Co3 O11 1.920996 1_555
Co3 O0 1.947780 1_655
Co3 O4 1.947780 1_545
Co3 O6 2.112074 1_545
Co3 O5 2.112074 1_655
Co4 O5 1.920996 1_555
Co4 O6 1.920996 1_555
Co4 O0 1.947780 1_565
Co4 O4 1.947780 1_455
Co4 O11 2.112074 1_455
Co4 O10 2.112074 1_565
Co5 O3 1.920996 1_554
Co5 O7 1.920996 1_555
Co5 O2 1.947780 1_554
Co5 O1 1.947780 1_555
Co5 O8 2.112074 1_655
Co5 O9 2.112074 1_544
