# generated using pymatgen
data_CeCu6(PO7)3
_symmetry_space_group_name_H-M   'P 1'
_cell_length_a   5.76926500
_cell_length_b   13.09070400
_cell_length_c   13.12293819
_cell_angle_alpha   60.44304721
_cell_angle_beta   90.00000000
_cell_angle_gamma   90.00000000
_symmetry_Int_Tables_number   1
_chemical_formula_structural   CeCu6(PO7)3
_chemical_formula_sum   'Ce2 Cu12 P6 O42'
_cell_volume   862.11822394
_cell_formula_units_Z   2
loop_
 _symmetry_equiv_pos_site_id
 _symmetry_equiv_pos_as_xyz
  1  'x, y, z'
loop_
 _atom_site_type_symbol
 _atom_site_label
 _atom_site_symmetry_multiplicity
 _atom_site_fract_x
 _atom_site_fract_y
 _atom_site_fract_z
 _atom_site_occupancy
  Ce  Ce0  1  0.25000000  0.33285400  0.33406100  1
  Ce  Ce1  1  0.75000000  0.66714600  0.66593900  1
  Cu  Cu0  1  0.50214600  0.30995000  0.59557400  1
  Cu  Cu1  1  0.50230600  0.09427200  0.31005900  1
  Cu  Cu2  1  0.50194900  0.59519700  0.09466800  1
  Cu  Cu3  1  0.00214600  0.69005000  0.40442600  1
  Cu  Cu4  1  0.00230600  0.90572800  0.68994100  1
  Cu  Cu5  1  0.00194900  0.40480300  0.90533200  1
  Cu  Cu6  1  0.49785400  0.69005000  0.40442600  1
  Cu  Cu7  1  0.49769400  0.90572800  0.68994100  1
  Cu  Cu8  1  0.49805100  0.40480300  0.90533200  1
  Cu  Cu9  1  0.99785400  0.30995000  0.59557400  1
  Cu  Cu10  1  0.99769400  0.09427200  0.31005900  1
  Cu  Cu11  1  0.99805100  0.59519700  0.09466800  1
  P  P0  1  0.75000000  0.50992500  0.33947500  1
  P  P1  1  0.75000000  0.14919700  0.51027200  1
  P  P2  1  0.75000000  0.33929700  0.14990300  1
  P  P3  1  0.25000000  0.49007500  0.66052500  1
  P  P4  1  0.25000000  0.85080300  0.48972800  1
  P  P5  1  0.25000000  0.66070300  0.85009700  1
  O  O0  1  0.75000000  0.58650400  0.19999400  1
  O  O1  1  0.75000000  0.21370100  0.58662500  1
  O  O2  1  0.75000000  0.19905400  0.21338900  1
  O  O3  1  0.25000000  0.41349600  0.80000600  1
  O  O4  1  0.25000000  0.78629900  0.41337500  1
  O  O5  1  0.25000000  0.80094600  0.78661100  1
  O  O6  1  0.75000000  0.60560800  0.38016600  1
  O  O7  1  0.75000000  0.01392700  0.60541800  1
  O  O8  1  0.75000000  0.38002700  0.01427500  1
  O  O9  1  0.25000000  0.39439200  0.61983400  1
  O  O10  1  0.25000000  0.98607300  0.39458200  1
  O  O11  1  0.25000000  0.61997300  0.98572500  1
  O  O12  1  0.53121500  0.43577300  0.38348900  1
  O  O13  1  0.53115700  0.17978000  0.43614500  1
  O  O14  1  0.53070200  0.38352500  0.18002100  1
  O  O15  1  0.03121500  0.56422700  0.61651100  1
  O  O16  1  0.03115700  0.82022000  0.56385500  1
  O  O17  1  0.03070200  0.61647500  0.81997900  1
  O  O18  1  0.46878500  0.56422700  0.61651100  1
  O  O19  1  0.46884300  0.82022000  0.56385500  1
  O  O20  1  0.46929800  0.61647500  0.81997900  1
  O  O21  1  0.96878500  0.43577300  0.38348900  1
  O  O22  1  0.96884300  0.17978000  0.43614500  1
  O  O23  1  0.96929800  0.38352500  0.18002100  1
  O  O24  1  0.75000000  0.36097600  0.64371400  1
  O  O25  1  0.75000000  0.99533900  0.36068500  1
  O  O26  1  0.75000000  0.64281300  0.99654500  1
  O  O27  1  0.25000000  0.63902400  0.35628600  1
  O  O28  1  0.25000000  0.00466100  0.63931500  1
  O  O29  1  0.25000000  0.35718700  0.00345500  1
  O  O30  1  0.25000000  0.25268000  0.55115600  1
  O  O31  1  0.25000000  0.19556400  0.25296200  1
  O  O32  1  0.25000000  0.55194300  0.19537200  1
  O  O33  1  0.75000000  0.74732000  0.44884400  1
  O  O34  1  0.75000000  0.80443600  0.74703800  1
  O  O35  1  0.75000000  0.44805700  0.80462800  1
  O  O36  1  0.25000000  0.07162900  0.94821900  1
  O  O37  1  0.25000000  0.98112400  0.07094700  1
  O  O38  1  0.25000000  0.94824600  0.97997600  1
  O  O39  1  0.75000000  0.92837100  0.05178100  1
  O  O40  1  0.75000000  0.01887600  0.92905300  1
  O  O41  1  0.75000000  0.05175400  0.02002400  1
loop_
_geom_bond_atom_site_label_1
_geom_bond_atom_site_label_2
_geom_bond_distance
_geom_bond_site_symmetry_2
Ce0 O12 2.393798 1_555
Ce0 O21 2.393798 1_455
Ce0 O22 2.406812 1_455
Ce0 O13 2.406812 1_555
Ce0 O23 2.413713 1_455
Ce0 O14 2.413713 1_555
Ce0 O31 2.499937 1_555
Ce0 O30 2.503594 1_555
Ce0 O32 2.527499 1_555
Ce1 O18 2.393798 1_555
Ce1 O15 2.393798 1_655
Ce1 O19 2.406812 1_555
Ce1 O16 2.406812 1_655
Ce1 O20 2.413713 1_555
Ce1 O17 2.413713 1_655
Ce1 O34 2.499937 1_555
Ce1 O33 2.503594 1_555
Ce1 O35 2.527499 1_555
Cu0 O24 1.818324 1_555
Cu0 O30 1.857175 1_555
Cu0 O9 1.945923 1_555
Cu0 O1 1.947307 1_555
Cu0 O12 2.442235 1_555
Cu1 O25 1.819856 1_545
Cu1 O31 1.859647 1_555
Cu1 O10 1.950732 1_545
Cu1 O2 1.953497 1_555
Cu1 O13 2.417786 1_555
Cu2 O26 1.817338 1_554
Cu2 O32 1.855170 1_555
Cu2 O11 1.950506 1_554
Cu2 O0 1.953504 1_555
Cu2 O14 2.428615 1_555
Cu3 O27 1.818324 1_555
Cu3 O33 1.857175 1_455
Cu3 O6 1.945923 1_455
Cu3 O4 1.947307 1_555
Cu3 O15 2.442235 1_555
Cu4 O28 1.819856 1_565
Cu4 O34 1.859647 1_455
Cu4 O7 1.950732 1_465
Cu4 O5 1.953497 1_555
Cu4 O16 2.417786 1_555
Cu5 O29 1.817338 1_556
Cu5 O35 1.855170 1_455
Cu5 O8 1.950506 1_456
Cu5 O3 1.953504 1_555
Cu5 O17 2.428615 1_555
Cu6 O27 1.818324 1_555
Cu6 O33 1.857175 1_555
Cu6 O6 1.945923 1_555
Cu6 O4 1.947307 1_555
Cu6 O18 2.442235 1_555
Cu7 O28 1.819856 1_565
Cu7 O34 1.859647 1_555
Cu7 O7 1.950732 1_565
Cu7 O5 1.953497 1_555
Cu7 O19 2.417786 1_555
Cu8 O29 1.817338 1_556
Cu8 O35 1.855170 1_555
Cu8 O8 1.950506 1_556
Cu8 O3 1.953504 1_555
Cu8 O20 2.428615 1_555
Cu9 O24 1.818324 1_555
Cu9 O30 1.857175 1_655
Cu9 O9 1.945923 1_655
Cu9 O1 1.947307 1_555
Cu9 O21 2.442235 1_555
Cu10 O25 1.819856 1_545
Cu10 O31 1.859647 1_655
Cu10 O10 1.950732 1_645
Cu10 O2 1.953497 1_555
Cu10 O22 2.417786 1_555
Cu11 O26 1.817338 1_554
Cu11 O32 1.855170 1_655
Cu11 O11 1.950506 1_654
Cu11 O0 1.953504 1_555
Cu11 O23 2.428615 1_555
O0 P0 1.595312 1_555
O1 P1 1.597400 1_555
O2 P2 1.598613 1_555
O3 P3 1.595312 1_555
O4 P4 1.597400 1_555
O5 P5 1.598613 1_555
O6 P0 1.585532 1_555
O7 P1 1.585352 1_555
O8 P2 1.586148 1_555
O9 P3 1.585532 1_555
O10 P4 1.585352 1_555
O11 P5 1.586148 1_555
O12 P0 1.521825 1_555
O13 P1 1.521971 1_555
O14 P2 1.522461 1_555
O15 P3 1.521825 1_555
O16 P4 1.521971 1_555
O17 P5 1.522461 1_555
O18 P3 1.521825 1_555
O19 P4 1.521971 1_555
O20 P5 1.522461 1_555
O21 P0 1.521825 1_555
O22 P1 1.521971 1_555
O23 P2 1.522461 1_555
O36 O37 1.454318 1_546
O36 O38 1.455463 1_545
O37 O38 1.455104 1_554
O39 O40 1.454318 1_564
O39 O41 1.455463 1_565
O40 O41 1.455104 1_556
