# generated using pymatgen
data_BaTh(PO4)2
_symmetry_space_group_name_H-M   'P 1'
_cell_length_a   7.05081124
_cell_length_b   7.05081124
_cell_length_c   9.62000077
_cell_angle_alpha   79.14500635
_cell_angle_beta   79.14500635
_cell_angle_gamma   45.74276371
_symmetry_Int_Tables_number   1
_chemical_formula_structural   BaTh(PO4)2
_chemical_formula_sum   'Ba2 Th2 P4 O16'
_cell_volume   335.29674135
_cell_formula_units_Z   2
loop_
 _symmetry_equiv_pos_site_id
 _symmetry_equiv_pos_as_xyz
  1  'x, y, z'
loop_
 _atom_site_type_symbol
 _atom_site_label
 _atom_site_symmetry_multiplicity
 _atom_site_fract_x
 _atom_site_fract_y
 _atom_site_fract_z
 _atom_site_occupancy
  Ba  Ba0  1  0.00000000  0.50000000  0.00000000  1
  Ba  Ba1  1  0.50000000  0.00000000  0.50000000  1
  Th  Th0  1  0.17621900  0.82378100  0.25000000  1
  Th  Th1  1  0.82378100  0.17621900  0.75000000  1
  P  P0  1  0.64360800  0.17319600  0.10977400  1
  P  P1  1  0.82680400  0.35639200  0.39022600  1
  P  P2  1  0.35639200  0.82680400  0.89022600  1
  P  P3  1  0.17319600  0.64360800  0.60977400  1
  O  O0  1  0.78816800  0.90599400  0.20476500  1
  O  O1  1  0.09400600  0.21183200  0.29523500  1
  O  O2  1  0.21183200  0.09400600  0.79523500  1
  O  O3  1  0.90599400  0.78816800  0.70476500  1
  O  O4  1  0.37102700  0.40805500  0.18119200  1
  O  O5  1  0.59194500  0.62897300  0.31880800  1
  O  O6  1  0.62897300  0.59194500  0.81880800  1
  O  O7  1  0.40805500  0.37102700  0.68119200  1
  O  O8  1  0.83668200  0.21557000  0.08937800  1
  O  O9  1  0.78443000  0.16331800  0.41062200  1
  O  O10  1  0.16331800  0.78443000  0.91062200  1
  O  O11  1  0.21557000  0.83668200  0.58937800  1
  O  O12  1  0.59800600  0.14797700  0.96490400  1
  O  O13  1  0.85202300  0.40199400  0.53509600  1
  O  O14  1  0.40199400  0.85202300  0.03509600  1
  O  O15  1  0.14797700  0.59800600  0.46490400  1
loop_
_geom_bond_atom_site_label_1
_geom_bond_atom_site_label_2
_geom_bond_distance
_geom_bond_site_symmetry_2
Ba0 O10 2.878901 1_554
Ba0 O8 2.878901 1_455
Ba0 O12 3.037283 1_554
Ba0 O14 3.037283 1_455
Ba0 O4 3.037593 1_555
Ba0 O6 3.037593 1_454
Ba0 O3 3.047941 1_454
Ba0 O1 3.047941 1_555
Ba0 O0 3.058361 1_455
Ba0 O2 3.058361 1_554
Ba0 O14 3.275083 1_545
Ba0 O12 3.275083 1_464
Ba1 O11 2.878901 1_545
Ba1 O9 2.878901 1_555
Ba1 O15 3.037283 1_555
Ba1 O13 3.037283 1_545
Ba1 O5 3.037593 1_545
Ba1 O7 3.037593 1_555
Ba1 O2 3.047941 1_555
Ba1 O0 3.047941 1_545
Ba1 O1 3.058361 1_555
Ba1 O3 3.058361 1_545
Ba1 O15 3.275083 1_645
Ba1 O13 3.275083 1_455
O0 P0 1.563806 1_565
O0 Th0 2.480166 1_655
O1 P1 1.563806 1_455
O1 Th0 2.480166 1_545
O2 P2 1.563806 1_545
O2 Th1 2.480166 1_455
O3 P3 1.563806 1_655
O3 Th1 2.480166 1_565
O4 P0 1.548219 1_555
O4 Th0 2.384438 1_555
O5 P1 1.548219 1_555
O5 Th0 2.384438 1_555
O6 P2 1.548219 1_555
O6 Th1 2.384438 1_555
O7 P3 1.548219 1_555
O7 Th1 2.384438 1_555
O8 P0 1.557557 1_555
O8 Th0 2.510958 1_645
O9 P1 1.557557 1_555
O9 Th0 2.510958 1_645
O10 P2 1.557557 1_555
O10 Th1 2.510958 1_465
O11 P3 1.557557 1_555
O11 Th1 2.510958 1_465
O12 P0 1.555369 1_556
O12 Th1 2.428097 1_555
O13 P1 1.555369 1_555
O13 Th1 2.428097 1_555
O14 P2 1.555369 1_554
O14 Th0 2.428097 1_555
O15 P3 1.555369 1_555
O15 Th0 2.428097 1_555
