# generated using pymatgen
data_Sr2HoTaO6
_symmetry_space_group_name_H-M   'P 1'
_cell_length_a   5.95154500
_cell_length_b   5.82492700
_cell_length_c   10.13558072
_cell_angle_alpha   55.05502541
_cell_angle_beta   90.00000000
_cell_angle_gamma   90.00000000
_symmetry_Int_Tables_number   1
_chemical_formula_structural   Sr2HoTaO6
_chemical_formula_sum   'Sr4 Ho2 Ta2 O12'
_cell_volume   288.02163581
_cell_formula_units_Z   2
loop_
 _symmetry_equiv_pos_site_id
 _symmetry_equiv_pos_as_xyz
  1  'x, y, z'
loop_
 _atom_site_type_symbol
 _atom_site_label
 _atom_site_symmetry_multiplicity
 _atom_site_fract_x
 _atom_site_fract_y
 _atom_site_fract_z
 _atom_site_occupancy
  Sr  Sr0  1  0.45817900  0.24149200  0.74798200  1
  Sr  Sr1  1  0.54182100  0.75850800  0.25201800  1
  Sr  Sr2  1  0.95817900  0.75850800  0.75201800  1
  Sr  Sr3  1  0.04182100  0.24149200  0.24798200  1
  Ho  Ho0  1  0.00000000  0.50000000  0.50000000  1
  Ho  Ho1  1  0.50000000  0.50000000  0.00000000  1
  Ta  Ta0  1  0.00000000  0.00000000  0.00000000  1
  Ta  Ta1  1  0.50000000  0.00000000  0.50000000  1
  O  O0  1  0.02545300  0.31504100  0.76455300  1
  O  O1  1  0.97454700  0.68495900  0.23544700  1
  O  O2  1  0.52545300  0.68495900  0.73544700  1
  O  O3  1  0.47454700  0.31504100  0.26455300  1
  O  O4  1  0.72633400  0.84932700  0.95425400  1
  O  O5  1  0.27366600  0.15067300  0.04574600  1
  O  O6  1  0.22633400  0.15067300  0.54574600  1
  O  O7  1  0.77366600  0.84932700  0.45425400  1
  O  O8  1  0.19755700  0.76389200  0.96070700  1
  O  O9  1  0.80244300  0.23610800  0.03929300  1
  O  O10  1  0.69755700  0.23610800  0.53929300  1
  O  O11  1  0.30244300  0.76389200  0.46070700  1
loop_
_geom_bond_atom_site_label_1
_geom_bond_atom_site_label_2
_geom_bond_distance
_geom_bond_site_symmetry_2
Ho0 O10 2.249478 1_455
Ho0 O11 2.249478 1_555
Ho0 O0 2.250367 1_555
Ho0 O1 2.250367 1_455
Ho0 O7 2.255905 1_455
Ho0 O6 2.255905 1_555
Ho1 O9 2.249478 1_555
Ho1 O8 2.249478 1_554
Ho1 O3 2.250367 1_555
Ho1 O2 2.250367 1_554
Ho1 O5 2.255905 1_555
Ho1 O4 2.255905 1_554
O0 Ta0 2.017077 1_556
O0 Sr2 2.544251 1_455
O0 Sr0 2.631883 1_555
O1 Ta0 2.017077 1_665
O1 Sr3 2.544251 1_655
O1 Sr1 2.631883 1_555
O2 Ta1 2.017077 1_565
O2 Sr0 2.544251 1_555
O2 Sr2 2.631883 1_555
O3 Ta1 2.017077 1_555
O3 Sr1 2.544251 1_555
O3 Sr3 2.631883 1_555
O4 Ta0 2.025889 1_666
O4 Sr0 2.581681 1_565
O4 Sr2 2.761815 1_555
O4 Sr1 2.960600 1_556
O5 Ta0 2.025889 1_555
O5 Sr1 2.581681 1_545
O5 Sr3 2.761815 1_555
O5 Sr0 2.960600 1_554
O6 Ta1 2.025889 1_555
O6 Sr2 2.581681 1_445
O6 Sr0 2.761815 1_555
O6 Sr3 2.960600 1_555
O7 Ta1 2.025889 1_565
O7 Sr3 2.581681 1_665
O7 Sr1 2.761815 1_555
O7 Sr2 2.960600 1_555
O8 Ta0 2.014942 1_566
O8 Sr2 2.565280 1_455
O8 Sr0 2.814723 1_565
O8 Sr3 2.906303 1_556
O9 Ta0 2.014942 1_655
O9 Sr3 2.565280 1_655
O9 Sr1 2.814723 1_545
O9 Sr2 2.906303 1_554
O10 Ta1 2.014942 1_555
O10 Sr0 2.565280 1_555
O10 Sr2 2.814723 1_545
O10 Sr1 2.906303 1_555
O11 Ta1 2.014942 1_565
O11 Sr1 2.565280 1_555
O11 Sr3 2.814723 1_565
O11 Sr0 2.906303 1_555
