# generated using pymatgen
data_Zn2CoWO6
_symmetry_space_group_name_H-M   'P 1'
_cell_length_a   5.25897978
_cell_length_b   5.25986614
_cell_length_c   9.83612493
_cell_angle_alpha   74.46417167
_cell_angle_beta   105.53555136
_cell_angle_gamma   119.99755908
_symmetry_Int_Tables_number   1
_chemical_formula_structural   Zn2CoWO6
_chemical_formula_sum   'Zn4 Co2 W2 O12'
_cell_volume   224.08317422
_cell_formula_units_Z   2
loop_
 _symmetry_equiv_pos_site_id
 _symmetry_equiv_pos_as_xyz
  1  'x, y, z'
loop_
 _atom_site_type_symbol
 _atom_site_label
 _atom_site_symmetry_multiplicity
 _atom_site_fract_x
 _atom_site_fract_y
 _atom_site_fract_z
 _atom_site_occupancy
  Zn  Zn0  1  0.61425700  0.38651100  0.82644100  1
  Zn  Zn1  1  0.11426800  0.88651000  0.32643900  1
  Zn  Zn2  1  0.38329500  0.61754500  0.13424300  1
  Zn  Zn3  1  0.88330100  0.11755400  0.63424100  1
  Co  Co0  1  0.25822400  0.74259200  0.75867800  1
  Co  Co1  1  0.75823000  0.24258600  0.25867800  1
  W  W0  1  0.00704500  0.99393900  0.00529900  1
  W  W1  1  0.50704400  0.49394000  0.50529200  1
  O  O0  1  0.26883600  0.46578500  0.64411700  1
  O  O1  1  0.76883800  0.96577700  0.14411300  1
  O  O2  1  0.76603100  0.50690400  0.39691700  1
  O  O3  1  0.26603900  0.00689400  0.89692000  1
  O  O4  1  0.99421600  0.34866800  0.89713900  1
  O  O5  1  0.49421900  0.84866600  0.39714200  1
  O  O6  1  0.65256300  0.73414000  0.89708600  1
  O  O7  1  0.15257200  0.23413000  0.39709000  1
  O  O8  1  0.35652400  0.23237500  0.14425100  1
  O  O9  1  0.85652400  0.73237600  0.64424900  1
  O  O10  1  0.03564300  0.64515900  0.14457200  1
  O  O11  1  0.53564100  0.14515700  0.64456500  1
loop_
_geom_bond_atom_site_label_1
_geom_bond_atom_site_label_2
_geom_bond_distance
_geom_bond_site_symmetry_2
Co0 O9 2.092300 1_455
Co0 O0 2.094400 1_555
Co0 O11 2.094505 1_565
Co0 O4 2.168032 1_455
Co0 O6 2.168760 1_555
Co0 O3 2.169986 1_565
Co1 O8 2.092330 1_555
Co1 O1 2.094427 1_545
Co1 O10 2.094489 1_655
Co1 O5 2.168043 1_545
Co1 O7 2.168794 1_655
Co1 O2 2.170065 1_555
O0 Zn3 1.936902 1_455
O0 W1 2.019493 1_555
O0 Zn0 2.302530 1_555
O1 Zn2 1.936927 1_555
O1 W0 2.019384 1_655
O1 Zn1 2.302559 1_655
O2 W1 1.908397 1_555
O2 Zn1 2.025691 1_655
O3 W0 1.908480 1_546
O3 Zn0 2.025669 1_555
O4 W0 1.908346 1_646
O4 Zn0 2.023663 1_555
O5 W1 1.908297 1_555
O5 Zn1 2.023628 1_555
O6 W0 1.909068 1_656
O6 Zn0 2.025855 1_555
O7 W1 1.909012 1_555
O7 Zn1 2.025848 1_545
O8 Zn2 1.936321 1_555
O8 W0 2.021526 1_545
O8 Zn1 2.302840 1_545
O9 Zn3 1.936349 1_565
O9 W1 2.021558 1_555
O9 Zn0 2.302890 1_555
O10 Zn2 1.935722 1_555
O10 W0 2.020907 1_555
O10 Zn1 2.297384 1_555
O11 Zn3 1.935715 1_555
O11 W1 2.020917 1_555
O11 Zn0 2.297487 1_555
