# generated using pymatgen
data_Mg14BCO16
_symmetry_space_group_name_H-M   'P 1'
_cell_length_a   8.50440118
_cell_length_b   8.50440118
_cell_length_c   4.19993262
_cell_angle_alpha   90.00000000
_cell_angle_beta   90.00000000
_cell_angle_gamma   90.00000000
_symmetry_Int_Tables_number   1
_chemical_formula_structural   Mg14BCO16
_chemical_formula_sum   'Mg14 B1 C1 O16'
_cell_volume   303.75945236
_cell_formula_units_Z   1
loop_
 _symmetry_equiv_pos_site_id
 _symmetry_equiv_pos_as_xyz
  1  'x, y, z'
loop_
 _atom_site_type_symbol
 _atom_site_label
 _atom_site_symmetry_multiplicity
 _atom_site_fract_x
 _atom_site_fract_y
 _atom_site_fract_z
 _atom_site_occupancy
  Mg  Mg0  1  -0.00000000  0.50000000  0.00000000  1
  Mg  Mg1  1  0.50000000  0.00000000  0.00000000  1
  Mg  Mg2  1  -0.00000000  0.24125479  0.50000000  1
  Mg  Mg3  1  -0.00000000  0.75874521  0.50000000  1
  Mg  Mg4  1  0.50000000  0.25292172  0.50000000  1
  Mg  Mg5  1  0.50000000  0.74707828  0.50000000  1
  Mg  Mg6  1  0.24125479  0.00000000  0.50000000  1
  Mg  Mg7  1  0.25292172  0.50000000  0.50000000  1
  Mg  Mg8  1  0.75874521  0.00000000  0.50000000  1
  Mg  Mg9  1  0.74707828  0.50000000  0.50000000  1
  Mg  Mg10  1  0.25254423  0.25254423  0.00000000  1
  Mg  Mg11  1  0.25254423  0.74745577  -0.00000000  1
  Mg  Mg12  1  0.74745577  0.25254423  0.00000000  1
  Mg  Mg13  1  0.74745577  0.74745577  -0.00000000  1
  B  B0  1  -0.00000000  0.00000000  0.00000000  1
  C  C0  1  0.50000000  0.50000000  0.00000000  1
  O  O0  1  0.20604907  0.00000000  0.00000000  1
  O  O1  1  0.22686709  0.50000000  0.00000000  1
  O  O2  1  0.79395093  0.00000000  -0.00000000  1
  O  O3  1  0.77313291  0.50000000  -0.00000000  1
  O  O4  1  0.24961324  0.24961324  0.50000000  1
  O  O5  1  0.24961324  0.75038676  0.50000000  1
  O  O6  1  0.75038676  0.24961324  0.50000000  1
  O  O7  1  0.75038676  0.75038676  0.50000000  1
  O  O8  1  -0.00000000  0.00000000  0.50000000  1
  O  O9  1  -0.00000000  0.50000000  0.50000000  1
  O  O10  1  0.50000000  0.00000000  0.50000000  1
  O  O11  1  0.50000000  0.50000000  0.50000000  1
  O  O12  1  -0.00000000  0.20604907  -0.00000000  1
  O  O13  1  -0.00000000  0.79395093  0.00000000  1
  O  O14  1  0.50000000  0.22686709  -0.00000000  1
  O  O15  1  0.50000000  0.77313291  0.00000000  1
loop_
_geom_bond_atom_site_label_1
_geom_bond_atom_site_label_2
_geom_bond_distance
_geom_bond_site_symmetry_2
Mg0 O3 1.929369 1_455
Mg0 O1 1.929369 1_555
Mg0 O9 2.099966 1_554
Mg0 O9 2.099966 1_555
Mg0 O12 2.499877 1_555
Mg0 O13 2.499877 1_555
Mg1 O15 1.929369 1_545
Mg1 O14 1.929369 1_555
Mg1 O10 2.099966 1_555
Mg1 O10 2.099966 1_554
Mg1 O0 2.499877 1_555
Mg1 O2 2.499877 1_555
Mg2 O8 2.051728 1_555
Mg2 O12 2.121203 1_556
Mg2 O12 2.121203 1_555
Mg2 O6 2.124001 1_455
Mg2 O4 2.124001 1_555
Mg2 O9 2.200473 1_555
Mg3 O8 2.051728 1_565
Mg3 O13 2.121203 1_555
Mg3 O13 2.121203 1_556
Mg3 O7 2.124001 1_455
Mg3 O5 2.124001 1_555
Mg3 O9 2.200473 1_555
Mg4 O11 2.101253 1_555
Mg4 O14 2.111624 1_556
Mg4 O14 2.111624 1_555
Mg4 O4 2.129575 1_555
Mg4 O6 2.129575 1_555
Mg4 O10 2.150948 1_555
Mg5 O11 2.101253 1_555
Mg5 O15 2.111624 1_556
Mg5 O15 2.111624 1_555
Mg5 O5 2.129575 1_555
Mg5 O7 2.129575 1_555
Mg5 O10 2.150948 1_565
Mg6 O8 2.051728 1_555
Mg6 O0 2.121203 1_555
Mg6 O0 2.121203 1_556
Mg6 O5 2.124001 1_545
Mg6 O4 2.124001 1_555
Mg6 O10 2.200473 1_555
Mg7 O11 2.101253 1_555
Mg7 O1 2.111624 1_556
Mg7 O1 2.111624 1_555
Mg7 O4 2.129575 1_555
Mg7 O5 2.129575 1_555
Mg7 O9 2.150948 1_555
Mg8 O8 2.051728 1_655
Mg8 O2 2.121203 1_556
Mg8 O2 2.121203 1_555
Mg8 O7 2.124001 1_545
Mg8 O6 2.124001 1_555
Mg8 O10 2.200473 1_555
Mg9 O11 2.101253 1_555
Mg9 O3 2.111624 1_556
Mg9 O3 2.111624 1_555
Mg9 O6 2.129575 1_555
Mg9 O7 2.129575 1_555
Mg9 O9 2.150948 1_655
Mg10 O4 2.100262 1_554
Mg10 O4 2.100262 1_555
Mg10 O14 2.115762 1_555
Mg10 O1 2.115762 1_555
Mg10 O12 2.183833 1_555
Mg10 O0 2.183833 1_555
Mg11 O5 2.100262 1_554
Mg11 O5 2.100262 1_555
Mg11 O1 2.115762 1_555
Mg11 O15 2.115762 1_555
Mg11 O13 2.183833 1_555
Mg11 O0 2.183833 1_565
Mg12 O6 2.100262 1_554
Mg12 O6 2.100262 1_555
Mg12 O14 2.115762 1_555
Mg12 O3 2.115762 1_555
Mg12 O2 2.183833 1_555
Mg12 O12 2.183833 1_655
Mg13 O7 2.100262 1_555
Mg13 O7 2.100262 1_554
Mg13 O15 2.115762 1_555
Mg13 O3 2.115762 1_555
Mg13 O2 2.183833 1_565
Mg13 O13 2.183833 1_655
B0 O13 1.752324 1_545
B0 O2 1.752324 1_455
B0 O12 1.752324 1_555
B0 O0 1.752324 1_555
B0 O8 2.099966 1_554
B0 O8 2.099966 1_555
C0 O11 2.099966 1_554
C0 O11 2.099966 1_555
