# generated using pymatgen
data_Hf2Cr4Si5
_symmetry_space_group_name_H-M   'P 1'
_cell_length_a   9.14792938
_cell_length_b   9.14800025
_cell_length_c   9.14802022
_cell_angle_alpha   149.01529166
_cell_angle_beta   131.50139932
_cell_angle_gamma   58.67159331
_symmetry_Int_Tables_number   1
_chemical_formula_structural   Hf2Cr4Si5
_chemical_formula_sum   'Hf4 Cr8 Si10'
_cell_volume   292.85816932
_cell_formula_units_Z   2
loop_
 _symmetry_equiv_pos_site_id
 _symmetry_equiv_pos_as_xyz
  1  'x, y, z'
loop_
 _atom_site_type_symbol
 _atom_site_label
 _atom_site_symmetry_multiplicity
 _atom_site_fract_x
 _atom_site_fract_y
 _atom_site_fract_z
 _atom_site_occupancy
  Hf  Hf0  1  0.73793314  0.35861563  0.37933159  1
  Hf  Hf1  1  0.26205702  0.64139348  0.62064921  1
  Hf  Hf2  1  0.97926990  0.85859978  0.12065628  1
  Hf  Hf3  1  0.02073233  0.14140255  0.87934290  1
  Cr  Cr0  1  0.30814251  0.55813011  0.25000715  1
  Cr  Cr1  1  0.69187259  0.44187907  0.75000617  1
  Cr  Cr2  1  0.69187517  0.94186672  0.24999500  1
  Cr  Cr3  1  0.30814076  0.05813607  0.75001132  1
  Cr  Cr4  1  0.31411731  0.06247533  0.25163825  1
  Cr  Cr5  1  0.68586702  0.93751299  0.74834874  1
  Cr  Cr6  1  0.81083520  0.56247794  0.24836982  1
  Cr  Cr7  1  0.18915726  0.43751368  0.75164211  1
  Si  Si0  1  0.42059108  0.21120794  0.20938794  1
  Si  Si1  1  0.57940600  0.78880342  0.79059646  1
  Si  Si2  1  0.00181776  0.71120389  0.29061398  1
  Si  Si3  1  0.99820433  0.28880270  0.70940254  1
  Si  Si4  1  0.99998973  0.24999761  0.24999218  1
  Si  Si5  1  0.99998853  0.74999684  0.74999216  1
  Si  Si6  1  0.50968391  0.43599700  0.07368927  1
  Si  Si7  1  0.49030988  0.56400157  0.92631288  1
  Si  Si8  1  0.36231253  0.93599073  0.42631630  1
  Si  Si9  1  0.63769605  0.06399694  0.57369776  1
loop_
_geom_bond_atom_site_label_1
_geom_bond_atom_site_label_2
_geom_bond_distance
_geom_bond_site_symmetry_2
Hf0 Si6 2.607324 1_555
Hf0 Si0 2.675436 1_555
Hf0 Si3 2.718747 1_555
Hf0 Si5 2.720330 1_555
Hf0 Si4 2.720376 1_555
Hf0 Si1 2.766683 1_555
Hf0 Si1 2.766769 1_544
Hf1 Si7 2.607548 1_555
Hf1 Si1 2.675489 1_555
Hf1 Si2 2.718486 1_555
Hf1 Si4 2.720520 1_455
Hf1 Si5 2.720568 1_455
Hf1 Si0 2.766710 1_555
Hf1 Si0 2.766792 1_566
Hf2 Si8 2.607421 1_655
Hf2 Si2 2.675503 1_655
Hf2 Si1 2.718587 1_554
Hf2 Si5 2.720388 1_554
Hf2 Si4 2.720423 1_565
Hf2 Si3 2.766736 1_554
Hf2 Si3 2.766810 1_565
Hf3 Si9 2.607390 1_455
Hf3 Si3 2.675492 1_455
Hf3 Si0 2.718548 1_556
Hf3 Si4 2.720463 1_456
Hf3 Si5 2.720495 1_445
Hf3 Si2 2.766732 1_556
Hf3 Si2 2.766798 1_545
Cr0 Si6 2.440948 1_555
Cr0 Si8 2.440953 1_555
Cr0 Si1 2.521062 1_555
Cr0 Si3 2.521173 1_454
Cr0 Si0 2.521503 1_555
Cr0 Si2 2.521612 1_555
Cr1 Si7 2.441104 1_555
Cr1 Si9 2.441175 1_555
Cr1 Si2 2.521208 1_656
Cr1 Si0 2.521245 1_555
Cr1 Si3 2.521655 1_555
Cr1 Si1 2.521672 1_555
Cr2 Si7 2.441101 1_554
Cr2 Si9 2.441187 1_565
Cr2 Si2 2.521186 1_655
Cr2 Si0 2.521259 1_565
Cr2 Si3 2.521645 1_565
Cr2 Si1 2.521698 1_554
Cr3 Si6 2.440951 1_556
Cr3 Si8 2.440972 1_545
Cr3 Si1 2.521080 1_545
Cr3 Si3 2.521154 1_455
Cr3 Si0 2.521532 1_556
Cr3 Si2 2.521607 1_545
Cr4 Si0 2.393335 1_555
Cr4 Si8 2.406819 1_545
Cr4 Si9 2.420160 1_555
Cr4 Si4 2.462002 1_455
Cr4 Si5 2.462005 1_444
Cr4 Si7 2.773804 1_544
Cr4 Si7 2.773849 1_555
Cr5 Si1 2.393025 1_555
Cr5 Si9 2.406689 1_565
Cr5 Si8 2.419965 1_555
Cr5 Si5 2.461956 1_555
Cr5 Si4 2.461982 1_566
Cr5 Si6 2.773789 1_555
Cr5 Si6 2.773812 1_566
Cr6 Si2 2.393383 1_655
Cr6 Si6 2.406671 1_555
Cr6 Si7 2.420121 1_554
Cr6 Si5 2.461867 1_555
Cr6 Si4 2.461882 1_555
Cr6 Si9 2.773774 1_565
Cr6 Si9 2.773843 1_554
Cr7 Si3 2.393057 1_455
Cr7 Si7 2.406760 1_555
Cr7 Si6 2.420062 1_556
Cr7 Si5 2.462050 1_455
Cr7 Si4 2.462061 1_455
Cr7 Si8 2.773843 1_556
Cr7 Si8 2.773851 1_545
Si4 Si5 2.443522 1_544
Si4 Si5 2.443524 1_555
Si6 Si7 2.322646 1_554
Si6 Si8 2.682716 1_555
Si6 Si8 2.682759 1_544
Si7 Si9 2.682787 1_566
Si7 Si9 2.682805 1_555
Si8 Si9 2.322637 1_565
