# generated using pymatgen
data_MgMn2(B4O7)2
_symmetry_space_group_name_H-M   'P 1'
_cell_length_a   5.07535730
_cell_length_b   7.20948783
_cell_length_c   7.20948537
_cell_angle_alpha   106.70947057
_cell_angle_beta   89.24516964
_cell_angle_gamma   89.24516911
_symmetry_Int_Tables_number   1
_chemical_formula_structural   MgMn2(B4O7)2
_chemical_formula_sum   'Mg1 Mn2 B8 O14'
_cell_volume   252.59978379
_cell_formula_units_Z   1
loop_
 _symmetry_equiv_pos_site_id
 _symmetry_equiv_pos_as_xyz
  1  'x, y, z'
loop_
 _atom_site_type_symbol
 _atom_site_label
 _atom_site_symmetry_multiplicity
 _atom_site_fract_x
 _atom_site_fract_y
 _atom_site_fract_z
 _atom_site_occupancy
  Mg  Mg0  1  0.50000000  0.05156681  0.94843319  1
  Mn  Mn0  1  0.74698970  0.70541227  0.69941169  1
  Mn  Mn1  1  0.25301030  0.30058831  0.29458773  1
  B  B0  1  0.76251483  0.41467224  0.20613665  1
  B  B1  1  0.23748517  0.79386335  0.58532776  1
  B  B2  1  1.00000000  0.72978208  0.27021792  1
  B  B3  1  0.00000000  0.27550162  0.72449838  1
  B  B4  1  0.50000000  0.28430041  0.71569959  1
  B  B5  1  0.76219733  0.20359883  0.40678090  1
  B  B6  1  0.23780267  0.59321909  0.79640117  1
  B  B7  1  0.50000000  0.72789950  0.27210050  1
  O  O0  1  0.22210394  0.78731757  0.78296351  1
  O  O1  1  0.77789606  0.21703649  0.21268243  1
  O  O2  1  0.74201293  0.22354455  0.79685368  1
  O  O3  1  0.25798707  0.20314632  0.77645545  1
  O  O4  1  0.52177460  0.22505712  0.49631018  1
  O  O5  1  0.47822540  0.50368981  0.77494288  1
  O  O6  1  0.99156633  0.21572377  0.50378065  1
  O  O7  1  0.74758834  0.79991115  0.21929281  1
  O  O8  1  0.52251217  0.50092862  0.21982540  1
  O  O9  1  0.47748783  0.78017460  0.49907138  1
  O  O10  1  0.99406657  0.50556419  0.21525825  1
  O  O11  1  0.25241166  0.78070719  0.20008885  1
  O  O12  1  0.00843367  0.49621935  0.78427623  1
  O  O13  1  0.00593343  0.78474175  0.49443581  1
loop_
_geom_bond_atom_site_label_1
_geom_bond_atom_site_label_2
_geom_bond_distance
_geom_bond_site_symmetry_2
Mg0 O3 2.241460 1_555
Mg0 O2 2.241460 1_555
Mg0 O1 2.418693 1_556
Mg0 O0 2.418694 1_545
Mn0 O13 2.166276 1_655
Mn0 O9 2.174371 1_555
Mn0 O5 2.181822 1_555
Mn0 O12 2.215608 1_655
Mn1 O10 2.166276 1_455
Mn1 O8 2.174372 1_555
Mn1 O4 2.181822 1_555
Mn1 O6 2.215608 1_455
B0 O10 1.346247 1_555
B0 O8 1.349742 1_555
B0 O1 1.440263 1_555
B1 O13 1.346247 1_555
B1 O9 1.349742 1_555
B1 O0 1.440263 1_555
B2 O11 1.460703 1_655
B2 O7 1.460703 1_555
B2 O13 1.550563 1_655
B2 O10 1.550564 1_555
B3 O2 1.494718 1_455
B3 O3 1.494718 1_555
B3 O6 1.525650 1_455
B3 O12 1.525650 1_555
B4 O2 1.481564 1_555
B4 O3 1.481564 1_555
B4 O4 1.517249 1_555
B4 O5 1.517250 1_555
B5 O6 1.356784 1_555
B5 O4 1.358812 1_555
B5 O1 1.431480 1_555
B6 O12 1.356784 1_555
B6 O5 1.358812 1_555
B6 O0 1.431481 1_555
B7 O11 1.453191 1_555
B7 O7 1.453191 1_555
B7 O9 1.572267 1_555
B7 O8 1.572268 1_555
