# generated using pymatgen
data_Na3NO2
_symmetry_space_group_name_H-M   'P 1'
_cell_length_a   9.20457400
_cell_length_b   6.71731600
_cell_length_c   6.71731600
_cell_angle_alpha   90.00000000
_cell_angle_beta   90.00000000
_cell_angle_gamma   90.00000000
_symmetry_Int_Tables_number   1
_chemical_formula_structural   Na3NO2
_chemical_formula_sum   'Na12 N4 O8'
_cell_volume   415.33186460
_cell_formula_units_Z   4
loop_
 _symmetry_equiv_pos_site_id
 _symmetry_equiv_pos_as_xyz
  1  'x, y, z'
loop_
 _atom_site_type_symbol
 _atom_site_label
 _atom_site_symmetry_multiplicity
 _atom_site_fract_x
 _atom_site_fract_y
 _atom_site_fract_z
 _atom_site_occupancy
  Na  Na0  1  0.00000000  0.00000000  0.00000000  1
  Na  Na1  1  0.26519800  0.24924000  0.25076000  1
  Na  Na2  1  0.23480200  0.25076000  0.75076000  1
  Na  Na3  1  0.23480200  0.74924000  0.24924000  1
  Na  Na4  1  0.26519800  0.75076000  0.74924000  1
  Na  Na5  1  0.50000000  0.00000000  0.00000000  1
  Na  Na6  1  0.50000000  0.50000000  0.50000000  1
  Na  Na7  1  0.73480200  0.24924000  0.25076000  1
  Na  Na8  1  0.76519800  0.25076000  0.75076000  1
  Na  Na9  1  0.76519800  0.74924000  0.24924000  1
  Na  Na10  1  0.73480200  0.75076000  0.74924000  1
  Na  Na11  1  0.00000000  0.50000000  0.50000000  1
  N  N0  1  0.73963500  0.50000000  0.00000000  1
  N  N1  1  0.76036500  0.00000000  0.50000000  1
  N  N2  1  0.23963500  0.00000000  0.50000000  1
  N  N3  1  0.26036500  0.50000000  0.00000000  1
  O  O0  1  0.00000000  0.65823300  0.15823300  1
  O  O1  1  0.25000000  0.50000000  0.50000000  1
  O  O2  1  0.25000000  0.00000000  0.00000000  1
  O  O3  1  0.50000000  0.84176700  0.65823300  1
  O  O4  1  0.50000000  0.15823300  0.34176700  1
  O  O5  1  0.75000000  0.00000000  0.00000000  1
  O  O6  1  0.75000000  0.50000000  0.50000000  1
  O  O7  1  0.00000000  0.34176700  0.84176700  1
loop_
_geom_bond_atom_site_label_1
_geom_bond_atom_site_label_2
_geom_bond_distance
_geom_bond_site_symmetry_2
Na0 O5 2.301143 1_455
Na0 O2 2.301143 1_555
Na0 O0 2.529873 1_545
Na0 O7 2.529873 1_554
Na1 O4 2.327755 1_555
Na1 O1 2.379057 1_555
Na1 O2 2.379057 1_555
Na2 O7 2.327755 1_555
Na2 O2 2.379057 1_556
Na2 O1 2.379057 1_555
Na3 O0 2.327755 1_555
Na3 O1 2.379057 1_555
Na3 O2 2.379057 1_565
Na4 O3 2.327755 1_555
Na4 O2 2.379057 1_566
Na4 O1 2.379057 1_555
Na5 O5 2.301143 1_555
Na5 O2 2.301143 1_555
Na5 O4 2.529873 1_555
Na5 O3 2.529873 1_544
Na6 O6 2.301143 1_555
Na6 O1 2.301143 1_555
Na6 O3 2.529873 1_555
Na6 O4 2.529873 1_555
Na7 O4 2.327755 1_555
Na7 O6 2.379057 1_555
Na7 O5 2.379057 1_555
Na8 O7 2.327755 1_655
Na8 O5 2.379057 1_556
Na8 O6 2.379057 1_555
Na9 O0 2.327755 1_655
Na9 O6 2.379057 1_555
Na9 O5 2.379057 1_565
Na10 O3 2.327755 1_555
Na10 O5 2.379057 1_566
Na10 O6 2.379057 1_555
Na11 O6 2.301143 1_455
Na11 O1 2.301143 1_555
Na11 O7 2.529873 1_555
Na11 O0 2.529873 1_555
N0 Na8 2.379373 1_554
N0 Na9 2.379373 1_555
N0 Na7 2.382565 1_555
N0 Na10 2.382565 1_554
N1 Na10 2.379373 1_545
N1 Na7 2.379373 1_555
N1 Na9 2.382565 1_545
N1 Na8 2.382565 1_555
N2 Na4 2.379373 1_545
N2 Na1 2.379373 1_555
N2 Na3 2.382565 1_545
N2 Na2 2.382565 1_555
N3 Na2 2.379373 1_554
N3 Na3 2.379373 1_555
N3 Na1 2.382565 1_555
N3 Na4 2.382565 1_554
