# generated using pymatgen
data_RbCOF3
_symmetry_space_group_name_H-M   'P 1'
_cell_length_a   7.43786100
_cell_length_b   5.74342400
_cell_length_c   9.01301576
_cell_angle_alpha   89.83197142
_cell_angle_beta   90.00000000
_cell_angle_gamma   90.00000000
_symmetry_Int_Tables_number   1
_chemical_formula_structural   RbCOF3
_chemical_formula_sum   'Rb4 C4 O4 F12'
_cell_volume   385.02346611
_cell_formula_units_Z   4
loop_
 _symmetry_equiv_pos_site_id
 _symmetry_equiv_pos_as_xyz
  1  'x, y, z'
loop_
 _atom_site_type_symbol
 _atom_site_label
 _atom_site_symmetry_multiplicity
 _atom_site_fract_x
 _atom_site_fract_y
 _atom_site_fract_z
 _atom_site_occupancy
  Rb  Rb0  1  0.65743100  0.25656300  0.17887500  1
  Rb  Rb1  1  0.34256900  0.74343700  0.82112500  1
  Rb  Rb2  1  0.15743100  0.74343700  0.32112500  1
  Rb  Rb3  1  0.84256900  0.25656300  0.67887500  1
  C  C0  1  0.20344400  0.27254100  0.06669900  1
  C  C1  1  0.79655600  0.72745900  0.93330100  1
  C  C2  1  0.70344400  0.72745900  0.43330100  1
  C  C3  1  0.29655600  0.27254100  0.56669900  1
  O  O0  1  0.29812100  0.44592600  0.08151300  1
  O  O1  1  0.70187900  0.55407400  0.91848700  1
  O  O2  1  0.79812100  0.55407400  0.41848700  1
  O  O3  1  0.20187900  0.44592600  0.58151300  1
  F  F0  1  0.05937200  0.24145800  0.17222300  1
  F  F1  1  0.94062800  0.75854200  0.82777700  1
  F  F2  1  0.55937200  0.75854200  0.32777700  1
  F  F3  1  0.44062800  0.24145800  0.67222300  1
  F  F4  1  0.29640400  0.04738800  0.08164300  1
  F  F5  1  0.70359600  0.95261200  0.91835700  1
  F  F6  1  0.79640400  0.95261200  0.41835700  1
  F  F7  1  0.20359600  0.04738800  0.58164300  1
  F  F8  1  0.38626700  0.24174500  0.42812600  1
  F  F9  1  0.61373300  0.75825500  0.57187400  1
  F  F10  1  0.88626700  0.75825500  0.07187400  1
  F  F11  1  0.11373300  0.24174500  0.92812600  1
loop_
_geom_bond_atom_site_label_1
_geom_bond_atom_site_label_2
_geom_bond_distance
_geom_bond_site_symmetry_2
C0 O0 1.227258 1_555
C0 F11 1.427486 1_554
C0 F0 1.443518 1_555
C0 F4 1.472216 1_555
C1 O1 1.227258 1_555
C1 F10 1.427486 1_556
C1 F1 1.443518 1_555
C1 F5 1.472216 1_555
C2 O2 1.227258 1_555
C2 F9 1.427486 1_555
C2 F2 1.443518 1_555
C2 F6 1.472216 1_555
C3 O3 1.227258 1_555
C3 F8 1.427486 1_555
C3 F3 1.443518 1_555
C3 F7 1.472216 1_555
O0 Rb1 2.917771 1_554
O0 Rb2 2.949647 1_555
O0 Rb0 3.014889 1_555
O1 Rb0 2.917771 1_556
O1 Rb3 2.949647 1_555
O1 Rb1 3.014889 1_555
O2 Rb3 2.917771 1_555
O2 Rb0 2.949647 1_555
O2 Rb2 3.014889 1_655
O3 Rb2 2.917771 1_555
O3 Rb1 2.949647 1_555
O3 Rb3 3.014889 1_455
F0 Rb0 2.991446 1_455
F0 Rb2 3.239155 1_545
F0 Rb2 3.266175 1_555
F1 Rb1 2.991446 1_655
F1 Rb3 3.239155 1_565
F1 Rb3 3.266175 1_555
F2 Rb2 2.991446 1_555
F2 Rb0 3.239155 1_565
F2 Rb0 3.266175 1_555
F3 Rb3 2.991446 1_555
F3 Rb1 3.239155 1_545
F3 Rb1 3.266175 1_555
F4 Rb1 2.950056 1_544
F4 Rb2 2.958517 1_545
F4 Rb0 3.070530 1_555
F5 Rb0 2.950056 1_566
F5 Rb3 2.958517 1_565
F5 Rb1 3.070530 1_555
F6 Rb3 2.950056 1_565
F6 Rb0 2.958517 1_565
F6 Rb2 3.070530 1_655
F7 Rb2 2.950056 1_545
F7 Rb1 2.958517 1_545
F7 Rb3 3.070530 1_455
F8 Rb0 3.020050 1_555
F9 Rb1 3.020050 1_555
F10 Rb2 3.020050 1_655
F11 Rb3 3.020050 1_455
