# generated using pymatgen
data_AlCoW
_symmetry_space_group_name_H-M   'P 1'
_cell_length_a   4.80781067
_cell_length_b   4.80781067
_cell_length_c   7.75972100
_cell_angle_alpha   90.00000000
_cell_angle_beta   90.00000000
_cell_angle_gamma   118.76822930
_symmetry_Int_Tables_number   1
_chemical_formula_structural   AlCoW
_chemical_formula_sum   'Al4 Co4 W4'
_cell_volume   157.22776671
_cell_formula_units_Z   4
loop_
 _symmetry_equiv_pos_site_id
 _symmetry_equiv_pos_as_xyz
  1  'x, y, z'
loop_
 _atom_site_type_symbol
 _atom_site_label
 _atom_site_symmetry_multiplicity
 _atom_site_fract_x
 _atom_site_fract_y
 _atom_site_fract_z
 _atom_site_occupancy
  Al  Al0  1  0.00882600  0.99117400  0.23595800  1
  Al  Al1  1  0.00882600  0.99117400  0.76404200  1
  Al  Al2  1  0.65152700  0.83535100  0.50000000  1
  Al  Al3  1  0.16464900  0.34847300  0.50000000  1
  Co  Co0  1  0.15953400  0.84046600  0.50000000  1
  Co  Co1  1  0.35022800  0.17883300  0.00000000  1
  Co  Co2  1  0.82116700  0.64977200  0.00000000  1
  Co  Co3  1  0.82811200  0.17188800  0.00000000  1
  W  W0  1  0.66693100  0.33306900  0.29936200  1
  W  W1  1  0.33551700  0.66448300  0.17543300  1
  W  W2  1  0.33551700  0.66448300  0.82456700  1
  W  W3  1  0.66693100  0.33306900  0.70063800  1
loop_
_geom_bond_atom_site_label_1
_geom_bond_atom_site_label_2
_geom_bond_distance
_geom_bond_site_symmetry_2
Al0 Co2 2.331354 1_455
Al0 Co1 2.331354 1_565
Al0 Co3 2.364065 1_465
Al0 Co0 2.398608 1_555
Al0 Al3 2.543897 1_565
Al0 Al2 2.543897 1_455
Al0 W1 2.743930 1_555
Al0 W0 2.819416 1_455
Al0 W0 2.819416 1_565
Al0 W0 2.871713 1_465
Al0 W1 2.876226 1_455
Al0 W1 2.876226 1_565
Al1 Co1 2.331354 1_566
Al1 Co2 2.331354 1_456
Al1 Co3 2.364065 1_466
Al1 Co0 2.398608 1_555
Al1 Al3 2.543897 1_565
Al1 Al2 2.543897 1_455
Al1 W2 2.743930 1_555
Al1 W3 2.819416 1_455
Al1 W3 2.819416 1_565
Al1 W3 2.871713 1_465
Al1 W2 2.876226 1_455
Al1 W2 2.876226 1_565
Al2 Co0 2.377342 1_555
Al2 Al3 2.384263 1_555
Al2 Co0 2.430662 1_655
Al2 Al3 2.512781 1_665
Al2 W0 2.825767 1_565
Al2 W3 2.825767 1_565
Al2 W1 2.850424 1_555
Al2 W2 2.850424 1_555
Al2 W3 2.903994 1_555
Al2 W0 2.903994 1_555
Al3 Co0 2.377342 1_555
Al3 Co0 2.430662 1_545
Al3 W0 2.825767 1_455
Al3 W3 2.825767 1_455
Al3 W1 2.850424 1_555
Al3 W2 2.850424 1_555
Al3 W3 2.903994 1_555
Al3 W0 2.903994 1_555
Co0 W3 2.902228 1_565
Co0 W0 2.902228 1_455
Co0 W3 2.902228 1_455
Co0 W0 2.902228 1_565
Co0 W1 2.909277 1_555
Co0 W2 2.909277 1_555
Co1 Co2 2.306209 1_555
Co1 Co3 2.313831 1_555
Co1 Co3 2.494337 1_455
Co1 Co2 2.590835 1_445
Co1 W3 2.679124 1_554
Co1 W0 2.679124 1_555
Co1 W2 2.732937 1_554
Co1 W1 2.732937 1_555
Co1 W2 2.793751 1_544
Co1 W1 2.793751 1_545
Co2 Co3 2.313831 1_555
Co2 Co3 2.494337 1_565
Co2 W3 2.679124 1_554
Co2 W0 2.679124 1_555
Co2 W2 2.732937 1_554
Co2 W1 2.732937 1_555
Co2 W2 2.793751 1_654
Co2 W1 2.793751 1_655
Co3 W0 2.678658 1_555
Co3 W3 2.678658 1_554
Co3 W2 2.802175 1_544
Co3 W1 2.802175 1_545
Co3 W2 2.802175 1_654
Co3 W1 2.802175 1_655
W0 W1 2.906235 1_555
W0 W1 2.977633 1_545
W0 W1 2.977633 1_655
W1 W2 2.722622 1_554
W2 W3 2.906235 1_555
W2 W3 2.977633 1_455
W2 W3 2.977633 1_565
