# generated using pymatgen
data_YPu3
_symmetry_space_group_name_H-M   'P 1'
_cell_length_a   6.86469006
_cell_length_b   6.86469006
_cell_length_c   5.58425100
_cell_angle_alpha   90.00000000
_cell_angle_beta   90.00000000
_cell_angle_gamma   120.00000059
_symmetry_Int_Tables_number   1
_chemical_formula_structural   YPu3
_chemical_formula_sum   'Y2 Pu6'
_cell_volume   227.89638029
_cell_formula_units_Z   2
loop_
 _symmetry_equiv_pos_site_id
 _symmetry_equiv_pos_as_xyz
  1  'x, y, z'
loop_
 _atom_site_type_symbol
 _atom_site_label
 _atom_site_symmetry_multiplicity
 _atom_site_fract_x
 _atom_site_fract_y
 _atom_site_fract_z
 _atom_site_occupancy
  Y  Y0  1  0.33333300  0.66666700  0.75000000  1
  Y  Y1  1  0.66666700  0.33333300  0.25000000  1
  Pu  Pu0  1  0.16273600  0.32547300  0.25000000  1
  Pu  Pu1  1  0.67452700  0.83726400  0.25000000  1
  Pu  Pu2  1  0.16273600  0.83726400  0.25000000  1
  Pu  Pu3  1  0.83726400  0.67452700  0.75000000  1
  Pu  Pu4  1  0.32547300  0.16273600  0.75000000  1
  Pu  Pu5  1  0.83726400  0.16273600  0.75000000  1
loop_
_geom_bond_atom_site_label_1
_geom_bond_atom_site_label_2
_geom_bond_distance
_geom_bond_site_symmetry_2
Pu0 Pu1 3.351403 1_445
Pu0 Pu2 3.351403 1_545
Pu0 Pu5 3.397045 1_455
Pu0 Pu5 3.397045 1_454
Pu0 Pu4 3.397052 1_554
Pu0 Pu4 3.397052 1_555
Pu0 Y1 3.432656 1_455
Pu0 Y1 3.432670 1_555
Pu0 Y0 3.451139 1_554
Pu0 Y0 3.451139 1_555
Pu0 Pu1 3.513287 1_555
Pu0 Pu2 3.513287 1_555
Pu1 Pu2 3.351403 1_655
Pu1 Pu5 3.397045 1_565
Pu1 Pu5 3.397045 1_564
Pu1 Pu3 3.397052 1_555
Pu1 Pu3 3.397052 1_554
Pu1 Y1 3.432656 1_565
Pu1 Y1 3.432670 1_555
Pu1 Y0 3.451139 1_554
Pu1 Y0 3.451139 1_555
Pu1 Pu2 3.513287 1_555
Pu2 Pu3 3.397045 1_455
Pu2 Pu4 3.397045 1_564
Pu2 Pu4 3.397045 1_565
Pu2 Pu3 3.397045 1_454
Pu2 Y1 3.432663 1_455
Pu2 Y1 3.432663 1_565
Pu2 Y0 3.451139 1_554
Pu2 Y0 3.451139 1_555
Pu3 Pu4 3.351403 1_665
Pu3 Pu5 3.351403 1_565
Pu3 Y0 3.432656 1_655
Pu3 Y0 3.432670 1_555
Pu3 Y1 3.451139 1_556
Pu3 Y1 3.451139 1_555
Pu3 Pu4 3.513287 1_555
Pu3 Pu5 3.513287 1_555
Pu4 Pu5 3.351403 1_455
Pu4 Y0 3.432656 1_545
Pu4 Y0 3.432670 1_555
Pu4 Y1 3.451139 1_555
Pu4 Y1 3.451139 1_556
Pu4 Pu5 3.513287 1_555
Pu5 Y0 3.432663 1_545
Pu5 Y0 3.432663 1_655
Pu5 Y1 3.451139 1_556
Pu5 Y1 3.451139 1_555
