# generated using pymatgen
data_Zr10Al6O
_symmetry_space_group_name_H-M   'P 1'
_cell_length_a   14.27185749
_cell_length_b   14.27185749
_cell_length_c   5.64609300
_cell_angle_alpha   90.00000000
_cell_angle_beta   90.00000000
_cell_angle_gamma   119.99999764
_symmetry_Int_Tables_number   1
_chemical_formula_structural   Zr10Al6O
_chemical_formula_sum   'Zr30 Al18 O3'
_cell_volume   995.95489486
_cell_formula_units_Z   3
loop_
 _symmetry_equiv_pos_site_id
 _symmetry_equiv_pos_as_xyz
  1  'x, y, z'
loop_
 _atom_site_type_symbol
 _atom_site_label
 _atom_site_symmetry_multiplicity
 _atom_site_fract_x
 _atom_site_fract_y
 _atom_site_fract_z
 _atom_site_occupancy
  Zr  Zr0  1  0.32297700  0.98375300  0.49470600  1
  Zr  Zr1  1  0.66077600  0.67702300  0.49470600  1
  Zr  Zr2  1  0.01624700  0.33922400  0.49470600  1
  Zr  Zr3  1  0.66077600  0.98375300  0.49470600  1
  Zr  Zr4  1  0.01624700  0.67702300  0.49470600  1
  Zr  Zr5  1  0.32297700  0.33922400  0.49470600  1
  Zr  Zr6  1  0.67461500  0.01615500  0.99485500  1
  Zr  Zr7  1  0.34154000  0.32538500  0.99485500  1
  Zr  Zr8  1  0.98384500  0.65846000  0.99485500  1
  Zr  Zr9  1  0.34154000  0.01615500  0.99485500  1
  Zr  Zr10  1  0.98384500  0.32538500  0.99485500  1
  Zr  Zr11  1  0.67461500  0.65846000  0.99485500  1
  Zr  Zr12  1  0.07854800  0.92145200  0.26076800  1
  Zr  Zr13  1  0.84290300  0.92145200  0.26076800  1
  Zr  Zr14  1  0.07854800  0.15709700  0.26076800  1
  Zr  Zr15  1  0.92274500  0.07725500  0.75357600  1
  Zr  Zr16  1  0.15451000  0.07725500  0.75357600  1
  Zr  Zr17  1  0.92274500  0.84549000  0.75357600  1
  Zr  Zr18  1  0.41140100  0.58859900  0.24574000  1
  Zr  Zr19  1  0.17719800  0.58859900  0.24574000  1
  Zr  Zr20  1  0.41140100  0.82280200  0.24574000  1
  Zr  Zr21  1  0.58870600  0.41129400  0.74215600  1
  Zr  Zr22  1  0.82258800  0.41129400  0.74215600  1
  Zr  Zr23  1  0.58870600  0.17741200  0.74215600  1
  Zr  Zr24  1  0.74394600  0.25605400  0.22857100  1
  Zr  Zr25  1  0.51210800  0.25605400  0.22857100  1
  Zr  Zr26  1  0.74394600  0.48789200  0.22857100  1
  Zr  Zr27  1  0.25573300  0.74426700  0.73001700  1
  Zr  Zr28  1  0.48853300  0.74426700  0.73001700  1
  Zr  Zr29  1  0.25573300  0.51146700  0.73001700  1
  Al  Al0  1  0.86733400  0.13266600  0.27677400  1
  Al  Al1  1  0.26533200  0.13266600  0.27677400  1
  Al  Al2  1  0.86733400  0.73466800  0.27677400  1
  Al  Al3  1  0.13250300  0.86749700  0.78629100  1
  Al  Al4  1  0.73499500  0.86749700  0.78629100  1
  Al  Al5  1  0.13250300  0.26500500  0.78629100  1
  Al  Al6  1  0.20061900  0.79938100  0.19802600  1
  Al  Al7  1  0.59876200  0.79938100  0.19802600  1
  Al  Al8  1  0.20061900  0.40123800  0.19802600  1
  Al  Al9  1  0.79973800  0.20026200  0.69765800  1
  Al  Al10  1  0.40052400  0.20026200  0.69765800  1
  Al  Al11  1  0.79973800  0.59947600  0.69765800  1
  Al  Al12  1  0.53363500  0.46636500  0.25334100  1
  Al  Al13  1  0.93272900  0.46636500  0.25334100  1
  Al  Al14  1  0.53363500  0.06727100  0.25334100  1
  Al  Al15  1  0.46615600  0.53384400  0.75330400  1
  Al  Al16  1  0.06768900  0.53384400  0.75330400  1
  Al  Al17  1  0.46615600  0.93231100  0.75330400  1
  O  O0  1  0.33333300  0.66666700  0.48486300  1
  O  O1  1  0.66666700  0.33333300  0.98516500  1
  O  O2  1  0.00000000  0.00000000  0.50832700  1
loop_
_geom_bond_atom_site_label_1
_geom_bond_atom_site_label_2
_geom_bond_distance
_geom_bond_site_symmetry_2
Al0 Zr14 2.857515 1_655
Al0 Zr13 2.857515 1_545
Al0 Zr6 2.879256 1_554
Al0 Zr10 2.879256 1_554
Al0 Al9 2.905012 1_555
Al0 Zr2 2.907936 1_655
Al0 Zr3 2.907936 1_545
Al0 Zr15 3.020499 1_555
Al0 Zr24 3.062218 1_555
Al0 Zr15 3.256139 1_554
Al1 Zr12 2.857521 1_545
Al1 Zr14 2.857529 1_555
Al1 Zr9 2.879256 1_554
Al1 Zr7 2.879256 1_554
Al1 Al10 2.905012 1_555
Al1 Zr0 2.907936 1_545
Al1 Zr5 2.907936 1_555
Al1 Zr16 3.020499 1_555
Al1 Zr25 3.062218 1_555
Al1 Zr16 3.256139 1_554
Al2 Zr12 2.857521 1_655
Al2 Zr13 2.857529 1_555
Al2 Zr8 2.879256 1_554
Al2 Zr11 2.879256 1_554
Al2 Zr4 2.907936 1_655
Al2 Zr1 2.907936 1_555
Al2 Zr17 3.020499 1_555
Al2 Zr26 3.062218 1_555
Al2 Zr17 3.256139 1_554
Al3 Zr16 2.855587 1_565
Al3 Zr17 2.855587 1_455
Al3 Al6 2.870432 1_556
Al3 Zr0 2.888372 1_555
Al3 Zr4 2.888372 1_555
Al3 Zr8 2.908399 1_455
Al3 Zr9 2.908399 1_565
Al3 Zr12 2.992591 1_556
Al3 Zr27 3.062719 1_555
Al3 Zr12 3.253132 1_555
Al4 Zr17 2.855573 1_555
Al4 Zr15 2.855582 1_565
Al4 Al7 2.870440 1_556
Al4 Zr1 2.888370 1_555
Al4 Zr3 2.888381 1_555
Al4 Zr11 2.908395 1_555
Al4 Zr6 2.908408 1_565
Al4 Zr13 2.992580 1_556
Al4 Zr28 3.062744 1_555
Al4 Zr13 3.253121 1_555
Al5 Zr16 2.855573 1_555
Al5 Zr15 2.855582 1_455
Al5 Al8 2.870440 1_556
Al5 Zr5 2.888370 1_555
Al5 Zr2 2.888381 1_555
Al5 Zr7 2.908395 1_555
Al5 Zr10 2.908408 1_455
Al5 Zr14 2.992580 1_556
Al5 Zr29 3.062744 1_555
Al5 Zr14 3.253121 1_555
Al6 Zr0 2.860814 1_555
Al6 Zr4 2.860814 1_555
Al6 Zr20 2.868508 1_555
Al6 Zr19 2.868508 1_555
Al6 Zr9 2.951276 1_564
Al6 Zr8 2.951276 1_454
Al6 Zr27 2.972964 1_554
Al6 Zr12 3.038267 1_555
Al6 Zr27 3.298205 1_555
Al7 Zr1 2.860814 1_555
Al7 Zr3 2.860814 1_555
Al7 Zr20 2.868508 1_555
Al7 Zr18 2.868508 1_555
Al7 Zr11 2.951276 1_554
Al7 Zr6 2.951276 1_564
Al7 Zr28 2.972970 1_554
Al7 Zr13 3.038254 1_555
Al7 Zr28 3.298210 1_555
Al8 Zr5 2.860814 1_555
Al8 Zr2 2.860814 1_555
Al8 Zr19 2.868508 1_555
Al8 Zr18 2.868508 1_555
Al8 Zr7 2.951276 1_554
Al8 Zr10 2.951276 1_454
Al8 Zr29 2.972970 1_554
Al8 Zr14 3.038254 1_555
Al8 Zr29 3.298210 1_555
Al9 Zr6 2.866435 1_555
Al9 Zr10 2.866435 1_555
Al9 Zr23 2.873731 1_555
Al9 Zr22 2.873731 1_555
Al9 Zr2 2.943829 1_655
Al9 Zr3 2.943829 1_545
Al9 Zr24 2.986079 1_555
Al9 Zr15 3.057028 1_555
Al9 Zr24 3.299633 1_556
Al10 Zr7 2.866435 1_555
Al10 Zr9 2.866435 1_555
Al10 Zr23 2.873731 1_555
Al10 Zr21 2.873731 1_555
Al10 Zr5 2.943829 1_555
Al10 Zr0 2.943829 1_545
Al10 Zr25 2.986079 1_555
Al10 Zr16 3.057029 1_555
Al10 Zr25 3.299633 1_556
Al11 Zr11 2.866435 1_555
Al11 Zr8 2.866435 1_555
Al11 Zr22 2.873731 1_555
Al11 Zr21 2.873731 1_555
Al11 Al2 2.905012 1_555
Al11 Zr1 2.943829 1_555
Al11 Zr4 2.943829 1_655
Al11 Zr26 2.986079 1_555
Al11 Zr17 3.057029 1_555
Al11 Zr26 3.299633 1_556
Al12 Zr7 2.859766 1_554
Al12 Zr11 2.859766 1_554
Al12 Zr25 2.863732 1_555
Al12 Zr26 2.863732 1_555
Al12 Zr1 2.955206 1_555
Al12 Zr5 2.955206 1_555
Al12 Zr18 3.021878 1_555
Al12 Zr21 3.077376 1_555
Al12 Zr21 3.191138 1_554
Al13 Zr8 2.859763 1_554
Al13 Zr10 2.859775 1_554
Al13 Zr26 2.863718 1_555
Al13 Zr24 2.863727 1_555
Al13 Zr4 2.955204 1_655
Al13 Zr2 2.955216 1_655
Al13 Zr19 3.021891 1_655
Al13 Zr22 3.077371 1_555
Al13 Zr22 3.191133 1_554
Al14 Zr9 2.859763 1_554
Al14 Zr6 2.859775 1_554
Al14 Zr25 2.863718 1_555
Al14 Zr24 2.863727 1_555
Al14 Zr0 2.955204 1_545
Al14 Zr3 2.955216 1_545
Al14 Zr20 3.021891 1_545
Al14 Zr23 3.077371 1_555
Al14 Zr23 3.191133 1_554
Al15 Zr29 2.859890 1_555
Al15 Zr28 2.859890 1_555
Al15 Zr1 2.889048 1_555
Al15 Zr5 2.889048 1_555
Al15 Zr7 2.929686 1_555
Al15 Zr11 2.929686 1_555
Al15 Zr21 3.030039 1_555
Al15 Zr18 3.092298 1_556
Al15 Zr18 3.169316 1_555
Al16 Zr29 2.859861 1_555
Al16 Zr27 2.859878 1_555
Al16 Zr2 2.889045 1_555
Al16 Zr4 2.889057 1_555
Al16 Zr10 2.929685 1_455
Al16 Zr8 2.929696 1_455
Al16 Zr22 3.030051 1_455
Al16 Zr19 3.092292 1_556
Al16 Zr19 3.169310 1_555
Al17 Zr28 2.859861 1_555
Al17 Zr27 2.859878 1_555
Al17 Zr3 2.889045 1_555
Al17 Zr0 2.889057 1_555
Al17 Zr6 2.929685 1_565
Al17 Zr9 2.929696 1_565
Al17 Zr23 3.030051 1_565
Al17 Zr20 3.092292 1_556
Al17 Zr20 3.169310 1_555
O0 Zr20 2.355188 1_555
O0 Zr19 2.355188 1_555
O0 Zr18 2.355198 1_555
O0 Zr27 2.365491 1_555
O0 Zr28 2.365491 1_555
O0 Zr29 2.365491 1_555
O1 Zr24 2.353284 1_556
O1 Zr25 2.353294 1_556
O1 Zr26 2.353294 1_556
O1 Zr22 2.365679 1_555
O1 Zr23 2.365679 1_555
O1 Zr21 2.365689 1_555
O2 Zr15 2.358895 1_455
O2 Zr17 2.358895 1_445
O2 Zr16 2.358895 1_555
O2 Zr12 2.392442 1_545
O2 Zr14 2.392452 1_555
O2 Zr13 2.392452 1_445
