# generated using pymatgen
data_Ca2Al4(Si2O7)3
_symmetry_space_group_name_H-M   'P 1'
_cell_length_a   17.63870300
_cell_length_b   6.53483000
_cell_length_c   9.46422143
_cell_angle_alpha   68.40420147
_cell_angle_beta   90.00000000
_cell_angle_gamma   90.00000000
_symmetry_Int_Tables_number   1
_chemical_formula_structural   Ca2Al4(Si2O7)3
_chemical_formula_sum   'Ca4 Al8 Si12 O42'
_cell_volume   1014.32469899
_cell_formula_units_Z   2
loop_
 _symmetry_equiv_pos_site_id
 _symmetry_equiv_pos_as_xyz
  1  'x, y, z'
loop_
 _atom_site_type_symbol
 _atom_site_label
 _atom_site_symmetry_multiplicity
 _atom_site_fract_x
 _atom_site_fract_y
 _atom_site_fract_z
 _atom_site_occupancy
  Ca  Ca0  1  0.59703500  0.68546100  0.96561700  1
  Ca  Ca1  1  0.40296500  0.68546100  0.46561700  1
  Ca  Ca2  1  0.87765100  0.99656300  0.61250900  1
  Ca  Ca3  1  0.12234900  0.99656300  0.11250900  1
  Al  Al0  1  0.84781800  0.33952500  0.76871400  1
  Al  Al1  1  0.15218200  0.33952500  0.26871400  1
  Al  Al2  1  0.66581800  0.73588800  0.26710000  1
  Al  Al3  1  0.33418200  0.73588800  0.76710000  1
  Al  Al4  1  0.59461400  0.53361200  0.66141600  1
  Al  Al5  1  0.40538600  0.53361200  0.16141600  1
  Al  Al6  1  0.90156500  0.09792400  0.17950800  1
  Al  Al7  1  0.09843500  0.09792400  0.67950800  1
  Si  Si0  1  0.64141800  0.99315300  0.50657600  1
  Si  Si1  1  0.35858200  0.99315300  0.00657600  1
  Si  Si2  1  0.88032600  0.61065900  0.95067700  1
  Si  Si3  1  0.11967400  0.61065900  0.45067700  1
  Si  Si4  1  0.77456400  0.95042200  0.02355700  1
  Si  Si5  1  0.22543600  0.95042200  0.52355700  1
  Si  Si6  1  0.73656000  0.35648800  0.52375800  1
  Si  Si7  1  0.26344000  0.35648800  0.02375800  1
  Si  Si8  1  0.98231600  0.99190100  0.92545700  1
  Si  Si9  1  0.01768400  0.99190100  0.42545700  1
  Si  Si10  1  0.53494900  0.42524200  0.38928000  1
  Si  Si11  1  0.46505100  0.42524200  0.88928000  1
  O  O0  1  0.87044000  0.59650100  0.77920400  1
  O  O1  1  0.12956000  0.59650100  0.27920400  1
  O  O2  1  0.64858100  0.89743400  0.37335000  1
  O  O3  1  0.35141900  0.89743400  0.87335000  1
  O  O4  1  0.61436600  0.79936900  0.66758100  1
  O  O5  1  0.38563400  0.79936900  0.16758100  1
  O  O6  1  0.88172800  0.37641900  0.08622000  1
  O  O7  1  0.11827200  0.37641900  0.58622000  1
  O  O8  1  0.81014700  0.77656400  0.94975200  1
  O  O9  1  0.18985300  0.77656400  0.44975200  1
  O  O10  1  0.72363800  0.09642600  0.53453400  1
  O  O11  1  0.27636200  0.09642600  0.03453400  1
  O  O12  1  0.96093300  0.73894000  0.94526800  1
  O  O13  1  0.03906700  0.73894000  0.44526800  1
  O  O14  1  0.57601600  0.18650700  0.45962400  1
  O  O15  1  0.42398400  0.18650700  0.95962400  1
  O  O16  1  0.98161500  0.02576700  0.08806200  1
  O  O17  1  0.01838500  0.02576700  0.58806200  1
  O  O18  1  0.52661400  0.53479500  0.52089300  1
  O  O19  1  0.47338600  0.53479500  0.02089300  1
  O  O20  1  0.77520200  0.19509700  0.89152900  1
  O  O21  1  0.22479800  0.19509700  0.39152900  1
  O  O22  1  0.73029800  0.52471400  0.35009400  1
  O  O23  1  0.26970200  0.52471400  0.85009400  1
  O  O24  1  0.92485700  0.15348600  0.79812700  1
  O  O25  1  0.07514300  0.15348600  0.29812700  1
  O  O26  1  0.58048000  0.59964300  0.24201100  1
  O  O27  1  0.41952000  0.59964300  0.74201100  1
  O  O28  1  0.82289300  0.94162100  0.17043600  1
  O  O29  1  0.17710700  0.94162100  0.67043600  1
  O  O30  1  0.67694100  0.41152800  0.63358100  1
  O  O31  1  0.32305900  0.41152800  0.13358100  1
  O  O32  1  0.82405900  0.34233200  0.58667200  1
  O  O33  1  0.17594100  0.34233200  0.08667200  1
  O  O34  1  0.68640300  0.86615900  0.06982100  1
  O  O35  1  0.31359700  0.86615900  0.56982100  1
  O  O36  1  0.07189300  0.03342700  0.87309600  1
  O  O37  1  0.92810700  0.03342700  0.37309600  1
  O  O38  1  0.55331900  0.40648400  0.84309700  1
  O  O39  1  0.44668100  0.40648400  0.34309700  1
  O  O40  1  0.68170700  0.37385000  0.07428000  1
  O  O41  1  0.31829300  0.37385000  0.57428000  1
loop_
_geom_bond_atom_site_label_1
_geom_bond_atom_site_label_2
_geom_bond_distance
_geom_bond_site_symmetry_2
Ca0 O19 2.370804 1_556
Ca0 O34 2.389360 1_556
Ca0 O40 2.427602 1_556
Ca0 O26 2.482458 1_556
Ca0 O38 2.611290 1_555
Ca0 O4 2.656728 1_555
Ca1 O18 2.370804 1_555
Ca1 O35 2.389360 1_555
Ca1 O41 2.427602 1_555
Ca1 O27 2.482458 1_555
Ca1 O39 2.611290 1_555
Ca1 O5 2.656728 1_555
Ca2 O37 2.362711 1_565
Ca2 O32 2.377432 1_565
Ca2 O24 2.481344 1_565
Ca2 O17 2.493910 1_665
Ca2 O0 2.510737 1_555
Ca2 O10 2.827689 1_565
Ca3 O36 2.362711 1_564
Ca3 O33 2.377432 1_565
Ca3 O25 2.481344 1_565
Ca3 O16 2.493910 1_465
Ca3 O1 2.510737 1_555
Ca3 O11 2.827689 1_565
Al0 O20 1.753532 1_555
Al0 O0 1.764038 1_555
Al0 O32 1.766645 1_555
Al0 O24 1.775641 1_555
Al1 O21 1.753532 1_555
Al1 O1 1.764038 1_555
Al1 O33 1.766645 1_555
Al1 O25 1.775641 1_555
Al2 O2 1.731905 1_555
Al2 O22 1.736945 1_555
Al2 O34 1.781169 1_555
Al2 O26 1.808449 1_555
Al3 O3 1.731905 1_555
Al3 O23 1.736945 1_555
Al3 O35 1.781169 1_555
Al3 O27 1.808449 1_555
Al4 O30 1.723167 1_555
Al4 O38 1.767987 1_555
Al4 O18 1.788818 1_555
Al4 O4 1.793160 1_555
Al5 O31 1.723167 1_555
Al5 O39 1.767987 1_555
Al5 O19 1.788818 1_555
Al5 O5 1.793160 1_555
Al6 O6 1.741049 1_555
Al6 O28 1.743802 1_545
Al6 O37 1.784712 1_555
Al6 O16 1.807059 1_555
Al7 O7 1.741049 1_555
Al7 O29 1.743802 1_545
Al7 O36 1.784712 1_555
Al7 O17 1.807059 1_555
O0 Si2 1.668281 1_555
O1 Si3 1.668281 1_555
O2 Si0 1.605493 1_555
O3 Si1 1.605493 1_556
O4 Si0 1.653121 1_555
O5 Si1 1.653121 1_555
O6 Si2 1.594950 1_554
O7 Si3 1.594950 1_555
O8 Si2 1.643414 1_555
O8 Si4 1.660366 1_556
O9 Si3 1.643414 1_555
O9 Si5 1.660366 1_555
O10 Si0 1.661370 1_545
O10 Si6 1.680159 1_555
O11 Si1 1.661370 1_545
O11 Si7 1.680159 1_555
O12 Si8 1.637638 1_555
O12 Si2 1.641735 1_555
O13 Si9 1.637638 1_555
O13 Si3 1.641735 1_555
O14 Si10 1.623968 1_555
O14 Si0 1.646659 1_545
O15 Si11 1.623968 1_555
O15 Si1 1.646659 1_546
O16 Si8 1.633444 1_544
O17 Si9 1.633444 1_545
O18 Si10 1.655936 1_555
O19 Si11 1.655936 1_554
O20 Si4 1.627056 1_546
O21 Si5 1.627056 1_545
O22 Si6 1.609994 1_555
O23 Si7 1.609994 1_556
O24 Si8 1.630246 1_545
O25 Si9 1.630246 1_545
O26 Si10 1.648393 1_555
O27 Si11 1.648393 1_555
O28 Si4 1.613540 1_555
O29 Si5 1.613540 1_555
O30 Si6 1.609582 1_555
O31 Si7 1.609582 1_555
O32 Si6 1.644548 1_555
O33 Si7 1.644548 1_555
O34 Si4 1.653969 1_555
O35 Si5 1.653969 1_555
O36 Si8 1.648240 1_445
O37 Si9 1.648240 1_645
O38 Si11 1.633876 1_555
O39 Si10 1.633876 1_555
