# generated using pymatgen
data_VAg(SO4)2
_symmetry_space_group_name_H-M   'P 1'
_cell_length_a   4.87127839
_cell_length_b   4.87127839
_cell_length_c   7.43785124
_cell_angle_alpha   88.77202784
_cell_angle_beta   88.77202784
_cell_angle_gamma   65.21732762
_symmetry_Int_Tables_number   1
_chemical_formula_structural   VAg(SO4)2
_chemical_formula_sum   'V1 Ag1 S2 O8'
_cell_volume   160.18906498
_cell_formula_units_Z   1
loop_
 _symmetry_equiv_pos_site_id
 _symmetry_equiv_pos_as_xyz
  1  'x, y, z'
loop_
 _atom_site_type_symbol
 _atom_site_label
 _atom_site_symmetry_multiplicity
 _atom_site_fract_x
 _atom_site_fract_y
 _atom_site_fract_z
 _atom_site_occupancy
  V  V0  1  0.00000000  0.00000000  0.00000000  1
  Ag  Ag0  1  0.00000000  0.00000000  0.50000000  1
  S  S0  1  0.36229200  0.36229200  0.78487300  1
  S  S1  1  0.63770800  0.63770800  0.21512700  1
  O  O0  1  0.29248700  0.29248700  0.60776000  1
  O  O1  1  0.70751300  0.70751300  0.39224000  1
  O  O2  1  0.70272600  0.23895400  0.80418700  1
  O  O3  1  0.29727400  0.76104600  0.19581300  1
  O  O4  1  0.76104600  0.29727400  0.19581300  1
  O  O5  1  0.23895400  0.70272600  0.80418700  1
  O  O6  1  0.24235000  0.24235000  0.93725000  1
  O  O7  1  0.75765000  0.75765000  0.06275000  1
loop_
_geom_bond_atom_site_label_1
_geom_bond_atom_site_label_2
_geom_bond_distance
_geom_bond_site_symmetry_2
Ag0 O0 2.549941 1_555
Ag0 O1 2.549941 1_445
Ag0 O5 2.670231 1_545
Ag0 O4 2.670231 1_455
Ag0 O3 2.670231 1_545
Ag0 O2 2.670231 1_455
O0 S0 1.449819 1_555
O1 S1 1.449819 1_555
O2 S0 1.517545 1_555
O2 V0 2.043944 1_656
O3 S1 1.517545 1_555
O3 V0 2.043944 1_565
O4 S1 1.517545 1_555
O4 V0 2.043944 1_655
O5 S0 1.517545 1_555
O5 V0 2.043944 1_566
O6 S0 1.482117 1_555
O6 V0 2.031364 1_556
O7 S1 1.482117 1_555
O7 V0 2.031364 1_665
