# generated using pymatgen
data_Ta2NbRe
_symmetry_space_group_name_H-M   'P 1'
_cell_length_a   4.58081063
_cell_length_b   4.58081063
_cell_length_c   4.58081063
_cell_angle_alpha   60.00000000
_cell_angle_beta   60.00000000
_cell_angle_gamma   60.00000000
_symmetry_Int_Tables_number   1
_chemical_formula_structural   Ta2NbRe
_chemical_formula_sum   'Ta2 Nb1 Re1'
_cell_volume   67.96917800
_cell_formula_units_Z   1
loop_
 _symmetry_equiv_pos_site_id
 _symmetry_equiv_pos_as_xyz
  1  'x, y, z'
loop_
 _atom_site_type_symbol
 _atom_site_label
 _atom_site_symmetry_multiplicity
 _atom_site_fract_x
 _atom_site_fract_y
 _atom_site_fract_z
 _atom_site_occupancy
  Ta  Ta0  1  0.25000000  0.25000000  0.25000000  1
  Ta  Ta1  1  0.75000000  0.75000000  0.75000000  1
  Nb  Nb0  1  0.50000000  0.50000000  0.50000000  1
  Re  Re0  1  -0.00000000  0.00000000  0.00000000  1
loop_
_geom_bond_atom_site_label_1
_geom_bond_atom_site_label_2
_geom_bond_distance
_geom_bond_site_symmetry_2
Nb0 Ta0 2.805162 1_565
Nb0 Ta0 2.805162 1_556
Nb0 Ta0 2.805162 1_555
Nb0 Ta1 2.805162 1_554
Nb0 Ta1 2.805162 1_455
Nb0 Ta1 2.805162 1_555
Nb0 Ta1 2.805162 1_545
Nb0 Ta0 2.805162 1_655
Nb0 Re0 3.239122 1_565
Nb0 Re0 3.239122 1_656
Nb0 Re0 3.239122 1_655
Nb0 Re0 3.239122 1_665
Nb0 Re0 3.239122 1_566
Nb0 Re0 3.239122 1_556
Re0 Ta1 2.805162 1_444
Re0 Ta0 2.805162 1_455
Re0 Ta0 2.805162 1_545
Re0 Ta0 2.805162 1_555
Re0 Ta0 2.805162 1_554
Re0 Ta1 2.805162 1_445
Re0 Ta1 2.805162 1_454
Re0 Ta1 2.805162 1_544
