# generated using pymatgen
data_La2ZrS5
_symmetry_space_group_name_H-M   'P 1'
_cell_length_a   7.43738499
_cell_length_b   8.22996241
_cell_length_c   11.57267077
_cell_angle_alpha   90.00000000
_cell_angle_beta   90.00000000
_cell_angle_gamma   90.00000000
_symmetry_Int_Tables_number   1
_chemical_formula_structural   La2ZrS5
_chemical_formula_sum   'La8 Zr4 S20'
_cell_volume   708.35622146
_cell_formula_units_Z   4
loop_
 _symmetry_equiv_pos_site_id
 _symmetry_equiv_pos_as_xyz
  1  'x, y, z'
loop_
 _atom_site_type_symbol
 _atom_site_label
 _atom_site_symmetry_multiplicity
 _atom_site_fract_x
 _atom_site_fract_y
 _atom_site_fract_z
 _atom_site_occupancy
  La  La0  1  0.55541689  0.00143516  0.32816966  1
  La  La1  1  0.94458311  0.49856484  0.82816966  1
  La  La2  1  0.44458311  0.50143516  0.67183034  1
  La  La3  1  0.05541689  0.99856484  0.17183034  1
  La  La4  1  0.44458311  0.99856484  0.67183034  1
  La  La5  1  0.05541689  0.50143516  0.17183034  1
  La  La6  1  0.55541689  0.49856484  0.32816966  1
  La  La7  1  0.94458311  0.00143516  0.82816966  1
  Zr  Zr0  1  0.57251897  0.75000000  0.00961290  1
  Zr  Zr1  1  0.92748103  0.75000000  0.50961290  1
  Zr  Zr2  1  0.42748103  0.25000000  0.99038710  1
  Zr  Zr3  1  0.07251897  0.25000000  0.49038710  1
  S  S0  1  0.83861004  0.75000000  0.29284539  1
  S  S1  1  0.66138996  0.75000000  0.79284539  1
  S  S2  1  0.16138996  0.25000000  0.70715461  1
  S  S3  1  0.33861004  0.25000000  0.20715461  1
  S  S4  1  0.67472847  0.03382405  0.07586033  1
  S  S5  1  0.82527153  0.46617595  0.57586033  1
  S  S6  1  0.32527153  0.53382405  0.92413967  1
  S  S7  1  0.17472847  0.96617595  0.42413967  1
  S  S8  1  0.32527153  0.96617595  0.92413967  1
  S  S9  1  0.17472847  0.53382405  0.42413967  1
  S  S10  1  0.67472847  0.46617595  0.07586033  1
  S  S11  1  0.82527153  0.03382405  0.57586033  1
  S  S12  1  0.35840235  0.75000000  0.19080478  1
  S  S13  1  0.14159765  0.75000000  0.69080478  1
  S  S14  1  0.64159765  0.25000000  0.80919522  1
  S  S15  1  0.85840235  0.25000000  0.30919522  1
  S  S16  1  0.94143699  0.75000000  0.00440594  1
  S  S17  1  0.55856301  0.75000000  0.50440594  1
  S  S18  1  0.05856301  0.25000000  0.99559406  1
  S  S19  1  0.44143699  0.25000000  0.49559406  1
loop_
_geom_bond_atom_site_label_1
_geom_bond_atom_site_label_2
_geom_bond_distance
_geom_bond_site_symmetry_2
La0 S17 2.905549 1_545
La0 S19 2.942365 1_555
La0 S3 2.957396 1_555
La0 S0 2.980817 1_545
La0 S12 2.992677 1_545
La0 S15 3.051380 1_555
La0 S7 3.055178 1_545
La0 S4 3.063372 1_555
La0 S11 3.509366 1_555
La1 S16 2.905549 1_556
La1 S18 2.942365 1_655
La1 S2 2.957396 1_655
La1 S1 2.980817 1_555
La1 S13 2.992677 1_655
La1 S14 3.051380 1_555
La1 S6 3.055178 1_655
La1 S5 3.063372 1_555
La1 S10 3.509366 1_556
La2 S19 2.905549 1_555
La2 S17 2.942365 1_555
La2 S1 2.957396 1_555
La2 S2 2.980817 1_555
La2 S14 2.992677 1_555
La2 S13 3.051380 1_555
La2 S5 3.055178 1_555
La2 S6 3.063372 1_555
La2 S9 3.509366 1_555
La3 S18 2.905549 1_564
La3 S16 2.942365 1_455
La3 S0 2.957396 1_455
La3 S3 2.980817 1_565
La3 S15 2.992677 1_465
La3 S12 3.051380 1_555
La3 S4 3.055178 1_465
La3 S7 3.063372 1_555
La3 S8 3.509366 1_554
La4 S19 2.905549 1_565
La4 S17 2.942365 1_555
La4 S1 2.957396 1_555
La4 S2 2.980817 1_565
La4 S14 2.992677 1_565
La4 S13 3.051380 1_555
La4 S11 3.055178 1_565
La4 S8 3.063372 1_555
La4 S7 3.509366 1_555
La5 S18 2.905549 1_554
La5 S16 2.942365 1_455
La5 S0 2.957396 1_455
La5 S3 2.980817 1_555
La5 S15 2.992677 1_455
La5 S12 3.051380 1_555
La5 S10 3.055178 1_455
La5 S9 3.063372 1_555
La5 S6 3.509366 1_554
La6 S17 2.905549 1_555
La6 S19 2.942365 1_555
La6 S3 2.957396 1_555
La6 S0 2.980817 1_555
La6 S12 2.992677 1_555
La6 S15 3.051380 1_555
La6 S9 3.055178 1_555
La6 S10 3.063372 1_555
La6 S5 3.509366 1_555
La7 S16 2.905549 1_546
La7 S18 2.942365 1_655
La7 S2 2.957396 1_655
La7 S1 2.980817 1_545
La7 S13 2.992677 1_645
La7 S14 3.051380 1_555
La7 S8 3.055178 1_645
La7 S11 3.063372 1_555
La7 S4 3.509366 1_556
S0 Zr1 2.594195 1_555
S1 Zr0 2.594195 1_556
S2 Zr3 2.594195 1_555
S3 Zr2 2.594195 1_554
S4 Zr0 2.573301 1_545
S4 Zr2 2.743201 1_554
S5 Zr1 2.573301 1_555
S5 Zr3 2.743201 1_655
S6 Zr2 2.573301 1_555
S6 Zr0 2.743201 1_556
S7 Zr3 2.573301 1_565
S7 Zr1 2.743201 1_455
S8 Zr2 2.573301 1_565
S8 Zr0 2.743201 1_556
S9 Zr3 2.573301 1_555
S9 Zr1 2.743201 1_455
S10 Zr0 2.573301 1_555
S10 Zr2 2.743201 1_554
S11 Zr1 2.573301 1_545
S11 Zr3 2.743201 1_655
S12 Zr0 2.633028 1_555
S13 Zr1 2.633028 1_455
S14 Zr2 2.633028 1_555
S15 Zr3 2.633028 1_655
S16 Zr0 2.744447 1_555
S17 Zr1 2.744447 1_555
S18 Zr2 2.744447 1_555
S19 Zr3 2.744447 1_555
