# generated using pymatgen
data_SrCuOF2
_symmetry_space_group_name_H-M   'P 1'
_cell_length_a   5.67689470
_cell_length_b   5.67689470
_cell_length_c   5.67689470
_cell_angle_alpha   118.57671973
_cell_angle_beta   118.57671973
_cell_angle_gamma   92.48339461
_symmetry_Int_Tables_number   1
_chemical_formula_structural   SrCuOF2
_chemical_formula_sum   'Sr2 Cu2 O2 F4'
_cell_volume   132.01408212
_cell_formula_units_Z   2
loop_
 _symmetry_equiv_pos_site_id
 _symmetry_equiv_pos_as_xyz
  1  'x, y, z'
loop_
 _atom_site_type_symbol
 _atom_site_label
 _atom_site_symmetry_multiplicity
 _atom_site_fract_x
 _atom_site_fract_y
 _atom_site_fract_z
 _atom_site_occupancy
  Sr  Sr0  1  0.75000000  0.25000000  0.50000000  1
  Sr  Sr1  1  0.25000000  0.75000000  0.50000000  1
  Cu  Cu0  1  0.50000000  0.50000000  0.00000000  1
  Cu  Cu1  1  0.00000000  0.00000000  0.00000000  1
  O  O0  1  0.75000000  0.75000000  0.00000000  1
  O  O1  1  0.25000000  0.25000000  0.00000000  1
  F  F0  1  0.81597800  0.31597800  0.13195700  1
  F  F1  1  0.31597800  0.18402200  0.50000000  1
  F  F2  1  0.18402200  0.68402200  0.86804300  1
  F  F3  1  0.68402200  0.81597800  0.50000000  1
loop_
_geom_bond_atom_site_label_1
_geom_bond_atom_site_label_2
_geom_bond_distance
_geom_bond_site_symmetry_2
Cu0 O1 1.963121 1_555
Cu0 O0 1.963121 1_555
Cu0 F3 2.120300 1_555
Cu0 F1 2.120300 1_554
Cu0 F0 2.120302 1_555
Cu0 F2 2.120302 1_554
Cu1 O0 1.963121 1_445
Cu1 O1 1.963121 1_555
Cu1 F1 2.120300 1_555
Cu1 F3 2.120300 1_444
Cu1 F2 2.120302 1_544
Cu1 F0 2.120302 1_455
O0 Sr0 2.899290 1_565
O0 Sr1 2.899290 1_655
O0 Sr0 2.899290 1_554
O0 Sr1 2.899290 1_554
O1 Sr1 2.899290 1_544
O1 Sr0 2.899290 1_555
O1 Sr0 2.899290 1_454
O1 Sr1 2.899290 1_555
F0 Sr0 2.476101 1_555
F0 Sr1 2.476107 1_655
F1 Sr1 2.476106 1_545
F1 Sr0 2.476106 1_555
F2 Sr1 2.476101 1_555
F2 Sr0 2.476107 1_455
F3 Sr0 2.476106 1_565
F3 Sr1 2.476106 1_555
