# generated using pymatgen
data_MgCr2Sb2(PO4)4
_symmetry_space_group_name_H-M   'P 1'
_cell_length_a   11.04842509
_cell_length_b   6.53314560
_cell_length_c   4.89938265
_cell_angle_alpha   90.59811725
_cell_angle_beta   89.51097694
_cell_angle_gamma   94.70632861
_symmetry_Int_Tables_number   1
_chemical_formula_structural   MgCr2Sb2(PO4)4
_chemical_formula_sum   'Mg1 Cr2 Sb2 P4 O16'
_cell_volume   352.42016128
_cell_formula_units_Z   1
loop_
 _symmetry_equiv_pos_site_id
 _symmetry_equiv_pos_as_xyz
  1  'x, y, z'
loop_
 _atom_site_type_symbol
 _atom_site_label
 _atom_site_symmetry_multiplicity
 _atom_site_fract_x
 _atom_site_fract_y
 _atom_site_fract_z
 _atom_site_occupancy
  Mg  Mg0  1  0.50000000  0.00000000  0.50000000  1
  Cr  Cr0  1  0.19447300  0.77740300  0.39607500  1
  Cr  Cr1  1  0.80552700  0.22259800  0.60392500  1
  Sb  Sb0  1  0.27325500  0.30425900  0.97470300  1
  Sb  Sb1  1  0.72674500  0.69574100  0.02529700  1
  P  P0  1  0.09630500  0.25404000  0.42390800  1
  P  P1  1  0.37650500  0.79218100  0.88916700  1
  P  P2  1  0.62349500  0.20781900  0.11083300  1
  P  P3  1  0.90369500  0.74596000  0.57609200  1
  O  O0  1  0.03898800  0.76198100  0.61891700  1
  O  O1  1  0.12362200  0.25680500  0.73465300  1
  O  O2  1  0.16400800  0.08240100  0.27134900  1
  O  O3  1  0.16276400  0.45069500  0.28024100  1
  O  O4  1  0.33919900  0.99060600  0.74027400  1
  O  O5  1  0.28253700  0.61424000  0.79156200  1
  O  O6  1  0.36857400  0.80986900  0.20591200  1
  O  O7  1  0.49501000  0.23510400  0.22143300  1
  O  O8  1  0.50499000  0.76489600  0.77856700  1
  O  O9  1  0.63142600  0.19013100  0.79408800  1
  O  O10  1  0.66080100  0.00939400  0.25972600  1
  O  O11  1  0.71746300  0.38576000  0.20843800  1
  O  O12  1  0.83723600  0.54930500  0.71975900  1
  O  O13  1  0.83599200  0.91759900  0.72865100  1
  O  O14  1  0.87637800  0.74319500  0.26534700  1
  O  O15  1  0.96101200  0.23801900  0.38108300  1
loop_
_geom_bond_atom_site_label_1
_geom_bond_atom_site_label_2
_geom_bond_distance
_geom_bond_site_symmetry_2
Mg0 O7 2.069754 1_555
Mg0 O8 2.069754 1_545
Mg0 O10 2.119851 1_555
Mg0 O4 2.119851 1_545
Mg0 O6 2.330196 1_545
Mg0 O9 2.330196 1_555
Cr0 O0 2.023633 1_555
Cr0 O6 2.125939 1_555
Cr0 O2 2.143862 1_565
Cr0 O3 2.203634 1_555
Cr0 O5 2.466355 1_555
Cr0 O4 2.640500 1_555
Cr1 O15 2.023633 1_555
Cr1 O9 2.125939 1_555
Cr1 O13 2.143868 1_545
Cr1 O12 2.203627 1_555
Cr1 O11 2.466352 1_555
Cr1 O10 2.640503 1_555
O0 P3 1.506171 1_455
O1 P0 1.554243 1_555
O1 Sb0 2.038109 1_555
O2 P0 1.576770 1_555
O2 Sb0 2.323142 1_554
O3 P0 1.593894 1_555
O3 Sb0 2.185610 1_554
O4 P1 1.579584 1_555
O4 Sb0 2.496108 1_565
O5 P1 1.567415 1_555
O5 Sb0 2.217915 1_555
O6 P1 1.557203 1_554
O7 P2 1.538480 1_555
O8 P1 1.538480 1_555
O9 P2 1.557203 1_556
O10 P2 1.579584 1_555
O10 Sb1 2.496108 1_545
O11 P2 1.567415 1_555
O11 Sb1 2.217915 1_555
O12 P3 1.593894 1_555
O12 Sb1 2.185610 1_556
O13 P3 1.576770 1_555
O13 Sb1 2.323142 1_556
O14 P3 1.554243 1_555
O14 Sb1 2.038109 1_555
O15 P0 1.506171 1_655
