# generated using pymatgen
data_BaSmEuSbO6
_symmetry_space_group_name_H-M   'P 1'
_cell_length_a   8.51920032
_cell_length_b   8.52216004
_cell_length_c   8.50785355
_cell_angle_alpha   90.00000000
_cell_angle_beta   90.00000000
_cell_angle_gamma   90.00000000
_symmetry_Int_Tables_number   1
_chemical_formula_structural   BaSmEuSbO6
_chemical_formula_sum   'Ba4 Sm4 Eu4 Sb4 O24'
_cell_volume   617.68708594
_cell_formula_units_Z   4
loop_
 _symmetry_equiv_pos_site_id
 _symmetry_equiv_pos_as_xyz
  1  'x, y, z'
loop_
 _atom_site_type_symbol
 _atom_site_label
 _atom_site_symmetry_multiplicity
 _atom_site_fract_x
 _atom_site_fract_y
 _atom_site_fract_z
 _atom_site_occupancy
  Ba  Ba0  1  0.00000000  0.00000000  -0.00000000  1
  Ba  Ba1  1  0.50000000  0.50000000  0.50000000  1
  Ba  Ba2  1  0.00000000  0.50000000  -0.00000000  1
  Ba  Ba3  1  0.00000000  0.00000000  0.50000000  1
  Sm  Sm0  1  0.25277647  0.25064722  0.25061433  1
  Sm  Sm1  1  0.74722353  0.74935278  0.25061433  1
  Sm  Sm2  1  0.74722353  0.25064722  0.74938567  1
  Sm  Sm3  1  0.25277647  0.74935278  0.74938567  1
  Eu  Eu0  1  0.00000000  0.50000000  0.50000000  1
  Eu  Eu1  1  0.50000000  0.00000000  0.50000000  1
  Eu  Eu2  1  0.50000000  0.50000000  -0.00000000  1
  Eu  Eu3  1  0.50000000  0.00000000  -0.00000000  1
  Sb  Sb0  1  0.74655940  0.74900145  0.74999381  1
  Sb  Sb1  1  0.25344060  0.25099855  0.74999381  1
  Sb  Sb2  1  0.25344060  0.74900145  0.25000619  1
  Sb  Sb3  1  0.74655940  0.25099855  0.25000619  1
  O  O0  1  0.98204786  0.22442073  0.27298000  1
  O  O1  1  0.01795214  0.77557927  0.27298000  1
  O  O2  1  0.01795214  0.22442073  0.72702000  1
  O  O3  1  0.98204786  0.77557927  0.72702000  1
  O  O4  1  0.28538289  0.98276430  0.21669415  1
  O  O5  1  0.28538289  0.01723570  0.78330585  1
  O  O6  1  0.71461711  0.01723570  0.21669415  1
  O  O7  1  0.71461711  0.98276430  0.78330585  1
  O  O8  1  0.22731946  0.27631152  0.98407369  1
  O  O9  1  0.77268054  0.27631152  0.01592631  1
  O  O10  1  0.22731946  0.72368848  0.01592631  1
  O  O11  1  0.77268054  0.72368848  0.98407369  1
  O  O12  1  0.51621866  0.28975748  0.21612408  1
  O  O13  1  0.48378134  0.71024252  0.21612408  1
  O  O14  1  0.48378134  0.28975748  0.78387592  1
  O  O15  1  0.51621866  0.71024252  0.78387592  1
  O  O16  1  0.21927403  0.51753172  0.28953453  1
  O  O17  1  0.21927403  0.48246828  0.71046547  1
  O  O18  1  0.78072597  0.48246828  0.28953453  1
  O  O19  1  0.78072597  0.51753172  0.71046547  1
  O  O20  1  0.28902323  0.21489235  0.51820279  1
  O  O21  1  0.71097677  0.21489235  0.48179721  1
  O  O22  1  0.28902323  0.78510765  0.48179721  1
  O  O23  1  0.71097677  0.78510765  0.51820279  1
loop_
_geom_bond_atom_site_label_1
_geom_bond_atom_site_label_2
_geom_bond_distance
_geom_bond_site_symmetry_2
Ba0 O3 3.012494 1_444
Ba0 O2 3.012494 1_554
Ba0 O1 3.012494 1_545
Ba0 O0 3.012494 1_455
Ba0 O9 3.051827 1_455
Ba0 O11 3.051827 1_444
Ba0 O10 3.051827 1_545
Ba0 O8 3.051827 1_554
Ba0 O6 3.054725 1_455
Ba0 O5 3.054725 1_554
Ba0 O7 3.054725 1_444
Ba0 O4 3.054725 1_545
Ba1 O18 2.991349 1_555
Ba1 O16 2.991349 1_555
Ba1 O19 2.991349 1_555
Ba1 O17 2.991349 1_555
Ba1 O15 3.010386 1_555
Ba1 O14 3.010386 1_555
Ba1 O12 3.010386 1_555
Ba1 O13 3.010386 1_555
Ba1 O20 3.026230 1_555
Ba1 O21 3.026230 1_555
Ba1 O23 3.026230 1_555
Ba1 O22 3.026230 1_555
Ba2 O11 2.720793 1_454
Ba2 O8 2.720793 1_554
Ba2 O9 2.720793 1_455
Ba2 O10 2.720793 1_555
Ba2 O17 3.095129 1_554
Ba2 O19 3.095129 1_454
Ba2 O16 3.095129 1_555
Ba2 O18 3.095129 1_455
Ba2 O2 3.306489 1_554
Ba2 O3 3.306489 1_454
Ba2 O0 3.306489 1_455
Ba2 O1 3.306489 1_555
Ba3 O1 2.722452 1_545
Ba3 O0 2.722452 1_455
Ba3 O3 2.722452 1_445
Ba3 O2 2.722452 1_555
Ba3 O23 3.072536 1_445
Ba3 O22 3.072536 1_545
Ba3 O21 3.072536 1_455
Ba3 O20 3.072536 1_555
Eu0 O18 2.591944 1_455
Eu0 O16 2.591944 1_555
Eu0 O17 2.591944 1_555
Eu0 O19 2.591944 1_455
Eu0 O1 3.044585 1_555
Eu0 O0 3.044585 1_455
Eu0 O2 3.044585 1_555
Eu0 O3 3.044585 1_455
Eu1 O22 2.570660 1_545
Eu1 O20 2.570660 1_555
Eu1 O21 2.570660 1_555
Eu1 O23 2.570660 1_545
Eu1 O5 3.028888 1_555
Eu1 O6 3.028888 1_555
Eu1 O4 3.028888 1_545
Eu1 O7 3.028888 1_545
Eu2 O15 2.571062 1_554
Eu2 O14 2.571062 1_554
Eu2 O12 2.571062 1_555
Eu2 O13 2.571062 1_555
Eu2 O11 3.008122 1_554
Eu2 O8 3.008122 1_554
Eu2 O10 3.008122 1_555
Eu2 O9 3.008122 1_555
Eu3 O5 2.600647 1_554
Eu3 O6 2.600647 1_555
Eu3 O4 2.600647 1_545
Eu3 O7 2.600647 1_544
Eu3 O14 3.081856 1_554
Eu3 O13 3.081856 1_545
Eu3 O12 3.081856 1_555
Eu3 O15 3.081856 1_544
O0 Sb3 2.028358 1_555
O0 Sm0 2.324995 1_655
O1 Sb2 2.028358 1_555
O1 Sm1 2.324995 1_455
O2 Sb1 2.028358 1_555
O2 Sm2 2.324995 1_455
O3 Sb0 2.028358 1_555
O3 Sm3 2.324995 1_655
O4 Sb2 2.030540 1_555
O4 Sm0 2.317815 1_565
O5 Sb1 2.030540 1_555
O5 Sm3 2.317815 1_545
O6 Sb3 2.030540 1_555
O6 Sm1 2.317815 1_545
O7 Sb0 2.030540 1_555
O7 Sm2 2.317815 1_565
O8 Sb1 2.015489 1_555
O8 Sm0 2.288511 1_556
O9 Sb3 2.015489 1_555
O9 Sm2 2.288511 1_554
O10 Sb2 2.015489 1_555
O10 Sm3 2.288511 1_554
O11 Sb0 2.015489 1_555
O11 Sm1 2.288511 1_556
O12 Sb3 2.010695 1_555
O12 Sm0 2.287828 1_555
O13 Sb2 2.010695 1_555
O13 Sm1 2.287828 1_555
O14 Sb1 2.010695 1_555
O14 Sm2 2.287828 1_555
O15 Sb0 2.010695 1_555
O15 Sm3 2.287828 1_555
O16 Sb2 2.022142 1_555
O16 Sm0 2.316063 1_555
O17 Sb1 2.022142 1_555
O17 Sm3 2.316063 1_555
O18 Sb3 2.022142 1_555
O18 Sm1 2.316063 1_555
O19 Sb0 2.022142 1_555
O19 Sm2 2.316063 1_555
O20 Sb1 2.018794 1_555
O20 Sm0 2.317569 1_555
O21 Sb3 2.018794 1_555
O21 Sm2 2.317569 1_555
O22 Sb2 2.018794 1_555
O22 Sm3 2.317569 1_555
O23 Sb0 2.018794 1_555
O23 Sm1 2.317569 1_555
