# generated using pymatgen
data_K2V6CdCu9O26
_symmetry_space_group_name_H-M   'P 1'
_cell_length_a   6.22257300
_cell_length_b   8.36389931
_cell_length_c   10.92519011
_cell_angle_alpha   97.67240006
_cell_angle_beta   90.00000000
_cell_angle_gamma   90.00000000
_symmetry_Int_Tables_number   1
_chemical_formula_structural   K2V6CdCu9O26
_chemical_formula_sum   'K2 V6 Cd1 Cu9 O26'
_cell_volume   563.51090501
_cell_formula_units_Z   1
loop_
 _symmetry_equiv_pos_site_id
 _symmetry_equiv_pos_as_xyz
  1  'x, y, z'
loop_
 _atom_site_type_symbol
 _atom_site_label
 _atom_site_symmetry_multiplicity
 _atom_site_fract_x
 _atom_site_fract_y
 _atom_site_fract_z
 _atom_site_occupancy
  K  K0  1  0.25000000  0.98847700  0.60567400  1
  K  K1  1  0.75000000  0.01733700  0.39854600  1
  V  V0  1  0.25000000  0.36151300  0.50006700  1
  V  V1  1  0.75000000  0.63304200  0.50471900  1
  V  V2  1  0.25000000  0.03461700  0.20702400  1
  V  V3  1  0.75000000  0.97155700  0.78911800  1
  V  V4  1  0.25000000  0.32111000  0.87984400  1
  V  V5  1  0.75000000  0.67848000  0.11968900  1
  Cd  Cd0  1  0.25000000  0.69342500  0.36420100  1
  Cu  Cu0  1  0.25000000  0.64267100  0.05991800  1
  Cu  Cu1  1  0.75000000  0.35637300  0.93552000  1
  Cu  Cu2  1  0.25000000  0.89600500  0.89601300  1
  Cu  Cu3  1  0.75000000  0.10379300  0.10368500  1
  Cu  Cu4  1  0.50392000  0.39005700  0.22461700  1
  Cu  Cu5  1  0.99899500  0.60588400  0.77405700  1
  Cu  Cu6  1  0.50100500  0.60588400  0.77405700  1
  Cu  Cu7  1  0.99608000  0.39005700  0.22461700  1
  Cu  Cu8  1  0.75000000  0.30097800  0.63058400  1
  O  O0  1  0.25000000  0.42143500  0.33506100  1
  O  O1  1  0.75000000  0.54669500  0.66317100  1
  O  O2  1  0.25000000  0.11699600  0.87757200  1
  O  O3  1  0.75000000  0.88134600  0.12042100  1
  O  O4  1  0.49179300  0.37952100  0.80696300  1
  O  O5  1  0.99172000  0.62159700  0.19352400  1
  O  O6  1  0.50828000  0.62159700  0.19352400  1
  O  O7  1  0.00820700  0.37952100  0.80696300  1
  O  O8  1  0.25000000  0.52834500  0.60646900  1
  O  O9  1  0.75000000  0.47609400  0.38939300  1
  O  O10  1  0.47703200  0.25196000  0.52546200  1
  O  O11  1  0.96733800  0.75422500  0.48814700  1
  O  O12  1  0.53266200  0.75422500  0.48814700  1
  O  O13  1  0.02296800  0.25196000  0.52546200  1
  O  O14  1  0.25000000  0.41020900  0.03327500  1
  O  O15  1  0.75000000  0.58796500  0.96581200  1
  O  O16  1  0.25000000  0.87956000  0.07868600  1
  O  O17  1  0.75000000  0.12089000  0.92131500  1
  O  O18  1  0.48285700  0.15630700  0.21195000  1
  O  O19  1  0.97714400  0.84221500  0.78392400  1
  O  O20  1  0.52285600  0.84221500  0.78392400  1
  O  O21  1  0.01714300  0.15630700  0.21195000  1
  O  O22  1  0.25000000  0.65803200  0.87754900  1
  O  O23  1  0.75000000  0.34362400  0.11527700  1
  O  O24  1  0.25000000  0.95068300  0.33975700  1
  O  O25  1  0.75000000  0.07521700  0.66435300  1
loop_
_geom_bond_atom_site_label_1
_geom_bond_atom_site_label_2
_geom_bond_distance
_geom_bond_site_symmetry_2
K0 O12 2.812349 1_555
K0 O11 2.812349 1_455
K0 O10 2.852351 1_565
K0 O13 2.852351 1_565
K0 O24 2.880080 1_555
K0 O20 2.967795 1_555
K0 O19 2.967795 1_455
K0 O2 3.021082 1_565
K0 O25 3.239325 1_465
K0 O25 3.239325 1_565
K1 O13 2.816389 1_655
K1 O10 2.816389 1_555
K1 O11 2.864488 1_545
K1 O12 2.864488 1_545
K1 O25 2.879608 1_555
K1 O21 2.983771 1_655
K1 O18 2.983771 1_555
K1 O3 3.098995 1_545
K1 O24 3.210578 1_645
K1 O24 3.210578 1_545
Cd0 O24 2.203288 1_555
Cd0 O12 2.236533 1_555
Cd0 O11 2.236533 1_455
Cd0 O0 2.254579 1_555
Cd0 O5 2.474228 1_455
Cd0 O6 2.474228 1_555
Cu0 O14 1.927140 1_555
Cu0 O16 1.964479 1_555
Cu0 O22 2.013599 1_554
Cu0 O5 2.193944 1_455
Cu0 O6 2.193944 1_555
Cu1 O15 1.921034 1_555
Cu1 O17 1.954896 1_555
Cu1 O23 1.980936 1_556
Cu1 O7 2.159690 1_655
Cu1 O4 2.159690 1_555
Cu2 O2 1.885845 1_565
Cu2 O22 1.973602 1_555
Cu2 O16 2.018708 1_556
Cu2 O20 2.106579 1_555
Cu2 O19 2.106579 1_455
Cu3 O3 1.893626 1_545
Cu3 O23 1.992970 1_555
Cu3 O17 2.016504 1_554
Cu3 O21 2.053423 1_655
Cu3 O18 2.053423 1_555
Cu4 O18 1.945855 1_555
Cu4 O23 1.949013 1_555
Cu4 O0 1.984129 1_555
Cu4 O6 2.010502 1_555
Cu4 O9 2.399460 1_555
Cu4 O14 2.643667 1_555
Cu5 O22 1.943320 1_655
Cu5 O19 1.969861 1_555
Cu5 O7 1.974531 1_655
Cu5 O1 1.988255 1_555
Cu5 O8 2.428036 1_655
Cu5 O15 2.625979 1_555
Cu6 O22 1.943320 1_555
Cu6 O20 1.969861 1_555
Cu6 O4 1.974531 1_555
Cu6 O1 1.988255 1_555
Cu6 O8 2.428036 1_555
Cu6 O15 2.625979 1_555
Cu7 O21 1.945855 1_655
Cu7 O23 1.949013 1_555
Cu7 O0 1.984129 1_655
Cu7 O5 2.010502 1_555
Cu7 O9 2.399460 1_555
Cu7 O14 2.643667 1_655
Cu8 O25 1.971696 1_555
Cu8 O1 2.038389 1_555
Cu8 O13 2.060698 1_655
Cu8 O10 2.060698 1_555
Cu8 O7 2.527507 1_655
Cu8 O4 2.527507 1_555
O0 V0 1.934486 1_555
O1 V1 1.962694 1_555
O2 V4 1.704053 1_555
O3 V5 1.695702 1_555
O4 V4 1.800079 1_555
O5 V5 1.800530 1_555
O6 V5 1.800530 1_555
O7 V4 1.800079 1_555
O8 V0 1.692704 1_555
O9 V1 1.693823 1_555
O10 V0 1.726335 1_555
O11 V1 1.714082 1_555
O12 V1 1.714082 1_555
O13 V0 1.726335 1_555
O14 V4 1.741164 1_554
O15 V5 1.749147 1_556
O16 V2 1.778284 1_565
O17 V3 1.778842 1_545
O18 V2 1.767401 1_555
O19 V3 1.776199 1_555
O20 V3 1.776199 1_555
O21 V2 1.767401 1_555
O24 V2 1.693381 1_565
O25 V3 1.710334 1_545
