# generated using pymatgen
data_Al4Fe2CuP4(H8O13)2
_symmetry_space_group_name_H-M   'P 1'
_cell_length_a   7.61284500
_cell_length_b   7.69315990
_cell_length_c   9.88402495
_cell_angle_alpha   92.40454510
_cell_angle_beta   110.29259796
_cell_angle_gamma   114.49957909
_symmetry_Int_Tables_number   1
_chemical_formula_structural   Al4Fe2CuP4(H8O13)2
_chemical_formula_sum   'Al4 Fe2 Cu1 P4 H16 O26'
_cell_volume   482.21684902
_cell_formula_units_Z   1
loop_
 _symmetry_equiv_pos_site_id
 _symmetry_equiv_pos_as_xyz
  1  'x, y, z'
loop_
 _atom_site_type_symbol
 _atom_site_label
 _atom_site_symmetry_multiplicity
 _atom_site_fract_x
 _atom_site_fract_y
 _atom_site_fract_z
 _atom_site_occupancy
  Al  Al0  1  0.05718000  0.27186000  0.25526800  1
  Al  Al1  1  0.94282000  0.72814000  0.74473200  1
  Al  Al2  1  0.55165000  0.76125000  0.72328800  1
  Al  Al3  1  0.44835000  0.23875000  0.27671200  1
  Fe  Fe0  1  0.26120100  0.25097300  0.75092100  1
  Fe  Fe1  1  0.73879900  0.74902700  0.24907900  1
  Cu  Cu0  1  0.00000000  0.00000000  0.00000000  1
  P  P0  1  0.67344000  0.34905100  0.05486400  1
  P  P1  1  0.32656000  0.65094900  0.94513600  1
  P  P2  1  0.14019700  0.82586000  0.56162400  1
  P  P3  1  0.85980300  0.17414000  0.43837600  1
  H  H0  1  0.26228000  0.63529500  0.42109600  1
  H  H1  1  0.73772000  0.36470500  0.57890400  1
  H  H2  1  0.27069800  0.14947000  0.45966800  1
  H  H3  1  0.72930200  0.85053000  0.54033200  1
  H  H4  1  0.73460900  0.98011200  0.08291700  1
  H  H5  1  0.26539100  0.01988800  0.91708300  1
  H  H6  1  0.33471100  0.43539500  0.56243700  1
  H  H7  1  0.66528900  0.56460500  0.43756300  1
  H  H8  1  0.61630200  0.42603000  0.66611700  1
  H  H9  1  0.38369800  0.57397000  0.33388300  1
  H  H10  1  0.19998400  0.87128400  0.27048400  1
  H  H11  1  0.80001600  0.12871600  0.72951600  1
  H  H12  1  0.76952400  0.65904100  0.94435000  1
  H  H13  1  0.23047600  0.34095900  0.05565000  1
  H  H14  1  0.65732400  0.13774300  0.81665300  1
  H  H15  1  0.34267600  0.86225700  0.18334700  1
  O  O0  1  0.79968500  0.74306300  0.87222500  1
  O  O1  1  0.20031500  0.25693700  0.12777500  1
  O  O2  1  0.32108700  0.76384800  0.57457100  1
  O  O3  1  0.67891300  0.23615200  0.42542900  1
  O  O4  1  0.01592400  0.77557700  0.38700100  1
  O  O5  1  0.98407600  0.22442300  0.61299900  1
  O  O6  1  0.55565900  0.26916800  0.88473400  1
  O  O7  1  0.44434100  0.73083200  0.11526600  1
  O  O8  1  0.41764100  0.47696400  0.66954500  1
  O  O9  1  0.58235900  0.52303600  0.33045500  1
  O  O10  1  0.72791800  0.56936600  0.08926700  1
  O  O11  1  0.27208200  0.43063400  0.91073300  1
  O  O12  1  0.47235900  0.77852500  0.87457300  1
  O  O13  1  0.52764100  0.22147500  0.12542700  1
  O  O14  1  0.27765000  0.22337200  0.37955900  1
  O  O15  1  0.72235000  0.77662800  0.62044100  1
  O  O16  1  0.86974500  0.98860200  0.15022800  1
  O  O17  1  0.13025500  0.01139800  0.84977200  1
  O  O18  1  0.71772800  0.05690800  0.78515200  1
  O  O19  1  0.28227200  0.94309200  0.21484800  1
  O  O20  1  0.25663900  0.05841600  0.60685200  1
  O  O21  1  0.74336100  0.94158400  0.39314800  1
  O  O22  1  0.87566000  0.32705500  0.10939200  1
  O  O23  1  0.12434000  0.67294500  0.89060800  1
  O  O24  1  0.24190500  0.54878600  0.33062100  1
  O  O25  1  0.75809500  0.45121400  0.66937900  1
loop_
_geom_bond_atom_site_label_1
_geom_bond_atom_site_label_2
_geom_bond_distance
_geom_bond_site_symmetry_2
Al0 O22 1.823410 1_455
Al0 O14 1.895495 1_555
Al0 O24 1.930457 1_555
Al0 O1 1.957696 1_555
Al0 O16 2.016520 1_445
Al1 O23 1.823410 1_655
Al1 O15 1.895495 1_555
Al1 O25 1.930457 1_555
Al1 O0 1.957696 1_555
Al1 O17 2.016520 1_665
Al2 O12 1.814912 1_555
Al2 O2 1.866519 1_555
Al2 O15 1.880149 1_555
Al2 O8 1.944812 1_555
Al2 O0 2.015060 1_555
Al2 O18 2.026805 1_565
Al3 O13 1.814912 1_555
Al3 O3 1.866519 1_555
Al3 O14 1.880149 1_555
Al3 O9 1.944812 1_555
Al3 O1 2.015060 1_555
Al3 O19 2.026805 1_545
Fe0 O20 1.992339 1_555
Fe0 O5 1.993825 1_455
Fe0 O11 2.010824 1_555
Fe0 O8 2.037763 1_555
Fe0 O6 2.112266 1_555
Fe0 O17 2.155971 1_555
Fe1 O21 1.992339 1_555
Fe1 O4 1.993825 1_655
Fe1 O10 2.010824 1_555
Fe1 O9 2.037763 1_555
Fe1 O7 2.112266 1_555
Fe1 O16 2.155971 1_555
Cu0 O1 1.944822 1_555
Cu0 O0 1.944822 1_444
Cu0 O17 2.038601 1_554
Cu0 O16 2.038601 1_445
H0 O24 1.017307 1_555
H0 O2 1.586030 1_555
H1 O25 1.017307 1_555
H1 O3 1.586030 1_555
H2 O14 0.997432 1_555
H2 O20 1.658261 1_555
H3 O15 0.997432 1_555
H3 O21 1.658261 1_555
H4 O16 0.985462 1_555
H5 O17 0.985462 1_555
H6 O8 0.980894 1_555
H7 O9 0.980894 1_555
H8 O25 1.002830 1_555
H9 O24 1.002830 1_555
H10 O19 0.988650 1_555
H11 O18 0.988650 1_555
H12 O0 1.003923 1_555
H12 O10 1.686507 1_556
H13 O1 1.003923 1_555
H13 O11 1.686507 1_554
H14 O18 1.007656 1_555
H14 O6 1.739904 1_555
H15 O19 1.007656 1_555
H15 O7 1.739904 1_555
O2 P2 1.602529 1_555
O3 P3 1.602529 1_555
O4 P2 1.591073 1_555
O5 P3 1.591073 1_555
O6 P0 1.555558 1_556
O7 P1 1.555558 1_554
O10 P0 1.559231 1_555
O11 P1 1.559231 1_555
O12 P1 1.540318 1_555
O13 P0 1.540318 1_555
O20 P2 1.590335 1_545
O21 P3 1.590335 1_565
O22 P0 1.528816 1_555
O23 P1 1.528816 1_555
