# generated using pymatgen
data_In2AgTe3I
_symmetry_space_group_name_H-M   'P 1'
_cell_length_a   7.84596154
_cell_length_b   7.84596154
_cell_length_c   8.08261556
_cell_angle_alpha   81.97912092
_cell_angle_beta   81.97912092
_cell_angle_gamma   33.65942244
_symmetry_Int_Tables_number   1
_chemical_formula_structural   In2AgTe3I
_chemical_formula_sum   'In2 Ag1 Te3 I1'
_cell_volume   272.82841359
_cell_formula_units_Z   1
loop_
 _symmetry_equiv_pos_site_id
 _symmetry_equiv_pos_as_xyz
  1  'x, y, z'
loop_
 _atom_site_type_symbol
 _atom_site_label
 _atom_site_symmetry_multiplicity
 _atom_site_fract_x
 _atom_site_fract_y
 _atom_site_fract_z
 _atom_site_occupancy
  In  In0  1  0.56281500  0.56281500  0.81262600  1
  In  In1  1  0.81090000  0.81090000  0.06281800  1
  Ag  Ag0  1  0.30873400  0.30873400  0.55257900  1
  Te  Te0  1  0.00566000  0.00566000  0.01948300  1
  Te  Te1  1  0.24215000  0.24215000  0.24812500  1
  Te  Te2  1  0.75245700  0.75245700  0.74199500  1
  I  I0  1  0.50478400  0.50478400  0.49987300  1
loop_
_geom_bond_atom_site_label_1
_geom_bond_atom_site_label_2
_geom_bond_distance
_geom_bond_site_symmetry_2
In0 Te2 2.822258 1_555
In0 Te0 2.876486 1_656
In0 Te0 2.876486 1_566
In1 Te1 2.831776 1_655
In1 Te1 2.831776 1_565
In1 Te2 2.856273 1_554
In1 Te0 2.895015 1_665
Ag0 Te1 2.788034 1_555
Ag0 Te2 2.800243 1_545
Ag0 Te2 2.800243 1_455
Ag0 I0 2.913183 1_555
I0 In0 2.791450 1_555
