# generated using pymatgen
data_Li9Mn2Co5O16
_symmetry_space_group_name_H-M   'P 1'
_cell_length_a   5.05885400
_cell_length_b   7.73487416
_cell_length_c   7.80324455
_cell_angle_alpha   98.00030782
_cell_angle_beta   101.55795859
_cell_angle_gamma   102.92433740
_symmetry_Int_Tables_number   1
_chemical_formula_structural   Li9Mn2Co5O16
_chemical_formula_sum   'Li9 Mn2 Co5 O16'
_cell_volume   286.10430206
_cell_formula_units_Z   1
loop_
 _symmetry_equiv_pos_site_id
 _symmetry_equiv_pos_as_xyz
  1  'x, y, z'
loop_
 _atom_site_type_symbol
 _atom_site_label
 _atom_site_symmetry_multiplicity
 _atom_site_fract_x
 _atom_site_fract_y
 _atom_site_fract_z
 _atom_site_occupancy
  Li  Li0  1  0.48343300  0.74137400  0.74174100  1
  Li  Li1  1  0.00569800  0.37631800  0.13314000  1
  Li  Li2  1  0.50180800  0.00248900  0.50211300  1
  Li  Li3  1  0.00315700  0.86909900  0.62066500  1
  Li  Li4  1  0.50282300  0.49872600  0.99593400  1
  Li  Li5  1  0.99621900  0.13672700  0.38437800  1
  Li  Li6  1  0.99195900  0.61742500  0.86095100  1
  Li  Li7  1  0.51027300  0.25654300  0.25787700  1
  Li  Li8  1  0.99908900  0.49802400  0.50150400  1
  Mn  Mn0  1  0.00024700  0.99794400  0.00107000  1
  Mn  Mn1  1  0.50050800  0.62651700  0.38013600  1
  Co  Co0  1  0.99824600  0.25433800  0.74508100  1
  Co  Co1  1  0.50194900  0.87318200  0.12486000  1
  Co  Co2  1  0.49558400  0.13181600  0.87115100  1
  Co  Co3  1  0.99922900  0.74190700  0.25752400  1
  Co  Co4  1  0.50154600  0.37670700  0.61579900  1
  O  O0  1  0.76402600  0.76558800  0.00268600  1
  O  O1  1  0.27050800  0.39347100  0.37728900  1
  O  O2  1  0.76906500  0.01856400  0.77460700  1
  O  O3  1  0.24350300  0.88325700  0.88574200  1
  O  O4  1  0.74956100  0.52005100  0.25142100  1
  O  O5  1  0.24163500  0.13516300  0.63948100  1
  O  O6  1  0.27843800  0.63540600  0.14236200  1
  O  O7  1  0.72983400  0.24969400  0.50893900  1
  O  O8  1  0.26509200  0.74982800  0.48611400  1
  O  O9  1  0.75345400  0.36420900  0.86398000  1
  O  O10  1  0.22660900  0.98599600  0.22986200  1
  O  O11  1  0.73919300  0.86304200  0.36861000  1
  O  O12  1  0.24797300  0.47716900  0.74846500  1
  O  O13  1  0.75546600  0.10731200  0.11887000  1
  O  O14  1  0.72437300  0.62470300  0.60653300  1
  O  O15  1  0.24950300  0.22741000  0.00111500  1
loop_
_geom_bond_atom_site_label_1
_geom_bond_atom_site_label_2
_geom_bond_distance
_geom_bond_site_symmetry_2
Li0 O14 2.038516 1_555
Li0 O8 2.094982 1_555
Li0 O12 2.136321 1_555
Li0 O3 2.177018 1_555
Li0 O0 2.193827 1_556
Li0 O2 2.250149 1_565
Li1 O1 2.066217 1_555
Li1 O4 2.145903 1_455
Li1 O6 2.146661 1_555
Li1 O13 2.155243 1_455
Li1 O15 2.173366 1_555
Li1 O9 2.205960 1_454
Li2 O7 1.987459 1_555
Li2 O8 2.023415 1_545
Li2 O11 2.111577 1_545
Li2 O5 2.190387 1_555
Li2 O2 2.250316 1_555
Li2 O10 2.264434 1_545
Li3 O14 2.064400 1_455
Li3 O5 2.108686 1_565
Li3 O8 2.131676 1_555
Li3 O11 2.132547 1_455
Li3 O3 2.153708 1_555
Li3 O2 2.231115 1_465
Li4 O12 2.058042 1_555
Li4 O4 2.092601 1_556
Li4 O6 2.105250 1_556
Li4 O9 2.136689 1_555
Li4 O0 2.175145 1_556
Li4 O15 2.211187 1_556
Li5 O7 2.083143 1_555
Li5 O5 2.127727 1_655
Li5 O13 2.135711 1_555
Li5 O1 2.168150 1_655
Li5 O11 2.195280 1_545
Li5 O10 2.225119 1_645
Li6 O9 2.063890 1_555
Li6 O12 2.108022 1_655
Li6 O3 2.122449 1_655
Li6 O0 2.148377 1_556
Li6 O14 2.182949 1_555
Li6 O6 2.343353 1_656
Li7 O1 2.052816 1_555
Li7 O7 2.063450 1_555
Li7 O15 2.118392 1_555
Li7 O4 2.138106 1_555
Li7 O13 2.208764 1_555
Li7 O10 2.211304 1_545
Li8 O1 2.071391 1_655
Li8 O14 2.098860 1_555
Li8 O7 2.107257 1_555
Li8 O12 2.128398 1_655
Li8 O8 2.139189 1_655
Li8 O4 2.152283 1_555
Mn0 O0 1.926110 1_455
Mn0 O15 1.933582 1_565
Mn0 O10 1.944547 1_555
Mn0 O13 1.949945 1_465
Mn0 O3 1.954753 1_554
Mn0 O2 1.962075 1_464
Mn1 O14 1.901585 1_555
Mn1 O1 1.908898 1_555
Mn1 O8 1.922279 1_555
Mn1 O11 1.978449 1_555
Mn1 O6 1.985987 1_555
Mn1 O4 2.003834 1_555
Co0 O12 1.888738 1_655
Co0 O5 1.935872 1_655
Co0 O9 1.956601 1_555
Co0 O2 2.000319 1_555
Co0 O7 2.048814 1_555
Co0 O15 2.206183 1_656
Co1 O6 1.970087 1_555
Co1 O13 1.983742 1_565
Co1 O0 2.034322 1_555
Co1 O10 2.043278 1_555
Co1 O11 2.057480 1_555
Co1 O3 2.074975 1_554
Co2 O15 1.958030 1_556
Co2 O9 1.986035 1_555
Co2 O5 2.004102 1_555
Co2 O2 2.006257 1_555
Co2 O3 2.087551 1_545
Co2 O13 2.167025 1_556
Co3 O4 1.877734 1_555
Co3 O8 1.991428 1_655
Co3 O11 2.035195 1_555
Co3 O10 2.043462 1_655
Co3 O6 2.074683 1_655
Co3 O0 2.157414 1_555
Co4 O7 1.913011 1_555
Co4 O14 2.014816 1_555
Co4 O12 2.018709 1_555
Co4 O1 2.027327 1_555
Co4 O5 2.085225 1_555
Co4 O9 2.121816 1_555
