# generated using pymatgen
data_DyH9C5(NO4)2
_symmetry_space_group_name_H-M   'P 1'
_cell_length_a   6.78906400
_cell_length_b   8.68721700
_cell_length_c   9.83412929
_cell_angle_alpha   90.00000000
_cell_angle_beta   110.19270489
_cell_angle_gamma   90.00000000
_symmetry_Int_Tables_number   1
_chemical_formula_structural   DyH9C5(NO4)2
_chemical_formula_sum   'Dy2 H18 C10 N4 O16'
_cell_volume   544.34955907
_cell_formula_units_Z   2
loop_
 _symmetry_equiv_pos_site_id
 _symmetry_equiv_pos_as_xyz
  1  'x, y, z'
loop_
 _atom_site_type_symbol
 _atom_site_label
 _atom_site_symmetry_multiplicity
 _atom_site_fract_x
 _atom_site_fract_y
 _atom_site_fract_z
 _atom_site_occupancy
  Dy  Dy0  1  0.14270800  0.25000000  0.28541500  1
  Dy  Dy1  1  0.85729200  0.75000000  0.71458500  1
  H  H0  1  0.65435300  0.75000000  0.30870600  1
  H  H1  1  0.34564700  0.25000000  0.69129400  1
  H  H2  1  0.66188000  0.67248700  0.01385500  1
  H  H3  1  0.64802500  0.32751300  0.98614500  1
  H  H4  1  0.33812000  0.17248700  0.98614500  1
  H  H5  1  0.35197500  0.82751300  0.01385500  1
  H  H6  1  0.82305400  0.60281300  0.18709000  1
  H  H7  1  0.63596400  0.39718700  0.81291000  1
  H  H8  1  0.17694600  0.10281300  0.81291000  1
  H  H9  1  0.36403600  0.89718700  0.18709000  1
  H  H10  1  0.68558000  0.25000000  0.37115900  1
  H  H11  1  0.31442000  0.75000000  0.62884100  1
  H  H12  1  0.23525300  0.50000000  0.00000000  1
  H  H13  1  0.76474700  0.00000000  0.00000000  1
  H  H14  1  0.91794400  0.94543100  0.41990300  1
  H  H15  1  0.49804100  0.05456900  0.58009700  1
  H  H16  1  0.08205600  0.44543100  0.58009700  1
  H  H17  1  0.50195900  0.55456900  0.41990300  1
  C  C0  1  0.62568400  0.25000000  0.25136700  1
  C  C1  1  0.37431600  0.75000000  0.74863300  1
  C  C2  1  0.07190700  0.50000000  0.00000000  1
  C  C3  1  0.92809300  0.00000000  0.00000000  1
  C  C4  1  0.99129500  0.02532700  0.51135100  1
  C  C5  1  0.47994400  0.97467300  0.48864900  1
  C  C6  1  0.00870500  0.52532700  0.48864900  1
  C  C7  1  0.52005600  0.47467300  0.51135100  1
  C  C8  1  0.59500200  0.75000000  0.19000400  1
  C  C9  1  0.40499800  0.25000000  0.80999600  1
  N  N0  1  0.69839700  0.66771600  0.12445600  1
  N  N1  1  0.57394100  0.33228400  0.87554400  1
  N  N2  1  0.30160300  0.16771600  0.87554400  1
  N  N3  1  0.42605900  0.83228400  0.12445600  1
  O  O0  1  0.42906500  0.26535300  0.18747600  1
  O  O1  1  0.24158900  0.73464700  0.81252400  1
  O  O2  1  0.57093500  0.76535300  0.81252400  1
  O  O3  1  0.75841100  0.23464700  0.18747600  1
  O  O4  1  0.03305400  0.42614300  0.09861700  1
  O  O5  1  0.93443700  0.57385700  0.90138300  1
  O  O6  1  0.96694600  0.92614300  0.90138300  1
  O  O7  1  0.06556300  0.07385700  0.09861700  1
  O  O8  1  0.06580700  0.15097800  0.48375800  1
  O  O9  1  0.58204900  0.84902200  0.51624200  1
  O  O10  1  0.93419300  0.65097800  0.51624200  1
  O  O11  1  0.41795100  0.34902200  0.48375800  1
  O  O12  1  0.00426100  0.48402100  0.36408700  1
  O  O13  1  0.64017300  0.51597900  0.63591300  1
  O  O14  1  0.99573900  0.98402100  0.63591300  1
  O  O15  1  0.35982700  0.01597900  0.36408700  1
loop_
_geom_bond_atom_site_label_1
_geom_bond_atom_site_label_2
_geom_bond_distance
_geom_bond_site_symmetry_2
Dy0 O7 2.307845 1_555
Dy0 O4 2.307845 1_555
Dy0 O11 2.349497 1_555
Dy0 O8 2.349501 1_555
Dy0 O0 2.453080 1_555
Dy0 O3 2.453087 1_455
Dy0 O12 2.473278 1_555
Dy0 O15 2.473278 1_555
Dy1 O5 2.307845 1_555
Dy1 O6 2.307845 1_555
Dy1 O9 2.349497 1_555
Dy1 O10 2.349501 1_555
Dy1 O2 2.453080 1_555
Dy1 O1 2.453087 1_655
Dy1 O14 2.473278 1_555
Dy1 O13 2.473278 1_555
H2 N0 1.029582 1_555
H3 N1 1.029582 1_555
H4 N2 1.029582 1_555
H5 N3 1.029582 1_555
H6 N0 1.026477 1_555
H7 N1 1.026477 1_555
H8 N2 1.026477 1_555
H9 N3 1.026477 1_555
C0 H10 1.105644 1_555
C0 O3 1.270980 1_555
C0 O0 1.270986 1_555
C1 H11 1.105644 1_555
C1 O1 1.270980 1_555
C1 O2 1.270986 1_555
C2 H12 1.108966 1_555
C2 O4 1.264271 1_555
C2 O5 1.264271 1_454
C3 H13 1.108966 1_555
C3 O7 1.264271 1_655
C3 O6 1.264271 1_544
C4 H14 1.108745 1_545
C4 O14 1.266761 1_545
C4 O8 1.271140 1_655
C5 H15 1.108745 1_565
C5 O15 1.266758 1_565
C5 O9 1.271140 1_555
C6 H16 1.108745 1_555
C6 O12 1.266761 1_555
C6 O10 1.271140 1_455
C7 H17 1.108745 1_555
C7 O13 1.266758 1_555
C7 O11 1.271140 1_555
C8 H0 1.095583 1_555
C8 N0 1.315904 1_555
C8 N3 1.315904 1_555
C9 H1 1.095583 1_555
C9 N1 1.315904 1_555
C9 N2 1.315904 1_555
