# generated using pymatgen
data_Mg14GaCu
_symmetry_space_group_name_H-M   'P 1'
_cell_length_a   6.20753432
_cell_length_b   6.20753384
_cell_length_c   10.22336851
_cell_angle_alpha   90.00000000
_cell_angle_beta   90.00000000
_cell_angle_gamma   120.00000257
_symmetry_Int_Tables_number   1
_chemical_formula_structural   Mg14GaCu
_chemical_formula_sum   'Mg14 Ga1 Cu1'
_cell_volume   341.16373556
_cell_formula_units_Z   1
loop_
 _symmetry_equiv_pos_site_id
 _symmetry_equiv_pos_as_xyz
  1  'x, y, z'
loop_
 _atom_site_type_symbol
 _atom_site_label
 _atom_site_symmetry_multiplicity
 _atom_site_fract_x
 _atom_site_fract_y
 _atom_site_fract_z
 _atom_site_occupancy
  Mg  Mg0  1  0.16438505  0.83219203  0.12500000  1
  Mg  Mg1  1  0.16645520  0.83322710  0.62500000  1
  Mg  Mg2  1  0.66780797  0.33561495  0.12500000  1
  Mg  Mg3  1  0.66677290  0.33354480  0.62500000  1
  Mg  Mg4  1  0.66780797  0.83219203  0.12500000  1
  Mg  Mg5  1  0.66677290  0.83322710  0.62500000  1
  Mg  Mg6  1  0.32949935  0.17050065  0.37177916  1
  Mg  Mg7  1  0.32949935  0.17050065  0.87822084  1
  Mg  Mg8  1  0.32949935  0.65899970  0.37177916  1
  Mg  Mg9  1  0.32949935  0.65899970  0.87822084  1
  Mg  Mg10  1  0.84100030  0.17050065  0.37177916  1
  Mg  Mg11  1  0.84100030  0.17050065  0.87822084  1
  Mg  Mg12  1  0.83333300  0.66666700  0.37465615  1
  Mg  Mg13  1  0.83333300  0.66666700  0.87534385  1
  Ga  Ga0  1  0.16666700  0.33333300  0.62500000  1
  Cu  Cu0  1  0.16666700  0.33333300  0.12500000  1
loop_
_geom_bond_atom_site_label_1
_geom_bond_atom_site_label_2
_geom_bond_distance
_geom_bond_site_symmetry_2
Mg0 Mg2 3.082519 1_455
Mg0 Mg4 3.082519 1_455
Mg0 Mg9 3.110206 1_554
Mg0 Mg8 3.110206 1_555
Mg0 Mg7 3.110212 1_564
Mg0 Mg6 3.110212 1_565
Mg0 Mg13 3.111542 1_454
Mg0 Mg12 3.111542 1_455
Mg0 Mg2 3.125015 1_565
Mg0 Mg4 3.125015 1_555
Mg1 Mg3 3.101795 1_455
Mg1 Mg5 3.101795 1_455
Mg1 Mg3 3.105739 1_565
Mg1 Mg5 3.105739 1_555
Mg1 Mg12 3.123678 1_455
Mg1 Mg13 3.123678 1_455
Mg1 Mg8 3.160757 1_555
Mg1 Mg9 3.160757 1_555
Mg1 Mg7 3.160763 1_565
Mg1 Mg6 3.160763 1_565
Mg2 Mg4 3.082519 1_555
Mg2 Mg7 3.110212 1_554
Mg2 Mg6 3.110212 1_555
Mg2 Mg4 3.125015 1_545
Mg3 Mg5 3.101795 1_555
Mg3 Mg5 3.105739 1_545
Mg3 Mg7 3.160763 1_555
Mg3 Mg6 3.160763 1_555
Mg4 Mg9 3.110212 1_554
Mg4 Mg8 3.110212 1_555
Mg5 Mg8 3.160763 1_555
Mg5 Mg9 3.160763 1_555
Mg6 Mg8 3.032374 1_555
Mg6 Mg8 3.175159 1_545
Mg7 Mg9 3.032374 1_555
Mg7 Mg9 3.175159 1_545
Mg10 Mg8 3.032374 1_655
Mg10 Mg6 3.032375 1_655
Mg10 Mg12 3.104180 1_545
Mg10 Mg12 3.104180 1_555
Mg10 Mg2 3.110206 1_555
Mg10 Mg4 3.110212 1_545
Mg10 Mg3 3.160757 1_555
Mg10 Mg5 3.160763 1_545
Mg10 Mg8 3.175159 1_545
Mg10 Mg6 3.175160 1_555
Mg11 Mg9 3.032374 1_655
Mg11 Mg7 3.032375 1_655
Mg11 Mg13 3.104180 1_545
Mg11 Mg13 3.104180 1_555
Mg11 Mg2 3.110206 1_556
Mg11 Mg4 3.110212 1_546
Mg11 Mg3 3.160757 1_555
Mg11 Mg5 3.160763 1_545
Mg11 Mg9 3.175159 1_545
Mg11 Mg7 3.175160 1_555
Mg12 Mg6 3.104180 1_665
Mg12 Mg6 3.104180 1_555
Mg12 Mg8 3.104180 1_555
Mg12 Mg8 3.104180 1_655
Mg12 Mg4 3.111536 1_555
Mg12 Mg2 3.111542 1_555
Mg12 Mg5 3.123672 1_555
Mg12 Mg3 3.123678 1_555
Mg13 Mg7 3.104180 1_665
Mg13 Mg7 3.104180 1_555
Mg13 Mg9 3.104180 1_555
Mg13 Mg9 3.104180 1_655
Mg13 Mg4 3.111536 1_556
Mg13 Mg2 3.111542 1_556
Mg13 Mg5 3.123672 1_555
Mg13 Mg3 3.123678 1_555
Ga0 Mg1 3.103767 1_545
Ga0 Mg5 3.103767 1_445
Ga0 Mg1 3.103767 1_555
Ga0 Mg5 3.103767 1_555
Ga0 Mg3 3.103767 1_555
Ga0 Mg3 3.103767 1_455
Ga0 Mg6 3.125189 1_555
Ga0 Mg7 3.125189 1_555
Ga0 Mg9 3.125194 1_555
Ga0 Mg8 3.125194 1_555
Ga0 Mg10 3.125195 1_455
Ga0 Mg11 3.125195 1_455
Cu0 Mg7 3.070858 1_554
Cu0 Mg6 3.070858 1_555
Cu0 Mg9 3.070864 1_554
Cu0 Mg8 3.070864 1_555
Cu0 Mg11 3.070864 1_454
Cu0 Mg10 3.070864 1_455
Cu0 Mg0 3.103791 1_545
Cu0 Mg4 3.103791 1_445
Cu0 Mg4 3.103791 1_555
Cu0 Mg0 3.103791 1_555
Cu0 Mg2 3.103791 1_555
Cu0 Mg2 3.103791 1_455
