# generated using pymatgen
data_Sb5IO7
_symmetry_space_group_name_H-M   'P 1'
_cell_length_a   13.23471600
_cell_length_b   7.06936600
_cell_length_c   13.48859730
_cell_angle_alpha   63.94975574
_cell_angle_beta   90.00000000
_cell_angle_gamma   90.00000000
_symmetry_Int_Tables_number   1
_chemical_formula_structural   Sb5IO7
_chemical_formula_sum   'Sb20 I4 O28'
_cell_volume   1133.79911043
_cell_formula_units_Z   4
loop_
 _symmetry_equiv_pos_site_id
 _symmetry_equiv_pos_as_xyz
  1  'x, y, z'
loop_
 _atom_site_type_symbol
 _atom_site_label
 _atom_site_symmetry_multiplicity
 _atom_site_fract_x
 _atom_site_fract_y
 _atom_site_fract_z
 _atom_site_occupancy
  Sb  Sb0  1  0.75707700  0.08429500  0.94725900  1
  Sb  Sb1  1  0.24292300  0.08429500  0.44725900  1
  Sb  Sb2  1  0.28391200  0.11795200  0.88047200  1
  Sb  Sb3  1  0.71608800  0.11795200  0.38047200  1
  Sb  Sb4  1  0.77306700  0.85530900  0.72465700  1
  Sb  Sb5  1  0.22693300  0.85530900  0.22465700  1
  Sb  Sb6  1  0.25497300  0.83963500  0.75042900  1
  Sb  Sb7  1  0.74502700  0.83963500  0.25042900  1
  Sb  Sb8  1  0.75979600  0.44320100  0.59202100  1
  Sb  Sb9  1  0.24020400  0.44320100  0.09202100  1
  Sb  Sb10  1  0.26712900  0.40280900  0.59773900  1
  Sb  Sb11  1  0.73287100  0.40280900  0.09773900  1
  Sb  Sb12  1  0.93232900  0.21431000  0.51446400  1
  Sb  Sb13  1  0.06767100  0.21431000  0.01446400  1
  Sb  Sb14  1  0.55159400  0.09911900  0.59733400  1
  Sb  Sb15  1  0.44840600  0.09911900  0.09733400  1
  Sb  Sb16  1  0.44646800  0.75142300  0.42235800  1
  Sb  Sb17  1  0.55353200  0.75142300  0.92235800  1
  Sb  Sb18  1  0.06393800  0.73786100  0.46592300  1
  Sb  Sb19  1  0.93606200  0.73786100  0.96592300  1
  I  I0  1  0.97708300  0.50585900  0.77041600  1
  I  I1  1  0.02291700  0.50585900  0.27041600  1
  I  I2  1  0.50226900  0.50484600  0.70438100  1
  I  I3  1  0.49773100  0.50484600  0.20438100  1
  O  O0  1  0.81493000  0.86224100  0.86516300  1
  O  O1  1  0.18507000  0.86224100  0.36516300  1
  O  O2  1  0.27311700  0.11466400  0.59569700  1
  O  O3  1  0.72688300  0.11466400  0.09569700  1
  O  O4  1  0.83213700  0.02479000  0.49793200  1
  O  O5  1  0.16786300  0.02479000  0.99793200  1
  O  O6  1  0.62399600  0.95963200  0.51984500  1
  O  O7  1  0.37600400  0.95963200  0.01984500  1
  O  O8  1  0.36533800  0.90516000  0.48714000  1
  O  O9  1  0.63466200  0.90516000  0.98714000  1
  O  O10  1  0.14017900  0.87762000  0.54580500  1
  O  O11  1  0.85982100  0.87762000  0.04580500  1
  O  O12  1  0.85268700  0.48504200  0.46757400  1
  O  O13  1  0.14731300  0.48504200  0.96757400  1
  O  O14  1  0.64811900  0.34289600  0.53224800  1
  O  O15  1  0.35188100  0.34289600  0.03224800  1
  O  O16  1  0.34374000  0.52120300  0.45493000  1
  O  O17  1  0.65626000  0.52120300  0.95493000  1
  O  O18  1  0.12793100  0.45481000  0.53501000  1
  O  O19  1  0.87206900  0.45481000  0.03501000  1
  O  O20  1  0.83378700  0.15492800  0.65928500  1
  O  O21  1  0.16621300  0.15492800  0.15928500  1
  O  O22  1  0.63123600  0.95132900  0.74774300  1
  O  O23  1  0.36876400  0.95132900  0.24774300  1
  O  O24  1  0.36394300  0.91963300  0.82671700  1
  O  O25  1  0.63605700  0.91963300  0.32671700  1
  O  O26  1  0.17275500  0.99926400  0.80665700  1
  O  O27  1  0.82724500  0.99926400  0.30665700  1
loop_
_geom_bond_atom_site_label_1
_geom_bond_atom_site_label_2
_geom_bond_distance
_geom_bond_site_symmetry_2
I0 Sb13 3.250012 1_656
I0 Sb4 3.526337 1_555
I1 Sb12 3.250012 1_455
I1 Sb5 3.526337 1_555
O0 Sb4 1.995704 1_555
O0 Sb19 2.034890 1_555
O0 Sb0 2.409045 1_565
O1 Sb5 1.995704 1_555
O1 Sb18 2.034890 1_555
O1 Sb1 2.409045 1_565
O2 Sb10 2.050780 1_555
O2 Sb1 2.142946 1_555
O2 Sb6 2.151693 1_545
O3 Sb11 2.050780 1_555
O3 Sb0 2.142946 1_554
O3 Sb7 2.151693 1_545
O4 Sb12 1.966080 1_555
O4 Sb3 2.094374 1_555
O5 Sb13 1.966080 1_556
O5 Sb2 2.094374 1_555
O6 Sb14 1.971874 1_565
O6 Sb3 2.103404 1_565
O7 Sb15 1.971874 1_565
O7 Sb2 2.103404 1_564
O8 Sb1 1.979785 1_565
O8 Sb16 1.982869 1_555
O9 Sb0 1.979785 1_565
O9 Sb17 1.982869 1_555
O10 Sb1 2.011176 1_565
O10 Sb18 2.022456 1_555
O11 Sb0 2.011176 1_564
O11 Sb19 2.022456 1_554
O12 Sb8 1.995127 1_555
O12 Sb12 2.027522 1_555
O13 Sb9 1.995127 1_556
O13 Sb13 2.027522 1_556
O14 Sb8 1.959470 1_555
O14 Sb14 2.010913 1_555
O15 Sb9 1.959470 1_555
O15 Sb15 2.010913 1_555
O16 Sb10 2.005766 1_555
O16 Sb16 2.015496 1_555
O17 Sb11 2.005766 1_556
O17 Sb17 2.015496 1_555
O18 Sb18 1.987931 1_555
O18 Sb10 1.992923 1_555
O19 Sb19 1.987931 1_554
O19 Sb11 1.992923 1_555
O20 Sb4 2.066228 1_545
O20 Sb8 2.076339 1_555
O20 Sb12 2.229965 1_555
O21 Sb5 2.066228 1_545
O21 Sb9 2.076339 1_555
O21 Sb13 2.229965 1_555
O22 Sb4 2.065641 1_555
O22 Sb14 2.111134 1_565
O22 Sb17 2.383005 1_555
O23 Sb5 2.065641 1_555
O23 Sb15 2.111134 1_565
O23 Sb16 2.383005 1_555
O24 Sb6 1.992422 1_555
O24 Sb2 2.122746 1_565
O25 Sb7 1.992422 1_555
O25 Sb3 2.122746 1_565
O26 Sb6 1.945366 1_555
O26 Sb2 2.143204 1_565
O27 Sb7 1.945366 1_555
O27 Sb3 2.143204 1_565
