# generated using pymatgen
data_LuCrO4
_symmetry_space_group_name_H-M   'P 1'
_cell_length_a   5.80024110
_cell_length_b   5.80025688
_cell_length_c   5.80011645
_cell_angle_alpha   106.38379440
_cell_angle_beta   106.38372945
_cell_angle_gamma   115.84113847
_symmetry_Int_Tables_number   1
_chemical_formula_structural   LuCrO4
_chemical_formula_sum   'Lu2 Cr2 O8'
_cell_volume   148.80382347
_cell_formula_units_Z   2
loop_
 _symmetry_equiv_pos_site_id
 _symmetry_equiv_pos_as_xyz
  1  'x, y, z'
loop_
 _atom_site_type_symbol
 _atom_site_label
 _atom_site_symmetry_multiplicity
 _atom_site_fract_x
 _atom_site_fract_y
 _atom_site_fract_z
 _atom_site_occupancy
  Lu  Lu0  1  0.25000347  0.74999762  0.50000240  1
  Lu  Lu1  1  -0.00000372  -0.00000134  -0.00000442  1
  Cr  Cr0  1  0.74999689  0.24999838  0.49999478  1
  Cr  Cr1  1  0.50000400  0.49999661  0.00000081  1
  O  O0  1  0.32672276  0.50923580  0.19069660  1
  O  O1  1  0.38610744  0.07676149  0.31753635  1
  O  O2  1  0.75921597  0.06856624  0.68246109  1
  O  O3  1  0.31853314  0.13603085  0.80930314  1
  O  O4  1  0.86397165  0.68146012  0.19069771  1
  O  O5  1  0.93143519  0.24078211  0.31754328  1
  O  O6  1  0.92324129  0.61389536  0.68246333  1
  O  O7  1  0.49077193  0.67327675  0.80930492  1
loop_
_geom_bond_atom_site_label_1
_geom_bond_atom_site_label_2
_geom_bond_distance
_geom_bond_site_symmetry_2
Lu0 O0 2.223824 1_555
Lu0 O7 2.223836 1_555
Lu0 O4 2.223863 1_455
Lu0 O3 2.223883 1_565
Lu0 O2 2.373528 1_565
Lu0 O5 2.373547 1_455
Lu0 O6 2.373578 1_455
Lu0 O1 2.373614 1_565
Lu1 O6 2.224179 1_444
Lu1 O2 2.224184 1_454
Lu1 O1 2.224210 1_555
Lu1 O5 2.224220 1_455
Lu1 O7 2.373527 1_444
Lu1 O3 2.373556 1_554
Lu1 O0 2.373585 1_555
Lu1 O4 2.373606 1_445
Cr0 O1 1.695768 1_555
Cr0 O5 1.695772 1_555
Cr0 O6 1.695808 1_555
Cr0 O2 1.695816 1_555
Cr1 O3 1.696129 1_554
Cr1 O4 1.696137 1_555
Cr1 O7 1.696183 1_554
Cr1 O0 1.696189 1_555
