# generated using pymatgen
data_CrPO5
_symmetry_space_group_name_H-M   'P 1'
_cell_length_a   5.12790743
_cell_length_b   5.12790743
_cell_length_c   7.40592896
_cell_angle_alpha   75.01456043
_cell_angle_beta   75.01456043
_cell_angle_gamma   96.06775479
_symmetry_Int_Tables_number   1
_chemical_formula_structural   CrPO5
_chemical_formula_sum   'Cr2 P2 O10'
_cell_volume   178.58724479
_cell_formula_units_Z   2
loop_
 _symmetry_equiv_pos_site_id
 _symmetry_equiv_pos_as_xyz
  1  'x, y, z'
loop_
 _atom_site_type_symbol
 _atom_site_label
 _atom_site_symmetry_multiplicity
 _atom_site_fract_x
 _atom_site_fract_y
 _atom_site_fract_z
 _atom_site_occupancy
  Cr  Cr0  1  0.04897100  0.49991900  0.47079500  1
  Cr  Cr1  1  0.49991900  0.04897100  0.97079500  1
  P  P0  1  0.05305200  0.90366300  0.76468900  1
  P  P1  1  0.90366300  0.05305200  0.26468900  1
  O  O0  1  0.74096900  0.82560000  0.87890500  1
  O  O1  1  0.13532200  0.21475000  0.65519600  1
  O  O2  1  0.21475000  0.13532200  0.15519600  1
  O  O3  1  0.82560000  0.74096900  0.37890500  1
  O  O4  1  0.84173900  0.22248600  0.41113300  1
  O  O5  1  0.71903200  0.11585700  0.13146400  1
  O  O6  1  0.11585700  0.71903200  0.63146400  1
  O  O7  1  0.22248600  0.84173900  0.91113300  1
  O  O8  1  0.31699800  0.59564900  0.28982800  1
  O  O9  1  0.59564900  0.31699800  0.78982800  1
loop_
_geom_bond_atom_site_label_1
_geom_bond_atom_site_label_2
_geom_bond_distance
_geom_bond_site_symmetry_2
Cr0 O8 1.578207 1_555
Cr0 O3 1.889560 1_455
Cr0 O4 1.896503 1_455
Cr0 O1 1.901667 1_555
Cr0 O6 1.901830 1_555
Cr1 O9 1.578207 1_555
Cr1 O0 1.889560 1_545
Cr1 O7 1.896503 1_545
Cr1 O2 1.901667 1_556
Cr1 O5 1.901830 1_556
O0 P0 1.557632 1_655
O1 P0 1.546649 1_545
O2 P1 1.546649 1_455
O3 P1 1.557632 1_565
O4 P1 1.549036 1_555
O5 P1 1.535188 1_555
O6 P0 1.535188 1_555
O7 P0 1.549036 1_555
