# generated using pymatgen
data_MgCo6(OF5)2
_symmetry_space_group_name_H-M   'P 1'
_cell_length_a   5.29590529
_cell_length_b   5.13913679
_cell_length_c   9.82450726
_cell_angle_alpha   91.66943133
_cell_angle_beta   93.83952144
_cell_angle_gamma   99.03125458
_symmetry_Int_Tables_number   1
_chemical_formula_structural   MgCo6(OF5)2
_chemical_formula_sum   'Mg1 Co6 O2 F10'
_cell_volume   263.26666738
_cell_formula_units_Z   1
loop_
 _symmetry_equiv_pos_site_id
 _symmetry_equiv_pos_as_xyz
  1  'x, y, z'
loop_
 _atom_site_type_symbol
 _atom_site_label
 _atom_site_symmetry_multiplicity
 _atom_site_fract_x
 _atom_site_fract_y
 _atom_site_fract_z
 _atom_site_occupancy
  Mg  Mg0  1  0.50087400  0.99172900  0.66869600  1
  Co  Co0  1  0.90773200  0.96227500  0.02431000  1
  Co  Co1  1  0.09123200  0.04166100  0.31870800  1
  Co  Co2  1  0.00124600  0.99284100  0.66976400  1
  Co  Co3  1  0.45287400  0.55468200  0.17334800  1
  Co  Co4  1  0.39352400  0.51218600  0.88398900  1
  Co  Co5  1  0.62256200  0.47369100  0.45202500  1
  O  O0  1  0.34984200  0.34923500  0.32690200  1
  O  O1  1  0.64255000  0.66135800  0.01670600  1
  F  F0  1  0.18926700  0.81206500  0.15962400  1
  F  F1  1  0.24007900  0.80015700  0.78519500  1
  F  F2  1  0.21354400  0.91509200  0.52104300  1
  F  F3  1  0.20354800  0.26610500  0.00389400  1
  F  F4  1  0.31945400  0.28959200  0.70980300  1
  F  F5  1  0.68503500  0.69500500  0.62930900  1
  F  F6  1  0.78650200  0.73994500  0.33516100  1
  F  F7  1  0.83660900  0.17066200  0.18751600  1
  F  F8  1  0.78713400  0.07293500  0.81683500  1
  F  F9  1  0.76250500  0.18489300  0.55288700  1
loop_
_geom_bond_atom_site_label_1
_geom_bond_atom_site_label_2
_geom_bond_distance
_geom_bond_site_symmetry_2
Co0 O1 1.914880 1_555
Co0 F7 1.991779 1_565
Co0 F3 2.055462 1_665
Co0 F0 2.177592 1_655
Co0 F8 2.212097 1_564
Co1 O0 1.918044 1_555
Co1 F7 2.004192 1_455
Co1 F0 2.073173 1_545
Co1 F6 2.073337 1_445
Co1 F2 2.197580 1_545
Co2 F8 1.968306 1_465
Co2 F2 1.971190 1_555
Co2 F1 2.032974 1_555
Co2 F9 2.038280 1_465
Co2 F5 2.091849 1_455
Co2 F4 2.095189 1_565
Co3 O0 1.926271 1_555
Co3 O1 1.939378 1_555
Co3 F0 2.069206 1_555
Co3 F6 2.358611 1_555
Co3 F3 2.379372 1_555
Co4 O1 1.849632 1_556
Co4 F3 1.960951 1_556
Co4 F4 2.011505 1_555
Co4 F1 2.036721 1_555
Co5 O0 1.852726 1_555
Co5 F6 1.948423 1_555
Co5 F9 2.016586 1_555
Co5 F5 2.031241 1_555
F1 Mg0 2.009300 1_555
F2 Mg0 2.014407 1_555
F4 Mg0 1.976639 1_545
F5 Mg0 1.977209 1_555
F8 Mg0 2.015218 1_545
F9 Mg0 2.011190 1_545
