# generated using pymatgen
data_NaNb2Bi2O9
_symmetry_space_group_name_H-M   'P 1'
_cell_length_a   5.58523000
_cell_length_b   5.67599400
_cell_length_c   12.54198163
_cell_angle_alpha   90.00000000
_cell_angle_beta   102.86539251
_cell_angle_gamma   90.00000000
_symmetry_Int_Tables_number   1
_chemical_formula_structural   NaNb2Bi2O9
_chemical_formula_sum   'Na2 Nb4 Bi4 O18'
_cell_volume   387.62107120
_cell_formula_units_Z   2
loop_
 _symmetry_equiv_pos_site_id
 _symmetry_equiv_pos_as_xyz
  1  'x, y, z'
loop_
 _atom_site_type_symbol
 _atom_site_label
 _atom_site_symmetry_multiplicity
 _atom_site_fract_x
 _atom_site_fract_y
 _atom_site_fract_z
 _atom_site_occupancy
  Na  Na0  1  0.23647500  0.55449700  0.00000000  1
  Na  Na1  1  0.76352500  0.05449700  0.00000000  1
  Nb  Nb0  1  0.33731700  0.04218900  0.15845000  1
  Nb  Nb1  1  0.66268300  0.54218900  0.84155000  1
  Nb  Nb2  1  0.82113300  0.54218900  0.15845000  1
  Nb  Nb3  1  0.17886700  0.04218900  0.84155000  1
  Bi  Bi0  1  0.59337800  0.12511500  0.60634600  1
  Bi  Bi1  1  0.40662200  0.62511500  0.39365400  1
  Bi  Bi2  1  0.01296800  0.62511500  0.60634600  1
  Bi  Bi3  1  0.98703200  0.12511500  0.39365400  1
  O  O0  1  0.33337400  0.97898900  0.00000000  1
  O  O1  1  0.66662600  0.47898900  0.00000000  1
  O  O2  1  0.30691600  0.99072300  0.31363200  1
  O  O3  1  0.69308400  0.49072300  0.68636800  1
  O  O4  1  0.00671600  0.49072300  0.31363200  1
  O  O5  1  0.99328400  0.99072300  0.68636800  1
  O  O6  1  0.44139400  0.22237100  0.80914700  1
  O  O7  1  0.55860600  0.72237100  0.19085300  1
  O  O8  1  0.36775300  0.72237100  0.80914700  1
  O  O9  1  0.63224700  0.22237100  0.19085300  1
  O  O10  1  0.27531000  0.33108800  0.50562900  1
  O  O11  1  0.72469000  0.83108800  0.49437100  1
  O  O12  1  0.23031900  0.83108800  0.50562900  1
  O  O13  1  0.76968100  0.33108800  0.49437100  1
  O  O14  1  0.10055900  0.28227100  0.12925500  1
  O  O15  1  0.89944100  0.78227100  0.87074500  1
  O  O16  1  0.02869700  0.78227100  0.12925500  1
  O  O17  1  0.97130300  0.28227100  0.87074500  1
loop_
_geom_bond_atom_site_label_1
_geom_bond_atom_site_label_2
_geom_bond_distance
_geom_bond_site_symmetry_2
Na0 O1 2.440421 1_555
Na0 O0 2.469449 1_555
Na0 O14 2.477862 1_555
Na0 O17 2.477864 1_454
Na0 O16 2.546363 1_555
Na0 O15 2.546367 1_454
Na0 O8 2.820779 1_554
Na0 O7 2.820779 1_555
Na1 O0 2.440421 1_545
Na1 O1 2.469449 1_555
Na1 O15 2.477862 1_544
Na1 O16 2.477864 1_645
Na1 O17 2.546363 1_554
Na1 O14 2.546367 1_655
Na1 O9 2.820779 1_555
Na1 O6 2.820779 1_554
Nb0 O14 1.877237 1_555
Nb0 O9 1.904316 1_555
Nb0 O2 2.012306 1_545
Nb0 O0 2.014683 1_545
Nb0 O7 2.182730 1_545
Nb0 O16 2.236221 1_545
Nb1 O15 1.877237 1_555
Nb1 O8 1.904316 1_555
Nb1 O3 2.012306 1_555
Nb1 O1 2.014683 1_556
Nb1 O6 2.182730 1_555
Nb1 O17 2.236221 1_555
Nb2 O16 1.877241 1_655
Nb2 O7 1.904316 1_555
Nb2 O4 2.012306 1_655
Nb2 O1 2.014683 1_555
Nb2 O9 2.182730 1_555
Nb2 O14 2.236225 1_655
Nb3 O17 1.877241 1_455
Nb3 O6 1.904316 1_555
Nb3 O5 2.012306 1_445
Nb3 O0 2.014683 1_546
Nb3 O8 2.182730 1_545
Nb3 O15 2.236225 1_445
Bi0 O13 2.219134 1_555
Bi0 O10 2.262525 1_555
Bi0 O3 2.318386 1_555
Bi0 O5 2.362140 1_545
Bi0 O11 2.398767 1_545
Bi0 O12 2.711463 1_545
Bi1 O12 2.219134 1_555
Bi1 O11 2.262525 1_555
Bi1 O2 2.318386 1_555
Bi1 O4 2.362140 1_555
Bi1 O10 2.398767 1_555
Bi1 O13 2.711463 1_555
Bi2 O11 2.219135 1_455
Bi2 O12 2.262525 1_555
Bi2 O5 2.318386 1_455
Bi2 O3 2.362140 1_455
Bi2 O13 2.398767 1_455
Bi2 O10 2.711463 1_555
Bi3 O10 2.219135 1_655
Bi3 O13 2.262525 1_555
Bi3 O4 2.318386 1_655
Bi3 O2 2.362140 1_645
Bi3 O12 2.398767 1_645
Bi3 O11 2.711463 1_545
