# generated using pymatgen
data_K3SmN6
_symmetry_space_group_name_H-M   'P 1'
_cell_length_a   7.31675419
_cell_length_b   7.31675419
_cell_length_c   6.25218478
_cell_angle_alpha   78.70027991
_cell_angle_beta   78.70027991
_cell_angle_gamma   118.66881983
_symmetry_Int_Tables_number   1
_chemical_formula_structural   K3SmN6
_chemical_formula_sum   'K3 Sm1 N6'
_cell_volume   271.13989394
_cell_formula_units_Z   1
loop_
 _symmetry_equiv_pos_site_id
 _symmetry_equiv_pos_as_xyz
  1  'x, y, z'
loop_
 _atom_site_type_symbol
 _atom_site_label
 _atom_site_symmetry_multiplicity
 _atom_site_fract_x
 _atom_site_fract_y
 _atom_site_fract_z
 _atom_site_occupancy
  K  K0  1  0.50000000  0.50000000  0.50000000  1
  K  K1  1  0.80466100  0.19533900  0.50000000  1
  K  K2  1  0.19533900  0.80466100  0.50000000  1
  Sm  Sm0  1  0.00000000  0.00000000  0.00000000  1
  N  N0  1  0.81499800  0.81499800  0.76376000  1
  N  N1  1  0.18500200  0.18500200  0.23624000  1
  N  N2  1  0.07279600  0.33879000  0.76909200  1
  N  N3  1  0.33879000  0.07279600  0.76909200  1
  N  N4  1  0.92720400  0.66121000  0.23090800  1
  N  N5  1  0.66121000  0.92720400  0.23090800  1
loop_
_geom_bond_atom_site_label_1
_geom_bond_atom_site_label_2
_geom_bond_distance
_geom_bond_site_symmetry_2
K0 N5 2.759714 1_555
K0 N4 2.759714 1_555
K0 N2 2.759714 1_555
K0 N3 2.759714 1_555
K0 N1 3.350439 1_555
K0 N0 3.350439 1_555
K1 N5 2.791210 1_545
K1 N2 2.791210 1_655
K1 N1 2.986957 1_655
K1 N0 2.986957 1_545
K1 N3 3.079359 1_555
K1 N4 3.079359 1_555
K2 N4 2.791210 1_455
K2 N3 2.791210 1_565
K2 N1 2.986957 1_565
K2 N0 2.986957 1_455
K2 N5 3.079359 1_555
K2 N2 3.079359 1_555
N0 Sm0 2.378037 1_666
N1 Sm0 2.378037 1_555
N2 Sm0 2.354144 1_556
N3 Sm0 2.354144 1_556
N4 Sm0 2.354144 1_665
N5 Sm0 2.354144 1_665
