# generated using pymatgen
data_CeSiBRh3
_symmetry_space_group_name_H-M   'P 1'
_cell_length_a   5.53335165
_cell_length_b   5.53335165
_cell_length_c   3.44893200
_cell_angle_alpha   90.00000000
_cell_angle_beta   90.00000000
_cell_angle_gamma   119.99999586
_symmetry_Int_Tables_number   1
_chemical_formula_structural   CeSiBRh3
_chemical_formula_sum   'Ce1 Si1 B1 Rh3'
_cell_volume   91.45170864
_cell_formula_units_Z   1
loop_
 _symmetry_equiv_pos_site_id
 _symmetry_equiv_pos_as_xyz
  1  'x, y, z'
loop_
 _atom_site_type_symbol
 _atom_site_label
 _atom_site_symmetry_multiplicity
 _atom_site_fract_x
 _atom_site_fract_y
 _atom_site_fract_z
 _atom_site_occupancy
  Ce  Ce0  1  0.33333300  0.66666700  0.00000000  1
  Si  Si0  1  0.00000000  0.00000000  0.00000000  1
  B  B0  1  0.66666700  0.33333300  0.00000000  1
  Rh  Rh0  1  0.82718100  0.65436200  0.50000000  1
  Rh  Rh1  1  0.34563800  0.17281900  0.50000000  1
  Rh  Rh2  1  0.82718100  0.17281900  0.50000000  1
loop_
_geom_bond_atom_site_label_1
_geom_bond_atom_site_label_2
_geom_bond_distance
_geom_bond_site_symmetry_2
Ce0 Si0 3.194679 1_565
Ce0 Si0 3.194684 1_555
Ce0 Si0 3.194684 1_665
Ce0 Rh1 3.260635 1_565
Ce0 Rh1 3.260635 1_564
Ce0 Rh0 3.260635 1_455
Ce0 Rh0 3.260635 1_454
Ce0 Rh2 3.260637 1_564
Ce0 Rh2 3.260637 1_565
Ce0 Rh2 3.260637 1_454
Ce0 Rh2 3.260637 1_455
Ce0 Rh0 3.260640 1_554
Ce0 Rh0 3.260640 1_555
Ce0 Rh1 3.260640 1_554
Ce0 Rh1 3.260640 1_555
B0 Rh2 2.310925 1_555
B0 Rh2 2.310925 1_554
B0 Rh1 2.310929 1_554
B0 Rh1 2.310929 1_555
B0 Rh0 2.310929 1_554
B0 Rh0 2.310929 1_555
B0 Ce0 3.194679 1_545
B0 Ce0 3.194679 1_655
B0 Ce0 3.194688 1_555
Rh0 Si0 2.391052 1_666
Rh0 Si0 2.391052 1_665
Rh1 Si0 2.391052 1_556
Rh1 Si0 2.391052 1_555
Rh2 Si0 2.391052 1_655
Rh2 Si0 2.391052 1_656
