# generated using pymatgen
data_NaMn2O4
_symmetry_space_group_name_H-M   'P 1'
_cell_length_a   2.92408600
_cell_length_b   5.92164900
_cell_length_c   9.37088800
_cell_angle_alpha   90.00000000
_cell_angle_beta   90.00000000
_cell_angle_gamma   90.00000000
_symmetry_Int_Tables_number   1
_chemical_formula_structural   NaMn2O4
_chemical_formula_sum   'Na2 Mn4 O8'
_cell_volume   162.26077657
_cell_formula_units_Z   2
loop_
 _symmetry_equiv_pos_site_id
 _symmetry_equiv_pos_as_xyz
  1  'x, y, z'
loop_
 _atom_site_type_symbol
 _atom_site_label
 _atom_site_symmetry_multiplicity
 _atom_site_fract_x
 _atom_site_fract_y
 _atom_site_fract_z
 _atom_site_occupancy
  Na  Na0  1  0.50000000  0.36654800  0.94976400  1
  Na  Na1  1  0.50000000  0.63345200  0.44976400  1
  Mn  Mn0  1  0.00000000  0.78283800  0.12630400  1
  Mn  Mn1  1  0.50000000  0.88773400  0.85267600  1
  Mn  Mn2  1  0.50000000  0.11226600  0.35267600  1
  Mn  Mn3  1  0.00000000  0.21716200  0.62630400  1
  O  O0  1  0.50000000  0.58353700  0.16547500  1
  O  O1  1  0.00000000  0.10140600  0.81923500  1
  O  O2  1  0.00000000  0.89859400  0.31923500  1
  O  O3  1  0.50000000  0.41646300  0.66547500  1
  O  O4  1  0.50000000  0.99394000  0.08272000  1
  O  O5  1  0.00000000  0.69240100  0.91932300  1
  O  O6  1  0.50000000  0.00606000  0.58272000  1
  O  O7  1  0.00000000  0.30759900  0.41932300  1
loop_
_geom_bond_atom_site_label_1
_geom_bond_atom_site_label_2
_geom_bond_distance
_geom_bond_site_symmetry_2
Na0 O0 2.395230 1_556
Na0 O5 2.437673 1_555
Na0 O5 2.437673 1_655
Na0 O1 2.469588 1_655
Na0 O1 2.469588 1_555
Na0 O4 2.533919 1_546
Na0 O3 2.680388 1_555
Na1 O3 2.395230 1_555
Na1 O7 2.437673 1_655
Na1 O7 2.437673 1_555
Na1 O2 2.469588 1_655
Na1 O2 2.469588 1_555
Na1 O6 2.533919 1_565
Na1 O0 2.680388 1_555
Mn0 O0 1.914460 1_555
Mn0 O0 1.914460 1_455
Mn0 O2 1.933518 1_555
Mn0 O4 1.966483 1_455
Mn0 O4 1.966483 1_555
Mn0 O5 2.012171 1_554
Mn1 O1 1.958758 1_665
Mn1 O1 1.958758 1_565
Mn1 O5 1.966103 1_555
Mn1 O5 1.966103 1_655
Mn1 O4 2.245584 1_556
Mn1 O6 2.624972 1_565
Mn2 O2 1.958758 1_545
Mn2 O2 1.958758 1_645
Mn2 O7 1.966103 1_655
Mn2 O7 1.966103 1_555
Mn2 O6 2.245584 1_555
Mn2 O4 2.624972 1_545
Mn3 O3 1.914460 1_555
Mn3 O3 1.914460 1_455
Mn3 O1 1.933518 1_555
Mn3 O6 1.966483 1_455
Mn3 O6 1.966483 1_555
Mn3 O7 2.012171 1_555
