# generated using pymatgen
data_Ca2YbF7
_symmetry_space_group_name_H-M   'P 1'
_cell_length_a   8.87600800
_cell_length_b   8.91202614
_cell_length_c   10.16614681
_cell_angle_alpha   115.87593301
_cell_angle_beta   115.49933803
_cell_angle_gamma   90.38109706
_symmetry_Int_Tables_number   1
_chemical_formula_structural   Ca2YbF7
_chemical_formula_sum   'Ca10 Yb5 F35'
_cell_volume   634.05496172
_cell_formula_units_Z   5
loop_
 _symmetry_equiv_pos_site_id
 _symmetry_equiv_pos_as_xyz
  1  'x, y, z'
loop_
 _atom_site_type_symbol
 _atom_site_label
 _atom_site_symmetry_multiplicity
 _atom_site_fract_x
 _atom_site_fract_y
 _atom_site_fract_z
 _atom_site_occupancy
  Ca  Ca0  1  0.33758300  0.20940600  0.31698000  1
  Ca  Ca1  1  0.52461600  0.66487700  0.31495100  1
  Ca  Ca2  1  0.79037700  0.01860000  0.31881600  1
  Ca  Ca3  1  0.02029400  0.52942300  0.68214600  1
  Ca  Ca4  1  0.98120200  0.47277500  0.31788000  1
  Ca  Ca5  1  0.21099400  0.97742400  0.68233400  1
  Ca  Ca6  1  0.49903400  0.50142000  0.00020700  1
  Ca  Ca7  1  0.47421900  0.33464700  0.68373600  1
  Ca  Ca8  1  0.68803800  0.89986700  0.00075800  1
  Ca  Ca9  1  0.66211200  0.79086600  0.68292400  1
  Yb  Yb0  1  0.80996700  0.19013200  0.62081400  1
  Yb  Yb1  1  0.10110600  0.68361700  0.99869000  1
  Yb  Yb2  1  0.31032800  0.09984500  0.99944300  1
  Yb  Yb3  1  0.19113500  0.81016000  0.37907100  1
  Yb  Yb4  1  0.89913400  0.31531200  0.00109400  1
  F  F0  1  0.34544900  0.95260500  0.26007100  1
  F  F1  1  0.52878100  0.36646000  0.46274700  1
  F  F2  1  0.37109400  0.49424000  0.15780900  1
  F  F3  1  0.63467800  0.06942200  0.46104400  1
  F  F4  1  0.78785200  0.33912200  0.74484600  1
  F  F5  1  0.50324400  0.21424700  0.15549400  1
  F  F6  1  0.00791800  0.00487000  0.99892700  1
  F  F7  1  0.91535800  0.58350400  0.83074400  1
  F  F8  1  0.75206600  0.75187000  0.50063900  1
  F  F9  1  0.58363300  0.91702900  0.16922800  1
  F  F10  1  0.95773900  0.91889500  0.73899100  1
  F  F11  1  0.82592100  0.47074800  0.46371200  1
  F  F12  1  0.65520100  0.62137700  0.16324600  1
  F  F13  1  0.15095000  0.28862400  0.00388500  1
  F  F14  1  0.07944900  0.22391400  0.73772000  1
  F  F15  1  0.92932900  0.17583200  0.45966100  1
  F  F16  1  0.78549100  0.34659500  0.15637300  1
  F  F17  1  0.29039800  0.84928000  0.00300100  1
  F  F18  1  0.21412700  0.65268500  0.84382100  1
  F  F19  1  0.07002700  0.82565600  0.53819900  1
  F  F20  1  0.92144100  0.77589000  0.26589800  1
  F  F21  1  0.34534400  0.37280500  0.84361200  1
  F  F22  1  0.17958800  0.52641800  0.54170700  1
  F  F23  1  0.04190000  0.08188600  0.25887700  1
  F  F24  1  0.40901500  0.08687500  0.82971200  1
  F  F25  1  0.24811500  0.24753300  0.49935200  1
  F  F26  1  0.08516300  0.41536300  0.16903800  1
  F  F27  1  0.49099700  0.78563300  0.84040200  1
  F  F28  1  0.21233700  0.65852300  0.25731100  1
  F  F29  1  0.36566200  0.93314900  0.53294200  1
  F  F30  1  0.62869500  0.50474500  0.84324500  1
  F  F31  1  0.70753800  0.15418200  0.99680000  1
  F  F32  1  0.47277300  0.63354400  0.53944400  1
  F  F33  1  0.65212100  0.04907000  0.73544500  1
  F  F34  1  0.85046600  0.70903300  0.99620900  1
loop_
_geom_bond_atom_site_label_1
_geom_bond_atom_site_label_2
_geom_bond_distance
_geom_bond_site_symmetry_2
Ca0 F1 1.740058 1_555
Ca0 F0 2.111528 1_545
Ca0 F25 2.214690 1_555
Ca0 F23 2.562811 1_555
Ca0 F6 2.996330 1_554
Ca1 F2 1.642916 1_555
Ca1 F8 1.913314 1_555
Ca1 F12 2.212582 1_555
Ca1 F28 2.569028 1_555
Ca1 F32 2.637622 1_555
Ca2 F15 1.496692 1_555
Ca2 F9 1.695020 1_545
Ca2 F20 2.424479 1_545
Ca2 F23 2.669845 1_655
Ca3 F18 1.682966 1_555
Ca3 F11 1.963917 1_455
Ca3 F7 1.990949 1_455
Ca3 F22 2.396539 1_555
Ca4 F16 1.698440 1_555
Ca4 F26 1.983835 1_655
Ca4 F22 2.023952 1_655
Ca4 F11 2.424934 1_555
Ca5 F19 1.486974 1_555
Ca5 F24 1.649166 1_565
Ca5 F14 2.454886 1_565
Ca5 F10 2.649204 1_455
Ca6 F21 1.491893 1_554
Ca6 F12 1.505659 1_555
Ca6 F30 2.343851 1_554
Ca6 F2 2.348576 1_555
Ca7 F30 1.649218 1_555
Ca7 F25 1.901079 1_555
Ca7 F21 2.278009 1_555
Ca8 F27 1.680971 1_554
Ca8 F9 2.226040 1_555
Ca8 F34 2.234835 1_554
Ca8 F31 2.291027 1_564
Ca8 F23 2.915958 1_665
Ca8 F6 2.993793 1_664
Ca9 F32 1.729366 1_555
Ca9 F33 2.135220 1_565
Ca9 F8 2.215374 1_555
Ca9 F10 2.572322 1_555
Ca9 F6 3.076235 1_665
F3 Yb0 1.578900 1_555
F4 Yb0 1.465171 1_555
F5 Yb2 1.647544 1_554
F6 Yb2 2.806266 1_555
F6 Yb4 2.930513 1_456
F6 Yb1 2.984663 1_545
F7 Yb1 1.629872 1_655
F10 Yb2 2.911508 1_665
F13 Yb2 2.203197 1_554
F13 Yb4 2.238638 1_455
F14 Yb0 2.110668 1_455
F16 F31 1.624996 1_554
F17 F18 1.647107 1_554
F17 Yb1 2.202660 1_554
F17 Yb2 2.256066 1_564
F20 Yb3 2.111764 1_655
F24 Yb2 2.210577 1_555
F26 Yb4 1.631209 1_455
F28 Yb3 1.462107 1_555
F29 Yb3 1.562858 1_555
F31 Yb4 2.192016 1_556
F34 Yb1 2.228123 1_655
