# generated using pymatgen
data_Mg30MnSiO32
_symmetry_space_group_name_H-M   'P 1'
_cell_length_a   8.54181900
_cell_length_b   8.54181900
_cell_length_c   8.55638300
_cell_angle_alpha   90.00000000
_cell_angle_beta   90.00000000
_cell_angle_gamma   90.00000000
_symmetry_Int_Tables_number   1
_chemical_formula_structural   Mg30MnSiO32
_chemical_formula_sum   'Mg30 Mn1 Si1 O32'
_cell_volume   624.29656487
_cell_formula_units_Z   1
loop_
 _symmetry_equiv_pos_site_id
 _symmetry_equiv_pos_as_xyz
  1  'x, y, z'
loop_
 _atom_site_type_symbol
 _atom_site_label
 _atom_site_symmetry_multiplicity
 _atom_site_fract_x
 _atom_site_fract_y
 _atom_site_fract_z
 _atom_site_occupancy
  Mg  Mg0  1  0.00000000  0.50000000  0.00000000  1
  Mg  Mg1  1  0.50000000  0.00000000  0.00000000  1
  Mg  Mg2  1  0.00000000  0.00000000  0.50000000  1
  Mg  Mg3  1  0.00000000  0.50000000  0.50000000  1
  Mg  Mg4  1  0.50000000  0.00000000  0.50000000  1
  Mg  Mg5  1  0.50000000  0.50000000  0.50000000  1
  Mg  Mg6  1  0.24849900  0.24849900  0.00000000  1
  Mg  Mg7  1  0.24849900  0.75150100  0.00000000  1
  Mg  Mg8  1  0.75150100  0.24849900  0.00000000  1
  Mg  Mg9  1  0.75150100  0.75150100  0.00000000  1
  Mg  Mg10  1  0.24966500  0.24966500  0.50000000  1
  Mg  Mg11  1  0.24966500  0.75033500  0.50000000  1
  Mg  Mg12  1  0.75033500  0.24966500  0.50000000  1
  Mg  Mg13  1  0.75033500  0.75033500  0.50000000  1
  Mg  Mg14  1  0.00000000  0.24816900  0.24943700  1
  Mg  Mg15  1  0.00000000  0.75183100  0.24943700  1
  Mg  Mg16  1  0.50000000  0.24826200  0.25142700  1
  Mg  Mg17  1  0.50000000  0.75173800  0.25142700  1
  Mg  Mg18  1  0.00000000  0.24816900  0.75056300  1
  Mg  Mg19  1  0.00000000  0.75183100  0.75056300  1
  Mg  Mg20  1  0.50000000  0.24826200  0.74857300  1
  Mg  Mg21  1  0.50000000  0.75173800  0.74857300  1
  Mg  Mg22  1  0.24816900  0.00000000  0.24943700  1
  Mg  Mg23  1  0.24826200  0.50000000  0.25142700  1
  Mg  Mg24  1  0.75183100  0.00000000  0.24943700  1
  Mg  Mg25  1  0.75173800  0.50000000  0.25142700  1
  Mg  Mg26  1  0.24816900  0.00000000  0.75056300  1
  Mg  Mg27  1  0.24826200  0.50000000  0.74857300  1
  Mg  Mg28  1  0.75183100  0.00000000  0.75056300  1
  Mg  Mg29  1  0.75173800  0.50000000  0.74857300  1
  Mn  Mn0  1  0.00000000  0.00000000  0.00000000  1
  Si  Si0  1  0.50000000  0.50000000  0.00000000  1
  O  O0  1  0.00000000  0.00000000  0.25473400  1
  O  O1  1  0.00000000  0.50000000  0.25029800  1
  O  O2  1  0.50000000  0.00000000  0.25029800  1
  O  O3  1  0.50000000  0.50000000  0.25948500  1
  O  O4  1  0.00000000  0.00000000  0.74526600  1
  O  O5  1  0.00000000  0.50000000  0.74970200  1
  O  O6  1  0.50000000  0.00000000  0.74970200  1
  O  O7  1  0.50000000  0.50000000  0.74051500  1
  O  O8  1  0.25025100  0.25025100  0.24904300  1
  O  O9  1  0.25025100  0.74974900  0.24904300  1
  O  O10  1  0.74974900  0.25025100  0.24904300  1
  O  O11  1  0.74974900  0.74974900  0.24904300  1
  O  O12  1  0.25025100  0.25025100  0.75095700  1
  O  O13  1  0.25025100  0.74974900  0.75095700  1
  O  O14  1  0.74974900  0.25025100  0.75095700  1
  O  O15  1  0.74974900  0.74974900  0.75095700  1
  O  O16  1  0.00000000  0.24745400  0.00000000  1
  O  O17  1  0.00000000  0.75254600  0.00000000  1
  O  O18  1  0.50000000  0.23956500  0.00000000  1
  O  O19  1  0.50000000  0.76043500  0.00000000  1
  O  O20  1  0.00000000  0.24999700  0.50000000  1
  O  O21  1  0.00000000  0.75000300  0.50000000  1
  O  O22  1  0.50000000  0.24872400  0.50000000  1
  O  O23  1  0.50000000  0.75127600  0.50000000  1
  O  O24  1  0.24745400  0.00000000  0.00000000  1
  O  O25  1  0.23956500  0.50000000  0.00000000  1
  O  O26  1  0.75254600  0.00000000  0.00000000  1
  O  O27  1  0.76043500  0.50000000  0.00000000  1
  O  O28  1  0.24999700  0.00000000  0.50000000  1
  O  O29  1  0.24872400  0.50000000  0.50000000  1
  O  O30  1  0.75000300  0.00000000  0.50000000  1
  O  O31  1  0.75127600  0.50000000  0.50000000  1
loop_
_geom_bond_atom_site_label_1
_geom_bond_atom_site_label_2
_geom_bond_distance
_geom_bond_site_symmetry_2
Mg0 O25 2.046321 1_555
Mg0 O27 2.046321 1_455
Mg0 O1 2.141646 1_555
Mg0 O5 2.141646 1_554
Mg0 O17 2.157202 1_555
Mg0 O16 2.157202 1_555
Mg1 O18 2.046321 1_555
Mg1 O19 2.046321 1_545
Mg1 O2 2.141646 1_555
Mg1 O6 2.141646 1_554
Mg1 O26 2.157202 1_555
Mg1 O24 2.157202 1_555
Mg2 O4 2.098590 1_555
Mg2 O0 2.098590 1_555
Mg2 O28 2.135429 1_555
Mg2 O30 2.135429 1_455
Mg2 O21 2.135429 1_545
Mg2 O20 2.135429 1_555
Mg3 O29 2.124555 1_555
Mg3 O31 2.124555 1_455
Mg3 O21 2.135480 1_555
Mg3 O20 2.135480 1_555
Mg3 O5 2.136546 1_555
Mg3 O1 2.136546 1_555
Mg4 O22 2.124555 1_555
Mg4 O23 2.124555 1_545
Mg4 O30 2.135480 1_555
Mg4 O28 2.135480 1_555
Mg4 O6 2.136546 1_555
Mg4 O2 2.136546 1_555
Mg5 O7 2.057938 1_555
Mg5 O3 2.057938 1_555
Mg5 O23 2.146354 1_555
Mg5 O31 2.146354 1_555
Mg5 O22 2.146354 1_555
Mg5 O29 2.146354 1_555
Mg6 O24 2.122652 1_555
Mg6 O16 2.122652 1_555
Mg6 O12 2.131012 1_554
Mg6 O8 2.131012 1_555
Mg6 O25 2.149631 1_555
Mg6 O18 2.149631 1_555
Mg7 O24 2.122652 1_565
Mg7 O17 2.122652 1_555
Mg7 O9 2.131012 1_555
Mg7 O13 2.131012 1_554
Mg7 O25 2.149631 1_555
Mg7 O19 2.149631 1_555
Mg8 O26 2.122652 1_555
Mg8 O16 2.122652 1_655
Mg8 O10 2.131012 1_555
Mg8 O14 2.131012 1_554
Mg8 O27 2.149631 1_555
Mg8 O18 2.149631 1_555
Mg9 O17 2.122652 1_655
Mg9 O26 2.122652 1_565
Mg9 O15 2.131012 1_554
Mg9 O11 2.131012 1_555
Mg9 O27 2.149631 1_555
Mg9 O19 2.149631 1_555
Mg10 O20 2.132595 1_555
Mg10 O28 2.132595 1_555
Mg10 O22 2.138331 1_555
Mg10 O29 2.138331 1_555
Mg10 O8 2.147296 1_555
Mg10 O12 2.147296 1_555
Mg11 O28 2.132595 1_565
Mg11 O21 2.132595 1_555
Mg11 O23 2.138331 1_555
Mg11 O29 2.138331 1_555
Mg11 O9 2.147296 1_555
Mg11 O13 2.147296 1_555
Mg12 O30 2.132595 1_555
Mg12 O20 2.132595 1_655
Mg12 O31 2.138331 1_555
Mg12 O22 2.138331 1_555
Mg12 O10 2.147296 1_555
Mg12 O14 2.147296 1_555
Mg13 O30 2.132595 1_565
Mg13 O21 2.132595 1_655
Mg13 O31 2.138331 1_555
Mg13 O23 2.138331 1_555
Mg13 O11 2.147296 1_555
Mg13 O15 2.147296 1_555
Mg14 O0 2.120299 1_555
Mg14 O16 2.134287 1_555
Mg14 O8 2.137675 1_555
Mg14 O10 2.137675 1_455
Mg14 O20 2.143970 1_555
Mg14 O1 2.151107 1_555
Mg15 O0 2.120299 1_565
Mg15 O17 2.134287 1_555
Mg15 O9 2.137675 1_555
Mg15 O11 2.137675 1_455
Mg15 O21 2.143970 1_555
Mg15 O1 2.151107 1_555
Mg16 O2 2.120631 1_555
Mg16 O22 2.126889 1_555
Mg16 O8 2.133476 1_555
Mg16 O10 2.133476 1_555
Mg16 O3 2.151406 1_555
Mg16 O18 2.152588 1_555
Mg17 O2 2.120631 1_565
Mg17 O23 2.126889 1_555
Mg17 O9 2.133476 1_555
Mg17 O11 2.133476 1_555
Mg17 O3 2.151406 1_555
Mg17 O19 2.152588 1_555
Mg18 O4 2.120299 1_555
Mg18 O16 2.134287 1_556
Mg18 O14 2.137675 1_455
Mg18 O12 2.137675 1_555
Mg18 O20 2.143970 1_555
Mg18 O5 2.151107 1_555
Mg19 O4 2.120299 1_565
Mg19 O17 2.134287 1_556
Mg19 O15 2.137675 1_455
Mg19 O13 2.137675 1_555
Mg19 O21 2.143970 1_555
Mg19 O5 2.151107 1_555
Mg20 O6 2.120631 1_555
Mg20 O22 2.126889 1_555
Mg20 O12 2.133476 1_555
Mg20 O14 2.133476 1_555
Mg20 O7 2.151406 1_555
Mg20 O18 2.152588 1_556
Mg21 O6 2.120631 1_565
Mg21 O23 2.126889 1_555
Mg21 O13 2.133476 1_555
Mg21 O15 2.133476 1_555
Mg21 O7 2.151406 1_555
Mg21 O19 2.152588 1_556
Mg22 O0 2.120299 1_555
Mg22 O24 2.134287 1_555
Mg22 O9 2.137675 1_545
Mg22 O8 2.137675 1_555
Mg22 O28 2.143970 1_555
Mg22 O2 2.151107 1_555
Mg23 O1 2.120631 1_555
Mg23 O29 2.126889 1_555
Mg23 O9 2.133476 1_555
Mg23 O8 2.133476 1_555
Mg23 O3 2.151406 1_555
Mg23 O25 2.152588 1_555
Mg24 O0 2.120299 1_655
Mg24 O26 2.134287 1_555
Mg24 O11 2.137675 1_545
Mg24 O10 2.137675 1_555
Mg24 O30 2.143970 1_555
Mg24 O2 2.151107 1_555
Mg25 O1 2.120631 1_655
Mg25 O31 2.126889 1_555
Mg25 O10 2.133476 1_555
Mg25 O11 2.133476 1_555
Mg25 O3 2.151406 1_555
Mg25 O27 2.152588 1_555
Mg26 O4 2.120299 1_555
Mg26 O24 2.134287 1_556
Mg26 O13 2.137675 1_545
Mg26 O12 2.137675 1_555
Mg26 O28 2.143970 1_555
Mg26 O6 2.151107 1_555
Mg27 O5 2.120631 1_555
Mg27 O29 2.126889 1_555
Mg27 O13 2.133476 1_555
Mg27 O12 2.133476 1_555
Mg27 O7 2.151406 1_555
Mg27 O25 2.152588 1_556
Mg28 O4 2.120299 1_655
Mg28 O26 2.134287 1_556
Mg28 O14 2.137675 1_555
Mg28 O15 2.137675 1_545
Mg28 O30 2.143970 1_555
Mg28 O6 2.151107 1_555
Mg29 O5 2.120631 1_655
Mg29 O31 2.126889 1_555
Mg29 O14 2.133476 1_555
Mg29 O15 2.133476 1_555
Mg29 O7 2.151406 1_555
Mg29 O27 2.152588 1_556
Mn0 O24 2.113707 1_555
Mn0 O16 2.113707 1_555
Mn0 O26 2.113707 1_455
Mn0 O17 2.113707 1_545
Mn0 O0 2.179602 1_555
Mn0 O4 2.179602 1_554
O3 Si0 2.220253 1_555
O7 Si0 2.220253 1_556
O18 Si0 2.224589 1_555
O19 Si0 2.224589 1_555
O25 Si0 2.224589 1_555
O27 Si0 2.224589 1_555
