# generated using pymatgen
data_Zn3Si4(NiO7)2
_symmetry_space_group_name_H-M   'P 1'
_cell_length_a   9.13958804
_cell_length_b   9.13958804
_cell_length_c   9.69278129
_cell_angle_alpha   60.18617049
_cell_angle_beta   60.18617049
_cell_angle_gamma   48.80559925
_symmetry_Int_Tables_number   1
_chemical_formula_structural   Zn3Si4(NiO7)2
_chemical_formula_sum   'Zn6 Si8 Ni4 O28'
_cell_volume   510.43833588
_cell_formula_units_Z   2
loop_
 _symmetry_equiv_pos_site_id
 _symmetry_equiv_pos_as_xyz
  1  'x, y, z'
loop_
 _atom_site_type_symbol
 _atom_site_label
 _atom_site_symmetry_multiplicity
 _atom_site_fract_x
 _atom_site_fract_y
 _atom_site_fract_z
 _atom_site_occupancy
  Zn  Zn0  1  0.07212300  0.26351400  0.10528600  1
  Zn  Zn1  1  0.73648600  0.92787700  0.39471400  1
  Zn  Zn2  1  0.26351400  0.07212300  0.60528600  1
  Zn  Zn3  1  0.38148100  0.61851900  0.75000000  1
  Zn  Zn4  1  0.92787700  0.73648600  0.89471400  1
  Zn  Zn5  1  0.61851900  0.38148100  0.25000000  1
  Si  Si0  1  0.53656200  0.09888500  0.70632100  1
  Si  Si1  1  0.09888500  0.53656200  0.20632100  1
  Si  Si2  1  0.52755100  0.23234800  0.09972100  1
  Si  Si3  1  0.23234800  0.52755100  0.59972100  1
  Si  Si4  1  0.90111500  0.46343800  0.79367900  1
  Si  Si5  1  0.47244900  0.76765200  0.90027900  1
  Si  Si6  1  0.76765200  0.47244900  0.40027900  1
  Si  Si7  1  0.46343800  0.90111500  0.29367900  1
  Ni  Ni0  1  0.78501000  0.21499000  0.75000000  1
  Ni  Ni1  1  0.21499000  0.78501000  0.25000000  1
  Ni  Ni2  1  0.00000000  0.00000000  0.00000000  1
  Ni  Ni3  1  0.00000000  0.00000000  0.50000000  1
  O  O0  1  0.84133800  0.29183500  0.33240600  1
  O  O1  1  0.97535900  0.87548100  0.41710100  1
  O  O2  1  0.45900900  0.63913400  0.09179700  1
  O  O3  1  0.87548100  0.97535900  0.91710100  1
  O  O4  1  0.24068400  0.96495800  0.31457500  1
  O  O5  1  0.05288400  0.51229100  0.62181100  1
  O  O6  1  0.63913400  0.45900800  0.59179700  1
  O  O7  1  0.03504200  0.75931600  0.18542500  1
  O  O8  1  0.94711600  0.48770900  0.37818900  1
  O  O9  1  0.63393700  0.67258300  0.27083500  1
  O  O10  1  0.02464100  0.12451900  0.58289900  1
  O  O11  1  0.75931600  0.03504200  0.68542500  1
  O  O12  1  0.48770900  0.94711600  0.87818900  1
  O  O13  1  0.29183500  0.84133800  0.83240600  1
  O  O14  1  0.67258300  0.63393700  0.77083500  1
  O  O15  1  0.96495800  0.24068400  0.81457500  1
  O  O16  1  0.90761300  0.49427300  0.94147800  1
  O  O17  1  0.36606300  0.32741700  0.72916500  1
  O  O18  1  0.50572700  0.09238700  0.55852200  1
  O  O19  1  0.32741700  0.36606300  0.22916500  1
  O  O20  1  0.51229100  0.05288400  0.12181100  1
  O  O21  1  0.12451900  0.02464100  0.08289900  1
  O  O22  1  0.49427300  0.90761300  0.44147800  1
  O  O23  1  0.54099200  0.36086600  0.90820300  1
  O  O24  1  0.09238700  0.50572700  0.05852200  1
  O  O25  1  0.36086600  0.54099100  0.40820300  1
  O  O26  1  0.70816500  0.15866200  0.16759400  1
  O  O27  1  0.15866200  0.70816500  0.66759400  1
loop_
_geom_bond_atom_site_label_1
_geom_bond_atom_site_label_2
_geom_bond_distance
_geom_bond_site_symmetry_2
Ni0 O3 1.876880 1_545
Ni0 O10 1.876880 1_655
Ni0 O23 1.954082 1_555
Ni0 O6 1.954082 1_555
Ni0 O15 2.197792 1_555
Ni0 O11 2.197792 1_555
Ni1 O1 1.876880 1_455
Ni1 O21 1.876880 1_565
Ni1 O25 1.954084 1_555
Ni1 O2 1.954084 1_555
Ni1 O4 2.197792 1_555
Ni1 O7 2.197792 1_555
Ni2 O21 1.848885 1_555
Ni2 O3 1.848885 1_444
Ni2 O7 1.970982 1_545
Ni2 O15 1.970982 1_454
Ni2 O13 2.189758 1_544
Ni2 O26 2.189758 1_455
Ni3 O10 1.848885 1_555
Ni3 O1 1.848885 1_445
Ni3 O4 1.970982 1_545
Ni3 O11 1.970982 1_455
Ni3 O0 2.189758 1_455
Ni3 O27 2.189758 1_545
O0 Si6 1.669198 1_555
O0 Zn5 2.055571 1_555
O0 Zn0 2.143014 1_655
O1 Zn1 2.008325 1_555
O2 Si5 1.623551 1_554
O2 Zn5 2.032788 1_555
O3 Zn4 2.008325 1_555
O4 Si7 1.633710 1_555
O4 Zn0 2.449563 1_565
O5 Si4 1.636164 1_455
O5 Si3 1.636479 1_555
O6 Si6 1.623551 1_555
O6 Zn3 2.032791 1_555
O7 Si1 1.633710 1_555
O7 Zn1 2.449563 1_455
O8 Si1 1.636164 1_655
O8 Si6 1.636479 1_555
O9 Si7 1.633827 1_555
O9 Si6 1.646697 1_555
O10 Zn2 2.008325 1_555
O11 Si0 1.633710 1_555
O11 Zn4 2.449563 1_545
O12 Si0 1.636164 1_565
O12 Si5 1.636479 1_555
O13 Si5 1.669198 1_555
O13 Zn3 2.055571 1_555
O13 Zn2 2.143014 1_565
O14 Si4 1.633827 1_555
O14 Si5 1.646697 1_555
O15 Si4 1.633710 1_555
O15 Zn2 2.449563 1_655
O16 Si4 1.625837 1_555
O16 Zn0 2.024038 1_656
O16 Zn4 2.144564 1_555
O17 Si0 1.633827 1_555
O17 Si3 1.646697 1_555
O18 Si0 1.625837 1_555
O18 Zn1 2.024038 1_545
O18 Zn2 2.144564 1_555
O19 Si1 1.633827 1_555
O19 Si2 1.646697 1_555
O20 Si7 1.636164 1_545
O20 Si2 1.636479 1_555
O21 Zn0 2.008325 1_555
O22 Si7 1.625837 1_555
O22 Zn2 2.024038 1_565
O22 Zn1 2.144564 1_555
O23 Si2 1.623551 1_556
O23 Zn3 2.032791 1_555
O24 Si1 1.625837 1_555
O24 Zn4 2.024038 1_454
O24 Zn0 2.144564 1_555
O25 Si3 1.623551 1_555
O25 Zn5 2.032788 1_555
O26 Si2 1.669198 1_555
O26 Zn5 2.055571 1_555
O26 Zn1 2.143014 1_545
O27 Si3 1.669198 1_555
O27 Zn3 2.055571 1_555
O27 Zn4 2.143014 1_455
