# generated using pymatgen
data_Zr2Ga(PO4)3
_symmetry_space_group_name_H-M   'P 1'
_cell_length_a   9.54692962
_cell_length_b   9.54692962
_cell_length_c   9.54692994
_cell_angle_alpha   55.40799456
_cell_angle_beta   55.40799456
_cell_angle_gamma   55.40799459
_symmetry_Int_Tables_number   1
_chemical_formula_structural   Zr2Ga(PO4)3
_chemical_formula_sum   'Zr4 Ga2 P6 O24'
_cell_volume   549.65842145
_cell_formula_units_Z   2
loop_
 _symmetry_equiv_pos_site_id
 _symmetry_equiv_pos_as_xyz
  1  'x, y, z'
loop_
 _atom_site_type_symbol
 _atom_site_label
 _atom_site_symmetry_multiplicity
 _atom_site_fract_x
 _atom_site_fract_y
 _atom_site_fract_z
 _atom_site_occupancy
  Zr  Zr0  1  0.35068900  0.35068900  0.35068900  1
  Zr  Zr1  1  0.85068900  0.85068900  0.85068900  1
  Zr  Zr2  1  0.64931100  0.64931100  0.64931100  1
  Zr  Zr3  1  0.14931100  0.14931100  0.14931100  1
  Ga  Ga0  1  0.50000000  0.50000000  0.50000000  1
  Ga  Ga1  1  0.00000000  0.00000000  0.00000000  1
  P  P0  1  0.96250400  0.53749600  0.25000000  1
  P  P1  1  0.25000000  0.96250400  0.53749600  1
  P  P2  1  0.53749600  0.25000000  0.96250400  1
  P  P3  1  0.75000000  0.03749600  0.46250400  1
  P  P4  1  0.46250400  0.75000000  0.03749600  1
  P  P5  1  0.03749600  0.46250400  0.75000000  1
  O  O0  1  0.13180800  0.51093800  0.26095300  1
  O  O1  1  0.26095300  0.13180800  0.51093800  1
  O  O2  1  0.51093800  0.26095300  0.13180800  1
  O  O3  1  0.76095300  0.01093800  0.63180800  1
  O  O4  1  0.63180800  0.76095300  0.01093800  1
  O  O5  1  0.01093800  0.63180800  0.76095300  1
  O  O6  1  0.86819200  0.48906200  0.73904700  1
  O  O7  1  0.73904700  0.86819200  0.48906200  1
  O  O8  1  0.48906200  0.73904700  0.86819200  1
  O  O9  1  0.23904700  0.98906200  0.36819200  1
  O  O10  1  0.36819200  0.23904700  0.98906200  1
  O  O11  1  0.98906200  0.36819200  0.23904700  1
  O  O12  1  0.20620000  0.43022300  0.57804200  1
  O  O13  1  0.57804200  0.20620000  0.43022300  1
  O  O14  1  0.43022300  0.57804200  0.20620000  1
  O  O15  1  0.07804200  0.93022300  0.70620000  1
  O  O16  1  0.70620000  0.07804200  0.93022300  1
  O  O17  1  0.93022300  0.70620000  0.07804200  1
  O  O18  1  0.79380000  0.56977700  0.42195800  1
  O  O19  1  0.42195800  0.79380000  0.56977700  1
  O  O20  1  0.56977700  0.42195800  0.79380000  1
  O  O21  1  0.92195800  0.06977700  0.29380000  1
  O  O22  1  0.29380000  0.92195800  0.06977700  1
  O  O23  1  0.06977700  0.29380000  0.92195800  1
loop_
_geom_bond_atom_site_label_1
_geom_bond_atom_site_label_2
_geom_bond_distance
_geom_bond_site_symmetry_2
O0 P0 1.544095 1_455
O0 Zr0 2.087016 1_555
O1 P1 1.544095 1_545
O1 Zr0 2.087016 1_555
O2 P2 1.544095 1_554
O2 Zr0 2.087016 1_555
O3 P3 1.544095 1_555
O3 Zr1 2.087016 1_545
O4 P4 1.544095 1_555
O4 Zr1 2.087016 1_554
O5 P5 1.544095 1_555
O5 Zr1 2.087016 1_455
O6 P5 1.544095 1_655
O6 Zr2 2.087016 1_555
O7 P3 1.544095 1_565
O7 Zr2 2.087016 1_555
O8 P4 1.544095 1_556
O8 Zr2 2.087016 1_555
O9 P1 1.544095 1_555
O9 Zr3 2.087016 1_565
O10 P2 1.544095 1_555
O10 Zr3 2.087016 1_556
O11 P0 1.544095 1_555
O11 Zr3 2.087016 1_655
O12 P5 1.546847 1_555
O12 Zr0 2.114932 1_555
O13 P3 1.546847 1_555
O13 Zr0 2.114932 1_555
O14 P4 1.546847 1_555
O14 Zr0 2.114932 1_555
O15 P1 1.546847 1_555
O15 Zr1 2.114932 1_455
O16 P2 1.546847 1_555
O16 Zr1 2.114932 1_545
O17 P0 1.546847 1_555
O17 Zr1 2.114932 1_554
O18 P0 1.546847 1_555
O18 Zr2 2.114932 1_555
O19 P1 1.546847 1_555
O19 Zr2 2.114932 1_555
O20 P2 1.546847 1_555
O20 Zr2 2.114932 1_555
O21 P3 1.546847 1_555
O21 Zr3 2.114932 1_655
O22 P4 1.546847 1_555
O22 Zr3 2.114932 1_565
O23 P5 1.546847 1_555
O23 Zr3 2.114932 1_556
