# generated using pymatgen
data_CsLu(TaBr3)6
_symmetry_space_group_name_H-M   'P 1'
_cell_length_a   9.78029030
_cell_length_b   9.78029030
_cell_length_c   18.21710084
_cell_angle_alpha   90.00000000
_cell_angle_beta   90.00000000
_cell_angle_gamma   120.00000149
_symmetry_Int_Tables_number   1
_chemical_formula_structural   CsLu(TaBr3)6
_chemical_formula_sum   'Cs2 Lu2 Ta12 Br36'
_cell_volume   1509.08387683
_cell_formula_units_Z   2
loop_
 _symmetry_equiv_pos_site_id
 _symmetry_equiv_pos_as_xyz
  1  'x, y, z'
loop_
 _atom_site_type_symbol
 _atom_site_label
 _atom_site_symmetry_multiplicity
 _atom_site_fract_x
 _atom_site_fract_y
 _atom_site_fract_z
 _atom_site_occupancy
  Cs  Cs0  1  0.33333300  0.66666700  0.75000000  1
  Cs  Cs1  1  0.66666700  0.33333300  0.25000000  1
  Lu  Lu0  1  0.66666700  0.33333300  0.75000000  1
  Lu  Lu1  1  0.33333300  0.66666700  0.25000000  1
  Ta  Ta0  1  0.85215316  0.03901367  0.56462224  1
  Ta  Ta1  1  0.14784684  0.96098633  0.43537776  1
  Ta  Ta2  1  0.96098633  0.81313949  0.56462224  1
  Ta  Ta3  1  0.85215316  0.81313949  0.93537776  1
  Ta  Ta4  1  0.03901367  0.18686051  0.43537776  1
  Ta  Ta5  1  0.14784684  0.18686051  0.06462224  1
  Ta  Ta6  1  0.18686051  0.14784684  0.56462224  1
  Ta  Ta7  1  0.96098633  0.14784684  0.93537776  1
  Ta  Ta8  1  0.81313949  0.85215316  0.43537776  1
  Ta  Ta9  1  0.03901367  0.85215316  0.06462224  1
  Ta  Ta10  1  0.18686051  0.03901367  0.93537776  1
  Ta  Ta11  1  0.81313949  0.96098633  0.06462224  1
  Br  Br0  1  0.63825508  0.08937421  0.66276892  1
  Br  Br1  1  0.36174492  0.91062579  0.33723108  1
  Br  Br2  1  0.91062579  0.54888087  0.66276892  1
  Br  Br3  1  0.63825508  0.54888087  0.83723108  1
  Br  Br4  1  0.08937421  0.45111913  0.33723108  1
  Br  Br5  1  0.36174492  0.45111913  0.16276892  1
  Br  Br6  1  0.45111913  0.36174492  0.66276892  1
  Br  Br7  1  0.91062579  0.36174492  0.83723108  1
  Br  Br8  1  0.54888087  0.63825508  0.33723108  1
  Br  Br9  1  0.08937421  0.63825508  0.16276892  1
  Br  Br10  1  0.45111913  0.08937421  0.83723108  1
  Br  Br11  1  0.54888087  0.91062579  0.16276892  1
  Br  Br12  1  0.04748037  0.23420406  0.66087769  1
  Br  Br13  1  0.95251963  0.76579594  0.33912231  1
  Br  Br14  1  0.76579594  0.81327632  0.66087769  1
  Br  Br15  1  0.04748037  0.81327632  0.83912231  1
  Br  Br16  1  0.23420406  0.18672368  0.33912231  1
  Br  Br17  1  0.95251963  0.18672368  0.16087769  1
  Br  Br18  1  0.18672368  0.95251963  0.66087769  1
  Br  Br19  1  0.76579594  0.95251963  0.83912231  1
  Br  Br20  1  0.81327632  0.04748037  0.33912231  1
  Br  Br21  1  0.23420406  0.04748037  0.16087769  1
  Br  Br22  1  0.18672368  0.23420406  0.83912231  1
  Br  Br23  1  0.81327632  0.76579594  0.16087769  1
  Br  Br24  1  0.28002175  0.41850411  0.50101583  1
  Br  Br25  1  0.71997825  0.58149589  0.49898417  1
  Br  Br26  1  0.58149589  0.86151764  0.50101583  1
  Br  Br27  1  0.28002175  0.86151764  0.99898417  1
  Br  Br28  1  0.41850411  0.13848236  0.49898417  1
  Br  Br29  1  0.71997825  0.13848236  0.00101583  1
  Br  Br30  1  0.13848236  0.71997825  0.50101583  1
  Br  Br31  1  0.58149589  0.71997825  0.99898417  1
  Br  Br32  1  0.86151764  0.28002175  0.49898417  1
  Br  Br33  1  0.41850411  0.28002175  0.00101583  1
  Br  Br34  1  0.13848236  0.41850411  0.99898417  1
  Br  Br35  1  0.86151764  0.58149589  0.00101583  1
loop_
_geom_bond_atom_site_label_1
_geom_bond_atom_site_label_2
_geom_bond_distance
_geom_bond_site_symmetry_2
Br0 Lu0 2.762675 1_555
Br0 Ta0 2.974247 1_555
Br0 Cs0 4.022610 1_545
Br1 Lu1 2.762675 1_555
Br1 Ta1 2.974247 1_555
Br1 Cs1 4.022610 1_565
Br2 Lu0 2.762678 1_555
Br2 Ta2 2.974247 1_555
Br2 Cs0 4.022608 1_655
Br3 Lu0 2.762683 1_555
Br3 Ta3 2.974247 1_555
Br3 Cs0 4.022616 1_555
Br4 Lu1 2.762678 1_555
Br4 Ta4 2.974247 1_555
Br4 Cs1 4.022608 1_455
Br5 Lu1 2.762683 1_555
Br5 Ta5 2.974247 1_555
Br5 Cs1 4.022616 1_555
Br6 Lu0 2.762683 1_555
Br6 Ta6 2.974247 1_555
Br6 Cs0 4.022616 1_555
Br7 Lu0 2.762675 1_555
Br7 Ta7 2.974247 1_555
Br7 Cs0 4.022610 1_655
Br8 Lu1 2.762683 1_555
Br8 Ta8 2.974247 1_555
Br8 Cs1 4.022616 1_555
Br9 Lu1 2.762675 1_555
Br9 Ta9 2.974247 1_555
Br9 Cs1 4.022610 1_455
Br10 Lu0 2.762678 1_555
Br10 Ta10 2.974247 1_555
Br10 Cs0 4.022608 1_545
Br11 Lu1 2.762678 1_555
Br11 Ta11 2.974247 1_555
Br11 Cs1 4.022608 1_565
Br12 Ta0 2.592615 1_455
Br12 Ta6 2.607237 1_555
Br12 Cs0 4.064084 1_555
Br13 Ta1 2.592615 1_655
Br13 Ta8 2.607237 1_555
Br13 Cs1 4.064084 1_555
Br14 Ta2 2.592615 1_555
Br14 Ta0 2.607237 1_565
Br14 Cs0 4.064086 1_555
Br15 Ta3 2.592615 1_455
Br15 Ta10 2.607237 1_565
Br15 Cs0 4.064078 1_555
Br16 Ta4 2.592615 1_555
Br16 Ta1 2.607237 1_545
Br16 Cs1 4.064086 1_555
Br17 Ta5 2.592615 1_655
Br17 Ta11 2.607237 1_545
Br17 Cs1 4.064078 1_555
Br18 Ta6 2.592615 1_565
Br18 Ta2 2.607237 1_455
Br18 Cs0 4.064078 1_555
Br19 Ta7 2.592615 1_565
Br19 Ta3 2.607237 1_555
Br19 Cs0 4.064084 1_555
Br20 Ta8 2.592615 1_545
Br20 Ta4 2.607237 1_655
Br20 Cs1 4.064078 1_555
Br21 Ta9 2.592615 1_545
Br21 Ta5 2.607237 1_555
Br21 Cs1 4.064084 1_555
Br22 Ta10 2.592615 1_555
Br22 Ta7 2.607237 1_455
Br22 Cs0 4.064086 1_555
Br23 Ta11 2.592615 1_555
Br23 Ta9 2.607237 1_655
Br23 Cs1 4.064086 1_555
Br24 Ta6 2.601558 1_555
Br24 Ta4 2.603525 1_555
Br25 Ta8 2.601558 1_555
Br25 Ta2 2.603525 1_555
Br26 Ta0 2.601558 1_565
Br26 Ta8 2.603526 1_555
Br27 Ta10 2.601558 1_565
Br27 Ta9 2.603526 1_556
Br28 Ta1 2.601558 1_545
Br28 Ta6 2.603526 1_555
Br29 Ta11 2.601558 1_545
Br29 Ta7 2.603526 1_554
Br30 Ta2 2.601558 1_455
Br30 Ta1 2.603526 1_555
Br31 Ta3 2.601558 1_555
Br31 Ta11 2.603525 1_556
Br32 Ta4 2.601558 1_655
Br32 Ta0 2.603526 1_555
Br33 Ta5 2.601558 1_555
Br33 Ta10 2.603525 1_554
Br34 Ta7 2.601558 1_455
Br34 Ta5 2.603526 1_556
Br35 Ta9 2.601558 1_655
Br35 Ta3 2.603526 1_554
