# generated using pymatgen
data_Sm4Rh
_symmetry_space_group_name_H-M   'P 1'
_cell_length_a   7.76578184
_cell_length_b   7.76578184
_cell_length_c   7.76578184
_cell_angle_alpha   60.00000000
_cell_angle_beta   60.00000000
_cell_angle_gamma   60.00000000
_symmetry_Int_Tables_number   1
_chemical_formula_structural   Sm4Rh
_chemical_formula_sum   'Sm8 Rh2'
_cell_volume   331.16204823
_cell_formula_units_Z   2
loop_
 _symmetry_equiv_pos_site_id
 _symmetry_equiv_pos_as_xyz
  1  'x, y, z'
loop_
 _atom_site_type_symbol
 _atom_site_label
 _atom_site_symmetry_multiplicity
 _atom_site_fract_x
 _atom_site_fract_y
 _atom_site_fract_z
 _atom_site_occupancy
  Sm  Sm0  1  0.61129900  0.61129900  0.61129900  1
  Sm  Sm1  1  0.16610200  0.61129900  0.61129900  1
  Sm  Sm2  1  0.61129900  0.16610200  0.61129900  1
  Sm  Sm3  1  0.58389800  0.13870100  0.13870100  1
  Sm  Sm4  1  0.13870100  0.13870100  0.13870100  1
  Sm  Sm5  1  0.61129900  0.61129900  0.16610200  1
  Sm  Sm6  1  0.13870100  0.58389800  0.13870100  1
  Sm  Sm7  1  0.13870100  0.13870100  0.58389800  1
  Rh  Rh0  1  0.00000000  0.00000000  0.00000000  1
  Rh  Rh1  1  0.75000000  0.75000000  0.75000000  1
loop_
_geom_bond_atom_site_label_1
_geom_bond_atom_site_label_2
_geom_bond_distance
_geom_bond_site_symmetry_2
Rh0 Sm6 2.638392 1_545
Rh0 Sm3 2.638392 1_455
Rh0 Sm7 2.638392 1_554
Rh0 Sm4 2.638399 1_555
Rh1 Sm1 2.638392 1_655
Rh1 Sm2 2.638392 1_565
Rh1 Sm5 2.638392 1_556
Rh1 Sm0 2.638399 1_555
