# generated using pymatgen
data_Si2Ge5N6
_symmetry_space_group_name_H-M   'P 1'
_cell_length_a   5.63454373
_cell_length_b   5.70831424
_cell_length_c   14.47752596
_cell_angle_alpha   90.00000195
_cell_angle_beta   83.55819775
_cell_angle_gamma   120.43405554
_symmetry_Int_Tables_number   1
_chemical_formula_structural   Si2Ge5N6
_chemical_formula_sum   'Si4 Ge10 N12'
_cell_volume   398.07708712
_cell_formula_units_Z   2
loop_
 _symmetry_equiv_pos_site_id
 _symmetry_equiv_pos_as_xyz
  1  'x, y, z'
loop_
 _atom_site_type_symbol
 _atom_site_label
 _atom_site_symmetry_multiplicity
 _atom_site_fract_x
 _atom_site_fract_y
 _atom_site_fract_z
 _atom_site_occupancy
  Si  Si0  1  0.43361700  0.88631700  0.57870000  1
  Si  Si1  1  0.56638300  0.45270100  0.92130000  1
  Si  Si2  1  0.56638300  0.11368300  0.42130000  1
  Si  Si3  1  0.43361700  0.54729900  0.07870000  1
  Ge  Ge0  1  0.00000000  0.53265900  0.75000000  1
  Ge  Ge1  1  0.00000000  0.46734100  0.25000000  1
  Ge  Ge2  1  0.20039900  0.83182300  0.96223400  1
  Ge  Ge3  1  0.79960100  0.63142500  0.53776600  1
  Ge  Ge4  1  0.79960100  0.16817700  0.03776600  1
  Ge  Ge5  1  0.20039900  0.36857500  0.46223400  1
  Ge  Ge6  1  0.99184900  0.06479000  0.65723700  1
  Ge  Ge7  1  0.00815100  0.07294100  0.84276300  1
  Ge  Ge8  1  0.00815100  0.93521000  0.34276300  1
  Ge  Ge9  1  0.99184900  0.92705900  0.15723700  1
  N  N0  1  0.10202200  0.78187300  0.63900200  1
  N  N1  1  0.89797800  0.67985200  0.86099800  1
  N  N2  1  0.89797800  0.21812700  0.36099800  1
  N  N3  1  0.10202200  0.32014800  0.13900200  1
  N  N4  1  0.59930700  0.23121700  0.53585500  1
  N  N5  1  0.40069300  0.63190900  0.96414500  1
  N  N6  1  0.40069300  0.76878300  0.46414500  1
  N  N7  1  0.59930700  0.36809100  0.03585500  1
  N  N8  1  0.62877000  0.78508700  0.63220000  1
  N  N9  1  0.37123000  0.15631800  0.86780000  1
  N  N10  1  0.37123000  0.21491300  0.36780000  1
  N  N11  1  0.62877000  0.84368200  0.13220000  1
loop_
_geom_bond_atom_site_label_1
_geom_bond_atom_site_label_2
_geom_bond_distance
_geom_bond_site_symmetry_2
Ge0 N0 1.975051 1_555
Ge0 N1 1.975055 1_455
Ge1 N2 1.975051 1_455
Ge1 N3 1.975055 1_555
Ge2 N5 1.971916 1_555
Ge2 N9 2.031050 1_565
Ge2 N1 2.206158 1_455
Ge3 N4 1.971916 1_555
Ge3 N8 2.031042 1_555
Ge3 N0 2.206158 1_655
Ge4 N7 1.971916 1_555
Ge4 N11 2.031050 1_545
Ge4 N3 2.206158 1_655
Ge5 N6 1.971916 1_555
Ge5 N10 2.031042 1_555
Ge5 N2 2.206158 1_455
Ge6 N8 1.929538 1_545
Ge6 N0 2.010498 1_645
Ge7 N9 1.929537 1_555
Ge7 N1 2.010493 1_445
Ge8 N10 1.929538 1_565
Ge8 N2 2.010498 1_465
Ge9 N11 1.929537 1_555
Ge9 N3 2.010493 1_665
N0 Si0 1.764644 1_555
N1 Si1 1.764644 1_555
N2 Si2 1.764644 1_555
N3 Si3 1.764644 1_555
N4 Si0 1.772134 1_545
N4 Si2 1.782702 1_555
N5 Si1 1.772124 1_555
N5 Si3 1.782702 1_556
N6 Si2 1.772134 1_565
N6 Si0 1.782702 1_555
N7 Si3 1.772124 1_555
N7 Si1 1.782702 1_554
N8 Si0 1.725627 1_555
N9 Si1 1.725627 1_555
N10 Si2 1.725627 1_555
N11 Si3 1.725627 1_555
