# generated using pymatgen
data_BaCeMg14
_symmetry_space_group_name_H-M   'P 1'
_cell_length_a   6.83369138
_cell_length_b   6.83369398
_cell_length_c   10.60165957
_cell_angle_alpha   90.00000000
_cell_angle_beta   90.00000000
_cell_angle_gamma   119.99998741
_symmetry_Int_Tables_number   1
_chemical_formula_structural   BaCeMg14
_chemical_formula_sum   'Ba1 Ce1 Mg14'
_cell_volume   428.76115244
_cell_formula_units_Z   1
loop_
 _symmetry_equiv_pos_site_id
 _symmetry_equiv_pos_as_xyz
  1  'x, y, z'
loop_
 _atom_site_type_symbol
 _atom_site_label
 _atom_site_symmetry_multiplicity
 _atom_site_fract_x
 _atom_site_fract_y
 _atom_site_fract_z
 _atom_site_occupancy
  Ba  Ba0  1  0.16666700  0.33333300  0.62500000  1
  Ce  Ce0  1  0.16666700  0.33333300  0.12500000  1
  Mg  Mg0  1  0.17155102  0.83577501  0.12500000  1
  Mg  Mg1  1  0.18368960  0.84184430  0.62500000  1
  Mg  Mg2  1  0.66422499  0.32844898  0.12500000  1
  Mg  Mg3  1  0.65815570  0.31631040  0.62500000  1
  Mg  Mg4  1  0.66422499  0.83577501  0.12500000  1
  Mg  Mg5  1  0.65815570  0.84184430  0.62500000  1
  Mg  Mg6  1  0.34245352  0.15754648  0.36554722  1
  Mg  Mg7  1  0.34245352  0.15754648  0.88445278  1
  Mg  Mg8  1  0.34245352  0.68490803  0.36554722  1
  Mg  Mg9  1  0.34245352  0.68490803  0.88445278  1
  Mg  Mg10  1  0.81509197  0.15754648  0.36554722  1
  Mg  Mg11  1  0.81509197  0.15754648  0.88445278  1
  Mg  Mg12  1  0.83333300  0.66666700  0.37402535  1
  Mg  Mg13  1  0.83333300  0.66666700  0.87597465  1
loop_
_geom_bond_atom_site_label_1
_geom_bond_atom_site_label_2
_geom_bond_distance
_geom_bond_site_symmetry_2
Ba0 Mg3 3.418331 1_455
Ba0 Mg3 3.418331 1_555
Ba0 Mg5 3.418332 1_445
Ba0 Mg1 3.418332 1_545
Ba0 Mg1 3.418332 1_555
Ba0 Mg5 3.418332 1_555
Ba0 Mg6 3.448930 1_555
Ba0 Mg7 3.448930 1_555
Ba0 Mg10 3.448938 1_455
Ba0 Mg11 3.448938 1_455
Ba0 Mg8 3.448938 1_555
Ba0 Mg9 3.448938 1_555
Ce0 Mg7 3.291303 1_554
Ce0 Mg6 3.291303 1_555
Ce0 Mg11 3.291310 1_454
Ce0 Mg10 3.291310 1_455
Ce0 Mg9 3.291311 1_554
Ce0 Mg8 3.291311 1_555
Ce0 Mg2 3.416968 1_455
Ce0 Mg2 3.416968 1_555
Ce0 Mg4 3.416969 1_445
Ce0 Mg0 3.416969 1_545
Ce0 Mg0 3.416969 1_555
Ce0 Mg4 3.416969 1_555
Mg0 Mg8 3.183471 1_555
Mg0 Mg9 3.183471 1_554
Mg0 Mg7 3.183479 1_564
Mg0 Mg6 3.183479 1_565
Mg0 Mg12 3.313086 1_455
Mg0 Mg13 3.313086 1_454
Mg0 Mg4 3.366782 1_555
Mg0 Mg2 3.366783 1_565
Mg0 Mg4 3.466910 1_455
Mg0 Mg2 3.466911 1_455
Mg1 Mg5 3.242355 1_555
Mg1 Mg3 3.242356 1_565
Mg1 Mg8 3.325174 1_555
Mg1 Mg9 3.325174 1_555
Mg1 Mg6 3.325181 1_565
Mg1 Mg7 3.325181 1_565
Mg1 Mg12 3.373252 1_455
Mg1 Mg13 3.373252 1_455
Mg2 Mg7 3.183478 1_554
Mg2 Mg6 3.183478 1_555
Mg2 Mg4 3.366783 1_545
Mg2 Mg4 3.466911 1_555
Mg3 Mg5 3.242356 1_545
Mg3 Mg6 3.325180 1_555
Mg3 Mg7 3.325180 1_555
Mg4 Mg9 3.183478 1_554
Mg4 Mg8 3.183478 1_555
Mg5 Mg8 3.325180 1_555
Mg5 Mg9 3.325180 1_555
Mg6 Mg8 3.229867 1_545
Mg7 Mg9 3.229867 1_545
Mg10 Mg2 3.183471 1_555
Mg10 Mg4 3.183479 1_545
Mg10 Mg6 3.229865 1_555
Mg10 Mg8 3.229867 1_545
Mg10 Mg3 3.325174 1_555
Mg10 Mg5 3.325181 1_545
Mg10 Mg12 3.419733 1_545
Mg10 Mg12 3.419733 1_555
Mg11 Mg2 3.183471 1_556
Mg11 Mg4 3.183479 1_546
Mg11 Mg7 3.229865 1_555
Mg11 Mg9 3.229867 1_545
Mg11 Mg3 3.325174 1_555
Mg11 Mg5 3.325181 1_545
Mg11 Mg13 3.419733 1_545
Mg11 Mg13 3.419733 1_555
Mg12 Mg4 3.313079 1_555
Mg12 Mg2 3.313086 1_555
Mg12 Mg5 3.373245 1_555
Mg12 Mg3 3.373252 1_555
Mg12 Mg8 3.419732 1_555
Mg12 Mg8 3.419732 1_655
Mg12 Mg6 3.419733 1_665
Mg12 Mg6 3.419733 1_555
Mg13 Mg4 3.313079 1_556
Mg13 Mg2 3.313086 1_556
Mg13 Mg5 3.373245 1_555
Mg13 Mg3 3.373252 1_555
Mg13 Mg9 3.419732 1_555
Mg13 Mg9 3.419732 1_655
Mg13 Mg7 3.419733 1_665
Mg13 Mg7 3.419733 1_555
