# generated using pymatgen
data_CuP4S3Br
_symmetry_space_group_name_H-M   'P 1'
_cell_length_a   11.77053900
_cell_length_b   11.77053900
_cell_length_c   10.34862992
_cell_angle_alpha   90.00000000
_cell_angle_beta   90.00000000
_cell_angle_gamma   141.78360556
_symmetry_Int_Tables_number   1
_chemical_formula_structural   CuP4S3Br
_chemical_formula_sum   'Cu4 P16 S12 Br4'
_cell_volume   886.96974115
_cell_formula_units_Z   4
loop_
 _symmetry_equiv_pos_site_id
 _symmetry_equiv_pos_as_xyz
  1  'x, y, z'
loop_
 _atom_site_type_symbol
 _atom_site_label
 _atom_site_symmetry_multiplicity
 _atom_site_fract_x
 _atom_site_fract_y
 _atom_site_fract_z
 _atom_site_occupancy
  Cu  Cu0  1  0.80425309  0.80425309  0.50000000  1
  Cu  Cu1  1  0.30425309  0.30425309  -0.00000000  1
  Cu  Cu2  1  0.19574691  0.19574691  0.50000000  1
  Cu  Cu3  1  0.69574691  0.69574691  -0.00000000  1
  P  P0  1  0.71451116  0.28548884  0.47095318  1
  P  P1  1  0.28548884  0.71451116  0.52904682  1
  P  P2  1  0.78548884  0.21451116  0.97095318  1
  P  P3  1  0.21451116  0.78548884  0.02904682  1
  P  P4  1  0.61813753  0.38186247  0.71414955  1
  P  P5  1  0.38186247  0.61813753  0.28585045  1
  P  P6  1  0.88186247  0.11813753  0.21414955  1
  P  P7  1  0.11813753  0.88186247  0.78585045  1
  P  P8  1  0.72506620  0.56261808  0.54094692  1
  P  P9  1  0.56261808  0.72506620  0.45905308  1
  P  P10  1  0.06261808  0.22506620  0.04094692  1
  P  P11  1  0.22506620  0.06261808  0.95905308  1
  P  P12  1  0.27493380  0.43738192  0.45905308  1
  P  P13  1  0.43738192  0.27493380  0.54094692  1
  P  P14  1  0.93738192  0.77493380  0.95905308  1
  P  P15  1  0.77493380  0.93738192  0.04094692  1
  S  S0  1  0.86597521  0.55297400  0.43167523  1
  S  S1  1  0.55297400  0.86597521  0.56832477  1
  S  S2  1  0.05297400  0.36597521  0.93167523  1
  S  S3  1  0.36597521  0.05297400  0.06832477  1
  S  S4  1  0.13402479  0.44702600  0.56832477  1
  S  S5  1  0.44702600  0.13402479  0.43167523  1
  S  S6  1  0.94702600  0.63402479  0.06832477  1
  S  S7  1  0.63402479  0.94702600  0.93167523  1
  S  S8  1  0.71035480  0.28964520  0.67468889  1
  S  S9  1  0.28964520  0.71035480  0.32531111  1
  S  S10  1  0.78964520  0.21035480  0.17468889  1
  S  S11  1  0.21035480  0.78964520  0.82531111  1
  Br  Br0  1  0.97091646  0.02908354  0.67738820  1
  Br  Br1  1  0.02908354  0.97091646  0.32261180  1
  Br  Br2  1  0.52908354  0.47091646  0.17738820  1
  Br  Br3  1  0.47091646  0.52908354  0.82261180  1
loop_
_geom_bond_atom_site_label_1
_geom_bond_atom_site_label_2
_geom_bond_distance
_geom_bond_site_symmetry_2
Cu0 P9 2.229800 1_555
Cu0 P8 2.229800 1_555
Cu1 P10 2.229800 1_555
Cu1 P11 2.229800 1_554
Cu2 P13 2.229800 1_555
Cu2 P12 2.229800 1_555
Cu3 P14 2.229800 1_554
Cu3 P15 2.229800 1_555
P0 S0 2.106220 1_555
P0 S5 2.106220 1_555
P0 S8 2.110412 1_555
P1 S1 2.106220 1_555
P1 S4 2.106220 1_555
P1 S9 2.110412 1_555
P2 S7 2.106220 1_545
P2 S2 2.106220 1_655
P2 S10 2.110412 1_556
P3 S6 2.106220 1_455
P3 S3 2.106220 1_565
P3 S11 2.110412 1_554
P4 S8 2.091535 1_555
P4 P8 2.261787 1_555
P5 S9 2.091535 1_555
P5 P9 2.261787 1_555
P6 S10 2.091535 1_555
P7 S11 2.091535 1_555
P8 S0 2.082868 1_555
P9 S1 2.082868 1_555
P10 S2 2.082868 1_554
P10 P15 2.216965 1_445
P10 P6 2.261787 1_455
P11 S3 2.082868 1_556
P11 P14 2.216965 1_445
P11 P7 2.261787 1_545
P12 S4 2.082868 1_555
P12 P9 2.216965 1_555
P12 P5 2.261787 1_555
P13 S5 2.082868 1_555
P13 P8 2.216965 1_555
P13 P4 2.261787 1_555
P14 S6 2.082868 1_556
P14 P7 2.261787 1_655
P15 S7 2.082868 1_554
P15 P6 2.261787 1_565
Br0 Cu0 2.462499 1_545
Br0 Cu2 2.462499 1_655
Br1 Cu0 2.462499 1_455
Br1 Cu2 2.462499 1_565
Br2 Cu3 2.462499 1_555
Br2 Cu1 2.462499 1_555
Br3 Cu1 2.462499 1_556
Br3 Cu3 2.462499 1_556
