# generated using pymatgen
data_CaZnAg
_symmetry_space_group_name_H-M   'P 1'
_cell_length_a   5.79774449
_cell_length_b   5.79774449
_cell_length_c   7.33124591
_cell_angle_alpha   51.17336758
_cell_angle_beta   51.17336758
_cell_angle_gamma   46.87572430
_symmetry_Int_Tables_number   1
_chemical_formula_structural   CaZnAg
_chemical_formula_sum   'Ca2 Zn2 Ag2'
_cell_volume   131.31711136
_cell_formula_units_Z   2
loop_
 _symmetry_equiv_pos_site_id
 _symmetry_equiv_pos_as_xyz
  1  'x, y, z'
loop_
 _atom_site_type_symbol
 _atom_site_label
 _atom_site_symmetry_multiplicity
 _atom_site_fract_x
 _atom_site_fract_y
 _atom_site_fract_z
 _atom_site_occupancy
  Ca  Ca0  1  0.44976220  0.44976220  0.30375377  1
  Ca  Ca1  1  0.55023780  0.55023780  0.69624623  1
  Zn  Zn0  1  0.15831841  0.15831841  0.89704655  1
  Zn  Zn1  1  0.84168159  0.84168159  0.10295345  1
  Ag  Ag0  1  0.82807111  0.82807111  0.73612468  1
  Ag  Ag1  1  0.17192889  0.17192889  0.26387532  1
loop_
_geom_bond_atom_site_label_1
_geom_bond_atom_site_label_2
_geom_bond_distance
_geom_bond_site_symmetry_2
Ca0 Zn0 3.176434 1_564
Ca0 Zn0 3.176434 1_654
Ca0 Zn0 3.178187 1_555
Ca0 Zn1 3.334768 1_455
Ca0 Zn1 3.334768 1_545
Ca0 Zn1 3.341159 1_555
Ca1 Zn1 3.176434 1_456
Ca1 Zn1 3.176434 1_546
Ca1 Zn1 3.178187 1_555
Ca1 Zn0 3.334768 1_655
Ca1 Zn0 3.334768 1_565
Ca1 Zn0 3.341159 1_555
Zn0 Zn1 2.583908 1_446
Ag0 Zn0 2.656960 1_565
Ag0 Zn0 2.656960 1_655
Ag0 Zn1 2.790263 1_556
Ag0 Ag1 2.838926 1_665
Ag0 Ca1 3.162798 1_555
Ag0 Ca1 3.169475 1_565
Ag0 Ca1 3.169475 1_655
Ag0 Ca0 3.259708 1_556
Ag0 Ca0 3.381304 1_655
Ag0 Ca0 3.381304 1_565
Ag1 Zn1 2.656960 1_455
Ag1 Zn1 2.656960 1_545
Ag1 Zn0 2.790263 1_554
Ag1 Ca0 3.162798 1_555
Ag1 Ca0 3.169475 1_455
Ag1 Ca0 3.169475 1_545
Ag1 Ca1 3.259708 1_554
Ag1 Ca1 3.381304 1_455
Ag1 Ca1 3.381304 1_545
