# generated using pymatgen
data_Sm2Ni7
_symmetry_space_group_name_H-M   'P 1'
_cell_length_a   4.95482720
_cell_length_b   4.95482700
_cell_length_c   12.54969241
_cell_angle_alpha   78.61455318
_cell_angle_beta   78.61455514
_cell_angle_gamma   59.99999468
_symmetry_Int_Tables_number   1
_chemical_formula_structural   Sm2Ni7
_chemical_formula_sum   'Sm4 Ni14'
_cell_volume   259.79693064
_cell_formula_units_Z   2
loop_
 _symmetry_equiv_pos_site_id
 _symmetry_equiv_pos_as_xyz
  1  'x, y, z'
loop_
 _atom_site_type_symbol
 _atom_site_label
 _atom_site_symmetry_multiplicity
 _atom_site_fract_x
 _atom_site_fract_y
 _atom_site_fract_z
 _atom_site_occupancy
  Sm  Sm0  1  0.94929000  0.94929000  0.15213100  1
  Sm  Sm1  1  0.05071000  0.05071000  0.84786900  1
  Sm  Sm2  1  0.85262900  0.85262900  0.44211400  1
  Sm  Sm3  1  0.14737100  0.14737100  0.55788600  1
  Ni  Ni0  1  0.50000000  0.50000000  0.50000000  1
  Ni  Ni1  1  0.72167300  0.72167300  0.83498200  1
  Ni  Ni2  1  0.27832700  0.27832700  0.16501800  1
  Ni  Ni3  1  0.61200200  0.61200200  0.16399400  1
  Ni  Ni4  1  0.38799800  0.38799800  0.83600600  1
  Ni  Ni5  1  0.00000000  0.50000000  0.00000000  1
  Ni  Ni6  1  0.50000000  0.00000000  0.00000000  1
  Ni  Ni7  1  0.50000000  0.50000000  0.00000000  1
  Ni  Ni8  1  0.39098000  0.39098000  0.32781400  1
  Ni  Ni9  1  0.89022700  0.39098000  0.32781400  1
  Ni  Ni10  1  0.39098000  0.89022700  0.32781400  1
  Ni  Ni11  1  0.60902000  0.60902000  0.67218600  1
  Ni  Ni12  1  0.10977300  0.60902000  0.67218600  1
  Ni  Ni13  1  0.60902000  0.10977300  0.67218600  1
loop_
_geom_bond_atom_site_label_1
_geom_bond_atom_site_label_2
_geom_bond_distance
_geom_bond_site_symmetry_2
Sm0 Sm2 3.543390 1_555
Sm1 Sm3 3.543390 1_555
Sm2 Sm3 3.191340 1_665
Sm2 Sm3 3.191347 1_655
Sm2 Sm3 3.191347 1_565
Ni0 Ni11 2.542927 1_555
Ni0 Ni8 2.542927 1_555
Ni0 Ni13 2.542930 1_555
Ni0 Ni10 2.542930 1_555
Ni0 Ni12 2.542930 1_555
Ni0 Ni9 2.542930 1_555
Ni0 Sm3 2.946818 1_565
Ni0 Sm2 2.946818 1_545
Ni0 Sm3 2.946818 1_655
Ni0 Sm2 2.946818 1_455
Ni0 Sm3 2.946823 1_555
Ni0 Sm2 2.946823 1_555
Ni1 Ni13 2.451356 1_565
Ni1 Ni12 2.451356 1_655
Ni1 Ni11 2.451361 1_555
Ni1 Ni5 2.472194 1_656
Ni1 Ni6 2.472194 1_566
Ni1 Ni7 2.472197 1_556
Ni1 Ni4 2.860696 1_565
Ni1 Ni4 2.860697 1_655
Ni1 Ni4 2.860701 1_555
Ni1 Sm1 2.864996 1_665
Ni1 Sm1 2.865004 1_655
Ni1 Sm1 2.865004 1_565
Ni2 Ni9 2.451356 1_455
Ni2 Ni8 2.451361 1_555
Ni2 Ni5 2.472194 1_555
Ni2 Ni6 2.472194 1_555
Ni2 Ni7 2.472197 1_555
Ni2 Ni3 2.860696 1_545
Ni2 Ni3 2.860697 1_455
Ni2 Ni3 2.860701 1_555
Ni2 Sm0 2.864996 1_445
Ni2 Sm0 2.865004 1_455
Ni2 Sm0 2.865004 1_545
Ni3 Ni8 2.459016 1_555
Ni3 Ni9 2.459019 1_555
Ni3 Ni6 2.462000 1_565
Ni3 Ni5 2.462000 1_655
Ni3 Ni7 2.462000 1_555
Ni3 Sm0 2.864339 1_545
Ni3 Sm0 2.864340 1_455
Ni3 Sm0 2.864344 1_555
Ni4 Ni6 2.462000 1_556
Ni4 Ni5 2.462000 1_556
Ni4 Ni7 2.462000 1_556
Ni4 Sm1 2.864339 1_565
Ni4 Sm1 2.864340 1_655
Ni4 Sm1 2.864344 1_555
Ni5 Ni6 2.477413 1_465
Ni5 Ni6 2.477413 1_555
Ni5 Ni7 2.477414 1_555
Ni5 Ni7 2.477414 1_455
Ni6 Ni7 2.477413 1_555
Ni6 Ni7 2.477413 1_545
Ni8 Ni9 2.473683 1_555
Ni8 Ni9 2.481145 1_455
Ni8 Sm2 2.843986 1_545
Ni8 Sm2 2.843986 1_455
Ni8 Sm3 3.155243 1_555
Ni8 Sm0 3.278110 1_455
Ni8 Sm0 3.278110 1_545
Ni9 Sm2 2.843986 1_545
Ni9 Sm2 2.843986 1_555
Ni9 Sm3 3.155239 1_655
Ni9 Sm0 3.278110 1_555
Ni9 Sm0 3.278110 1_545
Ni10 Ni2 2.451356 1_565
Ni10 Ni3 2.459019 1_555
Ni10 Ni9 2.473682 1_555
Ni10 Ni8 2.473683 1_555
Ni10 Ni9 2.481144 1_465
Ni10 Ni8 2.481144 1_565
Ni10 Sm2 2.843987 1_555
Ni10 Sm2 2.843987 1_455
Ni10 Sm3 3.155239 1_565
Ni10 Sm0 3.278110 1_455
Ni10 Sm0 3.278110 1_555
Ni11 Ni4 2.459016 1_555
Ni11 Ni13 2.473683 1_555
Ni11 Ni12 2.473683 1_555
Ni11 Ni13 2.481144 1_565
Ni11 Ni12 2.481145 1_655
Ni11 Sm3 2.843986 1_565
Ni11 Sm3 2.843986 1_655
Ni11 Sm2 3.155243 1_555
Ni11 Sm1 3.278110 1_655
Ni11 Sm1 3.278110 1_565
Ni12 Ni4 2.459019 1_555
Ni12 Ni13 2.473682 1_555
Ni12 Ni13 2.481144 1_465
Ni12 Sm3 2.843986 1_565
Ni12 Sm3 2.843986 1_555
Ni12 Sm2 3.155239 1_455
Ni12 Sm1 3.278110 1_555
Ni12 Sm1 3.278110 1_565
Ni13 Ni4 2.459019 1_555
Ni13 Sm3 2.843987 1_555
Ni13 Sm3 2.843987 1_655
Ni13 Sm2 3.155239 1_545
Ni13 Sm1 3.278110 1_655
Ni13 Sm1 3.278110 1_555
