# generated using pymatgen
data_LiPr2Zn2(PO)2
_symmetry_space_group_name_H-M   'P 1'
_cell_length_a   10.43741331
_cell_length_b   10.43741333
_cell_length_c   10.43741328
_cell_angle_alpha   23.00684658
_cell_angle_beta   23.00684259
_cell_angle_gamma   23.00684932
_symmetry_Int_Tables_number   1
_chemical_formula_structural   LiPr2Zn2(PO)2
_chemical_formula_sum   'Li1 Pr2 Zn2 P2 O2'
_cell_volume   152.44160129
_cell_formula_units_Z   1
loop_
 _symmetry_equiv_pos_site_id
 _symmetry_equiv_pos_as_xyz
  1  'x, y, z'
loop_
 _atom_site_type_symbol
 _atom_site_label
 _atom_site_symmetry_multiplicity
 _atom_site_fract_x
 _atom_site_fract_y
 _atom_site_fract_z
 _atom_site_occupancy
  Li  Li0  1  0.50000000  0.50000000  0.50000000  1
  Pr  Pr0  1  0.61794800  0.61794800  0.61794800  1
  Pr  Pr1  1  0.38205200  0.38205200  0.38205200  1
  Zn  Zn0  1  0.20279100  0.20279100  0.20279100  1
  Zn  Zn1  1  0.79720900  0.79720900  0.79720900  1
  P  P0  1  0.11706600  0.11706600  0.11706600  1
  P  P1  1  0.88293400  0.88293400  0.88293400  1
  O  O0  1  0.69555900  0.69555900  0.69555900  1
  O  O1  1  0.30444100  0.30444100  0.30444100  1
loop_
_geom_bond_atom_site_label_1
_geom_bond_atom_site_label_2
_geom_bond_distance
_geom_bond_site_symmetry_2
Li0 Zn0 2.643568 1_556
Li0 Zn1 2.643568 1_554
Li0 Zn0 2.643568 1_655
Li0 Zn1 2.643568 1_455
Li0 Zn0 2.643569 1_565
Li0 Zn1 2.643569 1_545
Li0 P1 2.839202 1_554
Li0 P0 2.839202 1_556
Li0 P1 2.839202 1_455
Li0 P0 2.839202 1_655
Li0 P0 2.839203 1_565
Li0 P1 2.839203 1_545
P0 Zn1 2.438331 1_445
P0 Zn1 2.438331 1_544
P0 Zn1 2.438331 1_454
P0 Zn0 2.612103 1_555
P0 Pr1 3.180256 1_554
P0 Pr1 3.180256 1_455
P0 Pr1 3.180256 1_545
P1 Zn0 2.438331 1_665
P1 Zn0 2.438331 1_566
P1 Zn0 2.438331 1_656
P1 Zn1 2.612103 1_555
P1 Pr0 3.180256 1_556
P1 Pr0 3.180256 1_655
P1 Pr0 3.180256 1_565
O0 Pr0 2.364863 1_555
O0 Pr1 2.478266 1_556
O0 Pr1 2.478266 1_655
O0 Pr1 2.478266 1_565
O1 Pr1 2.364863 1_555
O1 Pr0 2.478266 1_554
O1 Pr0 2.478266 1_455
O1 Pr0 2.478266 1_545
