# generated using pymatgen
data_LiMn7O12
_symmetry_space_group_name_H-M   'P 1'
_cell_length_a   6.42400920
_cell_length_b   6.41958794
_cell_length_c   10.50740244
_cell_angle_alpha   89.61551457
_cell_angle_beta   90.33000787
_cell_angle_gamma   109.58295740
_symmetry_Int_Tables_number   1
_chemical_formula_structural   LiMn7O12
_chemical_formula_sum   'Li2 Mn14 O24'
_cell_volume   408.24346987
_cell_formula_units_Z   2
loop_
 _symmetry_equiv_pos_site_id
 _symmetry_equiv_pos_as_xyz
  1  'x, y, z'
loop_
 _atom_site_type_symbol
 _atom_site_label
 _atom_site_symmetry_multiplicity
 _atom_site_fract_x
 _atom_site_fract_y
 _atom_site_fract_z
 _atom_site_occupancy
  Li  Li0  1  0.00009600  0.00005600  0.99994300  1
  Li  Li1  1  0.50007800  0.49999700  0.49999300  1
  Mn  Mn0  1  0.50001900  0.50001400  0.00012400  1
  Mn  Mn1  1  0.75322400  0.24646400  0.25020800  1
  Mn  Mn2  1  0.24665700  0.75363300  0.74973200  1
  Mn  Mn3  1  0.99996600  0.99997000  0.49993900  1
  Mn  Mn4  1  0.25331500  0.74851400  0.25005100  1
  Mn  Mn5  1  0.74680900  0.25149000  0.74996600  1
  Mn  Mn6  1  0.50007000  0.99993900  0.99996300  1
  Mn  Mn7  1  0.99989000  0.49996100  0.49997500  1
  Mn  Mn8  1  0.00010600  0.49995800  0.99999300  1
  Mn  Mn9  1  0.49993300  0.00009600  0.49999600  1
  Mn  Mn10  1  0.75438800  0.74794000  0.24880400  1
  Mn  Mn11  1  0.24567300  0.25209100  0.75119500  1
  Mn  Mn12  1  0.25054000  0.24552800  0.25043400  1
  Mn  Mn13  1  0.74942000  0.75440900  0.74955600  1
  O  O0  1  0.66349800  0.97238400  0.15397300  1
  O  O1  1  0.15769100  0.47442400  0.65827600  1
  O  O2  1  0.78243800  0.59448600  0.08948500  1
  O  O3  1  0.27370500  0.10279100  0.59775200  1
  O  O4  1  0.40556200  0.21866400  0.09011500  1
  O  O5  1  0.89556600  0.72430300  0.59460600  1
  O  O6  1  0.06737300  0.93318000  0.24246500  1
  O  O7  1  0.56216400  0.43830300  0.74796300  1
  O  O8  1  0.25109300  0.74671300  0.43676900  1
  O  O9  1  0.74772900  0.24457300  0.93482100  1
  O  O10  1  0.47471900  0.15583300  0.34260300  1
  O  O11  1  0.96904100  0.66706400  0.84097900  1
  O  O12  1  0.03090800  0.33292900  0.15907800  1
  O  O13  1  0.52522400  0.84422500  0.65742400  1
  O  O14  1  0.25237300  0.75534700  0.06524900  1
  O  O15  1  0.74879100  0.25333300  0.56316900  1
  O  O16  1  0.43785400  0.56165400  0.25196700  1
  O  O17  1  0.93269200  0.06676500  0.75759100  1
  O  O18  1  0.72617900  0.89720700  0.40217200  1
  O  O19  1  0.21772900  0.40555000  0.91063400  1
  O  O20  1  0.10438000  0.27569700  0.40530900  1
  O  O21  1  0.59440300  0.78126900  0.90994200  1
  O  O22  1  0.84217100  0.52559400  0.34175500  1
  O  O23  1  0.33653300  0.02765400  0.84603400  1
loop_
_geom_bond_atom_site_label_1
_geom_bond_atom_site_label_2
_geom_bond_distance
_geom_bond_site_symmetry_2
Li0 O17 2.636752 1_455
Li0 O6 2.638526 1_546
Li0 O23 2.664116 1_555
Li0 O0 2.665614 1_446
Li0 O19 2.674715 1_555
Li0 O11 2.675359 1_445
Li0 O2 2.675986 1_446
Li0 O12 2.676203 1_556
Li0 O4 2.681561 1_556
Li0 O21 2.682318 1_445
Li0 O9 2.690573 1_455
Li0 O14 2.691557 1_546
Li1 O5 2.655987 1_555
Li1 O20 2.657299 1_555
Li1 O18 2.677225 1_555
Li1 O3 2.677352 1_555
Li1 O15 2.677770 1_555
Li1 O8 2.679541 1_555
Li1 O7 2.680436 1_555
Li1 O16 2.681132 1_555
Li1 O22 2.723474 1_555
Li1 O1 2.725290 1_555
Li1 O10 2.729017 1_555
Li1 O13 2.729901 1_555
Mn0 O4 1.942551 1_555
Mn0 O21 1.943017 1_554
Mn0 O19 1.947125 1_554
Mn0 O2 1.947159 1_555
Mn1 O12 1.938010 1_655
Mn1 O0 1.946232 1_545
Mn1 O22 1.947598 1_555
Mn1 O10 1.948490 1_555
Mn2 O11 1.938244 1_455
Mn2 O23 1.946286 1_565
Mn2 O1 1.947538 1_555
Mn2 O13 1.948362 1_555
Mn3 O5 1.938921 1_555
Mn3 O20 1.939033 1_665
Mn3 O18 1.947924 1_555
Mn3 O3 1.947950 1_665
Mn4 O14 1.942010 1_555
Mn4 O6 1.945611 1_555
Mn4 O16 1.948690 1_555
Mn4 O8 1.961984 1_555
Mn5 O9 1.942576 1_555
Mn5 O17 1.945623 1_555
Mn5 O7 1.949000 1_555
Mn5 O15 1.962796 1_555
Mn6 O9 1.946594 1_565
Mn6 O14 1.947117 1_556
Mn6 O21 1.956317 1_555
Mn6 O4 1.957905 1_566
Mn6 O23 1.962948 1_565
Mn6 O0 1.962982 1_556
Mn7 O15 1.958522 1_555
Mn7 O8 1.959357 1_655
Mn7 O22 1.976401 1_555
Mn7 O1 1.977242 1_655
Mn7 O5 2.045934 1_555
Mn7 O20 2.046311 1_655
Mn8 O19 1.947836 1_555
Mn8 O2 1.949184 1_456
Mn8 O14 2.001390 1_556
Mn8 O9 2.001450 1_455
Mn8 O12 2.024203 1_556
Mn8 O11 2.024323 1_455
Mn9 O10 1.960631 1_555
Mn9 O13 1.961521 1_545
Mn9 O15 1.974655 1_555
Mn9 O8 1.975305 1_545
Mn9 O3 2.066464 1_555
Mn9 O18 2.067613 1_545
Mn10 O18 1.920539 1_555
Mn10 O22 1.955453 1_555
Mn10 O6 1.964397 1_655
Mn10 O16 1.983980 1_555
Mn10 O0 1.986899 1_555
Mn10 O2 1.987432 1_555
Mn11 O3 1.921014 1_555
Mn11 O1 1.955897 1_555
Mn11 O17 1.964542 1_455
Mn11 O7 1.983643 1_555
Mn11 O23 1.986801 1_555
Mn11 O19 1.988338 1_555
Mn12 O20 1.926409 1_555
Mn12 O12 1.932556 1_555
Mn12 O6 1.957469 1_545
Mn12 O10 1.968692 1_555
Mn12 O16 1.982400 1_555
Mn12 O4 1.999374 1_555
Mn13 O5 1.926921 1_555
Mn13 O11 1.932652 1_555
Mn13 O17 1.957717 1_565
Mn13 O13 1.969009 1_555
Mn13 O7 1.982204 1_555
Mn13 O21 1.999946 1_555
