# generated using pymatgen
data_Ba3Ir3N5
_symmetry_space_group_name_H-M   'P 1'
_cell_length_a   7.15954196
_cell_length_b   8.02625229
_cell_length_c   9.13338923
_cell_angle_alpha   104.44349831
_cell_angle_beta   113.54528300
_cell_angle_gamma   100.04011654
_symmetry_Int_Tables_number   1
_chemical_formula_structural   Ba3Ir3N5
_chemical_formula_sum   'Ba6 Ir6 N10'
_cell_volume   443.19708115
_cell_formula_units_Z   2
loop_
 _symmetry_equiv_pos_site_id
 _symmetry_equiv_pos_as_xyz
  1  'x, y, z'
loop_
 _atom_site_type_symbol
 _atom_site_label
 _atom_site_symmetry_multiplicity
 _atom_site_fract_x
 _atom_site_fract_y
 _atom_site_fract_z
 _atom_site_occupancy
  Ba  Ba0  1  0.73535200  0.42977500  0.63763000  1
  Ba  Ba1  1  0.26464800  0.57022500  0.36237000  1
  Ba  Ba2  1  0.60026200  0.85077200  0.85267800  1
  Ba  Ba3  1  0.39973800  0.14922800  0.14732200  1
  Ba  Ba4  1  0.75108300  0.70067800  0.25077000  1
  Ba  Ba5  1  0.24891700  0.29932200  0.74923000  1
  Ir  Ir0  1  0.75715400  0.31438600  0.96791600  1
  Ir  Ir1  1  0.24284600  0.68561400  0.03208400  1
  Ir  Ir2  1  0.74541600  0.01083200  0.58113300  1
  Ir  Ir3  1  0.25458400  0.98916800  0.41886700  1
  Ir  Ir4  1  0.03558100  0.83079800  0.67439900  1
  Ir  Ir5  1  0.96441900  0.16920200  0.32560100  1
  N  N0  1  0.75928300  0.14678900  0.79054400  1
  N  N1  1  0.24071700  0.85321100  0.20945600  1
  N  N2  1  0.71981700  0.75265900  0.59276100  1
  N  N3  1  0.28018300  0.24734100  0.40723900  1
  N  N4  1  0.67953700  0.51334900  0.91699200  1
  N  N5  1  0.32046300  0.48665100  0.08300800  1
  N  N6  1  0.22344000  0.92854200  0.59376400  1
  N  N7  1  0.77656000  0.07145800  0.40623600  1
  N  N8  1  0.16915700  0.69917200  0.81326400  1
  N  N9  1  0.83084300  0.30082800  0.18673600  1
loop_
_geom_bond_atom_site_label_1
_geom_bond_atom_site_label_2
_geom_bond_distance
_geom_bond_site_symmetry_2
Ba0 N4 2.678468 1_555
Ba0 N2 2.736844 1_555
Ba0 N3 2.917574 1_555
Ba0 N0 2.943763 1_555
Ba0 N8 2.973631 1_655
Ba0 N7 3.253701 1_555
Ba1 N5 2.678468 1_555
Ba1 N3 2.736844 1_555
Ba1 N2 2.917574 1_555
Ba1 N1 2.943763 1_555
Ba1 N9 2.973631 1_455
Ba1 N6 3.253701 1_555
Ba2 N0 2.740227 1_565
Ba2 N2 2.813221 1_555
Ba2 N8 2.953136 1_555
Ba2 N4 3.010804 1_555
Ba2 N6 3.080036 1_555
Ba3 N1 2.740227 1_545
Ba3 N3 2.813221 1_555
Ba3 N9 2.953136 1_555
Ba3 N5 3.010804 1_555
Ba3 N7 3.080036 1_555
Ba4 N5 2.805350 1_555
Ba4 N4 2.830877 1_554
Ba4 N7 2.898571 1_565
Ba4 N2 3.149882 1_555
Ba4 N9 3.307150 1_555
Ba5 N4 2.805350 1_555
Ba5 N5 2.830877 1_556
Ba5 N6 2.898571 1_545
Ba5 N3 3.149882 1_555
Ba5 N8 3.307150 1_555
Ir0 N0 1.836829 1_555
Ir0 N4 1.883812 1_555
Ir0 N9 1.889591 1_556
Ir1 N1 1.836829 1_555
Ir1 N5 1.883812 1_555
Ir1 N8 1.889591 1_554
Ir2 N7 1.863515 1_555
Ir2 N0 1.904770 1_555
Ir2 N2 2.081258 1_545
Ir3 N6 1.863515 1_555
Ir3 N1 1.904770 1_555
Ir3 N3 2.081258 1_565
Ir4 N6 1.917953 1_555
Ir4 N8 1.921182 1_555
Ir4 N2 1.996440 1_455
Ir5 N7 1.917953 1_555
Ir5 N9 1.921182 1_555
Ir5 N3 1.996440 1_655
