# generated using pymatgen
data_Zr(FeN)4
_symmetry_space_group_name_H-M   'P 1'
_cell_length_a   5.40285046
_cell_length_b   5.47453231
_cell_length_c   7.79597861
_cell_angle_alpha   66.42479361
_cell_angle_beta   76.82025361
_cell_angle_gamma   60.79514298
_symmetry_Int_Tables_number   1
_chemical_formula_structural   Zr(FeN)4
_chemical_formula_sum   'Zr2 Fe8 N8'
_cell_volume   184.32252740
_cell_formula_units_Z   2
loop_
 _symmetry_equiv_pos_site_id
 _symmetry_equiv_pos_as_xyz
  1  'x, y, z'
loop_
 _atom_site_type_symbol
 _atom_site_label
 _atom_site_symmetry_multiplicity
 _atom_site_fract_x
 _atom_site_fract_y
 _atom_site_fract_z
 _atom_site_occupancy
  Zr  Zr0  1  0.74956000  0.82861500  0.81405000  1
  Zr  Zr1  1  0.25044000  0.17138500  0.18595000  1
  Fe  Fe0  1  0.67933200  0.57817900  0.23505700  1
  Fe  Fe1  1  0.32066800  0.42182100  0.76494300  1
  Fe  Fe2  1  0.77207600  0.22693600  0.00196000  1
  Fe  Fe3  1  0.22792400  0.77306400  0.99804000  1
  Fe  Fe4  1  0.76769000  0.50623500  0.58735900  1
  Fe  Fe5  1  0.23231000  0.49376500  0.41264100  1
  Fe  Fe6  1  0.27634500  0.95966800  0.60056200  1
  Fe  Fe7  1  0.72365500  0.04033200  0.39943800  1
  N  N0  1  0.00557500  0.69452000  0.58230600  1
  N  N1  1  0.99442500  0.30548000  0.41769400  1
  N  N2  1  0.84959800  0.81738300  0.06839400  1
  N  N3  1  0.15040200  0.18261700  0.93160600  1
  N  N4  1  0.51627500  0.59326600  0.80733100  1
  N  N5  1  0.48372500  0.40673400  0.19266900  1
  N  N6  1  0.53383100  0.81336400  0.39602500  1
  N  N7  1  0.46616900  0.18663600  0.60397500  1
loop_
_geom_bond_atom_site_label_1
_geom_bond_atom_site_label_2
_geom_bond_distance
_geom_bond_site_symmetry_2
Fe0 N5 1.866114 1_555
Fe0 N2 1.875855 1_555
Fe0 N6 1.924924 1_555
Fe0 N1 2.019672 1_555
Fe1 N4 1.866114 1_555
Fe1 N3 1.875855 1_555
Fe1 N7 1.924924 1_555
Fe1 N0 2.019672 1_555
Fe2 N3 1.910243 1_654
Fe2 N2 1.929858 1_545
Fe2 N4 2.012883 1_554
Fe2 N5 2.055319 1_555
Fe3 N2 1.910243 1_456
Fe3 N3 1.929858 1_565
Fe3 N5 2.012883 1_556
Fe3 N4 2.055319 1_555
Fe4 N6 1.851643 1_555
Fe4 N1 1.888963 1_555
Fe4 N0 1.988265 1_655
Fe4 N4 1.993178 1_555
Fe5 N7 1.851643 1_555
Fe5 N0 1.888963 1_555
Fe5 N1 1.988265 1_455
Fe5 N5 1.993178 1_555
Fe6 N7 1.969502 1_565
Fe6 N1 1.988427 1_465
Fe6 N6 2.010512 1_555
Fe6 N4 2.032580 1_555
Fe6 N0 2.569034 1_555
Fe7 N6 1.969502 1_545
Fe7 N0 1.988427 1_645
Fe7 N7 2.010512 1_555
Fe7 N5 2.032580 1_555
Fe7 N1 2.569034 1_555
N0 Zr0 2.155609 1_455
N1 Zr1 2.155609 1_655
N2 Zr0 2.141589 1_554
N3 Zr1 2.141589 1_556
N4 Zr0 2.218162 1_555
N5 Zr1 2.218162 1_555
N6 Zr1 2.124938 1_565
N7 Zr0 2.124938 1_545
