# generated using pymatgen
data_Sr3(NbN2)2
_symmetry_space_group_name_H-M   'P 1'
_cell_length_a   9.56078845
_cell_length_b   8.32808137
_cell_length_c   6.17748395
_cell_angle_alpha   89.99999544
_cell_angle_beta   70.00639301
_cell_angle_gamma   115.81922414
_symmetry_Int_Tables_number   1
_chemical_formula_structural   Sr3(NbN2)2
_chemical_formula_sum   'Sr6 Nb4 N8'
_cell_volume   409.58468644
_cell_formula_units_Z   2
loop_
 _symmetry_equiv_pos_site_id
 _symmetry_equiv_pos_as_xyz
  1  'x, y, z'
loop_
 _atom_site_type_symbol
 _atom_site_label
 _atom_site_symmetry_multiplicity
 _atom_site_fract_x
 _atom_site_fract_y
 _atom_site_fract_z
 _atom_site_occupancy
  Sr  Sr0  1  0.28118700  0.99083300  0.07576000  1
  Sr  Sr1  1  0.71881300  0.70964600  0.42424000  1
  Sr  Sr2  1  0.71881300  0.00916700  0.92424000  1
  Sr  Sr3  1  0.28118700  0.29035400  0.57576000  1
  Sr  Sr4  1  0.00000000  0.75464400  0.75000000  1
  Sr  Sr5  1  0.00000000  0.24535600  0.25000000  1
  Nb  Nb0  1  0.58296800  0.18232200  0.52534500  1
  Nb  Nb1  1  0.41703200  0.59935500  0.97465500  1
  Nb  Nb2  1  0.41703200  0.81767800  0.47465500  1
  Nb  Nb3  1  0.58296800  0.40064500  0.02534500  1
  N  N0  1  0.32967700  0.99556500  0.62691600  1
  N  N1  1  0.67032300  0.66588800  0.87308400  1
  N  N2  1  0.67032300  0.00443500  0.37308400  1
  N  N3  1  0.32967700  0.33411200  0.12691600  1
  N  N4  1  0.60393600  0.21554500  0.83100600  1
  N  N5  1  0.39606400  0.61160900  0.66899400  1
  N  N6  1  0.39606400  0.78445500  0.16899400  1
  N  N7  1  0.60393600  0.38839100  0.33100600  1
loop_
_geom_bond_atom_site_label_1
_geom_bond_atom_site_label_2
_geom_bond_distance
_geom_bond_site_symmetry_2
N0 Nb2 2.077865 1_555
N0 Nb0 2.087407 1_565
N0 Sr0 2.647556 1_556
N0 Sr4 2.718661 1_555
N0 Sr3 2.726453 1_565
N1 Nb3 2.077872 1_556
N1 Nb1 2.087409 1_555
N1 Sr1 2.647556 1_555
N1 Sr4 2.718661 1_655
N1 Sr2 2.726453 1_565
N2 Nb0 2.077865 1_555
N2 Nb2 2.087407 1_545
N2 Sr2 2.647556 1_554
N2 Sr5 2.718661 1_655
N2 Sr1 2.726453 1_545
N3 Nb1 2.077872 1_554
N3 Nb3 2.087409 1_555
N3 Sr3 2.647556 1_555
N3 Sr5 2.718661 1_555
N3 Sr0 2.726453 1_545
N4 Nb0 1.972977 1_555
N4 Nb3 1.990570 1_556
N4 Sr2 2.562997 1_555
N4 Sr0 2.662598 1_546
N5 Nb1 1.972976 1_555
N5 Nb2 1.990577 1_555
N5 Sr3 2.562997 1_555
N5 Sr1 2.662598 1_555
N6 Nb2 1.972977 1_555
N6 Nb1 1.990570 1_554
N6 Sr0 2.562997 1_555
N6 Sr2 2.662598 1_564
N7 Nb3 1.972976 1_555
N7 Nb0 1.990577 1_555
N7 Sr1 2.562997 1_555
N7 Sr3 2.662598 1_555
