# generated using pymatgen
data_Li3Y(NiO3)2
_symmetry_space_group_name_H-M   'P 1'
_cell_length_a   5.35819887
_cell_length_b   7.93577985
_cell_length_c   6.16505208
_cell_angle_alpha   79.02383605
_cell_angle_beta   73.03818668
_cell_angle_gamma   75.55737813
_symmetry_Int_Tables_number   1
_chemical_formula_structural   Li3Y(NiO3)2
_chemical_formula_sum   'Li6 Y2 Ni4 O12'
_cell_volume   240.85333144
_cell_formula_units_Z   2
loop_
 _symmetry_equiv_pos_site_id
 _symmetry_equiv_pos_as_xyz
  1  'x, y, z'
loop_
 _atom_site_type_symbol
 _atom_site_label
 _atom_site_symmetry_multiplicity
 _atom_site_fract_x
 _atom_site_fract_y
 _atom_site_fract_z
 _atom_site_occupancy
  Li  Li0  1  0.50006400  0.50002000  0.00010100  1
  Li  Li1  1  0.99980800  0.00000100  0.50004700  1
  Li  Li2  1  0.03249200  0.34753500  0.14315000  1
  Li  Li3  1  0.53215600  0.84794600  0.64306400  1
  Li  Li4  1  0.96734100  0.65251000  0.85680300  1
  Li  Li5  1  0.46733700  0.15262800  0.35681400  1
  Y  Y0  1  0.00000000  0.00005500  0.99999900  1
  Y  Y1  1  0.49999100  0.50002000  0.50012900  1
  Ni  Ni0  1  0.00016000  0.66512000  0.33423400  1
  Ni  Ni1  1  0.00029000  0.33445500  0.66574200  1
  Ni  Ni2  1  0.50007100  0.16513700  0.83417400  1
  Ni  Ni3  1  0.49993600  0.83495600  0.16580900  1
  O  O0  1  0.23576900  0.72735200  0.03490600  1
  O  O1  1  0.73566500  0.22744200  0.53487200  1
  O  O2  1  0.76427400  0.27263200  0.96503300  1
  O  O3  1  0.26421800  0.77259700  0.46507200  1
  O  O4  1  0.26271100  0.39671100  0.83825400  1
  O  O5  1  0.76258100  0.89668700  0.33837000  1
  O  O6  1  0.79797000  0.58020400  0.64277900  1
  O  O7  1  0.29766500  0.08034300  0.14288800  1
  O  O8  1  0.73733500  0.60325600  0.16171600  1
  O  O9  1  0.23736200  0.10310300  0.66179200  1
  O  O10  1  0.20253800  0.41957500  0.35710800  1
  O  O11  1  0.70226300  0.91971400  0.85714600  1
loop_
_geom_bond_atom_site_label_1
_geom_bond_atom_site_label_2
_geom_bond_distance
_geom_bond_site_symmetry_2
Li0 O0 2.000463 1_555
Li0 O2 2.000707 1_554
Li0 O8 2.202211 1_555
Li0 O4 2.203901 1_554
Li0 O10 2.391365 1_555
Li0 O6 2.393089 1_554
Li1 O1 2.000749 1_555
Li1 O3 2.001243 1_645
Li1 O5 2.202659 1_545
Li1 O9 2.203341 1_655
Li1 O11 2.391472 1_545
Li1 O7 2.392611 1_655
Li2 O4 1.953235 1_554
Li2 O10 2.035969 1_555
Li2 O7 2.238742 1_555
Li2 O8 2.239290 1_455
Li2 O2 2.284751 1_454
Li2 O1 2.628417 1_455
Li3 O5 1.952157 1_555
Li3 O11 2.035724 1_555
Li3 O9 2.235092 1_565
Li3 O6 2.243553 1_555
Li3 O3 2.284752 1_555
Li3 O0 2.629256 1_556
Li4 O8 1.952963 1_556
Li4 O6 2.034844 1_555
Li4 O11 2.238612 1_555
Li4 O4 2.240278 1_655
Li4 O0 2.285382 1_656
Li4 O3 2.628553 1_655
Li5 O9 1.953569 1_555
Li5 O7 2.035394 1_555
Li5 O10 2.236409 1_555
Li5 O5 2.240786 1_545
Li5 O1 2.284624 1_555
Li5 O2 2.628675 1_554
Ni0 O5 1.957083 1_455
Ni0 O0 1.961559 1_555
Ni0 O6 1.979846 1_455
Ni0 O10 1.980743 1_555
Ni0 O8 2.184739 1_455
Ni0 O3 2.215810 1_555
Ni1 O9 1.954631 1_555
Ni1 O2 1.961587 1_455
Ni1 O10 1.980836 1_555
Ni1 O6 1.982017 1_455
Ni1 O4 2.184378 1_555
Ni1 O1 2.216232 1_455
Ni2 O4 1.956642 1_555
Ni2 O1 1.961547 1_555
Ni2 O11 1.979641 1_545
Ni2 O7 1.980737 1_556
Ni2 O9 2.184259 1_555
Ni2 O2 2.216632 1_555
Ni3 O8 1.957507 1_555
Ni3 O3 1.961765 1_555
Ni3 O7 1.979526 1_565
Ni3 O11 1.980272 1_554
Ni3 O5 2.183612 1_555
Ni3 O0 2.217169 1_555
O0 Y0 2.223320 1_564
O1 Y1 2.222255 1_555
O2 Y0 2.222454 1_655
O3 Y1 2.222586 1_555
O4 Y1 2.226375 1_555
O5 Y0 2.227882 1_664
O6 Y1 2.294934 1_555
O7 Y0 2.294834 1_554
O8 Y1 2.227558 1_555
O9 Y0 2.226212 1_555
O10 Y1 2.295013 1_555
O11 Y0 2.295251 1_665
