# generated using pymatgen
data_Ba4Cu3Si20
_symmetry_space_group_name_H-M   'P 1'
_cell_length_a   10.34362496
_cell_length_b   10.34362754
_cell_length_c   10.34364734
_cell_angle_alpha   89.99996754
_cell_angle_beta   89.99998227
_cell_angle_gamma   89.99998272
_symmetry_Int_Tables_number   1
_chemical_formula_structural   Ba4Cu3Si20
_chemical_formula_sum   'Ba8 Cu6 Si40'
_cell_volume   1106.67307647
_cell_formula_units_Z   2
loop_
 _symmetry_equiv_pos_site_id
 _symmetry_equiv_pos_as_xyz
  1  'x, y, z'
loop_
 _atom_site_type_symbol
 _atom_site_label
 _atom_site_symmetry_multiplicity
 _atom_site_fract_x
 _atom_site_fract_y
 _atom_site_fract_z
 _atom_site_occupancy
  Ba  Ba0  1  0.00000084  0.99999890  0.99999881  1
  Ba  Ba1  1  0.49999880  0.50000117  0.50000106  1
  Ba  Ba2  1  0.25000877  0.99999860  0.50000164  1
  Ba  Ba3  1  0.74999099  0.99999841  0.50000169  1
  Ba  Ba4  1  0.49999855  0.24999649  0.99999830  1
  Ba  Ba5  1  0.49999854  0.75000352  0.99999811  1
  Ba  Ba6  1  0.00000108  0.50000131  0.24999513  1
  Ba  Ba7  1  0.00000123  0.50000151  0.75000494  1
  Cu  Cu0  1  0.25002597  0.50000161  -0.00000236  1
  Cu  Cu1  1  0.74997299  0.50000258  -0.00000277  1
  Cu  Cu2  1  0.00000679  0.24999212  0.50000348  1
  Cu  Cu3  1  0.00000611  0.75000793  0.50000320  1
  Cu  Cu4  1  0.49999503  -0.00000193  0.24997901  1
  Cu  Cu5  1  0.49999587  -0.00000290  0.75002145  1
  Si  Si0  1  0.00000033  0.11959485  0.31142738  1
  Si  Si1  1  0.00000028  0.88040424  0.68857273  1
  Si  Si2  1  0.00000021  0.88040417  0.31142758  1
  Si  Si3  1  0.00000041  0.11959494  0.68857271  1
  Si  Si4  1  0.31143088  -0.00000019  0.11959463  1
  Si  Si5  1  0.61959305  0.50000019  0.18857039  1
  Si  Si6  1  0.68856818  -0.00000035  0.88040415  1
  Si  Si7  1  0.38040513  0.50000011  0.81143007  1
  Si  Si8  1  0.31143126  -0.00000036  0.88040443  1
  Si  Si9  1  0.38040528  0.50000029  0.18856997  1
  Si  Si10  1  0.68856821  -0.00000020  0.11959480  1
  Si  Si11  1  0.61959308  0.50000014  0.81142940  1
  Si  Si12  1  0.11959969  0.31143174  -0.00000042  1
  Si  Si13  1  0.49999934  0.81143277  0.38040165  1
  Si  Si14  1  0.88040101  0.68856849  -0.00000021  1
  Si  Si15  1  0.49999942  0.18856684  0.61959929  1
  Si  Si16  1  0.11959995  0.68856803  -0.00000024  1
  Si  Si17  1  0.49999949  0.18856737  0.38040163  1
  Si  Si18  1  0.88040105  0.31143144  -0.00000036  1
  Si  Si19  1  0.49999949  0.81143287  0.61959931  1
  Si  Si20  1  0.18857266  0.61959735  0.50000040  1
  Si  Si21  1  0.81142785  0.38040319  0.50000031  1
  Si  Si22  1  0.18857302  0.38040383  0.50000021  1
  Si  Si23  1  0.81142771  0.61959736  0.50000018  1
  Si  Si24  1  0.18394929  0.18394259  0.18393765  1
  Si  Si25  1  0.81605106  0.81605776  0.81605805  1
  Si  Si26  1  0.81605073  0.81605770  0.18393991  1
  Si  Si27  1  0.81605080  0.18394189  0.81605982  1
  Si  Si28  1  0.68393661  0.68394643  0.31605371  1
  Si  Si29  1  0.18394953  0.18394230  0.81606200  1
  Si  Si30  1  0.18394928  0.81605724  0.18393773  1
  Si  Si31  1  0.31606137  0.31605492  0.68394798  1
  Si  Si32  1  0.18394939  0.81605724  0.81606206  1
  Si  Si33  1  0.31606254  0.31605653  0.31605115  1
  Si  Si34  1  0.81605086  0.18394196  0.18393980  1
  Si  Si35  1  0.68393805  0.68394548  0.68394772  1
  Si  Si36  1  0.68393799  0.31605463  0.68394779  1
  Si  Si37  1  0.31606116  0.68394526  0.31605240  1
  Si  Si38  1  0.31606261  0.68394381  0.68394904  1
  Si  Si39  1  0.68393821  0.31605486  0.31605250  1
loop_
_geom_bond_atom_site_label_1
_geom_bond_atom_site_label_2
_geom_bond_distance
_geom_bond_site_symmetry_2
Ba0 Si32 3.295455 1_555
Ba0 Si29 3.295466 1_565
Ba0 Si30 3.295467 1_556
Ba0 Si24 3.295480 1_566
Ba0 Si25 3.295485 1_455
Ba0 Si27 3.295485 1_465
Ba0 Si26 3.295487 1_456
Ba0 Si34 3.295497 1_466
Ba0 Si1 3.450643 1_555
Ba0 Si3 3.450647 1_565
Ba0 Si2 3.450667 1_556
Ba0 Si0 3.450671 1_566
Ba0 Si8 3.450677 1_565
Ba0 Si4 3.450679 1_566
Ba0 Si14 3.450697 1_456
Ba0 Si16 3.450698 1_556
Ba0 Si6 3.450700 1_465
Ba0 Si10 3.450704 1_466
Ba0 Si18 3.450717 1_466
Ba0 Si12 3.450717 1_566
Ba1 Si38 3.295454 1_555
Ba1 Si37 3.295475 1_555
Ba1 Si28 3.295475 1_555
Ba1 Si35 3.295476 1_555
Ba1 Si31 3.295476 1_555
Ba1 Si33 3.295479 1_555
Ba1 Si36 3.295487 1_555
Ba1 Si39 3.295499 1_555
Ba1 Si20 3.450641 1_555
Ba1 Si22 3.450643 1_555
Ba1 Si11 3.450663 1_555
Ba1 Si7 3.450666 1_555
Ba1 Si23 3.450669 1_555
Ba1 Si21 3.450676 1_555
Ba1 Si5 3.450684 1_555
Ba1 Si9 3.450686 1_555
Ba1 Si19 3.450705 1_555
Ba1 Si13 3.450707 1_555
Ba1 Si15 3.450729 1_555
Ba1 Si17 3.450730 1_555
Ba2 Si19 3.467137 1_555
Ba2 Si13 3.467145 1_555
Ba2 Si15 3.467152 1_565
Ba2 Si17 3.467163 1_565
Ba2 Si1 3.467294 1_555
Ba2 Si3 3.467301 1_565
Ba2 Si2 3.467314 1_555
Ba2 Si0 3.467319 1_565
Ba2 Cu3 3.656976 1_555
Ba2 Cu2 3.656991 1_565
Ba2 Cu5 3.657079 1_565
Ba2 Cu4 3.657092 1_565
Ba2 Si37 3.843742 1_555
Ba2 Si38 3.843746 1_555
Ba2 Si31 3.843754 1_565
Ba2 Si32 3.843778 1_555
Ba2 Si33 3.843789 1_565
Ba2 Si29 3.843791 1_565
Ba2 Si30 3.843811 1_555
Ba2 Si24 3.843824 1_565
Ba3 Si19 3.467142 1_555
Ba3 Si13 3.467154 1_555
Ba3 Si15 3.467159 1_565
Ba3 Si17 3.467170 1_565
Ba3 Si1 3.467300 1_655
Ba3 Si3 3.467311 1_665
Ba3 Si2 3.467317 1_655
Ba3 Si0 3.467327 1_665
Ba3 Cu3 3.657065 1_655
Ba3 Cu2 3.657094 1_665
Ba3 Cu5 3.657136 1_565
Ba3 Cu4 3.657165 1_565
Ba3 Si35 3.843721 1_555
Ba3 Si28 3.843727 1_555
Ba3 Si25 3.843740 1_555
Ba3 Si36 3.843752 1_565
Ba3 Si39 3.843768 1_565
Ba3 Si27 3.843772 1_565
Ba3 Si26 3.843789 1_555
Ba3 Si34 3.843803 1_565
Ba4 Si8 3.467181 1_555
Ba4 Si4 3.467190 1_556
Ba4 Si6 3.467194 1_555
Ba4 Si10 3.467201 1_556
Ba4 Si7 3.467236 1_555
Ba4 Si11 3.467245 1_555
Ba4 Si9 3.467259 1_556
Ba4 Si5 3.467266 1_556
Ba4 Cu5 3.656855 1_555
Ba4 Cu0 3.656860 1_556
Ba4 Cu4 3.656874 1_556
Ba4 Cu1 3.656882 1_556
Ba4 Si29 3.843640 1_555
Ba4 Si24 3.843656 1_556
Ba4 Si31 3.843667 1_555
Ba4 Si36 3.843679 1_555
Ba4 Si27 3.843679 1_555
Ba4 Si33 3.843686 1_556
Ba4 Si34 3.843696 1_556
Ba4 Si39 3.843715 1_556
Ba5 Si8 3.467173 1_565
Ba5 Si4 3.467187 1_566
Ba5 Si6 3.467188 1_565
Ba5 Si10 3.467201 1_566
Ba5 Si7 3.467236 1_555
Ba5 Si11 3.467243 1_555
Ba5 Si9 3.467254 1_556
Ba5 Si5 3.467262 1_556
Ba5 Cu5 3.656809 1_565
Ba5 Cu0 3.656838 1_556
Ba5 Cu1 3.656844 1_556
Ba5 Cu4 3.656850 1_566
Ba5 Si32 3.843639 1_555
Ba5 Si38 3.843653 1_555
Ba5 Si30 3.843657 1_556
Ba5 Si35 3.843679 1_555
Ba5 Si25 3.843689 1_555
Ba5 Si26 3.843696 1_556
Ba5 Si37 3.843702 1_556
Ba5 Si28 3.843716 1_556
Ba6 Si16 3.467186 1_555
Ba6 Si14 3.467193 1_455
Ba6 Si12 3.467204 1_555
Ba6 Si18 3.467212 1_455
Ba6 Si20 3.467282 1_555
Ba6 Si22 3.467286 1_555
Ba6 Si23 3.467289 1_455
Ba6 Si21 3.467297 1_455
Ba6 Cu3 3.657137 1_555
Ba6 Cu2 3.657155 1_555
Ba6 Cu0 3.657191 1_555
Ba6 Cu1 3.657218 1_455
Ba6 Si30 3.843766 1_555
Ba6 Si26 3.843776 1_455
Ba6 Si37 3.843781 1_555
Ba6 Si24 3.843790 1_555
Ba6 Si33 3.843794 1_555
Ba6 Si34 3.843803 1_455
Ba6 Si39 3.843818 1_455
Ba6 Si28 3.843827 1_455
Ba7 Si16 3.467182 1_556
Ba7 Si14 3.467189 1_456
Ba7 Si12 3.467197 1_556
Ba7 Si18 3.467205 1_456
Ba7 Si20 3.467273 1_555
Ba7 Si22 3.467284 1_555
Ba7 Si23 3.467287 1_455
Ba7 Si21 3.467296 1_455
Ba7 Cu3 3.657087 1_555
Ba7 Cu2 3.657108 1_555
Ba7 Cu0 3.657156 1_556
Ba7 Cu1 3.657177 1_456
Ba7 Si32 3.843764 1_555
Ba7 Si25 3.843771 1_455
Ba7 Si38 3.843781 1_555
Ba7 Si31 3.843793 1_555
Ba7 Si29 3.843794 1_555
Ba7 Si27 3.843805 1_455
Ba7 Si35 3.843807 1_455
Ba7 Si36 3.843823 1_455
Cu0 Si7 2.371299 1_554
Cu0 Si9 2.371341 1_555
Cu0 Si16 2.371562 1_555
Cu0 Si12 2.371594 1_555
Cu1 Si11 2.371307 1_554
Cu1 Si5 2.371351 1_555
Cu1 Si14 2.371570 1_555
Cu1 Si18 2.371614 1_555
Cu2 Si3 2.371419 1_555
Cu2 Si22 2.371477 1_555
Cu2 Si0 2.371480 1_555
Cu2 Si21 2.371580 1_455
Cu3 Si1 2.371418 1_555
Cu3 Si2 2.371468 1_555
Cu3 Si20 2.371472 1_555
Cu3 Si23 2.371574 1_455
Cu4 Si4 2.371300 1_555
Cu4 Si10 2.371375 1_555
Cu4 Si13 2.371534 1_545
Cu4 Si17 2.371569 1_555
Cu5 Si8 2.371295 1_555
Cu5 Si6 2.371359 1_555
Cu5 Si19 2.371523 1_545
Cu5 Si15 2.371569 1_555
Si0 Si34 2.408779 1_455
Si0 Si24 2.408789 1_555
Si0 Si2 2.474099 1_545
Si1 Si25 2.408762 1_455
Si1 Si32 2.408786 1_555
Si1 Si3 2.474100 1_565
Si2 Si26 2.408779 1_455
Si2 Si30 2.408788 1_555
Si4 Si8 2.474099 1_554
Si5 Si9 2.474069 1_555
Si10 Si26 2.408683 1_545
Si10 Si34 2.408686 1_555
Si10 Si6 2.474104 1_554
Si11 Si35 2.408706 1_555
Si11 Si36 2.408708 1_555
Si11 Si7 2.474070 1_555
Si12 Si29 2.408703 1_554
Si12 Si24 2.408704 1_555
Si12 Si18 2.474181 1_455
Si13 Si28 2.408674 1_555
Si13 Si37 2.408693 1_555
Si13 Si19 2.474176 1_555
Si14 Si26 2.408723 1_555
Si14 Si25 2.408735 1_554
Si14 Si16 2.474184 1_655
Si15 Si31 2.408692 1_555
Si15 Si36 2.408695 1_555
Si15 Si17 2.474176 1_555
Si16 Si32 2.408700 1_554
Si16 Si30 2.408704 1_555
Si17 Si33 2.408694 1_555
Si17 Si39 2.408696 1_555
Si18 Si27 2.408723 1_554
Si18 Si34 2.408724 1_555
Si19 Si38 2.408691 1_555
Si19 Si35 2.408692 1_555
Si20 Si37 2.408776 1_555
Si20 Si38 2.408787 1_555
Si20 Si22 2.474129 1_555
Si21 Si36 2.408781 1_555
Si21 Si39 2.408783 1_555
Si21 Si23 2.474135 1_555
Si22 Si31 2.408777 1_555
Si22 Si33 2.408789 1_555
Si23 Si35 2.408780 1_555
Si23 Si28 2.408782 1_555
Si24 Si33 2.366908 1_555
Si24 Si4 2.408678 1_555
Si25 Si35 2.366877 1_555
Si25 Si6 2.408687 1_565
Si26 Si28 2.366897 1_555
Si27 Si36 2.366888 1_555
Si27 Si6 2.408683 1_555
Si27 Si3 2.408777 1_655
Si28 Si5 2.408720 1_555
Si29 Si31 2.366893 1_555
Si29 Si8 2.408676 1_555
Si29 Si3 2.408788 1_555
Si30 Si37 2.366893 1_555
Si30 Si4 2.408677 1_565
Si31 Si7 2.408705 1_555
Si32 Si38 2.366901 1_555
Si32 Si8 2.408676 1_565
Si33 Si9 2.408684 1_555
Si34 Si39 2.366892 1_555
Si37 Si9 2.408706 1_555
Si38 Si7 2.408682 1_555
Si39 Si5 2.408709 1_555
