# generated using pymatgen
data_Ga3Rh
_symmetry_space_group_name_H-M   'P 1'
_cell_length_a   6.48375153
_cell_length_b   6.48375153
_cell_length_c   6.59367862
_cell_angle_alpha   90.00000000
_cell_angle_beta   90.00000000
_cell_angle_gamma   90.00162615
_symmetry_Int_Tables_number   1
_chemical_formula_structural   Ga3Rh
_chemical_formula_sum   'Ga12 Rh4'
_cell_volume   277.19187899
_cell_formula_units_Z   4
loop_
 _symmetry_equiv_pos_site_id
 _symmetry_equiv_pos_as_xyz
  1  'x, y, z'
loop_
 _atom_site_type_symbol
 _atom_site_label
 _atom_site_symmetry_multiplicity
 _atom_site_fract_x
 _atom_site_fract_y
 _atom_site_fract_z
 _atom_site_occupancy
  Ga  Ga0  1  -0.00000000  0.50000000  0.50000000  1
  Ga  Ga1  1  0.50000000  -0.00000000  0.00000000  1
  Ga  Ga2  1  0.50000000  -0.00000000  0.50000000  1
  Ga  Ga3  1  -0.00000000  0.50000000  0.00000000  1
  Ga  Ga4  1  0.35710779  0.64289221  0.25072134  1
  Ga  Ga5  1  0.64289221  0.35710779  0.25072134  1
  Ga  Ga6  1  0.14292782  0.14292782  0.75065992  1
  Ga  Ga7  1  0.85707218  0.85707218  0.75065992  1
  Ga  Ga8  1  0.64289221  0.35710779  0.74927866  1
  Ga  Ga9  1  0.35710779  0.64289221  0.74927866  1
  Ga  Ga10  1  0.85707218  0.85707218  0.24934008  1
  Ga  Ga11  1  0.14292782  0.14292782  0.24934008  1
  Rh  Rh0  1  0.16006273  0.83993727  0.50000000  1
  Rh  Rh1  1  0.83993727  0.16006273  0.50000000  1
  Rh  Rh2  1  0.33993158  0.33993158  0.00000000  1
  Rh  Rh3  1  0.66006842  0.66006842  0.00000000  1
loop_
_geom_bond_atom_site_label_1
_geom_bond_atom_site_label_2
_geom_bond_distance
_geom_bond_site_symmetry_2
Ga0 Rh1 2.436151 1_455
Ga0 Rh0 2.436151 1_555
Ga0 Ga9 2.986794 1_555
Ga0 Ga8 2.986794 1_455
Ga0 Ga5 2.986794 1_455
Ga0 Ga4 2.986794 1_555
Ga0 Ga11 2.991749 1_555
Ga0 Ga6 2.991749 1_555
Ga0 Ga7 2.991749 1_455
Ga0 Ga10 2.991749 1_455
Ga1 Rh2 2.436187 1_555
Ga1 Rh3 2.436187 1_545
Ga1 Ga6 2.986950 1_554
Ga1 Ga11 2.986950 1_555
Ga1 Ga10 2.986950 1_545
Ga1 Ga7 2.986950 1_544
Ga1 Ga8 2.992039 1_554
Ga1 Ga5 2.992039 1_555
Ga1 Ga9 2.992039 1_544
Ga1 Ga4 2.992039 1_545
Ga2 Rh0 2.436151 1_545
Ga2 Rh1 2.436151 1_555
Ga2 Ga8 2.986794 1_555
Ga2 Ga5 2.986794 1_555
Ga2 Ga9 2.986794 1_545
Ga2 Ga4 2.986794 1_545
Ga2 Ga6 2.991749 1_555
Ga2 Ga7 2.991749 1_545
Ga3 Rh2 2.436187 1_555
Ga3 Rh3 2.436187 1_455
Ga3 Ga6 2.986950 1_554
Ga3 Ga7 2.986950 1_454
Ga3 Ga5 2.992039 1_455
Ga3 Ga4 2.992039 1_555
Ga3 Ga8 2.992039 1_454
Ga3 Ga9 2.992039 1_554
Ga4 Rh0 2.442581 1_555
Ga4 Rh3 2.569813 1_555
Ga4 Rh2 2.569813 1_555
Ga4 Ga5 2.620512 1_555
Ga5 Rh1 2.442581 1_555
Ga5 Rh3 2.569813 1_555
Ga5 Rh2 2.569813 1_555
Ga6 Rh2 2.442535 1_556
Ga6 Rh1 2.569694 1_455
Ga6 Rh0 2.569694 1_545
Ga6 Ga7 2.621090 1_445
Ga7 Rh3 2.442535 1_556
Ga7 Rh1 2.569694 1_565
Ga7 Rh0 2.569694 1_655
Ga8 Rh1 2.442581 1_555
Ga8 Rh2 2.569813 1_556
Ga8 Rh3 2.569813 1_556
Ga8 Ga9 2.620512 1_555
Ga9 Rh0 2.442581 1_555
Ga9 Rh2 2.569813 1_556
Ga9 Rh3 2.569813 1_556
Ga10 Rh3 2.442535 1_555
Ga10 Rh1 2.569694 1_565
Ga10 Rh0 2.569694 1_655
Ga10 Ga11 2.621090 1_665
Ga10 Ga3 2.986950 1_655
Ga10 Ga2 2.991749 1_565
Ga11 Rh2 2.442535 1_555
Ga11 Rh1 2.569694 1_455
Ga11 Rh0 2.569694 1_545
Ga11 Ga3 2.986950 1_555
Ga11 Ga2 2.991749 1_555
