# generated using pymatgen
data_Mn(PbN)3
_symmetry_space_group_name_H-M   'P 1'
_cell_length_a   7.59024201
_cell_length_b   7.59092734
_cell_length_c   5.41905300
_cell_angle_alpha   90.00000000
_cell_angle_beta   90.00000000
_cell_angle_gamma   120.00262561
_symmetry_Int_Tables_number   1
_chemical_formula_structural   Mn(PbN)3
_chemical_formula_sum   'Mn2 Pb6 N6'
_cell_volume   270.39147623
_cell_formula_units_Z   2
loop_
 _symmetry_equiv_pos_site_id
 _symmetry_equiv_pos_as_xyz
  1  'x, y, z'
loop_
 _atom_site_type_symbol
 _atom_site_label
 _atom_site_symmetry_multiplicity
 _atom_site_fract_x
 _atom_site_fract_y
 _atom_site_fract_z
 _atom_site_occupancy
  Mn  Mn0  1  0.66669000  0.33339700  0.75000000  1
  Mn  Mn1  1  0.33331000  0.66660300  0.25000000  1
  Pb  Pb0  1  0.89660900  0.63577900  0.25000000  1
  Pb  Pb1  1  0.73920300  0.10342400  0.25000000  1
  Pb  Pb2  1  0.36426000  0.26082000  0.25000000  1
  Pb  Pb3  1  0.10339100  0.36422100  0.75000000  1
  Pb  Pb4  1  0.26079700  0.89657600  0.75000000  1
  Pb  Pb5  1  0.63574000  0.73918000  0.75000000  1
  N  N0  1  0.87635900  0.57376900  0.75000000  1
  N  N1  1  0.69739400  0.12363600  0.75000000  1
  N  N2  1  0.42622800  0.30255300  0.75000000  1
  N  N3  1  0.12364100  0.42623100  0.25000000  1
  N  N4  1  0.30260600  0.87636400  0.25000000  1
  N  N5  1  0.57377200  0.69744700  0.25000000  1
loop_
_geom_bond_atom_site_label_1
_geom_bond_atom_site_label_2
_geom_bond_distance
_geom_bond_site_symmetry_2
Mn0 N0 1.719874 1_555
Mn0 N2 1.720081 1_555
Mn0 N1 1.720692 1_555
Mn1 N3 1.719874 1_555
Mn1 N5 1.720081 1_555
Mn1 N4 1.720692 1_555
N0 Pb5 2.684318 1_555
N0 Pb4 2.714458 1_655
N0 Pb0 2.741236 1_555
N0 Pb0 2.741236 1_556
N0 Pb3 2.870717 1_655
N1 Pb3 2.683897 1_655
N1 Pb5 2.714794 1_545
N1 Pb1 2.741254 1_556
N1 Pb1 2.741254 1_555
N1 Pb4 2.870597 1_545
N2 Pb4 2.684006 1_545
N2 Pb3 2.714925 1_555
N2 Pb2 2.741187 1_555
N2 Pb2 2.741187 1_556
N2 Pb5 2.871066 1_555
N3 Pb2 2.684318 1_555
N3 Pb1 2.714458 1_455
N3 Pb3 2.741236 1_555
N3 Pb3 2.741236 1_554
N3 Pb0 2.870717 1_455
N4 Pb0 2.683897 1_455
N4 Pb2 2.714794 1_565
N4 Pb4 2.741254 1_554
N4 Pb4 2.741254 1_555
N4 Pb1 2.870597 1_565
N5 Pb1 2.684006 1_565
N5 Pb0 2.714925 1_555
N5 Pb5 2.741187 1_555
N5 Pb5 2.741187 1_554
N5 Pb2 2.871066 1_555
