# generated using pymatgen
data_Dy2(Al3Pd)3
_symmetry_space_group_name_H-M   'P 1'
_cell_length_a   7.66200107
_cell_length_b   7.66200107
_cell_length_c   9.48658000
_cell_angle_alpha   90.00000000
_cell_angle_beta   90.00000000
_cell_angle_gamma   119.69415488
_symmetry_Int_Tables_number   1
_chemical_formula_structural   Dy2(Al3Pd)3
_chemical_formula_sum   'Dy4 Al18 Pd6'
_cell_volume   483.78783106
_cell_formula_units_Z   2
loop_
 _symmetry_equiv_pos_site_id
 _symmetry_equiv_pos_as_xyz
  1  'x, y, z'
loop_
 _atom_site_type_symbol
 _atom_site_label
 _atom_site_symmetry_multiplicity
 _atom_site_fract_x
 _atom_site_fract_y
 _atom_site_fract_z
 _atom_site_occupancy
  Dy  Dy0  1  0.99433100  0.66951300  0.25000000  1
  Dy  Dy1  1  0.00566900  0.33048700  0.75000000  1
  Dy  Dy2  1  0.66951300  0.99433100  0.25000000  1
  Dy  Dy3  1  0.33048700  0.00566900  0.75000000  1
  Al  Al0  1  0.12770200  0.12770200  0.25000000  1
  Al  Al1  1  0.87229800  0.87229800  0.75000000  1
  Al  Al2  1  0.00013400  0.33422400  0.07671300  1
  Al  Al3  1  0.99986600  0.66577600  0.92328700  1
  Al  Al4  1  0.99986600  0.66577600  0.57671300  1
  Al  Al5  1  0.33422400  0.00013400  0.42328700  1
  Al  Al6  1  0.00013400  0.33422400  0.42328700  1
  Al  Al7  1  0.66577600  0.99986600  0.57671300  1
  Al  Al8  1  0.66577600  0.99986600  0.92328700  1
  Al  Al9  1  0.33422400  0.00013400  0.07671300  1
  Al  Al10  1  0.33369200  0.33369200  0.55993200  1
  Al  Al11  1  0.66630800  0.66630800  0.44006800  1
  Al  Al12  1  0.66630800  0.66630800  0.05993200  1
  Al  Al13  1  0.33369200  0.33369200  0.94006800  1
  Al  Al14  1  0.33715300  0.54585600  0.25000000  1
  Al  Al15  1  0.66284700  0.45414400  0.75000000  1
  Al  Al16  1  0.54585600  0.33715300  0.25000000  1
  Al  Al17  1  0.45414400  0.66284700  0.75000000  1
  Pd  Pd0  1  0.67127500  0.32872500  0.00000000  1
  Pd  Pd1  1  0.32872500  0.67127500  0.00000000  1
  Pd  Pd2  1  0.32872500  0.67127500  0.50000000  1
  Pd  Pd3  1  0.67127500  0.32872500  0.50000000  1
  Pd  Pd4  1  0.00000000  0.00000000  0.00000000  1
  Pd  Pd5  1  0.00000000  0.00000000  0.50000000  1
loop_
_geom_bond_atom_site_label_1
_geom_bond_atom_site_label_2
_geom_bond_distance
_geom_bond_site_symmetry_2
Al0 Pd4 2.567282 1_555
Al0 Pd5 2.567282 1_555
Al0 Al5 2.773807 1_555
Al0 Al6 2.773807 1_555
Al0 Al9 2.773807 1_555
Al0 Al2 2.773807 1_555
Al0 Al14 2.783224 1_555
Al0 Al16 2.783224 1_555
Al0 Dy0 3.132828 1_445
Al0 Dy2 3.132828 1_445
Al1 Pd4 2.567282 1_666
Al1 Pd5 2.567282 1_665
Al1 Al8 2.773807 1_555
Al1 Al3 2.773807 1_555
Al1 Al7 2.773807 1_555
Al1 Al4 2.773807 1_555
Al1 Al17 2.783224 1_555
Al1 Al15 2.783224 1_555
Al1 Dy1 3.132828 1_665
Al1 Dy3 3.132828 1_665
Al2 Pd0 2.602918 1_455
Al2 Pd4 2.661734 1_555
Al2 Pd1 2.663804 1_555
Al2 Al3 2.928652 1_454
Al2 Al8 2.956738 1_444
Al2 Dy2 3.060344 1_445
Al2 Dy0 3.068751 1_455
Al2 Dy1 3.100005 1_554
Al3 Pd1 2.602918 1_656
Al3 Pd4 2.661734 1_666
Al3 Pd0 2.663804 1_556
Al3 Al9 2.956738 1_666
Al3 Dy3 3.060344 1_665
Al3 Dy1 3.068751 1_655
Al3 Dy0 3.100005 1_556
Al4 Pd2 2.602918 1_655
Al4 Pd5 2.661734 1_665
Al4 Pd3 2.663804 1_555
Al4 Al6 2.928652 1_655
Al4 Al5 2.956738 1_665
Al4 Dy3 3.060344 1_665
Al4 Dy1 3.068751 1_655
Al4 Dy0 3.100005 1_555
Al5 Pd2 2.602918 1_545
Al5 Pd5 2.661734 1_555
Al5 Pd3 2.663804 1_555
Al5 Al7 2.928652 1_545
Al5 Dy0 3.060344 1_445
Al5 Dy2 3.068751 1_545
Al5 Dy3 3.100005 1_555
Al6 Pd3 2.602918 1_455
Al6 Pd5 2.661734 1_555
Al6 Pd2 2.663804 1_555
Al6 Al7 2.956738 1_445
Al6 Dy2 3.060344 1_445
Al6 Dy0 3.068751 1_455
Al6 Dy1 3.100005 1_555
Al7 Pd3 2.602918 1_565
Al7 Pd5 2.661734 1_665
Al7 Pd2 2.663804 1_555
Al7 Dy1 3.060344 1_665
Al7 Dy3 3.068751 1_565
Al7 Dy2 3.100005 1_555
Al8 Pd0 2.602918 1_566
Al8 Pd4 2.661734 1_666
Al8 Pd1 2.663804 1_556
Al8 Al9 2.928652 1_566
Al8 Dy1 3.060344 1_665
Al8 Dy3 3.068751 1_565
Al8 Dy2 3.100005 1_556
Al9 Pd1 2.602918 1_545
Al9 Pd4 2.661734 1_555
Al9 Pd0 2.663804 1_555
Al9 Dy0 3.060344 1_445
Al9 Dy2 3.068751 1_545
Al9 Dy3 3.100005 1_554
Al10 Pd5 2.630731 1_555
Al10 Pd2 2.666931 1_555
Al10 Pd3 2.666931 1_555
Al10 Al11 2.801430 1_555
Al10 Al17 2.856102 1_555
Al10 Al15 2.856102 1_555
Al10 Al6 2.867478 1_555
Al10 Al5 2.867478 1_555
Al10 Dy3 3.083399 1_555
Al10 Dy1 3.083399 1_555
Al11 Pd5 2.630731 1_665
Al11 Pd2 2.666931 1_555
Al11 Pd3 2.666931 1_555
Al11 Al14 2.856102 1_555
Al11 Al16 2.856102 1_555
Al11 Al7 2.867478 1_555
Al11 Al4 2.867478 1_555
Al11 Dy0 3.083399 1_555
Al11 Dy2 3.083399 1_555
Al12 Pd4 2.630731 1_665
Al12 Pd1 2.666931 1_555
Al12 Pd0 2.666931 1_555
Al12 Al13 2.801430 1_554
Al12 Al14 2.856102 1_555
Al12 Al16 2.856102 1_555
Al12 Al8 2.867478 1_554
Al12 Al3 2.867478 1_554
Al12 Dy2 3.083399 1_555
Al12 Dy0 3.083399 1_555
Al13 Pd4 2.630731 1_556
Al13 Pd1 2.666931 1_556
Al13 Pd0 2.666931 1_556
Al13 Al17 2.856102 1_555
Al13 Al15 2.856102 1_555
Al13 Al2 2.867478 1_556
Al13 Al9 2.867478 1_556
Al13 Dy3 3.083399 1_555
Al13 Dy1 3.083399 1_555
Al14 Pd1 2.571730 1_555
Al14 Pd2 2.571730 1_555
Al14 Al16 2.765415 1_555
Al14 Al6 2.802021 1_555
Al14 Al2 2.802021 1_555
Al14 Dy2 3.102099 1_555
Al14 Dy0 3.203576 1_455
Al15 Pd3 2.571730 1_555
Al15 Pd0 2.571730 1_556
Al15 Al17 2.765415 1_555
Al15 Al3 2.802021 1_555
Al15 Al4 2.802021 1_555
Al15 Dy3 3.102099 1_555
Al15 Dy1 3.203576 1_655
Al16 Pd3 2.571730 1_555
Al16 Pd0 2.571730 1_555
Al16 Al5 2.802021 1_555
Al16 Al9 2.802021 1_555
Al16 Dy0 3.102099 1_555
Al16 Dy2 3.203576 1_545
Al17 Pd1 2.571730 1_556
Al17 Pd2 2.571730 1_555
Al17 Al8 2.802021 1_555
Al17 Al7 2.802021 1_555
Al17 Dy1 3.102099 1_555
Al17 Dy3 3.203576 1_565
