# generated using pymatgen
data_AlGaNi6
_symmetry_space_group_name_H-M   'P 1'
_cell_length_a   3.53180192
_cell_length_b   3.53179389
_cell_length_c   7.06082496
_cell_angle_alpha   90.00000000
_cell_angle_beta   90.00000000
_cell_angle_gamma   90.00000000
_symmetry_Int_Tables_number   1
_chemical_formula_structural   AlGaNi6
_chemical_formula_sum   'Al1 Ga1 Ni6'
_cell_volume   88.07388110
_cell_formula_units_Z   1
loop_
 _symmetry_equiv_pos_site_id
 _symmetry_equiv_pos_as_xyz
  1  'x, y, z'
loop_
 _atom_site_type_symbol
 _atom_site_label
 _atom_site_symmetry_multiplicity
 _atom_site_fract_x
 _atom_site_fract_y
 _atom_site_fract_z
 _atom_site_occupancy
  Al  Al0  1  -0.00000000  0.00000000  0.00000000  1
  Ga  Ga0  1  -0.00000000  0.00000000  0.50000000  1
  Ni  Ni0  1  0.50000000  0.50000000  0.00000000  1
  Ni  Ni1  1  0.50000000  0.50000000  0.50000000  1
  Ni  Ni2  1  0.50000000  0.00000000  0.24930236  1
  Ni  Ni3  1  0.50000000  -0.00000000  0.75069764  1
  Ni  Ni4  1  -0.00000000  0.50000000  0.24930236  1
  Ni  Ni5  1  -0.00000000  0.50000000  0.75069764  1
loop_
_geom_bond_atom_site_label_1
_geom_bond_atom_site_label_2
_geom_bond_distance
_geom_bond_site_symmetry_2
Al0 Ni5 2.493387 1_554
Al0 Ni4 2.493387 1_555
Al0 Ni4 2.493387 1_545
Al0 Ni5 2.493387 1_544
Al0 Ni3 2.493390 1_554
Al0 Ni3 2.493390 1_454
Al0 Ni2 2.493390 1_555
Al0 Ni2 2.493390 1_455
Al0 Ni0 2.497358 1_455
Al0 Ni0 2.497358 1_555
Al0 Ni0 2.497358 1_445
Al0 Ni0 2.497358 1_545
Ga0 Ni1 2.497358 1_455
Ga0 Ni1 2.497358 1_555
Ga0 Ni1 2.497358 1_545
Ga0 Ni1 2.497358 1_445
Ga0 Ni5 2.500352 1_555
Ga0 Ni5 2.500352 1_545
Ga0 Ni4 2.500352 1_545
Ga0 Ni4 2.500352 1_555
Ga0 Ni2 2.500355 1_455
Ga0 Ni2 2.500355 1_555
Ga0 Ni3 2.500355 1_555
Ga0 Ni3 2.500355 1_455
Ni0 Ni2 2.493387 1_565
Ni0 Ni3 2.493387 1_564
Ni0 Ni2 2.493387 1_555
Ni0 Ni3 2.493387 1_554
Ni0 Ni5 2.493390 1_554
Ni0 Ni5 2.493390 1_654
Ni0 Ni4 2.493390 1_655
Ni0 Ni4 2.493390 1_555
Ni1 Ni3 2.500352 1_565
Ni1 Ni2 2.500352 1_555
Ni1 Ni2 2.500352 1_565
Ni1 Ni3 2.500352 1_555
Ni1 Ni4 2.500355 1_655
Ni1 Ni4 2.500355 1_555
Ni1 Ni5 2.500355 1_655
Ni1 Ni5 2.500355 1_555
Ni2 Ni4 2.497358 1_655
Ni2 Ni4 2.497358 1_645
Ni2 Ni4 2.497358 1_545
Ni2 Ni4 2.497358 1_555
Ni3 Ni5 2.497358 1_645
Ni3 Ni5 2.497358 1_545
Ni3 Ni5 2.497358 1_655
Ni3 Ni5 2.497358 1_555
