# generated using pymatgen
data_Si
_symmetry_space_group_name_H-M   'P 1'
_cell_length_a   13.50425326
_cell_length_b   13.50425310
_cell_length_c   4.94786614
_cell_angle_alpha   90.00000000
_cell_angle_beta   90.00000000
_cell_angle_gamma   120.00000042
_symmetry_Int_Tables_number   1
_chemical_formula_structural   Si
_chemical_formula_sum   Si48
_cell_volume   781.42934194
_cell_formula_units_Z   48
loop_
 _symmetry_equiv_pos_site_id
 _symmetry_equiv_pos_as_xyz
  1  'x, y, z'
loop_
 _atom_site_type_symbol
 _atom_site_label
 _atom_site_symmetry_multiplicity
 _atom_site_fract_x
 _atom_site_fract_y
 _atom_site_fract_z
 _atom_site_occupancy
  Si  Si0_0  1  0.07669380  0.36576785  0.00000000  1
  Si  Si0_1  1  0.07669380  0.36576785  0.50000000  1
  Si  Si0_2  1  0.07669380  0.86576785  0.00000000  1
  Si  Si0_3  1  0.07669380  0.86576785  0.50000000  1
  Si  Si0_4  1  0.57669380  0.36576785  0.00000000  1
  Si  Si0_5  1  0.57669380  0.36576785  0.50000000  1
  Si  Si0_6  1  0.57669380  0.86576786  0.00000000  1
  Si  Si0_7  1  0.57669380  0.86576786  0.50000000  1
  Si  Si1_0  1  0.13423214  0.21092595  0.00000000  1
  Si  Si1_1  1  0.13423214  0.21092595  0.50000000  1
  Si  Si1_2  1  0.13423215  0.71092594  0.00000000  1
  Si  Si1_3  1  0.13423215  0.71092594  0.50000000  1
  Si  Si1_4  1  0.63423215  0.21092595  0.00000000  1
  Si  Si1_5  1  0.63423215  0.21092595  0.50000000  1
  Si  Si1_6  1  0.63423215  0.71092595  0.00000000  1
  Si  Si1_7  1  0.63423215  0.71092595  0.50000000  1
  Si  Si2_0  1  0.28907406  0.42330621  0.00000000  1
  Si  Si2_1  1  0.28907406  0.42330621  0.50000000  1
  Si  Si2_2  1  0.28907406  0.92330620  0.00000000  1
  Si  Si2_3  1  0.28907406  0.92330620  0.50000000  1
  Si  Si2_4  1  0.78907406  0.42330621  0.00000000  1
  Si  Si2_5  1  0.78907406  0.42330621  0.50000000  1
  Si  Si2_6  1  0.78907406  0.92330621  0.00000000  1
  Si  Si2_7  1  0.78907406  0.92330621  0.50000000  1
  Si  Si3_0  1  0.42330621  0.13423214  0.00000000  1
  Si  Si3_1  1  0.42330621  0.13423214  0.50000000  1
  Si  Si3_2  1  0.42330621  0.63423215  0.00000000  1
  Si  Si3_3  1  0.42330621  0.63423215  0.50000000  1
  Si  Si3_4  1  0.92330620  0.13423214  0.00000000  1
  Si  Si3_5  1  0.92330620  0.13423214  0.50000000  1
  Si  Si3_6  1  0.92330621  0.63423215  0.00000000  1
  Si  Si3_7  1  0.92330621  0.63423215  0.50000000  1
  Si  Si4_0  1  0.36576785  0.28907405  0.00000000  1
  Si  Si4_1  1  0.36576785  0.28907405  0.50000000  1
  Si  Si4_2  1  0.36576786  0.78907406  0.00000000  1
  Si  Si4_3  1  0.36576786  0.78907406  0.50000000  1
  Si  Si4_4  1  0.86576785  0.28907405  0.00000000  1
  Si  Si4_5  1  0.86576785  0.28907405  0.50000000  1
  Si  Si4_6  1  0.86576785  0.78907405  0.00000000  1
  Si  Si4_7  1  0.86576785  0.78907405  0.50000000  1
  Si  Si5_0  1  0.21092595  0.07669379  0.00000000  1
  Si  Si5_1  1  0.21092595  0.07669379  0.50000000  1
  Si  Si5_2  1  0.21092595  0.57669379  0.00000000  1
  Si  Si5_3  1  0.21092595  0.57669379  0.50000000  1
  Si  Si5_4  1  0.71092595  0.07669380  0.00000000  1
  Si  Si5_5  1  0.71092595  0.07669380  0.50000000  1
  Si  Si5_6  1  0.71092595  0.57669379  0.00000000  1
  Si  Si5_7  1  0.71092595  0.57669379  0.50000000  1
loop_
_geom_bond_atom_site_label_1
_geom_bond_atom_site_label_2
_geom_bond_distance
_geom_bond_site_symmetry_2
Si0_0 Si0_1 2.473933 1_555
Si0_0 Si0_1 2.473933 1_554
Si0_0 Si5_2 2.497191 1_555
Si0_0 Si4_4 2.497191 1_455
Si0_0 Si1_0 2.569218 1_555
Si0_0 Si2_0 2.569218 1_555
Si0_0 Si3_4 2.755061 1_455
Si0_1 Si5_3 2.497191 1_555
Si0_1 Si4_5 2.497191 1_455
Si0_1 Si1_1 2.569218 1_555
Si0_1 Si2_1 2.569218 1_555
Si0_1 Si3_5 2.755061 1_455
Si0_2 Si0_3 2.473933 1_554
Si0_2 Si0_3 2.473933 1_555
Si0_2 Si5_0 2.497191 1_565
Si0_2 Si4_6 2.497191 1_455
Si0_2 Si1_2 2.569218 1_555
Si0_2 Si2_2 2.569218 1_555
Si0_2 Si3_6 2.755061 1_455
Si0_3 Si5_1 2.497191 1_565
Si0_3 Si4_7 2.497191 1_455
Si0_3 Si1_3 2.569218 1_555
Si0_3 Si2_3 2.569218 1_555
Si0_3 Si3_7 2.755061 1_455
Si0_4 Si0_5 2.473933 1_555
Si0_4 Si0_5 2.473933 1_554
Si0_4 Si5_6 2.497191 1_555
Si0_4 Si4_0 2.497191 1_555
Si0_4 Si1_4 2.569218 1_555
Si0_4 Si2_4 2.569218 1_555
Si0_4 Si3_0 2.755061 1_555
Si0_5 Si5_7 2.497191 1_555
Si0_5 Si4_1 2.497191 1_555
Si0_5 Si1_5 2.569218 1_555
Si0_5 Si2_5 2.569218 1_555
Si0_5 Si3_1 2.755061 1_555
Si0_6 Si0_7 2.473933 1_554
Si0_6 Si0_7 2.473933 1_555
Si0_6 Si5_4 2.497191 1_565
Si0_6 Si4_2 2.497191 1_555
Si0_6 Si1_6 2.569218 1_555
Si0_6 Si2_6 2.569218 1_555
Si0_6 Si3_2 2.755061 1_555
Si0_7 Si5_5 2.497191 1_565
Si0_7 Si4_3 2.497191 1_555
Si0_7 Si1_7 2.569218 1_555
Si0_7 Si2_7 2.569218 1_555
Si0_7 Si3_3 2.755061 1_555
Si1_0 Si1_1 2.473933 1_554
Si1_0 Si1_1 2.473933 1_555
Si1_0 Si3_4 2.497191 1_455
Si1_0 Si5_0 2.497191 1_555
Si1_0 Si2_0 2.569218 1_555
Si1_0 Si4_0 2.755061 1_555
Si1_1 Si3_5 2.497191 1_455
Si1_1 Si5_1 2.497191 1_555
Si1_1 Si2_1 2.569218 1_555
Si1_1 Si4_1 2.755061 1_555
Si1_2 Si1_3 2.473933 1_554
Si1_2 Si1_3 2.473933 1_555
Si1_2 Si3_6 2.497191 1_455
Si1_2 Si5_2 2.497191 1_555
Si1_2 Si2_2 2.569218 1_555
Si1_2 Si4_2 2.755061 1_555
Si1_3 Si3_7 2.497191 1_455
Si1_3 Si5_3 2.497191 1_555
Si1_3 Si2_3 2.569218 1_555
Si1_3 Si4_3 2.755061 1_555
Si1_4 Si1_5 2.473933 1_554
Si1_4 Si1_5 2.473933 1_555
Si1_4 Si3_0 2.497191 1_555
Si1_4 Si5_4 2.497191 1_555
Si1_4 Si2_4 2.569218 1_555
Si1_4 Si4_4 2.755061 1_555
Si1_5 Si3_1 2.497191 1_555
Si1_5 Si5_5 2.497191 1_555
Si1_5 Si2_5 2.569218 1_555
Si1_5 Si4_5 2.755061 1_555
Si1_6 Si1_7 2.473933 1_555
Si1_6 Si1_7 2.473933 1_554
Si1_6 Si3_2 2.497191 1_555
Si1_6 Si5_6 2.497191 1_555
Si1_6 Si2_6 2.569218 1_555
Si1_6 Si4_6 2.755061 1_555
Si1_7 Si3_3 2.497191 1_555
Si1_7 Si5_7 2.497191 1_555
Si1_7 Si2_7 2.569218 1_555
Si1_7 Si4_7 2.755061 1_555
Si2_0 Si2_1 2.473933 1_554
Si2_0 Si2_1 2.473933 1_555
Si2_0 Si3_2 2.497191 1_555
Si2_0 Si4_0 2.497191 1_555
Si2_0 Si5_2 2.755061 1_555
Si2_1 Si3_3 2.497191 1_555
Si2_1 Si4_1 2.497191 1_555
Si2_1 Si5_3 2.755061 1_555
Si2_2 Si2_3 2.473933 1_554
Si2_2 Si2_3 2.473933 1_555
Si2_2 Si3_0 2.497191 1_565
Si2_2 Si4_2 2.497191 1_555
Si2_2 Si5_0 2.755061 1_565
Si2_3 Si3_1 2.497191 1_565
Si2_3 Si4_3 2.497191 1_555
Si2_3 Si5_1 2.755061 1_565
Si2_4 Si2_5 2.473933 1_555
Si2_4 Si2_5 2.473933 1_554
Si2_4 Si3_6 2.497191 1_555
Si2_4 Si4_4 2.497191 1_555
Si2_4 Si5_6 2.755061 1_555
Si2_5 Si3_7 2.497191 1_555
Si2_5 Si4_5 2.497191 1_555
Si2_5 Si5_7 2.755061 1_555
Si2_6 Si2_7 2.473933 1_554
Si2_6 Si2_7 2.473933 1_555
Si2_6 Si3_4 2.497191 1_565
Si2_6 Si4_6 2.497191 1_555
Si2_6 Si5_4 2.755061 1_565
Si2_7 Si3_5 2.497191 1_565
Si2_7 Si4_7 2.497191 1_555
Si2_7 Si5_5 2.755061 1_565
Si3_0 Si3_1 2.473933 1_554
Si3_0 Si3_1 2.473933 1_555
Si3_0 Si4_0 2.569218 1_555
Si3_0 Si5_0 2.569218 1_555
Si3_1 Si4_1 2.569218 1_555
Si3_1 Si5_1 2.569218 1_555
Si3_2 Si3_3 2.473933 1_555
Si3_2 Si3_3 2.473933 1_554
Si3_2 Si4_2 2.569218 1_555
Si3_2 Si5_2 2.569218 1_555
Si3_3 Si4_3 2.569218 1_555
Si3_3 Si5_3 2.569218 1_555
Si3_4 Si3_5 2.473933 1_554
Si3_4 Si3_5 2.473933 1_555
Si3_4 Si4_4 2.569218 1_555
Si3_4 Si5_4 2.569218 1_555
Si3_5 Si4_5 2.569218 1_555
Si3_5 Si5_5 2.569218 1_555
Si3_6 Si3_7 2.473933 1_554
Si3_6 Si3_7 2.473933 1_555
Si3_6 Si4_6 2.569218 1_555
Si3_6 Si5_6 2.569218 1_555
Si3_7 Si4_7 2.569218 1_555
Si3_7 Si5_7 2.569218 1_555
Si4_0 Si4_1 2.473933 1_555
Si4_0 Si4_1 2.473933 1_554
Si4_0 Si5_0 2.569218 1_555
Si4_1 Si5_1 2.569218 1_555
Si4_2 Si4_3 2.473933 1_554
Si4_2 Si4_3 2.473933 1_555
Si4_2 Si5_2 2.569218 1_555
Si4_3 Si5_3 2.569218 1_555
Si4_4 Si4_5 2.473933 1_555
Si4_4 Si4_5 2.473933 1_554
Si4_4 Si5_4 2.569218 1_555
Si4_5 Si5_5 2.569218 1_555
Si4_6 Si4_7 2.473933 1_554
Si4_6 Si4_7 2.473933 1_555
Si4_6 Si5_6 2.569218 1_555
Si4_7 Si5_7 2.569218 1_555
Si5_0 Si5_1 2.473933 1_555
Si5_0 Si5_1 2.473933 1_554
Si5_2 Si5_3 2.473933 1_555
Si5_2 Si5_3 2.473933 1_554
Si5_4 Si5_5 2.473933 1_554
Si5_4 Si5_5 2.473933 1_555
Si5_6 Si5_7 2.473933 1_554
Si5_6 Si5_7 2.473933 1_555
