# generated using pymatgen
data_NdIn3Pt
_symmetry_space_group_name_H-M   'P 1'
_cell_length_a   9.86733900
_cell_length_b   9.86733900
_cell_length_c   9.86733900
_cell_angle_alpha   90.00000000
_cell_angle_beta   90.00000000
_cell_angle_gamma   90.00000000
_symmetry_Int_Tables_number   1
_chemical_formula_structural   NdIn3Pt
_chemical_formula_sum   'Nd8 In24 Pt8'
_cell_volume   960.72733353
_cell_formula_units_Z   8
loop_
 _symmetry_equiv_pos_site_id
 _symmetry_equiv_pos_as_xyz
  1  'x, y, z'
loop_
 _atom_site_type_symbol
 _atom_site_label
 _atom_site_symmetry_multiplicity
 _atom_site_fract_x
 _atom_site_fract_y
 _atom_site_fract_z
 _atom_site_occupancy
  Nd  Nd0  1  0.00000000  0.00000000  0.00000000  1
  Nd  Nd1  1  0.50000000  0.50000000  0.50000000  1
  Nd  Nd2  1  0.25000000  0.00000000  0.50000000  1
  Nd  Nd3  1  0.75000000  0.00000000  0.50000000  1
  Nd  Nd4  1  0.50000000  0.25000000  0.00000000  1
  Nd  Nd5  1  0.50000000  0.75000000  0.00000000  1
  Nd  Nd6  1  0.00000000  0.50000000  0.25000000  1
  Nd  Nd7  1  0.00000000  0.50000000  0.75000000  1
  In  In0  1  0.00000000  0.15344200  0.31615700  1
  In  In1  1  0.00000000  0.84655800  0.68384300  1
  In  In2  1  0.00000000  0.84655800  0.31615700  1
  In  In3  1  0.00000000  0.15344200  0.68384300  1
  In  In4  1  0.31615700  0.00000000  0.15344200  1
  In  In5  1  0.65344200  0.50000000  0.18384300  1
  In  In6  1  0.68384300  0.00000000  0.84655800  1
  In  In7  1  0.34655800  0.50000000  0.81615700  1
  In  In8  1  0.31615700  0.00000000  0.84655800  1
  In  In9  1  0.34655800  0.50000000  0.18384300  1
  In  In10  1  0.68384300  0.00000000  0.15344200  1
  In  In11  1  0.65344200  0.50000000  0.81615700  1
  In  In12  1  0.15344200  0.31615700  0.00000000  1
  In  In13  1  0.50000000  0.81615700  0.34655800  1
  In  In14  1  0.84655800  0.68384300  0.00000000  1
  In  In15  1  0.50000000  0.18384300  0.65344200  1
  In  In16  1  0.15344200  0.68384300  0.00000000  1
  In  In17  1  0.50000000  0.18384300  0.34655800  1
  In  In18  1  0.84655800  0.31615700  0.00000000  1
  In  In19  1  0.50000000  0.81615700  0.65344200  1
  In  In20  1  0.18384300  0.65344200  0.50000000  1
  In  In21  1  0.81615700  0.34655800  0.50000000  1
  In  In22  1  0.18384300  0.34655800  0.50000000  1
  In  In23  1  0.81615700  0.65344200  0.50000000  1
  Pt  Pt0  1  0.25000000  0.25000000  0.25000000  1
  Pt  Pt1  1  0.75000000  0.75000000  0.75000000  1
  Pt  Pt2  1  0.75000000  0.75000000  0.25000000  1
  Pt  Pt3  1  0.75000000  0.25000000  0.75000000  1
  Pt  Pt4  1  0.25000000  0.25000000  0.75000000  1
  Pt  Pt5  1  0.25000000  0.75000000  0.25000000  1
  Pt  Pt6  1  0.25000000  0.75000000  0.75000000  1
  Pt  Pt7  1  0.75000000  0.25000000  0.25000000  1
loop_
_geom_bond_atom_site_label_1
_geom_bond_atom_site_label_2
_geom_bond_distance
_geom_bond_site_symmetry_2
Nd2 Pt0 3.488631 1_555
Nd2 Pt4 3.488631 1_555
Nd2 Pt5 3.488631 1_545
Nd2 Pt6 3.488631 1_545
Nd3 Pt2 3.488631 1_545
Nd3 Pt7 3.488631 1_555
Nd3 Pt1 3.488631 1_545
Nd3 Pt3 3.488631 1_555
Nd4 Pt3 3.488631 1_554
Nd4 Pt0 3.488631 1_555
Nd4 Pt7 3.488631 1_555
Nd4 Pt4 3.488631 1_554
Nd5 Pt5 3.488631 1_555
Nd5 Pt1 3.488631 1_554
Nd5 Pt2 3.488631 1_555
Nd5 Pt6 3.488631 1_554
Nd6 Pt0 3.488631 1_555
Nd6 Pt7 3.488631 1_455
Nd6 Pt5 3.488631 1_555
Nd6 Pt2 3.488631 1_455
Nd7 Pt1 3.488631 1_455
Nd7 Pt4 3.488631 1_555
Nd7 Pt3 3.488631 1_455
Nd7 Pt6 3.488631 1_555
In0 Pt7 2.723818 1_455
In0 Pt0 2.723818 1_555
In0 Nd3 3.415905 1_455
In0 Nd2 3.415905 1_555
In0 Nd0 3.467632 1_555
In0 Nd6 3.481356 1_555
In1 Pt6 2.723818 1_555
In1 Pt1 2.723818 1_455
In1 Nd2 3.415905 1_565
In1 Nd3 3.415905 1_465
In1 Nd0 3.467632 1_566
In1 Nd7 3.481356 1_555
In2 Pt2 2.723818 1_455
In2 Pt5 2.723818 1_555
In2 Nd2 3.415905 1_565
In2 Nd3 3.415905 1_465
In2 Nd0 3.467632 1_565
In2 Nd6 3.481356 1_555
In3 Pt4 2.723818 1_555
In3 Pt3 2.723818 1_455
In3 Nd3 3.415905 1_455
In3 Nd2 3.415905 1_555
In3 Nd0 3.467632 1_556
In3 Nd7 3.481356 1_555
In4 Pt5 2.723818 1_545
In4 Pt0 2.723818 1_555
In4 Nd4 3.415905 1_555
In4 Nd5 3.415905 1_545
In4 Nd0 3.467632 1_555
In4 Nd2 3.481356 1_555
In5 Pt2 2.723818 1_555
In5 Pt7 2.723818 1_555
In5 Nd4 3.415905 1_555
In5 Nd5 3.415905 1_555
In5 Nd1 3.467632 1_555
In5 Nd6 3.481356 1_655
In6 Pt3 2.723818 1_555
In6 Pt1 2.723818 1_545
In6 Nd5 3.415905 1_546
In6 Nd4 3.415905 1_556
In6 Nd0 3.467632 1_656
In6 Nd3 3.481356 1_555
In7 Pt6 2.723818 1_555
In7 Pt4 2.723818 1_555
In7 Nd4 3.415905 1_556
In7 Nd5 3.415905 1_556
In7 Nd1 3.467632 1_555
In7 Nd7 3.481356 1_555
In8 Pt6 2.723818 1_545
In8 Pt4 2.723818 1_555
In8 Nd5 3.415905 1_546
In8 Nd4 3.415905 1_556
In8 Nd0 3.467632 1_556
In8 Nd2 3.481356 1_555
In9 Pt0 2.723818 1_555
In9 Pt5 2.723818 1_555
In9 Nd4 3.415905 1_555
In9 Nd5 3.415905 1_555
In9 Nd1 3.467632 1_555
In9 Nd6 3.481356 1_555
In10 Pt2 2.723818 1_545
In10 Pt7 2.723818 1_555
In10 Nd4 3.415905 1_555
In10 Nd5 3.415905 1_545
In10 Nd0 3.467632 1_655
In10 Nd3 3.481356 1_555
In11 Pt1 2.723818 1_555
In11 Pt3 2.723818 1_555
In11 Nd4 3.415905 1_556
In11 Nd5 3.415905 1_556
In11 Nd1 3.467632 1_555
In11 Nd7 3.481356 1_655
In12 Pt0 2.723818 1_555
In12 Pt4 2.723818 1_554
In12 Nd6 3.415905 1_555
In12 Nd7 3.415905 1_554
In12 Nd0 3.467632 1_555
In12 Nd4 3.481356 1_555
In13 Pt2 2.723818 1_555
In13 Pt5 2.723818 1_555
In13 Nd2 3.415905 1_565
In13 Nd3 3.415905 1_565
In13 Nd1 3.467632 1_555
In13 Nd5 3.481356 1_555
In14 Pt2 2.723818 1_555
In14 Pt1 2.723818 1_554
In14 Nd6 3.415905 1_655
In14 Nd7 3.415905 1_654
In14 Nd0 3.467632 1_665
In14 Nd5 3.481356 1_555
In15 Pt3 2.723818 1_555
In15 Pt4 2.723818 1_555
In15 Nd3 3.415905 1_555
In15 Nd2 3.415905 1_555
In15 Nd1 3.467632 1_555
In15 Nd4 3.481356 1_556
In16 Pt6 2.723818 1_554
In16 Pt5 2.723818 1_555
In16 Nd6 3.415905 1_555
In16 Nd7 3.415905 1_554
In16 Nd0 3.467632 1_565
In16 Nd5 3.481356 1_555
In17 Pt0 2.723818 1_555
In17 Pt7 2.723818 1_555
In17 Nd2 3.415905 1_555
In17 Nd3 3.415905 1_555
In17 Nd1 3.467632 1_555
In17 Nd4 3.481356 1_555
In18 Pt3 2.723818 1_554
In18 Pt7 2.723818 1_555
In18 Nd6 3.415905 1_655
In18 Nd7 3.415905 1_654
In18 Nd0 3.467632 1_655
In18 Nd4 3.481356 1_555
In19 Pt6 2.723818 1_555
In19 Pt1 2.723818 1_555
In19 Nd2 3.415905 1_565
In19 Nd3 3.415905 1_565
In19 Nd1 3.467632 1_555
In19 Nd5 3.481356 1_556
In20 Pt6 2.723818 1_555
In20 Pt5 2.723818 1_555
In20 Nd6 3.415905 1_555
In20 Nd7 3.415905 1_555
In20 Nd1 3.467632 1_555
In20 Nd2 3.481356 1_565
In21 Pt3 2.723818 1_555
In21 Pt7 2.723818 1_555
In21 Nd6 3.415905 1_655
In21 Nd7 3.415905 1_655
In21 Nd1 3.467632 1_555
In21 Nd3 3.481356 1_555
In22 Pt0 2.723818 1_555
In22 Pt4 2.723818 1_555
In22 Nd7 3.415905 1_555
In22 Nd6 3.415905 1_555
In22 Nd1 3.467632 1_555
In22 Nd2 3.481356 1_555
In23 Pt2 2.723818 1_555
In23 Pt1 2.723818 1_555
In23 Nd6 3.415905 1_655
In23 Nd7 3.415905 1_655
In23 Nd1 3.467632 1_555
In23 Nd3 3.481356 1_565
