# generated using pymatgen
data_CaMn(SiO3)2
_symmetry_space_group_name_H-M   'P 1'
_cell_length_a   5.36339181
_cell_length_b   10.05725202
_cell_length_c   9.26504263
_cell_angle_alpha   90.00000163
_cell_angle_beta   89.99999640
_cell_angle_gamma   105.26072401
_symmetry_Int_Tables_number   1
_chemical_formula_structural   CaMn(SiO3)2
_chemical_formula_sum   'Ca4 Mn4 Si8 O24'
_cell_volume   482.14281461
_cell_formula_units_Z   4
loop_
 _symmetry_equiv_pos_site_id
 _symmetry_equiv_pos_as_xyz
  1  'x, y, z'
loop_
 _atom_site_type_symbol
 _atom_site_label
 _atom_site_symmetry_multiplicity
 _atom_site_fract_x
 _atom_site_fract_y
 _atom_site_fract_z
 _atom_site_occupancy
  Ca  Ca0  1  0.25000000  0.50000000  0.20093300  1
  Ca  Ca1  1  0.75000000  0.00000000  0.70093300  1
  Ca  Ca2  1  0.75000000  0.50000000  0.79906700  1
  Ca  Ca3  1  0.25000000  0.00000000  0.29906700  1
  Mn  Mn0  1  0.75000000  0.00000000  0.09565000  1
  Mn  Mn1  1  0.75000000  0.50000000  0.40435000  1
  Mn  Mn2  1  0.25000000  0.50000000  0.59565000  1
  Mn  Mn3  1  0.25000000  0.00000000  0.90435000  1
  Si  Si0  1  0.54722300  0.28756600  0.09134400  1
  Si  Si1  1  0.04722300  0.78756600  0.59134400  1
  Si  Si2  1  0.04722300  0.28756600  0.90865600  1
  Si  Si3  1  0.54722300  0.78756600  0.40865600  1
  Si  Si4  1  0.45277700  0.71243400  0.90865600  1
  Si  Si5  1  0.95277700  0.21243400  0.40865600  1
  Si  Si6  1  0.95277700  0.71243400  0.09134400  1
  Si  Si7  1  0.45277700  0.21243400  0.59134400  1
  O  O0  1  0.53436100  0.87962600  0.90719200  1
  O  O1  1  0.03436100  0.37962600  0.40719200  1
  O  O2  1  0.03436100  0.87962600  0.09280800  1
  O  O3  1  0.53436100  0.37962600  0.59280800  1
  O  O4  1  0.96563900  0.12037400  0.90719200  1
  O  O5  1  0.46563900  0.62037400  0.40719200  1
  O  O6  1  0.46563900  0.12037400  0.09280800  1
  O  O7  1  0.96563900  0.62037400  0.59280800  1
  O  O8  1  0.96519400  0.63551400  0.24187300  1
  O  O9  1  0.46519400  0.13551400  0.74187300  1
  O  O10  1  0.53480600  0.36448600  0.24187300  1
  O  O11  1  0.03480600  0.86448600  0.74187300  1
  O  O12  1  0.03480600  0.36448600  0.75812700  1
  O  O13  1  0.53480600  0.86448600  0.25812700  1
  O  O14  1  0.46519400  0.63551400  0.75812700  1
  O  O15  1  0.96519400  0.13551400  0.25812700  1
  O  O16  1  0.84305100  0.34763900  0.01668700  1
  O  O17  1  0.34305100  0.84763900  0.51668700  1
  O  O18  1  0.34305100  0.34763900  0.98331300  1
  O  O19  1  0.84305100  0.84763900  0.48331300  1
  O  O20  1  0.65694900  0.65236100  0.01668700  1
  O  O21  1  0.15694900  0.15236100  0.51668700  1
  O  O22  1  0.15694900  0.65236100  0.98331300  1
  O  O23  1  0.65694900  0.15236100  0.48331300  1
loop_
_geom_bond_atom_site_label_1
_geom_bond_atom_site_label_2
_geom_bond_distance
_geom_bond_site_symmetry_2
Ca0 O8 2.330375 1_455
Ca0 O10 2.330375 1_555
Ca0 O1 2.391252 1_555
Ca0 O5 2.391252 1_555
Ca0 O18 2.658005 1_554
Ca0 O22 2.658005 1_554
Ca0 O20 2.874941 1_555
Ca0 O16 2.874941 1_455
Ca1 O9 2.330375 1_555
Ca1 O11 2.330375 1_645
Ca1 O0 2.391252 1_545
Ca1 O4 2.391252 1_555
Ca1 O19 2.658005 1_545
Ca1 O23 2.658005 1_555
Ca1 O21 2.874941 1_655
Ca1 O17 2.874941 1_545
Ca2 O12 2.330375 1_655
Ca2 O14 2.330375 1_555
Ca2 O7 2.391252 1_555
Ca2 O3 2.391252 1_555
Ca2 O20 2.658005 1_556
Ca2 O16 2.658005 1_556
Ca2 O18 2.874941 1_555
Ca2 O22 2.874941 1_655
Ca3 O13 2.330375 1_545
Ca3 O15 2.330375 1_455
Ca3 O6 2.391252 1_555
Ca3 O2 2.391252 1_545
Ca3 O21 2.658005 1_555
Ca3 O17 2.658005 1_545
Ca3 O19 2.874941 1_445
Ca3 O23 2.874941 1_555
Mn0 O13 2.151191 1_545
Mn0 O15 2.151192 1_555
Mn0 O2 2.182740 1_645
Mn0 O6 2.182740 1_555
Mn0 O4 2.261623 1_554
Mn0 O0 2.261623 1_544
Mn1 O8 2.151191 1_555
Mn1 O10 2.151192 1_555
Mn1 O5 2.182740 1_555
Mn1 O1 2.182740 1_655
Mn1 O3 2.261623 1_555
Mn1 O7 2.261623 1_555
Mn2 O12 2.151191 1_555
Mn2 O14 2.151192 1_555
Mn2 O3 2.182740 1_555
Mn2 O7 2.182740 1_455
Mn2 O5 2.261623 1_555
Mn2 O1 2.261623 1_555
Mn3 O9 2.151191 1_555
Mn3 O11 2.151192 1_545
Mn3 O4 2.182740 1_455
Mn3 O0 2.182740 1_545
Mn3 O2 2.261623 1_546
Mn3 O6 2.261623 1_556
O0 Si4 1.622264 1_555
O1 Si5 1.622264 1_455
O2 Si6 1.622264 1_455
O3 Si7 1.622264 1_555
O4 Si2 1.622264 1_655
O5 Si3 1.622264 1_555
O6 Si0 1.622264 1_555
O7 Si1 1.622264 1_655
O8 Si6 1.604708 1_555
O9 Si7 1.604708 1_555
O10 Si0 1.604708 1_555
O11 Si1 1.604708 1_555
O12 Si2 1.604708 1_555
O13 Si3 1.604708 1_555
O14 Si4 1.604708 1_555
O15 Si5 1.604708 1_555
O16 Si0 1.690051 1_555
O16 Si2 1.707123 1_654
O17 Si1 1.690051 1_555
O17 Si3 1.707123 1_555
O18 Si2 1.690051 1_555
O18 Si0 1.707123 1_556
O19 Si3 1.690051 1_555
O19 Si1 1.707123 1_655
O20 Si6 1.690051 1_555
O20 Si4 1.707123 1_554
O21 Si7 1.690051 1_555
O21 Si5 1.707123 1_455
O22 Si4 1.690051 1_555
O22 Si6 1.707123 1_456
O23 Si5 1.690051 1_555
O23 Si7 1.707123 1_555
