# generated using pymatgen
data_Li3TiMn2O6
_symmetry_space_group_name_H-M   'P 1'
_cell_length_a   5.87780062
_cell_length_b   5.94753035
_cell_length_c   7.12494486
_cell_angle_alpha   101.22180412
_cell_angle_beta   102.10913073
_cell_angle_gamma   90.32365223
_symmetry_Int_Tables_number   1
_chemical_formula_structural   Li3TiMn2O6
_chemical_formula_sum   'Li6 Ti2 Mn4 O12'
_cell_volume   238.59794496
_cell_formula_units_Z   2
loop_
 _symmetry_equiv_pos_site_id
 _symmetry_equiv_pos_as_xyz
  1  'x, y, z'
loop_
 _atom_site_type_symbol
 _atom_site_label
 _atom_site_symmetry_multiplicity
 _atom_site_fract_x
 _atom_site_fract_y
 _atom_site_fract_z
 _atom_site_occupancy
  Li  Li0  1  0.83103100  0.82876100  0.32416600  1
  Li  Li1  1  0.33084200  0.82865500  0.32417100  1
  Li  Li2  1  0.00196300  0.51841600  0.01429100  1
  Li  Li3  1  0.50235400  0.51821700  0.01451600  1
  Li  Li4  1  0.16094000  0.15941300  0.64506400  1
  Li  Li5  1  0.66048400  0.15987000  0.64451800  1
  Ti  Ti0  1  0.83044400  0.33405700  0.31723300  1
  Ti  Ti1  1  0.33031600  0.33393100  0.31717200  1
  Mn  Mn0  1  0.99507100  0.98547500  0.99184400  1
  Mn  Mn1  1  0.17087200  0.66476200  0.67289100  1
  Mn  Mn2  1  0.49534400  0.98544700  0.99249400  1
  Mn  Mn3  1  0.67094000  0.66488800  0.67282100  1
  O  O0  1  0.76053500  0.26301000  0.04680300  1
  O  O1  1  0.26028900  0.26283600  0.04666500  1
  O  O2  1  0.91519200  0.43257400  0.64409300  1
  O  O3  1  0.41537500  0.43233100  0.64399800  1
  O  O4  1  0.91640200  0.89157000  0.66410500  1
  O  O5  1  0.41658300  0.89143200  0.66451000  1
  O  O6  1  0.24681900  0.74237000  0.99670000  1
  O  O7  1  0.74707300  0.74259200  0.99710800  1
  O  O8  1  0.08470800  0.56353900  0.33514400  1
  O  O9  1  0.58461700  0.56346600  0.33507800  1
  O  O10  1  0.08593900  0.11623600  0.34739300  1
  O  O11  1  0.58587100  0.11614900  0.34722900  1
loop_
_geom_bond_atom_site_label_1
_geom_bond_atom_site_label_2
_geom_bond_distance
_geom_bond_site_symmetry_2
Li0 O9 2.159308 1_555
Li0 O8 2.177910 1_655
Li0 O10 2.225418 1_665
Li0 O7 2.232980 1_554
Li0 O11 2.245634 1_565
Li0 O4 2.322386 1_555
Li1 O8 2.157556 1_555
Li1 O9 2.178141 1_555
Li1 O11 2.226229 1_565
Li1 O6 2.235800 1_554
Li1 O10 2.245565 1_565
Li1 O5 2.325141 1_555
Li2 O6 1.995044 1_554
Li2 O7 2.011563 1_454
Li2 O0 2.150673 1_455
Li2 O1 2.164469 1_555
Li2 O8 2.197249 1_555
Li2 O2 2.527143 1_454
Li3 O7 1.995701 1_554
Li3 O6 2.014416 1_554
Li3 O1 2.152116 1_555
Li3 O0 2.162214 1_555
Li3 O9 2.195171 1_555
Li3 O3 2.529314 1_554
Li4 O10 2.037874 1_555
Li4 O2 2.180054 1_455
Li4 O4 2.182221 1_445
Li4 O5 2.200681 1_545
Li4 O3 2.203069 1_555
Li5 O11 2.034990 1_555
Li5 O3 2.174404 1_555
Li5 O5 2.184670 1_545
Li5 O2 2.201903 1_555
Li5 O4 2.203236 1_545
Mn0 O7 2.057478 1_555
Mn0 O6 2.074487 1_655
Mn0 O1 2.183725 1_666
Mn0 O0 2.186093 1_566
Mn0 O4 2.239420 1_555
Mn0 O10 2.443025 1_666
Mn1 O2 1.986083 1_455
Mn1 O5 1.988054 1_555
Mn1 O3 2.013593 1_555
Mn1 O4 2.019194 1_455
Mn1 O6 2.210483 1_555
Mn1 O8 2.308938 1_555
Mn2 O6 2.058208 1_555
Mn2 O7 2.073357 1_555
Mn2 O0 2.184912 1_566
Mn2 O1 2.186600 1_566
Mn2 O5 2.241102 1_555
Mn2 O11 2.437598 1_566
Mn3 O3 1.987028 1_555
Mn3 O4 1.987788 1_555
Mn3 O2 2.011898 1_555
Mn3 O5 2.017623 1_555
Mn3 O7 2.213737 1_555
Mn3 O9 2.308978 1_555
O0 Ti0 1.846328 1_555
O1 Ti1 1.846859 1_555
O2 Ti0 2.234709 1_555
O3 Ti1 2.234446 1_555
O8 Ti0 1.985402 1_455
O8 Ti1 1.999278 1_555
O9 Ti1 1.985781 1_555
O9 Ti0 1.999357 1_555
O10 Ti0 1.993660 1_455
O10 Ti1 2.000809 1_555
O11 Ti1 1.993706 1_555
O11 Ti0 2.001884 1_555
