# generated using pymatgen
data_Mg30SiCO32
_symmetry_space_group_name_H-M   'P 1'
_cell_length_a   8.54006900
_cell_length_b   8.54006900
_cell_length_c   8.53846400
_cell_angle_alpha   90.00000000
_cell_angle_beta   90.00000000
_cell_angle_gamma   90.00000000
_symmetry_Int_Tables_number   1
_chemical_formula_structural   Mg30SiCO32
_chemical_formula_sum   'Mg30 Si1 C1 O32'
_cell_volume   622.73390385
_cell_formula_units_Z   1
loop_
 _symmetry_equiv_pos_site_id
 _symmetry_equiv_pos_as_xyz
  1  'x, y, z'
loop_
 _atom_site_type_symbol
 _atom_site_label
 _atom_site_symmetry_multiplicity
 _atom_site_fract_x
 _atom_site_fract_y
 _atom_site_fract_z
 _atom_site_occupancy
  Mg  Mg0  1  0.50000000  0.00000000  0.00000000  1
  Mg  Mg1  1  0.00000000  0.50000000  0.00000000  1
  Mg  Mg2  1  0.00000000  0.00000000  0.50000000  1
  Mg  Mg3  1  0.50000000  0.00000000  0.50000000  1
  Mg  Mg4  1  0.00000000  0.50000000  0.50000000  1
  Mg  Mg5  1  0.50000000  0.50000000  0.50000000  1
  Mg  Mg6  1  0.25347800  0.25347800  0.00000000  1
  Mg  Mg7  1  0.74652200  0.25347800  0.00000000  1
  Mg  Mg8  1  0.25347800  0.74652200  0.00000000  1
  Mg  Mg9  1  0.74652200  0.74652200  0.00000000  1
  Mg  Mg10  1  0.25055200  0.25055200  0.50000000  1
  Mg  Mg11  1  0.74944800  0.25055200  0.50000000  1
  Mg  Mg12  1  0.25055200  0.74944800  0.50000000  1
  Mg  Mg13  1  0.74944800  0.74944800  0.50000000  1
  Mg  Mg14  1  0.25178000  0.00000000  0.25106500  1
  Mg  Mg15  1  0.74822000  0.00000000  0.25106500  1
  Mg  Mg16  1  0.25187000  0.50000000  0.24823800  1
  Mg  Mg17  1  0.74813000  0.50000000  0.24823800  1
  Mg  Mg18  1  0.25178000  0.00000000  0.74893500  1
  Mg  Mg19  1  0.74822000  0.00000000  0.74893500  1
  Mg  Mg20  1  0.25187000  0.50000000  0.75176200  1
  Mg  Mg21  1  0.74813000  0.50000000  0.75176200  1
  Mg  Mg22  1  0.00000000  0.25178000  0.25106500  1
  Mg  Mg23  1  0.50000000  0.25187000  0.24823800  1
  Mg  Mg24  1  0.00000000  0.74822000  0.25106500  1
  Mg  Mg25  1  0.50000000  0.74813000  0.24823800  1
  Mg  Mg26  1  0.00000000  0.25178000  0.74893500  1
  Mg  Mg27  1  0.50000000  0.25187000  0.75176200  1
  Mg  Mg28  1  0.00000000  0.74822000  0.74893500  1
  Mg  Mg29  1  0.50000000  0.74813000  0.75176200  1
  Si  Si0  1  0.00000000  0.00000000  0.00000000  1
  C  C0  1  0.50000000  0.50000000  0.00000000  1
  O  O0  1  0.00000000  0.00000000  0.25918200  1
  O  O1  1  0.50000000  0.00000000  0.25115200  1
  O  O2  1  0.00000000  0.50000000  0.25115200  1
  O  O3  1  0.50000000  0.50000000  0.25164700  1
  O  O4  1  0.00000000  0.00000000  0.74081800  1
  O  O5  1  0.50000000  0.00000000  0.74884800  1
  O  O6  1  0.00000000  0.50000000  0.74884800  1
  O  O7  1  0.50000000  0.50000000  0.74835300  1
  O  O8  1  0.25013300  0.25013300  0.24904600  1
  O  O9  1  0.74986700  0.25013300  0.24904600  1
  O  O10  1  0.25013300  0.74986700  0.24904600  1
  O  O11  1  0.74986700  0.74986700  0.24904600  1
  O  O12  1  0.25013300  0.25013300  0.75095400  1
  O  O13  1  0.74986700  0.25013300  0.75095400  1
  O  O14  1  0.25013300  0.74986700  0.75095400  1
  O  O15  1  0.74986700  0.74986700  0.75095400  1
  O  O16  1  0.25912100  0.00000000  0.00000000  1
  O  O17  1  0.74087900  0.00000000  0.00000000  1
  O  O18  1  0.24827100  0.50000000  0.00000000  1
  O  O19  1  0.75172900  0.50000000  0.00000000  1
  O  O20  1  0.25125400  0.00000000  0.50000000  1
  O  O21  1  0.74874600  0.00000000  0.50000000  1
  O  O22  1  0.25096400  0.50000000  0.50000000  1
  O  O23  1  0.74903600  0.50000000  0.50000000  1
  O  O24  1  0.00000000  0.25912100  0.00000000  1
  O  O25  1  0.50000000  0.24827100  0.00000000  1
  O  O26  1  0.00000000  0.74087900  0.00000000  1
  O  O27  1  0.50000000  0.75172900  0.00000000  1
  O  O28  1  0.00000000  0.25125400  0.50000000  1
  O  O29  1  0.50000000  0.25096400  0.50000000  1
  O  O30  1  0.00000000  0.74874600  0.50000000  1
  O  O31  1  0.50000000  0.74903600  0.50000000  1
loop_
_geom_bond_atom_site_label_1
_geom_bond_atom_site_label_2
_geom_bond_distance
_geom_bond_site_symmetry_2
Mg0 O17 2.057123 1_555
Mg0 O16 2.057123 1_555
Mg0 O25 2.120251 1_555
Mg0 O27 2.120251 1_545
Mg0 O1 2.144452 1_555
Mg0 O5 2.144452 1_554
Mg1 O26 2.057123 1_555
Mg1 O24 2.057123 1_555
Mg1 O19 2.120251 1_455
Mg1 O18 2.120251 1_555
Mg1 O2 2.144452 1_555
Mg1 O6 2.144452 1_554
Mg2 O4 2.056216 1_555
Mg2 O0 2.056216 1_555
Mg2 O28 2.145726 1_555
Mg2 O30 2.145726 1_545
Mg2 O21 2.145726 1_455
Mg2 O20 2.145726 1_555
Mg3 O21 2.124308 1_555
Mg3 O20 2.124308 1_555
Mg3 O5 2.124780 1_555
Mg3 O1 2.124780 1_555
Mg3 O31 2.143250 1_545
Mg3 O29 2.143250 1_555
Mg4 O28 2.124308 1_555
Mg4 O30 2.124308 1_555
Mg4 O6 2.124780 1_555
Mg4 O2 2.124780 1_555
Mg4 O23 2.143250 1_455
Mg4 O22 2.143250 1_555
Mg5 O3 2.120553 1_555
Mg5 O7 2.120553 1_555
Mg5 O29 2.126785 1_555
Mg5 O22 2.126785 1_555
Mg5 O31 2.126785 1_555
Mg5 O23 2.126785 1_555
Mg6 O25 2.105784 1_555
Mg6 O18 2.105784 1_555
Mg6 O12 2.126854 1_554
Mg6 O8 2.126854 1_555
Mg6 O24 2.165256 1_555
Mg6 O16 2.165256 1_555
Mg7 O25 2.105784 1_555
Mg7 O19 2.105784 1_555
Mg7 O9 2.126854 1_555
Mg7 O13 2.126854 1_554
Mg7 O24 2.165256 1_655
Mg7 O17 2.165256 1_555
Mg8 O27 2.105784 1_555
Mg8 O18 2.105784 1_555
Mg8 O10 2.126854 1_555
Mg8 O14 2.126854 1_554
Mg8 O26 2.165256 1_555
Mg8 O16 2.165256 1_565
Mg9 O27 2.105784 1_555
Mg9 O19 2.105784 1_555
Mg9 O15 2.126854 1_554
Mg9 O11 2.126854 1_555
Mg9 O17 2.165256 1_565
Mg9 O26 2.165256 1_655
Mg10 O22 2.130306 1_555
Mg10 O29 2.130306 1_555
Mg10 O20 2.139740 1_555
Mg10 O28 2.139740 1_555
Mg10 O12 2.142768 1_555
Mg10 O8 2.142768 1_555
Mg11 O23 2.130306 1_555
Mg11 O29 2.130306 1_555
Mg11 O28 2.139740 1_655
Mg11 O21 2.139740 1_555
Mg11 O9 2.142768 1_555
Mg11 O13 2.142768 1_555
Mg12 O31 2.130306 1_555
Mg12 O22 2.130306 1_555
Mg12 O30 2.139740 1_555
Mg12 O20 2.139740 1_565
Mg12 O10 2.142768 1_555
Mg12 O14 2.142768 1_555
Mg13 O31 2.130306 1_555
Mg13 O23 2.130306 1_555
Mg13 O21 2.139740 1_565
Mg13 O30 2.139740 1_655
Mg13 O15 2.142768 1_555
Mg13 O11 2.142768 1_555
Mg14 O1 2.119816 1_555
Mg14 O20 2.125527 1_555
Mg14 O8 2.136269 1_555
Mg14 O10 2.136269 1_545
Mg14 O16 2.144626 1_555
Mg14 O0 2.151335 1_555
Mg15 O1 2.119816 1_555
Mg15 O21 2.125527 1_555
Mg15 O9 2.136269 1_555
Mg15 O11 2.136269 1_545
Mg15 O17 2.144626 1_555
Mg15 O0 2.151335 1_655
Mg16 O3 2.119247 1_555
Mg16 O18 2.119794 1_555
Mg16 O10 2.133944 1_555
Mg16 O8 2.133944 1_555
Mg16 O22 2.149675 1_555
Mg16 O2 2.151131 1_555
Mg17 O3 2.119247 1_555
Mg17 O19 2.119794 1_555
Mg17 O11 2.133944 1_555
Mg17 O9 2.133944 1_555
Mg17 O23 2.149675 1_555
Mg17 O2 2.151131 1_655
Mg18 O5 2.119816 1_555
Mg18 O20 2.125527 1_555
Mg18 O12 2.136269 1_555
Mg18 O14 2.136269 1_545
Mg18 O16 2.144626 1_556
Mg18 O4 2.151335 1_555
Mg19 O5 2.119816 1_555
Mg19 O21 2.125527 1_555
Mg19 O13 2.136269 1_555
Mg19 O15 2.136269 1_545
Mg19 O17 2.144626 1_556
Mg19 O4 2.151335 1_655
Mg20 O7 2.119247 1_555
Mg20 O18 2.119794 1_556
Mg20 O14 2.133944 1_555
Mg20 O12 2.133944 1_555
Mg20 O22 2.149675 1_555
Mg20 O6 2.151131 1_555
Mg21 O7 2.119247 1_555
Mg21 O19 2.119794 1_556
Mg21 O15 2.133944 1_555
Mg21 O13 2.133944 1_555
Mg21 O23 2.149675 1_555
Mg21 O6 2.151131 1_655
Mg22 O2 2.119816 1_555
Mg22 O28 2.125527 1_555
Mg22 O8 2.136269 1_555
Mg22 O9 2.136269 1_455
Mg22 O24 2.144626 1_555
Mg22 O0 2.151335 1_555
Mg23 O3 2.119247 1_555
Mg23 O25 2.119794 1_555
Mg23 O9 2.133944 1_555
Mg23 O8 2.133944 1_555
Mg23 O29 2.149675 1_555
Mg23 O1 2.151131 1_555
Mg24 O2 2.119816 1_555
Mg24 O30 2.125527 1_555
Mg24 O10 2.136269 1_555
Mg24 O11 2.136269 1_455
Mg24 O26 2.144626 1_555
Mg24 O0 2.151335 1_565
Mg25 O3 2.119247 1_555
Mg25 O27 2.119794 1_555
Mg25 O11 2.133944 1_555
Mg25 O10 2.133944 1_555
Mg25 O31 2.149675 1_555
Mg25 O1 2.151131 1_565
Mg26 O6 2.119816 1_555
Mg26 O28 2.125527 1_555
Mg26 O12 2.136269 1_555
Mg26 O13 2.136269 1_455
Mg26 O24 2.144626 1_556
Mg26 O4 2.151335 1_555
Mg27 O7 2.119247 1_555
Mg27 O25 2.119794 1_556
Mg27 O13 2.133944 1_555
Mg27 O12 2.133944 1_555
Mg27 O29 2.149675 1_555
Mg27 O5 2.151131 1_555
Mg28 O6 2.119816 1_555
Mg28 O30 2.125527 1_555
Mg28 O14 2.136269 1_555
Mg28 O15 2.136269 1_455
Mg28 O26 2.144626 1_556
Mg28 O4 2.151335 1_565
Mg29 O7 2.119247 1_555
Mg29 O27 2.119794 1_556
Mg29 O15 2.133944 1_555
Mg29 O14 2.133944 1_555
Mg29 O31 2.149675 1_555
Mg29 O5 2.151131 1_565
C0 O7 2.148679 1_554
C0 O3 2.148679 1_555
C0 O18 2.149783 1_555
C0 O19 2.149783 1_555
C0 O27 2.149783 1_555
C0 O25 2.149783 1_555
O0 Si0 2.213016 1_555
O4 Si0 2.213016 1_556
O16 Si0 2.212911 1_555
O17 Si0 2.212911 1_655
O24 Si0 2.212911 1_555
O26 Si0 2.212911 1_565
