# generated using pymatgen
data_Sr2SnS3F2
_symmetry_space_group_name_H-M   'P 1'
_cell_length_a   6.01420000
_cell_length_b   6.03468200
_cell_length_c   19.09463000
_cell_angle_alpha   90.00000000
_cell_angle_beta   90.00000000
_cell_angle_gamma   90.00000000
_symmetry_Int_Tables_number   1
_chemical_formula_structural   Sr2SnS3F2
_chemical_formula_sum   'Sr8 Sn4 S12 F8'
_cell_volume   693.01638603
_cell_formula_units_Z   4
loop_
 _symmetry_equiv_pos_site_id
 _symmetry_equiv_pos_as_xyz
  1  'x, y, z'
loop_
 _atom_site_type_symbol
 _atom_site_label
 _atom_site_symmetry_multiplicity
 _atom_site_fract_x
 _atom_site_fract_y
 _atom_site_fract_z
 _atom_site_occupancy
  Sr  Sr0  1  0.24693200  0.49765100  0.07368300  1
  Sr  Sr1  1  0.74693200  0.00234900  0.42631700  1
  Sr  Sr2  1  0.25306800  0.99765100  0.92631700  1
  Sr  Sr3  1  0.75306800  0.50234900  0.57368300  1
  Sr  Sr4  1  0.24693200  0.49765100  0.42631700  1
  Sr  Sr5  1  0.74693200  0.00234900  0.07368300  1
  Sr  Sr6  1  0.25306800  0.99765100  0.57368300  1
  Sr  Sr7  1  0.75306800  0.50234900  0.92631700  1
  Sn  Sn0  1  0.84300100  0.42556600  0.25000000  1
  Sn  Sn1  1  0.34300100  0.07443400  0.25000000  1
  Sn  Sn2  1  0.65699900  0.92556600  0.75000000  1
  Sn  Sn3  1  0.15699900  0.57443400  0.75000000  1
  S  S0  1  0.74345600  0.51388800  0.36694200  1
  S  S1  1  0.24345600  0.98611200  0.13305800  1
  S  S2  1  0.75654400  0.01388800  0.63305800  1
  S  S3  1  0.25654400  0.48611200  0.86694200  1
  S  S4  1  0.25130300  0.47639500  0.25000000  1
  S  S5  1  0.75130300  0.02360500  0.25000000  1
  S  S6  1  0.24869700  0.97639500  0.75000000  1
  S  S7  1  0.74869700  0.52360500  0.75000000  1
  S  S8  1  0.74345600  0.51388800  0.13305800  1
  S  S9  1  0.24345600  0.98611200  0.36694200  1
  S  S10  1  0.75654400  0.01388800  0.86694200  1
  S  S11  1  0.25654400  0.48611200  0.63305800  1
  F  F0  1  0.50091000  0.74771400  0.49975900  1
  F  F1  1  0.00091000  0.75228600  0.00024100  1
  F  F2  1  0.99909000  0.24771400  0.50024100  1
  F  F3  1  0.49909000  0.25228600  0.99975900  1
  F  F4  1  0.49909000  0.25228600  0.50024100  1
  F  F5  1  0.99909000  0.24771400  0.99975900  1
  F  F6  1  0.00091000  0.75228600  0.49975900  1
  F  F7  1  0.50091000  0.74771400  0.00024100  1
loop_
_geom_bond_atom_site_label_1
_geom_bond_atom_site_label_2
_geom_bond_distance
_geom_bond_site_symmetry_2
S0 Sn0 2.372474 1_555
S0 Sr1 3.158289 1_565
S0 Sr4 3.195674 1_555
S0 Sr4 3.234779 1_655
S0 Sr1 3.288651 1_555
S1 Sn1 2.372474 1_565
S1 Sr0 3.158289 1_555
S1 Sr5 3.195674 1_465
S1 Sr5 3.234779 1_565
S1 Sr0 3.288651 1_565
S2 Sn2 2.372474 1_545
S2 Sr3 3.158289 1_555
S2 Sr6 3.195674 1_645
S2 Sr6 3.234779 1_545
S2 Sr3 3.288651 1_545
S3 Sn3 2.372474 1_555
S3 Sr2 3.158289 1_545
S3 Sr7 3.195674 1_555
S3 Sr7 3.234779 1_455
S3 Sr2 3.288651 1_555
S4 Sn0 2.474693 1_455
S4 Sn1 2.487608 1_555
S4 Sr4 3.369253 1_555
S4 Sr0 3.369253 1_555
S5 Sn1 2.474693 1_555
S5 Sn0 2.487608 1_555
S5 Sr1 3.369253 1_555
S5 Sr5 3.369253 1_555
S6 Sn2 2.474693 1_555
S6 Sn3 2.487608 1_555
S6 Sr2 3.369253 1_555
S6 Sr6 3.369253 1_555
S7 Sn3 2.474693 1_655
S7 Sn2 2.487608 1_555
S7 Sr7 3.369253 1_555
S7 Sr3 3.369253 1_555
S8 Sn0 2.372474 1_555
S8 Sr5 3.158289 1_565
S8 Sr0 3.195674 1_555
S8 Sr0 3.234779 1_655
S8 Sr5 3.288651 1_555
S9 Sn1 2.372474 1_565
S9 Sr4 3.158289 1_555
S9 Sr1 3.195674 1_465
S9 Sr1 3.234779 1_565
S9 Sr4 3.288651 1_565
S10 Sn2 2.372474 1_545
S10 Sr7 3.158289 1_555
S10 Sr2 3.195674 1_645
S10 Sr2 3.234779 1_545
S10 Sr7 3.288651 1_545
S11 Sn3 2.372474 1_555
S11 Sr6 3.158289 1_545
S11 Sr3 3.195674 1_555
S11 Sr3 3.234779 1_455
S11 Sr6 3.288651 1_555
F0 Sr3 2.546529 1_555
F0 Sr6 2.547395 1_555
F0 Sr1 2.552868 1_565
F0 Sr4 2.564565 1_555
F1 Sr2 2.546529 1_554
F1 Sr7 2.547395 1_454
F1 Sr0 2.552868 1_555
F1 Sr5 2.564565 1_465
F2 Sr1 2.546529 1_555
F2 Sr4 2.547395 1_655
F2 Sr3 2.552868 1_555
F2 Sr6 2.564565 1_645
F3 Sr0 2.546529 1_556
F3 Sr5 2.547395 1_556
F3 Sr2 2.552868 1_545
F3 Sr7 2.564565 1_555
F4 Sr4 2.546529 1_555
F4 Sr1 2.547395 1_555
F4 Sr6 2.552868 1_545
F4 Sr3 2.564565 1_555
F5 Sr5 2.546529 1_556
F5 Sr0 2.547395 1_656
F5 Sr7 2.552868 1_555
F5 Sr2 2.564565 1_645
F6 Sr6 2.546529 1_555
F6 Sr3 2.547395 1_455
F6 Sr4 2.552868 1_555
F6 Sr1 2.564565 1_465
F7 Sr7 2.546529 1_554
F7 Sr2 2.547395 1_554
F7 Sr5 2.552868 1_565
F7 Sr0 2.564565 1_555
