# generated using pymatgen
data_MgSc2
_symmetry_space_group_name_H-M   'P 1'
_cell_length_a   12.39558161
_cell_length_b   12.39558161
_cell_length_c   15.37607122
_cell_angle_alpha   76.37746439
_cell_angle_beta   76.37746439
_cell_angle_gamma   30.60873952
_symmetry_Int_Tables_number   1
_chemical_formula_structural   MgSc2
_chemical_formula_sum   'Mg16 Sc32'
_cell_volume   1166.52669120
_cell_formula_units_Z   16
loop_
 _symmetry_equiv_pos_site_id
 _symmetry_equiv_pos_as_xyz
  1  'x, y, z'
loop_
 _atom_site_type_symbol
 _atom_site_label
 _atom_site_symmetry_multiplicity
 _atom_site_fract_x
 _atom_site_fract_y
 _atom_site_fract_z
 _atom_site_occupancy
  Mg  Mg0_0  1  0.18022530  0.18022530  0.01265645  1
  Mg  Mg0_1  1  0.18022530  0.18022530  0.51265645  1
  Mg  Mg0_2  1  0.18022531  0.68022531  0.01265645  1
  Mg  Mg0_3  1  0.18022530  0.68022530  0.51265645  1
  Mg  Mg0_4  1  0.68022531  0.18022531  0.01265645  1
  Mg  Mg0_5  1  0.68022530  0.18022530  0.51265645  1
  Mg  Mg0_6  1  0.68022530  0.68022530  0.01265645  1
  Mg  Mg0_7  1  0.68022530  0.68022530  0.51265645  1
  Mg  Mg1_0  1  0.31977469  0.31977469  0.48734355  1
  Mg  Mg1_1  1  0.31977469  0.31977469  0.98734355  1
  Mg  Mg1_2  1  0.31977469  0.81977469  0.48734355  1
  Mg  Mg1_3  1  0.31977469  0.81977469  0.98734355  1
  Mg  Mg1_4  1  0.81977469  0.31977469  0.48734355  1
  Mg  Mg1_5  1  0.81977469  0.31977469  0.98734355  1
  Mg  Mg1_6  1  0.81977469  0.81977469  0.48734355  1
  Mg  Mg1_7  1  0.81977469  0.81977469  0.98734355  1
  Sc  Sc0_0  1  0.01253822  0.01253822  0.34657940  1
  Sc  Sc0_1  1  0.01253822  0.01253822  0.84657940  1
  Sc  Sc0_2  1  0.01253822  0.51253822  0.34657940  1
  Sc  Sc0_3  1  0.01253822  0.51253822  0.84657940  1
  Sc  Sc0_4  1  0.51253822  0.01253822  0.34657940  1
  Sc  Sc0_5  1  0.51253822  0.01253822  0.84657940  1
  Sc  Sc0_6  1  0.51253822  0.51253822  0.34657940  1
  Sc  Sc0_7  1  0.51253822  0.51253822  0.84657940  1
  Sc  Sc1_0  1  0.15176686  0.15176686  0.31699687  1
  Sc  Sc1_1  1  0.15176686  0.15176686  0.81699687  1
  Sc  Sc1_2  1  0.15176686  0.65176687  0.31699687  1
  Sc  Sc1_3  1  0.15176686  0.65176686  0.81699687  1
  Sc  Sc1_4  1  0.65176687  0.15176687  0.31699687  1
  Sc  Sc1_5  1  0.65176686  0.15176687  0.81699687  1
  Sc  Sc1_6  1  0.65176686  0.65176686  0.31699687  1
  Sc  Sc1_7  1  0.65176686  0.65176686  0.81699687  1
  Sc  Sc2_0  1  0.34823314  0.34823314  0.18300314  1
  Sc  Sc2_1  1  0.34823313  0.34823313  0.68300313  1
  Sc  Sc2_2  1  0.34823314  0.84823313  0.18300314  1
  Sc  Sc2_3  1  0.34823313  0.84823313  0.68300313  1
  Sc  Sc2_4  1  0.84823314  0.34823314  0.18300314  1
  Sc  Sc2_5  1  0.84823313  0.34823313  0.68300313  1
  Sc  Sc2_6  1  0.84823313  0.84823313  0.18300314  1
  Sc  Sc2_7  1  0.84823313  0.84823313  0.68300313  1
  Sc  Sc3_0  1  0.48746178  0.48746178  0.15342060  1
  Sc  Sc3_1  1  0.48746178  0.48746178  0.65342060  1
  Sc  Sc3_2  1  0.48746178  0.98746178  0.15342060  1
  Sc  Sc3_3  1  0.48746178  0.98746178  0.65342060  1
  Sc  Sc3_4  1  0.98746178  0.48746178  0.15342060  1
  Sc  Sc3_5  1  0.98746178  0.48746178  0.65342060  1
  Sc  Sc3_6  1  0.98746178  0.98746178  0.15342060  1
  Sc  Sc3_7  1  0.98746178  0.98746178  0.65342060  1
loop_
_geom_bond_atom_site_label_1
_geom_bond_atom_site_label_2
_geom_bond_distance
_geom_bond_site_symmetry_2
Mg0_0 Mg1_5 3.210142 1_454
Mg0_0 Mg1_3 3.210142 1_544
Mg0_0 Sc1_1 3.242502 1_554
Mg0_0 Sc0_5 3.258298 1_554
Mg0_0 Sc0_3 3.258298 1_554
Mg0_0 Mg1_1 3.263763 1_554
Mg0_0 Sc3_4 3.268119 1_455
Mg0_0 Sc3_2 3.268119 1_545
Mg0_0 Mg0_6 3.271772 1_545
Mg0_0 Mg0_6 3.271772 1_455
Mg0_0 Sc2_4 3.297374 1_455
Mg0_0 Sc2_2 3.297374 1_545
Mg0_1 Mg1_2 3.210142 1_545
Mg0_1 Mg1_4 3.210142 1_455
Mg0_1 Sc1_0 3.242502 1_555
Mg0_1 Sc0_2 3.258298 1_555
Mg0_1 Sc0_4 3.258298 1_555
Mg0_1 Mg1_0 3.263763 1_555
Mg0_1 Sc3_3 3.268119 1_545
Mg0_1 Sc3_5 3.268119 1_455
Mg0_1 Mg0_7 3.271772 1_545
Mg0_1 Mg0_7 3.271772 1_455
Mg0_1 Sc2_3 3.297374 1_545
Mg0_1 Sc2_5 3.297374 1_455
Mg0_2 Mg1_1 3.210142 1_554
Mg0_2 Mg1_7 3.210142 1_454
Mg0_2 Sc1_3 3.242502 1_554
Mg0_2 Sc0_7 3.258298 1_554
Mg0_2 Sc0_1 3.258298 1_564
Mg0_2 Mg1_3 3.263763 1_554
Mg0_2 Sc3_6 3.268119 1_455
Mg0_2 Sc3_0 3.268119 1_555
Mg0_2 Mg0_4 3.271772 1_555
Mg0_2 Mg0_4 3.271772 1_465
Mg0_2 Sc2_0 3.297374 1_555
Mg0_2 Sc2_6 3.297374 1_455
Mg0_3 Mg1_6 3.210142 1_455
Mg0_3 Mg1_0 3.210142 1_555
Mg0_3 Sc1_2 3.242502 1_555
Mg0_3 Sc0_0 3.258298 1_565
Mg0_3 Sc0_6 3.258298 1_555
Mg0_3 Mg1_2 3.263763 1_555
Mg0_3 Sc3_1 3.268119 1_555
Mg0_3 Sc3_7 3.268119 1_455
Mg0_3 Mg0_5 3.271772 1_555
Mg0_3 Mg0_5 3.271772 1_465
Mg0_3 Sc2_1 3.297374 1_555
Mg0_3 Sc2_7 3.297374 1_455
Mg0_4 Mg1_1 3.210142 1_554
Mg0_4 Mg1_7 3.210142 1_544
Mg0_4 Sc1_5 3.242502 1_554
Mg0_4 Sc0_7 3.258298 1_554
Mg0_4 Sc0_1 3.258298 1_654
Mg0_4 Mg1_5 3.263763 1_554
Mg0_4 Sc3_6 3.268119 1_545
Mg0_4 Sc3_0 3.268119 1_555
Mg0_4 Sc2_0 3.297374 1_555
Mg0_4 Sc2_6 3.297374 1_545
Mg0_5 Mg1_0 3.210142 1_555
Mg0_5 Mg1_6 3.210142 1_545
Mg0_5 Sc1_4 3.242502 1_555
Mg0_5 Sc0_0 3.258298 1_655
Mg0_5 Sc0_6 3.258298 1_555
Mg0_5 Mg1_4 3.263763 1_555
Mg0_5 Sc3_1 3.268119 1_555
Mg0_5 Sc3_7 3.268119 1_545
Mg0_5 Sc2_1 3.297374 1_555
Mg0_5 Sc2_7 3.297374 1_545
Mg0_6 Mg1_3 3.210142 1_554
Mg0_6 Mg1_5 3.210142 1_554
Mg0_6 Sc1_7 3.242502 1_554
Mg0_6 Sc0_3 3.258298 1_654
Mg0_6 Sc0_5 3.258298 1_564
Mg0_6 Mg1_7 3.263763 1_554
Mg0_6 Sc3_2 3.268119 1_555
Mg0_6 Sc3_4 3.268119 1_555
Mg0_6 Sc2_4 3.297374 1_555
Mg0_6 Sc2_2 3.297374 1_555
Mg0_7 Mg1_2 3.210142 1_555
Mg0_7 Mg1_4 3.210142 1_555
Mg0_7 Sc1_6 3.242502 1_555
Mg0_7 Sc0_2 3.258298 1_655
Mg0_7 Sc0_4 3.258298 1_565
Mg0_7 Mg1_6 3.263763 1_555
Mg0_7 Sc3_3 3.268119 1_555
Mg0_7 Sc3_5 3.268119 1_555
Mg0_7 Sc2_3 3.297374 1_555
Mg0_7 Sc2_5 3.297374 1_555
Mg1_0 Sc2_1 3.242502 1_555
Mg1_0 Sc3_5 3.258298 1_455
Mg1_0 Sc3_3 3.258298 1_545
Mg1_0 Sc0_4 3.268119 1_555
Mg1_0 Sc0_2 3.268119 1_555
Mg1_0 Mg1_6 3.271772 1_455
Mg1_0 Mg1_6 3.271772 1_545
Mg1_0 Sc1_2 3.297374 1_555
Mg1_0 Sc1_4 3.297374 1_555
Mg1_1 Sc2_0 3.242502 1_556
Mg1_1 Sc3_4 3.258298 1_456
Mg1_1 Sc3_2 3.258298 1_546
Mg1_1 Sc0_5 3.268119 1_555
Mg1_1 Sc0_3 3.268119 1_555
Mg1_1 Mg1_7 3.271772 1_455
Mg1_1 Mg1_7 3.271772 1_545
Mg1_1 Sc1_5 3.297374 1_555
Mg1_1 Sc1_3 3.297374 1_555
Mg1_2 Sc2_3 3.242502 1_555
Mg1_2 Sc3_1 3.258298 1_555
Mg1_2 Sc3_7 3.258298 1_455
Mg1_2 Sc0_0 3.268119 1_565
Mg1_2 Sc0_6 3.268119 1_555
Mg1_2 Mg1_4 3.271772 1_555
Mg1_2 Mg1_4 3.271772 1_465
Mg1_2 Sc1_6 3.297374 1_555
Mg1_2 Sc1_0 3.297374 1_565
Mg1_3 Sc2_2 3.242502 1_556
Mg1_3 Sc3_0 3.258298 1_556
Mg1_3 Sc3_6 3.258298 1_456
Mg1_3 Sc0_7 3.268119 1_555
Mg1_3 Sc0_1 3.268119 1_565
Mg1_3 Mg1_5 3.271772 1_555
Mg1_3 Mg1_5 3.271772 1_465
Mg1_3 Sc1_1 3.297374 1_565
Mg1_3 Sc1_7 3.297374 1_555
Mg1_4 Sc2_5 3.242502 1_555
Mg1_4 Sc3_1 3.258298 1_555
Mg1_4 Sc3_7 3.258298 1_545
Mg1_4 Sc0_0 3.268119 1_655
Mg1_4 Sc0_6 3.268119 1_555
Mg1_4 Sc1_6 3.297374 1_555
Mg1_4 Sc1_0 3.297374 1_655
Mg1_5 Sc2_4 3.242502 1_556
Mg1_5 Sc3_0 3.258298 1_556
Mg1_5 Sc3_6 3.258298 1_546
Mg1_5 Sc0_7 3.268119 1_555
Mg1_5 Sc0_1 3.268119 1_655
Mg1_5 Sc1_7 3.297374 1_555
Mg1_5 Sc1_1 3.297374 1_655
Mg1_6 Sc2_7 3.242502 1_555
Mg1_6 Sc3_5 3.258298 1_555
Mg1_6 Sc3_3 3.258298 1_555
Mg1_6 Sc0_2 3.268119 1_655
Mg1_6 Sc0_4 3.268119 1_565
Mg1_6 Sc1_2 3.297374 1_655
Mg1_6 Sc1_4 3.297374 1_565
Mg1_7 Sc2_6 3.242502 1_556
Mg1_7 Sc3_4 3.258298 1_556
Mg1_7 Sc3_2 3.258298 1_556
Mg1_7 Sc0_3 3.268119 1_655
Mg1_7 Sc0_5 3.268119 1_565
Mg1_7 Sc1_3 3.297374 1_655
Mg1_7 Sc1_5 3.297374 1_565
Sc0_0 Sc3_6 3.170226 1_445
Sc0_0 Sc1_4 3.238422 1_455
Sc0_0 Sc1_2 3.238422 1_545
Sc0_0 Sc1_0 3.248254 1_555
Sc0_0 Sc2_2 3.268656 1_545
Sc0_0 Sc2_4 3.268656 1_455
Sc0_0 Sc0_6 3.271772 1_545
Sc0_0 Sc0_6 3.271772 1_455
Sc0_1 Sc3_7 3.170226 1_445
Sc0_1 Sc1_5 3.238422 1_455
Sc0_1 Sc1_3 3.238422 1_545
Sc0_1 Sc1_1 3.248254 1_555
Sc0_1 Sc2_3 3.268656 1_545
Sc0_1 Sc2_5 3.268656 1_455
Sc0_1 Sc0_7 3.271772 1_545
Sc0_1 Sc0_7 3.271772 1_455
Sc0_2 Sc3_4 3.170226 1_455
Sc0_2 Sc1_0 3.238422 1_555
Sc0_2 Sc1_6 3.238422 1_455
Sc0_2 Sc1_2 3.248254 1_555
Sc0_2 Sc2_6 3.268656 1_455
Sc0_2 Sc2_0 3.268656 1_555
Sc0_2 Sc0_4 3.271772 1_555
Sc0_2 Sc0_4 3.271772 1_465
Sc0_3 Sc3_5 3.170226 1_455
Sc0_3 Sc1_1 3.238422 1_555
Sc0_3 Sc1_7 3.238422 1_455
Sc0_3 Sc1_3 3.248254 1_555
Sc0_3 Sc2_1 3.268656 1_555
Sc0_3 Sc2_7 3.268656 1_455
Sc0_3 Sc0_5 3.271772 1_465
Sc0_3 Sc0_5 3.271772 1_555
Sc0_4 Sc3_2 3.170226 1_545
Sc0_4 Sc1_0 3.238422 1_555
Sc0_4 Sc1_6 3.238422 1_545
Sc0_4 Sc1_4 3.248254 1_555
Sc0_4 Sc2_6 3.268656 1_545
Sc0_4 Sc2_0 3.268656 1_555
Sc0_5 Sc3_3 3.170226 1_545
Sc0_5 Sc1_1 3.238422 1_555
Sc0_5 Sc1_7 3.238422 1_545
Sc0_5 Sc1_5 3.248254 1_555
Sc0_5 Sc2_1 3.268656 1_555
Sc0_5 Sc2_7 3.268656 1_545
Sc0_6 Sc3_0 3.170226 1_555
Sc0_6 Sc1_4 3.238422 1_555
Sc0_6 Sc1_2 3.238422 1_555
Sc0_6 Sc1_6 3.248254 1_555
Sc0_6 Sc2_2 3.268656 1_555
Sc0_6 Sc2_4 3.268656 1_555
Sc0_7 Sc3_1 3.170226 1_555
Sc0_7 Sc1_5 3.238422 1_555
Sc0_7 Sc1_3 3.238422 1_555
Sc0_7 Sc1_7 3.248254 1_555
Sc0_7 Sc2_3 3.268656 1_555
Sc0_7 Sc2_5 3.268656 1_555
Sc1_0 Sc2_4 3.138091 1_455
Sc1_0 Sc2_2 3.138091 1_545
Sc1_0 Sc3_4 3.268656 1_455
Sc1_0 Sc3_2 3.268656 1_545
Sc1_0 Sc1_6 3.271772 1_455
Sc1_0 Sc1_6 3.271772 1_545
Sc1_1 Sc2_5 3.138091 1_455
Sc1_1 Sc2_3 3.138091 1_545
Sc1_1 Sc3_3 3.268656 1_545
Sc1_1 Sc3_5 3.268656 1_455
Sc1_1 Sc1_7 3.271772 1_455
Sc1_1 Sc1_7 3.271772 1_545
Sc1_2 Sc2_0 3.138091 1_555
Sc1_2 Sc2_6 3.138091 1_455
Sc1_2 Sc3_6 3.268656 1_455
Sc1_2 Sc3_0 3.268656 1_555
Sc1_2 Sc1_4 3.271772 1_465
Sc1_2 Sc1_4 3.271772 1_555
Sc1_3 Sc2_7 3.138091 1_455
Sc1_3 Sc2_1 3.138091 1_555
Sc1_3 Sc3_7 3.268656 1_455
Sc1_3 Sc3_1 3.268656 1_555
Sc1_3 Sc1_5 3.271772 1_555
Sc1_3 Sc1_5 3.271772 1_465
Sc1_4 Sc2_0 3.138091 1_555
Sc1_4 Sc2_6 3.138091 1_545
Sc1_4 Sc3_6 3.268656 1_545
Sc1_4 Sc3_0 3.268656 1_555
Sc1_5 Sc2_1 3.138091 1_555
Sc1_5 Sc2_7 3.138091 1_545
Sc1_5 Sc3_1 3.268656 1_555
Sc1_5 Sc3_7 3.268656 1_545
Sc1_6 Sc2_4 3.138091 1_555
Sc1_6 Sc2_2 3.138091 1_555
Sc1_6 Sc3_4 3.268656 1_555
Sc1_6 Sc3_2 3.268656 1_555
Sc1_7 Sc2_5 3.138091 1_555
Sc1_7 Sc2_3 3.138091 1_555
Sc1_7 Sc3_3 3.268656 1_555
Sc1_7 Sc3_5 3.268656 1_555
Sc2_0 Sc3_4 3.238422 1_455
Sc2_0 Sc3_2 3.238422 1_545
Sc2_0 Sc3_0 3.248254 1_555
Sc2_0 Sc2_6 3.271772 1_545
Sc2_0 Sc2_6 3.271772 1_455
Sc2_1 Sc3_5 3.238422 1_455
Sc2_1 Sc3_3 3.238422 1_545
Sc2_1 Sc3_1 3.248254 1_555
Sc2_1 Sc2_7 3.271772 1_545
Sc2_1 Sc2_7 3.271772 1_455
Sc2_2 Sc3_0 3.238422 1_555
Sc2_2 Sc3_6 3.238422 1_455
Sc2_2 Sc3_2 3.248254 1_555
Sc2_2 Sc2_4 3.271772 1_555
Sc2_2 Sc2_4 3.271772 1_465
Sc2_3 Sc3_7 3.238422 1_455
Sc2_3 Sc3_1 3.238422 1_555
Sc2_3 Sc3_3 3.248254 1_555
Sc2_3 Sc2_5 3.271772 1_465
Sc2_3 Sc2_5 3.271772 1_555
Sc2_4 Sc3_0 3.238422 1_555
Sc2_4 Sc3_6 3.238422 1_545
Sc2_4 Sc3_4 3.248254 1_555
Sc2_5 Sc3_7 3.238422 1_545
Sc2_5 Sc3_1 3.238422 1_555
Sc2_5 Sc3_5 3.248254 1_555
Sc2_6 Sc3_4 3.238422 1_555
Sc2_6 Sc3_2 3.238422 1_555
Sc2_6 Sc3_6 3.248254 1_555
Sc2_7 Sc3_5 3.238422 1_555
Sc2_7 Sc3_3 3.238422 1_555
Sc2_7 Sc3_7 3.248254 1_555
Sc3_0 Sc3_6 3.271772 1_455
Sc3_0 Sc3_6 3.271772 1_545
Sc3_1 Sc3_7 3.271772 1_545
Sc3_1 Sc3_7 3.271772 1_455
Sc3_2 Sc3_4 3.271772 1_555
Sc3_2 Sc3_4 3.271772 1_465
Sc3_3 Sc3_5 3.271772 1_465
Sc3_3 Sc3_5 3.271772 1_555
