# generated using pymatgen
data_Cs8Na4Y3HoCl24
_symmetry_space_group_name_H-M   'P 1'
_cell_length_a   7.70232200
_cell_length_b   10.89399900
_cell_length_c   15.42292200
_cell_angle_alpha   90.00000000
_cell_angle_beta   90.00000000
_cell_angle_gamma   90.00000000
_symmetry_Int_Tables_number   1
_chemical_formula_structural   Cs8Na4Y3HoCl24
_chemical_formula_sum   'Cs8 Na4 Y3 Ho1 Cl24'
_cell_volume   1294.12332187
_cell_formula_units_Z   1
loop_
 _symmetry_equiv_pos_site_id
 _symmetry_equiv_pos_as_xyz
  1  'x, y, z'
loop_
 _atom_site_type_symbol
 _atom_site_label
 _atom_site_symmetry_multiplicity
 _atom_site_fract_x
 _atom_site_fract_y
 _atom_site_fract_z
 _atom_site_occupancy
  Cs  Cs0  1  0.50000000  0.25000600  0.50000000  1
  Cs  Cs1  1  0.00000000  0.75005500  0.75006800  1
  Cs  Cs2  1  0.50000000  0.24985800  0.00000000  1
  Cs  Cs3  1  0.00000000  0.75005500  0.24993200  1
  Cs  Cs4  1  0.50000000  0.74999400  0.50000000  1
  Cs  Cs5  1  0.00000000  0.24994500  0.75006800  1
  Cs  Cs6  1  0.50000000  0.75014200  0.00000000  1
  Cs  Cs7  1  0.00000000  0.24994500  0.24993200  1
  Na  Na0  1  0.00000000  0.50000000  0.50000000  1
  Na  Na1  1  0.50000000  0.00000000  0.75020500  1
  Na  Na2  1  0.00000000  0.50000000  0.00000000  1
  Na  Na3  1  0.50000000  0.00000000  0.24979500  1
  Y  Y0  1  0.50000000  0.50000000  0.25000400  1
  Y  Y1  1  0.00000000  0.00000000  0.50000000  1
  Y  Y2  1  0.50000000  0.50000000  0.74999600  1
  Ho  Ho0  1  0.00000000  0.00000000  0.00000000  1
  Cl  Cl0  1  0.00000000  0.24289800  0.50000000  1
  Cl  Cl1  1  0.50000000  0.74297100  0.75000900  1
  Cl  Cl2  1  0.00000000  0.24121500  0.00000000  1
  Cl  Cl3  1  0.50000000  0.74297100  0.24999100  1
  Cl  Cl4  1  0.25714800  0.50000000  0.62859300  1
  Cl  Cl5  1  0.75876000  0.00000000  0.87941200  1
  Cl  Cl6  1  0.25704300  0.50000000  0.12856200  1
  Cl  Cl7  1  0.75705300  0.00000000  0.37855200  1
  Cl  Cl8  1  0.25714800  0.50000000  0.37140700  1
  Cl  Cl9  1  0.75705300  0.00000000  0.62144800  1
  Cl  Cl10  1  0.25704300  0.50000000  0.87143800  1
  Cl  Cl11  1  0.75876000  0.00000000  0.12058800  1
  Cl  Cl12  1  0.00000000  0.75710200  0.50000000  1
  Cl  Cl13  1  0.50000000  0.25702900  0.75000900  1
  Cl  Cl14  1  0.00000000  0.75878500  0.00000000  1
  Cl  Cl15  1  0.50000000  0.25702900  0.24999100  1
  Cl  Cl16  1  0.74285200  0.50000000  0.37140700  1
  Cl  Cl17  1  0.24294700  0.00000000  0.62144800  1
  Cl  Cl18  1  0.74295700  0.50000000  0.87143800  1
  Cl  Cl19  1  0.24124000  0.00000000  0.12058800  1
  Cl  Cl20  1  0.74285200  0.50000000  0.62859300  1
  Cl  Cl21  1  0.24124000  0.00000000  0.87941200  1
  Cl  Cl22  1  0.74295700  0.50000000  0.12856200  1
  Cl  Cl23  1  0.24294700  0.00000000  0.37855200  1
loop_
_geom_bond_atom_site_label_1
_geom_bond_atom_site_label_2
_geom_bond_distance
_geom_bond_site_symmetry_2
Cl0 Y1 2.646131 1_555
Cl0 Na0 2.800869 1_555
Cl0 Cs0 3.851939 1_455
Cl0 Cs0 3.851939 1_555
Cl0 Cs5 3.857543 1_555
Cl0 Cs7 3.857543 1_555
Cl1 Y2 2.646926 1_555
Cl1 Na1 2.800075 1_565
Cl1 Cs1 3.851934 1_655
Cl1 Cs1 3.851934 1_555
Cl1 Cs6 3.856383 1_556
Cl1 Cs4 3.856628 1_555
Cl2 Ho0 2.627796 1_555
Cl2 Na2 2.819204 1_555
Cl2 Cs2 3.852312 1_455
Cl2 Cs2 3.852312 1_555
Cl2 Cs7 3.855855 1_555
Cl2 Cs5 3.855855 1_554
Cl3 Y0 2.646926 1_555
Cl3 Na3 2.800075 1_565
Cl3 Cs3 3.851934 1_555
Cl3 Cs3 3.851934 1_655
Cl3 Cs6 3.856383 1_555
Cl3 Cs4 3.856628 1_555
Cl4 Y2 2.646640 1_555
Cl4 Na0 2.802913 1_555
Cl4 Cs4 3.853486 1_555
Cl4 Cs0 3.853486 1_555
Cl4 Cs1 3.854042 1_555
Cl4 Cs5 3.854042 1_555
Cl5 Ho0 2.628972 1_656
Cl5 Na1 2.818388 1_555
Cl5 Cs6 3.852300 1_546
Cl5 Cs2 3.852300 1_556
Cl5 Cs5 3.853081 1_655
Cl5 Cs1 3.853081 1_645
Cl6 Y0 2.647637 1_555
Cl6 Na2 2.802003 1_555
Cl6 Cs3 3.852839 1_555
Cl6 Cs7 3.852839 1_555
Cl6 Cs6 3.854772 1_555
Cl6 Cs2 3.854772 1_555
Cl7 Y1 2.647648 1_655
Cl7 Na3 2.804186 1_555
Cl7 Cs0 3.853086 1_555
Cl7 Cs4 3.853086 1_545
Cl7 Cs7 3.853678 1_655
Cl7 Cs3 3.853678 1_645
Cl8 Y0 2.646640 1_555
Cl8 Na0 2.802913 1_555
Cl8 Cs4 3.853486 1_555
Cl8 Cs0 3.853486 1_555
Cl8 Cs3 3.854042 1_555
Cl8 Cs7 3.854042 1_555
Cl9 Y1 2.647648 1_655
Cl9 Na1 2.804186 1_555
Cl9 Cs0 3.853086 1_555
Cl9 Cs4 3.853086 1_545
Cl9 Cs5 3.853678 1_655
Cl9 Cs1 3.853678 1_645
Cl10 Y2 2.647637 1_555
Cl10 Na2 2.802003 1_556
Cl10 Cs1 3.852839 1_555
Cl10 Cs5 3.852839 1_555
Cl10 Cs2 3.854772 1_556
Cl10 Cs6 3.854772 1_556
Cl11 Ho0 2.628972 1_655
Cl11 Na3 2.818388 1_555
Cl11 Cs6 3.852300 1_545
Cl11 Cs2 3.852300 1_555
Cl11 Cs7 3.853081 1_655
Cl11 Cs3 3.853081 1_645
Cl12 Y1 2.646131 1_565
Cl12 Na0 2.800869 1_555
Cl12 Cs4 3.851939 1_555
Cl12 Cs4 3.851939 1_455
Cl12 Cs1 3.857543 1_555
Cl12 Cs3 3.857543 1_555
Cl13 Y2 2.646926 1_555
Cl13 Na1 2.800075 1_555
Cl13 Cs5 3.851934 1_555
Cl13 Cs5 3.851934 1_655
Cl13 Cs2 3.856383 1_556
Cl13 Cs0 3.856628 1_555
Cl14 Ho0 2.627796 1_565
Cl14 Na2 2.819204 1_555
Cl14 Cs6 3.852312 1_555
Cl14 Cs6 3.852312 1_455
Cl14 Cs3 3.855855 1_555
Cl14 Cs1 3.855855 1_554
Cl15 Y0 2.646926 1_555
Cl15 Na3 2.800075 1_555
Cl15 Cs7 3.851934 1_655
Cl15 Cs7 3.851934 1_555
Cl15 Cs2 3.856383 1_555
Cl15 Cs0 3.856628 1_555
Cl16 Y0 2.646640 1_555
Cl16 Na0 2.802913 1_655
Cl16 Cs4 3.853486 1_555
Cl16 Cs0 3.853486 1_555
Cl16 Cs3 3.854042 1_655
Cl16 Cs7 3.854042 1_655
Cl17 Y1 2.647648 1_555
Cl17 Na1 2.804186 1_555
Cl17 Cs0 3.853086 1_555
Cl17 Cs4 3.853086 1_545
Cl17 Cs5 3.853678 1_555
Cl17 Cs1 3.853678 1_545
Cl18 Y2 2.647637 1_555
Cl18 Na2 2.802003 1_656
Cl18 Cs1 3.852839 1_655
Cl18 Cs5 3.852839 1_655
Cl18 Cs6 3.854772 1_556
Cl18 Cs2 3.854772 1_556
Cl19 Ho0 2.628972 1_555
Cl19 Na3 2.818388 1_555
Cl19 Cs6 3.852300 1_545
Cl19 Cs2 3.852300 1_555
Cl19 Cs7 3.853081 1_555
Cl19 Cs3 3.853081 1_545
Cl20 Y2 2.646640 1_555
Cl20 Na0 2.802913 1_655
Cl20 Cs4 3.853486 1_555
Cl20 Cs0 3.853486 1_555
Cl20 Cs1 3.854042 1_655
Cl20 Cs5 3.854042 1_655
Cl21 Ho0 2.628972 1_556
Cl21 Na1 2.818388 1_555
Cl21 Cs6 3.852300 1_546
Cl21 Cs2 3.852300 1_556
Cl21 Cs5 3.853081 1_555
Cl21 Cs1 3.853081 1_545
Cl22 Y0 2.647637 1_555
Cl22 Na2 2.802003 1_655
Cl22 Cs3 3.852839 1_655
Cl22 Cs7 3.852839 1_655
Cl22 Cs2 3.854772 1_555
Cl22 Cs6 3.854772 1_555
Cl23 Y1 2.647648 1_555
Cl23 Na3 2.804186 1_555
Cl23 Cs0 3.853086 1_555
Cl23 Cs4 3.853086 1_545
Cl23 Cs7 3.853678 1_555
Cl23 Cs3 3.853678 1_545
