# generated using pymatgen
data_Cr5NiS8
_symmetry_space_group_name_H-M   'P 1'
_cell_length_a   3.44224500
_cell_length_b   5.99103300
_cell_length_c   10.90594942
_cell_angle_alpha   88.88867809
_cell_angle_beta   90.00000000
_cell_angle_gamma   90.00000000
_symmetry_Int_Tables_number   1
_chemical_formula_structural   Cr5NiS8
_chemical_formula_sum   'Cr5 Ni1 S8'
_cell_volume   224.86676385
_cell_formula_units_Z   1
loop_
 _symmetry_equiv_pos_site_id
 _symmetry_equiv_pos_as_xyz
  1  'x, y, z'
loop_
 _atom_site_type_symbol
 _atom_site_label
 _atom_site_symmetry_multiplicity
 _atom_site_fract_x
 _atom_site_fract_y
 _atom_site_fract_z
 _atom_site_occupancy
  Cr  Cr0  1  0.50000000  0.51476200  0.75732500  1
  Cr  Cr1  1  0.00000000  0.01467200  0.26878300  1
  Cr  Cr2  1  0.00000000  0.98532800  0.73121700  1
  Cr  Cr3  1  0.50000000  0.48523800  0.24267500  1
  Cr  Cr4  1  0.00000000  0.00000000  0.00000000  1
  Ni  Ni0  1  0.50000000  0.50000000  0.50000000  1
  S  S0  1  0.00000000  0.67602400  0.87557600  1
  S  S1  1  0.50000000  0.17516300  0.38038300  1
  S  S2  1  0.50000000  0.82483700  0.61961700  1
  S  S3  1  0.00000000  0.32397600  0.12442400  1
  S  S4  1  0.50000000  0.15509000  0.86856800  1
  S  S5  1  0.00000000  0.65491100  0.36693400  1
  S  S6  1  0.00000000  0.34508900  0.63306600  1
  S  S7  1  0.50000000  0.84491000  0.13143200  1
loop_
_geom_bond_atom_site_label_1
_geom_bond_atom_site_label_2
_geom_bond_distance
_geom_bond_site_symmetry_2
Cr0 S2 2.366058 1_555
Cr0 S0 2.367945 1_655
Cr0 S0 2.367945 1_555
Cr0 S6 2.425998 1_555
Cr0 S6 2.425998 1_655
Cr0 S4 2.452278 1_555
Cr1 S1 2.326692 1_455
Cr1 S1 2.326692 1_555
Cr1 S5 2.387848 1_545
Cr1 S3 2.408169 1_555
Cr1 S7 2.509897 1_545
Cr1 S7 2.509897 1_445
Cr2 S2 2.326692 1_455
Cr2 S2 2.326692 1_555
Cr2 S6 2.387848 1_565
Cr2 S0 2.408169 1_555
Cr2 S4 2.509897 1_465
Cr2 S4 2.509897 1_565
Cr3 S1 2.366058 1_555
Cr3 S3 2.367945 1_655
Cr3 S3 2.367945 1_555
Cr3 S5 2.425998 1_555
Cr3 S5 2.425998 1_655
Cr3 S7 2.452278 1_555
Cr4 S3 2.389728 1_555
Cr4 S0 2.389728 1_544
Cr4 S7 2.414235 1_545
Cr4 S4 2.414235 1_454
Cr4 S4 2.414235 1_554
Cr4 S7 2.414235 1_445
Ni0 S2 2.363818 1_555
Ni0 S1 2.363818 1_555
Ni0 S6 2.424327 1_555
Ni0 S6 2.424327 1_655
Ni0 S5 2.424327 1_555
Ni0 S5 2.424327 1_655
