# generated using pymatgen
data_Y4Fe13Si2(SbO14)2
_symmetry_space_group_name_H-M   'P 1'
_cell_length_a   12.35917555
_cell_length_b   12.35917555
_cell_length_c   9.42274302
_cell_angle_alpha   87.71630904
_cell_angle_beta   87.71630904
_cell_angle_gamma   153.21057026
_symmetry_Int_Tables_number   1
_chemical_formula_structural   Y4Fe13Si2(SbO14)2
_chemical_formula_sum   'Y4 Fe13 Si2 Sb2 O28'
_cell_volume   639.04958271
_cell_formula_units_Z   1
loop_
 _symmetry_equiv_pos_site_id
 _symmetry_equiv_pos_as_xyz
  1  'x, y, z'
loop_
 _atom_site_type_symbol
 _atom_site_label
 _atom_site_symmetry_multiplicity
 _atom_site_fract_x
 _atom_site_fract_y
 _atom_site_fract_z
 _atom_site_occupancy
  Y  Y0  1  0.07469700  0.48691000  0.65638100  1
  Y  Y1  1  0.51309000  0.92530300  0.34361900  1
  Y  Y2  1  0.92530300  0.51309000  0.34361900  1
  Y  Y3  1  0.48691000  0.07469700  0.65638100  1
  Fe  Fe0  1  0.91791100  0.65587200  0.64581000  1
  Fe  Fe1  1  0.66305400  0.78674900  0.32834700  1
  Fe  Fe2  1  0.34412800  0.08208900  0.35419000  1
  Fe  Fe3  1  0.08208900  0.34412800  0.35419000  1
  Fe  Fe4  1  0.33694600  0.21325100  0.67165300  1
  Fe  Fe5  1  0.28983000  0.71017000  0.00000000  1
  Fe  Fe6  1  0.21325100  0.33694600  0.67165300  1
  Fe  Fe7  1  0.00000000  0.00000000  0.00000000  1
  Fe  Fe8  1  0.42745300  0.57254700  0.00000000  1
  Fe  Fe9  1  0.78674900  0.66305400  0.32834700  1
  Fe  Fe10  1  0.65587200  0.91791100  0.64581000  1
  Fe  Fe11  1  0.57254700  0.42745300  0.00000000  1
  Fe  Fe12  1  0.71017000  0.28983000  0.00000000  1
  Si  Si0  1  0.24885900  0.24885900  0.29394100  1
  Si  Si1  1  0.75114100  0.75114100  0.70605900  1
  Sb  Sb0  1  0.86200000  0.13800000  0.00000000  1
  Sb  Sb1  1  0.13800000  0.86200000  0.00000000  1
  O  O0  1  0.72022800  0.98036100  0.40420100  1
  O  O1  1  0.12726400  0.54686900  0.38802900  1
  O  O2  1  0.95913000  0.95913000  0.34114900  1
  O  O3  1  0.31570500  0.31570500  0.11778500  1
  O  O4  1  0.87273600  0.45313100  0.61197100  1
  O  O5  1  0.27977200  0.01963900  0.59579900  1
  O  O6  1  0.00871500  0.59832100  0.10384700  1
  O  O7  1  0.99128500  0.40167900  0.89615300  1
  O  O8  1  0.68429500  0.68429500  0.88221500  1
  O  O9  1  0.11806300  0.26836600  0.89125500  1
  O  O10  1  0.31184400  0.42169000  0.36103200  1
  O  O11  1  0.01963900  0.27977200  0.59579900  1
  O  O12  1  0.40167900  0.99128500  0.89615300  1
  O  O13  1  0.73163400  0.88193700  0.10874500  1
  O  O14  1  0.57831000  0.68815600  0.63896800  1
  O  O15  1  0.04087000  0.04087000  0.65885100  1
  O  O16  1  0.26836600  0.11806300  0.89125500  1
  O  O17  1  0.88193700  0.73163400  0.10874500  1
  O  O18  1  0.59832100  0.00871500  0.10384700  1
  O  O19  1  0.12460800  0.40291300  0.12036300  1
  O  O20  1  0.87539200  0.59708700  0.87963700  1
  O  O21  1  0.42169000  0.31184400  0.36103200  1
  O  O22  1  0.40291300  0.12460800  0.12036300  1
  O  O23  1  0.54686900  0.12726400  0.38802900  1
  O  O24  1  0.68815600  0.57831000  0.63896800  1
  O  O25  1  0.59708700  0.87539200  0.87963700  1
  O  O26  1  0.98036100  0.72022800  0.40420100  1
  O  O27  1  0.45313100  0.87273600  0.61197100  1
loop_
_geom_bond_atom_site_label_1
_geom_bond_atom_site_label_2
_geom_bond_distance
_geom_bond_site_symmetry_2
Fe0 O24 2.036191 1_555
Fe0 O5 2.049877 1_665
Fe0 O4 2.066919 1_555
Fe0 O20 2.181059 1_555
Fe0 O26 2.242986 1_555
Fe1 O0 1.973289 1_555
Fe1 O2 2.020111 1_555
Fe1 O10 2.027531 1_555
Fe1 O13 2.066451 1_555
Fe2 O21 2.036191 1_555
Fe2 O26 2.049877 1_445
Fe2 O23 2.066919 1_555
Fe2 O22 2.181059 1_555
Fe2 O5 2.242986 1_555
Fe3 O10 2.036191 1_555
Fe3 O0 2.049877 1_445
Fe3 O1 2.066919 1_555
Fe3 O19 2.181059 1_555
Fe3 O11 2.242986 1_555
Fe4 O5 1.973289 1_555
Fe4 O15 2.020111 1_555
Fe4 O24 2.027531 1_555
Fe4 O16 2.066451 1_555
Fe5 O18 2.139519 1_565
Fe5 O7 2.139519 1_454
Fe5 O25 2.346193 1_554
Fe5 O19 2.346193 1_555
Fe5 O12 2.446663 1_554
Fe5 O6 2.446663 1_555
Fe6 O11 1.973289 1_555
Fe6 O15 2.020111 1_555
Fe6 O14 2.027531 1_555
Fe6 O9 2.066451 1_555
Fe7 O13 2.269276 1_445
Fe7 O17 2.269276 1_445
Fe7 O9 2.269276 1_554
Fe7 O16 2.269276 1_554
Fe7 O8 2.278187 1_444
Fe7 O3 2.278187 1_555
Fe8 O13 2.181558 1_555
Fe8 O9 2.181558 1_554
Fe8 O3 2.232864 1_555
Fe8 O8 2.232864 1_554
Fe8 O19 2.270141 1_555
Fe8 O25 2.270141 1_554
Fe9 O26 1.973289 1_555
Fe9 O2 2.020111 1_555
Fe9 O21 2.027531 1_555
Fe9 O17 2.066451 1_555
Fe10 O14 2.036191 1_555
Fe10 O11 2.049877 1_665
Fe10 O27 2.066919 1_555
Fe10 O25 2.181059 1_555
Fe10 O0 2.242986 1_555
Fe11 O17 2.181558 1_555
Fe11 O16 2.181558 1_554
Fe11 O3 2.232864 1_555
Fe11 O8 2.232864 1_554
Fe11 O22 2.270141 1_555
Fe11 O20 2.270141 1_554
Fe12 O6 2.139519 1_655
Fe12 O12 2.139519 1_544
Fe12 O20 2.346193 1_554
Fe12 O22 2.346193 1_555
Fe12 O7 2.446663 1_554
Fe12 O18 2.446663 1_555
O0 Y1 2.092863 1_555
O1 Y1 2.157784 1_555
O1 Y2 2.194654 1_455
O1 Y0 2.495059 1_555
O2 Si0 1.642081 1_665
O3 Si0 1.638023 1_555
O4 Y3 2.157784 1_555
O4 Y0 2.194654 1_655
O4 Y2 2.495059 1_555
O5 Y3 2.092863 1_555
O6 Sb1 2.110798 1_555
O6 Y2 2.227736 1_455
O7 Sb0 2.110798 1_556
O7 Y0 2.227736 1_655
O8 Si1 1.638023 1_555
O9 Sb0 2.041549 1_456
O10 Si0 1.657263 1_555
O11 Y0 2.092863 1_555
O12 Sb1 2.110798 1_556
O12 Y3 2.227736 1_565
O13 Sb0 2.041549 1_565
O14 Si1 1.657263 1_555
O15 Si1 1.642081 1_445
O16 Sb1 2.041549 1_546
O17 Sb1 2.041549 1_655
O18 Sb0 2.110798 1_555
O18 Y1 2.227736 1_545
O19 Sb0 2.038996 1_455
O20 Sb1 2.038996 1_656
O21 Si0 1.657263 1_555
O22 Sb1 2.038996 1_545
O23 Y2 2.157784 1_555
O23 Y1 2.194654 1_545
O23 Y3 2.495059 1_555
O24 Si1 1.657263 1_555
O25 Sb0 2.038996 1_566
O26 Y2 2.092863 1_555
O27 Y0 2.157784 1_555
O27 Y3 2.194654 1_565
O27 Y1 2.495059 1_555
