# generated using pymatgen
data_NiPC5O2
_symmetry_space_group_name_H-M   'P 1'
_cell_length_a   7.12980752
_cell_length_b   10.53796380
_cell_length_c   12.19061500
_cell_angle_alpha   90.00000000
_cell_angle_beta   90.00000000
_cell_angle_gamma   83.76935544
_symmetry_Int_Tables_number   1
_chemical_formula_structural   NiPC5O2
_chemical_formula_sum   'Ni4 P4 C20 O8'
_cell_volume   910.51512542
_cell_formula_units_Z   4
loop_
 _symmetry_equiv_pos_site_id
 _symmetry_equiv_pos_as_xyz
  1  'x, y, z'
loop_
 _atom_site_type_symbol
 _atom_site_label
 _atom_site_symmetry_multiplicity
 _atom_site_fract_x
 _atom_site_fract_y
 _atom_site_fract_z
 _atom_site_occupancy
  Ni  Ni0  1  0.44466100  0.23812200  0.55243200  1
  Ni  Ni1  1  0.94466100  0.73812200  0.94756800  1
  Ni  Ni2  1  0.55533900  0.76187800  0.44756800  1
  Ni  Ni3  1  0.05533900  0.26187800  0.05243200  1
  P  P0  1  0.45533100  0.44946000  0.76276600  1
  P  P1  1  0.95533100  0.94946000  0.73723400  1
  P  P2  1  0.54466900  0.55054000  0.23723400  1
  P  P3  1  0.04466900  0.05054000  0.26276600  1
  C  C0  1  0.42638900  0.36906500  0.63869100  1
  C  C1  1  0.92638900  0.86906500  0.86130900  1
  C  C2  1  0.57361100  0.63093500  0.36130900  1
  C  C3  1  0.07361100  0.13093500  0.13869100  1
  C  C4  1  0.66688200  0.34245000  0.83243600  1
  C  C5  1  0.16688200  0.84245000  0.66756400  1
  C  C6  1  0.33311800  0.65755000  0.16756400  1
  C  C7  1  0.83311800  0.15755000  0.33243600  1
  C  C8  1  0.73642400  0.41455900  0.75271600  1
  C  C9  1  0.23642400  0.91455900  0.74728400  1
  C  C10  1  0.26357600  0.58544100  0.24728400  1
  C  C11  1  0.76357600  0.08544100  0.25271600  1
  C  C12  1  0.68439800  0.54031300  0.73595800  1
  C  C13  1  0.18439800  0.04031300  0.76404200  1
  C  C14  1  0.31560200  0.45968700  0.26404200  1
  C  C15  1  0.81560200  0.95968700  0.23595800  1
  C  C16  1  0.58402600  0.99078100  0.54000400  1
  C  C17  1  0.08402600  0.49078100  0.95999600  1
  C  C18  1  0.41597400  0.00921900  0.45999600  1
  C  C19  1  0.91597400  0.50921900  0.04000400  1
  O  O0  1  0.62310200  0.08928100  0.59113700  1
  O  O1  1  0.12310200  0.58928100  0.90886300  1
  O  O2  1  0.37689800  0.91071900  0.40886300  1
  O  O3  1  0.87689800  0.41071900  0.09113700  1
  O  O4  1  0.33035400  0.12066900  0.45142900  1
  O  O5  1  0.83035400  0.62066900  0.04857100  1
  O  O6  1  0.66964600  0.87933100  0.54857100  1
  O  O7  1  0.16964600  0.37933100  0.95142900  1
loop_
_geom_bond_atom_site_label_1
_geom_bond_atom_site_label_2
_geom_bond_distance
_geom_bond_site_symmetry_2
Ni0 O0 1.966783 1_555
Ni0 O4 1.982718 1_555
Ni1 O1 1.966783 1_655
Ni1 O5 1.982718 1_556
Ni2 O2 1.966783 1_555
Ni2 O6 1.982718 1_555
Ni3 O3 1.966783 1_455
Ni3 O7 1.982718 1_554
C0 Ni0 1.728513 1_555
C0 P0 1.756725 1_555
C1 Ni1 1.728513 1_555
C1 P1 1.756725 1_555
C2 Ni2 1.728513 1_555
C2 P2 1.756725 1_555
C3 Ni3 1.728513 1_555
C3 P3 1.756725 1_555
C4 C8 1.359965 1_555
C4 P0 1.974539 1_555
C5 C9 1.359965 1_555
C5 P1 1.974539 1_455
C6 P2 1.974539 1_555
C7 P3 1.974539 1_655
C8 P0 2.001713 1_555
C9 P1 2.001713 1_455
C10 C14 1.352317 1_555
C10 C6 1.359965 1_555
C10 P2 2.001713 1_555
C11 C15 1.352317 1_545
C11 C7 1.359965 1_555
C11 P3 2.001713 1_655
C12 C8 1.352317 1_555
C12 P0 2.007533 1_555
C13 C9 1.352317 1_545
C13 P1 2.007533 1_445
C14 P2 2.007533 1_555
C15 P3 2.007533 1_665
C16 O0 1.267427 1_565
C16 O6 1.267788 1_555
C17 O1 1.267427 1_555
C17 O7 1.267788 1_555
C18 O2 1.267427 1_545
C18 O4 1.267788 1_555
C19 O3 1.267427 1_555
C19 O5 1.267788 1_555
