# generated using pymatgen
data_Cu3Hg2(Te3O8)2
_symmetry_space_group_name_H-M   'P 1'
_cell_length_a   8.84884300
_cell_length_b   8.84884300
_cell_length_c   11.55788100
_cell_angle_alpha   90.00000000
_cell_angle_beta   90.00000000
_cell_angle_gamma   90.00000000
_symmetry_Int_Tables_number   1
_chemical_formula_structural   Cu3Hg2(Te3O8)2
_chemical_formula_sum   'Cu6 Hg4 Te12 O32'
_cell_volume   905.00545741
_cell_formula_units_Z   2
loop_
 _symmetry_equiv_pos_site_id
 _symmetry_equiv_pos_as_xyz
  1  'x, y, z'
loop_
 _atom_site_type_symbol
 _atom_site_label
 _atom_site_symmetry_multiplicity
 _atom_site_fract_x
 _atom_site_fract_y
 _atom_site_fract_z
 _atom_site_occupancy
  Cu  Cu0  1  0.50000000  0.00000000  0.32305500  1
  Cu  Cu1  1  0.00000000  0.50000000  0.67694500  1
  Cu  Cu2  1  0.00000000  0.50000000  0.39328500  1
  Cu  Cu3  1  0.50000000  0.00000000  0.60671500  1
  Cu  Cu4  1  0.50000000  0.00000000  0.05450000  1
  Cu  Cu5  1  0.00000000  0.50000000  0.94550000  1
  Hg  Hg0  1  0.39494600  0.60505400  0.50000000  1
  Hg  Hg1  1  0.60505400  0.39494600  0.50000000  1
  Hg  Hg2  1  0.89494600  0.89494600  0.50000000  1
  Hg  Hg3  1  0.10505400  0.10505400  0.50000000  1
  Te  Te0  1  0.20493800  0.78171800  0.26782500  1
  Te  Te1  1  0.79506200  0.21828200  0.26782500  1
  Te  Te2  1  0.70493800  0.71828200  0.73217500  1
  Te  Te3  1  0.29506200  0.28171800  0.73217500  1
  Te  Te4  1  0.78171800  0.20493800  0.73217500  1
  Te  Te5  1  0.21828200  0.79506200  0.73217500  1
  Te  Te6  1  0.71828200  0.70493800  0.26782500  1
  Te  Te7  1  0.28171800  0.29506200  0.26782500  1
  Te  Te8  1  0.32469900  0.67530100  0.00000000  1
  Te  Te9  1  0.67530100  0.32469900  0.00000000  1
  Te  Te10  1  0.82469900  0.82469900  0.00000000  1
  Te  Te11  1  0.17530100  0.17530100  0.00000000  1
  O  O0  1  0.40766100  0.80085900  0.32300200  1
  O  O1  1  0.59233900  0.19914100  0.32300200  1
  O  O2  1  0.90766100  0.69914100  0.67699800  1
  O  O3  1  0.09233900  0.30085900  0.67699800  1
  O  O4  1  0.80085900  0.40766100  0.67699800  1
  O  O5  1  0.19914100  0.59233900  0.67699800  1
  O  O6  1  0.69914100  0.90766100  0.32300200  1
  O  O7  1  0.30085900  0.09233900  0.32300200  1
  O  O8  1  0.24209300  0.61256700  0.16582200  1
  O  O9  1  0.75790700  0.38743300  0.16582200  1
  O  O10  1  0.74209300  0.88743300  0.83417800  1
  O  O11  1  0.25790700  0.11256700  0.83417800  1
  O  O12  1  0.61256700  0.24209300  0.83417800  1
  O  O13  1  0.38743300  0.75790700  0.83417800  1
  O  O14  1  0.88743300  0.74209300  0.16582200  1
  O  O15  1  0.11256700  0.25790700  0.16582200  1
  O  O16  1  0.16108000  0.65126700  0.39703600  1
  O  O17  1  0.83892000  0.34873300  0.39703600  1
  O  O18  1  0.66108000  0.84873300  0.60296400  1
  O  O19  1  0.33892000  0.15126700  0.60296400  1
  O  O20  1  0.65126700  0.16108000  0.60296400  1
  O  O21  1  0.34873300  0.83892000  0.60296400  1
  O  O22  1  0.84873300  0.66108000  0.39703600  1
  O  O23  1  0.15126700  0.33892000  0.39703600  1
  O  O24  1  0.31573000  0.87768300  0.06090600  1
  O  O25  1  0.68427000  0.12231700  0.06090600  1
  O  O26  1  0.81573000  0.62231700  0.93909400  1
  O  O27  1  0.18427000  0.37768300  0.93909400  1
  O  O28  1  0.87768300  0.31573000  0.93909400  1
  O  O29  1  0.12231700  0.68427000  0.93909400  1
  O  O30  1  0.62231700  0.81573000  0.06090600  1
  O  O31  1  0.37768300  0.18427000  0.06090600  1
loop_
_geom_bond_atom_site_label_1
_geom_bond_atom_site_label_2
_geom_bond_distance
_geom_bond_site_symmetry_2
Cu0 O1 1.942389 1_555
Cu0 O7 1.942389 1_555
Cu0 O0 1.942389 1_545
Cu0 O6 1.942389 1_545
Cu1 O5 1.942389 1_555
Cu1 O3 1.942389 1_555
Cu1 O4 1.942389 1_455
Cu1 O2 1.942389 1_455
Cu2 O23 1.955824 1_555
Cu2 O16 1.955824 1_555
Cu2 O22 1.955824 1_455
Cu2 O17 1.955824 1_455
Cu3 O19 1.955824 1_555
Cu3 O20 1.955824 1_555
Cu3 O18 1.955824 1_545
Cu3 O21 1.955824 1_545
Cu4 O30 1.958513 1_545
Cu4 O24 1.958513 1_545
Cu4 O31 1.958513 1_555
Cu4 O25 1.958513 1_555
Cu5 O26 1.958513 1_455
Cu5 O28 1.958513 1_455
Cu5 O29 1.958513 1_555
Cu5 O27 1.958513 1_555
Hg0 O16 2.421989 1_555
Hg0 O21 2.421989 1_555
Hg1 O20 2.421989 1_555
Hg1 O17 2.421989 1_555
Hg2 O18 2.421989 1_555
Hg2 O22 2.421989 1_555
Hg3 O19 2.421989 1_555
Hg3 O23 2.421989 1_555
O0 Te0 1.911370 1_555
O1 Te1 1.911370 1_555
O2 Te2 1.911370 1_555
O3 Te3 1.911370 1_555
O4 Te4 1.911370 1_555
O5 Te5 1.911370 1_555
O6 Te6 1.911370 1_555
O7 Te7 1.911370 1_555
O8 Te0 1.933487 1_555
O8 Te8 2.125004 1_555
O9 Te1 1.933487 1_555
O9 Te9 2.125004 1_555
O10 Te2 1.933487 1_555
O10 Te10 2.125004 1_556
O11 Te3 1.933487 1_555
O11 Te11 2.125004 1_556
O12 Te4 1.933487 1_555
O12 Te9 2.125004 1_556
O13 Te5 1.933487 1_555
O13 Te8 2.125004 1_556
O14 Te6 1.933487 1_555
O14 Te10 2.125004 1_555
O15 Te7 1.933487 1_555
O15 Te11 2.125004 1_555
O16 Te0 1.927013 1_555
O17 Te1 1.927013 1_555
O18 Te2 1.927013 1_555
O19 Te3 1.927013 1_555
O20 Te4 1.927013 1_555
O21 Te5 1.927013 1_555
O22 Te6 1.927013 1_555
O23 Te7 1.927013 1_555
O24 Te8 1.925868 1_555
O25 Te9 1.925868 1_555
O26 Te10 1.925868 1_556
O27 Te11 1.925868 1_556
O28 Te9 1.925868 1_556
O29 Te8 1.925868 1_556
O30 Te10 1.925868 1_555
O31 Te11 1.925868 1_555
