# generated using pymatgen
data_Er2Se3
_symmetry_space_group_name_H-M   'P 1'
_cell_length_a   3.92052988
_cell_length_b   3.92052988
_cell_length_c   8.01379622
_cell_angle_alpha   90.00000000
_cell_angle_beta   90.00000000
_cell_angle_gamma   90.00000000
_symmetry_Int_Tables_number   1
_chemical_formula_structural   Er2Se3
_chemical_formula_sum   'Er2 Se3'
_cell_volume   123.17649187
_cell_formula_units_Z   1
loop_
 _symmetry_equiv_pos_site_id
 _symmetry_equiv_pos_as_xyz
  1  'x, y, z'
loop_
 _atom_site_type_symbol
 _atom_site_label
 _atom_site_symmetry_multiplicity
 _atom_site_fract_x
 _atom_site_fract_y
 _atom_site_fract_z
 _atom_site_occupancy
  Er  Er0  1  0.50000000  0.00000000  0.76215758  1
  Er  Er1  1  -0.00000000  0.50000000  0.23784242  1
  Se  Se0  1  0.00000000  0.50000000  0.86525382  1
  Se  Se1  1  0.50000000  -0.00000000  0.13474618  1
  Se  Se2  1  0.50000000  0.50000000  0.50000000  1
loop_
_geom_bond_atom_site_label_1
_geom_bond_atom_site_label_2
_geom_bond_distance
_geom_bond_site_symmetry_2
Er0 Se2 2.873382 1_545
Er0 Se2 2.873382 1_555
Er0 Se0 2.892727 1_545
Er0 Se0 2.892727 1_655
Er0 Se0 2.892727 1_645
Er0 Se0 2.892727 1_555
Er0 Se1 2.985849 1_556
Er1 Se2 2.873382 1_455
Er1 Se2 2.873382 1_555
Er1 Se1 2.892727 1_565
Er1 Se1 2.892727 1_455
Er1 Se1 2.892727 1_555
Er1 Se1 2.892727 1_465
Er1 Se0 2.985849 1_554
