# generated using pymatgen
data_Na5BrCl4
_symmetry_space_group_name_H-M   'P 1'
_cell_length_a   16.52603633
_cell_length_b   16.52603633
_cell_length_c   16.52603640
_cell_angle_alpha   13.93561993
_cell_angle_beta   13.93561993
_cell_angle_gamma   13.93561962
_symmetry_Int_Tables_number   1
_chemical_formula_structural   Na5BrCl4
_chemical_formula_sum   'Na5 Br1 Cl4'
_cell_volume   227.82364907
_cell_formula_units_Z   1
loop_
 _symmetry_equiv_pos_site_id
 _symmetry_equiv_pos_as_xyz
  1  'x, y, z'
loop_
 _atom_site_type_symbol
 _atom_site_label
 _atom_site_symmetry_multiplicity
 _atom_site_fract_x
 _atom_site_fract_y
 _atom_site_fract_z
 _atom_site_occupancy
  Na  Na0  1  0.60133973  0.60133973  0.60133973  1
  Na  Na1  1  0.00000000  0.00000000  0.00000000  1
  Na  Na2  1  0.39866027  0.39866027  0.39866027  1
  Na  Na3  1  0.20288627  0.20288627  0.20288627  1
  Na  Na4  1  0.79711373  0.79711373  0.79711373  1
  Br  Br0  1  0.50000000  0.50000000  0.50000000  1
  Cl  Cl0  1  0.09786147  0.09786147  0.09786147  1
  Cl  Cl1  1  0.69937586  0.69937586  0.69937586  1
  Cl  Cl2  1  0.30062414  0.30062414  0.30062414  1
  Cl  Cl3  1  0.90213853  0.90213853  0.90213853  1
loop_
_geom_bond_atom_site_label_1
_geom_bond_atom_site_label_2
_geom_bond_distance
_geom_bond_site_symmetry_2
Br0 Na4 2.918944 1_545
Br0 Na3 2.918944 1_565
Br0 Na3 2.918944 1_655
Br0 Na4 2.918944 1_455
Br0 Na3 2.918944 1_556
Br0 Na4 2.918944 1_554
Cl0 Na2 2.812417 1_545
Cl0 Na2 2.812417 1_455
Cl0 Na2 2.812417 1_554
Cl0 Na4 2.813841 1_544
Cl0 Na4 2.813841 1_454
Cl0 Na4 2.813841 1_445
Cl1 Na2 2.814739 1_655
Cl1 Na2 2.814739 1_565
Cl1 Na2 2.814739 1_556
Cl1 Na1 2.817295 1_566
Cl1 Na1 2.817295 1_656
Cl1 Na1 2.817295 1_665
Cl2 Na0 2.814739 1_455
Cl2 Na0 2.814739 1_545
Cl2 Na0 2.814739 1_554
Cl2 Na1 2.817295 1_565
Cl2 Na1 2.817295 1_655
Cl2 Na1 2.817295 1_556
Cl3 Na0 2.812417 1_565
Cl3 Na0 2.812417 1_655
Cl3 Na0 2.812417 1_556
Cl3 Na3 2.813841 1_566
Cl3 Na3 2.813841 1_656
Cl3 Na3 2.813841 1_665
