# generated using pymatgen
data_Sr2YbBiO6
_symmetry_space_group_name_H-M   'P 1'
_cell_length_a   5.95325044
_cell_length_b   6.13182500
_cell_length_c   8.48194543
_cell_angle_alpha   90.00000000
_cell_angle_beta   89.28146003
_cell_angle_gamma   90.00000000
_symmetry_Int_Tables_number   1
_chemical_formula_structural   Sr2YbBiO6
_chemical_formula_sum   'Sr4 Yb2 Bi2 O12'
_cell_volume   309.60304671
_cell_formula_units_Z   2
loop_
 _symmetry_equiv_pos_site_id
 _symmetry_equiv_pos_as_xyz
  1  'x, y, z'
loop_
 _atom_site_type_symbol
 _atom_site_label
 _atom_site_symmetry_multiplicity
 _atom_site_fract_x
 _atom_site_fract_y
 _atom_site_fract_z
 _atom_site_occupancy
  Sr  Sr0  1  0.01545200  0.44884300  0.25479900  1
  Sr  Sr1  1  0.98454800  0.55115700  0.74520100  1
  Sr  Sr2  1  0.48454800  0.94884300  0.24520100  1
  Sr  Sr3  1  0.51545200  0.05115700  0.75479900  1
  Yb  Yb0  1  0.00000000  0.00000000  0.50000000  1
  Yb  Yb1  1  0.50000000  0.50000000  0.00000000  1
  Bi  Bi0  1  0.00000000  0.00000000  0.00000000  1
  Bi  Bi1  1  0.50000000  0.50000000  0.50000000  1
  O  O0  1  0.89944000  0.04096700  0.24131700  1
  O  O1  1  0.10056000  0.95903300  0.75868300  1
  O  O2  1  0.60056000  0.54096700  0.25868300  1
  O  O3  1  0.39944000  0.45903300  0.74131700  1
  O  O4  1  0.19496800  0.71884900  0.05856000  1
  O  O5  1  0.80503200  0.28115100  0.94144000  1
  O  O6  1  0.30503200  0.21884900  0.44144000  1
  O  O7  1  0.69496800  0.78115100  0.55856000  1
  O  O8  1  0.28722700  0.19652700  0.04607600  1
  O  O9  1  0.71277300  0.80347300  0.95392400  1
  O  O10  1  0.21277300  0.69652700  0.45392400  1
  O  O11  1  0.78722700  0.30347300  0.54607600  1
loop_
_geom_bond_atom_site_label_1
_geom_bond_atom_site_label_2
_geom_bond_distance
_geom_bond_site_symmetry_2
Bi0 O8 2.132033 1_555
Bi0 O9 2.132033 1_444
Bi0 O1 2.140165 1_544
Bi0 O0 2.140165 1_455
Bi0 O5 2.140199 1_454
Bi0 O4 2.140199 1_545
Bi1 O11 2.132033 1_555
Bi1 O10 2.132033 1_555
Bi1 O2 2.140165 1_555
Bi1 O3 2.140165 1_555
Bi1 O6 2.140199 1_555
Bi1 O7 2.140199 1_555
O0 Yb0 2.295358 1_655
O0 Sr2 2.533540 1_545
O0 Sr0 2.597533 1_655
O1 Yb0 2.295358 1_565
O1 Sr3 2.533540 1_565
O1 Sr1 2.597533 1_455
O2 Yb1 2.295358 1_555
O2 Sr0 2.533540 1_655
O2 Sr2 2.597533 1_555
O3 Yb1 2.295358 1_556
O3 Sr1 2.533540 1_455
O3 Sr3 2.597533 1_555
O4 Yb1 2.307057 1_555
O4 Sr0 2.570825 1_555
O4 Sr2 2.745080 1_555
O4 Sr1 3.126410 1_454
O5 Yb1 2.307057 1_556
O5 Sr1 2.570825 1_555
O5 Sr3 2.745080 1_555
O5 Sr0 3.126410 1_656
O6 Yb0 2.307057 1_555
O6 Sr2 2.570825 1_545
O6 Sr0 2.745080 1_555
O6 Sr3 3.126410 1_555
O7 Yb0 2.307057 1_665
O7 Sr3 2.570825 1_565
O7 Sr1 2.745080 1_555
O7 Sr2 3.126410 1_555
O8 Yb1 2.282009 1_555
O8 Sr2 2.566888 1_545
O8 Sr0 2.841449 1_555
O8 Sr3 2.942827 1_554
O9 Yb1 2.282009 1_556
O9 Sr3 2.566888 1_565
O9 Sr1 2.841449 1_555
O9 Sr2 2.942827 1_556
O10 Yb0 2.282009 1_565
O10 Sr0 2.566888 1_555
O10 Sr2 2.841449 1_555
O10 Sr1 2.942827 1_455
O11 Yb0 2.282009 1_655
O11 Sr1 2.566888 1_555
O11 Sr3 2.841449 1_555
O11 Sr0 2.942827 1_655
