# generated using pymatgen
data_Mg3(BiN2)2
_symmetry_space_group_name_H-M   'P 1'
_cell_length_a   7.17090760
_cell_length_b   10.47110873
_cell_length_c   5.45814679
_cell_angle_alpha   89.99999991
_cell_angle_beta   97.73683592
_cell_angle_gamma   136.89564878
_symmetry_Int_Tables_number   1
_chemical_formula_structural   Mg3(BiN2)2
_chemical_formula_sum   'Mg6 Bi4 N8'
_cell_volume   274.56544751
_cell_formula_units_Z   2
loop_
 _symmetry_equiv_pos_site_id
 _symmetry_equiv_pos_as_xyz
  1  'x, y, z'
loop_
 _atom_site_type_symbol
 _atom_site_label
 _atom_site_symmetry_multiplicity
 _atom_site_fract_x
 _atom_site_fract_y
 _atom_site_fract_z
 _atom_site_occupancy
  Mg  Mg0  1  0.22013592  0.02893280  0.14245212  1
  Mg  Mg1  1  0.77986408  0.80879688  0.35754788  1
  Mg  Mg2  1  0.77986408  0.97106720  0.85754788  1
  Mg  Mg3  1  0.22013592  0.19120312  0.64245212  1
  Mg  Mg4  1  0.00000000  0.72435398  0.75000000  1
  Mg  Mg5  1  1.00000000  0.27564602  0.25000000  1
  Bi  Bi0  1  0.64294829  0.20615679  0.69694749  1
  Bi  Bi1  1  0.35705171  0.56320850  0.80305251  1
  Bi  Bi2  1  0.35705171  0.79384321  0.30305251  1
  Bi  Bi3  1  0.64294829  0.43679150  0.19694749  1
  N  N0  1  0.18800907  0.97227964  0.53471586  1
  N  N1  1  0.81199093  0.78427056  0.96528414  1
  N  N2  1  0.81199093  0.02772036  0.46528414  1
  N  N3  1  0.18800907  0.21572944  0.03471586  1
  N  N4  1  0.63948378  0.21793022  0.11424680  1
  N  N5  1  0.36051622  0.57844644  0.38575320  1
  N  N6  1  0.36051622  0.78206978  0.88575320  1
  N  N7  1  0.63948378  0.42155356  0.61424680  1
loop_
_geom_bond_atom_site_label_1
_geom_bond_atom_site_label_2
_geom_bond_distance
_geom_bond_site_symmetry_2
Mg0 N1 2.086507 1_444
Mg0 N4 2.101808 1_555
Mg0 N3 2.201408 1_555
Mg0 N0 2.218615 1_545
Mg1 N0 2.086507 1_655
Mg1 N5 2.101808 1_555
Mg1 N2 2.201408 1_565
Mg1 N1 2.218615 1_554
Mg2 N3 2.086507 1_666
Mg2 N6 2.101808 1_555
Mg2 N1 2.201408 1_555
Mg2 N2 2.218615 1_565
Mg3 N2 2.086507 1_455
Mg3 N7 2.101808 1_555
Mg3 N0 2.201408 1_545
Mg3 N3 2.218615 1_556
Mg4 N6 2.191003 1_555
Mg4 N7 2.191003 1_455
Mg4 N1 2.292088 1_455
Mg4 N0 2.292088 1_555
Mg5 N4 2.191003 1_555
Mg5 N5 2.191003 1_655
Mg5 N3 2.292088 1_655
Mg5 N2 2.292088 1_555
Bi0 N0 2.231665 1_545
Bi0 N4 2.285466 1_556
Bi0 N7 2.317369 1_555
Bi1 N1 2.231665 1_555
Bi1 N5 2.285466 1_555
Bi1 N6 2.317369 1_555
Bi2 N2 2.231665 1_565
Bi2 N6 2.285466 1_554
Bi2 N5 2.317369 1_555
Bi3 N3 2.231665 1_555
Bi3 N7 2.285466 1_555
Bi3 N4 2.317369 1_555
