# generated using pymatgen
data_Nd5Ti4GaO17
_symmetry_space_group_name_H-M   'P 1'
_cell_length_a   5.50858100
_cell_length_b   7.73641400
_cell_length_c   32.06560684
_cell_angle_alpha   82.95373753
_cell_angle_beta   90.00000000
_cell_angle_gamma   90.00000000
_symmetry_Int_Tables_number   1
_chemical_formula_structural   Nd5Ti4GaO17
_chemical_formula_sum   'Nd20 Ti16 Ga4 O68'
_cell_volume   1356.20835456
_cell_formula_units_Z   4
loop_
 _symmetry_equiv_pos_site_id
 _symmetry_equiv_pos_as_xyz
  1  'x, y, z'
loop_
 _atom_site_type_symbol
 _atom_site_label
 _atom_site_symmetry_multiplicity
 _atom_site_fract_x
 _atom_site_fract_y
 _atom_site_fract_z
 _atom_site_occupancy
  Nd  Nd0  1  0.23627100  0.78017900  0.91795800  1
  Nd  Nd1  1  0.72993700  0.21369800  0.58098500  1
  Nd  Nd2  1  0.27006300  0.21369800  0.08098500  1
  Nd  Nd3  1  0.76372900  0.78017900  0.41795800  1
  Nd  Nd4  1  0.25175000  0.30327000  0.90299300  1
  Nd  Nd5  1  0.74644400  0.70059900  0.59600000  1
  Nd  Nd6  1  0.25355600  0.70059900  0.09600000  1
  Nd  Nd7  1  0.74825000  0.30327000  0.40299300  1
  Nd  Nd8  1  0.76071600  0.74264900  0.00602300  1
  Nd  Nd9  1  0.26028400  0.26165300  0.49133100  1
  Nd  Nd10  1  0.73971600  0.26165300  0.99133100  1
  Nd  Nd11  1  0.23928400  0.74264900  0.50602300  1
  Nd  Nd12  1  0.12351000  0.14277000  0.72154600  1
  Nd  Nd13  1  0.63030500  0.85376000  0.77982800  1
  Nd  Nd14  1  0.36969500  0.85376000  0.27982800  1
  Nd  Nd15  1  0.87649000  0.14277000  0.22154600  1
  Nd  Nd16  1  0.18536400  0.64182800  0.70335000  1
  Nd  Nd17  1  0.70162000  0.35802500  0.80174700  1
  Nd  Nd18  1  0.29838000  0.35802500  0.30174700  1
  Nd  Nd19  1  0.81463600  0.64182800  0.20335000  1
  Ti  Ti0  1  0.74016400  0.04645100  0.90623400  1
  Ti  Ti1  1  0.23076000  0.95239100  0.59284100  1
  Ti  Ti2  1  0.76924000  0.95239100  0.09284100  1
  Ti  Ti3  1  0.25983600  0.04645100  0.40623400  1
  Ti  Ti4  1  0.19905100  0.59527300  0.82213800  1
  Ti  Ti5  1  0.68333100  0.40616200  0.67917900  1
  Ti  Ti6  1  0.31666900  0.40616200  0.17917900  1
  Ti  Ti7  1  0.80094900  0.59527300  0.32213800  1
  Ti  Ti8  1  0.20125500  0.08220600  0.82320200  1
  Ti  Ti9  1  0.69128700  0.92110300  0.67664800  1
  Ti  Ti10  1  0.30871300  0.92110300  0.17664800  1
  Ti  Ti11  1  0.79874500  0.08220600  0.32320200  1
  Ti  Ti12  1  0.25336100  0.00251600  0.99892800  1
  Ti  Ti13  1  0.74663900  0.00251600  0.49892800  1
  Ti  Ti14  1  0.23286800  0.45585300  0.59368900  1
  Ti  Ti15  1  0.76713200  0.45585300  0.09368900  1
  Ga  Ga0  1  0.25203900  0.49999500  0.99958100  1
  Ga  Ga1  1  0.74796100  0.49999500  0.49958100  1
  Ga  Ga2  1  0.73483700  0.54677700  0.90543400  1
  Ga  Ga3  1  0.26516300  0.54677700  0.40543400  1
  O  O0  1  0.33216000  0.75654800  0.99704900  1
  O  O1  1  0.83718000  0.24477500  0.50460200  1
  O  O2  1  0.16282000  0.24477500  0.00460200  1
  O  O3  1  0.66784000  0.75654800  0.49704900  1
  O  O4  1  0.46459900  0.48356400  0.94852700  1
  O  O5  1  0.96778600  0.51683400  0.55186300  1
  O  O6  1  0.03221400  0.51683400  0.05186300  1
  O  O7  1  0.53540100  0.48356400  0.44852700  1
  O  O8  1  0.40207600  0.59242200  0.77333600  1
  O  O9  1  0.89289400  0.40347500  0.72634200  1
  O  O10  1  0.10710600  0.40347500  0.22634200  1
  O  O11  1  0.59792400  0.59242200  0.27333600  1
  O  O12  1  0.53077000  0.03050800  0.03585400  1
  O  O13  1  0.03310800  0.97558600  0.46482300  1
  O  O14  1  0.96689200  0.97558600  0.96482300  1
  O  O15  1  0.46923000  0.03050800  0.53585400  1
  O  O16  1  0.41851100  0.13344200  0.77917500  1
  O  O17  1  0.91237100  0.87108300  0.72057100  1
  O  O18  1  0.08762900  0.87108300  0.22057100  1
  O  O19  1  0.58148900  0.13344200  0.27917500  1
  O  O20  1  0.66974300  0.79843700  0.91292200  1
  O  O21  1  0.17000000  0.20488700  0.58986400  1
  O  O22  1  0.83000000  0.20488700  0.08986400  1
  O  O23  1  0.33025700  0.79843700  0.41292200  1
  O  O24  1  0.39397300  0.37076400  0.70283200  1
  O  O25  1  0.91326300  0.63113900  0.79531000  1
  O  O26  1  0.08673700  0.63113900  0.29531000  1
  O  O27  1  0.60602700  0.37076400  0.20283200  1
  O  O28  1  0.53188800  0.43620600  0.03589300  1
  O  O29  1  0.03112000  0.56209500  0.46470700  1
  O  O30  1  0.96888000  0.56209500  0.96470700  1
  O  O31  1  0.46811200  0.43620600  0.53589300  1
  O  O32  1  0.13301400  0.33200200  0.82903900  1
  O  O33  1  0.64703100  0.66368500  0.67117700  1
  O  O34  1  0.35296900  0.66368500  0.17117700  1
  O  O35  1  0.86698600  0.33200200  0.32903900  1
  O  O36  1  0.03697700  0.87154500  0.63695600  1
  O  O37  1  0.53710800  0.12472600  0.86270900  1
  O  O38  1  0.46289200  0.12472600  0.36270900  1
  O  O39  1  0.96302300  0.87154500  0.13695600  1
  O  O40  1  0.82317300  0.28527300  0.91828800  1
  O  O41  1  0.32330200  0.71101800  0.58051900  1
  O  O42  1  0.67669800  0.71101800  0.08051900  1
  O  O43  1  0.17682700  0.28527300  0.41828800  1
  O  O44  1  0.55010800  0.42081200  0.61878200  1
  O  O45  1  0.05041400  0.58127600  0.88056400  1
  O  O46  1  0.94958600  0.58127600  0.38056400  1
  O  O47  1  0.44989200  0.42081200  0.11878200  1
  O  O48  1  0.46008200  0.06961400  0.95028200  1
  O  O49  1  0.96535800  0.93145900  0.55074300  1
  O  O50  1  0.03464200  0.93145900  0.05074300  1
  O  O51  1  0.53991800  0.06961400  0.45028200  1
  O  O52  1  0.04089100  0.49235000  0.63794800  1
  O  O53  1  0.52315900  0.50709200  0.85930800  1
  O  O54  1  0.47684100  0.50709200  0.35930800  1
  O  O55  1  0.95910900  0.49235000  0.13794800  1
  O  O56  1  0.42415200  0.91655400  0.71117200  1
  O  O57  1  0.93054900  0.07807300  0.78939800  1
  O  O58  1  0.06945100  0.07807300  0.28939800  1
  O  O59  1  0.57584800  0.91655400  0.21117200  1
  O  O60  1  0.29351300  0.83500100  0.82945800  1
  O  O61  1  0.78400400  0.16589300  0.67017700  1
  O  O62  1  0.21599600  0.16589300  0.17017700  1
  O  O63  1  0.70648700  0.83500100  0.32945800  1
  O  O64  1  0.54784200  0.96260800  0.61884500  1
  O  O65  1  0.05163900  0.03209700  0.88132800  1
  O  O66  1  0.94836100  0.03209700  0.38132800  1
  O  O67  1  0.45215800  0.96260800  0.11884500  1
loop_
_geom_bond_atom_site_label_1
_geom_bond_atom_site_label_2
_geom_bond_distance
_geom_bond_site_symmetry_2
Nd0 O45 2.303586 1_555
Nd0 O65 2.377133 1_565
Nd0 O20 2.396267 1_555
Nd0 O0 2.574973 1_555
Nd0 O30 2.577357 1_455
Nd0 O4 2.693835 1_555
Nd0 O14 2.702401 1_455
Nd0 O60 2.834989 1_555
Nd0 O48 2.859665 1_565
Nd1 O44 2.343945 1_555
Nd1 O64 2.382196 1_545
Nd1 O21 2.440761 1_655
Nd1 O1 2.502246 1_555
Nd1 O31 2.554101 1_555
Nd1 O15 2.582333 1_555
Nd1 O5 2.747957 1_555
Nd1 O49 2.812365 1_545
Nd1 O61 2.854042 1_555
Nd2 O47 2.343945 1_555
Nd2 O67 2.382196 1_545
Nd2 O22 2.440761 1_455
Nd2 O2 2.502246 1_555
Nd2 O28 2.554101 1_555
Nd2 O12 2.582333 1_555
Nd2 O6 2.747957 1_555
Nd2 O50 2.812365 1_545
Nd2 O62 2.854042 1_555
Nd3 O46 2.303586 1_555
Nd3 O66 2.377133 1_565
Nd3 O23 2.396267 1_555
Nd3 O3 2.574973 1_555
Nd3 O29 2.577357 1_655
Nd3 O7 2.693835 1_555
Nd3 O13 2.702401 1_655
Nd3 O63 2.834989 1_555
Nd3 O51 2.859665 1_565
Nd4 O40 2.411801 1_455
Nd4 O4 2.439624 1_555
Nd4 O32 2.443631 1_555
Nd4 O45 2.448184 1_555
Nd4 O53 2.478307 1_555
Nd4 O48 2.492283 1_555
Nd4 O65 2.540967 1_555
Nd4 O37 2.546607 1_555
Nd5 O41 2.382489 1_555
Nd5 O44 2.449632 1_555
Nd5 O5 2.450406 1_555
Nd5 O33 2.454287 1_555
Nd5 O49 2.472686 1_555
Nd5 O64 2.491295 1_555
Nd5 O36 2.541890 1_655
Nd5 O52 2.550308 1_655
Nd6 O42 2.382489 1_555
Nd6 O47 2.449632 1_555
Nd6 O6 2.450406 1_555
Nd6 O34 2.454287 1_555
Nd6 O50 2.472686 1_555
Nd6 O67 2.491295 1_555
Nd6 O39 2.541890 1_455
Nd6 O55 2.550308 1_455
Nd7 O43 2.411801 1_655
Nd7 O7 2.439624 1_555
Nd7 O35 2.443631 1_555
Nd7 O46 2.448184 1_555
Nd7 O54 2.478307 1_555
Nd7 O51 2.492283 1_555
Nd7 O66 2.540967 1_555
Nd7 O38 2.546607 1_555
Nd8 O30 2.339922 1_554
Nd8 O0 2.379043 1_554
Nd8 O14 2.387188 1_554
Nd8 O42 2.415956 1_555
Nd8 O6 2.611377 1_655
Nd8 O50 2.642115 1_655
Nd8 O28 2.751315 1_555
Nd8 O12 2.828710 1_565
Nd9 O1 2.369953 1_455
Nd9 O43 2.371812 1_555
Nd9 O31 2.376860 1_555
Nd9 O15 2.436067 1_555
Nd9 O7 2.559274 1_555
Nd9 O51 2.606223 1_555
Nd9 O29 2.690379 1_555
Nd9 O13 2.765505 1_545
Nd10 O2 2.369953 1_656
Nd10 O40 2.371812 1_555
Nd10 O28 2.376860 1_556
Nd10 O12 2.436067 1_556
Nd10 O4 2.559274 1_555
Nd10 O48 2.606223 1_555
Nd10 O30 2.690379 1_555
Nd10 O14 2.765505 1_545
Nd11 O29 2.339922 1_555
Nd11 O3 2.379043 1_555
Nd11 O13 2.387188 1_555
Nd11 O41 2.415956 1_555
Nd11 O5 2.611377 1_455
Nd11 O49 2.642115 1_455
Nd11 O31 2.751315 1_555
Nd11 O15 2.828710 1_565
Nd12 O24 2.330516 1_555
Nd12 O9 2.404486 1_455
Nd12 O17 2.405776 1_445
Nd12 O57 2.418043 1_455
Nd12 O16 2.455199 1_555
Nd12 O56 2.461512 1_545
Nd12 O61 2.484057 1_455
Nd13 O25 2.330771 1_555
Nd13 O8 2.411419 1_555
Nd13 O60 2.436994 1_555
Nd13 O57 2.443727 1_565
Nd13 O17 2.445435 1_555
Nd13 O16 2.456059 1_565
Nd13 O56 2.471803 1_555
Nd14 O26 2.330771 1_555
Nd14 O11 2.411419 1_555
Nd14 O63 2.436994 1_555
Nd14 O58 2.443727 1_565
Nd14 O18 2.445435 1_555
Nd14 O19 2.456059 1_565
Nd14 O59 2.471803 1_555
Nd15 O27 2.330516 1_555
Nd15 O10 2.404486 1_655
Nd15 O18 2.405776 1_645
Nd15 O58 2.418043 1_655
Nd15 O19 2.455199 1_555
Nd15 O59 2.461512 1_545
Nd15 O62 2.484057 1_655
Nd16 O24 2.393119 1_555
Nd16 O17 2.439741 1_455
Nd16 O9 2.491175 1_455
Nd16 O8 2.529215 1_555
Nd16 O56 2.537958 1_555
Nd16 O52 2.638890 1_555
Nd16 O36 2.725942 1_555
Nd16 O33 2.741824 1_555
Nd17 O25 2.399846 1_555
Nd17 O53 2.495062 1_555
Nd17 O16 2.506654 1_555
Nd17 O32 2.531856 1_655
Nd17 O8 2.536875 1_555
Nd17 O57 2.578432 1_555
Nd17 O9 2.621355 1_555
Nd17 O37 2.652258 1_555
Nd18 O26 2.399846 1_555
Nd18 O54 2.495062 1_555
Nd18 O19 2.506654 1_555
Nd18 O35 2.531856 1_455
Nd18 O11 2.536875 1_555
Nd18 O58 2.578432 1_555
Nd18 O10 2.621355 1_555
Nd18 O38 2.652258 1_555
Nd19 O27 2.393119 1_555
Nd19 O18 2.439741 1_655
Nd19 O10 2.491175 1_655
Nd19 O11 2.529215 1_555
Nd19 O59 2.537958 1_555
Nd19 O55 2.638890 1_555
Nd19 O39 2.725942 1_555
Nd19 O34 2.741824 1_555
Ga0 O30 1.944863 1_455
Ga0 O28 1.958253 1_556
Ga0 O2 2.021898 1_556
Ga0 O0 2.025162 1_555
Ga0 O4 2.029348 1_555
Ga0 O6 2.085039 1_556
Ga1 O29 1.944863 1_655
Ga1 O31 1.958253 1_555
Ga1 O1 2.021898 1_555
Ga1 O3 2.025162 1_555
Ga1 O7 2.029348 1_555
Ga1 O5 2.085039 1_555
Ga2 O45 1.917537 1_655
Ga2 O53 1.937252 1_555
Ga2 O20 2.022750 1_555
Ga2 O4 2.049088 1_555
Ga2 O40 2.072447 1_555
Ga2 O30 2.311673 1_555
Ga3 O46 1.917537 1_455
Ga3 O54 1.937252 1_555
Ga3 O23 2.022750 1_555
Ga3 O7 2.049088 1_555
Ga3 O43 2.072447 1_555
Ga3 O29 2.311673 1_555
O0 Ti12 1.959909 1_565
O1 Ti13 1.969315 1_555
O2 Ti12 1.969315 1_554
O3 Ti13 1.959909 1_565
O5 Ti14 1.999587 1_655
O6 Ti15 1.999587 1_455
O8 Ti4 1.925755 1_555
O9 Ti5 1.900639 1_555
O10 Ti6 1.900639 1_555
O11 Ti7 1.925755 1_555
O12 Ti12 1.961370 1_554
O12 Ti2 2.271350 1_545
O13 Ti13 1.945627 1_465
O13 Ti3 2.266546 1_565
O14 Ti12 1.945627 1_665
O14 Ti0 2.266546 1_565
O15 Ti13 1.961370 1_555
O15 Ti1 2.271350 1_545
O16 Ti8 1.856108 1_555
O17 Ti9 1.866241 1_555
O18 Ti10 1.866241 1_555
O19 Ti11 1.856108 1_555
O20 Ti0 1.943471 1_565
O21 Ti1 1.972616 1_545
O21 Ti14 1.990759 1_555
O22 Ti2 1.972616 1_545
O22 Ti15 1.990759 1_555
O23 Ti3 1.943471 1_565
O24 Ti5 1.771994 1_555
O25 Ti4 1.799124 1_655
O26 Ti7 1.799124 1_455
O27 Ti6 1.771994 1_555
O28 Ti15 2.281678 1_555
O31 Ti14 2.281678 1_555
O32 Ti8 1.999934 1_555
O32 Ti4 2.054061 1_555
O33 Ti5 1.987380 1_555
O33 Ti9 2.035182 1_555
O34 Ti6 1.987380 1_555
O34 Ti10 2.035182 1_555
O35 Ti11 1.999934 1_555
O35 Ti7 2.054061 1_555
O36 Ti1 1.820616 1_555
O36 Ti9 2.347939 1_455
O37 Ti0 1.832585 1_555
O37 Ti8 2.288677 1_555
O38 Ti3 1.832585 1_555
O38 Ti11 2.288677 1_555
O39 Ti2 1.820616 1_555
O39 Ti10 2.347939 1_655
O40 Ti0 1.986810 1_555
O41 Ti1 2.020901 1_555
O41 Ti14 2.029507 1_555
O42 Ti2 2.020901 1_555
O42 Ti15 2.029507 1_555
O43 Ti3 1.986810 1_555
O44 Ti14 1.929066 1_555
O44 Ti5 2.061125 1_555
O45 Ti4 2.035245 1_555
O46 Ti7 2.035245 1_555
O47 Ti15 1.929066 1_555
O47 Ti6 2.061125 1_555
O48 Ti12 1.949540 1_555
O48 Ti0 2.114132 1_555
O49 Ti1 2.009848 1_655
O49 Ti13 2.071291 1_565
O50 Ti2 2.009848 1_455
O50 Ti12 2.071291 1_564
O51 Ti13 1.949540 1_555
O51 Ti3 2.114132 1_555
O52 Ti14 1.819476 1_555
O52 Ti5 2.419871 1_455
O53 Ti4 2.207726 1_555
O54 Ti7 2.207726 1_555
O55 Ti15 1.819476 1_555
O55 Ti6 2.419871 1_655
O56 Ti9 1.839189 1_555
O57 Ti8 1.846120 1_655
O58 Ti11 1.846120 1_455
O59 Ti10 1.839189 1_555
O60 Ti8 1.965191 1_565
O60 Ti4 1.967824 1_555
O61 Ti9 1.947811 1_545
O61 Ti5 1.994422 1_555
O62 Ti10 1.947811 1_545
O62 Ti6 1.994422 1_555
O63 Ti11 1.965191 1_565
O63 Ti7 1.967824 1_555
O64 Ti1 1.941278 1_555
O64 Ti9 2.004218 1_555
O65 Ti0 1.901529 1_455
O65 Ti8 2.031303 1_555
O66 Ti3 1.901529 1_655
O66 Ti11 2.031303 1_555
O67 Ti2 1.941278 1_555
O67 Ti10 2.004218 1_555
