# generated using pymatgen
data_PuTeSO7
_symmetry_space_group_name_H-M   'P 1'
_cell_length_a   13.74383100
_cell_length_b   5.55564300
_cell_length_c   7.62497898
_cell_angle_alpha   71.05840431
_cell_angle_beta   90.00000000
_cell_angle_gamma   90.00000000
_symmetry_Int_Tables_number   1
_chemical_formula_structural   PuTeSO7
_chemical_formula_sum   'Pu4 Te4 S4 O28'
_cell_volume   550.68472954
_cell_formula_units_Z   4
loop_
 _symmetry_equiv_pos_site_id
 _symmetry_equiv_pos_as_xyz
  1  'x, y, z'
loop_
 _atom_site_type_symbol
 _atom_site_label
 _atom_site_symmetry_multiplicity
 _atom_site_fract_x
 _atom_site_fract_y
 _atom_site_fract_z
 _atom_site_occupancy
  Pu  Pu0  1  0.13228500  0.41352300  0.41454600  1
  Pu  Pu1  1  0.63228500  0.08647700  0.58545400  1
  Pu  Pu2  1  0.86771500  0.58647700  0.58545400  1
  Pu  Pu3  1  0.36771500  0.91352300  0.41454600  1
  Te  Te0  1  0.12681300  0.72784100  0.73805700  1
  Te  Te1  1  0.62681300  0.77215900  0.26194300  1
  Te  Te2  1  0.87318700  0.27215900  0.26194300  1
  Te  Te3  1  0.37318700  0.22784100  0.73805700  1
  S  S0  1  0.13831200  0.10207300  0.12289300  1
  S  S1  1  0.63831200  0.39792700  0.87710700  1
  S  S2  1  0.86168800  0.89792700  0.87710700  1
  S  S3  1  0.36168800  0.60207300  0.12289300  1
  O  O0  1  0.22106800  0.66930000  0.57072400  1
  O  O1  1  0.72106800  0.83070000  0.42927600  1
  O  O2  1  0.77893200  0.33070000  0.42927600  1
  O  O3  1  0.27893200  0.16930000  0.57072400  1
  O  O4  1  0.21842500  0.13109300  0.25210600  1
  O  O5  1  0.71842500  0.36890700  0.74789400  1
  O  O6  1  0.78157500  0.86890700  0.74789400  1
  O  O7  1  0.28157500  0.63109300  0.25210600  1
  O  O8  1  0.04147100  0.54414100  0.62924300  1
  O  O9  1  0.54147100  0.95585900  0.37075700  1
  O  O10  1  0.95852900  0.45585900  0.37075700  1
  O  O11  1  0.45852900  0.04414100  0.62924300  1
  O  O12  1  0.06498900  0.29369200  0.14292400  1
  O  O13  1  0.56498900  0.20630800  0.85707600  1
  O  O14  1  0.93501100  0.70630800  0.85707600  1
  O  O15  1  0.43501100  0.79369200  0.14292400  1
  O  O16  1  0.17332900  0.17151200  0.93148000  1
  O  O17  1  0.67332900  0.32848800  0.06852000  1
  O  O18  1  0.82667100  0.82848800  0.06852000  1
  O  O19  1  0.32667100  0.67151200  0.93148000  1
  O  O20  1  0.09780000  0.84213500  0.18804700  1
  O  O21  1  0.59780000  0.65786500  0.81195300  1
  O  O22  1  0.90220000  0.15786500  0.81195300  1
  O  O23  1  0.40220000  0.34213500  0.18804700  1
  O  O24  1  0.08610700  0.05291200  0.58048000  1
  O  O25  1  0.58610700  0.44708800  0.41952000  1
  O  O26  1  0.91389300  0.94708800  0.41952000  1
  O  O27  1  0.41389300  0.55291200  0.58048000  1
loop_
_geom_bond_atom_site_label_1
_geom_bond_atom_site_label_2
_geom_bond_distance
_geom_bond_site_symmetry_2
O0 Te0 1.918659 1_555
O0 Pu0 2.454571 1_555
O0 Pu3 2.504460 1_555
O1 Te1 1.918659 1_555
O1 Pu1 2.454571 1_565
O1 Pu2 2.504460 1_555
O2 Te2 1.918659 1_555
O2 Pu2 2.454571 1_555
O2 Pu1 2.504460 1_555
O3 Te3 1.918659 1_555
O3 Pu3 2.454571 1_545
O3 Pu0 2.504460 1_555
O4 S0 1.520579 1_555
O4 Pu3 2.496634 1_545
O4 Pu0 2.580594 1_555
O5 S1 1.520579 1_555
O5 Pu2 2.496634 1_555
O5 Pu1 2.580594 1_555
O6 S2 1.520579 1_555
O6 Pu1 2.496634 1_565
O6 Pu2 2.580594 1_555
O7 S3 1.520579 1_555
O7 Pu0 2.496634 1_555
O7 Pu3 2.580594 1_555
O8 Te0 1.911927 1_555
O8 Pu0 2.352791 1_555
O8 Pu2 2.412201 1_455
O9 Te1 1.911927 1_555
O9 Pu1 2.352791 1_565
O9 Pu3 2.412201 1_555
O10 Te2 1.911927 1_555
O10 Pu2 2.352791 1_555
O10 Pu0 2.412201 1_655
O11 Te3 1.911927 1_555
O11 Pu3 2.352791 1_545
O11 Pu1 2.412201 1_555
O12 S0 1.509214 1_555
O12 Pu0 2.546233 1_555
O13 S1 1.509214 1_555
O13 Pu1 2.546233 1_555
O14 S2 1.509214 1_555
O14 Pu2 2.546233 1_555
O15 S3 1.509214 1_555
O15 Pu3 2.546233 1_555
O16 S0 1.464618 1_556
O17 S1 1.464618 1_554
O18 S2 1.464618 1_554
O19 S3 1.464618 1_556
O20 S0 1.475313 1_565
O20 Pu0 2.491519 1_555
O21 S1 1.475313 1_555
O21 Pu1 2.491519 1_565
O22 S2 1.475313 1_545
O22 Pu2 2.491519 1_555
O23 S3 1.475313 1_555
O23 Pu3 2.491519 1_545
O24 Te0 1.899861 1_545
O24 Pu0 2.090867 1_555
O25 Te1 1.899861 1_555
O25 Pu1 2.090867 1_555
O26 Te2 1.899861 1_565
O26 Pu2 2.090867 1_555
O27 Te3 1.899861 1_555
O27 Pu3 2.090867 1_555
