# generated using pymatgen
data_In2CuAg(SnS4)2
_symmetry_space_group_name_H-M   'P 1'
_cell_length_a   7.60934693
_cell_length_b   7.60934693
_cell_length_c   7.60934693
_cell_angle_alpha   119.98317484
_cell_angle_beta   119.83935562
_cell_angle_gamma   90.15380697
_symmetry_Int_Tables_number   1
_chemical_formula_structural   In2CuAg(SnS4)2
_chemical_formula_sum   'In2 Cu1 Ag1 Sn2 S8'
_cell_volume   311.96559980
_cell_formula_units_Z   1
loop_
 _symmetry_equiv_pos_site_id
 _symmetry_equiv_pos_as_xyz
  1  'x, y, z'
loop_
 _atom_site_type_symbol
 _atom_site_label
 _atom_site_symmetry_multiplicity
 _atom_site_fract_x
 _atom_site_fract_y
 _atom_site_fract_z
 _atom_site_occupancy
  In  In0  1  0.74858700  0.49955100  0.24903600  1
  In  In1  1  0.25051500  0.49955100  0.75096400  1
  Cu  Cu0  1  0.62226400  0.12226400  0.50000000  1
  Ag  Ag0  1  0.87701100  0.87701100  0.00000000  1
  Sn  Sn0  1  0.25026500  0.50012100  0.24985600  1
  Sn  Sn1  1  0.25026500  0.00040900  0.75014400  1
  S  S0  1  0.47658900  0.74469200  0.73189700  1
  S  S1  1  0.01279500  0.74469200  0.26810300  1
  S  S2  1  0.01160300  0.74589300  0.73429100  1
  S  S3  1  0.01160300  0.27731200  0.26570900  1
  S  S4  1  0.00709000  0.25028400  0.75680600  1
  S  S5  1  0.49347800  0.25028400  0.24319400  1
  S  S6  1  0.49396800  0.24939000  0.75542200  1
  S  S7  1  0.49396800  0.73854500  0.24457800  1
loop_
_geom_bond_atom_site_label_1
_geom_bond_atom_site_label_2
_geom_bond_distance
_geom_bond_site_symmetry_2
In0 S2 2.619417 1_655
In0 S3 2.619417 1_655
In0 S1 2.638490 1_655
In0 S7 2.660344 1_555
In0 S6 2.660349 1_554
In0 S5 2.679190 1_555
In1 S2 2.619411 1_555
In1 S3 2.619417 1_555
In1 S0 2.638490 1_555
In1 S6 2.660349 1_555
In1 S7 2.660350 1_556
In1 S4 2.679190 1_555
Cu0 S6 2.383377 1_555
Cu0 S7 2.383384 1_545
Cu0 S5 2.393743 1_555
Cu0 S4 2.393743 1_655
Ag0 S2 2.486405 1_654
Ag0 S3 2.486405 1_665
Ag0 S1 2.490840 1_655
Ag0 S0 2.490840 1_554
S0 Sn1 2.599496 1_565
S0 Sn0 2.599496 1_555
S1 Sn1 2.599496 1_565
S1 Sn0 2.599496 1_555
S2 Sn1 2.567692 1_565
S3 Sn0 2.567687 1_555
S4 Sn0 2.656638 1_556
S4 Sn1 2.656638 1_555
S5 Sn0 2.656638 1_555
S5 Sn1 2.656638 1_554
S6 Sn1 2.619333 1_555
S7 Sn0 2.619327 1_555
