# generated using pymatgen
data_SrLa2Al2O7
_symmetry_space_group_name_H-M   'P 1'
_cell_length_a   10.67459355
_cell_length_b   10.67459355
_cell_length_c   10.67459355
_cell_angle_alpha   159.58435458
_cell_angle_beta   159.58435458
_cell_angle_gamma   29.02907874
_symmetry_Int_Tables_number   1
_chemical_formula_structural   SrLa2Al2O7
_chemical_formula_sum   'Sr1 La2 Al2 O7'
_cell_volume   147.92726446
_cell_formula_units_Z   1
loop_
 _symmetry_equiv_pos_site_id
 _symmetry_equiv_pos_as_xyz
  1  'x, y, z'
loop_
 _atom_site_type_symbol
 _atom_site_label
 _atom_site_symmetry_multiplicity
 _atom_site_fract_x
 _atom_site_fract_y
 _atom_site_fract_z
 _atom_site_occupancy
  Sr  Sr0  1  0.50000000  0.50000000  0.00000000  1
  La  La0  1  0.68046400  0.68046400  0.00000000  1
  La  La1  1  0.31953600  0.31953600  0.00000000  1
  Al  Al0  1  0.91011200  0.91011200  0.00000000  1
  Al  Al1  1  0.08988800  0.08988800  0.00000000  1
  O  O0  1  0.90033700  0.40033700  0.50000000  1
  O  O1  1  0.40033700  0.90033700  0.50000000  1
  O  O2  1  0.09966300  0.59966300  0.50000000  1
  O  O3  1  0.59966300  0.09966300  0.50000000  1
  O  O4  1  0.79849600  0.79849600  0.00000000  1
  O  O5  1  0.20150400  0.20150400  0.00000000  1
  O  O6  1  0.00000000  0.00000000  0.00000000  1
loop_
_geom_bond_atom_site_label_1
_geom_bond_atom_site_label_2
_geom_bond_distance
_geom_bond_site_symmetry_2
La0 O4 2.439463 1_555
La0 O2 2.523394 1_655
La0 O3 2.523394 1_565
La0 O2 2.523394 1_554
La0 O3 2.523394 1_554
La0 O5 2.710437 1_655
La0 O5 2.710437 1_666
La0 O5 2.710437 1_565
La0 O5 2.710437 1_554
La1 O5 2.439463 1_555
La1 O0 2.523394 1_454
La1 O1 2.523394 1_544
La1 O0 2.523394 1_555
La1 O1 2.523394 1_555
La1 O4 2.710437 1_545
La1 O4 2.710437 1_455
La1 O4 2.710437 1_556
La1 O4 2.710437 1_444
Al0 O6 1.857788 1_665
Al0 O1 1.902499 1_655
Al0 O0 1.902499 1_565
Al0 O0 1.902499 1_554
Al0 O1 1.902499 1_554
Al0 O4 2.306858 1_555
Al1 O6 1.857788 1_555
Al1 O3 1.902499 1_555
Al1 O2 1.902499 1_555
Al1 O3 1.902499 1_454
Al1 O2 1.902499 1_544
Al1 O5 2.306858 1_555
O0 Sr0 2.796700 1_555
O0 Sr0 2.796700 1_656
O1 Sr0 2.796700 1_555
O1 Sr0 2.796700 1_566
O2 Sr0 2.796700 1_455
O2 Sr0 2.796700 1_556
O3 Sr0 2.796700 1_545
O3 Sr0 2.796700 1_556
O6 Sr0 2.675327 1_556
O6 Sr0 2.675327 1_444
O6 Sr0 2.675327 1_545
O6 Sr0 2.675327 1_455
