# generated using pymatgen
data_Nb12I21Br
_symmetry_space_group_name_H-M   'P 1'
_cell_length_a   11.49099700
_cell_length_b   13.73590800
_cell_length_c   15.58822732
_cell_angle_alpha   89.90089528
_cell_angle_beta   90.00000000
_cell_angle_gamma   90.00000000
_symmetry_Int_Tables_number   1
_chemical_formula_structural   Nb12I21Br
_chemical_formula_sum   'Nb24 I42 Br2'
_cell_volume   2460.43085876
_cell_formula_units_Z   2
loop_
 _symmetry_equiv_pos_site_id
 _symmetry_equiv_pos_as_xyz
  1  'x, y, z'
loop_
 _atom_site_type_symbol
 _atom_site_label
 _atom_site_symmetry_multiplicity
 _atom_site_fract_x
 _atom_site_fract_y
 _atom_site_fract_z
 _atom_site_occupancy
  Nb  Nb0  1  0.88646700  0.77882700  0.59982100  1
  Nb  Nb1  1  0.38646700  0.22117300  0.40017900  1
  Nb  Nb2  1  0.38945200  0.72225100  0.09728000  1
  Nb  Nb3  1  0.88945200  0.27774900  0.90272000  1
  Nb  Nb4  1  0.92823200  0.87834400  0.45341800  1
  Nb  Nb5  1  0.42823200  0.12165600  0.54658200  1
  Nb  Nb6  1  0.42955500  0.62165700  0.95193800  1
  Nb  Nb7  1  0.92955500  0.37834300  0.04806200  1
  Nb  Nb8  1  0.86866600  0.66575900  0.44788500  1
  Nb  Nb9  1  0.36866600  0.33424100  0.55211500  1
  Nb  Nb10  1  0.37047000  0.83515400  0.94641700  1
  Nb  Nb11  1  0.87047000  0.16484600  0.05358300  1
  Nb  Nb12  1  0.08822000  0.72448600  0.39150400  1
  Nb  Nb13  1  0.58822000  0.27551400  0.60849600  1
  Nb  Nb14  1  0.58931700  0.77680600  0.88893100  1
  Nb  Nb15  1  0.08931700  0.22319400  0.11106900  1
  Nb  Nb16  1  0.07287400  0.63466600  0.55624200  1
  Nb  Nb17  1  0.57287400  0.36533400  0.44375800  1
  Nb  Nb18  1  0.57374600  0.86597000  0.05461800  1
  Nb  Nb19  1  0.07374600  0.13403000  0.94538200  1
  Nb  Nb20  1  0.13137200  0.82401300  0.55123700  1
  Nb  Nb21  1  0.63137200  0.17598700  0.44876300  1
  Nb  Nb22  1  0.63318900  0.67649500  0.05020400  1
  Nb  Nb23  1  0.13318900  0.32350500  0.94979600  1
  I  I0  1  0.18724700  0.46249500  0.63810600  1
  I  I1  1  0.68724700  0.53750500  0.36189400  1
  I  I2  1  0.68738400  0.03735600  0.13819500  1
  I  I3  1  0.18738400  0.96264400  0.86180500  1
  I  I4  1  0.84371200  0.57175000  0.61313500  1
  I  I5  1  0.34371200  0.42825000  0.38686500  1
  I  I6  1  0.34471200  0.92846900  0.11210300  1
  I  I7  1  0.84471200  0.07153100  0.88789700  1
  I  I8  1  0.03245200  0.51866300  0.40185400  1
  I  I9  1  0.53245200  0.48133700  0.59814600  1
  I  I10  1  0.53414400  0.98203300  0.90023400  1
  I  I11  1  0.03414400  0.01796700  0.09976600  1
  I  I12  1  0.15676600  0.92672300  0.38737600  1
  I  I13  1  0.65676600  0.07327700  0.61262400  1
  I  I14  1  0.65789100  0.57466000  0.88712700  1
  I  I15  1  0.15789100  0.42534000  0.11287300  1
  I  I16  1  0.89302300  0.78123600  0.28922300  1
  I  I17  1  0.39302300  0.21876400  0.71077700  1
  I  I18  1  0.39397700  0.71930700  0.78781100  1
  I  I19  1  0.89397700  0.28069300  0.21218900  1
  I  I20  1  0.29753000  0.68510000  0.48680500  1
  I  I21  1  0.79753000  0.31490000  0.51319500  1
  I  I22  1  0.79841800  0.81544100  0.98534000  1
  I  I23  1  0.29841800  0.18455900  0.01466000  1
  I  I24  1  0.97807800  0.97554800  0.61198600  1
  I  I25  1  0.47807800  0.02445200  0.38801400  1
  I  I26  1  0.47925200  0.52445900  0.11079500  1
  I  I27  1  0.97925200  0.47554100  0.88920500  1
  I  I28  1  0.69472700  0.80974700  0.48327800  1
  I  I29  1  0.19472700  0.19025300  0.51672200  1
  I  I30  1  0.19664700  0.69065100  0.98144800  1
  I  I31  1  0.69664700  0.30934900  0.01855200  1
  I  I32  1  0.07557800  0.73715000  0.71724000  1
  I  I33  1  0.57557800  0.26285000  0.28276000  1
  I  I34  1  0.57712400  0.76319400  0.21616400  1
  I  I35  1  0.07712400  0.23680600  0.78383600  1
  I  I36  1  0.84046800  0.06664900  0.38341100  1
  I  I37  1  0.34046800  0.93335100  0.61658900  1
  I  I38  1  0.34068400  0.43342900  0.88315700  1
  I  I39  1  0.84068400  0.56657100  0.11684300  1
  I  I40  1  0.21460700  0.67471900  0.23071600  1
  I  I41  1  0.71460700  0.32528100  0.76928400  1
  Br  Br0  1  0.71731900  0.82086500  0.73152300  1
  Br  Br1  1  0.21731900  0.17913500  0.26847700  1
loop_
_geom_bond_atom_site_label_1
_geom_bond_atom_site_label_2
_geom_bond_distance
_geom_bond_site_symmetry_2
I0 Nb16 2.989679 1_555
I0 Nb9 3.042107 1_555
I1 Nb17 2.989679 1_555
I1 Nb8 3.042107 1_555
I2 Nb18 2.992504 1_545
I2 Nb11 3.037179 1_555
I3 Nb19 2.992504 1_565
I3 Nb10 3.037179 1_555
I4 Nb0 2.893607 1_555
I4 Nb8 2.893737 1_555
I4 Nb16 2.909467 1_655
I5 Nb1 2.893607 1_555
I5 Nb9 2.893737 1_555
I5 Nb17 2.909467 1_555
I6 Nb2 2.888518 1_555
I6 Nb10 2.900446 1_554
I6 Nb18 2.910180 1_555
I7 Nb3 2.888518 1_555
I7 Nb11 2.900446 1_556
I7 Nb19 2.910180 1_655
I8 Nb8 2.853849 1_455
I8 Nb12 2.903099 1_555
I8 Nb16 2.925723 1_555
I9 Nb9 2.853849 1_555
I9 Nb13 2.903099 1_555
I9 Nb17 2.925723 1_555
I10 Nb10 2.849727 1_555
I10 Nb14 2.895057 1_555
I10 Nb18 2.920099 1_556
I11 Nb11 2.849727 1_455
I11 Nb15 2.895057 1_555
I11 Nb19 2.920099 1_554
I12 Nb12 2.888029 1_555
I12 Nb4 2.897477 1_455
I12 Nb20 2.930451 1_555
I13 Nb13 2.888029 1_555
I13 Nb5 2.897477 1_555
I13 Nb21 2.930451 1_555
I14 Nb6 2.885141 1_555
I14 Nb14 2.886488 1_555
I14 Nb22 2.917478 1_556
I15 Nb7 2.885141 1_455
I15 Nb15 2.886488 1_555
I15 Nb23 2.917478 1_554
I16 Nb12 2.859453 1_655
I16 Nb4 2.916468 1_555
I16 Nb8 2.949194 1_555
I17 Nb13 2.859453 1_555
I17 Nb5 2.916468 1_555
I17 Nb9 2.949194 1_555
I18 Nb14 2.855033 1_555
I18 Nb6 2.915484 1_555
I18 Nb10 2.954892 1_555
I19 Nb15 2.855033 1_655
I19 Nb7 2.915484 1_555
I19 Nb11 2.954892 1_555
I20 Nb12 2.877799 1_555
I20 Nb20 2.881275 1_555
I20 Nb16 2.883255 1_555
I21 Nb13 2.877799 1_555
I21 Nb21 2.881275 1_555
I21 Nb17 2.883255 1_555
I22 Nb22 2.874560 1_556
I22 Nb18 2.883704 1_556
I22 Nb14 2.883796 1_555
I23 Nb23 2.874560 1_554
I23 Nb19 2.883704 1_554
I23 Nb15 2.883796 1_555
I24 Nb4 2.869143 1_555
I24 Nb20 2.887728 1_655
I24 Nb0 2.906455 1_555
I25 Nb5 2.869143 1_555
I25 Nb21 2.887728 1_555
I25 Nb1 2.906455 1_555
I26 Nb6 2.868665 1_554
I26 Nb22 2.894038 1_555
I26 Nb2 2.913502 1_555
I27 Nb7 2.868665 1_556
I27 Nb23 2.894038 1_655
I27 Nb3 2.913502 1_555
I28 Nb8 2.866149 1_555
I28 Nb4 2.881415 1_555
I28 Nb0 2.886619 1_555
I29 Nb9 2.866149 1_555
I29 Nb5 2.881415 1_555
I29 Nb1 2.886619 1_555
I30 Nb10 2.867716 1_555
I30 Nb6 2.876468 1_555
I30 Nb2 2.891349 1_556
I31 Nb11 2.867716 1_555
I31 Nb7 2.876468 1_555
I31 Nb3 2.891349 1_554
I32 Nb16 2.879809 1_555
I32 Nb0 2.897679 1_455
I32 Nb20 2.918922 1_555
I33 Nb17 2.879809 1_555
I33 Nb1 2.897679 1_555
I33 Nb21 2.918922 1_555
I34 Nb18 2.885061 1_555
I34 Nb2 2.899114 1_555
I34 Nb22 2.921747 1_555
I35 Nb19 2.885061 1_555
I35 Nb3 2.899114 1_455
I35 Nb23 2.921747 1_555
I36 Nb4 2.981341 1_545
I36 Nb21 3.011931 1_555
I37 Nb5 2.981341 1_565
I37 Nb20 3.011931 1_555
I38 Nb6 2.981065 1_555
I38 Nb23 3.006404 1_555
I39 Nb7 2.981065 1_555
I39 Nb22 3.006404 1_555
I40 Nb2 2.963909 1_555
I40 Nb12 2.977328 1_555
I41 Nb3 2.963909 1_555
I41 Nb13 2.977328 1_555
Br0 Nb0 2.886213 1_555
Br0 Nb14 2.923231 1_555
Br1 Nb1 2.886213 1_555
Br1 Nb15 2.923231 1_555
