# generated using pymatgen
data_Dy9B5S21
_symmetry_space_group_name_H-M   'P 1'
_cell_length_a   11.19470979
_cell_length_b   11.19470979
_cell_length_c   11.19471017
_cell_angle_alpha   94.26483004
_cell_angle_beta   94.26483004
_cell_angle_gamma   94.26482825
_symmetry_Int_Tables_number   1
_chemical_formula_structural   Dy9B5S21
_chemical_formula_sum   'Dy18 B10 S42'
_cell_volume   1390.66933938
_cell_formula_units_Z   2
loop_
 _symmetry_equiv_pos_site_id
 _symmetry_equiv_pos_as_xyz
  1  'x, y, z'
loop_
 _atom_site_type_symbol
 _atom_site_label
 _atom_site_symmetry_multiplicity
 _atom_site_fract_x
 _atom_site_fract_y
 _atom_site_fract_z
 _atom_site_occupancy
  Dy  Dy0  1  0.24608000  0.48205200  0.09364200  1
  Dy  Dy1  1  0.56846100  0.79927200  0.41030100  1
  Dy  Dy2  1  0.91297700  0.13393400  0.77598300  1
  Dy  Dy3  1  0.41030100  0.56846100  0.79927200  1
  Dy  Dy4  1  0.77598300  0.91297700  0.13393400  1
  Dy  Dy5  1  0.09364200  0.24608000  0.48205200  1
  Dy  Dy6  1  0.13393400  0.77598300  0.91297700  1
  Dy  Dy7  1  0.48205200  0.09364200  0.24608000  1
  Dy  Dy8  1  0.79927200  0.41030100  0.56846100  1
  Dy  Dy9  1  0.12122600  0.88489000  0.27323700  1
  Dy  Dy10  1  0.46631500  0.24911400  0.60742100  1
  Dy  Dy11  1  0.80071700  0.56557700  0.95437500  1
  Dy  Dy12  1  0.95437500  0.80071700  0.56557700  1
  Dy  Dy13  1  0.27323700  0.12122600  0.88489000  1
  Dy  Dy14  1  0.60742100  0.46631500  0.24911400  1
  Dy  Dy15  1  0.24911400  0.60742100  0.46631500  1
  Dy  Dy16  1  0.56557700  0.95437500  0.80071700  1
  Dy  Dy17  1  0.88489000  0.27323700  0.12122600  1
  B  B0  1  0.90939600  0.57220300  0.24606000  1
  B  B1  1  0.24606000  0.90939600  0.57220300  1
  B  B2  1  0.57220300  0.24606000  0.90939600  1
  B  B3  1  0.74502500  0.07120100  0.41122500  1
  B  B4  1  0.07120100  0.41122500  0.74502500  1
  B  B5  1  0.41122500  0.74502500  0.07120100  1
  B  B6  1  0.80593000  0.80593000  0.80593000  1
  B  B7  1  0.13226000  0.13226000  0.13226000  1
  B  B8  1  0.30613100  0.30613100  0.30613100  1
  B  B9  1  0.63192500  0.63192500  0.63192500  1
  S  S0  1  0.67669000  0.35846700  0.02136100  1
  S  S1  1  0.02136100  0.67669000  0.35846700  1
  S  S2  1  0.35846700  0.02136100  0.67669000  1
  S  S3  1  0.85729300  0.17556100  0.52347400  1
  S  S4  1  0.17556100  0.52347400  0.85729300  1
  S  S5  1  0.52347400  0.85729300  0.17556100  1
  S  S6  1  0.80430800  0.91248700  0.38297300  1
  S  S7  1  0.13060700  0.25217900  0.72306500  1
  S  S8  1  0.46943300  0.58630300  0.04373400  1
  S  S9  1  0.72306500  0.13060700  0.25217900  1
  S  S10  1  0.04373400  0.46943300  0.58630300  1
  S  S11  1  0.38297300  0.80430800  0.91248700  1
  S  S12  1  0.58630300  0.04373400  0.46943300  1
  S  S13  1  0.91248700  0.38297300  0.80430800  1
  S  S14  1  0.25217900  0.72306500  0.13060700  1
  S  S15  1  0.76548000  0.64803400  0.18999400  1
  S  S16  1  0.10444300  0.98547900  0.51155800  1
  S  S17  1  0.42931300  0.31929700  0.85154700  1
  S  S18  1  0.85154700  0.42931300  0.31929700  1
  S  S19  1  0.18999400  0.76548000  0.64803400  1
  S  S20  1  0.51155800  0.10444300  0.98547900  1
  S  S21  1  0.98547900  0.51155800  0.10444300  1
  S  S22  1  0.31929700  0.85154700  0.42931300  1
  S  S23  1  0.64803400  0.18999400  0.76548000  1
  S  S24  1  0.78266400  0.91517900  0.69420500  1
  S  S25  1  0.11350800  0.24694100  0.02542700  1
  S  S26  1  0.44087200  0.59558000  0.33715800  1
  S  S27  1  0.02542700  0.11350800  0.24694100  1
  S  S28  1  0.33715800  0.44087200  0.59558000  1
  S  S29  1  0.69420500  0.78266400  0.91517900  1
  S  S30  1  0.59558000  0.33715800  0.44087200  1
  S  S31  1  0.91517900  0.69420500  0.78266400  1
  S  S32  1  0.24694100  0.02542700  0.11350800  1
  S  S33  1  0.97667600  0.81964000  0.07813700  1
  S  S34  1  0.31210200  0.17960100  0.40052000  1
  S  S35  1  0.64229300  0.51049600  0.73227000  1
  S  S36  1  0.73227000  0.64229300  0.51049600  1
  S  S37  1  0.07813700  0.97667600  0.81964000  1
  S  S38  1  0.40052000  0.31210200  0.17960100  1
  S  S39  1  0.17960100  0.40052000  0.31210200  1
  S  S40  1  0.51049600  0.73227000  0.64229300  1
  S  S41  1  0.81964000  0.07813700  0.97667600  1
loop_
_geom_bond_atom_site_label_1
_geom_bond_atom_site_label_2
_geom_bond_distance
_geom_bond_site_symmetry_2
Dy0 S14 2.694035 1_555
Dy0 S4 2.786587 1_554
Dy0 S8 2.792272 1_555
Dy0 S39 2.805269 1_555
Dy0 S38 2.837053 1_555
Dy0 S25 2.943580 1_555
Dy0 S21 2.970610 1_455
Dy1 S26 2.640859 1_555
Dy1 S12 2.756285 1_565
Dy1 S5 2.772503 1_555
Dy1 S36 2.859315 1_555
Dy1 S40 2.862954 1_555
Dy1 S6 2.889790 1_555
Dy1 S22 2.912149 1_555
Dy2 S41 2.643938 1_555
Dy2 S37 2.689657 1_645
Dy2 S13 2.782826 1_555
Dy2 S7 2.808983 1_655
Dy2 S24 2.810680 1_545
Dy2 S3 2.928035 1_555
Dy2 S23 3.072547 1_555
Dy3 S28 2.640859 1_555
Dy3 S8 2.756285 1_556
Dy3 S4 2.772503 1_555
Dy3 S40 2.859315 1_555
Dy3 S35 2.862954 1_555
Dy3 S11 2.889790 1_555
Dy3 S17 2.912149 1_555
Dy4 S33 2.643938 1_555
Dy4 S41 2.689657 1_564
Dy4 S6 2.782826 1_555
Dy4 S9 2.808983 1_565
Dy4 S29 2.810680 1_554
Dy4 S5 2.928035 1_555
Dy4 S15 3.072547 1_555
Dy5 S7 2.694035 1_555
Dy5 S3 2.786587 1_455
Dy5 S10 2.792272 1_555
Dy5 S34 2.805269 1_555
Dy5 S39 2.837053 1_555
Dy5 S27 2.943580 1_555
Dy5 S16 2.970610 1_545
Dy6 S37 2.643938 1_555
Dy6 S33 2.689657 1_456
Dy6 S11 2.782826 1_555
Dy6 S14 2.808983 1_556
Dy6 S31 2.810680 1_455
Dy6 S4 2.928035 1_555
Dy6 S19 3.072548 1_555
Dy7 S9 2.694035 1_555
Dy7 S5 2.786587 1_545
Dy7 S12 2.792272 1_555
Dy7 S38 2.805269 1_555
Dy7 S34 2.837053 1_555
Dy7 S32 2.943580 1_555
Dy7 S20 2.970610 1_554
Dy8 S30 2.640859 1_555
Dy8 S10 2.756285 1_655
Dy8 S3 2.772503 1_555
Dy8 S35 2.859315 1_555
Dy8 S36 2.862954 1_555
Dy8 S13 2.889790 1_555
Dy8 S18 2.912149 1_555
Dy9 S33 2.642651 1_455
Dy9 S1 2.773876 1_555
Dy9 S22 2.784355 1_555
Dy9 S16 2.842601 1_555
Dy9 S32 2.848957 1_565
Dy9 S27 2.874056 1_565
Dy9 S14 2.879812 1_555
Dy10 S30 2.646550 1_555
Dy10 S28 2.681753 1_555
Dy10 S23 2.747049 1_555
Dy10 S34 2.808570 1_555
Dy10 S17 2.855721 1_555
Dy10 S2 2.921478 1_555
Dy10 S12 3.117108 1_555
Dy10 S35 3.538543 1_555
Dy11 S21 2.699335 1_556
Dy11 S0 2.792917 1_556
Dy11 S15 2.794969 1_556
Dy11 S31 2.813190 1_555
Dy11 S29 2.834088 1_555
Dy11 S35 2.942992 1_555
Dy11 S13 2.957850 1_555
Dy12 S16 2.699335 1_655
Dy12 S1 2.792917 1_655
Dy12 S19 2.794969 1_655
Dy12 S24 2.813190 1_555
Dy12 S31 2.834088 1_555
Dy12 S36 2.942992 1_555
Dy12 S6 2.957850 1_555
Dy13 S37 2.642651 1_545
Dy13 S2 2.773876 1_555
Dy13 S17 2.784355 1_555
Dy13 S20 2.842601 1_555
Dy13 S25 2.848957 1_556
Dy13 S32 2.874056 1_556
Dy13 S7 2.879812 1_555
Dy14 S26 2.646550 1_555
Dy14 S30 2.681753 1_555
Dy14 S15 2.747049 1_555
Dy14 S38 2.808570 1_555
Dy14 S18 2.855721 1_555
Dy14 S0 2.921478 1_555
Dy14 S8 3.117108 1_555
Dy14 S36 3.538543 1_555
Dy15 S28 2.646550 1_555
Dy15 S26 2.681753 1_555
Dy15 S19 2.747049 1_555
Dy15 S39 2.808570 1_555
Dy15 S22 2.855721 1_555
Dy15 S1 2.921478 1_555
Dy15 S10 3.117108 1_555
Dy15 S40 3.538543 1_555
Dy16 S20 2.699335 1_565
Dy16 S2 2.792917 1_565
Dy16 S23 2.794969 1_565
Dy16 S29 2.813190 1_555
Dy16 S24 2.834088 1_555
Dy16 S40 2.942992 1_555
Dy16 S11 2.957850 1_555
Dy17 S41 2.642651 1_554
Dy17 S0 2.773876 1_555
Dy17 S18 2.784355 1_555
Dy17 S21 2.842601 1_555
Dy17 S27 2.848957 1_655
Dy17 S25 2.874056 1_655
Dy17 S9 2.879812 1_555
B0 S18 1.941722 1_555
B0 S21 1.956137 1_555
B0 S15 1.960224 1_555
B0 S1 1.962437 1_655
B1 S22 1.941722 1_555
B1 S16 1.956137 1_555
B1 S19 1.960224 1_555
B1 S2 1.962437 1_565
B2 S17 1.941722 1_555
B2 S20 1.956137 1_555
B2 S23 1.960224 1_555
B2 S0 1.962437 1_556
B3 S12 1.948612 1_555
B3 S9 1.951440 1_555
B3 S6 1.954572 1_545
B3 S3 1.962612 1_555
B4 S10 1.948612 1_555
B4 S7 1.951440 1_555
B4 S13 1.954572 1_455
B4 S4 1.962612 1_555
B5 S8 1.948612 1_555
B5 S14 1.951440 1_555
B5 S11 1.954572 1_554
B5 S5 1.962612 1_555
B6 S31 1.831489 1_555
B6 S24 1.831489 1_555
B6 S29 1.831489 1_555
B7 S32 1.831312 1_555
B7 S25 1.831312 1_555
B7 S27 1.831312 1_555
B8 S39 1.831273 1_555
B8 S34 1.831273 1_555
B8 S38 1.831273 1_555
B9 S40 1.831504 1_555
B9 S35 1.831504 1_555
B9 S36 1.831504 1_555
