# generated using pymatgen
data_Na3EuTi2Nb2O12
_symmetry_space_group_name_H-M   'P 1'
_cell_length_a   5.53267396
_cell_length_b   5.61522741
_cell_length_c   15.62611605
_cell_angle_alpha   89.99457171
_cell_angle_beta   89.99924844
_cell_angle_gamma   89.87762351
_symmetry_Int_Tables_number   1
_chemical_formula_structural   Na3EuTi2Nb2O12
_chemical_formula_sum   'Na6 Eu2 Ti4 Nb4 O24'
_cell_volume   485.45891392
_cell_formula_units_Z   2
loop_
 _symmetry_equiv_pos_site_id
 _symmetry_equiv_pos_as_xyz
  1  'x, y, z'
loop_
 _atom_site_type_symbol
 _atom_site_label
 _atom_site_symmetry_multiplicity
 _atom_site_fract_x
 _atom_site_fract_y
 _atom_site_fract_z
 _atom_site_occupancy
  Na  Na0  1  0.00098500  0.98780400  0.37053000  1
  Na  Na1  1  0.00101100  0.98788900  0.87953800  1
  Na  Na2  1  0.50017600  0.48813600  0.87956800  1
  Na  Na3  1  0.50015700  0.48804700  0.37052200  1
  Na  Na4  1  0.50754100  0.53180100  0.62501100  1
  Na  Na5  1  0.99408400  0.03074800  0.62503400  1
  Eu  Eu0  1  0.50206800  0.53952600  0.12504600  1
  Eu  Eu1  1  0.99759700  0.03935100  0.12502100  1
  Ti  Ti0  1  0.00513900  0.51926000  0.25248100  1
  Ti  Ti1  1  0.49597700  0.01919200  0.25236900  1
  Ti  Ti2  1  0.49588600  0.01934700  0.99771100  1
  Ti  Ti3  1  0.00519600  0.51939500  0.99763200  1
  Nb  Nb0  1  0.49633100  0.01915800  0.75154300  1
  Nb  Nb1  1  0.49616200  0.01908800  0.49855500  1
  Nb  Nb2  1  0.00673900  0.51819000  0.49832500  1
  Nb  Nb3  1  0.00665100  0.51813700  0.75184700  1
  O  O0  1  0.06846300  0.47253800  0.12495800  1
  O  O1  1  0.06904400  0.47634500  0.62498000  1
  O  O2  1  0.20626100  0.20276900  0.48075800  1
  O  O3  1  0.21543700  0.20463200  0.99158300  1
  O  O4  1  0.21549400  0.20470800  0.25836000  1
  O  O5  1  0.20622200  0.20264000  0.76914900  1
  O  O6  1  0.28365400  0.70443700  0.25835300  1
  O  O7  1  0.29269500  0.70349100  0.48068500  1
  O  O8  1  0.29271500  0.70346900  0.76927700  1
  O  O9  1  0.28361400  0.70441300  0.99158000  1
  O  O10  1  0.43100900  0.97265600  0.12495800  1
  O  O11  1  0.43008700  0.97645300  0.62497500  1
  O  O12  1  0.56502800  0.00466100  0.87822500  1
  O  O13  1  0.56505400  0.00465600  0.37172300  1
  O  O14  1  0.71623500  0.27005700  0.02489800  1
  O  O15  1  0.71636800  0.27003900  0.22506300  1
  O  O16  1  0.71026400  0.28193100  0.51656800  1
  O  O17  1  0.71019400  0.28194000  0.73332400  1
  O  O18  1  0.78277000  0.77047600  0.22498500  1
  O  O19  1  0.78805100  0.78113800  0.73332100  1
  O  O20  1  0.78281400  0.77052300  0.02496600  1
  O  O21  1  0.78812000  0.78121400  0.51661600  1
  O  O22  1  0.93439700  0.50494000  0.37166500  1
  O  O23  1  0.93431100  0.50480800  0.87829700  1
loop_
_geom_bond_atom_site_label_1
_geom_bond_atom_site_label_2
_geom_bond_distance
_geom_bond_site_symmetry_2
Na0 O2 2.391651 1_565
Na0 O13 2.413590 1_465
Na0 O4 2.443340 1_565
Na0 O22 2.737141 1_455
Na0 O21 2.819391 1_455
Na0 O6 2.835508 1_555
Na0 O7 2.846919 1_555
Na0 O18 2.850648 1_455
Na0 O22 2.926388 1_465
Na1 O5 2.392499 1_565
Na1 O12 2.413876 1_465
Na1 O3 2.441452 1_565
Na1 O23 2.738448 1_455
Na1 O19 2.821844 1_455
Na1 O9 2.834185 1_555
Na1 O8 2.848395 1_555
Na1 O20 2.849029 1_456
Na1 O23 2.925263 1_465
Na2 O8 2.396541 1_555
Na2 O23 2.404033 1_555
Na2 O9 2.442991 1_555
Na2 O12 2.737753 1_555
Na2 O17 2.812060 1_555
Na2 O14 2.842353 1_556
Na2 O3 2.844280 1_555
Na2 O5 2.864234 1_555
Na2 O12 2.923348 1_565
Na3 O7 2.395563 1_555
Na3 O22 2.404649 1_555
Na3 O6 2.444762 1_555
Na3 O13 2.737297 1_555
Na3 O16 2.809411 1_555
Na3 O15 2.844306 1_555
Na3 O4 2.845152 1_555
Na3 O2 2.861435 1_555
Na3 O13 2.923836 1_565
Na4 O1 2.446624 1_555
Na4 O17 2.466389 1_555
Na4 O16 2.468150 1_555
Na4 O11 2.532427 1_555
Na4 O19 2.691298 1_555
Na4 O21 2.692384 1_555
Na4 O8 2.723836 1_555
Na4 O7 2.724578 1_555
Na5 O11 2.430807 1_645
Na5 O19 2.476586 1_545
Na5 O21 2.477769 1_545
Na5 O1 2.537140 1_655
Na5 O17 2.703852 1_555
Na5 O16 2.705182 1_555
Na5 O5 2.717686 1_655
Na5 O2 2.719945 1_655
Eu0 O0 2.429100 1_555
Eu0 O10 2.462865 1_555
Eu0 O15 2.475916 1_555
Eu0 O14 2.476957 1_555
Eu0 O18 2.557640 1_555
Eu0 O20 2.559093 1_555
Eu0 O6 2.579237 1_555
Eu0 O9 2.581184 1_554
Eu1 O10 2.426206 1_645
Eu1 O0 2.464667 1_655
Eu1 O18 2.477769 1_545
Eu1 O20 2.478588 1_545
Eu1 O15 2.556260 1_555
Eu1 O14 2.557407 1_555
Eu1 O4 2.581082 1_655
Eu1 O3 2.581862 1_654
Nb0 O17 1.914628 1_555
Nb0 O5 1.925213 1_555
Nb0 O12 2.017313 1_555
Nb0 O11 2.025802 1_545
Nb0 O19 2.112633 1_545
Nb0 O8 2.120533 1_545
Nb1 O16 1.915282 1_555
Nb1 O2 1.925259 1_555
Nb1 O13 2.019807 1_555
Nb1 O11 2.023274 1_545
Nb1 O21 2.112755 1_545
Nb1 O7 2.119988 1_545
Nb2 O7 1.915371 1_555
Nb2 O21 1.928338 1_455
Nb2 O22 2.020682 1_455
Nb2 O1 2.022513 1_555
Nb2 O2 2.103014 1_555
Nb2 O16 2.130975 1_455
Nb3 O8 1.915525 1_555
Nb3 O19 1.928684 1_455
Nb3 O23 2.017458 1_455
Nb3 O1 2.025838 1_555
Nb3 O5 2.102939 1_555
Nb3 O17 2.131310 1_455
O0 Ti3 2.037113 1_554
O0 Ti0 2.040116 1_555
O3 Ti2 1.868767 1_555
O3 Ti3 2.115925 1_555
O4 Ti1 1.869543 1_555
O4 Ti0 2.115152 1_555
O6 Ti0 1.863053 1_555
O6 Ti1 2.126337 1_565
O9 Ti3 1.862237 1_555
O9 Ti2 2.127136 1_565
O10 Ti2 2.037524 1_564
O10 Ti1 2.040059 1_565
O12 Ti2 1.907638 1_555
O13 Ti1 1.905506 1_555
O14 Ti2 1.912086 1_554
O14 Ti3 2.169594 1_654
O15 Ti1 1.913149 1_555
O15 Ti0 2.168921 1_655
O18 Ti0 1.918491 1_655
O18 Ti1 2.154515 1_565
O20 Ti3 1.917661 1_654
O20 Ti2 2.155013 1_564
O22 Ti0 1.904786 1_655
O23 Ti3 1.907346 1_655
