# generated using pymatgen
data_Ca4RhN4
_symmetry_space_group_name_H-M   'P 1'
_cell_length_a   12.17582543
_cell_length_b   4.55308115
_cell_length_c   11.05973657
_cell_angle_alpha   90.00000000
_cell_angle_beta   90.00000000
_cell_angle_gamma   90.00000000
_symmetry_Int_Tables_number   1
_chemical_formula_structural   Ca4RhN4
_chemical_formula_sum   'Ca16 Rh4 N16'
_cell_volume   613.12438113
_cell_formula_units_Z   4
loop_
 _symmetry_equiv_pos_site_id
 _symmetry_equiv_pos_as_xyz
  1  'x, y, z'
loop_
 _atom_site_type_symbol
 _atom_site_label
 _atom_site_symmetry_multiplicity
 _atom_site_fract_x
 _atom_site_fract_y
 _atom_site_fract_z
 _atom_site_occupancy
  Ca  Ca0  1  0.05898908  0.25000000  0.09004550  1
  Ca  Ca1  1  0.55898908  0.25000000  0.40995450  1
  Ca  Ca2  1  0.94101092  0.75000000  0.90995450  1
  Ca  Ca3  1  0.44101092  0.75000000  0.59004550  1
  Ca  Ca4  1  0.71149487  0.25000000  0.99603968  1
  Ca  Ca5  1  0.21149487  0.25000000  0.50396032  1
  Ca  Ca6  1  0.28850513  0.75000000  0.00396032  1
  Ca  Ca7  1  0.78850513  0.75000000  0.49603968  1
  Ca  Ca8  1  0.42075834  0.25000000  0.81986345  1
  Ca  Ca9  1  0.92075834  0.25000000  0.68013655  1
  Ca  Ca10  1  0.57924166  0.75000000  0.18013655  1
  Ca  Ca11  1  0.07924166  0.75000000  0.31986345  1
  Ca  Ca12  1  0.15401581  0.25000000  0.79196133  1
  Ca  Ca13  1  0.65401581  0.25000000  0.70803867  1
  Ca  Ca14  1  0.84598419  0.75000000  0.20803867  1
  Ca  Ca15  1  0.34598419  0.75000000  0.29196133  1
  Rh  Rh0  1  0.43347973  0.25000000  0.08742062  1
  Rh  Rh1  1  0.93347973  0.25000000  0.41257938  1
  Rh  Rh2  1  0.56652027  0.75000000  0.91257938  1
  Rh  Rh3  1  0.06652027  0.75000000  0.58742062  1
  N  N0  1  0.75628728  0.25000000  0.20701495  1
  N  N1  1  0.25628728  0.25000000  0.29298505  1
  N  N2  1  0.24371272  0.75000000  0.79298505  1
  N  N3  1  0.74371272  0.75000000  0.70701495  1
  N  N4  1  0.99289872  0.25000000  0.87888166  1
  N  N5  1  0.49289872  0.25000000  0.62111834  1
  N  N6  1  0.00710128  0.75000000  0.12111834  1
  N  N7  1  0.50710128  0.75000000  0.37888166  1
  N  N8  1  0.88059364  0.25000000  0.91024934  1
  N  N9  1  0.38059364  0.25000000  0.58975066  1
  N  N10  1  0.11940636  0.75000000  0.08975066  1
  N  N11  1  0.61940636  0.75000000  0.41024934  1
  N  N12  1  0.81089656  0.25000000  0.30486395  1
  N  N13  1  0.31089656  0.25000000  0.19513605  1
  N  N14  1  0.18910344  0.75000000  0.69513605  1
  N  N15  1  0.68910344  0.75000000  0.80486395  1
loop_
_geom_bond_atom_site_label_1
_geom_bond_atom_site_label_2
_geom_bond_distance
_geom_bond_site_symmetry_2
Ca0 N6 2.387442 1_555
Ca0 N6 2.387442 1_545
Ca0 N10 2.392446 1_545
Ca0 N10 2.392446 1_555
Ca0 N4 2.470166 1_454
Ca1 N7 2.387442 1_555
Ca1 N7 2.387442 1_545
Ca1 N11 2.392446 1_545
Ca1 N11 2.392446 1_555
Ca1 N5 2.470166 1_555
Ca2 N4 2.387442 1_565
Ca2 N4 2.387442 1_555
Ca2 N8 2.392446 1_565
Ca2 N8 2.392446 1_555
Ca2 N6 2.470166 1_656
Ca3 N5 2.387442 1_555
Ca3 N5 2.387442 1_565
Ca3 N9 2.392446 1_565
Ca3 N9 2.392446 1_555
Ca3 N7 2.470166 1_555
Ca4 N8 2.267024 1_555
Ca4 N0 2.396221 1_556
Ca5 N9 2.267024 1_555
Ca5 N1 2.396221 1_555
Ca6 N10 2.267024 1_555
Ca6 N2 2.396221 1_554
Ca7 N11 2.267024 1_555
Ca7 N3 2.396221 1_555
Ca8 N5 2.367073 1_555
Ca8 N9 2.591547 1_555
Ca8 Rh0 2.963163 1_556
Ca8 Rh2 3.063319 1_555
Ca8 Rh2 3.063319 1_545
Ca8 N2 3.149277 1_545
Ca8 N2 3.149277 1_555
Ca9 N4 2.367073 1_555
Ca9 N8 2.591547 1_555
Ca9 Rh1 2.963163 1_555
Ca9 Rh3 3.063319 1_655
Ca9 Rh3 3.063319 1_645
Ca9 N3 3.149277 1_545
Ca9 N3 3.149277 1_555
Ca10 N7 2.367073 1_555
Ca10 N11 2.591547 1_555
Ca10 Rh2 2.963163 1_554
Ca10 Rh0 3.063319 1_555
Ca10 Rh0 3.063319 1_565
Ca10 N0 3.149277 1_565
Ca10 N0 3.149277 1_555
Ca11 N6 2.367073 1_555
Ca11 N10 2.591547 1_555
Ca11 Rh3 2.963163 1_555
Ca11 Rh1 3.063319 1_465
Ca11 Rh1 3.063319 1_455
Ca11 N1 3.149277 1_555
Ca11 N1 3.149277 1_565
Ca12 N4 2.184611 1_455
Ca12 N2 2.524980 1_545
Ca12 N2 2.524980 1_555
Ca12 N14 2.551843 1_555
Ca12 N14 2.551843 1_545
Ca13 N5 2.184611 1_555
Ca13 N3 2.524980 1_545
Ca13 N3 2.524980 1_555
Ca13 N15 2.551843 1_555
Ca13 N15 2.551843 1_545
Ca14 N6 2.184611 1_655
Ca14 N0 2.524980 1_565
Ca14 N0 2.524980 1_555
Ca14 N12 2.551843 1_555
Ca14 N12 2.551843 1_565
Ca15 N7 2.184611 1_555
Ca15 N1 2.524980 1_565
Ca15 N1 2.524980 1_555
Ca15 N13 2.551843 1_555
Ca15 N13 2.551843 1_565
N0 N12 1.270131 1_555
N1 N13 1.270131 1_555
N4 N8 1.410728 1_555
N5 N9 1.410728 1_555
N10 N6 1.410728 1_555
N11 N7 1.410728 1_555
N12 Rh1 1.909690 1_555
N13 Rh0 1.909690 1_555
N14 N2 1.270131 1_555
N14 Rh3 1.909690 1_555
N15 N3 1.270131 1_555
N15 Rh2 1.909690 1_555
