# generated using pymatgen
data_CoNiS4
_symmetry_space_group_name_H-M   'P 1'
_cell_length_a   5.56687900
_cell_length_b   5.55919000
_cell_length_c   5.58537442
_cell_angle_alpha   89.64135115
_cell_angle_beta   90.00000000
_cell_angle_gamma   90.00000000
_symmetry_Int_Tables_number   1
_chemical_formula_structural   CoNiS4
_chemical_formula_sum   'Co2 Ni2 S8'
_cell_volume   172.84908415
_cell_formula_units_Z   2
loop_
 _symmetry_equiv_pos_site_id
 _symmetry_equiv_pos_as_xyz
  1  'x, y, z'
loop_
 _atom_site_type_symbol
 _atom_site_label
 _atom_site_symmetry_multiplicity
 _atom_site_fract_x
 _atom_site_fract_y
 _atom_site_fract_z
 _atom_site_occupancy
  Co  Co0  1  0.00000000  0.50000000  0.50000000  1
  Co  Co1  1  0.50000000  0.00000000  0.50000000  1
  Ni  Ni0  1  0.00000000  0.00000000  0.00000000  1
  Ni  Ni1  1  0.50000000  0.50000000  0.00000000  1
  S  S0  1  0.60628800  0.10624000  0.11389700  1
  S  S1  1  0.10628800  0.39376000  0.88610300  1
  S  S2  1  0.38539200  0.61473700  0.39440200  1
  S  S3  1  0.88539200  0.88526300  0.60559800  1
  S  S4  1  0.39371200  0.89376000  0.88610300  1
  S  S5  1  0.89371200  0.60624000  0.11389700  1
  S  S6  1  0.61460800  0.38526300  0.60559800  1
  S  S7  1  0.11460800  0.11473700  0.39440200  1
loop_
_geom_bond_atom_site_label_1
_geom_bond_atom_site_label_2
_geom_bond_distance
_geom_bond_site_symmetry_2
Co0 S1 2.309457 1_555
Co0 S5 2.309457 1_455
Co0 S2 2.313629 1_555
Co0 S6 2.313629 1_455
Co0 S3 2.314699 1_455
Co0 S7 2.314699 1_555
Co1 S0 2.309457 1_555
Co1 S4 2.309457 1_545
Co1 S7 2.313629 1_555
Co1 S3 2.313629 1_545
Co1 S6 2.314699 1_555
Co1 S2 2.314699 1_545
Ni0 S5 2.351388 1_445
Ni0 S1 2.351388 1_554
Ni0 S4 2.358384 1_544
Ni0 S0 2.358384 1_455
Ni0 S7 2.384153 1_555
Ni0 S3 2.384153 1_444
Ni1 S0 2.351388 1_555
Ni1 S4 2.351388 1_554
Ni1 S5 2.358384 1_555
Ni1 S1 2.358384 1_554
Ni1 S6 2.384153 1_554
Ni1 S2 2.384153 1_555
S0 S4 2.105534 1_544
S1 S5 2.105534 1_456
S2 S6 2.151335 1_555
S3 S7 2.151335 1_665
