# generated using pymatgen
data_Li3IrF6
_symmetry_space_group_name_H-M   'P 1'
_cell_length_a   6.73480658
_cell_length_b   5.67179814
_cell_length_c   6.42406722
_cell_angle_alpha   71.09228434
_cell_angle_beta   118.87068596
_cell_angle_gamma   123.34779355
_symmetry_Int_Tables_number   1
_chemical_formula_structural   Li3IrF6
_chemical_formula_sum   'Li3 Ir1 F6'
_cell_volume   178.93123700
_cell_formula_units_Z   1
loop_
 _symmetry_equiv_pos_site_id
 _symmetry_equiv_pos_as_xyz
  1  'x, y, z'
loop_
 _atom_site_type_symbol
 _atom_site_label
 _atom_site_symmetry_multiplicity
 _atom_site_fract_x
 _atom_site_fract_y
 _atom_site_fract_z
 _atom_site_occupancy
  Li  Li0  1  0.00000000  0.00000000  0.50000000  1
  Li  Li1  1  0.50000000  0.50000000  0.00000000  1
  Li  Li2  1  0.00000000  0.50000000  0.00000000  1
  Ir  Ir0  1  0.00000000  0.00000000  0.00000000  1
  F  F0  1  0.12191300  0.39751100  0.83500800  1
  F  F1  1  0.87808700  0.60248900  0.16499200  1
  F  F2  1  0.90389000  0.77523600  0.74237100  1
  F  F3  1  0.09611000  0.22476400  0.25762900  1
  F  F4  1  0.63294500  0.89596900  0.92286700  1
  F  F5  1  0.36705500  0.10403100  0.07713300  1
loop_
_geom_bond_atom_site_label_1
_geom_bond_atom_site_label_2
_geom_bond_distance
_geom_bond_site_symmetry_2
F0 Li2 1.974817 1_556
F0 Li1 2.027529 1_556
F0 Ir0 2.034011 1_556
F1 Li2 1.974817 1_655
F1 Li1 2.027529 1_555
F1 Ir0 2.034011 1_665
F2 Li0 1.802225 1_665
F2 Li2 1.999272 1_656
F2 Ir0 2.051562 1_666
F3 Li0 1.802225 1_555
F3 Li2 1.999272 1_555
F3 Ir0 2.051562 1_555
F4 Li1 1.894061 1_556
F4 Ir0 2.026732 1_666
F5 Li1 1.894061 1_555
F5 Ir0 2.026732 1_555
