# generated using pymatgen
data_DyAu
_symmetry_space_group_name_H-M   'P 1'
_cell_length_a   3.57113269
_cell_length_b   3.57113269
_cell_length_c   3.57113269
_cell_angle_alpha   90.00000000
_cell_angle_beta   90.00000000
_cell_angle_gamma   90.00000000
_symmetry_Int_Tables_number   1
_chemical_formula_structural   DyAu
_chemical_formula_sum   'Dy1 Au1'
_cell_volume   45.54261480
_cell_formula_units_Z   1
loop_
 _symmetry_equiv_pos_site_id
 _symmetry_equiv_pos_as_xyz
  1  'x, y, z'
loop_
 _atom_site_type_symbol
 _atom_site_label
 _atom_site_symmetry_multiplicity
 _atom_site_fract_x
 _atom_site_fract_y
 _atom_site_fract_z
 _atom_site_occupancy
  Dy  Dy0  1  0.50000000  0.50000000  0.50000000  1
  Au  Au0  1  -0.00000000  -0.00000000  0.00000000  1
loop_
_geom_bond_atom_site_label_1
_geom_bond_atom_site_label_2
_geom_bond_distance
_geom_bond_site_symmetry_2
Au0 Dy0 3.092692 1_455
Au0 Dy0 3.092692 1_454
Au0 Dy0 3.092692 1_445
Au0 Dy0 3.092692 1_444
Au0 Dy0 3.092692 1_544
Au0 Dy0 3.092692 1_555
Au0 Dy0 3.092692 1_545
Au0 Dy0 3.092692 1_554
