# generated using pymatgen
data_Cd3(InSe3)2
_symmetry_space_group_name_H-M   'P 1'
_cell_length_a   8.18734023
_cell_length_b   8.18734023
_cell_length_c   8.18734091
_cell_angle_alpha   54.39838888
_cell_angle_beta   54.39838888
_cell_angle_gamma   54.39839101
_symmetry_Int_Tables_number   1
_chemical_formula_structural   Cd3(InSe3)2
_chemical_formula_sum   'Cd3 In2 Se6'
_cell_volume   337.37367296
_cell_formula_units_Z   1
loop_
 _symmetry_equiv_pos_site_id
 _symmetry_equiv_pos_as_xyz
  1  'x, y, z'
loop_
 _atom_site_type_symbol
 _atom_site_label
 _atom_site_symmetry_multiplicity
 _atom_site_fract_x
 _atom_site_fract_y
 _atom_site_fract_z
 _atom_site_occupancy
  Cd  Cd0  1  0.16096800  0.48041100  0.85699800  1
  Cd  Cd1  1  0.48041100  0.85699800  0.16096800  1
  Cd  Cd2  1  0.85699800  0.16096800  0.48041100  1
  In  In0  1  0.66642400  0.66642400  0.66642400  1
  In  In1  1  0.00269600  0.00269600  0.00269600  1
  Se  Se0  1  0.04753700  0.37154800  0.69237100  1
  Se  Se1  1  0.37154800  0.69237100  0.04753700  1
  Se  Se2  1  0.69237100  0.04753700  0.37154800  1
  Se  Se3  1  0.87539500  0.87539500  0.87539500  1
  Se  Se4  1  0.22148000  0.22148000  0.22148000  1
  Se  Se5  1  0.53915900  0.53915900  0.53915900  1
loop_
_geom_bond_atom_site_label_1
_geom_bond_atom_site_label_2
_geom_bond_distance
_geom_bond_site_symmetry_2
Cd0 Se4 2.603390 1_556
Cd0 Se0 2.700643 1_555
Cd0 Se3 2.702045 1_455
Cd0 Se5 2.736056 1_555
Cd1 Se4 2.603390 1_565
Cd1 Se1 2.700643 1_555
Cd1 Se3 2.702045 1_554
Cd1 Se5 2.736056 1_555
Cd2 Se4 2.603390 1_655
Cd2 Se2 2.700643 1_555
Cd2 Se3 2.702045 1_545
Cd2 Se5 2.736056 1_555
In0 Se2 2.648362 1_565
In0 Se0 2.648362 1_655
In0 Se1 2.648362 1_556
In0 Se5 2.655036 1_555
In1 Se0 2.642244 1_554
In1 Se1 2.642244 1_545
In1 Se2 2.642244 1_455
In1 Se3 2.655787 1_444
