# generated using pymatgen
data_Lu2Si4Mo3
_symmetry_space_group_name_H-M   'P 1'
_cell_length_a   6.69821600
_cell_length_b   6.91555000
_cell_length_c   12.84979600
_cell_angle_alpha   90.00000000
_cell_angle_beta   90.00000000
_cell_angle_gamma   90.00000000
_symmetry_Int_Tables_number   1
_chemical_formula_structural   Lu2Si4Mo3
_chemical_formula_sum   'Lu8 Si16 Mo12'
_cell_volume   595.22629276
_cell_formula_units_Z   4
loop_
 _symmetry_equiv_pos_site_id
 _symmetry_equiv_pos_as_xyz
  1  'x, y, z'
loop_
 _atom_site_type_symbol
 _atom_site_label
 _atom_site_symmetry_multiplicity
 _atom_site_fract_x
 _atom_site_fract_y
 _atom_site_fract_z
 _atom_site_occupancy
  Lu  Lu0  1  0.49707100  0.33143500  0.09353500  1
  Lu  Lu1  1  0.99707100  0.16856500  0.40646500  1
  Lu  Lu2  1  0.50292900  0.66856500  0.59353500  1
  Lu  Lu3  1  0.00292900  0.83143500  0.90646500  1
  Lu  Lu4  1  0.50292900  0.66856500  0.90646500  1
  Lu  Lu5  1  0.00292900  0.83143500  0.59353500  1
  Lu  Lu6  1  0.49707100  0.33143500  0.40646500  1
  Lu  Lu7  1  0.99707100  0.16856500  0.09353500  1
  Si  Si0  1  0.66125200  0.03985900  0.54625100  1
  Si  Si1  1  0.16125200  0.46014100  0.95374900  1
  Si  Si2  1  0.33874800  0.96014100  0.04625100  1
  Si  Si3  1  0.83874800  0.53985900  0.45374900  1
  Si  Si4  1  0.33874800  0.96014100  0.45374900  1
  Si  Si5  1  0.83874800  0.53985900  0.04625100  1
  Si  Si6  1  0.66125200  0.03985900  0.95374900  1
  Si  Si7  1  0.16125200  0.46014100  0.54625100  1
  Si  Si8  1  0.53375900  0.36961200  0.75000000  1
  Si  Si9  1  0.03375900  0.13038800  0.75000000  1
  Si  Si10  1  0.46624100  0.63038800  0.25000000  1
  Si  Si11  1  0.96624100  0.86961200  0.25000000  1
  Si  Si12  1  0.80114700  0.63291000  0.75000000  1
  Si  Si13  1  0.30114700  0.86709000  0.75000000  1
  Si  Si14  1  0.19885300  0.36709000  0.25000000  1
  Si  Si15  1  0.69885300  0.13291000  0.25000000  1
  Mo  Mo0  1  0.82964500  0.33391900  0.62448400  1
  Mo  Mo1  1  0.32964500  0.16608100  0.87551600  1
  Mo  Mo2  1  0.17035500  0.66608100  0.12448400  1
  Mo  Mo3  1  0.67035500  0.83391900  0.37551600  1
  Mo  Mo4  1  0.17035500  0.66608100  0.37551600  1
  Mo  Mo5  1  0.67035500  0.83391900  0.12448400  1
  Mo  Mo6  1  0.82964500  0.33391900  0.87551600  1
  Mo  Mo7  1  0.32964500  0.16608100  0.62448400  1
  Mo  Mo8  1  0.66614900  0.99604300  0.75000000  1
  Mo  Mo9  1  0.16614900  0.50395700  0.75000000  1
  Mo  Mo10  1  0.33385100  0.00395700  0.25000000  1
  Mo  Mo11  1  0.83385100  0.49604300  0.25000000  1
loop_
_geom_bond_atom_site_label_1
_geom_bond_atom_site_label_2
_geom_bond_distance
_geom_bond_site_symmetry_2
Lu0 Si5 2.772096 1_555
Lu0 Si15 2.784588 1_555
Lu0 Si2 2.843744 1_545
Lu0 Si14 2.844856 1_555
Lu0 Si10 2.891223 1_555
Lu0 Si6 2.915767 1_554
Lu0 Si1 3.013036 1_554
Lu1 Si4 2.772096 1_645
Lu1 Si14 2.784588 1_655
Lu1 Si3 2.843744 1_555
Lu1 Si15 2.844856 1_555
Lu1 Si11 2.891223 1_545
Lu1 Si7 2.915767 1_655
Lu1 Si0 3.013036 1_555
Lu2 Si7 2.772096 1_555
Lu2 Si13 2.784588 1_555
Lu2 Si0 2.843744 1_565
Lu2 Si12 2.844856 1_555
Lu2 Si8 2.891223 1_555
Lu2 Si4 2.915767 1_555
Lu2 Si3 3.013036 1_555
Lu3 Si6 2.772096 1_465
Lu3 Si12 2.784588 1_455
Lu3 Si1 2.843744 1_555
Lu3 Si13 2.844856 1_555
Lu3 Si9 2.891223 1_565
Lu3 Si5 2.915767 1_456
Lu3 Si2 3.013036 1_556
Lu4 Si1 2.772096 1_555
Lu4 Si13 2.784588 1_555
Lu4 Si6 2.843744 1_565
Lu4 Si12 2.844856 1_555
Lu4 Si8 2.891223 1_555
Lu4 Si2 2.915767 1_556
Lu4 Si5 3.013036 1_556
Lu5 Si0 2.772096 1_465
Lu5 Si12 2.784588 1_455
Lu5 Si7 2.843744 1_555
Lu5 Si13 2.844856 1_555
Lu5 Si9 2.891223 1_565
Lu5 Si3 2.915767 1_455
Lu5 Si4 3.013036 1_555
Lu6 Si3 2.772096 1_555
Lu6 Si15 2.784588 1_555
Lu6 Si4 2.843744 1_545
Lu6 Si14 2.844856 1_555
Lu6 Si10 2.891223 1_555
Lu6 Si0 2.915767 1_555
Lu6 Si7 3.013036 1_555
Lu7 Si2 2.772096 1_645
Lu7 Si14 2.784588 1_655
Lu7 Si5 2.843744 1_555
Lu7 Si15 2.844856 1_555
Lu7 Si11 2.891223 1_545
Lu7 Si1 2.915767 1_654
Lu7 Si6 3.013036 1_554
Si0 Si4 2.526508 1_545
Si1 Si5 2.526508 1_456
Si2 Si6 2.526508 1_564
Si3 Si7 2.526508 1_655
Si10 Si14 2.554067 1_555
Si11 Si15 2.554067 1_565
Si12 Si8 2.554067 1_555
Si13 Si9 2.554067 1_565
Mo0 Si0 2.533435 1_555
Mo0 Si9 2.540014 1_655
Mo0 Si8 2.567137 1_555
Mo0 Si7 2.589623 1_655
Mo0 Si3 2.616347 1_555
Mo0 Si12 2.629272 1_555
Mo1 Si1 2.533435 1_555
Mo1 Si8 2.540014 1_555
Mo1 Si9 2.567137 1_555
Mo1 Si6 2.589623 1_555
Mo1 Si2 2.616347 1_546
Mo1 Si13 2.629272 1_545
Mo2 Si2 2.533435 1_555
Mo2 Si11 2.540014 1_455
Mo2 Si10 2.567137 1_555
Mo2 Si5 2.589623 1_455
Mo2 Si1 2.616347 1_554
Mo2 Si14 2.629272 1_555
Mo3 Si3 2.533435 1_555
Mo3 Si10 2.540014 1_555
Mo3 Si11 2.567137 1_555
Mo3 Si4 2.589623 1_555
Mo3 Si0 2.616347 1_565
Mo3 Si15 2.629272 1_565
Mo4 Si4 2.533435 1_555
Mo4 Si11 2.540014 1_455
Mo4 Si10 2.567137 1_555
Mo4 Si3 2.589623 1_455
Mo4 Si7 2.616347 1_555
Mo4 Si14 2.629272 1_555
Mo5 Si5 2.533435 1_555
Mo5 Si10 2.540014 1_555
Mo5 Si11 2.567137 1_555
Mo5 Si2 2.589623 1_555
Mo5 Si6 2.616347 1_564
Mo5 Si15 2.629272 1_565
Mo6 Si6 2.533435 1_555
Mo6 Si9 2.540014 1_655
Mo6 Si8 2.567137 1_555
Mo6 Si1 2.589623 1_655
Mo6 Si5 2.616347 1_556
Mo6 Si12 2.629272 1_555
Mo7 Si7 2.533435 1_555
Mo7 Si8 2.540014 1_555
Mo7 Si9 2.567137 1_555
Mo7 Si0 2.589623 1_555
Mo7 Si4 2.616347 1_545
Mo7 Si13 2.629272 1_545
Mo8 Si13 2.602427 1_555
Mo8 Si9 2.631776 1_665
Mo8 Si6 2.635814 1_565
Mo8 Si0 2.635814 1_565
Mo8 Si12 2.669103 1_555
Mo8 Si8 2.731393 1_565
Mo9 Si12 2.602427 1_455
Mo9 Si8 2.631776 1_555
Mo9 Si1 2.635814 1_555
Mo9 Si7 2.635814 1_555
Mo9 Si13 2.669103 1_555
Mo9 Si9 2.731393 1_555
Mo10 Si15 2.602427 1_555
Mo10 Si11 2.631776 1_445
Mo10 Si4 2.635814 1_545
Mo10 Si2 2.635814 1_545
Mo10 Si14 2.669103 1_555
Mo10 Si10 2.731393 1_545
Mo11 Si14 2.602427 1_655
Mo11 Si10 2.631776 1_555
Mo11 Si5 2.635814 1_555
Mo11 Si3 2.635814 1_555
Mo11 Si15 2.669103 1_555
Mo11 Si11 2.731393 1_555
