# generated using pymatgen
data_KHo(SO5)2
_symmetry_space_group_name_H-M   'P 1'
_cell_length_a   8.23519400
_cell_length_b   10.05102800
_cell_length_c   10.92711273
_cell_angle_alpha   81.45496536
_cell_angle_beta   90.00000000
_cell_angle_gamma   90.00000000
_symmetry_Int_Tables_number   1
_chemical_formula_structural   KHo(SO5)2
_chemical_formula_sum   'K4 Ho4 S8 O40'
_cell_volume   894.42070732
_cell_formula_units_Z   4
loop_
 _symmetry_equiv_pos_site_id
 _symmetry_equiv_pos_as_xyz
  1  'x, y, z'
loop_
 _atom_site_type_symbol
 _atom_site_label
 _atom_site_symmetry_multiplicity
 _atom_site_fract_x
 _atom_site_fract_y
 _atom_site_fract_z
 _atom_site_occupancy
  K  K0  1  0.26794000  0.91035000  0.13628500  1
  K  K1  1  0.73206000  0.08965000  0.86371500  1
  K  K2  1  0.76794000  0.58965000  0.86371500  1
  K  K3  1  0.23206000  0.41035000  0.13628500  1
  Ho  Ho0  1  0.76211200  0.96752000  0.31662000  1
  Ho  Ho1  1  0.23788800  0.03248000  0.68338000  1
  Ho  Ho2  1  0.26211200  0.53248000  0.68338000  1
  Ho  Ho3  1  0.73788800  0.46752000  0.31662000  1
  S  S0  1  0.64664300  0.68983500  0.53331000  1
  S  S1  1  0.35335700  0.31016500  0.46669000  1
  S  S2  1  0.14664300  0.81016500  0.46669000  1
  S  S3  1  0.85335700  0.18983500  0.53331000  1
  S  S4  1  0.77308200  0.79255500  0.11388700  1
  S  S5  1  0.22691800  0.20744500  0.88611300  1
  S  S6  1  0.27308200  0.70744500  0.88611300  1
  S  S7  1  0.72691800  0.29255500  0.11388700  1
  O  O0  1  0.62276200  0.85283200  0.16127700  1
  O  O1  1  0.37723800  0.14716800  0.83872300  1
  O  O2  1  0.12276200  0.64716800  0.83872300  1
  O  O3  1  0.87723800  0.35283200  0.16127700  1
  O  O4  1  0.91145800  0.85094100  0.17930700  1
  O  O5  1  0.08854200  0.14905900  0.82069300  1
  O  O6  1  0.41145800  0.64905900  0.82069300  1
  O  O7  1  0.58854200  0.35094100  0.17930700  1
  O  O8  1  0.98314200  0.87613800  0.43394700  1
  O  O9  1  0.01685800  0.12386200  0.56605300  1
  O  O10  1  0.48314200  0.62386200  0.56605300  1
  O  O11  1  0.51685800  0.37613800  0.43394700  1
  O  O12  1  0.61209400  0.80962800  0.43920100  1
  O  O13  1  0.38790600  0.19037200  0.56079900  1
  O  O14  1  0.11209400  0.69037200  0.56079900  1
  O  O15  1  0.88790600  0.30962800  0.43920100  1
  O  O16  1  0.28696000  0.67906900  0.02052400  1
  O  O17  1  0.71304000  0.32093100  0.97947600  1
  O  O18  1  0.78696000  0.82093100  0.97947600  1
  O  O19  1  0.21304000  0.17906900  0.02052400  1
  O  O20  1  0.47538600  0.55569300  0.28770800  1
  O  O21  1  0.52461400  0.44430700  0.71229200  1
  O  O22  1  0.97538600  0.94430700  0.71229200  1
  O  O23  1  0.02461400  0.05569300  0.28770800  1
  O  O24  1  0.72522000  0.72613600  0.64236300  1
  O  O25  1  0.27478000  0.27386400  0.35763700  1
  O  O26  1  0.22522000  0.77386400  0.35763700  1
  O  O27  1  0.77478000  0.22613600  0.64236300  1
  O  O28  1  0.74684900  0.59404200  0.47278800  1
  O  O29  1  0.25315100  0.40595800  0.52721200  1
  O  O30  1  0.24684900  0.90595800  0.52721200  1
  O  O31  1  0.75315100  0.09404200  0.47278800  1
  O  O32  1  0.77333200  0.64209700  0.15427400  1
  O  O33  1  0.22666800  0.35790300  0.84572600  1
  O  O34  1  0.27333200  0.85790300  0.84572600  1
  O  O35  1  0.72666800  0.14209700  0.15427400  1
  O  O36  1  0.51643300  0.97027200  0.69941800  1
  O  O37  1  0.48356700  0.02972800  0.30058200  1
  O  O38  1  0.01643300  0.52972800  0.30058200  1
  O  O39  1  0.98356700  0.47027200  0.69941800  1
loop_
_geom_bond_atom_site_label_1
_geom_bond_atom_site_label_2
_geom_bond_distance
_geom_bond_site_symmetry_2
K0 O26 2.621053 1_555
K0 O16 2.811093 1_555
K0 O19 2.843247 1_565
K0 O37 2.907943 1_565
K0 O0 2.983308 1_555
K0 O4 3.018685 1_455
K0 O23 3.099274 1_565
K0 O34 3.295097 1_554
K1 O27 2.621053 1_555
K1 O17 2.811093 1_555
K1 O18 2.843247 1_545
K1 O36 2.907943 1_545
K1 O1 2.983308 1_555
K1 O5 3.018685 1_655
K1 O22 3.099274 1_545
K1 O35 3.295097 1_556
K2 O24 2.621053 1_555
K2 O18 2.811093 1_555
K2 O17 2.843247 1_555
K2 O39 2.907943 1_555
K2 O2 2.983308 1_655
K2 O6 3.018685 1_555
K2 O21 3.099274 1_555
K2 O32 3.295097 1_556
K3 O25 2.621053 1_555
K3 O19 2.811093 1_555
K3 O16 2.843247 1_555
K3 O38 2.907943 1_555
K3 O3 2.983308 1_455
K3 O7 3.018685 1_555
K3 O20 3.099274 1_555
K3 O33 3.295097 1_554
Ho0 O31 2.275855 1_565
Ho0 O12 2.281934 1_555
Ho0 O35 2.320786 1_565
Ho0 O8 2.334639 1_555
Ho0 O23 2.339913 1_665
Ho0 O37 2.377171 1_565
Ho0 O4 2.378945 1_555
Ho0 O0 2.471546 1_555
Ho1 O30 2.275855 1_545
Ho1 O13 2.281934 1_555
Ho1 O34 2.320786 1_545
Ho1 O9 2.334639 1_555
Ho1 O22 2.339913 1_445
Ho1 O36 2.377171 1_545
Ho1 O5 2.378945 1_555
Ho1 O1 2.471546 1_555
Ho2 O29 2.275855 1_555
Ho2 O14 2.281934 1_555
Ho2 O33 2.320786 1_555
Ho2 O10 2.334639 1_555
Ho2 O21 2.339913 1_555
Ho2 O39 2.377171 1_455
Ho2 O6 2.378945 1_555
Ho2 O2 2.471546 1_555
Ho3 O28 2.275855 1_555
Ho3 O15 2.281934 1_555
Ho3 O32 2.320786 1_555
Ho3 O11 2.334639 1_555
Ho3 O20 2.339913 1_555
Ho3 O38 2.377171 1_655
Ho3 O7 2.378945 1_555
Ho3 O3 2.471546 1_555
O0 S4 1.503618 1_555
O1 S5 1.503618 1_555
O2 S6 1.503618 1_555
O3 S7 1.503618 1_555
O4 S4 1.509516 1_555
O5 S5 1.509516 1_555
O6 S6 1.509516 1_555
O7 S7 1.509516 1_555
O8 S2 1.519923 1_655
O9 S3 1.519923 1_455
O10 S0 1.519923 1_555
O11 S1 1.519923 1_555
O12 S0 1.490034 1_555
O13 S1 1.490034 1_555
O14 S2 1.490034 1_555
O15 S3 1.490034 1_555
O16 S6 1.458449 1_554
O17 S7 1.458449 1_556
O18 S4 1.458449 1_556
O19 S5 1.458449 1_554
O24 S0 1.449502 1_555
O25 S1 1.449502 1_555
O26 S2 1.449502 1_555
O27 S3 1.449502 1_555
O28 S0 1.494851 1_555
O29 S1 1.494851 1_555
O30 S2 1.494851 1_555
O31 S3 1.494851 1_555
O32 S4 1.511078 1_555
O33 S5 1.511078 1_555
O34 S6 1.511078 1_555
O35 S7 1.511078 1_555
