# generated using pymatgen
data_PrNd
_symmetry_space_group_name_H-M   'P 1'
_cell_length_a   7.45924472
_cell_length_b   7.45927508
_cell_length_c   23.89097088
_cell_angle_alpha   90.00000000
_cell_angle_beta   90.00000000
_cell_angle_gamma   59.99989400
_symmetry_Int_Tables_number   1
_chemical_formula_structural   PrNd
_chemical_formula_sum   'Pr16 Nd16'
_cell_volume   1151.21236447
_cell_formula_units_Z   16
loop_
 _symmetry_equiv_pos_site_id
 _symmetry_equiv_pos_as_xyz
  1  'x, y, z'
loop_
 _atom_site_type_symbol
 _atom_site_label
 _atom_site_symmetry_multiplicity
 _atom_site_fract_x
 _atom_site_fract_y
 _atom_site_fract_z
 _atom_site_occupancy
  Pr  Pr0_0  1  0.00000006  0.99999997  0.25001547  1
  Pr  Pr0_1  1  0.00000006  0.99999997  0.75001547  1
  Pr  Pr0_2  1  0.00000006  0.49999997  0.25001547  1
  Pr  Pr0_3  1  0.00000006  0.49999997  0.75001547  1
  Pr  Pr0_4  1  0.50000006  0.99999997  0.25001547  1
  Pr  Pr0_5  1  0.50000006  0.99999997  0.75001547  1
  Pr  Pr0_6  1  0.50000006  0.49999997  0.25001547  1
  Pr  Pr0_7  1  0.50000006  0.49999997  0.75001547  1
  Pr  Pr1_0  1  0.00000006  0.99999997  0.49998453  1
  Pr  Pr1_1  1  0.00000006  0.99999997  0.99998453  1
  Pr  Pr1_2  1  0.00000006  0.49999997  0.49998453  1
  Pr  Pr1_3  1  0.00000006  0.49999997  0.99998453  1
  Pr  Pr1_4  1  0.50000006  0.99999997  0.49998453  1
  Pr  Pr1_5  1  0.50000006  0.99999997  0.99998453  1
  Pr  Pr1_6  1  0.50000006  0.49999997  0.49998453  1
  Pr  Pr1_7  1  0.50000006  0.49999997  0.99998453  1
  Nd  Nd0_0  1  0.16672192  0.16663829  0.37500000  1
  Nd  Nd0_1  1  0.16672192  0.16663829  0.87500000  1
  Nd  Nd0_2  1  0.16672192  0.66663829  0.37500000  1
  Nd  Nd0_3  1  0.16672192  0.66663829  0.87500000  1
  Nd  Nd0_4  1  0.66672193  0.16663829  0.37500000  1
  Nd  Nd0_5  1  0.66672193  0.16663829  0.87500000  1
  Nd  Nd0_6  1  0.66672192  0.66663829  0.37500000  1
  Nd  Nd0_7  1  0.66672192  0.66663829  0.87500000  1
  Nd  Nd1_0  1  0.33327795  0.33336178  0.12500000  1
  Nd  Nd1_1  1  0.33327795  0.33336178  0.62500000  1
  Nd  Nd1_2  1  0.33327795  0.83336177  0.12500000  1
  Nd  Nd1_3  1  0.33327795  0.83336177  0.62500000  1
  Nd  Nd1_4  1  0.83327795  0.33336178  0.12500000  1
  Nd  Nd1_5  1  0.83327795  0.33336178  0.62500000  1
  Nd  Nd1_6  1  0.83327795  0.83336178  0.12500000  1
  Nd  Nd1_7  1  0.83327795  0.83336178  0.62500000  1
loop_
_geom_bond_atom_site_label_1
_geom_bond_atom_site_label_2
_geom_bond_distance
_geom_bond_site_symmetry_2
Pr0_0 Pr0_4 3.729622 1_555
Pr0_0 Pr0_4 3.729622 1_455
Pr0_0 Pr0_6 3.729624 1_555
Pr0_0 Pr0_6 3.729624 1_465
Pr0_0 Pr0_2 3.729638 1_565
Pr0_0 Pr0_2 3.729638 1_555
Pr0_1 Pr0_5 3.729622 1_555
Pr0_1 Pr0_5 3.729622 1_455
Pr0_1 Pr0_7 3.729624 1_555
Pr0_1 Pr0_7 3.729624 1_465
Pr0_1 Pr0_3 3.729638 1_555
Pr0_1 Pr0_3 3.729638 1_565
Pr0_2 Pr0_6 3.729622 1_555
Pr0_2 Pr0_6 3.729622 1_455
Pr0_2 Pr0_4 3.729624 1_545
Pr0_2 Pr0_4 3.729624 1_455
Pr0_3 Pr0_7 3.729622 1_555
Pr0_3 Pr0_7 3.729622 1_455
Pr0_3 Pr0_5 3.729624 1_545
Pr0_3 Pr0_5 3.729624 1_455
Pr0_4 Pr0_6 3.729638 1_565
Pr0_4 Pr0_6 3.729638 1_555
Pr0_5 Pr0_7 3.729638 1_565
Pr0_5 Pr0_7 3.729638 1_555
Pr1_0 Pr1_4 3.729622 1_555
Pr1_0 Pr1_4 3.729622 1_455
Pr1_0 Pr1_6 3.729624 1_555
Pr1_0 Pr1_6 3.729624 1_465
Pr1_0 Pr1_2 3.729638 1_555
Pr1_0 Pr1_2 3.729638 1_565
Pr1_1 Pr1_5 3.729622 1_555
Pr1_1 Pr1_5 3.729622 1_455
Pr1_1 Pr1_7 3.729624 1_555
Pr1_1 Pr1_7 3.729624 1_465
Pr1_1 Pr1_3 3.729638 1_555
Pr1_1 Pr1_3 3.729638 1_565
Pr1_2 Pr1_6 3.729622 1_555
Pr1_2 Pr1_6 3.729622 1_455
Pr1_2 Pr1_4 3.729624 1_545
Pr1_2 Pr1_4 3.729624 1_455
Pr1_3 Pr1_7 3.729622 1_555
Pr1_3 Pr1_7 3.729622 1_455
Pr1_3 Pr1_5 3.729624 1_545
Pr1_3 Pr1_5 3.729624 1_455
Pr1_4 Pr1_6 3.729638 1_565
Pr1_4 Pr1_6 3.729638 1_555
Pr1_5 Pr1_7 3.729638 1_565
Pr1_5 Pr1_7 3.729638 1_555
Nd0_0 Pr1_4 3.681217 1_545
Nd0_0 Pr0_4 3.681217 1_545
Nd0_0 Pr1_0 3.681531 1_545
Nd0_0 Pr0_0 3.681531 1_545
Nd0_0 Pr1_2 3.681537 1_555
Nd0_0 Pr0_2 3.681537 1_555
Nd0_0 Nd0_4 3.729622 1_455
Nd0_0 Nd0_4 3.729622 1_555
Nd0_0 Nd0_6 3.729624 1_545
Nd0_0 Nd0_6 3.729624 1_455
Nd0_0 Nd0_2 3.729638 1_545
Nd0_0 Nd0_2 3.729638 1_555
Nd0_1 Pr1_5 3.681217 1_545
Nd0_1 Pr0_5 3.681217 1_545
Nd0_1 Pr1_1 3.681531 1_545
Nd0_1 Pr0_1 3.681531 1_545
Nd0_1 Pr1_3 3.681537 1_555
Nd0_1 Pr0_3 3.681537 1_555
Nd0_1 Nd0_5 3.729622 1_455
Nd0_1 Nd0_5 3.729622 1_555
Nd0_1 Nd0_7 3.729624 1_545
Nd0_1 Nd0_7 3.729624 1_455
Nd0_1 Nd0_3 3.729638 1_555
Nd0_1 Nd0_3 3.729638 1_545
Nd0_2 Pr1_6 3.681217 1_555
Nd0_2 Pr0_6 3.681217 1_555
Nd0_2 Pr1_2 3.681531 1_555
Nd0_2 Pr0_2 3.681531 1_555
Nd0_2 Pr1_0 3.681537 1_555
Nd0_2 Pr0_0 3.681537 1_555
Nd0_2 Nd0_6 3.729622 1_455
Nd0_2 Nd0_6 3.729622 1_555
Nd0_2 Nd0_4 3.729624 1_465
Nd0_2 Nd0_4 3.729624 1_555
Nd0_3 Pr1_7 3.681217 1_555
Nd0_3 Pr0_7 3.681217 1_555
Nd0_3 Pr1_3 3.681531 1_555
Nd0_3 Pr0_3 3.681531 1_555
Nd0_3 Pr1_1 3.681537 1_555
Nd0_3 Pr0_1 3.681537 1_555
Nd0_3 Nd0_7 3.729622 1_455
Nd0_3 Nd0_7 3.729622 1_555
Nd0_3 Nd0_5 3.729624 1_465
Nd0_3 Nd0_5 3.729624 1_555
Nd0_4 Pr1_0 3.681217 1_645
Nd0_4 Pr0_0 3.681217 1_645
Nd0_4 Pr1_4 3.681531 1_545
Nd0_4 Pr0_4 3.681531 1_545
Nd0_4 Pr1_6 3.681537 1_555
Nd0_4 Pr0_6 3.681537 1_555
Nd0_4 Nd0_6 3.729638 1_545
Nd0_4 Nd0_6 3.729638 1_555
Nd0_5 Pr1_1 3.681217 1_645
Nd0_5 Pr0_1 3.681217 1_645
Nd0_5 Pr1_5 3.681531 1_545
Nd0_5 Pr0_5 3.681531 1_545
Nd0_5 Pr1_7 3.681537 1_555
Nd0_5 Pr0_7 3.681537 1_555
Nd0_5 Nd0_7 3.729638 1_545
Nd0_5 Nd0_7 3.729638 1_555
Nd0_6 Pr1_2 3.681217 1_655
Nd0_6 Pr0_2 3.681217 1_655
Nd0_6 Pr1_6 3.681531 1_555
Nd0_6 Pr0_6 3.681531 1_555
Nd0_6 Pr1_4 3.681537 1_555
Nd0_6 Pr0_4 3.681537 1_555
Nd0_7 Pr1_3 3.681217 1_655
Nd0_7 Pr0_3 3.681217 1_655
Nd0_7 Pr1_7 3.681531 1_555
Nd0_7 Pr0_7 3.681531 1_555
Nd0_7 Pr1_5 3.681537 1_555
Nd0_7 Pr0_5 3.681537 1_555
Nd1_0 Pr0_2 3.681815 1_555
Nd1_0 Pr1_3 3.681815 1_554
Nd1_0 Pr0_6 3.682131 1_555
Nd1_0 Pr1_7 3.682131 1_554
Nd1_0 Pr0_4 3.682137 1_545
Nd1_0 Pr1_5 3.682137 1_544
Nd1_0 Nd1_4 3.729622 1_555
Nd1_0 Nd1_4 3.729622 1_455
Nd1_0 Nd1_6 3.729624 1_545
Nd1_0 Nd1_6 3.729624 1_455
Nd1_0 Nd1_2 3.729638 1_555
Nd1_0 Nd1_2 3.729638 1_545
Nd1_1 Pr1_2 3.681815 1_555
Nd1_1 Pr0_3 3.681815 1_555
Nd1_1 Pr1_6 3.682131 1_555
Nd1_1 Pr0_7 3.682131 1_555
Nd1_1 Pr1_4 3.682137 1_545
Nd1_1 Pr0_5 3.682137 1_545
Nd1_1 Nd1_5 3.729622 1_555
Nd1_1 Nd1_5 3.729622 1_455
Nd1_1 Nd1_7 3.729624 1_545
Nd1_1 Nd1_7 3.729624 1_455
Nd1_1 Nd1_3 3.729638 1_555
Nd1_1 Nd1_3 3.729638 1_545
Nd1_2 Pr0_0 3.681815 1_555
Nd1_2 Pr1_1 3.681815 1_554
Nd1_2 Pr0_4 3.682131 1_555
Nd1_2 Pr1_5 3.682131 1_554
Nd1_2 Pr0_6 3.682137 1_555
Nd1_2 Pr1_7 3.682137 1_554
Nd1_2 Nd1_6 3.729622 1_555
Nd1_2 Nd1_6 3.729622 1_455
Nd1_2 Nd1_4 3.729624 1_555
Nd1_2 Nd1_4 3.729624 1_465
Nd1_3 Pr1_0 3.681815 1_555
Nd1_3 Pr0_1 3.681815 1_555
Nd1_3 Pr1_4 3.682131 1_555
Nd1_3 Pr0_5 3.682131 1_555
Nd1_3 Pr1_6 3.682137 1_555
Nd1_3 Pr0_7 3.682137 1_555
Nd1_3 Nd1_7 3.729622 1_555
Nd1_3 Nd1_7 3.729622 1_455
Nd1_3 Nd1_5 3.729624 1_465
Nd1_3 Nd1_5 3.729624 1_555
Nd1_4 Pr0_6 3.681815 1_555
Nd1_4 Pr1_7 3.681815 1_554
Nd1_4 Pr0_2 3.682131 1_655
Nd1_4 Pr1_3 3.682131 1_654
Nd1_4 Pr0_0 3.682137 1_645
Nd1_4 Pr1_1 3.682137 1_644
Nd1_4 Nd1_6 3.729638 1_545
Nd1_4 Nd1_6 3.729638 1_555
Nd1_5 Pr1_6 3.681815 1_555
Nd1_5 Pr0_7 3.681815 1_555
Nd1_5 Pr1_2 3.682131 1_655
Nd1_5 Pr0_3 3.682131 1_655
Nd1_5 Pr1_0 3.682137 1_645
Nd1_5 Pr0_1 3.682137 1_645
Nd1_5 Nd1_7 3.729638 1_545
Nd1_5 Nd1_7 3.729638 1_555
Nd1_6 Pr0_4 3.681815 1_555
Nd1_6 Pr1_5 3.681815 1_554
Nd1_6 Pr0_0 3.682131 1_655
Nd1_6 Pr1_1 3.682131 1_654
Nd1_6 Pr0_2 3.682137 1_655
Nd1_6 Pr1_3 3.682137 1_654
Nd1_7 Pr1_4 3.681815 1_555
Nd1_7 Pr0_5 3.681815 1_555
Nd1_7 Pr1_0 3.682131 1_655
Nd1_7 Pr0_1 3.682131 1_655
Nd1_7 Pr1_2 3.682137 1_655
Nd1_7 Pr0_3 3.682137 1_655
