# generated using pymatgen
data_Cr7C3
_symmetry_space_group_name_H-M   'P 1'
_cell_length_a   4.47519352
_cell_length_b   6.90376553
_cell_length_c   11.94367984
_cell_angle_alpha   90.00000000
_cell_angle_beta   90.00000000
_cell_angle_gamma   90.00000000
_symmetry_Int_Tables_number   1
_chemical_formula_structural   Cr7C3
_chemical_formula_sum   'Cr28 C12'
_cell_volume   369.00819114
_cell_formula_units_Z   4
loop_
 _symmetry_equiv_pos_site_id
 _symmetry_equiv_pos_as_xyz
  1  'x, y, z'
loop_
 _atom_site_type_symbol
 _atom_site_label
 _atom_site_symmetry_multiplicity
 _atom_site_fract_x
 _atom_site_fract_y
 _atom_site_fract_z
 _atom_site_occupancy
  Cr  Cr0  1  0.05614548  0.06496210  0.81132576  1
  Cr  Cr1  1  0.55614548  0.43503790  0.68867424  1
  Cr  Cr2  1  0.94385452  0.56496210  0.18867424  1
  Cr  Cr3  1  0.44385452  0.93503790  0.31132576  1
  Cr  Cr4  1  0.94385452  0.93503790  0.18867424  1
  Cr  Cr5  1  0.44385452  0.56496210  0.31132576  1
  Cr  Cr6  1  0.05614548  0.43503790  0.81132576  1
  Cr  Cr7  1  0.55614548  0.06496210  0.68867424  1
  Cr  Cr8  1  0.25117489  0.06643442  0.02041475  1
  Cr  Cr9  1  0.75117489  0.43356558  0.47958525  1
  Cr  Cr10  1  0.74882511  0.56643442  0.97958525  1
  Cr  Cr11  1  0.24882511  0.93356558  0.52041475  1
  Cr  Cr12  1  0.74882511  0.93356558  0.97958525  1
  Cr  Cr13  1  0.24882511  0.56643442  0.52041475  1
  Cr  Cr14  1  0.25117489  0.43356558  0.02041475  1
  Cr  Cr15  1  0.75117489  0.06643442  0.47958525  1
  Cr  Cr16  1  0.23882600  0.75000000  0.91699761  1
  Cr  Cr17  1  0.73882600  0.75000000  0.58300239  1
  Cr  Cr18  1  0.76117400  0.25000000  0.08300239  1
  Cr  Cr19  1  0.26117400  0.25000000  0.41699761  1
  Cr  Cr20  1  0.25770962  0.75000000  0.70404854  1
  Cr  Cr21  1  0.75770962  0.75000000  0.79595146  1
  Cr  Cr22  1  0.74229038  0.25000000  0.29595146  1
  Cr  Cr23  1  0.24229038  0.25000000  0.20404854  1
  Cr  Cr24  1  0.44461039  0.75000000  0.12679645  1
  Cr  Cr25  1  0.94461039  0.75000000  0.37320355  1
  Cr  Cr26  1  0.55538961  0.25000000  0.87320355  1
  Cr  Cr27  1  0.05538961  0.25000000  0.62679645  1
  C  C0  1  0.53403120  0.03347398  0.15532442  1
  C  C1  1  0.03403120  0.46652602  0.34467558  1
  C  C2  1  0.46596880  0.53347398  0.84467558  1
  C  C3  1  0.96596880  0.96652602  0.65532442  1
  C  C4  1  0.46596880  0.96652602  0.84467558  1
  C  C5  1  0.96596880  0.53347398  0.65532442  1
  C  C6  1  0.53403120  0.46652602  0.15532442  1
  C  C7  1  0.03403120  0.03347398  0.34467558  1
  C  C8  1  0.03531466  0.75000000  0.06384982  1
  C  C9  1  0.53531466  0.75000000  0.43615018  1
  C  C10  1  0.96468534  0.25000000  0.93615018  1
  C  C11  1  0.46468534  0.25000000  0.56384982  1
loop_
_geom_bond_atom_site_label_1
_geom_bond_atom_site_label_2
_geom_bond_distance
_geom_bond_site_symmetry_2
C0 Cr4 1.996042 1_545
C0 Cr18 2.003493 1_555
C0 Cr3 2.023935 1_545
C0 Cr24 2.026384 1_545
C0 Cr8 2.061666 1_555
C0 Cr23 2.068285 1_555
C1 Cr5 1.996042 1_555
C1 Cr19 2.003493 1_555
C1 Cr2 2.023935 1_455
C1 Cr25 2.026384 1_455
C1 Cr9 2.061666 1_455
C1 Cr22 2.068285 1_455
C2 Cr6 1.996042 1_555
C2 Cr16 2.003493 1_555
C2 Cr1 2.023935 1_555
C2 Cr26 2.026384 1_555
C2 Cr10 2.061666 1_555
C2 Cr21 2.068285 1_555
C3 Cr7 1.996042 1_565
C3 Cr17 2.003493 1_555
C3 Cr0 2.023935 1_665
C3 Cr27 2.026384 1_665
C3 Cr11 2.061666 1_655
C3 Cr20 2.068285 1_655
C4 Cr0 1.996042 1_565
C4 Cr16 2.003493 1_555
C4 Cr7 2.023935 1_565
C4 Cr26 2.026384 1_565
C4 Cr12 2.061666 1_555
C4 Cr21 2.068285 1_555
C5 Cr1 1.996042 1_555
C5 Cr17 2.003493 1_555
C5 Cr6 2.023935 1_655
C5 Cr27 2.026384 1_655
C5 Cr13 2.061666 1_655
C5 Cr20 2.068285 1_655
C6 Cr2 1.996042 1_555
C6 Cr18 2.003493 1_555
C6 Cr5 2.023935 1_555
C6 Cr24 2.026384 1_555
C6 Cr14 2.061666 1_555
C6 Cr23 2.068285 1_555
C7 Cr3 1.996042 1_545
C7 Cr19 2.003493 1_555
C7 Cr4 2.023935 1_445
C7 Cr25 2.026384 1_445
C7 Cr15 2.061666 1_455
C7 Cr22 2.068285 1_455
C8 Cr16 1.976318 1_554
C8 Cr24 1.979967 1_555
C8 Cr2 2.005517 1_455
C8 Cr4 2.005517 1_455
C8 Cr12 2.064632 1_454
C8 Cr10 2.064632 1_454
C9 Cr17 1.976318 1_555
C9 Cr25 1.979967 1_555
C9 Cr5 2.005517 1_555
C9 Cr3 2.005517 1_555
C9 Cr13 2.064632 1_555
C9 Cr11 2.064632 1_555
C10 Cr18 1.976318 1_556
C10 Cr26 1.979967 1_555
C10 Cr0 2.005517 1_655
C10 Cr6 2.005517 1_655
C10 Cr8 2.064632 1_656
C10 Cr14 2.064632 1_656
C11 Cr19 1.976318 1_555
C11 Cr27 1.979967 1_555
C11 Cr1 2.005517 1_555
C11 Cr7 2.005517 1_555
C11 Cr9 2.064632 1_555
C11 Cr15 2.064632 1_555
