# generated using pymatgen
data_BaZnSb2
_symmetry_space_group_name_H-M   'P 1'
_cell_length_a   12.57746322
_cell_length_b   12.57746322
_cell_length_c   12.57746322
_cell_angle_alpha   159.25978924
_cell_angle_beta   159.25978924
_cell_angle_gamma   29.49583883
_symmetry_Int_Tables_number   1
_chemical_formula_structural   BaZnSb2
_chemical_formula_sum   'Ba2 Zn2 Sb4'
_cell_volume   249.38139795
_cell_formula_units_Z   2
loop_
 _symmetry_equiv_pos_site_id
 _symmetry_equiv_pos_as_xyz
  1  'x, y, z'
loop_
 _atom_site_type_symbol
 _atom_site_label
 _atom_site_symmetry_multiplicity
 _atom_site_fract_x
 _atom_site_fract_y
 _atom_site_fract_z
 _atom_site_occupancy
  Ba  Ba0  1  0.11661000  0.11661000  0.00000000  1
  Ba  Ba1  1  0.88339000  0.88339000  0.00000000  1
  Zn  Zn0  1  0.75000000  0.25000000  0.50000000  1
  Zn  Zn1  1  0.25000000  0.75000000  0.50000000  1
  Sb  Sb0  1  0.31769000  0.31769000  0.00000000  1
  Sb  Sb1  1  0.68231000  0.68231000  0.00000000  1
  Sb  Sb2  1  0.50000000  0.00000000  0.50000000  1
  Sb  Sb3  1  0.00000000  0.50000000  0.50000000  1
loop_
_geom_bond_atom_site_label_1
_geom_bond_atom_site_label_2
_geom_bond_distance
_geom_bond_site_symmetry_2
Ba0 Sb1 3.578533 1_545
Ba0 Sb1 3.578533 1_455
Ba0 Sb1 3.578533 1_444
Ba0 Sb1 3.578533 1_556
Ba0 Sb3 3.629397 1_544
Ba0 Sb3 3.629397 1_555
Ba0 Sb2 3.629397 1_555
Ba0 Sb2 3.629397 1_454
Ba1 Sb0 3.578533 1_666
Ba1 Sb0 3.578533 1_565
Ba1 Sb0 3.578533 1_655
Ba1 Sb0 3.578533 1_554
Ba1 Sb2 3.629397 1_665
Ba1 Sb3 3.629397 1_665
Ba1 Sb2 3.629397 1_564
Ba1 Sb3 3.629397 1_654
Sb0 Zn0 2.799500 1_555
Sb0 Zn1 2.799500 1_555
Sb0 Zn1 2.799500 1_544
Sb0 Zn0 2.799500 1_454
Sb1 Zn0 2.799500 1_565
Sb1 Zn1 2.799500 1_655
Sb1 Zn1 2.799500 1_554
Sb1 Zn0 2.799500 1_554
Sb2 Sb3 3.201805 1_645
Sb2 Sb3 3.201805 1_555
Sb2 Sb3 3.201805 1_656
Sb2 Sb3 3.201805 1_544
