# generated using pymatgen
data_MgTi2
_symmetry_space_group_name_H-M   'P 1'
_cell_length_a   11.61703306
_cell_length_b   11.61703306
_cell_length_c   14.26665595
_cell_angle_alpha   74.79282168
_cell_angle_beta   74.79282168
_cell_angle_gamma   28.73824166
_symmetry_Int_Tables_number   1
_chemical_formula_structural   MgTi2
_chemical_formula_sum   'Mg16 Ti32'
_cell_volume   891.14717559
_cell_formula_units_Z   16
loop_
 _symmetry_equiv_pos_site_id
 _symmetry_equiv_pos_as_xyz
  1  'x, y, z'
loop_
 _atom_site_type_symbol
 _atom_site_label
 _atom_site_symmetry_multiplicity
 _atom_site_fract_x
 _atom_site_fract_y
 _atom_site_fract_z
 _atom_site_occupancy
  Mg  Mg0_0  1  0.30441900  0.30441900  0.13950750  1
  Mg  Mg0_1  1  0.30441900  0.30441900  0.63950750  1
  Mg  Mg0_2  1  0.30441900  0.80441900  0.13950750  1
  Mg  Mg0_3  1  0.30441900  0.80441900  0.63950750  1
  Mg  Mg0_4  1  0.80441900  0.30441900  0.13950750  1
  Mg  Mg0_5  1  0.80441900  0.30441900  0.63950750  1
  Mg  Mg0_6  1  0.80441900  0.80441900  0.13950750  1
  Mg  Mg0_7  1  0.80441900  0.80441900  0.63950750  1
  Mg  Mg1_0  1  0.47159900  0.47159900  0.30698250  1
  Mg  Mg1_1  1  0.47159900  0.47159900  0.80698250  1
  Mg  Mg1_2  1  0.47159900  0.97159900  0.30698250  1
  Mg  Mg1_3  1  0.47159900  0.97159900  0.80698250  1
  Mg  Mg1_4  1  0.97159900  0.47159900  0.30698250  1
  Mg  Mg1_5  1  0.97159900  0.47159900  0.80698250  1
  Mg  Mg1_6  1  0.97159900  0.97159900  0.30698250  1
  Mg  Mg1_7  1  0.97159900  0.97159900  0.80698250  1
  Ti  Ti0_0  1  0.49865450  0.49865450  0.49908250  1
  Ti  Ti0_1  1  0.49865450  0.49865450  0.99908250  1
  Ti  Ti0_2  1  0.49865450  0.99865450  0.49908250  1
  Ti  Ti0_3  1  0.49865450  0.99865450  0.99908250  1
  Ti  Ti0_4  1  0.99865450  0.49865450  0.49908250  1
  Ti  Ti0_5  1  0.99865450  0.49865450  0.99908250  1
  Ti  Ti0_6  1  0.99865450  0.99865450  0.49908250  1
  Ti  Ti0_7  1  0.99865450  0.99865450  0.99908250  1
  Ti  Ti1_0  1  0.16470200  0.16470200  0.16064550  1
  Ti  Ti1_1  1  0.16470200  0.16470200  0.66064550  1
  Ti  Ti1_2  1  0.16470200  0.66470200  0.16064550  1
  Ti  Ti1_3  1  0.16470200  0.66470200  0.66064550  1
  Ti  Ti1_4  1  0.66470200  0.16470200  0.16064550  1
  Ti  Ti1_5  1  0.66470200  0.16470200  0.66064550  1
  Ti  Ti1_6  1  0.66470200  0.66470200  0.16064550  1
  Ti  Ti1_7  1  0.66470200  0.66470200  0.66064550  1
  Ti  Ti2_0  1  0.33694600  0.33694600  0.33939550  1
  Ti  Ti2_1  1  0.33694600  0.33694600  0.83939550  1
  Ti  Ti2_2  1  0.33694600  0.83694600  0.33939550  1
  Ti  Ti2_3  1  0.33694600  0.83694600  0.83939550  1
  Ti  Ti2_4  1  0.83694600  0.33694600  0.33939550  1
  Ti  Ti2_5  1  0.83694600  0.33694600  0.83939550  1
  Ti  Ti2_6  1  0.83694600  0.83694600  0.33939550  1
  Ti  Ti2_7  1  0.83694600  0.83694600  0.83939550  1
  Ti  Ti3_0  1  0.14034600  0.14034600  0.47105250  1
  Ti  Ti3_1  1  0.14034600  0.14034600  0.97105250  1
  Ti  Ti3_2  1  0.14034600  0.64034600  0.47105250  1
  Ti  Ti3_3  1  0.14034600  0.64034600  0.97105250  1
  Ti  Ti3_4  1  0.64034600  0.14034600  0.47105250  1
  Ti  Ti3_5  1  0.64034600  0.14034600  0.97105250  1
  Ti  Ti3_6  1  0.64034600  0.64034600  0.47105250  1
  Ti  Ti3_7  1  0.64034600  0.64034600  0.97105250  1
loop_
_geom_bond_atom_site_label_1
_geom_bond_atom_site_label_2
_geom_bond_distance
_geom_bond_site_symmetry_2
Mg0_0 Mg0_6 2.882974 1_545
Mg0_0 Mg0_6 2.882974 1_455
Mg0_0 Ti1_4 2.955564 1_555
Mg0_0 Ti1_2 2.955564 1_555
Mg0_0 Mg1_2 2.974787 1_545
Mg0_0 Mg1_4 2.974787 1_455
Mg0_0 Ti0_3 3.004747 1_544
Mg0_0 Ti0_5 3.004747 1_454
Mg0_0 Ti3_5 3.012778 1_554
Mg0_0 Ti3_3 3.012778 1_554
Mg0_0 Ti1_0 3.076711 1_555
Mg0_0 Ti2_0 3.130332 1_555
Mg0_1 Mg0_7 2.882974 1_455
Mg0_1 Mg0_7 2.882974 1_545
Mg0_1 Ti1_5 2.955564 1_555
Mg0_1 Ti1_3 2.955564 1_555
Mg0_1 Mg1_3 2.974787 1_545
Mg0_1 Mg1_5 2.974787 1_455
Mg0_1 Ti0_2 3.004747 1_545
Mg0_1 Ti0_4 3.004747 1_455
Mg0_1 Ti3_4 3.012778 1_555
Mg0_1 Ti3_2 3.012778 1_555
Mg0_1 Ti1_1 3.076711 1_555
Mg0_1 Ti2_1 3.130332 1_555
Mg0_2 Mg0_4 2.882974 1_555
Mg0_2 Mg0_4 2.882974 1_465
Mg0_2 Ti1_0 2.955564 1_565
Mg0_2 Ti1_6 2.955564 1_555
Mg0_2 Mg1_0 2.974787 1_555
Mg0_2 Mg1_6 2.974787 1_455
Mg0_2 Ti0_7 3.004747 1_454
Mg0_2 Ti0_1 3.004747 1_554
Mg0_2 Ti3_1 3.012778 1_564
Mg0_2 Ti3_7 3.012778 1_554
Mg0_2 Ti1_2 3.076711 1_555
Mg0_2 Ti2_2 3.130332 1_555
Mg0_3 Mg0_5 2.882974 1_465
Mg0_3 Mg0_5 2.882974 1_555
Mg0_3 Ti1_1 2.955564 1_565
Mg0_3 Ti1_7 2.955564 1_555
Mg0_3 Mg1_7 2.974787 1_455
Mg0_3 Mg1_1 2.974787 1_555
Mg0_3 Ti0_6 3.004747 1_455
Mg0_3 Ti0_0 3.004747 1_555
Mg0_3 Ti3_6 3.012778 1_555
Mg0_3 Ti3_0 3.012778 1_565
Mg0_3 Ti1_3 3.076711 1_555
Mg0_3 Ti2_3 3.130332 1_555
Mg0_4 Ti1_0 2.955564 1_655
Mg0_4 Ti1_6 2.955564 1_555
Mg0_4 Mg1_0 2.974787 1_555
Mg0_4 Mg1_6 2.974787 1_545
Mg0_4 Ti0_7 3.004747 1_544
Mg0_4 Ti0_1 3.004747 1_554
Mg0_4 Ti3_1 3.012778 1_654
Mg0_4 Ti3_7 3.012778 1_554
Mg0_4 Ti1_4 3.076711 1_555
Mg0_4 Ti2_4 3.130332 1_555
Mg0_5 Ti1_7 2.955564 1_555
Mg0_5 Ti1_1 2.955564 1_655
Mg0_5 Mg1_7 2.974787 1_545
Mg0_5 Mg1_1 2.974787 1_555
Mg0_5 Ti0_0 3.004747 1_555
Mg0_5 Ti0_6 3.004747 1_545
Mg0_5 Ti3_6 3.012778 1_555
Mg0_5 Ti3_0 3.012778 1_655
Mg0_5 Ti1_5 3.076711 1_555
Mg0_5 Ti2_5 3.130332 1_555
Mg0_6 Ti1_4 2.955564 1_565
Mg0_6 Ti1_2 2.955564 1_655
Mg0_6 Mg1_2 2.974787 1_555
Mg0_6 Mg1_4 2.974787 1_555
Mg0_6 Ti0_3 3.004747 1_554
Mg0_6 Ti0_5 3.004747 1_554
Mg0_6 Ti3_3 3.012778 1_654
Mg0_6 Ti3_5 3.012778 1_564
Mg0_6 Ti1_6 3.076711 1_555
Mg0_6 Ti2_6 3.130332 1_555
Mg0_7 Ti1_5 2.955564 1_565
Mg0_7 Ti1_3 2.955564 1_655
Mg0_7 Mg1_3 2.974787 1_555
Mg0_7 Mg1_5 2.974787 1_555
Mg0_7 Ti0_4 3.004747 1_555
Mg0_7 Ti0_2 3.004747 1_555
Mg0_7 Ti3_2 3.012778 1_655
Mg0_7 Ti3_4 3.012778 1_565
Mg0_7 Ti1_7 3.076711 1_555
Mg0_7 Ti2_7 3.130332 1_555
Mg1_0 Mg1_6 2.882974 1_455
Mg1_0 Mg1_6 2.882974 1_545
Mg1_0 Ti3_4 2.929691 1_555
Mg1_0 Ti3_2 2.929691 1_555
Mg1_0 Ti2_0 2.939354 1_555
Mg1_0 Ti0_0 2.964059 1_555
Mg1_0 Ti1_2 3.086155 1_555
Mg1_0 Ti1_4 3.086155 1_555
Mg1_0 Ti2_2 3.111564 1_555
Mg1_0 Ti2_4 3.111564 1_555
Mg1_1 Mg1_7 2.882974 1_455
Mg1_1 Mg1_7 2.882974 1_545
Mg1_1 Ti3_3 2.929691 1_555
Mg1_1 Ti3_5 2.929691 1_555
Mg1_1 Ti2_1 2.939354 1_555
Mg1_1 Ti0_1 2.964059 1_555
Mg1_1 Ti1_5 3.086155 1_555
Mg1_1 Ti1_3 3.086155 1_555
Mg1_1 Ti2_5 3.111564 1_555
Mg1_1 Ti2_3 3.111564 1_555
Mg1_2 Mg1_4 2.882974 1_555
Mg1_2 Mg1_4 2.882974 1_465
Mg1_2 Ti3_0 2.929691 1_565
Mg1_2 Ti3_6 2.929691 1_555
Mg1_2 Ti2_2 2.939354 1_555
Mg1_2 Ti0_2 2.964059 1_555
Mg1_2 Ti1_6 3.086155 1_555
Mg1_2 Ti1_0 3.086155 1_565
Mg1_2 Ti2_6 3.111564 1_555
Mg1_2 Ti2_0 3.111564 1_565
Mg1_3 Mg1_5 2.882974 1_555
Mg1_3 Mg1_5 2.882974 1_465
Mg1_3 Ti3_7 2.929691 1_555
Mg1_3 Ti3_1 2.929691 1_565
Mg1_3 Ti2_3 2.939354 1_555
Mg1_3 Ti0_3 2.964059 1_555
Mg1_3 Ti1_1 3.086155 1_565
Mg1_3 Ti1_7 3.086155 1_555
Mg1_3 Ti2_1 3.111564 1_565
Mg1_3 Ti2_7 3.111564 1_555
Mg1_4 Ti3_0 2.929691 1_655
Mg1_4 Ti3_6 2.929691 1_555
Mg1_4 Ti2_4 2.939354 1_555
Mg1_4 Ti0_4 2.964059 1_555
Mg1_4 Ti1_6 3.086155 1_555
Mg1_4 Ti1_0 3.086155 1_655
Mg1_4 Ti2_6 3.111564 1_555
Mg1_4 Ti2_0 3.111564 1_655
Mg1_5 Ti3_7 2.929691 1_555
Mg1_5 Ti3_1 2.929691 1_655
Mg1_5 Ti2_5 2.939354 1_555
Mg1_5 Ti0_5 2.964059 1_555
Mg1_5 Ti1_1 3.086155 1_655
Mg1_5 Ti1_7 3.086155 1_555
Mg1_5 Ti2_1 3.111564 1_655
Mg1_5 Ti2_7 3.111564 1_555
Mg1_6 Ti3_4 2.929691 1_565
Mg1_6 Ti3_2 2.929691 1_655
Mg1_6 Ti2_6 2.939354 1_555
Mg1_6 Ti0_6 2.964059 1_555
Mg1_6 Ti1_2 3.086155 1_655
Mg1_6 Ti1_4 3.086155 1_565
Mg1_6 Ti2_4 3.111564 1_565
Mg1_6 Ti2_2 3.111564 1_655
Mg1_7 Ti3_5 2.929691 1_565
Mg1_7 Ti3_3 2.929691 1_655
Mg1_7 Ti2_7 2.939354 1_555
Mg1_7 Ti0_7 2.964059 1_555
Mg1_7 Ti1_3 3.086155 1_655
Mg1_7 Ti1_5 3.086155 1_565
Mg1_7 Ti2_3 3.111564 1_655
Mg1_7 Ti2_5 3.111564 1_565
Ti0_0 Ti0_6 2.882974 1_455
Ti0_0 Ti0_6 2.882974 1_545
Ti0_0 Ti1_3 2.932989 1_555
Ti0_0 Ti1_5 2.932989 1_555
Ti0_0 Ti3_2 2.950972 1_555
Ti0_0 Ti3_4 2.950972 1_555
Ti0_0 Ti2_4 2.960617 1_555
Ti0_0 Ti2_2 2.960617 1_555
Ti0_0 Ti3_6 3.104758 1_555
Ti0_1 Ti0_7 2.882974 1_455
Ti0_1 Ti0_7 2.882974 1_545
Ti0_1 Ti1_2 2.932989 1_556
Ti0_1 Ti1_4 2.932989 1_556
Ti0_1 Ti3_3 2.950972 1_555
Ti0_1 Ti3_5 2.950972 1_555
Ti0_1 Ti2_5 2.960617 1_555
Ti0_1 Ti2_3 2.960617 1_555
Ti0_1 Ti3_7 3.104758 1_555
Ti0_2 Ti0_4 2.882974 1_555
Ti0_2 Ti0_4 2.882974 1_465
Ti0_2 Ti1_1 2.932989 1_565
Ti0_2 Ti1_7 2.932989 1_555
Ti0_2 Ti3_0 2.950972 1_565
Ti0_2 Ti3_6 2.950972 1_555
Ti0_2 Ti2_0 2.960617 1_565
Ti0_2 Ti2_6 2.960617 1_555
Ti0_2 Ti3_4 3.104758 1_565
Ti0_3 Ti0_5 2.882974 1_465
Ti0_3 Ti0_5 2.882974 1_555
Ti0_3 Ti1_6 2.932989 1_556
Ti0_3 Ti1_0 2.932989 1_566
Ti0_3 Ti3_7 2.950972 1_555
Ti0_3 Ti3_1 2.950972 1_565
Ti0_3 Ti2_1 2.960617 1_565
Ti0_3 Ti2_7 2.960617 1_555
Ti0_3 Ti3_5 3.104758 1_565
Ti0_4 Ti1_7 2.932989 1_555
Ti0_4 Ti1_1 2.932989 1_655
Ti0_4 Ti3_0 2.950972 1_655
Ti0_4 Ti3_6 2.950972 1_555
Ti0_4 Ti2_6 2.960617 1_555
Ti0_4 Ti2_0 2.960617 1_655
Ti0_4 Ti3_2 3.104758 1_655
Ti0_5 Ti1_6 2.932989 1_556
Ti0_5 Ti1_0 2.932989 1_656
Ti0_5 Ti3_7 2.950972 1_555
Ti0_5 Ti3_1 2.950972 1_655
Ti0_5 Ti2_1 2.960617 1_655
Ti0_5 Ti2_7 2.960617 1_555
Ti0_5 Ti3_3 3.104758 1_655
Ti0_6 Ti1_3 2.932989 1_655
Ti0_6 Ti1_5 2.932989 1_565
Ti0_6 Ti3_4 2.950972 1_565
Ti0_6 Ti3_2 2.950972 1_655
Ti0_6 Ti2_2 2.960617 1_655
Ti0_6 Ti2_4 2.960617 1_565
Ti0_6 Ti3_0 3.104758 1_665
Ti0_7 Ti1_2 2.932989 1_656
Ti0_7 Ti1_4 2.932989 1_566
Ti0_7 Ti3_3 2.950972 1_655
Ti0_7 Ti3_5 2.950972 1_565
Ti0_7 Ti2_3 2.960617 1_655
Ti0_7 Ti2_5 2.960617 1_565
Ti0_7 Ti3_1 3.104758 1_665
Ti1_0 Ti1_6 2.882974 1_455
Ti1_0 Ti1_6 2.882974 1_545
Ti1_0 Ti3_1 2.901685 1_554
Ti1_0 Ti2_2 3.037598 1_545
Ti1_0 Ti2_4 3.037598 1_455
Ti1_1 Ti1_7 2.882974 1_545
Ti1_1 Ti1_7 2.882974 1_455
Ti1_1 Ti3_0 2.901685 1_555
Ti1_1 Ti2_5 3.037598 1_455
Ti1_1 Ti2_3 3.037598 1_545
Ti1_2 Ti1_4 2.882974 1_465
Ti1_2 Ti1_4 2.882974 1_555
Ti1_2 Ti3_3 2.901685 1_554
Ti1_2 Ti2_0 3.037598 1_555
Ti1_2 Ti2_6 3.037598 1_455
Ti1_3 Ti1_5 2.882974 1_555
Ti1_3 Ti1_5 2.882974 1_465
Ti1_3 Ti3_2 2.901685 1_555
Ti1_3 Ti2_7 3.037598 1_455
Ti1_3 Ti2_1 3.037598 1_555
Ti1_4 Ti3_5 2.901685 1_554
Ti1_4 Ti2_6 3.037598 1_545
Ti1_4 Ti2_0 3.037598 1_555
Ti1_5 Ti3_4 2.901685 1_555
Ti1_5 Ti2_7 3.037598 1_545
Ti1_5 Ti2_1 3.037598 1_555
Ti1_6 Ti3_7 2.901685 1_554
Ti1_6 Ti2_4 3.037598 1_555
Ti1_6 Ti2_2 3.037598 1_555
Ti1_7 Ti3_6 2.901685 1_555
Ti1_7 Ti2_3 3.037598 1_555
Ti1_7 Ti2_5 3.037598 1_555
Ti2_0 Ti3_4 2.876287 1_555
Ti2_0 Ti3_2 2.876287 1_555
Ti2_0 Ti2_6 2.882974 1_545
Ti2_0 Ti2_6 2.882974 1_455
Ti2_1 Ti3_5 2.876287 1_555
Ti2_1 Ti3_3 2.876287 1_555
Ti2_1 Ti2_7 2.882974 1_545
Ti2_1 Ti2_7 2.882974 1_455
Ti2_2 Ti3_6 2.876287 1_555
Ti2_2 Ti3_0 2.876287 1_565
Ti2_2 Ti2_4 2.882974 1_555
Ti2_2 Ti2_4 2.882974 1_465
Ti2_3 Ti3_1 2.876287 1_565
Ti2_3 Ti3_7 2.876287 1_555
Ti2_3 Ti2_5 2.882974 1_555
Ti2_3 Ti2_5 2.882974 1_465
Ti2_4 Ti3_6 2.876287 1_555
Ti2_4 Ti3_0 2.876287 1_655
Ti2_5 Ti3_1 2.876287 1_655
Ti2_5 Ti3_7 2.876287 1_555
Ti2_6 Ti3_2 2.876287 1_655
Ti2_6 Ti3_4 2.876287 1_565
Ti2_7 Ti3_5 2.876287 1_565
Ti2_7 Ti3_3 2.876287 1_655
Ti3_0 Ti3_6 2.882974 1_455
Ti3_0 Ti3_6 2.882974 1_545
Ti3_1 Ti3_7 2.882974 1_545
Ti3_1 Ti3_7 2.882974 1_455
Ti3_2 Ti3_4 2.882974 1_555
Ti3_2 Ti3_4 2.882974 1_465
Ti3_3 Ti3_5 2.882974 1_555
Ti3_3 Ti3_5 2.882974 1_465
