# generated using pymatgen
data_Yb3Sc
_symmetry_space_group_name_H-M   'P 1'
_cell_length_a   7.34129838
_cell_length_b   7.34129838
_cell_length_c   5.98244900
_cell_angle_alpha   90.00000000
_cell_angle_beta   90.00000000
_cell_angle_gamma   120.00000340
_symmetry_Int_Tables_number   1
_chemical_formula_structural   Yb3Sc
_chemical_formula_sum   'Yb6 Sc2'
_cell_volume   279.22569029
_cell_formula_units_Z   2
loop_
 _symmetry_equiv_pos_site_id
 _symmetry_equiv_pos_as_xyz
  1  'x, y, z'
loop_
 _atom_site_type_symbol
 _atom_site_label
 _atom_site_symmetry_multiplicity
 _atom_site_fract_x
 _atom_site_fract_y
 _atom_site_fract_z
 _atom_site_occupancy
  Yb  Yb0  1  0.17055400  0.34110800  0.25000000  1
  Yb  Yb1  1  0.65889200  0.82944600  0.25000000  1
  Yb  Yb2  1  0.17055400  0.82944600  0.25000000  1
  Yb  Yb3  1  0.82944600  0.65889200  0.75000000  1
  Yb  Yb4  1  0.34110800  0.17055400  0.75000000  1
  Yb  Yb5  1  0.82944600  0.17055400  0.75000000  1
  Sc  Sc0  1  0.33333300  0.66666700  0.75000000  1
  Sc  Sc1  1  0.66666700  0.33333300  0.25000000  1
loop_
_geom_bond_atom_site_label_1
_geom_bond_atom_site_label_2
_geom_bond_distance
_geom_bond_site_symmetry_2
Yb0 Yb1 3.585035 1_555
Yb0 Yb2 3.585035 1_555
Yb0 Yb5 3.694671 1_454
Yb0 Yb5 3.694671 1_455
Yb0 Yb4 3.694671 1_555
Yb0 Yb4 3.694671 1_554
Yb0 Yb1 3.756263 1_445
Yb0 Yb2 3.756263 1_545
Yb1 Yb2 3.585035 1_555
Yb1 Yb5 3.694671 1_564
Yb1 Yb5 3.694671 1_565
Yb1 Yb3 3.694671 1_555
Yb1 Yb3 3.694671 1_554
Yb1 Yb2 3.756263 1_655
Yb2 Yb3 3.694671 1_455
Yb2 Yb3 3.694671 1_454
Yb2 Yb4 3.694671 1_564
Yb2 Yb4 3.694671 1_565
Yb3 Yb4 3.585035 1_555
Yb3 Yb5 3.585035 1_555
Yb3 Yb4 3.756263 1_665
Yb3 Yb5 3.756263 1_565
Yb4 Yb5 3.585035 1_555
Yb4 Yb5 3.756263 1_455
Sc0 Yb2 3.637522 1_556
Sc0 Yb2 3.637522 1_555
Sc0 Yb0 3.637525 1_555
Sc0 Yb0 3.637525 1_556
Sc0 Yb1 3.637525 1_556
Sc0 Yb1 3.637525 1_555
Sc0 Yb3 3.670978 1_455
Sc0 Yb4 3.670978 1_565
Sc0 Yb5 3.670982 1_455
Sc0 Yb5 3.670982 1_565
Sc0 Yb3 3.670986 1_555
Sc0 Yb4 3.670986 1_555
Sc1 Yb5 3.637522 1_554
Sc1 Yb5 3.637522 1_555
Sc1 Yb3 3.637525 1_554
Sc1 Yb3 3.637525 1_555
Sc1 Yb4 3.637525 1_555
Sc1 Yb4 3.637525 1_554
Sc1 Yb1 3.670978 1_545
Sc1 Yb0 3.670978 1_655
Sc1 Yb2 3.670982 1_545
Sc1 Yb2 3.670982 1_655
Sc1 Yb1 3.670986 1_555
Sc1 Yb0 3.670986 1_555
