# generated using pymatgen
data_Na3GeSe3
_symmetry_space_group_name_H-M   'P 1'
_cell_length_a   11.90035661
_cell_length_b   8.23760870
_cell_length_c   8.37020124
_cell_angle_alpha   60.72083367
_cell_angle_beta   90.00000000
_cell_angle_gamma   90.00000000
_symmetry_Int_Tables_number   1
_chemical_formula_structural   Na3GeSe3
_chemical_formula_sum   'Na12 Ge4 Se12'
_cell_volume   715.70919822
_cell_formula_units_Z   4
loop_
 _symmetry_equiv_pos_site_id
 _symmetry_equiv_pos_as_xyz
  1  'x, y, z'
loop_
 _atom_site_type_symbol
 _atom_site_label
 _atom_site_symmetry_multiplicity
 _atom_site_fract_x
 _atom_site_fract_y
 _atom_site_fract_z
 _atom_site_occupancy
  Na  Na0  1  0.27075969  0.22271206  0.53271193  1
  Na  Na1  1  0.77075969  0.27728794  0.46728807  1
  Na  Na2  1  0.72924031  0.77728794  0.46728807  1
  Na  Na3  1  0.22924031  0.72271206  0.53271193  1
  Na  Na4  1  0.55928363  0.01438463  0.77038583  1
  Na  Na5  1  0.05928363  0.48561537  0.22961417  1
  Na  Na6  1  0.44071637  0.98561537  0.22961417  1
  Na  Na7  1  0.94071637  0.51438463  0.77038583  1
  Na  Na8  1  0.16285049  0.97622493  0.00542704  1
  Na  Na9  1  0.66285049  0.52377507  0.99457296  1
  Na  Na10  1  0.83714951  0.02377507  0.99457296  1
  Na  Na11  1  0.33714951  0.47622493  0.00542704  1
  Ge  Ge0  1  0.99009533  0.96258654  0.65941309  1
  Ge  Ge1  1  0.49009533  0.53741346  0.34058691  1
  Ge  Ge2  1  0.00990467  0.03741346  0.34058691  1
  Ge  Ge3  1  0.50990467  0.46258654  0.65941309  1
  Se  Se0  1  0.38047051  0.22676510  0.83856022  1
  Se  Se1  1  0.88047051  0.27323490  0.16143978  1
  Se  Se2  1  0.61952949  0.77323490  0.16143978  1
  Se  Se3  1  0.11952949  0.72676510  0.83856022  1
  Se  Se4  1  0.46981398  0.73686817  0.66965508  1
  Se  Se5  1  0.96981398  0.76313183  0.33034492  1
  Se  Se6  1  0.53018602  0.26313183  0.33034492  1
  Se  Se7  1  0.03018602  0.23686817  0.66965508  1
  Se  Se8  1  0.69761929  0.36510580  0.74603802  1
  Se  Se9  1  0.19761929  0.13489420  0.25396198  1
  Se  Se10  1  0.30238071  0.63489420  0.25396198  1
  Se  Se11  1  0.80238071  0.86510580  0.74603802  1
loop_
_geom_bond_atom_site_label_1
_geom_bond_atom_site_label_2
_geom_bond_distance
_geom_bond_site_symmetry_2
Na0 Se0 2.888419 1_555
Na0 Se9 2.894070 1_555
Na0 Se10 3.060268 1_555
Na0 Se7 3.107166 1_555
Na0 Se6 3.458259 1_555
Na1 Se1 2.888419 1_555
Na1 Se8 2.894070 1_555
Na1 Se11 3.060268 1_545
Na1 Se6 3.107166 1_555
Na1 Se7 3.458259 1_655
Na2 Se2 2.888419 1_555
Na2 Se11 2.894070 1_555
Na2 Se8 3.060268 1_555
Na2 Se5 3.107166 1_555
Na2 Se4 3.458259 1_555
Na3 Se3 2.888419 1_555
Na3 Se10 2.894070 1_555
Na3 Se9 3.060268 1_565
Na3 Se4 3.107166 1_555
Na3 Se5 3.458259 1_455
Na4 Se2 2.968842 1_546
Na4 Se0 2.981781 1_555
Na4 Se4 2.992650 1_545
Na4 Se11 3.188720 1_545
Na4 Se6 3.240778 1_555
Na4 Se8 3.243865 1_555
Na5 Se3 2.968842 1_554
Na5 Se1 2.981781 1_455
Na5 Se5 2.992650 1_455
Na5 Se10 3.188720 1_555
Na5 Se7 3.240778 1_555
Na5 Se9 3.243865 1_555
Na6 Se0 2.968842 1_564
Na6 Se2 2.981781 1_555
Na6 Se6 2.992650 1_565
Na6 Se9 3.188720 1_565
Na6 Se4 3.240778 1_555
Na6 Se10 3.243865 1_555
Na7 Se1 2.968842 1_556
Na7 Se3 2.981781 1_655
Na7 Se7 2.992650 1_655
Na7 Se8 3.188720 1_555
Na7 Se5 3.240778 1_555
Na7 Se11 3.243865 1_555
Na8 Se9 2.977713 1_565
Na8 Se7 3.016430 1_564
Na8 Se3 3.040856 1_554
Na8 Se10 3.044557 1_555
Na8 Se0 3.177665 1_564
Na8 Se5 3.329459 1_455
Na9 Se8 2.977713 1_555
Na9 Se6 3.016430 1_556
Na9 Se2 3.040856 1_556
Na9 Se11 3.044557 1_555
Na9 Se1 3.177665 1_556
Na9 Se4 3.329459 1_555
Na10 Se11 2.977713 1_545
Na10 Se5 3.016430 1_546
Na10 Se1 3.040856 1_556
Na10 Se8 3.044557 1_555
Na10 Se2 3.177665 1_546
Na10 Se7 3.329459 1_655
Na11 Se10 2.977713 1_555
Na11 Se4 3.016430 1_554
Na11 Se0 3.040856 1_554
Na11 Se9 3.044557 1_555
Na11 Se3 3.177665 1_554
Na11 Se6 3.329459 1_555
Ge0 Se7 2.351473 1_665
Ge0 Se3 2.354897 1_655
Ge0 Se11 2.364577 1_555
Ge1 Se6 2.351473 1_555
Ge1 Se2 2.354897 1_555
Ge1 Se10 2.364577 1_555
Ge2 Se5 2.351473 1_445
Ge2 Se1 2.354897 1_455
Ge2 Se9 2.364577 1_555
Ge3 Se4 2.351473 1_555
Ge3 Se0 2.354897 1_555
Ge3 Se8 2.364577 1_555
