# generated using pymatgen
data_Ce5Zr3O16
_symmetry_space_group_name_H-M   'P 1'
_cell_length_a   7.60421824
_cell_length_b   7.60421824
_cell_length_c   5.40638700
_cell_angle_alpha   90.00000000
_cell_angle_beta   90.00000000
_cell_angle_gamma   90.54710969
_symmetry_Int_Tables_number   1
_chemical_formula_structural   Ce5Zr3O16
_chemical_formula_sum   'Ce5 Zr3 O16'
_cell_volume   312.60539981
_cell_formula_units_Z   1
loop_
 _symmetry_equiv_pos_site_id
 _symmetry_equiv_pos_as_xyz
  1  'x, y, z'
loop_
 _atom_site_type_symbol
 _atom_site_label
 _atom_site_symmetry_multiplicity
 _atom_site_fract_x
 _atom_site_fract_y
 _atom_site_fract_z
 _atom_site_occupancy
  Ce  Ce0  1  0.50000000  0.00000000  0.99131100  1
  Ce  Ce1  1  0.24290900  0.24290900  0.50000000  1
  Ce  Ce2  1  0.00000000  0.50000000  0.00868900  1
  Ce  Ce3  1  0.75709100  0.75709100  0.50000000  1
  Ce  Ce4  1  0.50000000  0.50000000  0.00000000  1
  Zr  Zr0  1  0.00000000  0.00000000  0.00000000  1
  Zr  Zr1  1  0.74409700  0.25590300  0.50000000  1
  Zr  Zr2  1  0.25590300  0.74409700  0.50000000  1
  O  O0  1  0.97446300  0.25218500  0.29092500  1
  O  O1  1  0.76457600  0.97815600  0.20292600  1
  O  O2  1  0.74781500  0.02553700  0.70907500  1
  O  O3  1  0.02184400  0.23542400  0.79707400  1
  O  O4  1  0.52306800  0.24120200  0.27095900  1
  O  O5  1  0.23542400  0.02184400  0.20292600  1
  O  O6  1  0.25218500  0.97446300  0.70907500  1
  O  O7  1  0.48370400  0.25450400  0.76216800  1
  O  O8  1  0.02553700  0.74781500  0.29092500  1
  O  O9  1  0.74549600  0.51629600  0.23783200  1
  O  O10  1  0.75879800  0.47693200  0.72904100  1
  O  O11  1  0.97815600  0.76457600  0.79707400  1
  O  O12  1  0.47693200  0.75879800  0.27095900  1
  O  O13  1  0.25450400  0.48370400  0.23783200  1
  O  O14  1  0.24120200  0.52306800  0.72904100  1
  O  O15  1  0.51629600  0.74549600  0.76216800  1
loop_
_geom_bond_atom_site_label_1
_geom_bond_atom_site_label_2
_geom_bond_distance
_geom_bond_site_symmetry_2
Ce0 O7 2.302184 1_555
Ce0 O15 2.302184 1_545
Ce0 O1 2.321765 1_546
Ce0 O5 2.321765 1_556
Ce0 O4 2.382129 1_556
Ce0 O12 2.382129 1_546
Ce0 O2 2.431077 1_555
Ce0 O6 2.431077 1_545
Ce1 O7 2.316557 1_555
Ce1 O13 2.316557 1_555
Ce1 O3 2.325255 1_555
Ce1 O5 2.325255 1_555
Ce1 O6 2.335035 1_545
Ce1 O0 2.335035 1_455
Ce1 O14 2.464266 1_555
Ce1 O4 2.464266 1_555
Ce2 O13 2.302184 1_555
Ce2 O9 2.302184 1_455
Ce2 O11 2.321765 1_454
Ce2 O3 2.321765 1_554
Ce2 O14 2.382129 1_554
Ce2 O10 2.382129 1_454
Ce2 O8 2.431077 1_555
Ce2 O0 2.431077 1_455
Ce3 O15 2.316557 1_555
Ce3 O9 2.316557 1_555
Ce3 O11 2.325255 1_555
Ce3 O1 2.325255 1_555
Ce3 O8 2.335035 1_655
Ce3 O2 2.335035 1_565
Ce3 O10 2.464266 1_555
Ce3 O12 2.464266 1_555
Ce4 O15 2.269187 1_554
Ce4 O9 2.269187 1_555
Ce4 O7 2.269187 1_554
Ce4 O13 2.269187 1_555
Ce4 O4 2.460930 1_555
Ce4 O12 2.460930 1_555
Ce4 O14 2.460930 1_554
Ce4 O10 2.460930 1_554
O0 Zr1 2.085199 1_555
O0 Zr0 2.489206 1_655
O1 Zr0 2.104853 1_665
O1 Zr1 2.659103 1_565
O2 Zr1 2.085199 1_555
O2 Zr0 2.489206 1_656
O3 Zr0 2.104853 1_556
O3 Zr1 2.659103 1_455
O4 Zr1 2.089781 1_555
O5 Zr0 2.104853 1_555
O5 Zr2 2.659103 1_545
O6 Zr2 2.085199 1_555
O6 Zr0 2.489206 1_566
O7 Zr1 2.435040 1_555
O8 Zr2 2.085199 1_555
O8 Zr0 2.489206 1_565
O9 Zr1 2.435040 1_555
O10 Zr1 2.089781 1_555
O11 Zr0 2.104853 1_666
O11 Zr2 2.659103 1_655
O12 Zr2 2.089781 1_555
O13 Zr2 2.435040 1_555
O14 Zr2 2.089781 1_555
O15 Zr2 2.435040 1_555
