# generated using pymatgen
data_H6C(SN)2
_symmetry_space_group_name_H-M   'P 1'
_cell_length_a   8.72656314
_cell_length_b   8.72656314
_cell_length_c   9.60985944
_cell_angle_alpha   58.21116503
_cell_angle_beta   58.21116503
_cell_angle_gamma   66.47947108
_symmetry_Int_Tables_number   1
_chemical_formula_structural   H6C(SN)2
_chemical_formula_sum   'H24 C4 S8 N8'
_cell_volume   521.19450902
_cell_formula_units_Z   4
loop_
 _symmetry_equiv_pos_site_id
 _symmetry_equiv_pos_as_xyz
  1  'x, y, z'
loop_
 _atom_site_type_symbol
 _atom_site_label
 _atom_site_symmetry_multiplicity
 _atom_site_fract_x
 _atom_site_fract_y
 _atom_site_fract_z
 _atom_site_occupancy
  H  H0  1  0.72637400  0.33047800  0.05196000  1
  H  H1  1  0.33047800  0.72637400  0.55196000  1
  H  H2  1  0.48731600  0.35235900  0.14593400  1
  H  H3  1  0.35235900  0.48731600  0.64593400  1
  H  H4  1  0.45454800  0.12327500  0.90294200  1
  H  H5  1  0.12327500  0.45454800  0.40294200  1
  H  H6  1  0.57695200  0.20248500  0.94433500  1
  H  H7  1  0.20248500  0.57695200  0.44433500  1
  H  H8  1  0.92704000  0.18064300  0.37741900  1
  H  H9  1  0.18064300  0.92704000  0.87741900  1
  H  H10  1  0.09460700  0.27860000  0.17725400  1
  H  H11  1  0.27860000  0.09460700  0.67725400  1
  H  H12  1  0.15242700  0.11033000  0.35022300  1
  H  H13  1  0.11033000  0.15242700  0.85022300  1
  H  H14  1  0.07727700  0.06227600  0.24899600  1
  H  H15  1  0.06227600  0.07727700  0.74899600  1
  H  H16  1  0.72541000  0.77737600  0.73457100  1
  H  H17  1  0.77737600  0.72541000  0.23457100  1
  H  H18  1  0.72235600  0.61713500  0.68490200  1
  H  H19  1  0.61713500  0.72235600  0.18490200  1
  H  H20  1  0.52207400  0.71346700  0.80897600  1
  H  H21  1  0.71346700  0.52207400  0.30897600  1
  H  H22  1  0.63871500  0.83729500  0.58618200  1
  H  H23  1  0.83729500  0.63871500  0.08618200  1
  C  C0  1  0.62177800  0.09248200  0.24983300  1
  C  C1  1  0.09248200  0.62177800  0.74983300  1
  C  C2  1  0.65698200  0.26674700  0.68016600  1
  C  C3  1  0.26674700  0.65698200  0.18016600  1
  S  S0  1  0.41954300  0.01058300  0.40739600  1
  S  S1  1  0.01058300  0.41954300  0.90739600  1
  S  S2  1  0.83145200  0.95891000  0.23534400  1
  S  S3  1  0.95891000  0.83145200  0.73534400  1
  S  S4  1  0.61023900  0.25359200  0.53407400  1
  S  S5  1  0.25359200  0.61023900  0.03407400  1
  S  S6  1  0.83272200  0.36630300  0.61158500  1
  S  S7  1  0.36630300  0.83272200  0.11158500  1
  N  N0  1  0.61182600  0.26949800  0.13394300  1
  N  N1  1  0.26949800  0.61182600  0.63394300  1
  N  N2  1  0.54949200  0.19842500  0.85551500  1
  N  N3  1  0.19842500  0.54949200  0.35551500  1
  N  N4  1  0.06310300  0.15781800  0.28955500  1
  N  N5  1  0.15781800  0.06310300  0.78955500  1
  N  N6  1  0.65149900  0.73761300  0.70440600  1
  N  N7  1  0.73761300  0.65149900  0.20440600  1
loop_
_geom_bond_atom_site_label_1
_geom_bond_atom_site_label_2
_geom_bond_distance
_geom_bond_site_symmetry_2
H0 N0 1.027727 1_555
H1 N1 1.027727 1_555
H2 N0 1.022500 1_555
H3 N1 1.022500 1_555
H4 N2 1.022346 1_555
H5 N3 1.022346 1_555
H6 N2 1.020469 1_555
H7 N3 1.020469 1_555
H8 N4 1.046230 1_655
H9 N5 1.046230 1_565
H10 N4 1.035107 1_555
H11 N5 1.035107 1_555
H12 N4 1.041955 1_555
H13 N5 1.041955 1_555
H14 N4 1.035199 1_555
H15 N5 1.035199 1_555
H16 N6 1.049783 1_555
H17 N7 1.049783 1_555
H18 N6 1.043772 1_555
H19 N7 1.043772 1_555
H20 N6 1.049251 1_555
H21 N7 1.049251 1_555
H22 N6 1.036697 1_555
H23 N7 1.036697 1_555
C0 N0 1.347723 1_555
C0 S2 1.710637 1_545
C0 S0 1.723145 1_555
C1 N1 1.347723 1_555
C1 S3 1.710637 1_455
C1 S1 1.723145 1_555
C2 N2 1.340669 1_555
C2 S6 1.713588 1_555
C2 S4 1.720784 1_555
C3 N3 1.340669 1_555
C3 S7 1.713588 1_555
C3 S5 1.720784 1_555
