# generated using pymatgen
data_Sc3Sn
_symmetry_space_group_name_H-M   'P 1'
_cell_length_a   6.37360128
_cell_length_b   6.37360077
_cell_length_c   5.19933882
_cell_angle_alpha   90.00000000
_cell_angle_beta   90.00000000
_cell_angle_gamma   119.99997554
_symmetry_Int_Tables_number   1
_chemical_formula_structural   Sc3Sn
_chemical_formula_sum   'Sc6 Sn2'
_cell_volume   182.91469876
_cell_formula_units_Z   2
loop_
 _symmetry_equiv_pos_site_id
 _symmetry_equiv_pos_as_xyz
  1  'x, y, z'
loop_
 _atom_site_type_symbol
 _atom_site_label
 _atom_site_symmetry_multiplicity
 _atom_site_fract_x
 _atom_site_fract_y
 _atom_site_fract_z
 _atom_site_occupancy
  Sc  Sc0  1  0.16905064  0.33810228  0.25000000  1
  Sc  Sc1  1  0.66189772  0.83094936  0.25000000  1
  Sc  Sc2  1  0.16905064  0.83094936  0.25000000  1
  Sc  Sc3  1  0.83094936  0.66189772  0.75000000  1
  Sc  Sc4  1  0.33810228  0.16905064  0.75000000  1
  Sc  Sc5  1  0.83094936  0.16905064  0.75000000  1
  Sn  Sn0  1  0.33333300  0.66666700  0.75000000  1
  Sn  Sn1  1  0.66666700  0.33333300  0.25000000  1
loop_
_geom_bond_atom_site_label_1
_geom_bond_atom_site_label_2
_geom_bond_distance
_geom_bond_site_symmetry_2
Sc0 Sc2 3.141211 1_555
Sc0 Sc1 3.141212 1_555
Sc0 Sn0 3.169756 1_555
Sc0 Sn0 3.169756 1_554
Sc0 Sn1 3.186903 1_455
Sc0 Sn1 3.186916 1_555
Sc0 Sc5 3.200164 1_455
Sc0 Sc5 3.200164 1_454
Sc0 Sc4 3.200170 1_555
Sc0 Sc4 3.200170 1_554
Sc0 Sc2 3.232390 1_545
Sc0 Sc1 3.232392 1_445
Sc1 Sc2 3.141211 1_555
Sc1 Sn0 3.169756 1_555
Sc1 Sn0 3.169756 1_554
Sc1 Sn1 3.186903 1_565
Sc1 Sn1 3.186915 1_555
Sc1 Sc5 3.200164 1_565
Sc1 Sc5 3.200164 1_564
Sc1 Sc3 3.200170 1_555
Sc1 Sc3 3.200170 1_554
Sc1 Sc2 3.232390 1_655
Sc2 Sn0 3.169755 1_555
Sc2 Sn0 3.169755 1_554
Sc2 Sn1 3.186910 1_565
Sc2 Sn1 3.186910 1_455
Sc2 Sc4 3.200164 1_565
Sc2 Sc4 3.200164 1_564
Sc2 Sc3 3.200164 1_454
Sc2 Sc3 3.200164 1_455
Sc3 Sc5 3.141211 1_555
Sc3 Sc4 3.141212 1_555
Sc3 Sn1 3.169756 1_555
Sc3 Sn1 3.169756 1_556
Sc3 Sn0 3.186903 1_655
Sc3 Sn0 3.186916 1_555
Sc3 Sc5 3.232390 1_565
Sc3 Sc4 3.232392 1_665
Sc4 Sc5 3.141211 1_555
Sc4 Sn1 3.169756 1_555
Sc4 Sn1 3.169756 1_556
Sc4 Sn0 3.186903 1_545
Sc4 Sn0 3.186915 1_555
Sc4 Sc5 3.232390 1_455
Sc5 Sn1 3.169755 1_556
Sc5 Sn1 3.169755 1_555
Sc5 Sn0 3.186910 1_545
Sc5 Sn0 3.186910 1_655
