# generated using pymatgen
data_Re9Mo3Se16
_symmetry_space_group_name_H-M   'P 1'
_cell_length_a   6.73157100
_cell_length_b   6.73309808
_cell_length_c   13.45821302
_cell_angle_alpha   93.39931956
_cell_angle_beta   93.64129238
_cell_angle_gamma   93.53777881
_symmetry_Int_Tables_number   1
_chemical_formula_structural   Re9Mo3Se16
_chemical_formula_sum   'Re9 Mo3 Se16'
_cell_volume   606.36818430
_cell_formula_units_Z   1
loop_
 _symmetry_equiv_pos_site_id
 _symmetry_equiv_pos_as_xyz
  1  'x, y, z'
loop_
 _atom_site_type_symbol
 _atom_site_label
 _atom_site_symmetry_multiplicity
 _atom_site_fract_x
 _atom_site_fract_y
 _atom_site_fract_z
 _atom_site_occupancy
  Re  Re0  1  0.41393200  0.23558900  0.27368700  1
  Re  Re1  1  0.54455400  0.41436700  0.61787600  1
  Re  Re2  1  0.54617100  0.41541400  0.11787000  1
  Re  Re3  1  0.76412500  0.45421900  0.79290800  1
  Re  Re4  1  0.76378200  0.45505800  0.29207100  1
  Re  Re5  1  0.58396800  0.76501000  0.72688100  1
  Re  Re6  1  0.58488000  0.76611600  0.22640500  1
  Re  Re7  1  0.45332700  0.58571100  0.88273400  1
  Re  Re8  1  0.45302700  0.58510900  0.38261800  1
  Mo  Mo0  1  0.23314500  0.54494300  0.70675600  1
  Mo  Mo1  1  0.23377600  0.54587800  0.20706900  1
  Mo  Mo2  1  0.41325500  0.23425900  0.77374200  1
  Se  Se0  1  0.21401800  0.21087100  0.60432600  1
  Se  Se1  1  0.21630200  0.20945800  0.10627800  1
  Se  Se2  1  0.78683500  0.78692900  0.89309400  1
  Se  Se3  1  0.78634500  0.78649500  0.39302500  1
  Se  Se4  1  0.12476200  0.36959800  0.86885100  1
  Se  Se5  1  0.12649100  0.36743900  0.36848900  1
  Se  Se6  1  0.73738700  0.12790100  0.68367200  1
  Se  Se7  1  0.73462800  0.12669900  0.18463000  1
  Se  Se8  1  0.37134000  0.73444500  0.56209000  1
  Se  Se9  1  0.37038900  0.73360700  0.06229600  1
  Se  Se10  1  0.86934100  0.63043400  0.63370400  1
  Se  Se11  1  0.87063500  0.63177700  0.13315600  1
  Se  Se12  1  0.26968800  0.87210900  0.81523700  1
  Se  Se13  1  0.26993000  0.87636200  0.31553300  1
  Se  Se14  1  0.63250900  0.26857600  0.93828900  1
  Se  Se15  1  0.63145600  0.26562700  0.43671100  1
loop_
_geom_bond_atom_site_label_1
_geom_bond_atom_site_label_2
_geom_bond_distance
_geom_bond_site_symmetry_2
Re0 Se1 2.533836 1_555
Re0 Se15 2.549797 1_555
Re0 Se5 2.559521 1_555
Re0 Se13 2.654902 1_545
Re0 Se7 2.655973 1_555
Re1 Se0 2.530597 1_555
Re1 Se10 2.540355 1_555
Re1 Se6 2.560255 1_555
Re1 Se8 2.637909 1_555
Re1 Se15 2.693267 1_555
Re2 Se1 2.535437 1_555
Re2 Se11 2.539644 1_555
Re2 Se7 2.561689 1_555
Re2 Se9 2.634393 1_555
Re2 Se14 2.668771 1_554
Re3 Se2 2.536349 1_555
Re3 Se14 2.559110 1_555
Re3 Se6 2.560386 1_555
Re3 Se10 2.624999 1_555
Re3 Se4 2.680920 1_655
Re4 Se3 2.534059 1_555
Re4 Se7 2.559020 1_555
Re4 Se15 2.565921 1_555
Re4 Se11 2.626558 1_555
Re4 Se5 2.701468 1_655
Re5 Se2 2.537419 1_555
Re5 Se10 2.543595 1_555
Re5 Se8 2.552635 1_555
Re5 Se12 2.610723 1_555
Re5 Se6 2.703369 1_565
Re6 Se3 2.537853 1_555
Re6 Se11 2.545583 1_555
Re6 Se9 2.551320 1_555
Re6 Se13 2.626086 1_555
Re6 Se7 2.675530 1_565
Re7 Se12 2.535964 1_555
Re7 Se2 2.541184 1_555
Re7 Se4 2.561681 1_555
Re7 Se14 2.639322 1_555
Re7 Se9 2.664170 1_556
Re8 Se3 2.540618 1_555
Re8 Se5 2.555787 1_555
Re8 Se13 2.558677 1_555
Re8 Se15 2.644502 1_555
Re8 Se8 2.663896 1_555
Mo0 Se0 2.559381 1_555
Mo0 Se12 2.559418 1_555
Mo0 Se8 2.581119 1_555
Mo0 Re1 2.649408 1_555
Mo0 Se4 2.662033 1_555
Mo0 Se10 2.688986 1_455
Mo0 Re5 2.699131 1_555
Mo0 Re7 2.703345 1_555
Mo1 Se1 2.562657 1_555
Mo1 Se9 2.572118 1_555
Mo1 Se13 2.577658 1_555
Mo1 Re0 2.652552 1_555
Mo1 Re2 2.656791 1_555
Mo1 Se5 2.661991 1_555
Mo1 Se11 2.689513 1_455
Mo1 Re8 2.695329 1_555
Mo1 Re6 2.701164 1_555
Mo2 Se0 2.562238 1_555
Mo2 Se14 2.572521 1_555
Mo2 Se4 2.576043 1_555
Mo2 Re1 2.656489 1_555
Mo2 Se12 2.670359 1_545
Mo2 Se6 2.677465 1_555
Mo2 Re7 2.698773 1_555
Mo2 Re3 2.698915 1_555
