# generated using pymatgen
data_Tb4Cu7Sn11
_symmetry_space_group_name_H-M   'P 1'
_cell_length_a   4.41790900
_cell_length_b   4.41790900
_cell_length_c   25.24087600
_cell_angle_alpha   90.00000000
_cell_angle_beta   90.00000000
_cell_angle_gamma   90.00000000
_symmetry_Int_Tables_number   1
_chemical_formula_structural   Tb4Cu7Sn11
_chemical_formula_sum   'Tb4 Cu7 Sn11'
_cell_volume   492.64939679
_cell_formula_units_Z   1
loop_
 _symmetry_equiv_pos_site_id
 _symmetry_equiv_pos_as_xyz
  1  'x, y, z'
loop_
 _atom_site_type_symbol
 _atom_site_label
 _atom_site_symmetry_multiplicity
 _atom_site_fract_x
 _atom_site_fract_y
 _atom_site_fract_z
 _atom_site_occupancy
  Tb  Tb0  1  0.00000000  0.00000000  0.99795000  1
  Tb  Tb1  1  0.50000000  0.50000000  0.50026300  1
  Tb  Tb2  1  0.50000000  0.50000000  0.18263100  1
  Tb  Tb3  1  0.00000000  0.00000000  0.67739400  1
  Cu  Cu0  1  0.00000000  0.00000000  0.23466900  1
  Cu  Cu1  1  0.50000000  0.50000000  0.72619000  1
  Cu  Cu2  1  0.50000000  0.50000000  0.63278700  1
  Cu  Cu3  1  0.50000000  0.00000000  0.08374200  1
  Cu  Cu4  1  0.00000000  0.50000000  0.59004500  1
  Cu  Cu5  1  0.00000000  0.50000000  0.08374200  1
  Cu  Cu6  1  0.50000000  0.00000000  0.59004500  1
  Sn  Sn0  1  0.50000000  0.00000000  0.28956100  1
  Sn  Sn1  1  0.00000000  0.50000000  0.78524700  1
  Sn  Sn2  1  0.00000000  0.50000000  0.28956100  1
  Sn  Sn3  1  0.50000000  0.00000000  0.78524700  1
  Sn  Sn4  1  0.50000000  0.50000000  0.02322900  1
  Sn  Sn5  1  0.00000000  0.00000000  0.53261100  1
  Sn  Sn6  1  0.50000000  0.00000000  0.40518700  1
  Sn  Sn7  1  0.00000000  0.50000000  0.90278600  1
  Sn  Sn8  1  0.00000000  0.50000000  0.40518700  1
  Sn  Sn9  1  0.50000000  0.00000000  0.90278600  1
  Sn  Sn10  1  0.00000000  0.00000000  0.13693800  1
loop_
_geom_bond_atom_site_label_1
_geom_bond_atom_site_label_2
_geom_bond_distance
_geom_bond_site_symmetry_2
Cu0 Sn10 2.466816 1_555
Cu0 Sn0 2.607518 1_555
Cu0 Sn2 2.607518 1_545
Cu0 Sn2 2.607518 1_555
Cu0 Sn0 2.607518 1_455
Cu0 Tb2 3.388835 1_445
Cu0 Tb2 3.388835 1_545
Cu0 Tb2 3.388835 1_555
Cu0 Tb2 3.388835 1_455
Cu1 Cu2 2.357574 1_555
Cu1 Sn1 2.664867 1_555
Cu1 Sn1 2.664867 1_655
Cu1 Sn3 2.664867 1_555
Cu1 Sn3 2.664867 1_565
Cu1 Tb3 3.357965 1_665
Cu1 Tb3 3.357965 1_565
Cu1 Tb3 3.357965 1_655
Cu1 Tb3 3.357965 1_555
Cu2 Cu6 2.458330 1_565
Cu2 Cu6 2.458330 1_555
Cu2 Cu4 2.458330 1_655
Cu2 Cu4 2.458330 1_555
Cu2 Tb3 3.320641 1_665
Cu2 Tb3 3.320641 1_555
Cu2 Tb3 3.320641 1_565
Cu2 Tb3 3.320641 1_655
Cu2 Tb1 3.345022 1_555
Cu3 Sn10 2.585026 1_555
Cu3 Sn10 2.585026 1_655
Cu3 Sn4 2.685598 1_555
Cu3 Sn4 2.685598 1_545
Cu3 Tb0 3.093335 1_554
Cu3 Tb0 3.093335 1_654
Cu3 Tb2 3.333125 1_555
Cu3 Tb2 3.333125 1_545
Cu4 Sn5 2.642171 1_565
Cu4 Sn5 2.642171 1_555
Cu4 Tb3 3.120973 1_555
Cu4 Tb3 3.120973 1_565
Cu4 Tb1 3.164654 1_455
Cu4 Tb1 3.164654 1_555
Cu5 Sn10 2.585026 1_555
Cu5 Sn10 2.585026 1_565
Cu5 Sn4 2.685598 1_455
Cu5 Sn4 2.685598 1_555
Cu5 Tb0 3.093335 1_554
Cu5 Tb0 3.093335 1_564
Cu5 Tb2 3.333125 1_455
Cu5 Tb2 3.333125 1_555
Cu6 Sn5 2.642171 1_655
Cu6 Sn5 2.642171 1_555
Cu6 Tb3 3.120973 1_655
Cu6 Tb3 3.120973 1_555
Cu6 Tb1 3.164654 1_545
Cu6 Tb1 3.164654 1_555
Sn0 Sn6 2.918502 1_555
Sn0 Sn2 3.123933 1_555
Sn0 Sn2 3.123933 1_545
Sn0 Sn2 3.123933 1_655
Sn0 Sn2 3.123933 1_645
Sn0 Tb2 3.487710 1_545
Sn0 Tb2 3.487710 1_555
Sn1 Sn7 2.966787 1_555
Sn1 Sn3 3.123933 1_555
Sn1 Sn3 3.123933 1_565
Sn1 Sn3 3.123933 1_455
Sn1 Sn3 3.123933 1_465
Sn1 Tb3 3.505770 1_555
Sn1 Tb3 3.505770 1_565
Sn2 Sn8 2.918502 1_555
Sn2 Tb2 3.487710 1_455
Sn2 Tb2 3.487710 1_555
Sn3 Sn9 2.966787 1_555
Sn3 Tb3 3.505770 1_655
Sn3 Tb3 3.505770 1_555
Sn4 Tb0 3.188430 1_564
Sn4 Tb0 3.188430 1_664
Sn4 Tb0 3.188430 1_654
Sn4 Tb0 3.188430 1_554
Sn5 Tb1 3.228873 1_545
Sn5 Tb1 3.228873 1_455
Sn5 Tb1 3.228873 1_555
Sn5 Tb1 3.228873 1_445
Sn6 Sn8 3.123933 1_645
Sn6 Sn8 3.123933 1_545
Sn6 Sn8 3.123933 1_655
Sn6 Sn8 3.123933 1_555
Sn6 Tb1 3.261676 1_555
Sn6 Tb1 3.261676 1_545
Sn7 Sn9 3.123933 1_455
Sn7 Sn9 3.123933 1_565
Sn7 Sn9 3.123933 1_555
Sn7 Sn9 3.123933 1_465
Sn7 Tb0 3.263310 1_565
Sn7 Tb0 3.263310 1_555
Sn8 Tb1 3.261676 1_555
Sn8 Tb1 3.261676 1_455
Sn9 Tb0 3.263310 1_655
Sn9 Tb0 3.263310 1_555
Sn10 Tb2 3.330035 1_445
Sn10 Tb2 3.330035 1_545
Sn10 Tb2 3.330035 1_555
Sn10 Tb2 3.330035 1_455
