# generated using pymatgen
data_Mn3AlO6
_symmetry_space_group_name_H-M   'P 1'
_cell_length_a   5.99795722
_cell_length_b   5.99795722
_cell_length_c   14.78064290
_cell_angle_alpha   88.44642136
_cell_angle_beta   88.44642136
_cell_angle_gamma   59.12791656
_symmetry_Int_Tables_number   1
_chemical_formula_structural   Mn3AlO6
_chemical_formula_sum   'Mn12 Al4 O24'
_cell_volume   456.17942170
_cell_formula_units_Z   4
loop_
 _symmetry_equiv_pos_site_id
 _symmetry_equiv_pos_as_xyz
  1  'x, y, z'
loop_
 _atom_site_type_symbol
 _atom_site_label
 _atom_site_symmetry_multiplicity
 _atom_site_fract_x
 _atom_site_fract_y
 _atom_site_fract_z
 _atom_site_occupancy
  Mn  Mn0  1  0.84046600  0.32834200  0.66454000  1
  Mn  Mn1  1  0.15953400  0.67165800  0.33546000  1
  Mn  Mn2  1  0.50000000  0.00000000  0.00000000  1
  Mn  Mn3  1  0.33091300  0.33091300  0.66736800  1
  Mn  Mn4  1  0.66908700  0.66908700  0.33263200  1
  Mn  Mn5  1  0.00000000  0.00000000  0.00000000  1
  Mn  Mn6  1  0.50000000  0.50000000  0.50000000  1
  Mn  Mn7  1  0.83589000  0.83589000  0.17296100  1
  Mn  Mn8  1  0.16411000  0.16411000  0.82703900  1
  Mn  Mn9  1  0.32834200  0.84046600  0.66454000  1
  Mn  Mn10  1  0.67165800  0.15953400  0.33546000  1
  Mn  Mn11  1  0.00000000  0.50000000  0.00000000  1
  Al  Al0  1  0.16568600  0.16568600  0.44576900  1
  Al  Al1  1  0.49814000  0.49814000  0.13070200  1
  Al  Al2  1  0.83431400  0.83431400  0.55423100  1
  Al  Al3  1  0.50186000  0.50186000  0.86929800  1
  O  O0  1  0.16582100  0.16582100  0.56670900  1
  O  O1  1  0.50092600  0.50092600  0.25103800  1
  O  O2  1  0.83747100  0.83747100  0.94415200  1
  O  O3  1  0.66356100  0.17164100  0.59241100  1
  O  O4  1  0.98054600  0.54787200  0.26052000  1
  O  O5  1  0.32919300  0.83965200  0.90874000  1
  O  O6  1  0.17164100  0.66356100  0.59241100  1
  O  O7  1  0.54787200  0.98054600  0.26052000  1
  O  O8  1  0.83965200  0.32919300  0.90874000  1
  O  O9  1  0.66531300  0.66531300  0.59305600  1
  O  O10  1  0.98333800  0.98333800  0.26720400  1
  O  O11  1  0.33670800  0.33670800  0.91809000  1
  O  O12  1  0.33643900  0.82835900  0.40758900  1
  O  O13  1  0.67080700  0.16034800  0.09126000  1
  O  O14  1  0.01945400  0.45212800  0.73948000  1
  O  O15  1  0.83417900  0.83417900  0.43329100  1
  O  O16  1  0.16252900  0.16252900  0.05584800  1
  O  O17  1  0.49907400  0.49907400  0.74896200  1
  O  O18  1  0.82835900  0.33643900  0.40758900  1
  O  O19  1  0.16034800  0.67080700  0.09126000  1
  O  O20  1  0.45212800  0.01945400  0.73948000  1
  O  O21  1  0.33468700  0.33468700  0.40694400  1
  O  O22  1  0.66329200  0.66329200  0.08191000  1
  O  O23  1  0.01666200  0.01666200  0.73279600  1
loop_
_geom_bond_atom_site_label_1
_geom_bond_atom_site_label_2
_geom_bond_distance
_geom_bond_site_symmetry_2
Mn0 O23 1.886141 1_655
Mn0 O14 1.964122 1_655
Mn0 O9 2.017516 1_555
Mn0 O3 2.070019 1_555
Mn0 O17 2.139488 1_555
Mn0 O0 2.195584 1_655
Mn1 O10 1.886141 1_455
Mn1 O4 1.964122 1_455
Mn1 O21 2.017516 1_555
Mn1 O12 2.070019 1_555
Mn1 O1 2.139488 1_555
Mn1 O15 2.195584 1_455
Mn2 O2 1.912296 1_544
Mn2 O16 1.912296 1_555
Mn2 O22 2.098915 1_545
Mn2 O11 2.098915 1_554
Mn2 O13 2.224973 1_555
Mn2 O5 2.224973 1_544
Mn3 O14 1.922165 1_555
Mn3 O20 1.922165 1_555
Mn3 O3 2.025439 1_555
Mn3 O6 2.025439 1_555
Mn3 O17 2.159870 1_555
Mn3 O0 2.310983 1_555
Mn4 O4 1.922165 1_555
Mn4 O7 1.922165 1_555
Mn4 O18 2.025439 1_555
Mn4 O12 2.025439 1_555
Mn4 O1 2.159870 1_555
Mn4 O15 2.310983 1_555
Mn5 O16 1.909073 1_555
Mn5 O2 1.909073 1_444
Mn5 O13 2.149456 1_455
Mn5 O19 2.149456 1_545
Mn5 O8 2.149456 1_454
Mn5 O5 2.149456 1_544
Mn6 O12 2.156597 1_555
Mn6 O3 2.156597 1_555
Mn6 O6 2.156597 1_555
Mn6 O18 2.156597 1_555
Mn6 O21 2.239411 1_555
Mn6 O9 2.239411 1_555
Mn7 O7 1.952812 1_555
Mn7 O4 1.952812 1_555
Mn7 O13 2.045933 1_565
Mn7 O19 2.045933 1_655
Mn7 O10 2.107349 1_555
Mn7 O22 2.281559 1_555
Mn8 O20 1.952812 1_555
Mn8 O14 1.952812 1_555
Mn8 O8 2.045933 1_455
Mn8 O5 2.045933 1_545
Mn8 O23 2.107349 1_555
Mn8 O11 2.281559 1_555
Mn9 O23 1.886141 1_565
Mn9 O20 1.964122 1_565
Mn9 O9 2.017516 1_555
Mn9 O6 2.070019 1_555
Mn9 O17 2.139488 1_555
Mn9 O0 2.195584 1_565
Mn10 O10 1.886141 1_545
Mn10 O7 1.964122 1_545
Mn10 O21 2.017516 1_555
Mn10 O18 2.070019 1_555
Mn10 O1 2.139488 1_555
Mn10 O15 2.195584 1_545
Mn11 O2 1.912296 1_454
Mn11 O16 1.912296 1_555
Mn11 O22 2.098915 1_455
Mn11 O11 2.098915 1_554
Mn11 O19 2.224973 1_555
Mn11 O8 2.224973 1_454
Al0 O0 1.787615 1_555
Al0 O12 1.834402 1_545
Al0 O18 1.834402 1_455
Al0 O21 1.837314 1_555
Al1 O1 1.779787 1_555
Al1 O19 1.842636 1_555
Al1 O13 1.842636 1_555
Al1 O22 1.847185 1_555
Al2 O15 1.787615 1_555
Al2 O3 1.834402 1_565
Al2 O6 1.834402 1_655
Al2 O9 1.837314 1_555
Al3 O17 1.779787 1_555
Al3 O5 1.842636 1_555
Al3 O8 1.842636 1_555
Al3 O11 1.847185 1_555
