# generated using pymatgen
data_Mg2Sn
_symmetry_space_group_name_H-M   'P 1'
_cell_length_a   16.22210115
_cell_length_b   16.22210115
_cell_length_c   10.29755600
_cell_angle_alpha   90.00000000
_cell_angle_beta   90.00000000
_cell_angle_gamma   155.30256462
_symmetry_Int_Tables_number   1
_chemical_formula_structural   Mg2Sn
_chemical_formula_sum   'Mg32 Sn16'
_cell_volume   1132.25502749
_cell_formula_units_Z   16
loop_
 _symmetry_equiv_pos_site_id
 _symmetry_equiv_pos_as_xyz
  1  'x, y, z'
loop_
 _atom_site_type_symbol
 _atom_site_label
 _atom_site_symmetry_multiplicity
 _atom_site_fract_x
 _atom_site_fract_y
 _atom_site_fract_z
 _atom_site_occupancy
  Mg  Mg0_0  1  0.22149750  0.27850250  0.12500000  1
  Mg  Mg0_1  1  0.22149750  0.27850250  0.62500000  1
  Mg  Mg0_2  1  0.22149750  0.77850250  0.12500000  1
  Mg  Mg0_3  1  0.22149750  0.77850250  0.62500000  1
  Mg  Mg0_4  1  0.72149750  0.27850250  0.12500000  1
  Mg  Mg0_5  1  0.72149750  0.27850250  0.62500000  1
  Mg  Mg0_6  1  0.72149750  0.77850250  0.12500000  1
  Mg  Mg0_7  1  0.72149750  0.77850250  0.62500000  1
  Mg  Mg1_0  1  0.38817700  0.11182300  0.12500000  1
  Mg  Mg1_1  1  0.38817700  0.11182300  0.62500000  1
  Mg  Mg1_2  1  0.38817700  0.61182300  0.12500000  1
  Mg  Mg1_3  1  0.38817700  0.61182300  0.62500000  1
  Mg  Mg1_4  1  0.88817700  0.11182300  0.12500000  1
  Mg  Mg1_5  1  0.88817700  0.11182300  0.62500000  1
  Mg  Mg1_6  1  0.88817700  0.61182300  0.12500000  1
  Mg  Mg1_7  1  0.88817700  0.61182300  0.62500000  1
  Mg  Mg2_0  1  0.11182300  0.38817700  0.37500000  1
  Mg  Mg2_1  1  0.11182300  0.38817700  0.87500000  1
  Mg  Mg2_2  1  0.11182300  0.88817700  0.37500000  1
  Mg  Mg2_3  1  0.11182300  0.88817700  0.87500000  1
  Mg  Mg2_4  1  0.61182300  0.38817700  0.37500000  1
  Mg  Mg2_5  1  0.61182300  0.38817700  0.87500000  1
  Mg  Mg2_6  1  0.61182300  0.88817700  0.37500000  1
  Mg  Mg2_7  1  0.61182300  0.88817700  0.87500000  1
  Mg  Mg3_0  1  0.27850250  0.22149750  0.37500000  1
  Mg  Mg3_1  1  0.27850250  0.22149750  0.87500000  1
  Mg  Mg3_2  1  0.27850250  0.72149750  0.37500000  1
  Mg  Mg3_3  1  0.27850250  0.72149750  0.87500000  1
  Mg  Mg3_4  1  0.77850250  0.22149750  0.37500000  1
  Mg  Mg3_5  1  0.77850250  0.22149750  0.87500000  1
  Mg  Mg3_6  1  0.77850250  0.72149750  0.37500000  1
  Mg  Mg3_7  1  0.77850250  0.72149750  0.87500000  1
  Sn  Sn0_0  1  0.05586250  0.44413750  0.12500000  1
  Sn  Sn0_1  1  0.05586250  0.44413750  0.62500000  1
  Sn  Sn0_2  1  0.05586250  0.94413750  0.12500000  1
  Sn  Sn0_3  1  0.05586250  0.94413750  0.62500000  1
  Sn  Sn0_4  1  0.55586250  0.44413750  0.12500000  1
  Sn  Sn0_5  1  0.55586250  0.44413750  0.62500000  1
  Sn  Sn0_6  1  0.55586250  0.94413750  0.12500000  1
  Sn  Sn0_7  1  0.55586250  0.94413750  0.62500000  1
  Sn  Sn1_0  1  0.44413750  0.05586250  0.37500000  1
  Sn  Sn1_1  1  0.44413750  0.05586250  0.87500000  1
  Sn  Sn1_2  1  0.44413750  0.55586250  0.37500000  1
  Sn  Sn1_3  1  0.44413750  0.55586250  0.87500000  1
  Sn  Sn1_4  1  0.94413750  0.05586250  0.37500000  1
  Sn  Sn1_5  1  0.94413750  0.05586250  0.87500000  1
  Sn  Sn1_6  1  0.94413750  0.55586250  0.37500000  1
  Sn  Sn1_7  1  0.94413750  0.55586250  0.87500000  1
loop_
_geom_bond_atom_site_label_1
_geom_bond_atom_site_label_2
_geom_bond_distance
_geom_bond_site_symmetry_2
Mg0_0 Mg3_0 3.145094 1_555
Mg0_0 Mg3_1 3.145094 1_554
Mg0_0 Mg1_2 3.159493 1_555
Mg0_0 Mg1_4 3.159493 1_455
Mg0_0 Sn0_4 3.187213 1_555
Mg0_0 Sn0_2 3.187213 1_545
Mg0_0 Sn1_3 3.223100 1_554
Mg0_0 Sn1_2 3.223100 1_555
Mg0_0 Sn1_4 3.223100 1_455
Mg0_0 Sn1_5 3.223100 1_454
Mg0_0 Mg0_6 3.469276 1_445
Mg0_0 Mg0_6 3.469276 1_555
Mg0_1 Mg3_0 3.145094 1_555
Mg0_1 Mg3_1 3.145094 1_555
Mg0_1 Mg1_3 3.159493 1_555
Mg0_1 Mg1_5 3.159493 1_455
Mg0_1 Sn0_5 3.187213 1_555
Mg0_1 Sn0_3 3.187213 1_545
Mg0_1 Sn1_2 3.223100 1_555
Mg0_1 Sn1_3 3.223100 1_555
Mg0_1 Sn1_5 3.223100 1_455
Mg0_1 Sn1_4 3.223100 1_455
Mg0_1 Mg0_7 3.469276 1_445
Mg0_1 Mg0_7 3.469276 1_555
Mg0_2 Mg3_3 3.145094 1_554
Mg0_2 Mg3_2 3.145094 1_555
Mg0_2 Mg1_0 3.159493 1_565
Mg0_2 Mg1_6 3.159493 1_455
Mg0_2 Sn0_6 3.187213 1_555
Mg0_2 Sn0_0 3.187213 1_555
Mg0_2 Sn1_0 3.223100 1_565
Mg0_2 Sn1_1 3.223100 1_564
Mg0_2 Sn1_7 3.223100 1_454
Mg0_2 Sn1_6 3.223100 1_455
Mg0_2 Mg0_4 3.469276 1_455
Mg0_2 Mg0_4 3.469276 1_565
Mg0_3 Mg3_3 3.145094 1_555
Mg0_3 Mg3_2 3.145094 1_555
Mg0_3 Mg1_1 3.159493 1_565
Mg0_3 Mg1_7 3.159493 1_455
Mg0_3 Sn0_7 3.187213 1_555
Mg0_3 Sn0_1 3.187213 1_555
Mg0_3 Sn1_0 3.223100 1_565
Mg0_3 Sn1_1 3.223100 1_565
Mg0_3 Sn1_7 3.223100 1_455
Mg0_3 Sn1_6 3.223100 1_455
Mg0_3 Mg0_5 3.469276 1_455
Mg0_3 Mg0_5 3.469276 1_565
Mg0_4 Mg3_5 3.145094 1_554
Mg0_4 Mg3_4 3.145094 1_555
Mg0_4 Mg1_0 3.159493 1_555
Mg0_4 Mg1_6 3.159493 1_555
Mg0_4 Sn0_0 3.187213 1_655
Mg0_4 Sn0_6 3.187213 1_545
Mg0_4 Sn1_7 3.223100 1_554
Mg0_4 Sn1_6 3.223100 1_555
Mg0_4 Sn1_1 3.223100 1_554
Mg0_4 Sn1_0 3.223100 1_555
Mg0_5 Mg3_5 3.145094 1_555
Mg0_5 Mg3_4 3.145094 1_555
Mg0_5 Mg1_1 3.159493 1_555
Mg0_5 Mg1_7 3.159493 1_555
Mg0_5 Sn0_1 3.187213 1_655
Mg0_5 Sn0_7 3.187213 1_545
Mg0_5 Sn1_6 3.223100 1_555
Mg0_5 Sn1_7 3.223100 1_555
Mg0_5 Sn1_0 3.223100 1_555
Mg0_5 Sn1_1 3.223100 1_555
Mg0_6 Mg3_7 3.145094 1_554
Mg0_6 Mg3_6 3.145094 1_555
Mg0_6 Mg1_2 3.159493 1_555
Mg0_6 Mg1_4 3.159493 1_565
Mg0_6 Sn0_2 3.187213 1_655
Mg0_6 Sn0_4 3.187213 1_555
Mg0_6 Sn1_4 3.223100 1_565
Mg0_6 Sn1_5 3.223100 1_564
Mg0_6 Sn1_2 3.223100 1_555
Mg0_6 Sn1_3 3.223100 1_554
Mg0_7 Mg3_6 3.145094 1_555
Mg0_7 Mg3_7 3.145094 1_555
Mg0_7 Mg1_3 3.159493 1_555
Mg0_7 Mg1_5 3.159493 1_565
Mg0_7 Sn0_3 3.187213 1_655
Mg0_7 Sn0_5 3.187213 1_555
Mg0_7 Sn1_4 3.223100 1_565
Mg0_7 Sn1_5 3.223100 1_565
Mg0_7 Sn1_2 3.223100 1_555
Mg0_7 Sn1_3 3.223100 1_555
Mg1_0 Sn1_1 3.126195 1_554
Mg1_0 Sn1_0 3.126195 1_555
Mg1_0 Sn0_4 3.132893 1_555
Mg1_0 Sn0_2 3.132893 1_545
Mg1_0 Mg2_3 3.214669 1_544
Mg1_0 Mg2_2 3.214669 1_545
Mg1_0 Mg2_5 3.214669 1_554
Mg1_0 Mg2_4 3.214669 1_555
Mg1_0 Mg1_6 3.469276 1_555
Mg1_0 Mg1_6 3.469276 1_445
Mg1_1 Sn1_1 3.126195 1_555
Mg1_1 Sn1_0 3.126195 1_555
Mg1_1 Sn0_5 3.132893 1_555
Mg1_1 Sn0_3 3.132893 1_545
Mg1_1 Mg2_3 3.214669 1_545
Mg1_1 Mg2_2 3.214669 1_545
Mg1_1 Mg2_5 3.214669 1_555
Mg1_1 Mg2_4 3.214669 1_555
Mg1_1 Mg1_7 3.469276 1_445
Mg1_1 Mg1_7 3.469276 1_555
Mg1_2 Sn1_3 3.126195 1_554
Mg1_2 Sn1_2 3.126195 1_555
Mg1_2 Sn0_6 3.132893 1_555
Mg1_2 Sn0_0 3.132893 1_555
Mg1_2 Mg2_6 3.214669 1_555
Mg1_2 Mg2_7 3.214669 1_554
Mg1_2 Mg2_0 3.214669 1_555
Mg1_2 Mg2_1 3.214669 1_554
Mg1_2 Mg1_4 3.469276 1_565
Mg1_2 Mg1_4 3.469276 1_455
Mg1_3 Sn1_2 3.126195 1_555
Mg1_3 Sn1_3 3.126195 1_555
Mg1_3 Sn0_7 3.132893 1_555
Mg1_3 Sn0_1 3.132893 1_555
Mg1_3 Mg2_6 3.214669 1_555
Mg1_3 Mg2_7 3.214669 1_555
Mg1_3 Mg2_0 3.214669 1_555
Mg1_3 Mg2_1 3.214669 1_555
Mg1_3 Mg1_5 3.469276 1_455
Mg1_3 Mg1_5 3.469276 1_565
Mg1_4 Sn1_5 3.126195 1_554
Mg1_4 Sn1_4 3.126195 1_555
Mg1_4 Sn0_0 3.132893 1_655
Mg1_4 Sn0_6 3.132893 1_545
Mg1_4 Mg2_7 3.214669 1_544
Mg1_4 Mg2_0 3.214669 1_655
Mg1_4 Mg2_1 3.214669 1_654
Mg1_4 Mg2_6 3.214669 1_545
Mg1_5 Sn1_4 3.126195 1_555
Mg1_5 Sn1_5 3.126195 1_555
Mg1_5 Sn0_1 3.132893 1_655
Mg1_5 Sn0_7 3.132893 1_545
Mg1_5 Mg2_0 3.214669 1_655
Mg1_5 Mg2_7 3.214669 1_545
Mg1_5 Mg2_1 3.214669 1_655
Mg1_5 Mg2_6 3.214669 1_545
Mg1_6 Sn1_6 3.126195 1_555
Mg1_6 Sn1_7 3.126195 1_554
Mg1_6 Sn0_2 3.132893 1_655
Mg1_6 Sn0_4 3.132893 1_555
Mg1_6 Mg2_2 3.214669 1_655
Mg1_6 Mg2_3 3.214669 1_654
Mg1_6 Mg2_5 3.214669 1_554
Mg1_6 Mg2_4 3.214669 1_555
Mg1_7 Sn1_6 3.126195 1_555
Mg1_7 Sn1_7 3.126195 1_555
Mg1_7 Sn0_3 3.132893 1_655
Mg1_7 Sn0_5 3.132893 1_555
Mg1_7 Mg2_2 3.214669 1_655
Mg1_7 Mg2_3 3.214669 1_655
Mg1_7 Mg2_4 3.214669 1_555
Mg1_7 Mg2_5 3.214669 1_555
Mg2_0 Sn0_0 3.126195 1_555
Mg2_0 Sn0_1 3.126195 1_555
Mg2_0 Sn1_2 3.132893 1_555
Mg2_0 Sn1_4 3.132893 1_455
Mg2_0 Mg3_4 3.159493 1_455
Mg2_0 Mg3_2 3.159493 1_555
Mg2_0 Mg2_6 3.469276 1_445
Mg2_0 Mg2_6 3.469276 1_555
Mg2_1 Sn0_1 3.126195 1_555
Mg2_1 Sn0_0 3.126195 1_556
Mg2_1 Sn1_3 3.132893 1_555
Mg2_1 Sn1_5 3.132893 1_455
Mg2_1 Mg3_5 3.159493 1_455
Mg2_1 Mg3_3 3.159493 1_555
Mg2_1 Mg2_7 3.469276 1_445
Mg2_1 Mg2_7 3.469276 1_555
Mg2_2 Sn0_3 3.126195 1_555
Mg2_2 Sn0_2 3.126195 1_555
Mg2_2 Sn1_0 3.132893 1_565
Mg2_2 Sn1_6 3.132893 1_455
Mg2_2 Mg3_0 3.159493 1_565
Mg2_2 Mg3_6 3.159493 1_455
Mg2_2 Mg2_4 3.469276 1_565
Mg2_2 Mg2_4 3.469276 1_455
Mg2_3 Sn0_3 3.126195 1_555
Mg2_3 Sn0_2 3.126195 1_556
Mg2_3 Sn1_1 3.132893 1_565
Mg2_3 Sn1_7 3.132893 1_455
Mg2_3 Mg3_1 3.159493 1_565
Mg2_3 Mg3_7 3.159493 1_455
Mg2_3 Mg2_5 3.469276 1_455
Mg2_3 Mg2_5 3.469276 1_565
Mg2_4 Sn0_5 3.126195 1_555
Mg2_4 Sn0_4 3.126195 1_555
Mg2_4 Sn1_6 3.132893 1_555
Mg2_4 Sn1_0 3.132893 1_555
Mg2_4 Mg3_0 3.159493 1_555
Mg2_4 Mg3_6 3.159493 1_555
Mg2_5 Sn0_4 3.126195 1_556
Mg2_5 Sn0_5 3.126195 1_555
Mg2_5 Sn1_7 3.132893 1_555
Mg2_5 Sn1_1 3.132893 1_555
Mg2_5 Mg3_1 3.159493 1_555
Mg2_5 Mg3_7 3.159493 1_555
Mg2_6 Sn0_7 3.126195 1_555
Mg2_6 Sn0_6 3.126195 1_555
Mg2_6 Sn1_4 3.132893 1_565
Mg2_6 Sn1_2 3.132893 1_555
Mg2_6 Mg3_4 3.159493 1_565
Mg2_6 Mg3_2 3.159493 1_555
Mg2_7 Sn0_7 3.126195 1_555
Mg2_7 Sn0_6 3.126195 1_556
Mg2_7 Sn1_5 3.132893 1_565
Mg2_7 Sn1_3 3.132893 1_555
Mg2_7 Mg3_5 3.159493 1_565
Mg2_7 Mg3_3 3.159493 1_555
Mg3_0 Sn1_2 3.187213 1_555
Mg3_0 Sn1_4 3.187213 1_455
Mg3_0 Sn0_4 3.223100 1_555
Mg3_0 Sn0_5 3.223100 1_555
Mg3_0 Sn0_3 3.223100 1_545
Mg3_0 Sn0_2 3.223100 1_545
Mg3_0 Mg3_6 3.469276 1_445
Mg3_0 Mg3_6 3.469276 1_555
Mg3_1 Sn1_3 3.187213 1_555
Mg3_1 Sn1_5 3.187213 1_455
Mg3_1 Sn0_4 3.223100 1_556
Mg3_1 Sn0_5 3.223100 1_555
Mg3_1 Sn0_3 3.223100 1_545
Mg3_1 Sn0_2 3.223100 1_546
Mg3_1 Mg3_7 3.469276 1_555
Mg3_1 Mg3_7 3.469276 1_445
Mg3_2 Sn1_0 3.187213 1_565
Mg3_2 Sn1_6 3.187213 1_455
Mg3_2 Sn0_7 3.223100 1_555
Mg3_2 Sn0_6 3.223100 1_555
Mg3_2 Sn0_0 3.223100 1_555
Mg3_2 Sn0_1 3.223100 1_555
Mg3_2 Mg3_4 3.469276 1_565
Mg3_2 Mg3_4 3.469276 1_455
Mg3_3 Sn1_1 3.187213 1_565
Mg3_3 Sn1_7 3.187213 1_455
Mg3_3 Sn0_7 3.223100 1_555
Mg3_3 Sn0_6 3.223100 1_556
Mg3_3 Sn0_0 3.223100 1_556
Mg3_3 Sn0_1 3.223100 1_555
Mg3_3 Mg3_5 3.469276 1_565
Mg3_3 Mg3_5 3.469276 1_455
Mg3_4 Sn1_6 3.187213 1_555
Mg3_4 Sn1_0 3.187213 1_555
Mg3_4 Sn0_0 3.223100 1_655
Mg3_4 Sn0_1 3.223100 1_655
Mg3_4 Sn0_7 3.223100 1_545
Mg3_4 Sn0_6 3.223100 1_545
Mg3_5 Sn1_7 3.187213 1_555
Mg3_5 Sn1_1 3.187213 1_555
Mg3_5 Sn0_1 3.223100 1_655
Mg3_5 Sn0_0 3.223100 1_656
Mg3_5 Sn0_7 3.223100 1_545
Mg3_5 Sn0_6 3.223100 1_546
Mg3_6 Sn1_4 3.187213 1_565
Mg3_6 Sn1_2 3.187213 1_555
Mg3_6 Sn0_2 3.223100 1_655
Mg3_6 Sn0_3 3.223100 1_655
Mg3_6 Sn0_5 3.223100 1_555
Mg3_6 Sn0_4 3.223100 1_555
Mg3_7 Sn1_5 3.187213 1_565
Mg3_7 Sn1_3 3.187213 1_555
Mg3_7 Sn0_2 3.223100 1_656
Mg3_7 Sn0_3 3.223100 1_655
Mg3_7 Sn0_4 3.223100 1_556
Mg3_7 Sn0_5 3.223100 1_555
