# generated using pymatgen
data_MoP2O7
_symmetry_space_group_name_H-M   'P 1'
_cell_length_a   8.93679000
_cell_length_b   7.03545500
_cell_length_c   9.72158935
_cell_angle_alpha   70.87666592
_cell_angle_beta   90.00000000
_cell_angle_gamma   90.00000000
_symmetry_Int_Tables_number   1
_chemical_formula_structural   MoP2O7
_chemical_formula_sum   'Mo4 P8 O28'
_cell_volume   577.50806933
_cell_formula_units_Z   4
loop_
 _symmetry_equiv_pos_site_id
 _symmetry_equiv_pos_as_xyz
  1  'x, y, z'
loop_
 _atom_site_type_symbol
 _atom_site_label
 _atom_site_symmetry_multiplicity
 _atom_site_fract_x
 _atom_site_fract_y
 _atom_site_fract_z
 _atom_site_occupancy
  Mo  Mo0  1  0.07688400  0.70116100  0.19720600  1
  Mo  Mo1  1  0.42311600  0.70116100  0.69720600  1
  Mo  Mo2  1  0.57688400  0.29883900  0.30279400  1
  Mo  Mo3  1  0.92311600  0.29883900  0.80279400  1
  P  P0  1  0.71258600  0.52602200  0.53241900  1
  P  P1  1  0.24584900  0.09635400  0.24841700  1
  P  P2  1  0.74584900  0.90364600  0.25158300  1
  P  P3  1  0.25415100  0.09635400  0.74841700  1
  P  P4  1  0.78741400  0.52602200  0.03241900  1
  P  P5  1  0.75415100  0.90364600  0.75158300  1
  P  P6  1  0.21258600  0.47397800  0.96758100  1
  P  P7  1  0.28741400  0.47397800  0.46758100  1
  O  O0  1  0.13119600  0.51818100  0.39128400  1
  O  O1  1  0.22372100  0.26120200  0.08410200  1
  O  O2  1  0.26144700  0.89631400  0.71608200  1
  O  O3  1  0.08216400  0.11955200  0.78164200  1
  O  O4  1  0.86880400  0.48181900  0.60871600  1
  O  O5  1  0.77627900  0.73879800  0.91589800  1
  O  O6  1  0.19206100  0.63510900  0.04401700  1
  O  O7  1  0.91031900  0.52323300  0.14029700  1
  O  O8  1  0.58216400  0.88044800  0.71835800  1
  O  O9  1  0.69206100  0.36489100  0.45598300  1
  O  O10  1  0.36880400  0.51818100  0.89128400  1
  O  O11  1  0.85970100  0.86591400  0.64735900  1
  O  O12  1  0.63119600  0.48181900  0.10871600  1
  O  O13  1  0.73855300  0.10368600  0.28391800  1
  O  O14  1  0.41031900  0.47676700  0.35970300  1
  O  O15  1  0.80793900  0.36489100  0.95598300  1
  O  O16  1  0.91783600  0.88044800  0.21835800  1
  O  O17  1  0.23855300  0.89631400  0.21608200  1
  O  O18  1  0.14029900  0.13408600  0.35264100  1
  O  O19  1  0.58968100  0.52323300  0.64029700  1
  O  O20  1  0.27627900  0.26120200  0.58410200  1
  O  O21  1  0.30793900  0.63510900  0.54401700  1
  O  O22  1  0.08968100  0.47676700  0.85970300  1
  O  O23  1  0.41783600  0.11955200  0.28164200  1
  O  O24  1  0.72372100  0.73879800  0.41589800  1
  O  O25  1  0.64029900  0.86591400  0.14735900  1
  O  O26  1  0.76144700  0.10368600  0.78391800  1
  O  O27  1  0.35970100  0.13408600  0.85264100  1
loop_
_geom_bond_atom_site_label_1
_geom_bond_atom_site_label_2
_geom_bond_distance
_geom_bond_site_symmetry_2
Mo0 O16 1.955400 1_455
Mo0 O0 1.965003 1_555
Mo0 O6 1.986634 1_555
Mo0 O17 2.042378 1_555
Mo0 O7 2.131352 1_455
Mo1 O8 1.955400 1_555
Mo1 O10 1.965003 1_555
Mo1 O21 1.986634 1_555
Mo1 O2 2.042378 1_555
Mo1 O19 2.131352 1_555
Mo2 O23 1.955400 1_555
Mo2 O12 1.965003 1_555
Mo2 O9 1.986634 1_555
Mo2 O13 2.042378 1_555
Mo2 O14 2.131352 1_555
Mo3 O3 1.955400 1_655
Mo3 O4 1.965003 1_555
Mo3 O15 1.986634 1_555
Mo3 O26 2.042378 1_555
Mo3 O22 2.131352 1_655
O0 P7 1.563585 1_555
O1 P6 1.556585 1_554
O1 P1 1.649859 1_555
O2 P3 1.540658 1_565
O3 P3 1.589941 1_555
O4 P0 1.563585 1_555
O5 P4 1.556585 1_556
O5 P5 1.649859 1_555
O6 P6 1.556554 1_554
O7 P4 1.514331 1_555
O8 P5 1.589941 1_555
O9 P0 1.556554 1_555
O10 P6 1.563585 1_555
O11 P5 1.470747 1_555
O12 P4 1.563585 1_555
O13 P2 1.540658 1_545
O14 P7 1.514331 1_555
O15 P4 1.556554 1_556
O16 P2 1.589941 1_555
O17 P1 1.540658 1_565
O18 P1 1.470747 1_555
O19 P0 1.514331 1_555
O20 P7 1.556585 1_555
O20 P3 1.649859 1_555
O21 P7 1.556554 1_555
O22 P6 1.514331 1_555
O23 P1 1.589941 1_555
O24 P0 1.556585 1_555
O24 P2 1.649859 1_555
O25 P2 1.470747 1_555
O26 P5 1.540658 1_545
O27 P3 1.470747 1_555
