# generated using pymatgen
data_CeSe2
_symmetry_space_group_name_H-M   'P 1'
_cell_length_a   7.80584129
_cell_length_b   7.80584129
_cell_length_c   13.99195175
_cell_angle_alpha   93.79166708
_cell_angle_beta   93.79166708
_cell_angle_gamma   139.72306439
_symmetry_Int_Tables_number   1
_chemical_formula_structural   CeSe2
_chemical_formula_sum   'Ce6 Se12'
_cell_volume   540.89398372
_cell_formula_units_Z   6
loop_
 _symmetry_equiv_pos_site_id
 _symmetry_equiv_pos_as_xyz
  1  'x, y, z'
loop_
 _atom_site_type_symbol
 _atom_site_label
 _atom_site_symmetry_multiplicity
 _atom_site_fract_x
 _atom_site_fract_y
 _atom_site_fract_z
 _atom_site_occupancy
  Ce  Ce0  1  0.52869000  0.02869100  0.50000000  1
  Ce  Ce1  1  0.27869100  0.27869100  0.00000000  1
  Ce  Ce2  1  0.99861500  0.85141100  0.72276400  1
  Ce  Ce3  1  0.12864700  0.27585000  0.27723600  1
  Ce  Ce4  1  0.10141100  0.74861500  0.22276400  1
  Ce  Ce5  1  0.52585000  0.87864700  0.77723600  1
  Se  Se0  1  0.09590900  0.59794900  0.61613500  1
  Se  Se1  1  0.98181300  0.47977300  0.38386500  1
  Se  Se2  1  0.84794900  0.84590900  0.11613500  1
  Se  Se3  1  0.72977300  0.73181300  0.88386500  1
  Se  Se4  1  0.25637100  0.09924000  0.39725500  1
  Se  Se5  1  0.70198400  0.85911600  0.60274500  1
  Se  Se6  1  0.34924000  0.00637100  0.89725500  1
  Se  Se7  1  0.10911600  0.45198400  0.10274500  1
  Se  Se8  1  0.53483800  0.25710100  0.67796900  1
  Se  Se9  1  0.57913200  0.85687000  0.32203100  1
  Se  Se10  1  0.50710100  0.28483800  0.17796900  1
  Se  Se11  1  0.10687000  0.32913200  0.82203100  1
loop_
_geom_bond_atom_site_label_1
_geom_bond_atom_site_label_2
_geom_bond_distance
_geom_bond_site_symmetry_2
Ce0 Se4 2.893992 1_555
Ce0 Se5 2.893998 1_545
Ce0 Se8 2.940810 1_555
Ce0 Se9 2.940814 1_545
Ce0 Se0 3.078141 1_545
Ce0 Se1 3.078146 1_445
Ce0 Se1 3.172161 1_555
Ce0 Se0 3.172166 1_655
Ce1 Se7 2.893992 1_555
Ce1 Se6 2.893998 1_554
Ce1 Se11 2.940810 1_554
Ce1 Se10 2.940814 1_555
Ce1 Se2 3.078144 1_445
Ce1 Se3 3.078148 1_444
Ce1 Se3 3.172159 1_554
Ce1 Se2 3.172164 1_555
Ce2 Se5 2.810086 1_555
Ce2 Se3 2.875944 1_555
Ce2 Se8 2.885355 1_665
Ce2 Se6 2.930674 1_665
Ce2 Se8 2.951149 1_555
Ce2 Se0 2.961296 1_655
Ce2 Se11 3.301575 1_665
Ce3 Se4 2.810073 1_555
Ce3 Se2 2.875937 1_445
Ce3 Se9 2.885364 1_555
Ce3 Se7 2.930674 1_555
Ce3 Se9 2.951148 1_445
Ce3 Se1 2.961303 1_455
Ce3 Se10 3.301575 1_555
Ce4 Se7 2.810086 1_555
Ce4 Se1 2.875944 1_455
Ce4 Se10 2.885355 1_565
Ce4 Se4 2.930674 1_565
Ce4 Se10 2.951149 1_455
Ce4 Se2 2.961296 1_455
Ce4 Se9 3.301575 1_555
Ce5 Se6 2.810073 1_565
Ce5 Se0 2.875937 1_555
Ce5 Se11 2.885364 1_665
Ce5 Se5 2.930674 1_555
Ce5 Se11 2.951148 1_555
Ce5 Se3 2.961303 1_555
Ce5 Se8 3.301575 1_565
