# generated using pymatgen
data_AlTeH6C2Br3
_symmetry_space_group_name_H-M   'P 1'
_cell_length_a   6.96303300
_cell_length_b   11.25580900
_cell_length_c   14.25001900
_cell_angle_alpha   90.00000000
_cell_angle_beta   90.00000000
_cell_angle_gamma   90.00000000
_symmetry_Int_Tables_number   1
_chemical_formula_structural   AlTeH6C2Br3
_chemical_formula_sum   'Al4 Te4 H24 C8 Br12'
_cell_volume   1116.83910462
_cell_formula_units_Z   4
loop_
 _symmetry_equiv_pos_site_id
 _symmetry_equiv_pos_as_xyz
  1  'x, y, z'
loop_
 _atom_site_type_symbol
 _atom_site_label
 _atom_site_symmetry_multiplicity
 _atom_site_fract_x
 _atom_site_fract_y
 _atom_site_fract_z
 _atom_site_occupancy
  Al  Al0  1  0.44939300  0.75000000  0.55355100  1
  Al  Al1  1  0.55060700  0.25000000  0.44644900  1
  Al  Al2  1  0.44939300  0.25000000  0.94644900  1
  Al  Al3  1  0.55060700  0.75000000  0.05355100  1
  Te  Te0  1  0.36553200  0.75000000  0.36512000  1
  Te  Te1  1  0.63446800  0.25000000  0.63488000  1
  Te  Te2  1  0.36553200  0.25000000  0.13488000  1
  Te  Te3  1  0.63446800  0.75000000  0.86512000  1
  H  H0  1  0.07673400  0.87596700  0.29372900  1
  H  H1  1  0.92326600  0.37596700  0.70627100  1
  H  H2  1  0.07673400  0.12403300  0.20627100  1
  H  H3  1  0.92326600  0.62403300  0.79372900  1
  H  H4  1  0.92326600  0.12403300  0.70627100  1
  H  H5  1  0.07673400  0.62403300  0.29372900  1
  H  H6  1  0.92326600  0.87596700  0.79372900  1
  H  H7  1  0.07673400  0.37596700  0.20627100  1
  H  H8  1  0.23578000  0.97437000  0.35701600  1
  H  H9  1  0.76422000  0.47437000  0.64298400  1
  H  H10  1  0.23578000  0.02563000  0.14298400  1
  H  H11  1  0.76422000  0.52563000  0.85701600  1
  H  H12  1  0.76422000  0.02563000  0.64298400  1
  H  H13  1  0.23578000  0.52563000  0.35701600  1
  H  H14  1  0.76422000  0.97437000  0.85701600  1
  H  H15  1  0.23578000  0.47437000  0.14298400  1
  H  H16  1  0.06167200  0.88688700  0.42039300  1
  H  H17  1  0.93832800  0.38688700  0.57960700  1
  H  H18  1  0.06167200  0.11311300  0.07960700  1
  H  H19  1  0.93832800  0.61311300  0.92039300  1
  H  H20  1  0.93832800  0.11311300  0.57960700  1
  H  H21  1  0.06167200  0.61311300  0.42039300  1
  H  H22  1  0.93832800  0.88688700  0.92039300  1
  H  H23  1  0.06167200  0.38688700  0.07960700  1
  C  C0  1  0.15605800  0.89019000  0.35902400  1
  C  C1  1  0.84394200  0.39019000  0.64097600  1
  C  C2  1  0.15605800  0.10981000  0.14097600  1
  C  C3  1  0.84394200  0.60981000  0.85902400  1
  C  C4  1  0.84394200  0.10981000  0.64097600  1
  C  C5  1  0.15605800  0.60981000  0.35902400  1
  C  C6  1  0.84394200  0.89019000  0.85902400  1
  C  C7  1  0.15605800  0.39019000  0.14097600  1
  Br  Br0  1  0.78098600  0.75000000  0.56751900  1
  Br  Br1  1  0.21901400  0.25000000  0.43248100  1
  Br  Br2  1  0.78098600  0.25000000  0.93248100  1
  Br  Br3  1  0.21901400  0.75000000  0.06751900  1
  Br  Br4  1  0.32108000  0.57780300  0.61594100  1
  Br  Br5  1  0.67892000  0.07780300  0.38405900  1
  Br  Br6  1  0.32108000  0.42219700  0.88405900  1
  Br  Br7  1  0.67892000  0.92219700  0.11594100  1
  Br  Br8  1  0.67892000  0.42219700  0.38405900  1
  Br  Br9  1  0.32108000  0.92219700  0.61594100  1
  Br  Br10  1  0.67892000  0.57780300  0.11594100  1
  Br  Br11  1  0.32108000  0.07780300  0.88405900  1
loop_
_geom_bond_atom_site_label_1
_geom_bond_atom_site_label_2
_geom_bond_distance
_geom_bond_site_symmetry_2
Al0 Br4 2.312003 1_555
Al0 Br9 2.312003 1_555
Al0 Br0 2.317457 1_555
Al0 Te0 2.747904 1_555
Al1 Br8 2.312003 1_555
Al1 Br5 2.312003 1_555
Al1 Br1 2.317457 1_555
Al1 Te1 2.747904 1_555
Al2 Br11 2.312003 1_555
Al2 Br6 2.312003 1_555
Al2 Br2 2.317457 1_555
Al2 Te2 2.747904 1_556
Al3 Br10 2.312003 1_555
Al3 Br7 2.312003 1_555
Al3 Br3 2.317457 1_555
Al3 Te3 2.747904 1_554
C0 H0 1.093824 1_555
C0 H16 1.094567 1_555
C0 H8 1.098520 1_555
C0 Te0 2.150562 1_555
C1 H1 1.093824 1_555
C1 H17 1.094567 1_555
C1 H9 1.098520 1_555
C1 Te1 2.150562 1_555
C2 H2 1.093824 1_555
C2 H18 1.094567 1_555
C2 H10 1.098520 1_555
C2 Te2 2.150562 1_555
C3 H3 1.093824 1_555
C3 H19 1.094567 1_555
C3 H11 1.098520 1_555
C3 Te3 2.150562 1_555
C4 H4 1.093824 1_555
C4 H20 1.094567 1_555
C4 H12 1.098520 1_555
C4 Te1 2.150562 1_555
C5 H5 1.093824 1_555
C5 H21 1.094567 1_555
C5 H13 1.098520 1_555
C5 Te0 2.150562 1_555
C6 H6 1.093824 1_555
C6 H22 1.094567 1_555
C6 H14 1.098520 1_555
C6 Te3 2.150562 1_555
C7 H7 1.093824 1_555
C7 H23 1.094567 1_555
C7 H15 1.098520 1_555
C7 Te2 2.150562 1_555
