# generated using pymatgen
data_Li3MnFe3O8
_symmetry_space_group_name_H-M   'P 1'
_cell_length_a   5.88496300
_cell_length_b   5.93111923
_cell_length_c   6.01816141
_cell_angle_alpha   119.50511297
_cell_angle_beta   119.00794060
_cell_angle_gamma   90.16036914
_symmetry_Int_Tables_number   1
_chemical_formula_structural   Li3MnFe3O8
_chemical_formula_sum   'Li3 Mn1 Fe3 O8'
_cell_volume   151.61354873
_cell_formula_units_Z   1
loop_
 _symmetry_equiv_pos_site_id
 _symmetry_equiv_pos_as_xyz
  1  'x, y, z'
loop_
 _atom_site_type_symbol
 _atom_site_label
 _atom_site_symmetry_multiplicity
 _atom_site_fract_x
 _atom_site_fract_y
 _atom_site_fract_z
 _atom_site_occupancy
  Li  Li0  1  0.50000000  0.50000000  0.00000000  1
  Li  Li1  1  0.50000000  0.50000000  0.50000000  1
  Li  Li2  1  0.00000000  0.50000000  0.00000000  1
  Mn  Mn0  1  0.00000000  0.00000000  0.00000000  1
  Fe  Fe0  1  0.00000000  0.00000000  0.50000000  1
  Fe  Fe1  1  0.50000000  0.00000000  0.00000000  1
  Fe  Fe2  1  0.50000000  0.00000000  0.50000000  1
  O  O0  1  0.23054700  0.77838200  0.97879300  1
  O  O1  1  0.73053800  0.77974300  0.47967000  1
  O  O2  1  0.74380300  0.78350500  0.97277400  1
  O  O3  1  0.26997300  0.77186200  0.51051100  1
  O  O4  1  0.73002700  0.22813800  0.48948900  1
  O  O5  1  0.25619700  0.21649500  0.02722600  1
  O  O6  1  0.26946200  0.22025700  0.52033000  1
  O  O7  1  0.76945300  0.22161800  0.02120700  1
loop_
_geom_bond_atom_site_label_1
_geom_bond_atom_site_label_2
_geom_bond_distance
_geom_bond_site_symmetry_2
Li0 O1 2.097133 1_555
Li0 O6 2.097133 1_554
Li0 O0 2.298462 1_554
Li0 O7 2.298462 1_555
Li0 O5 2.323520 1_555
Li0 O2 2.323520 1_554
Li1 O2 2.072708 1_555
Li1 O5 2.072708 1_555
Li1 O3 2.105063 1_555
Li1 O4 2.105063 1_555
Li1 O1 2.226405 1_555
Li1 O6 2.226405 1_555
Li2 O3 2.221550 1_555
Li2 O4 2.221550 1_454
Li2 O0 2.224015 1_554
Li2 O7 2.224015 1_455
Li2 O5 2.274525 1_555
Li2 O2 2.274525 1_454
Mn0 O2 1.868468 1_444
Mn0 O5 1.868468 1_555
Mn0 O7 1.896715 1_455
Mn0 O0 1.896715 1_544
Mn0 O1 2.273764 1_444
Mn0 O6 2.273764 1_555
Fe0 O6 1.969530 1_555
Fe0 O1 1.969530 1_445
Fe0 O4 2.087586 1_455
Fe0 O3 2.087586 1_545
Fe0 O5 2.307779 1_556
Fe0 O2 2.307779 1_444
Fe1 O5 1.940438 1_555
Fe1 O2 1.940438 1_544
Fe1 O7 1.971133 1_555
Fe1 O0 1.971133 1_544
Fe1 O4 2.130074 1_555
Fe1 O3 2.130074 1_544
Fe2 O6 1.890953 1_555
Fe2 O1 1.890953 1_545
Fe2 O4 1.955640 1_555
Fe2 O3 1.955640 1_545
Fe2 O7 2.276909 1_556
Fe2 O0 2.276909 1_544
