# generated using pymatgen
data_Li9Mn2Co5O16
_symmetry_space_group_name_H-M   'P 1'
_cell_length_a   2.87508046
_cell_length_b   39.11277224
_cell_length_c   2.96217818
_cell_angle_alpha   86.24400733
_cell_angle_beta   119.03201475
_cell_angle_gamma   87.89369252
_symmetry_Int_Tables_number   1
_chemical_formula_structural   Li9Mn2Co5O16
_chemical_formula_sum   'Li9 Mn2 Co5 O16'
_cell_volume   289.72513071
_cell_formula_units_Z   1
loop_
 _symmetry_equiv_pos_site_id
 _symmetry_equiv_pos_as_xyz
  1  'x, y, z'
loop_
 _atom_site_type_symbol
 _atom_site_label
 _atom_site_symmetry_multiplicity
 _atom_site_fract_x
 _atom_site_fract_y
 _atom_site_fract_z
 _atom_site_occupancy
  Li  Li0  1  0.23371100  0.06729400  0.53471600  1
  Li  Li1  1  0.75962300  0.18656900  0.70581500  1
  Li  Li2  1  0.24766200  0.31255600  0.80788000  1
  Li  Li3  1  0.76005000  0.43529600  0.95539700  1
  Li  Li4  1  0.24318400  0.56478400  0.05115300  1
  Li  Li5  1  0.74835800  0.68792900  0.18464500  1
  Li  Li6  1  0.25195400  0.81197000  0.31587700  1
  Li  Li7  1  0.75641600  0.93451300  0.44734500  1
  Li  Li8  1  0.50108600  0.12456300  0.12673400  1
  Mn  Mn0  1  0.99810600  0.99910100  0.99531300  1
  Mn  Mn1  1  0.00172700  0.50015600  0.50360900  1
  Co  Co0  1  0.99865300  0.25069800  0.24800500  1
  Co  Co1  1  0.50167100  0.37457900  0.37792100  1
  Co  Co2  1  0.49754700  0.62568200  0.62077500  1
  Co  Co3  1  0.99945400  0.75008300  0.74899000  1
  Co  Co4  1  0.50222500  0.87423100  0.87868000  1
  O  O0  1  0.61270600  0.02613600  0.25154900  1
  O  O1  1  0.12635500  0.15728400  0.40999500  1
  O  O2  1  0.62052300  0.27937400  0.52042100  1
  O  O3  1  0.12913200  0.40404700  0.66231100  1
  O  O4  1  0.60405700  0.52906000  0.73717300  1
  O  O5  1  0.12687300  0.65427700  0.90802300  1
  O  O6  1  0.62744000  0.77893000  0.03381000  1
  O  O7  1  0.12768300  0.90388900  0.15925400  1
  O  O8  1  0.87371400  0.09240200  0.83983100  1
  O  O9  1  0.37568000  0.22341000  0.97477000  1
  O  O10  1  0.87136400  0.34607500  0.08880300  1
  O  O11  1  0.39920600  0.47142600  0.26983800  1
  O  O12  1  0.87066400  0.59628000  0.33760800  1
  O  O13  1  0.37152600  0.72124600  0.46429900  1
  O  O14  1  0.87304500  0.84573900  0.59182900  1
  O  O15  1  0.38860500  0.97042000  0.74763000  1
loop_
_geom_bond_atom_site_label_1
_geom_bond_atom_site_label_2
_geom_bond_distance
_geom_bond_site_symmetry_2
Li0 O8 1.949885 1_555
Li0 O8 1.949887 1_455
Li0 O8 1.966014 1_454
Li0 O0 2.327537 1_555
Li0 O0 2.327539 1_455
Li0 O0 2.337751 1_556
Li1 O1 2.032497 1_655
Li1 O1 2.032499 1_555
Li1 O1 2.058697 1_656
Li1 O9 2.194688 1_555
Li1 O9 2.194688 1_655
Li1 O9 2.266790 1_554
Li2 O2 2.118287 1_555
Li2 O2 2.118289 1_455
Li2 O10 2.119954 1_456
Li2 O10 2.119954 1_556
Li2 O2 2.152032 1_556
Li2 O10 2.172437 1_455
Li3 O3 2.076402 1_555
Li3 O3 2.076404 1_655
Li3 O3 2.101758 1_656
Li3 O11 2.160699 1_555
Li3 O11 2.223384 1_556
Li3 O11 2.223386 1_656
Li4 O12 2.075261 1_455
Li4 O12 2.075263 1_555
Li4 O12 2.120575 1_454
Li4 O4 2.152522 1_555
Li4 O4 2.212270 1_454
Li4 O4 2.212274 1_554
Li5 O13 2.113502 1_655
Li5 O13 2.113504 1_555
Li5 O5 2.118890 1_654
Li5 O5 2.118890 1_554
Li5 O13 2.170967 1_554
Li5 O5 2.184057 1_655
Li6 O6 2.109015 1_555
Li6 O6 2.109017 1_455
Li6 O14 2.121190 1_555
Li6 O14 2.121191 1_455
Li6 O6 2.160354 1_556
Li6 O14 2.187827 1_454
Li7 O7 2.055821 1_555
Li7 O7 2.055823 1_655
Li7 O7 2.100339 1_656
Li7 O15 2.183748 1_554
Li7 O15 2.202126 1_555
Li7 O15 2.202126 1_655
Li8 O8 2.092141 1_554
Li8 O8 2.092145 1_454
Li8 O1 2.102246 1_655
Li8 O1 2.102249 1_555
Li8 O8 2.132684 1_555
Li8 O1 2.151457 1_554
Mn0 O0 1.938386 1_666
Mn0 O0 1.938388 1_566
Mn0 O15 1.967726 1_655
Mn0 O15 1.967726 1_555
Mn0 O0 2.106903 1_565
Mn0 O15 2.153277 1_656
Mn1 O11 1.955460 1_555
Mn1 O11 1.955463 1_455
Mn1 O4 1.959380 1_455
Mn1 O4 1.959380 1_555
Mn1 O11 2.184990 1_556
Mn1 O4 2.188365 1_454
Co0 O9 1.961867 1_554
Co0 O9 1.961869 1_654
Co0 O2 1.992855 1_555
Co0 O2 1.992855 1_655
Co0 O9 2.073084 1_655
Co0 O2 2.098668 1_554
Co1 O10 2.006900 1_555
Co1 O10 2.006900 1_455
Co1 O3 2.024235 1_555
Co1 O3 2.024235 1_655
Co1 O10 2.059085 1_556
Co1 O3 2.086750 1_554
Co2 O5 2.006945 1_655
Co2 O5 2.006947 1_555
Co2 O12 2.021355 1_555
Co2 O12 2.021357 1_455
Co2 O5 2.064787 1_554
Co2 O12 2.088195 1_556
Co3 O13 2.009767 1_655
Co3 O13 2.009771 1_555
Co3 O6 2.010142 1_656
Co3 O6 2.010144 1_556
Co3 O6 2.074583 1_555
Co3 O13 2.074685 1_656
Co4 O14 2.004127 1_555
Co4 O14 2.004129 1_455
Co4 O7 2.024620 1_556
Co4 O7 2.024620 1_656
Co4 O14 2.063821 1_556
Co4 O7 2.098478 1_555
