# generated using pymatgen
data_Na2Al2Si3O14
_symmetry_space_group_name_H-M   'P 1'
_cell_length_a   13.11121788
_cell_length_b   9.98244699
_cell_length_c   9.74909774
_cell_angle_alpha   83.27588408
_cell_angle_beta   49.12418551
_cell_angle_gamma   47.59993041
_symmetry_Int_Tables_number   1
_chemical_formula_structural   Na2Al2Si3O14
_chemical_formula_sum   'Na4 Al4 Si6 O28'
_cell_volume   580.08086851
_cell_formula_units_Z   2
loop_
 _symmetry_equiv_pos_site_id
 _symmetry_equiv_pos_as_xyz
  1  'x, y, z'
loop_
 _atom_site_type_symbol
 _atom_site_label
 _atom_site_symmetry_multiplicity
 _atom_site_fract_x
 _atom_site_fract_y
 _atom_site_fract_z
 _atom_site_occupancy
  Na  Na0  1  0.60576300  0.82635700  0.45308100  1
  Na  Na1  1  0.11479900  0.45308100  0.82635700  1
  Na  Na2  1  0.79691900  0.13520100  0.64423700  1
  Na  Na3  1  0.42364300  0.64423700  0.13520100  1
  Al  Al0  1  0.73385300  0.57936900  0.69400200  1
  Al  Al1  1  0.99277500  0.69400200  0.57936900  1
  Al  Al2  1  0.55599800  0.25722500  0.51614700  1
  Al  Al3  1  0.67063100  0.51614700  0.25722500  1
  Si  Si0  1  0.24368600  0.25631400  0.25631400  1
  Si  Si1  1  0.99368600  0.00631400  0.00631400  1
  Si  Si2  1  0.49868500  0.57473600  0.69531900  1
  Si  Si3  1  0.23125900  0.69531900  0.57473600  1
  Si  Si4  1  0.55468100  0.01874100  0.75131500  1
  Si  Si5  1  0.67526400  0.75131500  0.01874100  1
  O  O0  1  0.02068600  0.34159700  0.44573100  1
  O  O1  1  0.19198500  0.44573100  0.34159700  1
  O  O2  1  0.80426900  0.05801500  0.22931400  1
  O  O3  1  0.90840300  0.22931400  0.05801500  1
  O  O4  1  0.60183800  0.53122600  0.76208400  1
  O  O5  1  0.10485300  0.76208400  0.53122600  1
  O  O6  1  0.48791600  0.14514700  0.64816200  1
  O  O7  1  0.71877400  0.64816200  0.14514700  1
  O  O8  1  0.62090600  0.81044300  0.67898400  1
  O  O9  1  0.88966600  0.67898400  0.81044300  1
  O  O10  1  0.57101600  0.36033400  0.62909400  1
  O  O11  1  0.43955700  0.62909400  0.36033400  1
  O  O12  1  0.59838700  0.59573200  0.48655400  1
  O  O13  1  0.31932800  0.48655400  0.59573200  1
  O  O14  1  0.76344600  0.93067200  0.65161300  1
  O  O15  1  0.65426800  0.65161300  0.93067200  1
  O  O16  1  0.22656800  0.80499400  0.91434800  1
  O  O17  1  0.05409000  0.91434800  0.80499400  1
  O  O18  1  0.33565200  0.19591000  0.02343200  1
  O  O19  1  0.44500600  0.02343200  0.19591000  1
  O  O20  1  0.10626500  0.02780000  0.24577000  1
  O  O21  1  0.62016500  0.24577000  0.02780000  1
  O  O22  1  0.00423000  0.62983500  0.14373500  1
  O  O23  1  0.22220000  0.14373500  0.62983500  1
  O  O24  1  0.12091800  0.11377800  0.14518100  1
  O  O25  1  0.62012300  0.14518100  0.11377800  1
  O  O26  1  0.10481900  0.62987700  0.12908200  1
  O  O27  1  0.13622200  0.12908200  0.62987700  1
loop_
_geom_bond_atom_site_label_1
_geom_bond_atom_site_label_2
_geom_bond_distance
_geom_bond_site_symmetry_2
Na0 O8 2.315781 1_555
Na0 O12 2.344994 1_555
Na0 O7 2.499232 1_555
Na0 O23 2.597419 1_565
Na0 O6 2.659235 1_565
Na0 O22 2.679474 1_655
Na1 O9 2.315790 1_455
Na1 O13 2.345002 1_555
Na1 O6 2.499223 1_555
Na1 O22 2.597419 1_556
Na1 O7 2.659244 1_456
Na1 O23 2.679474 1_555
Na2 O10 2.315782 1_555
Na2 O14 2.345004 1_545
Na2 O5 2.499227 1_645
Na2 O21 2.597419 1_556
Na2 O4 2.659244 1_555
Na2 O20 2.679474 1_655
Na3 O11 2.315791 1_555
Na3 O15 2.344994 1_554
Na3 O4 2.499223 1_554
Na3 O20 2.597419 1_565
Na3 O5 2.659240 1_555
Na3 O21 2.679474 1_555
Al0 O0 1.740333 1_655
Al0 O8 1.770082 1_555
Al0 O15 1.776592 1_555
Al0 O4 1.791899 1_555
Al1 O1 1.740333 1_655
Al1 O9 1.770082 1_555
Al1 O14 1.776592 1_555
Al1 O5 1.791922 1_655
Al2 O2 1.740333 1_555
Al2 O10 1.770082 1_555
Al2 O13 1.776592 1_555
Al2 O6 1.791916 1_555
Al3 O3 1.740333 1_555
Al3 O11 1.770082 1_555
Al3 O12 1.776592 1_555
Al3 O7 1.791904 1_555
O0 Si0 1.621123 1_555
O1 Si0 1.621114 1_555
O2 Si1 1.621118 1_555
O3 Si1 1.621123 1_555
O4 Si2 1.653861 1_555
O5 Si3 1.653838 1_555
O6 Si4 1.653855 1_555
O7 Si5 1.653844 1_555
O8 Si4 1.637650 1_565
O9 Si5 1.637634 1_556
O10 Si2 1.637631 1_555
O11 Si3 1.637645 1_555
O12 Si2 1.637815 1_555
O13 Si3 1.637813 1_555
O14 Si4 1.637805 1_565
O15 Si5 1.637829 1_556
O16 Si2 1.640300 1_555
O16 Si1 1.652012 1_466
O17 Si3 1.640305 1_555
O17 Si1 1.652012 1_466
O18 Si4 1.640299 1_554
O18 Si0 1.652012 1_555
O19 Si5 1.640299 1_545
O19 Si0 1.652012 1_555
O20 O24 1.230407 1_555
O21 O25 1.230407 1_555
O22 O26 1.230407 1_555
O23 O27 1.230407 1_555
