# generated using pymatgen
data_Sr5Si3
_symmetry_space_group_name_H-M   'P 1'
_cell_length_a   9.46103773
_cell_length_b   9.46103773
_cell_length_c   9.46103773
_cell_angle_alpha   96.78269976
_cell_angle_beta   96.78269976
_cell_angle_gamma   139.79961740
_symmetry_Int_Tables_number   1
_chemical_formula_structural   Sr5Si3
_chemical_formula_sum   'Sr10 Si6'
_cell_volume   513.32945390
_cell_formula_units_Z   2
loop_
 _symmetry_equiv_pos_site_id
 _symmetry_equiv_pos_as_xyz
  1  'x, y, z'
loop_
 _atom_site_type_symbol
 _atom_site_label
 _atom_site_symmetry_multiplicity
 _atom_site_fract_x
 _atom_site_fract_y
 _atom_site_fract_z
 _atom_site_occupancy
  Sr  Sr0  1  0.29356800  0.41561000  0.70917800  1
  Sr  Sr1  1  0.70643200  0.58439000  0.29082200  1
  Sr  Sr2  1  0.41561000  0.70643200  0.12204200  1
  Sr  Sr3  1  0.58439000  0.29356800  0.87795800  1
  Sr  Sr4  1  0.91561000  0.79356800  0.70917800  1
  Sr  Sr5  1  0.20643200  0.91561000  0.12204200  1
  Sr  Sr6  1  0.79356800  0.08439000  0.87795800  1
  Sr  Sr7  1  0.08439000  0.20643200  0.29082200  1
  Sr  Sr8  1  0.75000000  0.25000000  0.50000000  1
  Sr  Sr9  1  0.25000000  0.75000000  0.50000000  1
  Si  Si0  1  0.84574600  0.34574600  0.19149200  1
  Si  Si1  1  0.65425400  0.84574600  0.50000000  1
  Si  Si2  1  0.34574600  0.15425400  0.50000000  1
  Si  Si3  1  0.15425400  0.65425400  0.80850800  1
  Si  Si4  1  0.75000000  0.75000000  0.00000000  1
  Si  Si5  1  0.25000000  0.25000000  0.00000000  1
loop_
_geom_bond_atom_site_label_1
_geom_bond_atom_site_label_2
_geom_bond_distance
_geom_bond_site_symmetry_2
Si0 Sr9 3.186873 1_655
Si0 Sr8 3.186873 1_555
Si0 Sr3 3.348743 1_554
Si0 Sr6 3.348743 1_554
Si0 Sr1 3.472110 1_555
Si0 Sr7 3.472110 1_655
Si1 Sr8 3.186873 1_565
Si1 Sr9 3.186873 1_555
Si1 Sr4 3.348743 1_555
Si1 Sr1 3.348743 1_555
Si1 Sr2 3.472110 1_555
Si1 Sr6 3.472110 1_565
Si2 Sr9 3.186873 1_545
Si2 Sr8 3.186873 1_555
Si2 Sr7 3.348743 1_555
Si2 Sr0 3.348743 1_555
Si2 Sr3 3.472110 1_555
Si2 Sr5 3.472110 1_545
Si3 Sr9 3.186873 1_555
Si3 Sr8 3.186873 1_455
Si3 Sr2 3.348743 1_556
Si3 Sr5 3.348743 1_556
Si3 Sr0 3.472110 1_555
Si3 Sr4 3.472110 1_455
Si4 Sr6 3.239624 1_564
Si4 Sr5 3.239624 1_655
Si4 Sr3 3.239624 1_554
Si4 Sr2 3.239624 1_555
Si4 Sr7 3.239624 1_665
Si4 Sr1 3.239624 1_555
Si4 Sr4 3.239624 1_554
Si4 Sr0 3.239624 1_554
Si5 Sr3 3.239624 1_554
Si5 Sr6 3.239624 1_454
Si5 Sr2 3.239624 1_555
Si5 Sr4 3.239624 1_444
Si5 Sr0 3.239624 1_554
Si5 Sr5 3.239624 1_545
Si5 Sr1 3.239624 1_555
Si5 Sr7 3.239624 1_555
