# generated using pymatgen
data_Th2Si3Rh
_symmetry_space_group_name_H-M   'P 1'
_cell_length_a   7.69095894
_cell_length_b   7.69095894
_cell_length_c   7.69095894
_cell_angle_alpha   149.07807804
_cell_angle_beta   148.05734394
_cell_angle_gamma   45.05348531
_symmetry_Int_Tables_number   1
_chemical_formula_structural   Th2Si3Rh
_chemical_formula_sum   'Th2 Si3 Rh1'
_cell_volume   123.29419411
_cell_formula_units_Z   1
loop_
 _symmetry_equiv_pos_site_id
 _symmetry_equiv_pos_as_xyz
  1  'x, y, z'
loop_
 _atom_site_type_symbol
 _atom_site_label
 _atom_site_symmetry_multiplicity
 _atom_site_fract_x
 _atom_site_fract_y
 _atom_site_fract_z
 _atom_site_occupancy
  Th  Th0  1  0.75241474  0.25241474  0.50000000  1
  Th  Th1  1  0.00017478  0.00017478  -0.00000000  1
  Si  Si0  1  0.58440307  0.58440307  -0.00000000  1
  Si  Si1  1  0.33082325  0.83082325  0.50000000  1
  Si  Si2  1  0.41721916  0.41721916  -0.00000000  1
  Rh  Rh0  1  0.16496401  0.66496401  0.50000000  1
loop_
_geom_bond_atom_site_label_1
_geom_bond_atom_site_label_2
_geom_bond_distance
_geom_bond_site_symmetry_2
Si0 Si2 2.375397 1_555
Si0 Th0 3.146765 1_554
Si0 Th0 3.146765 1_565
Si0 Th1 3.180277 1_666
Si0 Th1 3.180277 1_565
Si0 Th1 3.180277 1_655
Si0 Th1 3.180277 1_554
Si1 Si2 2.389656 1_555
Si1 Si2 2.389656 1_566
Si1 Th0 3.150092 1_555
Si1 Th0 3.150092 1_566
Si1 Th0 3.150092 1_454
Si1 Th0 3.150092 1_465
Si1 Th1 3.204395 1_666
Si1 Th1 3.204395 1_565
Si2 Th0 3.156170 1_454
Si2 Th0 3.156170 1_555
Si2 Th1 3.173516 1_554
Si2 Th1 3.173516 1_565
Si2 Th1 3.173516 1_666
Si2 Th1 3.173516 1_655
Rh0 Si1 2.356576 1_555
Rh0 Si0 2.405941 1_455
Rh0 Si0 2.405941 1_556
Rh0 Th1 3.112175 1_555
Rh0 Th1 3.112175 1_566
Rh0 Th0 3.197787 1_555
Rh0 Th0 3.197787 1_454
Rh0 Th0 3.197787 1_566
Rh0 Th0 3.197787 1_465
