# generated using pymatgen
data_Rb2LiMn3F12
_symmetry_space_group_name_H-M   'P 1'
_cell_length_a   7.02679300
_cell_length_b   7.59431808
_cell_length_c   10.39733473
_cell_angle_alpha   90.66840374
_cell_angle_beta   92.25431569
_cell_angle_gamma   90.44889830
_symmetry_Int_Tables_number   1
_chemical_formula_structural   Rb2LiMn3F12
_chemical_formula_sum   'Rb4 Li2 Mn6 F24'
_cell_volume   554.35403600
_cell_formula_units_Z   2
loop_
 _symmetry_equiv_pos_site_id
 _symmetry_equiv_pos_as_xyz
  1  'x, y, z'
loop_
 _atom_site_type_symbol
 _atom_site_label
 _atom_site_symmetry_multiplicity
 _atom_site_fract_x
 _atom_site_fract_y
 _atom_site_fract_z
 _atom_site_occupancy
  Rb  Rb0  1  0.01521300  0.25398800  0.87122200  1
  Rb  Rb1  1  0.98478700  0.74601200  0.12877800  1
  Rb  Rb2  1  0.49450300  0.25215400  0.61273400  1
  Rb  Rb3  1  0.50549700  0.74784600  0.38726600  1
  Li  Li0  1  0.71120700  0.23988500  0.26051100  1
  Li  Li1  1  0.28879300  0.76011500  0.73948900  1
  Mn  Mn0  1  0.00000000  0.00000000  0.50000000  1
  Mn  Mn1  1  0.50000000  0.00000000  0.00000000  1
  Mn  Mn2  1  0.20136300  0.25194700  0.22457700  1
  Mn  Mn3  1  0.79863700  0.74805300  0.77542300  1
  Mn  Mn4  1  0.50000000  0.50000000  0.00000000  1
  Mn  Mn5  1  0.00000000  0.50000000  0.50000000  1
  F  F0  1  0.76904700  0.05534900  0.41697700  1
  F  F1  1  0.23095300  0.94465100  0.58302300  1
  F  F2  1  0.12843700  0.03690100  0.34610300  1
  F  F3  1  0.87156300  0.96309900  0.65389700  1
  F  F4  1  0.15886300  0.44818200  0.33438900  1
  F  F5  1  0.84113700  0.55181800  0.66561100  1
  F  F6  1  0.94758800  0.26001200  0.16654000  1
  F  F7  1  0.05241200  0.73998800  0.83346000  1
  F  F8  1  0.26535400  0.44037800  0.07859200  1
  F  F9  1  0.73464600  0.55962200  0.92140800  1
  F  F10  1  0.59281700  0.23493100  0.00612800  1
  F  F11  1  0.40718300  0.76506900  0.99387200  1
  F  F12  1  0.61878200  0.53630300  0.16014800  1
  F  F13  1  0.38121800  0.46369700  0.83985200  1
  F  F14  1  0.36559000  0.04106900  0.84602500  1
  F  F15  1  0.63441000  0.95893100  0.15397500  1
  F  F16  1  0.24524100  0.07219900  0.09985100  1
  F  F17  1  0.75475900  0.92780100  0.90014900  1
  F  F18  1  0.22573700  0.57600300  0.58269200  1
  F  F19  1  0.77426300  0.42399700  0.41730800  1
  F  F20  1  0.44537500  0.23761900  0.29572600  1
  F  F21  1  0.55462500  0.76238100  0.70427400  1
  F  F22  1  0.04887900  0.26906000  0.56391500  1
  F  F23  1  0.95112100  0.73094000  0.43608500  1
loop_
_geom_bond_atom_site_label_1
_geom_bond_atom_site_label_2
_geom_bond_distance
_geom_bond_site_symmetry_2
F0 Mn0 1.861303 1_655
F0 Li0 2.187659 1_555
F0 Rb3 2.974712 1_545
F0 Rb2 3.221997 1_555
F1 Mn0 1.861303 1_565
F1 Li1 2.187659 1_555
F1 Rb2 2.974712 1_565
F1 Rb3 3.221997 1_555
F2 Mn0 1.890377 1_555
F2 Mn2 2.147607 1_555
F2 Rb1 3.267106 1_445
F2 Rb3 3.470704 1_545
F3 Mn0 1.890377 1_665
F3 Mn3 2.147607 1_555
F3 Rb0 3.267106 1_665
F3 Rb2 3.470704 1_565
F4 Mn2 1.899418 1_555
F4 Mn5 2.123265 1_555
F4 Rb1 3.336567 1_455
F4 Rb3 3.345539 1_555
F5 Mn3 1.899418 1_555
F5 Mn5 2.123265 1_655
F5 Rb0 3.336567 1_655
F5 Rb2 3.345539 1_555
F6 Mn2 1.861636 1_655
F6 Li0 1.965728 1_555
F6 Rb0 3.125354 1_654
F7 Mn3 1.861636 1_455
F7 Li1 1.965728 1_555
F7 Rb1 3.125354 1_456
F8 Mn4 1.922042 1_555
F8 Mn2 2.155953 1_555
F8 Rb0 3.055084 1_554
F8 Rb1 3.109796 1_455
F9 Mn4 1.922042 1_556
F9 Mn3 2.155953 1_555
F9 Rb1 3.055084 1_556
F9 Rb0 3.109796 1_655
F10 Mn1 1.894317 1_555
F10 Mn4 2.121785 1_555
F10 Rb0 3.335190 1_654
F11 Mn1 1.894317 1_566
F11 Mn4 2.121785 1_556
F11 Rb1 3.335190 1_456
F12 Mn4 1.849759 1_555
F12 Li0 2.569535 1_555
F12 Rb3 2.978306 1_555
F12 Rb1 3.044839 1_555
F13 Mn4 1.849759 1_556
F13 Li1 2.569535 1_555
F13 Rb2 2.978306 1_555
F13 Rb0 3.044839 1_555
F14 Mn1 1.857308 1_556
F14 Li1 2.439356 1_545
F14 Rb0 2.974568 1_555
F14 Rb2 3.084590 1_555
F15 Mn1 1.857308 1_565
F15 Li0 2.439356 1_565
F15 Rb1 2.974568 1_555
F15 Rb3 3.084590 1_555
F16 Mn2 1.907078 1_555
F16 Mn1 2.175170 1_555
F16 Rb1 3.092885 1_445
F16 Rb0 3.158891 1_554
F17 Mn3 1.907078 1_555
F17 Mn1 2.175170 1_566
F17 Rb0 3.092885 1_665
F17 Rb1 3.158891 1_556
F18 Mn5 1.858818 1_555
F18 Li1 2.165494 1_555
F18 Rb2 3.123658 1_555
F18 Rb3 3.167349 1_555
F19 Mn5 1.858818 1_655
F19 Li0 2.165494 1_555
F19 Rb3 3.123658 1_555
F19 Rb2 3.167349 1_555
F20 Mn2 1.845001 1_555
F20 Li0 1.917558 1_555
F20 Rb2 3.301004 1_555
F21 Mn3 1.845001 1_555
F21 Li1 1.917558 1_555
F21 Rb3 3.301004 1_555
F22 Mn5 1.911593 1_555
F22 Mn0 2.161976 1_555
F22 Rb2 3.156263 1_555
F22 Rb0 3.216484 1_555
F23 Mn5 1.911593 1_655
F23 Mn0 2.161976 1_665
F23 Rb3 3.156263 1_555
F23 Rb1 3.216484 1_555
