# generated using pymatgen
data_CaAl2Si2(WO4)2
_symmetry_space_group_name_H-M   'P 1'
_cell_length_a   9.48092758
_cell_length_b   14.25724592
_cell_length_c   14.57909929
_cell_angle_alpha   90.00000000
_cell_angle_beta   90.00000000
_cell_angle_gamma   90.00000000
_symmetry_Int_Tables_number   1
_chemical_formula_structural   CaAl2Si2(WO4)2
_chemical_formula_sum   'Ca8 Al16 Si16 W16 O64'
_cell_volume   1970.68478543
_cell_formula_units_Z   8
loop_
 _symmetry_equiv_pos_site_id
 _symmetry_equiv_pos_as_xyz
  1  'x, y, z'
loop_
 _atom_site_type_symbol
 _atom_site_label
 _atom_site_symmetry_multiplicity
 _atom_site_fract_x
 _atom_site_fract_y
 _atom_site_fract_z
 _atom_site_occupancy
  Ca  Ca0  1  0.36575341  0.13839728  0.59652467  1
  Ca  Ca1  1  0.13424659  0.86160272  0.09652467  1
  Ca  Ca2  1  0.63424659  0.63839728  0.90347533  1
  Ca  Ca3  1  0.86575341  0.36160272  0.40347533  1
  Ca  Ca4  1  0.60962220  0.33572190  0.11904727  1
  Ca  Ca5  1  0.89037780  0.66427810  0.61904727  1
  Ca  Ca6  1  0.39037780  0.83572190  0.38095273  1
  Ca  Ca7  1  0.10962220  0.16427810  0.88095273  1
  Al  Al0  1  0.07369346  0.03244593  0.64377814  1
  Al  Al1  1  0.42630654  0.96755407  0.14377814  1
  Al  Al2  1  0.92630654  0.53244593  0.85622186  1
  Al  Al3  1  0.57369346  0.46755407  0.35622186  1
  Al  Al4  1  0.24054912  0.24800102  0.07432832  1
  Al  Al5  1  0.25945088  0.75199898  0.57432832  1
  Al  Al6  1  0.75945088  0.74800102  0.42567168  1
  Al  Al7  1  0.74054912  0.25199898  0.92567168  1
  Al  Al8  1  0.08089594  0.51855643  0.14885869  1
  Al  Al9  1  0.41910406  0.48144357  0.64885869  1
  Al  Al10  1  0.91910406  0.01855643  0.35114131  1
  Al  Al11  1  0.58089594  0.98144357  0.85114131  1
  Al  Al12  1  0.24206194  0.24990789  0.37164294  1
  Al  Al13  1  0.25793806  0.75009211  0.87164294  1
  Al  Al14  1  0.75793806  0.74990789  0.12835706  1
  Al  Al15  1  0.74206194  0.25009211  0.62835706  1
  Si  Si0  1  0.17263526  0.09423001  0.22393651  1
  Si  Si1  1  0.32736474  0.90576999  0.72393651  1
  Si  Si2  1  0.82736474  0.59423001  0.27606349  1
  Si  Si3  1  0.67263526  0.40576999  0.77606349  1
  Si  Si4  1  0.99530277  0.17790303  0.49645245  1
  Si  Si5  1  0.50469723  0.82209697  0.99645245  1
  Si  Si6  1  0.00469723  0.67790303  0.00354755  1
  Si  Si7  1  0.49530277  0.32209697  0.50354755  1
  Si  Si8  1  0.33165297  0.39957883  0.22095179  1
  Si  Si9  1  0.16834703  0.60042117  0.72095179  1
  Si  Si10  1  0.66834703  0.89957883  0.27904821  1
  Si  Si11  1  0.83165297  0.10042117  0.77904821  1
  Si  Si12  1  0.49732186  0.12901861  0.00238956  1
  Si  Si13  1  0.00267814  0.87098139  0.50238956  1
  Si  Si14  1  0.50267814  0.62901861  0.49761044  1
  Si  Si15  1  0.99732186  0.37098139  0.99761044  1
  W  W0  1  0.67901475  0.17235545  0.27326287  1
  W  W1  1  0.82098525  0.82764455  0.77326287  1
  W  W2  1  0.32098525  0.67235545  0.22673713  1
  W  W3  1  0.17901475  0.32764455  0.72673713  1
  W  W4  1  0.43155743  0.06220680  0.39178931  1
  W  W5  1  0.06844257  0.93779320  0.89178931  1
  W  W6  1  0.56844257  0.56220680  0.10821069  1
  W  W7  1  0.93155743  0.43779320  0.60821069  1
  W  W8  1  0.12127200  0.52390656  0.45878229  1
  W  W9  1  0.37872800  0.47609344  0.95878229  1
  W  W10  1  0.87872800  0.02390656  0.04121771  1
  W  W11  1  0.62127200  0.97609344  0.54121771  1
  W  W12  1  0.07536586  0.79230641  0.30577227  1
  W  W13  1  0.42463414  0.20769359  0.80577227  1
  W  W14  1  0.92463414  0.29230641  0.19422773  1
  W  W15  1  0.57536586  0.70769359  0.69422773  1
  O  O0  1  0.01758886  0.40928688  0.10416924  1
  O  O1  1  0.48241114  0.59071312  0.60416924  1
  O  O2  1  0.98241114  0.90928688  0.39583076  1
  O  O3  1  0.51758886  0.09071312  0.89583076  1
  O  O4  1  0.24389573  0.34690338  0.30036917  1
  O  O5  1  0.25610427  0.65309662  0.80036917  1
  O  O6  1  0.75610427  0.84690338  0.19963083  1
  O  O7  1  0.74389573  0.15309662  0.69963083  1
  O  O8  1  0.08911492  0.59793663  0.05889703  1
  O  O9  1  0.41088508  0.40206337  0.55889703  1
  O  O10  1  0.91088508  0.09793663  0.44110297  1
  O  O11  1  0.58911492  0.90206337  0.94110297  1
  O  O12  1  0.61558129  0.21409938  0.01029728  1
  O  O13  1  0.88441871  0.78590062  0.51029728  1
  O  O14  1  0.38441871  0.71409938  0.48970272  1
  O  O15  1  0.11558129  0.28590062  0.98970272  1
  O  O16  1  0.52031075  0.05372197  0.08363865  1
  O  O17  1  0.97968925  0.94627803  0.58363865  1
  O  O18  1  0.47968925  0.55372197  0.41636135  1
  O  O19  1  0.02031075  0.44627803  0.91636135  1
  O  O20  1  0.25538490  0.00698087  0.17257548  1
  O  O21  1  0.24461510  0.99301913  0.67257548  1
  O  O22  1  0.74461510  0.50698087  0.32742452  1
  O  O23  1  0.75538490  0.49301913  0.82742452  1
  O  O24  1  0.25210059  0.49555969  0.18969983  1
  O  O25  1  0.24789941  0.50444031  0.68969983  1
  O  O26  1  0.74789941  0.99555969  0.31030017  1
  O  O27  1  0.75210059  0.00444031  0.81030017  1
  O  O28  1  0.10938391  0.13066175  0.56976246  1
  O  O29  1  0.39061609  0.86933825  0.06976246  1
  O  O30  1  0.89061609  0.63066175  0.93023754  1
  O  O31  1  0.60938391  0.36933825  0.43023754  1
  O  O32  1  0.14279843  0.18327101  0.15483673  1
  O  O33  1  0.35720157  0.81672899  0.65483673  1
  O  O34  1  0.85720157  0.68327101  0.34516327  1
  O  O35  1  0.64279843  0.31672899  0.84516327  1
  O  O36  1  0.37692062  0.25174865  0.45588618  1
  O  O37  1  0.12307938  0.74825135  0.95588618  1
  O  O38  1  0.62307938  0.75174865  0.04411382  1
  O  O39  1  0.87692062  0.24825135  0.54411382  1
  O  O40  1  0.97407986  0.55399025  0.23856076  1
  O  O41  1  0.52592014  0.44600975  0.73856076  1
  O  O42  1  0.02592014  0.05399025  0.26143924  1
  O  O43  1  0.47407986  0.94600975  0.76143924  1
  O  O44  1  0.35603266  0.32795897  0.13098863  1
  O  O45  1  0.14396734  0.67204103  0.63098863  1
  O  O46  1  0.64396734  0.82795897  0.36901137  1
  O  O47  1  0.85603266  0.17204103  0.86901137  1
  O  O48  1  0.83833791  0.32601578  0.99809577  1
  O  O49  1  0.66166209  0.67398422  0.49809577  1
  O  O50  1  0.16166209  0.82601578  0.50190423  1
  O  O51  1  0.33833791  0.17398422  0.00190423  1
  O  O52  1  0.49387929  0.42484027  0.25412882  1
  O  O53  1  0.00612071  0.57515973  0.75412882  1
  O  O54  1  0.50612071  0.92484027  0.24587118  1
  O  O55  1  0.99387929  0.07515973  0.74587118  1
  O  O56  1  0.27023542  0.14001236  0.31002340  1
  O  O57  1  0.22976458  0.85998764  0.81002340  1
  O  O58  1  0.72976458  0.64001236  0.18997660  1
  O  O59  1  0.77023542  0.35998764  0.68997660  1
  O  O60  1  0.07528040  0.24987318  0.42514837  1
  O  O61  1  0.42471960  0.75012682  0.92514837  1
  O  O62  1  0.92471960  0.74987318  0.07485163  1
  O  O63  1  0.57528040  0.25012682  0.57485163  1
loop_
_geom_bond_atom_site_label_1
_geom_bond_atom_site_label_2
_geom_bond_distance
_geom_bond_site_symmetry_2
Ca0 O28 2.464206 1_555
Ca0 O63 2.565847 1_555
Ca0 O36 2.612850 1_555
Ca0 O21 2.616189 1_545
Ca0 W11 3.445801 1_545
Ca1 O29 2.464206 1_555
Ca1 O62 2.565847 1_455
Ca1 O37 2.612850 1_554
Ca1 O20 2.616189 1_565
Ca1 W10 3.445801 1_465
Ca2 O30 2.464206 1_555
Ca2 O61 2.565847 1_555
Ca2 O38 2.612850 1_556
Ca2 O23 2.616189 1_555
Ca2 W9 3.445801 1_555
Ca3 O31 2.464206 1_555
Ca3 O60 2.565847 1_655
Ca3 O39 2.612850 1_555
Ca3 O22 2.616189 1_555
Ca3 W8 3.445801 1_655
Ca4 O12 2.350254 1_555
Ca4 O44 2.413098 1_555
Ca4 O52 2.587849 1_555
Ca4 O48 2.798343 1_554
Ca4 W0 3.303448 1_555
Ca4 W9 3.775803 1_554
Ca5 O13 2.350254 1_555
Ca5 O45 2.413098 1_655
Ca5 O53 2.587849 1_655
Ca5 O49 2.798343 1_555
Ca5 W1 3.303448 1_555
Ca5 W8 3.775803 1_655
Ca6 O14 2.350254 1_555
Ca6 O46 2.413098 1_555
Ca6 O54 2.587849 1_555
Ca6 O50 2.798343 1_555
Ca6 W2 3.303448 1_555
Ca6 W11 3.775803 1_555
Ca7 O15 2.350254 1_555
Ca7 O47 2.413098 1_455
Ca7 O55 2.587849 1_455
Ca7 O51 2.798343 1_556
Ca7 W3 3.303448 1_555
Ca7 W10 3.775803 1_456
Al0 O17 1.752803 1_445
Al0 O21 1.765856 1_545
Al0 O55 1.777324 1_455
Al0 O28 1.799923 1_555
Al1 O16 1.752803 1_565
Al1 O20 1.765856 1_565
Al1 O54 1.777324 1_555
Al1 O29 1.799923 1_555
Al2 O19 1.752803 1_655
Al2 O23 1.765856 1_555
Al2 O53 1.777324 1_655
Al2 O30 1.799923 1_555
Al3 O18 1.752803 1_555
Al3 O22 1.765856 1_555
Al3 O52 1.777324 1_555
Al3 O31 1.799923 1_555
Al4 O51 1.757286 1_555
Al4 O32 1.757343 1_555
Al4 O44 1.783455 1_555
Al4 O15 1.793857 1_554
Al5 O50 1.757286 1_555
Al5 O33 1.757343 1_555
Al5 O45 1.783455 1_555
Al5 O14 1.793857 1_555
Al6 O49 1.757286 1_555
Al6 O34 1.757343 1_555
Al6 O46 1.783455 1_555
Al6 O13 1.793857 1_555
Al7 O48 1.757286 1_555
Al7 O35 1.757343 1_555
Al7 O47 1.783455 1_555
Al7 O12 1.793857 1_556
Al8 O40 1.729475 1_455
Al8 O8 1.734100 1_555
Al8 O24 1.759756 1_555
Al8 O0 1.792134 1_555
Al9 O41 1.729475 1_555
Al9 O9 1.734100 1_555
Al9 O25 1.759756 1_555
Al9 O1 1.792134 1_555
Al10 O42 1.729475 1_655
Al10 O10 1.734100 1_555
Al10 O26 1.759756 1_545
Al10 O2 1.792134 1_545
Al11 O43 1.729475 1_555
Al11 O11 1.734100 1_555
Al11 O27 1.759756 1_565
Al11 O3 1.792134 1_565
Al12 O4 1.729863 1_555
Al12 O60 1.763187 1_555
Al12 O36 1.773111 1_555
Al12 O56 1.825727 1_555
Al13 O5 1.729863 1_555
Al13 O61 1.763187 1_555
Al13 O37 1.773111 1_555
Al13 O57 1.825727 1_555
Al14 O6 1.729863 1_555
Al14 O62 1.763187 1_555
Al14 O38 1.773111 1_555
Al14 O58 1.825727 1_555
Al15 O7 1.729863 1_555
Al15 O63 1.763187 1_555
Al15 O39 1.773111 1_555
Al15 O59 1.825727 1_555
W6 W9 3.080350 1_554
W7 W8 3.080350 1_655
W10 W5 3.080350 1_644
W11 W4 3.080350 1_565
O0 Si15 1.657902 1_454
O0 W14 2.298304 1_455
O1 Si14 1.657902 1_555
O1 W15 2.298304 1_555
O2 Si13 1.657902 1_655
O2 W12 2.298304 1_655
O3 Si12 1.657902 1_556
O3 W13 2.298304 1_555
O4 Si8 1.611474 1_555
O5 Si9 1.611474 1_555
O6 Si10 1.611474 1_555
O7 Si11 1.611474 1_555
O8 Si6 1.609833 1_555
O9 Si7 1.609833 1_555
O10 Si4 1.609833 1_555
O11 Si5 1.609833 1_555
O12 Si12 1.655842 1_555
O13 Si13 1.655842 1_655
O14 Si14 1.655842 1_555
O15 Si15 1.655842 1_455
O16 Si12 1.613409 1_555
O17 Si13 1.613409 1_655
O18 Si14 1.613409 1_555
O19 Si15 1.613409 1_455
O20 Si0 1.650325 1_555
O21 Si1 1.650325 1_555
O22 Si2 1.650325 1_555
O23 Si3 1.650325 1_555
O24 Si8 1.627587 1_555
O24 W2 2.659252 1_555
O25 Si9 1.627587 1_555
O25 W3 2.659252 1_555
O26 Si10 1.627587 1_555
O26 W0 2.659252 1_565
O27 Si11 1.627587 1_555
O27 W1 2.659252 1_545
O28 Si4 1.663073 1_455
O29 Si5 1.663073 1_554
O30 Si6 1.663073 1_656
O31 Si7 1.663073 1_555
O32 Si0 1.645138 1_555
O32 W14 2.650413 1_455
O33 Si1 1.645138 1_555
O33 W15 2.650413 1_555
O34 Si2 1.645138 1_555
O34 W12 2.650413 1_655
O35 Si3 1.645138 1_555
O35 W13 2.650413 1_555
O36 Si7 1.657862 1_555
O37 Si6 1.657862 1_556
O38 Si5 1.657862 1_554
O39 Si4 1.657862 1_555
O40 Si2 1.600922 1_555
O41 Si3 1.600922 1_555
O42 Si0 1.600922 1_555
O43 Si1 1.600922 1_555
O44 Si8 1.678190 1_555
O45 Si9 1.678190 1_555
O46 Si10 1.678190 1_555
O47 Si11 1.678190 1_555
O48 Si15 1.637999 1_555
O49 Si14 1.637999 1_555
O50 Si13 1.637999 1_555
O51 Si12 1.637999 1_555
O52 Si8 1.652056 1_555
O53 Si9 1.652056 1_555
O54 Si10 1.652056 1_555
O55 Si11 1.652056 1_555
O56 Si0 1.690417 1_555
O56 W4 2.234029 1_555
O57 Si1 1.690417 1_555
O57 W5 2.234029 1_555
O58 Si2 1.690417 1_555
O58 W6 2.234029 1_555
O59 Si3 1.690417 1_555
O59 W7 2.234029 1_555
O60 Si4 1.645751 1_455
O61 Si5 1.645751 1_555
O62 Si6 1.645751 1_655
O63 Si7 1.645751 1_555
