# generated using pymatgen
data_Bi12Pb4O21
_symmetry_space_group_name_H-M   'P 1'
_cell_length_a   7.28791100
_cell_length_b   7.64779652
_cell_length_c   14.29685219
_cell_angle_alpha   93.35216695
_cell_angle_beta   97.50013065
_cell_angle_gamma   116.45790753
_symmetry_Int_Tables_number   1
_chemical_formula_structural   Bi12Pb4O21
_chemical_formula_sum   'Bi12 Pb4 O21'
_cell_volume   701.15899835
_cell_formula_units_Z   1
loop_
 _symmetry_equiv_pos_site_id
 _symmetry_equiv_pos_as_xyz
  1  'x, y, z'
loop_
 _atom_site_type_symbol
 _atom_site_label
 _atom_site_symmetry_multiplicity
 _atom_site_fract_x
 _atom_site_fract_y
 _atom_site_fract_z
 _atom_site_occupancy
  Bi  Bi0  1  0.77847700  0.00689500  0.29996300  1
  Bi  Bi1  1  0.22152300  0.99310500  0.70003700  1
  Bi  Bi2  1  0.50788100  0.80246400  0.57185900  1
  Bi  Bi3  1  0.49211900  0.19753600  0.42814100  1
  Bi  Bi4  1  0.51579500  0.74012600  0.04402100  1
  Bi  Bi5  1  0.48420500  0.25987400  0.95597900  1
  Bi  Bi6  1  0.06561100  0.27061700  0.52431400  1
  Bi  Bi7  1  0.93438900  0.72938300  0.47568600  1
  Bi  Bi8  1  0.25914800  0.00550000  0.17224000  1
  Bi  Bi9  1  0.74085200  0.99450000  0.82776000  1
  Bi  Bi10  1  0.34602600  0.56624800  0.31031000  1
  Bi  Bi11  1  0.65397400  0.43375200  0.68969000  1
  Pb  Pb0  1  0.02723100  0.29240500  0.05709300  1
  Pb  Pb1  1  0.97276900  0.70759500  0.94290700  1
  Pb  Pb2  1  0.74362200  0.48588700  0.20404400  1
  Pb  Pb3  1  0.25637800  0.51411300  0.79595600  1
  O  O0  1  0.45683100  0.82047500  0.87698400  1
  O  O1  1  0.54316900  0.17952500  0.12301600  1
  O  O2  1  0.22160100  0.75551300  0.07417600  1
  O  O3  1  0.77839900  0.24448700  0.92582400  1
  O  O4  1  0.53568000  0.65849000  0.69378900  1
  O  O5  1  0.46432000  0.34151000  0.30621100  1
  O  O6  1  0.29618100  0.52507500  0.46967600  1
  O  O7  1  0.70381900  0.47492500  0.53032400  1
  O  O8  1  0.51838900  0.61944300  0.18427400  1
  O  O9  1  0.48161100  0.38055700  0.81572600  1
  O  O10  1  0.07633500  0.07659000  0.41133900  1
  O  O11  1  0.92366500  0.92341000  0.58866100  1
  O  O12  1  0.43007300  0.93092900  0.29255000  1
  O  O13  1  0.56992700  0.06907100  0.70745000  1
  O  O14  1  0.71109100  0.54749200  0.03216700  1
  O  O15  1  0.28890900  0.45250800  0.96783300  1
  O  O16  1  0.65797400  0.76997700  0.39102600  1
  O  O17  1  0.34202600  0.23002300  0.60897400  1
  O  O18  1  0.19391600  0.75304000  0.60179700  1
  O  O19  1  0.80608400  0.24696000  0.39820300  1
  O  O20  1  0.00000000  0.00000000  0.00000000  1
loop_
_geom_bond_atom_site_label_1
_geom_bond_atom_site_label_2
_geom_bond_distance
_geom_bond_site_symmetry_2
Bi0 O19 2.163204 1_555
Bi0 O16 2.214871 1_545
Bi0 O12 2.324658 1_545
Bi0 O10 2.345033 1_655
Bi1 O18 2.163204 1_555
Bi1 O17 2.214871 1_565
Bi1 O13 2.324658 1_565
Bi1 O11 2.345033 1_455
Bi2 O4 2.150182 1_555
Bi2 O18 2.250691 1_555
Bi2 O6 2.268839 1_555
Bi2 O13 2.570419 1_565
Bi2 O11 2.716947 1_555
Bi3 O5 2.150182 1_555
Bi3 O19 2.250691 1_555
Bi3 O7 2.268839 1_555
Bi3 O12 2.570419 1_545
Bi3 O10 2.716947 1_555
Bi4 O15 2.183494 1_554
Bi4 O8 2.257217 1_555
Bi4 O2 2.292794 1_555
Bi4 O14 2.475303 1_555
Bi4 O0 2.530675 1_554
Bi5 O14 2.183494 1_556
Bi5 O9 2.257217 1_555
Bi5 O3 2.292794 1_555
Bi5 O15 2.475303 1_555
Bi5 O1 2.530675 1_556
Bi6 O10 2.161675 1_555
Bi6 O6 2.197152 1_555
Bi6 O17 2.363101 1_555
Bi6 O19 2.372258 1_455
Bi6 O11 2.655908 1_445
Bi7 O11 2.161675 1_555
Bi7 O7 2.197152 1_555
Bi7 O16 2.363101 1_555
Bi7 O18 2.372258 1_655
Bi7 O10 2.655908 1_665
Bi8 O1 2.141530 1_555
Bi8 O2 2.194511 1_545
Bi8 O12 2.241422 1_545
Bi8 O5 2.785820 1_555
Bi9 O0 2.141530 1_555
Bi9 O3 2.194511 1_565
Bi9 O13 2.241422 1_565
Bi9 O4 2.785820 1_555
Bi10 O16 2.208236 1_555
Bi10 O5 2.241107 1_555
Bi10 O8 2.282898 1_555
Bi10 O6 2.370741 1_555
Bi10 O12 2.611391 1_555
Bi11 O17 2.208236 1_555
Bi11 O4 2.241107 1_555
Bi11 O9 2.282898 1_555
Bi11 O7 2.370741 1_555
Bi11 O13 2.611391 1_555
O0 Pb3 2.270804 1_555
O1 Pb2 2.270804 1_555
O2 Pb1 2.320341 1_454
O3 Pb0 2.320341 1_656
O4 Pb3 2.541287 1_555
O5 Pb2 2.541287 1_555
O8 Pb2 2.285665 1_555
O9 Pb3 2.285665 1_555
O14 Pb1 2.345644 1_554
O14 Pb2 2.529693 1_555
O15 Pb0 2.345644 1_556
O15 Pb3 2.529693 1_555
O20 Pb0 2.248391 1_555
O20 Pb1 2.248391 1_444
