# generated using pymatgen
data_Rb4Sn21Hg2
_symmetry_space_group_name_H-M   'P 1'
_cell_length_a   12.32102701
_cell_length_b   12.32102701
_cell_length_c   12.31728664
_cell_angle_alpha   90.00000000
_cell_angle_beta   90.00000000
_cell_angle_gamma   90.03492832
_symmetry_Int_Tables_number   1
_chemical_formula_structural   Rb4Sn21Hg2
_chemical_formula_sum   'Rb8 Sn42 Hg4'
_cell_volume   1869.85868857
_cell_formula_units_Z   2
loop_
 _symmetry_equiv_pos_site_id
 _symmetry_equiv_pos_as_xyz
  1  'x, y, z'
loop_
 _atom_site_type_symbol
 _atom_site_label
 _atom_site_symmetry_multiplicity
 _atom_site_fract_x
 _atom_site_fract_y
 _atom_site_fract_z
 _atom_site_occupancy
  Rb  Rb0  1  0.49908238  0.99888792  0.25000000  1
  Rb  Rb1  1  0.00111208  0.50091762  0.75000000  1
  Rb  Rb2  1  0.01313017  0.98686983  0.50000000  1
  Rb  Rb3  1  0.74051623  0.51133648  0.25000000  1
  Rb  Rb4  1  0.48866352  0.25948377  0.75000000  1
  Rb  Rb5  1  0.01313017  0.98686983  0.00000000  1
  Rb  Rb6  1  0.25891609  0.51188357  0.25000000  1
  Rb  Rb7  1  0.48811643  0.74108391  0.75000000  1
  Sn  Sn0  1  0.61602654  0.99987103  0.55668631  1
  Sn  Sn1  1  0.80765877  0.11556398  0.25000000  1
  Sn  Sn2  1  0.49992762  0.31409342  0.36761820  1
  Sn  Sn3  1  0.37976592  0.00005191  0.93573640  1
  Sn  Sn4  1  0.18758922  0.87967729  0.25000000  1
  Sn  Sn5  1  0.49986372  0.68834993  0.13167438  1
  Sn  Sn6  1  0.19389635  0.11640216  0.25000000  1
  Sn  Sn7  1  0.49992762  0.31409342  0.13238180  1
  Sn  Sn8  1  0.81537459  0.88039974  0.25000000  1
  Sn  Sn9  1  0.49986372  0.68834993  0.36832562  1
  Sn  Sn10  1  0.37976592  0.00005191  0.56426360  1
  Sn  Sn11  1  0.61602654  0.99987103  0.94331369  1
  Sn  Sn12  1  0.68590658  0.50007238  0.63238180  1
  Sn  Sn13  1  -0.00005191  0.62023408  0.43573640  1
  Sn  Sn14  1  0.88359784  0.80610365  0.75000000  1
  Sn  Sn15  1  0.31165007  0.50013628  0.86832562  1
  Sn  Sn16  1  0.00012897  0.38397346  0.05668631  1
  Sn  Sn17  1  0.11960026  0.18462541  0.75000000  1
  Sn  Sn18  1  -0.00005191  0.62023408  0.06426360  1
  Sn  Sn19  1  0.12032271  0.81241078  0.75000000  1
  Sn  Sn20  1  0.00012897  0.38397346  0.44331369  1
  Sn  Sn21  1  0.88443602  0.19234123  0.75000000  1
  Sn  Sn22  1  0.68590658  0.50007238  0.86761820  1
  Sn  Sn23  1  0.31165007  0.50013628  0.63167438  1
  Sn  Sn24  1  0.68246054  0.18545613  0.43279079  1
  Sn  Sn25  1  0.31771834  0.81777462  0.06698394  1
  Sn  Sn26  1  0.31886599  0.18395691  0.06561489  1
  Sn  Sn27  1  0.68418235  0.81634049  0.43161220  1
  Sn  Sn28  1  0.31771834  0.81777462  0.43301606  1
  Sn  Sn29  1  0.68246054  0.18545613  0.06720921  1
  Sn  Sn30  1  0.68418235  0.81634049  0.06838780  1
  Sn  Sn31  1  0.31886599  0.18395691  0.43438511  1
  Sn  Sn32  1  0.81604309  0.68113401  0.56561489  1
  Sn  Sn33  1  0.18365951  0.31581765  0.93161220  1
  Sn  Sn34  1  0.18222538  0.68228166  0.93301606  1
  Sn  Sn35  1  0.81454387  0.31753946  0.56720921  1
  Sn  Sn36  1  0.81454387  0.31753946  0.93279079  1
  Sn  Sn37  1  0.18222538  0.68228166  0.56698394  1
  Sn  Sn38  1  0.18365951  0.31581765  0.56838780  1
  Sn  Sn39  1  0.81604309  0.68113401  0.93438511  1
  Sn  Sn40  1  0.74977659  -0.00028803  0.75000000  1
  Sn  Sn41  1  0.00028803  0.25022341  0.25000000  1
  Hg  Hg0  1  0.49911483  0.50088517  0.50000000  1
  Hg  Hg1  1  0.24971415  0.99898241  0.75000000  1
  Hg  Hg2  1  0.00101759  0.75028585  0.25000000  1
  Hg  Hg3  1  0.49911483  0.50088517  0.00000000  1
loop_
_geom_bond_atom_site_label_1
_geom_bond_atom_site_label_2
_geom_bond_distance
_geom_bond_site_symmetry_2
Rb0 Sn28 3.879254 1_555
Rb0 Sn25 3.879254 1_555
Rb0 Sn30 3.907723 1_555
Rb0 Sn27 3.907723 1_555
Rb0 Sn31 3.910764 1_565
Rb0 Sn26 3.910764 1_565
Rb0 Sn24 3.930885 1_565
Rb0 Sn29 3.930885 1_565
Rb0 Sn6 4.030159 1_565
Rb0 Sn0 4.043027 1_555
Rb0 Sn11 4.043027 1_554
Rb0 Sn1 4.063862 1_565
Rb0 Sn5 4.094350 1_555
Rb0 Sn9 4.094350 1_555
Rb0 Sn4 4.108539 1_555
Rb0 Sn10 4.140664 1_565
Rb0 Sn3 4.140664 1_564
Rb0 Sn2 4.145079 1_565
Rb0 Sn7 4.145079 1_565
Rb0 Sn8 4.162354 1_555
Rb1 Sn37 3.879254 1_555
Rb1 Sn34 3.879254 1_555
Rb1 Sn38 3.907723 1_555
Rb1 Sn33 3.907723 1_555
Rb1 Sn39 3.910764 1_455
Rb1 Sn32 3.910764 1_455
Rb1 Sn35 3.930885 1_455
Rb1 Sn36 3.930885 1_455
Rb1 Sn14 4.030159 1_455
Rb1 Sn16 4.043027 1_556
Rb1 Sn20 4.043027 1_555
Rb1 Sn21 4.063862 1_455
Rb1 Sn15 4.094350 1_555
Rb1 Sn23 4.094350 1_555
Rb1 Sn19 4.108539 1_555
Rb1 Sn18 4.140664 1_556
Rb1 Sn13 4.140664 1_555
Rb1 Sn22 4.145079 1_455
Rb1 Sn12 4.145079 1_455
Rb1 Sn17 4.162354 1_555
Rb2 Sn4 3.981257 1_555
Rb2 Sn19 3.981257 1_555
Rb2 Sn14 4.121352 1_455
Rb2 Sn6 4.121352 1_565
Rb2 Sn17 4.139563 1_565
Rb2 Sn8 4.139563 1_455
Rb3 Sn5 3.959860 1_555
Rb3 Sn9 3.959860 1_555
Rb3 Sn2 4.096727 1_555
Rb3 Sn7 4.096727 1_555
Rb3 Sn13 4.152866 1_655
Rb3 Sn18 4.152866 1_655
Rb4 Sn23 3.959860 1_555
Rb4 Sn15 3.959860 1_555
Rb4 Sn22 4.096727 1_555
Rb4 Sn12 4.096727 1_555
Rb4 Sn3 4.152866 1_555
Rb4 Sn10 4.152866 1_555
Rb5 Sn4 3.981257 1_555
Rb5 Sn19 3.981257 1_554
Rb5 Sn14 4.121352 1_454
Rb5 Sn6 4.121352 1_565
Rb5 Sn17 4.139563 1_564
Rb5 Sn8 4.139563 1_455
Rb6 Sn5 3.956887 1_555
Rb6 Sn9 3.956887 1_555
Rb6 Sn2 4.106642 1_555
Rb6 Sn7 4.106642 1_555
Rb6 Sn13 4.147550 1_555
Rb6 Sn18 4.147550 1_555
Rb7 Sn15 3.956887 1_555
Rb7 Sn23 3.956887 1_555
Rb7 Sn22 4.106642 1_555
Rb7 Sn12 4.106642 1_555
Rb7 Sn3 4.147550 1_565
Rb7 Sn10 4.147550 1_565
Sn0 Sn27 2.862564 1_555
Sn0 Sn24 2.867944 1_565
Sn0 Sn40 2.895746 1_565
Sn0 Sn10 2.912472 1_565
Sn1 Sn24 2.862150 1_555
Sn1 Sn29 2.862150 1_555
Sn1 Sn41 2.894984 1_655
Sn1 Sn8 2.899082 1_545
Sn2 Sn24 2.866839 1_555
Sn2 Sn31 2.866995 1_555
Sn2 Sn7 2.897474 1_555
Sn4 Sn6 2.917681 1_565
Sn5 Sn9 2.914901 1_555
Sn10 Sn28 2.870471 1_545
Sn10 Sn31 2.873777 1_555
Sn11 Sn30 2.862564 1_556
Sn11 Sn29 2.867944 1_566
Sn11 Sn40 2.895746 1_565
Sn11 Sn3 2.912472 1_565
Sn12 Sn35 2.866839 1_555
Sn12 Sn32 2.866995 1_555
Sn12 Sn22 2.897474 1_555
Sn13 Sn37 2.870471 1_555
Sn13 Sn32 2.873777 1_455
Sn13 Sn20 2.912472 1_555
Sn14 Sn32 2.867069 1_555
Sn14 Sn39 2.867069 1_555
Sn14 Sn40 2.900651 1_565
Sn14 Sn19 2.917681 1_655
Sn15 Sn34 2.866824 1_555
Sn15 Sn33 2.871855 1_555
Sn15 Sn23 2.914901 1_555
Sn16 Sn33 2.862564 1_554
Sn16 Sn36 2.867944 1_454
Sn16 Sn41 2.895746 1_555
Sn16 Sn18 2.912472 1_555
Sn17 Sn33 2.870236 1_555
Sn17 Sn38 2.870236 1_555
Sn17 Sn21 2.899082 1_455
Sn18 Sn34 2.870471 1_554
Sn18 Sn39 2.873777 1_454
Sn19 Sn34 2.869765 1_555
Sn19 Sn37 2.869765 1_555
Sn20 Sn38 2.862564 1_555
Sn20 Sn35 2.867944 1_455
Sn20 Sn41 2.895746 1_555
Sn21 Sn36 2.862150 1_555
Sn21 Sn35 2.862150 1_555
Sn21 Sn40 2.894984 1_555
Sn22 Sn36 2.866839 1_555
Sn22 Sn39 2.866995 1_555
Sn23 Sn37 2.866824 1_555
Sn23 Sn38 2.871855 1_555
Sn24 Sn35 2.834588 1_555
Sn25 Sn5 2.866824 1_555
Sn25 Sn4 2.869765 1_555
Sn25 Sn3 2.870471 1_564
Sn25 Sn34 2.879822 1_554
Sn26 Sn33 2.853471 1_554
Sn26 Sn7 2.866995 1_555
Sn26 Sn6 2.867069 1_555
Sn26 Sn3 2.873777 1_554
Sn27 Sn32 2.853471 1_555
Sn27 Sn8 2.870236 1_555
Sn27 Sn9 2.871855 1_555
Sn28 Sn9 2.866824 1_555
Sn28 Sn4 2.869765 1_555
Sn28 Sn37 2.879822 1_555
Sn29 Sn36 2.834588 1_554
Sn29 Sn7 2.866839 1_555
Sn30 Sn39 2.853471 1_554
Sn30 Sn8 2.870236 1_555
Sn30 Sn5 2.871855 1_555
Sn31 Sn38 2.853471 1_555
Sn31 Sn6 2.867069 1_555
Sn41 Sn6 2.900651 1_555
Hg0 Sn2 2.820582 1_555
Hg0 Sn12 2.820582 1_555
Hg0 Sn23 2.822323 1_555
Hg0 Sn9 2.822323 1_555
Hg1 Sn3 2.793139 1_565
Hg1 Sn10 2.793139 1_565
Hg1 Sn17 2.793979 1_565
Hg1 Sn19 2.796675 1_555
Hg2 Sn13 2.793139 1_555
Hg2 Sn18 2.793139 1_555
Hg2 Sn8 2.793979 1_455
Hg2 Sn4 2.796675 1_555
Hg3 Sn7 2.820582 1_555
Hg3 Sn22 2.820582 1_554
Hg3 Sn15 2.822323 1_554
Hg3 Sn5 2.822323 1_555
