# generated using pymatgen
data_K3Cu5O4
_symmetry_space_group_name_H-M   'P 1'
_cell_length_a   7.32420800
_cell_length_b   9.54726300
_cell_length_c   14.07141241
_cell_angle_alpha   73.09432066
_cell_angle_beta   90.00000000
_cell_angle_gamma   90.00000000
_symmetry_Int_Tables_number   1
_chemical_formula_structural   K3Cu5O4
_chemical_formula_sum   'K12 Cu20 O16'
_cell_volume   941.43751028
_cell_formula_units_Z   4
loop_
 _symmetry_equiv_pos_site_id
 _symmetry_equiv_pos_as_xyz
  1  'x, y, z'
loop_
 _atom_site_type_symbol
 _atom_site_label
 _atom_site_symmetry_multiplicity
 _atom_site_fract_x
 _atom_site_fract_y
 _atom_site_fract_z
 _atom_site_occupancy
  K  K0  1  0.41815400  0.67310500  0.39576300  1
  K  K1  1  0.91815400  0.32689500  0.10423700  1
  K  K2  1  0.58184600  0.32689500  0.60423700  1
  K  K3  1  0.08184600  0.67310500  0.89576300  1
  K  K4  1  0.72581100  0.73236600  0.08191600  1
  K  K5  1  0.22581100  0.26763400  0.41808400  1
  K  K6  1  0.27418900  0.26763400  0.91808400  1
  K  K7  1  0.77418900  0.73236600  0.58191600  1
  K  K8  1  0.83793100  0.09908200  0.90845900  1
  K  K9  1  0.16206900  0.90091800  0.09154100  1
  K  K10  1  0.33793100  0.90091800  0.59154100  1
  K  K11  1  0.66206900  0.09908200  0.40845900  1
  Cu  Cu0  1  0.05009300  0.30468500  0.62815600  1
  Cu  Cu1  1  0.55009300  0.69531500  0.87184400  1
  Cu  Cu2  1  0.94990700  0.69531500  0.37184400  1
  Cu  Cu3  1  0.44990700  0.30468500  0.12815600  1
  Cu  Cu4  1  0.30587100  0.55097100  0.11465100  1
  Cu  Cu5  1  0.80587100  0.44902900  0.38534900  1
  Cu  Cu6  1  0.69412900  0.44902900  0.88534900  1
  Cu  Cu7  1  0.33444300  0.06270500  0.25583800  1
  Cu  Cu8  1  0.83444300  0.93729500  0.24416200  1
  Cu  Cu9  1  0.66555700  0.93729500  0.74416200  1
  Cu  Cu10  1  0.16555700  0.06270500  0.75583800  1
  Cu  Cu11  1  0.55177900  0.43477800  0.26597900  1
  Cu  Cu12  1  0.05177900  0.56522200  0.23402100  1
  Cu  Cu13  1  0.44822100  0.56522200  0.73402100  1
  Cu  Cu14  1  0.94822100  0.43477800  0.76597900  1
  Cu  Cu15  1  0.58659500  0.06311800  0.11618800  1
  Cu  Cu16  1  0.08659500  0.93688200  0.38381200  1
  Cu  Cu17  1  0.41340500  0.93688200  0.88381200  1
  Cu  Cu18  1  0.91340500  0.06311800  0.61618800  1
  Cu  Cu19  1  0.19412900  0.55097100  0.61465100  1
  O  O0  1  0.56739600  0.38714100  0.40219200  1
  O  O1  1  0.45356300  0.51636300  0.87113900  1
  O  O2  1  0.04643700  0.51636300  0.37113900  1
  O  O3  1  0.95356300  0.48363700  0.62886100  1
  O  O4  1  0.54643700  0.48363700  0.12886100  1
  O  O5  1  0.15236200  0.13090400  0.61725800  1
  O  O6  1  0.65236200  0.86909600  0.88274200  1
  O  O7  1  0.84763800  0.86909600  0.38274200  1
  O  O8  1  0.34763800  0.13090400  0.11725800  1
  O  O9  1  0.67877000  0.00307900  0.60843100  1
  O  O10  1  0.17877000  0.99692100  0.89156900  1
  O  O11  1  0.32123000  0.99692100  0.39156900  1
  O  O12  1  0.06739600  0.61285900  0.09780800  1
  O  O13  1  0.43260400  0.61285900  0.59780800  1
  O  O14  1  0.93260400  0.38714100  0.90219200  1
  O  O15  1  0.82123000  0.00307900  0.10843100  1
loop_
_geom_bond_atom_site_label_1
_geom_bond_atom_site_label_2
_geom_bond_distance
_geom_bond_site_symmetry_2
K0 O13 2.733852 1_555
K0 O0 2.917740 1_555
K0 O11 3.155794 1_555
K0 O2 3.173829 1_555
K1 O14 2.733852 1_554
K1 O12 2.917740 1_655
K1 O15 3.155794 1_555
K1 O4 3.173829 1_555
K2 O0 2.733852 1_555
K2 O13 2.917740 1_555
K2 O9 3.155794 1_555
K2 O3 3.173829 1_555
K3 O12 2.733852 1_556
K3 O14 2.917740 1_455
K3 O10 3.155794 1_555
K3 O1 3.173829 1_555
K4 O4 2.624719 1_555
K4 O12 2.731779 1_655
K4 O6 2.778587 1_554
K4 O15 2.805077 1_565
K5 O2 2.624719 1_555
K5 O0 2.731779 1_555
K5 O5 2.778587 1_555
K5 O11 2.805077 1_545
K6 O1 2.624719 1_555
K6 O14 2.731779 1_455
K6 O8 2.778587 1_556
K6 O10 2.805077 1_545
K7 O3 2.624719 1_555
K7 O13 2.731779 1_555
K7 O7 2.778587 1_555
K7 O9 2.805077 1_565
K8 O6 2.694738 1_545
K8 O15 2.696855 1_556
K8 O10 2.715607 1_645
K8 O14 2.812650 1_555
K9 O8 2.694738 1_565
K9 O10 2.696855 1_554
K9 O15 2.715607 1_465
K9 O12 2.812650 1_555
K10 O5 2.694738 1_565
K10 O11 2.696855 1_555
K10 O9 2.715607 1_565
K10 O13 2.812650 1_555
K11 O7 2.694738 1_545
K11 O9 2.696855 1_555
K11 O11 2.715607 1_545
K11 O0 2.812650 1_555
Cu0 O3 1.851700 1_455
Cu0 O5 1.866888 1_555
Cu1 O1 1.851700 1_555
Cu1 O6 1.866888 1_555
Cu2 O2 1.851700 1_655
Cu2 O7 1.866888 1_555
Cu3 O4 1.851700 1_555
Cu3 O8 1.866888 1_555
Cu4 O12 1.837007 1_555
Cu4 O4 1.866272 1_555
Cu5 O0 1.837007 1_555
Cu5 O2 1.866272 1_655
Cu6 O14 1.837007 1_555
Cu6 O1 1.866272 1_555
Cu7 O11 1.831391 1_545
Cu7 O8 1.870137 1_555
Cu8 O15 1.831391 1_565
Cu8 O7 1.870137 1_555
Cu9 O9 1.831391 1_565
Cu9 O6 1.870137 1_555
Cu10 O10 1.831391 1_545
Cu10 O5 1.870137 1_555
Cu11 O0 1.840303 1_555
Cu11 O4 1.848899 1_555
Cu12 O12 1.840303 1_555
Cu12 O2 1.848899 1_555
Cu13 O13 1.840303 1_555
Cu13 O1 1.848899 1_555
Cu14 O14 1.840303 1_555
Cu14 O3 1.848899 1_555
Cu15 O15 1.824874 1_555
Cu15 O8 1.867571 1_555
Cu16 O11 1.824874 1_555
Cu16 O7 1.867571 1_455
Cu17 O10 1.824874 1_555
Cu17 O6 1.867571 1_555
Cu18 O9 1.824874 1_555
Cu18 O5 1.867571 1_655
Cu19 O13 1.837007 1_555
Cu19 O3 1.866272 1_455
