# generated using pymatgen
data_CrNi2N3
_symmetry_space_group_name_H-M   'P 1'
_cell_length_a   5.03396006
_cell_length_b   5.09140854
_cell_length_c   5.31227500
_cell_angle_alpha   90.00000000
_cell_angle_beta   90.00000000
_cell_angle_gamma   120.37823794
_symmetry_Int_Tables_number   1
_chemical_formula_structural   CrNi2N3
_chemical_formula_sum   'Cr2 Ni4 N6'
_cell_volume   117.46026692
_cell_formula_units_Z   2
loop_
 _symmetry_equiv_pos_site_id
 _symmetry_equiv_pos_as_xyz
  1  'x, y, z'
loop_
 _atom_site_type_symbol
 _atom_site_label
 _atom_site_symmetry_multiplicity
 _atom_site_fract_x
 _atom_site_fract_y
 _atom_site_fract_z
 _atom_site_occupancy
  Cr  Cr0  1  0.00000000  0.66499000  0.45481600  1
  Cr  Cr1  1  0.00000000  0.33501000  0.95481600  1
  Ni  Ni0  1  0.29518500  0.33179100  0.52480600  1
  Ni  Ni1  1  0.70481500  0.03660700  0.52480600  1
  Ni  Ni2  1  0.70481500  0.66820900  0.02480600  1
  Ni  Ni3  1  0.29518500  0.96339300  0.02480600  1
  N  N0  1  0.34251100  0.32934500  0.88167100  1
  N  N1  1  0.65748900  0.98683400  0.88167100  1
  N  N2  1  0.65748900  0.67065500  0.38167100  1
  N  N3  1  0.34251100  0.01316600  0.38167100  1
  N  N4  1  0.00000000  0.66094400  0.80423200  1
  N  N5  1  0.00000000  0.33905600  0.30423200  1
loop_
_geom_bond_atom_site_label_1
_geom_bond_atom_site_label_2
_geom_bond_distance
_geom_bond_site_symmetry_2
Cr0 N3 1.781834 1_565
Cr0 N2 1.781834 1_455
Cr0 N5 1.842207 1_555
Cr0 N4 1.856308 1_555
Cr1 N1 1.781834 1_445
Cr1 N0 1.781834 1_555
Cr1 N4 1.842207 1_555
Cr1 N5 1.856308 1_556
N0 Ni0 1.911501 1_555
N0 Ni3 1.912466 1_546
N0 Ni2 1.923174 1_556
N1 Ni1 1.911502 1_565
N1 Ni2 1.912462 1_556
N1 Ni3 1.923172 1_556
N2 Ni2 1.911501 1_555
N2 Ni1 1.912466 1_565
N2 Ni0 1.923174 1_555
N3 Ni3 1.911502 1_545
N3 Ni0 1.912462 1_555
N3 Ni1 1.923172 1_555
N4 Ni3 1.907353 1_556
N4 Ni2 1.907355 1_456
N5 Ni1 1.907353 1_455
N5 Ni0 1.907355 1_555
