# generated using pymatgen
data_SmH10C6S6N3O17F18
_symmetry_space_group_name_H-M   'P 1'
_cell_length_a   13.33983732
_cell_length_b   13.29489776
_cell_length_c   18.91311695
_cell_angle_alpha   90.00000000
_cell_angle_beta   90.00000000
_cell_angle_gamma   94.56582193
_symmetry_Int_Tables_number   1
_chemical_formula_structural   SmH10C6S6N3O17F18
_chemical_formula_sum   'Sm4 H40 C24 S24 N12 O68 F72'
_cell_volume   3343.63017837
_cell_formula_units_Z   4
loop_
 _symmetry_equiv_pos_site_id
 _symmetry_equiv_pos_as_xyz
  1  'x, y, z'
loop_
 _atom_site_type_symbol
 _atom_site_label
 _atom_site_symmetry_multiplicity
 _atom_site_fract_x
 _atom_site_fract_y
 _atom_site_fract_z
 _atom_site_occupancy
  Sm  Sm0  1  0.15080128  0.21234634  0.25313782  1
  Sm  Sm1  1  0.65080128  0.71234634  0.24686218  1
  Sm  Sm2  1  0.84919872  0.78765366  0.74686218  1
  Sm  Sm3  1  0.34919872  0.28765366  0.75313782  1
  H  H0  1  0.34846104  0.10264237  0.23172024  1
  H  H1  1  0.84846104  0.60264237  0.26827976  1
  H  H2  1  0.65153896  0.89735763  0.76827976  1
  H  H3  1  0.15153896  0.39735763  0.73172024  1
  H  H4  1  0.36455412  0.21548144  0.20259238  1
  H  H5  1  0.86455412  0.71548144  0.29740762  1
  H  H6  1  0.63544588  0.78451856  0.79740762  1
  H  H7  1  0.13544588  0.28451856  0.70259238  1
  H  H8  1  0.10395655  0.18689614  0.41438755  1
  H  H9  1  0.60395655  0.68689614  0.08561245  1
  H  H10  1  0.89604345  0.81310386  0.58561245  1
  H  H11  1  0.39604345  0.31310386  0.91438755  1
  H  H12  1  0.21254841  0.24099775  0.40783497  1
  H  H13  1  0.71254841  0.74099775  0.09216503  1
  H  H14  1  0.78745159  0.75900225  0.59216503  1
  H  H15  1  0.28745159  0.25900225  0.90783497  1
  H  H16  1  0.17716695  0.98445316  0.25204919  1
  H  H17  1  0.67716695  0.48445316  0.24795081  1
  H  H18  1  0.82283305  0.01554684  0.74795081  1
  H  H19  1  0.32283305  0.51554684  0.75204919  1
  H  H20  1  0.12509580  0.00679465  0.32615304  1
  H  H21  1  0.62509580  0.50679465  0.17384696  1
  H  H22  1  0.87490420  0.99320535  0.67384696  1
  H  H23  1  0.37490420  0.49320535  0.82615304  1
  H  H24  1  0.95813791  0.07575440  0.27389144  1
  H  H25  1  0.45813791  0.57575440  0.22610856  1
  H  H26  1  0.04186209  0.92424560  0.72610856  1
  H  H27  1  0.54186209  0.42424560  0.77389144  1
  H  H28  1  0.93000171  0.18397718  0.30016770  1
  H  H29  1  0.43000171  0.68397718  0.19983230  1
  H  H30  1  0.06999829  0.81602282  0.69983230  1
  H  H31  1  0.56999829  0.31602282  0.80016770  1
  H  H32  1  0.09317878  0.14368749  0.10178242  1
  H  H33  1  0.59317878  0.64368749  0.39821758  1
  H  H34  1  0.90682122  0.85631251  0.89821758  1
  H  H35  1  0.40682122  0.35631251  0.60178242  1
  H  H36  1  0.06732157  0.04785317  0.14786704  1
  H  H37  1  0.56732157  0.54785317  0.35213296  1
  H  H38  1  0.93267843  0.95214683  0.85213296  1
  H  H39  1  0.43267843  0.45214683  0.64786704  1
  C  C0  1  0.27869465  0.52686348  0.36559319  1
  C  C1  1  0.77869465  0.02686348  0.13440681  1
  C  C2  1  0.72130535  0.47313652  0.63440681  1
  C  C3  1  0.22130535  0.97313652  0.86559319  1
  C  C4  1  0.51720102  0.23601963  0.40385207  1
  C  C5  1  0.01720102  0.73601963  0.09614793  1
  C  C6  1  0.48279898  0.76398037  0.59614793  1
  C  C7  1  0.98279898  0.26398037  0.90385207  1
  C  C8  1  0.25946081  0.48559637  0.09170618  1
  C  C9  1  0.75946081  0.98559637  0.40829382  1
  C  C10  1  0.74053919  0.51440363  0.90829382  1
  C  C11  1  0.24053919  0.01440363  0.59170618  1
  C  C12  1  0.55929756  0.25314174  0.11447819  1
  C  C13  1  0.05929756  0.75314174  0.38552181  1
  C  C14  1  0.44070244  0.74685826  0.88552181  1
  C  C15  1  0.94070244  0.24685826  0.61447819  1
  C  C16  1  0.91297185  0.38584574  0.14495014  1
  C  C17  1  0.41297185  0.88584574  0.35504986  1
  C  C18  1  0.08702815  0.61415426  0.85504986  1
  C  C19  1  0.58702815  0.11415426  0.64495014  1
  C  C20  1  0.85525160  0.42535537  0.41716323  1
  C  C21  1  0.35525160  0.92535537  0.08283677  1
  C  C22  1  0.14474840  0.57464463  0.58283677  1
  C  C23  1  0.64474840  0.07464463  0.91716323  1
  S  S0  1  0.33900315  0.41415621  0.33043143  1
  S  S1  1  0.83900315  0.91415621  0.16956857  1
  S  S2  1  0.66099685  0.58584379  0.66956857  1
  S  S3  1  0.16099685  0.08584379  0.83043143  1
  S  S4  1  0.46106674  0.35025328  0.44091240  1
  S  S5  1  0.96106674  0.85025328  0.05908760  1
  S  S6  1  0.53893326  0.64974672  0.55908760  1
  S  S7  1  0.03893326  0.14974672  0.94091240  1
  S  S8  1  0.27710857  0.34644291  0.09136903  1
  S  S9  1  0.77710857  0.84644291  0.40863097  1
  S  S10  1  0.72289143  0.65355709  0.90863097  1
  S  S11  1  0.22289143  0.15355709  0.59136903  1
  S  S12  1  0.48821760  0.35743260  0.07719797  1
  S  S13  1  0.98821760  0.85743260  0.42280203  1
  S  S14  1  0.51178240  0.64256740  0.92280203  1
  S  S15  1  0.01178240  0.14256740  0.57719797  1
  S  S16  1  0.97950526  0.43044844  0.22842444  1
  S  S17  1  0.47950526  0.93044844  0.27157556  1
  S  S18  1  0.02049474  0.56955156  0.77157556  1
  S  S19  1  0.52049474  0.06955156  0.72842444  1
  S  S20  1  0.81983450  0.38075279  0.32552916  1
  S  S21  1  0.31983450  0.88075279  0.17447084  1
  S  S22  1  0.18016550  0.61924721  0.67447084  1
  S  S23  1  0.68016550  0.11924721  0.82552916  1
  N  N0  1  0.35645628  0.34781004  0.39762360  1
  N  N1  1  0.85645628  0.84781004  0.10237640  1
  N  N2  1  0.64354372  0.65218996  0.60237640  1
  N  N3  1  0.14354372  0.15218996  0.89762360  1
  N  N4  1  0.38617627  0.33685927  0.12246187  1
  N  N5  1  0.88617627  0.83685927  0.37753813  1
  N  N6  1  0.61382373  0.66314073  0.87753813  1
  N  N7  1  0.11382373  0.16314073  0.62246187  1
  N  N8  1  0.89017157  0.45810987  0.27847692  1
  N  N9  1  0.39017157  0.95810987  0.22152308  1
  N  N10  1  0.10982843  0.54189013  0.72152308  1
  N  N11  1  0.60982843  0.04189013  0.77847692  1
  O  O0  1  0.32170547  0.16970698  0.23244890  1
  O  O1  1  0.82170547  0.66970698  0.26755110  1
  O  O2  1  0.67829453  0.83029302  0.76755110  1
  O  O3  1  0.17829453  0.33029302  0.73244890  1
  O  O4  1  0.15327418  0.21659815  0.38023787  1
  O  O5  1  0.65327418  0.71659815  0.11976213  1
  O  O6  1  0.84672582  0.78340185  0.61976213  1
  O  O7  1  0.34672582  0.28340185  0.88023787  1
  O  O8  1  0.16099163  0.03822061  0.28528343  1
  O  O9  1  0.66099163  0.53822061  0.21471657  1
  O  O10  1  0.83900837  0.96177939  0.71471657  1
  O  O11  1  0.33900837  0.46177939  0.78528343  1
  O  O12  1  0.98596144  0.14162925  0.29083932  1
  O  O13  1  0.48596144  0.64162925  0.20916068  1
  O  O14  1  0.01403856  0.85837075  0.70916068  1
  O  O15  1  0.51403856  0.35837075  0.79083932  1
  O  O16  1  0.09634675  0.11780259  0.15062894  1
  O  O17  1  0.59634675  0.61780259  0.34937106  1
  O  O18  1  0.90365325  0.88219741  0.84937106  1
  O  O19  1  0.40365325  0.38219741  0.65062894  1
  O  O20  1  0.25799833  0.36210032  0.28916126  1
  O  O21  1  0.75799833  0.86210032  0.21083874  1
  O  O22  1  0.74200167  0.63789968  0.71083874  1
  O  O23  1  0.24200167  0.13789968  0.78916126  1
  O  O24  1  0.42629083  0.45567086  0.29150770  1
  O  O25  1  0.92629083  0.95567086  0.20849230  1
  O  O26  1  0.57370917  0.54432914  0.70849230  1
  O  O27  1  0.07370917  0.04432914  0.79150770  1
  O  O28  1  0.43826615  0.32351581  0.51335890  1
  O  O29  1  0.93826615  0.82351581  0.98664110  1
  O  O30  1  0.56173385  0.67648419  0.48664110  1
  O  O31  1  0.06173385  0.17648419  0.01335890  1
  O  O32  1  0.53180561  0.43530246  0.42572022  1
  O  O33  1  0.03180561  0.93530246  0.07427978  1
  O  O34  1  0.46819439  0.56469754  0.57427978  1
  O  O35  1  0.96819439  0.06469754  0.92572022  1
  O  O36  1  0.20569882  0.30549479  0.14482587  1
  O  O37  1  0.70569882  0.80549479  0.35517413  1
  O  O38  1  0.79430118  0.69450521  0.85517413  1
  O  O39  1  0.29430118  0.19450521  0.64482587  1
  O  O40  1  0.25956625  0.31497989  0.01932176  1
  O  O41  1  0.75956625  0.81497989  0.48067824  1
  O  O42  1  0.74043375  0.68502011  0.98067824  1
  O  O43  1  0.24043375  0.18502011  0.51932176  1
  O  O44  1  0.47922295  0.33903447  0.00210789  1
  O  O45  1  0.97922295  0.83903447  0.49789211  1
  O  O46  1  0.52077705  0.66096553  0.99789211  1
  O  O47  1  0.02077705  0.16096553  0.50210789  1
  O  O48  1  0.54543719  0.44844742  0.10071071  1
  O  O49  1  0.04543719  0.94844742  0.39928929  1
  O  O50  1  0.45456281  0.55155258  0.89928929  1
  O  O51  1  0.95456281  0.05155258  0.60071071  1
  O  O52  1  0.02988330  0.34171157  0.25127914  1
  O  O53  1  0.52988330  0.84171157  0.24872086  1
  O  O54  1  0.97011670  0.65828843  0.74872086  1
  O  O55  1  0.47011670  0.15828843  0.75127914  1
  O  O56  1  0.04037803  0.52056326  0.21100254  1
  O  O57  1  0.54037803  0.02056326  0.28899746  1
  O  O58  1  0.95962197  0.47943674  0.78899746  1
  O  O59  1  0.45962197  0.97943674  0.71100254  1
  O  O60  1  0.84160373  0.27599293  0.32343557  1
  O  O61  1  0.34160373  0.77599293  0.17656443  1
  O  O62  1  0.15839627  0.72400707  0.67656443  1
  O  O63  1  0.65839627  0.22400707  0.82343557  1
  O  O64  1  0.71653542  0.40453270  0.31634272  1
  O  O65  1  0.21653542  0.90453270  0.18365728  1
  O  O66  1  0.28346458  0.59546730  0.68365728  1
  O  O67  1  0.78346458  0.09546730  0.81634272  1
  F  F0  1  0.26109136  0.58905737  0.31130386  1
  F  F1  1  0.76109136  0.08905737  0.18869614  1
  F  F2  1  0.73890864  0.41094263  0.68869614  1
  F  F3  1  0.23890864  0.91094263  0.81130386  1
  F  F4  1  0.19085124  0.49833616  0.39789545  1
  F  F5  1  0.69085124  0.99833616  0.10210455  1
  F  F6  1  0.80914876  0.50166384  0.60210455  1
  F  F7  1  0.30914876  0.00166384  0.89789545  1
  F  F8  1  0.34167545  0.57618057  0.41201758  1
  F  F9  1  0.84167545  0.07618057  0.08798242  1
  F  F10  1  0.65832455  0.42381943  0.58798242  1
  F  F11  1  0.15832455  0.92381943  0.91201758  1
  F  F12  1  0.45710161  0.15196237  0.41752346  1
  F  F13  1  0.95710161  0.65196237  0.08247654  1
  F  F14  1  0.54289839  0.84803763  0.58247654  1
  F  F15  1  0.04289839  0.34803763  0.91752346  1
  F  F16  1  0.60778828  0.22742314  0.43404476  1
  F  F17  1  0.10778828  0.72742314  0.06595524  1
  F  F18  1  0.39221172  0.77257686  0.56595524  1
  F  F19  1  0.89221172  0.27257686  0.93404476  1
  F  F20  1  0.52862680  0.24692421  0.33339649  1
  F  F21  1  0.02862680  0.74692421  0.16660351  1
  F  F22  1  0.47137320  0.75307579  0.66660351  1
  F  F23  1  0.97137320  0.25307579  0.83339649  1
  F  F24  1  0.26845221  0.52389976  0.15765195  1
  F  F25  1  0.76845221  0.02389976  0.34234805  1
  F  F26  1  0.73154779  0.47610024  0.84234805  1
  F  F27  1  0.23154779  0.97610024  0.65765195  1
  F  F28  1  0.33037336  0.53303558  0.04989243  1
  F  F29  1  0.83037336  0.03303558  0.45010757  1
  F  F30  1  0.66962664  0.46696442  0.95010757  1
  F  F31  1  0.16962664  0.96696442  0.54989243  1
  F  F32  1  0.16765328  0.50037592  0.06609533  1
  F  F33  1  0.66765328  0.00037592  0.43390467  1
  F  F34  1  0.83234672  0.49962408  0.93390467  1
  F  F35  1  0.33234672  0.99962408  0.56609533  1
  F  F36  1  0.51124313  0.16195054  0.10064733  1
  F  F37  1  0.01124313  0.66195054  0.39935267  1
  F  F38  1  0.48875687  0.83804946  0.89935267  1
  F  F39  1  0.98875687  0.33804946  0.60064733  1
  F  F40  1  0.56962750  0.26384246  0.18527258  1
  F  F41  1  0.06962750  0.76384246  0.31472742  1
  F  F42  1  0.43037250  0.73615754  0.81472742  1
  F  F43  1  0.93037250  0.23615754  0.68527258  1
  F  F44  1  0.65130972  0.25835702  0.08463383  1
  F  F45  1  0.15130972  0.75835702  0.41536617  1
  F  F46  1  0.34869028  0.74164298  0.91536617  1
  F  F47  1  0.84869028  0.24164298  0.58463383  1
  F  F48  1  0.85104956  0.30258936  0.15903196  1
  F  F49  1  0.35104956  0.80258936  0.34096804  1
  F  F50  1  0.14895044  0.69741064  0.84096804  1
  F  F51  1  0.64895044  0.19741064  0.65903196  1
  F  F52  1  0.85801503  0.45846978  0.11957354  1
  F  F53  1  0.35801503  0.95846978  0.38042646  1
  F  F54  1  0.14198497  0.54153022  0.88042646  1
  F  F55  1  0.64198497  0.04153022  0.61957354  1
  F  F56  1  0.98121736  0.36303431  0.09632588  1
  F  F57  1  0.48121736  0.86303431  0.40367412  1
  F  F58  1  0.01878264  0.63696569  0.90367412  1
  F  F59  1  0.51878264  0.13696569  0.59632588  1
  F  F60  1  0.95460665  0.41824575  0.42770529  1
  F  F61  1  0.45460665  0.91824575  0.07229471  1
  F  F62  1  0.04539335  0.58175425  0.57229471  1
  F  F63  1  0.54539335  0.08175425  0.92770529  1
  F  F64  1  0.80245647  0.36705201  0.46442106  1
  F  F65  1  0.30245647  0.86705201  0.03557894  1
  F  F66  1  0.19754353  0.63294799  0.53557894  1
  F  F67  1  0.69754353  0.13294799  0.96442106  1
  F  F68  1  0.83408256  0.52215041  0.42586542  1
  F  F69  1  0.33408256  0.02215041  0.07413458  1
  F  F70  1  0.16591744  0.47784959  0.57413458  1
  F  F71  1  0.66591744  0.97784959  0.92586542  1
loop_
_geom_bond_atom_site_label_1
_geom_bond_atom_site_label_2
_geom_bond_distance
_geom_bond_site_symmetry_2
H0 O0 0.986521 1_555
H1 O1 0.986521 1_555
H2 O2 0.986521 1_555
H3 O3 0.986521 1_555
H4 O0 0.980079 1_555
H5 O1 0.980079 1_555
H6 O2 0.980079 1_555
H7 O3 0.980079 1_555
H8 O4 0.982114 1_555
H9 O5 0.982114 1_555
H10 O6 0.982114 1_555
H11 O7 0.982114 1_555
H12 O4 0.980837 1_555
H13 O5 0.980837 1_555
H14 O6 0.980837 1_555
H15 O7 0.980837 1_555
H16 O8 0.988531 1_565
H17 O9 0.988531 1_555
H18 O10 0.988531 1_545
H19 O11 0.988531 1_555
H20 O8 0.984625 1_555
H21 O9 0.984625 1_555
H22 O10 0.984625 1_555
H23 O11 0.984625 1_555
H24 O12 0.977638 1_555
H25 O13 0.977638 1_555
H26 O14 0.977638 1_555
H27 O15 0.977638 1_555
H28 O12 0.986040 1_555
H29 O13 0.986040 1_555
H30 O14 0.986040 1_555
H31 O15 0.986040 1_555
H32 O16 0.987933 1_555
H33 O17 0.987933 1_555
H34 O18 0.987933 1_555
H35 O19 0.987933 1_555
H36 O16 0.979879 1_555
H37 O17 0.979879 1_555
H38 O18 0.979879 1_555
H39 O19 0.979879 1_555
C0 F8 1.348700 1_555
C0 F4 1.348883 1_555
C0 F0 1.350568 1_555
C0 S0 1.877951 1_555
C1 F9 1.348700 1_555
C1 F5 1.348883 1_545
C1 F1 1.350568 1_555
C1 S1 1.877951 1_545
C2 F10 1.348700 1_555
C2 F6 1.348883 1_555
C2 F2 1.350568 1_555
C2 S2 1.877951 1_555
C3 F11 1.348700 1_555
C3 F7 1.348883 1_565
C3 F3 1.350568 1_555
C3 S3 1.877951 1_565
C4 F12 1.347533 1_555
C4 F20 1.347731 1_555
C4 F16 1.349597 1_555
C4 S4 1.881387 1_555
C5 F13 1.347533 1_455
C5 F21 1.347731 1_555
C5 F17 1.349597 1_555
C5 S5 1.881387 1_455
C6 F14 1.347533 1_555
C6 F22 1.347731 1_555
C6 F18 1.349597 1_555
C6 S6 1.881387 1_555
C7 F15 1.347533 1_655
C7 F23 1.347731 1_555
C7 F19 1.349597 1_555
C7 S7 1.881387 1_655
C8 F32 1.345894 1_555
C8 F24 1.348924 1_555
C8 F28 1.350203 1_555
C8 S8 1.883459 1_555
C9 F33 1.345894 1_565
C9 F25 1.348924 1_565
C9 F29 1.350203 1_565
C9 S9 1.883459 1_555
C10 F34 1.345894 1_555
C10 F26 1.348924 1_555
C10 F30 1.350203 1_555
C10 S10 1.883459 1_555
C11 F35 1.345894 1_545
C11 F27 1.348924 1_545
C11 F31 1.350203 1_545
C11 S11 1.883459 1_555
C12 F44 1.347753 1_555
C12 F36 1.351104 1_555
C12 F40 1.352359 1_555
C12 S12 1.878301 1_555
C13 F45 1.347753 1_555
C13 F37 1.351104 1_555
C13 F41 1.352359 1_555
C13 S13 1.878301 1_455
C14 F46 1.347753 1_555
C14 F38 1.351104 1_555
C14 F42 1.352359 1_555
C14 S14 1.878301 1_555
C15 F47 1.347753 1_555
C15 F39 1.351104 1_555
C15 F43 1.352359 1_555
C15 S15 1.878301 1_655
C16 F56 1.345535 1_555
C16 F52 1.346385 1_555
C16 F48 1.353843 1_555
C16 S16 1.883629 1_555
C17 F57 1.345535 1_555
C17 F53 1.346385 1_555
C17 F49 1.353843 1_555
C17 S17 1.883629 1_555
C18 F58 1.345535 1_555
C18 F54 1.346385 1_555
C18 F50 1.353843 1_555
C18 S18 1.883629 1_555
C19 F59 1.345535 1_555
C19 F55 1.346385 1_555
C19 F51 1.353843 1_555
C19 S19 1.883629 1_555
C20 F64 1.344915 1_555
C20 F68 1.349352 1_555
C20 F60 1.351024 1_555
C20 S20 1.879849 1_555
C21 F65 1.344915 1_555
C21 F69 1.349352 1_565
C21 F61 1.351024 1_555
C21 S21 1.879849 1_555
C22 F66 1.344915 1_555
C22 F70 1.349352 1_555
C22 F62 1.351024 1_555
C22 S22 1.879849 1_555
C23 F67 1.344915 1_555
C23 F71 1.349352 1_545
C23 F63 1.351024 1_555
C23 S23 1.879849 1_555
N0 S0 1.574772 1_555
N0 S4 1.616024 1_555
N1 S1 1.574772 1_555
N1 S5 1.616024 1_555
N2 S2 1.574772 1_555
N2 S6 1.616024 1_555
N3 S3 1.574772 1_555
N3 S7 1.616024 1_555
N4 S8 1.583803 1_555
N4 S12 1.612860 1_555
N5 S9 1.583803 1_555
N5 S13 1.612860 1_555
N6 S10 1.583803 1_555
N6 S14 1.612860 1_555
N7 S11 1.583803 1_555
N7 S15 1.612860 1_555
N8 S16 1.587861 1_555
N8 S20 1.605115 1_555
N9 S17 1.587861 1_555
N9 S21 1.605115 1_555
N10 S18 1.587861 1_555
N10 S22 1.605115 1_555
N11 S19 1.587861 1_555
N11 S23 1.605115 1_555
O0 Sm0 2.424433 1_555
O1 Sm1 2.424433 1_555
O2 Sm2 2.424433 1_555
O3 Sm3 2.424433 1_555
O4 Sm0 2.404687 1_555
O5 Sm1 2.404687 1_555
O6 Sm2 2.404687 1_555
O7 Sm3 2.404687 1_555
O8 Sm0 2.407771 1_555
O9 Sm1 2.407771 1_555
O10 Sm2 2.407771 1_555
O11 Sm3 2.407771 1_555
O12 Sm0 2.428694 1_655
O13 Sm1 2.428694 1_555
O14 Sm2 2.428694 1_455
O15 Sm3 2.428694 1_555
O16 Sm0 2.391868 1_555
O17 Sm1 2.391868 1_555
O18 Sm2 2.391868 1_555
O19 Sm3 2.391868 1_555
O20 S0 1.461793 1_555
O20 Sm0 2.453513 1_555
O21 S1 1.461793 1_555
O21 Sm1 2.453513 1_555
O22 S2 1.461793 1_555
O22 Sm2 2.453513 1_555
O23 S3 1.461793 1_555
O23 Sm3 2.453513 1_555
O24 S0 1.449169 1_555
O25 S1 1.449169 1_555
O26 S2 1.449169 1_555
O27 S3 1.449169 1_555
O28 S4 1.441900 1_555
O29 S5 1.441900 1_556
O30 S6 1.441900 1_555
O31 S7 1.441900 1_554
O32 S4 1.442802 1_555
O33 S5 1.442802 1_455
O34 S6 1.442802 1_555
O35 S7 1.442802 1_655
O36 S8 1.464048 1_555
O36 Sm0 2.474260 1_555
O37 S9 1.464048 1_555
O37 Sm1 2.474260 1_555
O38 S10 1.464048 1_555
O38 Sm2 2.474260 1_555
O39 S11 1.464048 1_555
O39 Sm3 2.474260 1_555
O40 S8 1.439074 1_555
O41 S9 1.439074 1_555
O42 S10 1.439074 1_555
O43 S11 1.439074 1_555
O44 S12 1.444468 1_555
O45 S13 1.444468 1_555
O46 S14 1.444468 1_555
O47 S15 1.444468 1_555
O48 S12 1.448280 1_555
O49 S13 1.448280 1_455
O50 S14 1.448280 1_555
O51 S15 1.448280 1_655
O52 S16 1.468504 1_455
O52 Sm0 2.450065 1_555
O53 S17 1.468504 1_555
O53 Sm1 2.450065 1_555
O54 S18 1.468504 1_655
O54 Sm2 2.450065 1_555
O55 S19 1.468504 1_555
O55 Sm3 2.450065 1_555
O56 S16 1.431239 1_455
O57 S17 1.431239 1_545
O58 S18 1.431239 1_655
O59 S19 1.431239 1_565
O60 S20 1.445720 1_555
O61 S21 1.445720 1_555
O62 S22 1.445720 1_555
O63 S23 1.445720 1_555
O64 S20 1.448573 1_555
O65 S21 1.448573 1_555
O66 S22 1.448573 1_555
O67 S23 1.448573 1_555
