# generated using pymatgen
data_K2InAsBr6
_symmetry_space_group_name_H-M   'P 1'
_cell_length_a   8.02967126
_cell_length_b   8.02967126
_cell_length_c   8.02967126
_cell_angle_alpha   60.00000000
_cell_angle_beta   60.00000000
_cell_angle_gamma   60.00000000
_symmetry_Int_Tables_number   1
_chemical_formula_structural   K2InAsBr6
_chemical_formula_sum   'K2 In1 As1 Br6'
_cell_volume   366.08193514
_cell_formula_units_Z   1
loop_
 _symmetry_equiv_pos_site_id
 _symmetry_equiv_pos_as_xyz
  1  'x, y, z'
loop_
 _atom_site_type_symbol
 _atom_site_label
 _atom_site_symmetry_multiplicity
 _atom_site_fract_x
 _atom_site_fract_y
 _atom_site_fract_z
 _atom_site_occupancy
  K  K0  1  0.75000000  0.75000000  0.75000000  1
  K  K1  1  0.25000000  0.25000000  0.25000000  1
  In  In0  1  0.50000000  0.50000000  0.50000000  1
  As  As0  1  0.00000000  0.00000000  0.00000000  1
  Br  Br0  1  0.76320100  0.23679900  0.23679900  1
  Br  Br1  1  0.23679900  0.23679900  0.76320100  1
  Br  Br2  1  0.23679900  0.76320100  0.76320100  1
  Br  Br3  1  0.23679900  0.76320100  0.23679900  1
  Br  Br4  1  0.76320100  0.23679900  0.76320100  1
  Br  Br5  1  0.76320100  0.76320100  0.23679900  1
loop_
_geom_bond_atom_site_label_1
_geom_bond_atom_site_label_2
_geom_bond_distance
_geom_bond_site_symmetry_2
As0 Br3 2.689011 1_545
As0 Br1 2.689011 1_554
As0 Br0 2.689011 1_455
As0 Br4 2.689011 1_454
As0 Br2 2.689011 1_544
As0 Br5 2.689011 1_445
Br0 In0 2.988824 1_555
Br1 In0 2.988824 1_555
Br2 In0 2.988824 1_555
Br3 In0 2.988824 1_555
Br4 In0 2.988824 1_555
Br5 In0 2.988824 1_555
