# generated using pymatgen
data_KTbSnWO6
_symmetry_space_group_name_H-M   'P 1'
_cell_length_a   5.94159276
_cell_length_b   5.94159276
_cell_length_c   5.94159276
_cell_angle_alpha   60.00000000
_cell_angle_beta   60.00000000
_cell_angle_gamma   60.00000000
_symmetry_Int_Tables_number   1
_chemical_formula_structural   KTbSnWO6
_chemical_formula_sum   'K1 Tb1 Sn1 W1 O6'
_cell_volume   148.31792698
_cell_formula_units_Z   1
loop_
 _symmetry_equiv_pos_site_id
 _symmetry_equiv_pos_as_xyz
  1  'x, y, z'
loop_
 _atom_site_type_symbol
 _atom_site_label
 _atom_site_symmetry_multiplicity
 _atom_site_fract_x
 _atom_site_fract_y
 _atom_site_fract_z
 _atom_site_occupancy
  K  K0  1  0.25000000  0.25000000  0.25000000  1
  Tb  Tb0  1  -0.00000000  0.00000000  0.00000000  1
  Sn  Sn0  1  0.75000000  0.75000000  0.75000000  1
  W  W0  1  0.50000000  0.50000000  0.50000000  1
  O  O0  1  0.73220701  0.26779299  0.26779299  1
  O  O1  1  0.26779299  0.73220701  0.73220701  1
  O  O2  1  0.73220701  0.26779299  0.73220701  1
  O  O3  1  0.26779299  0.73220701  0.26779299  1
  O  O4  1  0.73220701  0.73220701  0.26779299  1
  O  O5  1  0.26779299  0.26779299  0.73220701  1
loop_
_geom_bond_atom_site_label_1
_geom_bond_atom_site_label_2
_geom_bond_distance
_geom_bond_site_symmetry_2
K0 O2 2.974556 1_455
K0 O1 2.974556 1_554
K0 O5 2.974556 1_555
K0 O5 2.974556 1_554
K0 O3 2.974556 1_545
K0 O2 2.974556 1_554
K0 O4 2.974556 1_545
K0 O3 2.974556 1_555
K0 O1 2.974556 1_545
K0 O0 2.974556 1_455
K0 O0 2.974556 1_555
K0 O4 2.974556 1_455
O0 W0 1.951161 1_555
O0 Tb0 2.250179 1_655
O1 W0 1.951161 1_555
O1 Tb0 2.250179 1_566
O2 W0 1.951161 1_555
O2 Tb0 2.250179 1_656
O3 W0 1.951161 1_555
O3 Tb0 2.250179 1_565
O4 W0 1.951161 1_555
O4 Tb0 2.250179 1_665
O5 W0 1.951161 1_555
O5 Tb0 2.250179 1_556
