# generated using pymatgen
data_Mg2VCo3S8
_symmetry_space_group_name_H-M   'P 1'
_cell_length_a   7.04456468
_cell_length_b   7.00003615
_cell_length_c   7.04139299
_cell_angle_alpha   59.90071751
_cell_angle_beta   59.97707219
_cell_angle_gamma   59.89439096
_symmetry_Int_Tables_number   1
_chemical_formula_structural   Mg2VCo3S8
_chemical_formula_sum   'Mg2 V1 Co3 S8'
_cell_volume   245.10305332
_cell_formula_units_Z   1
loop_
 _symmetry_equiv_pos_site_id
 _symmetry_equiv_pos_as_xyz
  1  'x, y, z'
loop_
 _atom_site_type_symbol
 _atom_site_label
 _atom_site_symmetry_multiplicity
 _atom_site_fract_x
 _atom_site_fract_y
 _atom_site_fract_z
 _atom_site_occupancy
  Mg  Mg0  1  0.87561300  0.87344800  0.87555900  1
  Mg  Mg1  1  0.12438800  0.12655100  0.12444200  1
  V  V0  1  0.49999700  0.99999800  0.50000500  1
  Co  Co0  1  0.50000200  0.50000400  0.49999500  1
  Co  Co1  1  0.49999900  0.49999800  0.99999900  1
  Co  Co2  1  0.00000100  0.49999800  0.50000200  1
  S  S0  1  0.74113200  0.72043900  0.74061700  1
  S  S1  1  0.25902700  0.27951600  0.70218900  1
  S  S2  1  0.26915500  0.69301700  0.26893200  1
  S  S3  1  0.70218200  0.27978300  0.25915600  1
  S  S4  1  0.73084400  0.30698300  0.73106200  1
  S  S5  1  0.29781600  0.72021600  0.74084300  1
  S  S6  1  0.25886600  0.27955600  0.25938800  1
  S  S7  1  0.74098100  0.72048900  0.29781100  1
loop_
_geom_bond_atom_site_label_1
_geom_bond_atom_site_label_2
_geom_bond_distance
_geom_bond_site_symmetry_2
Mg0 S0 2.426312 1_555
Mg0 S7 2.426921 1_556
Mg0 S5 2.427603 1_655
Mg0 S4 2.474183 1_565
Mg1 S6 2.426295 1_555
Mg1 S1 2.426928 1_554
Mg1 S3 2.427620 1_455
Mg1 S2 2.474177 1_545
Co0 S5 2.298539 1_555
Co0 S3 2.298540 1_555
Co0 S1 2.301467 1_555
Co0 S7 2.301480 1_555
Co0 S4 2.314262 1_555
Co0 S2 2.314274 1_555
Co1 S0 2.302302 1_555
Co1 S6 2.302311 1_556
Co1 S5 2.304716 1_555
Co1 S3 2.304722 1_556
Co1 S2 2.310087 1_556
Co1 S4 2.310090 1_555
Co2 S6 2.298841 1_555
Co2 S0 2.298844 1_455
Co2 S7 2.304117 1_455
Co2 S1 2.304133 1_555
Co2 S4 2.312115 1_455
Co2 S2 2.312117 1_555
S0 V0 2.409416 1_555
S1 V0 2.404235 1_545
S3 V0 2.406310 1_545
S5 V0 2.406276 1_555
S6 V0 2.409420 1_545
S7 V0 2.404233 1_555
