# generated using pymatgen
data_Hf2Co7
_symmetry_space_group_name_H-M   'P 1'
_cell_length_a   4.66883152
_cell_length_b   4.73313038
_cell_length_c   6.26332539
_cell_angle_alpha   82.16818733
_cell_angle_beta   73.96142306
_cell_angle_gamma   60.44836794
_symmetry_Int_Tables_number   1
_chemical_formula_structural   Hf2Co7
_chemical_formula_sum   'Hf2 Co7'
_cell_volume   115.71627575
_cell_formula_units_Z   1
loop_
 _symmetry_equiv_pos_site_id
 _symmetry_equiv_pos_as_xyz
  1  'x, y, z'
loop_
 _atom_site_type_symbol
 _atom_site_label
 _atom_site_symmetry_multiplicity
 _atom_site_fract_x
 _atom_site_fract_y
 _atom_site_fract_z
 _atom_site_occupancy
  Hf  Hf0  1  0.10035000  0.00000000  0.23185800  1
  Hf  Hf1  1  0.89965000  0.00000000  0.76814200  1
  Co  Co0  1  0.50000000  0.50000000  0.50000000  1
  Co  Co1  1  0.00000000  0.50000000  0.50000000  1
  Co  Co2  1  0.54490000  0.66394700  0.84506400  1
  Co  Co3  1  0.20884700  0.33605300  0.84506400  1
  Co  Co4  1  0.45510000  0.33605300  0.15493600  1
  Co  Co5  1  0.79115300  0.66394700  0.15493600  1
  Co  Co6  1  0.50000000  0.00000000  0.50000000  1
loop_
_geom_bond_atom_site_label_1
_geom_bond_atom_site_label_2
_geom_bond_distance
_geom_bond_site_symmetry_2
Co0 Co1 2.334416 1_555
Co0 Co1 2.334416 1_655
Co0 Co6 2.366565 1_555
Co0 Co6 2.366565 1_565
Co0 Co3 2.465972 1_555
Co0 Co5 2.465972 1_555
Co0 Co2 2.486957 1_555
Co0 Co4 2.486957 1_555
Co0 Hf1 2.862763 1_555
Co0 Hf0 2.862763 1_565
Co0 Hf1 2.866436 1_465
Co0 Hf0 2.866436 1_655
Co1 Co6 2.366565 1_465
Co1 Co6 2.366565 1_555
Co1 Co2 2.465972 1_455
Co1 Co4 2.465972 1_555
Co1 Co3 2.486957 1_555
Co1 Co5 2.486957 1_455
Co1 Hf1 2.862763 1_465
Co1 Hf0 2.862763 1_555
Co1 Hf1 2.866437 1_455
Co1 Hf0 2.866437 1_565
Co2 Co4 2.392176 1_556
Co2 Co6 2.495891 1_565
Co2 Co5 2.514291 1_556
Co2 Co3 2.696700 1_655
Co2 Co3 2.696700 1_555
Co2 Hf1 2.730231 1_565
Co2 Co3 2.767333 1_565
Co2 Hf1 2.772805 1_555
Co2 Hf1 2.775632 1_465
Co2 Hf0 2.778871 1_566
Co3 Co5 2.392176 1_456
Co3 Co6 2.495891 1_555
Co3 Co4 2.514291 1_556
Co3 Hf1 2.730230 1_555
Co3 Hf1 2.772804 1_465
Co3 Hf1 2.775633 1_455
Co3 Hf0 2.778871 1_556
Co4 Co6 2.495891 1_555
Co4 Co5 2.696700 1_455
Co4 Co5 2.696700 1_555
Co4 Hf0 2.730231 1_555
Co4 Co5 2.767333 1_545
Co4 Hf0 2.772805 1_565
Co4 Hf0 2.775632 1_655
Co4 Hf1 2.778871 1_554
Co5 Co6 2.495891 1_565
Co5 Hf0 2.730230 1_565
Co5 Hf0 2.772804 1_655
Co5 Hf0 2.775633 1_665
Co5 Hf1 2.778871 1_564
Co6 Hf1 2.834387 1_555
Co6 Hf0 2.834387 1_555
Co6 Hf1 2.841804 1_455
Co6 Hf0 2.841804 1_655
