# generated using pymatgen
data_Ba4CaZr5O15
_symmetry_space_group_name_H-M   'P 1'
_cell_length_a   15.26298044
_cell_length_b   15.26298044
_cell_length_c   4.23365400
_cell_angle_alpha   90.00000000
_cell_angle_beta   90.00000000
_cell_angle_gamma   157.37475048
_symmetry_Int_Tables_number   1
_chemical_formula_structural   Ba4CaZr5O15
_chemical_formula_sum   'Ba4 Ca1 Zr5 O15'
_cell_volume   379.41862925
_cell_formula_units_Z   1
loop_
 _symmetry_equiv_pos_site_id
 _symmetry_equiv_pos_as_xyz
  1  'x, y, z'
loop_
 _atom_site_type_symbol
 _atom_site_label
 _atom_site_symmetry_multiplicity
 _atom_site_fract_x
 _atom_site_fract_y
 _atom_site_fract_z
 _atom_site_occupancy
  Ba  Ba0  1  0.90016400  0.09983600  0.50000000  1
  Ba  Ba1  1  0.30003800  0.69996200  0.50000000  1
  Ba  Ba2  1  0.69996200  0.30003800  0.50000000  1
  Ba  Ba3  1  0.09983600  0.90016400  0.50000000  1
  Ca  Ca0  1  0.50000000  0.50000000  0.50000000  1
  Zr  Zr0  1  0.19993700  0.80006300  0.00000000  1
  Zr  Zr1  1  0.59937100  0.40062900  0.00000000  1
  Zr  Zr2  1  0.00000000  0.00000000  0.00000000  1
  Zr  Zr3  1  0.40062900  0.59937100  0.00000000  1
  Zr  Zr4  1  0.80006300  0.19993700  0.00000000  1
  O  O0  1  0.89970500  0.59995700  0.00000000  1
  O  O1  1  0.30180700  0.20308900  0.00000000  1
  O  O2  1  0.69819300  0.79691100  0.00000000  1
  O  O3  1  0.10029500  0.40004300  0.00000000  1
  O  O4  1  0.50000000  0.00000000  0.00000000  1
  O  O5  1  0.40004300  0.10029500  0.00000000  1
  O  O6  1  0.79691100  0.69819300  0.00000000  1
  O  O7  1  0.20308900  0.30180700  0.00000000  1
  O  O8  1  0.59995700  0.89970500  0.00000000  1
  O  O9  1  0.00000000  0.50000000  0.00000000  1
  O  O10  1  0.20000800  0.79999200  0.50000000  1
  O  O11  1  0.59929200  0.40070800  0.50000000  1
  O  O12  1  0.00000000  0.00000000  0.50000000  1
  O  O13  1  0.40070800  0.59929200  0.50000000  1
  O  O14  1  0.79999200  0.20000800  0.50000000  1
loop_
_geom_bond_atom_site_label_1
_geom_bond_atom_site_label_2
_geom_bond_distance
_geom_bond_site_symmetry_2
Ba0 O12 2.988380 1_655
Ba0 O13 2.994064 1_655
Ba0 O13 2.994064 1_545
Ba0 O3 2.994725 1_655
Ba0 O3 2.994725 1_656
Ba0 O8 2.994725 1_545
Ba0 O8 2.994725 1_546
Ba0 O14 2.998437 1_555
Ba0 O7 3.008153 1_655
Ba0 O7 3.008153 1_656
Ba0 O2 3.008153 1_545
Ba0 O2 3.008153 1_546
Ba1 O14 2.994020 1_565
Ba1 O14 2.994020 1_455
Ba1 O10 2.994187 1_555
Ba1 O9 2.994219 1_556
Ba1 O9 2.994219 1_555
Ba1 O4 2.994219 1_565
Ba1 O4 2.994219 1_566
Ba1 O3 2.994462 1_556
Ba1 O3 2.994462 1_555
Ba1 O8 2.994462 1_555
Ba1 O8 2.994462 1_556
Ba1 O13 3.013344 1_555
Ba2 O10 2.994020 1_545
Ba2 O10 2.994020 1_655
Ba2 O14 2.994187 1_555
Ba2 O4 2.994219 1_555
Ba2 O4 2.994219 1_556
Ba2 O9 2.994219 1_655
Ba2 O9 2.994219 1_656
Ba2 O5 2.994462 1_555
Ba2 O5 2.994462 1_556
Ba2 O0 2.994462 1_556
Ba2 O0 2.994462 1_555
Ba2 O11 3.013344 1_555
Ba3 O12 2.988380 1_565
Ba3 O11 2.994064 1_565
Ba3 O11 2.994064 1_455
Ba3 O5 2.994725 1_566
Ba3 O0 2.994725 1_455
Ba3 O0 2.994725 1_456
Ba3 O5 2.994725 1_565
Ba3 O10 2.998437 1_555
Ba3 O1 3.008153 1_565
Ba3 O1 3.008153 1_566
Ba3 O6 3.008153 1_455
Ba3 O6 3.008153 1_456
Ca0 O11 2.972096 1_555
Ca0 O13 2.972096 1_555
Ca0 O2 2.976777 1_555
Ca0 O2 2.976777 1_556
Ca0 O6 2.976777 1_556
Ca0 O6 2.976777 1_555
Ca0 O7 2.976777 1_555
Ca0 O7 2.976777 1_556
Ca0 O1 2.976777 1_555
Ca0 O1 2.976777 1_556
Ca0 O12 2.994020 1_665
Ca0 O12 2.994020 1_555
O0 Zr0 2.118882 1_655
O0 Zr1 2.126793 1_555
O1 Zr1 2.106747 1_555
O1 Zr2 2.113770 1_555
O2 Zr3 2.106747 1_555
O2 Zr2 2.113770 1_665
O3 Zr4 2.118882 1_455
O3 Zr3 2.126793 1_555
O4 Zr4 2.118167 1_555
O4 Zr0 2.118167 1_545
O5 Zr0 2.118882 1_545
O5 Zr1 2.126793 1_555
O6 Zr1 2.106747 1_555
O6 Zr2 2.113770 1_665
O7 Zr3 2.106747 1_555
O7 Zr2 2.113770 1_555
O8 Zr4 2.118882 1_565
O8 Zr3 2.126793 1_555
O9 Zr0 2.118167 1_555
O9 Zr4 2.118167 1_455
O10 Zr0 2.116828 1_556
O10 Zr0 2.116828 1_555
O11 Zr1 2.116828 1_555
O11 Zr1 2.116828 1_556
O12 Zr2 2.116827 1_555
O12 Zr2 2.116827 1_556
O13 Zr3 2.116828 1_556
O13 Zr3 2.116828 1_555
O14 Zr4 2.116828 1_556
O14 Zr4 2.116828 1_555
