# generated using pymatgen
data_Ba3CoN3
_symmetry_space_group_name_H-M   'P 1'
_cell_length_a   8.10691053
_cell_length_b   8.11015324
_cell_length_c   5.63252700
_cell_angle_alpha   90.00000000
_cell_angle_beta   90.00000000
_cell_angle_gamma   120.02822004
_symmetry_Int_Tables_number   1
_chemical_formula_structural   Ba3CoN3
_chemical_formula_sum   'Ba6 Co2 N6'
_cell_volume   320.62308321
_cell_formula_units_Z   2
loop_
 _symmetry_equiv_pos_site_id
 _symmetry_equiv_pos_as_xyz
  1  'x, y, z'
loop_
 _atom_site_type_symbol
 _atom_site_label
 _atom_site_symmetry_multiplicity
 _atom_site_fract_x
 _atom_site_fract_y
 _atom_site_fract_z
 _atom_site_occupancy
  Ba  Ba0  1  0.91828500  0.63600300  0.25000000  1
  Ba  Ba1  1  0.71794600  0.08183100  0.25000000  1
  Ba  Ba2  1  0.36389900  0.28245300  0.25000000  1
  Ba  Ba3  1  0.08171500  0.36399700  0.75000000  1
  Ba  Ba4  1  0.28205400  0.91816900  0.75000000  1
  Ba  Ba5  1  0.63610100  0.71754700  0.75000000  1
  Co  Co0  1  0.66665600  0.33308900  0.75000000  1
  Co  Co1  1  0.33334400  0.66691100  0.25000000  1
  N  N0  1  0.87182700  0.55888400  0.75000000  1
  N  N1  1  0.68682700  0.12812500  0.75000000  1
  N  N2  1  0.44144800  0.31344400  0.75000000  1
  N  N3  1  0.12817300  0.44111600  0.25000000  1
  N  N4  1  0.31317300  0.87187500  0.25000000  1
  N  N5  1  0.55855200  0.68655600  0.25000000  1
loop_
_geom_bond_atom_site_label_1
_geom_bond_atom_site_label_2
_geom_bond_distance
_geom_bond_site_symmetry_2
Ba0 N4 2.789023 1_655
Ba0 N3 2.843435 1_655
Ba0 N0 2.868556 1_555
Ba0 N0 2.868556 1_554
Ba0 N5 3.141612 1_555
Ba1 N5 2.792950 1_545
Ba1 N4 2.841665 1_545
Ba1 N1 2.868928 1_554
Ba1 N1 2.868928 1_555
Ba1 N3 3.138768 1_655
Ba2 N3 2.787277 1_555
Ba2 N5 2.838128 1_555
Ba2 N2 2.869078 1_554
Ba2 N2 2.869078 1_555
Ba2 N4 3.144282 1_545
Ba3 N1 2.789023 1_455
Ba3 N0 2.843435 1_455
Ba3 N3 2.868556 1_555
Ba3 N3 2.868556 1_556
Ba3 N2 3.141612 1_555
Ba4 N2 2.792950 1_565
Ba4 N1 2.841665 1_565
Ba4 N4 2.868928 1_556
Ba4 N4 2.868928 1_555
Ba4 N0 3.138768 1_455
Ba5 N0 2.787277 1_555
Ba5 N2 2.838128 1_555
Ba5 N5 2.869078 1_556
Ba5 N5 2.869078 1_555
Ba5 N1 3.144282 1_565
Co0 N1 1.749858 1_555
Co0 N2 1.751451 1_555
Co0 N0 1.752568 1_555
Co1 N4 1.749858 1_555
Co1 N5 1.751451 1_555
Co1 N3 1.752568 1_555
