# generated using pymatgen
data_TcC4NO4
_symmetry_space_group_name_H-M   'P 1'
_cell_length_a   6.54659400
_cell_length_b   9.90162100
_cell_length_c   10.85381800
_cell_angle_alpha   90.00000000
_cell_angle_beta   90.00000000
_cell_angle_gamma   90.00000000
_symmetry_Int_Tables_number   1
_chemical_formula_structural   TcC4NO4
_chemical_formula_sum   'Tc4 C16 N4 O16'
_cell_volume   703.56502501
_cell_formula_units_Z   4
loop_
 _symmetry_equiv_pos_site_id
 _symmetry_equiv_pos_as_xyz
  1  'x, y, z'
loop_
 _atom_site_type_symbol
 _atom_site_label
 _atom_site_symmetry_multiplicity
 _atom_site_fract_x
 _atom_site_fract_y
 _atom_site_fract_z
 _atom_site_occupancy
  Tc  Tc0  1  0.44696800  0.22454300  0.76784000  1
  Tc  Tc1  1  0.44696800  0.77545700  0.23216000  1
  Tc  Tc2  1  0.55303200  0.72454300  0.73216000  1
  Tc  Tc3  1  0.55303200  0.27545700  0.26784000  1
  C  C0  1  0.01818900  0.88749300  0.56587900  1
  C  C1  1  0.01818900  0.11250700  0.43412100  1
  C  C2  1  0.98181100  0.38749300  0.93412100  1
  C  C3  1  0.98181100  0.61250700  0.06587900  1
  C  C4  1  0.82713600  0.07006000  0.49118000  1
  C  C5  1  0.82713600  0.92994000  0.50882000  1
  C  C6  1  0.17286400  0.57006000  0.00882000  1
  C  C7  1  0.17286400  0.42994000  0.99118000  1
  C  C8  1  0.80704900  0.54591700  0.54763400  1
  C  C9  1  0.80704900  0.45408300  0.45236600  1
  C  C10  1  0.19295100  0.04591700  0.95236600  1
  C  C11  1  0.19295100  0.95408300  0.04763400  1
  C  C12  1  0.02643100  0.56070900  0.56191100  1
  C  C13  1  0.02643100  0.43929100  0.43808900  1
  C  C14  1  0.97356900  0.06070900  0.93808900  1
  C  C15  1  0.97356900  0.93929100  0.06191100  1
  N  N0  1  0.07105800  0.00000000  0.50000000  1
  N  N1  1  0.92894200  0.50000000  0.00000000  1
  N  N2  1  0.18022400  0.50000000  0.50000000  1
  N  N3  1  0.81977600  0.00000000  0.00000000  1
  O  O0  1  0.70638600  0.20880000  0.76137500  1
  O  O1  1  0.70638600  0.79120000  0.23862500  1
  O  O2  1  0.29361400  0.70880000  0.73862500  1
  O  O3  1  0.29361400  0.29120000  0.26137500  1
  O  O4  1  0.35194600  0.19783700  0.62275000  1
  O  O5  1  0.35194600  0.80216300  0.37725000  1
  O  O6  1  0.64805400  0.69783700  0.87725000  1
  O  O7  1  0.64805400  0.30216300  0.12275000  1
  O  O8  1  0.39064900  0.38867600  0.80834500  1
  O  O9  1  0.39064900  0.61132400  0.19165500  1
  O  O10  1  0.60935100  0.88867600  0.69165500  1
  O  O11  1  0.60935100  0.11132400  0.30834500  1
  O  O12  1  0.33860500  0.10602900  0.88817900  1
  O  O13  1  0.33860500  0.89397100  0.11182100  1
  O  O14  1  0.66139500  0.60602900  0.61182100  1
  O  O15  1  0.66139500  0.39397100  0.38817900  1
loop_
_geom_bond_atom_site_label_1
_geom_bond_atom_site_label_2
_geom_bond_distance
_geom_bond_site_symmetry_2
C0 N0 1.368237 1_565
C0 C5 1.457586 1_455
C1 N0 1.368237 1_555
C1 C4 1.457586 1_455
C2 N1 1.368237 1_556
C2 C7 1.457586 1_655
C3 N1 1.368237 1_555
C3 C6 1.457586 1_655
C4 C5 1.400564 1_545
C4 N0 1.743660 1_655
C5 N0 1.743660 1_665
C6 C7 1.400564 1_554
C6 N1 1.743660 1_455
C7 N1 1.743660 1_456
C8 O14 1.322444 1_555
C9 O15 1.322444 1_555
C10 O12 1.322444 1_555
C11 O13 1.322444 1_555
C12 N2 1.351508 1_555
C13 N2 1.351508 1_555
C14 N3 1.351508 1_556
C15 N3 1.351508 1_565
O0 Tc0 1.706886 1_555
O1 Tc1 1.706886 1_555
O2 Tc2 1.706886 1_555
O3 Tc3 1.706886 1_555
O4 Tc0 1.713718 1_555
O5 Tc1 1.713718 1_555
O6 Tc2 1.713718 1_555
O7 Tc3 1.713718 1_555
O8 Tc0 1.723495 1_555
O9 Tc1 1.723495 1_555
O10 Tc2 1.723495 1_555
O11 Tc3 1.723495 1_555
O12 Tc0 1.893756 1_555
O13 Tc1 1.893756 1_555
O14 Tc2 1.893756 1_555
O15 Tc3 1.893756 1_555
