# generated using pymatgen
data_PrGeRh
_symmetry_space_group_name_H-M   'P 1'
_cell_length_a   4.52115065
_cell_length_b   7.28709846
_cell_length_c   7.39528786
_cell_angle_alpha   89.99990853
_cell_angle_beta   90.00000000
_cell_angle_gamma   90.00000000
_symmetry_Int_Tables_number   1
_chemical_formula_structural   PrGeRh
_chemical_formula_sum   'Pr4 Ge4 Rh4'
_cell_volume   243.64567105
_cell_formula_units_Z   4
loop_
 _symmetry_equiv_pos_site_id
 _symmetry_equiv_pos_as_xyz
  1  'x, y, z'
loop_
 _atom_site_type_symbol
 _atom_site_label
 _atom_site_symmetry_multiplicity
 _atom_site_fract_x
 _atom_site_fract_y
 _atom_site_fract_z
 _atom_site_occupancy
  Pr  Pr0  1  0.25000000  0.97941630  0.80588516  1
  Pr  Pr1  1  0.25000000  0.47939709  0.69411994  1
  Pr  Pr2  1  0.75000000  0.02060449  0.19412112  1
  Pr  Pr3  1  0.75000000  0.52057529  0.30587438  1
  Ge  Ge0  1  0.25000000  0.81835671  0.41202576  1
  Ge  Ge1  1  0.25000000  0.31836197  0.08797057  1
  Ge  Ge2  1  0.75000000  0.18165527  0.58795788  1
  Ge  Ge3  1  0.75000000  0.68163077  0.91204607  1
  Rh  Rh0  1  0.25000000  0.18782169  0.41185516  1
  Rh  Rh1  1  0.25000000  0.68780136  0.08813893  1
  Rh  Rh2  1  0.75000000  0.81218898  0.58813446  1
  Rh  Rh3  1  0.75000000  0.31219006  0.91187156  1
loop_
_geom_bond_atom_site_label_1
_geom_bond_atom_site_label_2
_geom_bond_distance
_geom_bond_site_symmetry_2
Pr0 Rh1 2.978715 1_556
Pr0 Rh2 3.031230 1_555
Pr0 Rh2 3.031230 1_455
Pr0 Rh0 3.285961 1_565
Pr0 Rh3 3.406605 1_465
Pr0 Rh3 3.406605 1_565
Pr1 Rh0 2.978572 1_555
Pr1 Rh3 3.031172 1_555
Pr1 Rh3 3.031172 1_455
Pr1 Rh1 3.285889 1_556
Pr1 Rh2 3.406696 1_455
Pr1 Rh2 3.406696 1_555
Pr2 Rh3 2.978541 1_554
Pr2 Rh0 3.031135 1_655
Pr2 Rh0 3.031135 1_555
Pr2 Rh2 3.285886 1_545
Pr2 Rh1 3.406750 1_545
Pr2 Rh1 3.406750 1_645
Pr3 Rh2 2.978746 1_555
Pr3 Rh1 3.031165 1_555
Pr3 Rh1 3.031165 1_655
Pr3 Rh3 3.285719 1_554
Pr3 Rh0 3.406489 1_655
Pr3 Rh0 3.406489 1_555
Ge0 Rh1 2.577260 1_555
Ge0 Rh2 2.609291 1_455
Ge0 Rh2 2.609291 1_555
Ge0 Rh0 2.692328 1_565
Ge0 Pr0 3.140275 1_555
Ge0 Pr2 3.143104 1_565
Ge0 Pr2 3.143104 1_465
Ge0 Pr3 3.230356 1_455
Ge0 Pr3 3.230356 1_555
Ge0 Pr1 3.233131 1_555
Ge1 Rh0 2.577201 1_555
Ge1 Rh3 2.609256 1_454
Ge1 Rh3 2.609256 1_554
Ge1 Rh1 2.692141 1_555
Ge1 Pr1 3.140144 1_554
Ge1 Pr3 3.142986 1_455
Ge1 Pr3 3.142986 1_555
Ge1 Pr2 3.230236 1_455
Ge1 Pr2 3.230236 1_555
Ge1 Pr0 3.233017 1_544
Ge2 Rh3 2.577389 1_555
Ge2 Rh0 2.609269 1_655
Ge2 Rh0 2.609269 1_555
Ge2 Rh2 2.692338 1_545
Ge2 Pr2 3.140095 1_555
Ge2 Pr0 3.143160 1_545
Ge2 Pr0 3.143160 1_645
Ge2 Pr1 3.230181 1_655
Ge2 Pr1 3.230181 1_555
Ge2 Pr3 3.232860 1_555
Ge3 Rh2 2.577435 1_555
Ge3 Rh1 2.609233 1_556
Ge3 Rh1 2.609233 1_656
Ge3 Rh3 2.692151 1_555
Ge3 Pr3 3.140047 1_556
Ge3 Pr1 3.143140 1_655
Ge3 Pr1 3.143140 1_555
Ge3 Pr0 3.230392 1_655
Ge3 Pr0 3.230392 1_555
Ge3 Pr2 3.233124 1_566
