# generated using pymatgen
data_Cs3Li2Al(MoO4)4
_symmetry_space_group_name_H-M   'P 1'
_cell_length_a   10.83641011
_cell_length_b   10.83641011
_cell_length_c   10.83641011
_cell_angle_alpha   108.80989990
_cell_angle_beta   108.80989990
_cell_angle_gamma   110.80211586
_symmetry_Int_Tables_number   1
_chemical_formula_structural   Cs3Li2Al(MoO4)4
_chemical_formula_sum   'Cs6 Li4 Al2 Mo8 O32'
_cell_volume   979.17013887
_cell_formula_units_Z   2
loop_
 _symmetry_equiv_pos_site_id
 _symmetry_equiv_pos_as_xyz
  1  'x, y, z'
loop_
 _atom_site_type_symbol
 _atom_site_label
 _atom_site_symmetry_multiplicity
 _atom_site_fract_x
 _atom_site_fract_y
 _atom_site_fract_z
 _atom_site_occupancy
  Cs  Cs0  1  0.76300000  0.37500000  0.88800000  1
  Cs  Cs1  1  0.48700000  0.87500000  0.11200000  1
  Cs  Cs2  1  0.12500000  0.23700000  0.61200000  1
  Cs  Cs3  1  0.62500000  0.51300000  0.38800000  1
  Cs  Cs4  1  0.00000000  0.00000000  0.00000000  1
  Cs  Cs5  1  0.25000000  0.75000000  0.50000000  1
  Li  Li0  1  0.24942400  0.37500000  0.37442400  1
  Li  Li1  1  0.00057600  0.87500000  0.62557600  1
  Li  Li2  1  0.12500000  0.75057600  0.12557600  1
  Li  Li3  1  0.62500000  0.99942400  0.87442400  1
  Al  Al0  1  0.50000000  0.50000000  0.00000000  1
  Al  Al1  1  0.75000000  0.25000000  0.50000000  1
  Mo  Mo0  1  0.38141000  0.12634800  0.44389500  1
  Mo  Mo1  1  0.68245300  0.93751600  0.55610500  1
  Mo  Mo2  1  0.06248400  0.61859000  0.74493800  1
  Mo  Mo3  1  0.86859000  0.81248400  0.24493800  1
  Mo  Mo4  1  0.87365200  0.31754700  0.25506200  1
  Mo  Mo5  1  0.56754700  0.62365200  0.75506200  1
  Mo  Mo6  1  0.18751600  0.43245300  0.05610500  1
  Mo  Mo7  1  0.37634800  0.13141000  0.94389500  1
  O  O0  1  0.24594600  0.37896000  0.19364400  1
  O  O1  1  0.18531600  0.05230200  0.80635600  1
  O  O2  1  0.94769800  0.75405400  0.13301400  1
  O  O3  1  0.00405400  0.69769800  0.63301400  1
  O  O4  1  0.62104000  0.81468400  0.86698600  1
  O  O5  1  0.06468400  0.37104000  0.36698600  1
  O  O6  1  0.30230200  0.93531600  0.30635600  1
  O  O7  1  0.62896000  0.99594600  0.69364400  1
  O  O8  1  0.26971300  0.20303000  0.38032800  1
  O  O9  1  0.82270200  0.88938500  0.61967200  1
  O  O10  1  0.11061500  0.73028700  0.93331700  1
  O  O11  1  0.98028700  0.86061500  0.43331700  1
  O  O12  1  0.79697100  0.17729800  0.06668300  1
  O  O13  1  0.42729800  0.54697100  0.56668300  1
  O  O14  1  0.13938500  0.57270200  0.11967200  1
  O  O15  1  0.45303000  0.01971300  0.88032800  1
  O  O16  1  0.52144400  0.77219600  0.39509000  1
  O  O17  1  0.37710600  0.12635500  0.60491000  1
  O  O18  1  0.87364500  0.47855600  0.25075100  1
  O  O19  1  0.72855600  0.62364500  0.75075100  1
  O  O20  1  0.22780400  0.62289400  0.74924900  1
  O  O21  1  0.87289400  0.97780400  0.24924900  1
  O  O22  1  0.37635500  0.12710600  0.10491000  1
  O  O23  1  0.02219600  0.27144400  0.89509000  1
  O  O24  1  0.58539000  0.24638300  0.49808300  1
  O  O25  1  0.74830000  0.08730700  0.50191700  1
  O  O26  1  0.91269300  0.41461000  0.66099300  1
  O  O27  1  0.66461000  0.66269300  0.16099300  1
  O  O28  1  0.75361700  0.25170000  0.33900700  1
  O  O29  1  0.50170000  0.50361700  0.83900700  1
  O  O30  1  0.33730700  0.49830000  0.00191700  1
  O  O31  1  0.49638300  0.33539000  0.99808300  1
loop_
_geom_bond_atom_site_label_1
_geom_bond_atom_site_label_2
_geom_bond_distance
_geom_bond_site_symmetry_2
Cs0 O14 3.354108 1_656
Cs0 O12 3.354110 1_556
Cs0 O18 3.362947 1_556
Cs0 O23 3.362956 1_655
Cs0 O26 3.409755 1_555
Cs0 O31 3.409755 1_555
Cs0 O2 3.410069 1_556
Cs0 O7 3.410069 1_545
Cs0 O19 3.542847 1_555
Cs0 O17 3.542850 1_555
Cs0 O29 3.543014 1_555
Cs0 O24 3.543014 1_555
Cs1 O10 3.354108 1_554
Cs1 O15 3.354108 1_564
Cs1 O22 3.362949 1_565
Cs1 O20 3.362949 1_554
Cs1 O30 3.409755 1_555
Cs1 O28 3.409755 1_565
Cs1 O6 3.410069 1_555
Cs1 O4 3.410069 1_554
Cs1 O21 3.542850 1_555
Cs1 O16 3.542850 1_555
Cs1 O25 3.543014 1_565
Cs1 O27 3.543014 1_555
Cs2 O11 3.354108 1_445
Cs2 O8 3.354108 1_555
Cs2 O21 3.362949 1_445
Cs2 O17 3.362949 1_555
Cs2 O25 3.409755 1_455
Cs2 O29 3.409755 1_555
Cs2 O1 3.410069 1_555
Cs2 O5 3.410069 1_555
Cs2 O20 3.542850 1_555
Cs2 O23 3.542850 1_555
Cs2 O30 3.543014 1_556
Cs2 O26 3.543014 1_455
Cs3 O9 3.354108 1_555
Cs3 O13 3.354110 1_555
Cs3 O19 3.362947 1_555
Cs3 O16 3.362956 1_555
Cs3 O24 3.409755 1_555
Cs3 O27 3.409755 1_555
Cs3 O3 3.410069 1_655
Cs3 O0 3.410069 1_555
Cs3 O18 3.542847 1_555
Cs3 O22 3.542850 1_555
Cs3 O31 3.543014 1_554
Cs3 O28 3.543014 1_555
Cs4 O4 3.381294 1_444
Cs4 O1 3.381294 1_554
Cs4 O2 3.381294 1_445
Cs4 O0 3.381294 1_555
Cs4 O23 3.439883 1_554
Cs4 O19 3.439891 1_444
Cs4 O21 3.439893 1_445
Cs4 O22 3.439893 1_555
Cs4 O12 3.490876 1_455
Cs4 O10 3.490885 1_544
Cs4 O9 3.490885 1_444
Cs4 O8 3.490885 1_555
Cs5 O3 3.381294 1_555
Cs5 O7 3.381294 1_555
Cs5 O5 3.381294 1_555
Cs5 O6 3.381294 1_555
Cs5 O16 3.439883 1_555
Cs5 O18 3.439891 1_455
Cs5 O17 3.439893 1_565
Cs5 O20 3.439893 1_555
Cs5 O13 3.490876 1_555
Cs5 O11 3.490885 1_455
Cs5 O14 3.490885 1_555
Cs5 O15 3.490885 1_565
Li0 O0 1.961814 1_555
Li0 O5 1.961814 1_555
Li0 O8 1.970795 1_555
Li0 O13 1.970797 1_555
Li1 O3 1.961814 1_555
Li1 O1 1.961814 1_565
Li1 O9 1.970795 1_455
Li1 O11 1.970795 1_455
Li2 O2 1.961814 1_455
Li2 O6 1.961814 1_555
Li2 O14 1.970795 1_555
Li2 O10 1.970795 1_554
Li3 O7 1.961814 1_555
Li3 O4 1.961814 1_555
Li3 O15 1.970795 1_565
Li3 O12 1.970797 1_566
Al0 O30 1.763452 1_555
Al0 O31 1.763452 1_554
Al0 O27 1.763452 1_555
Al0 O29 1.763452 1_554
Al1 O28 1.763452 1_555
Al1 O25 1.763452 1_555
Al1 O26 1.763452 1_555
Al1 O24 1.763452 1_555
Mo0 O17 1.760393 1_555
Mo0 O6 1.779772 1_545
Mo0 O8 1.782102 1_555
Mo0 O24 1.884390 1_555
Mo1 O16 1.760400 1_555
Mo1 O7 1.779770 1_555
Mo1 O9 1.782110 1_555
Mo1 O25 1.884381 1_565
Mo2 O20 1.760404 1_555
Mo2 O3 1.779769 1_555
Mo2 O10 1.782099 1_555
Mo2 O26 1.884387 1_455
Mo3 O21 1.760404 1_555
Mo3 O2 1.779769 1_555
Mo3 O11 1.782099 1_555
Mo3 O27 1.884387 1_555
Mo4 O18 1.760404 1_555
Mo4 O5 1.779772 1_655
Mo4 O12 1.782105 1_555
Mo4 O28 1.884390 1_555
Mo5 O19 1.760404 1_555
Mo5 O4 1.779772 1_555
Mo5 O13 1.782105 1_555
Mo5 O29 1.884390 1_555
Mo6 O23 1.760400 1_554
Mo6 O0 1.779770 1_555
Mo6 O14 1.782110 1_555
Mo6 O30 1.884381 1_555
Mo7 O22 1.760393 1_556
Mo7 O1 1.779772 1_555
Mo7 O15 1.782102 1_555
Mo7 O31 1.884390 1_555
