# generated using pymatgen
data_BiPb2F7
_symmetry_space_group_name_H-M   'P 1'
_cell_length_a   9.72337693
_cell_length_b   9.72337693
_cell_length_c   9.72337693
_cell_angle_alpha   155.90120255
_cell_angle_beta   155.90120255
_cell_angle_gamma   34.34194840
_symmetry_Int_Tables_number   1
_chemical_formula_structural   BiPb2F7
_chemical_formula_sum   'Bi1 Pb2 F7'
_cell_volume   153.10270989
_cell_formula_units_Z   1
loop_
 _symmetry_equiv_pos_site_id
 _symmetry_equiv_pos_as_xyz
  1  'x, y, z'
loop_
 _atom_site_type_symbol
 _atom_site_label
 _atom_site_symmetry_multiplicity
 _atom_site_fract_x
 _atom_site_fract_y
 _atom_site_fract_z
 _atom_site_occupancy
  Bi  Bi0  1  0.50000000  0.50000000  0.00000000  1
  Pb  Pb0  1  0.83416600  0.83416600  0.00000000  1
  Pb  Pb1  1  0.16583400  0.16583400  0.00000000  1
  F  F0  1  0.25000000  0.75000000  0.50000000  1
  F  F1  1  0.58412900  0.08412900  0.50000000  1
  F  F2  1  0.91587100  0.41587100  0.50000000  1
  F  F3  1  0.08412900  0.58412900  0.50000000  1
  F  F4  1  0.41587100  0.91587100  0.50000000  1
  F  F5  1  0.75000000  0.25000000  0.50000000  1
  F  F6  1  0.00000000  0.00000000  0.00000000  1
loop_
_geom_bond_atom_site_label_1
_geom_bond_atom_site_label_2
_geom_bond_distance
_geom_bond_site_symmetry_2
Bi0 F3 2.561919 1_655
Bi0 F1 2.561919 1_565
Bi0 F1 2.561919 1_554
Bi0 F4 2.561919 1_555
Bi0 F2 2.561919 1_454
Bi0 F4 2.561919 1_544
Bi0 F2 2.561919 1_555
Bi0 F3 2.561919 1_554
F0 Pb1 2.562338 1_566
F0 Pb0 2.562338 1_455
F0 Pb1 2.562338 1_555
F0 Pb0 2.562338 1_556
F1 Pb1 2.534691 1_555
F1 Pb1 2.534691 1_656
F2 Pb0 2.534691 1_556
F2 Pb0 2.534691 1_545
F3 Pb1 2.534691 1_555
F3 Pb1 2.534691 1_566
F4 Pb0 2.534691 1_455
F4 Pb0 2.534691 1_556
F5 Pb0 2.562338 1_545
F5 Pb1 2.562338 1_656
F5 Pb0 2.562338 1_556
F5 Pb1 2.562338 1_555
