# generated using pymatgen
data_SnB4O7
_symmetry_space_group_name_H-M   'P 1'
_cell_length_a   4.23615112
_cell_length_b   4.45233174
_cell_length_c   10.88175476
_cell_angle_alpha   90.00000000
_cell_angle_beta   90.00000000
_cell_angle_gamma   90.00000000
_symmetry_Int_Tables_number   1
_chemical_formula_structural   SnB4O7
_chemical_formula_sum   'Sn2 B8 O14'
_cell_volume   205.23805704
_cell_formula_units_Z   2
loop_
 _symmetry_equiv_pos_site_id
 _symmetry_equiv_pos_as_xyz
  1  'x, y, z'
loop_
 _atom_site_type_symbol
 _atom_site_label
 _atom_site_symmetry_multiplicity
 _atom_site_fract_x
 _atom_site_fract_y
 _atom_site_fract_z
 _atom_site_occupancy
  Sn  Sn0  1  0.60661017  0.83296418  0.50000000  1
  Sn  Sn1  1  0.10661017  0.16703582  -0.00000000  1
  B  B0  1  0.55627524  0.67212878  0.12253519  1
  B  B1  1  0.02665216  0.82349107  0.75105194  1
  B  B2  1  0.52665216  0.17650893  0.74894806  1
  B  B3  1  0.05627524  0.32787122  0.37746481  1
  B  B4  1  0.05627524  0.32787122  0.62253519  1
  B  B5  1  0.55627524  0.67212878  0.87746481  1
  B  B6  1  0.02665216  0.82349107  0.24894806  1
  B  B7  1  0.52665216  0.17650893  0.25105194  1
  O  O0  1  0.94765469  0.23132371  0.50000000  1
  O  O1  1  0.44765469  0.76867629  -0.00000000  1
  O  O2  1  0.38060242  0.87128344  0.21888873  1
  O  O3  1  0.88060242  0.12871656  0.28111127  1
  O  O4  1  0.88060242  0.12871656  0.71888873  1
  O  O5  1  0.38060242  0.87128344  0.78111127  1
  O  O6  1  0.47615353  0.35925898  0.14318959  1
  O  O7  1  0.97615353  0.64074102  0.35681041  1
  O  O8  1  0.97615353  0.64074102  0.64318959  1
  O  O9  1  0.47615353  0.35925898  0.85681041  1
  O  O10  1  0.88656472  0.72816478  0.13784390  1
  O  O11  1  0.38656472  0.27183522  0.36215610  1
  O  O12  1  0.38656472  0.27183522  0.63784390  1
  O  O13  1  0.88656472  0.72816478  0.86215610  1
loop_
_geom_bond_atom_site_label_1
_geom_bond_atom_site_label_2
_geom_bond_distance
_geom_bond_site_symmetry_2
B0 O10 1.430956 1_555
B0 O6 1.451262 1_555
B0 O1 1.474603 1_555
B0 O2 1.561853 1_555
B1 O13 1.412090 1_455
B1 O8 1.444111 1_455
B1 O4 1.533642 1_465
B1 O5 1.549333 1_555
B2 O12 1.412090 1_555
B2 O9 1.444111 1_555
B2 O5 1.533642 1_545
B2 O4 1.549333 1_555
B3 O11 1.430956 1_555
B3 O7 1.451262 1_455
B3 O0 1.474603 1_455
B3 O3 1.561853 1_455
B4 O12 1.430956 1_555
B4 O8 1.451262 1_455
B4 O0 1.474603 1_455
B4 O4 1.561853 1_455
B5 O13 1.430956 1_555
B5 O9 1.451262 1_555
B5 O1 1.474603 1_556
B5 O5 1.561853 1_555
B6 O10 1.412090 1_455
B6 O7 1.444111 1_455
B6 O3 1.533642 1_465
B6 O2 1.549333 1_555
B7 O11 1.412090 1_555
B7 O6 1.444111 1_555
B7 O2 1.533642 1_545
B7 O3 1.549333 1_555
O0 Sn0 2.287567 1_545
O1 Sn1 2.287567 1_565
O6 Sn1 2.368737 1_555
O7 Sn0 2.368737 1_555
O8 Sn0 2.368737 1_555
O9 Sn1 2.368737 1_556
O10 Sn1 2.633811 1_665
O11 Sn0 2.633811 1_545
O12 Sn0 2.633811 1_545
O13 Sn1 2.633811 1_666
