# generated using pymatgen
data_YbTa5Ag2O15
_symmetry_space_group_name_H-M   'P 1'
_cell_length_a   12.59706100
_cell_length_b   12.59706100
_cell_length_c   3.93361600
_cell_angle_alpha   90.00000000
_cell_angle_beta   90.00000000
_cell_angle_gamma   90.00000000
_symmetry_Int_Tables_number   1
_chemical_formula_structural   YbTa5Ag2O15
_chemical_formula_sum   'Yb2 Ta10 Ag4 O30'
_cell_volume   624.20957552
_cell_formula_units_Z   2
loop_
 _symmetry_equiv_pos_site_id
 _symmetry_equiv_pos_as_xyz
  1  'x, y, z'
loop_
 _atom_site_type_symbol
 _atom_site_label
 _atom_site_symmetry_multiplicity
 _atom_site_fract_x
 _atom_site_fract_y
 _atom_site_fract_z
 _atom_site_occupancy
  Yb  Yb0  1  0.00000000  0.00000000  0.50000000  1
  Yb  Yb1  1  0.50000000  0.50000000  0.50000000  1
  Ta  Ta0  1  0.50000000  0.00000000  0.00000000  1
  Ta  Ta1  1  0.00000000  0.50000000  0.00000000  1
  Ta  Ta2  1  0.20918000  0.07910500  0.00000000  1
  Ta  Ta3  1  0.79082000  0.92089500  0.00000000  1
  Ta  Ta4  1  0.07910500  0.79082000  0.00000000  1
  Ta  Ta5  1  0.70918000  0.42089500  0.00000000  1
  Ta  Ta6  1  0.92089500  0.20918000  0.00000000  1
  Ta  Ta7  1  0.29082000  0.57910500  0.00000000  1
  Ta  Ta8  1  0.57910500  0.70918000  0.00000000  1
  Ta  Ta9  1  0.42089500  0.29082000  0.00000000  1
  Ag  Ag0  1  0.67298100  0.17298100  0.50000000  1
  Ag  Ag1  1  0.32701900  0.82701900  0.50000000  1
  Ag  Ag2  1  0.17298100  0.32701900  0.50000000  1
  Ag  Ag3  1  0.82701900  0.67298100  0.50000000  1
  O  O0  1  0.19179400  0.07987600  0.50000000  1
  O  O1  1  0.80820600  0.92012400  0.50000000  1
  O  O2  1  0.07987600  0.80820600  0.50000000  1
  O  O3  1  0.69179400  0.42012400  0.50000000  1
  O  O4  1  0.92012400  0.19179400  0.50000000  1
  O  O5  1  0.30820600  0.57987600  0.50000000  1
  O  O6  1  0.57987600  0.69179400  0.50000000  1
  O  O7  1  0.42012400  0.30820600  0.50000000  1
  O  O8  1  0.22532800  0.72532800  0.00000000  1
  O  O9  1  0.77467200  0.27467200  0.00000000  1
  O  O10  1  0.72532800  0.77467200  0.00000000  1
  O  O11  1  0.27467200  0.22532800  0.00000000  1
  O  O12  1  0.50000000  0.00000000  0.50000000  1
  O  O13  1  0.00000000  0.50000000  0.50000000  1
  O  O14  1  0.05851700  0.13296200  0.00000000  1
  O  O15  1  0.94148300  0.86703800  0.00000000  1
  O  O16  1  0.13296200  0.94148300  0.00000000  1
  O  O17  1  0.55851700  0.36703800  0.00000000  1
  O  O18  1  0.86703800  0.05851700  0.00000000  1
  O  O19  1  0.44148300  0.63296200  0.00000000  1
  O  O20  1  0.63296200  0.55851700  0.00000000  1
  O  O21  1  0.36703800  0.44148300  0.00000000  1
  O  O22  1  0.34158000  0.00064300  0.00000000  1
  O  O23  1  0.65842000  0.99935700  0.00000000  1
  O  O24  1  0.00064300  0.65842000  0.00000000  1
  O  O25  1  0.84158000  0.49935700  0.00000000  1
  O  O26  1  0.99935700  0.34158000  0.00000000  1
  O  O27  1  0.15842000  0.50064300  0.00000000  1
  O  O28  1  0.50064300  0.84158000  0.00000000  1
  O  O29  1  0.49935700  0.15842000  0.00000000  1
loop_
_geom_bond_atom_site_label_1
_geom_bond_atom_site_label_2
_geom_bond_distance
_geom_bond_site_symmetry_2
Ag0 O9 2.674004 1_555
Ag0 O9 2.674004 1_556
Ag1 O8 2.674004 1_555
Ag1 O8 2.674004 1_556
Ag2 O11 2.674004 1_556
Ag2 O11 2.674004 1_555
Ag3 O10 2.674004 1_555
Ag3 O10 2.674004 1_556
O0 Ta2 1.978988 1_555
O0 Ta2 1.978988 1_556
O0 Yb0 2.617193 1_555
O1 Ta3 1.978988 1_556
O1 Ta3 1.978988 1_555
O1 Yb0 2.617193 1_665
O2 Ta4 1.978988 1_555
O2 Ta4 1.978988 1_556
O2 Yb0 2.617193 1_565
O3 Ta5 1.978988 1_556
O3 Ta5 1.978988 1_555
O3 Yb1 2.617193 1_555
O4 Ta6 1.978988 1_556
O4 Ta6 1.978988 1_555
O4 Yb0 2.617193 1_655
O5 Ta7 1.978988 1_555
O5 Ta7 1.978988 1_556
O5 Yb1 2.617193 1_555
O6 Ta8 1.978988 1_556
O6 Ta8 1.978988 1_555
O6 Yb1 2.617193 1_555
O7 Ta9 1.978988 1_555
O7 Ta9 1.978988 1_556
O7 Yb1 2.617193 1_555
O8 Ta4 2.018298 1_555
O8 Ta7 2.018298 1_555
O9 Ta6 2.018298 1_555
O9 Ta5 2.018298 1_555
O10 Ta8 2.018298 1_555
O10 Ta3 2.018298 1_555
O11 Ta2 2.018298 1_555
O11 Ta9 2.018298 1_555
O12 Ta0 1.966808 1_555
O12 Ta0 1.966808 1_556
O13 Ta1 1.966808 1_555
O13 Ta1 1.966808 1_556
O14 Ta6 1.981746 1_455
O14 Ta2 2.015526 1_555
O14 Yb0 2.686467 1_554
O14 Yb0 2.686467 1_555
O15 Ta4 1.981746 1_655
O15 Ta3 2.015526 1_555
O15 Yb0 2.686467 1_665
O15 Yb0 2.686467 1_664
O16 Ta2 1.981746 1_565
O16 Ta4 2.015526 1_555
O16 Yb0 2.686467 1_564
O16 Yb0 2.686467 1_565
O17 Ta9 1.981746 1_555
O17 Ta5 2.015526 1_555
O17 Yb1 2.686467 1_555
O17 Yb1 2.686467 1_554
O18 Ta3 1.981746 1_545
O18 Ta6 2.015526 1_555
O18 Yb0 2.686467 1_655
O18 Yb0 2.686467 1_654
O19 Ta8 1.981746 1_555
O19 Ta7 2.015526 1_555
O19 Yb1 2.686467 1_555
O19 Yb1 2.686467 1_554
O20 Ta5 1.981746 1_555
O20 Ta8 2.015526 1_555
O20 Yb1 2.686467 1_555
O20 Yb1 2.686467 1_554
O21 Ta7 1.981746 1_555
O21 Ta9 2.015526 1_555
O21 Yb1 2.686467 1_555
O21 Yb1 2.686467 1_554
O22 Ta2 1.938722 1_555
O22 Ta0 1.995643 1_555
O23 Ta3 1.938722 1_555
O23 Ta0 1.995643 1_565
O24 Ta4 1.938722 1_555
O24 Ta1 1.995643 1_555
O25 Ta5 1.938722 1_555
O25 Ta1 1.995643 1_655
O26 Ta6 1.938722 1_555
O26 Ta1 1.995643 1_655
O27 Ta7 1.938722 1_555
O27 Ta1 1.995643 1_555
O28 Ta8 1.938722 1_555
O28 Ta0 1.995643 1_565
O29 Ta9 1.938722 1_555
O29 Ta0 1.995643 1_555
