# generated using pymatgen
data_BaMg14Ni
_symmetry_space_group_name_H-M   'P 1'
_cell_length_a   6.61732079
_cell_length_b   6.19694342
_cell_length_c   10.50400440
_cell_angle_alpha   90.00000000
_cell_angle_beta   90.00000000
_cell_angle_gamma   117.91989598
_symmetry_Int_Tables_number   1
_chemical_formula_structural   BaMg14Ni
_chemical_formula_sum   'Ba1 Mg14 Ni1'
_cell_volume   380.60267814
_cell_formula_units_Z   1
loop_
 _symmetry_equiv_pos_site_id
 _symmetry_equiv_pos_as_xyz
  1  'x, y, z'
loop_
 _atom_site_type_symbol
 _atom_site_label
 _atom_site_symmetry_multiplicity
 _atom_site_fract_x
 _atom_site_fract_y
 _atom_site_fract_z
 _atom_site_occupancy
  Ba  Ba0  1  0.12335257  0.81167578  0.12500000  1
  Mg  Mg0  1  0.15682926  0.32841413  0.62500000  1
  Mg  Mg1  1  0.16732546  0.83366223  0.62500000  1
  Mg  Mg2  1  0.61607863  0.31998949  0.12500000  1
  Mg  Mg3  1  0.66253030  0.32643618  0.62500000  1
  Mg  Mg4  1  0.61607863  0.79608814  0.12500000  1
  Mg  Mg5  1  0.66253030  0.83609312  0.62500000  1
  Mg  Mg6  1  0.34822468  0.18085713  0.38319293  1
  Mg  Mg7  1  0.34822468  0.18085713  0.86680707  1
  Mg  Mg8  1  0.34822468  0.66736854  0.38319293  1
  Mg  Mg9  1  0.34822468  0.66736854  0.86680707  1
  Mg  Mg10  1  0.87054978  0.18527539  0.34145145  1
  Mg  Mg11  1  0.87054978  0.18527539  0.90854855  1
  Mg  Mg12  1  0.82805591  0.66402845  0.39641426  1
  Mg  Mg13  1  0.82805591  0.66402845  0.85358574  1
  Ni  Ni0  1  0.20516478  0.35258189  0.12500000  1
loop_
_geom_bond_atom_site_label_1
_geom_bond_atom_site_label_2
_geom_bond_distance
_geom_bond_site_symmetry_2
Ba0 Ni0 3.135181 1_565
Ba0 Ni0 3.135181 1_555
Ba0 Mg2 3.306858 1_565
Ba0 Mg4 3.306858 1_555
Ba0 Mg2 3.312664 1_455
Ba0 Mg4 3.312664 1_455
Ba0 Mg12 3.333027 1_455
Ba0 Mg13 3.333027 1_454
Ba0 Mg8 3.408144 1_555
Ba0 Mg9 3.408144 1_554
Ba0 Mg6 3.408150 1_565
Ba0 Mg7 3.408150 1_564
Mg0 Mg1 3.099079 1_555
Mg0 Mg1 3.099079 1_545
Mg0 Mg6 3.158491 1_555
Mg0 Mg7 3.158491 1_555
Mg0 Mg8 3.158497 1_555
Mg0 Mg9 3.158497 1_555
Mg0 Mg5 3.265213 1_445
Mg0 Mg3 3.265213 1_455
Mg0 Mg5 3.352143 1_555
Mg0 Mg3 3.352143 1_555
Mg0 Mg10 3.416545 1_455
Mg0 Mg11 3.416545 1_455
Mg1 Mg12 3.114536 1_455
Mg1 Mg13 3.114536 1_455
Mg1 Mg9 3.178280 1_555
Mg1 Mg8 3.178280 1_555
Mg1 Mg7 3.178286 1_565
Mg1 Mg6 3.178286 1_565
Mg1 Mg3 3.269903 1_565
Mg1 Mg5 3.269903 1_555
Mg1 Mg3 3.347471 1_455
Mg1 Mg5 3.347472 1_455
Mg2 Ni0 2.819374 1_555
Mg2 Mg7 3.131961 1_554
Mg2 Mg6 3.131961 1_555
Mg3 Mg5 3.038628 1_545
Mg3 Mg6 3.135898 1_555
Mg3 Mg7 3.135898 1_555
Mg3 Mg5 3.158315 1_555
Mg4 Ni0 2.819374 1_555
Mg4 Mg9 3.131961 1_554
Mg4 Mg8 3.131961 1_555
Mg5 Mg8 3.135898 1_555
Mg5 Mg9 3.135898 1_555
Mg6 Mg8 3.014884 1_555
Mg6 Mg8 3.182060 1_545
Mg6 Ni0 3.213617 1_555
Mg7 Mg9 3.014884 1_555
Mg7 Mg9 3.182060 1_545
Mg7 Ni0 3.213617 1_556
Mg8 Ni0 3.213623 1_555
Mg9 Ni0 3.213623 1_556
Mg10 Ni0 2.999545 1_655
Mg10 Mg12 3.161577 1_555
Mg10 Mg12 3.161577 1_545
Mg10 Mg8 3.203982 1_655
Mg10 Mg6 3.203983 1_655
Mg10 Mg8 3.471457 1_545
Mg10 Mg6 3.471458 1_555
Mg11 Ni0 2.999545 1_656
Mg11 Mg13 3.161577 1_555
Mg11 Mg13 3.161577 1_545
Mg11 Mg9 3.203982 1_655
Mg11 Mg7 3.203983 1_655
Mg11 Mg9 3.471457 1_545
Mg11 Mg7 3.471458 1_555
Mg12 Mg5 3.032417 1_555
Mg12 Mg3 3.032424 1_555
Mg12 Mg6 3.187968 1_555
Mg12 Mg8 3.187968 1_555
Mg12 Mg6 3.435289 1_665
Mg12 Mg8 3.435289 1_655
Mg12 Mg4 3.440960 1_555
Mg12 Mg2 3.440965 1_555
Mg13 Mg5 3.032417 1_555
Mg13 Mg3 3.032424 1_555
Mg13 Mg7 3.187968 1_555
Mg13 Mg9 3.187968 1_555
Mg13 Mg7 3.435289 1_665
Mg13 Mg9 3.435289 1_655
Mg13 Mg4 3.440960 1_556
Mg13 Mg2 3.440965 1_556
