# generated using pymatgen
data_Ba2YCr3O8
_symmetry_space_group_name_H-M   'P 1'
_cell_length_a   3.97443462
_cell_length_b   3.97277700
_cell_length_c   11.80775584
_cell_angle_alpha   90.00262722
_cell_angle_beta   89.93614925
_cell_angle_gamma   89.99933745
_symmetry_Int_Tables_number   1
_chemical_formula_structural   Ba2YCr3O8
_chemical_formula_sum   'Ba2 Y1 Cr3 O8'
_cell_volume   186.43894591
_cell_formula_units_Z   1
loop_
 _symmetry_equiv_pos_site_id
 _symmetry_equiv_pos_as_xyz
  1  'x, y, z'
loop_
 _atom_site_type_symbol
 _atom_site_label
 _atom_site_symmetry_multiplicity
 _atom_site_fract_x
 _atom_site_fract_y
 _atom_site_fract_z
 _atom_site_occupancy
  Ba  Ba0  1  0.49998700  0.49999300  0.16193000  1
  Ba  Ba1  1  0.50002500  0.49999400  0.83805500  1
  Y  Y0  1  0.49999300  0.50000700  0.50000100  1
  Cr  Cr0  1  0.00001100  0.00000300  0.34243000  1
  Cr  Cr1  1  0.00001600  0.99999700  0.99992300  1
  Cr  Cr2  1  0.99997600  0.00000800  0.65759100  1
  O  O0  1  0.99997500  0.50000400  0.38078900  1
  O  O1  1  0.49999000  0.00000900  0.38079700  1
  O  O2  1  0.50001500  0.99999100  0.99998200  1
  O  O3  1  0.00001200  0.99999600  0.18033900  1
  O  O4  1  0.00001000  0.50000600  0.61925200  1
  O  O5  1  0.49999700  0.00000400  0.61924500  1
  O  O6  1  0.99998500  0.99999800  0.81968400  1
  O  O7  1  0.00000900  0.49998900  0.99998300  1
loop_
_geom_bond_atom_site_label_1
_geom_bond_atom_site_label_2
_geom_bond_distance
_geom_bond_site_symmetry_2
Ba0 O7 2.756363 1_654
Ba0 O2 2.757189 1_544
Ba0 O2 2.757304 1_554
Ba0 O7 2.759308 1_554
Ba0 O3 2.817903 1_555
Ba0 O3 2.817933 1_545
Ba0 O3 2.818382 1_645
Ba0 O3 2.818418 1_655
Ba0 O0 3.258226 1_455
Ba0 O1 3.259490 1_565
Ba0 O1 3.259557 1_555
Ba0 O0 3.261679 1_555
Ba1 O7 2.756190 1_555
Ba1 O2 2.757003 1_555
Ba1 O2 2.757147 1_545
Ba1 O7 2.759169 1_655
Ba1 O6 2.817808 1_545
Ba1 O6 2.817876 1_555
Ba1 O6 2.818405 1_445
Ba1 O6 2.818409 1_455
Ba1 O4 3.257637 1_655
Ba1 O5 3.258893 1_555
Ba1 O5 3.259086 1_565
Ba1 O4 3.261221 1_555
Cr0 O3 1.913931 1_545
Cr0 O0 2.037356 1_455
Cr0 O0 2.037389 1_445
Cr0 O1 2.037791 1_455
Cr0 O1 2.038613 1_555
Cr1 O7 1.986357 1_565
Cr1 O7 1.986420 1_555
Cr1 O2 1.987214 1_555
Cr1 O2 1.987221 1_455
Cr1 O6 2.128218 1_455
Cr1 O3 2.130308 1_556
Cr2 O6 1.913955 1_545
Cr2 O4 2.037308 1_645
Cr2 O4 2.037333 1_655
Cr2 O5 2.037736 1_655
Cr2 O5 2.038557 1_555
O0 Y0 2.433912 1_555
O0 Y0 2.436588 1_655
O1 Y0 2.434460 1_555
O1 Y0 2.434579 1_545
O4 Y0 2.434181 1_555
O4 Y0 2.436852 1_455
O5 Y0 2.434730 1_545
O5 Y0 2.434855 1_555
