# generated using pymatgen
data_NaCa2Al
_symmetry_space_group_name_H-M   'P 1'
_cell_length_a   13.05274393
_cell_length_b   13.50222396
_cell_length_c   13.50222399
_cell_angle_alpha   60.56855923
_cell_angle_beta   61.09522678
_cell_angle_gamma   61.09522497
_symmetry_Int_Tables_number   1
_chemical_formula_structural   NaCa2Al
_chemical_formula_sum   'Na1 Ca2 Al1'
_cell_volume   1717.44639454
_cell_formula_units_Z   1
loop_
 _symmetry_equiv_pos_site_id
 _symmetry_equiv_pos_as_xyz
  1  'x, y, z'
loop_
 _atom_site_type_symbol
 _atom_site_label
 _atom_site_symmetry_multiplicity
 _atom_site_fract_x
 _atom_site_fract_y
 _atom_site_fract_z
 _atom_site_occupancy
  Na  Na0  1  0.00000000  0.00000000  0.00000000  1
  Ca  Ca0  1  0.72394621  1.00000000  0.00000000  1
  Ca  Ca1  1  0.27605379  0.00000000  1.00000000  1
  Al  Al0  1  0.50000000  0.00000000  0.00000000  1
loop_
_geom_bond_atom_site_label_1
_geom_bond_atom_site_label_2
_geom_bond_distance
_geom_bond_site_symmetry_2
Ca0 Na0 3.603259 1_665
Ca1 Na0 3.603259 1_556
Al0 Ca1 2.923113 1_554
Al0 Ca0 2.923113 1_545
