# generated using pymatgen
data_K5MoC7N7O
_symmetry_space_group_name_H-M   'P 1'
_cell_length_a   7.87330100
_cell_length_b   7.92744261
_cell_length_c   8.13700893
_cell_angle_alpha   107.97024863
_cell_angle_beta   109.25605093
_cell_angle_gamma   108.16771294
_symmetry_Int_Tables_number   1
_chemical_formula_structural   K5MoC7N7O
_chemical_formula_sum   'K5 Mo1 C7 N7 O1'
_cell_volume   404.82985079
_cell_formula_units_Z   1
loop_
 _symmetry_equiv_pos_site_id
 _symmetry_equiv_pos_as_xyz
  1  'x, y, z'
loop_
 _atom_site_type_symbol
 _atom_site_label
 _atom_site_symmetry_multiplicity
 _atom_site_fract_x
 _atom_site_fract_y
 _atom_site_fract_z
 _atom_site_occupancy
  K  K0  1  0.60445500  0.25226800  0.08429800  1
  K  K1  1  0.83536900  0.31392800  0.67894200  1
  K  K2  1  0.09353800  0.82746800  0.45088800  1
  K  K3  1  0.35574600  0.48172400  0.61110000  1
  K  K4  1  0.48775400  0.72640700  0.23094800  1
  Mo  Mo0  1  0.99810700  0.99922800  0.99402200  1
  C  C0  1  0.11521600  0.80226700  0.87051000  1
  C  C1  1  0.82243200  0.70933000  0.96572100  1
  C  C2  1  0.89126300  0.04725700  0.21188600  1
  C  C3  1  0.06837200  0.31617100  0.12521400  1
  C  C4  1  0.14003200  0.13996700  0.85102200  1
  C  C5  1  0.70477600  0.93773300  0.77085500  1
  C  C6  1  0.28617800  0.10243500  0.24542700  1
  N  N0  1  0.19253400  0.70463300  0.82204200  1
  N  N1  1  0.71846800  0.55238000  0.94540200  1
  N  N2  1  0.83917800  0.08177200  0.33314200  1
  N  N3  1  0.10968000  0.48589500  0.20395900  1
  N  N4  1  0.21441400  0.22230400  0.77548000  1
  N  N5  1  0.54587900  0.91095500  0.65958200  1
  N  N6  1  0.44391800  0.16688000  0.38298700  1
  O  O0  1  0.73259200  0.59269800  0.37537200  1
loop_
_geom_bond_atom_site_label_1
_geom_bond_atom_site_label_2
_geom_bond_distance
_geom_bond_site_symmetry_2
K0 O0 2.587021 1_555
K0 N1 2.956332 1_554
K1 N6 2.790872 1_555
K1 N2 2.863571 1_555
K1 N1 2.998945 1_555
K1 N0 3.006702 1_655
K2 O0 2.600333 1_455
K2 N3 2.900233 1_555
K2 N4 3.010339 1_565
K2 N5 3.138954 1_555
K3 N4 2.916953 1_555
K3 N0 2.952852 1_555
K3 N1 2.967732 1_555
K3 N6 3.037852 1_555
K3 N5 3.095267 1_555
K3 N3 3.256374 1_555
K4 O0 2.601763 1_555
K4 N3 2.883650 1_555
K4 N2 2.908523 1_565
K4 N5 3.145738 1_555
K4 N0 3.285961 1_554
C0 N0 1.178553 1_555
C0 Mo0 2.199741 1_455
C1 N1 1.180725 1_555
C1 Mo0 2.174568 1_555
C2 N2 1.177623 1_555
C2 Mo0 2.182235 1_544
C3 N3 1.176583 1_555
C3 Mo0 2.201631 1_444
C4 N4 1.180458 1_555
C4 Mo0 2.174529 1_445
C5 N5 1.182640 1_555
C5 Mo0 2.203272 1_555
C6 N6 1.179353 1_555
C6 Mo0 2.179019 1_444
