# generated using pymatgen
data_Nb2(CN2)3
_symmetry_space_group_name_H-M   'P 1'
_cell_length_a   10.63746859
_cell_length_b   5.38146842
_cell_length_c   30.53145411
_cell_angle_alpha   89.99999981
_cell_angle_beta   162.76416670
_cell_angle_gamma   75.34792991
_symmetry_Int_Tables_number   1
_chemical_formula_structural   Nb2(CN2)3
_chemical_formula_sum   'Nb4 C6 N12'
_cell_volume   269.71275432
_cell_formula_units_Z   2
loop_
 _symmetry_equiv_pos_site_id
 _symmetry_equiv_pos_as_xyz
  1  'x, y, z'
loop_
 _atom_site_type_symbol
 _atom_site_label
 _atom_site_symmetry_multiplicity
 _atom_site_fract_x
 _atom_site_fract_y
 _atom_site_fract_z
 _atom_site_occupancy
  Nb  Nb0  1  0.89551581  0.02359094  0.13221633  1
  Nb  Nb1  1  0.89551581  0.08089325  0.63221633  1
  Nb  Nb2  1  0.10449485  0.97641517  0.86780567  1
  Nb  Nb3  1  0.10449485  0.91908998  0.36780567  1
  C  C0  1  0.96242337  0.68185533  0.06487010  1
  C  C1  1  0.99999428  0.67310108  0.75000793  1
  C  C2  1  0.03758107  0.64427709  0.43514905  1
  C  C3  1  0.96242337  0.35572130  0.56487010  1
  C  C4  1  0.03758107  0.31814184  0.93514905  1
  C  C5  1  0.99999428  0.32690465  0.25000793  1
  N  N0  1  0.89140972  0.74595297  0.08123247  1
  N  N1  1  0.16433928  0.59549825  0.84409277  1
  N  N2  1  0.99210885  0.63053503  0.45972201  1
  N  N3  1  0.89140972  0.36263731  0.58123247  1
  N  N4  1  0.99210885  0.37735613  0.95972201  1
  N  N5  1  0.16433928  0.24016348  0.34409277  1
  N  N6  1  0.10858451  0.25405999  0.91878253  1
  N  N7  1  0.83566712  0.40450819  0.15592964  1
  N  N8  1  0.00788114  0.36948122  0.54029250  1
  N  N9  1  0.10858451  0.63735449  0.41878253  1
  N  N10  1  0.00788114  0.62263763  0.04029250  1
  N  N11  1  0.83566712  0.75982568  0.65592964  1
loop_
_geom_bond_atom_site_label_1
_geom_bond_atom_site_label_2
_geom_bond_distance
_geom_bond_site_symmetry_2
C0 N10 1.230297 1_655
C0 N0 1.236214 1_555
C1 N11 1.232941 1_555
C1 N1 1.232967 1_655
C2 N2 1.230294 1_455
C2 N9 1.236227 1_555
C3 N8 1.230297 1_655
C3 N3 1.236214 1_555
C4 N4 1.230294 1_455
C4 N6 1.236228 1_555
C5 N7 1.232941 1_555
C5 N5 1.232967 1_655
N0 Nb0 2.135515 1_565
N0 Nb2 2.150449 1_554
N1 Nb0 2.132013 1_556
N1 Nb2 2.313370 1_555
N2 Nb2 2.225446 1_745
N2 Nb0 2.289604 1_465
N3 Nb1 2.135514 1_555
N3 Nb3 2.150449 1_555
N4 Nb3 2.225446 1_746
N4 Nb1 2.289604 1_465
N5 Nb1 2.132010 1_555
N5 Nb3 2.313374 1_545
N6 Nb2 2.135476 1_545
N6 Nb0 2.150436 1_556
N7 Nb2 2.132050 1_554
N7 Nb0 2.313394 1_555
N8 Nb0 2.225409 1_365
N8 Nb2 2.289622 1_645
N9 Nb3 2.135480 1_555
N9 Nb1 2.150434 1_555
N10 Nb1 2.225409 1_364
N10 Nb3 2.289622 1_645
N11 Nb3 2.132052 1_555
N11 Nb1 2.313390 1_565
