# generated using pymatgen
data_NaMg14BiO16
_symmetry_space_group_name_H-M   'P 1'
_cell_length_a   8.72124523
_cell_length_b   8.72124523
_cell_length_c   4.40486891
_cell_angle_alpha   90.00000000
_cell_angle_beta   90.00000000
_cell_angle_gamma   90.00000000
_symmetry_Int_Tables_number   1
_chemical_formula_structural   NaMg14BiO16
_chemical_formula_sum   'Na1 Mg14 Bi1 O16'
_cell_volume   335.03485066
_cell_formula_units_Z   1
loop_
 _symmetry_equiv_pos_site_id
 _symmetry_equiv_pos_as_xyz
  1  'x, y, z'
loop_
 _atom_site_type_symbol
 _atom_site_label
 _atom_site_symmetry_multiplicity
 _atom_site_fract_x
 _atom_site_fract_y
 _atom_site_fract_z
 _atom_site_occupancy
  Na  Na0  1  0.00000000  0.00000000  0.00000000  1
  Mg  Mg0  1  0.00000000  0.50000000  0.00000000  1
  Mg  Mg1  1  0.50000000  0.00000000  0.00000000  1
  Mg  Mg2  1  0.00000000  0.24396930  0.50000000  1
  Mg  Mg3  1  0.00000000  0.75603070  0.50000000  1
  Mg  Mg4  1  0.50000000  0.23295945  0.50000000  1
  Mg  Mg5  1  0.50000000  0.76704055  0.50000000  1
  Mg  Mg6  1  0.24396930  0.00000000  0.50000000  1
  Mg  Mg7  1  0.23295945  0.50000000  0.50000000  1
  Mg  Mg8  1  0.75603070  0.00000000  0.50000000  1
  Mg  Mg9  1  0.76704055  0.50000000  0.50000000  1
  Mg  Mg10  1  0.23849287  0.23849287  0.00000000  1
  Mg  Mg11  1  0.23849287  0.76150713  -0.00000000  1
  Mg  Mg12  1  0.76150713  0.23849287  0.00000000  1
  Mg  Mg13  1  0.76150713  0.76150713  0.00000000  1
  Bi  Bi0  1  0.50000000  0.50000000  0.00000000  1
  O  O0  1  0.26287344  0.00000000  0.00000000  1
  O  O1  1  0.23470744  0.50000000  0.00000000  1
  O  O2  1  0.73712656  0.00000000  -0.00000000  1
  O  O3  1  0.76529256  0.50000000  -0.00000000  1
  O  O4  1  0.25196526  0.25196526  0.50000000  1
  O  O5  1  0.25196526  0.74803474  0.50000000  1
  O  O6  1  0.74803474  0.25196526  0.50000000  1
  O  O7  1  0.74803474  0.74803474  0.50000000  1
  O  O8  1  0.00000000  0.00000000  0.50000000  1
  O  O9  1  0.00000000  0.50000000  0.50000000  1
  O  O10  1  0.50000000  0.00000000  0.50000000  1
  O  O11  1  0.50000000  0.50000000  0.50000000  1
  O  O12  1  0.00000000  0.26287344  -0.00000000  1
  O  O13  1  0.00000000  0.73712656  0.00000000  1
  O  O14  1  0.50000000  0.23470744  0.00000000  1
  O  O15  1  0.50000000  0.76529256  -0.00000000  1
loop_
_geom_bond_atom_site_label_1
_geom_bond_atom_site_label_2
_geom_bond_distance
_geom_bond_site_symmetry_2
Na0 O8 2.202434 1_554
Na0 O8 2.202434 1_555
Na0 O2 2.292584 1_455
Na0 O0 2.292584 1_555
Na0 O13 2.292584 1_545
Na0 O12 2.292584 1_555
Mg0 O1 2.046941 1_555
Mg0 O3 2.046941 1_455
Mg0 O13 2.068039 1_555
Mg0 O12 2.068039 1_555
Mg0 O9 2.202434 1_555
Mg0 O9 2.202434 1_554
Mg1 O15 2.046941 1_545
Mg1 O14 2.046941 1_555
Mg1 O0 2.068039 1_555
Mg1 O2 2.068039 1_555
Mg1 O10 2.202434 1_555
Mg1 O10 2.202434 1_554
Mg2 O8 2.127716 1_555
Mg2 O6 2.198557 1_455
Mg2 O4 2.198557 1_555
Mg2 O12 2.208597 1_555
Mg2 O12 2.208597 1_556
Mg2 O9 2.232907 1_555
Mg3 O8 2.127716 1_565
Mg3 O7 2.198557 1_455
Mg3 O5 2.198557 1_555
Mg3 O13 2.208597 1_556
Mg3 O13 2.208597 1_555
Mg3 O9 2.232907 1_555
Mg4 O10 2.031696 1_555
Mg4 O4 2.169513 1_555
Mg4 O6 2.169513 1_555
Mg4 O14 2.202487 1_556
Mg4 O14 2.202487 1_555
Mg4 O11 2.328926 1_555
Mg5 O10 2.031696 1_565
Mg5 O5 2.169513 1_555
Mg5 O7 2.169513 1_555
Mg5 O15 2.202487 1_556
Mg5 O15 2.202487 1_555
Mg5 O11 2.328926 1_555
Mg6 O8 2.127716 1_555
Mg6 O5 2.198557 1_545
Mg6 O4 2.198557 1_555
Mg6 O0 2.208597 1_555
Mg6 O0 2.208597 1_556
Mg6 O10 2.232907 1_555
Mg7 O9 2.031696 1_555
Mg7 O4 2.169513 1_555
Mg7 O5 2.169513 1_555
Mg7 O1 2.202487 1_556
Mg7 O1 2.202487 1_555
Mg7 O11 2.328926 1_555
Mg8 O8 2.127716 1_655
Mg8 O7 2.198557 1_545
Mg8 O6 2.198557 1_555
Mg8 O2 2.208597 1_555
Mg8 O2 2.208597 1_556
Mg8 O10 2.232907 1_555
Mg9 O9 2.031696 1_655
Mg9 O6 2.169513 1_555
Mg9 O7 2.169513 1_555
Mg9 O3 2.202487 1_556
Mg9 O3 2.202487 1_555
Mg9 O11 2.328926 1_555
Mg10 O12 2.090795 1_555
Mg10 O0 2.090795 1_555
Mg10 O4 2.208694 1_555
Mg10 O4 2.208694 1_554
Mg10 O1 2.280907 1_555
Mg10 O14 2.280907 1_555
Mg11 O13 2.090795 1_555
Mg11 O0 2.090795 1_565
Mg11 O5 2.208694 1_554
Mg11 O5 2.208694 1_555
Mg11 O1 2.280907 1_555
Mg11 O15 2.280907 1_555
Mg12 O2 2.090795 1_555
Mg12 O12 2.090795 1_655
Mg12 O6 2.208694 1_555
Mg12 O6 2.208694 1_554
Mg12 O3 2.280907 1_555
Mg12 O14 2.280907 1_555
Mg13 O13 2.090795 1_655
Mg13 O2 2.090795 1_565
Mg13 O7 2.208694 1_555
Mg13 O7 2.208694 1_554
Mg13 O3 2.280907 1_555
Mg13 O15 2.280907 1_555
Bi0 O11 2.202434 1_554
Bi0 O11 2.202434 1_555
Bi0 O3 2.313681 1_555
Bi0 O1 2.313681 1_555
Bi0 O14 2.313681 1_555
Bi0 O15 2.313681 1_555
