# generated using pymatgen
data_MgMn2O4
_symmetry_space_group_name_H-M   'P 1'
_cell_length_a   5.77337309
_cell_length_b   5.77337309
_cell_length_c   10.90179554
_cell_angle_alpha   89.68738736
_cell_angle_beta   89.68738736
_cell_angle_gamma   59.15303398
_symmetry_Int_Tables_number   1
_chemical_formula_structural   MgMn2O4
_chemical_formula_sum   'Mg4 Mn8 O16'
_cell_volume   311.96739582
_cell_formula_units_Z   4
loop_
 _symmetry_equiv_pos_site_id
 _symmetry_equiv_pos_as_xyz
  1  'x, y, z'
loop_
 _atom_site_type_symbol
 _atom_site_label
 _atom_site_symmetry_multiplicity
 _atom_site_fract_x
 _atom_site_fract_y
 _atom_site_fract_z
 _atom_site_occupancy
  Mg  Mg0  1  0.00000000  0.50000000  0.00000000  1
  Mg  Mg1  1  0.50000000  0.00000000  0.50000000  1
  Mg  Mg2  1  0.98756100  0.01243900  0.25000000  1
  Mg  Mg3  1  0.01243900  0.98756100  0.75000000  1
  Mn  Mn0  1  0.27975300  0.77622500  0.01765200  1
  Mn  Mn1  1  0.22377500  0.72024700  0.48234800  1
  Mn  Mn2  1  0.72024700  0.22377500  0.98234800  1
  Mn  Mn3  1  0.77622500  0.27975300  0.51765200  1
  Mn  Mn4  1  0.71446600  0.73131100  0.76448700  1
  Mn  Mn5  1  0.73131100  0.71446600  0.26448700  1
  Mn  Mn6  1  0.26868900  0.28553400  0.73551300  1
  Mn  Mn7  1  0.28553400  0.26868900  0.23551300  1
  O  O0  1  0.91428200  0.88632900  0.07913400  1
  O  O1  1  0.88632900  0.91428200  0.57913400  1
  O  O2  1  0.37437100  0.40305100  0.06598100  1
  O  O3  1  0.40305100  0.37437100  0.56598100  1
  O  O4  1  0.37822600  0.90387600  0.18304000  1
  O  O5  1  0.37818500  0.92068500  0.67213900  1
  O  O6  1  0.92068500  0.37818500  0.17213900  1
  O  O7  1  0.90387600  0.37822600  0.68304000  1
  O  O8  1  0.62562900  0.59694900  0.93401900  1
  O  O9  1  0.59694900  0.62562900  0.43401900  1
  O  O10  1  0.08571800  0.11367100  0.92086600  1
  O  O11  1  0.11367100  0.08571800  0.42086600  1
  O  O12  1  0.07931500  0.62181500  0.82786100  1
  O  O13  1  0.09612400  0.62177400  0.31696000  1
  O  O14  1  0.62177400  0.09612400  0.81696000  1
  O  O15  1  0.62181500  0.07931500  0.32786100  1
loop_
_geom_bond_atom_site_label_1
_geom_bond_atom_site_label_2
_geom_bond_distance
_geom_bond_site_symmetry_2
Mg0 O2 2.067422 1_555
Mg0 O8 2.067422 1_454
Mg0 O6 2.128964 1_455
Mg0 O12 2.128964 1_554
Mg0 O0 2.201896 1_455
Mg0 O10 2.201896 1_554
Mg1 O3 2.067422 1_555
Mg1 O9 2.067422 1_545
Mg1 O5 2.128964 1_545
Mg1 O15 2.128964 1_555
Mg1 O1 2.201896 1_545
Mg1 O11 2.201896 1_555
Mg2 O15 2.115734 1_555
Mg2 O6 2.115734 1_555
Mg2 O11 2.125603 1_655
Mg2 O0 2.125603 1_545
Mg2 O13 2.133102 1_645
Mg2 O4 2.133102 1_645
Mg3 O12 2.115734 1_555
Mg3 O5 2.115734 1_555
Mg3 O10 2.125603 1_565
Mg3 O1 2.125603 1_455
Mg3 O14 2.133102 1_465
Mg3 O7 2.133102 1_465
Mn0 O8 1.939327 1_554
Mn0 O10 1.978920 1_564
Mn0 O0 1.979694 1_455
Mn0 O2 2.000398 1_555
Mn0 O4 2.138366 1_555
Mn1 O3 1.939327 1_555
Mn1 O1 1.978920 1_455
Mn1 O11 1.979694 1_565
Mn1 O9 2.000398 1_555
Mn1 O13 2.138366 1_555
Mn2 O2 1.939327 1_556
Mn2 O0 1.978920 1_546
Mn2 O10 1.979694 1_655
Mn2 O8 2.000398 1_555
Mn2 O14 2.138366 1_555
Mn3 O9 1.939327 1_555
Mn3 O11 1.978920 1_655
Mn3 O1 1.979694 1_545
Mn3 O3 2.000398 1_555
Mn3 O7 2.138366 1_555
Mn4 O5 1.952125 1_555
Mn4 O7 1.965408 1_555
Mn4 O14 1.975767 1_565
Mn4 O12 1.989848 1_655
Mn4 O8 2.159321 1_555
Mn4 O1 2.685752 1_555
Mn5 O6 1.952125 1_555
Mn5 O4 1.965408 1_555
Mn5 O13 1.975767 1_655
Mn5 O15 1.989848 1_565
Mn5 O9 2.159321 1_555
Mn5 O0 2.685752 1_555
Mn6 O12 1.952125 1_555
Mn6 O14 1.965408 1_555
Mn6 O7 1.975767 1_455
Mn6 O5 1.989848 1_545
Mn6 O3 2.159321 1_555
Mn6 O10 2.685752 1_555
Mn7 O15 1.952125 1_555
Mn7 O13 1.965408 1_555
Mn7 O4 1.975767 1_545
Mn7 O6 1.989848 1_455
Mn7 O2 2.159321 1_555
Mn7 O11 2.685752 1_555
