# generated using pymatgen
data_MgGa2
_symmetry_space_group_name_H-M   'P 1'
_cell_length_a   15.24316302
_cell_length_b   15.24316302
_cell_length_c   9.24281788
_cell_angle_alpha   90.00000000
_cell_angle_beta   90.00000000
_cell_angle_gamma   155.43927356
_symmetry_Int_Tables_number   1
_chemical_formula_structural   MgGa2
_chemical_formula_sum   'Mg16 Ga32'
_cell_volume   892.66839688
_cell_formula_units_Z   16
loop_
 _symmetry_equiv_pos_site_id
 _symmetry_equiv_pos_as_xyz
  1  'x, y, z'
loop_
 _atom_site_type_symbol
 _atom_site_label
 _atom_site_symmetry_multiplicity
 _atom_site_fract_x
 _atom_site_fract_y
 _atom_site_fract_z
 _atom_site_occupancy
  Mg  Mg0_0  1  0.05346185  0.44653815  0.25000000  1
  Mg  Mg0_1  1  0.05346185  0.44653815  0.75000000  1
  Mg  Mg0_2  1  0.05346184  0.94653816  0.25000000  1
  Mg  Mg0_3  1  0.05346184  0.94653816  0.75000000  1
  Mg  Mg0_4  1  0.55346184  0.44653815  0.25000000  1
  Mg  Mg0_5  1  0.55346184  0.44653815  0.75000000  1
  Mg  Mg0_6  1  0.55346184  0.94653816  0.25000000  1
  Mg  Mg0_7  1  0.55346184  0.94653816  0.75000000  1
  Mg  Mg1_0  1  0.39325567  0.10674433  0.25000000  1
  Mg  Mg1_1  1  0.39325567  0.10674433  0.75000000  1
  Mg  Mg1_2  1  0.39325567  0.60674433  0.25000000  1
  Mg  Mg1_3  1  0.39325567  0.60674433  0.75000000  1
  Mg  Mg1_4  1  0.89325567  0.10674433  0.25000000  1
  Mg  Mg1_5  1  0.89325567  0.10674433  0.75000000  1
  Mg  Mg1_6  1  0.89325567  0.60674433  0.25000000  1
  Mg  Mg1_7  1  0.89325567  0.60674433  0.75000000  1
  Ga  Ga0_0  1  0.49442094  0.00557906  0.00000000  1
  Ga  Ga0_1  1  0.49442094  0.00557906  0.50000000  1
  Ga  Ga0_2  1  0.49442094  0.50557906  0.00000000  1
  Ga  Ga0_3  1  0.49442094  0.50557906  0.50000000  1
  Ga  Ga0_4  1  0.99442094  0.00557906  0.00000000  1
  Ga  Ga0_5  1  0.99442094  0.00557906  0.50000000  1
  Ga  Ga0_6  1  0.99442094  0.50557906  0.00000000  1
  Ga  Ga0_7  1  0.99442094  0.50557906  0.50000000  1
  Ga  Ga1_0  1  0.16656565  0.33343435  0.00000000  1
  Ga  Ga1_1  1  0.16656565  0.33343435  0.50000000  1
  Ga  Ga1_2  1  0.16656565  0.83343435  0.00000000  1
  Ga  Ga1_3  1  0.16656565  0.83343435  0.50000000  1
  Ga  Ga1_4  1  0.66656565  0.33343435  0.00000000  1
  Ga  Ga1_5  1  0.66656565  0.33343435  0.50000000  1
  Ga  Ga1_6  1  0.66656565  0.83343435  0.00000000  1
  Ga  Ga1_7  1  0.66656565  0.83343435  0.50000000  1
  Ga  Ga2_0  1  0.33516119  0.16483881  0.00000000  1
  Ga  Ga2_1  1  0.33516119  0.16483881  0.50000000  1
  Ga  Ga2_2  1  0.33516119  0.66483881  0.00000000  1
  Ga  Ga2_3  1  0.33516119  0.66483881  0.50000000  1
  Ga  Ga2_4  1  0.83516119  0.16483881  0.00000000  1
  Ga  Ga2_5  1  0.83516119  0.16483881  0.50000000  1
  Ga  Ga2_6  1  0.83516119  0.66483881  0.00000000  1
  Ga  Ga2_7  1  0.83516119  0.66483881  0.50000000  1
  Ga  Ga3_0  1  0.22380221  0.27619779  0.25000000  1
  Ga  Ga3_1  1  0.22380221  0.27619779  0.75000000  1
  Ga  Ga3_2  1  0.22380221  0.77619779  0.25000000  1
  Ga  Ga3_3  1  0.22380221  0.77619779  0.75000000  1
  Ga  Ga3_4  1  0.72380221  0.27619779  0.25000000  1
  Ga  Ga3_5  1  0.72380221  0.27619779  0.75000000  1
  Ga  Ga3_6  1  0.72380221  0.77619779  0.25000000  1
  Ga  Ga3_7  1  0.72380221  0.77619779  0.75000000  1
loop_
_geom_bond_atom_site_label_1
_geom_bond_atom_site_label_2
_geom_bond_distance
_geom_bond_site_symmetry_2
Mg0_0 Mg1_4 3.127729 1_455
Mg0_0 Mg1_2 3.127729 1_555
Mg0_0 Mg0_6 3.242152 1_445
Mg0_0 Mg0_6 3.242152 1_555
Mg0_1 Mg1_5 3.127729 1_455
Mg0_1 Mg1_3 3.127729 1_555
Mg0_1 Mg0_7 3.242152 1_555
Mg0_1 Mg0_7 3.242152 1_445
Mg0_2 Mg1_0 3.127729 1_565
Mg0_2 Mg1_6 3.127729 1_455
Mg0_2 Mg0_4 3.242152 1_455
Mg0_2 Mg0_4 3.242152 1_565
Mg0_3 Mg1_1 3.127729 1_565
Mg0_3 Mg1_7 3.127729 1_455
Mg0_3 Mg0_5 3.242152 1_565
Mg0_3 Mg0_5 3.242152 1_455
Mg0_4 Mg1_0 3.127729 1_555
Mg0_4 Mg1_6 3.127729 1_555
Mg0_5 Mg1_1 3.127729 1_555
Mg0_5 Mg1_7 3.127729 1_555
Mg0_6 Mg1_4 3.127729 1_565
Mg0_6 Mg1_2 3.127729 1_555
Mg0_7 Mg1_5 3.127729 1_565
Mg0_7 Mg1_3 3.127729 1_555
Mg1_0 Mg1_6 3.242152 1_555
Mg1_0 Mg1_6 3.242152 1_445
Mg1_1 Mg1_7 3.242152 1_445
Mg1_1 Mg1_7 3.242152 1_555
Mg1_2 Mg1_4 3.242152 1_565
Mg1_2 Mg1_4 3.242152 1_455
Mg1_3 Mg1_5 3.242152 1_455
Mg1_3 Mg1_5 3.242152 1_565
Ga0_0 Ga1_4 2.829599 1_555
Ga0_0 Ga1_2 2.829599 1_545
Ga0_0 Ga3_5 2.888683 1_554
Ga0_0 Ga3_2 2.888683 1_545
Ga0_0 Ga3_4 2.888683 1_555
Ga0_0 Ga3_3 2.888683 1_544
Ga0_0 Mg0_7 2.903890 1_544
Ga0_0 Mg0_6 2.903890 1_545
Ga0_1 Ga1_5 2.829599 1_555
Ga0_1 Ga1_3 2.829599 1_545
Ga0_1 Ga3_3 2.888683 1_545
Ga0_1 Ga3_5 2.888683 1_555
Ga0_1 Ga3_2 2.888683 1_545
Ga0_1 Ga3_4 2.888683 1_555
Ga0_1 Mg0_7 2.903890 1_545
Ga0_1 Mg0_6 2.903890 1_545
Ga0_2 Ga1_6 2.829599 1_555
Ga0_2 Ga1_0 2.829599 1_555
Ga0_2 Ga3_6 2.888683 1_555
Ga0_2 Ga3_0 2.888683 1_555
Ga0_2 Ga3_1 2.888683 1_554
Ga0_2 Ga3_7 2.888683 1_554
Ga0_2 Mg0_4 2.903890 1_555
Ga0_2 Mg0_5 2.903890 1_554
Ga0_3 Ga1_7 2.829599 1_555
Ga0_3 Ga1_1 2.829599 1_555
Ga0_3 Ga3_6 2.888683 1_555
Ga0_3 Ga3_7 2.888683 1_555
Ga0_3 Ga3_0 2.888683 1_555
Ga0_3 Ga3_1 2.888683 1_555
Ga0_3 Mg0_5 2.903890 1_555
Ga0_3 Mg0_4 2.903890 1_555
Ga0_4 Ga1_6 2.829599 1_545
Ga0_4 Ga1_0 2.829599 1_655
Ga0_4 Ga3_6 2.888683 1_545
Ga0_4 Ga3_7 2.888683 1_544
Ga0_4 Ga3_0 2.888683 1_655
Ga0_4 Ga3_1 2.888683 1_654
Ga0_4 Mg0_2 2.903890 1_645
Ga0_4 Mg0_3 2.903890 1_644
Ga0_5 Ga1_1 2.829599 1_655
Ga0_5 Ga1_7 2.829599 1_545
Ga0_5 Ga3_6 2.888683 1_545
Ga0_5 Ga3_1 2.888683 1_655
Ga0_5 Ga3_7 2.888683 1_545
Ga0_5 Ga3_0 2.888683 1_655
Ga0_5 Mg0_2 2.903890 1_645
Ga0_5 Mg0_3 2.903890 1_645
Ga0_6 Ga1_2 2.829599 1_655
Ga0_6 Ga1_4 2.829599 1_555
Ga0_6 Ga3_5 2.888683 1_554
Ga0_6 Ga3_3 2.888683 1_654
Ga0_6 Ga3_2 2.888683 1_655
Ga0_6 Ga3_4 2.888683 1_555
Ga0_6 Mg0_0 2.903890 1_655
Ga0_6 Mg0_1 2.903890 1_654
Ga0_7 Ga1_3 2.829599 1_655
Ga0_7 Ga1_5 2.829599 1_555
Ga0_7 Ga3_3 2.888683 1_655
Ga0_7 Ga3_5 2.888683 1_555
Ga0_7 Ga3_2 2.888683 1_655
Ga0_7 Ga3_4 2.888683 1_555
Ga0_7 Mg0_0 2.903890 1_655
Ga0_7 Mg0_1 2.903890 1_655
Ga1_0 Ga3_0 2.871655 1_555
Ga1_0 Ga3_1 2.871655 1_554
Ga1_0 Mg1_5 2.906785 1_454
Ga1_0 Mg1_4 2.906785 1_455
Ga1_0 Mg1_3 2.906785 1_554
Ga1_0 Mg1_2 2.906785 1_555
Ga1_0 Ga2_4 2.916884 1_455
Ga1_0 Ga2_2 2.916884 1_555
Ga1_1 Ga3_0 2.871655 1_555
Ga1_1 Ga3_1 2.871655 1_555
Ga1_1 Mg1_5 2.906785 1_455
Ga1_1 Mg1_4 2.906785 1_455
Ga1_1 Mg1_2 2.906785 1_555
Ga1_1 Mg1_3 2.906785 1_555
Ga1_1 Ga2_5 2.916884 1_455
Ga1_1 Ga2_3 2.916884 1_555
Ga1_2 Ga3_3 2.871655 1_554
Ga1_2 Ga3_2 2.871655 1_555
Ga1_2 Mg1_6 2.906785 1_455
Ga1_2 Mg1_7 2.906785 1_454
Ga1_2 Mg1_1 2.906785 1_564
Ga1_2 Mg1_0 2.906785 1_565
Ga1_2 Ga2_6 2.916884 1_455
Ga1_2 Ga2_0 2.916884 1_565
Ga1_3 Ga3_2 2.871655 1_555
Ga1_3 Ga3_3 2.871655 1_555
Ga1_3 Mg1_6 2.906785 1_455
Ga1_3 Mg1_7 2.906785 1_455
Ga1_3 Mg1_1 2.906785 1_565
Ga1_3 Mg1_0 2.906785 1_565
Ga1_3 Ga2_7 2.916884 1_455
Ga1_3 Ga2_1 2.916884 1_565
Ga1_4 Ga3_5 2.871655 1_554
Ga1_4 Ga3_4 2.871655 1_555
Ga1_4 Mg1_0 2.906785 1_555
Ga1_4 Mg1_1 2.906785 1_554
Ga1_4 Mg1_6 2.906785 1_555
Ga1_4 Mg1_7 2.906785 1_554
Ga1_4 Ga2_0 2.916884 1_555
Ga1_4 Ga2_6 2.916884 1_555
Ga1_5 Ga3_5 2.871655 1_555
Ga1_5 Ga3_4 2.871655 1_555
Ga1_5 Mg1_1 2.906785 1_555
Ga1_5 Mg1_0 2.906785 1_555
Ga1_5 Mg1_7 2.906785 1_555
Ga1_5 Mg1_6 2.906785 1_555
Ga1_5 Ga2_1 2.916884 1_555
Ga1_5 Ga2_7 2.916884 1_555
Ga1_6 Ga3_7 2.871655 1_554
Ga1_6 Ga3_6 2.871655 1_555
Ga1_6 Mg1_2 2.906785 1_555
Ga1_6 Mg1_3 2.906785 1_554
Ga1_6 Mg1_4 2.906785 1_565
Ga1_6 Mg1_5 2.906785 1_564
Ga1_6 Ga2_2 2.916884 1_555
Ga1_6 Ga2_4 2.916884 1_565
Ga1_7 Ga3_6 2.871655 1_555
Ga1_7 Ga3_7 2.871655 1_555
Ga1_7 Mg1_2 2.906785 1_555
Ga1_7 Mg1_3 2.906785 1_555
Ga1_7 Mg1_4 2.906785 1_565
Ga1_7 Mg1_5 2.906785 1_565
Ga1_7 Ga2_3 2.916884 1_555
Ga1_7 Ga2_5 2.916884 1_565
Ga2_0 Mg1_1 2.886902 1_554
Ga2_0 Mg1_0 2.886902 1_555
Ga2_0 Mg0_5 2.976393 1_554
Ga2_0 Mg0_4 2.976393 1_555
Ga2_0 Mg0_2 2.976393 1_545
Ga2_0 Mg0_3 2.976393 1_544
Ga2_1 Mg1_0 2.886902 1_555
Ga2_1 Mg1_1 2.886902 1_555
Ga2_1 Mg0_4 2.976393 1_555
Ga2_1 Mg0_5 2.976393 1_555
Ga2_1 Mg0_2 2.976393 1_545
Ga2_1 Mg0_3 2.976393 1_545
Ga2_2 Mg1_2 2.886902 1_555
Ga2_2 Mg1_3 2.886902 1_554
Ga2_2 Mg0_1 2.976393 1_554
Ga2_2 Mg0_0 2.976393 1_555
Ga2_2 Mg0_7 2.976393 1_554
Ga2_2 Mg0_6 2.976393 1_555
Ga2_3 Mg1_3 2.886902 1_555
Ga2_3 Mg1_2 2.886902 1_555
Ga2_3 Mg0_1 2.976393 1_555
Ga2_3 Mg0_0 2.976393 1_555
Ga2_3 Mg0_6 2.976393 1_555
Ga2_3 Mg0_7 2.976393 1_555
Ga2_4 Mg1_4 2.886902 1_555
Ga2_4 Mg1_5 2.886902 1_554
Ga2_4 Mg0_0 2.976393 1_655
Ga2_4 Mg0_1 2.976393 1_654
Ga2_4 Mg0_7 2.976393 1_544
Ga2_4 Mg0_6 2.976393 1_545
Ga2_5 Mg1_4 2.886902 1_555
Ga2_5 Mg1_5 2.886902 1_555
Ga2_5 Mg0_0 2.976393 1_655
Ga2_5 Mg0_1 2.976393 1_655
Ga2_5 Mg0_6 2.976393 1_545
Ga2_5 Mg0_7 2.976393 1_545
Ga2_6 Mg1_6 2.886902 1_555
Ga2_6 Mg1_7 2.886902 1_554
Ga2_6 Mg0_2 2.976393 1_655
Ga2_6 Mg0_5 2.976393 1_554
Ga2_6 Mg0_4 2.976393 1_555
Ga2_6 Mg0_3 2.976393 1_654
Ga2_7 Mg1_6 2.886902 1_555
Ga2_7 Mg1_7 2.886902 1_555
Ga2_7 Mg0_5 2.976393 1_555
Ga2_7 Mg0_2 2.976393 1_655
Ga2_7 Mg0_4 2.976393 1_555
Ga2_7 Mg0_3 2.976393 1_655
Ga3_0 Mg0_2 2.873818 1_545
Ga3_0 Mg0_4 2.873818 1_555
Ga3_0 Mg1_2 2.895672 1_555
Ga3_0 Mg1_4 2.895672 1_455
Ga3_1 Mg0_3 2.873818 1_545
Ga3_1 Mg0_5 2.873818 1_555
Ga3_1 Mg1_3 2.895672 1_555
Ga3_1 Mg1_5 2.895672 1_455
Ga3_2 Mg0_6 2.873818 1_555
Ga3_2 Mg0_0 2.873818 1_555
Ga3_2 Mg1_6 2.895672 1_455
Ga3_2 Mg1_0 2.895672 1_565
Ga3_3 Mg0_7 2.873818 1_555
Ga3_3 Mg0_1 2.873818 1_555
Ga3_3 Mg1_7 2.895672 1_455
Ga3_3 Mg1_1 2.895672 1_565
Ga3_4 Mg0_6 2.873818 1_545
Ga3_4 Mg0_0 2.873818 1_655
Ga3_4 Mg1_6 2.895672 1_555
Ga3_4 Mg1_0 2.895672 1_555
Ga3_5 Mg0_7 2.873818 1_545
Ga3_5 Mg0_1 2.873818 1_655
Ga3_5 Mg1_7 2.895672 1_555
Ga3_5 Mg1_1 2.895672 1_555
Ga3_6 Mg0_2 2.873818 1_655
Ga3_6 Mg0_4 2.873818 1_555
Ga3_6 Mg1_2 2.895672 1_555
Ga3_6 Mg1_4 2.895672 1_565
Ga3_7 Mg0_3 2.873818 1_655
Ga3_7 Mg0_5 2.873818 1_555
Ga3_7 Mg1_3 2.895672 1_555
Ga3_7 Mg1_5 2.895672 1_565
