# generated using pymatgen
data_SrCeEuSbO6
_symmetry_space_group_name_H-M   'P 1'
_cell_length_a   5.97170104
_cell_length_b   5.97170104
_cell_length_c   8.65325424
_cell_angle_alpha   90.00000000
_cell_angle_beta   90.00000000
_cell_angle_gamma   90.00000000
_symmetry_Int_Tables_number   1
_chemical_formula_structural   SrCeEuSbO6
_chemical_formula_sum   'Sr2 Ce2 Eu2 Sb2 O12'
_cell_volume   308.58554529
_cell_formula_units_Z   2
loop_
 _symmetry_equiv_pos_site_id
 _symmetry_equiv_pos_as_xyz
  1  'x, y, z'
loop_
 _atom_site_type_symbol
 _atom_site_label
 _atom_site_symmetry_multiplicity
 _atom_site_fract_x
 _atom_site_fract_y
 _atom_site_fract_z
 _atom_site_occupancy
  Sr  Sr0  1  0.50000000  0.00000000  0.25000000  1
  Sr  Sr1  1  -0.00000000  0.50000000  0.75000000  1
  Ce  Ce0  1  -0.00000000  0.00000000  0.00000000  1
  Ce  Ce1  1  0.50000000  0.50000000  0.50000000  1
  Eu  Eu0  1  -0.00000000  0.50000000  0.25000000  1
  Eu  Eu1  1  0.50000000  0.00000000  0.75000000  1
  Sb  Sb0  1  -0.00000000  0.00000000  0.50000000  1
  Sb  Sb1  1  0.50000000  0.50000000  0.00000000  1
  O  O0  1  -0.00000000  0.00000000  0.26037293  1
  O  O1  1  0.50000000  0.50000000  0.23962707  1
  O  O2  1  -0.00000000  0.00000000  0.73962707  1
  O  O3  1  0.50000000  0.50000000  0.76037293  1
  O  O4  1  0.33632881  0.19197803  0.99755820  1
  O  O5  1  0.66367119  0.80802197  0.99755820  1
  O  O6  1  0.80802197  0.33632881  0.00244180  1
  O  O7  1  0.19197803  0.66367119  0.00244180  1
  O  O8  1  0.83632881  0.30802197  0.49755820  1
  O  O9  1  0.16367119  0.69197803  0.49755820  1
  O  O10  1  0.30802197  0.16367119  0.50244180  1
  O  O11  1  0.69197803  0.83632881  0.50244180  1
loop_
_geom_bond_atom_site_label_1
_geom_bond_atom_site_label_2
_geom_bond_distance
_geom_bond_site_symmetry_2
Ce0 O2 2.253073 1_554
Ce0 O0 2.253073 1_555
Ce0 O4 2.312715 1_554
Ce0 O5 2.312715 1_444
Ce0 O7 2.312715 1_545
Ce0 O6 2.312715 1_455
Ce1 O1 2.253073 1_555
Ce1 O3 2.253073 1_555
Ce1 O10 2.312715 1_555
Ce1 O8 2.312715 1_555
Ce1 O11 2.312715 1_555
Ce1 O9 2.312715 1_555
Eu0 O8 2.618887 1_455
Eu0 O9 2.618887 1_555
Eu0 O6 2.618887 1_455
Eu0 O7 2.618887 1_555
Eu0 O0 2.987199 1_555
Eu0 O1 2.987199 1_455
Eu0 O1 2.987199 1_555
Eu0 O0 2.987199 1_565
Eu1 O5 2.618887 1_545
Eu1 O4 2.618887 1_555
Eu1 O10 2.618887 1_555
Eu1 O11 2.618887 1_545
Eu1 O2 2.987199 1_555
Eu1 O3 2.987199 1_555
Eu1 O2 2.987199 1_655
Eu1 O3 2.987199 1_545
O0 Sb0 2.073554 1_555
O0 Sr0 2.987199 1_555
O0 Sr0 2.987199 1_455
O1 Sb1 2.073554 1_555
O1 Sr0 2.987199 1_555
O1 Sr0 2.987199 1_565
O2 Sb0 2.073554 1_555
O2 Sr1 2.987199 1_545
O2 Sr1 2.987199 1_555
O3 Sb1 2.073554 1_556
O3 Sr1 2.987199 1_655
O3 Sr1 2.987199 1_555
O4 Sb1 2.083074 1_556
O4 Sr0 2.653565 1_556
O5 Sb1 2.083074 1_556
O5 Sr0 2.653565 1_566
O6 Sb1 2.083074 1_555
O6 Sr1 2.653565 1_654
O7 Sb1 2.083074 1_555
O7 Sr1 2.653565 1_554
O8 Sb0 2.083074 1_655
O8 Sr1 2.653565 1_655
O9 Sb0 2.083074 1_565
O9 Sr1 2.653565 1_555
O10 Sb0 2.083074 1_555
O10 Sr0 2.653565 1_555
O11 Sb0 2.083074 1_665
O11 Sr0 2.653565 1_565
