# generated using pymatgen
data_LiMg14BiO16
_symmetry_space_group_name_H-M   'P 1'
_cell_length_a   8.56367343
_cell_length_b   8.55077485
_cell_length_c   4.31267272
_cell_angle_alpha   90.00000000
_cell_angle_beta   90.00000000
_cell_angle_gamma   90.00000000
_symmetry_Int_Tables_number   1
_chemical_formula_structural   LiMg14BiO16
_chemical_formula_sum   'Li1 Mg14 Bi1 O16'
_cell_volume   315.79995972
_cell_formula_units_Z   1
loop_
 _symmetry_equiv_pos_site_id
 _symmetry_equiv_pos_as_xyz
  1  'x, y, z'
loop_
 _atom_site_type_symbol
 _atom_site_label
 _atom_site_symmetry_multiplicity
 _atom_site_fract_x
 _atom_site_fract_y
 _atom_site_fract_z
 _atom_site_occupancy
  Li  Li0  1  0.00000000  0.00000000  -0.00000000  1
  Mg  Mg0  1  0.50000000  0.00000000  -0.00000000  1
  Mg  Mg1  1  0.50000000  0.50000000  -0.00000000  1
  Mg  Mg2  1  0.00000000  0.22873496  0.50000000  1
  Mg  Mg3  1  0.00000000  0.77126504  0.50000000  1
  Mg  Mg4  1  0.50000000  0.24504700  0.50000000  1
  Mg  Mg5  1  0.50000000  0.75495300  0.50000000  1
  Mg  Mg6  1  0.24524358  0.00000000  0.50000000  1
  Mg  Mg7  1  0.26387152  0.50000000  0.50000000  1
  Mg  Mg8  1  0.75475642  0.00000000  0.50000000  1
  Mg  Mg9  1  0.73612848  0.50000000  0.50000000  1
  Mg  Mg10  1  0.25404010  0.23636043  -0.00000000  1
  Mg  Mg11  1  0.25404010  0.76363957  -0.00000000  1
  Mg  Mg12  1  0.74595990  0.23636043  0.00000000  1
  Mg  Mg13  1  0.74595990  0.76363957  0.00000000  1
  Bi  Bi0  1  0.00000000  0.50000000  -0.00000000  1
  O  O0  1  0.26215893  0.00000000  -0.00000000  1
  O  O1  1  0.26818641  0.50000000  -0.00000000  1
  O  O2  1  0.73784107  0.00000000  -0.00000000  1
  O  O3  1  0.73181359  0.50000000  -0.00000000  1
  O  O4  1  0.24885651  0.25214149  0.50000000  1
  O  O5  1  0.24885651  0.74785851  0.50000000  1
  O  O6  1  0.75114349  0.25214149  0.50000000  1
  O  O7  1  0.75114349  0.74785851  0.50000000  1
  O  O8  1  0.00000000  0.00000000  0.50000000  1
  O  O9  1  0.00000000  0.50000000  0.50000000  1
  O  O10  1  0.50000000  0.00000000  0.50000000  1
  O  O11  1  0.50000000  0.50000000  0.50000000  1
  O  O12  1  0.00000000  0.23293042  -0.00000000  1
  O  O13  1  0.00000000  0.76706958  0.00000000  1
  O  O14  1  0.50000000  0.24943570  -0.00000000  1
  O  O15  1  0.50000000  0.75056430  0.00000000  1
loop_
_geom_bond_atom_site_label_1
_geom_bond_atom_site_label_2
_geom_bond_distance
_geom_bond_site_symmetry_2
Li0 O13 1.991736 1_545
Li0 O12 1.991736 1_555
Li0 O8 2.156336 1_554
Li0 O8 2.156336 1_555
Li0 O0 2.245043 1_555
Li0 O2 2.245043 1_455
Mg0 O2 2.036793 1_555
Mg0 O0 2.036793 1_555
Mg0 O14 2.132869 1_555
Mg0 O15 2.132869 1_545
Mg0 O10 2.156336 1_555
Mg0 O10 2.156336 1_554
Mg1 O3 1.985176 1_555
Mg1 O1 1.985176 1_555
Mg1 O15 2.142519 1_555
Mg1 O14 2.142519 1_555
Mg1 O11 2.156336 1_555
Mg1 O11 2.156336 1_554
Mg2 O8 1.955861 1_555
Mg2 O6 2.140503 1_455
Mg2 O4 2.140503 1_555
Mg2 O12 2.156635 1_556
Mg2 O12 2.156635 1_555
Mg2 O9 2.319526 1_555
Mg3 O8 1.955861 1_565
Mg3 O7 2.140503 1_455
Mg3 O5 2.140503 1_555
Mg3 O13 2.156635 1_555
Mg3 O13 2.156635 1_556
Mg3 O9 2.319526 1_555
Mg4 O10 2.095342 1_555
Mg4 O4 2.151566 1_555
Mg4 O6 2.151566 1_555
Mg4 O14 2.156663 1_556
Mg4 O14 2.156663 1_555
Mg4 O11 2.180046 1_555
Mg5 O10 2.095342 1_565
Mg5 O5 2.151566 1_555
Mg5 O7 2.151566 1_555
Mg5 O15 2.156663 1_556
Mg5 O15 2.156663 1_555
Mg5 O11 2.180046 1_555
Mg6 O8 2.100186 1_555
Mg6 O5 2.156227 1_545
Mg6 O4 2.156227 1_555
Mg6 O0 2.161196 1_555
Mg6 O0 2.161196 1_556
Mg6 O10 2.181651 1_555
Mg7 O11 2.022127 1_555
Mg7 O4 2.123279 1_555
Mg7 O5 2.123279 1_555
Mg7 O1 2.156653 1_556
Mg7 O1 2.156653 1_555
Mg7 O9 2.259710 1_555
Mg8 O8 2.100186 1_655
Mg8 O7 2.156227 1_545
Mg8 O6 2.156227 1_555
Mg8 O2 2.161196 1_555
Mg8 O2 2.161196 1_556
Mg8 O10 2.181651 1_555
Mg9 O11 2.022127 1_555
Mg9 O6 2.123279 1_555
Mg9 O7 2.123279 1_555
Mg9 O3 2.156653 1_556
Mg9 O3 2.156653 1_555
Mg9 O9 2.259710 1_655
Mg10 O0 2.022260 1_555
Mg10 O14 2.109285 1_555
Mg10 O4 2.161010 1_554
Mg10 O4 2.161010 1_555
Mg10 O12 2.175714 1_555
Mg10 O1 2.257575 1_555
Mg11 O0 2.022260 1_565
Mg11 O15 2.109285 1_555
Mg11 O5 2.161010 1_554
Mg11 O5 2.161010 1_555
Mg11 O13 2.175714 1_555
Mg11 O1 2.257575 1_555
Mg12 O2 2.022260 1_555
Mg12 O14 2.109285 1_555
Mg12 O6 2.161010 1_555
Mg12 O6 2.161010 1_554
Mg12 O12 2.175714 1_655
Mg12 O3 2.257575 1_555
Mg13 O2 2.022260 1_565
Mg13 O15 2.109285 1_555
Mg13 O7 2.161010 1_555
Mg13 O7 2.161010 1_554
Mg13 O13 2.175714 1_655
Mg13 O3 2.257575 1_555
Bi0 O9 2.156336 1_554
Bi0 O9 2.156336 1_555
Bi0 O12 2.283652 1_555
Bi0 O13 2.283652 1_555
Bi0 O3 2.296661 1_455
Bi0 O1 2.296661 1_555
