# generated using pymatgen
data_GaFe
_symmetry_space_group_name_H-M   'P 1'
_cell_length_a   5.49626105
_cell_length_b   5.49626105
_cell_length_c   8.06156400
_cell_angle_alpha   90.00000000
_cell_angle_beta   90.00000000
_cell_angle_gamma   120.00001266
_symmetry_Int_Tables_number   1
_chemical_formula_structural   GaFe
_chemical_formula_sum   'Ga8 Fe8'
_cell_volume   210.90388810
_cell_formula_units_Z   8
loop_
 _symmetry_equiv_pos_site_id
 _symmetry_equiv_pos_as_xyz
  1  'x, y, z'
loop_
 _atom_site_type_symbol
 _atom_site_label
 _atom_site_symmetry_multiplicity
 _atom_site_fract_x
 _atom_site_fract_y
 _atom_site_fract_z
 _atom_site_occupancy
  Ga  Ga0_0  1  0.00000000  0.00000000  0.25000000  1
  Ga  Ga0_1  1  0.00000000  0.00000000  0.75000000  1
  Ga  Ga0_2  1  0.00000000  0.50000000  0.25000000  1
  Ga  Ga0_3  1  0.00000000  0.50000000  0.75000000  1
  Ga  Ga0_4  1  0.50000000  0.00000000  0.25000000  1
  Ga  Ga0_5  1  0.50000000  0.00000000  0.75000000  1
  Ga  Ga0_6  1  0.50000000  0.50000000  0.25000000  1
  Ga  Ga0_7  1  0.50000000  0.50000000  0.75000000  1
  Fe  Fe0_0  1  0.33333350  0.16666650  0.00000000  1
  Fe  Fe0_1  1  0.33333350  0.16666650  0.50000000  1
  Fe  Fe0_2  1  0.33333350  0.66666650  0.00000000  1
  Fe  Fe0_3  1  0.33333350  0.66666650  0.50000000  1
  Fe  Fe0_4  1  0.83333350  0.16666650  0.00000000  1
  Fe  Fe0_5  1  0.83333350  0.16666650  0.50000000  1
  Fe  Fe0_6  1  0.83333350  0.66666650  0.00000000  1
  Fe  Fe0_7  1  0.83333350  0.66666650  0.50000000  1
loop_
_geom_bond_atom_site_label_1
_geom_bond_atom_site_label_2
_geom_bond_distance
_geom_bond_site_symmetry_2
Ga0_0 Ga0_6 2.748130 1_555
Ga0_0 Ga0_6 2.748130 1_445
Ga0_0 Ga0_2 2.748131 1_545
Ga0_0 Ga0_4 2.748131 1_455
Ga0_0 Ga0_2 2.748131 1_555
Ga0_0 Ga0_4 2.748131 1_555
Ga0_1 Ga0_7 2.748130 1_445
Ga0_1 Ga0_7 2.748130 1_555
Ga0_1 Ga0_5 2.748131 1_455
Ga0_1 Ga0_5 2.748131 1_555
Ga0_1 Ga0_3 2.748131 1_545
Ga0_1 Ga0_3 2.748131 1_555
Ga0_2 Ga0_4 2.748130 1_455
Ga0_2 Ga0_4 2.748130 1_565
Ga0_2 Ga0_6 2.748131 1_555
Ga0_2 Ga0_6 2.748131 1_455
Ga0_3 Ga0_5 2.748130 1_565
Ga0_3 Ga0_5 2.748130 1_455
Ga0_3 Ga0_7 2.748131 1_555
Ga0_3 Ga0_7 2.748131 1_455
Ga0_4 Ga0_6 2.748131 1_555
Ga0_4 Ga0_6 2.748131 1_545
Ga0_5 Ga0_7 2.748131 1_555
Ga0_5 Ga0_7 2.748131 1_545
Fe0_0 Ga0_5 2.564996 1_554
Fe0_0 Ga0_4 2.564996 1_555
Fe0_0 Ga0_1 2.564997 1_554
Fe0_0 Ga0_0 2.564997 1_555
Fe0_0 Ga0_7 2.564997 1_554
Fe0_0 Ga0_6 2.564997 1_555
Fe0_0 Fe0_6 2.748130 1_445
Fe0_0 Fe0_6 2.748130 1_555
Fe0_0 Fe0_4 2.748131 1_455
Fe0_0 Fe0_2 2.748131 1_555
Fe0_0 Fe0_4 2.748131 1_555
Fe0_0 Fe0_2 2.748131 1_545
Fe0_1 Ga0_5 2.564996 1_555
Fe0_1 Ga0_4 2.564996 1_555
Fe0_1 Ga0_1 2.564997 1_555
Fe0_1 Ga0_0 2.564997 1_555
Fe0_1 Ga0_7 2.564997 1_555
Fe0_1 Ga0_6 2.564997 1_555
Fe0_1 Fe0_7 2.748130 1_445
Fe0_1 Fe0_7 2.748130 1_555
Fe0_1 Fe0_3 2.748131 1_555
Fe0_1 Fe0_5 2.748131 1_455
Fe0_1 Fe0_5 2.748131 1_555
Fe0_1 Fe0_3 2.748131 1_545
Fe0_2 Ga0_7 2.564996 1_554
Fe0_2 Ga0_6 2.564996 1_555
Fe0_2 Ga0_3 2.564997 1_554
Fe0_2 Ga0_2 2.564997 1_555
Fe0_2 Ga0_4 2.564997 1_565
Fe0_2 Ga0_5 2.564997 1_564
Fe0_2 Fe0_4 2.748130 1_455
Fe0_2 Fe0_4 2.748130 1_565
Fe0_2 Fe0_6 2.748131 1_555
Fe0_2 Fe0_6 2.748131 1_455
Fe0_3 Ga0_7 2.564996 1_555
Fe0_3 Ga0_6 2.564996 1_555
Fe0_3 Ga0_3 2.564997 1_555
Fe0_3 Ga0_2 2.564997 1_555
Fe0_3 Ga0_5 2.564997 1_565
Fe0_3 Ga0_4 2.564997 1_565
Fe0_3 Fe0_5 2.748130 1_455
Fe0_3 Fe0_5 2.748130 1_565
Fe0_3 Fe0_7 2.748131 1_555
Fe0_3 Fe0_7 2.748131 1_455
Fe0_4 Ga0_1 2.564996 1_654
Fe0_4 Ga0_0 2.564996 1_655
Fe0_4 Ga0_2 2.564997 1_655
Fe0_4 Ga0_3 2.564997 1_654
Fe0_4 Ga0_5 2.564997 1_554
Fe0_4 Ga0_4 2.564997 1_555
Fe0_4 Fe0_6 2.748131 1_545
Fe0_4 Fe0_6 2.748131 1_555
Fe0_5 Ga0_1 2.564996 1_655
Fe0_5 Ga0_0 2.564996 1_655
Fe0_5 Ga0_2 2.564997 1_655
Fe0_5 Ga0_3 2.564997 1_655
Fe0_5 Ga0_5 2.564997 1_555
Fe0_5 Ga0_4 2.564997 1_555
Fe0_5 Fe0_7 2.748131 1_545
Fe0_5 Fe0_7 2.748131 1_555
Fe0_6 Ga0_2 2.564996 1_655
Fe0_6 Ga0_3 2.564996 1_654
Fe0_6 Ga0_1 2.564997 1_664
Fe0_6 Ga0_0 2.564997 1_665
Fe0_6 Ga0_7 2.564997 1_554
Fe0_6 Ga0_6 2.564997 1_555
Fe0_7 Ga0_2 2.564996 1_655
Fe0_7 Ga0_3 2.564996 1_655
Fe0_7 Ga0_1 2.564997 1_665
Fe0_7 Ga0_0 2.564997 1_665
Fe0_7 Ga0_7 2.564997 1_555
Fe0_7 Ga0_6 2.564997 1_555
