# generated using pymatgen
data_Pr3Gd3Mn23
_symmetry_space_group_name_H-M   'P 1'
_cell_length_a   8.71999557
_cell_length_b   8.71999557
_cell_length_c   8.61482808
_cell_angle_alpha   90.00000000
_cell_angle_beta   59.59534320
_cell_angle_gamma   120.00000000
_symmetry_Int_Tables_number   1
_chemical_formula_structural   Pr3Gd3Mn23
_chemical_formula_sum   'Pr3 Gd3 Mn23'
_cell_volume   460.34197496
_cell_formula_units_Z   1
loop_
 _symmetry_equiv_pos_site_id
 _symmetry_equiv_pos_as_xyz
  1  'x, y, z'
loop_
 _atom_site_type_symbol
 _atom_site_label
 _atom_site_symmetry_multiplicity
 _atom_site_fract_x
 _atom_site_fract_y
 _atom_site_fract_z
 _atom_site_occupancy
  Pr  Pr0  1  0.40608500  0.70304200  0.29409200  1
  Pr  Pr1  1  0.00286600  0.29982400  0.29409200  1
  Pr  Pr2  1  0.00286600  0.70304200  0.29409200  1
  Gd  Gd0  1  0.58446600  0.29223300  0.70750000  1
  Gd  Gd1  1  0.00026700  0.70803500  0.70750000  1
  Gd  Gd2  1  0.00026700  0.29223300  0.70750000  1
  Mn  Mn0  1  0.24151200  0.12075600  0.63773200  1
  Mn  Mn1  1  0.75491000  0.12258100  0.12250900  1
  Mn  Mn2  1  0.75491000  0.63233000  0.12250900  1
  Mn  Mn3  1  0.24516100  0.12258100  0.12250900  1
  Mn  Mn4  1  0.75953800  0.87976900  0.36069400  1
  Mn  Mn5  1  0.24169900  0.87955200  0.87874800  1
  Mn  Mn6  1  0.24169900  0.36214700  0.87874800  1
  Mn  Mn7  1  0.75910400  0.87955200  0.87874800  1
  Mn  Mn8  1  0.00340100  0.00170100  0.99489800  1
  Mn  Mn9  1  0.64201200  0.32100600  0.03698200  1
  Mn  Mn10  1  0.35158900  0.31945600  0.32895500  1
  Mn  Mn11  1  0.35158900  0.03213300  0.32895500  1
  Mn  Mn12  1  0.63891200  0.31945600  0.32895500  1
  Mn  Mn13  1  0.37112000  0.68556000  0.94332000  1
  Mn  Mn14  1  0.64667800  0.67575400  0.67756700  1
  Mn  Mn15  1  0.64667800  0.97092400  0.67756700  1
  Mn  Mn16  1  0.35150900  0.67575400  0.67756700  1
  Mn  Mn17  1  0.99876400  0.99938200  0.50399500  1
  Mn  Mn18  1  0.49662300  0.49724100  0.50399500  1
  Mn  Mn19  1  0.49662300  0.99938200  0.50399500  1
  Mn  Mn20  1  0.99635800  0.49817900  0.99542500  1
  Mn  Mn21  1  0.50639600  0.00821700  0.99542500  1
  Mn  Mn22  1  0.50639600  0.49817900  0.99542500  1
loop_
_geom_bond_atom_site_label_1
_geom_bond_atom_site_label_2
_geom_bond_distance
_geom_bond_site_symmetry_2
Gd0 Mn3 2.939484 1_556
Gd0 Mn5 2.973327 1_545
Gd0 Mn6 2.973327 1_555
Gd0 Mn0 2.981310 1_555
Gd0 Mn12 3.039187 1_555
Gd0 Mn22 3.058492 1_555
Gd0 Mn21 3.058492 1_555
Gd0 Mn18 3.095918 1_555
Gd0 Mn19 3.095918 1_545
Gd0 Mn15 3.096659 1_545
Gd0 Mn14 3.096659 1_555
Gd0 Mn9 3.112436 1_556
Gd1 Mn2 2.939483 1_456
Gd1 Mn5 2.973318 1_555
Gd1 Mn7 2.973318 1_455
Gd1 Mn0 2.981302 1_565
Gd1 Mn11 3.039183 1_565
Gd1 Mn22 3.058491 1_455
Gd1 Mn20 3.058497 1_455
Gd1 Mn17 3.095911 1_455
Gd1 Mn19 3.095917 1_555
Gd1 Mn14 3.096661 1_455
Gd1 Mn16 3.096670 1_555
Gd1 Mn9 3.112441 1_456
Gd2 Mn1 2.939483 1_456
Gd2 Mn6 2.973319 1_555
Gd2 Mn7 2.973325 1_445
Gd2 Mn0 2.981310 1_555
Gd2 Mn10 3.039187 1_555
Gd2 Mn20 3.058492 1_455
Gd2 Mn21 3.058492 1_455
Gd2 Mn18 3.095918 1_555
Gd2 Mn17 3.095918 1_445
Gd2 Mn16 3.096659 1_555
Gd2 Mn15 3.096664 1_445
Gd2 Mn9 3.112436 1_456
Mn0 Mn8 2.496822 1_555
Mn0 Mn11 2.598419 1_555
Mn0 Mn10 2.598419 1_555
Mn0 Mn12 2.598419 1_555
Mn0 Mn19 2.675151 1_545
Mn0 Mn18 2.675151 1_555
Mn0 Mn17 2.675151 1_445
Mn0 Mn5 2.956652 1_545
Mn0 Mn6 2.956652 1_555
Mn0 Mn7 2.956658 1_445
Mn1 Mn8 2.624433 1_654
Mn1 Mn9 2.635049 1_555
Mn1 Mn11 2.654994 1_555
Mn1 Mn12 2.654994 1_555
Mn1 Mn19 2.667506 1_545
Mn1 Mn20 2.670121 1_554
Mn1 Mn21 2.670121 1_554
Mn1 Mn4 2.977301 1_545
Mn1 Mn6 2.983614 1_654
Mn1 Mn7 2.983620 1_544
Mn1 Pr0 3.023571 1_545
Mn1 Pr1 3.023572 1_655
Mn2 Mn8 2.624433 1_664
Mn2 Mn9 2.635056 1_555
Mn2 Mn22 2.670122 1_554
Mn2 Mn20 2.670129 1_554
Mn2 Mn4 2.977295 1_555
Mn2 Mn5 2.983614 1_654
Mn2 Mn7 2.983614 1_554
Mn2 Pr0 3.023558 1_555
Mn2 Pr2 3.023573 1_655
Mn3 Mn8 2.624433 1_554
Mn3 Mn9 2.635056 1_555
Mn3 Mn4 2.977289 1_445
Mn3 Mn6 2.983614 1_554
Mn3 Mn5 2.983620 1_544
Mn3 Pr1 3.023566 1_555
Mn3 Pr2 3.023573 1_545
Mn4 Mn8 2.557151 1_664
Mn4 Pr0 3.040353 1_555
Mn4 Pr2 3.040353 1_655
Mn4 Pr1 3.040353 1_665
Mn5 Mn8 2.561709 1_565
Mn5 Pr2 2.959887 1_556
Mn6 Mn8 2.561702 1_555
Mn6 Pr1 2.959887 1_556
Mn7 Mn8 2.561709 1_665
Mn7 Pr0 2.959884 1_556
Mn10 Mn18 2.499289 1_555
Mn10 Mn17 2.499289 1_445
Mn10 Mn9 2.501688 1_555
Mn10 Mn11 2.505455 1_555
Mn10 Mn12 2.505455 1_555
Mn10 Mn22 2.545013 1_554
Mn10 Mn2 2.654998 1_555
Mn10 Mn3 2.654998 1_555
Mn10 Pr0 3.125733 1_555
Mn10 Pr1 3.125736 1_555
Mn11 Mn19 2.499289 1_545
Mn11 Mn17 2.499289 1_445
Mn11 Mn9 2.501688 1_555
Mn11 Mn12 2.505455 1_555
Mn11 Mn21 2.545013 1_554
Mn11 Mn3 2.655002 1_555
Mn11 Pr2 3.125736 1_545
Mn11 Pr0 3.125741 1_545
Mn12 Mn19 2.499289 1_545
Mn12 Mn18 2.499289 1_555
Mn12 Mn9 2.501688 1_555
Mn12 Mn20 2.545013 1_554
Mn12 Mn2 2.655002 1_555
Mn12 Pr2 3.125736 1_655
Mn12 Pr1 3.125736 1_655
Mn13 Mn14 2.379001 1_555
Mn13 Mn15 2.379001 1_555
Mn13 Mn16 2.379001 1_555
Mn13 Mn22 2.593488 1_555
Mn13 Mn21 2.593488 1_565
Mn13 Mn20 2.593488 1_455
Mn13 Mn7 2.643689 1_555
Mn13 Mn6 2.643696 1_555
Mn13 Mn5 2.643696 1_555
Mn13 Pr1 3.183363 1_556
Mn13 Pr2 3.183363 1_556
Mn13 Pr0 3.183368 1_556
Mn14 Mn22 2.471361 1_555
Mn14 Mn18 2.512916 1_555
Mn14 Mn17 2.512924 1_555
Mn14 Mn16 2.573872 1_555
Mn14 Mn15 2.573881 1_555
Mn14 Mn6 2.664703 1_555
Mn14 Mn7 2.664703 1_555
Mn14 Mn4 2.667424 1_555
Mn14 Pr2 3.080925 1_655
Mn15 Mn21 2.471361 1_565
Mn15 Mn19 2.512916 1_555
Mn15 Mn17 2.512924 1_555
Mn15 Mn16 2.573877 1_555
Mn15 Mn5 2.664703 1_555
Mn15 Mn7 2.664703 1_555
Mn15 Mn4 2.667424 1_555
Mn15 Pr1 3.080925 1_665
Mn16 Mn20 2.471361 1_455
Mn16 Mn18 2.512916 1_555
Mn16 Mn19 2.512924 1_555
Mn16 Mn6 2.664699 1_555
Mn16 Mn5 2.664706 1_555
Mn16 Mn4 2.667428 1_555
Mn16 Pr0 3.080921 1_555
Mn17 Mn7 2.620893 1_555
Mn17 Mn3 2.667506 1_665
Mn17 Mn4 2.719268 1_555
Mn17 Pr2 3.158417 1_655
Mn17 Pr1 3.158417 1_665
Mn18 Mn6 2.620893 1_555
Mn18 Mn2 2.667506 1_555
Mn18 Mn4 2.719275 1_555
Mn18 Pr0 3.158410 1_555
Mn18 Pr2 3.158417 1_655
Mn19 Mn5 2.620893 1_555
Mn19 Mn4 2.719275 1_555
Mn19 Pr0 3.158416 1_555
Mn19 Pr1 3.158417 1_665
Mn20 Mn9 2.483758 1_556
Mn20 Mn5 2.712081 1_655
Mn20 Mn6 2.712081 1_655
Mn20 Pr2 3.140228 1_656
Mn20 Pr1 3.140228 1_656
Mn21 Mn9 2.483758 1_556
Mn21 Mn3 2.670129 1_556
Mn21 Mn7 2.712081 1_545
Mn21 Mn5 2.712089 1_545
Mn21 Pr2 3.140228 1_546
Mn21 Pr0 3.140232 1_546
Mn22 Mn9 2.483758 1_556
Mn22 Mn3 2.670122 1_556
Mn22 Mn7 2.712081 1_555
Mn22 Mn6 2.712089 1_555
Mn22 Pr0 3.140226 1_556
Mn22 Pr1 3.140228 1_556
