# generated using pymatgen
data_Zn(NiO2)2
_symmetry_space_group_name_H-M   'P 1'
_cell_length_a   5.86648800
_cell_length_b   5.87357957
_cell_length_c   14.38393634
_cell_angle_alpha   88.85557797
_cell_angle_beta   89.16525442
_cell_angle_gamma   60.81655462
_symmetry_Int_Tables_number   1
_chemical_formula_structural   Zn(NiO2)2
_chemical_formula_sum   'Zn6 Ni12 O24'
_cell_volume   432.62448210
_cell_formula_units_Z   6
loop_
 _symmetry_equiv_pos_site_id
 _symmetry_equiv_pos_as_xyz
  1  'x, y, z'
loop_
 _atom_site_type_symbol
 _atom_site_label
 _atom_site_symmetry_multiplicity
 _atom_site_fract_x
 _atom_site_fract_y
 _atom_site_fract_z
 _atom_site_occupancy
  Zn  Zn0  1  0.15904000  0.17560600  0.04444700  1
  Zn  Zn1  1  0.50073000  0.49922900  0.37862700  1
  Zn  Zn2  1  0.50319500  0.49897600  0.99894000  1
  Zn  Zn3  1  0.81917900  0.84920500  0.70938800  1
  Zn  Zn4  1  0.16310900  0.16519200  0.28845400  1
  Zn  Zn5  1  0.50982100  0.49456700  0.62415600  1
  Ni  Ni0  1  0.16577300  0.66634300  0.16682100  1
  Ni  Ni1  1  0.66476900  0.66710700  0.16695400  1
  Ni  Ni2  1  0.50182800  0.99575900  0.50143000  1
  Ni  Ni3  1  0.66522000  0.16554500  0.16803100  1
  Ni  Ni4  1  0.83146400  0.83038700  0.33542100  1
  Ni  Ni5  1  0.00391300  0.99550300  0.50006700  1
  Ni  Ni6  1  0.83481400  0.33775500  0.83200500  1
  Ni  Ni7  1  0.00335300  0.49724700  0.50020400  1
  Ni  Ni8  1  0.33152300  0.83514700  0.83282400  1
  Ni  Ni9  1  0.16392300  0.17494200  0.66583000  1
  Ni  Ni10  1  0.33024900  0.33689000  0.83203900  1
  Ni  Ni11  1  0.84250400  0.82118600  0.95489500  1
  O  O0  1  0.34863600  0.34548400  0.09624200  1
  O  O1  1  0.50578900  0.51122100  0.24165200  1
  O  O2  1  0.34552200  0.81030800  0.09122100  1
  O  O3  1  0.80198500  0.35139500  0.09496600  1
  O  O4  1  0.53271700  0.97915000  0.24371000  1
  O  O5  1  0.66468200  0.69521500  0.42735600  1
  O  O6  1  0.97935300  0.53242700  0.24321500  1
  O  O7  1  0.82531300  0.82038100  0.08986400  1
  O  O8  1  0.68995200  0.13328000  0.42607500  1
  O  O9  1  0.85363000  0.82339700  0.57254400  1
  O  O10  1  0.98178000  0.98042000  0.24002500  1
  O  O11  1  0.13589600  0.66245500  0.42032000  1
  O  O12  1  0.87631500  0.32678300  0.58153200  1
  O  O13  1  0.99723600  0.04454600  0.75220500  1
  O  O14  1  0.31451700  0.85899800  0.57613400  1
  O  O15  1  0.15244900  0.17075700  0.42732000  1
  O  O16  1  0.14796500  0.17734300  0.90545300  1
  O  O17  1  0.00198600  0.48338100  0.75764400  1
  O  O18  1  0.33679400  0.29696200  0.57853300  1
  O  O19  1  0.45111500  0.04330300  0.75048200  1
  O  O20  1  0.19540300  0.63218300  0.90949600  1
  O  O21  1  0.52039400  0.49317500  0.76179300  1
  O  O22  1  0.66949500  0.18570300  0.90449800  1
  O  O23  1  0.67667000  0.63515000  0.90718500  1
loop_
_geom_bond_atom_site_label_1
_geom_bond_atom_site_label_2
_geom_bond_distance
_geom_bond_site_symmetry_2
Ni0 O10 1.944108 1_455
Ni0 O6 1.947185 1_455
Ni0 O0 1.950955 1_555
Ni0 O2 1.951642 1_555
Ni0 O1 2.053910 1_555
Ni0 O7 2.072502 1_455
Ni1 O1 1.904446 1_555
Ni1 O7 1.919288 1_555
Ni1 O3 1.937919 1_555
Ni1 O6 1.958450 1_555
Ni1 O4 1.962017 1_555
Ni1 O2 1.971886 1_555
Ni2 O5 1.888103 1_555
Ni2 O18 1.916743 1_565
Ni2 O14 1.949179 1_555
Ni2 O8 1.960817 1_565
Ni2 O9 2.076829 1_555
Ni2 O15 2.087868 1_565
Ni3 O3 1.929658 1_555
Ni3 O0 1.931492 1_555
Ni3 O10 1.935278 1_545
Ni3 O4 1.935323 1_545
Ni3 O1 2.079333 1_555
Ni3 O7 2.111822 1_545
Ni4 O11 1.987789 1_655
Ni4 O5 2.003570 1_555
Ni4 O4 2.025629 1_555
Ni4 O10 2.027637 1_555
Ni4 O6 2.037898 1_555
Ni4 O8 2.043374 1_565
Ni5 O9 1.919955 1_455
Ni5 O15 1.928468 1_565
Ni5 O8 1.936274 1_465
Ni5 O14 1.938695 1_555
Ni5 O11 2.080531 1_555
Ni5 O12 2.089172 1_465
Ni6 O23 1.883387 1_555
Ni6 O17 1.894311 1_655
Ni6 O22 1.898294 1_555
Ni6 O21 1.905511 1_555
Ni6 O13 1.907397 1_555
Ni6 O16 1.925506 1_655
Ni7 O11 1.879297 1_555
Ni7 O12 1.892582 1_455
Ni7 O9 1.983952 1_455
Ni7 O15 1.989819 1_555
Ni7 O5 2.038741 1_455
Ni7 O18 2.060794 1_555
Ni8 O20 2.031084 1_555
Ni8 O19 2.035753 1_565
Ni8 O21 2.045640 1_555
Ni8 O16 2.056965 1_565
Ni8 O23 2.077769 1_555
Ni8 O13 2.088153 1_465
Ni9 O12 1.913475 1_455
Ni9 O19 1.915933 1_555
Ni9 O13 1.934779 1_455
Ni9 O18 1.937686 1_555
Ni9 O17 2.075877 1_555
Ni9 O14 2.086236 1_545
Ni10 O20 1.894411 1_555
Ni10 O19 1.927874 1_555
Ni10 O17 2.000329 1_555
Ni10 O21 2.009121 1_555
Ni10 O16 2.010391 1_555
Ni10 O22 2.033626 1_555
Ni11 O20 1.921749 1_655
Ni11 O23 1.922889 1_555
Ni11 O7 1.942566 1_556
Ni11 O22 1.994956 1_565
O0 Zn0 1.980885 1_555
O0 Zn2 2.074507 1_554
O1 Zn1 1.970400 1_555
O2 Zn0 1.981864 1_565
O2 Zn2 2.091182 1_554
O3 Zn0 1.964225 1_655
O3 Zn2 2.067033 1_554
O4 Zn4 1.996645 1_565
O5 Zn1 1.968027 1_555
O6 Zn4 1.983650 1_655
O8 Zn1 1.988641 1_555
O9 Zn3 1.977043 1_555
O10 Zn4 1.993066 1_665
O11 Zn1 1.960647 1_555
O12 Zn5 1.972088 1_555
O13 Zn3 2.000649 1_545
O14 Zn5 1.985942 1_555
O15 Zn4 1.997929 1_555
O16 Zn0 2.000943 1_556
O17 Zn3 1.990903 1_455
O18 Zn5 2.001716 1_555
O19 Zn3 1.974977 1_545
O20 Zn2 2.043900 1_555
O21 Zn5 1.981365 1_555
O22 Zn2 2.119785 1_555
O23 Zn2 2.032187 1_555
