# generated using pymatgen
data_KSrCeBiO6
_symmetry_space_group_name_H-M   'P 1'
_cell_length_a   8.62087857
_cell_length_b   8.64182709
_cell_length_c   8.64110265
_cell_angle_alpha   90.00000000
_cell_angle_beta   90.00000000
_cell_angle_gamma   90.00000000
_symmetry_Int_Tables_number   1
_chemical_formula_structural   KSrCeBiO6
_chemical_formula_sum   'K4 Sr4 Ce4 Bi4 O24'
_cell_volume   643.76337417
_cell_formula_units_Z   4
loop_
 _symmetry_equiv_pos_site_id
 _symmetry_equiv_pos_as_xyz
  1  'x, y, z'
loop_
 _atom_site_type_symbol
 _atom_site_label
 _atom_site_symmetry_multiplicity
 _atom_site_fract_x
 _atom_site_fract_y
 _atom_site_fract_z
 _atom_site_occupancy
  K  K0  1  0.50000000  -0.00000000  0.50000000  1
  K  K1  1  0.50000000  0.50000000  0.00000000  1
  K  K2  1  -0.00000000  0.50000000  -0.00000000  1
  K  K3  1  -0.00000000  -0.00000000  0.50000000  1
  Sr  Sr0  1  -0.00000000  0.50000000  0.50000000  1
  Sr  Sr1  1  0.50000000  -0.00000000  -0.00000000  1
  Sr  Sr2  1  -0.00000000  -0.00000000  -0.00000000  1
  Sr  Sr3  1  0.50000000  0.50000000  0.50000000  1
  Ce  Ce0  1  0.25000000  0.25000000  0.25000000  1
  Ce  Ce1  1  0.75000000  0.75000000  0.25000000  1
  Ce  Ce2  1  0.75000000  0.25000000  0.75000000  1
  Ce  Ce3  1  0.25000000  0.75000000  0.75000000  1
  Bi  Bi0  1  0.75000000  0.75000000  0.75000000  1
  Bi  Bi1  1  0.25000000  0.25000000  0.75000000  1
  Bi  Bi2  1  0.25000000  0.75000000  0.25000000  1
  Bi  Bi3  1  0.75000000  0.25000000  0.25000000  1
  O  O0  1  0.99523968  0.22217729  0.27299435  1
  O  O1  1  0.00476032  0.77782271  0.27299435  1
  O  O2  1  0.00476032  0.22217729  0.72700565  1
  O  O3  1  0.99523968  0.77782271  0.72700565  1
  O  O4  1  0.27514470  0.99344055  0.20736555  1
  O  O5  1  0.27514470  0.00655945  0.79263445  1
  O  O6  1  0.72485530  0.00655945  0.20736555  1
  O  O7  1  0.72485530  0.99344055  0.79263445  1
  O  O8  1  0.21987072  0.26503005  0.99546321  1
  O  O9  1  0.78012928  0.26503005  0.00453679  1
  O  O10  1  0.21987072  0.73496995  0.00453679  1
  O  O11  1  0.78012928  0.73496995  0.99546321  1
  O  O12  1  0.50476032  0.27782271  0.22700565  1
  O  O13  1  0.49523968  0.72217729  0.22700565  1
  O  O14  1  0.49523968  0.27782271  0.77299435  1
  O  O15  1  0.50476032  0.72217729  0.77299435  1
  O  O16  1  0.22485530  0.50655945  0.29263445  1
  O  O17  1  0.22485530  0.49344055  0.70736555  1
  O  O18  1  0.77514470  0.49344055  0.29263445  1
  O  O19  1  0.77514470  0.50655945  0.70736555  1
  O  O20  1  0.28012928  0.23496995  0.50453679  1
  O  O21  1  0.71987072  0.23496995  0.49546321  1
  O  O22  1  0.28012928  0.76503005  0.49546321  1
  O  O23  1  0.71987072  0.76503005  0.50453679  1
loop_
_geom_bond_atom_site_label_1
_geom_bond_atom_site_label_2
_geom_bond_distance
_geom_bond_site_symmetry_2
K0 O23 2.778055 1_545
K0 O20 2.778055 1_555
K0 O22 2.778055 1_545
K0 O21 2.778055 1_555
K0 O6 3.186698 1_555
K0 O7 3.186698 1_545
K0 O5 3.186698 1_555
K0 O4 3.186698 1_545
K1 O15 2.745168 1_554
K1 O14 2.745168 1_554
K1 O12 2.745168 1_555
K1 O13 2.745168 1_555
K1 O9 3.155437 1_555
K1 O10 3.155437 1_555
K1 O8 3.155437 1_554
K1 O11 3.155437 1_554
K2 O11 2.778055 1_454
K2 O8 2.778055 1_554
K2 O9 2.778055 1_455
K2 O10 2.778055 1_555
K2 O16 3.186698 1_555
K2 O17 3.186698 1_554
K2 O18 3.186698 1_455
K2 O19 3.186698 1_454
K3 O3 2.745168 1_445
K3 O1 2.745168 1_545
K3 O0 2.745168 1_455
K3 O2 2.745168 1_555
K3 O22 3.155437 1_545
K3 O20 3.155437 1_555
K3 O23 3.155437 1_445
K3 O21 3.155437 1_455
Ce0 O0 2.218297 1_455
Ce0 O12 2.218297 1_555
Ce0 O8 2.218568 1_554
Ce0 O20 2.218568 1_555
Ce0 O4 2.257971 1_545
Ce0 O16 2.257971 1_555
Ce1 O1 2.218297 1_655
Ce1 O13 2.218297 1_555
Ce1 O11 2.218568 1_554
Ce1 O23 2.218568 1_555
Ce1 O6 2.257971 1_565
Ce1 O18 2.257971 1_555
Ce2 O2 2.218297 1_655
Ce2 O14 2.218297 1_555
Ce2 O9 2.218568 1_556
Ce2 O21 2.218568 1_555
Ce2 O7 2.257971 1_545
Ce2 O19 2.257971 1_555
Ce3 O3 2.218297 1_455
Ce3 O15 2.218297 1_555
Ce3 O10 2.218568 1_556
Ce3 O22 2.218568 1_555
Ce3 O5 2.257971 1_565
Ce3 O17 2.257971 1_555
Bi0 O15 2.137067 1_555
Bi0 O3 2.137067 1_555
Bi0 O23 2.140861 1_555
Bi0 O11 2.140861 1_555
Bi0 O7 2.146757 1_555
Bi0 O19 2.146757 1_555
Bi1 O14 2.137067 1_555
Bi1 O2 2.137067 1_555
Bi1 O20 2.140861 1_555
Bi1 O8 2.140861 1_555
Bi1 O5 2.146757 1_555
Bi1 O17 2.146757 1_555
Bi2 O1 2.137067 1_555
Bi2 O13 2.137067 1_555
Bi2 O22 2.140861 1_555
Bi2 O10 2.140861 1_555
Bi2 O4 2.146757 1_555
Bi2 O16 2.146757 1_555
Bi3 O12 2.137067 1_555
Bi3 O0 2.137067 1_555
Bi3 O21 2.140861 1_555
Bi3 O9 2.140861 1_555
Bi3 O18 2.146757 1_555
Bi3 O6 2.146757 1_555
O0 Sr2 3.041858 1_655
O0 Sr0 3.100609 1_655
O1 Sr2 3.041858 1_565
O1 Sr0 3.100609 1_555
O2 Sr2 3.041858 1_556
O2 Sr0 3.100609 1_555
O3 Sr2 3.041858 1_666
O3 Sr0 3.100609 1_655
O4 Sr1 2.640377 1_565
O4 Sr2 2.973270 1_565
O5 Sr1 2.640377 1_556
O5 Sr2 2.973270 1_556
O6 Sr1 2.640377 1_555
O6 Sr2 2.973270 1_655
O7 Sr1 2.640377 1_566
O7 Sr2 2.973270 1_666
O8 Sr2 2.973222 1_556
O9 Sr2 2.973222 1_655
O10 Sr2 2.973222 1_565
O11 Sr2 2.973222 1_666
O12 Sr3 3.041858 1_555
O12 Sr1 3.100609 1_555
O13 Sr3 3.041858 1_555
O13 Sr1 3.100609 1_565
O14 Sr3 3.041858 1_555
O14 Sr1 3.100609 1_556
O15 Sr3 3.041858 1_555
O15 Sr1 3.100609 1_566
O16 Sr0 2.640377 1_555
O16 Sr3 2.973270 1_555
O17 Sr0 2.640377 1_555
O17 Sr3 2.973270 1_555
O18 Sr0 2.640377 1_655
O18 Sr3 2.973270 1_555
O19 Sr0 2.640377 1_655
O19 Sr3 2.973270 1_555
O20 Sr3 2.973222 1_555
O21 Sr3 2.973222 1_555
O22 Sr3 2.973222 1_555
O23 Sr3 2.973222 1_555
