# generated using pymatgen
data_CeYAl4
_symmetry_space_group_name_H-M   'P 1'
_cell_length_a   5.62874817
_cell_length_b   5.62874817
_cell_length_c   5.62874817
_cell_angle_alpha   60.00000000
_cell_angle_beta   60.00000000
_cell_angle_gamma   60.00000000
_symmetry_Int_Tables_number   1
_chemical_formula_structural   CeYAl4
_chemical_formula_sum   'Ce1 Y1 Al4'
_cell_volume   126.10155972
_cell_formula_units_Z   1
loop_
 _symmetry_equiv_pos_site_id
 _symmetry_equiv_pos_as_xyz
  1  'x, y, z'
loop_
 _atom_site_type_symbol
 _atom_site_label
 _atom_site_symmetry_multiplicity
 _atom_site_fract_x
 _atom_site_fract_y
 _atom_site_fract_z
 _atom_site_occupancy
  Ce  Ce0  1  0.25000000  0.25000000  0.25000000  1
  Y  Y0  1  0.00000000  0.00000000  0.00000000  1
  Al  Al0  1  0.62436400  0.62436400  0.12690800  1
  Al  Al1  1  0.62436400  0.12690800  0.62436400  1
  Al  Al2  1  0.12690800  0.62436400  0.62436400  1
  Al  Al3  1  0.62436400  0.62436400  0.62436400  1
loop_
_geom_bond_atom_site_label_1
_geom_bond_atom_site_label_2
_geom_bond_distance
_geom_bond_site_symmetry_2
Ce0 Y0 3.446890 1_555
Ce0 Y0 3.446890 1_655
Ce0 Y0 3.446890 1_556
Ce0 Y0 3.446890 1_565
Al0 Al1 2.800055 1_555
Al0 Al2 2.800055 1_555
Al0 Al3 2.800055 1_555
Al0 Al1 2.828694 1_564
Al0 Al3 2.828694 1_554
Al0 Al2 2.828694 1_654
Al0 Ce0 3.298631 1_655
Al0 Ce0 3.298631 1_565
Al0 Ce0 3.298631 1_555
Al0 Y0 3.301684 1_565
Al0 Y0 3.301684 1_665
Al0 Y0 3.301684 1_655
Al1 Al2 2.800055 1_555
Al1 Al3 2.800055 1_555
Al1 Al3 2.828694 1_545
Al1 Al2 2.828694 1_645
Al1 Ce0 3.298631 1_655
Al1 Ce0 3.298631 1_556
Al1 Ce0 3.298631 1_555
Al1 Y0 3.301684 1_656
Al1 Y0 3.301684 1_655
Al1 Y0 3.301684 1_556
Al2 Al3 2.800055 1_555
Al2 Al3 2.828694 1_455
Al2 Ce0 3.298631 1_565
Al2 Ce0 3.298631 1_556
Al2 Ce0 3.298631 1_555
Al2 Y0 3.301684 1_566
Al2 Y0 3.301684 1_565
Al2 Y0 3.301684 1_556
Al3 Ce0 3.298631 1_565
Al3 Ce0 3.298631 1_556
Al3 Ce0 3.298631 1_655
Al3 Y0 3.301684 1_566
Al3 Y0 3.301684 1_656
Al3 Y0 3.301684 1_665
