# generated using pymatgen
data_YVF5
_symmetry_space_group_name_H-M   'P 1'
_cell_length_a   5.86272757
_cell_length_b   5.86272757
_cell_length_c   5.86272757
_cell_angle_alpha   138.15220330
_cell_angle_beta   107.02526005
_cell_angle_gamma   87.83869197
_symmetry_Int_Tables_number   1
_chemical_formula_structural   YVF5
_chemical_formula_sum   'Y1 V1 F5'
_cell_volume   123.30037704
_cell_formula_units_Z   1
loop_
 _symmetry_equiv_pos_site_id
 _symmetry_equiv_pos_as_xyz
  1  'x, y, z'
loop_
 _atom_site_type_symbol
 _atom_site_label
 _atom_site_symmetry_multiplicity
 _atom_site_fract_x
 _atom_site_fract_y
 _atom_site_fract_z
 _atom_site_occupancy
  Y  Y0  1  0.50000000  0.50000000  0.00000000  1
  V  V0  1  0.00000000  0.00000000  0.00000000  1
  F  F0  1  0.81958500  0.50000000  0.31958500  1
  F  F1  1  0.18041500  0.50000000  0.68041500  1
  F  F2  1  0.24099700  0.24099700  0.00000000  1
  F  F3  1  0.75900300  0.75900300  0.00000000  1
  F  F4  1  0.50000000  0.00000000  0.50000000  1
loop_
_geom_bond_atom_site_label_1
_geom_bond_atom_site_label_2
_geom_bond_distance
_geom_bond_site_symmetry_2
F0 Y0 2.228303 1_555
F0 V0 2.442575 1_655
F0 V0 2.442575 1_666
F1 Y0 2.228303 1_556
F1 V0 2.442575 1_555
F1 V0 2.442575 1_566
F2 V0 2.035471 1_555
F2 Y0 2.187551 1_555
F3 V0 2.035471 1_665
F3 Y0 2.187551 1_555
F4 Y0 2.093742 1_556
F4 Y0 2.093742 1_545
