# generated using pymatgen
data_HgGe3
_symmetry_space_group_name_H-M   'P 1'
_cell_length_a   6.25016554
_cell_length_b   6.25016554
_cell_length_c   5.05027000
_cell_angle_alpha   90.00000000
_cell_angle_beta   90.00000000
_cell_angle_gamma   119.99999511
_symmetry_Int_Tables_number   1
_chemical_formula_structural   HgGe3
_chemical_formula_sum   'Hg2 Ge6'
_cell_volume   170.85523502
_cell_formula_units_Z   2
loop_
 _symmetry_equiv_pos_site_id
 _symmetry_equiv_pos_as_xyz
  1  'x, y, z'
loop_
 _atom_site_type_symbol
 _atom_site_label
 _atom_site_symmetry_multiplicity
 _atom_site_fract_x
 _atom_site_fract_y
 _atom_site_fract_z
 _atom_site_occupancy
  Hg  Hg0  1  0.33333300  0.66666700  0.75000000  1
  Hg  Hg1  1  0.66666700  0.33333300  0.25000000  1
  Ge  Ge0  1  0.16085500  0.32171100  0.25000000  1
  Ge  Ge1  1  0.67828900  0.83914500  0.25000000  1
  Ge  Ge2  1  0.16085500  0.83914500  0.25000000  1
  Ge  Ge3  1  0.83914500  0.67828900  0.75000000  1
  Ge  Ge4  1  0.32171100  0.16085500  0.75000000  1
  Ge  Ge5  1  0.83914500  0.16085500  0.75000000  1
loop_
_geom_bond_atom_site_label_1
_geom_bond_atom_site_label_2
_geom_bond_distance
_geom_bond_site_symmetry_2
Ge0 Ge2 3.016117 1_545
Ge0 Ge1 3.016118 1_445
Ge0 Ge5 3.067347 1_454
Ge0 Ge5 3.067347 1_455
Ge0 Ge4 3.067353 1_554
Ge0 Ge4 3.067353 1_555
Ge0 Hg1 3.125710 1_455
Ge0 Hg1 3.125722 1_555
Ge0 Hg0 3.140488 1_555
Ge0 Hg0 3.140488 1_554
Ge1 Ge2 3.016117 1_655
Ge1 Ge5 3.067347 1_565
Ge1 Ge5 3.067347 1_564
Ge1 Ge3 3.067353 1_555
Ge1 Ge3 3.067353 1_554
Ge1 Hg1 3.125710 1_565
Ge1 Hg1 3.125722 1_555
Ge1 Hg0 3.140488 1_555
Ge1 Hg0 3.140488 1_554
Ge2 Ge3 3.067347 1_455
Ge2 Ge3 3.067347 1_454
Ge2 Ge4 3.067347 1_564
Ge2 Ge4 3.067347 1_565
Ge2 Hg1 3.125716 1_565
Ge2 Hg1 3.125716 1_455
Ge2 Hg0 3.140488 1_555
Ge2 Hg0 3.140488 1_554
Ge3 Ge5 3.016117 1_565
Ge3 Ge4 3.016118 1_665
Ge3 Hg0 3.125710 1_655
Ge3 Hg0 3.125722 1_555
Ge3 Hg1 3.140488 1_555
Ge3 Hg1 3.140488 1_556
Ge4 Ge5 3.016117 1_455
Ge4 Hg0 3.125710 1_545
Ge4 Hg0 3.125722 1_555
Ge4 Hg1 3.140488 1_555
Ge4 Hg1 3.140488 1_556
Ge5 Hg0 3.125716 1_655
Ge5 Hg0 3.125716 1_545
Ge5 Hg1 3.140488 1_555
Ge5 Hg1 3.140488 1_556
