# generated using pymatgen
data_Ba4TiNb9O18
_symmetry_space_group_name_H-M   'P 1'
_cell_length_a   4.20997000
_cell_length_b   4.20997000
_cell_length_c   24.80320500
_cell_angle_alpha   90.00000000
_cell_angle_beta   90.00000000
_cell_angle_gamma   90.00000000
_symmetry_Int_Tables_number   1
_chemical_formula_structural   Ba4TiNb9O18
_chemical_formula_sum   'Ba4 Ti1 Nb9 O18'
_cell_volume   439.60822047
_cell_formula_units_Z   1
loop_
 _symmetry_equiv_pos_site_id
 _symmetry_equiv_pos_as_xyz
  1  'x, y, z'
loop_
 _atom_site_type_symbol
 _atom_site_label
 _atom_site_symmetry_multiplicity
 _atom_site_fract_x
 _atom_site_fract_y
 _atom_site_fract_z
 _atom_site_occupancy
  Ba  Ba0  1  0.00000000  0.00000000  0.41615900  1
  Ba  Ba1  1  0.00000000  0.00000000  0.92266200  1
  Ba  Ba2  1  0.00000000  0.00000000  0.07733800  1
  Ba  Ba3  1  0.00000000  0.00000000  0.58384100  1
  Ti  Ti0  1  0.50000000  0.50000000  0.00000000  1
  Nb  Nb0  1  0.00000000  0.50000000  0.24929000  1
  Nb  Nb1  1  0.00000000  0.50000000  0.75071000  1
  Nb  Nb2  1  0.50000000  0.00000000  0.24929000  1
  Nb  Nb3  1  0.50000000  0.00000000  0.75071000  1
  Nb  Nb4  1  0.50000000  0.50000000  0.50000000  1
  Nb  Nb5  1  0.50000000  0.50000000  0.33164700  1
  Nb  Nb6  1  0.50000000  0.50000000  0.83417900  1
  Nb  Nb7  1  0.50000000  0.50000000  0.16582100  1
  Nb  Nb8  1  0.50000000  0.50000000  0.66835300  1
  O  O0  1  0.50000000  0.00000000  0.33634200  1
  O  O1  1  0.50000000  0.00000000  0.83622500  1
  O  O2  1  0.00000000  0.50000000  0.33634200  1
  O  O3  1  0.00000000  0.50000000  0.83622500  1
  O  O4  1  0.50000000  0.00000000  0.16377500  1
  O  O5  1  0.50000000  0.00000000  0.66365800  1
  O  O6  1  0.00000000  0.50000000  0.16377500  1
  O  O7  1  0.00000000  0.50000000  0.66365800  1
  O  O8  1  0.00000000  0.50000000  0.00000000  1
  O  O9  1  0.00000000  0.50000000  0.50000000  1
  O  O10  1  0.50000000  0.00000000  0.00000000  1
  O  O11  1  0.50000000  0.00000000  0.50000000  1
  O  O12  1  0.50000000  0.50000000  0.41913600  1
  O  O13  1  0.50000000  0.50000000  0.92045300  1
  O  O14  1  0.50000000  0.50000000  0.07954700  1
  O  O15  1  0.50000000  0.50000000  0.58086400  1
  O  O16  1  0.00000000  0.00000000  0.25025600  1
  O  O17  1  0.00000000  0.00000000  0.74974400  1
loop_
_geom_bond_atom_site_label_1
_geom_bond_atom_site_label_2
_geom_bond_distance
_geom_bond_site_symmetry_2
Ba0 O2 2.889679 1_555
Ba0 O0 2.889679 1_455
Ba0 O0 2.889679 1_555
Ba0 O2 2.889679 1_545
Ba0 O11 2.958951 1_455
Ba0 O9 2.958951 1_545
Ba0 O9 2.958951 1_555
Ba0 O11 2.958951 1_555
Ba0 O12 2.977814 1_455
Ba0 O12 2.977814 1_545
Ba0 O12 2.977814 1_555
Ba0 O12 2.977814 1_445
Ba1 O10 2.847906 1_556
Ba1 O8 2.847906 1_546
Ba1 O8 2.847906 1_556
Ba1 O10 2.847906 1_456
Ba1 O13 2.977403 1_445
Ba1 O13 2.977403 1_455
Ba1 O13 2.977403 1_545
Ba1 O13 2.977403 1_555
Ba1 O3 3.004552 1_555
Ba1 O1 3.004552 1_455
Ba1 O1 3.004552 1_555
Ba1 O3 3.004552 1_545
Ba2 O10 2.847906 1_555
Ba2 O8 2.847906 1_555
Ba2 O10 2.847906 1_455
Ba2 O8 2.847906 1_545
Ba2 O14 2.977403 1_455
Ba2 O14 2.977403 1_555
Ba2 O14 2.977403 1_445
Ba2 O14 2.977403 1_545
Ba2 O6 3.004552 1_545
Ba2 O4 3.004552 1_555
Ba2 O4 3.004552 1_455
Ba2 O6 3.004552 1_555
Ba3 O7 2.889679 1_555
Ba3 O5 2.889679 1_455
Ba3 O7 2.889679 1_545
Ba3 O5 2.889679 1_555
Ba3 O11 2.958951 1_455
Ba3 O9 2.958951 1_555
Ba3 O9 2.958951 1_545
Ba3 O11 2.958951 1_555
Ba3 O15 2.977814 1_445
Ba3 O15 2.977814 1_455
Ba3 O15 2.977814 1_545
Ba3 O15 2.977814 1_555
Nb0 O16 2.105121 1_565
Nb0 O16 2.105121 1_555
Nb0 O6 2.121046 1_555
Nb0 O2 2.159169 1_555
Nb1 O17 2.105121 1_555
Nb1 O17 2.105121 1_565
Nb1 O3 2.121046 1_555
Nb1 O7 2.159169 1_555
Nb2 O16 2.105121 1_655
Nb2 O16 2.105121 1_555
Nb2 O4 2.121046 1_555
Nb2 O0 2.159169 1_555
Nb3 O17 2.105121 1_555
Nb3 O17 2.105121 1_655
Nb3 O1 2.121046 1_555
Nb3 O5 2.159169 1_555
Nb4 O15 2.005686 1_555
Nb4 O12 2.005686 1_555
Nb4 O9 2.104985 1_655
Nb4 O9 2.104985 1_555
Nb4 O11 2.104985 1_555
Nb4 O11 2.104985 1_565
Nb5 O2 2.108204 1_555
Nb5 O2 2.108204 1_655
Nb5 O0 2.108204 1_555
Nb5 O0 2.108204 1_565
Nb5 O12 2.170008 1_555
Nb6 O1 2.105597 1_565
Nb6 O3 2.105597 1_655
Nb6 O3 2.105597 1_555
Nb6 O1 2.105597 1_555
Nb6 O13 2.139872 1_555
Nb7 O4 2.105597 1_555
Nb7 O6 2.105597 1_555
Nb7 O6 2.105597 1_655
Nb7 O4 2.105597 1_565
Nb7 O14 2.139872 1_555
Nb8 O5 2.108204 1_555
Nb8 O5 2.108204 1_565
Nb8 O7 2.108204 1_555
Nb8 O7 2.108204 1_655
Nb8 O15 2.170008 1_555
O8 Ti0 2.104985 1_455
O8 Ti0 2.104985 1_555
O10 Ti0 2.104985 1_555
O10 Ti0 2.104985 1_545
O13 Ti0 1.973021 1_556
O14 Ti0 1.973021 1_555
