# generated using pymatgen
data_TiCo3(BO4)2
_symmetry_space_group_name_H-M   'P 1'
_cell_length_a   3.14467000
_cell_length_b   9.38289700
_cell_length_c   9.52633600
_cell_angle_alpha   90.00000000
_cell_angle_beta   90.00000000
_cell_angle_gamma   90.00000000
_symmetry_Int_Tables_number   1
_chemical_formula_structural   TiCo3(BO4)2
_chemical_formula_sum   'Ti2 Co6 B4 O16'
_cell_volume   281.08516277
_cell_formula_units_Z   2
loop_
 _symmetry_equiv_pos_site_id
 _symmetry_equiv_pos_as_xyz
  1  'x, y, z'
loop_
 _atom_site_type_symbol
 _atom_site_label
 _atom_site_symmetry_multiplicity
 _atom_site_fract_x
 _atom_site_fract_y
 _atom_site_fract_z
 _atom_site_occupancy
  Ti  Ti0  1  0.00000000  0.60890400  0.81499700  1
  Ti  Ti1  1  0.00000000  0.10890400  0.18500300  1
  Co  Co0  1  0.50000000  0.39582700  0.06712800  1
  Co  Co1  1  0.50000000  0.89582700  0.93287200  1
  Co  Co2  1  0.00000000  0.60372400  0.43515600  1
  Co  Co3  1  0.00000000  0.10372400  0.56484400  1
  Co  Co4  1  0.50000000  0.37593800  0.67950500  1
  Co  Co5  1  0.50000000  0.87593800  0.32049500  1
  B  B0  1  0.50000000  0.33112500  0.37959600  1
  B  B1  1  0.50000000  0.83112500  0.62040400  1
  B  B2  1  0.00000000  0.66691500  0.12264700  1
  B  B3  1  0.00000000  0.16691500  0.87735300  1
  O  O0  1  0.50000000  0.50662700  0.87274000  1
  O  O1  1  0.50000000  0.00662700  0.12726000  1
  O  O2  1  0.00000000  0.52353500  0.64295500  1
  O  O3  1  0.00000000  0.02353500  0.35704500  1
  O  O4  1  0.50000000  0.47541000  0.37916000  1
  O  O5  1  0.50000000  0.97541000  0.62084000  1
  O  O6  1  0.00000000  0.52130500  0.11616700  1
  O  O7  1  0.00000000  0.02130500  0.88383300  1
  O  O8  1  0.50000000  0.25667900  0.24745900  1
  O  O9  1  0.50000000  0.75667900  0.75254100  1
  O  O10  1  0.00000000  0.73740600  0.25081700  1
  O  O11  1  0.00000000  0.23740600  0.74918300  1
  O  O12  1  0.50000000  0.25198700  0.50168300  1
  O  O13  1  0.50000000  0.75198700  0.49831700  1
  O  O14  1  0.00000000  0.74461800  0.99480700  1
  O  O15  1  0.00000000  0.24461800  0.00519300  1
loop_
_geom_bond_atom_site_label_1
_geom_bond_atom_site_label_2
_geom_bond_distance
_geom_bond_site_symmetry_2
Co0 O6 2.019065 1_655
Co0 O6 2.019065 1_555
Co0 O0 2.123677 1_554
Co0 O8 2.157726 1_555
Co0 O15 2.198474 1_555
Co0 O15 2.198474 1_655
Co1 O7 2.019065 1_565
Co1 O7 2.019065 1_665
Co1 O1 2.123677 1_566
Co1 O9 2.157726 1_555
Co1 O14 2.198474 1_655
Co1 O14 2.198474 1_555
Co2 O4 2.050928 1_455
Co2 O4 2.050928 1_555
Co2 O2 2.117731 1_555
Co2 O10 2.158038 1_555
Co2 O13 2.183926 1_455
Co2 O13 2.183926 1_555
Co3 O5 2.050928 1_445
Co3 O5 2.050928 1_545
Co3 O3 2.117731 1_555
Co3 O11 2.158038 1_555
Co3 O12 2.183926 1_555
Co3 O12 2.183926 1_455
Co4 O12 2.054805 1_555
Co4 O2 2.124002 1_555
Co4 O2 2.124002 1_655
Co4 O11 2.145320 1_655
Co4 O11 2.145320 1_555
Co4 O0 2.211853 1_555
Co5 O13 2.054805 1_555
Co5 O3 2.124002 1_665
Co5 O3 2.124002 1_565
Co5 O10 2.145320 1_555
Co5 O10 2.145320 1_655
Co5 O1 2.211853 1_565
B0 O4 1.353818 1_555
B0 O12 1.379869 1_555
B0 O8 1.439604 1_555
B1 O5 1.353818 1_555
B1 O13 1.379869 1_555
B1 O9 1.439604 1_555
B2 O6 1.367638 1_555
B2 O10 1.388625 1_555
B2 O14 1.419404 1_554
B3 O7 1.367638 1_555
B3 O11 1.388625 1_555
B3 O15 1.419404 1_556
O0 Ti0 1.922436 1_555
O0 Ti0 1.922436 1_655
O1 Ti1 1.922436 1_555
O1 Ti1 1.922436 1_655
O2 Ti0 1.824200 1_555
O3 Ti1 1.824200 1_555
O8 Ti1 2.179169 1_555
O8 Ti1 2.179169 1_655
O9 Ti0 2.179169 1_555
O9 Ti0 2.179169 1_655
O14 Ti0 2.134398 1_555
O15 Ti1 2.134398 1_555
