# generated using pymatgen
data_BN
_symmetry_space_group_name_H-M   'P 1'
_cell_length_a   6.67374450
_cell_length_b   6.67374450
_cell_length_c   4.39850340
_cell_angle_alpha   89.49035409
_cell_angle_beta   89.49035409
_cell_angle_gamma   21.69537884
_symmetry_Int_Tables_number   1
_chemical_formula_structural   BN
_chemical_formula_sum   'B4 N4'
_cell_volume   72.41734760
_cell_formula_units_Z   4
loop_
 _symmetry_equiv_pos_site_id
 _symmetry_equiv_pos_as_xyz
  1  'x, y, z'
loop_
 _atom_site_type_symbol
 _atom_site_label
 _atom_site_symmetry_multiplicity
 _atom_site_fract_x
 _atom_site_fract_y
 _atom_site_fract_z
 _atom_site_occupancy
  B  B0  1  0.00008300  0.00008300  0.00117600  1
  B  B1  1  0.20001100  0.20001100  0.57229800  1
  B  B2  1  0.86575300  0.86575300  0.61942500  1
  B  B3  1  0.53153100  0.53153100  0.50171800  1
  N  N0  1  0.98076800  0.98076800  0.65689400  1
  N  N1  1  0.50615500  0.50615500  0.15683600  1
  N  N2  1  0.64689500  0.64689500  0.55620200  1
  N  N3  1  0.31230200  0.31230200  0.60695100  1
loop_
_geom_bond_atom_site_label_1
_geom_bond_atom_site_label_2
_geom_bond_distance
_geom_bond_site_symmetry_2
B0 N1 1.433042 1_455
B0 N1 1.433042 1_545
B0 N0 1.537608 1_444
B1 N2 1.438140 1_545
B1 N2 1.438140 1_455
B1 N3 1.481263 1_555
B2 N3 1.439508 1_565
B2 N3 1.439508 1_655
B2 N0 1.518193 1_555
B3 N2 1.533317 1_555
B3 N1 1.555950 1_555
B3 N0 1.574159 1_545
B3 N0 1.574159 1_455
