# generated using pymatgen
data_InSn2Cl5
_symmetry_space_group_name_H-M   'P 1'
_cell_length_a   8.14923699
_cell_length_b   8.91192323
_cell_length_c   12.77381129
_cell_angle_alpha   90.32342834
_cell_angle_beta   90.00000000
_cell_angle_gamma   90.00000000
_symmetry_Int_Tables_number   1
_chemical_formula_structural   InSn2Cl5
_chemical_formula_sum   'In4 Sn8 Cl20'
_cell_volume   927.68804705
_cell_formula_units_Z   4
loop_
 _symmetry_equiv_pos_site_id
 _symmetry_equiv_pos_as_xyz
  1  'x, y, z'
loop_
 _atom_site_type_symbol
 _atom_site_label
 _atom_site_symmetry_multiplicity
 _atom_site_fract_x
 _atom_site_fract_y
 _atom_site_fract_z
 _atom_site_occupancy
  In  In0  1  0.04248287  0.51504134  0.33096125  1
  In  In1  1  0.95751713  0.48495866  0.66903875  1
  In  In2  1  0.54248287  0.48495866  0.16903875  1
  In  In3  1  0.45751713  0.51504134  0.83096125  1
  Sn  Sn0  1  0.96300058  -0.02147168  0.33752838  1
  Sn  Sn1  1  0.03699942  0.02147168  0.66247162  1
  Sn  Sn2  1  0.46300058  0.02147168  0.16247162  1
  Sn  Sn3  1  0.53699942  -0.02147168  0.83752838  1
  Sn  Sn4  1  0.03202808  0.26340802  0.00986945  1
  Sn  Sn5  1  0.96797192  0.73659198  0.99013055  1
  Sn  Sn6  1  0.53202808  0.73659198  0.49013055  1
  Sn  Sn7  1  0.46797192  0.26340802  0.50986945  1
  Cl  Cl0  1  0.16660786  0.54233131  0.08280729  1
  Cl  Cl1  1  0.83339214  0.45766869  0.91719271  1
  Cl  Cl2  1  0.66660786  0.45766869  0.41719271  1
  Cl  Cl3  1  0.33339214  0.54233131  0.58280729  1
  Cl  Cl4  1  0.84363950  0.25692384  0.17360014  1
  Cl  Cl5  1  0.15636050  0.74307616  0.82639986  1
  Cl  Cl6  1  0.34363950  0.74307616  0.32639986  1
  Cl  Cl7  1  0.65636050  0.25692384  0.67360014  1
  Cl  Cl8  1  0.32365058  0.24461729  0.26706332  1
  Cl  Cl9  1  0.67634942  0.75538271  0.73293668  1
  Cl  Cl10  1  0.82365058  0.75538271  0.23293668  1
  Cl  Cl11  1  0.17634942  0.24461729  0.76706332  1
  Cl  Cl12  1  0.46475184  0.21108107  0.00864563  1
  Cl  Cl13  1  0.53524816  0.78891893  0.99135437  1
  Cl  Cl14  1  0.96475184  0.78891893  0.49135437  1
  Cl  Cl15  1  0.03524816  0.21108107  0.50864563  1
  Cl  Cl16  1  0.66552977  0.04818994  0.39998763  1
  Cl  Cl17  1  0.33447023  0.95181006  0.60001237  1
  Cl  Cl18  1  0.16552977  0.95181006  0.10001237  1
  Cl  Cl19  1  0.83447023  0.04818994  0.89998763  1
loop_
_geom_bond_atom_site_label_1
_geom_bond_atom_site_label_2
_geom_bond_distance
_geom_bond_site_symmetry_2
Cl0 Sn5 2.653691 1_454
Cl0 Sn4 2.867687 1_555
Cl1 Sn4 2.653691 1_656
Cl1 Sn5 2.867687 1_555
Cl2 Sn7 2.653691 1_555
Cl2 Sn6 2.867687 1_555
Cl3 Sn6 2.653691 1_555
Cl3 Sn7 2.867687 1_555
Cl4 Sn4 2.595350 1_655
Cl5 Sn5 2.595350 1_455
Cl6 Sn6 2.595350 1_555
Cl7 Sn7 2.595350 1_555
Cl8 Sn2 2.645624 1_555
Cl8 In2 3.060412 1_555
Cl9 Sn3 2.645624 1_565
Cl9 In3 3.060412 1_555
Cl10 Sn0 2.645624 1_565
Cl10 In0 3.060412 1_655
Cl11 Sn1 2.645624 1_555
Cl11 In1 3.060412 1_455
Cl12 Sn2 2.598859 1_555
Cl12 Sn3 3.060805 1_554
Cl13 Sn3 2.598859 1_565
Cl13 Sn2 3.060805 1_566
Cl14 Sn0 2.598859 1_565
Cl14 Sn1 3.060805 1_665
Cl15 Sn1 2.598859 1_555
Cl15 Sn0 3.060805 1_455
Cl16 Sn0 2.625439 1_555
Cl16 Sn7 2.865380 1_555
Cl17 Sn1 2.625439 1_565
Cl17 Sn6 2.865380 1_555
Cl18 Sn2 2.625439 1_565
Cl18 Sn5 2.865380 1_454
Cl19 Sn3 2.625439 1_555
Cl19 Sn4 2.865380 1_656
