# generated using pymatgen
data_ZnSeO5
_symmetry_space_group_name_H-M   'P 1'
_cell_length_a   9.50448000
_cell_length_b   5.21962800
_cell_length_c   9.84721575
_cell_angle_alpha   69.43930831
_cell_angle_beta   90.00000000
_cell_angle_gamma   90.00000000
_symmetry_Int_Tables_number   1
_chemical_formula_structural   ZnSeO5
_chemical_formula_sum   'Zn4 Se4 O20'
_cell_volume   457.40058394
_cell_formula_units_Z   4
loop_
 _symmetry_equiv_pos_site_id
 _symmetry_equiv_pos_as_xyz
  1  'x, y, z'
loop_
 _atom_site_type_symbol
 _atom_site_label
 _atom_site_symmetry_multiplicity
 _atom_site_fract_x
 _atom_site_fract_y
 _atom_site_fract_z
 _atom_site_occupancy
  Zn  Zn0  1  0.36518600  0.93231400  0.42699200  1
  Zn  Zn1  1  0.13481400  0.93231400  0.92699200  1
  Zn  Zn2  1  0.63481400  0.06768600  0.57300800  1
  Zn  Zn3  1  0.86518600  0.06768600  0.07300800  1
  Se  Se0  1  0.83518000  0.67126100  0.85621400  1
  Se  Se1  1  0.66482000  0.67126100  0.35621400  1
  Se  Se2  1  0.16482000  0.32873900  0.14378600  1
  Se  Se3  1  0.33518000  0.32873900  0.64378600  1
  O  O0  1  0.69368700  0.83444600  0.76534800  1
  O  O1  1  0.80631300  0.83444600  0.26534800  1
  O  O2  1  0.30631300  0.16555400  0.23465200  1
  O  O3  1  0.19368700  0.16555400  0.73465200  1
  O  O4  1  0.41778100  0.09459300  0.57976200  1
  O  O5  1  0.08221900  0.09459300  0.07976200  1
  O  O6  1  0.58221900  0.90540700  0.42023800  1
  O  O7  1  0.91778100  0.90540700  0.92023800  1
  O  O8  1  0.77032200  0.42405100  0.00461300  1
  O  O9  1  0.72967800  0.42405100  0.50461300  1
  O  O10  1  0.22967800  0.57594900  0.99538700  1
  O  O11  1  0.27032200  0.57594900  0.49538700  1
  O  O12  1  0.45244300  0.43967900  0.73038300  1
  O  O13  1  0.04755700  0.43967900  0.23038300  1
  O  O14  1  0.54755700  0.56032100  0.26961700  1
  O  O15  1  0.95244300  0.56032100  0.76961700  1
  O  O16  1  0.06177200  0.98963700  0.51941800  1
  O  O17  1  0.43822800  0.98963700  0.01941800  1
  O  O18  1  0.93822800  0.01036300  0.48058200  1
  O  O19  1  0.56177200  0.01036300  0.98058200  1
loop_
_geom_bond_atom_site_label_1
_geom_bond_atom_site_label_2
_geom_bond_distance
_geom_bond_site_symmetry_2
O0 Se0 1.673122 1_555
O0 Zn2 1.939823 1_565
O1 Se1 1.673122 1_555
O1 Zn3 1.939823 1_565
O2 Se2 1.673122 1_555
O2 Zn0 1.939823 1_545
O3 Se3 1.673122 1_555
O3 Zn1 1.939823 1_545
O4 Se3 1.746053 1_555
O4 Zn0 2.031129 1_545
O4 Zn2 2.070216 1_555
O5 Se2 1.746053 1_555
O5 Zn1 2.031129 1_544
O5 Zn3 2.070216 1_455
O6 Se1 1.746053 1_555
O6 Zn2 2.031129 1_565
O6 Zn0 2.070216 1_555
O7 Se0 1.746053 1_555
O7 Zn3 2.031129 1_566
O7 Zn1 2.070216 1_655
O8 Se0 1.689968 1_554
O8 Zn3 1.961261 1_555
O9 Se1 1.689968 1_555
O9 Zn2 1.961261 1_555
O10 Se2 1.689968 1_556
O10 Zn1 1.961261 1_555
O11 Se3 1.689968 1_555
O11 Zn0 1.961261 1_555
O12 Se3 1.628338 1_555
O13 Se2 1.628338 1_555
O14 Se1 1.628338 1_555
O15 Se0 1.628338 1_555
O16 O18 1.227880 1_465
O17 O19 1.227880 1_564
