# generated using pymatgen
data_NdLuS3
_symmetry_space_group_name_H-M   'P 1'
_cell_length_a   6.55856680
_cell_length_b   6.55856680
_cell_length_c   9.46813733
_cell_angle_alpha   90.00000000
_cell_angle_beta   90.00000000
_cell_angle_gamma   145.74937984
_symmetry_Int_Tables_number   1
_chemical_formula_structural   NdLuS3
_chemical_formula_sum   'Nd2 Lu2 S6'
_cell_volume   229.21721771
_cell_formula_units_Z   2
loop_
 _symmetry_equiv_pos_site_id
 _symmetry_equiv_pos_as_xyz
  1  'x, y, z'
loop_
 _atom_site_type_symbol
 _atom_site_label
 _atom_site_symmetry_multiplicity
 _atom_site_fract_x
 _atom_site_fract_y
 _atom_site_fract_z
 _atom_site_occupancy
  Nd  Nd0  1  0.74698819  0.25301181  0.25000000  1
  Nd  Nd1  1  0.25301181  0.74698819  0.75000000  1
  Lu  Lu0  1  0.00000000  -0.00000000  0.50000000  1
  Lu  Lu1  1  0.00000000  -0.00000000  -0.00000000  1
  S  S0  1  0.64124908  0.35875092  0.56267066  1
  S  S1  1  0.64124908  0.35875092  0.93732934  1
  S  S2  1  0.35875092  0.64124908  0.06267066  1
  S  S3  1  0.35875092  0.64124908  0.43732934  1
  S  S4  1  0.08599628  0.91400372  0.25000000  1
  S  S5  1  0.91400372  0.08599628  0.75000000  1
loop_
_geom_bond_atom_site_label_1
_geom_bond_atom_site_label_2
_geom_bond_distance
_geom_bond_site_symmetry_2
Nd0 S4 2.793306 1_655
Nd0 S4 2.793306 1_545
Nd0 S3 2.972949 1_545
Nd0 S2 2.972949 1_545
Nd0 S2 2.972949 1_655
Nd0 S3 2.972949 1_655
Nd0 S1 3.243604 1_554
Nd0 S0 3.243604 1_555
Nd1 S5 2.793306 1_565
Nd1 S5 2.793306 1_455
Nd1 S1 2.972949 1_565
Nd1 S1 2.972949 1_455
Nd1 S0 2.972949 1_565
Nd1 S0 2.972949 1_455
Nd1 S2 3.243604 1_556
Nd1 S3 3.243604 1_555
Lu0 S5 2.600954 1_455
Lu0 S4 2.600954 1_545
Lu0 S0 2.686444 1_445
Lu0 S3 2.686444 1_445
Lu0 S0 2.686444 1_555
Lu0 S3 2.686444 1_555
Lu1 S4 2.600954 1_545
Lu1 S5 2.600954 1_454
Lu1 S1 2.686444 1_444
Lu1 S2 2.686444 1_445
Lu1 S1 2.686444 1_554
Lu1 S2 2.686444 1_555
