# generated using pymatgen
data_Nd4(WO5)3
_symmetry_space_group_name_H-M   'P 1'
_cell_length_a   10.13031801
_cell_length_b   10.13031801
_cell_length_c   12.38861222
_cell_angle_alpha   89.76841604
_cell_angle_beta   90.23158396
_cell_angle_gamma   89.93686315
_symmetry_Int_Tables_number   1
_chemical_formula_structural   Nd4(WO5)3
_chemical_formula_sum   'Nd16 W12 O60'
_cell_volume   1271.33923504
_cell_formula_units_Z   4
loop_
 _symmetry_equiv_pos_site_id
 _symmetry_equiv_pos_as_xyz
  1  'x, y, z'
loop_
 _atom_site_type_symbol
 _atom_site_label
 _atom_site_symmetry_multiplicity
 _atom_site_fract_x
 _atom_site_fract_y
 _atom_site_fract_z
 _atom_site_occupancy
  Nd  Nd0  1  0.50100600  0.50100600  0.50000000  1
  Nd  Nd1  1  0.99851400  0.99851400  0.00000000  1
  Nd  Nd2  1  0.23427600  0.23427600  0.50000000  1
  Nd  Nd3  1  0.76518500  0.76518500  0.50000000  1
  Nd  Nd4  1  0.72837500  0.72837500  0.00000000  1
  Nd  Nd5  1  0.26845100  0.26845100  0.00000000  1
  Nd  Nd6  1  0.75014200  0.22163600  0.49861200  1
  Nd  Nd7  1  0.22163600  0.75014200  0.50138800  1
  Nd  Nd8  1  0.26992000  0.72958000  0.00262600  1
  Nd  Nd9  1  0.72958000  0.26992000  0.99737400  1
  Nd  Nd10  1  0.76215200  0.49948700  0.73839700  1
  Nd  Nd11  1  0.73308000  0.99583400  0.76374300  1
  Nd  Nd12  1  0.26819100  0.99764300  0.76827900  1
  Nd  Nd13  1  0.49948700  0.76215200  0.26160300  1
  Nd  Nd14  1  0.99583400  0.73308000  0.23625700  1
  Nd  Nd15  1  0.99764300  0.26819100  0.23172100  1
  W  W0  1  0.49531600  0.30671300  0.73005100  1
  W  W1  1  0.49467000  0.68932500  0.73137400  1
  W  W2  1  0.99970000  0.80320700  0.77244600  1
  W  W3  1  0.99865100  0.19542700  0.76974000  1
  W  W4  1  0.68932500  0.49467000  0.26862600  1
  W  W5  1  0.30671300  0.49531600  0.26994900  1
  W  W6  1  0.19542700  0.99865100  0.23026000  1
  W  W7  1  0.80320700  0.99970000  0.22755400  1
  W  W8  1  0.50209000  0.99763400  0.54963100  1
  W  W9  1  0.00003200  0.49940200  0.95492600  1
  W  W10  1  0.99763400  0.50209000  0.45036900  1
  W  W11  1  0.49940200  0.00003200  0.04507400  1
  O  O0  1  0.49723800  0.49958600  0.76597600  1
  O  O1  1  0.99421500  0.99949600  0.74447900  1
  O  O2  1  0.49958600  0.49723800  0.23402400  1
  O  O3  1  0.99949600  0.99421500  0.25552100  1
  O  O4  1  0.15077900  0.50910300  0.52722300  1
  O  O5  1  0.86984900  0.50766100  0.55535800  1
  O  O6  1  0.63805000  0.99101400  0.94807400  1
  O  O7  1  0.35558000  0.99282000  0.95258700  1
  O  O8  1  0.50910300  0.15077900  0.47277700  1
  O  O9  1  0.50766100  0.86984900  0.44464200  1
  O  O10  1  0.99101400  0.63805000  0.05192700  1
  O  O11  1  0.99282000  0.35558000  0.04741300  1
  O  O12  1  0.18715400  0.50080100  0.94959300  1
  O  O13  1  0.80277100  0.49978800  0.94013900  1
  O  O14  1  0.69844900  0.99437100  0.56464100  1
  O  O15  1  0.31217400  0.99775500  0.56808300  1
  O  O16  1  0.50080100  0.18715400  0.05040700  1
  O  O17  1  0.49978800  0.80277100  0.05986100  1
  O  O18  1  0.99437100  0.69844900  0.43535900  1
  O  O19  1  0.99775500  0.31217400  0.43191700  1
  O  O20  1  0.11967700  0.51432900  0.30727200  1
  O  O21  1  0.87781000  0.51332200  0.31138100  1
  O  O22  1  0.62516300  0.98721300  0.18008700  1
  O  O23  1  0.37248500  0.98655700  0.18071800  1
  O  O24  1  0.51432900  0.11967700  0.69272800  1
  O  O25  1  0.51332200  0.87781000  0.68862000  1
  O  O26  1  0.98721300  0.62516300  0.81991300  1
  O  O27  1  0.98655700  0.37248500  0.81928200  1
  O  O28  1  0.37882200  0.34311400  0.61412900  1
  O  O29  1  0.63539300  0.64043700  0.61886100  1
  O  O30  1  0.86667500  0.85630600  0.88380800  1
  O  O31  1  0.13064200  0.14370700  0.88326500  1
  O  O32  1  0.63533700  0.36021900  0.61869000  1
  O  O33  1  0.37961700  0.65834600  0.61354900  1
  O  O34  1  0.13018600  0.85456300  0.88503700  1
  O  O35  1  0.86488600  0.14108900  0.88183100  1
  O  O36  1  0.65834600  0.37961700  0.38645100  1
  O  O37  1  0.36021900  0.63533700  0.38131000  1
  O  O38  1  0.14108900  0.86488600  0.11816900  1
  O  O39  1  0.85456300  0.13018600  0.11496300  1
  O  O40  1  0.34311400  0.37882200  0.38587100  1
  O  O41  1  0.64043700  0.63539300  0.38113900  1
  O  O42  1  0.85630600  0.86667500  0.11619200  1
  O  O43  1  0.14370700  0.13064200  0.11673500  1
  O  O44  1  0.26018400  0.37265200  0.16624600  1
  O  O45  1  0.69920600  0.64962800  0.17649000  1
  O  O46  1  0.79621400  0.86014200  0.32750400  1
  O  O47  1  0.19474900  0.14122500  0.32711100  1
  O  O48  1  0.73867600  0.37310900  0.16538100  1
  O  O49  1  0.30134000  0.65020600  0.17728900  1
  O  O50  1  0.20367800  0.86073500  0.33179600  1
  O  O51  1  0.80498900  0.14217800  0.32413100  1
  O  O52  1  0.65020600  0.30134000  0.82271100  1
  O  O53  1  0.37310900  0.73867600  0.83461900  1
  O  O54  1  0.14217800  0.80498900  0.67586900  1
  O  O55  1  0.86073500  0.20367800  0.66820400  1
  O  O56  1  0.37265200  0.26018400  0.83375400  1
  O  O57  1  0.64962800  0.69920600  0.82351000  1
  O  O58  1  0.86014200  0.79621400  0.67249600  1
  O  O59  1  0.14122500  0.19474900  0.67288900  1
loop_
_geom_bond_atom_site_label_1
_geom_bond_atom_site_label_2
_geom_bond_distance
_geom_bond_site_symmetry_2
Nd0 O37 2.451652 1_555
Nd0 O32 2.451652 1_555
Nd0 O29 2.453902 1_555
Nd0 O41 2.453902 1_555
Nd0 O36 2.461575 1_555
Nd0 O33 2.461575 1_555
Nd0 O28 2.467749 1_555
Nd0 O40 2.467749 1_555
Nd1 O42 2.436517 1_555
Nd1 O30 2.436517 1_554
Nd1 O39 2.441737 1_565
Nd1 O34 2.441737 1_654
Nd1 O38 2.454446 1_655
Nd1 O35 2.454446 1_564
Nd1 O43 2.459517 1_665
Nd1 O31 2.459517 1_664
Nd2 O28 2.314811 1_555
Nd2 O40 2.314811 1_555
Nd2 O59 2.376271 1_555
Nd2 O47 2.376271 1_555
Nd2 O19 2.655039 1_455
Nd2 O15 2.655039 1_545
Nd2 O8 2.930024 1_555
Nd2 O4 2.930024 1_555
Nd3 O29 2.344870 1_555
Nd3 O41 2.344870 1_555
Nd3 O58 2.362273 1_555
Nd3 O46 2.362273 1_555
Nd3 O18 2.550435 1_555
Nd3 O14 2.550435 1_555
Nd3 O5 2.893774 1_555
Nd3 O9 2.893774 1_555
Nd4 O57 2.344348 1_554
Nd4 O45 2.344348 1_555
Nd4 O42 2.391589 1_555
Nd4 O30 2.391589 1_554
Nd4 O13 2.548488 1_554
Nd4 O17 2.548488 1_555
Nd4 O6 2.882015 1_554
Nd4 O10 2.882017 1_555
Nd5 O56 2.319878 1_554
Nd5 O44 2.319878 1_555
Nd5 O43 2.374799 1_555
Nd5 O31 2.374799 1_554
Nd5 O16 2.566747 1_555
Nd5 O12 2.566747 1_554
Nd6 O36 2.307616 1_555
Nd6 O32 2.358755 1_555
Nd6 O51 2.377359 1_555
Nd6 O55 2.383262 1_555
Nd6 O14 2.496936 1_545
Nd6 O8 2.565049 1_555
Nd6 O19 2.798514 1_555
Nd7 O33 2.307616 1_555
Nd7 O37 2.358755 1_555
Nd7 O54 2.377359 1_555
Nd7 O50 2.383262 1_555
Nd7 O18 2.496936 1_455
Nd7 O4 2.565049 1_555
Nd7 O15 2.798514 1_555
Nd8 O49 2.325905 1_555
Nd8 O53 2.334435 1_554
Nd8 O38 2.378667 1_555
Nd8 O34 2.386099 1_554
Nd8 O17 2.543574 1_555
Nd8 O12 2.553052 1_554
Nd8 O7 2.871360 1_554
Nd8 O10 3.038233 1_455
Nd9 O52 2.325905 1_555
Nd9 O48 2.334435 1_556
Nd9 O35 2.378667 1_555
Nd9 O39 2.386099 1_556
Nd9 O13 2.543574 1_555
Nd9 O16 2.553052 1_556
Nd9 O11 2.871360 1_556
Nd9 O6 3.038231 1_545
Nd10 O29 2.417490 1_555
Nd10 O32 2.417776 1_555
Nd10 O5 2.521475 1_555
Nd10 O52 2.530609 1_555
Nd10 O13 2.531323 1_555
Nd10 O57 2.554700 1_555
Nd10 O0 2.706694 1_555
Nd10 O27 2.791408 1_555
Nd10 O26 2.799468 1_555
Nd11 O30 2.450398 1_555
Nd11 O35 2.468656 1_565
Nd11 O6 2.482130 1_555
Nd11 O14 2.490123 1_555
Nd11 O58 2.654909 1_555
Nd11 O1 2.657371 1_555
Nd11 O24 2.688471 1_565
Nd11 O25 2.692548 1_555
Nd11 O55 2.739470 1_565
Nd12 O7 2.445878 1_555
Nd12 O34 2.480228 1_555
Nd12 O31 2.487736 1_565
Nd12 O15 2.521624 1_555
Nd12 O54 2.600170 1_555
Nd12 O59 2.645909 1_565
Nd12 O1 2.789931 1_455
Nd12 O25 2.938873 1_555
Nd12 O24 2.939042 1_565
Nd12 O53 2.942244 1_555
Nd12 O56 2.977934 1_565
Nd13 O41 2.417490 1_555
Nd13 O37 2.417776 1_555
Nd13 O9 2.521475 1_555
Nd13 O49 2.530609 1_555
Nd13 O17 2.531323 1_555
Nd13 O45 2.554700 1_555
Nd13 O2 2.706694 1_555
Nd13 O23 2.791408 1_555
Nd13 O22 2.799468 1_555
Nd14 O42 2.450398 1_555
Nd14 O38 2.468656 1_655
Nd14 O10 2.482119 1_555
Nd14 O18 2.490123 1_555
Nd14 O46 2.654909 1_555
Nd14 O3 2.657371 1_555
Nd14 O20 2.688471 1_655
Nd14 O21 2.692552 1_555
Nd14 O50 2.739470 1_655
Nd15 O11 2.445878 1_555
Nd15 O39 2.480228 1_555
Nd15 O43 2.487736 1_655
Nd15 O19 2.521624 1_555
Nd15 O51 2.600170 1_555
Nd15 O47 2.645909 1_655
Nd15 O3 2.789931 1_545
Nd15 O21 2.938877 1_555
Nd15 O20 2.939042 1_655
Nd15 O48 2.942244 1_555
Nd15 O44 2.977934 1_655
O0 W1 1.967767 1_555
O0 W0 2.005764 1_555
O1 W3 2.011135 1_565
O1 W2 2.017715 1_555
O2 W4 1.967767 1_555
O2 W5 2.005764 1_555
O3 W6 2.011135 1_655
O3 W7 2.017715 1_555
O4 W10 1.818594 1_455
O5 W10 1.839756 1_555
O6 W11 1.854568 1_566
O7 W11 1.851572 1_566
O8 W8 1.818594 1_545
O9 W8 1.839756 1_555
O10 W9 1.854576 1_654
O11 W9 1.851572 1_654
O12 W9 1.897090 1_555
O13 W9 2.005956 1_655
O14 W8 1.997328 1_555
O15 W8 1.938359 1_555
O16 W11 1.897090 1_555
O17 W11 2.005956 1_565
O18 W10 1.997328 1_555
O19 W10 1.938359 1_555
O20 W5 1.961609 1_555
O20 W10 2.168617 1_455
O21 W4 1.988855 1_555
O21 W10 2.105336 1_555
O22 W7 1.899332 1_555
O22 W11 2.101966 1_565
O23 W6 1.902084 1_555
O23 W11 2.124044 1_565
O24 W0 1.961609 1_555
O24 W8 2.168617 1_545
O25 W1 1.988852 1_555
O25 W8 2.105346 1_555
O26 W2 1.899332 1_555
O26 W9 2.101966 1_655
O27 W3 1.902084 1_555
O27 W9 2.124044 1_655
O28 W0 1.890012 1_555
O29 W1 2.059249 1_555
O30 W2 2.007017 1_555
O31 W3 2.004416 1_455
O32 W0 2.054412 1_555
O33 W1 1.891660 1_555
O34 W2 1.988985 1_455
O35 W3 2.019476 1_555
O36 W4 1.891660 1_555
O37 W5 2.054412 1_555
O38 W6 2.019476 1_555
O39 W7 1.988985 1_545
O40 W5 1.890012 1_555
O41 W4 2.059249 1_555
O42 W7 2.007017 1_555
O43 W6 2.004416 1_545
O44 W5 1.850984 1_555
O45 W4 1.940071 1_555
O46 W7 1.877173 1_555
O47 W6 1.881436 1_545
O48 W4 1.849043 1_555
O49 W5 1.940999 1_555
O50 W6 1.877749 1_555
O51 W7 1.878543 1_545
O52 W0 1.940999 1_555
O53 W1 1.849043 1_555
O54 W2 1.878543 1_455
O55 W3 1.877749 1_555
O56 W0 1.850984 1_555
O57 W1 1.940071 1_555
O58 W2 1.877173 1_555
O59 W3 1.881436 1_455
