# generated using pymatgen
data_GaAs
_symmetry_space_group_name_H-M   'P 1'
_cell_length_a   7.05311400
_cell_length_b   7.05311400
_cell_length_c   7.05311400
_cell_angle_alpha   90.00000000
_cell_angle_beta   90.00000000
_cell_angle_gamma   90.00000000
_symmetry_Int_Tables_number   1
_chemical_formula_structural   GaAs
_chemical_formula_sum   'Ga8 As8'
_cell_volume   350.86715088
_cell_formula_units_Z   8
loop_
 _symmetry_equiv_pos_site_id
 _symmetry_equiv_pos_as_xyz
  1  'x, y, z'
loop_
 _atom_site_type_symbol
 _atom_site_label
 _atom_site_symmetry_multiplicity
 _atom_site_fract_x
 _atom_site_fract_y
 _atom_site_fract_z
 _atom_site_occupancy
  Ga  Ga0  1  0.34164100  0.34164100  0.34164100  1
  Ga  Ga1  1  0.15835900  0.65835900  0.84164100  1
  Ga  Ga2  1  0.84164100  0.15835900  0.65835900  1
  Ga  Ga3  1  0.65835900  0.84164100  0.15835900  1
  Ga  Ga4  1  0.65835900  0.65835900  0.65835900  1
  Ga  Ga5  1  0.84164100  0.34164100  0.15835900  1
  Ga  Ga6  1  0.15835900  0.84164100  0.34164100  1
  Ga  Ga7  1  0.34164100  0.15835900  0.84164100  1
  As  As0  1  0.14098500  0.14098500  0.14098500  1
  As  As1  1  0.35901500  0.85901500  0.64098500  1
  As  As2  1  0.64098500  0.35901500  0.85901500  1
  As  As3  1  0.85901500  0.64098500  0.35901500  1
  As  As4  1  0.85901500  0.85901500  0.85901500  1
  As  As5  1  0.64098500  0.14098500  0.35901500  1
  As  As6  1  0.35901500  0.64098500  0.14098500  1
  As  As7  1  0.14098500  0.35901500  0.64098500  1
loop_
_geom_bond_atom_site_label_1
_geom_bond_atom_site_label_2
_geom_bond_distance
_geom_bond_site_symmetry_2
As0 Ga0 2.451284 1_555
As0 Ga6 2.544713 1_545
As0 Ga5 2.544713 1_455
As0 Ga7 2.544713 1_554
As1 Ga1 2.451284 1_555
As1 Ga6 2.544713 1_555
As1 Ga4 2.544713 1_555
As1 Ga7 2.544713 1_565
As2 Ga2 2.451284 1_555
As2 Ga7 2.544713 1_555
As2 Ga4 2.544713 1_555
As2 Ga5 2.544713 1_556
As3 Ga3 2.451284 1_555
As3 Ga5 2.544713 1_555
As3 Ga4 2.544713 1_555
As3 Ga6 2.544713 1_655
As4 Ga4 2.451284 1_555
As4 Ga3 2.544713 1_556
As4 Ga2 2.544713 1_565
As4 Ga1 2.544713 1_655
As5 Ga5 2.451284 1_555
As5 Ga0 2.544713 1_555
As5 Ga2 2.544713 1_555
As5 Ga3 2.544713 1_545
As6 Ga6 2.451284 1_555
As6 Ga0 2.544713 1_555
As6 Ga3 2.544713 1_555
As6 Ga1 2.544713 1_554
As7 Ga7 2.451284 1_555
As7 Ga0 2.544713 1_555
As7 Ga1 2.544713 1_555
As7 Ga2 2.544713 1_455
