# generated using pymatgen
data_NbMoSe3
_symmetry_space_group_name_H-M   'P 1'
_cell_length_a   3.40023900
_cell_length_b   6.65206100
_cell_length_c   9.22155792
_cell_angle_alpha   74.79624438
_cell_angle_beta   90.00000000
_cell_angle_gamma   90.00000000
_symmetry_Int_Tables_number   1
_chemical_formula_structural   NbMoSe3
_chemical_formula_sum   'Nb2 Mo2 Se6'
_cell_volume   201.27830529
_cell_formula_units_Z   2
loop_
 _symmetry_equiv_pos_site_id
 _symmetry_equiv_pos_as_xyz
  1  'x, y, z'
loop_
 _atom_site_type_symbol
 _atom_site_label
 _atom_site_symmetry_multiplicity
 _atom_site_fract_x
 _atom_site_fract_y
 _atom_site_fract_z
 _atom_site_occupancy
  Nb  Nb0  1  0.25000000  0.68252000  0.00034200  1
  Nb  Nb1  1  0.75000000  0.31748000  0.99965800  1
  Mo  Mo0  1  0.25000000  0.89149600  0.62323900  1
  Mo  Mo1  1  0.75000000  0.10850400  0.37676100  1
  Se  Se0  1  0.25000000  0.02590500  0.16487600  1
  Se  Se1  1  0.75000000  0.97409500  0.83512400  1
  Se  Se2  1  0.25000000  0.48794100  0.79276500  1
  Se  Se3  1  0.75000000  0.51205900  0.20723500  1
  Se  Se4  1  0.25000000  0.27134700  0.51306500  1
  Se  Se5  1  0.75000000  0.72865300  0.48693500  1
loop_
_geom_bond_atom_site_label_1
_geom_bond_atom_site_label_2
_geom_bond_distance
_geom_bond_site_symmetry_2
Nb0 Se2 2.576620 1_554
Nb0 Se3 2.584853 1_455
Nb0 Se3 2.584853 1_555
Nb0 Se1 2.724640 1_454
Nb0 Se1 2.724640 1_554
Nb0 Se0 3.055738 1_565
Nb1 Se3 2.576620 1_556
Nb1 Se2 2.584853 1_655
Nb1 Se2 2.584853 1_555
Nb1 Se0 2.724640 1_656
Nb1 Se0 2.724640 1_556
Nb1 Se1 3.055738 1_545
Mo0 Se4 2.463818 1_565
Mo0 Se5 2.521478 1_455
Mo0 Se5 2.521478 1_555
Mo0 Se2 2.729310 1_555
Mo0 Se1 2.751939 1_555
Mo0 Se1 2.751939 1_455
Mo1 Se5 2.463818 1_545
Mo1 Se4 2.521478 1_555
Mo1 Se4 2.521478 1_655
Mo1 Se3 2.729310 1_555
Mo1 Se0 2.751939 1_555
Mo1 Se0 2.751939 1_655
