# generated using pymatgen
data_MgAgF5
_symmetry_space_group_name_H-M   'P 1'
_cell_length_a   5.50044885
_cell_length_b   5.50044885
_cell_length_c   8.46610437
_cell_angle_alpha   66.57803441
_cell_angle_beta   66.57803441
_cell_angle_gamma   69.42752407
_symmetry_Int_Tables_number   1
_chemical_formula_structural   MgAgF5
_chemical_formula_sum   'Mg2 Ag2 F10'
_cell_volume   209.90409777
_cell_formula_units_Z   2
loop_
 _symmetry_equiv_pos_site_id
 _symmetry_equiv_pos_as_xyz
  1  'x, y, z'
loop_
 _atom_site_type_symbol
 _atom_site_label
 _atom_site_symmetry_multiplicity
 _atom_site_fract_x
 _atom_site_fract_y
 _atom_site_fract_z
 _atom_site_occupancy
  Mg  Mg0  1  0.51118100  0.48881900  0.75000000  1
  Mg  Mg1  1  0.48881900  0.51118100  0.25000000  1
  Ag  Ag0  1  0.00000000  0.00000000  0.00000000  1
  Ag  Ag1  1  0.00000000  0.00000000  0.50000000  1
  F  F0  1  0.18061800  0.81938200  0.25000000  1
  F  F1  1  0.81938200  0.18061800  0.75000000  1
  F  F2  1  0.22758000  0.26765600  0.36689600  1
  F  F3  1  0.73234400  0.77242000  0.13310400  1
  F  F4  1  0.70246100  0.32584300  0.06095000  1
  F  F5  1  0.67415700  0.29753900  0.43905000  1
  F  F6  1  0.29753900  0.67415700  0.93905000  1
  F  F7  1  0.32584300  0.70246100  0.56095000  1
  F  F8  1  0.26765600  0.22758000  0.86689600  1
  F  F9  1  0.77242000  0.73234400  0.63310400  1
loop_
_geom_bond_atom_site_label_1
_geom_bond_atom_site_label_2
_geom_bond_distance
_geom_bond_site_symmetry_2
Ag0 F3 1.964462 1_445
Ag0 F8 1.964462 1_554
Ag0 F4 2.039467 1_455
Ag0 F6 2.039467 1_544
Ag0 F1 2.400008 1_454
Ag0 F0 2.400008 1_545
Ag1 F9 1.964462 1_445
Ag1 F2 1.964462 1_555
Ag1 F7 2.039467 1_545
Ag1 F5 2.039467 1_455
Ag1 F0 2.400008 1_545
Ag1 F1 2.400008 1_455
F0 Mg1 1.930805 1_555
F1 Mg0 1.930805 1_555
F2 Mg1 2.001677 1_555
F3 Mg1 2.001677 1_555
F4 Mg1 1.985404 1_555
F5 Mg1 1.985404 1_555
F6 Mg0 1.985404 1_555
F7 Mg0 1.985404 1_555
F8 Mg0 2.001677 1_555
F9 Mg0 2.001677 1_555
