# generated using pymatgen
data_Mg2MnWO6
_symmetry_space_group_name_H-M   'P 1'
_cell_length_a   5.26117167
_cell_length_b   5.64126194
_cell_length_c   7.69489210
_cell_angle_alpha   95.47965657
_cell_angle_beta   89.96113239
_cell_angle_gamma   90.23171646
_symmetry_Int_Tables_number   1
_chemical_formula_structural   Mg2MnWO6
_chemical_formula_sum   'Mg4 Mn2 W2 O12'
_cell_volume   227.33614994
_cell_formula_units_Z   2
loop_
 _symmetry_equiv_pos_site_id
 _symmetry_equiv_pos_as_xyz
  1  'x, y, z'
loop_
 _atom_site_type_symbol
 _atom_site_label
 _atom_site_symmetry_multiplicity
 _atom_site_fract_x
 _atom_site_fract_y
 _atom_site_fract_z
 _atom_site_occupancy
  Mg  Mg0  1  0.50029300  0.06867600  0.70707700  1
  Mg  Mg1  1  0.00031100  0.56868100  0.20705800  1
  Mg  Mg2  1  0.00131100  0.57462400  0.70547400  1
  Mg  Mg3  1  0.50136000  0.07462700  0.20548000  1
  Mn  Mn0  1  0.99928000  0.00390500  0.49182300  1
  Mn  Mn1  1  0.49952500  0.50396800  0.99185800  1
  W  W0  1  0.50068800  0.47632300  0.50398000  1
  W  W1  1  0.00074000  0.97634200  0.00397600  1
  O  O0  1  0.35078300  0.43594100  0.73840800  1
  O  O1  1  0.85079000  0.93594800  0.23840100  1
  O  O2  1  0.14203700  0.94241800  0.77172500  1
  O  O3  1  0.64203700  0.44242600  0.27172800  1
  O  O4  1  0.17971500  0.26223300  0.08909500  1
  O  O5  1  0.67971700  0.76220500  0.58910200  1
  O  O6  1  0.18357500  0.61894200  0.44875800  1
  O  O7  1  0.68356100  0.11895800  0.94874900  1
  O  O8  1  0.28821900  0.79708600  0.10031200  1
  O  O9  1  0.78822900  0.29705700  0.60032100  1
  O  O10  1  0.36250100  0.14518600  0.45084600  1
  O  O11  1  0.86252700  0.64518700  0.95082800  1
loop_
_geom_bond_atom_site_label_1
_geom_bond_atom_site_label_2
_geom_bond_distance
_geom_bond_site_symmetry_2
Mg0 O2 2.088769 1_545
Mg0 O7 2.089949 1_555
Mg0 O5 2.101556 1_545
Mg0 O10 2.183190 1_555
Mg0 O9 2.194130 1_555
Mg0 O0 2.210634 1_555
Mg1 O3 2.088894 1_455
Mg1 O6 2.090123 1_555
Mg1 O4 2.101374 1_555
Mg1 O11 2.183162 1_454
Mg1 O8 2.194079 1_555
Mg1 O1 2.210667 1_455
Mg2 O0 2.026571 1_555
Mg2 O9 2.026910 1_455
Mg2 O11 2.028050 1_455
Mg2 O2 2.213373 1_555
Mg2 O6 2.230260 1_555
Mg2 O5 2.232013 1_455
Mg3 O1 2.026345 1_545
Mg3 O8 2.027011 1_545
Mg3 O10 2.028274 1_555
Mg3 O3 2.213311 1_555
Mg3 O7 2.230236 1_554
Mg3 O4 2.232335 1_555
Mn0 O9 2.101129 1_555
Mn0 O1 2.101636 1_545
Mn0 O10 2.102687 1_655
Mn0 O5 2.328263 1_545
Mn0 O2 2.338873 1_645
Mn0 O6 2.375981 1_645
Mn1 O11 2.101582 1_555
Mn1 O8 2.101590 1_556
Mn1 O0 2.102361 1_555
Mn1 O4 2.329198 1_556
Mn1 O3 2.338301 1_556
Mn1 O7 2.375677 1_555
O0 W0 2.000763 1_555
O1 W1 2.000849 1_655
O2 W1 1.927997 1_556
O3 W0 1.928107 1_555
O4 W1 1.924456 1_545
O5 W0 1.924560 1_555
O6 W0 1.920544 1_555
O7 W1 1.920849 1_646
O8 W1 2.004182 1_555
O9 W0 2.004476 1_555
O10 W0 2.007193 1_555
O11 W1 2.007346 1_656
