# generated using pymatgen
data_K5Na3Ta7NbO24
_symmetry_space_group_name_H-M   'P 1'
_cell_length_a   8.02436584
_cell_length_b   8.02436584
_cell_length_c   8.02353601
_cell_angle_alpha   89.99845994
_cell_angle_beta   89.99845994
_cell_angle_gamma   90.00134301
_symmetry_Int_Tables_number   1
_chemical_formula_structural   K5Na3Ta7NbO24
_chemical_formula_sum   'K5 Na3 Ta7 Nb1 O24'
_cell_volume   516.63907053
_cell_formula_units_Z   1
loop_
 _symmetry_equiv_pos_site_id
 _symmetry_equiv_pos_as_xyz
  1  'x, y, z'
loop_
 _atom_site_type_symbol
 _atom_site_label
 _atom_site_symmetry_multiplicity
 _atom_site_fract_x
 _atom_site_fract_y
 _atom_site_fract_z
 _atom_site_occupancy
  K  K0  1  0.74995000  0.74995000  0.25005000  1
  K  K1  1  0.25005800  0.74995800  0.25004800  1
  K  K2  1  0.74995800  0.25005800  0.25004800  1
  K  K3  1  0.25004000  0.25004000  0.25004100  1
  K  K4  1  0.25005000  0.25005000  0.74994900  1
  Na  Na0  1  0.74999200  0.74999200  0.74999200  1
  Na  Na1  1  0.25000800  0.74999200  0.74999300  1
  Na  Na2  1  0.74999200  0.25000800  0.74999300  1
  Ta  Ta0  1  0.99977000  0.99977000  0.99930300  1
  Ta  Ta1  1  0.99977000  0.99977000  0.50070000  1
  Ta  Ta2  1  0.50022900  0.99977300  0.99930800  1
  Ta  Ta3  1  0.50022900  0.99977000  0.50069600  1
  Ta  Ta4  1  0.99977300  0.50022900  0.99930800  1
  Ta  Ta5  1  0.99977000  0.50022900  0.50069600  1
  Ta  Ta6  1  0.50023100  0.50023100  0.99930800  1
  Nb  Nb0  1  0.50021700  0.50021700  0.50066600  1
  O  O0  1  0.99991400  0.75000500  0.99837800  1
  O  O1  1  0.99991600  0.75008700  0.50162800  1
  O  O2  1  0.50008300  0.75008500  0.99837100  1
  O  O3  1  0.50008000  0.75104000  0.50161600  1
  O  O4  1  0.99922300  0.24999400  0.99904900  1
  O  O5  1  0.99922000  0.24991100  0.50095000  1
  O  O6  1  0.50077900  0.24991100  0.99904900  1
  O  O7  1  0.50077400  0.24894400  0.50093800  1
  O  O8  1  0.75000500  0.99991400  0.99837800  1
  O  O9  1  0.75008700  0.99991600  0.50162800  1
  O  O10  1  0.24999400  0.99922300  0.99904900  1
  O  O11  1  0.24991100  0.99922000  0.50095000  1
  O  O12  1  0.75008500  0.50008300  0.99837100  1
  O  O13  1  0.75104000  0.50008000  0.50161600  1
  O  O14  1  0.24991100  0.50077900  0.99904900  1
  O  O15  1  0.24894400  0.50077400  0.50093800  1
  O  O16  1  0.99991100  0.99991100  0.24999500  1
  O  O17  1  0.99923900  0.99923900  0.75000600  1
  O  O18  1  0.50008900  0.99991300  0.24990900  1
  O  O19  1  0.50076300  0.99923600  0.75008400  1
  O  O20  1  0.99991300  0.50008900  0.24990900  1
  O  O21  1  0.99923600  0.50076300  0.75008400  1
  O  O22  1  0.50008600  0.50008600  0.24893300  1
  O  O23  1  0.50075900  0.50075900  0.75102100  1
loop_
_geom_bond_atom_site_label_1
_geom_bond_atom_site_label_2
_geom_bond_distance
_geom_bond_site_symmetry_2
K0 O22 2.835480 1_555
K0 O20 2.836077 1_555
K0 O18 2.836077 1_555
K0 O16 2.836566 1_555
K0 O13 2.845033 1_555
K0 O3 2.845033 1_555
K0 O9 2.845708 1_555
K0 O1 2.845708 1_555
K0 O12 2.845723 1_554
K0 O2 2.845723 1_554
K0 O0 2.846155 1_554
K0 O8 2.846155 1_554
K1 O22 2.836522 1_555
K1 O18 2.836929 1_555
K1 O20 2.837089 1_455
K1 O15 2.837306 1_555
K1 O16 2.837643 1_455
K1 O11 2.837878 1_555
K1 O14 2.837961 1_554
K1 O10 2.838371 1_554
K1 O3 2.845981 1_555
K1 O2 2.846528 1_554
K1 O1 2.846638 1_455
K1 O0 2.847238 1_454
K2 O22 2.836522 1_555
K2 O20 2.836929 1_555
K2 O18 2.837089 1_545
K2 O7 2.837306 1_555
K2 O16 2.837643 1_545
K2 O5 2.837878 1_555
K2 O6 2.837961 1_554
K2 O4 2.838371 1_554
K2 O13 2.845981 1_555
K2 O12 2.846528 1_554
K2 O9 2.846638 1_545
K2 O8 2.847238 1_544
K3 O22 2.837544 1_555
K3 O20 2.838074 1_455
K3 O18 2.838074 1_545
K3 O16 2.838472 1_445
K3 O15 2.846201 1_555
K3 O7 2.846201 1_555
K3 O5 2.846667 1_455
K3 O11 2.846667 1_545
K3 O14 2.846679 1_554
K3 O6 2.846679 1_554
K3 O4 2.847197 1_454
K3 O10 2.847197 1_544
K4 O7 2.835385 1_555
K4 O15 2.835385 1_555
K4 O14 2.835979 1_555
K4 O6 2.835979 1_555
K4 O5 2.835983 1_455
K4 O11 2.835983 1_545
K4 O10 2.836461 1_545
K4 O4 2.836461 1_455
K4 O23 2.845068 1_555
K4 O21 2.845740 1_455
K4 O19 2.845740 1_545
K4 O17 2.846212 1_445
Na0 O2 2.827158 1_555
Na0 O12 2.827158 1_555
Na0 O9 2.827158 1_555
Na0 O1 2.827158 1_555
Na0 O3 2.827246 1_555
Na0 O13 2.827246 1_555
Na0 O8 2.827347 1_555
Na0 O0 2.827347 1_555
Na0 O23 2.828316 1_555
Na0 O21 2.828411 1_555
Na0 O19 2.828411 1_555
Na0 O17 2.828463 1_555
Na1 O14 2.827036 1_555
Na1 O11 2.827048 1_555
Na1 O15 2.827148 1_555
Na1 O10 2.827214 1_555
Na1 O3 2.828087 1_555
Na1 O2 2.828173 1_555
Na1 O1 2.828196 1_455
Na1 O0 2.828245 1_455
Na1 O23 2.837009 1_555
Na1 O19 2.837016 1_555
Na1 O21 2.837028 1_455
Na1 O17 2.837179 1_455
Na2 O6 2.827036 1_555
Na2 O5 2.827048 1_555
Na2 O7 2.827148 1_555
Na2 O4 2.827214 1_555
Na2 O13 2.828087 1_555
Na2 O12 2.828173 1_555
Na2 O9 2.828196 1_545
Na2 O8 2.828245 1_545
Na2 O23 2.837009 1_555
Na2 O21 2.837016 1_555
Na2 O19 2.837028 1_545
Na2 O17 2.837179 1_545
Nb0 O23 2.008742 1_555
Nb0 O13 2.012710 1_555
Nb0 O3 2.012710 1_555
Nb0 O15 2.016313 1_555
Nb0 O7 2.016313 1_555
Nb0 O22 2.019789 1_555
O0 Ta0 2.004220 1_555
O0 Ta4 2.004308 1_555
O1 Ta1 2.003562 1_555
O1 Ta5 2.004966 1_555
O2 Ta2 2.003602 1_555
O2 Ta6 2.004934 1_555
O3 Ta3 1.995914 1_555
O4 Ta0 2.007895 1_545
O4 Ta4 2.007983 1_555
O5 Ta1 2.007229 1_545
O5 Ta5 2.008649 1_555
O6 Ta2 2.007205 1_545
O6 Ta6 2.008665 1_555
O7 Ta3 1.999469 1_545
O8 Ta0 2.004220 1_555
O8 Ta2 2.004308 1_555
O9 Ta1 2.003562 1_555
O9 Ta3 2.004966 1_555
O10 Ta0 2.007895 1_455
O10 Ta2 2.007983 1_555
O11 Ta1 2.007229 1_455
O11 Ta3 2.008649 1_555
O12 Ta4 2.003602 1_555
O12 Ta6 2.004934 1_555
O13 Ta5 1.995914 1_555
O14 Ta4 2.007205 1_455
O14 Ta6 2.008665 1_555
O15 Ta5 1.999469 1_455
O16 Ta0 2.011437 1_554
O16 Ta1 2.011541 1_555
O17 Ta0 2.000253 1_555
O17 Ta1 2.000325 1_555
O18 Ta2 2.010707 1_554
O18 Ta3 2.012199 1_555
O19 Ta2 1.999667 1_555
O19 Ta3 2.000983 1_555
O20 Ta4 2.010707 1_554
O20 Ta5 2.012199 1_555
O21 Ta4 1.999667 1_555
O21 Ta5 2.000983 1_555
O22 Ta6 2.002876 1_554
O23 Ta6 1.992148 1_555
