# generated using pymatgen
data_Al2Mo2O7
_symmetry_space_group_name_H-M   'P 1'
_cell_length_a   7.58633362
_cell_length_b   6.42553652
_cell_length_c   7.24950584
_cell_angle_alpha   60.31634422
_cell_angle_beta   65.63575194
_cell_angle_gamma   60.00673635
_symmetry_Int_Tables_number   1
_chemical_formula_structural   Al2Mo2O7
_chemical_formula_sum   'Al4 Mo4 O14'
_cell_volume   259.42810348
_cell_formula_units_Z   2
loop_
 _symmetry_equiv_pos_site_id
 _symmetry_equiv_pos_as_xyz
  1  'x, y, z'
loop_
 _atom_site_type_symbol
 _atom_site_label
 _atom_site_symmetry_multiplicity
 _atom_site_fract_x
 _atom_site_fract_y
 _atom_site_fract_z
 _atom_site_occupancy
  Al  Al0  1  0.41860100  0.96996100  0.55377800  1
  Al  Al1  1  0.91648700  0.53925900  0.49790400  1
  Al  Al2  1  0.59827500  0.36369100  0.13824100  1
  Al  Al3  1  0.49530700  0.53239500  0.49250600  1
  Mo  Mo0  1  0.05865000  0.49369800  0.97704400  1
  Mo  Mo1  1  0.52862500  0.01892200  0.92382300  1
  Mo  Mo2  1  0.97876900  0.01233000  0.49431500  1
  Mo  Mo3  1  0.02693700  0.97822500  0.98020300  1
  O  O0  1  0.63773700  0.66823600  0.54435400  1
  O  O1  1  0.43314000  0.27624400  0.39169900  1
  O  O2  1  0.35531800  0.95290800  0.82730300  1
  O  O3  1  0.92887500  0.67135000  0.73234500  1
  O  O4  1  0.88111400  0.28369600  0.06723300  1
  O  O5  1  0.99449600  0.81860300  0.33353000  1
  O  O6  1  0.34414100  0.38503100  0.78640500  1
  O  O7  1  0.29080700  0.86452500  0.46979800  1
  O  O8  1  0.96882700  0.40335800  0.29527100  1
  O  O9  1  0.55761800  0.65865800  0.16791200  1
  O  O10  1  0.01232600  0.19389900  0.66632600  1
  O  O11  1  0.67808500  0.10699800  0.03667200  1
  O  O12  1  0.68010200  0.18365000  0.60376100  1
  O  O13  1  0.21576700  0.62436200  0.01957600  1
loop_
_geom_bond_atom_site_label_1
_geom_bond_atom_site_label_2
_geom_bond_distance
_geom_bond_site_symmetry_2
Al0 O1 1.756630 1_565
Al0 O2 1.796223 1_555
Al0 O7 1.822559 1_555
Al0 O0 1.828166 1_555
Al1 O0 1.791315 1_555
Al1 O5 1.831331 1_555
Al1 O10 1.838394 1_655
Al1 O8 1.876354 1_555
Al1 O3 2.293042 1_555
Al2 O1 1.744520 1_555
Al2 O4 1.838833 1_555
Al2 O11 1.861673 1_555
Al2 O9 1.870351 1_555
Al3 O7 1.881744 1_555
Al3 O12 1.907717 1_555
Al3 O0 1.916677 1_555
Al3 O6 1.955211 1_555
Al3 O9 1.998448 1_555
Al3 O1 2.391081 1_555
Mo0 O3 1.931577 1_455
Mo0 O13 1.944444 1_556
Mo0 O8 1.973724 1_456
Mo0 O6 2.015571 1_555
Mo0 O4 2.068566 1_456
Mo1 O2 2.002180 1_545
Mo1 O6 2.005683 1_555
Mo1 O11 2.034858 1_556
Mo1 O9 2.072042 1_546
Mo1 O12 2.099613 1_555
Mo2 O12 1.965503 1_555
Mo2 O5 2.023917 1_545
Mo2 O7 2.027216 1_645
Mo2 O3 2.113541 1_545
Mo2 O8 2.170330 1_555
Mo2 O10 2.231752 1_655
Mo3 O13 1.934323 1_556
Mo3 O4 1.988525 1_466
Mo3 O10 2.010430 1_565
Mo3 O5 2.191757 1_456
Mo3 O2 2.226279 1_555
Mo3 O11 2.260191 1_466
