# generated using pymatgen
data_BaFe12O19
_symmetry_space_group_name_H-M   'P 1'
_cell_length_a   6.01075206
_cell_length_b   6.01075206
_cell_length_c   23.54887000
_cell_angle_alpha   90.00000000
_cell_angle_beta   90.00000000
_cell_angle_gamma   120.00000069
_symmetry_Int_Tables_number   1
_chemical_formula_structural   BaFe12O19
_chemical_formula_sum   'Ba2 Fe24 O38'
_cell_volume   736.81478037
_cell_formula_units_Z   2
loop_
 _symmetry_equiv_pos_site_id
 _symmetry_equiv_pos_as_xyz
  1  'x, y, z'
loop_
 _atom_site_type_symbol
 _atom_site_label
 _atom_site_symmetry_multiplicity
 _atom_site_fract_x
 _atom_site_fract_y
 _atom_site_fract_z
 _atom_site_occupancy
  Ba  Ba0  1  0.66666700  0.33333300  0.25090300  1
  Ba  Ba1  1  0.33333300  0.66666700  0.75090300  1
  Fe  Fe0  1  0.16875000  0.83125000  0.60838700  1
  Fe  Fe1  1  0.16875000  0.33749900  0.60838700  1
  Fe  Fe2  1  0.66250100  0.83125000  0.60838700  1
  Fe  Fe3  1  0.83253300  0.16746700  0.39081800  1
  Fe  Fe4  1  0.83253300  0.66506600  0.39081800  1
  Fe  Fe5  1  0.33493400  0.16746700  0.39081800  1
  Fe  Fe6  1  0.83125000  0.16875000  0.10838700  1
  Fe  Fe7  1  0.83125000  0.66250100  0.10838700  1
  Fe  Fe8  1  0.33749900  0.16875000  0.10838700  1
  Fe  Fe9  1  0.16746700  0.83253300  0.89081800  1
  Fe  Fe10  1  0.16746700  0.33493400  0.89081800  1
  Fe  Fe11  1  0.66506600  0.83253300  0.89081800  1
  Fe  Fe12  1  0.33333300  0.66666700  0.30917200  1
  Fe  Fe13  1  0.66666700  0.33333300  0.69081400  1
  Fe  Fe14  1  0.66666700  0.33333300  0.80917200  1
  Fe  Fe15  1  0.33333300  0.66666700  0.19081400  1
  Fe  Fe16  1  0.33333300  0.66666700  0.47206200  1
  Fe  Fe17  1  0.66666700  0.33333300  0.52714100  1
  Fe  Fe18  1  0.66666700  0.33333300  0.97206200  1
  Fe  Fe19  1  0.33333300  0.66666700  0.02714100  1
  Fe  Fe20  1  0.00000000  0.00000000  0.49983400  1
  Fe  Fe21  1  0.00000000  0.00000000  0.99983400  1
  Fe  Fe22  1  0.00000000  0.00000000  0.24320500  1
  Fe  Fe23  1  0.00000000  0.00000000  0.74320500  1
  O  O0  1  0.00000000  0.00000000  0.34872100  1
  O  O1  1  0.00000000  0.00000000  0.65171900  1
  O  O2  1  0.00000000  0.00000000  0.84872100  1
  O  O3  1  0.00000000  0.00000000  0.15171900  1
  O  O4  1  0.50274000  0.49726000  0.35014400  1
  O  O5  1  0.50274000  0.00548000  0.35014400  1
  O  O6  1  0.99452000  0.49726000  0.35014400  1
  O  O7  1  0.49663200  0.50336800  0.64958000  1
  O  O8  1  0.49663200  0.99326500  0.64958000  1
  O  O9  1  0.00673500  0.50336800  0.64958000  1
  O  O10  1  0.49726000  0.50274000  0.85014400  1
  O  O11  1  0.49726000  0.99452000  0.85014400  1
  O  O12  1  0.00548000  0.50274000  0.85014400  1
  O  O13  1  0.50336800  0.49663200  0.14958000  1
  O  O14  1  0.50336800  0.00673500  0.14958000  1
  O  O15  1  0.99326500  0.49663200  0.14958000  1
  O  O16  1  0.15536400  0.84463600  0.44745500  1
  O  O17  1  0.15536400  0.31072800  0.44745500  1
  O  O18  1  0.68927200  0.84463600  0.44745500  1
  O  O19  1  0.84472100  0.15527900  0.55272100  1
  O  O20  1  0.84472100  0.68944300  0.55272100  1
  O  O21  1  0.31055700  0.15527900  0.55272100  1
  O  O22  1  0.84463600  0.15536400  0.94745500  1
  O  O23  1  0.84463600  0.68927200  0.94745500  1
  O  O24  1  0.31072800  0.15536400  0.94745500  1
  O  O25  1  0.15527900  0.84472100  0.05272100  1
  O  O26  1  0.15527900  0.31055700  0.05272100  1
  O  O27  1  0.68944300  0.84472100  0.05272100  1
  O  O28  1  0.18238200  0.81761800  0.24944800  1
  O  O29  1  0.18238200  0.36476400  0.24944800  1
  O  O30  1  0.63523600  0.81761800  0.24944800  1
  O  O31  1  0.81761800  0.18238200  0.74944800  1
  O  O32  1  0.81761800  0.63523600  0.74944800  1
  O  O33  1  0.36476400  0.18238200  0.74944800  1
  O  O34  1  0.33333300  0.66666700  0.55532700  1
  O  O35  1  0.66666700  0.33333300  0.44444200  1
  O  O36  1  0.66666700  0.33333300  0.05532700  1
  O  O37  1  0.33333300  0.66666700  0.94444200  1
loop_
_geom_bond_atom_site_label_1
_geom_bond_atom_site_label_2
_geom_bond_distance
_geom_bond_site_symmetry_2
Ba0 O5 2.893822 1_555
Ba0 O6 2.893822 1_555
Ba0 O4 2.893825 1_555
Ba0 O15 2.929764 1_555
Ba0 O14 2.929764 1_555
Ba0 O13 2.929764 1_555
Ba0 O29 3.010018 1_655
Ba0 O30 3.010018 1_545
Ba0 O28 3.010021 1_545
Ba0 O28 3.010021 1_655
Ba0 O30 3.010024 1_555
Ba0 O29 3.010024 1_555
Ba1 O11 2.893822 1_555
Ba1 O12 2.893822 1_555
Ba1 O10 2.893825 1_555
Ba1 O9 2.929764 1_555
Ba1 O8 2.929764 1_555
Ba1 O7 2.929764 1_555
Ba1 O33 3.010018 1_565
Ba1 O32 3.010018 1_455
Ba1 O31 3.010021 1_565
Ba1 O31 3.010021 1_455
Ba1 O33 3.010024 1_555
Ba1 O32 3.010024 1_555
Fe0 O8 1.963217 1_555
Fe0 O9 1.963217 1_555
Fe0 O1 2.031688 1_565
Fe0 O34 2.120662 1_555
Fe0 O20 2.139665 1_455
Fe0 O21 2.139665 1_565
Fe1 O7 1.963217 1_555
Fe1 O9 1.963226 1_555
Fe1 O1 2.031684 1_555
Fe1 O34 2.120671 1_555
Fe1 O21 2.139656 1_555
Fe1 O19 2.139664 1_455
Fe2 O7 1.963217 1_555
Fe2 O8 1.963226 1_555
Fe2 O1 2.031684 1_665
Fe2 O34 2.120671 1_555
Fe2 O20 2.139656 1_555
Fe2 O19 2.139664 1_565
Fe3 O6 1.965931 1_555
Fe3 O5 1.965931 1_555
Fe3 O0 2.005616 1_655
Fe3 O35 2.139282 1_555
Fe3 O18 2.148207 1_545
Fe3 O17 2.148207 1_655
Fe4 O4 1.965931 1_555
Fe4 O6 1.965931 1_555
Fe4 O0 2.005616 1_665
Fe4 O35 2.139286 1_555
Fe4 O16 2.148207 1_655
Fe4 O18 2.148207 1_555
Fe5 O4 1.965931 1_555
Fe5 O5 1.965931 1_555
Fe5 O0 2.005616 1_555
Fe5 O35 2.139286 1_555
Fe5 O16 2.148207 1_545
Fe5 O17 2.148207 1_555
Fe6 O14 1.963217 1_555
Fe6 O15 1.963217 1_555
Fe6 O3 2.031688 1_655
Fe6 O36 2.120662 1_555
Fe6 O26 2.139665 1_655
Fe6 O27 2.139665 1_545
Fe7 O13 1.963217 1_555
Fe7 O15 1.963226 1_555
Fe7 O3 2.031684 1_665
Fe7 O36 2.120671 1_555
Fe7 O27 2.139656 1_555
Fe7 O25 2.139664 1_655
Fe8 O13 1.963217 1_555
Fe8 O14 1.963226 1_555
Fe8 O3 2.031684 1_555
Fe8 O36 2.120671 1_555
Fe8 O26 2.139656 1_555
Fe8 O25 2.139664 1_545
Fe9 O12 1.965931 1_555
Fe9 O11 1.965931 1_555
Fe9 O2 2.005616 1_565
Fe9 O37 2.139282 1_555
Fe9 O23 2.148207 1_455
Fe9 O24 2.148207 1_565
Fe10 O10 1.965931 1_555
Fe10 O12 1.965931 1_555
Fe10 O2 2.005616 1_555
Fe10 O37 2.139286 1_555
Fe10 O22 2.148207 1_455
Fe10 O24 2.148207 1_555
Fe11 O10 1.965931 1_555
Fe11 O11 1.965931 1_555
Fe11 O2 2.005616 1_665
Fe11 O37 2.139286 1_555
Fe11 O22 2.148207 1_565
Fe11 O23 2.148207 1_555
Fe12 O5 2.010345 1_565
Fe12 O6 2.010345 1_455
Fe12 O4 2.010350 1_555
Fe12 O28 2.108979 1_555
Fe12 O29 2.108983 1_555
Fe12 O30 2.108983 1_555
Fe13 O9 2.019039 1_655
Fe13 O8 2.019039 1_545
Fe13 O7 2.019048 1_555
Fe13 O31 2.091948 1_555
Fe13 O33 2.091952 1_555
Fe13 O32 2.091952 1_555
Fe14 O12 2.010345 1_655
Fe14 O11 2.010345 1_545
Fe14 O10 2.010350 1_555
Fe14 O31 2.108979 1_555
Fe14 O33 2.108983 1_555
Fe14 O32 2.108983 1_555
Fe15 O14 2.019039 1_565
Fe15 O15 2.019039 1_455
Fe15 O13 2.019048 1_555
Fe15 O28 2.091948 1_555
Fe15 O30 2.091952 1_555
Fe15 O29 2.091952 1_555
Fe16 O16 1.941323 1_555
Fe16 O17 1.941327 1_555
Fe16 O18 1.941327 1_555
Fe16 O34 1.960797 1_555
Fe17 O35 1.947468 1_555
Fe17 O19 1.949126 1_555
Fe17 O21 1.949136 1_555
Fe17 O20 1.949136 1_555
Fe18 O22 1.941323 1_555
Fe18 O23 1.941327 1_555
Fe18 O24 1.941327 1_555
Fe18 O36 1.960797 1_556
Fe19 O37 1.947468 1_554
Fe19 O25 1.949126 1_555
Fe19 O26 1.949136 1_555
Fe19 O27 1.949136 1_555
Fe20 O17 2.034132 1_555
Fe20 O18 2.034132 1_445
Fe20 O16 2.034132 1_545
Fe20 O20 2.040703 1_445
Fe20 O21 2.040703 1_555
Fe20 O19 2.040707 1_455
Fe21 O23 2.034132 1_445
Fe21 O24 2.034132 1_555
Fe21 O22 2.034132 1_455
Fe21 O27 2.040703 1_446
Fe21 O26 2.040703 1_556
Fe21 O25 2.040707 1_546
Fe22 O30 1.904449 1_445
Fe22 O29 1.904449 1_555
Fe22 O28 1.904449 1_545
Fe22 O3 2.154392 1_555
Fe22 O0 2.484783 1_555
Fe23 O33 1.904449 1_555
Fe23 O32 1.904449 1_445
Fe23 O31 1.904449 1_455
Fe23 O1 2.154392 1_555
Fe23 O2 2.484783 1_555
