# generated using pymatgen
data_Sr(BiS2)2
_symmetry_space_group_name_H-M   'P 1'
_cell_length_a   25.28914164
_cell_length_b   25.28914164
_cell_length_c   4.09433100
_cell_angle_alpha   90.00000000
_cell_angle_beta   90.00000000
_cell_angle_gamma   119.99999907
_symmetry_Int_Tables_number   1
_chemical_formula_structural   Sr(BiS2)2
_chemical_formula_sum   'Sr12 Bi24 S48'
_cell_volume   2267.67996564
_cell_formula_units_Z   12
loop_
 _symmetry_equiv_pos_site_id
 _symmetry_equiv_pos_as_xyz
  1  'x, y, z'
loop_
 _atom_site_type_symbol
 _atom_site_label
 _atom_site_symmetry_multiplicity
 _atom_site_fract_x
 _atom_site_fract_y
 _atom_site_fract_z
 _atom_site_occupancy
  Sr  Sr0  1  0.23454200  0.67924600  0.25000000  1
  Sr  Sr1  1  0.44470400  0.76545800  0.25000000  1
  Sr  Sr2  1  0.32075400  0.55529600  0.25000000  1
  Sr  Sr3  1  0.76545800  0.32075400  0.75000000  1
  Sr  Sr4  1  0.55529600  0.23454200  0.75000000  1
  Sr  Sr5  1  0.67924600  0.44470400  0.75000000  1
  Sr  Sr6  1  0.12081100  0.76834100  0.25000000  1
  Sr  Sr7  1  0.64752900  0.87918900  0.25000000  1
  Sr  Sr8  1  0.23165900  0.35247100  0.25000000  1
  Sr  Sr9  1  0.87918900  0.23165900  0.75000000  1
  Sr  Sr10  1  0.35247100  0.12081100  0.75000000  1
  Sr  Sr11  1  0.76834100  0.64752900  0.75000000  1
  Bi  Bi0  1  0.66854400  0.72773200  0.25000000  1
  Bi  Bi1  1  0.05918800  0.33145600  0.25000000  1
  Bi  Bi2  1  0.27226800  0.94081200  0.25000000  1
  Bi  Bi3  1  0.33145600  0.27226800  0.75000000  1
  Bi  Bi4  1  0.94081200  0.66854400  0.75000000  1
  Bi  Bi5  1  0.72773200  0.05918800  0.75000000  1
  Bi  Bi6  1  0.49736000  0.35068000  0.25000000  1
  Bi  Bi7  1  0.85332000  0.50264000  0.25000000  1
  Bi  Bi8  1  0.64932000  0.14668000  0.25000000  1
  Bi  Bi9  1  0.50264000  0.64932000  0.75000000  1
  Bi  Bi10  1  0.14668000  0.49736000  0.75000000  1
  Bi  Bi11  1  0.35068000  0.85332000  0.75000000  1
  Bi  Bi12  1  0.59289200  0.54054700  0.25000000  1
  Bi  Bi13  1  0.94765500  0.40710800  0.25000000  1
  Bi  Bi14  1  0.45945300  0.05234500  0.25000000  1
  Bi  Bi15  1  0.40710800  0.45945300  0.75000000  1
  Bi  Bi16  1  0.05234500  0.59289200  0.75000000  1
  Bi  Bi17  1  0.54054700  0.94765500  0.75000000  1
  Bi  Bi18  1  0.17680900  0.15423200  0.25000000  1
  Bi  Bi19  1  0.97742400  0.82319100  0.25000000  1
  Bi  Bi20  1  0.84576800  0.02257600  0.25000000  1
  Bi  Bi21  1  0.82319100  0.84576800  0.75000000  1
  Bi  Bi22  1  0.02257600  0.17680900  0.75000000  1
  Bi  Bi23  1  0.15423200  0.97742400  0.75000000  1
  S  S0  1  0.26951000  0.81925000  0.25000000  1
  S  S1  1  0.54974000  0.73049000  0.25000000  1
  S  S2  1  0.18075000  0.45026000  0.25000000  1
  S  S3  1  0.73049000  0.18075000  0.75000000  1
  S  S4  1  0.45026000  0.26951000  0.75000000  1
  S  S5  1  0.81925000  0.54974000  0.75000000  1
  S  S6  1  0.69781400  0.54586700  0.25000000  1
  S  S7  1  0.84805300  0.30218600  0.25000000  1
  S  S8  1  0.45413300  0.15194700  0.25000000  1
  S  S9  1  0.30218600  0.45413300  0.75000000  1
  S  S10  1  0.15194700  0.69781400  0.75000000  1
  S  S11  1  0.54586700  0.84805300  0.75000000  1
  S  S12  1  0.45298200  0.90620300  0.25000000  1
  S  S13  1  0.45322100  0.54701800  0.25000000  1
  S  S14  1  0.09379700  0.54677900  0.25000000  1
  S  S15  1  0.54701800  0.09379700  0.75000000  1
  S  S16  1  0.54677900  0.45298200  0.75000000  1
  S  S17  1  0.90620300  0.45322100  0.75000000  1
  S  S18  1  0.77973300  0.74361300  0.25000000  1
  S  S19  1  0.96387900  0.22026700  0.25000000  1
  S  S20  1  0.25638700  0.03612100  0.25000000  1
  S  S21  1  0.22026700  0.25638700  0.75000000  1
  S  S22  1  0.03612100  0.77973300  0.75000000  1
  S  S23  1  0.74361300  0.96387900  0.75000000  1
  S  S24  1  0.36689800  0.36684700  0.25000000  1
  S  S25  1  0.99994900  0.63310200  0.25000000  1
  S  S26  1  0.63315300  0.00005100  0.25000000  1
  S  S27  1  0.63310200  0.63315300  0.75000000  1
  S  S28  1  0.00005100  0.36689800  0.75000000  1
  S  S29  1  0.36684700  0.99994900  0.75000000  1
  S  S30  1  0.59542500  0.34475300  0.25000000  1
  S  S31  1  0.74932800  0.40457500  0.25000000  1
  S  S32  1  0.65524700  0.25067200  0.25000000  1
  S  S33  1  0.40457500  0.65524700  0.75000000  1
  S  S34  1  0.25067200  0.59542500  0.75000000  1
  S  S35  1  0.34475300  0.74932800  0.75000000  1
  S  S36  1  0.88127500  0.69262800  0.25000000  1
  S  S37  1  0.81135400  0.11872500  0.25000000  1
  S  S38  1  0.30737200  0.18864600  0.25000000  1
  S  S39  1  0.11872500  0.30737200  0.75000000  1
  S  S40  1  0.18864600  0.88127500  0.75000000  1
  S  S41  1  0.69262800  0.81135400  0.75000000  1
  S  S42  1  0.07439300  0.93907100  0.25000000  1
  S  S43  1  0.86467800  0.92560700  0.25000000  1
  S  S44  1  0.06092900  0.13532200  0.25000000  1
  S  S45  1  0.92560700  0.06092900  0.75000000  1
  S  S46  1  0.13532200  0.07439300  0.75000000  1
  S  S47  1  0.93907100  0.86467800  0.75000000  1
loop_
_geom_bond_atom_site_label_1
_geom_bond_atom_site_label_2
_geom_bond_distance
_geom_bond_site_symmetry_2
Bi0 S18 2.634129 1_555
Bi0 S41 2.783149 1_554
Bi0 S41 2.783149 1_555
Bi0 S27 2.927672 1_554
Bi0 S27 2.927672 1_555
Bi0 S1 3.039925 1_555
Bi1 S19 2.634139 1_455
Bi1 S39 2.783132 1_555
Bi1 S39 2.783132 1_554
Bi1 S28 2.927672 1_555
Bi1 S28 2.927672 1_554
Bi1 S2 3.039925 1_555
Bi2 S20 2.634154 1_565
Bi2 S40 2.783145 1_554
Bi2 S40 2.783145 1_555
Bi2 S29 2.927672 1_554
Bi2 S29 2.927672 1_555
Bi2 S0 3.039925 1_555
Bi3 S21 2.634129 1_555
Bi3 S38 2.783149 1_556
Bi3 S38 2.783149 1_555
Bi3 S24 2.927672 1_555
Bi3 S24 2.927672 1_556
Bi3 S4 3.039925 1_555
Bi4 S22 2.634139 1_655
Bi4 S36 2.783132 1_555
Bi4 S36 2.783132 1_556
Bi4 S25 2.927672 1_556
Bi4 S25 2.927672 1_555
Bi4 S5 3.039925 1_555
Bi5 S23 2.634154 1_545
Bi5 S37 2.783145 1_556
Bi5 S37 2.783145 1_555
Bi5 S26 2.927672 1_556
Bi5 S26 2.927672 1_555
Bi5 S3 3.039925 1_555
Bi6 S30 2.558219 1_555
Bi6 S4 2.716298 1_555
Bi6 S4 2.716298 1_554
Bi6 S16 3.035249 1_555
Bi6 S16 3.035249 1_554
Bi7 S31 2.558220 1_555
Bi7 S5 2.716298 1_555
Bi7 S5 2.716298 1_554
Bi7 S17 3.035249 1_555
Bi7 S17 3.035249 1_554
Bi8 S32 2.558219 1_555
Bi8 S3 2.716298 1_554
Bi8 S3 2.716298 1_555
Bi8 S15 3.035249 1_554
Bi8 S15 3.035249 1_555
Bi9 S33 2.558219 1_555
Bi9 S1 2.716298 1_555
Bi9 S1 2.716298 1_556
Bi9 S13 3.035249 1_556
Bi9 S13 3.035249 1_555
Bi10 S34 2.558220 1_555
Bi10 S2 2.716298 1_556
Bi10 S2 2.716298 1_555
Bi10 S14 3.035249 1_555
Bi10 S14 3.035249 1_556
Bi11 S35 2.558219 1_555
Bi11 S0 2.716298 1_556
Bi11 S0 2.716298 1_555
Bi11 S12 3.035249 1_556
Bi11 S12 3.035249 1_555
Bi12 S6 2.588742 1_555
Bi12 S16 2.805741 1_555
Bi12 S16 2.805741 1_554
Bi12 S27 2.885844 1_554
Bi12 S27 2.885844 1_555
Bi13 S7 2.588742 1_555
Bi13 S17 2.805741 1_555
Bi13 S17 2.805741 1_554
Bi13 S28 2.885844 1_654
Bi13 S28 2.885844 1_655
Bi14 S8 2.588742 1_555
Bi14 S15 2.805741 1_554
Bi14 S15 2.805741 1_555
Bi14 S29 2.885844 1_545
Bi14 S29 2.885844 1_544
Bi15 S9 2.588742 1_555
Bi15 S13 2.805741 1_556
Bi15 S13 2.805741 1_555
Bi15 S24 2.885844 1_555
Bi15 S24 2.885844 1_556
Bi16 S10 2.588742 1_555
Bi16 S14 2.805741 1_556
Bi16 S14 2.805741 1_555
Bi16 S25 2.885844 1_455
Bi16 S25 2.885844 1_456
Bi17 S11 2.588742 1_555
Bi17 S12 2.805741 1_556
Bi17 S12 2.805741 1_555
Bi17 S26 2.885844 1_566
Bi17 S26 2.885844 1_565
Bi18 S46 2.692566 1_555
Bi18 S46 2.692566 1_554
Bi18 S44 2.723075 1_555
Bi18 S38 2.964102 1_555
Bi18 S21 3.038672 1_554
Bi18 S21 3.038672 1_555
Bi19 S47 2.692580 1_555
Bi19 S47 2.692580 1_554
Bi19 S42 2.723066 1_655
Bi19 S36 2.964102 1_555
Bi19 S22 3.038672 1_655
Bi19 S22 3.038672 1_654
Bi20 S45 2.692565 1_555
Bi20 S45 2.692565 1_554
Bi20 S43 2.723050 1_545
Bi20 S37 2.964102 1_555
Bi20 S23 3.038672 1_545
Bi20 S23 3.038672 1_544
Bi21 S43 2.692566 1_555
Bi21 S43 2.692566 1_556
Bi21 S47 2.723075 1_555
Bi21 S41 2.964102 1_555
Bi21 S18 3.038672 1_555
Bi21 S18 3.038672 1_556
Bi22 S44 2.692580 1_555
Bi22 S44 2.692580 1_556
Bi22 S45 2.723066 1_455
Bi22 S39 2.964102 1_555
Bi22 S19 3.038672 1_456
Bi22 S19 3.038672 1_455
Bi23 S42 2.692565 1_556
Bi23 S42 2.692565 1_555
Bi23 S46 2.723050 1_565
Bi23 S40 2.964102 1_555
Bi23 S20 3.038672 1_565
Bi23 S20 3.038672 1_566
S0 Sr0 3.191668 1_555
S0 Sr6 3.310174 1_555
S1 Sr1 3.191668 1_555
S1 Sr7 3.310169 1_555
S2 Sr2 3.191668 1_555
S2 Sr8 3.310150 1_555
S3 Sr3 3.191668 1_555
S3 Sr9 3.310174 1_555
S4 Sr4 3.191668 1_555
S4 Sr10 3.310169 1_555
S5 Sr5 3.191668 1_555
S5 Sr11 3.310150 1_555
S6 Sr11 3.065339 1_555
S6 Sr11 3.065339 1_554
S6 Sr5 3.123316 1_555
S6 Sr5 3.123316 1_554
S7 Sr9 3.065353 1_555
S7 Sr9 3.065353 1_554
S7 Sr3 3.123316 1_554
S7 Sr3 3.123316 1_555
S8 Sr10 3.065335 1_554
S8 Sr10 3.065335 1_555
S8 Sr4 3.123316 1_555
S8 Sr4 3.123316 1_554
S9 Sr8 3.065339 1_556
S9 Sr8 3.065339 1_555
S9 Sr2 3.123316 1_556
S9 Sr2 3.123316 1_555
S10 Sr6 3.065353 1_556
S10 Sr6 3.065353 1_555
S10 Sr0 3.123316 1_555
S10 Sr0 3.123316 1_556
S11 Sr7 3.065335 1_556
S11 Sr7 3.065335 1_555
S11 Sr1 3.123316 1_555
S11 Sr1 3.123316 1_556
S12 Sr1 3.459402 1_555
S13 Sr2 3.459402 1_555
S14 Sr0 3.459402 1_555
S15 Sr4 3.459402 1_555
S16 Sr5 3.459402 1_555
S17 Sr3 3.459402 1_555
S18 Sr11 3.078665 1_555
S18 Sr11 3.078665 1_554
S19 Sr9 3.078627 1_555
S19 Sr9 3.078627 1_554
S20 Sr10 3.078650 1_555
S20 Sr10 3.078650 1_554
S21 Sr8 3.078665 1_556
S21 Sr8 3.078665 1_555
S22 Sr6 3.078627 1_555
S22 Sr6 3.078627 1_556
S23 Sr7 3.078650 1_556
S23 Sr7 3.078650 1_555
S24 Sr8 3.253570 1_555
S25 Sr6 3.253559 1_655
S26 Sr7 3.253545 1_545
S27 Sr11 3.253570 1_555
S28 Sr9 3.253559 1_455
S29 Sr10 3.253545 1_565
S30 Sr5 3.116945 1_555
S30 Sr5 3.116945 1_554
S30 Sr4 3.187546 1_555
S30 Sr4 3.187546 1_554
S31 Sr3 3.116945 1_554
S31 Sr3 3.116945 1_555
S31 Sr5 3.187546 1_555
S31 Sr5 3.187546 1_554
S32 Sr4 3.116945 1_554
S32 Sr4 3.116945 1_555
S32 Sr3 3.187546 1_554
S32 Sr3 3.187546 1_555
S33 Sr2 3.116945 1_556
S33 Sr2 3.116945 1_555
S33 Sr1 3.187546 1_555
S33 Sr1 3.187546 1_556
S34 Sr0 3.116945 1_555
S34 Sr0 3.116945 1_556
S34 Sr2 3.187546 1_556
S34 Sr2 3.187546 1_555
S35 Sr1 3.116945 1_556
S35 Sr1 3.116945 1_555
S35 Sr0 3.187546 1_555
S35 Sr0 3.187546 1_556
S36 Sr11 3.223524 1_554
S36 Sr11 3.223524 1_555
S37 Sr9 3.223524 1_555
S37 Sr9 3.223524 1_554
S38 Sr10 3.223524 1_555
S38 Sr10 3.223524 1_554
S39 Sr8 3.223524 1_556
S39 Sr8 3.223524 1_555
S40 Sr6 3.223524 1_556
S40 Sr6 3.223524 1_555
S41 Sr7 3.223524 1_556
S41 Sr7 3.223524 1_555
