# generated using pymatgen
data_SrMg14SiO16
_symmetry_space_group_name_H-M   'P 1'
_cell_length_a   8.74678955
_cell_length_b   8.65453034
_cell_length_c   4.43409297
_cell_angle_alpha   90.00000000
_cell_angle_beta   90.00000000
_cell_angle_gamma   90.00000000
_symmetry_Int_Tables_number   1
_chemical_formula_structural   SrMg14SiO16
_chemical_formula_sum   'Sr1 Mg14 Si1 O16'
_cell_volume   335.65798022
_cell_formula_units_Z   1
loop_
 _symmetry_equiv_pos_site_id
 _symmetry_equiv_pos_as_xyz
  1  'x, y, z'
loop_
 _atom_site_type_symbol
 _atom_site_label
 _atom_site_symmetry_multiplicity
 _atom_site_fract_x
 _atom_site_fract_y
 _atom_site_fract_z
 _atom_site_occupancy
  Sr  Sr0  1  0.00000000  0.50000000  -0.00000000  1
  Mg  Mg0  1  0.50000000  0.00000000  -0.00000000  1
  Mg  Mg1  1  0.50000000  0.50000000  -0.00000000  1
  Mg  Mg2  1  0.00000000  0.24158315  0.50000000  1
  Mg  Mg3  1  0.00000000  0.75841685  0.50000000  1
  Mg  Mg4  1  0.50000000  0.24845396  0.50000000  1
  Mg  Mg5  1  0.50000000  0.75154604  0.50000000  1
  Mg  Mg6  1  0.25364526  0.00000000  0.50000000  1
  Mg  Mg7  1  0.26014068  0.50000000  0.50000000  1
  Mg  Mg8  1  0.74635474  0.00000000  0.50000000  1
  Mg  Mg9  1  0.73985932  0.50000000  0.50000000  1
  Mg  Mg10  1  0.25886312  0.24450714  -0.00000000  1
  Mg  Mg11  1  0.25886312  0.75549286  -0.00000000  1
  Mg  Mg12  1  0.74113688  0.24450714  0.00000000  1
  Mg  Mg13  1  0.74113688  0.75549286  0.00000000  1
  Si  Si0  1  0.00000000  0.00000000  -0.00000000  1
  O  O0  1  0.26763849  0.00000000  0.00000000  1
  O  O1  1  0.27119353  0.50000000  0.00000000  1
  O  O2  1  0.73236151  0.00000000  -0.00000000  1
  O  O3  1  0.72880647  0.50000000  -0.00000000  1
  O  O4  1  0.24936807  0.24983583  0.50000000  1
  O  O5  1  0.24936807  0.75016417  0.50000000  1
  O  O6  1  0.75063193  0.24983583  0.50000000  1
  O  O7  1  0.75063193  0.75016417  0.50000000  1
  O  O8  1  0.00000000  0.00000000  0.50000000  1
  O  O9  1  0.00000000  0.50000000  0.50000000  1
  O  O10  1  0.50000000  0.00000000  0.50000000  1
  O  O11  1  0.50000000  0.50000000  0.50000000  1
  O  O12  1  0.00000000  0.23147836  0.00000000  1
  O  O13  1  0.00000000  0.76852164  -0.00000000  1
  O  O14  1  0.50000000  0.24825652  -0.00000000  1
  O  O15  1  0.50000000  0.75174348  -0.00000000  1
loop_
_geom_bond_atom_site_label_1
_geom_bond_atom_site_label_2
_geom_bond_distance
_geom_bond_site_symmetry_2
Mg0 O0 2.032417 1_555
Mg0 O2 2.032417 1_555
Mg0 O15 2.148544 1_545
Mg0 O14 2.148544 1_555
Mg0 O10 2.217046 1_555
Mg0 O10 2.217046 1_554
Mg1 O1 2.001322 1_555
Mg1 O3 2.001322 1_555
Mg1 O14 2.178722 1_555
Mg1 O15 2.178722 1_555
Mg1 O11 2.217046 1_554
Mg1 O11 2.217046 1_555
Mg2 O8 2.090789 1_555
Mg2 O6 2.182339 1_455
Mg2 O4 2.182339 1_555
Mg2 O12 2.218771 1_556
Mg2 O12 2.218771 1_555
Mg2 O9 2.236476 1_555
Mg3 O8 2.090789 1_565
Mg3 O5 2.182339 1_555
Mg3 O7 2.182339 1_455
Mg3 O13 2.218771 1_555
Mg3 O13 2.218771 1_556
Mg3 O9 2.236476 1_555
Mg4 O10 2.150252 1_555
Mg4 O11 2.177013 1_555
Mg4 O4 2.192257 1_555
Mg4 O6 2.192257 1_555
Mg4 O14 2.217047 1_556
Mg4 O14 2.217047 1_555
Mg5 O10 2.150252 1_565
Mg5 O11 2.177013 1_555
Mg5 O5 2.192257 1_555
Mg5 O7 2.192257 1_555
Mg5 O15 2.217047 1_556
Mg5 O15 2.217047 1_555
Mg6 O10 2.154813 1_555
Mg6 O4 2.162535 1_555
Mg6 O5 2.162535 1_545
Mg6 O8 2.218582 1_555
Mg6 O0 2.220422 1_556
Mg6 O0 2.220422 1_555
Mg7 O11 2.097999 1_555
Mg7 O4 2.167103 1_555
Mg7 O5 2.167103 1_555
Mg7 O1 2.219153 1_555
Mg7 O1 2.219153 1_556
Mg7 O9 2.275396 1_555
Mg8 O10 2.154813 1_555
Mg8 O6 2.162535 1_555
Mg8 O7 2.162535 1_545
Mg8 O8 2.218582 1_655
Mg8 O2 2.220422 1_556
Mg8 O2 2.220422 1_555
Mg9 O11 2.097999 1_555
Mg9 O6 2.167103 1_555
Mg9 O7 2.167103 1_555
Mg9 O3 2.219153 1_556
Mg9 O3 2.219153 1_555
Mg9 O9 2.275396 1_655
Mg10 O14 2.109423 1_555
Mg10 O0 2.117486 1_555
Mg10 O1 2.213799 1_555
Mg10 O4 2.219081 1_554
Mg10 O4 2.219081 1_555
Mg10 O12 2.267027 1_555
Mg11 O15 2.109423 1_555
Mg11 O0 2.117486 1_565
Mg11 O1 2.213799 1_555
Mg11 O5 2.219081 1_554
Mg11 O5 2.219081 1_555
Mg11 O13 2.267027 1_555
Mg12 O14 2.109423 1_555
Mg12 O2 2.117486 1_555
Mg12 O3 2.213799 1_555
Mg12 O6 2.219081 1_554
Mg12 O6 2.219081 1_555
Mg12 O12 2.267027 1_655
Mg13 O15 2.109423 1_555
Mg13 O2 2.117486 1_565
Mg13 O3 2.213799 1_555
Mg13 O7 2.219081 1_554
Mg13 O7 2.219081 1_555
Mg13 O13 2.267027 1_655
O0 Si0 2.340978 1_555
O1 Sr0 2.372073 1_555
O2 Si0 2.340978 1_655
O3 Sr0 2.372073 1_655
O8 Si0 2.217046 1_555
O8 Si0 2.217046 1_556
O9 Sr0 2.217046 1_556
O9 Sr0 2.217046 1_555
O12 Si0 2.003336 1_555
O12 Sr0 2.323929 1_555
O13 Si0 2.003336 1_565
O13 Sr0 2.323929 1_555
