# generated using pymatgen
data_La5Cu4As4(ClO2)2
_symmetry_space_group_name_H-M   'P 1'
_cell_length_a   4.13176000
_cell_length_b   4.13176000
_cell_length_c   21.20790704
_cell_angle_alpha   95.59009440
_cell_angle_beta   95.59009440
_cell_angle_gamma   90.00000000
_symmetry_Int_Tables_number   1
_chemical_formula_structural   La5Cu4As4(ClO2)2
_chemical_formula_sum   'La5 Cu4 As4 Cl2 O4'
_cell_volume   358.59763015
_cell_formula_units_Z   1
loop_
 _symmetry_equiv_pos_site_id
 _symmetry_equiv_pos_as_xyz
  1  'x, y, z'
loop_
 _atom_site_type_symbol
 _atom_site_label
 _atom_site_symmetry_multiplicity
 _atom_site_fract_x
 _atom_site_fract_y
 _atom_site_fract_z
 _atom_site_occupancy
  La  La0  1  0.63858400  0.63858400  0.27716800  1
  La  La1  1  0.36141600  0.36141600  0.72283200  1
  La  La2  1  0.19591300  0.19591300  0.39182700  1
  La  La3  1  0.80408700  0.80408700  0.60817300  1
  La  La4  1  0.00000000  0.00000000  0.00000000  1
  Cu  Cu0  1  0.06454700  0.56454700  0.12909300  1
  Cu  Cu1  1  0.56454700  0.06454700  0.12909300  1
  Cu  Cu2  1  0.93545300  0.43545300  0.87090700  1
  Cu  Cu3  1  0.43545300  0.93545300  0.87090700  1
  As  As0  1  0.53034100  0.53034100  0.06068200  1
  As  As1  1  0.46965900  0.46965900  0.93931800  1
  As  As2  1  0.09584800  0.09584800  0.19169700  1
  As  As3  1  0.90415200  0.90415200  0.80830300  1
  Cl  Cl0  1  0.72839900  0.72839900  0.45679800  1
  Cl  Cl1  1  0.27160100  0.27160100  0.54320200  1
  O  O0  1  0.66722100  0.16722100  0.33444100  1
  O  O1  1  0.16722100  0.66722100  0.33444100  1
  O  O2  1  0.33277900  0.83277900  0.66555900  1
  O  O3  1  0.83277900  0.33277900  0.66555900  1
loop_
_geom_bond_atom_site_label_1
_geom_bond_atom_site_label_2
_geom_bond_distance
_geom_bond_site_symmetry_2
La0 O0 2.390649 1_555
La0 O1 2.390649 1_555
La0 O0 2.390653 1_565
La0 O1 2.390653 1_655
La1 O2 2.390649 1_555
La1 O3 2.390649 1_555
La1 O2 2.390653 1_545
La1 O3 2.390653 1_455
La2 O1 2.391843 1_545
La2 O0 2.391843 1_455
La2 O1 2.391850 1_555
La2 O0 2.391850 1_555
La3 O3 2.391843 1_565
La3 O2 2.391843 1_655
La3 O3 2.391850 1_555
La3 O2 2.391850 1_555
Cu0 La4 3.408975 1_565
Cu0 La4 3.408978 1_555
Cu1 La4 3.408975 1_655
Cu1 La4 3.408978 1_555
Cu2 La4 3.408975 1_656
Cu2 La4 3.408978 1_666
Cu3 La4 3.408975 1_566
Cu3 La4 3.408978 1_666
As0 Cu1 2.516522 1_555
As0 Cu0 2.516522 1_555
As0 Cu1 2.516525 1_565
As0 Cu0 2.516525 1_655
As0 As1 2.549336 1_554
As0 La4 3.187554 1_565
As0 La4 3.187554 1_665
As0 La4 3.187554 1_555
As0 La4 3.187554 1_655
As1 Cu2 2.516522 1_555
As1 Cu3 2.516522 1_555
As1 Cu3 2.516525 1_545
As1 Cu2 2.516525 1_455
As1 La4 3.187554 1_666
As1 La4 3.187554 1_556
As1 La4 3.187554 1_566
As1 La4 3.187554 1_656
As2 Cu1 2.448913 1_455
As2 Cu0 2.448913 1_545
As2 Cu1 2.448920 1_555
As2 Cu0 2.448920 1_555
As2 La0 3.429153 1_445
As2 La0 3.429155 1_455
As2 La0 3.429155 1_545
As2 La0 3.429158 1_555
As3 Cu2 2.448913 1_565
As3 Cu3 2.448913 1_655
As3 Cu3 2.448920 1_555
As3 Cu2 2.448920 1_555
As3 La1 3.429153 1_665
As3 La1 3.429155 1_655
As3 La1 3.429155 1_565
As3 La1 3.429158 1_555
Cl0 La3 3.179738 1_555
Cl0 La2 3.224636 1_665
Cl0 La2 3.224639 1_565
Cl0 La2 3.224639 1_655
Cl0 La2 3.224641 1_555
Cl1 La2 3.179738 1_555
Cl1 La3 3.224636 1_445
Cl1 La3 3.224639 1_545
Cl1 La3 3.224639 1_455
Cl1 La3 3.224641 1_555
