# generated using pymatgen
data_MgTi5
_symmetry_space_group_name_H-M   'P 1'
_cell_length_a   11.33327325
_cell_length_b   11.33327325
_cell_length_c   14.01434804
_cell_angle_alpha   75.76252526
_cell_angle_beta   75.76252526
_cell_angle_gamma   29.75932010
_symmetry_Int_Tables_number   1
_chemical_formula_structural   MgTi5
_chemical_formula_sum   'Mg8 Ti40'
_cell_volume   864.05334920
_cell_formula_units_Z   8
loop_
 _symmetry_equiv_pos_site_id
 _symmetry_equiv_pos_as_xyz
  1  'x, y, z'
loop_
 _atom_site_type_symbol
 _atom_site_label
 _atom_site_symmetry_multiplicity
 _atom_site_fract_x
 _atom_site_fract_y
 _atom_site_fract_z
 _atom_site_occupancy
  Mg  Mg0_0  1  0.30395000  0.30395000  0.14155650  1
  Mg  Mg0_1  1  0.30395000  0.30395000  0.64155650  1
  Mg  Mg0_2  1  0.30395000  0.80395000  0.14155650  1
  Mg  Mg0_3  1  0.30395000  0.80395000  0.64155650  1
  Mg  Mg0_4  1  0.80395000  0.30395000  0.14155650  1
  Mg  Mg0_5  1  0.80395000  0.30395000  0.64155650  1
  Mg  Mg0_6  1  0.80395000  0.80395000  0.14155650  1
  Mg  Mg0_7  1  0.80395000  0.80395000  0.64155650  1
  Ti  Ti0_0  1  0.00008500  0.00008500  0.49298450  1
  Ti  Ti0_1  1  0.00008500  0.00008500  0.99298450  1
  Ti  Ti0_2  1  0.00008500  0.50008500  0.49298450  1
  Ti  Ti0_3  1  0.00008500  0.50008500  0.99298450  1
  Ti  Ti0_4  1  0.50008500  0.00008500  0.49298450  1
  Ti  Ti0_5  1  0.50008500  0.00008500  0.99298450  1
  Ti  Ti0_6  1  0.50008500  0.50008500  0.49298450  1
  Ti  Ti0_7  1  0.50008500  0.50008500  0.99298450  1
  Ti  Ti1_0  1  0.16777750  0.16777750  0.16695500  1
  Ti  Ti1_1  1  0.16777750  0.16777750  0.66695500  1
  Ti  Ti1_2  1  0.16777750  0.66777750  0.16695500  1
  Ti  Ti1_3  1  0.16777750  0.66777750  0.66695500  1
  Ti  Ti1_4  1  0.66777750  0.16777750  0.16695500  1
  Ti  Ti1_5  1  0.66777750  0.16777750  0.66695500  1
  Ti  Ti1_6  1  0.66777750  0.66777750  0.16695500  1
  Ti  Ti1_7  1  0.66777750  0.66777750  0.66695500  1
  Ti  Ti2_0  1  0.46822650  0.46822650  0.30769700  1
  Ti  Ti2_1  1  0.46822650  0.46822650  0.80769700  1
  Ti  Ti2_2  1  0.46822650  0.96822650  0.30769700  1
  Ti  Ti2_3  1  0.46822650  0.96822650  0.80769700  1
  Ti  Ti2_4  1  0.96822650  0.46822650  0.30769700  1
  Ti  Ti2_5  1  0.96822650  0.46822650  0.80769700  1
  Ti  Ti2_6  1  0.96822650  0.96822650  0.30769700  1
  Ti  Ti2_7  1  0.96822650  0.96822650  0.80769700  1
  Ti  Ti3_0  1  0.33396750  0.33396750  0.33719400  1
  Ti  Ti3_1  1  0.33396750  0.33396750  0.83719400  1
  Ti  Ti3_2  1  0.33396750  0.83396750  0.33719400  1
  Ti  Ti3_3  1  0.33396750  0.83396750  0.83719400  1
  Ti  Ti3_4  1  0.83396750  0.33396750  0.33719400  1
  Ti  Ti3_5  1  0.83396750  0.33396750  0.83719400  1
  Ti  Ti3_6  1  0.83396750  0.83396750  0.33719400  1
  Ti  Ti3_7  1  0.83396750  0.83396750  0.83719400  1
  Ti  Ti4_0  1  0.14266050  0.14266050  0.47028000  1
  Ti  Ti4_1  1  0.14266050  0.14266050  0.97028000  1
  Ti  Ti4_2  1  0.14266050  0.64266050  0.47028000  1
  Ti  Ti4_3  1  0.14266050  0.64266050  0.97028000  1
  Ti  Ti4_4  1  0.64266050  0.14266050  0.47028000  1
  Ti  Ti4_5  1  0.64266050  0.14266050  0.97028000  1
  Ti  Ti4_6  1  0.64266050  0.64266050  0.47028000  1
  Ti  Ti4_7  1  0.64266050  0.64266050  0.97028000  1
loop_
_geom_bond_atom_site_label_1
_geom_bond_atom_site_label_2
_geom_bond_distance
_geom_bond_site_symmetry_2
Mg0_0 Mg0_6 2.910268 1_545
Mg0_0 Mg0_6 2.910268 1_455
Mg0_0 Ti1_0 2.912892 1_555
Mg0_0 Ti2_4 2.973181 1_455
Mg0_0 Ti2_2 2.973181 1_545
Mg0_0 Ti3_0 2.977766 1_555
Mg0_0 Ti1_2 2.985578 1_555
Mg0_0 Ti1_4 2.985578 1_555
Mg0_0 Ti0_5 3.015882 1_554
Mg0_0 Ti0_3 3.015882 1_554
Mg0_0 Ti4_3 3.046551 1_554
Mg0_0 Ti4_5 3.046551 1_554
Mg0_1 Mg0_7 2.910268 1_455
Mg0_1 Mg0_7 2.910268 1_545
Mg0_1 Ti1_1 2.912892 1_555
Mg0_1 Ti2_5 2.973181 1_455
Mg0_1 Ti2_3 2.973181 1_545
Mg0_1 Ti3_1 2.977766 1_555
Mg0_1 Ti1_3 2.985578 1_555
Mg0_1 Ti1_5 2.985578 1_555
Mg0_1 Ti0_4 3.015882 1_555
Mg0_1 Ti0_2 3.015882 1_555
Mg0_1 Ti4_2 3.046551 1_555
Mg0_1 Ti4_4 3.046551 1_555
Mg0_2 Mg0_4 2.910268 1_465
Mg0_2 Mg0_4 2.910268 1_555
Mg0_2 Ti1_2 2.912892 1_555
Mg0_2 Ti2_6 2.973181 1_455
Mg0_2 Ti2_0 2.973181 1_555
Mg0_2 Ti3_2 2.977766 1_555
Mg0_2 Ti1_6 2.985578 1_555
Mg0_2 Ti1_0 2.985578 1_565
Mg0_2 Ti0_1 3.015882 1_564
Mg0_2 Ti0_7 3.015882 1_554
Mg0_2 Ti4_1 3.046551 1_564
Mg0_2 Ti4_7 3.046551 1_554
Mg0_3 Mg0_5 2.910268 1_555
Mg0_3 Mg0_5 2.910268 1_465
Mg0_3 Ti1_3 2.912892 1_555
Mg0_3 Ti2_1 2.973181 1_555
Mg0_3 Ti2_7 2.973181 1_455
Mg0_3 Ti3_3 2.977766 1_555
Mg0_3 Ti1_1 2.985578 1_565
Mg0_3 Ti1_7 2.985578 1_555
Mg0_3 Ti0_6 3.015882 1_555
Mg0_3 Ti0_0 3.015882 1_565
Mg0_3 Ti4_6 3.046551 1_555
Mg0_3 Ti4_0 3.046551 1_565
Mg0_4 Ti1_4 2.912892 1_555
Mg0_4 Ti2_0 2.973181 1_555
Mg0_4 Ti2_6 2.973181 1_545
Mg0_4 Ti3_4 2.977766 1_555
Mg0_4 Ti1_6 2.985578 1_555
Mg0_4 Ti1_0 2.985578 1_655
Mg0_4 Ti0_1 3.015882 1_654
Mg0_4 Ti0_7 3.015882 1_554
Mg0_4 Ti4_1 3.046551 1_654
Mg0_4 Ti4_7 3.046551 1_554
Mg0_5 Ti1_5 2.912892 1_555
Mg0_5 Ti2_1 2.973181 1_555
Mg0_5 Ti2_7 2.973181 1_545
Mg0_5 Ti3_5 2.977766 1_555
Mg0_5 Ti1_1 2.985578 1_655
Mg0_5 Ti1_7 2.985578 1_555
Mg0_5 Ti0_6 3.015882 1_555
Mg0_5 Ti0_0 3.015882 1_655
Mg0_5 Ti4_6 3.046551 1_555
Mg0_5 Ti4_0 3.046551 1_655
Mg0_6 Ti1_6 2.912892 1_555
Mg0_6 Ti2_2 2.973181 1_555
Mg0_6 Ti2_4 2.973181 1_555
Mg0_6 Ti3_6 2.977766 1_555
Mg0_6 Ti1_2 2.985578 1_655
Mg0_6 Ti1_4 2.985578 1_565
Mg0_6 Ti0_5 3.015882 1_564
Mg0_6 Ti0_3 3.015882 1_654
Mg0_6 Ti4_3 3.046551 1_654
Mg0_6 Ti4_5 3.046551 1_564
Mg0_7 Ti1_7 2.912892 1_555
Mg0_7 Ti2_5 2.973181 1_555
Mg0_7 Ti2_3 2.973181 1_555
Mg0_7 Ti3_7 2.977766 1_555
Mg0_7 Ti1_3 2.985578 1_655
Mg0_7 Ti1_5 2.985578 1_565
Mg0_7 Ti0_4 3.015882 1_565
Mg0_7 Ti0_2 3.015882 1_655
Mg0_7 Ti4_2 3.046551 1_655
Mg0_7 Ti4_4 3.046551 1_565
Ti0_0 Ti4_4 2.852672 1_455
Ti0_0 Ti4_2 2.852672 1_545
Ti0_0 Ti2_6 2.855202 1_445
Ti0_0 Ti3_2 2.866879 1_545
Ti0_0 Ti3_4 2.866879 1_455
Ti0_0 Ti0_6 2.910268 1_455
Ti0_0 Ti0_6 2.910268 1_545
Ti0_0 Ti1_5 3.012534 1_455
Ti0_0 Ti1_3 3.012534 1_545
Ti0_0 Ti4_0 3.057878 1_555
Ti0_1 Ti4_5 2.852672 1_455
Ti0_1 Ti4_3 2.852672 1_545
Ti0_1 Ti2_7 2.855202 1_445
Ti0_1 Ti3_3 2.866879 1_545
Ti0_1 Ti3_5 2.866879 1_455
Ti0_1 Ti0_7 2.910268 1_545
Ti0_1 Ti0_7 2.910268 1_455
Ti0_1 Ti1_4 3.012534 1_456
Ti0_1 Ti1_2 3.012534 1_546
Ti0_1 Ti4_1 3.057878 1_555
Ti0_2 Ti4_0 2.852672 1_555
Ti0_2 Ti4_6 2.852672 1_455
Ti0_2 Ti2_4 2.855202 1_455
Ti0_2 Ti3_0 2.866879 1_555
Ti0_2 Ti3_6 2.866879 1_455
Ti0_2 Ti0_4 2.910268 1_555
Ti0_2 Ti0_4 2.910268 1_465
Ti0_2 Ti1_1 3.012534 1_555
Ti0_2 Ti1_7 3.012534 1_455
Ti0_2 Ti4_2 3.057878 1_555
Ti0_3 Ti4_1 2.852672 1_555
Ti0_3 Ti4_7 2.852672 1_455
Ti0_3 Ti2_5 2.855202 1_455
Ti0_3 Ti3_7 2.866879 1_455
Ti0_3 Ti3_1 2.866879 1_555
Ti0_3 Ti0_5 2.910268 1_555
Ti0_3 Ti0_5 2.910268 1_465
Ti0_3 Ti1_0 3.012534 1_556
Ti0_3 Ti1_6 3.012534 1_456
Ti0_3 Ti4_3 3.057878 1_555
Ti0_4 Ti4_0 2.852672 1_555
Ti0_4 Ti4_6 2.852672 1_545
Ti0_4 Ti2_2 2.855202 1_545
Ti0_4 Ti3_0 2.866879 1_555
Ti0_4 Ti3_6 2.866879 1_545
Ti0_4 Ti1_1 3.012534 1_555
Ti0_4 Ti1_7 3.012534 1_545
Ti0_4 Ti4_4 3.057878 1_555
Ti0_5 Ti4_1 2.852672 1_555
Ti0_5 Ti4_7 2.852672 1_545
Ti0_5 Ti2_3 2.855202 1_545
Ti0_5 Ti3_7 2.866879 1_545
Ti0_5 Ti3_1 2.866879 1_555
Ti0_5 Ti1_0 3.012534 1_556
Ti0_5 Ti1_6 3.012534 1_546
Ti0_5 Ti4_5 3.057878 1_555
Ti0_6 Ti4_4 2.852672 1_555
Ti0_6 Ti4_2 2.852672 1_555
Ti0_6 Ti2_0 2.855202 1_555
Ti0_6 Ti3_4 2.866879 1_555
Ti0_6 Ti3_2 2.866879 1_555
Ti0_6 Ti1_5 3.012534 1_555
Ti0_6 Ti1_3 3.012534 1_555
Ti0_6 Ti4_6 3.057878 1_555
Ti0_7 Ti4_5 2.852672 1_555
Ti0_7 Ti4_3 2.852672 1_555
Ti0_7 Ti2_1 2.855202 1_555
Ti0_7 Ti3_3 2.866879 1_555
Ti0_7 Ti3_5 2.866879 1_555
Ti0_7 Ti1_4 3.012534 1_556
Ti0_7 Ti1_2 3.012534 1_556
Ti0_7 Ti4_7 3.057878 1_555
Ti1_0 Ti2_2 2.887664 1_545
Ti1_0 Ti2_4 2.887664 1_455
Ti1_0 Ti1_6 2.910268 1_545
Ti1_0 Ti1_6 2.910268 1_455
Ti1_0 Ti4_1 2.944765 1_554
Ti1_0 Ti3_2 2.991805 1_545
Ti1_0 Ti3_4 2.991805 1_455
Ti1_1 Ti2_3 2.887664 1_545
Ti1_1 Ti2_5 2.887664 1_455
Ti1_1 Ti1_7 2.910268 1_455
Ti1_1 Ti1_7 2.910268 1_545
Ti1_1 Ti4_0 2.944765 1_555
Ti1_1 Ti3_5 2.991805 1_455
Ti1_1 Ti3_3 2.991805 1_545
Ti1_2 Ti2_0 2.887664 1_555
Ti1_2 Ti2_6 2.887664 1_455
Ti1_2 Ti1_4 2.910268 1_555
Ti1_2 Ti1_4 2.910268 1_465
Ti1_2 Ti4_3 2.944765 1_554
Ti1_2 Ti3_6 2.991805 1_455
Ti1_2 Ti3_0 2.991805 1_555
Ti1_3 Ti2_7 2.887664 1_455
Ti1_3 Ti2_1 2.887664 1_555
Ti1_3 Ti1_5 2.910268 1_555
Ti1_3 Ti1_5 2.910268 1_465
Ti1_3 Ti4_2 2.944765 1_555
Ti1_3 Ti3_1 2.991805 1_555
Ti1_3 Ti3_7 2.991805 1_455
Ti1_4 Ti2_6 2.887664 1_545
Ti1_4 Ti2_0 2.887664 1_555
Ti1_4 Ti4_5 2.944765 1_554
Ti1_4 Ti3_6 2.991805 1_545
Ti1_4 Ti3_0 2.991805 1_555
Ti1_5 Ti2_7 2.887664 1_545
Ti1_5 Ti2_1 2.887664 1_555
Ti1_5 Ti4_4 2.944765 1_555
Ti1_5 Ti3_1 2.991805 1_555
Ti1_5 Ti3_7 2.991805 1_545
Ti1_6 Ti2_2 2.887664 1_555
Ti1_6 Ti2_4 2.887664 1_555
Ti1_6 Ti4_7 2.944765 1_554
Ti1_6 Ti3_4 2.991805 1_555
Ti1_6 Ti3_2 2.991805 1_555
Ti1_7 Ti2_3 2.887664 1_555
Ti1_7 Ti2_5 2.887664 1_555
Ti1_7 Ti4_6 2.944765 1_555
Ti1_7 Ti3_5 2.991805 1_555
Ti1_7 Ti3_3 2.991805 1_555
Ti2_0 Ti4_4 2.851246 1_555
Ti2_0 Ti4_2 2.851246 1_555
Ti2_0 Ti3_0 2.863985 1_555
Ti2_0 Ti2_6 2.910268 1_545
Ti2_0 Ti2_6 2.910268 1_455
Ti2_0 Ti3_2 3.041444 1_555
Ti2_0 Ti3_4 3.041444 1_555
Ti2_1 Ti4_5 2.851246 1_555
Ti2_1 Ti4_3 2.851246 1_555
Ti2_1 Ti3_1 2.863985 1_555
Ti2_1 Ti2_7 2.910268 1_545
Ti2_1 Ti2_7 2.910268 1_455
Ti2_1 Ti3_3 3.041444 1_555
Ti2_1 Ti3_5 3.041444 1_555
Ti2_2 Ti4_0 2.851246 1_565
Ti2_2 Ti4_6 2.851246 1_555
Ti2_2 Ti3_2 2.863985 1_555
Ti2_2 Ti2_4 2.910268 1_555
Ti2_2 Ti2_4 2.910268 1_465
Ti2_2 Ti3_0 3.041444 1_565
Ti2_2 Ti3_6 3.041444 1_555
Ti2_3 Ti4_7 2.851246 1_555
Ti2_3 Ti4_1 2.851246 1_565
Ti2_3 Ti3_3 2.863985 1_555
Ti2_3 Ti2_5 2.910268 1_555
Ti2_3 Ti2_5 2.910268 1_465
Ti2_3 Ti3_7 3.041444 1_555
Ti2_3 Ti3_1 3.041444 1_565
Ti2_4 Ti4_0 2.851246 1_655
Ti2_4 Ti4_6 2.851246 1_555
Ti2_4 Ti3_4 2.863985 1_555
Ti2_4 Ti3_0 3.041444 1_655
Ti2_4 Ti3_6 3.041444 1_555
Ti2_5 Ti4_7 2.851246 1_555
Ti2_5 Ti4_1 2.851246 1_655
Ti2_5 Ti3_5 2.863985 1_555
Ti2_5 Ti3_7 3.041444 1_555
Ti2_5 Ti3_1 3.041444 1_655
Ti2_6 Ti4_4 2.851246 1_565
Ti2_6 Ti4_2 2.851246 1_655
Ti2_6 Ti3_6 2.863985 1_555
Ti2_6 Ti3_2 3.041444 1_655
Ti2_6 Ti3_4 3.041444 1_565
Ti2_7 Ti4_5 2.851246 1_565
Ti2_7 Ti4_3 2.851246 1_655
Ti2_7 Ti3_7 2.863985 1_555
Ti2_7 Ti3_3 3.041444 1_655
Ti2_7 Ti3_5 3.041444 1_565
Ti3_0 Ti3_6 2.910268 1_455
Ti3_0 Ti3_6 2.910268 1_545
Ti3_0 Ti4_2 2.910281 1_555
Ti3_0 Ti4_4 2.910281 1_555
Ti3_1 Ti3_7 2.910268 1_455
Ti3_1 Ti3_7 2.910268 1_545
Ti3_1 Ti4_3 2.910281 1_555
Ti3_1 Ti4_5 2.910281 1_555
Ti3_2 Ti3_4 2.910268 1_555
Ti3_2 Ti3_4 2.910268 1_465
Ti3_2 Ti4_6 2.910281 1_555
Ti3_2 Ti4_0 2.910281 1_565
Ti3_3 Ti3_5 2.910268 1_555
Ti3_3 Ti3_5 2.910268 1_465
Ti3_3 Ti4_7 2.910281 1_555
Ti3_3 Ti4_1 2.910281 1_565
Ti3_4 Ti4_6 2.910281 1_555
Ti3_4 Ti4_0 2.910281 1_655
Ti3_5 Ti4_1 2.910281 1_655
Ti3_5 Ti4_7 2.910281 1_555
Ti3_6 Ti4_2 2.910281 1_655
Ti3_6 Ti4_4 2.910281 1_565
Ti3_7 Ti4_3 2.910281 1_655
Ti3_7 Ti4_5 2.910281 1_565
Ti4_0 Ti4_6 2.910268 1_455
Ti4_0 Ti4_6 2.910268 1_545
Ti4_1 Ti4_7 2.910268 1_455
Ti4_1 Ti4_7 2.910268 1_545
Ti4_2 Ti4_4 2.910268 1_555
Ti4_2 Ti4_4 2.910268 1_465
Ti4_3 Ti4_5 2.910268 1_555
Ti4_3 Ti4_5 2.910268 1_465
