# generated using pymatgen
data_KY2CuS4
_symmetry_space_group_name_H-M   'P 1'
_cell_length_a   7.05305512
_cell_length_b   7.05305512
_cell_length_c   13.75467700
_cell_angle_alpha   90.00000000
_cell_angle_beta   90.00000000
_cell_angle_gamma   147.37311435
_symmetry_Int_Tables_number   1
_chemical_formula_structural   KY2CuS4
_chemical_formula_sum   'K2 Y4 Cu2 S8'
_cell_volume   368.91599321
_cell_formula_units_Z   2
loop_
 _symmetry_equiv_pos_site_id
 _symmetry_equiv_pos_as_xyz
  1  'x, y, z'
loop_
 _atom_site_type_symbol
 _atom_site_label
 _atom_site_symmetry_multiplicity
 _atom_site_fract_x
 _atom_site_fract_y
 _atom_site_fract_z
 _atom_site_occupancy
  K  K0  1  0.10946100  0.89053900  0.25000000  1
  K  K1  1  0.89053900  0.10946100  0.75000000  1
  Y  Y0  1  0.63428600  0.36571400  0.93698300  1
  Y  Y1  1  0.36571400  0.63428600  0.43698300  1
  Y  Y2  1  0.63428600  0.36571400  0.56301700  1
  Y  Y3  1  0.36571400  0.63428600  0.06301700  1
  Cu  Cu0  1  0.16255100  0.83744900  0.75000000  1
  Cu  Cu1  1  0.83744900  0.16255100  0.25000000  1
  S  S0  1  0.00000000  0.00000000  0.50000000  1
  S  S1  1  0.00000000  0.00000000  0.00000000  1
  S  S2  1  0.73725700  0.26274300  0.11119800  1
  S  S3  1  0.26274300  0.73725700  0.88880200  1
  S  S4  1  0.56901100  0.43098900  0.75000000  1
  S  S5  1  0.73725700  0.26274300  0.38880200  1
  S  S6  1  0.43098900  0.56901100  0.25000000  1
  S  S7  1  0.26274300  0.73725700  0.61119800  1
loop_
_geom_bond_atom_site_label_1
_geom_bond_atom_site_label_2
_geom_bond_distance
_geom_bond_site_symmetry_2
K0 S6 3.124564 1_455
K0 S6 3.124564 1_565
K0 S5 3.250113 1_565
K0 S2 3.250113 1_565
K0 S5 3.250113 1_455
K0 S2 3.250113 1_455
K1 S4 3.124564 1_545
K1 S4 3.124564 1_655
K1 S3 3.250113 1_545
K1 S7 3.250113 1_545
K1 S7 3.250113 1_655
K1 S3 3.250113 1_655
Cu0 S7 2.341971 1_555
Cu0 S3 2.341971 1_555
Cu0 S4 2.351300 1_455
Cu0 S4 2.351300 1_565
Cu1 S5 2.341971 1_555
Cu1 S2 2.341971 1_555
Cu1 S6 2.351300 1_655
Cu1 S6 2.351300 1_545
S0 Y1 2.825125 1_555
S0 Y2 2.825125 1_445
S0 Y1 2.825125 1_445
S0 Y2 2.825125 1_555
S1 Y0 2.825125 1_554
S1 Y0 2.825125 1_444
S1 Y3 2.825125 1_555
S1 Y3 2.825125 1_445
S2 Y3 2.718182 1_545
S2 Y3 2.718182 1_655
S2 Y0 2.772267 1_554
S3 Y0 2.718182 1_455
S3 Y0 2.718182 1_565
S3 Y3 2.772267 1_556
S4 Y0 2.719477 1_555
S4 Y2 2.719477 1_555
S5 Y1 2.718182 1_545
S5 Y1 2.718182 1_655
S5 Y2 2.772267 1_555
S6 Y1 2.719477 1_555
S6 Y3 2.719477 1_555
S7 Y2 2.718182 1_455
S7 Y2 2.718182 1_565
S7 Y1 2.772267 1_555
