# generated using pymatgen
data_Rb2U2Cr2O15F2
_symmetry_space_group_name_H-M   'P 1'
_cell_length_a   9.58492100
_cell_length_b   13.35054700
_cell_length_c   13.95259174
_cell_angle_alpha   79.20949371
_cell_angle_beta   90.00000000
_cell_angle_gamma   90.00000000
_symmetry_Int_Tables_number   1
_chemical_formula_structural   Rb2U2Cr2O15F2
_chemical_formula_sum   'Rb8 U8 Cr8 O60 F8'
_cell_volume   1753.85915048
_cell_formula_units_Z   4
loop_
 _symmetry_equiv_pos_site_id
 _symmetry_equiv_pos_as_xyz
  1  'x, y, z'
loop_
 _atom_site_type_symbol
 _atom_site_label
 _atom_site_symmetry_multiplicity
 _atom_site_fract_x
 _atom_site_fract_y
 _atom_site_fract_z
 _atom_site_occupancy
  Rb  Rb0  1  0.14680500  0.91427400  0.42278100  1
  Rb  Rb1  1  0.64680500  0.58572600  0.57721900  1
  Rb  Rb2  1  0.85319500  0.08572600  0.57721900  1
  Rb  Rb3  1  0.35319500  0.41427400  0.42278100  1
  Rb  Rb4  1  0.87676300  0.32130300  0.02322700  1
  Rb  Rb5  1  0.37676300  0.17869700  0.97677300  1
  Rb  Rb6  1  0.12323700  0.67869700  0.97677300  1
  Rb  Rb7  1  0.62323700  0.82130300  0.02322700  1
  U  U0  1  0.82000100  0.06389300  0.25350400  1
  U  U1  1  0.32000100  0.43610700  0.74649600  1
  U  U2  1  0.17999900  0.93610700  0.74649600  1
  U  U3  1  0.67999900  0.56389300  0.25350400  1
  U  U4  1  0.18484700  0.20392200  0.25429000  1
  U  U5  1  0.68484700  0.29607800  0.74571000  1
  U  U6  1  0.81515300  0.79607800  0.74571000  1
  U  U7  1  0.31515300  0.70392200  0.25429000  1
  Cr  Cr0  1  0.05409500  0.47672900  0.22388800  1
  Cr  Cr1  1  0.55409500  0.02327100  0.77611200  1
  Cr  Cr2  1  0.94590500  0.52327100  0.77611200  1
  Cr  Cr3  1  0.44590500  0.97672900  0.22388800  1
  Cr  Cr4  1  0.93755800  0.78596300  0.22349700  1
  Cr  Cr5  1  0.43755800  0.71403700  0.77650300  1
  Cr  Cr6  1  0.06244200  0.21403700  0.77650300  1
  Cr  Cr7  1  0.56244200  0.28596300  0.22349700  1
  O  O0  1  0.85677400  0.02910200  0.38463100  1
  O  O1  1  0.35677400  0.47089800  0.61536900  1
  O  O2  1  0.14322600  0.97089800  0.61536900  1
  O  O3  1  0.64322600  0.52910200  0.38463100  1
  O  O4  1  0.79191800  0.10244900  0.12339500  1
  O  O5  1  0.29191800  0.39755100  0.87660500  1
  O  O6  1  0.20808200  0.89755100  0.87660500  1
  O  O7  1  0.70808200  0.60244900  0.12339500  1
  O  O8  1  0.17476300  0.15624900  0.38525300  1
  O  O9  1  0.67476300  0.34375100  0.61474700  1
  O  O10  1  0.82523700  0.84375100  0.61474700  1
  O  O11  1  0.32523700  0.65624900  0.38525300  1
  O  O12  1  0.18850200  0.24801900  0.12266800  1
  O  O13  1  0.68850200  0.25198100  0.87733200  1
  O  O14  1  0.81149800  0.75198100  0.87733200  1
  O  O15  1  0.31149800  0.74801900  0.12266800  1
  O  O16  1  0.13481200  0.36947800  0.28126900  1
  O  O17  1  0.63481200  0.13052200  0.71873100  1
  O  O18  1  0.86518800  0.63052200  0.71873100  1
  O  O19  1  0.36518800  0.86947800  0.28126900  1
  O  O20  1  0.89546100  0.48499700  0.27305500  1
  O  O21  1  0.39546100  0.01500300  0.72694500  1
  O  O22  1  0.10453900  0.51500300  0.72694500  1
  O  O23  1  0.60453900  0.98499700  0.27305500  1
  O  O24  1  0.14949300  0.57847700  0.23734200  1
  O  O25  1  0.64949300  0.92152300  0.76265800  1
  O  O26  1  0.85050700  0.42152300  0.76265800  1
  O  O27  1  0.35050700  0.07847700  0.23734200  1
  O  O28  1  0.03739700  0.47447400  0.10895700  1
  O  O29  1  0.53739700  0.02552600  0.89104300  1
  O  O30  1  0.96260300  0.52552600  0.89104300  1
  O  O31  1  0.46260300  0.97447400  0.10895700  1
  O  O32  1  0.83754200  0.69034500  0.28154900  1
  O  O33  1  0.33754200  0.80965500  0.71845100  1
  O  O34  1  0.16245800  0.30965500  0.71845100  1
  O  O35  1  0.66245800  0.19034500  0.28154900  1
  O  O36  1  0.09900900  0.77902000  0.27403200  1
  O  O37  1  0.59900900  0.72098000  0.72596800  1
  O  O38  1  0.90099100  0.22098000  0.72596800  1
  O  O39  1  0.40099100  0.27902000  0.27403200  1
  O  O40  1  0.86438400  0.89759600  0.23393500  1
  O  O41  1  0.36438400  0.60240400  0.76606500  1
  O  O42  1  0.13561600  0.10240400  0.76606500  1
  O  O43  1  0.63561600  0.39759600  0.23393500  1
  O  O44  1  0.94643100  0.77818400  0.10929600  1
  O  O45  1  0.44643100  0.72181600  0.89070400  1
  O  O46  1  0.05356900  0.22181600  0.89070400  1
  O  O47  1  0.55356900  0.27818400  0.10929600  1
  O  O48  1  0.55921500  0.49754300  0.98336400  1
  O  O49  1  0.05921500  0.00245700  0.01663600  1
  O  O50  1  0.44078500  0.50245700  0.01663600  1
  O  O51  1  0.94078500  0.99754300  0.98336400  1
  O  O52  1  0.51050800  0.90246500  0.48331500  1
  O  O53  1  0.01050800  0.59753500  0.51668500  1
  O  O54  1  0.48949200  0.09753500  0.51668500  1
  O  O55  1  0.98949200  0.40246500  0.48331500  1
  O  O56  1  0.09009000  0.66420900  0.53433200  1
  O  O57  1  0.59009000  0.83579100  0.46566800  1
  O  O58  1  0.90991000  0.33579100  0.46566800  1
  O  O59  1  0.40991000  0.16420900  0.53433200  1
  F  F0  1  0.94221900  0.22010300  0.24243700  1
  F  F1  1  0.44221900  0.27989700  0.75756300  1
  F  F2  1  0.05778100  0.77989700  0.75756300  1
  F  F3  1  0.55778100  0.72010300  0.24243700  1
  F  F4  1  0.06548200  0.05288600  0.23740600  1
  F  F5  1  0.56548200  0.44711400  0.76259400  1
  F  F6  1  0.93451800  0.94711400  0.76259400  1
  F  F7  1  0.43451800  0.55288500  0.23740600  1
loop_
_geom_bond_atom_site_label_1
_geom_bond_atom_site_label_2
_geom_bond_distance
_geom_bond_site_symmetry_2
Cr0 O28 1.617431 1_555
Cr0 O24 1.676914 1_555
Cr0 O20 1.680192 1_455
Cr0 O16 1.691307 1_555
Cr1 O29 1.617431 1_555
Cr1 O25 1.676914 1_545
Cr1 O21 1.680192 1_555
Cr1 O17 1.691307 1_555
Cr2 O30 1.617431 1_555
Cr2 O26 1.676914 1_555
Cr2 O22 1.680192 1_655
Cr2 O18 1.691307 1_555
Cr3 O31 1.617431 1_555
Cr3 O27 1.676914 1_565
Cr3 O23 1.680192 1_555
Cr3 O19 1.691307 1_555
Cr4 O44 1.618303 1_555
Cr4 O40 1.677968 1_555
Cr4 O32 1.678538 1_555
Cr4 O36 1.695883 1_655
Cr5 O45 1.618303 1_555
Cr5 O41 1.677968 1_555
Cr5 O33 1.678538 1_555
Cr5 O37 1.695883 1_555
Cr6 O46 1.618303 1_555
Cr6 O42 1.677968 1_555
Cr6 O34 1.678538 1_555
Cr6 O38 1.695883 1_455
Cr7 O47 1.618303 1_555
Cr7 O43 1.677968 1_555
Cr7 O35 1.678538 1_555
Cr7 O39 1.695883 1_555
O0 U0 1.835504 1_555
O0 Rb2 2.924685 1_555
O0 Rb0 3.171105 1_645
O1 U1 1.835504 1_555
O1 Rb3 2.924685 1_555
O1 Rb1 3.171105 1_555
O2 U2 1.835504 1_555
O2 Rb0 2.924685 1_555
O2 Rb2 3.171105 1_465
O3 U3 1.835504 1_555
O3 Rb1 2.924685 1_555
O3 Rb3 3.171105 1_555
O4 U0 1.811919 1_555
O4 Rb4 3.102039 1_555
O5 U1 1.811919 1_555
O5 Rb5 3.102039 1_555
O6 U2 1.811919 1_555
O6 Rb6 3.102039 1_555
O7 U3 1.811919 1_555
O7 Rb7 3.102039 1_555
O8 U4 1.821507 1_555
O8 Rb0 3.185707 1_545
O9 U5 1.821507 1_555
O9 Rb1 3.185707 1_555
O10 U6 1.821507 1_555
O10 Rb2 3.185707 1_565
O11 U7 1.821507 1_555
O11 Rb3 3.185707 1_555
O12 U4 1.820880 1_555
O12 Rb5 2.993620 1_554
O12 Rb4 3.361859 1_455
O13 U5 1.820880 1_555
O13 Rb4 2.993620 1_556
O13 Rb5 3.361859 1_555
O14 U6 1.820880 1_555
O14 Rb7 2.993620 1_556
O14 Rb6 3.361859 1_655
O15 U7 1.820880 1_555
O15 Rb6 2.993620 1_554
O15 Rb7 3.361859 1_555
O16 U4 2.359765 1_555
O16 Rb3 3.013257 1_555
O17 U5 2.359765 1_555
O17 Rb2 3.013257 1_555
O18 U6 2.359765 1_555
O18 Rb1 3.013257 1_555
O19 U7 2.359765 1_555
O19 Rb0 3.013257 1_555
O20 U3 2.311119 1_555
O21 U2 2.311119 1_545
O22 U1 2.311119 1_555
O23 U0 2.311119 1_565
O24 U7 2.351649 1_555
O25 U6 2.351649 1_555
O26 U5 2.351649 1_555
O27 U4 2.351649 1_555
O28 Rb4 2.983107 1_455
O28 Rb6 3.103114 1_554
O29 Rb5 2.983107 1_555
O29 Rb7 3.103114 1_546
O30 Rb6 2.983107 1_655
O30 Rb4 3.103114 1_556
O31 Rb7 2.983107 1_555
O31 Rb5 3.103114 1_564
O32 U3 2.351746 1_555
O33 U2 2.351746 1_555
O34 U1 2.351746 1_555
O35 U0 2.351746 1_555
O36 U7 2.340197 1_555
O36 Rb0 3.030044 1_555
O37 U6 2.340197 1_555
O37 Rb1 3.030044 1_555
O38 U5 2.340197 1_555
O38 Rb2 3.030044 1_555
O39 U4 2.340197 1_555
O39 Rb3 3.030044 1_555
O40 U0 2.326283 1_565
O41 U1 2.326283 1_555
O42 U2 2.326283 1_545
O43 U3 2.326283 1_555
O44 Rb6 2.995759 1_654
O44 Rb7 3.333311 1_555
O45 Rb7 2.995759 1_556
O45 Rb6 3.333311 1_555
O46 Rb4 2.995759 1_456
O46 Rb5 3.333311 1_555
O47 Rb5 2.995759 1_554
O47 Rb4 3.333311 1_555
O48 O50 1.232788 1_556
O49 O51 1.232788 1_444
O52 O57 1.231614 1_555
O53 O56 1.231614 1_555
O54 O59 1.231614 1_555
O55 O58 1.231614 1_555
O56 Rb0 3.452240 1_555
O57 Rb1 3.452240 1_555
O58 Rb2 3.452240 1_555
O59 Rb3 3.452240 1_555
F0 U4 2.338572 1_655
F0 U0 2.371671 1_555
F0 Rb4 3.166455 1_555
F1 U5 2.338572 1_555
F1 U1 2.371671 1_555
F1 Rb5 3.166455 1_555
F2 U6 2.338572 1_455
F2 U2 2.371671 1_555
F2 Rb6 3.166455 1_555
F3 U7 2.338572 1_555
F3 U3 2.371671 1_555
F3 Rb7 3.166455 1_555
F4 U4 2.368176 1_555
F4 U0 2.370784 1_455
F4 Rb0 2.988259 1_545
F5 U5 2.368176 1_555
F5 U1 2.370784 1_555
F5 Rb1 2.988259 1_555
F6 U6 2.368176 1_555
F6 U2 2.370784 1_655
F6 Rb2 2.988259 1_565
F7 U7 2.368187 1_555
F7 U3 2.370785 1_555
F7 Rb3 2.988253 1_555
