# generated using pymatgen
data_NaLa9(Ge3O13)2
_symmetry_space_group_name_H-M   'P 1'
_cell_length_a   9.98089694
_cell_length_b   9.98089694
_cell_length_c   7.31829800
_cell_angle_alpha   90.00000000
_cell_angle_beta   90.00000000
_cell_angle_gamma   119.99999299
_symmetry_Int_Tables_number   1
_chemical_formula_structural   NaLa9(Ge3O13)2
_chemical_formula_sum   'Na1 La9 Ge6 O26'
_cell_volume   631.36411615
_cell_formula_units_Z   1
loop_
 _symmetry_equiv_pos_site_id
 _symmetry_equiv_pos_as_xyz
  1  'x, y, z'
loop_
 _atom_site_type_symbol
 _atom_site_label
 _atom_site_symmetry_multiplicity
 _atom_site_fract_x
 _atom_site_fract_y
 _atom_site_fract_z
 _atom_site_occupancy
  Na  Na0  1  0.00000000  0.00000000  0.49413300  1
  La  La0  1  0.33333300  0.66666700  0.99859300  1
  La  La1  1  0.33333300  0.66666700  0.50058900  1
  La  La2  1  0.00000000  0.00000000  0.00150200  1
  La  La3  1  0.90314400  0.56477400  0.74885700  1
  La  La4  1  0.43522600  0.33836900  0.74885700  1
  La  La5  1  0.66163100  0.09685600  0.74885700  1
  La  La6  1  0.42637800  0.10139400  0.25074800  1
  La  La7  1  0.89860600  0.32498400  0.25074800  1
  La  La8  1  0.67501600  0.57362200  0.25074800  1
  Ge  Ge0  1  0.03956600  0.30327700  0.74729000  1
  Ge  Ge1  1  0.69672300  0.73628900  0.74729000  1
  Ge  Ge2  1  0.26371100  0.96043400  0.74729000  1
  Ge  Ge3  1  0.29378100  0.35836600  0.24881500  1
  Ge  Ge4  1  0.64163400  0.93541500  0.24881500  1
  Ge  Ge5  1  0.06458500  0.70621900  0.24881500  1
  O  O0  1  0.15991800  0.50863600  0.74894700  1
  O  O1  1  0.49136400  0.65128200  0.74894700  1
  O  O2  1  0.34871800  0.84008200  0.74894700  1
  O  O3  1  0.18172400  0.15804000  0.24250500  1
  O  O4  1  0.84196000  0.02368400  0.24250500  1
  O  O5  1  0.97631600  0.81827600  0.24250500  1
  O  O6  1  0.19428000  0.46592400  0.25022700  1
  O  O7  1  0.53407600  0.72835700  0.25022700  1
  O  O8  1  0.27164300  0.80572000  0.25022700  1
  O  O9  1  0.14667900  0.20770900  0.75984200  1
  O  O10  1  0.79229100  0.93897000  0.75984200  1
  O  O11  1  0.06103000  0.85332100  0.75984200  1
  O  O12  1  0.91390300  0.24081100  0.94067800  1
  O  O13  1  0.75918900  0.67309200  0.94067800  1
  O  O14  1  0.32690800  0.08609700  0.94067800  1
  O  O15  1  0.41931700  0.43073200  0.44123500  1
  O  O16  1  0.56926800  0.98858500  0.44123500  1
  O  O17  1  0.01141500  0.58068300  0.44123500  1
  O  O18  1  0.42238500  0.43378400  0.05822800  1
  O  O19  1  0.56621600  0.98860100  0.05822800  1
  O  O20  1  0.01139900  0.57761500  0.05822800  1
  O  O21  1  0.90811700  0.25044000  0.56295600  1
  O  O22  1  0.74956000  0.65767700  0.56295600  1
  O  O23  1  0.34232300  0.09188300  0.56295600  1
  O  O24  1  0.66666700  0.33333300  0.75364900  1
  O  O25  1  0.66666700  0.33333300  0.25054200  1
loop_
_geom_bond_atom_site_label_1
_geom_bond_atom_site_label_2
_geom_bond_distance
_geom_bond_site_symmetry_2
Na0 O4 2.511566 1_455
Na0 O5 2.511566 1_445
Na0 O3 2.511566 1_555
Na0 O11 2.680913 1_545
Na0 O10 2.680913 1_445
Na0 O9 2.680914 1_555
La0 O2 2.468090 1_555
La0 O0 2.468093 1_555
La0 O1 2.468096 1_555
La0 O8 2.559510 1_556
La0 O7 2.559510 1_556
La0 O6 2.559510 1_556
La0 O20 2.906736 1_556
La0 O19 2.906739 1_556
La0 O18 2.906745 1_556
La1 O2 2.461120 1_555
La1 O0 2.461123 1_555
La1 O1 2.461127 1_555
La1 O8 2.552821 1_555
La1 O7 2.552821 1_555
La1 O6 2.552821 1_555
La1 O17 2.913989 1_555
La1 O16 2.913992 1_555
La1 O15 2.913998 1_555
La2 O4 2.455124 1_455
La2 O5 2.455124 1_445
La2 O3 2.455124 1_555
La2 O11 2.556131 1_544
La2 O10 2.556131 1_444
La2 O9 2.556131 1_554
La2 O12 2.962910 1_454
La2 O14 2.962910 1_554
La2 O13 2.962910 1_444
La3 O24 2.335790 1_555
La3 O17 2.467716 1_655
La3 O20 2.484230 1_656
La3 O11 2.499108 1_655
La3 O22 2.545958 1_555
La3 O13 2.599461 1_555
La3 O0 2.884102 1_655
La4 O24 2.335790 1_555
La4 O15 2.467720 1_555
La4 O18 2.484234 1_556
La4 O9 2.499109 1_555
La4 O23 2.545950 1_555
La4 O14 2.599454 1_555
La4 O1 2.884112 1_555
La5 O24 2.335790 1_555
La5 O16 2.467718 1_545
La5 O19 2.484231 1_546
La5 O10 2.499099 1_545
La5 O21 2.545951 1_555
La5 O12 2.599454 1_555
La5 O2 2.884108 1_545
La6 O25 2.357735 1_555
La6 O23 2.419432 1_555
La6 O14 2.450833 1_554
La6 O8 2.556651 1_545
La6 O19 2.602245 1_545
La6 O16 2.617406 1_545
La6 O3 2.768859 1_555
La7 O25 2.357730 1_555
La7 O21 2.419432 1_555
La7 O12 2.450833 1_554
La7 O6 2.556650 1_655
La7 O20 2.602245 1_655
La7 O17 2.617406 1_655
La7 O4 2.768859 1_555
La8 O25 2.357740 1_555
La8 O22 2.419432 1_555
La8 O13 2.450833 1_554
La8 O7 2.556659 1_555
La8 O18 2.602245 1_555
La8 O15 2.617406 1_555
La8 O5 2.768859 1_555
Ge0 O9 1.755268 1_555
Ge0 O21 1.768430 1_455
Ge0 O0 1.783847 1_555
Ge0 O12 1.784047 1_455
Ge1 O10 1.755268 1_555
Ge1 O22 1.768429 1_555
Ge1 O1 1.783847 1_555
Ge1 O13 1.784047 1_555
Ge2 O11 1.755268 1_555
Ge2 O23 1.768430 1_565
Ge2 O2 1.783847 1_555
Ge2 O14 1.784047 1_565
Ge3 O3 1.736239 1_555
Ge3 O15 1.780338 1_555
Ge3 O18 1.787006 1_555
Ge3 O6 1.790239 1_555
Ge4 O4 1.736239 1_565
Ge4 O16 1.780338 1_555
Ge4 O19 1.787006 1_555
Ge4 O7 1.790231 1_555
Ge5 O5 1.736239 1_455
Ge5 O17 1.780338 1_555
Ge5 O20 1.787006 1_555
Ge5 O8 1.790231 1_555
