# generated using pymatgen
data_Cu2C4NCl5
_symmetry_space_group_name_H-M   'P 1'
_cell_length_a   18.16778600
_cell_length_b   6.10037600
_cell_length_c   10.62192234
_cell_angle_alpha   79.77100213
_cell_angle_beta   90.00000000
_cell_angle_gamma   90.00000000
_symmetry_Int_Tables_number   1
_chemical_formula_structural   Cu2C4NCl5
_chemical_formula_sum   'Cu8 C16 N4 Cl20'
_cell_volume   1158.52003412
_cell_formula_units_Z   4
loop_
 _symmetry_equiv_pos_site_id
 _symmetry_equiv_pos_as_xyz
  1  'x, y, z'
loop_
 _atom_site_type_symbol
 _atom_site_label
 _atom_site_symmetry_multiplicity
 _atom_site_fract_x
 _atom_site_fract_y
 _atom_site_fract_z
 _atom_site_occupancy
  Cu  Cu0  1  0.53665000  0.32246400  0.40739400  1
  Cu  Cu1  1  0.03665000  0.67753600  0.09260600  1
  Cu  Cu2  1  0.46335000  0.67753600  0.59260600  1
  Cu  Cu3  1  0.96335000  0.32246400  0.90739400  1
  Cu  Cu4  1  0.59323800  0.88089800  0.30515600  1
  Cu  Cu5  1  0.09323800  0.11910200  0.19484400  1
  Cu  Cu6  1  0.40676200  0.11910200  0.69484400  1
  Cu  Cu7  1  0.90676200  0.88089800  0.80515600  1
  C  C0  1  0.68992200  0.53606200  0.84751600  1
  C  C1  1  0.18992200  0.46393800  0.65248400  1
  C  C2  1  0.31007800  0.46393800  0.15248400  1
  C  C3  1  0.81007800  0.53606200  0.34751600  1
  C  C4  1  0.69083900  0.40451400  0.96835500  1
  C  C5  1  0.19083900  0.59548600  0.53164500  1
  C  C6  1  0.30916100  0.59548600  0.03164500  1
  C  C7  1  0.80916100  0.40451400  0.46835500  1
  C  C8  1  0.65600800  0.34373300  0.82004400  1
  C  C9  1  0.15600800  0.65626700  0.67995600  1
  C  C10  1  0.34399200  0.65626700  0.17995600  1
  C  C11  1  0.84399200  0.34373300  0.32004400  1
  C  C12  1  0.62023300  0.24957500  0.93507600  1
  C  C13  1  0.12023300  0.75042500  0.56492400  1
  C  C14  1  0.37976700  0.75042500  0.06492400  1
  C  C15  1  0.87976700  0.24957500  0.43507600  1
  N  N0  1  0.65623100  0.23522800  0.04785900  1
  N  N1  1  0.15623100  0.76477200  0.45214100  1
  N  N2  1  0.34376900  0.76477200  0.95214100  1
  N  N3  1  0.84376900  0.23522800  0.54785900  1
  Cl  Cl0  1  0.56492600  0.62488300  0.19934100  1
  Cl  Cl1  1  0.06492600  0.37511700  0.30065900  1
  Cl  Cl2  1  0.43507400  0.37511700  0.80065900  1
  Cl  Cl3  1  0.93507400  0.62488300  0.69934100  1
  Cl  Cl4  1  0.64798900  0.12797600  0.40086800  1
  Cl  Cl5  1  0.14798900  0.87202400  0.09913200  1
  Cl  Cl6  1  0.35201100  0.87202400  0.59913200  1
  Cl  Cl7  1  0.85201100  0.12797600  0.90086800  1
  Cl  Cl8  1  0.75805700  0.74085300  0.26794200  1
  Cl  Cl9  1  0.25805700  0.25914700  0.23205800  1
  Cl  Cl10  1  0.24194300  0.25914700  0.73205800  1
  Cl  Cl11  1  0.74194300  0.74085300  0.76794200  1
  Cl  Cl12  1  0.48466500  0.05967400  0.30943500  1
  Cl  Cl13  1  0.98466500  0.94032600  0.19056500  1
  Cl  Cl14  1  0.51533500  0.94032600  0.69056500  1
  Cl  Cl15  1  0.01533500  0.05967400  0.80943500  1
  Cl  Cl16  1  0.58027400  0.55032800  0.53998000  1
  Cl  Cl17  1  0.08027400  0.44967200  0.96002000  1
  Cl  Cl18  1  0.41972600  0.44967200  0.46002000  1
  Cl  Cl19  1  0.91972600  0.55032800  0.03998000  1
loop_
_geom_bond_atom_site_label_1
_geom_bond_atom_site_label_2
_geom_bond_distance
_geom_bond_site_symmetry_2
C0 C4 1.387775 1_555
C0 C8 1.401058 1_555
C0 Cl11 1.671334 1_555
C1 C5 1.387775 1_555
C1 C9 1.401058 1_555
C1 Cl10 1.671334 1_555
C2 C6 1.387775 1_555
C2 Cl9 1.671334 1_555
C3 C7 1.387775 1_555
C3 Cl8 1.671334 1_555
C4 N0 1.365733 1_556
C5 N1 1.365733 1_555
C6 N2 1.365733 1_554
C7 N3 1.365733 1_555
C10 C2 1.401058 1_555
C10 C14 1.412816 1_555
C11 C3 1.401058 1_555
C11 C15 1.412816 1_555
C12 N0 1.353987 1_556
C12 C8 1.412816 1_555
C13 N1 1.353987 1_555
C13 C9 1.412816 1_555
C14 N2 1.353987 1_554
C15 N3 1.353987 1_555
Cl0 Cu4 2.142543 1_555
Cl0 Cu0 2.665180 1_555
Cl1 Cu5 2.142543 1_555
Cl1 Cu1 2.665180 1_555
Cl2 Cu6 2.142543 1_555
Cl2 Cu2 2.665180 1_555
Cl3 Cu7 2.142543 1_555
Cl3 Cu3 2.665180 1_555
Cl4 Cu4 2.199797 1_545
Cl4 Cu0 2.352303 1_555
Cl5 Cu5 2.199797 1_565
Cl5 Cu1 2.352303 1_555
Cl6 Cu6 2.199797 1_565
Cl6 Cu2 2.352303 1_555
Cl7 Cu7 2.199797 1_545
Cl7 Cu3 2.352303 1_555
Cl12 Cu4 2.258309 1_545
Cl12 Cu0 2.266513 1_555
Cl13 Cu5 2.258309 1_665
Cl13 Cu1 2.266513 1_655
Cl14 Cu6 2.258309 1_565
Cl14 Cu2 2.266513 1_555
Cl15 Cu7 2.258309 1_445
Cl15 Cu3 2.266513 1_455
Cl16 Cu0 2.288895 1_555
Cl16 Cu2 2.362451 1_555
Cl16 Cu4 2.925256 1_555
Cl17 Cu1 2.288895 1_556
Cl17 Cu3 2.362451 1_455
Cl17 Cu5 2.925256 1_556
Cl18 Cu2 2.288895 1_555
Cl18 Cu0 2.362451 1_555
Cl18 Cu6 2.925256 1_555
Cl19 Cu3 2.288895 1_554
Cl19 Cu1 2.362451 1_655
Cl19 Cu7 2.925256 1_554
