# generated using pymatgen
data_Y2FeSi2
_symmetry_space_group_name_H-M   'P 1'
_cell_length_a   5.64317341
_cell_length_b   5.64317341
_cell_length_c   10.15925753
_cell_angle_alpha   63.46288426
_cell_angle_beta   63.46288426
_cell_angle_gamma   43.24653240
_symmetry_Int_Tables_number   1
_chemical_formula_structural   Y2FeSi2
_chemical_formula_sum   'Y4 Fe2 Si4'
_cell_volume   194.38269634
_cell_formula_units_Z   2
loop_
 _symmetry_equiv_pos_site_id
 _symmetry_equiv_pos_as_xyz
  1  'x, y, z'
loop_
 _atom_site_type_symbol
 _atom_site_label
 _atom_site_symmetry_multiplicity
 _atom_site_fract_x
 _atom_site_fract_y
 _atom_site_fract_z
 _atom_site_occupancy
  Y  Y0  1  0.99545998  0.99545998  0.32762134  1
  Y  Y1  1  0.00454002  0.00454002  0.67237866  1
  Y  Y2  1  0.80993221  0.80993221  0.10664869  1
  Y  Y3  1  0.19006779  0.19006779  0.89335131  1
  Fe  Fe0  1  0.72215725  0.72215725  0.63701048  1
  Fe  Fe1  1  0.27784275  0.27784275  0.36298952  1
  Si  Si0  1  0.64425487  0.64425487  0.43860504  1
  Si  Si1  1  0.35574513  0.35574513  0.56139496  1
  Si  Si2  1  0.50533753  0.50533753  0.12060789  1
  Si  Si3  1  0.49466247  0.49466247  0.87939211  1
loop_
_geom_bond_atom_site_label_1
_geom_bond_atom_site_label_2
_geom_bond_distance
_geom_bond_site_symmetry_2
Fe0 Si1 2.417463 1_655
Fe0 Si1 2.417463 1_565
Fe0 Si3 2.472105 1_555
Fe0 Si0 2.512869 1_555
Fe0 Y1 2.979634 1_655
Fe0 Y1 2.979634 1_565
Fe0 Y0 3.072261 1_555
Fe0 Y1 3.151265 1_665
Fe0 Y3 3.221336 1_655
Fe0 Y3 3.221336 1_565
Fe1 Si0 2.417463 1_545
Fe1 Si0 2.417463 1_455
Fe1 Si2 2.472105 1_555
Fe1 Si1 2.512869 1_555
Fe1 Y0 2.979634 1_545
Fe1 Y0 2.979634 1_455
Fe1 Y1 3.072261 1_555
Fe1 Y0 3.151265 1_445
Fe1 Y2 3.221336 1_455
Fe1 Y2 3.221336 1_545
Si0 Si1 2.662647 1_555
Si0 Y2 2.959755 1_555
Si0 Y1 2.960973 1_565
Si0 Y1 2.960973 1_655
Si0 Y0 3.118474 1_545
Si0 Y0 3.118474 1_455
Si0 Y0 3.294855 1_555
Si1 Y3 2.959755 1_555
Si1 Y0 2.960973 1_455
Si1 Y0 2.960973 1_545
Si1 Y1 3.118474 1_655
Si1 Y1 3.118474 1_565
Si1 Y1 3.294855 1_555
Si2 Si3 2.506327 1_554
Si2 Y0 2.923814 1_545
Si2 Y0 2.923814 1_455
Si2 Y2 2.971086 1_455
Si2 Y2 2.971086 1_545
Si2 Y3 3.018311 1_564
Si2 Y3 3.018311 1_654
Si2 Y2 3.130151 1_555
Si3 Y1 2.923814 1_565
Si3 Y1 2.923814 1_655
Si3 Y3 2.971086 1_565
Si3 Y3 2.971086 1_655
Si3 Y2 3.018311 1_456
Si3 Y2 3.018311 1_546
Si3 Y3 3.130151 1_555
