# generated using pymatgen
data_CsNa2Mn3P4ClO14
_symmetry_space_group_name_H-M   'P 1'
_cell_length_a   11.13027206
_cell_length_b   11.13027206
_cell_length_c   14.07286211
_cell_angle_alpha   62.48289342
_cell_angle_beta   62.48289342
_cell_angle_gamma   27.81223458
_symmetry_Int_Tables_number   1
_chemical_formula_structural   CsNa2Mn3P4ClO14
_chemical_formula_sum   'Cs2 Na4 Mn6 P8 Cl2 O28'
_cell_volume   715.37623892
_cell_formula_units_Z   2
loop_
 _symmetry_equiv_pos_site_id
 _symmetry_equiv_pos_as_xyz
  1  'x, y, z'
loop_
 _atom_site_type_symbol
 _atom_site_label
 _atom_site_symmetry_multiplicity
 _atom_site_fract_x
 _atom_site_fract_y
 _atom_site_fract_z
 _atom_site_occupancy
  Cs  Cs0  1  0.50000000  0.50000000  0.00000000  1
  Cs  Cs1  1  0.50000000  0.50000000  0.50000000  1
  Na  Na0  1  0.25537800  0.30355100  0.15275200  1
  Na  Na1  1  0.69644900  0.74462200  0.34724800  1
  Na  Na2  1  0.74462200  0.69644900  0.84724800  1
  Na  Na3  1  0.30355100  0.25537800  0.65275200  1
  Mn  Mn0  1  0.67672800  0.64151900  0.15226600  1
  Mn  Mn1  1  0.35848100  0.32327200  0.34773400  1
  Mn  Mn2  1  0.32327200  0.35848100  0.84773400  1
  Mn  Mn3  1  0.64151900  0.67672800  0.65226600  1
  Mn  Mn4  1  0.94104800  0.05895200  0.25000000  1
  Mn  Mn5  1  0.05895200  0.94104800  0.75000000  1
  P  P0  1  0.17429200  0.14226500  0.00581500  1
  P  P1  1  0.85773500  0.82570800  0.49418500  1
  P  P2  1  0.82570800  0.85773500  0.99418500  1
  P  P3  1  0.14226500  0.17429200  0.50581500  1
  P  P4  1  0.87393000  0.88367700  0.17561600  1
  P  P5  1  0.11632300  0.12607100  0.32438400  1
  P  P6  1  0.12607000  0.11632300  0.82438400  1
  P  P7  1  0.88367700  0.87393000  0.67561600  1
  Cl  Cl0  1  0.46301400  0.53698600  0.25000000  1
  Cl  Cl1  1  0.53698600  0.46301400  0.75000000  1
  O  O0  1  0.94726300  0.96322000  0.15306400  1
  O  O1  1  0.03678000  0.05273700  0.34693600  1
  O  O2  1  0.05273700  0.03678000  0.84693600  1
  O  O3  1  0.96322000  0.94726300  0.65306400  1
  O  O4  1  0.07675400  0.14261300  0.94711700  1
  O  O5  1  0.85738700  0.92324600  0.55288300  1
  O  O6  1  0.92324600  0.85738700  0.05288300  1
  O  O7  1  0.14261300  0.07675400  0.44711700  1
  O  O8  1  0.90659100  0.41368300  0.28252300  1
  O  O9  1  0.58631700  0.09340900  0.21747700  1
  O  O10  1  0.09340900  0.58631700  0.71747700  1
  O  O11  1  0.41368300  0.90659100  0.78252300  1
  O  O12  1  0.98258000  0.25593900  0.11107700  1
  O  O13  1  0.74406100  0.01742000  0.38892300  1
  O  O14  1  0.01742000  0.74406100  0.88892300  1
  O  O15  1  0.25593900  0.98258000  0.61107700  1
  O  O16  1  0.45705400  0.85968400  0.02448200  1
  O  O17  1  0.14031600  0.54294600  0.47551800  1
  O  O18  1  0.54294600  0.14031600  0.97551800  1
  O  O19  1  0.85968400  0.45705400  0.52448200  1
  O  O20  1  0.05345900  0.61686700  0.24305100  1
  O  O21  1  0.38313300  0.94654100  0.25694900  1
  O  O22  1  0.94654100  0.38313300  0.75694900  1
  O  O23  1  0.61686700  0.05345900  0.74305100  1
  O  O24  1  0.85792100  0.68081300  0.07153400  1
  O  O25  1  0.31918700  0.14207900  0.42846600  1
  O  O26  1  0.14207900  0.31918700  0.92846600  1
  O  O27  1  0.68081300  0.85792100  0.57153400  1
loop_
_geom_bond_atom_site_label_1
_geom_bond_atom_site_label_2
_geom_bond_distance
_geom_bond_site_symmetry_2
Cs0 O0 3.243613 1_545
Cs0 O2 3.243613 1_564
Cs0 O6 3.276569 1_455
Cs0 O4 3.276569 1_654
Cs0 O0 3.313267 1_455
Cs0 O2 3.313267 1_654
Cs0 O4 3.552590 1_564
Cs0 O6 3.552590 1_545
Cs0 O11 3.605212 1_554
Cs0 O9 3.605212 1_555
Cs0 O16 3.756521 1_555
Cs0 O18 3.756521 1_554
Cs1 O3 3.243613 1_455
Cs1 O1 3.243613 1_655
Cs1 O5 3.276569 1_545
Cs1 O7 3.276569 1_565
Cs1 O3 3.313267 1_545
Cs1 O1 3.313267 1_565
Cs1 O7 3.552590 1_655
Cs1 O5 3.552590 1_455
Cs1 O8 3.605212 1_555
Cs1 O10 3.605212 1_555
Cs1 O19 3.756521 1_555
Cs1 O17 3.756521 1_555
Na0 O9 2.399886 1_555
Na0 O24 2.426102 1_455
Na0 O18 2.508027 1_554
Na0 O20 2.533528 1_555
Na0 O21 2.551324 1_545
Na0 O8 2.647265 1_455
Na1 O8 2.399886 1_555
Na1 O25 2.426102 1_565
Na1 O19 2.508027 1_555
Na1 O21 2.533528 1_555
Na1 O20 2.551324 1_655
Na1 O9 2.647265 1_565
Na2 O11 2.399886 1_555
Na2 O26 2.426102 1_655
Na2 O16 2.508027 1_556
Na2 O22 2.533528 1_555
Na2 O23 2.551324 1_565
Na2 O10 2.647265 1_655
Na3 O10 2.399886 1_555
Na3 O27 2.426102 1_545
Na3 O17 2.508027 1_555
Na3 O23 2.533528 1_555
Na3 O22 2.551324 1_455
Na3 O11 2.647265 1_545
Mn0 O24 2.129129 1_555
Mn0 O16 2.152608 1_555
Mn0 O8 2.213116 1_555
Mn0 O21 2.218726 1_555
Mn0 O12 2.230272 1_555
Mn1 O25 2.129129 1_555
Mn1 O17 2.152608 1_555
Mn1 O9 2.213116 1_555
Mn1 O20 2.218726 1_555
Mn1 O13 2.230272 1_555
Mn2 O26 2.129129 1_555
Mn2 O18 2.152608 1_555
Mn2 O10 2.213116 1_555
Mn2 O23 2.218726 1_555
Mn2 O14 2.230272 1_555
Mn3 O27 2.129129 1_555
Mn3 O19 2.152608 1_555
Mn3 O11 2.213116 1_555
Mn3 O22 2.218726 1_555
Mn3 O15 2.230272 1_555
Mn4 O1 2.031407 1_655
Mn4 O0 2.031407 1_545
Mn4 O12 2.416610 1_555
Mn4 O13 2.416610 1_555
Mn5 O2 2.031407 1_565
Mn5 O3 2.031407 1_455
Mn5 O15 2.416610 1_555
Mn5 O14 2.416610 1_555
Cl0 Mn4 2.557441 1_555
Cl0 Mn4 2.792473 1_465
Cl0 Mn0 3.049188 1_555
Cl0 Mn1 3.049188 1_555
Cl0 Cs0 3.523776 1_555
Cl0 Cs1 3.523776 1_555
Cl1 Mn5 2.557441 1_555
Cl1 Mn5 2.792473 1_645
Cl1 Mn2 3.049188 1_555
Cl1 Mn3 3.049188 1_555
Cl1 Cs1 3.523776 1_555
Cl1 Cs0 3.523776 1_556
O0 P4 1.526451 1_555
O1 P5 1.526462 1_555
O2 P6 1.526451 1_555
O3 P7 1.526451 1_555
O4 P6 1.636154 1_555
O4 P0 1.636828 1_556
O5 P7 1.636154 1_555
O5 P1 1.636828 1_555
O6 P4 1.636154 1_555
O6 P2 1.636828 1_554
O7 P5 1.636150 1_555
O7 P3 1.636828 1_555
O8 P5 1.533972 1_655
O9 P4 1.533978 1_545
O10 P7 1.533978 1_455
O11 P6 1.533978 1_565
O12 P0 1.543900 1_655
O13 P1 1.543900 1_545
O14 P2 1.543900 1_455
O15 P3 1.543900 1_565
O16 P0 1.535076 1_565
O17 P1 1.535076 1_455
O18 P2 1.535076 1_545
O19 P3 1.535076 1_655
O20 P4 1.537349 1_455
O21 P5 1.537348 1_565
O22 P6 1.537349 1_655
O23 P7 1.537349 1_545
O24 P2 1.523865 1_554
O25 P3 1.523865 1_555
O26 P0 1.523865 1_556
O27 P1 1.523865 1_555
