# generated using pymatgen
data_Mn2Co2SiGe
_symmetry_space_group_name_H-M   'P 1'
_cell_length_a   3.71341500
_cell_length_b   5.77090300
_cell_length_c   6.95952400
_cell_angle_alpha   90.00000000
_cell_angle_beta   90.00000000
_cell_angle_gamma   90.00000000
_symmetry_Int_Tables_number   1
_chemical_formula_structural   Mn2Co2SiGe
_chemical_formula_sum   'Mn4 Co4 Si2 Ge2'
_cell_volume   149.14091347
_cell_formula_units_Z   2
loop_
 _symmetry_equiv_pos_site_id
 _symmetry_equiv_pos_as_xyz
  1  'x, y, z'
loop_
 _atom_site_type_symbol
 _atom_site_label
 _atom_site_symmetry_multiplicity
 _atom_site_fract_x
 _atom_site_fract_y
 _atom_site_fract_z
 _atom_site_occupancy
  Mn  Mn0  1  0.50000000  0.46753900  0.06744800  1
  Mn  Mn1  1  0.50000000  0.96753900  0.93255200  1
  Mn  Mn2  1  0.00000000  0.52276200  0.44085900  1
  Mn  Mn3  1  0.00000000  0.02276200  0.55914100  1
  Co  Co0  1  0.50000000  0.34814900  0.68215500  1
  Co  Co1  1  0.50000000  0.84814900  0.31784500  1
  Co  Co2  1  0.00000000  0.66525000  0.80255900  1
  Co  Co3  1  0.00000000  0.16525000  0.19744100  1
  Si  Si0  1  0.50000000  0.73379400  0.62640500  1
  Si  Si1  1  0.50000000  0.23379400  0.37359500  1
  Ge  Ge0  1  0.00000000  0.26250500  0.86997200  1
  Ge  Ge1  1  0.00000000  0.76250500  0.13002800  1
loop_
_geom_bond_atom_site_label_1
_geom_bond_atom_site_label_2
_geom_bond_distance
_geom_bond_site_symmetry_2
Mn0 Si1 2.521745 1_555
Mn1 Si0 2.521745 1_555
Mn2 Si1 2.539176 1_555
Mn2 Si1 2.539176 1_455
Mn2 Si0 2.568656 1_455
Mn2 Si0 2.568656 1_555
Mn3 Si0 2.539176 1_545
Mn3 Si0 2.539176 1_445
Mn3 Si1 2.568656 1_555
Mn3 Si1 2.568656 1_455
Co0 Si1 2.246546 1_555
Co0 Si0 2.259088 1_555
Co0 Ge0 2.323832 1_555
Co0 Ge0 2.323832 1_655
Co0 Mn2 2.698673 1_555
Co0 Mn2 2.698673 1_655
Co0 Co2 2.738299 1_655
Co0 Co2 2.738299 1_555
Co0 Mn0 2.768557 1_556
Co0 Mn3 2.776031 1_555
Co0 Mn3 2.776031 1_655
Co0 Mn1 2.803794 1_545
Co1 Si0 2.246546 1_555
Co1 Si1 2.259088 1_565
Co1 Ge1 2.323832 1_655
Co1 Ge1 2.323832 1_555
Co1 Mn3 2.698673 1_565
Co1 Mn3 2.698673 1_665
Co1 Co3 2.738299 1_565
Co1 Co3 2.738299 1_665
Co1 Mn1 2.768557 1_554
Co1 Mn2 2.776031 1_555
Co1 Mn2 2.776031 1_655
Co1 Mn0 2.803794 1_555
Co2 Si0 2.259818 1_455
Co2 Si0 2.259818 1_555
Co2 Ge1 2.347120 1_556
Co2 Ge0 2.371082 1_555
Co2 Mn2 2.648159 1_555
Co2 Mn3 2.669559 1_565
Co2 Mn1 2.703523 1_455
Co2 Mn1 2.703523 1_555
Co2 Mn0 2.854413 1_456
Co2 Mn0 2.854413 1_556
Co3 Si1 2.259818 1_555
Co3 Si1 2.259818 1_455
Co3 Ge0 2.347120 1_554
Co3 Ge1 2.371082 1_545
Co3 Mn3 2.648159 1_555
Co3 Mn2 2.669559 1_555
Co3 Mn0 2.703523 1_455
Co3 Mn0 2.703523 1_555
Co3 Mn1 2.854413 1_544
Co3 Mn1 2.854413 1_444
Ge0 Mn1 2.556286 1_445
Ge0 Mn1 2.556286 1_545
Ge0 Mn3 2.567831 1_555
Ge0 Mn0 2.595420 1_456
Ge0 Mn0 2.595420 1_556
Ge1 Mn0 2.556286 1_455
Ge1 Mn0 2.556286 1_555
Ge1 Mn2 2.567831 1_555
Ge1 Mn1 2.595420 1_554
Ge1 Mn1 2.595420 1_454
