# generated using pymatgen
data_FeRe(PbO3)2
_symmetry_space_group_name_H-M   'P 1'
_cell_length_a   5.69164800
_cell_length_b   5.69164800
_cell_length_c   5.68562489
_cell_angle_alpha   59.96493890
_cell_angle_beta   59.96493890
_cell_angle_gamma   90.00000000
_symmetry_Int_Tables_number   1
_chemical_formula_structural   FeRe(PbO3)2
_chemical_formula_sum   'Fe1 Re1 Pb2 O6'
_cell_volume   130.10030473
_cell_formula_units_Z   1
loop_
 _symmetry_equiv_pos_site_id
 _symmetry_equiv_pos_as_xyz
  1  'x, y, z'
loop_
 _atom_site_type_symbol
 _atom_site_label
 _atom_site_symmetry_multiplicity
 _atom_site_fract_x
 _atom_site_fract_y
 _atom_site_fract_z
 _atom_site_occupancy
  Fe  Fe0  1  0.50715800  0.50715800  0.98568400  1
  Re  Re0  1  0.00447000  0.00447000  0.99106000  1
  Pb  Pb0  1  0.26928900  0.76928900  0.46142200  1
  Pb  Pb1  1  0.76928900  0.26928900  0.46142200  1
  O  O0  1  0.24742600  0.23987800  0.00200900  1
  O  O1  1  0.75056500  0.75811300  0.00200900  1
  O  O2  1  0.75811300  0.24742600  0.00200900  1
  O  O3  1  0.23987800  0.75056500  0.00200900  1
  O  O4  1  0.75856000  0.75856000  0.48287900  1
  O  O5  1  0.24725200  0.24725200  0.50549600  1
loop_
_geom_bond_atom_site_label_1
_geom_bond_atom_site_label_2
_geom_bond_distance
_geom_bond_site_symmetry_2
Fe0 O4 2.019305 1_555
Fe0 O0 2.056582 1_556
Fe0 O3 2.056582 1_556
Fe0 O2 2.056582 1_556
Fe0 O1 2.056582 1_556
Fe0 O5 2.087606 1_556
O0 Re0 1.970016 1_554
O0 Pb0 2.708143 1_545
O0 Pb1 2.752918 1_455
O1 Re0 1.970016 1_664
O1 Pb0 2.708143 1_555
O1 Pb1 2.752918 1_555
O2 Re0 1.970016 1_654
O2 Pb1 2.708144 1_555
O2 Pb0 2.752917 1_545
O3 Re0 1.970016 1_564
O3 Pb1 2.708143 1_455
O3 Pb0 2.752918 1_555
O4 Re0 1.975184 1_664
O5 Re0 1.950063 1_555
