# generated using pymatgen
data_Sr3Nb2ZnO9
_symmetry_space_group_name_H-M   'P 1'
_cell_length_a   5.75176422
_cell_length_b   5.75176422
_cell_length_c   7.05875000
_cell_angle_alpha   90.00000000
_cell_angle_beta   90.00000000
_cell_angle_gamma   120.00000258
_symmetry_Int_Tables_number   1
_chemical_formula_structural   Sr3Nb2ZnO9
_chemical_formula_sum   'Sr3 Nb2 Zn1 O9'
_cell_volume   202.23698010
_cell_formula_units_Z   1
loop_
 _symmetry_equiv_pos_site_id
 _symmetry_equiv_pos_as_xyz
  1  'x, y, z'
loop_
 _atom_site_type_symbol
 _atom_site_label
 _atom_site_symmetry_multiplicity
 _atom_site_fract_x
 _atom_site_fract_y
 _atom_site_fract_z
 _atom_site_occupancy
  Sr  Sr0  1  0.00000000  0.00000000  0.50000000  1
  Sr  Sr1  1  0.66666700  0.33333300  0.83517600  1
  Sr  Sr2  1  0.33333300  0.66666700  0.16482400  1
  Nb  Nb0  1  0.66666700  0.33333300  0.32042400  1
  Nb  Nb1  1  0.33333300  0.66666700  0.67957600  1
  Zn  Zn0  1  0.00000000  0.00000000  0.00000000  1
  O  O0  1  0.66055800  0.83027900  0.82855400  1
  O  O1  1  0.33944200  0.16972100  0.17144600  1
  O  O2  1  0.00000000  0.50000000  0.50000000  1
  O  O3  1  0.50000000  0.00000000  0.50000000  1
  O  O4  1  0.16972100  0.33944200  0.82855400  1
  O  O5  1  0.83027900  0.66055800  0.17144600  1
  O  O6  1  0.50000000  0.50000000  0.50000000  1
  O  O7  1  0.16972100  0.83027900  0.82855400  1
  O  O8  1  0.83027900  0.16972100  0.17144600  1
loop_
_geom_bond_atom_site_label_1
_geom_bond_atom_site_label_2
_geom_bond_distance
_geom_bond_site_symmetry_2
Nb0 O8 1.939749 1_555
Nb0 O1 1.939754 1_555
Nb0 O5 1.939754 1_555
Nb0 O3 2.088937 1_555
Nb0 O2 2.088937 1_655
Nb0 O6 2.088941 1_555
Nb1 O7 1.939749 1_555
Nb1 O0 1.939754 1_555
Nb1 O4 1.939754 1_555
Nb1 O2 2.088937 1_555
Nb1 O3 2.088937 1_565
Nb1 O6 2.088941 1_555
O0 Zn0 2.079289 1_666
O0 Sr0 2.870099 1_665
O0 Sr1 2.876420 1_565
O0 Sr1 2.876426 1_555
O0 Sr2 2.879406 1_556
O1 Zn0 2.079289 1_555
O1 Sr0 2.870099 1_555
O1 Sr2 2.876420 1_545
O1 Sr2 2.876426 1_555
O1 Sr1 2.879406 1_554
O2 Sr0 2.875882 1_555
O2 Sr0 2.875882 1_565
O2 Sr1 2.890413 1_455
O2 Sr2 2.890413 1_555
O3 Sr0 2.875882 1_655
O3 Sr0 2.875882 1_555
O3 Sr1 2.890413 1_555
O3 Sr2 2.890413 1_545
O4 Zn0 2.079289 1_556
O4 Sr0 2.870099 1_555
O4 Sr1 2.876420 1_455
O4 Sr1 2.876426 1_555
O4 Sr2 2.879406 1_556
O5 Zn0 2.079289 1_665
O5 Sr0 2.870099 1_665
O5 Sr2 2.876420 1_655
O5 Sr2 2.876426 1_555
O5 Sr1 2.879406 1_554
O6 Sr0 2.875882 1_555
O6 Sr0 2.875882 1_665
O6 Sr1 2.890416 1_555
O6 Sr2 2.890416 1_555
O7 Zn0 2.079289 1_566
O7 Sr0 2.870099 1_565
O7 Sr1 2.876423 1_455
O7 Sr1 2.876423 1_565
O7 Sr2 2.879403 1_556
O8 Zn0 2.079289 1_655
O8 Sr0 2.870099 1_655
O8 Sr2 2.876423 1_545
O8 Sr2 2.876423 1_655
O8 Sr1 2.879403 1_554
