# generated using pymatgen
data_Yb3Fe3S8
_symmetry_space_group_name_H-M   'P 1'
_cell_length_a   7.61503245
_cell_length_b   7.61503245
_cell_length_c   7.61503209
_cell_angle_alpha   58.29457115
_cell_angle_beta   58.29457115
_cell_angle_gamma   58.29457544
_symmetry_Int_Tables_number   1
_chemical_formula_structural   Yb3Fe3S8
_chemical_formula_sum   'Yb3 Fe3 S8'
_cell_volume   300.05270337
_cell_formula_units_Z   1
loop_
 _symmetry_equiv_pos_site_id
 _symmetry_equiv_pos_as_xyz
  1  'x, y, z'
loop_
 _atom_site_type_symbol
 _atom_site_label
 _atom_site_symmetry_multiplicity
 _atom_site_fract_x
 _atom_site_fract_y
 _atom_site_fract_z
 _atom_site_occupancy
  Yb  Yb0  1  0.00000000  0.50000000  0.50000000  1
  Yb  Yb1  1  0.50000000  0.50000000  0.00000000  1
  Yb  Yb2  1  0.50000000  0.00000000  0.50000000  1
  Fe  Fe0  1  0.12944100  0.12944100  0.12944100  1
  Fe  Fe1  1  0.87055900  0.87055900  0.87055900  1
  Fe  Fe2  1  0.50000000  0.50000000  0.50000000  1
  S  S0  1  0.24486300  0.24486300  0.24486300  1
  S  S1  1  0.74777600  0.27023100  0.27023100  1
  S  S2  1  0.27023100  0.27023100  0.74777600  1
  S  S3  1  0.27023100  0.74777600  0.27023100  1
  S  S4  1  0.75513700  0.75513700  0.75513700  1
  S  S5  1  0.25222400  0.72976900  0.72976900  1
  S  S6  1  0.72976900  0.72976900  0.25222400  1
  S  S7  1  0.72976900  0.25222400  0.72976900  1
loop_
_geom_bond_atom_site_label_1
_geom_bond_atom_site_label_2
_geom_bond_distance
_geom_bond_site_symmetry_2
Fe0 S0 2.180293 1_555
Fe0 S2 2.324584 1_554
Fe0 S3 2.324584 1_545
Fe0 S1 2.324584 1_455
Fe1 S4 2.180293 1_555
Fe1 S6 2.324584 1_556
Fe1 S7 2.324584 1_565
Fe1 S5 2.324584 1_655
Fe2 S2 2.441458 1_555
Fe2 S6 2.441458 1_555
Fe2 S5 2.441458 1_555
Fe2 S3 2.441458 1_555
Fe2 S7 2.441458 1_555
Fe2 S1 2.441458 1_555
S0 Yb1 2.716300 1_555
S0 Yb0 2.716300 1_555
S0 Yb2 2.716300 1_555
S1 Yb2 2.771763 1_555
S1 Yb1 2.771763 1_555
S2 Yb2 2.771763 1_555
S2 Yb0 2.771763 1_555
S3 Yb0 2.771763 1_555
S3 Yb1 2.771763 1_555
S4 Yb1 2.716300 1_556
S4 Yb0 2.716300 1_655
S4 Yb2 2.716300 1_565
S5 Yb2 2.771763 1_565
S5 Yb1 2.771763 1_556
S6 Yb0 2.771763 1_655
S6 Yb2 2.771763 1_565
S7 Yb0 2.771763 1_655
S7 Yb1 2.771763 1_556
