# generated using pymatgen
data_Sr18Fe6Ru3O34
_symmetry_space_group_name_H-M   'P 1'
_cell_length_a   3.92026292
_cell_length_b   11.76925780
_cell_length_c   20.84772853
_cell_angle_alpha   106.24083429
_cell_angle_beta   106.25774302
_cell_angle_gamma   90.02912490
_symmetry_Int_Tables_number   1
_chemical_formula_structural   Sr18Fe6Ru3O34
_chemical_formula_sum   'Sr18 Fe6 Ru3 O34'
_cell_volume   883.32490116
_cell_formula_units_Z   1
loop_
 _symmetry_equiv_pos_site_id
 _symmetry_equiv_pos_as_xyz
  1  'x, y, z'
loop_
 _atom_site_type_symbol
 _atom_site_label
 _atom_site_symmetry_multiplicity
 _atom_site_fract_x
 _atom_site_fract_y
 _atom_site_fract_z
 _atom_site_occupancy
  Sr  Sr0  1  0.35245200  0.10850200  0.90108300  1
  Sr  Sr1  1  0.35499000  0.45746800  0.90256500  1
  Sr  Sr2  1  0.34920100  0.78147100  0.89706600  1
  Sr  Sr3  1  0.35831800  0.12973100  0.57189900  1
  Sr  Sr4  1  0.36214400  0.45224300  0.57351200  1
  Sr  Sr5  1  0.35863700  0.77703400  0.57003400  1
  Sr  Sr6  1  0.64136300  0.22296600  0.76330000  1
  Sr  Sr7  1  0.64168200  0.87026900  0.76143500  1
  Sr  Sr8  1  0.63785600  0.54775700  0.75982200  1
  Sr  Sr9  1  0.34933100  0.11485500  0.23121200  1
  Sr  Sr10  1  0.35628900  0.44318000  0.23652400  1
  Sr  Sr11  1  0.35685200  0.79308700  0.23783500  1
  Sr  Sr12  1  0.65079900  0.21852900  0.43626700  1
  Sr  Sr13  1  0.64754800  0.89149800  0.43225000  1
  Sr  Sr14  1  0.64501000  0.54253200  0.43076800  1
  Sr  Sr15  1  0.64314800  0.20691300  0.09549800  1
  Sr  Sr16  1  0.64371100  0.55682000  0.09680900  1
  Sr  Sr17  1  0.65066900  0.88514500  0.10212100  1
  Fe  Fe0  1  0.00086600  0.33563500  0.66777700  1
  Fe  Fe1  1  0.99886000  0.00135900  0.99881800  1
  Fe  Fe2  1  0.99913400  0.66436500  0.66555700  1
  Fe  Fe3  1  0.00028400  0.33551200  0.33355600  1
  Fe  Fe4  1  0.00114000  0.99864100  0.33451500  1
  Fe  Fe5  1  0.99971600  0.66448800  0.99977700  1
  Ru  Ru0  1  0.00000000  0.00000000  0.66666700  1
  Ru  Ru1  1  0.99895200  0.66668300  0.33266300  1
  Ru  Ru2  1  0.00104800  0.33331700  0.00067000  1
  O  O0  1  0.15770000  0.05122000  0.77374800  1
  O  O1  1  0.16571200  0.38441700  0.77861900  1
  O  O2  1  0.15929900  0.72437700  0.77331900  1
  O  O3  1  0.99614200  0.49734600  0.33103300  1
  O  O4  1  0.00003900  0.83516700  0.33346000  1
  O  O5  1  0.15611300  0.06290200  0.43885900  1
  O  O6  1  0.15503600  0.37198700  0.43718800  1
  O  O7  1  0.15536900  0.71809600  0.43741100  1
  O  O8  1  0.50167800  0.33249300  0.66823600  1
  O  O9  1  0.49832200  0.66750700  0.66509800  1
  O  O10  1  0.50000000  0.00000000  0.66666700  1
  O  O11  1  0.15534100  0.03627100  0.10326100  1
  O  O12  1  0.16005300  0.38315700  0.10747400  1
  O  O13  1  0.15965200  0.73260900  0.10781000  1
  O  O14  1  0.84463100  0.28190400  0.89592200  1
  O  O15  1  0.84496400  0.62801300  0.89614500  1
  O  O16  1  0.84388700  0.93709800  0.89447400  1
  O  O17  1  0.49713300  0.30640900  0.33130700  1
  O  O18  1  0.49781300  0.66631500  0.33191300  1
  O  O19  1  0.49957800  0.02523200  0.33361400  1
  O  O20  1  0.84070100  0.27562300  0.56001400  1
  O  O21  1  0.83428800  0.61558300  0.55471400  1
  O  O22  1  0.84230000  0.94878000  0.55958500  1
  O  O23  1  0.00198900  0.16564800  0.66821700  1
  O  O24  1  0.00000000  0.50000000  0.66666700  1
  O  O25  1  0.99801100  0.83435200  0.66511700  1
  O  O26  1  0.50042200  0.97476800  0.99971900  1
  O  O27  1  0.50218700  0.33368500  0.00142000  1
  O  O28  1  0.50286700  0.69359100  0.00202600  1
  O  O29  1  0.84034800  0.26739100  0.22552400  1
  O  O30  1  0.83994700  0.61684200  0.22586000  1
  O  O31  1  0.84465900  0.96372900  0.23007300  1
  O  O32  1  0.99996100  0.16483300  0.99987300  1
  O  O33  1  0.00385800  0.50265400  0.00230000  1
loop_
_geom_bond_atom_site_label_1
_geom_bond_atom_site_label_2
_geom_bond_distance
_geom_bond_site_symmetry_2
Fe0 O24 1.941047 1_555
Fe0 O8 1.960029 1_455
Fe0 O8 1.961075 1_555
Fe0 O23 2.003207 1_555
Fe0 O20 2.064588 1_455
Fe0 O1 2.123312 1_555
Fe1 O32 1.917921 1_555
Fe1 O26 1.984858 1_545
Fe1 O26 1.986879 1_645
Fe1 O16 2.003117 1_545
Fe1 O11 2.009386 1_656
Fe2 O24 1.941047 1_655
Fe2 O9 1.960029 1_655
Fe2 O9 1.961075 1_555
Fe2 O25 2.003207 1_555
Fe2 O2 2.064569 1_655
Fe2 O21 2.123331 1_555
Fe3 O3 1.919993 1_455
Fe3 O17 1.987149 1_455
Fe3 O17 1.989017 1_555
Fe3 O6 1.991765 1_555
Fe3 O29 2.075381 1_455
Fe4 O4 1.917921 1_555
Fe4 O19 1.984858 1_565
Fe4 O19 1.986879 1_465
Fe4 O5 2.003117 1_565
Fe4 O31 2.009366 1_455
Fe5 O33 1.919993 1_656
Fe5 O28 1.987149 1_656
Fe5 O28 1.989017 1_556
Fe5 O15 1.991765 1_555
Fe5 O13 2.075399 1_656
O0 Ru0 2.050198 1_555
O0 Sr0 2.438882 1_555
O0 Sr7 2.844759 1_445
O0 Sr7 2.858715 1_545
O0 Sr6 2.863905 1_555
O0 Sr6 2.869502 1_455
O1 Sr1 2.376955 1_555
O1 Sr6 2.680899 1_555
O1 Sr6 2.688316 1_455
O1 Sr8 2.845870 1_555
O1 Sr8 2.846519 1_455
O2 Sr2 2.369768 1_555
O2 Sr7 2.661340 1_555
O2 Sr7 2.662187 1_455
O2 Sr8 2.809292 1_555
O2 Sr8 2.815189 1_455
O3 Ru1 1.983707 1_555
O3 Sr10 2.666277 1_555
O3 Sr10 2.671661 1_655
O3 Sr14 2.736006 1_555
O3 Sr14 2.737765 1_655
O4 Ru1 1.978341 1_455
O4 Sr11 2.680681 1_555
O4 Sr11 2.685011 1_455
O4 Sr13 2.724244 1_455
O4 Sr13 2.726184 1_555
O5 Sr3 2.547126 1_555
O5 Sr12 2.688687 1_555
O5 Sr12 2.698344 1_455
O5 Sr13 2.783879 1_445
O5 Sr13 2.792346 1_545
O6 Sr4 2.614243 1_555
O6 Sr12 2.654178 1_555
O6 Sr12 2.669372 1_455
O6 Sr14 2.833124 1_555
O6 Sr14 2.837071 1_455
O7 Ru1 2.005414 1_455
O7 Sr5 2.540432 1_555
O7 Sr14 2.822407 1_555
O7 Sr14 2.823501 1_455
O7 Sr13 2.852089 1_555
O7 Sr13 2.854254 1_455
O8 Sr6 2.590631 1_555
O8 Sr3 2.594234 1_555
O8 Sr8 2.659206 1_555
O8 Sr4 2.671708 1_555
O9 Sr5 2.590631 1_555
O9 Sr7 2.594234 1_555
O9 Sr4 2.659206 1_555
O9 Sr8 2.671708 1_555
O10 Ru0 1.960131 1_655
O10 Ru0 1.960131 1_555
O10 Sr7 2.759867 1_545
O10 Sr3 2.759867 1_555
O10 Sr6 2.769142 1_555
O10 Sr5 2.769142 1_545
O11 Sr9 2.456155 1_555
O11 Sr17 2.634480 1_545
O11 Sr17 2.650440 1_445
O11 Sr15 2.840385 1_555
O11 Sr15 2.845228 1_455
O12 Ru2 2.045092 1_555
O12 Sr10 2.471153 1_555
O12 Sr15 2.809621 1_455
O12 Sr15 2.816144 1_555
O12 Sr16 2.882406 1_555
O12 Sr16 2.886290 1_455
O13 Sr11 2.489811 1_555
O13 Sr17 2.680606 1_555
O13 Sr17 2.684880 1_455
O13 Sr16 2.809730 1_455
O13 Sr16 2.813587 1_555
O14 Ru2 2.005414 1_656
O14 Sr6 2.540413 1_555
O14 Sr1 2.822407 1_555
O14 Sr1 2.823501 1_655
O14 Sr0 2.852089 1_555
O14 Sr0 2.854254 1_655
O15 Sr8 2.614224 1_555
O15 Sr2 2.654178 1_555
O15 Sr2 2.669372 1_655
O15 Sr1 2.833124 1_555
O15 Sr1 2.837071 1_655
O16 Sr7 2.547107 1_555
O16 Sr2 2.688687 1_555
O16 Sr2 2.698344 1_655
O16 Sr0 2.783879 1_665
O16 Sr0 2.792346 1_565
O17 Sr9 2.542248 1_555
O17 Sr12 2.597930 1_555
O17 Sr10 2.823078 1_555
O17 Sr14 2.908704 1_555
O18 Ru1 1.960098 1_455
O18 Ru1 1.960270 1_555
O18 Sr11 2.721954 1_555
O18 Sr10 2.760193 1_555
O18 Sr14 2.777956 1_555
O18 Sr13 2.820273 1_555
O19 Sr9 2.563832 1_555
O19 Sr12 2.582993 1_555
O19 Sr11 2.843638 1_545
O19 Sr13 2.861074 1_545
O20 Sr12 2.369768 1_555
O20 Sr3 2.661350 1_555
O20 Sr3 2.662188 1_655
O20 Sr4 2.809294 1_555
O20 Sr4 2.815183 1_655
O21 Sr14 2.376955 1_555
O21 Sr5 2.680901 1_555
O21 Sr5 2.688310 1_655
O21 Sr4 2.845881 1_555
O21 Sr4 2.846522 1_655
O22 Ru0 2.050218 1_665
O22 Sr13 2.438882 1_555
O22 Sr3 2.844752 1_665
O22 Sr3 2.858717 1_565
O22 Sr5 2.863915 1_555
O22 Sr5 2.869504 1_655
O23 Ru0 1.940740 1_555
O23 Sr6 2.671212 1_555
O23 Sr6 2.684260 1_455
O23 Sr3 2.694164 1_555
O23 Sr3 2.695404 1_455
O24 Sr8 2.647501 1_555
O24 Sr4 2.647501 1_455
O24 Sr4 2.652757 1_555
O24 Sr8 2.652757 1_455
O25 Ru0 1.940740 1_665
O25 Sr5 2.671212 1_555
O25 Sr5 2.684260 1_655
O25 Sr7 2.694164 1_555
O25 Sr7 2.695404 1_655
O26 Sr17 2.563832 1_556
O26 Sr2 2.582993 1_555
O26 Sr15 2.843638 1_566
O26 Sr0 2.861074 1_565
O27 Ru2 1.960098 1_655
O27 Ru2 1.960270 1_555
O27 Sr15 2.721954 1_555
O27 Sr16 2.760193 1_555
O27 Sr1 2.777956 1_554
O27 Sr0 2.820273 1_554
O28 Sr17 2.542248 1_555
O28 Sr2 2.597930 1_554
O28 Sr16 2.823078 1_555
O28 Sr1 2.908704 1_554
O29 Sr15 2.489830 1_555
O29 Sr9 2.680597 1_555
O29 Sr9 2.684879 1_655
O29 Sr10 2.809737 1_655
O29 Sr10 2.813585 1_555
O30 Ru1 2.045073 1_555
O30 Sr16 2.471172 1_555
O30 Sr11 2.809636 1_655
O30 Sr11 2.816151 1_555
O30 Sr10 2.882388 1_555
O30 Sr10 2.886280 1_655
O31 Sr17 2.456174 1_555
O31 Sr9 2.634479 1_565
O31 Sr9 2.650448 1_665
O31 Sr11 2.840375 1_555
O31 Sr11 2.845226 1_655
O32 Ru2 1.978341 1_656
O32 Sr15 2.680681 1_556
O32 Sr15 2.685011 1_656
O32 Sr0 2.724244 1_655
O32 Sr0 2.726184 1_555
O33 Ru2 1.983707 1_555
O33 Sr16 2.666277 1_555
O33 Sr16 2.671661 1_455
O33 Sr1 2.736006 1_554
O33 Sr1 2.737765 1_454
