# generated using pymatgen
data_Zn2CrN2
_symmetry_space_group_name_H-M   'P 1'
_cell_length_a   5.54253006
_cell_length_b   5.54253006
_cell_length_c   6.18525344
_cell_angle_alpha   61.50315083
_cell_angle_beta   61.50315083
_cell_angle_gamma   48.91236419
_symmetry_Int_Tables_number   1
_chemical_formula_structural   Zn2CrN2
_chemical_formula_sum   'Zn4 Cr2 N4'
_cell_volume   121.96300770
_cell_formula_units_Z   2
loop_
 _symmetry_equiv_pos_site_id
 _symmetry_equiv_pos_as_xyz
  1  'x, y, z'
loop_
 _atom_site_type_symbol
 _atom_site_label
 _atom_site_symmetry_multiplicity
 _atom_site_fract_x
 _atom_site_fract_y
 _atom_site_fract_z
 _atom_site_occupancy
  Zn  Zn0  1  0.70667900  0.70667900  0.75073600  1
  Zn  Zn1  1  0.29332100  0.29332100  0.24926400  1
  Zn  Zn2  1  0.06015800  0.06015800  0.18953500  1
  Zn  Zn3  1  0.93984200  0.93984200  0.81046500  1
  Cr  Cr0  1  0.35708400  0.35708400  0.65447000  1
  Cr  Cr1  1  0.64291600  0.64291600  0.34553000  1
  N  N0  1  0.15677100  0.15677100  0.78319900  1
  N  N1  1  0.84322900  0.84322900  0.21680100  1
  N  N2  1  0.53010200  0.53010200  0.69031400  1
  N  N3  1  0.46989800  0.46989800  0.30968600  1
loop_
_geom_bond_atom_site_label_1
_geom_bond_atom_site_label_2
_geom_bond_distance
_geom_bond_site_symmetry_2
Cr0 N0 1.741375 1_555
Cr0 N3 1.816291 1_555
Cr0 N2 1.871588 1_555
Cr1 N1 1.741375 1_555
Cr1 N2 1.816291 1_555
Cr1 N3 1.871588 1_555
N0 Zn3 2.105430 1_445
N0 Zn2 2.167624 1_556
N0 Zn0 2.335183 1_455
N0 Zn0 2.335183 1_545
N1 Zn2 2.105430 1_665
N1 Zn3 2.167624 1_554
N1 Zn1 2.335183 1_655
N1 Zn1 2.335183 1_565
N2 Zn0 2.003079 1_555
N2 Zn3 2.436682 1_455
N2 Zn3 2.436682 1_545
N3 Zn1 2.003079 1_555
N3 Zn2 2.436682 1_565
N3 Zn2 2.436682 1_655
