# generated using pymatgen
data_BaSr2UO6
_symmetry_space_group_name_H-M   'P 1'
_cell_length_a   6.31874100
_cell_length_b   6.18981146
_cell_length_c   8.84791714
_cell_angle_alpha   89.78031648
_cell_angle_beta   90.00000000
_cell_angle_gamma   90.00000000
_symmetry_Int_Tables_number   1
_chemical_formula_structural   BaSr2UO6
_chemical_formula_sum   'Ba2 Sr4 U2 O12'
_cell_volume   346.05555854
_cell_formula_units_Z   2
loop_
 _symmetry_equiv_pos_site_id
 _symmetry_equiv_pos_as_xyz
  1  'x, y, z'
loop_
 _atom_site_type_symbol
 _atom_site_label
 _atom_site_symmetry_multiplicity
 _atom_site_fract_x
 _atom_site_fract_y
 _atom_site_fract_z
 _atom_site_occupancy
  Ba  Ba0  1  0.53850400  0.50679400  0.24926100  1
  Ba  Ba1  1  0.96149600  0.00679400  0.74926100  1
  Sr  Sr0  1  0.50801300  0.00074400  0.49995300  1
  Sr  Sr1  1  0.99198700  0.50074400  0.99995300  1
  Sr  Sr2  1  0.45091300  0.49613400  0.74777300  1
  Sr  Sr3  1  0.04908700  0.99613400  0.24777300  1
  U  U0  1  0.49499400  0.99958700  0.99919000  1
  U  U1  1  0.00500600  0.49958700  0.49919000  1
  O  O0  1  0.28417000  0.67378400  0.45439600  1
  O  O1  1  0.21583000  0.17378400  0.95439600  1
  O  O2  1  0.72218900  0.33577600  0.55828500  1
  O  O3  1  0.77781100  0.83577600  0.05828500  1
  O  O4  1  0.18676000  0.22420900  0.54244000  1
  O  O5  1  0.31324000  0.72420900  0.04244000  1
  O  O6  1  0.83795100  0.78497200  0.44836200  1
  O  O7  1  0.66204900  0.28497200  0.94836200  1
  O  O8  1  0.04813400  0.58396600  0.72767700  1
  O  O9  1  0.45186600  0.08396600  0.22767700  1
  O  O10  1  0.97100200  0.39403500  0.27266400  1
  O  O11  1  0.52899800  0.89403500  0.77266400  1
loop_
_geom_bond_atom_site_label_1
_geom_bond_atom_site_label_2
_geom_bond_distance
_geom_bond_site_symmetry_2
Ba0 O0 2.638135 1_555
Ba0 O5 2.677100 1_555
Ba0 O9 2.681393 1_555
Ba0 O10 2.827957 1_555
Ba0 O3 3.043354 1_555
Ba0 O7 3.100108 1_554
Ba0 O6 3.109916 1_555
Ba0 O2 3.149834 1_555
Ba1 O1 2.638135 1_655
Ba1 O4 2.677100 1_655
Ba1 O8 2.681393 1_645
Ba1 O11 2.827957 1_545
Ba1 O2 3.043354 1_555
Ba1 O6 3.100108 1_545
Ba1 O7 3.109916 1_555
Ba1 O3 3.149834 1_546
O0 U1 2.104279 1_555
O0 Sr0 2.503024 1_565
O0 Sr2 3.005896 1_555
O0 Sr3 3.082522 1_555
O1 U0 2.104279 1_545
O1 Sr1 2.503024 1_455
O1 Sr3 3.005896 1_546
O1 Sr2 3.082522 1_555
O2 U1 2.119192 1_655
O2 Sr0 2.531136 1_555
O2 Sr2 2.597519 1_555
O3 U0 2.119192 1_554
O3 Sr1 2.531136 1_554
O3 Sr3 2.597519 1_655
O4 U1 2.089459 1_555
O4 Sr0 2.485783 1_555
O4 Sr2 2.990499 1_555
O4 Sr3 3.094420 1_545
O5 U0 2.089459 1_554
O5 Sr1 2.485783 1_454
O5 Sr3 2.990499 1_555
O5 Sr2 3.094420 1_554
O6 U1 2.104959 1_655
O6 Sr0 2.518571 1_565
O6 Sr3 2.573005 1_655
O7 U0 2.104959 1_545
O7 Sr1 2.518571 1_555
O7 Sr2 2.573005 1_555
O8 U1 2.107641 1_555
O8 Sr1 2.487037 1_455
O8 Sr2 2.608401 1_555
O9 U0 2.107641 1_544
O9 Sr0 2.487037 1_555
O9 Sr3 2.608401 1_545
O10 U1 2.121373 1_655
O10 Sr1 2.502766 1_554
O10 Sr3 2.522328 1_645
O11 U0 2.121373 1_555
O11 Sr0 2.502766 1_565
O11 Sr2 2.522328 1_555
