# generated using pymatgen
data_Sr7CoN6
_symmetry_space_group_name_H-M   'P 1'
_cell_length_a   11.79455614
_cell_length_b   6.68132718
_cell_length_c   13.73541058
_cell_angle_alpha   90.00000000
_cell_angle_beta   90.00000000
_cell_angle_gamma   90.00000000
_symmetry_Int_Tables_number   1
_chemical_formula_structural   Sr7CoN6
_chemical_formula_sum   'Sr28 Co4 N24'
_cell_volume   1082.39552280
_cell_formula_units_Z   4
loop_
 _symmetry_equiv_pos_site_id
 _symmetry_equiv_pos_as_xyz
  1  'x, y, z'
loop_
 _atom_site_type_symbol
 _atom_site_label
 _atom_site_symmetry_multiplicity
 _atom_site_fract_x
 _atom_site_fract_y
 _atom_site_fract_z
 _atom_site_occupancy
  Sr  Sr0  1  0.03938891  0.73554639  0.97864859  1
  Sr  Sr1  1  0.46061109  0.76445361  0.47864859  1
  Sr  Sr2  1  0.53938891  0.76445361  0.02135141  1
  Sr  Sr3  1  0.96061109  0.73554639  0.52135141  1
  Sr  Sr4  1  0.96061109  0.26445361  0.02135141  1
  Sr  Sr5  1  0.53938891  0.23554639  0.52135141  1
  Sr  Sr6  1  0.46061109  0.23554639  0.97864859  1
  Sr  Sr7  1  0.03938891  0.26445361  0.47864859  1
  Sr  Sr8  1  0.21791333  0.86170445  0.62308736  1
  Sr  Sr9  1  0.28208667  0.63829555  0.12308736  1
  Sr  Sr10  1  0.71791333  0.63829555  0.37691264  1
  Sr  Sr11  1  0.78208667  0.86170445  0.87691264  1
  Sr  Sr12  1  0.78208667  0.13829555  0.37691264  1
  Sr  Sr13  1  0.71791333  0.36170445  0.87691264  1
  Sr  Sr14  1  0.28208667  0.36170445  0.62308736  1
  Sr  Sr15  1  0.21791333  0.13829555  0.12308736  1
  Sr  Sr16  1  0.29565961  0.61406697  0.87065723  1
  Sr  Sr17  1  0.20434039  0.88593303  0.37065723  1
  Sr  Sr18  1  0.79565961  0.88593303  0.12934277  1
  Sr  Sr19  1  0.70434039  0.61406697  0.62934277  1
  Sr  Sr20  1  0.70434039  0.38593303  0.12934277  1
  Sr  Sr21  1  0.79565961  0.11406697  0.62934277  1
  Sr  Sr22  1  0.20434039  0.11406697  0.87065723  1
  Sr  Sr23  1  0.29565961  0.38593303  0.37065723  1
  Sr  Sr24  1  -0.00000000  0.44018343  0.75000000  1
  Sr  Sr25  1  0.50000000  0.05981657  0.25000000  1
  Sr  Sr26  1  -0.00000000  0.55981657  0.25000000  1
  Sr  Sr27  1  0.50000000  0.94018343  0.75000000  1
  Co  Co0  1  -0.00000000  0.92827237  0.75000000  1
  Co  Co1  1  0.50000000  0.57172763  0.25000000  1
  Co  Co2  1  -0.00000000  0.07172763  0.25000000  1
  Co  Co3  1  0.50000000  0.42827237  0.75000000  1
  N  N0  1  0.12046110  0.76763614  0.78884926  1
  N  N1  1  0.37953890  0.73236386  0.28884926  1
  N  N2  1  0.62046110  0.73236386  0.21115074  1
  N  N3  1  0.87953890  0.76763614  0.71115074  1
  N  N4  1  0.87953890  0.23236386  0.21115074  1
  N  N5  1  0.62046110  0.26763614  0.71115074  1
  N  N6  1  0.37953890  0.26763614  0.78884926  1
  N  N7  1  0.12046110  0.23236386  0.28884926  1
  N  N8  1  0.16591973  0.59145846  0.49890121  1
  N  N9  1  0.33408027  0.90854154  0.99890121  1
  N  N10  1  0.66591973  0.90854154  0.50109879  1
  N  N11  1  0.83408027  0.59145846  0.00109879  1
  N  N12  1  0.83408027  0.40854154  0.50109879  1
  N  N13  1  0.66591973  0.09145846  0.00109879  1
  N  N14  1  0.33408027  0.09145846  0.49890121  1
  N  N15  1  0.16591973  0.40854154  0.99890121  1
  N  N16  1  0.46076657  0.58871908  0.64684959  1
  N  N17  1  0.03923343  0.91128092  0.14684959  1
  N  N18  1  0.96076657  0.91128092  0.35315041  1
  N  N19  1  0.53923343  0.58871908  0.85315041  1
  N  N20  1  0.53923343  0.41128092  0.35315041  1
  N  N21  1  0.96076657  0.08871908  0.85315041  1
  N  N22  1  0.03923343  0.08871908  0.64684959  1
  N  N23  1  0.46076657  0.41128092  0.14684959  1
loop_
_geom_bond_atom_site_label_1
_geom_bond_atom_site_label_2
_geom_bond_distance
_geom_bond_site_symmetry_2
Co0 N22 1.835937 1_565
Co0 N21 1.835937 1_465
Co0 N3 1.858834 1_455
Co0 N0 1.858834 1_555
Co1 N23 1.835937 1_555
Co1 N20 1.835937 1_555
Co1 N2 1.858834 1_555
Co1 N1 1.858834 1_555
Co2 N17 1.835937 1_545
Co2 N18 1.835937 1_445
Co2 N4 1.858834 1_455
Co2 N7 1.858834 1_555
Co3 N19 1.835937 1_555
Co3 N16 1.835937 1_555
Co3 N6 1.858834 1_555
Co3 N5 1.858834 1_555
N0 Sr16 2.566195 1_555
N0 Sr8 2.626785 1_555
N0 Sr24 2.662691 1_555
N0 Sr22 2.756598 1_565
N0 Sr0 2.785069 1_555
N1 Sr17 2.566195 1_555
N1 Sr9 2.626785 1_555
N1 Sr25 2.662691 1_565
N1 Sr23 2.756598 1_555
N1 Sr1 2.785069 1_555
N2 Sr18 2.566195 1_555
N2 Sr10 2.626785 1_555
N2 Sr25 2.662691 1_565
N2 Sr20 2.756598 1_555
N2 Sr2 2.785069 1_555
N3 Sr19 2.566195 1_555
N3 Sr11 2.626785 1_555
N3 Sr24 2.662691 1_655
N3 Sr21 2.756598 1_565
N3 Sr3 2.785069 1_555
N4 Sr20 2.566195 1_555
N4 Sr12 2.626785 1_555
N4 Sr26 2.662691 1_655
N4 Sr18 2.756598 1_545
N4 Sr4 2.785069 1_555
N5 Sr21 2.566195 1_555
N5 Sr13 2.626785 1_555
N5 Sr27 2.662691 1_545
N5 Sr19 2.756598 1_555
N5 Sr5 2.785069 1_555
N6 Sr22 2.566195 1_555
N6 Sr14 2.626785 1_555
N6 Sr27 2.662691 1_545
N6 Sr16 2.756598 1_555
N6 Sr6 2.785069 1_555
N7 Sr23 2.566195 1_555
N7 Sr15 2.626785 1_555
N7 Sr26 2.662691 1_555
N7 Sr17 2.756598 1_545
N7 Sr7 2.785069 1_555
N8 Sr8 2.558484 1_555
N8 Sr3 2.624053 1_455
N8 Sr7 2.660457 1_555
N8 Sr14 2.672689 1_555
N8 Sr17 2.679395 1_555
N8 Sr23 2.707405 1_555
N9 Sr9 2.558484 1_556
N9 Sr2 2.624053 1_556
N9 Sr6 2.660457 1_565
N9 Sr15 2.672689 1_566
N9 Sr16 2.679395 1_555
N9 Sr22 2.707405 1_565
N10 Sr10 2.558484 1_555
N10 Sr1 2.624053 1_555
N10 Sr5 2.660457 1_565
N10 Sr12 2.672689 1_565
N10 Sr19 2.679395 1_555
N10 Sr21 2.707405 1_565
N11 Sr11 2.558484 1_554
N11 Sr0 2.624053 1_654
N11 Sr4 2.660457 1_555
N11 Sr13 2.672689 1_554
N11 Sr18 2.679395 1_555
N11 Sr20 2.707405 1_555
N12 Sr12 2.558484 1_555
N12 Sr7 2.624053 1_655
N12 Sr3 2.660457 1_555
N12 Sr10 2.672689 1_555
N12 Sr21 2.679395 1_555
N12 Sr19 2.707405 1_555
N13 Sr13 2.558484 1_554
N13 Sr6 2.624053 1_554
N13 Sr2 2.660457 1_545
N13 Sr11 2.672689 1_544
N13 Sr20 2.679395 1_555
N13 Sr18 2.707405 1_545
N14 Sr14 2.558484 1_555
N14 Sr5 2.624053 1_555
N14 Sr1 2.660457 1_545
N14 Sr8 2.672689 1_545
N14 Sr23 2.679395 1_555
N14 Sr17 2.707405 1_545
N15 Sr15 2.558484 1_556
N15 Sr4 2.624053 1_456
N15 Sr0 2.660457 1_555
N15 Sr9 2.672689 1_556
N15 Sr22 2.679395 1_555
N15 Sr16 2.707405 1_555
N16 Sr1 2.591552 1_555
N16 Sr14 2.616951 1_555
N16 Sr27 2.781323 1_555
N16 Sr19 2.887861 1_555
N16 Sr5 3.065828 1_555
N17 Sr0 2.591552 1_554
N17 Sr15 2.616951 1_565
N17 Sr26 2.781323 1_555
N17 Sr18 2.887861 1_455
N17 Sr4 3.065828 1_465
N18 Sr3 2.591552 1_555
N18 Sr12 2.616951 1_565
N18 Sr26 2.781323 1_655
N18 Sr17 2.887861 1_655
N18 Sr7 3.065828 1_665
N19 Sr2 2.591552 1_556
N19 Sr13 2.616951 1_555
N19 Sr27 2.781323 1_555
N19 Sr16 2.887861 1_555
N19 Sr6 3.065828 1_555
N20 Sr5 2.591552 1_555
N20 Sr10 2.616951 1_555
N20 Sr25 2.781323 1_555
N20 Sr23 2.887861 1_555
N20 Sr1 3.065828 1_555
N21 Sr4 2.591552 1_556
N21 Sr11 2.616951 1_545
N21 Sr24 2.781323 1_655
N21 Sr22 2.887861 1_655
N21 Sr0 3.065828 1_645
N22 Sr7 2.591552 1_555
N22 Sr8 2.616951 1_545
N22 Sr24 2.781323 1_555
N22 Sr21 2.887861 1_455
N22 Sr3 3.065828 1_445
N23 Sr6 2.591552 1_554
N23 Sr9 2.616951 1_555
N23 Sr25 2.781323 1_555
N23 Sr20 2.887861 1_555
N23 Sr2 3.065828 1_555
