# generated using pymatgen
data_LiMg6Mn
_symmetry_space_group_name_H-M   'P 1'
_cell_length_a   4.96566700
_cell_length_b   6.32177300
_cell_length_c   10.73054900
_cell_angle_alpha   90.00000000
_cell_angle_beta   90.00000000
_cell_angle_gamma   90.00000000
_symmetry_Int_Tables_number   1
_chemical_formula_structural   LiMg6Mn
_chemical_formula_sum   'Li2 Mg12 Mn2'
_cell_volume   336.85145807
_cell_formula_units_Z   2
loop_
 _symmetry_equiv_pos_site_id
 _symmetry_equiv_pos_as_xyz
  1  'x, y, z'
loop_
 _atom_site_type_symbol
 _atom_site_label
 _atom_site_symmetry_multiplicity
 _atom_site_fract_x
 _atom_site_fract_y
 _atom_site_fract_z
 _atom_site_occupancy
  Li  Li0  1  0.50000000  0.50000000  0.83420200  1
  Li  Li1  1  0.50000000  0.00000000  0.33420200  1
  Mg  Mg0  1  0.50000000  0.25109700  0.08296000  1
  Mg  Mg1  1  0.50000000  0.74890300  0.08296000  1
  Mg  Mg2  1  0.00000000  0.24660800  0.91345600  1
  Mg  Mg3  1  0.00000000  0.75339200  0.91345600  1
  Mg  Mg4  1  0.00000000  0.50000000  0.17056800  1
  Mg  Mg5  1  0.00000000  0.50000000  0.66834200  1
  Mg  Mg6  1  0.50000000  0.75109700  0.58296000  1
  Mg  Mg7  1  0.50000000  0.24890300  0.58296000  1
  Mg  Mg8  1  0.00000000  0.74660800  0.41345600  1
  Mg  Mg9  1  0.00000000  0.25339200  0.41345600  1
  Mg  Mg10  1  0.00000000  0.00000000  0.67056800  1
  Mg  Mg11  1  0.00000000  0.00000000  0.16834200  1
  Mn  Mn0  1  0.50000000  0.50000000  0.33406100  1
  Mn  Mn1  1  0.50000000  0.00000000  0.83406100  1
loop_
_geom_bond_atom_site_label_1
_geom_bond_atom_site_label_2
_geom_bond_distance
_geom_bond_site_symmetry_2
Li0 Mg5 3.054839 1_555
Li0 Mg5 3.054839 1_655
Li0 Mg3 3.074695 1_655
Li0 Mg2 3.074695 1_655
Li0 Mg3 3.074695 1_555
Li0 Mg2 3.074695 1_555
Li0 Mg0 3.098571 1_556
Li0 Mg1 3.098571 1_556
Li0 Mg6 3.128577 1_555
Li0 Mg7 3.128577 1_555
Li0 Mn1 3.160887 1_565
Li0 Mn1 3.160887 1_555
Li1 Mg11 3.054839 1_555
Li1 Mg11 3.054839 1_655
Li1 Mg9 3.074695 1_655
Li1 Mg9 3.074695 1_555
Li1 Mg8 3.074695 1_545
Li1 Mg8 3.074695 1_645
Li1 Mg7 3.098571 1_555
Li1 Mg6 3.098571 1_545
Li1 Mg0 3.128577 1_555
Li1 Mg1 3.128577 1_545
Li1 Mn0 3.160887 1_555
Li1 Mn0 3.160887 1_545
Mg0 Mg2 3.077915 1_654
Mg0 Mg2 3.077915 1_554
Mg0 Mg11 3.086041 1_555
Mg0 Mg11 3.086041 1_655
Mg0 Mg4 3.086121 1_655
Mg0 Mg4 3.086121 1_555
Mg0 Mn1 3.106938 1_554
Mg0 Mn0 3.120256 1_555
Mg0 Mg1 3.147017 1_555
Mg0 Mg1 3.174756 1_545
Mg1 Mg3 3.077915 1_654
Mg1 Mg3 3.077915 1_554
Mg1 Mg11 3.086041 1_665
Mg1 Mg11 3.086041 1_565
Mg1 Mg4 3.086121 1_655
Mg1 Mg4 3.086121 1_555
Mg1 Mn1 3.106938 1_564
Mg1 Mn0 3.120256 1_555
Mg2 Mn1 3.052993 1_455
Mg2 Mn1 3.052993 1_555
Mg2 Mg5 3.079616 1_555
Mg2 Mg3 3.118000 1_545
Mg2 Mg4 3.190276 1_556
Mg2 Mg3 3.203773 1_555
Mg3 Mn1 3.052993 1_465
Mg3 Mn1 3.052993 1_565
Mg3 Mg5 3.079616 1_555
Mg3 Mg4 3.190276 1_556
Mg4 Mg8 3.037004 1_555
Mg4 Mg9 3.037004 1_555
Mg4 Mn0 3.040111 1_555
Mg4 Mn0 3.040111 1_455
Mg5 Mg6 3.086041 1_555
Mg5 Mg6 3.086041 1_455
Mg5 Mg7 3.086041 1_455
Mg5 Mg7 3.086041 1_555
Mg5 Mg8 3.148185 1_555
Mg5 Mg9 3.148185 1_555
Mg6 Mg8 3.077915 1_555
Mg6 Mg8 3.077915 1_655
Mg6 Mn0 3.106938 1_555
Mg6 Mn1 3.120256 1_565
Mg6 Mg7 3.147017 1_565
Mg6 Mg7 3.174756 1_555
Mg7 Mg9 3.077915 1_555
Mg7 Mg9 3.077915 1_655
Mg7 Mn0 3.106938 1_555
Mg7 Mn1 3.120256 1_555
Mg8 Mn0 3.052993 1_455
Mg8 Mn0 3.052993 1_555
Mg8 Mg9 3.118000 1_555
Mg8 Mg9 3.203773 1_565
Mg9 Mn0 3.052993 1_455
Mg9 Mn0 3.052993 1_555
Mg10 Mg3 3.037004 1_545
Mg10 Mg2 3.037004 1_555
Mg10 Mn1 3.040111 1_455
Mg10 Mn1 3.040111 1_555
Mg10 Mg7 3.086121 1_455
Mg10 Mg7 3.086121 1_555
Mg10 Mg6 3.086121 1_445
Mg10 Mg6 3.086121 1_545
Mg10 Mg5 3.160977 1_545
Mg10 Mg5 3.160977 1_555
Mg10 Mg9 3.190276 1_555
Mg10 Mg8 3.190276 1_545
Mg11 Mg9 3.079616 1_555
Mg11 Mg8 3.079616 1_545
Mg11 Mg2 3.148185 1_554
Mg11 Mg3 3.148185 1_544
Mg11 Mg4 3.160977 1_545
Mg11 Mg4 3.160977 1_555
