# generated using pymatgen
data_Ca2H6Ru
_symmetry_space_group_name_H-M   'P 1'
_cell_length_a   5.08648221
_cell_length_b   5.08648221
_cell_length_c   5.08648221
_cell_angle_alpha   60.00000000
_cell_angle_beta   60.00000000
_cell_angle_gamma   60.00000000
_symmetry_Int_Tables_number   1
_chemical_formula_structural   Ca2H6Ru
_chemical_formula_sum   'Ca2 H6 Ru1'
_cell_volume   93.05454517
_cell_formula_units_Z   1
loop_
 _symmetry_equiv_pos_site_id
 _symmetry_equiv_pos_as_xyz
  1  'x, y, z'
loop_
 _atom_site_type_symbol
 _atom_site_label
 _atom_site_symmetry_multiplicity
 _atom_site_fract_x
 _atom_site_fract_y
 _atom_site_fract_z
 _atom_site_occupancy
  Ca  Ca0  1  0.75000000  0.75000000  0.75000000  1
  Ca  Ca1  1  0.25000000  0.25000000  0.25000000  1
  H  H0  1  0.76290069  0.76290069  0.23709931  1
  H  H1  1  0.23709931  0.76290069  0.23709931  1
  H  H2  1  0.76290069  0.23709931  0.23709931  1
  H  H3  1  0.23709931  0.23709931  0.76290069  1
  H  H4  1  0.76290069  0.23709931  0.76290069  1
  H  H5  1  0.23709931  0.76290069  0.76290069  1
  Ru  Ru0  1  0.00000000  -0.00000000  -0.00000000  1
loop_
_geom_bond_atom_site_label_1
_geom_bond_atom_site_label_2
_geom_bond_distance
_geom_bond_site_symmetry_2
Ca0 H5 2.544934 1_555
Ca0 H0 2.544934 1_555
Ca0 H4 2.544934 1_555
Ca0 H2 2.544934 1_556
Ca0 H1 2.544934 1_556
Ca0 H3 2.544934 1_565
Ca0 H1 2.544934 1_655
Ca0 H3 2.544934 1_655
Ca0 H2 2.544934 1_565
Ca0 H4 2.544934 1_565
Ca0 H0 2.544934 1_556
Ca0 H5 2.544934 1_655
Ca1 H1 2.544934 1_545
Ca1 H2 2.544934 1_455
Ca1 H5 2.544934 1_545
Ca1 H4 2.544934 1_455
Ca1 H0 2.544934 1_455
Ca1 H3 2.544934 1_554
Ca1 H5 2.544934 1_554
Ca1 H3 2.544934 1_555
Ca1 H0 2.544934 1_545
Ca1 H1 2.544934 1_555
Ca1 H2 2.544934 1_555
Ca1 H4 2.544934 1_554
H0 Ru0 1.705544 1_665
H1 Ru0 1.705544 1_565
H2 Ru0 1.705544 1_655
H3 Ru0 1.705544 1_556
H4 Ru0 1.705544 1_656
H5 Ru0 1.705544 1_566
