# generated using pymatgen
data_Sr25Ti39O103
_symmetry_space_group_name_H-M   'P 1'
_cell_length_a   5.64070520
_cell_length_b   19.60359436
_cell_length_c   30.06631399
_cell_angle_alpha   90.00000000
_cell_angle_beta   90.50552208
_cell_angle_gamma   90.00000000
_symmetry_Int_Tables_number   1
_chemical_formula_structural   Sr25Ti39O103
_chemical_formula_sum   'Sr25 Ti39 O103'
_cell_volume   3324.54636690
_cell_formula_units_Z   1
loop_
 _symmetry_equiv_pos_site_id
 _symmetry_equiv_pos_as_xyz
  1  'x, y, z'
loop_
 _atom_site_type_symbol
 _atom_site_label
 _atom_site_symmetry_multiplicity
 _atom_site_fract_x
 _atom_site_fract_y
 _atom_site_fract_z
 _atom_site_occupancy
  Sr  Sr0  1  0.50505493  -0.00000000  0.18997183  1
  Sr  Sr1  1  0.49494507  -0.00000000  0.81002817  1
  Sr  Sr2  1  0.50958240  0.79536379  0.18874152  1
  Sr  Sr3  1  0.50958240  0.20463621  0.18874152  1
  Sr  Sr4  1  0.49041760  0.20463621  0.81125848  1
  Sr  Sr5  1  0.49041760  0.79536379  0.81125848  1
  Sr  Sr6  1  0.49330937  0.59738044  0.19432798  1
  Sr  Sr7  1  0.49330937  0.40261956  0.19432798  1
  Sr  Sr8  1  0.50669063  0.40261956  0.80567202  1
  Sr  Sr9  1  0.50669063  0.59738044  0.80567202  1
  Sr  Sr10  1  0.00091458  -0.00000000  0.09446045  1
  Sr  Sr11  1  0.99908542  -0.00000000  0.90553955  1
  Sr  Sr12  1  0.00228059  0.80338862  0.09182988  1
  Sr  Sr13  1  0.00228059  0.19661138  0.09182988  1
  Sr  Sr14  1  0.99771941  0.19661138  0.90817012  1
  Sr  Sr15  1  0.99771941  0.80338862  0.90817012  1
  Sr  Sr16  1  -0.00013746  0.60090837  0.08922318  1
  Sr  Sr17  1  -0.00013746  0.39909163  0.08922318  1
  Sr  Sr18  1  0.00013746  0.39909163  0.91077682  1
  Sr  Sr19  1  0.00013746  0.60090837  0.91077682  1
  Sr  Sr20  1  0.50000000  -0.00000000  -0.00000000  1
  Sr  Sr21  1  0.50000000  0.80260308  -0.00000000  1
  Sr  Sr22  1  0.50000000  0.19739692  -0.00000000  1
  Sr  Sr23  1  0.50000000  0.60069794  -0.00000000  1
  Sr  Sr24  1  0.50000000  0.39930206  -0.00000000  1
  Ti  Ti0  1  0.34594464  0.91240573  0.28873605  1
  Ti  Ti1  1  0.34594464  0.08759427  0.28873605  1
  Ti  Ti2  1  0.65405536  0.08759427  0.71126395  1
  Ti  Ti3  1  0.65405536  0.91240573  0.71126395  1
  Ti  Ti4  1  0.84691152  0.84420113  0.29506643  1
  Ti  Ti5  1  0.84691152  0.15579887  0.29506643  1
  Ti  Ti6  1  0.15308848  0.15579887  0.70493357  1
  Ti  Ti7  1  0.15308848  0.84420113  0.70493357  1
  Ti  Ti8  1  0.97657903  0.67681629  0.27213304  1
  Ti  Ti9  1  0.97657903  0.32318371  0.27213304  1
  Ti  Ti10  1  0.02342097  0.32318371  0.72786696  1
  Ti  Ti11  1  0.02342097  0.67681629  0.72786696  1
  Ti  Ti12  1  0.98308587  0.50000000  0.27140553  1
  Ti  Ti13  1  0.01691413  0.50000000  0.72859447  1
  Ti  Ti14  1  0.00478679  0.89812118  0.18718882  1
  Ti  Ti15  1  0.00478679  0.10187882  0.18718882  1
  Ti  Ti16  1  0.99521321  0.10187882  0.81281118  1
  Ti  Ti17  1  0.99521321  0.89812118  0.81281118  1
  Ti  Ti18  1  0.01578389  0.69862063  0.17886070  1
  Ti  Ti19  1  0.01578389  0.30137937  0.17886070  1
  Ti  Ti20  1  0.98421611  0.30137937  0.82113930  1
  Ti  Ti21  1  0.98421611  0.69862063  0.82113930  1
  Ti  Ti22  1  0.01136603  0.50000000  0.17702050  1
  Ti  Ti23  1  0.98863397  0.50000000  0.82297950  1
  Ti  Ti24  1  0.49953590  0.90039896  0.09431236  1
  Ti  Ti25  1  0.49953590  0.09960104  0.09431236  1
  Ti  Ti26  1  0.50046310  0.09960104  0.90568764  1
  Ti  Ti27  1  0.50046310  0.90039896  0.90568764  1
  Ti  Ti28  1  0.50356770  0.69900766  0.09201984  1
  Ti  Ti29  1  0.50356770  0.30099234  0.09201984  1
  Ti  Ti30  1  0.49643230  0.30099234  0.90798016  1
  Ti  Ti31  1  0.49643230  0.69900766  0.90798016  1
  Ti  Ti32  1  0.50422139  0.50000000  0.09152263  1
  Ti  Ti33  1  0.49577861  0.50000000  0.90847737  1
  Ti  Ti34  1  -0.00000000  0.90093582  -0.00000000  1
  Ti  Ti35  1  -0.00000000  0.09906418  -0.00000000  1
  Ti  Ti36  1  -0.00000000  0.70232194  -0.00000000  1
  Ti  Ti37  1  -0.00000000  0.29767806  -0.00000000  1
  Ti  Ti38  1  -0.00000000  0.50000000  -0.00000000  1
  O  O0  1  0.46208607  -0.00000000  0.28269985  1
  O  O1  1  0.53791393  -0.00000000  0.71730015  1
  O  O2  1  0.06591320  0.90480553  0.31741697  1
  O  O3  1  0.06591320  0.09519447  0.31741697  1
  O  O4  1  0.93408680  0.09519447  0.68258303  1
  O  O5  1  0.93408680  0.90480553  0.68258303  1
  O  O6  1  0.55310944  0.85597420  0.31828025  1
  O  O7  1  0.55310944  0.14402580  0.31828025  1
  O  O8  1  0.44689056  0.14402580  0.68171975  1
  O  O9  1  0.44689056  0.85597420  0.68171975  1
  O  O10  1  0.94598335  0.75608329  0.30472806  1
  O  O11  1  0.94598335  0.24391671  0.30472806  1
  O  O12  1  0.05401665  0.24391671  0.69527194  1
  O  O13  1  0.05401665  0.75608329  0.69527194  1
  O  O14  1  0.96508867  0.58811948  0.29571323  1
  O  O15  1  0.96508867  0.41188052  0.29571323  1
  O  O16  1  0.03491133  0.41188052  0.70428677  1
  O  O17  1  0.03491133  0.58811948  0.70428677  1
  O  O18  1  0.28609635  0.88987595  0.23078118  1
  O  O19  1  0.28609635  0.11012405  0.23078118  1
  O  O20  1  0.71390365  0.11012405  0.76921882  1
  O  O21  1  0.71390365  0.88987595  0.76921882  1
  O  O22  1  0.79189480  0.87252525  0.23737419  1
  O  O23  1  0.79189480  0.12747475  0.23737419  1
  O  O24  1  0.20810520  0.12747475  0.76262581  1
  O  O25  1  0.20810520  0.87252525  0.76262581  1
  O  O26  1  0.22534887  0.68798657  0.23519410  1
  O  O27  1  0.22534887  0.31201343  0.23519410  1
  O  O28  1  0.77465113  0.31201343  0.76480590  1
  O  O29  1  0.77465113  0.68798657  0.76480590  1
  O  O30  1  0.76121673  0.69037735  0.22651642  1
  O  O31  1  0.76121673  0.30962265  0.22651642  1
  O  O32  1  0.23878327  0.30962265  0.77348358  1
  O  O33  1  0.23878327  0.69037735  0.77348358  1
  O  O34  1  0.23071814  0.50000000  0.23370842  1
  O  O35  1  0.76928186  0.50000000  0.76629158  1
  O  O36  1  0.76383053  0.50000000  0.22602693  1
  O  O37  1  0.23616947  0.50000000  0.77397307  1
  O  O38  1  0.99229064  -0.00000000  0.19287634  1
  O  O39  1  0.00770936  -0.00000000  0.80712366  1
  O  O40  1  0.02949885  0.79681124  0.17815418  1
  O  O41  1  0.02949885  0.20318876  0.17815418  1
  O  O42  1  0.97050115  0.20318876  0.82184582  1
  O  O43  1  0.97050115  0.79681124  0.82184582  1
  O  O44  1  0.01470679  0.59792090  0.17482540  1
  O  O45  1  0.01470679  0.40207910  0.17482540  1
  O  O46  1  0.98529321  0.40207910  0.82517460  1
  O  O47  1  0.98529321  0.59792090  0.82517460  1
  O  O48  1  0.24551253  0.90683514  0.13977506  1
  O  O49  1  0.24551253  0.09316486  0.13977506  1
  O  O50  1  0.75448747  0.09316486  0.86022494  1
  O  O51  1  0.75448747  0.90683514  0.86022494  1
  O  O52  1  0.74449957  0.90139666  0.14509913  1
  O  O53  1  0.74449957  0.09860334  0.14509913  1
  O  O54  1  0.25550043  0.09860334  0.85490087  1
  O  O55  1  0.25550043  0.90139666  0.85490087  1
  O  O56  1  0.30737891  0.69578549  0.14463078  1
  O  O57  1  0.30737891  0.30421451  0.14463078  1
  O  O58  1  0.69262109  0.30421451  0.85536922  1
  O  O59  1  0.69262109  0.69578549  0.85536922  1
  O  O60  1  0.79047024  0.70123994  0.13137534  1
  O  O61  1  0.79047024  0.29876006  0.13137534  1
  O  O62  1  0.20952976  0.29876006  0.86862466  1
  O  O63  1  0.20952976  0.70123994  0.86862466  1
  O  O64  1  0.30889620  0.50000000  0.14340380  1
  O  O65  1  0.69110380  0.50000000  0.85659620  1
  O  O66  1  0.78883552  0.50000000  0.12955384  1
  O  O67  1  0.21116448  0.50000000  0.87044616  1
  O  O68  1  0.51529141  -0.00000000  0.09279902  1
  O  O69  1  0.48470859  -0.00000000  0.90720098  1
  O  O70  1  0.49865002  0.80214263  0.09526983  1
  O  O71  1  0.49865002  0.19785737  0.09526983  1
  O  O72  1  0.50134998  0.19785737  0.90473017  1
  O  O73  1  0.50134998  0.80214263  0.90473017  1
  O  O74  1  0.50787355  0.60080391  0.08834292  1
  O  O75  1  0.50787355  0.39919609  0.08834292  1
  O  O76  1  0.49212645  0.39919609  0.91165708  1
  O  O77  1  0.49212645  0.60080391  0.91165708  1
  O  O78  1  0.25957368  0.90126788  0.04575474  1
  O  O79  1  0.25957368  0.09873212  0.04575474  1
  O  O80  1  0.74042632  0.09873212  0.95424526  1
  O  O81  1  0.74042632  0.90126788  0.95424526  1
  O  O82  1  0.76076913  0.89976620  0.04879982  1
  O  O83  1  0.76076913  0.10023380  0.04879982  1
  O  O84  1  0.23923087  0.10023380  0.95120018  1
  O  O85  1  0.23923087  0.89976620  0.95120018  1
  O  O86  1  0.22649052  0.70333320  0.05141757  1
  O  O87  1  0.22649052  0.29666680  0.05141757  1
  O  O88  1  0.77350948  0.29666680  0.94858243  1
  O  O89  1  0.77350948  0.70333320  0.94858243  1
  O  O90  1  0.72654078  0.70380308  0.04087820  1
  O  O91  1  0.72654078  0.29619692  0.04087820  1
  O  O92  1  0.27345922  0.29619692  0.95912180  1
  O  O93  1  0.27345922  0.70380308  0.95912180  1
  O  O94  1  0.22690625  0.50000000  0.05064506  1
  O  O95  1  0.77309375  0.50000000  0.94935494  1
  O  O96  1  0.73003676  0.50000000  0.04023304  1
  O  O97  1  0.26996324  0.50000000  0.95976696  1
  O  O98  1  -0.00000000  -0.00000000  -0.00000000  1
  O  O99  1  -0.00000000  0.80203786  -0.00000000  1
  O  O100  1  -0.00000000  0.19796214  -0.00000000  1
  O  O101  1  -0.00000000  0.60197474  -0.00000000  1
  O  O102  1  -0.00000000  0.39802526  -0.00000000  1
loop_
_geom_bond_atom_site_label_1
_geom_bond_atom_site_label_2
_geom_bond_distance
_geom_bond_site_symmetry_2
O0 Ti0 1.847394 1_545
O0 Ti1 1.847394 1_555
O0 Sr0 2.800635 1_555
O1 Ti3 1.847394 1_545
O1 Ti2 1.847394 1_555
O1 Sr1 2.800635 1_555
O2 Ti0 1.812430 1_555
O2 Ti4 1.836969 1_455
O3 Ti1 1.812430 1_555
O3 Ti5 1.836969 1_455
O4 Ti2 1.812430 1_555
O4 Ti6 1.836969 1_655
O5 Ti3 1.812430 1_555
O5 Ti7 1.836969 1_655
O6 Ti4 1.818598 1_555
O6 Ti0 1.833049 1_555
O7 Ti5 1.818598 1_555
O7 Ti1 1.833049 1_555
O8 Ti6 1.818598 1_555
O8 Ti2 1.833049 1_555
O9 Ti7 1.818598 1_555
O9 Ti3 1.833049 1_555
O10 Ti4 1.837884 1_555
O10 Ti8 1.846037 1_555
O11 Ti5 1.837884 1_555
O11 Ti9 1.846037 1_555
O12 Ti6 1.837884 1_555
O12 Ti10 1.846037 1_555
O13 Ti7 1.837884 1_555
O13 Ti11 1.846037 1_555
O14 Ti12 1.878792 1_555
O14 Ti8 1.879093 1_555
O15 Ti12 1.878792 1_555
O15 Ti9 1.879093 1_555
O16 Ti13 1.878792 1_555
O16 Ti10 1.879093 1_555
O17 Ti13 1.878792 1_555
O17 Ti11 1.879093 1_555
O18 Ti0 1.826177 1_555
O18 Ti14 2.055516 1_555
O18 Sr2 2.578314 1_555
O18 Sr0 2.778164 1_565
O19 Ti1 1.826177 1_555
O19 Ti15 2.055516 1_555
O19 Sr3 2.578314 1_555
O19 Sr0 2.778164 1_555
O20 Ti2 1.826177 1_555
O20 Ti16 2.055516 1_555
O20 Sr4 2.578314 1_555
O20 Sr1 2.778164 1_555
O21 Ti3 1.826177 1_555
O21 Ti17 2.055516 1_555
O21 Sr5 2.578314 1_555
O21 Sr1 2.778164 1_565
O22 Ti4 1.844974 1_555
O22 Ti14 2.000640 1_655
O22 Sr2 2.630762 1_555
O23 Ti5 1.844974 1_555
O23 Ti15 2.000640 1_655
O23 Sr3 2.630762 1_555
O24 Ti6 1.844974 1_555
O24 Ti16 2.000640 1_455
O24 Sr4 2.630762 1_555
O25 Ti7 1.844974 1_555
O25 Ti17 2.000640 1_455
O25 Sr5 2.630762 1_555
O26 Ti8 1.810524 1_455
O26 Ti18 2.067419 1_555
O26 Sr6 2.642339 1_555
O26 Sr2 2.998600 1_555
O27 Ti9 1.810524 1_455
O27 Ti19 2.067419 1_555
O27 Sr7 2.642339 1_555
O27 Sr3 2.998600 1_555
O28 Ti10 1.810524 1_655
O28 Ti20 2.067419 1_555
O28 Sr8 2.642339 1_555
O28 Sr4 2.998600 1_555
O29 Ti11 1.810524 1_655
O29 Ti21 2.067419 1_555
O29 Sr9 2.642339 1_555
O29 Sr5 2.998600 1_555
O30 Ti8 1.843388 1_555
O30 Ti18 2.043856 1_655
O30 Sr6 2.553055 1_555
O30 Sr2 2.740801 1_555
O31 Ti9 1.843388 1_555
O31 Ti19 2.043856 1_655
O31 Sr7 2.553055 1_555
O31 Sr3 2.740801 1_555
O32 Ti10 1.843388 1_555
O32 Ti20 2.043856 1_455
O32 Sr8 2.553055 1_555
O32 Sr4 2.740801 1_555
O33 Ti11 1.843388 1_555
O33 Ti21 2.043856 1_455
O33 Sr9 2.553055 1_555
O33 Sr5 2.740801 1_555
O34 Ti12 1.806563 1_455
O34 Ti22 2.097300 1_555
O34 Sr7 2.696501 1_555
O34 Sr6 2.696501 1_555
O35 Ti13 1.806563 1_655
O35 Ti23 2.097300 1_555
O35 Sr9 2.696501 1_555
O35 Sr8 2.696501 1_555
O36 Ti12 1.833381 1_555
O36 Ti22 2.038853 1_655
O36 Sr7 2.618291 1_555
O36 Sr6 2.618291 1_555
O37 Ti13 1.833381 1_555
O37 Ti23 2.038853 1_455
O37 Sr9 2.618291 1_555
O37 Sr8 2.618291 1_555
O38 Ti15 2.005790 1_655
O38 Ti14 2.005790 1_645
O38 Sr0 2.748970 1_555
O38 Sr0 2.894440 1_655
O38 Sr10 2.959832 1_655
O39 Ti16 2.005790 1_455
O39 Ti17 2.005790 1_445
O39 Sr1 2.748970 1_555
O39 Sr1 2.894440 1_455
O39 Sr11 2.959832 1_455
O40 Ti18 1.926568 1_555
O40 Ti14 2.009536 1_555
O40 Sr12 2.601835 1_555
O40 Sr2 2.724012 1_555
O40 Sr2 2.952848 1_455
O41 Ti19 1.926568 1_555
O41 Ti15 2.009536 1_555
O41 Sr13 2.601835 1_555
O41 Sr3 2.724012 1_555
O41 Sr3 2.952848 1_455
O42 Ti20 1.926568 1_555
O42 Ti16 2.009536 1_555
O42 Sr14 2.601835 1_555
O42 Sr4 2.724012 1_555
O42 Sr4 2.952848 1_655
O43 Ti21 1.926568 1_555
O43 Ti17 2.009536 1_555
O43 Sr15 2.601835 1_555
O43 Sr5 2.724012 1_555
O43 Sr5 2.952848 1_655
O44 Ti22 1.920834 1_555
O44 Ti18 1.977808 1_555
O44 Sr16 2.575032 1_555
O44 Sr6 2.757563 1_555
O44 Sr6 3.004021 1_455
O45 Ti22 1.920834 1_555
O45 Ti19 1.977808 1_555
O45 Sr17 2.575032 1_555
O45 Sr7 2.757563 1_555
O45 Sr7 3.004021 1_455
O46 Ti23 1.920834 1_555
O46 Ti20 1.977808 1_555
O46 Sr18 2.575032 1_655
O46 Sr8 2.757563 1_555
O46 Sr8 3.004021 1_655
O47 Ti23 1.920834 1_555
O47 Ti21 1.977808 1_555
O47 Sr19 2.575032 1_655
O47 Sr9 2.757563 1_555
O47 Sr9 3.004021 1_655
O48 Ti14 1.984778 1_555
O48 Ti24 1.992989 1_555
O48 Sr10 2.657495 1_565
O48 Sr0 2.778076 1_565
O48 Sr12 2.835133 1_555
O48 Sr2 3.020397 1_555
O49 Ti15 1.984778 1_555
O49 Ti25 1.992989 1_555
O49 Sr10 2.657495 1_555
O49 Sr0 2.778076 1_555
O49 Sr13 2.835133 1_555
O49 Sr3 3.020397 1_555
O50 Ti16 1.984778 1_555
O50 Ti26 1.992993 1_555
O50 Sr11 2.657495 1_555
O50 Sr1 2.778076 1_555
O50 Sr14 2.835133 1_555
O50 Sr4 3.020397 1_555
O51 Ti17 1.984778 1_555
O51 Ti27 1.992993 1_555
O51 Sr11 2.657495 1_565
O51 Sr1 2.778076 1_565
O51 Sr15 2.835133 1_555
O51 Sr5 3.020397 1_555
O52 Ti14 1.930907 1_655
O52 Ti24 2.050384 1_555
O52 Sr0 2.722684 1_565
O52 Sr2 2.798040 1_555
O52 Sr10 2.860995 1_665
O52 Sr12 2.900343 1_655
O53 Ti15 1.930907 1_655
O53 Ti25 2.050384 1_555
O53 Sr0 2.722684 1_555
O53 Sr3 2.798040 1_555
O53 Sr10 2.860995 1_655
O53 Sr13 2.900343 1_655
O54 Ti16 1.930907 1_455
O54 Ti26 2.050380 1_555
O54 Sr1 2.722684 1_555
O54 Sr4 2.798040 1_555
O54 Sr11 2.860995 1_455
O54 Sr14 2.900343 1_455
O55 Ti17 1.930907 1_455
O55 Ti27 2.050380 1_555
O55 Sr1 2.722684 1_565
O55 Sr5 2.798040 1_555
O55 Sr11 2.860995 1_465
O55 Sr15 2.900343 1_455
O56 Ti28 1.939506 1_555
O56 Ti18 1.948722 1_555
O56 Sr2 2.616067 1_555
O56 Sr6 2.650727 1_555
O56 Sr16 3.031907 1_555
O56 Sr12 3.143784 1_555
O57 Ti29 1.939506 1_555
O57 Ti19 1.948722 1_555
O57 Sr3 2.616067 1_555
O57 Sr7 2.650727 1_555
O57 Sr17 3.031907 1_555
O57 Sr13 3.143784 1_555
O58 Ti30 1.939506 1_555
O58 Ti20 1.948722 1_555
O58 Sr4 2.616067 1_555
O58 Sr8 2.650727 1_555
O58 Sr18 3.031907 1_655
O58 Sr14 3.143784 1_555
O59 Ti31 1.939506 1_555
O59 Ti21 1.948722 1_555
O59 Sr5 2.616067 1_555
O59 Sr9 2.650727 1_555
O59 Sr19 3.031907 1_655
O59 Sr15 3.143784 1_555
O60 Ti18 1.903741 1_655
O60 Ti28 1.996814 1_555
O60 Sr12 2.622239 1_655
O60 Sr16 2.626061 1_655
O60 Sr2 2.989665 1_555
O60 Sr6 3.254768 1_555
O61 Ti19 1.903741 1_655
O61 Ti29 1.996814 1_555
O61 Sr13 2.622239 1_655
O61 Sr17 2.626061 1_655
O61 Sr3 2.989665 1_555
O61 Sr7 3.254768 1_555
O62 Ti20 1.903741 1_455
O62 Ti30 1.996814 1_555
O62 Sr14 2.622239 1_455
O62 Sr18 2.626061 1_555
O62 Sr4 2.989665 1_555
O62 Sr8 3.254768 1_555
O63 Ti21 1.903741 1_455
O63 Ti31 1.996814 1_555
O63 Sr15 2.622239 1_455
O63 Sr19 2.626061 1_555
O63 Sr5 2.989665 1_555
O63 Sr9 3.254768 1_555
O64 Ti32 1.917665 1_555
O64 Ti22 1.966757 1_555
O64 Sr6 2.653777 1_555
O64 Sr7 2.653777 1_555
O64 Sr16 3.091173 1_555
O64 Sr17 3.091173 1_555
O65 Ti33 1.917665 1_555
O65 Ti23 1.966757 1_555
O65 Sr8 2.653777 1_555
O65 Sr9 2.653777 1_555
O65 Sr19 3.091173 1_655
O65 Sr18 3.091173 1_655
O66 Ti22 1.892284 1_655
O66 Ti32 1.962776 1_555
O66 Sr16 2.612644 1_655
O66 Sr17 2.612644 1_655
O66 Sr7 3.205189 1_555
O66 Sr6 3.205189 1_555
O67 Ti23 1.892284 1_455
O67 Ti33 1.962776 1_555
O67 Sr19 2.612644 1_555
O67 Sr18 2.612644 1_555
O67 Sr9 3.205189 1_555
O67 Sr8 3.205189 1_555
O68 Ti25 1.955108 1_555
O68 Ti24 1.955108 1_545
O68 Sr10 2.739272 1_655
O68 Sr20 2.790697 1_555
O68 Sr10 2.902319 1_555
O68 Sr0 2.922708 1_555
O69 Ti26 1.955107 1_555
O69 Ti27 1.955107 1_545
O69 Sr11 2.739272 1_455
O69 Sr20 2.790697 1_556
O69 Sr11 2.902319 1_555
O69 Sr1 2.922708 1_555
O70 Ti24 1.926399 1_555
O70 Ti28 2.024378 1_555
O70 Sr12 2.800978 1_555
O70 Sr2 2.813622 1_555
O70 Sr12 2.843730 1_655
O70 Sr21 2.864504 1_555
O71 Ti25 1.926399 1_555
O71 Ti29 2.024378 1_555
O71 Sr13 2.800978 1_555
O71 Sr3 2.813622 1_555
O71 Sr13 2.843730 1_655
O71 Sr22 2.864504 1_555
O72 Ti26 1.926400 1_555
O72 Ti30 2.024378 1_555
O72 Sr14 2.800978 1_555
O72 Sr4 2.813622 1_555
O72 Sr14 2.843730 1_455
O72 Sr22 2.864504 1_556
O73 Ti27 1.926400 1_555
O73 Ti31 2.024378 1_555
O73 Sr15 2.800978 1_555
O73 Sr5 2.813622 1_555
O73 Sr15 2.843730 1_455
O73 Sr21 2.864504 1_556
O74 Ti28 1.928483 1_555
O74 Ti32 1.978546 1_555
O74 Sr23 2.656126 1_555
O74 Sr16 2.775058 1_655
O74 Sr16 2.865897 1_555
O74 Sr6 3.189070 1_555
O75 Ti29 1.928483 1_555
O75 Ti32 1.978546 1_555
O75 Sr24 2.656126 1_555
O75 Sr17 2.775058 1_655
O75 Sr17 2.865897 1_555
O75 Sr7 3.189070 1_555
O76 Ti30 1.928483 1_555
O76 Ti33 1.978546 1_555
O76 Sr24 2.656126 1_556
O76 Sr18 2.775058 1_555
O76 Sr18 2.865897 1_655
O76 Sr8 3.189070 1_555
O77 Ti31 1.928483 1_555
O77 Ti33 1.978546 1_555
O77 Sr23 2.656126 1_556
O77 Sr19 2.775058 1_555
O77 Sr19 2.865897 1_655
O77 Sr9 3.189070 1_555
O78 Ti24 1.982167 1_555
O78 Ti34 2.000201 1_555
O78 Sr21 2.739651 1_555
O78 Sr20 2.740582 1_565
O78 Sr12 2.782555 1_555
O78 Sr10 2.838501 1_565
O79 Ti25 1.982167 1_555
O79 Ti35 2.000201 1_555
O79 Sr22 2.739651 1_555
O79 Sr20 2.740582 1_555
O79 Sr13 2.782555 1_555
O79 Sr10 2.838501 1_555
O80 Ti26 1.982170 1_555
O80 Ti35 2.000201 1_656
O80 Sr22 2.739651 1_556
O80 Sr20 2.740582 1_556
O80 Sr14 2.782555 1_555
O80 Sr11 2.838501 1_555
O81 Ti27 1.982170 1_555
O81 Ti34 2.000201 1_656
O81 Sr21 2.739651 1_556
O81 Sr20 2.740582 1_566
O81 Sr15 2.782555 1_555
O81 Sr11 2.838501 1_565
O82 Ti34 2.002297 1_655
O82 Ti24 2.019791 1_555
O82 Sr12 2.658605 1_655
O82 Sr10 2.747327 1_665
O82 Sr21 2.811824 1_555
O82 Sr20 2.852945 1_565
O83 Ti35 2.002297 1_655
O83 Ti25 2.019791 1_555
O83 Sr13 2.658605 1_655
O83 Sr10 2.747327 1_655
O83 Sr22 2.811824 1_555
O83 Sr20 2.852945 1_555
O84 Ti35 2.002297 1_556
O84 Ti26 2.019787 1_555
O84 Sr14 2.658605 1_455
O84 Sr11 2.747327 1_455
O84 Sr22 2.811824 1_556
O84 Sr20 2.852945 1_556
O85 Ti34 2.002297 1_556
O85 Ti27 2.019787 1_555
O85 Sr15 2.658605 1_455
O85 Sr11 2.747327 1_465
O85 Sr21 2.811824 1_556
O85 Sr20 2.852945 1_566
O86 Ti28 1.976479 1_555
O86 Ti36 1.996907 1_555
O86 Sr12 2.636324 1_555
O86 Sr16 2.642626 1_555
O86 Sr21 2.932455 1_555
O86 Sr23 2.976646 1_555
O87 Ti29 1.976479 1_555
O87 Ti37 1.996907 1_555
O87 Sr13 2.636324 1_555
O87 Sr17 2.642626 1_555
O87 Sr22 2.932455 1_555
O87 Sr24 2.976646 1_555
O88 Ti30 1.976479 1_555
O88 Ti37 1.996907 1_656
O88 Sr14 2.636324 1_555
O88 Sr18 2.642626 1_655
O88 Sr22 2.932455 1_556
O88 Sr24 2.976646 1_556
O89 Ti31 1.976479 1_555
O89 Ti36 1.996907 1_656
O89 Sr15 2.636324 1_555
O89 Sr19 2.642626 1_655
O89 Sr21 2.932455 1_556
O89 Sr23 2.976646 1_556
O90 Ti36 1.980957 1_655
O90 Ti28 1.997292 1_555
O90 Sr21 2.620515 1_555
O90 Sr23 2.683495 1_555
O90 Sr16 2.918719 1_655
O90 Sr12 2.921498 1_655
O91 Ti37 1.980957 1_655
O91 Ti29 1.997292 1_555
O91 Sr22 2.620515 1_555
O91 Sr24 2.683495 1_555
O91 Sr17 2.918719 1_655
O91 Sr13 2.921498 1_655
O92 Ti37 1.980957 1_556
O92 Ti30 1.997292 1_555
O92 Sr22 2.620515 1_556
O92 Sr24 2.683495 1_556
O92 Sr18 2.918719 1_555
O92 Sr14 2.921498 1_455
O93 Ti36 1.980957 1_556
O93 Ti31 1.997292 1_555
O93 Sr21 2.620515 1_556
O93 Sr23 2.683495 1_556
O93 Sr19 2.918719 1_555
O93 Sr15 2.921498 1_455
O94 Ti38 1.980512 1_555
O94 Ti32 1.980782 1_555
O94 Sr16 2.631518 1_555
O94 Sr17 2.631518 1_555
O94 Sr24 2.937658 1_555
O94 Sr23 2.937658 1_555
O95 Ti38 1.980512 1_656
O95 Ti33 1.980782 1_555
O95 Sr19 2.631518 1_655
O95 Sr18 2.631518 1_655
O95 Sr23 2.937658 1_556
O95 Sr24 2.937658 1_556
O96 Ti38 1.953112 1_655
O96 Ti32 2.008770 1_555
O96 Sr23 2.648793 1_555
O96 Sr24 2.648793 1_555
O96 Sr16 2.891312 1_655
O96 Sr17 2.891312 1_655
O97 Ti38 1.953112 1_556
O97 Ti33 2.008770 1_555
O97 Sr23 2.648793 1_556
O97 Sr24 2.648793 1_556
O97 Sr19 2.891312 1_555
O97 Sr18 2.891312 1_555
O98 Ti34 1.942014 1_545
O98 Ti35 1.942014 1_555
O98 Sr20 2.820353 1_455
O98 Sr20 2.820353 1_555
O98 Sr10 2.840037 1_555
O98 Sr11 2.840037 1_454
O99 Ti34 1.938755 1_555
O99 Ti36 1.954790 1_555
O99 Sr12 2.761029 1_555
O99 Sr15 2.761029 1_454
O99 Sr21 2.820374 1_555
O99 Sr21 2.820374 1_455
O100 Ti35 1.938755 1_555
O100 Ti37 1.954790 1_555
O100 Sr13 2.761029 1_555
O100 Sr14 2.761029 1_454
O100 Sr22 2.820374 1_455
O100 Sr22 2.820374 1_555
O101 Ti36 1.967166 1_555
O101 Ti38 1.999071 1_555
O101 Sr19 2.682701 1_554
O101 Sr16 2.682701 1_555
O101 Sr23 2.820464 1_555
O101 Sr23 2.820464 1_455
O102 Ti37 1.967166 1_555
O102 Ti38 1.999071 1_555
O102 Sr18 2.682701 1_554
O102 Sr17 2.682701 1_555
O102 Sr24 2.820464 1_555
O102 Sr24 2.820464 1_455
