# generated using pymatgen
data_RbNa8(GaP2)3
_symmetry_space_group_name_H-M   'P 1'
_cell_length_a   4.74266619
_cell_length_b   16.48672918
_cell_length_c   22.45069488
_cell_angle_alpha   90.00000000
_cell_angle_beta   90.00000000
_cell_angle_gamma   90.00000000
_symmetry_Int_Tables_number   1
_chemical_formula_structural   RbNa8(GaP2)3
_chemical_formula_sum   'Rb4 Na32 Ga12 P24'
_cell_volume   1755.44347472
_cell_formula_units_Z   4
loop_
 _symmetry_equiv_pos_site_id
 _symmetry_equiv_pos_as_xyz
  1  'x, y, z'
loop_
 _atom_site_type_symbol
 _atom_site_label
 _atom_site_symmetry_multiplicity
 _atom_site_fract_x
 _atom_site_fract_y
 _atom_site_fract_z
 _atom_site_occupancy
  Rb  Rb0  1  0.25000000  0.80803752  0.50048913  1
  Rb  Rb1  1  0.25000000  0.69196248  0.00048913  1
  Rb  Rb2  1  0.75000000  0.19196248  0.49951087  1
  Rb  Rb3  1  0.75000000  0.30803752  0.99951087  1
  Na  Na0  1  0.25000000  0.03253055  0.55199664  1
  Na  Na1  1  0.25000000  0.46746945  0.05199664  1
  Na  Na2  1  0.75000000  0.96746945  0.44800336  1
  Na  Na3  1  0.75000000  0.53253055  0.94800336  1
  Na  Na4  1  0.25000000  0.35095722  0.55664346  1
  Na  Na5  1  0.25000000  0.14904278  0.05664346  1
  Na  Na6  1  0.75000000  0.64904278  0.44335654  1
  Na  Na7  1  0.75000000  0.85095722  0.94335654  1
  Na  Na8  1  0.25000000  0.92206924  0.68089578  1
  Na  Na9  1  0.25000000  0.57793076  0.18089578  1
  Na  Na10  1  0.75000000  0.07793076  0.31910422  1
  Na  Na11  1  0.75000000  0.42206924  0.81910422  1
  Na  Na12  1  0.25000000  0.69267456  0.68086475  1
  Na  Na13  1  0.25000000  0.80732544  0.18086475  1
  Na  Na14  1  0.75000000  0.30732544  0.31913525  1
  Na  Na15  1  0.75000000  0.19267456  0.81913525  1
  Na  Na16  1  0.25000000  0.45643044  0.69212421  1
  Na  Na17  1  0.25000000  0.04356956  0.19212421  1
  Na  Na18  1  0.75000000  0.54356956  0.30787579  1
  Na  Na19  1  0.75000000  0.95643044  0.80787579  1
  Na  Na20  1  0.25000000  0.80013013  0.83706064  1
  Na  Na21  1  0.25000000  0.69986987  0.33706064  1
  Na  Na22  1  0.75000000  0.19986987  0.16293936  1
  Na  Na23  1  0.75000000  0.30013013  0.66293936  1
  Na  Na24  1  0.25000000  0.58011781  0.84068787  1
  Na  Na25  1  0.25000000  0.91988219  0.34068787  1
  Na  Na26  1  0.75000000  0.41988219  0.15931213  1
  Na  Na27  1  0.75000000  0.08011781  0.65931213  1
  Na  Na28  1  0.25000000  0.94324496  0.03941060  1
  Na  Na29  1  0.25000000  0.55675504  0.53941060  1
  Na  Na30  1  0.75000000  0.05675504  0.96058940  1
  Na  Na31  1  0.75000000  0.44324496  0.46058940  1
  Ga  Ga0  1  0.25000000  0.19083091  0.71641621  1
  Ga  Ga1  1  0.25000000  0.30916909  0.21641621  1
  Ga  Ga2  1  0.75000000  0.80916909  0.28358379  1
  Ga  Ga3  1  0.75000000  0.69083091  0.78358379  1
  Ga  Ga4  1  0.25000000  0.06924291  0.86454852  1
  Ga  Ga5  1  0.25000000  0.43075709  0.36454852  1
  Ga  Ga6  1  0.75000000  0.93075709  0.13545148  1
  Ga  Ga7  1  0.75000000  0.56924291  0.63545148  1
  Ga  Ga8  1  0.25000000  0.30935900  0.87287130  1
  Ga  Ga9  1  0.25000000  0.19064100  0.37287130  1
  Ga  Ga10  1  0.75000000  0.69064100  0.12712870  1
  Ga  Ga11  1  0.75000000  0.80935900  0.62712870  1
  P  P0  1  0.25000000  0.19202941  0.61554622  1
  P  P1  1  0.25000000  0.30797059  0.11554622  1
  P  P2  1  0.75000000  0.80797059  0.38445378  1
  P  P3  1  0.75000000  0.69202941  0.88445378  1
  P  P4  1  0.25000000  0.06431363  0.76150405  1
  P  P5  1  0.25000000  0.43568637  0.26150405  1
  P  P6  1  0.75000000  0.93568637  0.23849595  1
  P  P7  1  0.75000000  0.56431363  0.73849595  1
  P  P8  1  0.25000000  0.31311966  0.76836693  1
  P  P9  1  0.25000000  0.18688034  0.26836693  1
  P  P10  1  0.75000000  0.68688034  0.23163307  1
  P  P11  1  0.75000000  0.81311966  0.73163307  1
  P  P12  1  0.25000000  0.94560579  0.91023106  1
  P  P13  1  0.25000000  0.55439421  0.41023106  1
  P  P14  1  0.75000000  0.05439421  0.08976894  1
  P  P15  1  0.75000000  0.44560579  0.58976894  1
  P  P16  1  0.25000000  0.43418604  0.91708305  1
  P  P17  1  0.25000000  0.06581396  0.41708305  1
  P  P18  1  0.75000000  0.56581396  0.08291695  1
  P  P19  1  0.75000000  0.93418604  0.58291695  1
  P  P20  1  0.25000000  0.18466572  0.92387062  1
  P  P21  1  0.25000000  0.31533428  0.42387062  1
  P  P22  1  0.75000000  0.81533428  0.07612938  1
  P  P23  1  0.75000000  0.68466572  0.57612938  1
loop_
_geom_bond_atom_site_label_1
_geom_bond_atom_site_label_2
_geom_bond_distance
_geom_bond_site_symmetry_2
Na0 P19 2.955331 1_445
Na0 P19 2.955331 1_545
Na0 P0 2.991728 1_555
Na0 P17 3.078209 1_555
Na1 P18 2.955331 1_555
Na1 P18 2.955331 1_455
Na1 P1 2.991728 1_555
Na1 P16 3.078209 1_554
Na2 P17 2.955331 1_565
Na2 P17 2.955331 1_665
Na2 P2 2.991728 1_555
Na2 P19 3.078209 1_555
Na3 P16 2.955331 1_655
Na3 P16 2.955331 1_555
Na3 P3 2.991728 1_555
Na3 P18 3.078209 1_556
Na4 P15 2.934499 1_555
Na4 P15 2.934499 1_455
Na4 P0 2.934997 1_555
Na4 P21 3.038149 1_555
Na5 P14 2.934499 1_555
Na5 P14 2.934499 1_455
Na5 P1 2.934997 1_555
Na5 P20 3.038149 1_554
Na6 P13 2.934499 1_555
Na6 P13 2.934499 1_655
Na6 P2 2.934997 1_555
Na6 P23 3.038149 1_555
Na7 P12 2.934499 1_655
Na7 P12 2.934499 1_555
Na7 P3 2.934997 1_555
Na7 P22 3.038149 1_556
Na8 P4 2.962222 1_565
Na8 P11 3.185460 1_555
Na8 P11 3.185460 1_455
Na8 P19 3.240644 1_555
Na8 P19 3.240644 1_455
Na9 P5 2.962222 1_555
Na9 P10 3.185460 1_555
Na9 P10 3.185460 1_455
Na9 P18 3.240644 1_555
Na9 P18 3.240644 1_455
Na10 P6 2.962222 1_545
Na10 P9 3.185460 1_555
Na10 P9 3.185460 1_655
Na10 P17 3.240644 1_655
Na10 P17 3.240644 1_555
Na11 P7 2.962222 1_555
Na11 P8 3.185460 1_555
Na11 P8 3.185460 1_655
Na11 P16 3.240644 1_655
Na11 P16 3.240644 1_555
Na12 P11 3.296288 1_555
Na12 P11 3.296288 1_455
Na12 P23 3.342103 1_555
Na12 P23 3.342103 1_455
Na12 P7 3.431591 1_555
Na12 P7 3.431591 1_455
Na13 P10 3.296288 1_555
Na13 P10 3.296288 1_455
Na13 P22 3.342103 1_555
Na13 P22 3.342103 1_455
Na13 P6 3.431591 1_555
Na13 P6 3.431591 1_455
Na14 P9 3.296288 1_655
Na14 P9 3.296288 1_555
Na14 P21 3.342103 1_555
Na14 P21 3.342103 1_655
Na14 P5 3.431591 1_555
Na14 P5 3.431591 1_655
Na15 P8 3.296288 1_655
Na15 P8 3.296288 1_555
Na15 P20 3.342103 1_655
Na15 P20 3.342103 1_555
Na15 P4 3.431591 1_655
Na15 P4 3.431591 1_555
Na16 P8 2.917601 1_555
Na16 P7 3.141755 1_555
Na16 P7 3.141755 1_455
Na16 P15 3.306906 1_555
Na16 P15 3.306906 1_455
Na17 P9 2.917601 1_555
Na17 P6 3.141755 1_445
Na17 P6 3.141755 1_545
Na17 P14 3.306906 1_455
Na17 P14 3.306906 1_555
Na18 P10 2.917601 1_555
Na18 P5 3.141755 1_555
Na18 P5 3.141755 1_655
Na18 P13 3.306906 1_555
Na18 P13 3.306906 1_655
Na19 P11 2.917601 1_555
Na19 P4 3.141755 1_565
Na19 P4 3.141755 1_665
Na19 P12 3.306906 1_555
Na19 P12 3.306906 1_655
Na20 P12 2.907053 1_555
Na20 P3 3.151455 1_555
Na20 P3 3.151455 1_455
Na20 P11 3.357291 1_555
Na20 P11 3.357291 1_455
Na21 P13 2.907053 1_555
Na21 P2 3.151455 1_455
Na21 P2 3.151455 1_555
Na21 P10 3.357291 1_555
Na21 P10 3.357291 1_455
Na22 P14 2.907053 1_555
Na22 P1 3.151455 1_655
Na22 P1 3.151455 1_555
Na22 P9 3.357291 1_655
Na22 P9 3.357291 1_555
Na23 P15 2.907053 1_555
Na23 P0 3.151455 1_655
Na23 P0 3.151455 1_555
Na23 P8 3.357291 1_555
Na23 P8 3.357291 1_655
Na24 P16 2.954689 1_555
Na24 P3 3.161156 1_455
Na24 P3 3.161156 1_555
Na24 P7 3.309808 1_555
Na24 P7 3.309808 1_455
Na25 P17 2.954689 1_565
Na25 P2 3.161156 1_455
Na25 P2 3.161156 1_555
Na25 P6 3.309808 1_555
Na25 P6 3.309808 1_455
Na26 P18 2.954689 1_555
Na26 P1 3.161156 1_655
Na26 P1 3.161156 1_555
Na26 P5 3.309808 1_555
Na26 P5 3.309808 1_655
Na27 P19 2.954689 1_545
Na27 P0 3.161156 1_655
Na27 P0 3.161156 1_555
Na27 P4 3.309808 1_555
Na27 P4 3.309808 1_655
Na28 P12 2.900432 1_554
Na28 P14 3.203036 1_465
Na28 P14 3.203036 1_565
Na28 P22 3.278712 1_555
Na28 P22 3.278712 1_455
Na29 P13 2.900432 1_555
Na29 P15 3.203036 1_455
Na29 P15 3.203036 1_555
Na29 P23 3.278712 1_455
Na29 P23 3.278712 1_555
Na30 P14 2.900432 1_556
Na30 P12 3.203036 1_545
Na30 P12 3.203036 1_645
Na30 P20 3.278712 1_555
Na30 P20 3.278712 1_655
Na31 P15 2.900432 1_555
Na31 P13 3.203036 1_655
Na31 P13 3.203036 1_555
Na31 P21 3.278712 1_655
Na31 P21 3.278712 1_555
Ga0 P0 2.264688 1_555
Ga0 P4 2.318502 1_555
Ga0 P8 2.329196 1_555
Ga0 Na23 3.211199 1_555
Ga0 Na23 3.211199 1_455
Ga0 Na27 3.255537 1_555
Ga0 Na27 3.255537 1_455
Ga0 Na15 3.307916 1_455
Ga0 Na15 3.307916 1_555
Ga1 P1 2.264688 1_555
Ga1 P5 2.318502 1_555
Ga1 P9 2.329196 1_555
Ga1 Na22 3.211199 1_455
Ga1 Na22 3.211199 1_555
Ga1 Na26 3.255537 1_455
Ga1 Na26 3.255537 1_555
Ga1 Na14 3.307916 1_455
Ga1 Na14 3.307916 1_555
Ga2 P2 2.264688 1_555
Ga2 P6 2.318502 1_555
Ga2 P10 2.329196 1_555
Ga2 Na21 3.211199 1_655
Ga2 Na21 3.211199 1_555
Ga2 Na25 3.255537 1_655
Ga2 Na25 3.255537 1_555
Ga2 Na13 3.307916 1_655
Ga2 Na13 3.307916 1_555
Ga3 P3 2.264688 1_555
Ga3 P7 2.318502 1_555
Ga3 P11 2.329196 1_555
Ga3 Na20 3.211199 1_655
Ga3 Na20 3.211199 1_555
Ga3 Na24 3.255537 1_555
Ga3 Na24 3.255537 1_655
Ga3 Na12 3.307916 1_655
Ga3 Na12 3.307916 1_555
Ga4 P12 2.281847 1_545
Ga4 P4 2.314847 1_555
Ga4 P20 2.322703 1_555
Ga4 Na30 3.211657 1_555
Ga4 Na30 3.211657 1_455
Ga4 Na19 3.271290 1_445
Ga4 Na19 3.271290 1_545
Ga4 Na15 3.286926 1_455
Ga4 Na15 3.286926 1_555
Ga5 P13 2.281847 1_555
Ga5 P5 2.314847 1_555
Ga5 P21 2.322703 1_555
Ga5 Na31 3.211657 1_455
Ga5 Na31 3.211657 1_555
Ga5 Na18 3.271290 1_455
Ga5 Na18 3.271290 1_555
Ga5 Na14 3.286926 1_555
Ga5 Na14 3.286926 1_455
Ga6 P14 2.281847 1_565
Ga6 P6 2.314847 1_555
Ga6 P22 2.322703 1_555
Ga6 Na28 3.211657 1_655
Ga6 Na28 3.211657 1_555
Ga6 Na17 3.271290 1_665
Ga6 Na17 3.271290 1_565
Ga6 Na13 3.286926 1_555
Ga6 Na13 3.286926 1_655
Ga7 P15 2.281847 1_555
Ga7 P7 2.314847 1_555
Ga7 P23 2.322703 1_555
Ga7 Na29 3.211657 1_555
Ga7 Na29 3.211657 1_655
Ga7 Na16 3.271290 1_655
Ga7 Na16 3.271290 1_555
Ga7 Na12 3.286926 1_555
Ga7 Na12 3.286926 1_655
Ga8 P16 2.284851 1_555
Ga8 P8 2.347015 1_555
Ga8 P20 2.353127 1_555
Ga8 Na11 3.245508 1_555
Ga8 Na11 3.245508 1_455
Ga8 Na15 3.283206 1_555
Ga8 Na15 3.283206 1_455
Ga9 P17 2.284851 1_555
Ga9 P9 2.347015 1_555
Ga9 P21 2.353127 1_555
Ga9 Na10 3.245508 1_555
Ga9 Na10 3.245508 1_455
Ga9 Na14 3.283206 1_555
Ga9 Na14 3.283206 1_455
Ga10 P18 2.284851 1_555
Ga10 P10 2.347015 1_555
Ga10 P22 2.353127 1_555
Ga10 Na9 3.245508 1_555
Ga10 Na9 3.245508 1_655
Ga10 Na13 3.283206 1_655
Ga10 Na13 3.283206 1_555
Ga11 P19 2.284851 1_555
Ga11 P11 2.347015 1_555
Ga11 P23 2.353127 1_555
Ga11 Na8 3.245508 1_655
Ga11 Na8 3.245508 1_555
Ga11 Na12 3.283206 1_555
Ga11 Na12 3.283206 1_655
P0 Rb2 3.522731 1_555
P0 Rb2 3.522731 1_455
P1 Rb3 3.522731 1_554
P1 Rb3 3.522731 1_454
P2 Rb0 3.522731 1_555
P2 Rb0 3.522731 1_655
P3 Rb1 3.522731 1_556
P3 Rb1 3.522731 1_656
P16 Rb3 3.656948 1_555
P16 Rb3 3.656948 1_455
P17 Rb2 3.656948 1_555
P17 Rb2 3.656948 1_455
P18 Rb1 3.656948 1_555
P18 Rb1 3.656948 1_655
P19 Rb0 3.656948 1_655
P19 Rb0 3.656948 1_555
P20 Rb3 3.555864 1_555
P20 Rb3 3.555864 1_455
P21 Rb2 3.555864 1_455
P21 Rb2 3.555864 1_555
P22 Rb1 3.555864 1_655
P22 Rb1 3.555864 1_555
P23 Rb0 3.555864 1_655
P23 Rb0 3.555864 1_555
