# generated using pymatgen
data_Cs2LiAsO4
_symmetry_space_group_name_H-M   'P 1'
_cell_length_a   6.97818139
_cell_length_b   6.97818139
_cell_length_c   8.32893200
_cell_angle_alpha   90.00000000
_cell_angle_beta   90.00000000
_cell_angle_gamma   128.45826011
_symmetry_Int_Tables_number   1
_chemical_formula_structural   Cs2LiAsO4
_chemical_formula_sum   'Cs4 Li2 As2 O8'
_cell_volume   317.59208380
_cell_formula_units_Z   2
loop_
 _symmetry_equiv_pos_site_id
 _symmetry_equiv_pos_as_xyz
  1  'x, y, z'
loop_
 _atom_site_type_symbol
 _atom_site_label
 _atom_site_symmetry_multiplicity
 _atom_site_fract_x
 _atom_site_fract_y
 _atom_site_fract_z
 _atom_site_occupancy
  Cs  Cs0  1  0.93220700  0.06779300  0.85285100  1
  Cs  Cs1  1  0.06779300  0.93220700  0.35285100  1
  Cs  Cs2  1  0.39478900  0.60521100  0.49551200  1
  Cs  Cs3  1  0.60521100  0.39478900  0.99551200  1
  Li  Li0  1  0.20698300  0.79301700  0.76929000  1
  Li  Li1  1  0.79301700  0.20698300  0.26929000  1
  As  As0  1  0.30313600  0.69686400  0.05435000  1
  As  As1  1  0.69686400  0.30313600  0.55435000  1
  O  O0  1  0.10777100  0.42638800  0.15906400  1
  O  O1  1  0.89222900  0.57361200  0.65906400  1
  O  O2  1  0.36180700  0.63819300  0.86557500  1
  O  O3  1  0.63819300  0.36180700  0.36557500  1
  O  O4  1  0.57361200  0.89222900  0.15906400  1
  O  O5  1  0.42638800  0.10777100  0.65906400  1
  O  O6  1  0.83253400  0.16746600  0.51279500  1
  O  O7  1  0.16746600  0.83253400  0.01279500  1
loop_
_geom_bond_atom_site_label_1
_geom_bond_atom_site_label_2
_geom_bond_distance
_geom_bond_site_symmetry_2
Cs0 O6 3.096973 1_555
Cs0 O2 3.162092 1_545
Cs0 O2 3.162092 1_655
Cs0 O4 3.233258 1_546
Cs0 O0 3.233258 1_656
Cs0 O7 3.243039 1_646
Cs1 O7 3.096973 1_555
Cs1 O3 3.162092 1_455
Cs1 O3 3.162092 1_565
Cs1 O5 3.233258 1_565
Cs1 O1 3.233258 1_455
Cs1 O6 3.243039 1_465
Cs2 O2 3.109979 1_555
Cs2 O6 3.136502 1_455
Cs2 O6 3.136502 1_565
Cs2 O0 3.211292 1_555
Cs2 O4 3.211292 1_555
Cs2 O3 3.244954 1_555
Cs3 O3 3.109979 1_556
Cs3 O7 3.136502 1_546
Cs3 O7 3.136502 1_656
Cs3 O1 3.211292 1_555
Cs3 O5 3.211292 1_555
Cs3 O2 3.244954 1_555
Li0 O1 1.956581 1_455
Li0 O5 1.956581 1_565
Li0 O7 2.088063 1_556
Li0 O2 2.104645 1_555
Li1 O4 1.956581 1_545
Li1 O0 1.956581 1_655
Li1 O6 2.088063 1_555
Li1 O3 2.104645 1_555
As0 O4 1.726540 1_555
As0 O0 1.726540 1_555
As0 O2 1.736622 1_554
As0 O7 1.739908 1_555
As1 O1 1.726540 1_555
As1 O5 1.726540 1_555
As1 O3 1.736622 1_555
As1 O6 1.739908 1_555
