# generated using pymatgen
data_Li3AuS2
_symmetry_space_group_name_H-M   'P 1'
_cell_length_a   5.76341785
_cell_length_b   6.29217201
_cell_length_c   7.04856730
_cell_angle_alpha   116.50935913
_cell_angle_beta   114.13173633
_cell_angle_gamma   89.99998697
_symmetry_Int_Tables_number   1
_chemical_formula_structural   Li3AuS2
_chemical_formula_sum   'Li6 Au2 S4'
_cell_volume   203.46958040
_cell_formula_units_Z   2
loop_
 _symmetry_equiv_pos_site_id
 _symmetry_equiv_pos_as_xyz
  1  'x, y, z'
loop_
 _atom_site_type_symbol
 _atom_site_label
 _atom_site_symmetry_multiplicity
 _atom_site_fract_x
 _atom_site_fract_y
 _atom_site_fract_z
 _atom_site_occupancy
  Li  Li0  1  0.77361780  0.52361780  0.54723559  1
  Li  Li1  1  0.22638220  0.97638220  0.45276441  1
  Li  Li2  1  0.22638220  0.47638220  0.45276441  1
  Li  Li3  1  0.77361780  0.02361780  0.54723559  1
  Li  Li4  1  0.50000000  0.75000000  0.00000000  1
  Li  Li5  1  0.50000000  0.25000000  0.00000000  1
  Au  Au0  1  0.00000000  0.50000000  0.00000000  1
  Au  Au1  1  0.00000000  -0.00000000  0.00000000  1
  S  S0  1  0.15311705  0.35874412  0.71749024  1
  S  S1  1  0.43562781  0.14125588  0.28250976  1
  S  S2  1  0.56437219  0.85874412  0.71749024  1
  S  S3  1  0.84688295  0.64125588  0.28250976  1
loop_
_geom_bond_atom_site_label_1
_geom_bond_atom_site_label_2
_geom_bond_distance
_geom_bond_site_symmetry_2
Li0 S1 2.466793 1_555
Li0 S3 2.466803 1_555
Li0 S2 2.503074 1_555
Li0 S0 2.503078 1_655
Li1 S0 2.466795 1_565
Li1 S2 2.466801 1_555
Li1 S3 2.503071 1_455
Li1 S1 2.503082 1_565
Li2 S2 2.466793 1_555
Li2 S0 2.466803 1_555
Li2 S1 2.503074 1_555
Li2 S3 2.503078 1_455
Li3 S3 2.466795 1_545
Li3 S1 2.466801 1_555
Li3 S0 2.503071 1_655
Li3 S2 2.503082 1_545
Li4 S2 2.528128 1_554
Li4 S3 2.528131 1_555
Li4 S1 2.528136 1_565
Li4 S0 2.528139 1_554
Li5 S1 2.528128 1_555
Li5 S0 2.528131 1_554
Li5 S2 2.528136 1_544
Li5 S3 2.528139 1_555
Au0 S3 2.321832 1_455
Au0 S0 2.321832 1_554
Au0 Li2 2.987937 1_555
Au0 Li0 2.987937 1_454
Au0 Li1 2.987937 1_555
Au0 Li3 2.987937 1_454
Au1 S2 2.321836 1_444
Au1 S1 2.321836 1_555
Au1 Li3 2.987937 1_454
Au1 Li1 2.987937 1_545
Au1 Li0 2.987937 1_444
Au1 Li2 2.987937 1_555
