# generated using pymatgen
data_Ba3Dy(BO2)9
_symmetry_space_group_name_H-M   'P 1'
_cell_length_a   7.27406605
_cell_length_b   7.27406605
_cell_length_c   17.50285500
_cell_angle_alpha   90.00000000
_cell_angle_beta   90.00000000
_cell_angle_gamma   120.00000043
_symmetry_Int_Tables_number   1
_chemical_formula_structural   Ba3Dy(BO2)9
_chemical_formula_sum   'Ba6 Dy2 B18 O36'
_cell_volume   802.03626327
_cell_formula_units_Z   2
loop_
 _symmetry_equiv_pos_site_id
 _symmetry_equiv_pos_as_xyz
  1  'x, y, z'
loop_
 _atom_site_type_symbol
 _atom_site_label
 _atom_site_symmetry_multiplicity
 _atom_site_fract_x
 _atom_site_fract_y
 _atom_site_fract_z
 _atom_site_occupancy
  Ba  Ba0  1  0.66666700  0.33333300  0.86772400  1
  Ba  Ba1  1  0.33333300  0.66666700  0.13227600  1
  Ba  Ba2  1  0.33333300  0.66666700  0.36772400  1
  Ba  Ba3  1  0.66666700  0.33333300  0.63227600  1
  Ba  Ba4  1  0.00000000  0.00000000  0.75000000  1
  Ba  Ba5  1  0.00000000  0.00000000  0.25000000  1
  Dy  Dy0  1  0.00000000  0.00000000  0.00000000  1
  Dy  Dy1  1  0.00000000  0.00000000  0.50000000  1
  B  B0  1  0.55017600  0.83496300  0.91820900  1
  B  B1  1  0.44982400  0.16503700  0.08179100  1
  B  B2  1  0.28478700  0.44982400  0.91820900  1
  B  B3  1  0.44982400  0.16503700  0.41820900  1
  B  B4  1  0.71521300  0.55017600  0.08179100  1
  B  B5  1  0.55017600  0.83496300  0.58179100  1
  B  B6  1  0.16503700  0.71521300  0.91820900  1
  B  B7  1  0.71521300  0.55017600  0.41820900  1
  B  B8  1  0.83496300  0.28478700  0.08179100  1
  B  B9  1  0.28478700  0.44982400  0.58179100  1
  B  B10  1  0.83496300  0.28478700  0.41820900  1
  B  B11  1  0.16503700  0.71521300  0.58179100  1
  B  B12  1  0.50484900  0.62215400  0.75000000  1
  B  B13  1  0.49515100  0.37784600  0.25000000  1
  B  B14  1  0.11730500  0.49515100  0.75000000  1
  B  B15  1  0.88269500  0.50484900  0.25000000  1
  B  B16  1  0.37784600  0.88269500  0.75000000  1
  B  B17  1  0.62215400  0.11730500  0.25000000  1
  O  O0  1  0.54203400  0.83304700  0.75000000  1
  O  O1  1  0.45796600  0.16695300  0.25000000  1
  O  O2  1  0.29101300  0.45796600  0.75000000  1
  O  O3  1  0.70898700  0.54203400  0.25000000  1
  O  O4  1  0.16695300  0.70898700  0.75000000  1
  O  O5  1  0.83304700  0.29101300  0.25000000  1
  O  O6  1  0.91994800  0.33279500  0.75000000  1
  O  O7  1  0.08005200  0.66720500  0.25000000  1
  O  O8  1  0.41284700  0.08005200  0.75000000  1
  O  O9  1  0.58715300  0.91994800  0.25000000  1
  O  O10  1  0.66720500  0.58715300  0.75000000  1
  O  O11  1  0.33279500  0.41284700  0.25000000  1
  O  O12  1  0.74982700  0.99506800  0.91907400  1
  O  O13  1  0.25017300  0.00493200  0.08092600  1
  O  O14  1  0.24524100  0.25017300  0.91907400  1
  O  O15  1  0.25017300  0.00493200  0.41907400  1
  O  O16  1  0.75475900  0.74982700  0.08092600  1
  O  O17  1  0.74982700  0.99506800  0.58092600  1
  O  O18  1  0.00493200  0.75475900  0.91907400  1
  O  O19  1  0.75475900  0.74982700  0.41907400  1
  O  O20  1  0.99506800  0.24524100  0.08092600  1
  O  O21  1  0.24524100  0.25017300  0.58092600  1
  O  O22  1  0.99506800  0.24524100  0.41907400  1
  O  O23  1  0.00493200  0.75475900  0.58092600  1
  O  O24  1  0.49672400  0.61985600  0.91807300  1
  O  O25  1  0.50327600  0.38014400  0.08192700  1
  O  O26  1  0.12313200  0.50327600  0.91807300  1
  O  O27  1  0.50327600  0.38014400  0.41807300  1
  O  O28  1  0.87686800  0.49672400  0.08192700  1
  O  O29  1  0.49672400  0.61985600  0.58192700  1
  O  O30  1  0.38014400  0.87686800  0.91807300  1
  O  O31  1  0.87686800  0.49672400  0.41807300  1
  O  O32  1  0.61985600  0.12313200  0.08192700  1
  O  O33  1  0.12313200  0.50327600  0.58192700  1
  O  O34  1  0.61985600  0.12313200  0.41807300  1
  O  O35  1  0.38014400  0.87686800  0.58192700  1
loop_
_geom_bond_atom_site_label_1
_geom_bond_atom_site_label_2
_geom_bond_distance
_geom_bond_site_symmetry_2
Ba0 O6 2.765372 1_555
Ba0 O8 2.765375 1_555
Ba0 O10 2.765377 1_555
Ba0 O12 2.952371 1_545
Ba0 O18 2.952376 1_655
Ba0 O14 2.952378 1_555
Ba0 O26 3.037261 1_655
Ba0 O30 3.037262 1_545
Ba0 O24 3.037268 1_555
Ba1 O7 2.765372 1_555
Ba1 O9 2.765375 1_555
Ba1 O11 2.765377 1_555
Ba1 O13 2.952371 1_565
Ba1 O20 2.952376 1_455
Ba1 O16 2.952378 1_555
Ba1 O28 3.037261 1_455
Ba1 O32 3.037262 1_565
Ba1 O25 3.037268 1_555
Ba2 O7 2.765372 1_555
Ba2 O9 2.765375 1_555
Ba2 O11 2.765377 1_555
Ba2 O15 2.952371 1_565
Ba2 O22 2.952376 1_455
Ba2 O19 2.952378 1_555
Ba2 O31 3.037261 1_455
Ba2 O34 3.037262 1_565
Ba2 O27 3.037268 1_555
Ba3 O6 2.765372 1_555
Ba3 O8 2.765375 1_555
Ba3 O10 2.765377 1_555
Ba3 O17 2.952371 1_545
Ba3 O23 2.952376 1_655
Ba3 O21 2.952378 1_555
Ba3 O33 3.037261 1_655
Ba3 O35 3.037262 1_545
Ba3 O29 3.037268 1_555
Ba4 O10 2.758413 1_445
Ba4 O8 2.758413 1_555
Ba4 O6 2.758413 1_455
Ba4 O2 2.920040 1_555
Ba4 O0 2.920040 1_445
Ba4 O4 2.920040 1_545
Ba5 O11 2.758413 1_555
Ba5 O9 2.758413 1_445
Ba5 O7 2.758413 1_545
Ba5 O3 2.920040 1_445
Ba5 O1 2.920040 1_555
Ba5 O5 2.920040 1_455
Dy0 O16 2.292133 1_445
Dy0 O14 2.292133 1_554
Dy0 O13 2.292133 1_555
Dy0 O12 2.292133 1_444
Dy0 O20 2.292133 1_455
Dy0 O18 2.292133 1_544
Dy1 O21 2.292133 1_555
Dy1 O19 2.292133 1_445
Dy1 O17 2.292133 1_445
Dy1 O15 2.292133 1_555
Dy1 O23 2.292133 1_545
Dy1 O22 2.292133 1_455
B0 O12 1.332035 1_555
B0 O24 1.411063 1_555
B0 O30 1.414094 1_555
B1 O13 1.332035 1_555
B1 O25 1.411063 1_555
B1 O32 1.414094 1_555
B2 O14 1.332035 1_555
B2 O26 1.411063 1_555
B2 O24 1.414094 1_555
B3 O15 1.332035 1_555
B3 O27 1.411063 1_555
B3 O34 1.414094 1_555
B4 O16 1.332035 1_555
B4 O28 1.411063 1_555
B4 O25 1.414094 1_555
B5 O17 1.332035 1_555
B5 O29 1.411063 1_555
B5 O35 1.414094 1_555
B6 O18 1.332035 1_555
B6 O30 1.411063 1_555
B6 O26 1.414094 1_555
B7 O19 1.332035 1_555
B7 O31 1.411063 1_555
B7 O27 1.414094 1_555
B8 O20 1.332035 1_555
B8 O32 1.411063 1_555
B8 O28 1.414094 1_555
B9 O21 1.332035 1_555
B9 O33 1.411063 1_555
B9 O29 1.414094 1_555
B10 O22 1.332035 1_555
B10 O34 1.411063 1_555
B10 O31 1.414094 1_555
B11 O23 1.332035 1_555
B11 O35 1.411063 1_555
B11 O33 1.414094 1_555
B12 O10 1.326738 1_555
B12 O2 1.410010 1_555
B12 O0 1.418285 1_555
B13 O11 1.326738 1_555
B13 O3 1.410010 1_555
B13 O1 1.418285 1_555
B14 O6 1.326738 1_455
B14 O4 1.410010 1_555
B14 O2 1.418285 1_555
B15 O7 1.326738 1_655
B15 O5 1.410010 1_555
B15 O3 1.418285 1_555
B16 O8 1.326738 1_565
B16 O0 1.410010 1_555
B16 O4 1.418285 1_555
B17 O9 1.326738 1_545
B17 O1 1.410010 1_555
B17 O5 1.418285 1_555
