# generated using pymatgen
data_AlRe2
_symmetry_space_group_name_H-M   'P 1'
_cell_length_a   2.99427143
_cell_length_b   2.99427127
_cell_length_c   5.21891689
_cell_angle_alpha   106.67051659
_cell_angle_beta   106.67050728
_cell_angle_gamma   89.99997518
_symmetry_Int_Tables_number   1
_chemical_formula_structural   AlRe2
_chemical_formula_sum   'Al1 Re2'
_cell_volume   42.76747355
_cell_formula_units_Z   1
loop_
 _symmetry_equiv_pos_site_id
 _symmetry_equiv_pos_as_xyz
  1  'x, y, z'
loop_
 _atom_site_type_symbol
 _atom_site_label
 _atom_site_symmetry_multiplicity
 _atom_site_fract_x
 _atom_site_fract_y
 _atom_site_fract_z
 _atom_site_occupancy
  Al  Al0  1  0.00000000  -0.00000000  -0.00000000  1
  Re  Re0  1  0.33099862  0.33099862  0.66199724  1
  Re  Re1  1  0.66900138  0.66900138  0.33800276  1
loop_
_geom_bond_atom_site_label_1
_geom_bond_atom_site_label_2
_geom_bond_distance
_geom_bond_site_symmetry_2
Al0 Re0 2.661279 1_544
Al0 Re1 2.661279 1_455
Al0 Re0 2.661280 1_454
Al0 Re1 2.661280 1_545
Al0 Re0 2.661280 1_444
Al0 Re1 2.661280 1_555
Al0 Re0 2.661281 1_554
Al0 Re1 2.661281 1_445
Re0 Re1 2.621335 1_545
Re0 Re1 2.621335 1_455
Re0 Re1 2.621335 1_445
Re0 Re1 2.621336 1_555
