# generated using pymatgen
data_NaLaTi4O12
_symmetry_space_group_name_H-M   'P 1'
_cell_length_a   5.44900287
_cell_length_b   5.44900287
_cell_length_c   7.87305644
_cell_angle_alpha   90.00000000
_cell_angle_beta   90.00000000
_cell_angle_gamma   90.00667187
_symmetry_Int_Tables_number   1
_chemical_formula_structural   NaLaTi4O12
_chemical_formula_sum   'Na1 La1 Ti4 O12'
_cell_volume   233.76389531
_cell_formula_units_Z   1
loop_
 _symmetry_equiv_pos_site_id
 _symmetry_equiv_pos_as_xyz
  1  'x, y, z'
loop_
 _atom_site_type_symbol
 _atom_site_label
 _atom_site_symmetry_multiplicity
 _atom_site_fract_x
 _atom_site_fract_y
 _atom_site_fract_z
 _atom_site_occupancy
  Na  Na0  1  0.00800763  0.99199237  0.50000000  1
  La  La0  1  0.48703910  0.51296090  0.00000000  1
  Ti  Ti0  1  0.50196699  0.00617290  0.26450177  1
  Ti  Ti1  1  0.50196699  0.00617290  0.73549823  1
  Ti  Ti2  1  0.99382710  0.49803301  0.73549823  1
  Ti  Ti3  1  0.99382710  0.49803301  0.26450177  1
  O  O0  1  0.27300905  0.27369040  0.23398539  1
  O  O1  1  0.72630960  0.72699095  0.23398539  1
  O  O2  1  0.72630960  0.72699095  0.76601461  1
  O  O3  1  0.27300905  0.27369040  0.76601461  1
  O  O4  1  0.24233671  0.75766329  0.22061020  1
  O  O5  1  0.77199635  0.22800365  0.27049225  1
  O  O6  1  0.77199635  0.22800365  0.72950775  1
  O  O7  1  0.24233671  0.75766329  0.77938980  1
  O  O8  1  0.51901868  0.02747471  0.00000000  1
  O  O9  1  0.46684650  0.98282879  0.50000000  1
  O  O10  1  0.97252529  0.48098132  0.00000000  1
  O  O11  1  0.01717121  0.53315350  0.50000000  1
loop_
_geom_bond_atom_site_label_1
_geom_bond_atom_site_label_2
_geom_bond_distance
_geom_bond_site_symmetry_2
Na0 O9 2.500719 1_555
Na0 O11 2.500719 1_555
Na0 O6 2.563805 1_465
Na0 O5 2.563805 1_465
Na0 O7 2.845978 1_555
Na0 O4 2.845978 1_555
Na0 O11 2.949205 1_565
Na0 O9 2.949205 1_455
Na0 O1 2.971033 1_455
Na0 O0 2.971033 1_565
Na0 O2 2.971033 1_455
Na0 O3 2.971033 1_565
La0 O3 2.540329 1_554
La0 O0 2.540329 1_555
La0 O2 2.540329 1_554
La0 O1 2.540329 1_555
La0 O4 2.563782 1_555
La0 O7 2.563782 1_554
La0 O8 2.651169 1_555
La0 O10 2.651169 1_555
La0 O10 2.808977 1_455
La0 O8 2.808977 1_565
La0 O5 3.059039 1_555
La0 O6 3.059039 1_554
O0 Ti0 1.933787 1_555
O0 Ti3 1.966410 1_455
O1 Ti3 1.933787 1_555
O1 Ti0 1.966410 1_565
O2 Ti2 1.933787 1_555
O2 Ti1 1.966410 1_565
O3 Ti1 1.933787 1_555
O3 Ti2 1.966410 1_455
O4 Ti0 1.988488 1_565
O4 Ti3 1.988488 1_455
O5 Ti3 1.904703 1_555
O5 Ti0 1.904703 1_555
O6 Ti2 1.904703 1_555
O6 Ti1 1.904703 1_555
O7 Ti1 1.988488 1_565
O7 Ti2 1.988488 1_455
O8 Ti1 2.087738 1_554
O8 Ti0 2.087738 1_555
O9 Ti0 1.868275 1_565
O9 Ti1 1.868275 1_565
O10 Ti2 2.087738 1_554
O10 Ti3 2.087738 1_555
O11 Ti3 1.868275 1_455
O11 Ti2 1.868275 1_455
