# generated using pymatgen
data_Gd2MgGe2
_symmetry_space_group_name_H-M   'P 1'
_cell_length_a   4.28505651
_cell_length_b   7.31109304
_cell_length_c   7.31109304
_cell_angle_alpha   90.00142662
_cell_angle_beta   90.00000000
_cell_angle_gamma   90.00000000
_symmetry_Int_Tables_number   1
_chemical_formula_structural   Gd2MgGe2
_chemical_formula_sum   'Gd4 Mg2 Ge4'
_cell_volume   229.04518951
_cell_formula_units_Z   2
loop_
 _symmetry_equiv_pos_site_id
 _symmetry_equiv_pos_as_xyz
  1  'x, y, z'
loop_
 _atom_site_type_symbol
 _atom_site_label
 _atom_site_symmetry_multiplicity
 _atom_site_fract_x
 _atom_site_fract_y
 _atom_site_fract_z
 _atom_site_occupancy
  Gd  Gd0  1  0.00000000  0.82200377  0.67799623  1
  Gd  Gd1  1  0.00000000  0.32199591  0.82199591  1
  Gd  Gd2  1  0.00000000  0.67800409  0.17800409  1
  Gd  Gd3  1  0.00000000  0.17799623  0.32200377  1
  Mg  Mg0  1  0.50000000  0.50000000  0.50000000  1
  Mg  Mg1  1  0.50000000  0.00000000  0.00000000  1
  Ge  Ge0  1  0.50000000  0.87806352  0.37806352  1
  Ge  Ge1  1  0.50000000  0.62195114  0.87804886  1
  Ge  Ge2  1  0.50000000  0.12193648  0.62193648  1
  Ge  Ge3  1  0.50000000  0.37804886  0.12195114  1
loop_
_geom_bond_atom_site_label_1
_geom_bond_atom_site_label_2
_geom_bond_distance
_geom_bond_site_symmetry_2
Gd0 Ge1 2.978078 1_455
Gd0 Ge1 2.978078 1_555
Gd0 Ge0 3.093054 1_555
Gd0 Ge2 3.093054 1_565
Gd0 Ge0 3.093054 1_455
Gd0 Ge2 3.093054 1_465
Gd1 Ge2 2.978092 1_555
Gd1 Ge2 2.978092 1_455
Gd1 Ge3 3.093150 1_556
Gd1 Ge1 3.093150 1_455
Gd1 Ge1 3.093150 1_555
Gd1 Ge3 3.093150 1_456
Gd2 Ge0 2.978092 1_455
Gd2 Ge0 2.978092 1_555
Gd2 Ge1 3.093150 1_554
Gd2 Ge1 3.093150 1_454
Gd2 Ge3 3.093150 1_555
Gd2 Ge3 3.093150 1_455
Gd3 Ge3 2.978078 1_555
Gd3 Ge3 2.978078 1_455
Gd3 Ge2 3.093054 1_555
Gd3 Ge0 3.093054 1_445
Gd3 Ge2 3.093054 1_455
Gd3 Ge0 3.093054 1_545
Ge0 Ge2 2.521480 1_565
Ge0 Mg0 2.904288 1_555
Ge0 Mg1 2.904288 1_565
Ge1 Ge3 2.521846 1_556
Ge1 Mg1 2.904177 1_566
Ge1 Mg0 2.904177 1_555
Ge2 Mg0 2.904288 1_555
Ge2 Mg1 2.904288 1_556
Ge3 Mg1 2.904177 1_555
Ge3 Mg0 2.904177 1_555
