# generated using pymatgen
data_ErAsPd
_symmetry_space_group_name_H-M   'P 1'
_cell_length_a   4.07650469
_cell_length_b   6.99845687
_cell_length_c   7.88228721
_cell_angle_alpha   90.00000000
_cell_angle_beta   90.00000000
_cell_angle_gamma   90.00000000
_symmetry_Int_Tables_number   1
_chemical_formula_structural   ErAsPd
_chemical_formula_sum   'Er4 As4 Pd4'
_cell_volume   224.87568132
_cell_formula_units_Z   4
loop_
 _symmetry_equiv_pos_site_id
 _symmetry_equiv_pos_as_xyz
  1  'x, y, z'
loop_
 _atom_site_type_symbol
 _atom_site_label
 _atom_site_symmetry_multiplicity
 _atom_site_fract_x
 _atom_site_fract_y
 _atom_site_fract_z
 _atom_site_occupancy
  Er  Er0  1  0.25000000  0.53299957  0.80800003  1
  Er  Er1  1  0.75000000  0.46700043  0.19199997  1
  Er  Er2  1  0.25000000  0.03299957  0.69199997  1
  Er  Er3  1  0.75000000  0.96700043  0.30800003  1
  As  As0  1  0.25000000  0.74514358  0.12069734  1
  As  As1  1  0.75000000  0.25485642  0.87930266  1
  As  As2  1  0.25000000  0.24514358  0.37930266  1
  As  As3  1  0.75000000  0.75485642  0.62069734  1
  Pd  Pd0  1  0.75000000  0.35708533  0.56325695  1
  Pd  Pd1  1  0.25000000  0.64291467  0.43674305  1
  Pd  Pd2  1  0.75000000  0.85708533  0.93674305  1
  Pd  Pd3  1  0.25000000  0.14291467  0.06325695  1
loop_
_geom_bond_atom_site_label_1
_geom_bond_atom_site_label_2
_geom_bond_distance
_geom_bond_site_symmetry_2
Er0 Pd1 3.025768 1_555
Er0 Pd0 3.064590 1_555
Er0 Pd0 3.064590 1_455
Er0 Pd2 3.213806 1_555
Er0 Pd2 3.213806 1_455
Er0 Pd3 3.391318 1_556
Er1 Pd0 3.025768 1_555
Er1 Pd1 3.064590 1_655
Er1 Pd1 3.064590 1_555
Er1 Pd3 3.213806 1_555
Er1 Pd3 3.213806 1_655
Er1 Pd2 3.391318 1_554
Er2 Pd3 3.025768 1_556
Er2 Pd2 3.064590 1_545
Er2 Pd2 3.064590 1_445
Er2 Pd0 3.213806 1_455
Er2 Pd0 3.213806 1_555
Er2 Pd1 3.391318 1_545
Er3 Pd2 3.025768 1_554
Er3 Pd3 3.064590 1_565
Er3 Pd3 3.064590 1_665
Er3 Pd1 3.213806 1_655
Er3 Pd1 3.213806 1_555
Er3 Pd0 3.391318 1_565
As0 Pd1 2.591863 1_555
As0 Pd2 2.621195 1_454
As0 Pd2 2.621195 1_554
As0 Pd3 2.820363 1_565
As0 Er1 2.873933 1_455
As0 Er1 2.873933 1_555
As0 Er0 2.877389 1_554
As0 Er3 2.957176 1_455
As0 Er3 2.957176 1_555
As1 Pd0 2.591863 1_555
As1 Pd3 2.621195 1_556
As1 Pd3 2.621195 1_656
As1 Pd2 2.820363 1_545
As1 Er0 2.873933 1_555
As1 Er0 2.873933 1_655
As1 Er1 2.877389 1_556
As1 Er2 2.957176 1_555
As1 Er2 2.957176 1_655
As2 Pd3 2.591863 1_555
As2 Pd0 2.621195 1_455
As2 Pd0 2.621195 1_555
As2 Pd1 2.820363 1_555
As2 Er3 2.873933 1_545
As2 Er3 2.873933 1_445
As2 Er2 2.877389 1_555
As2 Er1 2.957176 1_555
As2 Er1 2.957176 1_455
As3 Pd2 2.591863 1_555
As3 Pd1 2.621195 1_555
As3 Pd1 2.621195 1_655
As3 Pd0 2.820363 1_555
As3 Er2 2.873933 1_665
As3 Er2 2.873933 1_565
As3 Er3 2.877389 1_555
As3 Er0 2.957176 1_655
As3 Er0 2.957176 1_555
Pd0 Pd1 3.024959 1_555
Pd0 Pd1 3.024959 1_655
Pd2 Pd3 3.024959 1_666
Pd2 Pd3 3.024959 1_566
