# generated using pymatgen
data_Co2P2H4PbO10
_symmetry_space_group_name_H-M   'P 1'
_cell_length_a   6.37900200
_cell_length_b   7.57391046
_cell_length_c   9.04286249
_cell_angle_alpha   114.39098559
_cell_angle_beta   90.00000000
_cell_angle_gamma   90.00000000
_symmetry_Int_Tables_number   1
_chemical_formula_structural   Co2P2H4PbO10
_chemical_formula_sum   'Co4 P4 H8 Pb2 O20'
_cell_volume   397.90313887
_cell_formula_units_Z   2
loop_
 _symmetry_equiv_pos_site_id
 _symmetry_equiv_pos_as_xyz
  1  'x, y, z'
loop_
 _atom_site_type_symbol
 _atom_site_label
 _atom_site_symmetry_multiplicity
 _atom_site_fract_x
 _atom_site_fract_y
 _atom_site_fract_z
 _atom_site_occupancy
  Co  Co0  1  0.50000000  0.50000000  0.00000000  1
  Co  Co1  1  0.00000000  0.50000000  0.00000000  1
  Co  Co2  1  0.00000000  0.50000000  0.50000000  1
  Co  Co3  1  0.50000000  0.50000000  0.50000000  1
  P  P0  1  0.25000000  0.23133400  0.67757800  1
  P  P1  1  0.75000000  0.76866600  0.32242200  1
  P  P2  1  0.75000000  0.21062500  0.16186300  1
  P  P3  1  0.25000000  0.78937500  0.83813700  1
  H  H0  1  0.25000000  0.92145700  0.62394300  1
  H  H1  1  0.75000000  0.07854300  0.37605700  1
  H  H2  1  0.75000000  0.31125500  0.60468100  1
  H  H3  1  0.25000000  0.68874500  0.39531900  1
  H  H4  1  0.75000000  0.75006200  0.96358900  1
  H  H5  1  0.25000000  0.24993800  0.03641100  1
  H  H6  1  0.75000000  0.55054600  0.78338300  1
  H  H7  1  0.25000000  0.44945400  0.21661700  1
  Pb  Pb0  1  0.75000000  0.99024800  0.76714300  1
  Pb  Pb1  1  0.25000000  0.00975100  0.23285700  1
  O  O0  1  0.25000000  0.32428100  0.55410800  1
  O  O1  1  0.75000000  0.67571900  0.44589200  1
  O  O2  1  0.25000000  0.00093000  0.56093200  1
  O  O3  1  0.75000000  0.99907000  0.43906800  1
  O  O4  1  0.45284400  0.27038300  0.77874600  1
  O  O5  1  0.95284400  0.72961700  0.22125400  1
  O  O6  1  0.54715600  0.72961700  0.22125400  1
  O  O7  1  0.04715600  0.27038300  0.77874600  1
  O  O8  1  0.75000000  0.99635300  0.03494700  1
  O  O9  1  0.25000000  0.00364700  0.96505300  1
  O  O10  1  0.75000000  0.33965100  0.06344800  1
  O  O11  1  0.25000000  0.66034900  0.93655200  1
  O  O12  1  0.55310000  0.24874800  0.27415600  1
  O  O13  1  0.05310000  0.75125200  0.72584400  1
  O  O14  1  0.44690000  0.75125200  0.72584400  1
  O  O15  1  0.94690000  0.24874800  0.27415600  1
  O  O16  1  0.75000000  0.44187800  0.60871600  1
  O  O17  1  0.25000000  0.55812200  0.39128400  1
  O  O18  1  0.75000000  0.60504400  0.91186700  1
  O  O19  1  0.25000000  0.39495600  0.08813300  1
loop_
_geom_bond_atom_site_label_1
_geom_bond_atom_site_label_2
_geom_bond_distance
_geom_bond_site_symmetry_2
Co0 O4 2.060146 1_554
Co0 O6 2.060146 1_555
Co0 O18 2.082080 1_554
Co0 O19 2.082080 1_555
Co0 O11 2.218752 1_554
Co0 O10 2.218752 1_555
Co1 O5 2.060146 1_455
Co1 O7 2.060146 1_554
Co1 O18 2.082080 1_454
Co1 O19 2.082080 1_555
Co1 O11 2.218752 1_554
Co1 O10 2.218752 1_455
Co2 O17 2.015179 1_555
Co2 O16 2.015179 1_455
Co2 O15 2.167267 1_455
Co2 O13 2.167267 1_555
Co2 O1 2.256481 1_455
Co2 O0 2.256481 1_555
Co3 O17 2.015179 1_555
Co3 O16 2.015179 1_555
Co3 O12 2.167267 1_555
Co3 O14 2.167267 1_555
Co3 O1 2.256481 1_555
Co3 O0 2.256481 1_555
H0 O2 0.985014 1_565
H1 O3 0.985014 1_545
H2 O16 0.974825 1_555
H3 O17 0.974825 1_555
H4 O18 1.000424 1_555
H4 O8 1.703494 1_556
H5 O19 1.000424 1_555
H5 O9 1.703494 1_554
H6 O18 1.060287 1_555
H6 O16 1.448619 1_555
H7 O19 1.060287 1_555
H7 O17 1.448619 1_555
O0 P0 1.546407 1_555
O1 P1 1.546407 1_555
O2 P0 1.624062 1_555
O3 P1 1.624062 1_555
O4 P0 1.541180 1_555
O5 P1 1.541180 1_555
O6 P1 1.541180 1_555
O7 P0 1.541180 1_555
O8 P2 1.553250 1_565
O8 Pb0 2.402989 1_554
O9 P3 1.553250 1_545
O9 Pb1 2.402992 1_556
O10 P2 1.570126 1_555
O11 P3 1.570126 1_555
O12 P2 1.565231 1_555
O12 Pb1 2.568283 1_555
O13 P3 1.565231 1_555
O13 Pb0 2.568278 1_455
O14 P3 1.565231 1_555
O14 Pb0 2.568278 1_555
O15 P2 1.565231 1_555
O15 Pb1 2.568283 1_655
