# generated using pymatgen
data_CeSe2
_symmetry_space_group_name_H-M   'P 1'
_cell_length_a   14.83721774
_cell_length_b   14.83721774
_cell_length_c   14.83721774
_cell_angle_alpha   109.47122042
_cell_angle_beta   109.47122074
_cell_angle_gamma   109.47122074
_symmetry_Int_Tables_number   1
_chemical_formula_structural   CeSe2
_chemical_formula_sum   'Ce12 Se24'
_cell_volume   2514.40666796
_cell_formula_units_Z   12
loop_
 _symmetry_equiv_pos_site_id
 _symmetry_equiv_pos_as_xyz
  1  'x, y, z'
loop_
 _atom_site_type_symbol
 _atom_site_label
 _atom_site_symmetry_multiplicity
 _atom_site_fract_x
 _atom_site_fract_y
 _atom_site_fract_z
 _atom_site_occupancy
  Ce  Ce0  1  0.12500000  0.87500000  0.75000000  1
  Ce  Ce1  1  0.37500000  0.62500000  0.25000000  1
  Ce  Ce2  1  0.25000000  0.12500000  0.37500000  1
  Ce  Ce3  1  0.75000000  0.37500000  0.12500000  1
  Ce  Ce4  1  0.62500000  0.75000000  0.87500000  1
  Ce  Ce5  1  0.87500000  0.25000000  0.62500000  1
  Ce  Ce6  1  0.87500000  0.12500000  0.25000000  1
  Ce  Ce7  1  0.62500000  0.37500000  0.75000000  1
  Ce  Ce8  1  0.75000000  0.87500000  0.62500000  1
  Ce  Ce9  1  0.25000000  0.62500000  0.87500000  1
  Ce  Ce10  1  0.37500000  0.25000000  0.12500000  1
  Ce  Ce11  1  0.12500000  0.75000000  0.37500000  1
  Se  Se0  1  0.90657283  0.59342717  0.25000000  1
  Se  Se1  1  0.59342717  0.34342717  0.18685433  1
  Se  Se2  1  0.15657283  0.90657283  0.31314567  1
  Se  Se3  1  0.34342717  0.15657283  0.25000000  1
  Se  Se4  1  0.75000000  0.34342717  0.65657283  1
  Se  Se5  1  0.81314567  0.15657283  0.40657283  1
  Se  Se6  1  0.68685433  0.59342717  0.84342717  1
  Se  Se7  1  0.75000000  0.90657283  0.09342717  1
  Se  Se8  1  0.34342717  0.68685433  0.09342717  1
  Se  Se9  1  0.59342717  0.75000000  0.40657283  1
  Se  Se10  1  0.15657283  0.75000000  0.84342717  1
  Se  Se11  1  0.90657283  0.81314567  0.65657283  1
  Se  Se12  1  0.09342717  0.40657283  0.75000000  1
  Se  Se13  1  0.40657283  0.65657283  0.81314567  1
  Se  Se14  1  0.84342717  0.09342717  0.68685433  1
  Se  Se15  1  0.65657283  0.84342717  0.75000000  1
  Se  Se16  1  0.25000000  0.65657283  0.34342717  1
  Se  Se17  1  0.18685433  0.84342717  0.59342717  1
  Se  Se18  1  0.31314567  0.40657283  0.15657283  1
  Se  Se19  1  0.25000000  0.09342717  0.90657283  1
  Se  Se20  1  0.65657283  0.31314567  0.90657283  1
  Se  Se21  1  0.40657283  0.25000000  0.59342717  1
  Se  Se22  1  0.84342717  0.25000000  0.15657283  1
  Se  Se23  1  0.09342717  0.18685433  0.34342717  1
loop_
_geom_bond_atom_site_label_1
_geom_bond_atom_site_label_2
_geom_bond_distance
_geom_bond_site_symmetry_2
Ce0 Se17 2.727815 1_555
Ce0 Se10 2.727815 1_555
Ce0 Se19 2.727815 1_565
Ce0 Se11 2.727815 1_455
Ce1 Se8 2.727815 1_555
Ce1 Se9 2.727815 1_555
Ce1 Se16 2.727815 1_555
Ce1 Se18 2.727815 1_555
Ce2 Se23 2.727815 1_555
Ce2 Se21 2.727815 1_555
Ce2 Se3 2.727815 1_555
Ce2 Se2 2.727815 1_545
Ce3 Se1 2.727815 1_555
Ce3 Se0 2.727815 1_555
Ce3 Se22 2.727815 1_555
Ce3 Se20 2.727815 1_554
Ce4 Se6 2.727815 1_555
Ce4 Se15 2.727815 1_555
Ce4 Se7 2.727815 1_556
Ce4 Se13 2.727815 1_555
Ce5 Se14 2.727815 1_555
Ce5 Se12 2.727815 1_655
Ce5 Se4 2.727815 1_555
Ce5 Se5 2.727815 1_555
Ce6 Se5 2.727815 1_555
Ce6 Se22 2.727815 1_555
Ce6 Se7 2.727815 1_545
Ce6 Se23 2.727815 1_655
Ce7 Se20 2.727815 1_555
Ce7 Se21 2.727815 1_555
Ce7 Se4 2.727815 1_555
Ce7 Se6 2.727815 1_555
Ce8 Se11 2.727815 1_555
Ce8 Se15 2.727815 1_555
Ce8 Se9 2.727815 1_555
Ce8 Se14 2.727815 1_565
Ce9 Se13 2.727815 1_555
Ce9 Se12 2.727815 1_555
Ce9 Se10 2.727815 1_555
Ce9 Se8 2.727815 1_556
Ce10 Se18 2.727815 1_555
Ce10 Se3 2.727815 1_555
Ce10 Se19 2.727815 1_554
Ce10 Se1 2.727815 1_555
Ce11 Se2 2.727815 1_555
Ce11 Se0 2.727815 1_455
Ce11 Se16 2.727815 1_555
Ce11 Se17 2.727815 1_555
