# generated using pymatgen
data_Hf2Al3Zn
_symmetry_space_group_name_H-M   'P 1'
_cell_length_a   5.17950876
_cell_length_b   5.17950876
_cell_length_c   5.17950893
_cell_angle_alpha   60.96301352
_cell_angle_beta   60.96301352
_cell_angle_gamma   60.96301562
_symmetry_Int_Tables_number   1
_chemical_formula_structural   Hf2Al3Zn
_chemical_formula_sum   'Hf2 Al3 Zn1'
_cell_volume   100.38595035
_cell_formula_units_Z   1
loop_
 _symmetry_equiv_pos_site_id
 _symmetry_equiv_pos_as_xyz
  1  'x, y, z'
loop_
 _atom_site_type_symbol
 _atom_site_label
 _atom_site_symmetry_multiplicity
 _atom_site_fract_x
 _atom_site_fract_y
 _atom_site_fract_z
 _atom_site_occupancy
  Hf  Hf0  1  0.62453332  0.62453332  0.62453332  1
  Hf  Hf1  1  0.37546668  0.37546668  0.37546668  1
  Al  Al0  1  0.00000000  0.50000000  -0.00000000  1
  Al  Al1  1  0.50000000  0.00000000  -0.00000000  1
  Al  Al2  1  0.00000000  0.00000000  0.50000000  1
  Zn  Zn0  1  0.00000000  0.00000000  -0.00000000  1
loop_
_geom_bond_atom_site_label_1
_geom_bond_atom_site_label_2
_geom_bond_distance
_geom_bond_site_symmetry_2
Hf0 Zn0 3.079868 1_665
Hf0 Zn0 3.079868 1_656
Hf0 Zn0 3.079868 1_566
Hf0 Hf1 3.136753 1_555
Hf0 Hf1 3.214076 1_655
Hf0 Hf1 3.214076 1_565
Hf0 Hf1 3.214076 1_556
Hf1 Zn0 3.079868 1_556
Hf1 Zn0 3.079868 1_655
Hf1 Zn0 3.079868 1_565
Al0 Zn0 2.589754 1_565
Al0 Zn0 2.589754 1_555
Al0 Al2 2.627359 1_555
Al0 Al2 2.627359 1_564
Al0 Al1 2.627359 1_465
Al0 Al1 2.627359 1_555
Al0 Hf0 3.035783 1_454
Al0 Hf1 3.035783 1_555
Al0 Hf1 3.059872 1_455
Al0 Hf0 3.059872 1_554
Al0 Hf0 3.059873 1_455
Al0 Hf1 3.059873 1_554
Al1 Zn0 2.589754 1_655
Al1 Zn0 2.589754 1_555
Al1 Al2 2.627359 1_555
Al1 Al2 2.627359 1_654
Al1 Hf0 3.035783 1_544
Al1 Hf1 3.035783 1_555
Al1 Hf1 3.059872 1_545
Al1 Hf0 3.059872 1_554
Al1 Hf1 3.059873 1_554
Al1 Hf0 3.059873 1_545
Al2 Zn0 2.589754 1_555
Al2 Zn0 2.589754 1_556
Al2 Hf0 3.035783 1_445
Al2 Hf1 3.035783 1_555
Al2 Hf1 3.059873 1_455
Al2 Hf0 3.059873 1_545
Al2 Hf1 3.059873 1_545
Al2 Hf0 3.059873 1_455
