# generated using pymatgen
data_LiTa2Te4Br10O
_symmetry_space_group_name_H-M   'P 1'
_cell_length_a   7.92211326
_cell_length_b   9.11208834
_cell_length_c   9.96570788
_cell_angle_alpha   83.40459267
_cell_angle_beta   94.41892861
_cell_angle_gamma   77.21638941
_symmetry_Int_Tables_number   1
_chemical_formula_structural   LiTa2Te4Br10O
_chemical_formula_sum   'Li1 Ta2 Te4 Br10 O1'
_cell_volume   693.01061949
_cell_formula_units_Z   1
loop_
 _symmetry_equiv_pos_site_id
 _symmetry_equiv_pos_as_xyz
  1  'x, y, z'
loop_
 _atom_site_type_symbol
 _atom_site_label
 _atom_site_symmetry_multiplicity
 _atom_site_fract_x
 _atom_site_fract_y
 _atom_site_fract_z
 _atom_site_occupancy
  Li  Li0  1  0.60669000  0.00491400  0.58239600  1
  Ta  Ta0  1  0.47780300  0.36685100  0.36287000  1
  Ta  Ta1  1  0.51987800  0.62626000  0.63163400  1
  Te  Te0  1  0.91652400  0.82646700  0.01043800  1
  Te  Te1  1  0.09532500  0.19399800  0.00223700  1
  Te  Te2  1  0.18806100  0.90970500  0.15207400  1
  Te  Te3  1  0.80914900  0.11806100  0.87414100  1
  Br  Br0  1  0.45658200  0.17679300  0.18828200  1
  Br  Br1  1  0.62142600  0.51422900  0.20282400  1
  Br  Br2  1  0.17778600  0.52465600  0.27460700  1
  Br  Br3  1  0.77253000  0.19084900  0.46075100  1
  Br  Br4  1  0.67346900  0.77502400  0.46064800  1
  Br  Br5  1  0.32895600  0.20999000  0.53018400  1
  Br  Br6  1  0.23085500  0.79623100  0.54693100  1
  Br  Br7  1  0.82721300  0.47431300  0.72916200  1
  Br  Br8  1  0.39741800  0.48756500  0.81475700  1
  Br  Br9  1  0.55844800  0.83870900  0.79869500  1
  O  O0  1  0.50022300  0.49395300  0.50236300  1
loop_
_geom_bond_atom_site_label_1
_geom_bond_atom_site_label_2
_geom_bond_distance
_geom_bond_site_symmetry_2
Te0 Te3 2.760626 1_564
Te0 Te2 2.774010 1_655
Te1 Te2 2.753239 1_545
Te1 Te3 2.774778 1_454
Br0 Ta0 2.613552 1_555
Br0 Te1 3.251113 1_555
Br1 Ta0 2.470984 1_555
Br2 Ta0 2.522943 1_555
Br3 Ta0 2.570537 1_555
Br3 Li0 2.612446 1_555
Br4 Li0 2.516428 1_565
Br4 Ta1 2.596237 1_555
Br5 Li0 2.526746 1_555
Br5 Ta0 2.591346 1_555
Br6 Ta1 2.487248 1_555
Br7 Ta1 2.573718 1_555
Br8 Ta1 2.480808 1_555
Br9 Li0 2.592172 1_565
Br9 Ta1 2.745262 1_555
Br9 Te0 3.375752 1_556
O0 Ta1 1.883162 1_555
O0 Ta0 1.930862 1_555
