# generated using pymatgen
data_K
_symmetry_space_group_name_H-M   'P 1'
_cell_length_a   8.49038117
_cell_length_b   8.49038117
_cell_length_c   8.49038117
_cell_angle_alpha   90.00000000
_cell_angle_beta   90.00000000
_cell_angle_gamma   90.00000000
_symmetry_Int_Tables_number   1
_chemical_formula_structural   K
_chemical_formula_sum   K8
_cell_volume   612.04247702
_cell_formula_units_Z   8
loop_
 _symmetry_equiv_pos_site_id
 _symmetry_equiv_pos_as_xyz
  1  'x, y, z'
loop_
 _atom_site_type_symbol
 _atom_site_label
 _atom_site_symmetry_multiplicity
 _atom_site_fract_x
 _atom_site_fract_y
 _atom_site_fract_z
 _atom_site_occupancy
  K  K0  1  0.00000000  0.00000000  0.00000000  1
  K  K1  1  0.50000100  0.25000000  -0.00000000  1
  K  K2  1  0.50000100  0.75000000  -0.00000000  1
  K  K3  1  -0.00000000  0.50000100  0.25000000  1
  K  K4  1  0.25000000  -0.00000000  0.50000100  1
  K  K5  1  0.75000000  -0.00000000  0.50000100  1
  K  K6  1  0.50000100  0.50000100  0.50000100  1
  K  K7  1  -0.00000000  0.50000100  0.75000000  1
loop_
_geom_bond_atom_site_label_1
_geom_bond_atom_site_label_2
_geom_bond_distance
_geom_bond_site_symmetry_2
K0 K3 4.746260 1_545
K0 K7 4.746260 1_544
K0 K1 4.746260 1_455
K0 K2 4.746260 1_445
K0 K5 4.746260 1_454
K0 K4 4.746260 1_554
K0 K1 4.746275 1_555
K0 K7 4.746275 1_554
K0 K3 4.746275 1_555
K0 K4 4.746275 1_555
K0 K5 4.746275 1_455
K0 K2 4.746275 1_545
K1 K2 4.245191 1_555
K1 K2 4.245191 1_545
K1 K6 4.746264 1_554
K1 K6 4.746279 1_555
K2 K6 4.746256 1_554
K2 K6 4.746271 1_555
K3 K7 4.245191 1_554
K3 K7 4.245191 1_555
K3 K6 4.746264 1_455
K3 K6 4.746279 1_555
K4 K5 4.245191 1_455
K4 K5 4.245191 1_555
K4 K6 4.746264 1_545
K4 K6 4.746279 1_555
K5 K6 4.746256 1_545
K5 K6 4.746271 1_555
K6 K7 4.746256 1_655
K6 K7 4.746271 1_555
