# generated using pymatgen
data_Na2B4O7
_symmetry_space_group_name_H-M   'P 1'
_cell_length_a   6.50786174
_cell_length_b   8.61043796
_cell_length_c   10.40948701
_cell_angle_alpha   92.98035177
_cell_angle_beta   95.00825890
_cell_angle_gamma   90.40832008
_symmetry_Int_Tables_number   1
_chemical_formula_structural   Na2B4O7
_chemical_formula_sum   'Na8 B16 O28'
_cell_volume   580.24840840
_cell_formula_units_Z   4
loop_
 _symmetry_equiv_pos_site_id
 _symmetry_equiv_pos_as_xyz
  1  'x, y, z'
loop_
 _atom_site_type_symbol
 _atom_site_label
 _atom_site_symmetry_multiplicity
 _atom_site_fract_x
 _atom_site_fract_y
 _atom_site_fract_z
 _atom_site_occupancy
  Na  Na0  1  0.55263416  0.08073837  0.14341538  1
  Na  Na1  1  0.44736584  0.91926163  0.85658462  1
  Na  Na2  1  0.53407874  0.54176386  0.76794703  1
  Na  Na3  1  0.46592126  0.45823614  0.23205297  1
  Na  Na4  1  0.82536450  0.65989245  0.98264470  1
  Na  Na5  1  0.17463550  0.34010755  0.01735530  1
  Na  Na6  1  0.88962989  0.87115391  0.38550127  1
  Na  Na7  1  0.11037011  0.12884609  0.61449873  1
  B  B0  1  0.65490852  0.24084307  0.59235446  1
  B  B1  1  0.34509148  0.75915693  0.40764554  1
  B  B2  1  0.61178028  0.82263817  0.57662664  1
  B  B3  1  0.38821972  0.17736183  0.42337336  1
  B  B4  1  0.94564052  0.44748560  0.27888850  1
  B  B5  1  0.05435948  0.55251440  0.72111150  1
  B  B6  1  0.84467966  0.05598914  0.86981614  1
  B  B7  1  0.15532034  0.94401086  0.13018386  1
  B  B8  1  0.88384454  0.31562462  0.80160513  1
  B  B9  1  0.11615546  0.68437538  0.19839487  1
  B  B10  1  0.74750856  0.23946500  0.36762428  1
  B  B11  1  0.25249144  0.76053500  0.63237572  1
  B  B12  1  0.93160819  0.82385917  0.73087132  1
  B  B13  1  0.06839181  0.17614083  0.26912868  1
  B  B14  1  0.67080253  0.27942596  0.97708793  1
  B  B15  1  0.32919747  0.72057404  0.02291207  1
  O  O0  1  0.85667987  0.13536758  0.28468559  1
  O  O1  1  0.80122987  0.22018920  0.50790710  1
  O  O2  1  0.21947026  0.59693342  0.65941611  1
  O  O3  1  0.78052974  0.40306658  0.34058389  1
  O  O4  1  0.47673544  0.79257193  0.66431703  1
  O  O5  1  0.19877013  0.77981080  0.49209290  1
  O  O6  1  0.30837784  0.69359466  0.28654008  1
  O  O7  1  0.69162216  0.30640534  0.71345992  1
  O  O8  1  0.03214089  0.84268919  0.18497953  1
  O  O9  1  0.96785911  0.15731081  0.81502047  1
  O  O10  1  0.18456716  0.62369646  0.07299017  1
  O  O11  1  0.81543284  0.37630354  0.92700983  1
  O  O12  1  0.05073213  0.40289837  0.75867117  1
  O  O13  1  0.94926787  0.59710163  0.24132883  1
  O  O14  1  0.44996193  0.19572788  0.55518852  1
  O  O15  1  0.55003807  0.80427212  0.44481148  1
  O  O16  1  0.30527400  0.88606309  0.05334202  1
  O  O17  1  0.69472600  0.11393691  0.94665798  1
  O  O18  1  0.47651334  0.67903876  0.95122658  1
  O  O19  1  0.52348666  0.32096124  0.04877342  1
  O  O20  1  0.90186748  0.65474676  0.75047837  1
  O  O21  1  0.09813252  0.34525324  0.24952163  1
  O  O22  1  0.80907838  0.86748932  0.61029511  1
  O  O23  1  0.19092162  0.13251068  0.38970489  1
  O  O24  1  0.85112399  0.90003439  0.84747008  1
  O  O25  1  0.14887601  0.09996561  0.15252992  1
  O  O26  1  0.52326456  0.20742807  0.33568297  1
  O  O27  1  0.14332013  0.86463242  0.71531441  1
loop_
_geom_bond_atom_site_label_1
_geom_bond_atom_site_label_2
_geom_bond_distance
_geom_bond_site_symmetry_2
Na0 O26 2.252744 1_555
Na0 O19 2.338759 1_555
Na0 O17 2.349361 1_554
Na0 O0 2.388670 1_555
Na0 O16 2.411408 1_545
Na0 O25 2.643633 1_555
Na1 O4 2.252744 1_555
Na1 O18 2.338759 1_555
Na1 O16 2.349361 1_556
Na1 O27 2.388670 1_555
Na1 O17 2.411408 1_565
Na1 O24 2.643633 1_555
Na2 O18 2.252542 1_555
Na2 O2 2.315117 1_555
Na2 O7 2.343366 1_555
Na2 O4 2.479942 1_555
Na2 O20 2.601845 1_555
Na2 O11 2.806605 1_555
Na3 O19 2.252542 1_555
Na3 O3 2.315117 1_555
Na3 O6 2.343366 1_555
Na3 O26 2.479942 1_555
Na3 O21 2.601845 1_555
Na3 O10 2.806605 1_555
Na4 O18 2.273673 1_555
Na4 O10 2.470459 1_656
Na4 O11 2.479161 1_555
Na4 O20 2.507926 1_555
Na4 O24 2.573387 1_555
Na4 O8 2.802588 1_656
Na4 O13 2.823474 1_556
Na5 O19 2.273673 1_555
Na5 O11 2.470459 1_454
Na5 O10 2.479161 1_555
Na5 O21 2.507926 1_555
Na5 O25 2.573387 1_555
Na5 O9 2.802588 1_454
Na5 O12 2.823474 1_554
Na6 O8 2.359068 1_655
Na6 O5 2.370818 1_655
Na6 O15 2.419513 1_555
Na6 O22 2.443965 1_555
Na6 O0 2.557115 1_565
Na6 O13 2.778065 1_555
Na6 O23 2.970301 1_665
Na7 O9 2.359068 1_455
Na7 O1 2.370818 1_455
Na7 O14 2.419513 1_555
Na7 O23 2.443965 1_555
Na7 O27 2.557115 1_545
Na7 O12 2.778065 1_555
Na7 O22 2.970301 1_445
B0 O7 1.355168 1_555
B0 O1 1.357730 1_555
B0 O14 1.402283 1_555
B1 O6 1.355168 1_555
B1 O5 1.357730 1_555
B1 O15 1.402283 1_555
B2 O22 1.349402 1_555
B2 O4 1.354263 1_555
B2 O15 1.396232 1_555
B3 O23 1.349402 1_555
B3 O26 1.354263 1_555
B3 O14 1.396232 1_555
B4 O3 1.361427 1_555
B4 O13 1.366231 1_555
B4 O21 1.374993 1_655
B5 O2 1.361427 1_555
B5 O12 1.366231 1_555
B5 O20 1.374993 1_455
B6 O24 1.352445 1_545
B6 O9 1.360406 1_555
B6 O17 1.393857 1_555
B7 O25 1.352445 1_565
B7 O8 1.360406 1_555
B7 O16 1.393857 1_555
B8 O12 1.432498 1_655
B8 O9 1.481118 1_555
B8 O7 1.484483 1_555
B8 O11 1.486312 1_555
B9 O13 1.432498 1_455
B9 O8 1.481118 1_555
B9 O6 1.484483 1_555
B9 O10 1.486312 1_555
B10 O0 1.445421 1_555
B10 O3 1.468765 1_555
B10 O26 1.488741 1_555
B10 O1 1.489652 1_555
B11 O27 1.445421 1_555
B11 O2 1.468765 1_555
B11 O4 1.488741 1_555
B11 O5 1.489652 1_555
B12 O27 1.444217 1_655
B12 O24 1.486880 1_555
B12 O22 1.493624 1_555
B12 O20 1.494397 1_555
B13 O0 1.444217 1_455
B13 O25 1.486880 1_555
B13 O23 1.493624 1_555
B13 O21 1.494397 1_555
B14 O19 1.306102 1_556
B14 O11 1.404698 1_555
B14 O17 1.455970 1_555
B15 O18 1.306102 1_554
B15 O10 1.404698 1_555
B15 O16 1.455970 1_555
