# generated using pymatgen
data_Nd(CrFe5)2
_symmetry_space_group_name_H-M   'P 1'
_cell_length_a   4.68932500
_cell_length_b   6.44559494
_cell_length_c   6.44559494
_cell_angle_alpha   97.25195169
_cell_angle_beta   111.33140908
_cell_angle_gamma   68.66859092
_symmetry_Int_Tables_number   1
_chemical_formula_structural   Nd(CrFe5)2
_chemical_formula_sum   'Nd1 Cr2 Fe10'
_cell_volume   169.03781606
_cell_formula_units_Z   1
loop_
 _symmetry_equiv_pos_site_id
 _symmetry_equiv_pos_as_xyz
  1  'x, y, z'
loop_
 _atom_site_type_symbol
 _atom_site_label
 _atom_site_symmetry_multiplicity
 _atom_site_fract_x
 _atom_site_fract_y
 _atom_site_fract_z
 _atom_site_occupancy
  Nd  Nd0  1  0.00000000  0.00000000  0.00000000  1
  Cr  Cr0  1  0.00000000  0.36812300  0.36812300  1
  Cr  Cr1  1  0.00000000  0.63187700  0.63187700  1
  Fe  Fe0  1  0.72975100  0.77024900  0.22975100  1
  Fe  Fe1  1  0.27024900  0.22975100  0.77024900  1
  Fe  Fe2  1  0.50000000  0.76900300  0.76900300  1
  Fe  Fe3  1  0.50000000  0.23099700  0.23099700  1
  Fe  Fe4  1  0.50000000  0.00000000  0.50000000  1
  Fe  Fe5  1  0.00000000  0.00000000  0.50000000  1
  Fe  Fe6  1  0.50000000  0.50000000  0.00000000  1
  Fe  Fe7  1  0.00000000  0.50000000  0.00000000  1
  Fe  Fe8  1  0.63938100  0.36061900  0.63938100  1
  Fe  Fe9  1  0.36061900  0.63938100  0.36061900  1
loop_
_geom_bond_atom_site_label_1
_geom_bond_atom_site_label_2
_geom_bond_distance
_geom_bond_site_symmetry_2
Cr0 Cr1 2.247372 1_555
Cr0 Fe0 2.547793 1_455
Cr0 Fe1 2.547793 1_555
Cr0 Fe7 2.619502 1_555
Cr0 Fe5 2.619502 1_555
Cr0 Fe4 2.619502 1_555
Cr0 Fe6 2.619502 1_455
Cr0 Fe3 2.619662 1_455
Cr0 Fe3 2.619662 1_555
Cr0 Fe9 2.854979 1_555
Cr0 Fe8 2.854979 1_455
Cr0 Fe8 2.854979 1_555
Cr0 Fe9 2.854979 1_455
Cr0 Nd0 3.136670 1_555
Cr1 Fe0 2.547793 1_455
Cr1 Fe1 2.547793 1_555
Cr1 Fe5 2.619502 1_565
Cr1 Fe7 2.619502 1_556
Cr1 Fe6 2.619502 1_556
Cr1 Fe4 2.619502 1_465
Cr1 Fe2 2.619662 1_455
Cr1 Fe2 2.619662 1_555
Cr1 Fe9 2.854979 1_555
Cr1 Fe8 2.854979 1_455
Cr1 Fe8 2.854979 1_555
Cr1 Fe9 2.854979 1_455
Cr1 Nd0 3.136670 1_566
Fe0 Fe4 2.437493 1_565
Fe0 Fe6 2.437493 1_555
Fe0 Fe7 2.437493 1_655
Fe0 Fe5 2.437493 1_665
Fe0 Fe9 2.592977 1_555
Fe0 Fe9 2.592978 1_655
Fe0 Fe3 2.766403 1_565
Fe0 Fe2 2.766403 1_554
Fe0 Nd0 3.045715 1_665
Fe0 Nd0 3.045716 1_565
Fe1 Fe6 2.437493 1_556
Fe1 Fe4 2.437493 1_555
Fe1 Fe7 2.437493 1_556
Fe1 Fe5 2.437493 1_555
Fe1 Fe8 2.592977 1_555
Fe1 Fe8 2.592978 1_455
Fe1 Fe3 2.766403 1_556
Fe1 Fe2 2.766403 1_545
Fe1 Nd0 3.045715 1_556
Fe1 Nd0 3.045716 1_656
Fe2 Fe4 2.423836 1_565
Fe2 Fe6 2.423836 1_556
Fe2 Fe7 2.423837 1_656
Fe2 Fe5 2.423837 1_565
Fe2 Fe9 2.577693 1_555
Fe2 Fe8 2.577693 1_555
Fe2 Nd0 3.061288 1_566
Fe2 Nd0 3.061288 1_666
Fe3 Fe4 2.423836 1_555
Fe3 Fe6 2.423836 1_555
Fe3 Fe5 2.423837 1_655
Fe3 Fe7 2.423837 1_555
Fe3 Fe9 2.577693 1_555
Fe3 Fe8 2.577693 1_555
Fe3 Nd0 3.061288 1_555
Fe3 Nd0 3.061288 1_655
Fe4 Fe5 2.344663 1_555
Fe4 Fe5 2.344663 1_655
Fe4 Fe9 2.605387 1_545
Fe4 Fe8 2.605387 1_555
Fe4 Nd0 3.222798 1_656
Fe4 Nd0 3.222798 1_555
Fe5 Fe9 2.605387 1_545
Fe5 Fe8 2.605387 1_455
Fe5 Nd0 3.222797 1_555
Fe5 Nd0 3.222797 1_556
Fe6 Fe7 2.344663 1_655
Fe6 Fe7 2.344663 1_555
Fe6 Fe8 2.605387 1_554
Fe6 Fe9 2.605387 1_555
Fe6 Nd0 3.222798 1_655
Fe6 Nd0 3.222798 1_565
Fe7 Fe9 2.605387 1_555
Fe7 Fe8 2.605387 1_454
Fe7 Nd0 3.222797 1_555
Fe7 Nd0 3.222797 1_565
Fe8 Fe9 2.358638 1_555
Fe8 Nd0 3.051239 1_656
Fe9 Nd0 3.051239 1_565
