# generated using pymatgen
data_LiZn2(BH4)5
_symmetry_space_group_name_H-M   'P 1'
_cell_length_a   10.11693751
_cell_length_b   10.11693751
_cell_length_c   15.20226368
_cell_angle_alpha   90.00000000
_cell_angle_beta   90.00000000
_cell_angle_gamma   131.01507642
_symmetry_Int_Tables_number   1
_chemical_formula_structural   LiZn2(BH4)5
_chemical_formula_sum   'Li4 Zn8 B20 H80'
_cell_volume   1174.05081016
_cell_formula_units_Z   4
loop_
 _symmetry_equiv_pos_site_id
 _symmetry_equiv_pos_as_xyz
  1  'x, y, z'
loop_
 _atom_site_type_symbol
 _atom_site_label
 _atom_site_symmetry_multiplicity
 _atom_site_fract_x
 _atom_site_fract_y
 _atom_site_fract_z
 _atom_site_occupancy
  Li  Li0  1  0.65982390  0.34017610  0.94099196  1
  Li  Li1  1  0.34017610  0.65982390  0.05900804  1
  Li  Li2  1  0.84017610  0.15982390  0.44099196  1
  Li  Li3  1  0.15982390  0.84017610  0.55900804  1
  Zn  Zn0  1  0.15220861  0.84779139  0.25475123  1
  Zn  Zn1  1  0.84779139  0.15220861  0.74524877  1
  Zn  Zn2  1  0.34779139  0.65220861  0.75475123  1
  Zn  Zn3  1  0.65220861  0.34779139  0.24524877  1
  Zn  Zn4  1  0.93059148  0.06940852  0.12703965  1
  Zn  Zn5  1  0.06940852  0.93059148  0.87296035  1
  Zn  Zn6  1  0.56940852  0.43059148  0.62703965  1
  Zn  Zn7  1  0.43059148  0.56940852  0.37296035  1
  B  B0  1  0.75905551  0.24094449  0.83858331  1
  B  B1  1  0.24094449  0.75905551  0.16141669  1
  B  B2  1  0.74094449  0.25905551  0.33858331  1
  B  B3  1  0.25905551  0.74094449  0.66141669  1
  B  B4  1  0.84249537  0.15750463  0.60235363  1
  B  B5  1  0.15750463  0.84249537  0.39764637  1
  B  B6  1  0.65750463  0.34249537  0.10235363  1
  B  B7  1  0.34249537  0.65750463  0.89764637  1
  B  B8  1  0.04301023  0.95698977  0.18486076  1
  B  B9  1  0.95698977  0.04301023  0.81513924  1
  B  B10  1  0.45698977  0.54301023  0.68486076  1
  B  B11  1  0.54301023  0.45698977  0.31513924  1
  B  B12  1  0.65250452  0.88209714  0.10042989  1
  B  B13  1  0.88209714  0.65250452  0.89957011  1
  B  B14  1  0.38209714  0.15250452  0.60042989  1
  B  B15  1  0.15250452  0.38209714  0.39957011  1
  B  B16  1  0.34749548  0.11790286  0.89957011  1
  B  B17  1  0.11790286  0.34749548  0.10042989  1
  B  B18  1  0.61790286  0.84749548  0.39957011  1
  B  B19  1  0.84749548  0.61790286  0.60042989  1
  H  H0  1  0.69757127  0.30242873  0.81195284  1
  H  H1  1  0.30242873  0.69757127  0.18804716  1
  H  H2  1  0.80242873  0.19757127  0.31195284  1
  H  H3  1  0.19757127  0.80242873  0.68804716  1
  H  H4  1  0.76886139  0.23113861  0.91706290  1
  H  H5  1  0.23113861  0.76886139  0.08293710  1
  H  H6  1  0.73113861  0.26886139  0.41706290  1
  H  H7  1  0.26886139  0.73113861  0.58293710  1
  H  H8  1  0.66197845  0.08673102  0.80948416  1
  H  H9  1  0.08673102  0.66197845  0.19051584  1
  H  H10  1  0.58673102  0.16197845  0.30948416  1
  H  H11  1  0.16197845  0.58673102  0.69051584  1
  H  H12  1  0.33802155  0.91326898  0.19051584  1
  H  H13  1  0.91326898  0.33802155  0.80948416  1
  H  H14  1  0.41326898  0.83802155  0.69051584  1
  H  H15  1  0.83802155  0.41326898  0.30948416  1
  H  H16  1  0.78609411  0.21390589  0.64676224  1
  H  H17  1  0.21390589  0.78609411  0.35323776  1
  H  H18  1  0.71390589  0.28609411  0.14676224  1
  H  H19  1  0.28609411  0.71390589  0.85323776  1
  H  H20  1  0.90094936  0.09905064  0.64415084  1
  H  H21  1  0.09905064  0.90094936  0.35584916  1
  H  H22  1  0.59905064  0.40094936  0.14415084  1
  H  H23  1  0.40094936  0.59905064  0.85584916  1
  H  H24  1  0.71968354  0.03451760  0.56164661  1
  H  H25  1  0.03451760  0.71968354  0.43835339  1
  H  H26  1  0.53451760  0.21968354  0.06164661  1
  H  H27  1  0.21968354  0.53451760  0.93835339  1
  H  H28  1  0.28031646  0.96548240  0.43835339  1
  H  H29  1  0.96548240  0.28031646  0.56164661  1
  H  H30  1  0.46548240  0.78031646  0.93835339  1
  H  H31  1  0.78031646  0.46548240  0.06164661  1
  H  H32  1  0.98867872  0.01132128  0.23160004  1
  H  H33  1  0.01132128  0.98867872  0.76839996  1
  H  H34  1  0.51132128  0.48867872  0.73160004  1
  H  H35  1  0.48867872  0.51132128  0.26839996  1
  H  H36  1  0.03423330  0.96576670  0.10489479  1
  H  H37  1  0.96576670  0.03423330  0.89510521  1
  H  H38  1  0.46576670  0.53423330  0.60489479  1
  H  H39  1  0.53423330  0.46576670  0.39510521  1
  H  H40  1  0.95026591  0.80025360  0.20157963  1
  H  H41  1  0.80025360  0.95026591  0.79842037  1
  H  H42  1  0.30025360  0.45026591  0.70157963  1
  H  H43  1  0.45026591  0.30025360  0.29842037  1
  H  H44  1  0.04973409  0.19974640  0.79842037  1
  H  H45  1  0.19974640  0.04973409  0.20157963  1
  H  H46  1  0.69974640  0.54973409  0.29842037  1
  H  H47  1  0.54973409  0.69974640  0.70157963  1
  H  H48  1  0.76469698  0.92498816  0.04386437  1
  H  H49  1  0.92498816  0.76469698  0.95613563  1
  H  H50  1  0.42498816  0.26469698  0.54386437  1
  H  H51  1  0.26469698  0.42498816  0.45613563  1
  H  H52  1  0.23530302  0.07501184  0.95613563  1
  H  H53  1  0.07501184  0.23530302  0.04386437  1
  H  H54  1  0.57501184  0.73530302  0.45613563  1
  H  H55  1  0.73530302  0.57501184  0.54386437  1
  H  H56  1  0.56638012  0.72724346  0.11286034  1
  H  H57  1  0.72724346  0.56638012  0.88713966  1
  H  H58  1  0.22724346  0.06638012  0.61286034  1
  H  H59  1  0.06638012  0.22724346  0.38713966  1
  H  H60  1  0.43361988  0.27275654  0.88713966  1
  H  H61  1  0.27275654  0.43361988  0.11286034  1
  H  H62  1  0.77275654  0.93361988  0.38713966  1
  H  H63  1  0.93361988  0.77275654  0.61286034  1
  H  H64  1  0.71478382  0.95473154  0.17383138  1
  H  H65  1  0.95473154  0.71478382  0.82616862  1
  H  H66  1  0.45473154  0.21478382  0.67383138  1
  H  H67  1  0.21478382  0.45473154  0.32616862  1
  H  H68  1  0.28521618  0.04526846  0.82616862  1
  H  H69  1  0.04526846  0.28521618  0.17383138  1
  H  H70  1  0.54526846  0.78521618  0.32616862  1
  H  H71  1  0.78521618  0.54526846  0.67383138  1
  H  H72  1  0.57879428  0.93026011  0.07318069  1
  H  H73  1  0.93026011  0.57879528  0.92681931  1
  H  H74  1  0.43026011  0.07879428  0.57318069  1
  H  H75  1  0.07879528  0.43026011  0.42681931  1
  H  H76  1  0.42120572  0.06973989  0.92681931  1
  H  H77  1  0.06973989  0.42120572  0.07318069  1
  H  H78  1  0.56973989  0.92120572  0.42681931  1
  H  H79  1  0.92120572  0.56973989  0.57318069  1
loop_
_geom_bond_atom_site_label_1
_geom_bond_atom_site_label_2
_geom_bond_distance
_geom_bond_site_symmetry_2
B0 H0 1.202327 1_555
B0 H4 1.206653 1_555
B0 H13 1.258271 1_555
B0 H8 1.258271 1_555
B1 H1 1.202327 1_555
B1 H5 1.206653 1_555
B1 H12 1.258271 1_555
B1 H9 1.258271 1_555
B2 H2 1.202327 1_555
B2 H6 1.206653 1_555
B2 H15 1.258271 1_555
B2 H10 1.258271 1_555
B3 H3 1.202327 1_555
B3 H7 1.206653 1_555
B3 H14 1.258271 1_555
B3 H11 1.258271 1_555
B4 H29 1.202409 1_555
B4 H24 1.202409 1_555
B4 H16 1.238672 1_555
B4 H20 1.249887 1_555
B5 H28 1.202409 1_555
B5 H25 1.202409 1_555
B5 H17 1.238672 1_555
B5 H21 1.249887 1_555
B6 H31 1.202409 1_555
B6 H26 1.202409 1_555
B6 H18 1.238672 1_555
B6 H22 1.249887 1_555
B7 H30 1.202409 1_555
B7 H27 1.202409 1_555
B7 H19 1.238672 1_555
B7 H23 1.249887 1_555
B8 H36 1.226359 1_555
B8 H32 1.227069 1_465
B8 H45 1.227433 1_565
B8 H40 1.227433 1_455
B9 H37 1.226359 1_555
B9 H33 1.227069 1_645
B9 H44 1.227433 1_655
B9 H41 1.227433 1_545
B10 H38 1.226359 1_555
B10 H34 1.227069 1_555
B10 H47 1.227433 1_555
B10 H42 1.227433 1_555
B11 H39 1.226359 1_555
B11 H35 1.227069 1_555
B11 H46 1.227433 1_555
B11 H43 1.227433 1_555
B12 H72 1.200852 1_555
B12 H56 1.207327 1_555
B12 H48 1.252853 1_555
B12 H64 1.254769 1_555
B13 H73 1.200843 1_555
B13 H57 1.207327 1_555
B13 H49 1.252853 1_555
B13 H65 1.254769 1_555
B14 H74 1.200852 1_555
B14 H58 1.207327 1_555
B14 H50 1.252853 1_555
B14 H66 1.254769 1_555
B15 H75 1.200843 1_555
B15 H59 1.207327 1_555
B15 H51 1.252853 1_555
B15 H67 1.254769 1_555
B16 H76 1.200852 1_555
B16 H60 1.207327 1_555
B16 H52 1.252853 1_555
B16 H68 1.254769 1_555
B17 H77 1.200852 1_555
B17 H61 1.207327 1_555
B17 H53 1.252853 1_555
B17 H69 1.254769 1_555
B18 H78 1.200852 1_555
B18 H62 1.207327 1_555
B18 H54 1.252853 1_555
B18 H70 1.254769 1_555
B19 H79 1.200852 1_555
B19 H63 1.207327 1_555
B19 H55 1.252853 1_555
B19 H71 1.254769 1_555
H0 Li0 2.081179 1_555
H1 Li1 2.081179 1_555
H2 Li2 2.081179 1_555
H3 Li3 2.081179 1_555
H4 Li0 2.040413 1_555
H5 Li1 2.040413 1_555
H6 Li2 2.040413 1_555
H7 Li3 2.040413 1_555
H8 Zn1 1.814341 1_555
H9 Zn0 1.814341 1_555
H10 Zn3 1.814341 1_555
H11 Zn2 1.814341 1_555
H12 Zn0 1.814341 1_555
H13 Zn1 1.814341 1_555
H14 Zn2 1.814341 1_555
H15 Zn3 1.814341 1_555
H16 Zn1 1.879429 1_555
H17 Zn0 1.879429 1_555
H18 Zn3 1.879429 1_555
H19 Zn2 1.879429 1_555
H20 Zn1 1.822135 1_555
H21 Zn0 1.822135 1_555
H22 Zn3 1.822135 1_555
H23 Zn2 1.822135 1_555
H24 Li2 2.104558 1_555
H25 Li3 2.104558 1_555
H26 Li0 2.104558 1_554
H27 Li1 2.104558 1_556
H28 Li3 2.104558 1_555
H29 Li2 2.104558 1_555
H30 Li1 2.104558 1_556
H31 Li0 2.104558 1_554
H32 Zn4 1.915897 1_555
H33 Zn5 1.915897 1_555
H34 Zn6 1.915897 1_555
H35 Zn7 1.915897 1_555
H36 Zn4 1.937839 1_465
H37 Zn5 1.937839 1_645
H38 Zn6 1.937839 1_555
H39 Zn7 1.937839 1_555
H40 Zn0 1.941410 1_655
H41 Zn1 1.941410 1_565
H42 Zn2 1.941410 1_555
H43 Zn3 1.941410 1_555
H44 Zn1 1.941410 1_455
H45 Zn0 1.941410 1_545
H46 Zn3 1.941410 1_555
H47 Zn2 1.941410 1_555
H48 Zn4 1.825349 1_565
H49 Zn5 1.825349 1_655
H50 Zn6 1.825349 1_555
H51 Zn7 1.825349 1_555
H52 Zn5 1.825349 1_545
H53 Zn4 1.825349 1_455
H54 Zn7 1.825349 1_555
H55 Zn6 1.825349 1_555
H56 Li1 2.079402 1_555
H57 Li0 2.079402 1_555
H58 Li3 2.079402 1_545
H59 Li2 2.079402 1_455
H60 Li0 2.079402 1_555
H61 Li1 2.079402 1_555
H62 Li2 2.079402 1_565
H63 Li3 2.079402 1_655
H64 Zn4 1.815001 1_565
H65 Zn5 1.815001 1_655
H66 Zn6 1.815001 1_555
H67 Zn7 1.815001 1_555
H68 Zn5 1.815001 1_545
H69 Zn4 1.815001 1_455
H70 Zn7 1.815001 1_555
H71 Zn6 1.815001 1_555
H72 Li1 2.165828 1_555
H73 Li0 2.165831 1_555
H74 Li3 2.165828 1_545
H75 Li2 2.165831 1_455
H76 Li0 2.165828 1_555
H77 Li1 2.165828 1_555
H78 Li2 2.165828 1_565
H79 Li3 2.165828 1_655
