# generated using pymatgen
data_Mg14NbCuO16
_symmetry_space_group_name_H-M   'P 1'
_cell_length_a   8.64531187
_cell_length_b   8.68051075
_cell_length_c   4.24437928
_cell_angle_alpha   90.00000000
_cell_angle_beta   90.00000000
_cell_angle_gamma   90.00000000
_symmetry_Int_Tables_number   1
_chemical_formula_structural   Mg14NbCuO16
_chemical_formula_sum   'Mg14 Nb1 Cu1 O16'
_cell_volume   318.52251016
_cell_formula_units_Z   1
loop_
 _symmetry_equiv_pos_site_id
 _symmetry_equiv_pos_as_xyz
  1  'x, y, z'
loop_
 _atom_site_type_symbol
 _atom_site_label
 _atom_site_symmetry_multiplicity
 _atom_site_fract_x
 _atom_site_fract_y
 _atom_site_fract_z
 _atom_site_occupancy
  Mg  Mg0  1  0.50000000  0.00000000  -0.00000000  1
  Mg  Mg1  1  0.50000000  0.50000000  -0.00000000  1
  Mg  Mg2  1  -0.00000000  0.23417963  0.50000000  1
  Mg  Mg3  1  -0.00000000  0.76582037  0.50000000  1
  Mg  Mg4  1  0.50000000  0.24637539  0.50000000  1
  Mg  Mg5  1  0.50000000  0.75362461  0.50000000  1
  Mg  Mg6  1  0.24866403  -0.00000000  0.50000000  1
  Mg  Mg7  1  0.25854567  0.50000000  0.50000000  1
  Mg  Mg8  1  0.75133597  0.00000000  0.50000000  1
  Mg  Mg9  1  0.74145433  0.50000000  0.50000000  1
  Mg  Mg10  1  0.25146681  0.24119475  0.00000000  1
  Mg  Mg11  1  0.25146681  0.75880525  0.00000000  1
  Mg  Mg12  1  0.74853319  0.24119475  -0.00000000  1
  Mg  Mg13  1  0.74853319  0.75880525  0.00000000  1
  Nb  Nb0  1  -0.00000000  0.50000000  -0.00000000  1
  Cu  Cu0  1  -0.00000000  0.00000000  -0.00000000  1
  O  O0  1  0.26721923  0.00000000  -0.00000000  1
  O  O1  1  0.25623628  0.50000000  -0.00000000  1
  O  O2  1  0.73278077  0.00000000  -0.00000000  1
  O  O3  1  0.74376372  0.50000000  -0.00000000  1
  O  O4  1  0.24809087  0.25118573  0.50000000  1
  O  O5  1  0.24809087  0.74881427  0.50000000  1
  O  O6  1  0.75190913  0.25118573  0.50000000  1
  O  O7  1  0.75190913  0.74881427  0.50000000  1
  O  O8  1  -0.00000000  0.00000000  0.50000000  1
  O  O9  1  -0.00000000  0.50000000  0.50000000  1
  O  O10  1  0.50000000  0.00000000  0.50000000  1
  O  O11  1  0.50000000  0.50000000  0.50000000  1
  O  O12  1  -0.00000000  0.25536595  0.00000000  1
  O  O13  1  -0.00000000  0.74463405  -0.00000000  1
  O  O14  1  0.50000000  0.25380938  -0.00000000  1
  O  O15  1  0.50000000  0.74619062  0.00000000  1
loop_
_geom_bond_atom_site_label_1
_geom_bond_atom_site_label_2
_geom_bond_distance
_geom_bond_site_symmetry_2
Mg0 O2 2.012462 1_555
Mg0 O0 2.012462 1_555
Mg0 O10 2.122190 1_555
Mg0 O10 2.122190 1_554
Mg0 O15 2.203195 1_545
Mg0 O14 2.203195 1_555
Mg1 O3 2.107413 1_555
Mg1 O1 2.107413 1_555
Mg1 O11 2.122190 1_554
Mg1 O11 2.122190 1_555
Mg1 O14 2.137060 1_555
Mg1 O15 2.137060 1_555
Mg2 O8 2.032799 1_555
Mg2 O12 2.130143 1_556
Mg2 O12 2.130143 1_555
Mg2 O6 2.149897 1_455
Mg2 O4 2.149897 1_555
Mg2 O9 2.307457 1_555
Mg3 O8 2.032799 1_565
Mg3 O13 2.130143 1_555
Mg3 O13 2.130143 1_556
Mg3 O7 2.149897 1_455
Mg3 O5 2.149897 1_555
Mg3 O9 2.307457 1_555
Mg4 O14 2.123171 1_556
Mg4 O14 2.123171 1_555
Mg4 O10 2.138664 1_555
Mg4 O4 2.178233 1_555
Mg4 O6 2.178233 1_555
Mg4 O11 2.201591 1_555
Mg5 O15 2.123171 1_556
Mg5 O15 2.123171 1_555
Mg5 O10 2.138664 1_565
Mg5 O5 2.178233 1_555
Mg5 O7 2.178233 1_555
Mg5 O11 2.201591 1_555
Mg6 O0 2.128244 1_555
Mg6 O0 2.128244 1_556
Mg6 O8 2.149778 1_555
Mg6 O10 2.172878 1_555
Mg6 O5 2.180426 1_545
Mg6 O4 2.180426 1_555
Mg7 O11 2.087448 1_555
Mg7 O1 2.122284 1_556
Mg7 O1 2.122284 1_555
Mg7 O4 2.161725 1_555
Mg7 O5 2.161725 1_555
Mg7 O9 2.235208 1_555
Mg8 O2 2.128244 1_555
Mg8 O2 2.128244 1_556
Mg8 O8 2.149778 1_655
Mg8 O10 2.172878 1_555
Mg8 O7 2.180426 1_545
Mg8 O6 2.180426 1_555
Mg9 O11 2.087448 1_555
Mg9 O3 2.122284 1_556
Mg9 O3 2.122284 1_555
Mg9 O6 2.161725 1_555
Mg9 O7 2.161725 1_555
Mg9 O9 2.235208 1_655
Mg10 O0 2.098118 1_555
Mg10 O4 2.124162 1_555
Mg10 O4 2.124162 1_554
Mg10 O14 2.151435 1_555
Mg10 O12 2.177486 1_555
Mg10 O1 2.246940 1_555
Mg11 O0 2.098118 1_565
Mg11 O5 2.124162 1_555
Mg11 O5 2.124162 1_554
Mg11 O15 2.151435 1_555
Mg11 O13 2.177486 1_555
Mg11 O1 2.246940 1_555
Mg12 O2 2.098118 1_555
Mg12 O6 2.124162 1_555
Mg12 O6 2.124162 1_554
Mg12 O14 2.151435 1_555
Mg12 O12 2.177486 1_655
Mg12 O3 2.246940 1_555
Mg13 O2 2.098118 1_565
Mg13 O7 2.124162 1_555
Mg13 O7 2.124162 1_554
Mg13 O15 2.151435 1_555
Mg13 O13 2.177486 1_655
Mg13 O3 2.246940 1_555
Nb0 O9 2.122190 1_554
Nb0 O9 2.122190 1_555
Nb0 O12 2.123549 1_555
Nb0 O13 2.123549 1_555
Nb0 O3 2.215243 1_455
Nb0 O1 2.215243 1_555
Cu0 O8 2.122190 1_554
Cu0 O8 2.122190 1_555
Cu0 O13 2.216707 1_545
Cu0 O12 2.216707 1_555
Cu0 O0 2.310194 1_555
Cu0 O2 2.310194 1_455
