# generated using pymatgen
data_K2PS3
_symmetry_space_group_name_H-M   'P 1'
_cell_length_a   12.08307800
_cell_length_b   8.51736500
_cell_length_c   13.48761090
_cell_angle_alpha   88.47425006
_cell_angle_beta   90.00000000
_cell_angle_gamma   90.00000000
_symmetry_Int_Tables_number   1
_chemical_formula_structural   K2PS3
_chemical_formula_sum   'K16 P8 S24'
_cell_volume   1387.59863588
_cell_formula_units_Z   8
loop_
 _symmetry_equiv_pos_site_id
 _symmetry_equiv_pos_as_xyz
  1  'x, y, z'
loop_
 _atom_site_type_symbol
 _atom_site_label
 _atom_site_symmetry_multiplicity
 _atom_site_fract_x
 _atom_site_fract_y
 _atom_site_fract_z
 _atom_site_occupancy
  K  K0  1  0.73556700  0.22444600  0.08775800  1
  K  K1  1  0.23556700  0.27555400  0.91224200  1
  K  K2  1  0.26443300  0.77555400  0.91224200  1
  K  K3  1  0.76443300  0.72444600  0.08775800  1
  K  K4  1  0.43142700  0.83886400  0.17689500  1
  K  K5  1  0.93142700  0.66113600  0.82310500  1
  K  K6  1  0.56857300  0.16113600  0.82310500  1
  K  K7  1  0.06857300  0.33886400  0.17689500  1
  K  K8  1  0.30294600  0.64020800  0.56477700  1
  K  K9  1  0.80294600  0.85979200  0.43522300  1
  K  K10  1  0.69705400  0.35979200  0.43522300  1
  K  K11  1  0.19705400  0.14020800  0.56477700  1
  K  K12  1  0.11293700  0.78533500  0.29781100  1
  K  K13  1  0.61293700  0.71466500  0.70218900  1
  K  K14  1  0.88706300  0.21466500  0.70218900  1
  K  K15  1  0.38706300  0.28533500  0.29781100  1
  P  P0  1  0.49522400  0.92770100  0.42921700  1
  P  P1  1  0.99522400  0.57229900  0.57078300  1
  P  P2  1  0.50477600  0.07229900  0.57078300  1
  P  P3  1  0.00477600  0.42770100  0.42921700  1
  P  P4  1  0.03095700  0.93707900  0.07120900  1
  P  P5  1  0.53095700  0.56292100  0.92879100  1
  P  P6  1  0.96904300  0.06292100  0.92879100  1
  P  P7  1  0.46904300  0.43707900  0.07120900  1
  S  S0  1  0.31250200  0.51891300  0.09482000  1
  S  S1  1  0.81250200  0.98108700  0.90518000  1
  S  S2  1  0.68749800  0.48108700  0.90518000  1
  S  S3  1  0.18749800  0.01891300  0.09482000  1
  S  S4  1  0.03007800  0.70230500  0.04517800  1
  S  S5  1  0.53007800  0.79769500  0.95482200  1
  S  S6  1  0.96992200  0.29769500  0.95482200  1
  S  S7  1  0.46992200  0.20230500  0.04517800  1
  S  S8  1  0.57458900  0.49816000  0.18184400  1
  S  S9  1  0.07458900  0.00184000  0.81815600  1
  S  S10  1  0.42541100  0.50184000  0.81815600  1
  S  S11  1  0.92541100  0.99816000  0.18184400  1
  S  S12  1  0.40619900  0.96256700  0.67432300  1
  S  S13  1  0.90619900  0.53743300  0.32567700  1
  S  S14  1  0.59380100  0.03743300  0.32567700  1
  S  S15  1  0.09380100  0.46256700  0.67432300  1
  S  S16  1  0.04530300  0.79408100  0.53568400  1
  S  S17  1  0.54530300  0.70591900  0.46431600  1
  S  S18  1  0.95469700  0.20591900  0.46431600  1
  S  S19  1  0.45469700  0.29408100  0.53568400  1
  S  S20  1  0.33171000  0.93882900  0.39026000  1
  S  S21  1  0.83171000  0.56117100  0.60974000  1
  S  S22  1  0.66829000  0.06117100  0.60974000  1
  S  S23  1  0.16829000  0.43882900  0.39026000  1
loop_
_geom_bond_atom_site_label_1
_geom_bond_atom_site_label_2
_geom_bond_distance
_geom_bond_site_symmetry_2
K0 S11 3.233697 1_545
K0 S7 3.267113 1_555
K0 S2 3.300453 1_554
K0 S8 3.314575 1_555
K0 S1 3.390650 1_544
K0 S6 3.400466 1_554
K1 S10 3.233697 1_555
K1 S6 3.267113 1_455
K1 S3 3.300453 1_556
K1 S9 3.314575 1_555
K1 S0 3.390650 1_556
K1 S7 3.400466 1_556
K2 S9 3.233697 1_565
K2 S5 3.267113 1_555
K2 S0 3.300453 1_556
K2 S10 3.314575 1_555
K2 S3 3.390650 1_566
K2 S4 3.400466 1_556
K3 S8 3.233697 1_555
K3 S4 3.267113 1_655
K3 S1 3.300453 1_554
K3 S11 3.314575 1_555
K3 S2 3.390650 1_554
K3 S5 3.400466 1_554
K4 S5 3.251338 1_554
K4 S20 3.254048 1_555
K4 S0 3.298088 1_555
K4 S14 3.304154 1_565
K4 S8 3.377500 1_555
K4 S3 3.489131 1_565
K4 S7 3.558386 1_565
K5 S4 3.251338 1_656
K5 S21 3.254048 1_555
K5 S1 3.298088 1_555
K5 S15 3.304154 1_655
K5 S9 3.377500 1_665
K5 S2 3.489131 1_555
K5 S6 3.558386 1_555
K6 S7 3.251338 1_556
K6 S22 3.254048 1_555
K6 S2 3.298088 1_555
K6 S12 3.304154 1_545
K6 S10 3.377500 1_555
K6 S1 3.489131 1_545
K6 S5 3.558386 1_545
K7 S6 3.251338 1_454
K7 S23 3.254048 1_555
K7 S3 3.298088 1_555
K7 S13 3.304154 1_455
K7 S11 3.377500 1_445
K7 S0 3.489131 1_555
K7 S4 3.558386 1_555
K8 S17 3.268710 1_555
K8 S15 3.277130 1_555
K8 S23 3.368197 1_555
K8 S12 3.390311 1_555
K8 S16 3.396433 1_555
K8 S20 3.436808 1_555
K8 S19 3.502709 1_555
K9 S16 3.268710 1_655
K9 S14 3.277130 1_565
K9 S22 3.368197 1_565
K9 S13 3.390311 1_555
K9 S17 3.396433 1_555
K9 S21 3.436808 1_555
K9 S18 3.502709 1_565
K10 S19 3.268710 1_555
K10 S13 3.277130 1_555
K10 S21 3.368197 1_555
K10 S14 3.390311 1_555
K10 S18 3.396433 1_555
K10 S22 3.436808 1_555
K10 S17 3.502709 1_555
K11 S18 3.268710 1_455
K11 S12 3.277130 1_545
K11 S20 3.368197 1_545
K11 S15 3.390311 1_555
K11 S19 3.396433 1_555
K11 S23 3.436808 1_555
K11 S16 3.502709 1_545
K12 S20 3.215377 1_555
K12 S23 3.242907 1_555
K12 S11 3.273477 1_455
K12 S13 3.285951 1_455
K12 S16 3.313544 1_555
K12 P4 3.432552 1_555
K12 S3 3.460562 1_565
K12 S4 3.638862 1_555
K13 S21 3.215377 1_555
K13 S22 3.242907 1_565
K13 S10 3.273477 1_555
K13 S12 3.285951 1_555
K13 S17 3.313544 1_555
K13 P5 3.432552 1_555
K13 S2 3.460562 1_555
K13 S5 3.638862 1_555
K14 S22 3.215377 1_555
K14 S21 3.242907 1_555
K14 S9 3.273477 1_655
K14 S15 3.285951 1_655
K14 S18 3.313544 1_555
K14 P6 3.432552 1_555
K14 S1 3.460562 1_545
K14 S6 3.638862 1_555
K15 S23 3.215377 1_555
K15 S20 3.242907 1_545
K15 S8 3.273477 1_555
K15 S14 3.285951 1_555
K15 S19 3.313544 1_555
K15 P7 3.432552 1_555
K15 S0 3.460562 1_555
K15 S7 3.638862 1_555
P0 S17 2.027550 1_555
P0 S14 2.042794 1_565
P0 S20 2.045975 1_555
P1 S16 2.027550 1_655
P1 S15 2.042794 1_655
P1 S21 2.045975 1_555
P2 S19 2.027550 1_555
P2 S12 2.042794 1_545
P2 S22 2.045975 1_555
P3 S18 2.027550 1_455
P3 S13 2.042794 1_455
P3 S23 2.045975 1_555
P4 S4 2.039459 1_555
P4 S11 2.040860 1_455
P4 S3 2.043727 1_565
P5 S5 2.039459 1_555
P5 S10 2.040860 1_555
P5 S2 2.043727 1_555
P6 S6 2.039459 1_555
P6 S9 2.040860 1_655
P6 S1 2.043727 1_545
P7 S7 2.039459 1_555
P7 S8 2.040860 1_555
P7 S0 2.043727 1_555
