# generated using pymatgen
data_Zn3Fe8CoO16
_symmetry_space_group_name_H-M   'P 1'
_cell_length_a   6.04858100
_cell_length_b   6.04858100
_cell_length_c   8.55349900
_cell_angle_alpha   90.00000000
_cell_angle_beta   90.00000000
_cell_angle_gamma   90.00000000
_symmetry_Int_Tables_number   1
_chemical_formula_structural   Zn3Fe8CoO16
_chemical_formula_sum   'Zn3 Fe8 Co1 O16'
_cell_volume   312.93260165
_cell_formula_units_Z   1
loop_
 _symmetry_equiv_pos_site_id
 _symmetry_equiv_pos_as_xyz
  1  'x, y, z'
loop_
 _atom_site_type_symbol
 _atom_site_label
 _atom_site_symmetry_multiplicity
 _atom_site_fract_x
 _atom_site_fract_y
 _atom_site_fract_z
 _atom_site_occupancy
  Zn  Zn0  1  0.00000000  0.00000000  0.50000000  1
  Zn  Zn1  1  0.50000000  0.00000000  0.74986500  1
  Zn  Zn2  1  0.00000000  0.50000000  0.25013500  1
  Fe  Fe0  1  0.50000000  0.74999000  0.37495100  1
  Fe  Fe1  1  0.00000000  0.25000400  0.87505600  1
  Fe  Fe2  1  0.25000400  0.00000000  0.12494400  1
  Fe  Fe3  1  0.74999000  0.50000000  0.62504900  1
  Fe  Fe4  1  0.74999600  0.00000000  0.12494400  1
  Fe  Fe5  1  0.25001000  0.50000000  0.62504900  1
  Fe  Fe6  1  0.50000000  0.25001000  0.37495100  1
  Fe  Fe7  1  0.00000000  0.74999600  0.87505600  1
  Co  Co0  1  0.50000000  0.50000000  0.00000000  1
  O  O0  1  0.50000000  0.27070100  0.61469200  1
  O  O1  1  0.00000000  0.77060700  0.11462600  1
  O  O2  1  0.27070100  0.50000000  0.38530800  1
  O  O3  1  0.77060700  0.00000000  0.88537400  1
  O  O4  1  0.72929900  0.50000000  0.38530800  1
  O  O5  1  0.22939300  0.00000000  0.88537400  1
  O  O6  1  0.50000000  0.72929900  0.61469200  1
  O  O7  1  0.00000000  0.22939300  0.11462600  1
  O  O8  1  0.50000000  0.22924700  0.13533500  1
  O  O9  1  0.00000000  0.72926600  0.63544100  1
  O  O10  1  0.72926600  0.00000000  0.36455900  1
  O  O11  1  0.22924700  0.50000000  0.86466500  1
  O  O12  1  0.27073400  0.00000000  0.36455900  1
  O  O13  1  0.77075300  0.50000000  0.86466500  1
  O  O14  1  0.50000000  0.77075300  0.13533500  1
  O  O15  1  0.00000000  0.27073400  0.63544100  1
loop_
_geom_bond_atom_site_label_1
_geom_bond_atom_site_label_2
_geom_bond_distance
_geom_bond_site_symmetry_2
Fe0 O14 2.053399 1_555
Fe0 O10 2.053704 1_565
Fe0 O12 2.053704 1_565
Fe0 O4 2.053736 1_555
Fe0 O2 2.053736 1_555
Fe0 O6 2.054440 1_555
Fe1 O7 2.052951 1_556
Fe1 O15 2.053379 1_555
Fe1 O13 2.053563 1_455
Fe1 O11 2.053563 1_555
Fe1 O3 2.054168 1_455
Fe1 O5 2.054168 1_555
Fe2 O5 2.052951 1_554
Fe2 O12 2.053379 1_555
Fe2 O14 2.053563 1_545
Fe2 O8 2.053563 1_555
Fe2 O1 2.054168 1_545
Fe2 O7 2.054168 1_555
Fe3 O13 2.053399 1_555
Fe3 O9 2.053704 1_655
Fe3 O15 2.053704 1_655
Fe3 O0 2.053736 1_555
Fe3 O6 2.053736 1_555
Fe3 O4 2.054440 1_555
Fe4 O3 2.052951 1_554
Fe4 O10 2.053379 1_555
Fe4 O14 2.053563 1_545
Fe4 O8 2.053563 1_555
Fe4 O1 2.054168 1_645
Fe4 O7 2.054168 1_655
Fe5 O11 2.053399 1_555
Fe5 O9 2.053704 1_555
Fe5 O15 2.053704 1_555
Fe5 O0 2.053736 1_555
Fe5 O6 2.053736 1_555
Fe5 O2 2.054440 1_555
Fe6 O8 2.053399 1_555
Fe6 O12 2.053704 1_555
Fe6 O10 2.053704 1_555
Fe6 O2 2.053736 1_555
Fe6 O4 2.053736 1_555
Fe6 O0 2.054440 1_555
Fe7 O1 2.052951 1_556
Fe7 O9 2.053379 1_555
Fe7 O13 2.053563 1_455
Fe7 O11 2.053563 1_555
Fe7 O3 2.054168 1_465
Fe7 O5 2.054168 1_565
Co0 O13 2.005487 1_554
Co0 O14 2.005487 1_555
Co0 O8 2.005487 1_555
Co0 O11 2.005487 1_554
O0 Zn1 2.004430 1_555
O1 Zn2 2.005625 1_555
O2 Zn2 2.004430 1_555
O3 Zn1 2.005625 1_555
O4 Zn2 2.004430 1_655
O5 Zn1 2.005625 1_555
O6 Zn1 2.004430 1_565
O7 Zn2 2.005625 1_555
O9 Zn0 2.005916 1_565
O10 Zn0 2.005916 1_655
O12 Zn0 2.005916 1_555
O15 Zn0 2.005916 1_555
