# generated using pymatgen
data_Na3Mg
_symmetry_space_group_name_H-M   'P 1'
_cell_length_a   7.26058607
_cell_length_b   7.26058607
_cell_length_c   5.71229600
_cell_angle_alpha   90.00000000
_cell_angle_beta   90.00000000
_cell_angle_gamma   120.00000061
_symmetry_Int_Tables_number   1
_chemical_formula_structural   Na3Mg
_chemical_formula_sum   'Na6 Mg2'
_cell_volume   260.78624946
_cell_formula_units_Z   2
loop_
 _symmetry_equiv_pos_site_id
 _symmetry_equiv_pos_as_xyz
  1  'x, y, z'
loop_
 _atom_site_type_symbol
 _atom_site_label
 _atom_site_symmetry_multiplicity
 _atom_site_fract_x
 _atom_site_fract_y
 _atom_site_fract_z
 _atom_site_occupancy
  Na  Na0  1  0.17160700  0.34321500  0.25000000  1
  Na  Na1  1  0.17160700  0.82839300  0.25000000  1
  Na  Na2  1  0.65678500  0.82839300  0.25000000  1
  Na  Na3  1  0.34321500  0.17160700  0.75000000  1
  Na  Na4  1  0.82839300  0.17160700  0.75000000  1
  Na  Na5  1  0.82839300  0.65678500  0.75000000  1
  Mg  Mg0  1  0.66666700  0.33333300  0.25000000  1
  Mg  Mg1  1  0.33333300  0.66666700  0.75000000  1
loop_
_geom_bond_atom_site_label_1
_geom_bond_atom_site_label_2
_geom_bond_distance
_geom_bond_site_symmetry_2
Na0 Na2 3.522677 1_555
Na0 Na1 3.522677 1_555
Na0 Na4 3.579788 1_455
Na0 Na4 3.579788 1_454
Na0 Na3 3.579796 1_554
Na0 Na3 3.579796 1_555
Na0 Na2 3.737909 1_445
Na0 Na1 3.737909 1_545
Na1 Na2 3.522677 1_555
Na1 Na3 3.579788 1_565
Na1 Na3 3.579788 1_564
Na1 Na5 3.579788 1_454
Na1 Na5 3.579788 1_455
Na1 Na2 3.737909 1_455
Na2 Na4 3.579788 1_565
Na2 Na4 3.579788 1_564
Na2 Na5 3.579796 1_554
Na2 Na5 3.579796 1_555
Na3 Na5 3.522677 1_555
Na3 Na4 3.522677 1_555
Na3 Na5 3.737909 1_445
Na3 Na4 3.737909 1_455
Na4 Na5 3.522677 1_555
Na4 Na5 3.737909 1_545
Mg0 Na5 3.506280 1_555
Mg0 Na5 3.506280 1_554
Mg0 Na3 3.506280 1_554
Mg0 Na3 3.506280 1_555
Mg0 Na4 3.506280 1_555
Mg0 Na4 3.506280 1_554
Mg0 Na0 3.630818 1_655
Mg0 Na2 3.630818 1_545
Mg0 Na1 3.630825 1_655
Mg0 Na1 3.630825 1_545
Mg0 Na2 3.630832 1_555
Mg0 Na0 3.630832 1_555
Mg1 Na2 3.506280 1_556
Mg1 Na2 3.506280 1_555
Mg1 Na0 3.506280 1_555
Mg1 Na0 3.506280 1_556
Mg1 Na1 3.506280 1_556
Mg1 Na1 3.506280 1_555
Mg1 Na3 3.630818 1_565
Mg1 Na5 3.630818 1_455
Mg1 Na4 3.630825 1_565
Mg1 Na4 3.630825 1_455
Mg1 Na5 3.630832 1_555
Mg1 Na3 3.630832 1_555
