# generated using pymatgen
data_Ho7(TeAu)2
_symmetry_space_group_name_H-M   'P 1'
_cell_length_a   9.33034760
_cell_length_b   9.33034760
_cell_length_c   17.12782599
_cell_angle_alpha   76.08088231
_cell_angle_beta   76.08088231
_cell_angle_gamma   24.73424670
_symmetry_Int_Tables_number   1
_chemical_formula_structural   Ho7(TeAu)2
_chemical_formula_sum   'Ho14 Te4 Au4'
_cell_volume   604.66433244
_cell_formula_units_Z   2
loop_
 _symmetry_equiv_pos_site_id
 _symmetry_equiv_pos_as_xyz
  1  'x, y, z'
loop_
 _atom_site_type_symbol
 _atom_site_label
 _atom_site_symmetry_multiplicity
 _atom_site_fract_x
 _atom_site_fract_y
 _atom_site_fract_z
 _atom_site_occupancy
  Ho  Ho0  1  0.00100000  0.00100000  0.66723200  1
  Ho  Ho1  1  0.99900000  0.99900000  0.33276800  1
  Ho  Ho2  1  0.17546600  0.17546600  0.46835900  1
  Ho  Ho3  1  0.82453400  0.82453400  0.53164100  1
  Ho  Ho4  1  0.19142700  0.19142700  0.68035700  1
  Ho  Ho5  1  0.80857300  0.80857300  0.31964300  1
  Ho  Ho6  1  0.33817700  0.33817700  0.98055900  1
  Ho  Ho7  1  0.66182300  0.66182300  0.01944100  1
  Ho  Ho8  1  0.57420800  0.57420800  0.82918200  1
  Ho  Ho9  1  0.42579200  0.42579200  0.17081800  1
  Ho  Ho10  1  0.78065300  0.78065300  0.80544700  1
  Ho  Ho11  1  0.21934700  0.21934700  0.19455300  1
  Ho  Ho12  1  0.50000000  0.50000000  0.50000000  1
  Ho  Ho13  1  0.00000000  0.00000000  0.00000000  1
  Te  Te0  1  0.36613900  0.36613900  0.66232800  1
  Te  Te1  1  0.63386100  0.63386100  0.33767200  1
  Te  Te2  1  0.06540900  0.06540900  0.14979300  1
  Te  Te3  1  0.93459100  0.93459100  0.85020700  1
  Au  Au0  1  0.17023200  0.17023200  0.88893400  1
  Au  Au1  1  0.82976800  0.82976800  0.11106600  1
  Au  Au2  1  0.38125600  0.38125600  0.39966000  1
  Au  Au3  1  0.61874400  0.61874400  0.60034000  1
loop_
_geom_bond_atom_site_label_1
_geom_bond_atom_site_label_2
_geom_bond_distance
_geom_bond_site_symmetry_2
Ho0 Te3 3.068961 1_445
Ho0 Te0 3.185094 1_455
Ho0 Te0 3.185094 1_545
Ho1 Te2 3.068961 1_665
Ho1 Te1 3.185094 1_655
Ho1 Te1 3.185094 1_565
Ho2 Te1 3.227207 1_455
Ho2 Te1 3.227207 1_545
Ho3 Te0 3.227207 1_565
Ho3 Te0 3.227207 1_655
Ho4 Te0 3.122922 1_555
Ho5 Te1 3.122922 1_555
Ho6 Te3 3.183387 1_455
Ho6 Te3 3.183387 1_545
Ho7 Te2 3.183387 1_655
Ho7 Te2 3.183387 1_565
Ho8 Te3 3.185607 1_455
Ho8 Te3 3.185607 1_545
Ho9 Te2 3.185607 1_655
Ho9 Te2 3.185607 1_565
Ho10 Te3 3.085532 1_555
Ho10 Te0 3.247918 1_655
Ho10 Te0 3.247918 1_565
Ho11 Te2 3.085532 1_555
Ho11 Te1 3.247918 1_455
Ho11 Te1 3.247918 1_545
Ho12 Te1 3.215958 1_555
Ho12 Te0 3.215958 1_555
Ho13 Te3 3.083913 1_444
Ho13 Te2 3.083913 1_555
Au0 Ho10 2.944749 1_545
Au0 Ho10 2.944749 1_455
Au0 Ho7 2.973991 1_546
Au0 Ho7 2.973991 1_456
Au0 Ho8 2.997749 1_545
Au0 Ho8 2.997749 1_455
Au0 Ho13 3.215542 1_556
Au0 Ho4 3.497431 1_555
Au0 Ho6 3.768322 1_555
Au1 Ho11 2.944749 1_655
Au1 Ho11 2.944749 1_565
Au1 Ho6 2.973991 1_654
Au1 Ho6 2.973991 1_564
Au1 Ho9 2.997749 1_565
Au1 Ho9 2.997749 1_655
Au1 Ho13 3.215542 1_665
Au1 Ho5 3.497431 1_555
Au1 Ho7 3.768322 1_555
Au2 Ho5 2.919098 1_455
Au2 Ho5 2.919098 1_545
Au2 Ho1 2.949752 1_455
Au2 Ho1 2.949752 1_545
Au2 Ho3 3.003532 1_545
Au2 Ho3 3.003532 1_455
Au2 Ho12 3.077414 1_555
Au3 Ho4 2.919098 1_565
Au3 Ho4 2.919098 1_655
Au3 Ho0 2.949752 1_655
Au3 Ho0 2.949752 1_565
Au3 Ho2 3.003532 1_565
Au3 Ho2 3.003532 1_655
Au3 Ho12 3.077414 1_555
