# generated using pymatgen
data_SbN
_symmetry_space_group_name_H-M   'P 1'
_cell_length_a   15.50996257
_cell_length_b   15.67176917
_cell_length_c   16.51010017
_cell_angle_alpha   93.96252798
_cell_angle_beta   94.04773499
_cell_angle_gamma   85.77790939
_symmetry_Int_Tables_number   1
_chemical_formula_structural   SbN
_chemical_formula_sum   'Sb50 N50'
_cell_volume   3983.96583739
_cell_formula_units_Z   50
loop_
 _symmetry_equiv_pos_site_id
 _symmetry_equiv_pos_as_xyz
  1  'x, y, z'
loop_
 _atom_site_type_symbol
 _atom_site_label
 _atom_site_symmetry_multiplicity
 _atom_site_fract_x
 _atom_site_fract_y
 _atom_site_fract_z
 _atom_site_occupancy
  Sb  Sb0  1  0.15205050  0.33470186  0.86153159  1
  Sb  Sb1  1  0.62476146  0.35932719  0.27284299  1
  Sb  Sb2  1  0.82702732  0.48170584  0.37035997  1
  Sb  Sb3  1  0.10982105  0.37062271  0.17458129  1
  Sb  Sb4  1  0.17327350  0.94968779  0.50011327  1
  Sb  Sb5  1  0.18422410  0.59563618  0.71577966  1
  Sb  Sb6  1  0.32906236  0.64124830  0.41431139  1
  Sb  Sb7  1  0.49885602  0.42691001  0.58586104  1
  Sb  Sb8  1  0.90484264  0.02743488  0.43930930  1
  Sb  Sb9  1  0.06632852  0.11815677  0.43849875  1
  Sb  Sb10  1  0.34089818  0.36402817  0.29780043  1
  Sb  Sb11  1  0.96694710  0.47536796  0.10635209  1
  Sb  Sb12  1  0.53463549  0.38226822  0.05726319  1
  Sb  Sb13  1  0.84945130  0.80508957  0.53582097  1
  Sb  Sb14  1  0.51056938  0.69289662  0.40465344  1
  Sb  Sb15  1  0.04890387  0.06613510  0.60030997  1
  Sb  Sb16  1  0.70301557  0.50278923  0.22083089  1
  Sb  Sb17  1  0.14992367  0.33543441  0.64304082  1
  Sb  Sb18  1  0.22076636  0.17802473  0.70944647  1
  Sb  Sb19  1  0.29610189  0.43682843  0.71074358  1
  Sb  Sb20  1  0.69794950  0.90774919  0.64419145  1
  Sb  Sb21  1  0.13116853  0.55797222  0.12141477  1
  Sb  Sb22  1  0.15470023  0.44804004  0.33469066  1
  Sb  Sb23  1  0.21212411  0.66292831  0.55975774  1
  Sb  Sb24  1  0.86763633  0.47409593  0.62144096  1
  Sb  Sb25  1  0.71456855  0.18330728  0.56825488  1
  Sb  Sb26  1  0.60084319  0.72732532  0.59603810  1
  Sb  Sb27  1  0.78452786  0.71542031  0.66416609  1
  Sb  Sb28  1  0.83988159  0.30422973  0.31112104  1
  Sb  Sb29  1  0.04650158  0.70647663  0.46398352  1
  Sb  Sb30  1  0.81875462  0.05072767  0.63971519  1
  Sb  Sb31  1  0.32790127  0.54982668  0.24747896  1
  Sb  Sb32  1  0.77486122  0.17403096  0.41505968  1
  Sb  Sb33  1  0.19494350  0.96428868  0.31150981  1
  Sb  Sb34  1  0.46592597  0.24111726  0.21281620  1
  Sb  Sb35  1  0.34927889  0.41792008  0.90990826  1
  Sb  Sb36  1  0.76184433  0.70875626  0.40082283  1
  Sb  Sb37  1  0.03372796  0.50518815  0.74914570  1
  Sb  Sb38  1  0.05638048  0.60740794  0.30785963  1
  Sb  Sb39  1  0.31618333  0.43759156  0.49488396  1
  Sb  Sb40  1  0.28979932  0.32019829  0.06928534  1
  Sb  Sb41  1  0.53516695  0.59427322  0.16616047  1
  Sb  Sb42  1  0.02388299  0.28153007  0.34564919  1
  Sb  Sb43  1  0.70123721  0.58371368  0.50582320  1
  Sb  Sb44  1  0.88295604  0.57521131  0.23386673  1
  Sb  Sb45  1  0.04334852  0.46501076  0.51278505  1
  Sb  Sb46  1  0.31847381  0.77107225  0.27417537  1
  Sb  Sb47  1  0.67884397  0.87263375  0.45312391  1
  Sb  Sb48  1  0.50528131  0.49819510  0.36079311  1
  Sb  Sb49  1  0.05872688  0.86690689  0.38633736  1
  N  N0  1  0.36923212  0.70422613  0.00817324  1
  N  N1  1  0.47416657  0.03542803  0.54696350  1
  N  N2  1  0.46126592  0.53588342  0.24374257  1
  N  N3  1  0.07347166  0.39058690  0.40707752  1
  N  N4  1  0.28405672  0.95298637  0.00498126  1
  N  N5  1  0.94114504  0.75925181  0.12191660  1
  N  N6  1  0.36924733  0.90509472  0.74445098  1
  N  N7  1  0.53518445  0.06065110  0.06359234  1
  N  N8  1  0.33774592  0.67588107  0.95085855  1
  N  N9  1  0.13445633  0.97723172  0.83800839  1
  N  N10  1  0.95129393  0.05302819  0.18115348  1
  N  N11  1  0.57941515  0.54943481  0.70510869  1
  N  N12  1  0.12737974  0.13060148  0.06478590  1
  N  N13  1  0.40598772  0.03689846  0.56434952  1
  N  N14  1  0.30094260  0.89959263  0.27865665  1
  N  N15  1  0.93734336  0.05043740  0.24620025  1
  N  N16  1  0.25941454  0.89268770  0.02318833  1
  N  N17  1  0.67176188  0.77364419  0.03349986  1
  N  N18  1  0.92266454  0.03000080  0.56505940  1
  N  N19  1  0.84913049  0.36984428  0.89539638  1
  N  N20  1  0.79202501  0.58791728  0.60358534  1
  N  N21  1  0.55108666  0.24043058  0.88990713  1
  N  N22  1  0.49668098  0.28985739  0.86789181  1
  N  N23  1  0.37318073  0.89964132  0.81146637  1
  N  N24  1  0.91748169  0.44923733  0.50965422  1
  N  N25  1  0.73920594  0.03896672  0.15847013  1
  N  N26  1  0.20708412  0.22212550  0.82221067  1
  N  N27  1  0.54344286  0.32921483  0.17291423  1
  N  N28  1  0.50084965  0.04321098  0.00382816  1
  N  N29  1  0.71980532  0.75157057  0.08222110  1
  N  N30  1  0.52978462  0.55110476  0.64393400  1
  N  N31  1  0.61130293  0.84791100  0.55246738  1
  N  N32  1  0.51970770  0.11984488  0.73772569  1
  N  N33  1  0.12352703  0.06772386  0.09134237  1
  N  N34  1  0.97255153  0.81637935  0.15136904  1
  N  N35  1  0.62609703  0.55289755  0.76306502  1
  N  N36  1  0.09684320  0.38047565  0.75110927  1
  N  N37  1  0.44016791  0.75893001  0.32444963  1
  N  N38  1  0.45189892  0.11800337  0.75544870  1
  N  N39  1  0.72020727  0.97173145  0.15733513  1
  N  N40  1  0.34183714  0.29728464  0.18300436  1
  N  N41  1  0.37033895  0.43762618  0.61318480  1
  N  N42  1  0.14085086  0.63302683  0.22590558  1
  N  N43  1  0.39190751  0.37117341  0.02268196  1
  N  N44  1  0.54038881  0.50742738  0.07332595  1
  N  N45  1  0.25880139  0.56088834  0.48018469  1
  N  N46  1  0.83766987  0.36244461  0.82810947  1
  N  N47  1  0.44425450  0.45830494  0.47282883  1
  N  N48  1  0.08129078  0.02782503  0.84772214  1
  N  N49  1  0.44235976  0.34219557  0.84007615  1
loop_
_geom_bond_atom_site_label_1
_geom_bond_atom_site_label_2
_geom_bond_distance
_geom_bond_site_symmetry_2
Sb1 Sb16 2.842740 1_555
Sb1 Sb28 3.410392 1_555
Sb2 Sb28 2.881356 1_555
Sb2 Sb44 2.982909 1_555
Sb3 Sb40 3.407245 1_555
Sb4 Sb49 2.810590 1_555
Sb4 Sb9 3.200779 1_565
Sb8 Sb9 2.970950 1_655
Sb11 Sb44 2.865194 1_555
Sb11 Sb3 2.870830 1_655
Sb11 Sb21 2.928630 1_655
Sb13 Sb27 2.898281 1_555
Sb13 Sb36 2.915933 1_555
Sb13 Sb47 3.043654 1_555
Sb13 Sb20 3.309112 1_555
Sb15 Sb9 2.882726 1_555
Sb15 Sb4 3.050047 1_545
Sb16 Sb41 2.990835 1_555
Sb16 Sb2 3.041741 1_555
Sb16 Sb44 3.077550 1_555
Sb19 Sb5 2.927096 1_555
Sb21 Sb3 3.168782 1_555
Sb22 Sb3 2.892325 1_555
Sb23 Sb5 2.921450 1_555
Sb23 Sb29 2.980336 1_555
Sb25 Sb32 2.748797 1_555
Sb25 Sb30 2.809897 1_555
Sb28 Sb42 2.871389 1_655
Sb28 Sb32 3.025960 1_555
Sb29 Sb38 2.923310 1_555
Sb29 Sb49 2.924148 1_555
Sb32 Sb8 2.972189 1_555
Sb33 Sb49 3.069648 1_555
Sb33 Sb4 3.181039 1_555
Sb36 Sb47 2.891776 1_555
Sb36 Sb43 2.949555 1_555
Sb37 Sb5 2.921950 1_555
Sb38 Sb44 2.938162 1_455
Sb42 Sb9 3.080670 1_555
Sb49 Sb8 3.449189 1_465
N0 N8 1.113486 1_554
N1 N13 1.113319 1_555
N2 Sb31 2.068759 1_555
N2 Sb41 2.077381 1_555
N2 Sb48 2.112264 1_555
N3 Sb22 2.086755 1_555
N3 Sb45 2.092385 1_555
N3 Sb42 2.094053 1_555
N10 N15 1.114412 1_555
N11 N35 1.159122 1_555
N11 N30 1.226481 1_555
N12 N33 1.113064 1_555
N14 Sb33 1.956916 1_555
N14 Sb46 2.009423 1_555
N16 N4 1.112698 1_555
N17 N29 1.112588 1_555
N18 Sb8 2.073039 1_555
N18 Sb30 2.090491 1_555
N18 Sb15 2.109472 1_655
N19 N46 1.111992 1_555
N20 Sb43 2.066502 1_555
N20 Sb24 2.088044 1_555
N20 Sb27 2.170873 1_555
N21 N22 1.159114 1_555
N22 N49 1.220329 1_555
N23 N6 1.112649 1_555
N24 Sb45 1.982390 1_655
N24 Sb24 2.052668 1_555
N24 Sb2 2.667808 1_555
N25 N39 1.113403 1_545
N26 Sb18 1.960907 1_555
N26 Sb0 1.990195 1_555
N27 Sb1 2.054671 1_555
N27 Sb34 2.065819 1_555
N27 Sb12 2.126422 1_555
N28 N7 1.114393 1_555
N30 Sb7 2.179979 1_555
N31 Sb47 2.080339 1_555
N31 Sb26 2.089164 1_555
N31 Sb20 2.163504 1_555
N32 N38 1.114285 1_555
N34 N5 1.116191 1_555
N36 Sb17 2.075386 1_555
N36 Sb0 2.107450 1_555
N36 Sb37 2.121749 1_555
N37 Sb14 1.958456 1_555
N37 Sb46 2.008851 1_555
N40 Sb40 2.035190 1_555
N40 Sb34 2.097120 1_555
N40 Sb10 2.100978 1_555
N41 Sb19 2.046218 1_555
N41 Sb7 2.066911 1_555
N41 Sb39 2.070909 1_555
N42 Sb21 2.022679 1_555
N42 Sb38 2.027618 1_555
N43 Sb40 2.044888 1_555
N43 Sb35 2.093788 1_554
N43 Sb12 2.263012 1_555
N44 Sb12 1.968801 1_555
N44 Sb41 1.980185 1_555
N45 Sb39 2.089445 1_555
N45 Sb23 2.116790 1_555
N45 Sb6 2.124878 1_555
N47 Sb7 2.069855 1_555
N47 Sb39 2.096918 1_555
N47 Sb48 2.280855 1_555
N48 N9 1.113181 1_545
N49 Sb35 2.148355 1_555
