# generated using pymatgen
data_Yb4S7
_symmetry_space_group_name_H-M   'P 1'
_cell_length_a   8.87890098
_cell_length_b   8.87890098
_cell_length_c   8.87890098
_cell_angle_alpha   144.66785835
_cell_angle_beta   144.66785835
_cell_angle_gamma   50.82976816
_symmetry_Int_Tables_number   1
_chemical_formula_structural   Yb4S7
_chemical_formula_sum   'Yb4 S7'
_cell_volume   232.89560823
_cell_formula_units_Z   1
loop_
 _symmetry_equiv_pos_site_id
 _symmetry_equiv_pos_as_xyz
  1  'x, y, z'
loop_
 _atom_site_type_symbol
 _atom_site_label
 _atom_site_symmetry_multiplicity
 _atom_site_fract_x
 _atom_site_fract_y
 _atom_site_fract_z
 _atom_site_occupancy
  Yb  Yb0  1  0.61137600  0.61137600  0.50398300  1
  Yb  Yb1  1  0.10739200  0.10739200  0.49601700  1
  Yb  Yb2  1  0.38862400  0.89260800  0.00000000  1
  Yb  Yb3  1  0.89260800  0.38862400  0.00000000  1
  S  S0  1  0.43073900  0.43073900  0.50421700  1
  S  S1  1  0.92652200  0.92652200  0.49578300  1
  S  S2  1  0.56926100  0.07347800  0.00000000  1
  S  S3  1  0.07347800  0.56926100  0.00000000  1
  S  S4  1  0.00000000  0.00000000  0.00000000  1
  S  S5  1  0.00000000  0.50000000  0.50000000  1
  S  S6  1  0.50000000  0.00000000  0.50000000  1
loop_
_geom_bond_atom_site_label_1
_geom_bond_atom_site_label_2
_geom_bond_distance
_geom_bond_site_symmetry_2
S0 Yb2 2.762071 1_556
S0 Yb3 2.762071 1_556
S0 Yb3 2.763296 1_455
S0 Yb2 2.763296 1_545
S0 Yb0 2.899162 1_555
S1 Yb2 2.762071 1_555
S1 Yb3 2.762071 1_555
S1 Yb2 2.763296 1_656
S1 Yb3 2.763296 1_566
S1 Yb1 2.899146 1_665
S2 Yb1 2.762067 1_554
S2 Yb0 2.762071 1_555
S2 Yb1 2.763297 1_655
S2 Yb0 2.763300 1_544
S2 Yb2 2.899154 1_545
S3 Yb1 2.762067 1_554
S3 Yb0 2.762071 1_555
S3 Yb1 2.763297 1_565
S3 Yb0 2.763300 1_454
S3 Yb3 2.899154 1_455
S4 S5 2.694470 1_555
S4 S6 2.694470 1_555
S4 S6 2.694470 1_454
S4 S5 2.694470 1_544
S4 Yb0 2.942647 1_444
S4 Yb3 2.942651 1_455
S4 Yb2 2.942651 1_545
S4 Yb1 2.942660 1_555
S5 Yb0 2.952458 1_455
S5 Yb3 2.952464 1_455
S5 Yb2 2.952464 1_556
S5 Yb1 2.952470 1_555
S6 Yb0 2.952458 1_545
S6 Yb2 2.952464 1_545
S6 Yb3 2.952464 1_556
S6 Yb1 2.952470 1_555
