# generated using pymatgen
data_BiO2
_symmetry_space_group_name_H-M   'P 1'
_cell_length_a   3.44719200
_cell_length_b   10.59486600
_cell_length_c   12.03641200
_cell_angle_alpha   90.00000000
_cell_angle_beta   90.00000000
_cell_angle_gamma   90.00000000
_symmetry_Int_Tables_number   1
_chemical_formula_structural   BiO2
_chemical_formula_sum   'Bi8 O16'
_cell_volume   439.60030642
_cell_formula_units_Z   8
loop_
 _symmetry_equiv_pos_site_id
 _symmetry_equiv_pos_as_xyz
  1  'x, y, z'
loop_
 _atom_site_type_symbol
 _atom_site_label
 _atom_site_symmetry_multiplicity
 _atom_site_fract_x
 _atom_site_fract_y
 _atom_site_fract_z
 _atom_site_occupancy
  Bi  Bi0  1  0.00000000  0.39872400  0.65630900  1
  Bi  Bi1  1  0.50000000  0.10112900  0.15972700  1
  Bi  Bi2  1  0.00000000  0.89872400  0.34369100  1
  Bi  Bi3  1  0.50000000  0.60112900  0.84027300  1
  Bi  Bi4  1  0.50000000  0.55123500  0.36264800  1
  Bi  Bi5  1  0.00000000  0.45873000  0.11992200  1
  Bi  Bi6  1  0.50000000  0.05123500  0.63735200  1
  Bi  Bi7  1  0.00000000  0.95873000  0.88007800  1
  O  O0  1  0.00000000  0.92635500  0.70342300  1
  O  O1  1  0.50000000  0.07823300  0.82738700  1
  O  O2  1  0.00000000  0.42635500  0.29657700  1
  O  O3  1  0.50000000  0.57823300  0.17261300  1
  O  O4  1  0.00000000  0.03573200  0.04112600  1
  O  O5  1  0.50000000  0.92550300  0.45580500  1
  O  O6  1  0.00000000  0.53573200  0.95887400  1
  O  O7  1  0.50000000  0.42550300  0.54419500  1
  O  O8  1  0.00000000  0.59301900  0.71058200  1
  O  O9  1  0.50000000  0.39759700  0.77491600  1
  O  O10  1  0.00000000  0.09301900  0.28941800  1
  O  O11  1  0.50000000  0.89759700  0.22508400  1
  O  O12  1  0.50000000  0.83158100  0.90527300  1
  O  O13  1  0.00000000  0.20204700  0.63863700  1
  O  O14  1  0.00000000  0.70204700  0.36136300  1
  O  O15  1  0.50000000  0.33158100  0.09472700  1
loop_
_geom_bond_atom_site_label_1
_geom_bond_atom_site_label_2
_geom_bond_distance
_geom_bond_site_symmetry_2
Bi0 O13 2.094595 1_555
Bi0 O8 2.159695 1_555
Bi0 O7 2.207328 1_555
Bi0 O7 2.207328 1_455
Bi0 O9 2.238074 1_555
Bi0 O9 2.238074 1_455
Bi1 O11 2.295403 1_545
Bi1 O10 2.327001 1_555
Bi1 O10 2.327001 1_655
Bi1 O4 2.342797 1_555
Bi1 O4 2.342797 1_655
Bi1 O15 2.563893 1_555
Bi2 O14 2.094595 1_555
Bi2 O10 2.159695 1_565
Bi2 O5 2.207328 1_555
Bi2 O5 2.207328 1_455
Bi2 O11 2.238074 1_555
Bi2 O11 2.238074 1_455
Bi3 O9 2.295403 1_555
Bi3 O8 2.327001 1_555
Bi3 O8 2.327001 1_655
Bi3 O6 2.342797 1_555
Bi3 O6 2.342797 1_655
Bi3 O12 2.563893 1_555
Bi4 O3 2.305155 1_555
Bi4 O2 2.313823 1_655
Bi4 O2 2.313823 1_555
Bi4 O14 2.350339 1_655
Bi4 O14 2.350339 1_555
Bi4 O7 2.559202 1_555
Bi5 O6 2.103122 1_554
Bi5 O2 2.153781 1_555
Bi5 O15 2.208506 1_555
Bi5 O15 2.208506 1_455
Bi5 O3 2.230709 1_455
Bi5 O3 2.230709 1_555
Bi6 O1 2.305155 1_555
Bi6 O0 2.313823 1_545
Bi6 O0 2.313823 1_645
Bi6 O13 2.350339 1_555
Bi6 O13 2.350339 1_655
Bi6 O5 2.559202 1_545
Bi7 O4 2.103122 1_566
Bi7 O0 2.153781 1_555
Bi7 O12 2.208506 1_555
Bi7 O12 2.208506 1_455
Bi7 O1 2.230709 1_465
Bi7 O1 2.230709 1_565
