# generated using pymatgen
data_YMgCrS4
_symmetry_space_group_name_H-M   'P 1'
_cell_length_a   7.65161579
_cell_length_b   7.56686582
_cell_length_c   7.56734891
_cell_angle_alpha   59.43653531
_cell_angle_beta   59.62878416
_cell_angle_gamma   59.62899379
_symmetry_Int_Tables_number   1
_chemical_formula_structural   YMgCrS4
_chemical_formula_sum   'Y2 Mg2 Cr2 S8'
_cell_volume   306.74406864
_cell_formula_units_Z   2
loop_
 _symmetry_equiv_pos_site_id
 _symmetry_equiv_pos_as_xyz
  1  'x, y, z'
loop_
 _atom_site_type_symbol
 _atom_site_label
 _atom_site_symmetry_multiplicity
 _atom_site_fract_x
 _atom_site_fract_y
 _atom_site_fract_z
 _atom_site_occupancy
  Y  Y0  1  0.49999300  0.50012600  0.49985100  1
  Y  Y1  1  0.00001700  0.50008000  0.49987100  1
  Mg  Mg0  1  0.87369500  0.87623400  0.87636500  1
  Mg  Mg1  1  0.12625500  0.12370000  0.12379000  1
  Cr  Cr0  1  0.50022700  0.49985800  0.99974600  1
  Cr  Cr1  1  0.49984400  0.00009200  0.50029300  1
  S  S0  1  0.71109100  0.75443300  0.75442000  1
  S  S1  1  0.27061300  0.22953100  0.72923200  1
  S  S2  1  0.27077200  0.72902400  0.22940900  1
  S  S3  1  0.71989700  0.24557800  0.24558000  1
  S  S4  1  0.72934900  0.27080700  0.77041900  1
  S  S5  1  0.28008500  0.75441300  0.75441600  1
  S  S6  1  0.28894100  0.24556400  0.24560300  1
  S  S7  1  0.72922600  0.77055500  0.27100500  1
loop_
_geom_bond_atom_site_label_1
_geom_bond_atom_site_label_2
_geom_bond_distance
_geom_bond_site_symmetry_2
Mg0 S4 2.429700 1_565
Mg0 S7 2.430410 1_556
Mg0 S0 2.536627 1_555
Mg0 S5 2.536829 1_655
Mg1 S1 2.429819 1_554
Mg1 S2 2.430510 1_545
Mg1 S3 2.536674 1_455
Mg1 S6 2.536749 1_555
Cr0 S4 2.449271 1_555
Cr0 S2 2.451681 1_556
Cr0 S0 2.497501 1_555
Cr0 S5 2.497748 1_555
Cr0 S3 2.497898 1_556
Cr0 S6 2.498204 1_556
Cr1 S1 2.449271 1_555
Cr1 S7 2.451659 1_545
Cr1 S0 2.497153 1_545
Cr1 S5 2.497389 1_545
Cr1 S3 2.498094 1_555
Cr1 S6 2.498445 1_555
S0 Y1 2.731997 1_655
S1 Y1 2.687871 1_555
S1 Y0 2.687884 1_555
S2 Y0 2.686513 1_555
S2 Y1 2.686589 1_555
S3 Y0 2.731590 1_555
S4 Y0 2.687747 1_555
S4 Y1 2.687756 1_655
S5 Y0 2.731774 1_555
S6 Y1 2.731412 1_555
S7 Y0 2.686417 1_555
S7 Y1 2.686482 1_655
