# generated using pymatgen
data_ScMnSi2
_symmetry_space_group_name_H-M   'P 1'
_cell_length_a   7.87196600
_cell_length_b   9.02183500
_cell_length_c   9.74060100
_cell_angle_alpha   90.00000000
_cell_angle_beta   90.00000000
_cell_angle_gamma   90.00000000
_symmetry_Int_Tables_number   1
_chemical_formula_structural   ScMnSi2
_chemical_formula_sum   'Sc12 Mn12 Si24'
_cell_volume   691.77337616
_cell_formula_units_Z   12
loop_
 _symmetry_equiv_pos_site_id
 _symmetry_equiv_pos_as_xyz
  1  'x, y, z'
loop_
 _atom_site_type_symbol
 _atom_site_label
 _atom_site_symmetry_multiplicity
 _atom_site_fract_x
 _atom_site_fract_y
 _atom_site_fract_z
 _atom_site_occupancy
  Sc  Sc0  1  0.24733000  0.82803700  0.45226900  1
  Sc  Sc1  1  0.24733000  0.17196300  0.54773100  1
  Sc  Sc2  1  0.75267000  0.32803700  0.04773100  1
  Sc  Sc3  1  0.75267000  0.67196300  0.95226900  1
  Sc  Sc4  1  0.75267000  0.17196300  0.54773100  1
  Sc  Sc5  1  0.75267000  0.82803700  0.45226900  1
  Sc  Sc6  1  0.24733000  0.67196300  0.95226900  1
  Sc  Sc7  1  0.24733000  0.32803700  0.04773100  1
  Sc  Sc8  1  0.00000000  0.83268600  0.17634700  1
  Sc  Sc9  1  0.00000000  0.16731400  0.82365300  1
  Sc  Sc10  1  0.00000000  0.33268600  0.32365300  1
  Sc  Sc11  1  0.00000000  0.66731400  0.67634700  1
  Mn  Mn0  1  0.24834200  0.58079200  0.24604700  1
  Mn  Mn1  1  0.24834200  0.41920800  0.75395300  1
  Mn  Mn2  1  0.75165800  0.08079200  0.25395300  1
  Mn  Mn3  1  0.75165800  0.91920800  0.74604700  1
  Mn  Mn4  1  0.75165800  0.41920800  0.75395300  1
  Mn  Mn5  1  0.75165800  0.58079200  0.24604700  1
  Mn  Mn6  1  0.24834200  0.91920800  0.74604700  1
  Mn  Mn7  1  0.24834200  0.08079200  0.25395300  1
  Mn  Mn8  1  0.24520200  0.50000000  0.50000000  1
  Mn  Mn9  1  0.75479800  0.00000000  0.00000000  1
  Mn  Mn10  1  0.75479800  0.50000000  0.50000000  1
  Mn  Mn11  1  0.24520200  0.00000000  0.00000000  1
  Si  Si0  1  0.34760100  0.83237200  0.18184100  1
  Si  Si1  1  0.34760100  0.16762800  0.81815900  1
  Si  Si2  1  0.65239900  0.33237200  0.31815900  1
  Si  Si3  1  0.65239900  0.66762800  0.68184100  1
  Si  Si4  1  0.65239900  0.16762800  0.81815900  1
  Si  Si5  1  0.65239900  0.83237200  0.18184100  1
  Si  Si6  1  0.34760100  0.66762800  0.68184100  1
  Si  Si7  1  0.34760100  0.33237200  0.31815900  1
  Si  Si8  1  0.50000000  0.54283700  0.12790000  1
  Si  Si9  1  0.50000000  0.45716300  0.87210000  1
  Si  Si10  1  0.50000000  0.04283700  0.37210000  1
  Si  Si11  1  0.50000000  0.95716300  0.62790000  1
  Si  Si12  1  0.00000000  0.53809900  0.12168500  1
  Si  Si13  1  0.00000000  0.46190100  0.87831500  1
  Si  Si14  1  0.00000000  0.03809900  0.37831500  1
  Si  Si15  1  0.00000000  0.96190100  0.62168500  1
  Si  Si16  1  0.50000000  0.61035000  0.39346700  1
  Si  Si17  1  0.50000000  0.38965000  0.60653300  1
  Si  Si18  1  0.50000000  0.11035000  0.10653300  1
  Si  Si19  1  0.50000000  0.88965000  0.89346700  1
  Si  Si20  1  0.00000000  0.62666300  0.39026700  1
  Si  Si21  1  0.00000000  0.37333700  0.60973300  1
  Si  Si22  1  0.00000000  0.12666300  0.10973300  1
  Si  Si23  1  0.00000000  0.87333700  0.89026700  1
loop_
_geom_bond_atom_site_label_1
_geom_bond_atom_site_label_2
_geom_bond_distance
_geom_bond_site_symmetry_2
Sc0 Si20 2.730581 1_555
Sc0 Si0 2.750131 1_555
Sc0 Si6 2.778099 1_555
Sc0 Si14 2.810906 1_565
Sc0 Si15 2.823552 1_555
Sc0 Si16 2.853290 1_555
Sc0 Si11 2.870531 1_555
Sc0 Si10 2.884679 1_565
Sc1 Si21 2.730581 1_555
Sc1 Si1 2.750131 1_555
Sc1 Si7 2.778099 1_555
Sc1 Si15 2.810906 1_545
Sc1 Si14 2.823552 1_555
Sc1 Si17 2.853290 1_555
Sc1 Si10 2.870531 1_555
Sc1 Si11 2.884679 1_545
Sc2 Si22 2.730581 1_655
Sc2 Si2 2.750131 1_555
Sc2 Si4 2.778099 1_554
Sc2 Si12 2.810906 1_655
Sc2 Si13 2.823552 1_654
Sc2 Si18 2.853290 1_555
Sc2 Si9 2.870531 1_554
Sc2 Si8 2.884679 1_555
Sc3 Si23 2.730581 1_655
Sc3 Si3 2.750131 1_555
Sc3 Si5 2.778099 1_556
Sc3 Si13 2.810906 1_655
Sc3 Si12 2.823552 1_656
Sc3 Si19 2.853290 1_555
Sc3 Si8 2.870531 1_556
Sc3 Si9 2.884679 1_555
Sc4 Si21 2.730581 1_655
Sc4 Si4 2.750131 1_555
Sc4 Si2 2.778099 1_555
Sc4 Si15 2.810906 1_645
Sc4 Si14 2.823552 1_655
Sc4 Si17 2.853290 1_555
Sc4 Si10 2.870531 1_555
Sc4 Si11 2.884679 1_545
Sc5 Si20 2.730581 1_655
Sc5 Si5 2.750131 1_555
Sc5 Si3 2.778099 1_555
Sc5 Si14 2.810906 1_665
Sc5 Si15 2.823552 1_655
Sc5 Si16 2.853290 1_555
Sc5 Si11 2.870531 1_555
Sc5 Si10 2.884679 1_565
Sc6 Si23 2.730581 1_555
Sc6 Si6 2.750131 1_555
Sc6 Si0 2.778099 1_556
Sc6 Si13 2.810906 1_555
Sc6 Si12 2.823552 1_556
Sc6 Si19 2.853290 1_555
Sc6 Si8 2.870531 1_556
Sc6 Si9 2.884679 1_555
Sc7 Si22 2.730581 1_555
Sc7 Si7 2.750131 1_555
Sc7 Si1 2.778099 1_554
Sc7 Si12 2.810906 1_555
Sc7 Si13 2.823552 1_554
Sc7 Si18 2.853290 1_555
Sc7 Si9 2.870531 1_554
Sc7 Si8 2.884679 1_555
Sc8 Si14 2.702700 1_565
Sc8 Si12 2.710525 1_555
Sc8 Si22 2.730430 1_565
Sc8 Si0 2.736828 1_555
Sc8 Si5 2.736828 1_455
Sc8 Si20 2.792245 1_555
Sc8 Si23 2.810622 1_554
Sc9 Si15 2.702700 1_545
Sc9 Si13 2.710525 1_555
Sc9 Si23 2.730430 1_545
Sc9 Si1 2.736828 1_555
Sc9 Si4 2.736828 1_455
Sc9 Si21 2.792245 1_555
Sc9 Si22 2.810622 1_556
Sc10 Si12 2.702700 1_555
Sc10 Si14 2.710525 1_555
Sc10 Si20 2.730430 1_555
Sc10 Si7 2.736828 1_555
Sc10 Si2 2.736828 1_455
Sc10 Si22 2.792245 1_555
Sc10 Si21 2.810622 1_555
Sc11 Si13 2.702700 1_555
Sc11 Si15 2.710525 1_555
Sc11 Si21 2.730430 1_555
Sc11 Si6 2.736828 1_555
Sc11 Si3 2.736828 1_455
Sc11 Si23 2.792245 1_555
Sc11 Si20 2.810622 1_555
Mn0 Si8 2.316502 1_555
Mn0 Si12 2.331853 1_555
Mn0 Si20 2.442639 1_555
Mn0 Si16 2.461224 1_555
Mn0 Si7 2.475260 1_555
Mn0 Si0 2.480576 1_555
Mn1 Si9 2.316502 1_555
Mn1 Si13 2.331853 1_555
Mn1 Si21 2.442639 1_555
Mn1 Si17 2.461224 1_555
Mn1 Si6 2.475260 1_555
Mn1 Si1 2.480576 1_555
Mn2 Si10 2.316502 1_555
Mn2 Si14 2.331853 1_655
Mn2 Si22 2.442639 1_655
Mn2 Si18 2.461224 1_555
Mn2 Si5 2.475260 1_545
Mn2 Si2 2.480576 1_555
Mn3 Si11 2.316502 1_555
Mn3 Si15 2.331853 1_655
Mn3 Si23 2.442639 1_655
Mn3 Si19 2.461224 1_555
Mn3 Si4 2.475260 1_565
Mn3 Si3 2.480576 1_555
Mn4 Si9 2.316502 1_555
Mn4 Si13 2.331853 1_655
Mn4 Si21 2.442639 1_655
Mn4 Si17 2.461224 1_555
Mn4 Si3 2.475260 1_555
Mn4 Si4 2.480576 1_555
Mn5 Si8 2.316502 1_555
Mn5 Si12 2.331853 1_655
Mn5 Si20 2.442639 1_655
Mn5 Si16 2.461224 1_555
Mn5 Si2 2.475260 1_555
Mn5 Si5 2.480576 1_555
Mn6 Si11 2.316502 1_555
Mn6 Si15 2.331853 1_555
Mn6 Si23 2.442639 1_555
Mn6 Si19 2.461224 1_555
Mn6 Si1 2.475260 1_565
Mn6 Si6 2.480576 1_555
Mn7 Si10 2.316502 1_555
Mn7 Si14 2.331853 1_555
Mn7 Si22 2.442639 1_555
Mn7 Si18 2.461224 1_555
Mn7 Si0 2.475260 1_545
Mn7 Si7 2.480576 1_555
Mn8 Si6 2.464579 1_555
Mn8 Si7 2.464579 1_555
Mn8 Si17 2.468001 1_555
Mn8 Si16 2.468001 1_555
Mn8 Si21 2.484767 1_555
Mn8 Si20 2.484767 1_555
Mn9 Si5 2.464579 1_545
Mn9 Si4 2.464579 1_554
Mn9 Si18 2.468001 1_555
Mn9 Si19 2.468001 1_544
Mn9 Si22 2.484767 1_655
Mn9 Si23 2.484767 1_644
Mn10 Si3 2.464579 1_555
Mn10 Si2 2.464579 1_555
Mn10 Si17 2.468001 1_555
Mn10 Si16 2.468001 1_555
Mn10 Si20 2.484767 1_655
Mn10 Si21 2.484767 1_655
Mn11 Si1 2.464579 1_554
Mn11 Si0 2.464579 1_545
Mn11 Si18 2.468001 1_555
Mn11 Si19 2.468001 1_544
Mn11 Si22 2.484767 1_555
Mn11 Si23 2.484767 1_544
Si0 Si5 2.399359 1_555
Si1 Si4 2.399359 1_555
Si2 Si7 2.399359 1_555
Si3 Si6 2.399359 1_555
Si12 Si13 2.468235 1_554
Si14 Si15 2.468235 1_545
