# generated using pymatgen
data_La3Tl5
_symmetry_space_group_name_H-M   'P 1'
_cell_length_a   6.91979778
_cell_length_b   6.91979778
_cell_length_c   10.56420400
_cell_angle_alpha   90.00000000
_cell_angle_beta   90.00000000
_cell_angle_gamma   102.91121510
_symmetry_Int_Tables_number   1
_chemical_formula_structural   La3Tl5
_chemical_formula_sum   'La6 Tl10'
_cell_volume   493.06291438
_cell_formula_units_Z   2
loop_
 _symmetry_equiv_pos_site_id
 _symmetry_equiv_pos_as_xyz
  1  'x, y, z'
loop_
 _atom_site_type_symbol
 _atom_site_label
 _atom_site_symmetry_multiplicity
 _atom_site_fract_x
 _atom_site_fract_y
 _atom_site_fract_z
 _atom_site_occupancy
  La  La0  1  0.63628700  0.63628700  0.25000000  1
  La  La1  1  0.36371300  0.36371300  0.75000000  1
  La  La2  1  0.79817700  0.20182300  0.50000000  1
  La  La3  1  0.79817700  0.20182300  0.00000000  1
  La  La4  1  0.20182300  0.79817700  0.50000000  1
  La  La5  1  0.20182300  0.79817700  0.00000000  1
  Tl  Tl0  1  0.00518900  0.00518900  0.25000000  1
  Tl  Tl1  1  0.99481100  0.99481100  0.75000000  1
  Tl  Tl2  1  0.30517800  0.30517800  0.05507500  1
  Tl  Tl3  1  0.69482200  0.69482200  0.94492500  1
  Tl  Tl4  1  0.30517800  0.30517800  0.44492500  1
  Tl  Tl5  1  0.69482200  0.69482200  0.55507500  1
  Tl  Tl6  1  0.06232300  0.50586300  0.25000000  1
  Tl  Tl7  1  0.49413700  0.93767700  0.75000000  1
  Tl  Tl8  1  0.93767700  0.49413700  0.75000000  1
  Tl  Tl9  1  0.50586300  0.06232300  0.25000000  1
loop_
_geom_bond_atom_site_label_1
_geom_bond_atom_site_label_2
_geom_bond_distance
_geom_bond_site_symmetry_2
La0 Tl0 3.181315 1_665
La0 Tl5 3.262167 1_555
La0 Tl3 3.262167 1_554
La0 Tl9 3.270278 1_565
La0 Tl6 3.270278 1_655
La0 Tl4 3.520471 1_555
La0 Tl2 3.520471 1_555
La0 Tl6 3.871329 1_555
La0 Tl9 3.871329 1_555
La1 Tl1 3.181315 1_445
La1 Tl2 3.262167 1_556
La1 Tl4 3.262167 1_555
La1 Tl8 3.270278 1_455
La1 Tl7 3.270278 1_545
La1 Tl3 3.520471 1_555
La1 Tl5 3.520471 1_555
La1 Tl7 3.871329 1_555
La1 Tl8 3.871329 1_555
La2 Tl9 3.335556 1_555
La2 Tl8 3.335556 1_555
La2 Tl1 3.427769 1_545
La2 Tl0 3.427769 1_655
La2 Tl5 3.469468 1_545
La2 Tl4 3.469468 1_655
La2 Tl7 3.608877 1_545
La2 Tl6 3.608877 1_655
La2 Tl5 3.684883 1_555
La2 Tl4 3.684883 1_555
La3 Tl9 3.335556 1_555
La3 Tl8 3.335556 1_554
La3 Tl1 3.427769 1_544
La3 Tl0 3.427769 1_655
La3 Tl2 3.469468 1_655
La3 Tl3 3.469468 1_544
La3 Tl7 3.608877 1_544
La3 Tl6 3.608877 1_655
La3 Tl2 3.684883 1_555
La3 Tl3 3.684883 1_554
La4 Tl6 3.335556 1_555
La4 Tl7 3.335556 1_555
La4 Tl1 3.427769 1_455
La4 Tl0 3.427769 1_565
La4 Tl5 3.469468 1_455
La4 Tl4 3.469468 1_565
La4 Tl8 3.608877 1_455
La4 Tl9 3.608877 1_565
La4 Tl5 3.684883 1_555
La4 Tl4 3.684883 1_555
La5 Tl6 3.335556 1_555
La5 Tl7 3.335556 1_554
La5 Tl1 3.427769 1_454
La5 Tl0 3.427769 1_565
La5 Tl2 3.469468 1_565
La5 Tl3 3.469468 1_454
La5 Tl8 3.608877 1_454
La5 Tl9 3.608877 1_565
La5 Tl2 3.684883 1_555
La5 Tl3 3.684883 1_554
Tl0 Tl4 3.306528 1_555
Tl0 Tl2 3.306528 1_555
Tl0 Tl9 3.398145 1_555
Tl0 Tl6 3.398145 1_555
Tl0 Tl9 3.564466 1_455
Tl0 Tl6 3.564466 1_545
Tl1 Tl3 3.306528 1_555
Tl1 Tl5 3.306528 1_555
Tl1 Tl7 3.398145 1_555
Tl1 Tl8 3.398145 1_555
Tl1 Tl7 3.564466 1_655
Tl1 Tl8 3.564466 1_565
Tl2 Tl6 3.167950 1_555
Tl2 Tl9 3.167950 1_555
Tl2 Tl3 3.555973 1_554
Tl3 Tl7 3.167950 1_555
Tl3 Tl8 3.167950 1_555
Tl4 Tl6 3.167950 1_555
Tl4 Tl9 3.167950 1_555
Tl4 Tl5 3.555973 1_555
Tl5 Tl7 3.167950 1_555
Tl5 Tl8 3.167950 1_555
