# generated using pymatgen
data_CeMoO2
_symmetry_space_group_name_H-M   'P 1'
_cell_length_a   7.59632393
_cell_length_b   7.59632393
_cell_length_c   7.59632393
_cell_angle_alpha   129.81601178
_cell_angle_beta   129.81601178
_cell_angle_gamma   73.70107174
_symmetry_Int_Tables_number   1
_chemical_formula_structural   CeMoO2
_chemical_formula_sum   'Ce4 Mo4 O8'
_cell_volume   252.31986647
_cell_formula_units_Z   4
loop_
 _symmetry_equiv_pos_site_id
 _symmetry_equiv_pos_as_xyz
  1  'x, y, z'
loop_
 _atom_site_type_symbol
 _atom_site_label
 _atom_site_symmetry_multiplicity
 _atom_site_fract_x
 _atom_site_fract_y
 _atom_site_fract_z
 _atom_site_occupancy
  Ce  Ce0  1  0.87500000  0.62500000  0.25000000  1
  Ce  Ce1  1  0.37500000  0.62500000  0.75000000  1
  Ce  Ce2  1  0.37500000  0.62500000  0.25000000  1
  Ce  Ce3  1  0.37500000  0.12500000  0.75000000  1
  Mo  Mo0  1  0.37500000  0.12500000  0.25000000  1
  Mo  Mo1  1  0.87500000  0.12500000  0.75000000  1
  Mo  Mo2  1  0.87500000  0.12500000  0.25000000  1
  Mo  Mo3  1  0.87500000  0.62500000  0.75000000  1
  O  O0  1  0.17230100  0.39614100  0.22384000  1
  O  O1  1  0.17230100  0.94846000  0.77616000  1
  O  O2  1  0.14614100  0.42230100  0.72384000  1
  O  O3  1  0.57769900  0.85385900  0.27616000  1
  O  O4  1  0.69846000  0.42230100  0.27616000  1
  O  O5  1  0.57769900  0.30154000  0.72384000  1
  O  O6  1  0.60385900  0.82769900  0.77616000  1
  O  O7  1  0.05154000  0.82769900  0.22384000  1
loop_
_geom_bond_atom_site_label_1
_geom_bond_atom_site_label_2
_geom_bond_distance
_geom_bond_site_symmetry_2
Ce0 O1 2.467938 1_655
Ce0 O5 2.467938 1_554
Ce0 O0 2.467939 1_655
Ce0 O3 2.467939 1_555
Ce0 O7 2.470015 1_655
Ce0 O4 2.470015 1_555
Ce1 O5 2.467933 1_555
Ce1 O1 2.467933 1_555
Ce1 O0 2.467939 1_555
Ce1 O3 2.467939 1_556
Ce1 O6 2.470009 1_555
Ce1 O2 2.470009 1_555
Ce2 O7 2.467933 1_555
Ce2 O4 2.467933 1_555
Ce2 O2 2.467939 1_554
Ce2 O6 2.467939 1_555
Ce2 O3 2.470009 1_555
Ce2 O0 2.470009 1_555
Ce3 O7 2.467938 1_545
Ce3 O4 2.467938 1_556
Ce3 O6 2.467939 1_545
Ce3 O2 2.467939 1_555
Ce3 O5 2.470015 1_555
Ce3 O1 2.470015 1_545
Mo0 O1 2.237147 1_544
Mo0 O5 2.237147 1_555
Mo0 O0 2.237149 1_555
Mo0 O3 2.237149 1_545
Mo1 O0 2.237149 1_656
Mo1 O3 2.237149 1_545
Mo1 O1 2.237152 1_645
Mo1 O5 2.237152 1_555
Mo2 O2 2.237149 1_655
Mo2 O6 2.237149 1_544
Mo2 O4 2.237152 1_555
Mo2 O7 2.237152 1_645
Mo3 O4 2.237147 1_555
Mo3 O7 2.237147 1_656
Mo3 O2 2.237149 1_655
Mo3 O6 2.237149 1_555
