# generated using pymatgen
data_KLa(NiO3)4
_symmetry_space_group_name_H-M   'P 1'
_cell_length_a   5.47873554
_cell_length_b   5.47873554
_cell_length_c   7.72151582
_cell_angle_alpha   90.00000000
_cell_angle_beta   90.00000000
_cell_angle_gamma   90.42821963
_symmetry_Int_Tables_number   1
_chemical_formula_structural   KLa(NiO3)4
_chemical_formula_sum   'K1 La1 Ni4 O12'
_cell_volume   231.76673899
_cell_formula_units_Z   1
loop_
 _symmetry_equiv_pos_site_id
 _symmetry_equiv_pos_as_xyz
  1  'x, y, z'
loop_
 _atom_site_type_symbol
 _atom_site_label
 _atom_site_symmetry_multiplicity
 _atom_site_fract_x
 _atom_site_fract_y
 _atom_site_fract_z
 _atom_site_occupancy
  K  K0  1  0.99892498  0.99892498  -0.00000000  1
  La  La0  1  0.50399478  0.50399478  0.50000000  1
  Ni  Ni0  1  0.49963440  0.00083079  0.75358762  1
  Ni  Ni1  1  0.49963440  0.00083079  0.24641238  1
  Ni  Ni2  1  0.00083079  0.49963440  0.24641238  1
  Ni  Ni3  1  0.00083079  0.49963440  0.75358762  1
  O  O0  1  0.72983587  0.26985171  0.73631846  1
  O  O1  1  0.26985171  0.72983587  0.73631846  1
  O  O2  1  0.26985171  0.72983587  0.26368154  1
  O  O3  1  0.72983587  0.26985171  0.26368154  1
  O  O4  1  0.74122163  0.74122163  0.74157573  1
  O  O5  1  0.25884115  0.25884115  0.72827627  1
  O  O6  1  0.25884115  0.25884115  0.27172373  1
  O  O7  1  0.74122163  0.74122163  0.25842427  1
  O  O8  1  0.49620749  0.00590892  -0.00000000  1
  O  O9  1  0.50636294  0.98786978  0.50000000  1
  O  O10  1  0.00590892  0.49620749  0.00000000  1
  O  O11  1  0.98786978  0.50636294  0.50000000  1
loop_
_geom_bond_atom_site_label_1
_geom_bond_atom_site_label_2
_geom_bond_distance
_geom_bond_site_symmetry_2
K0 O10 2.724462 1_665
K0 O8 2.724462 1_665
K0 O10 2.754808 1_655
K0 O8 2.754808 1_565
K0 O7 2.817586 1_555
K0 O4 2.817586 1_554
K0 O5 2.903001 1_664
K0 O6 2.903001 1_665
K0 O2 2.924861 1_655
K0 O1 2.924861 1_654
K0 O3 2.924861 1_565
K0 O0 2.924861 1_564
La0 O3 2.555378 1_555
La0 O0 2.555378 1_555
La0 O2 2.555378 1_555
La0 O1 2.555378 1_555
La0 O6 2.586105 1_555
La0 O5 2.586105 1_555
La0 O7 2.613937 1_555
La0 O4 2.613937 1_555
La0 O9 2.650958 1_555
La0 O11 2.650958 1_555
La0 O11 2.827839 1_455
La0 O9 2.827839 1_545
Ni0 O8 1.902975 1_556
Ni0 O0 1.937271 1_555
Ni0 O1 1.943986 1_545
Ni0 O5 1.950552 1_555
Ni0 O4 1.952348 1_545
Ni0 O9 1.959725 1_545
Ni1 O8 1.902975 1_555
Ni1 O3 1.937271 1_555
Ni1 O2 1.943986 1_545
Ni1 O6 1.950552 1_555
Ni1 O7 1.952348 1_545
Ni1 O9 1.959725 1_545
Ni2 O10 1.902975 1_555
Ni2 O2 1.937271 1_555
Ni2 O3 1.943986 1_455
Ni2 O6 1.950552 1_555
Ni2 O7 1.952348 1_455
Ni2 O11 1.959725 1_455
Ni3 O10 1.902975 1_556
Ni3 O1 1.937271 1_555
Ni3 O0 1.943986 1_455
Ni3 O5 1.950552 1_555
Ni3 O4 1.952348 1_455
Ni3 O11 1.959725 1_455
