# generated using pymatgen
data_Li4Mn3Sn3(SbO8)2
_symmetry_space_group_name_H-M   'P 1'
_cell_length_a   6.29159306
_cell_length_b   6.29159306
_cell_length_c   9.95406416
_cell_angle_alpha   88.98681144
_cell_angle_beta   88.98681144
_cell_angle_gamma   59.56833182
_symmetry_Int_Tables_number   1
_chemical_formula_structural   Li4Mn3Sn3(SbO8)2
_chemical_formula_sum   'Li4 Mn3 Sn3 Sb2 O16'
_cell_volume   339.66953466
_cell_formula_units_Z   1
loop_
 _symmetry_equiv_pos_site_id
 _symmetry_equiv_pos_as_xyz
  1  'x, y, z'
loop_
 _atom_site_type_symbol
 _atom_site_label
 _atom_site_symmetry_multiplicity
 _atom_site_fract_x
 _atom_site_fract_y
 _atom_site_fract_z
 _atom_site_occupancy
  Li  Li0  1  0.66198200  0.66198200  0.10165600  1
  Li  Li1  1  0.99271400  0.99271400  0.01979900  1
  Li  Li2  1  0.99396700  0.99396700  0.50541700  1
  Li  Li3  1  0.32654900  0.32654900  0.59131700  1
  Mn  Mn0  1  0.83061500  0.83061500  0.78768700  1
  Mn  Mn1  1  0.17383200  0.66180500  0.29041200  1
  Mn  Mn2  1  0.66180500  0.17383200  0.29041200  1
  Sn  Sn0  1  0.33975200  0.83182500  0.78696000  1
  Sn  Sn1  1  0.83182500  0.33975200  0.78696000  1
  Sn  Sn2  1  0.17333400  0.17333400  0.28620600  1
  Sb  Sb0  1  0.67260600  0.67260600  0.50908500  1
  Sb  Sb1  1  0.34293800  0.34293800  0.01938500  1
  O  O0  1  0.34602200  0.83363800  0.41055900  1
  O  O1  1  0.51899900  0.51899900  0.65373600  1
  O  O2  1  0.65885800  0.65885800  0.89787700  1
  O  O3  1  0.00555600  0.00555600  0.69174900  1
  O  O4  1  0.00888000  0.00888000  0.20137800  1
  O  O5  1  0.83363800  0.34602200  0.41055900  1
  O  O6  1  0.51151100  0.95605300  0.65079600  1
  O  O7  1  0.95605300  0.51151100  0.65079600  1
  O  O8  1  0.16731800  0.16731800  0.90122500  1
  O  O9  1  0.83177400  0.83177400  0.41414800  1
  O  O10  1  0.03920800  0.47424500  0.14144900  1
  O  O11  1  0.47424500  0.03920800  0.14144900  1
  O  O12  1  0.32567500  0.32567500  0.39652200  1
  O  O13  1  0.17477600  0.66441700  0.90514200  1
  O  O14  1  0.48094600  0.48094600  0.14430300  1
  O  O15  1  0.66441700  0.17477600  0.90514200  1
loop_
_geom_bond_atom_site_label_1
_geom_bond_atom_site_label_2
_geom_bond_distance
_geom_bond_site_symmetry_2
Li0 O14 2.013678 1_555
Li0 O2 2.029411 1_554
Li0 O11 2.088475 1_565
Li0 O10 2.088475 1_655
Li1 O4 1.819627 1_665
Li1 O13 2.126348 1_654
Li1 O15 2.126348 1_564
Li1 O8 2.222037 1_664
Li2 O3 1.861645 1_665
Li2 O9 2.007104 1_555
Li2 O5 2.124044 1_565
Li2 O0 2.124044 1_655
Li3 O12 1.939220 1_555
Li3 O6 2.089493 1_545
Li3 O7 2.089493 1_455
Li3 O1 2.203764 1_555
Mn0 O3 2.118430 1_665
Mn0 O2 2.153527 1_555
Mn0 O13 2.213948 1_655
Mn0 O15 2.213948 1_565
Mn0 O6 2.227993 1_555
Mn0 O7 2.227993 1_555
Mn1 O4 2.073450 1_565
Mn1 O12 2.100161 1_555
Mn1 O14 2.208029 1_555
Mn1 O9 2.216655 1_455
Mn1 O0 2.247385 1_555
Mn1 O10 2.329678 1_555
Mn2 O4 2.073450 1_655
Mn2 O12 2.100161 1_555
Mn2 O14 2.208029 1_555
Mn2 O9 2.216655 1_545
Mn2 O5 2.247385 1_555
Mn2 O11 2.329678 1_555
O0 Sb0 2.034087 1_555
O0 Sn2 2.209545 1_565
O1 Sn0 2.166801 1_555
O1 Sn1 2.166801 1_555
O1 Sb0 2.188362 1_555
O2 Sn1 2.063166 1_555
O2 Sn0 2.063166 1_555
O3 Sn0 2.054175 1_545
O3 Sn1 2.054175 1_455
O4 Sn2 2.000098 1_555
O5 Sb0 2.034087 1_555
O5 Sn2 2.209545 1_655
O6 Sn0 2.093343 1_555
O6 Sb0 2.098743 1_555
O7 Sn1 2.093343 1_555
O7 Sb0 2.098743 1_555
O8 Sn0 2.155820 1_545
O8 Sn1 2.155820 1_455
O8 Sb1 2.270200 1_556
O9 Sb0 1.961553 1_555
O10 Sb1 2.040747 1_555
O10 Sn2 2.168113 1_555
O11 Sb1 2.040747 1_555
O11 Sn2 2.168113 1_555
O12 Sn2 2.012012 1_555
O13 Sb1 2.072905 1_556
O13 Sn0 2.142686 1_555
O14 Sb1 1.973351 1_555
O15 Sb1 2.072905 1_556
O15 Sn1 2.142686 1_555
