# generated using pymatgen
data_Rb2V(PO4)2
_symmetry_space_group_name_H-M   'P 1'
_cell_length_a   7.04227672
_cell_length_b   9.08098296
_cell_length_c   12.86542746
_cell_angle_alpha   89.99610581
_cell_angle_beta   89.99996368
_cell_angle_gamma   89.99999436
_symmetry_Int_Tables_number   1
_chemical_formula_structural   Rb2V(PO4)2
_chemical_formula_sum   'Rb8 V4 P8 O32'
_cell_volume   822.75431074
_cell_formula_units_Z   4
loop_
 _symmetry_equiv_pos_site_id
 _symmetry_equiv_pos_as_xyz
  1  'x, y, z'
loop_
 _atom_site_type_symbol
 _atom_site_label
 _atom_site_symmetry_multiplicity
 _atom_site_fract_x
 _atom_site_fract_y
 _atom_site_fract_z
 _atom_site_occupancy
  Rb  Rb0  1  0.76949575  0.39053384  0.59273388  1
  Rb  Rb1  1  0.26949559  0.10946555  0.40726482  1
  Rb  Rb2  1  0.23045770  0.89057193  0.90723570  1
  Rb  Rb3  1  0.73045734  0.60942861  0.09276509  1
  Rb  Rb4  1  0.72935286  0.16864277  0.90696774  1
  Rb  Rb5  1  0.22935207  0.33135771  0.09303272  1
  Rb  Rb6  1  0.27057266  0.66858561  0.59303455  1
  Rb  Rb7  1  0.77057381  0.83141319  0.40696599  1
  V  V0  1  0.74632003  0.24293409  0.30810156  1
  V  V1  1  0.24632208  0.25706634  0.69189670  1
  V  V2  1  0.75365656  0.75704755  0.80807277  1
  V  V3  1  0.25365434  0.74295391  0.19192865  1
  P  P0  1  0.58605529  0.00975690  0.66205636  1
  P  P1  1  0.08605261  0.49024269  0.33794405  1
  P  P2  1  0.41392329  0.50978849  0.83792677  1
  P  P3  1  0.91392241  0.99021100  0.16207325  1
  P  P4  1  0.49362065  0.52963402  0.34936137  1
  P  P5  1  0.00634390  0.47037547  0.84934638  1
  P  P6  1  0.50634333  0.02962367  0.15065232  1
  P  P7  1  0.99362404  0.97036585  0.65063912  1
  O  O0  1  0.52508520  0.92271195  0.57056968  1
  O  O1  1  0.02508119  0.57728605  0.42943155  1
  O  O2  1  0.47496566  0.42290259  0.92948586  1
  O  O3  1  0.97496674  0.07709776  0.07051429  1
  O  O4  1  0.59066494  0.92368034  0.76473340  1
  O  O5  1  0.09066194  0.57632106  0.23526790  1
  O  O6  1  0.40946611  0.42354003  0.73532565  1
  O  O7  1  0.90946440  0.07646010  0.26467467  1
  O  O8  1  0.30280195  0.43237262  0.35235123  1
  O  O9  1  0.80280497  0.06762742  0.64764942  1
  O  O10  1  0.69717091  0.93235295  0.14772615  1
  O  O11  1  0.19717136  0.56764765  0.85227261  1
  O  O12  1  0.48837170  0.15720419  0.68025179  1
  O  O13  1  0.98836924  0.34279535  0.31974746  1
  O  O14  1  0.51155655  0.65723512  0.81960939  1
  O  O15  1  0.01155471  0.84276513  0.18039112  1
  O  O16  1  0.55498479  0.17119756  0.21076214  1
  O  O17  1  0.05498677  0.32880263  0.78923695  1
  O  O18  1  0.44503899  0.67121314  0.28923019  1
  O  O19  1  0.94504102  0.82878701  0.71077037  1
  O  O20  1  0.86833355  0.56085429  0.78380664  1
  O  O21  1  0.36833340  0.93914567  0.21619194  1
  O  O22  1  0.13160726  0.06088456  0.71616935  1
  O  O23  1  0.63160388  0.43911534  0.28383101  1
  O  O24  1  0.82681789  0.80459525  0.92229381  1
  O  O25  1  0.32681522  0.69540385  0.07770790  1
  O  O26  1  0.55539481  0.56153729  0.45715758  1
  O  O27  1  0.67326099  0.19508795  0.42228232  1
  O  O28  1  0.94468189  0.43847573  0.95716250  1
  O  O29  1  0.44468200  0.06152415  0.04283593  1
  O  O30  1  0.05539821  0.93846256  0.54284305  1
  O  O31  1  0.17326347  0.30491151  0.57771536  1
loop_
_geom_bond_atom_site_label_1
_geom_bond_atom_site_label_2
_geom_bond_distance
_geom_bond_site_symmetry_2
O0 P0 1.481441 1_565
O0 Rb7 2.847222 1_555
O0 Rb6 2.936241 1_555
O0 Rb1 3.244922 1_565
O1 P1 1.481444 1_555
O1 Rb6 2.847231 1_555
O1 Rb7 2.936225 1_455
O1 Rb0 3.244877 1_455
O2 P2 1.481473 1_555
O2 Rb5 2.847784 1_556
O2 Rb4 2.936753 1_555
O2 Rb3 3.243396 1_556
O3 P3 1.481480 1_545
O3 Rb4 2.847784 1_554
O3 Rb5 2.936747 1_655
O3 Rb2 3.243385 1_644
O4 P0 1.535221 1_565
O4 V2 1.979404 1_555
O4 Rb4 3.041613 1_565
O4 Rb2 3.144239 1_555
O5 P1 1.535220 1_555
O5 V3 1.979407 1_555
O5 Rb5 3.041630 1_555
O5 Rb3 3.144229 1_455
O6 P2 1.535246 1_555
O6 V1 1.979306 1_555
O6 Rb6 3.042888 1_555
O6 Rb0 3.143837 1_555
O7 P3 1.535252 1_545
O7 V0 1.979302 1_555
O7 Rb7 3.042891 1_545
O7 Rb1 3.143834 1_655
O8 P4 1.608528 1_555
O8 P1 1.624942 1_555
O8 Rb1 3.025280 1_555
O8 Rb5 3.498565 1_555
O9 P7 1.608531 1_545
O9 P0 1.624945 1_555
O9 Rb0 3.025282 1_555
O9 Rb4 3.498565 1_555
O10 P6 1.608610 1_565
O10 P3 1.624841 1_555
O10 Rb3 3.025657 1_555
O10 Rb7 3.497253 1_555
O11 P5 1.608617 1_555
O11 P2 1.624845 1_555
O11 Rb2 3.025663 1_555
O11 Rb6 3.497225 1_555
O12 P0 1.523450 1_555
O12 V1 1.936602 1_555
O12 Rb0 3.110699 1_555
O12 Rb4 3.376173 1_555
O13 P1 1.523452 1_655
O13 V0 1.936597 1_555
O13 Rb1 3.110709 1_655
O13 Rb5 3.376163 1_655
O14 P2 1.523498 1_555
O14 V2 1.936587 1_555
O14 Rb2 3.111240 1_555
O14 Rb6 3.374578 1_555
O15 P3 1.523490 1_455
O15 V3 1.936580 1_555
O15 Rb3 3.111231 1_455
O15 Rb7 3.374566 1_455
O16 P6 1.538951 1_555
O16 V0 1.951501 1_555
O16 Rb5 3.109324 1_555
O16 Rb1 3.278321 1_555
O17 P5 1.538943 1_555
O17 V1 1.951506 1_555
O17 Rb4 3.109336 1_455
O17 Rb0 3.278333 1_455
O18 P4 1.538947 1_555
O18 V3 1.951385 1_555
O18 Rb7 3.109122 1_555
O18 Rb3 3.277783 1_555
O19 P7 1.538948 1_555
O19 V2 1.951386 1_555
O19 Rb6 3.109109 1_655
O19 Rb2 3.277780 1_655
O20 P5 1.526623 1_655
O20 V2 1.980892 1_555
O20 Rb0 2.986656 1_555
O21 P6 1.526616 1_565
O21 V3 1.980881 1_555
O21 Rb1 2.986654 1_565
O22 P7 1.526691 1_445
O22 V1 1.980882 1_555
O22 Rb2 2.986399 1_545
O23 P4 1.526691 1_555
O23 V0 1.980878 1_555
O23 Rb3 2.986402 1_555
O24 V2 1.615987 1_555
O24 Rb3 2.900189 1_556
O24 Rb2 2.954173 1_655
O24 Rb4 3.382150 1_565
O25 V3 1.615987 1_555
O25 Rb2 2.900201 1_554
O25 Rb3 2.954184 1_555
O25 Rb5 3.382134 1_555
O26 P4 1.482086 1_555
O26 Rb0 2.779712 1_555
O26 Rb6 2.832726 1_555
O26 Rb7 2.952823 1_555
O27 V0 1.615958 1_555
O27 Rb0 2.901523 1_555
O27 Rb1 2.954148 1_555
O27 Rb7 3.378642 1_545
O28 P5 1.482050 1_655
O28 Rb3 2.780272 1_556
O28 Rb5 2.832052 1_656
O28 Rb4 2.953124 1_555
O29 P6 1.482054 1_555
O29 Rb2 2.780250 1_544
O29 Rb4 2.832040 1_554
O29 Rb5 2.953137 1_555
O30 P7 1.482084 1_455
O30 Rb1 2.779711 1_565
O30 Rb7 2.832743 1_455
O30 Rb6 2.952815 1_555
O31 V1 1.615962 1_555
O31 Rb1 2.901508 1_555
O31 Rb0 2.954164 1_455
O31 Rb6 3.378634 1_555
