# generated using pymatgen
data_Dy12Si5S28
_symmetry_space_group_name_H-M   'P 1'
_cell_length_a   9.86330800
_cell_length_b   11.29474001
_cell_length_c   11.35280331
_cell_angle_alpha   119.79670251
_cell_angle_beta   115.73952487
_cell_angle_gamma   90.00268858
_symmetry_Int_Tables_number   1
_chemical_formula_structural   Dy12Si5S28
_chemical_formula_sum   'Dy12 Si5 S28'
_cell_volume   950.19642971
_cell_formula_units_Z   1
loop_
 _symmetry_equiv_pos_site_id
 _symmetry_equiv_pos_as_xyz
  1  'x, y, z'
loop_
 _atom_site_type_symbol
 _atom_site_label
 _atom_site_symmetry_multiplicity
 _atom_site_fract_x
 _atom_site_fract_y
 _atom_site_fract_z
 _atom_site_occupancy
  Dy  Dy0  1  0.76194600  0.70065600  0.63577700  1
  Dy  Dy1  1  0.77415000  0.19102700  0.65342400  1
  Dy  Dy2  1  0.34751500  0.42485500  0.12061200  1
  Dy  Dy3  1  0.36249800  0.94506900  0.12610400  1
  Dy  Dy4  1  0.87811600  0.47666200  0.22467900  1
  Dy  Dy5  1  0.87704300  0.00288000  0.24006000  1
  Dy  Dy6  1  0.22713300  0.30733100  0.34412000  1
  Dy  Dy7  1  0.23460100  0.79967000  0.36564400  1
  Dy  Dy8  1  0.63492800  0.55313200  0.87166300  1
  Dy  Dy9  1  0.65638900  0.07570400  0.88182800  1
  Dy  Dy10  1  0.12925500  0.50033300  0.76544600  1
  Dy  Dy11  1  0.11839700  0.02103500  0.77331500  1
  Si  Si0  1  0.66465800  0.25029600  0.33438100  1
  Si  Si1  1  0.66819500  0.74880900  0.33148700  1
  Si  Si2  1  0.33298600  0.66535400  0.66652600  1
  Si  Si3  1  0.33375800  0.16459300  0.66686100  1
  Si  Si4  1  0.99933900  0.75923900  0.99968200  1
  S  S0  1  0.66648800  0.43547300  0.33334100  1
  S  S1  1  0.66713100  0.93529900  0.33312200  1
  S  S2  1  0.32836800  0.34500500  0.65604400  1
  S  S3  1  0.33827400  0.85583300  0.67678000  1
  S  S4  1  0.88974200  0.25149600  0.48921300  1
  S  S5  1  0.89686100  0.74360100  0.47357500  1
  S  S6  1  0.52307600  0.21728200  0.42152800  1
  S  S7  1  0.51307200  0.70780000  0.40160400  1
  S  S8  1  0.59053900  0.06110900  0.10724200  1
  S  S9  1  0.58428300  0.55860000  0.10451900  1
  S  S10  1  0.10632500  0.51772100  0.52256000  1
  S  S11  1  0.10587800  0.01378100  0.51736900  1
  S  S12  1  0.48316500  0.55093700  0.58982400  1
  S  S13  1  0.47773500  0.04689800  0.58310100  1
  S  S14  1  0.41301600  0.70296000  0.89478400  1
  S  S15  1  0.41412000  0.20209200  0.89294000  1
  S  S16  1  0.85294700  0.53486400  0.77066900  1
  S  S17  1  0.83030100  0.99934800  0.74010400  1
  S  S18  1  0.25856400  0.17429100  0.08895900  1
  S  S19  1  0.22935100  0.69080600  0.08339500  1
  S  S20  1  0.91299900  0.21543400  0.16996700  1
  S  S21  1  0.91649100  0.72236200  0.14747400  1
  S  S22  1  0.16693200  0.51158400  0.25718300  1
  S  S23  1  0.15393800  0.98676300  0.23251400  1
  S  S24  1  0.76748600  0.83171700  0.92189200  1
  S  S25  1  0.74338800  0.33799900  0.90965900  1
  S  S26  1  0.07827800  0.79370900  0.84531200  1
  S  S27  1  0.09034500  0.29959000  0.83371700  1
loop_
_geom_bond_atom_site_label_1
_geom_bond_atom_site_label_2
_geom_bond_distance
_geom_bond_site_symmetry_2
Dy0 S26 2.750754 1_655
Dy0 S7 2.764949 1_555
Dy0 S24 2.795034 1_555
Dy0 S16 2.883346 1_555
Dy0 S5 2.900514 1_555
Dy0 S12 2.927365 1_555
Dy0 S17 2.928123 1_555
Dy0 S0 2.935590 1_555
Dy1 S25 2.697651 1_555
Dy1 S27 2.716677 1_655
Dy1 S17 2.757947 1_545
Dy1 S6 2.874864 1_555
Dy1 S4 2.890196 1_555
Dy1 S13 2.918156 1_555
Dy1 S1 2.984493 1_545
Dy1 S16 3.379567 1_555
Dy2 S27 2.699686 1_554
Dy2 S22 2.724944 1_555
Dy2 S18 2.761032 1_555
Dy2 S7 2.898104 1_555
Dy2 S9 2.900617 1_555
Dy2 S15 2.907673 1_554
Dy2 S0 2.976198 1_555
Dy2 S19 3.375495 1_555
Dy3 S23 2.739692 1_555
Dy3 S8 2.742207 1_565
Dy3 S26 2.786541 1_554
Dy3 S19 2.875743 1_555
Dy3 S6 2.889206 1_565
Dy3 S14 2.936357 1_554
Dy3 S18 2.939643 1_565
Dy3 S1 2.947572 1_555
Dy4 S25 2.704508 1_554
Dy4 S22 2.710893 1_655
Dy4 S20 2.752087 1_555
Dy4 S5 2.861474 1_555
Dy4 S10 2.923659 1_655
Dy4 S0 2.983639 1_555
Dy4 S9 2.989622 1_555
Dy4 S21 3.364260 1_555
Dy5 S24 2.760777 1_544
Dy5 S23 2.772571 1_645
Dy5 S4 2.774893 1_555
Dy5 S8 2.824282 1_555
Dy5 S21 2.887966 1_545
Dy5 S11 2.909266 1_655
Dy5 S20 2.943847 1_555
Dy5 S1 2.947336 1_545
Dy6 S18 2.683177 1_555
Dy6 S20 2.688099 1_455
Dy6 S12 2.825235 1_555
Dy6 S22 2.898780 1_555
Dy6 S10 2.912568 1_555
Dy6 S6 2.997954 1_555
Dy6 S2 3.024809 1_555
Dy6 S23 3.143590 1_545
Dy7 S13 2.765672 1_565
Dy7 S19 2.778910 1_555
Dy7 S21 2.800398 1_455
Dy7 S22 2.802370 1_555
Dy7 S11 2.861318 1_565
Dy7 S7 2.869632 1_555
Dy7 S3 2.925879 1_555
Dy7 S23 3.084268 1_555
Dy8 S21 2.769290 1_556
Dy8 S14 2.789508 1_555
Dy8 S25 2.806405 1_555
Dy8 S16 2.808517 1_555
Dy8 S9 2.868188 1_556
Dy8 S12 2.870589 1_555
Dy8 S2 2.917611 1_555
Dy8 S24 3.082883 1_555
Dy9 S20 2.697229 1_556
Dy9 S17 2.700592 1_545
Dy9 S15 2.801243 1_555
Dy9 S13 2.902622 1_555
Dy9 S25 2.906350 1_555
Dy9 S8 2.976713 1_556
Dy9 S3 3.056293 1_545
Dy9 S24 3.132889 1_545
Dy10 S10 2.773036 1_555
Dy10 S16 2.774964 1_455
Dy10 S19 2.796261 1_556
Dy10 S27 2.809565 1_555
Dy10 S4 2.849494 1_455
Dy10 S14 2.883979 1_555
Dy10 S2 2.903584 1_555
Dy10 S26 3.076533 1_555
Dy11 S17 2.693384 1_445
Dy11 S18 2.698292 1_556
Dy11 S11 2.813688 1_555
Dy11 S15 2.886660 1_555
Dy11 S27 2.909655 1_555
Dy11 S5 3.019424 1_445
Dy11 S3 3.068951 1_545
Dy11 S26 3.127901 1_545
S0 Si0 2.097539 1_555
S1 Si1 2.097261 1_555
S2 Si3 2.100760 1_555
S3 Si2 2.095387 1_555
S4 Si0 2.146052 1_555
S5 Si1 2.150980 1_555
S6 Si0 2.152816 1_555
S7 Si1 2.147883 1_555
S8 Si0 2.153182 1_555
S9 Si1 2.141449 1_555
S10 Si2 2.137104 1_555
S11 Si3 2.155708 1_555
S12 Si2 2.150480 1_555
S13 Si3 2.145874 1_555
S14 Si2 2.155942 1_555
S15 Si3 2.132564 1_555
S16 Si4 2.336161 1_555
S19 Si4 2.346288 1_454
S21 Si4 2.354102 1_554
S23 Si4 2.379906 1_454
S24 Si4 2.375761 1_555
S26 Si4 2.385880 1_455
