# generated using pymatgen
data_NdGe2Pt
_symmetry_space_group_name_H-M   'P 1'
_cell_length_a   9.68422301
_cell_length_b   9.68422301
_cell_length_c   9.68422301
_cell_angle_alpha   153.46600581
_cell_angle_beta   125.41244435
_cell_angle_gamma   61.69743207
_symmetry_Int_Tables_number   1
_chemical_formula_structural   NdGe2Pt
_chemical_formula_sum   'Nd4 Ge8 Pt4'
_cell_volume   328.21514076
_cell_formula_units_Z   4
loop_
 _symmetry_equiv_pos_site_id
 _symmetry_equiv_pos_as_xyz
  1  'x, y, z'
loop_
 _atom_site_type_symbol
 _atom_site_label
 _atom_site_symmetry_multiplicity
 _atom_site_fract_x
 _atom_site_fract_y
 _atom_site_fract_z
 _atom_site_occupancy
  Nd  Nd0  1  0.76169000  0.00000000  0.76169000  1
  Nd  Nd1  1  0.23831000  0.00000000  0.23831000  1
  Nd  Nd2  1  0.20426700  0.20426700  0.00000000  1
  Nd  Nd3  1  0.79573300  0.79573300  0.00000000  1
  Ge  Ge0  1  0.42508800  0.42508800  0.00000000  1
  Ge  Ge1  1  0.57491200  0.57491200  0.00000000  1
  Ge  Ge2  1  0.92519800  0.42519800  0.50000000  1
  Ge  Ge3  1  0.07480200  0.57480200  0.50000000  1
  Ge  Ge4  1  0.85025900  0.19834300  0.65191600  1
  Ge  Ge5  1  0.14974100  0.80165700  0.34808400  1
  Ge  Ge6  1  0.54642700  0.19834300  0.34808400  1
  Ge  Ge7  1  0.45357300  0.80165700  0.65191600  1
  Pt  Pt0  1  0.10313000  0.35102200  0.75210900  1
  Pt  Pt1  1  0.89687000  0.64897800  0.24789100  1
  Pt  Pt2  1  0.59891300  0.35102200  0.24789100  1
  Pt  Pt3  1  0.40108700  0.64897800  0.75210900  1
loop_
_geom_bond_atom_site_label_1
_geom_bond_atom_site_label_2
_geom_bond_distance
_geom_bond_site_symmetry_2
Nd0 Pt2 3.330307 1_545
Nd0 Pt2 3.330307 1_556
Nd0 Pt1 3.330312 1_556
Nd0 Pt1 3.330315 1_545
Nd1 Pt3 3.330307 1_555
Nd1 Pt3 3.330307 1_544
Nd1 Pt0 3.330312 1_544
Nd1 Pt0 3.330315 1_555
Nd2 Pt1 3.286016 1_455
Nd2 Pt1 3.286019 1_444
Nd2 Pt3 3.286023 1_555
Nd2 Pt3 3.286023 1_544
Nd2 Pt0 3.286663 1_554
Nd2 Pt2 3.286666 1_555
Nd3 Pt0 3.286016 1_654
Nd3 Pt0 3.286019 1_665
Nd3 Pt2 3.286023 1_554
Nd3 Pt2 3.286023 1_565
Nd3 Pt1 3.286663 1_555
Nd3 Pt3 3.286666 1_554
Ge0 Pt2 2.522698 1_555
Ge0 Pt0 2.522706 1_554
Ge0 Nd1 3.448578 1_565
Ge0 Nd1 3.448578 1_554
Ge0 Nd0 3.448578 1_565
Ge0 Nd0 3.448578 1_554
Ge1 Pt3 2.522698 1_554
Ge1 Pt1 2.522706 1_555
Ge1 Nd1 3.448578 1_554
Ge1 Nd1 3.448578 1_565
Ge1 Nd0 3.448578 1_565
Ge1 Nd0 3.448578 1_554
Ge2 Ge3 2.487657 1_655
Ge2 Pt2 2.556340 1_555
Ge2 Pt0 2.556340 1_655
Ge2 Nd3 3.094129 1_545
Ge2 Nd3 3.094129 1_556
Ge2 Nd1 3.311499 1_655
Ge2 Nd1 3.311499 1_666
Ge2 Nd0 3.311499 1_554
Ge2 Nd0 3.311499 1_565
Ge3 Pt3 2.556340 1_555
Ge3 Pt1 2.556340 1_455
Ge3 Nd2 3.094129 1_555
Ge3 Nd2 3.094129 1_566
Ge3 Nd1 3.311499 1_555
Ge3 Nd1 3.311499 1_566
Ge3 Nd0 3.311499 1_454
Ge3 Nd0 3.311499 1_465
Ge4 Pt1 2.517844 1_556
Ge4 Pt1 2.517848 1_545
Ge4 Pt0 2.690214 1_655
Ge4 Ge6 2.698472 1_555
Ge4 Nd3 3.063030 1_545
Ge4 Nd3 3.063030 1_556
Ge4 Nd2 3.093063 1_656
Ge4 Nd0 3.439188 1_555
Ge5 Pt0 2.517844 1_554
Ge5 Pt0 2.517848 1_565
Ge5 Pt1 2.690214 1_455
Ge5 Ge7 2.698472 1_555
Ge5 Nd2 3.063030 1_566
Ge5 Nd2 3.063030 1_555
Ge5 Nd3 3.093063 1_455
Ge5 Nd1 3.439188 1_565
Ge6 Pt3 2.517847 1_555
Ge6 Pt3 2.517847 1_544
Ge6 Pt2 2.690223 1_555
Ge6 Nd3 3.063030 1_545
Ge6 Nd3 3.063030 1_556
Ge6 Nd2 3.093063 1_555
Ge6 Nd1 3.439188 1_555
Ge7 Pt2 2.517847 1_555
Ge7 Pt2 2.517847 1_566
Ge7 Pt3 2.690223 1_555
Ge7 Nd2 3.063030 1_555
Ge7 Nd2 3.063030 1_566
Ge7 Nd3 3.093063 1_556
Ge7 Nd0 3.439188 1_565
