# generated using pymatgen
data_Y2Pb3N4
_symmetry_space_group_name_H-M   'P 1'
_cell_length_a   7.58018481
_cell_length_b   10.18068689
_cell_length_c   7.26073632
_cell_angle_alpha   89.99999944
_cell_angle_beta   97.34031413
_cell_angle_gamma   132.18548932
_symmetry_Int_Tables_number   1
_chemical_formula_structural   Y2Pb3N4
_chemical_formula_sum   'Y4 Pb6 N8'
_cell_volume   408.96593991
_cell_formula_units_Z   2
loop_
 _symmetry_equiv_pos_site_id
 _symmetry_equiv_pos_as_xyz
  1  'x, y, z'
loop_
 _atom_site_type_symbol
 _atom_site_label
 _atom_site_symmetry_multiplicity
 _atom_site_fract_x
 _atom_site_fract_y
 _atom_site_fract_z
 _atom_site_occupancy
  Y  Y0  1  0.54194600  0.17993700  0.55248900  1
  Y  Y1  1  0.45805400  0.63799100  0.94751100  1
  Y  Y2  1  0.45805400  0.82006300  0.44751100  1
  Y  Y3  1  0.54194600  0.36200900  0.05248900  1
  Pb  Pb0  1  0.19061200  0.87745800  0.10051500  1
  Pb  Pb1  1  0.80938800  0.68684500  0.39948500  1
  Pb  Pb2  1  0.80938800  0.12254200  0.89948500  1
  Pb  Pb3  1  0.19061200  0.31315500  0.60051500  1
  Pb  Pb4  1  0.00000000  0.58655400  0.75000000  1
  Pb  Pb5  1  0.00000000  0.41344600  0.25000000  1
  N  N0  1  0.22830100  0.88991000  0.43192100  1
  N  N1  1  0.77169900  0.66161000  0.06807900  1
  N  N2  1  0.77169900  0.11009000  0.56807900  1
  N  N3  1  0.22830100  0.33839000  0.93192100  1
  N  N4  1  0.70890100  0.30575700  0.86281900  1
  N  N5  1  0.29109900  0.59685600  0.63718100  1
  N  N6  1  0.29109900  0.69424300  0.13718100  1
  N  N7  1  0.70890100  0.40314400  0.36281900  1
loop_
_geom_bond_atom_site_label_1
_geom_bond_atom_site_label_2
_geom_bond_distance
_geom_bond_site_symmetry_2
N0 Y2 2.272538 1_555
N0 Y0 2.275304 1_565
N0 Pb1 2.324830 1_455
N0 Pb0 2.379797 1_555
N1 Y3 2.272546 1_555
N1 Y1 2.275298 1_554
N1 Pb0 2.324830 1_655
N1 Pb1 2.379797 1_555
N2 Y0 2.272538 1_555
N2 Y2 2.275304 1_545
N2 Pb3 2.324830 1_655
N2 Pb2 2.379797 1_555
N3 Y1 2.272546 1_555
N3 Y3 2.275298 1_556
N3 Pb2 2.324830 1_455
N3 Pb3 2.379797 1_555
N4 Y3 2.290164 1_556
N4 Y0 2.326705 1_555
N4 Pb4 2.387899 1_655
N4 Pb2 2.446761 1_555
N5 Y2 2.290163 1_555
N5 Y1 2.326705 1_555
N5 Pb4 2.387899 1_555
N5 Pb3 2.446751 1_555
N6 Y1 2.290164 1_554
N6 Y2 2.326705 1_555
N6 Pb5 2.387899 1_555
N6 Pb0 2.446761 1_555
N7 Y0 2.290163 1_555
N7 Y3 2.326705 1_555
N7 Pb5 2.387899 1_655
N7 Pb1 2.446751 1_555
