# generated using pymatgen
data_Ca4MgAl2Si3O14
_symmetry_space_group_name_H-M   'P 1'
_cell_length_a   5.08735500
_cell_length_b   7.81176443
_cell_length_c   7.87312211
_cell_angle_alpha   90.10403865
_cell_angle_beta   90.04197599
_cell_angle_gamma   90.11749958
_symmetry_Int_Tables_number   1
_chemical_formula_structural   Ca4MgAl2Si3O14
_chemical_formula_sum   'Ca4 Mg1 Al2 Si3 O14'
_cell_volume   312.88621010
_cell_formula_units_Z   1
loop_
 _symmetry_equiv_pos_site_id
 _symmetry_equiv_pos_as_xyz
  1  'x, y, z'
loop_
 _atom_site_type_symbol
 _atom_site_label
 _atom_site_symmetry_multiplicity
 _atom_site_fract_x
 _atom_site_fract_y
 _atom_site_fract_z
 _atom_site_occupancy
  Ca  Ca0  1  0.48811300  0.32911500  0.82086800  1
  Ca  Ca1  1  0.50552800  0.17639400  0.35988500  1
  Ca  Ca2  1  0.48824900  0.65843200  0.16843700  1
  Ca  Ca3  1  0.51039200  0.84631700  0.66475000  1
  Mg  Mg0  1  0.00045300  0.50101300  0.50007100  1
  Al  Al0  1  0.00666800  0.99999200  0.00043400  1
  Al  Al1  1  0.04982400  0.13967200  0.64317200  1
  Si  Si0  1  0.94356400  0.35635900  0.13967600  1
  Si  Si1  1  0.05812100  0.85827900  0.35438000  1
  Si  Si2  1  0.94419500  0.64451200  0.86091800  1
  O  O0  1  0.82223700  0.49778600  0.99744700  1
  O  O1  1  0.18463100  0.99391800  0.49294300  1
  O  O2  1  0.70884500  0.13370700  0.64068300  1
  O  O3  1  0.26127700  0.35970600  0.14291800  1
  O  O4  1  0.73952700  0.85545400  0.35388100  1
  O  O5  1  0.26146100  0.64641500  0.86300100  1
  O  O6  1  0.22347400  0.32474500  0.58636000  1
  O  O7  1  0.81014100  0.17204000  0.07970000  1
  O  O8  1  0.21013100  0.67980600  0.40023500  1
  O  O9  1  0.80526700  0.82629800  0.92637900  1
  O  O10  1  0.79118900  0.59773500  0.68468900  1
  O  O11  1  0.19377400  0.91679800  0.17100100  1
  O  O12  1  0.78731800  0.41090600  0.31283400  1
  O  O13  1  0.20561900  0.07460000  0.83533800  1
loop_
_geom_bond_atom_site_label_1
_geom_bond_atom_site_label_2
_geom_bond_distance
_geom_bond_site_symmetry_2
Ca0 O6 2.284409 1_555
Ca0 O2 2.367514 1_555
Ca0 O13 2.453711 1_555
Ca0 O0 2.557126 1_555
Ca0 O5 2.755485 1_555
Ca0 O3 2.796603 1_556
Ca0 O10 2.815568 1_555
Ca0 O7 2.890444 1_556
Ca1 O12 2.353902 1_555
Ca1 O1 2.406836 1_545
Ca1 O2 2.463586 1_555
Ca1 O3 2.554540 1_555
Ca1 O6 2.566001 1_555
Ca1 O7 2.696985 1_555
Ca1 O4 2.777923 1_545
Ca1 O11 2.968448 1_545
Ca2 O8 2.316021 1_555
Ca2 O4 2.472985 1_555
Ca2 O0 2.506017 1_554
Ca2 O11 2.516052 1_555
Ca2 O3 2.608861 1_555
Ca2 O5 2.667841 1_554
Ca2 O12 2.713612 1_555
Ca2 O9 2.820895 1_554
Ca3 O10 2.418323 1_555
Ca3 O1 2.432258 1_555
Ca3 O2 2.467358 1_565
Ca3 O5 2.546022 1_555
Ca3 O9 2.552526 1_555
Ca3 O4 2.712694 1_555
Ca3 O13 2.719127 1_565
Ca3 O8 2.887854 1_555
Mg0 O6 1.911421 1_555
Mg0 O8 1.924977 1_555
Mg0 O10 1.954113 1_455
Mg0 O12 1.958317 1_455
Al0 O13 1.748110 1_564
Al0 O11 1.770770 1_555
Al0 O7 1.788514 1_465
Al0 O9 1.794812 1_454
Al1 O2 1.735307 1_455
Al1 O6 1.751676 1_555
Al1 O1 1.779097 1_545
Al1 O13 1.782774 1_555
O0 Si2 1.690167 1_555
O0 Si0 1.691670 1_556
O1 Si1 1.648946 1_555
O3 Si0 1.616659 1_455
O4 Si1 1.620908 1_655
O5 Si2 1.614154 1_455
O7 Si0 1.658294 1_555
O8 Si1 1.636453 1_555
O9 Si2 1.668455 1_555
O10 Si2 1.630924 1_555
O11 Si1 1.665009 1_555
O12 Si0 1.634882 1_555
