# generated using pymatgen
data_FeSO10
_symmetry_space_group_name_H-M   'P 1'
_cell_length_a   13.56907058
_cell_length_b   13.56907058
_cell_length_c   13.56907039
_cell_angle_alpha   116.18078236
_cell_angle_beta   116.18078236
_cell_angle_gamma   116.18078124
_symmetry_Int_Tables_number   1
_chemical_formula_structural   FeSO10
_chemical_formula_sum   'Fe6 S6 O60'
_cell_volume   1234.70068436
_cell_formula_units_Z   6
loop_
 _symmetry_equiv_pos_site_id
 _symmetry_equiv_pos_as_xyz
  1  'x, y, z'
loop_
 _atom_site_type_symbol
 _atom_site_label
 _atom_site_symmetry_multiplicity
 _atom_site_fract_x
 _atom_site_fract_y
 _atom_site_fract_z
 _atom_site_occupancy
  Fe  Fe0  1  0.73904200  0.02659200  0.30281000  1
  Fe  Fe1  1  0.30281000  0.73904200  0.02659200  1
  Fe  Fe2  1  0.02659200  0.30281000  0.73904200  1
  Fe  Fe3  1  0.26095800  0.97340800  0.69719000  1
  Fe  Fe4  1  0.69719000  0.26095800  0.97340800  1
  Fe  Fe5  1  0.97340800  0.69719000  0.26095800  1
  S  S0  1  0.76439800  0.87843700  0.42066800  1
  S  S1  1  0.42066800  0.76439800  0.87843700  1
  S  S2  1  0.87843700  0.42066800  0.76439800  1
  S  S3  1  0.23560200  0.12156300  0.57933200  1
  S  S4  1  0.57933200  0.23560200  0.12156300  1
  S  S5  1  0.12156300  0.57933200  0.23560200  1
  O  O0  1  0.79921200  0.00729700  0.54771400  1
  O  O1  1  0.54771400  0.79921200  0.00729700  1
  O  O2  1  0.00729700  0.54771400  0.79921200  1
  O  O3  1  0.20078800  0.99270300  0.45228600  1
  O  O4  1  0.45228600  0.20078800  0.99270300  1
  O  O5  1  0.99270300  0.45228600  0.20078800  1
  O  O6  1  0.53945500  0.67448600  0.27599300  1
  O  O7  1  0.27599300  0.53945500  0.67448600  1
  O  O8  1  0.67448600  0.27599300  0.53945500  1
  O  O9  1  0.46054500  0.32551400  0.72400700  1
  O  O10  1  0.72400700  0.46054500  0.32551400  1
  O  O11  1  0.32551400  0.72400700  0.46054500  1
  O  O12  1  0.86430600  0.86019900  0.47918300  1
  O  O13  1  0.47918300  0.86430600  0.86019900  1
  O  O14  1  0.86019900  0.47918300  0.86430600  1
  O  O15  1  0.13569400  0.13980100  0.52081700  1
  O  O16  1  0.52081700  0.13569400  0.13980100  1
  O  O17  1  0.13980100  0.52081700  0.13569400  1
  O  O18  1  0.73604600  0.87406800  0.29888800  1
  O  O19  1  0.29888800  0.73604600  0.87406800  1
  O  O20  1  0.87406800  0.29888800  0.73604600  1
  O  O21  1  0.26395400  0.12593200  0.70111200  1
  O  O22  1  0.70111200  0.26395400  0.12593200  1
  O  O23  1  0.12593200  0.70111200  0.26395400  1
  O  O24  1  0.55136600  0.94630200  0.24001800  1
  O  O25  1  0.24001800  0.55136600  0.94630200  1
  O  O26  1  0.94630200  0.24001800  0.55136600  1
  O  O27  1  0.44863400  0.05369800  0.75998200  1
  O  O28  1  0.75998200  0.44863400  0.05369800  1
  O  O29  1  0.05369800  0.75998200  0.44863400  1
  O  O30  1  0.89534600  0.14344900  0.28647500  1
  O  O31  1  0.28647500  0.89534600  0.14344900  1
  O  O32  1  0.14344900  0.28647500  0.89534600  1
  O  O33  1  0.10465400  0.85655100  0.71352500  1
  O  O34  1  0.71352500  0.10465400  0.85655100  1
  O  O35  1  0.85655100  0.71352500  0.10465400  1
  O  O36  1  0.80178800  0.15697900  0.25768000  1
  O  O37  1  0.25768000  0.80178800  0.15697900  1
  O  O38  1  0.15697900  0.25768000  0.80178800  1
  O  O39  1  0.19821200  0.84302100  0.74232000  1
  O  O40  1  0.74232000  0.19821200  0.84302100  1
  O  O41  1  0.84302100  0.74232000  0.19821200  1
  O  O42  1  0.90650700  0.95964700  0.02067700  1
  O  O43  1  0.02067700  0.90650700  0.95964700  1
  O  O44  1  0.95964700  0.02067700  0.90650700  1
  O  O45  1  0.09349300  0.04035300  0.97932300  1
  O  O46  1  0.97932300  0.09349300  0.04035300  1
  O  O47  1  0.04035300  0.97932300  0.09349300  1
  O  O48  1  0.47843800  0.54228000  0.59237700  1
  O  O49  1  0.59237700  0.47843800  0.54228000  1
  O  O50  1  0.54228000  0.59237700  0.47843800  1
  O  O51  1  0.52156200  0.45772000  0.40762300  1
  O  O52  1  0.40762300  0.52156200  0.45772000  1
  O  O53  1  0.45772000  0.40762300  0.52156200  1
  O  O54  1  0.83258500  0.51360900  0.46622200  1
  O  O55  1  0.46622200  0.83258500  0.51360900  1
  O  O56  1  0.51360900  0.46622200  0.83258500  1
  O  O57  1  0.16741500  0.48639100  0.53377800  1
  O  O58  1  0.53377800  0.16741500  0.48639100  1
  O  O59  1  0.48639100  0.53377800  0.16741500  1
loop_
_geom_bond_atom_site_label_1
_geom_bond_atom_site_label_2
_geom_bond_distance
_geom_bond_site_symmetry_2
Fe0 O24 1.793350 1_545
Fe0 O26 1.869679 1_555
Fe0 O18 2.028405 1_545
Fe0 O36 2.077729 1_555
Fe0 O30 2.195227 1_555
Fe0 O1 2.273122 1_545
Fe1 O25 1.793350 1_554
Fe1 O24 1.869679 1_555
Fe1 O19 2.028405 1_554
Fe1 O37 2.077729 1_555
Fe1 O31 2.195227 1_555
Fe1 O2 2.273122 1_554
Fe2 O26 1.793350 1_455
Fe2 O25 1.869679 1_555
Fe2 O20 2.028405 1_455
Fe2 O38 2.077729 1_555
Fe2 O32 2.195227 1_555
Fe2 O0 2.273122 1_455
Fe3 O27 1.793350 1_565
Fe3 O29 1.869679 1_555
Fe3 O21 2.028405 1_565
Fe3 O39 2.077729 1_555
Fe3 O33 2.195227 1_555
Fe3 O4 2.273122 1_565
Fe4 O28 1.793350 1_556
Fe4 O27 1.869679 1_555
Fe4 O22 2.028405 1_556
Fe4 O40 2.077729 1_555
Fe4 O34 2.195227 1_555
Fe4 O5 2.273122 1_556
Fe5 O29 1.793350 1_655
Fe5 O28 1.869679 1_555
Fe5 O23 2.028405 1_655
Fe5 O41 2.077729 1_555
Fe5 O35 2.195227 1_555
Fe5 O3 2.273122 1_655
O0 S0 1.464583 1_545
O1 S1 1.464583 1_554
O2 S2 1.464583 1_455
O3 S3 1.464583 1_565
O4 S4 1.464583 1_556
O5 S5 1.464583 1_655
O6 S0 1.814904 1_555
O7 S1 1.814904 1_555
O8 S2 1.814904 1_555
O9 S3 1.814904 1_555
O10 O54 1.305019 1_555
O10 S4 1.814904 1_555
O11 O55 1.305019 1_555
O11 S5 1.814904 1_555
O12 S0 1.431465 1_555
O13 S1 1.431465 1_555
O14 S2 1.431465 1_555
O15 S3 1.431465 1_555
O16 S4 1.431465 1_555
O17 S5 1.431465 1_555
O18 S0 1.488138 1_555
O19 S1 1.488138 1_555
O20 S2 1.488138 1_555
O21 S3 1.488138 1_555
O22 S4 1.488138 1_555
O23 S5 1.488138 1_555
O30 O36 1.276421 1_555
O31 O37 1.276421 1_555
O32 O38 1.276421 1_555
O33 O39 1.276421 1_555
O34 O40 1.276421 1_555
O35 O41 1.276421 1_555
O42 O47 1.449788 1_655
O42 O46 1.449788 1_565
O43 O47 1.449788 1_556
O43 O45 1.449788 1_565
O44 O46 1.449788 1_556
O44 O45 1.449788 1_655
O48 O52 1.449142 1_555
O48 O53 1.449142 1_555
O49 O51 1.449142 1_555
O49 O53 1.449142 1_555
O50 O51 1.449142 1_555
O50 O52 1.449142 1_555
O56 O9 1.305019 1_555
O57 O7 1.305019 1_555
O58 O8 1.305019 1_555
O59 O6 1.305019 1_555
