# generated using pymatgen
data_K3V2(S2O9)2
_symmetry_space_group_name_H-M   'P 1'
_cell_length_a   18.69244100
_cell_length_b   9.18035300
_cell_length_c   10.09792822
_cell_angle_alpha   89.97185122
_cell_angle_beta   90.00000000
_cell_angle_gamma   90.00000000
_symmetry_Int_Tables_number   1
_chemical_formula_structural   K3V2(S2O9)2
_chemical_formula_sum   'K12 V8 S16 O72'
_cell_volume   1732.83665535
_cell_formula_units_Z   4
loop_
 _symmetry_equiv_pos_site_id
 _symmetry_equiv_pos_as_xyz
  1  'x, y, z'
loop_
 _atom_site_type_symbol
 _atom_site_label
 _atom_site_symmetry_multiplicity
 _atom_site_fract_x
 _atom_site_fract_y
 _atom_site_fract_z
 _atom_site_occupancy
  K  K0  1  0.11838400  0.91682500  0.85825300  1
  K  K1  1  0.61838400  0.08317500  0.14174700  1
  K  K2  1  0.11448700  0.91942600  0.38074800  1
  K  K3  1  0.61448700  0.08057400  0.61925200  1
  K  K4  1  0.49626000  0.75770800  0.87998500  1
  K  K5  1  0.99626000  0.24229200  0.12001500  1
  K  K6  1  0.50041700  0.74267000  0.36916900  1
  K  K7  1  0.00041700  0.25733000  0.63083100  1
  K  K8  1  0.88135600  0.58480700  0.88943000  1
  K  K9  1  0.38135600  0.41519300  0.11057000  1
  K  K10  1  0.87945400  0.57852900  0.37011800  1
  K  K11  1  0.37945400  0.42147100  0.62988200  1
  V  V0  1  0.31613400  0.04485900  0.87806300  1
  V  V1  1  0.81613400  0.95514100  0.12193700  1
  V  V2  1  0.67890300  0.45720300  0.37136400  1
  V  V3  1  0.17890300  0.54279700  0.62863600  1
  V  V4  1  0.31362900  0.03297200  0.37717700  1
  V  V5  1  0.81362900  0.96702800  0.62282300  1
  V  V6  1  0.68440100  0.46796800  0.86965200  1
  V  V7  1  0.18440100  0.53203200  0.13034800  1
  S  S0  1  0.28790000  0.63169200  0.37531900  1
  S  S1  1  0.78790000  0.36830800  0.62468100  1
  S  S2  1  0.28703400  0.63443200  0.87681400  1
  S  S3  1  0.78703400  0.36556800  0.12318600  1
  S  S4  1  0.20925200  0.13346100  0.12687800  1
  S  S5  1  0.70925200  0.86653900  0.87312200  1
  S  S6  1  0.20848300  0.13479700  0.62204000  1
  S  S7  1  0.70848300  0.86520300  0.37796000  1
  S  S8  1  0.07632000  0.49766800  0.88801300  1
  S  S9  1  0.57632000  0.50233200  0.11198700  1
  S  S10  1  0.07576400  0.49882300  0.37589600  1
  S  S11  1  0.57576400  0.50117700  0.62410400  1
  S  S12  1  0.41932000  0.99899700  0.62611600  1
  S  S13  1  0.91932000  0.00100300  0.37388400  1
  S  S14  1  0.42157600  0.99848600  0.13533300  1
  S  S15  1  0.92157600  0.00151400  0.86466700  1
  O  O0  1  0.34603500  0.21068600  0.88066400  1
  O  O1  1  0.84603500  0.78931400  0.11933600  1
  O  O2  1  0.34447700  0.19600300  0.37835900  1
  O  O3  1  0.84447700  0.80399700  0.62164100  1
  O  O4  1  0.87294900  0.04913300  0.97517200  1
  O  O5  1  0.37294900  0.95086700  0.02482800  1
  O  O6  1  0.86255800  0.05183200  0.47641000  1
  O  O7  1  0.36255800  0.94816800  0.52359000  1
  O  O8  1  0.24502600  0.04701300  0.72759900  1
  O  O9  1  0.74502600  0.95298700  0.27240100  1
  O  O10  1  0.24806000  0.03917700  0.23071900  1
  O  O11  1  0.74806000  0.96082300  0.76928100  1
  O  O12  1  0.38966500  0.94761300  0.75742800  1
  O  O13  1  0.88966500  0.05238700  0.24257200  1
  O  O14  1  0.38473400  0.94191700  0.26330900  1
  O  O15  1  0.88473400  0.05808300  0.73669100  1
  O  O16  1  0.22774800  0.06580400  0.99557900  1
  O  O17  1  0.72774800  0.93419600  0.00442100  1
  O  O18  1  0.22958200  0.06220200  0.48995400  1
  O  O19  1  0.72958200  0.93779800  0.51004600  1
  O  O20  1  0.26205700  0.78485200  0.88649900  1
  O  O21  1  0.76205700  0.21514800  0.11350100  1
  O  O22  1  0.26243600  0.78260100  0.37467700  1
  O  O23  1  0.76243600  0.21739900  0.62532300  1
  O  O24  1  0.15376800  0.69513200  0.13197500  1
  O  O25  1  0.65376800  0.30486800  0.86802500  1
  O  O26  1  0.14903900  0.70879100  0.62909200  1
  O  O27  1  0.64903900  0.29120900  0.37090800  1
  O  O28  1  0.25003400  0.54034800  0.98310000  1
  O  O29  1  0.75003400  0.45965200  0.01690000  1
  O  O30  1  0.25002000  0.54341300  0.47836200  1
  O  O31  1  0.75002000  0.45658700  0.52163800  1
  O  O32  1  0.13319000  0.44781200  0.27462800  1
  O  O33  1  0.63319000  0.55218800  0.72537200  1
  O  O34  1  0.12213700  0.44631900  0.77450900  1
  O  O35  1  0.62213700  0.55368100  0.22549100  1
  O  O36  1  0.11481100  0.44037500  0.01390300  1
  O  O37  1  0.61481100  0.55962500  0.98609700  1
  O  O38  1  0.10473300  0.44877600  0.50788500  1
  O  O39  1  0.60473300  0.55122400  0.49211500  1
  O  O40  1  0.76869100  0.44074600  0.75794100  1
  O  O41  1  0.26869100  0.55925400  0.24205900  1
  O  O42  1  0.76610500  0.43334700  0.25323400  1
  O  O43  1  0.26610500  0.56665300  0.74676600  1
  O  O44  1  0.23589000  0.28312900  0.13560600  1
  O  O45  1  0.73589000  0.71687100  0.86439400  1
  O  O46  1  0.23261700  0.28627300  0.62325100  1
  O  O47  1  0.73261700  0.71372700  0.37674900  1
  O  O48  1  0.36499400  0.61185000  0.39026100  1
  O  O49  1  0.86499400  0.38815000  0.60973900  1
  O  O50  1  0.36387000  0.61248100  0.89396300  1
  O  O51  1  0.86387000  0.38751900  0.10603700  1
  O  O52  1  0.13279400  0.11410200  0.14963300  1
  O  O53  1  0.63279400  0.88589800  0.85036700  1
  O  O54  1  0.13125400  0.11292100  0.63304300  1
  O  O55  1  0.63125400  0.88707900  0.36695700  1
  O  O56  1  0.00774400  0.42050400  0.88359100  1
  O  O57  1  0.50774400  0.57949600  0.11640900  1
  O  O58  1  0.01034600  0.41674800  0.34884900  1
  O  O59  1  0.51034600  0.58325200  0.65115100  1
  O  O60  1  0.06999800  0.65488900  0.89280900  1
  O  O61  1  0.56999800  0.34511100  0.10719100  1
  O  O62  1  0.06722300  0.65542300  0.36875000  1
  O  O63  1  0.56722300  0.34457700  0.63125000  1
  O  O64  1  0.48498500  0.91775600  0.59928400  1
  O  O65  1  0.98498500  0.08224400  0.40071600  1
  O  O66  1  0.48915700  0.91824200  0.12618200  1
  O  O67  1  0.98915700  0.08175800  0.87381800  1
  O  O68  1  0.42746300  0.15578300  0.62072000  1
  O  O69  1  0.92746300  0.84421700  0.37928000  1
  O  O70  1  0.43003800  0.15525300  0.14149400  1
  O  O71  1  0.93003800  0.84474700  0.85850600  1
loop_
_geom_bond_atom_site_label_1
_geom_bond_atom_site_label_2
_geom_bond_distance
_geom_bond_site_symmetry_2
K0 O60 2.592563 1_555
K0 O16 2.823907 1_565
K0 O67 2.855265 1_465
K0 O54 2.909718 1_565
K0 O20 2.959955 1_555
K0 O8 2.961654 1_565
K0 O26 3.055316 1_555
K1 O61 2.592563 1_555
K1 O17 2.823907 1_545
K1 O66 2.855265 1_545
K1 O55 2.909718 1_545
K1 O21 2.959955 1_555
K1 O9 2.961654 1_545
K1 O27 3.055316 1_555
K2 O62 2.582545 1_555
K2 O18 2.750284 1_565
K2 O65 2.852190 1_465
K2 O52 2.958650 1_565
K2 O22 3.038054 1_555
K2 O10 3.120281 1_565
K2 O54 3.122284 1_565
K2 O26 3.231167 1_555
K2 O24 3.330872 1_555
K3 O63 2.582545 1_555
K3 O19 2.750284 1_545
K3 O64 2.852190 1_545
K3 O53 2.958650 1_545
K3 O23 3.038054 1_555
K3 O11 3.120281 1_545
K3 O55 3.122284 1_545
K3 O27 3.231167 1_555
K3 O25 3.330872 1_555
K4 O50 2.814490 1_555
K4 O59 2.824455 1_555
K4 O53 2.826220 1_555
K4 O66 2.893749 1_556
K4 O57 2.901473 1_556
K4 O12 2.922162 1_555
K4 O37 3.060025 1_555
K4 O64 3.198991 1_555
K4 O5 3.255644 1_556
K5 O51 2.814490 1_555
K5 O58 2.824455 1_655
K5 O52 2.826220 1_655
K5 O67 2.893749 1_554
K5 O56 2.901473 1_654
K5 O13 2.922162 1_555
K5 O36 3.060025 1_655
K5 O65 3.198991 1_555
K5 O4 3.255644 1_554
K6 O55 2.781957 1_555
K6 O48 2.809870 1_555
K6 O64 2.840769 1_555
K6 O39 2.903502 1_555
K6 O66 2.942589 1_555
K6 O57 2.963276 1_555
K6 O14 3.026970 1_555
K6 O59 3.206260 1_555
K6 O35 3.208481 1_555
K7 O54 2.781957 1_555
K7 O49 2.809870 1_455
K7 O65 2.840769 1_455
K7 O38 2.903502 1_555
K7 O67 2.942589 1_455
K7 O56 2.963276 1_555
K7 O15 3.026970 1_455
K7 O58 3.206260 1_555
K7 O34 3.208481 1_555
K8 O71 2.572834 1_555
K8 O56 2.803591 1_655
K8 O40 2.819387 1_555
K8 O51 2.857883 1_556
K8 O45 2.987825 1_555
K8 O29 3.000201 1_556
K8 O1 3.058546 1_556
K9 O70 2.572834 1_555
K9 O57 2.803591 1_555
K9 O41 2.819387 1_555
K9 O50 2.857883 1_554
K9 O44 2.987825 1_555
K9 O28 3.000201 1_554
K9 O0 3.058546 1_554
K10 O69 2.600649 1_555
K10 O42 2.767710 1_555
K10 O58 2.870292 1_655
K10 O49 2.996390 1_555
K10 O47 3.013082 1_555
K10 O31 3.073471 1_555
K10 O51 3.205540 1_555
K10 O1 3.246982 1_555
K10 O3 3.341842 1_555
K11 O68 2.600649 1_555
K11 O43 2.767710 1_555
K11 O59 2.870292 1_555
K11 O48 2.996390 1_555
K11 O46 3.013082 1_555
K11 O30 3.073471 1_555
K11 O50 3.205540 1_555
K11 O0 3.246982 1_555
K11 O2 3.341842 1_555
O0 V0 1.621935 1_555
O1 V1 1.621935 1_555
O2 V4 1.603968 1_555
O3 V5 1.603968 1_555
O4 S15 1.504314 1_555
O4 V1 2.016820 1_546
O5 S14 1.504314 1_555
O5 V0 2.016820 1_564
O6 S13 1.554293 1_555
O6 V5 1.904559 1_545
O7 S12 1.554293 1_555
O7 V4 1.904559 1_565
O8 S6 1.500469 1_555
O8 V0 2.018808 1_555
O9 S7 1.500469 1_555
O9 V1 2.018808 1_555
O10 S4 1.540795 1_555
O10 V4 1.921608 1_555
O11 S5 1.540795 1_555
O11 V5 1.921608 1_555
O12 S12 1.512417 1_555
O12 V0 2.042346 1_565
O13 S13 1.512417 1_555
O13 V1 2.042346 1_545
O14 S14 1.553486 1_555
O14 V4 1.946378 1_565
O15 S15 1.553486 1_555
O15 V5 1.946378 1_545
O16 S4 1.504659 1_556
O16 V0 2.043276 1_555
O17 S5 1.504659 1_554
O17 V1 2.043276 1_555
O18 S6 1.542589 1_555
O18 V4 1.958924 1_555
O19 S7 1.542589 1_555
O19 V5 1.958924 1_555
O20 S2 1.461022 1_555
O21 S3 1.461022 1_555
O22 S0 1.464896 1_555
O23 S1 1.464896 1_555
O24 V7 1.603161 1_555
O25 V6 1.603161 1_555
O26 V3 1.622921 1_555
O27 V2 1.622921 1_555
O28 S2 1.541218 1_555
O28 V7 1.929178 1_556
O29 S3 1.541218 1_555
O29 V6 1.929178 1_554
O30 S0 1.496669 1_555
O30 V3 2.017392 1_555
O31 S1 1.496669 1_555
O31 V2 2.017392 1_555
O32 S10 1.554907 1_555
O32 V7 1.906743 1_555
O33 S11 1.554907 1_555
O33 V6 1.906743 1_555
O34 S8 1.506618 1_555
O34 V3 2.019624 1_555
O35 S9 1.506618 1_555
O35 V2 2.019624 1_555
O36 S8 1.552313 1_554
O36 V7 1.945181 1_555
O37 S9 1.552313 1_556
O37 V6 1.945181 1_555
O38 S10 1.510004 1_555
O38 V3 2.038379 1_555
O39 S11 1.510004 1_555
O39 V2 2.038379 1_555
O40 S1 1.543636 1_555
O40 V6 1.953893 1_555
O41 S0 1.543636 1_555
O41 V7 1.953893 1_555
O42 S3 1.505179 1_555
O42 V2 2.031776 1_555
O43 S2 1.505179 1_555
O43 V3 2.031776 1_555
O44 S4 1.464141 1_555
O45 S5 1.464141 1_555
O46 S6 1.462004 1_555
O47 S7 1.462004 1_555
O48 S0 1.460348 1_555
O49 S1 1.460348 1_555
O50 S2 1.460611 1_555
O51 S3 1.460611 1_555
O52 S4 1.458396 1_555
O53 S5 1.458396 1_555
O54 S6 1.461722 1_555
O55 S7 1.461722 1_555
O56 S8 1.465262 1_555
O57 S9 1.465262 1_555
O58 S10 1.462128 1_555
O59 S11 1.462128 1_555
O60 S8 1.449007 1_555
O61 S9 1.449007 1_555
O62 S10 1.448244 1_555
O63 S11 1.448244 1_555
O64 S12 1.461666 1_555
O65 S13 1.461666 1_555
O66 S14 1.465297 1_555
O67 S15 1.465297 1_555
O68 S12 1.448375 1_545
O69 S13 1.448375 1_565
O70 S14 1.449209 1_545
O71 S15 1.449209 1_565
