# generated using pymatgen
data_LiV2(PO4)3
_symmetry_space_group_name_H-M   'P 1'
_cell_length_a   8.58556200
_cell_length_b   8.51930900
_cell_length_c   12.11260112
_cell_angle_alpha   89.47261089
_cell_angle_beta   90.00000000
_cell_angle_gamma   90.00000000
_symmetry_Int_Tables_number   1
_chemical_formula_structural   LiV2(PO4)3
_chemical_formula_sum   'Li4 V8 P12 O48'
_cell_volume   885.91512622
_cell_formula_units_Z   4
loop_
 _symmetry_equiv_pos_site_id
 _symmetry_equiv_pos_as_xyz
  1  'x, y, z'
loop_
 _atom_site_type_symbol
 _atom_site_label
 _atom_site_symmetry_multiplicity
 _atom_site_fract_x
 _atom_site_fract_y
 _atom_site_fract_z
 _atom_site_occupancy
  Li  Li0  1  0.50000000  0.50000000  0.50000000  1
  Li  Li1  1  0.00000000  0.00000000  0.00000000  1
  Li  Li2  1  0.00000000  0.00000000  0.50000000  1
  Li  Li3  1  0.50000000  0.50000000  0.00000000  1
  V  V0  1  0.00161300  0.28139100  0.35992100  1
  V  V1  1  0.49829100  0.21894600  0.64431100  1
  V  V2  1  0.49829100  0.78105400  0.85568900  1
  V  V3  1  0.50170900  0.21894600  0.14431100  1
  V  V4  1  0.99838700  0.71860900  0.64007900  1
  V  V5  1  0.00161300  0.71860900  0.14007900  1
  V  V6  1  0.50170900  0.78105400  0.35568900  1
  V  V7  1  0.99838700  0.28139100  0.85992100  1
  P  P0  1  0.85457000  0.35418100  0.60508600  1
  P  P1  1  0.14543000  0.35418100  0.10508600  1
  P  P2  1  0.20685900  0.00000000  0.75000000  1
  P  P3  1  0.85457000  0.64581900  0.89491400  1
  P  P4  1  0.35642800  0.85248600  0.10482100  1
  P  P5  1  0.35642800  0.14751400  0.39517900  1
  P  P6  1  0.14543000  0.64581900  0.39491400  1
  P  P7  1  0.71141900  0.50000000  0.25000000  1
  P  P8  1  0.28858100  0.50000000  0.75000000  1
  P  P9  1  0.79314100  0.00000000  0.25000000  1
  P  P10  1  0.64357200  0.14751400  0.89517900  1
  P  P11  1  0.64357200  0.85248600  0.60482100  1
  O  O0  1  0.09045500  0.71787300  0.28443300  1
  O  O1  1  0.40961500  0.23029700  0.28777800  1
  O  O2  1  0.40747800  0.97435600  0.39754800  1
  O  O3  1  0.89680600  0.07618300  0.33926600  1
  O  O4  1  0.82310200  0.85336100  0.59260800  1
  O  O5  1  0.59038500  0.23029700  0.78777800  1
  O  O6  1  0.67590800  0.65347400  0.90854300  1
  O  O7  1  0.39352600  0.57790300  0.83763400  1
  O  O8  1  0.57205700  0.75646400  0.51015200  1
  O  O9  1  0.59252200  0.97435600  0.89754800  1
  O  O10  1  0.42794300  0.24353600  0.48984800  1
  O  O11  1  0.10222700  0.52941700  0.09447500  1
  O  O12  1  0.59252200  0.02564400  0.60245200  1
  O  O13  1  0.59038500  0.76970300  0.71222200  1
  O  O14  1  0.32409200  0.65347400  0.40854300  1
  O  O15  1  0.60647400  0.57790300  0.33763400  1
  O  O16  1  0.93217300  0.74565700  0.98587500  1
  O  O17  1  0.40961500  0.76970300  0.21222200  1
  O  O18  1  0.18828600  0.61941000  0.68521400  1
  O  O19  1  0.90954500  0.28212700  0.71556700  1
  O  O20  1  0.40747800  0.02564400  0.10245200  1
  O  O21  1  0.89777300  0.47058300  0.90552500  1
  O  O22  1  0.57205700  0.24353600  0.98984800  1
  O  O23  1  0.32409200  0.34652600  0.09145700  1
  O  O24  1  0.82310200  0.14663900  0.90739200  1
  O  O25  1  0.18828600  0.38059000  0.81478600  1
  O  O26  1  0.17689800  0.14663900  0.40739200  1
  O  O27  1  0.06782700  0.25434300  0.01412500  1
  O  O28  1  0.10222700  0.47058300  0.40552500  1
  O  O29  1  0.30721100  0.12393700  0.69006700  1
  O  O30  1  0.39352600  0.42209700  0.66236600  1
  O  O31  1  0.09045500  0.28212700  0.21556700  1
  O  O32  1  0.89680600  0.92381700  0.16073400  1
  O  O33  1  0.30721100  0.87606300  0.80993300  1
  O  O34  1  0.69278900  0.87606300  0.30993300  1
  O  O35  1  0.42794300  0.75646400  0.01015200  1
  O  O36  1  0.81171400  0.38059000  0.31478600  1
  O  O37  1  0.10319400  0.92381700  0.66073400  1
  O  O38  1  0.81171400  0.61941000  0.18521400  1
  O  O39  1  0.10319400  0.07618300  0.83926600  1
  O  O40  1  0.89777300  0.52941700  0.59447500  1
  O  O41  1  0.90954500  0.71787300  0.78443300  1
  O  O42  1  0.17689800  0.85336100  0.09260800  1
  O  O43  1  0.93217300  0.25434300  0.51412500  1
  O  O44  1  0.60647400  0.42209700  0.16236600  1
  O  O45  1  0.69278900  0.12393700  0.19006700  1
  O  O46  1  0.67590800  0.34652600  0.59145700  1
  O  O47  1  0.06782700  0.74565700  0.48587500  1
loop_
_geom_bond_atom_site_label_1
_geom_bond_atom_site_label_2
_geom_bond_distance
_geom_bond_site_symmetry_2
Li0 O15 2.262720 1_555
Li0 O30 2.262720 1_555
Li0 O8 2.275207 1_555
Li0 O10 2.275207 1_555
Li0 O46 2.278369 1_555
Li0 O14 2.278369 1_555
Li1 O32 2.230107 1_445
Li1 O39 2.230107 1_554
Li1 O27 2.251743 1_555
Li1 O16 2.251743 1_444
Li1 O24 2.258270 1_454
Li1 O42 2.258270 1_545
Li2 O37 2.230107 1_545
Li2 O3 2.230107 1_455
Li2 O47 2.251743 1_545
Li2 O43 2.251743 1_455
Li2 O26 2.258270 1_555
Li2 O4 2.258270 1_445
Li3 O44 2.262720 1_555
Li3 O7 2.262720 1_554
Li3 O35 2.275207 1_555
Li3 O22 2.275207 1_554
Li3 O6 2.278369 1_554
Li3 O23 2.278369 1_555
O0 P6 1.541194 1_555
O0 V5 1.907590 1_555
O1 P5 1.543168 1_555
O1 V3 1.912439 1_555
O2 P5 1.538935 1_565
O2 V6 1.907594 1_555
O3 P9 1.547702 1_555
O3 V0 1.984097 1_655
O4 P11 1.548460 1_555
O4 V4 1.975132 1_555
O5 P10 1.543168 1_555
O5 V1 1.912439 1_555
O6 P3 1.544213 1_555
O6 V2 1.975811 1_555
O7 P8 1.546607 1_555
O7 V2 1.964479 1_555
O8 P11 1.542188 1_555
O8 V6 1.975325 1_555
O9 P10 1.538935 1_565
O9 V2 1.907594 1_555
O10 P5 1.542188 1_555
O10 V1 1.975325 1_555
O11 P1 1.542495 1_555
O11 V5 1.914567 1_555
O12 P11 1.538935 1_545
O12 V1 1.907594 1_555
O13 P11 1.543168 1_555
O13 V2 1.912439 1_555
O14 P6 1.544213 1_555
O14 V6 1.975811 1_555
O15 P7 1.546607 1_555
O15 V6 1.964479 1_555
O16 P3 1.548711 1_555
O16 V5 1.972138 1_656
O17 P4 1.543168 1_555
O17 V6 1.912439 1_555
O18 P8 1.541900 1_555
O18 V4 1.913832 1_455
O19 P0 1.541194 1_555
O19 V7 1.907590 1_555
O20 P4 1.538935 1_545
O20 V3 1.907594 1_555
O21 P3 1.542495 1_555
O21 V7 1.914567 1_555
O22 P10 1.542188 1_555
O22 V3 1.975325 1_556
O23 P1 1.544213 1_555
O23 V3 1.975811 1_555
O24 P10 1.548460 1_555
O24 V7 1.975132 1_555
O25 P8 1.541900 1_555
O25 V7 1.913832 1_455
O26 P5 1.548460 1_555
O26 V0 1.975132 1_555
O27 P1 1.548711 1_555
O27 V7 1.972138 1_454
O28 P6 1.542495 1_555
O28 V0 1.914567 1_555
O29 P2 1.539493 1_555
O29 V1 1.909290 1_555
O30 P8 1.546607 1_555
O30 V1 1.964479 1_555
O31 P1 1.541194 1_555
O31 V0 1.907590 1_555
O32 P9 1.547702 1_565
O32 V5 1.984097 1_655
O33 P2 1.539493 1_565
O33 V2 1.909290 1_555
O34 P9 1.539493 1_565
O34 V6 1.909290 1_555
O35 P4 1.542188 1_555
O35 V2 1.975325 1_554
O36 P7 1.541900 1_555
O36 V0 1.913832 1_655
O37 P2 1.547702 1_565
O37 V4 1.984097 1_455
O38 P7 1.541900 1_555
O38 V5 1.913832 1_655
O39 P2 1.547702 1_555
O39 V7 1.984097 1_455
O40 P0 1.542495 1_555
O40 V4 1.914567 1_555
O41 P3 1.541194 1_555
O41 V4 1.907590 1_555
O42 P4 1.548460 1_555
O42 V5 1.975132 1_555
O43 P0 1.548711 1_555
O43 V0 1.972138 1_655
O44 P7 1.546607 1_555
O44 V3 1.964479 1_555
O45 P9 1.539493 1_555
O45 V3 1.909290 1_555
O46 P0 1.544213 1_555
O46 V1 1.975811 1_555
O47 P6 1.548711 1_555
O47 V4 1.972138 1_455
