# generated using pymatgen
data_Cs2Th(Si2O5)3
_symmetry_space_group_name_H-M   'P 1'
_cell_length_a   7.31475292
_cell_length_b   9.02903799
_cell_length_c   13.67658044
_cell_angle_alpha   90.00000000
_cell_angle_beta   90.00000000
_cell_angle_gamma   113.89540632
_symmetry_Int_Tables_number   1
_chemical_formula_structural   Cs2Th(Si2O5)3
_chemical_formula_sum   'Cs4 Th2 Si12 O30'
_cell_volume   825.84956006
_cell_formula_units_Z   2
loop_
 _symmetry_equiv_pos_site_id
 _symmetry_equiv_pos_as_xyz
  1  'x, y, z'
loop_
 _atom_site_type_symbol
 _atom_site_label
 _atom_site_symmetry_multiplicity
 _atom_site_fract_x
 _atom_site_fract_y
 _atom_site_fract_z
 _atom_site_occupancy
  Cs  Cs0  1  0.61708480  0.23416960  0.53706442  1
  Cs  Cs1  1  0.38291520  0.76583040  0.03706442  1
  Cs  Cs2  1  0.72729742  0.45459483  0.84482596  1
  Cs  Cs3  1  0.27270258  0.54540517  0.34482596  1
  Th  Th0  1  0.12996249  0.25992598  0.69193180  1
  Th  Th1  1  0.87003751  0.74007402  0.19193180  1
  Si  Si0  1  0.14191076  0.28382352  0.96257896  1
  Si  Si1  1  0.85808924  0.71617648  0.46257896  1
  Si  Si2  1  0.10632088  0.63000862  0.61810086  1
  Si  Si3  1  0.52368775  0.63000862  0.61810086  1
  Si  Si4  1  0.89367912  0.36999138  0.11810086  1
  Si  Si5  1  0.47631225  0.36999138  0.11810086  1
  Si  Si6  1  0.04718244  0.09436488  0.43748403  1
  Si  Si7  1  0.95281756  0.90563512  0.93748403  1
  Si  Si8  1  0.67086330  0.91056767  0.76692583  1
  Si  Si9  1  0.23970337  0.91056767  0.76692583  1
  Si  Si10  1  0.32913670  0.08943233  0.26692583  1
  Si  Si11  1  0.76029663  0.08943233  0.26692583  1
  O  O0  1  0.00103060  0.45332541  0.66435279  1
  O  O1  1  0.45229582  0.45332541  0.66435279  1
  O  O2  1  0.99896940  0.54667459  0.16435279  1
  O  O3  1  0.54770418  0.54667459  0.16435279  1
  O  O4  1  0.80470482  0.08373764  0.72255248  1
  O  O5  1  0.27903181  0.08373764  0.72255248  1
  O  O6  1  0.19529518  0.91626236  0.22255248  1
  O  O7  1  0.72096819  0.91626236  0.22255248  1
  O  O8  1  0.11020976  0.22041952  0.52517597  1
  O  O9  1  0.88979024  0.77958048  0.02517597  1
  O  O10  1  0.16829309  0.33658517  0.85122549  1
  O  O11  1  0.83170691  0.66341483  0.35122549  1
  O  O12  1  0.10322485  0.76639443  0.69389278  1
  O  O13  1  0.66316958  0.76639443  0.69389278  1
  O  O14  1  0.89677515  0.23360557  0.19389278  1
  O  O15  1  0.33683042  0.23360557  0.19389278  1
  O  O16  1  0.33666875  0.67333649  0.58616369  1
  O  O17  1  0.66333125  0.32666351  0.08616369  1
  O  O18  1  -0.00146912  0.64023940  0.51629146  1
  O  O19  1  0.64170852  0.64023940  0.51629146  1
  O  O20  1  0.00146912  0.35976060  0.01629146  1
  O  O21  1  0.35829148  0.35976060  0.01629146  1
  O  O22  1  0.87987110  0.12315191  0.37082228  1
  O  O23  1  0.24327981  0.12315191  0.37082228  1
  O  O24  1  0.12012890  0.87684809  0.87082228  1
  O  O25  1  0.75672019  0.87684809  0.87082228  1
  O  O26  1  0.95520094  0.91040187  0.47816601  1
  O  O27  1  0.04479906  0.08959813  0.97816601  1
  O  O28  1  0.44397995  0.88795990  0.79191774  1
  O  O29  1  0.55602005  0.11204010  0.29191774  1
loop_
_geom_bond_atom_site_label_1
_geom_bond_atom_site_label_2
_geom_bond_distance
_geom_bond_site_symmetry_2
Cs0 O1 3.214255 1_555
Cs0 O0 3.214260 1_655
Cs0 O22 3.380832 1_555
Cs0 O23 3.380837 1_555
Cs0 O4 3.416729 1_555
Cs0 O5 3.416733 1_555
Cs0 O29 3.501073 1_555
Cs0 O18 3.608433 1_655
Cs0 O19 3.608433 1_555
Cs0 O8 3.662748 1_555
Cs0 O8 3.662748 1_655
Cs1 O3 3.214255 1_555
Cs1 O2 3.214260 1_455
Cs1 O24 3.380832 1_554
Cs1 O25 3.380837 1_554
Cs1 O6 3.416729 1_555
Cs1 O7 3.416733 1_555
Cs1 O28 3.501073 1_554
Cs1 O20 3.608433 1_555
Cs1 O21 3.608433 1_555
Cs1 O9 3.662748 1_555
Cs1 O9 3.662748 1_455
Cs2 O1 3.181218 1_555
Cs2 O0 3.181223 1_655
Cs2 O21 3.412582 1_556
Cs2 O20 3.412582 1_656
Cs2 O17 3.465513 1_556
Cs2 O9 3.644363 1_556
Cs2 O12 3.671055 1_655
Cs2 O13 3.671055 1_555
Cs2 O25 3.747459 1_555
Cs2 O24 3.747461 1_655
Cs2 O10 3.785904 1_555
Cs2 O10 3.785912 1_655
Cs3 O3 3.181218 1_555
Cs3 O2 3.181223 1_455
Cs3 O19 3.412582 1_555
Cs3 O18 3.412582 1_555
Cs3 O16 3.465513 1_555
Cs3 O8 3.644363 1_555
Cs3 O14 3.671055 1_455
Cs3 O15 3.671055 1_555
Cs3 O23 3.747459 1_555
Cs3 O22 3.747461 1_455
Cs3 O11 3.785904 1_555
Cs3 O11 3.785912 1_455
O0 Si2 1.594634 1_555
O0 Th0 2.327048 1_555
O1 Si3 1.594635 1_555
O1 Th0 2.327058 1_555
O2 Si4 1.594634 1_555
O2 Th1 2.327048 1_555
O3 Si5 1.594635 1_555
O3 Th1 2.327058 1_555
O4 Si8 1.591028 1_545
O4 Th0 2.302245 1_655
O5 Si9 1.591028 1_545
O5 Th0 2.302245 1_555
O6 Si10 1.591028 1_565
O6 Th1 2.302245 1_455
O7 Si11 1.591028 1_565
O7 Th1 2.302245 1_555
O8 Si6 1.587837 1_555
O8 Th0 2.303850 1_555
O9 Si7 1.587837 1_554
O9 Th1 2.303850 1_555
O10 Si0 1.583994 1_555
O10 Th0 2.268643 1_555
O11 Si1 1.583994 1_555
O11 Th1 2.268643 1_555
O12 Si2 1.616793 1_555
O12 Si9 1.623588 1_555
O13 Si3 1.616793 1_555
O13 Si8 1.623590 1_555
O14 Si4 1.616793 1_555
O14 Si11 1.623588 1_555
O15 Si5 1.616793 1_555
O15 Si10 1.623590 1_555
O16 Si3 1.627517 1_555
O16 Si2 1.627524 1_555
O17 Si5 1.627517 1_555
O17 Si4 1.627524 1_555
O18 Si2 1.621108 1_555
O18 Si1 1.623485 1_455
O19 Si3 1.621108 1_555
O19 Si1 1.623496 1_555
O20 Si4 1.621108 1_455
O20 Si0 1.623485 1_554
O21 Si5 1.621108 1_555
O21 Si0 1.623496 1_554
O22 Si6 1.629188 1_655
O22 Si11 1.631281 1_555
O23 Si6 1.629182 1_555
O23 Si10 1.631288 1_555
O24 Si7 1.629188 1_455
O24 Si9 1.631281 1_555
O25 Si7 1.629182 1_555
O25 Si8 1.631288 1_555
O26 Si6 1.617353 1_665
O26 Si1 1.617465 1_555
O27 Si7 1.617353 1_445
O27 Si0 1.617465 1_555
O28 Si8 1.624287 1_555
O28 Si9 1.624294 1_555
O29 Si10 1.624287 1_555
O29 Si11 1.624294 1_555
