# generated using pymatgen
data_NbSe4
_symmetry_space_group_name_H-M   'P 1'
_cell_length_a   8.49940700
_cell_length_b   8.49940700
_cell_length_c   19.66063700
_cell_angle_alpha   90.00000000
_cell_angle_beta   90.00000000
_cell_angle_gamma   90.00000000
_symmetry_Int_Tables_number   1
_chemical_formula_structural   NbSe4
_chemical_formula_sum   'Nb12 Se48'
_cell_volume   1420.28283128
_cell_formula_units_Z   12
loop_
 _symmetry_equiv_pos_site_id
 _symmetry_equiv_pos_as_xyz
  1  'x, y, z'
loop_
 _atom_site_type_symbol
 _atom_site_label
 _atom_site_symmetry_multiplicity
 _atom_site_fract_x
 _atom_site_fract_y
 _atom_site_fract_z
 _atom_site_occupancy
  Nb  Nb0  1  0.50000000  0.00000000  0.75988100  1
  Nb  Nb1  1  0.50000000  0.00000000  0.41571400  1
  Nb  Nb2  1  0.00000000  0.50000000  0.92793400  1
  Nb  Nb3  1  0.50000000  0.00000000  0.07206600  1
  Nb  Nb4  1  0.50000000  0.00000000  0.25988100  1
  Nb  Nb5  1  0.00000000  0.50000000  0.24011900  1
  Nb  Nb6  1  0.00000000  0.50000000  0.58428600  1
  Nb  Nb7  1  0.50000000  0.00000000  0.57206600  1
  Nb  Nb8  1  0.00000000  0.50000000  0.42793400  1
  Nb  Nb9  1  0.00000000  0.50000000  0.08428600  1
  Nb  Nb10  1  0.00000000  0.50000000  0.74011900  1
  Nb  Nb11  1  0.50000000  0.00000000  0.91571400  1
  Se  Se0  1  0.76312000  0.39817100  0.00238300  1
  Se  Se1  1  0.23688000  0.60182900  0.00238300  1
  Se  Se2  1  0.10182900  0.26312000  0.00238300  1
  Se  Se3  1  0.89817100  0.73688000  0.00238300  1
  Se  Se4  1  0.78067900  0.39687300  0.33380900  1
  Se  Se5  1  0.21932100  0.60312700  0.33380900  1
  Se  Se6  1  0.10312700  0.28067900  0.33380900  1
  Se  Se7  1  0.89687300  0.71932100  0.33380900  1
  Se  Se8  1  0.71932100  0.10312700  0.66619100  1
  Se  Se9  1  0.28067900  0.89687300  0.66619100  1
  Se  Se10  1  0.39687300  0.21932100  0.66619100  1
  Se  Se11  1  0.60312700  0.78067900  0.66619100  1
  Se  Se12  1  0.75831200  0.40604600  0.66570900  1
  Se  Se13  1  0.24168800  0.59395400  0.66570900  1
  Se  Se14  1  0.09395400  0.25831200  0.66570900  1
  Se  Se15  1  0.90604600  0.74168800  0.66570900  1
  Se  Se16  1  0.59395400  0.24168800  0.83429100  1
  Se  Se17  1  0.40604600  0.75831200  0.83429100  1
  Se  Se18  1  0.25831200  0.09395400  0.83429100  1
  Se  Se19  1  0.74168800  0.90604600  0.83429100  1
  Se  Se20  1  0.60182900  0.23688000  0.49761700  1
  Se  Se21  1  0.39817100  0.76312000  0.49761700  1
  Se  Se22  1  0.26312000  0.10182900  0.49761700  1
  Se  Se23  1  0.73688000  0.89817100  0.49761700  1
  Se  Se24  1  0.90604600  0.25831200  0.16570900  1
  Se  Se25  1  0.09395400  0.74168800  0.16570900  1
  Se  Se26  1  0.24168800  0.40604600  0.16570900  1
  Se  Se27  1  0.75831200  0.59395400  0.16570900  1
  Se  Se28  1  0.73688000  0.10182900  0.99761700  1
  Se  Se29  1  0.26312000  0.89817100  0.99761700  1
  Se  Se30  1  0.39817100  0.23688000  0.99761700  1
  Se  Se31  1  0.60182900  0.76312000  0.99761700  1
  Se  Se32  1  0.89687300  0.28067900  0.83380900  1
  Se  Se33  1  0.10312700  0.71932100  0.83380900  1
  Se  Se34  1  0.21932100  0.39687300  0.83380900  1
  Se  Se35  1  0.78067900  0.60312700  0.83380900  1
  Se  Se36  1  0.74168800  0.09395400  0.33429100  1
  Se  Se37  1  0.25831200  0.90604600  0.33429100  1
  Se  Se38  1  0.40604600  0.24168800  0.33429100  1
  Se  Se39  1  0.59395400  0.75831200  0.33429100  1
  Se  Se40  1  0.89817100  0.26312000  0.50238300  1
  Se  Se41  1  0.10182900  0.73688000  0.50238300  1
  Se  Se42  1  0.23688000  0.39817100  0.50238300  1
  Se  Se43  1  0.76312000  0.60182900  0.50238300  1
  Se  Se44  1  0.60312700  0.21932100  0.16619100  1
  Se  Se45  1  0.39687300  0.78067900  0.16619100  1
  Se  Se46  1  0.28067900  0.10312700  0.16619100  1
  Se  Se47  1  0.71932100  0.89687300  0.16619100  1
loop_
_geom_bond_atom_site_label_1
_geom_bond_atom_site_label_2
_geom_bond_distance
_geom_bond_site_symmetry_2
Nb0 Se16 2.645309 1_555
Nb0 Se18 2.645309 1_555
Nb0 Se19 2.645309 1_545
Nb0 Se17 2.645309 1_545
Nb0 Se10 2.763355 1_555
Nb0 Se11 2.763355 1_545
Nb0 Se8 2.763355 1_555
Nb0 Se9 2.763355 1_545
Nb1 Se22 2.719477 1_555
Nb1 Se20 2.719477 1_555
Nb1 Se21 2.719477 1_545
Nb1 Se23 2.719477 1_545
Nb1 Se36 2.723985 1_555
Nb1 Se39 2.723985 1_545
Nb1 Se38 2.723985 1_555
Nb1 Se37 2.723985 1_545
Nb2 Se2 2.635349 1_556
Nb2 Se0 2.635349 1_456
Nb2 Se1 2.635349 1_556
Nb2 Se3 2.635349 1_456
Nb2 Se34 2.769063 1_555
Nb2 Se35 2.769063 1_455
Nb2 Se33 2.769063 1_555
Nb2 Se32 2.769063 1_455
Nb3 Se28 2.635349 1_554
Nb3 Se31 2.635349 1_544
Nb3 Se30 2.635349 1_554
Nb3 Se29 2.635349 1_544
Nb3 Se46 2.769063 1_555
Nb3 Se44 2.769063 1_555
Nb3 Se45 2.769063 1_545
Nb3 Se47 2.769063 1_545
Nb4 Se39 2.645309 1_545
Nb4 Se36 2.645309 1_555
Nb4 Se37 2.645309 1_545
Nb4 Se38 2.645309 1_555
Nb4 Se46 2.763355 1_555
Nb4 Se44 2.763355 1_555
Nb4 Se45 2.763355 1_545
Nb4 Se47 2.763355 1_545
Nb5 Se27 2.645309 1_455
Nb5 Se25 2.645309 1_555
Nb5 Se26 2.645309 1_555
Nb5 Se24 2.645309 1_455
Nb5 Se6 2.763355 1_555
Nb5 Se5 2.763355 1_555
Nb5 Se4 2.763355 1_455
Nb5 Se7 2.763355 1_455
Nb6 Se41 2.719477 1_555
Nb6 Se43 2.719477 1_455
Nb6 Se42 2.719477 1_555
Nb6 Se40 2.719477 1_455
Nb6 Se13 2.723985 1_555
Nb6 Se14 2.723985 1_555
Nb6 Se12 2.723985 1_455
Nb6 Se15 2.723985 1_455
Nb7 Se22 2.635349 1_555
Nb7 Se21 2.635349 1_545
Nb7 Se20 2.635349 1_555
Nb7 Se23 2.635349 1_545
Nb7 Se8 2.769063 1_555
Nb7 Se10 2.769063 1_555
Nb7 Se11 2.769063 1_545
Nb7 Se9 2.769063 1_545
Nb8 Se41 2.635349 1_555
Nb8 Se43 2.635349 1_455
Nb8 Se42 2.635349 1_555
Nb8 Se40 2.635349 1_455
Nb8 Se6 2.769063 1_555
Nb8 Se5 2.769063 1_555
Nb8 Se4 2.769063 1_455
Nb8 Se7 2.769063 1_455
Nb9 Se2 2.719477 1_555
Nb9 Se1 2.719477 1_555
Nb9 Se0 2.719477 1_455
Nb9 Se3 2.719477 1_455
Nb9 Se27 2.723985 1_455
Nb9 Se25 2.723985 1_555
Nb9 Se26 2.723985 1_555
Nb9 Se24 2.723985 1_455
Nb10 Se13 2.645309 1_555
Nb10 Se14 2.645309 1_555
Nb10 Se12 2.645309 1_455
Nb10 Se15 2.645309 1_455
Nb10 Se33 2.763355 1_555
Nb10 Se34 2.763355 1_555
Nb10 Se35 2.763355 1_455
Nb10 Se32 2.763355 1_455
Nb11 Se28 2.719477 1_555
Nb11 Se31 2.719477 1_545
Nb11 Se30 2.719477 1_555
Nb11 Se29 2.719477 1_545
Nb11 Se16 2.723985 1_555
Nb11 Se18 2.723985 1_555
Nb11 Se17 2.723985 1_545
Nb11 Se19 2.723985 1_545
Se0 Se28 2.530322 1_554
Se1 Se29 2.530322 1_554
Se2 Se30 2.530322 1_554
Se3 Se31 2.530322 1_554
Se10 Se14 2.595890 1_555
Se11 Se15 2.595890 1_555
Se12 Se8 2.595890 1_555
Se13 Se9 2.595890 1_555
Se16 Se32 2.595890 1_555
Se17 Se33 2.595890 1_555
Se18 Se34 2.595890 1_555
Se19 Se35 2.595890 1_555
Se20 Se40 2.530322 1_555
Se21 Se41 2.530322 1_555
Se22 Se42 2.530322 1_555
Se23 Se43 2.530322 1_555
Se24 Se44 2.595890 1_555
Se25 Se45 2.595890 1_555
Se26 Se46 2.595890 1_555
Se27 Se47 2.595890 1_555
Se36 Se4 2.595890 1_555
Se37 Se5 2.595890 1_555
Se38 Se6 2.595890 1_555
Se39 Se7 2.595890 1_555
