# generated using pymatgen
data_Fe3Pb4BrO8
_symmetry_space_group_name_H-M   'P 1'
_cell_length_a   3.98509600
_cell_length_b   3.98509600
_cell_length_c   15.68319900
_cell_angle_alpha   90.00000000
_cell_angle_beta   90.00000000
_cell_angle_gamma   90.00000000
_symmetry_Int_Tables_number   1
_chemical_formula_structural   Fe3Pb4BrO8
_chemical_formula_sum   'Fe3 Pb4 Br1 O8'
_cell_volume   249.06472851
_cell_formula_units_Z   1
loop_
 _symmetry_equiv_pos_site_id
 _symmetry_equiv_pos_as_xyz
  1  'x, y, z'
loop_
 _atom_site_type_symbol
 _atom_site_label
 _atom_site_symmetry_multiplicity
 _atom_site_fract_x
 _atom_site_fract_y
 _atom_site_fract_z
 _atom_site_occupancy
  Fe  Fe0  1  0.00000000  0.00000000  0.25599200  1
  Fe  Fe1  1  0.00000000  0.00000000  0.74400800  1
  Fe  Fe2  1  0.00000000  0.00000000  0.00000000  1
  Pb  Pb0  1  0.50000000  0.50000000  0.11559500  1
  Pb  Pb1  1  0.50000000  0.50000000  0.88440500  1
  Pb  Pb2  1  0.50000000  0.50000000  0.37785600  1
  Pb  Pb3  1  0.50000000  0.50000000  0.62214400  1
  Br  Br0  1  0.00000000  0.00000000  0.50000000  1
  O  O0  1  0.00000000  0.50000000  0.28881200  1
  O  O1  1  0.00000000  0.50000000  0.71118800  1
  O  O2  1  0.50000000  0.00000000  0.28881200  1
  O  O3  1  0.50000000  0.00000000  0.71118800  1
  O  O4  1  0.00000000  0.00000000  0.13527500  1
  O  O5  1  0.00000000  0.00000000  0.86472500  1
  O  O6  1  0.00000000  0.50000000  0.00000000  1
  O  O7  1  0.50000000  0.00000000  0.00000000  1
loop_
_geom_bond_atom_site_label_1
_geom_bond_atom_site_label_2
_geom_bond_distance
_geom_bond_site_symmetry_2
Fe0 O4 1.893229 1_555
Fe0 O2 2.057957 1_455
Fe0 O0 2.057957 1_545
Fe0 O2 2.057957 1_555
Fe0 O0 2.057957 1_555
Fe1 O5 1.893229 1_555
Fe1 O1 2.057957 1_545
Fe1 O3 2.057957 1_455
Fe1 O1 2.057957 1_555
Fe1 O3 2.057957 1_555
Fe2 O6 1.992548 1_545
Fe2 O7 1.992548 1_455
Fe2 O6 1.992548 1_555
Fe2 O7 1.992548 1_555
Fe2 O4 2.121545 1_555
Fe2 O5 2.121545 1_554
Br0 Pb3 3.407353 1_555
Br0 Pb3 3.407353 1_455
Br0 Pb3 3.407353 1_445
Br0 Pb3 3.407353 1_545
Br0 Pb2 3.407353 1_555
Br0 Pb2 3.407353 1_445
Br0 Pb2 3.407353 1_545
Br0 Pb2 3.407353 1_455
O0 Pb2 2.433196 1_555
O0 Pb2 2.433196 1_455
O1 Pb3 2.433196 1_455
O1 Pb3 2.433196 1_555
O2 Pb2 2.433196 1_555
O2 Pb2 2.433196 1_545
O3 Pb3 2.433196 1_555
O3 Pb3 2.433196 1_545
O4 Pb0 2.834741 1_445
O4 Pb0 2.834741 1_555
O4 Pb0 2.834741 1_455
O4 Pb0 2.834741 1_545
O5 Pb1 2.834741 1_545
O5 Pb1 2.834741 1_455
O5 Pb1 2.834741 1_445
O5 Pb1 2.834741 1_555
O6 Pb0 2.693854 1_555
O6 Pb0 2.693854 1_455
O6 Pb1 2.693854 1_454
O6 Pb1 2.693854 1_554
O7 Pb0 2.693854 1_555
O7 Pb0 2.693854 1_545
O7 Pb1 2.693854 1_544
O7 Pb1 2.693854 1_554
