# generated using pymatgen
data_BaSr(CuO2)2
_symmetry_space_group_name_H-M   'P 1'
_cell_length_a   3.98428200
_cell_length_b   3.98428200
_cell_length_c   7.34812100
_cell_angle_alpha   90.00000000
_cell_angle_beta   90.00000000
_cell_angle_gamma   90.00000000
_symmetry_Int_Tables_number   1
_chemical_formula_structural   BaSr(CuO2)2
_chemical_formula_sum   'Ba1 Sr1 Cu2 O4'
_cell_volume   116.64776927
_cell_formula_units_Z   1
loop_
 _symmetry_equiv_pos_site_id
 _symmetry_equiv_pos_as_xyz
  1  'x, y, z'
loop_
 _atom_site_type_symbol
 _atom_site_label
 _atom_site_symmetry_multiplicity
 _atom_site_fract_x
 _atom_site_fract_y
 _atom_site_fract_z
 _atom_site_occupancy
  Ba  Ba0  1  0.00000000  0.00000000  0.50000000  1
  Sr  Sr0  1  0.00000000  0.00000000  0.00000000  1
  Cu  Cu0  1  0.50000000  0.50000000  0.22941200  1
  Cu  Cu1  1  0.50000000  0.50000000  0.77058800  1
  O  O0  1  0.50000000  0.00000000  0.23334900  1
  O  O1  1  0.50000000  0.00000000  0.76665100  1
  O  O2  1  0.00000000  0.50000000  0.23334900  1
  O  O3  1  0.00000000  0.50000000  0.76665100  1
loop_
_geom_bond_atom_site_label_1
_geom_bond_atom_site_label_2
_geom_bond_distance
_geom_bond_site_symmetry_2
Ba0 O1 2.794246 1_555
Ba0 O3 2.794246 1_545
Ba0 O0 2.794246 1_455
Ba0 O3 2.794246 1_555
Ba0 O0 2.794246 1_555
Ba0 O2 2.794246 1_555
Ba0 O1 2.794246 1_455
Ba0 O2 2.794246 1_545
Cu0 O0 1.992351 1_555
Cu0 O2 1.992351 1_655
Cu0 O0 1.992351 1_565
Cu0 O2 1.992351 1_555
Cu1 O1 1.992351 1_555
Cu1 O1 1.992351 1_565
Cu1 O3 1.992351 1_655
Cu1 O3 1.992351 1_555
O0 Sr0 2.628449 1_555
O0 Sr0 2.628449 1_655
O1 Sr0 2.628449 1_656
O1 Sr0 2.628449 1_556
O2 Sr0 2.628449 1_555
O2 Sr0 2.628449 1_565
O3 Sr0 2.628449 1_566
O3 Sr0 2.628449 1_556
