# generated using pymatgen
data_Mg2W3O8
_symmetry_space_group_name_H-M   'P 1'
_cell_length_a   6.24750831
_cell_length_b   6.24750831
_cell_length_c   9.61873800
_cell_angle_alpha   90.00000000
_cell_angle_beta   90.00000000
_cell_angle_gamma   120.00000332
_symmetry_Int_Tables_number   1
_chemical_formula_structural   Mg2W3O8
_chemical_formula_sum   'Mg4 W6 O16'
_cell_volume   325.13400816
_cell_formula_units_Z   2
loop_
 _symmetry_equiv_pos_site_id
 _symmetry_equiv_pos_as_xyz
  1  'x, y, z'
loop_
 _atom_site_type_symbol
 _atom_site_label
 _atom_site_symmetry_multiplicity
 _atom_site_fract_x
 _atom_site_fract_y
 _atom_site_fract_z
 _atom_site_occupancy
  Mg  Mg0  1  0.66666700  0.33333300  0.02750800  1
  Mg  Mg1  1  0.33333300  0.66666700  0.52750800  1
  Mg  Mg2  1  0.66666700  0.33333300  0.40743100  1
  Mg  Mg3  1  0.33333300  0.66666700  0.90743100  1
  W  W0  1  0.66403800  0.83201900  0.24063700  1
  W  W1  1  0.83201900  0.16798100  0.74063700  1
  W  W2  1  0.16798100  0.33596200  0.24063700  1
  W  W3  1  0.83201900  0.66403800  0.74063700  1
  W  W4  1  0.33596200  0.16798100  0.74063700  1
  W  W5  1  0.16798100  0.83201900  0.24063700  1
  O  O0  1  0.82929400  0.17070600  0.14788000  1
  O  O1  1  0.65858800  0.82929400  0.64788000  1
  O  O2  1  0.17070600  0.34141200  0.64788000  1
  O  O3  1  0.82929400  0.65858800  0.14788000  1
  O  O4  1  0.34141200  0.17070600  0.14788000  1
  O  O5  1  0.17070600  0.82929400  0.64788000  1
  O  O6  1  0.51915200  0.48084800  0.87496800  1
  O  O7  1  0.03830400  0.51915200  0.37496800  1
  O  O8  1  0.48084800  0.96169600  0.37496800  1
  O  O9  1  0.51915200  0.03830400  0.87496800  1
  O  O10  1  0.00000000  0.00000000  0.34980400  1
  O  O11  1  0.00000000  0.00000000  0.84980400  1
  O  O12  1  0.33333300  0.66666700  0.11830100  1
  O  O13  1  0.96169600  0.48084800  0.87496800  1
  O  O14  1  0.48084800  0.51915200  0.37496800  1
  O  O15  1  0.66666700  0.33333300  0.61830100  1
loop_
_geom_bond_atom_site_label_1
_geom_bond_atom_site_label_2
_geom_bond_distance
_geom_bond_site_symmetry_2
Mg0 O0 2.106517 1_555
Mg0 O3 2.106521 1_555
Mg0 O4 2.106521 1_555
Mg0 O9 2.168139 1_554
Mg0 O13 2.168139 1_554
Mg0 O6 2.168144 1_554
Mg1 O5 2.106517 1_555
Mg1 O2 2.106521 1_555
Mg1 O1 2.106521 1_555
Mg1 O7 2.168139 1_555
Mg1 O8 2.168139 1_555
Mg1 O14 2.168144 1_555
Mg2 O15 2.028303 1_555
Mg2 O7 2.034843 1_655
Mg2 O8 2.034843 1_545
Mg2 O14 2.034849 1_555
Mg3 O12 2.028303 1_556
Mg3 O9 2.034843 1_565
Mg3 O13 2.034843 1_455
Mg3 O6 2.034849 1_555
O0 W2 2.038287 1_655
O0 W0 2.038287 1_545
O1 W1 2.038287 1_565
O1 W3 2.038287 1_555
O2 W1 2.038287 1_455
O2 W4 2.038287 1_555
O3 W5 2.038287 1_655
O3 W0 2.038287 1_555
O4 W5 2.038287 1_545
O4 W2 2.038287 1_555
O5 W4 2.038287 1_565
O5 W3 2.038287 1_455
O6 W3 2.136097 1_555
O6 W4 2.136097 1_555
O7 W5 2.136097 1_555
O7 W2 2.136097 1_555
O8 W5 2.136097 1_555
O8 W0 2.136097 1_555
O9 W1 2.136097 1_555
O9 W4 2.136097 1_555
O10 W0 2.099218 1_445
O10 W2 2.099218 1_555
O10 W5 2.099219 1_545
O11 W4 2.099218 1_555
O11 W3 2.099218 1_445
O11 W1 2.099219 1_455
O12 W5 2.141534 1_555
O12 W2 2.141538 1_555
O12 W0 2.141538 1_555
O13 W1 2.136097 1_555
O13 W3 2.136097 1_555
O14 W2 2.136097 1_555
O14 W0 2.136097 1_555
O15 W1 2.141534 1_555
O15 W4 2.141538 1_555
O15 W3 2.141538 1_555
