# generated using pymatgen
data_Mg14AlCu
_symmetry_space_group_name_H-M   'P 1'
_cell_length_a   6.20685467
_cell_length_b   6.20685419
_cell_length_c   10.22254594
_cell_angle_alpha   90.00000000
_cell_angle_beta   90.00000000
_cell_angle_gamma   120.00000251
_symmetry_Int_Tables_number   1
_chemical_formula_structural   Mg14AlCu
_chemical_formula_sum   'Mg14 Al1 Cu1'
_cell_volume   341.06158935
_cell_formula_units_Z   1
loop_
 _symmetry_equiv_pos_site_id
 _symmetry_equiv_pos_as_xyz
  1  'x, y, z'
loop_
 _atom_site_type_symbol
 _atom_site_label
 _atom_site_symmetry_multiplicity
 _atom_site_fract_x
 _atom_site_fract_y
 _atom_site_fract_z
 _atom_site_occupancy
  Mg  Mg0  1  0.16571032  0.83285466  0.12500000  1
  Mg  Mg1  1  0.16475251  0.83237576  0.62500000  1
  Mg  Mg2  1  0.66714534  0.33428968  0.12500000  1
  Mg  Mg3  1  0.66762424  0.33524749  0.62500000  1
  Mg  Mg4  1  0.66714534  0.83285466  0.12500000  1
  Mg  Mg5  1  0.66762424  0.83237576  0.62500000  1
  Mg  Mg6  1  0.32951055  0.17048945  0.37766688  1
  Mg  Mg7  1  0.32951055  0.17048945  0.87233312  1
  Mg  Mg8  1  0.32951055  0.65902210  0.37766688  1
  Mg  Mg9  1  0.32951055  0.65902210  0.87233312  1
  Mg  Mg10  1  0.84097790  0.17048945  0.37766688  1
  Mg  Mg11  1  0.84097790  0.17048945  0.87233312  1
  Mg  Mg12  1  0.83333300  0.66666700  0.37471194  1
  Mg  Mg13  1  0.83333300  0.66666700  0.87528806  1
  Al  Al0  1  0.16666700  0.33333300  0.12500000  1
  Cu  Cu0  1  0.16666700  0.33333300  0.62500000  1
loop_
_geom_bond_atom_site_label_1
_geom_bond_atom_site_label_2
_geom_bond_distance
_geom_bond_site_symmetry_2
Mg0 Mg2 3.094520 1_455
Mg0 Mg4 3.094520 1_455
Mg0 Mg2 3.112334 1_565
Mg0 Mg4 3.112334 1_555
Mg0 Mg13 3.115809 1_454
Mg0 Mg12 3.115809 1_455
Mg0 Mg9 3.156914 1_554
Mg0 Mg8 3.156914 1_555
Mg0 Mg6 3.156921 1_565
Mg0 Mg7 3.156921 1_564
Mg1 Mg3 3.085603 1_455
Mg1 Mg5 3.085603 1_455
Mg1 Mg8 3.113922 1_555
Mg1 Mg9 3.113922 1_555
Mg1 Mg6 3.113928 1_565
Mg1 Mg7 3.113928 1_565
Mg1 Mg12 3.117691 1_455
Mg1 Mg13 3.117691 1_455
Mg1 Mg3 3.121252 1_565
Mg1 Mg5 3.121252 1_555
Mg2 Mg4 3.094520 1_555
Mg2 Mg4 3.112334 1_545
Mg2 Mg7 3.156921 1_554
Mg2 Mg6 3.156921 1_555
Mg3 Mg5 3.085603 1_555
Mg3 Mg6 3.113928 1_555
Mg3 Mg7 3.113928 1_555
Mg3 Mg5 3.121252 1_545
Mg4 Mg8 3.156920 1_555
Mg4 Mg9 3.156920 1_554
Mg5 Mg8 3.113928 1_555
Mg5 Mg9 3.113928 1_555
Mg6 Mg8 3.032251 1_555
Mg6 Mg8 3.174603 1_545
Mg7 Mg9 3.032251 1_555
Mg7 Mg9 3.174603 1_545
Mg10 Mg8 3.032251 1_655
Mg10 Mg6 3.032251 1_655
Mg10 Mg12 3.103846 1_545
Mg10 Mg12 3.103846 1_555
Mg10 Mg3 3.113922 1_555
Mg10 Mg5 3.113928 1_545
Mg10 Mg2 3.156914 1_555
Mg10 Mg4 3.156920 1_545
Mg10 Mg8 3.174603 1_545
Mg10 Mg6 3.174604 1_555
Mg11 Mg9 3.032251 1_655
Mg11 Mg7 3.032251 1_655
Mg11 Mg13 3.103846 1_545
Mg11 Mg13 3.103846 1_555
Mg11 Mg3 3.113922 1_555
Mg11 Mg5 3.113928 1_545
Mg11 Mg2 3.156914 1_556
Mg11 Mg4 3.156920 1_546
Mg11 Mg9 3.174603 1_545
Mg11 Mg7 3.174604 1_555
Mg12 Mg6 3.103846 1_665
Mg12 Mg6 3.103846 1_555
Mg12 Mg8 3.103846 1_655
Mg12 Mg8 3.103846 1_555
Mg12 Mg4 3.115803 1_555
Mg12 Mg2 3.115809 1_555
Mg12 Mg5 3.117685 1_555
Mg12 Mg3 3.117691 1_555
Mg13 Mg7 3.103846 1_665
Mg13 Mg7 3.103846 1_555
Mg13 Mg9 3.103846 1_655
Mg13 Mg9 3.103846 1_555
Mg13 Mg4 3.115803 1_556
Mg13 Mg2 3.115809 1_556
Mg13 Mg5 3.117685 1_555
Mg13 Mg3 3.117691 1_555
Al0 Mg0 3.103431 1_545
Al0 Mg0 3.103431 1_555
Al0 Mg4 3.103431 1_445
Al0 Mg4 3.103431 1_555
Al0 Mg2 3.103432 1_455
Al0 Mg2 3.103432 1_555
Al0 Mg7 3.120287 1_554
Al0 Mg6 3.120287 1_555
Al0 Mg9 3.120293 1_554
Al0 Mg8 3.120293 1_555
Al0 Mg11 3.120293 1_454
Al0 Mg10 3.120293 1_455
Cu0 Mg6 3.075305 1_555
Cu0 Mg7 3.075305 1_555
Cu0 Mg8 3.075311 1_555
Cu0 Mg9 3.075311 1_555
Cu0 Mg11 3.075311 1_455
Cu0 Mg10 3.075311 1_455
Cu0 Mg1 3.103444 1_545
Cu0 Mg5 3.103444 1_445
Cu0 Mg5 3.103444 1_555
Cu0 Mg1 3.103444 1_555
Cu0 Mg3 3.103444 1_555
Cu0 Mg3 3.103444 1_455
