# generated using pymatgen
data_LiCrCdF6
_symmetry_space_group_name_H-M   'P 1'
_cell_length_a   5.21219587
_cell_length_b   5.21219587
_cell_length_c   9.71061700
_cell_angle_alpha   90.00000000
_cell_angle_beta   90.00000000
_cell_angle_gamma   119.99999840
_symmetry_Int_Tables_number   1
_chemical_formula_structural   LiCrCdF6
_chemical_formula_sum   'Li2 Cr2 Cd2 F12'
_cell_volume   228.46460178
_cell_formula_units_Z   2
loop_
 _symmetry_equiv_pos_site_id
 _symmetry_equiv_pos_as_xyz
  1  'x, y, z'
loop_
 _atom_site_type_symbol
 _atom_site_label
 _atom_site_symmetry_multiplicity
 _atom_site_fract_x
 _atom_site_fract_y
 _atom_site_fract_z
 _atom_site_occupancy
  Li  Li0  1  0.33333300  0.66666700  0.75000000  1
  Li  Li1  1  0.66666700  0.33333300  0.25000000  1
  Cr  Cr0  1  0.66666700  0.33333300  0.75000000  1
  Cr  Cr1  1  0.33333300  0.66666700  0.25000000  1
  Cd  Cd0  1  0.00000000  0.00000000  0.50000000  1
  Cd  Cd1  1  0.00000000  0.00000000  0.00000000  1
  F  F0  1  0.65377400  0.01582500  0.63848800  1
  F  F1  1  0.34622600  0.98417500  0.36151200  1
  F  F2  1  0.98417500  0.63794900  0.63848800  1
  F  F3  1  0.65377400  0.63794900  0.86151200  1
  F  F4  1  0.01582500  0.36205100  0.36151200  1
  F  F5  1  0.34622600  0.36205100  0.13848800  1
  F  F6  1  0.36205100  0.34622600  0.63848800  1
  F  F7  1  0.98417500  0.34622600  0.86151200  1
  F  F8  1  0.63794900  0.65377400  0.36151200  1
  F  F9  1  0.01582500  0.65377400  0.13848800  1
  F  F10  1  0.36205100  0.01582500  0.86151200  1
  F  F11  1  0.63794900  0.98417500  0.13848800  1
loop_
_geom_bond_atom_site_label_1
_geom_bond_atom_site_label_2
_geom_bond_distance
_geom_bond_site_symmetry_2
Cr0 F0 1.950541 1_555
Cr0 F7 1.950541 1_555
Cr0 F2 1.950543 1_555
Cr0 F10 1.950543 1_555
Cr0 F6 1.950545 1_555
Cr0 F3 1.950545 1_555
Cr1 F1 1.950541 1_555
Cr1 F9 1.950541 1_555
Cr1 F4 1.950543 1_555
Cr1 F11 1.950543 1_555
Cr1 F5 1.950545 1_555
Cr1 F8 1.950545 1_555
Cd0 F1 2.284890 1_545
Cd0 F0 2.284890 1_455
Cd0 F4 2.284890 1_555
Cd0 F2 2.284890 1_445
Cd0 F8 2.284890 1_445
Cd0 F6 2.284890 1_555
Cd1 F9 2.284890 1_545
Cd1 F7 2.284890 1_454
Cd1 F11 2.284890 1_445
Cd1 F10 2.284890 1_554
Cd1 F5 2.284890 1_555
Cd1 F3 2.284890 1_444
F0 Li0 2.057798 1_545
F1 Li1 2.057798 1_565
F2 Li0 2.057796 1_655
F3 Li0 2.057801 1_555
F4 Li1 2.057796 1_455
F5 Li1 2.057801 1_555
F6 Li0 2.057801 1_555
F7 Li0 2.057798 1_655
F8 Li1 2.057801 1_555
F9 Li1 2.057798 1_455
F10 Li0 2.057796 1_545
F11 Li1 2.057796 1_565
