# generated using pymatgen
data_PrH12(NO5)3
_symmetry_space_group_name_H-M   'P 1'
_cell_length_a   6.63922549
_cell_length_b   9.11740036
_cell_length_c   11.63297483
_cell_angle_alpha   68.30935301
_cell_angle_beta   88.63193328
_cell_angle_gamma   69.74212116
_symmetry_Int_Tables_number   1
_chemical_formula_structural   PrH12(NO5)3
_chemical_formula_sum   'Pr2 H24 N6 O30'
_cell_volume   609.44668420
_cell_formula_units_Z   2
loop_
 _symmetry_equiv_pos_site_id
 _symmetry_equiv_pos_as_xyz
  1  'x, y, z'
loop_
 _atom_site_type_symbol
 _atom_site_label
 _atom_site_symmetry_multiplicity
 _atom_site_fract_x
 _atom_site_fract_y
 _atom_site_fract_z
 _atom_site_occupancy
  Pr  Pr0  1  0.69620788  0.90674630  0.27474908  1
  Pr  Pr1  1  0.30379212  0.09325370  0.72525092  1
  H  H0  1  0.70028923  0.03343798  0.49125293  1
  H  H1  1  0.29971077  0.96656202  0.50874707  1
  H  H2  1  0.89730888  0.85992068  0.52946220  1
  H  H3  1  0.10269112  0.14007932  0.47053780  1
  H  H4  1  0.89072702  0.16620769  0.27102458  1
  H  H5  1  0.10927298  0.83379231  0.72897542  1
  H  H6  1  0.88033959  0.18012952  0.12981636  1
  H  H7  1  0.11966041  0.81987048  0.87018364  1
  H  H8  1  0.71930948  0.03121765  0.98354135  1
  H  H9  1  0.28069052  0.96878235  0.01645865  1
  H  H10  1  0.91382976  0.85630695  0.04711753  1
  H  H11  1  0.08617024  0.14369305  0.95288247  1
  H  H12  1  0.19867098  0.75239187  0.29466819  1
  H  H13  1  0.80132902  0.24760813  0.70533181  1
  H  H14  1  0.13670579  0.60483519  0.39150345  1
  H  H15  1  0.86329421  0.39516481  0.60849655  1
  H  H16  1  0.22704198  0.67129515  0.62103717  1
  H  H17  1  0.77295802  0.32870485  0.37896283  1
  H  H18  1  0.04986879  0.62998543  0.70384547  1
  H  H19  1  0.95013121  0.37001457  0.29615453  1
  H  H20  1  0.25871731  0.66271756  0.06595339  1
  H  H21  1  0.74128269  0.33728244  0.93404661  1
  H  H22  1  0.08094138  0.60625630  0.03144602  1
  H  H23  1  0.91905862  0.39374370  0.96855398  1
  N  N0  1  0.31202338  0.23578010  0.18146538  1
  N  N1  1  0.68797662  0.76421990  0.81853462  1
  N  N2  1  0.57240599  0.67124736  0.17778627  1
  N  N3  1  0.42759401  0.32875264  0.82221373  1
  N  N4  1  0.56275937  0.66619029  0.50721010  1
  N  N5  1  0.43724063  0.33380971  0.49278990  1
  O  O0  1  0.39455061  0.16521128  0.29485416  1
  O  O1  1  0.60544939  0.83478872  0.70514584  1
  O  O2  1  0.40229120  0.16482406  0.10830442  1
  O  O3  1  0.59770880  0.83517594  0.89169558  1
  O  O4  1  0.14833915  0.36689486  0.14479225  1
  O  O5  1  0.85166085  0.63310514  0.85520775  1
  O  O6  1  0.42563019  0.80840043  0.17754191  1
  O  O7  1  0.57436981  0.19159957  0.82245809  1
  O  O8  1  0.75989249  0.63465421  0.22645097  1
  O  O9  1  0.24010751  0.36534579  0.77354903  1
  O  O10  1  0.52941409  0.58090431  0.13288435  1
  O  O11  1  0.47058591  0.41909569  0.86711565  1
  O  O12  1  0.75604929  0.61546201  0.48393647  1
  O  O13  1  0.24395071  0.38453799  0.51606353  1
  O  O14  1  0.43621329  0.81273706  0.43525991  1
  O  O15  1  0.56378671  0.18726294  0.56474009  1
  O  O16  1  0.49791150  0.57527825  0.59650620  1
  O  O17  1  0.50208850  0.42472175  0.40349380  1
  O  O18  1  0.78438805  0.94784319  0.46050592  1
  O  O19  1  0.21561195  0.05215681  0.53949408  1
  O  O20  1  0.88091551  0.10640639  0.21710368  1
  O  O21  1  0.11908449  0.89359361  0.78289632  1
  O  O22  1  0.79820899  0.94712177  0.06347816  1
  O  O23  1  0.20179101  0.05287823  0.93652184  1
  O  O24  1  0.07900623  0.72219504  0.33178643  1
  O  O25  1  0.92099377  0.27780496  0.66821357  1
  O  O26  1  0.08459870  0.72280891  0.64408015  1
  O  O27  1  0.91540130  0.27719109  0.35591985  1
  O  O28  1  0.11469859  0.70583626  0.01988171  1
  O  O29  1  0.88530141  0.29416374  0.98011829  1
loop_
_geom_bond_atom_site_label_1
_geom_bond_atom_site_label_2
_geom_bond_distance
_geom_bond_site_symmetry_2
H0 O18 0.971478 1_545
H1 O19 0.971478 1_565
H2 O18 0.992647 1_555
H2 O26 1.630150 1_655
H3 O19 0.992647 1_555
H3 O27 1.630150 1_455
H4 O20 0.987081 1_555
H5 O21 0.987081 1_555
H6 O20 0.988317 1_555
H6 O29 1.672505 1_554
H7 O21 0.988317 1_555
H7 O28 1.672505 1_556
H8 O22 0.972160 1_546
H9 O23 0.972160 1_564
H10 O22 0.990163 1_555
H11 O23 0.990163 1_555
H12 O24 0.969878 1_555
H13 O25 0.969878 1_555
H14 O24 0.976560 1_555
H15 O25 0.976560 1_555
H16 O26 0.979893 1_555
H17 O27 0.979893 1_555
H18 O26 0.972275 1_555
H19 O27 0.972275 1_555
H20 O28 0.982078 1_555
H21 O29 0.982078 1_555
H22 O28 0.970472 1_555
H23 O29 0.970472 1_555
N0 O4 1.239990 1_555
N0 O2 1.271291 1_555
N0 O0 1.271660 1_555
N1 O5 1.239990 1_555
N1 O3 1.271291 1_555
N1 O1 1.271660 1_555
N2 O10 1.233188 1_555
N2 O8 1.260033 1_555
N2 O6 1.291113 1_555
N3 O11 1.233188 1_555
N3 O9 1.260033 1_555
N3 O7 1.291113 1_555
N4 O16 1.241282 1_555
N4 O12 1.264522 1_555
N4 O14 1.273273 1_555
N5 O17 1.241282 1_555
N5 O13 1.264522 1_555
N5 O15 1.273273 1_555
O0 Pr0 2.595338 1_545
O1 Pr1 2.595338 1_565
O2 Pr0 2.593563 1_545
O3 Pr1 2.593563 1_565
O6 Pr0 2.696633 1_555
O7 Pr1 2.696633 1_555
O8 Pr0 2.634630 1_555
O9 Pr1 2.634630 1_555
O12 Pr0 2.769656 1_555
O13 Pr1 2.769656 1_555
O14 Pr0 2.624582 1_555
O15 Pr1 2.624582 1_555
O18 Pr0 2.442025 1_555
O19 Pr1 2.442025 1_555
O20 Pr0 2.423139 1_545
O21 Pr1 2.423139 1_565
O22 Pr0 2.461473 1_555
O23 Pr1 2.461473 1_555
O24 Pr0 2.454492 1_455
O25 Pr1 2.454492 1_655
