# generated using pymatgen
data_Li3PF6
_symmetry_space_group_name_H-M   'P 1'
_cell_length_a   5.73890916
_cell_length_b   5.89985064
_cell_length_c   7.39997253
_cell_angle_alpha   57.32386211
_cell_angle_beta   139.00551949
_cell_angle_gamma   119.57500332
_symmetry_Int_Tables_number   1
_chemical_formula_structural   Li3PF6
_chemical_formula_sum   'Li3 P1 F6'
_cell_volume   136.65638020
_cell_formula_units_Z   1
loop_
 _symmetry_equiv_pos_site_id
 _symmetry_equiv_pos_as_xyz
  1  'x, y, z'
loop_
 _atom_site_type_symbol
 _atom_site_label
 _atom_site_symmetry_multiplicity
 _atom_site_fract_x
 _atom_site_fract_y
 _atom_site_fract_z
 _atom_site_occupancy
  Li  Li0  1  0.00000000  0.00000000  0.50000000  1
  Li  Li1  1  0.50000000  0.50000000  0.00000000  1
  Li  Li2  1  0.00000000  0.50000000  0.00000000  1
  P  P0  1  0.00000000  0.00000000  0.00000000  1
  F  F0  1  0.98584800  0.40604800  0.77789300  1
  F  F1  1  0.01415200  0.59395200  0.22210700  1
  F  F2  1  0.92158500  0.86954300  0.75810900  1
  F  F3  1  0.07841500  0.13045700  0.24189100  1
  F  F4  1  0.48928400  0.88483800  0.82272200  1
  F  F5  1  0.51071600  0.11516200  0.17727800  1
loop_
_geom_bond_atom_site_label_1
_geom_bond_atom_site_label_2
_geom_bond_distance
_geom_bond_site_symmetry_2
F0 Li2 1.937267 1_656
F0 Li1 1.939972 1_656
F0 P0 2.045971 1_656
F1 Li2 1.937267 1_555
F1 Li1 1.939972 1_455
F1 P0 2.045971 1_565
F2 Li2 1.923181 1_656
F2 Li0 1.952241 1_665
F2 P0 1.982098 1_666
F3 Li2 1.923181 1_555
F3 Li0 1.952241 1_555
F3 P0 1.982098 1_555
F4 Li1 1.918261 1_556
F4 P0 1.991376 1_666
F4 Li0 2.014447 1_565
F5 Li1 1.918261 1_555
F5 P0 1.991376 1_555
F5 Li0 2.014447 1_655
