# generated using pymatgen
data_Ba2AlSn3O7
_symmetry_space_group_name_H-M   'P 1'
_cell_length_a   4.16145500
_cell_length_b   4.35970600
_cell_length_c   11.58002500
_cell_angle_alpha   90.00000000
_cell_angle_beta   90.00000000
_cell_angle_gamma   90.00000000
_symmetry_Int_Tables_number   1
_chemical_formula_structural   Ba2AlSn3O7
_chemical_formula_sum   'Ba2 Al1 Sn3 O7'
_cell_volume   210.09315502
_cell_formula_units_Z   1
loop_
 _symmetry_equiv_pos_site_id
 _symmetry_equiv_pos_as_xyz
  1  'x, y, z'
loop_
 _atom_site_type_symbol
 _atom_site_label
 _atom_site_symmetry_multiplicity
 _atom_site_fract_x
 _atom_site_fract_y
 _atom_site_fract_z
 _atom_site_occupancy
  Ba  Ba0  1  0.50000000  0.00000000  0.81077900  1
  Ba  Ba1  1  0.50000000  0.00000000  0.18922100  1
  Al  Al0  1  0.50000000  0.00000000  0.50000000  1
  Sn  Sn0  1  0.00000000  0.50000000  0.62165000  1
  Sn  Sn1  1  0.00000000  0.50000000  0.37835000  1
  Sn  Sn2  1  0.00000000  0.50000000  0.00000000  1
  O  O0  1  0.00000000  0.00000000  0.00000000  1
  O  O1  1  0.50000000  0.50000000  0.62455400  1
  O  O2  1  0.50000000  0.50000000  0.37544600  1
  O  O3  1  0.00000000  0.00000000  0.61935500  1
  O  O4  1  0.00000000  0.00000000  0.38064500  1
  O  O5  1  0.00000000  0.50000000  0.80096700  1
  O  O6  1  0.00000000  0.50000000  0.19903300  1
loop_
_geom_bond_atom_site_label_1
_geom_bond_atom_site_label_2
_geom_bond_distance
_geom_bond_site_symmetry_2
Ba0 O5 3.015642 1_555
Ba0 O5 3.015642 1_655
Ba0 O5 3.015642 1_545
Ba0 O5 3.015642 1_645
Ba0 O0 3.021707 1_556
Ba0 O0 3.021707 1_656
Ba0 O3 3.040257 1_555
Ba0 O3 3.040257 1_655
Ba0 O1 3.066302 1_555
Ba0 O1 3.066302 1_545
Ba1 O6 3.015642 1_555
Ba1 O6 3.015642 1_545
Ba1 O6 3.015642 1_655
Ba1 O6 3.015642 1_645
Ba1 O0 3.021707 1_655
Ba1 O0 3.021707 1_555
Ba1 O4 3.040257 1_655
Ba1 O4 3.040257 1_555
Ba1 O2 3.066302 1_545
Ba1 O2 3.066302 1_555
Al0 O3 2.497943 1_555
Al0 O3 2.497943 1_655
Al0 O4 2.497943 1_555
Al0 O4 2.497943 1_655
Al0 O1 2.613828 1_555
Al0 O1 2.613828 1_545
Al0 O2 2.613828 1_555
Al0 O2 2.613828 1_545
O0 Sn2 2.179853 1_545
O0 Sn2 2.179853 1_555
O1 Sn0 2.080999 1_555
O1 Sn0 2.080999 1_655
O2 Sn1 2.080999 1_655
O2 Sn1 2.080999 1_555
O3 Sn0 2.180015 1_555
O3 Sn0 2.180015 1_545
O4 Sn1 2.180015 1_545
O4 Sn1 2.180015 1_555
O5 Sn0 2.076495 1_555
O5 Sn2 2.304807 1_556
O6 Sn1 2.076495 1_555
O6 Sn2 2.304807 1_555
