# generated using pymatgen
data_Na5Ti2Si2PO13
_symmetry_space_group_name_H-M   'P 1'
_cell_length_a   5.46057100
_cell_length_b   7.15861649
_cell_length_c   14.69889168
_cell_angle_alpha   100.01235782
_cell_angle_beta   96.56017829
_cell_angle_gamma   90.56616250
_symmetry_Int_Tables_number   1
_chemical_formula_structural   Na5Ti2Si2PO13
_chemical_formula_sum   'Na10 Ti4 Si4 P2 O26'
_cell_volume   561.86622715
_cell_formula_units_Z   2
loop_
 _symmetry_equiv_pos_site_id
 _symmetry_equiv_pos_as_xyz
  1  'x, y, z'
loop_
 _atom_site_type_symbol
 _atom_site_label
 _atom_site_symmetry_multiplicity
 _atom_site_fract_x
 _atom_site_fract_y
 _atom_site_fract_z
 _atom_site_occupancy
  Na  Na0  1  0.75559100  0.25626500  0.58099300  1
  Na  Na1  1  0.24440900  0.74373500  0.41900700  1
  Na  Na2  1  0.32601700  0.53965500  0.60451700  1
  Na  Na3  1  0.67398300  0.46034500  0.39548300  1
  Na  Na4  1  0.32124900  0.03267300  0.63756700  1
  Na  Na5  1  0.67875100  0.96732700  0.36243300  1
  Na  Na6  1  0.75406900  0.87734500  0.00110200  1
  Na  Na7  1  0.17322100  0.42095000  0.23160200  1
  Na  Na8  1  0.82677900  0.57905000  0.76839800  1
  Na  Na9  1  0.24593100  0.12265500  0.99889800  1
  Ti  Ti0  1  0.77862300  0.38222400  0.98953000  1
  Ti  Ti1  1  0.22137700  0.61777600  0.01047000  1
  Ti  Ti2  1  0.82876000  0.06951300  0.77909400  1
  Ti  Ti3  1  0.17124000  0.93048700  0.22090600  1
  Si  Si0  1  0.35314900  0.35817900  0.80310600  1
  Si  Si1  1  0.32754700  0.79490700  0.82447400  1
  Si  Si2  1  0.64685100  0.64182100  0.19689400  1
  Si  Si3  1  0.67245300  0.20509300  0.17552600  1
  P  P0  1  0.17805300  0.22695200  0.42993500  1
  P  P1  1  0.82194700  0.77304800  0.57006500  1
  O  O0  1  0.66985500  0.76965400  0.47400200  1
  O  O1  1  0.33014500  0.23034600  0.52599800  1
  O  O2  1  0.74832100  0.59858200  0.61193400  1
  O  O3  1  0.25167900  0.40141800  0.38806600  1
  O  O4  1  0.10089300  0.77442700  0.56032000  1
  O  O5  1  0.89910700  0.22557300  0.43968000  1
  O  O6  1  0.91773500  0.57764800  0.93295900  1
  O  O7  1  0.08226500  0.42235200  0.06704100  1
  O  O8  1  0.76567900  0.96503000  0.63620400  1
  O  O9  1  0.23432100  0.03497000  0.36379600  1
  O  O10  1  0.86168500  0.17342000  0.90822900  1
  O  O11  1  0.13831500  0.82658000  0.09177100  1
  O  O12  1  0.58666100  0.26911700  0.75079700  1
  O  O13  1  0.41333900  0.73088300  0.24920300  1
  O  O14  1  0.09763000  0.24098700  0.75764200  1
  O  O15  1  0.90237000  0.75901300  0.24235800  1
  O  O16  1  0.41299200  0.39370000  0.91753900  1
  O  O17  1  0.58700800  0.60630000  0.08246100  1
  O  O18  1  0.55512800  0.90152600  0.79139000  1
  O  O19  1  0.44487200  0.09847400  0.20861000  1
  O  O20  1  0.67865400  0.42998800  0.23033300  1
  O  O21  1  0.32134600  0.57001200  0.76966700  1
  O  O22  1  0.64140800  0.19993900  0.06382800  1
  O  O23  1  0.35859200  0.80006100  0.93617200  1
  O  O24  1  0.93956200  0.12420300  0.20780400  1
  O  O25  1  0.06043800  0.87579700  0.79219600  1
loop_
_geom_bond_atom_site_label_1
_geom_bond_atom_site_label_2
_geom_bond_distance
_geom_bond_site_symmetry_2
Na0 O5 2.278950 1_555
Na0 O8 2.364014 1_545
Na0 O1 2.365430 1_555
Na0 O2 2.414946 1_555
Na0 O12 2.745353 1_555
Na1 O4 2.278950 1_555
Na1 O9 2.364014 1_565
Na1 O0 2.365430 1_555
Na1 O3 2.414946 1_555
Na1 O13 2.745353 1_555
Na2 O4 2.235128 1_555
Na2 O1 2.313798 1_555
Na2 O2 2.326995 1_555
Na2 O21 2.402407 1_555
Na3 O5 2.235128 1_555
Na3 O0 2.313798 1_555
Na3 O3 2.326995 1_555
Na3 O20 2.402407 1_555
Na4 O4 2.251376 1_545
Na4 O1 2.349031 1_555
Na4 O8 2.481008 1_545
Na4 O12 2.481185 1_555
Na4 O14 2.538346 1_555
Na4 O18 2.779691 1_545
Na5 O5 2.251376 1_565
Na5 O0 2.349031 1_555
Na5 O9 2.481008 1_565
Na5 O13 2.481185 1_555
Na5 O15 2.538346 1_555
Na5 O19 2.779691 1_565
Na6 O23 2.280872 1_554
Na6 O11 2.419758 1_655
Na6 O6 2.428990 1_554
Na6 O22 2.445169 1_565
Na6 O17 2.654859 1_555
Na6 O10 2.804623 1_564
Na7 O3 2.319539 1_555
Na7 O7 2.414896 1_555
Na7 O24 2.418475 1_455
Na7 O13 2.524703 1_555
Na7 O20 2.700044 1_455
Na7 O19 2.748569 1_555
Na7 O20 2.762341 1_555
Na7 O15 2.839061 1_455
Na8 O2 2.319539 1_555
Na8 O6 2.414896 1_555
Na8 O25 2.418475 1_655
Na8 O12 2.524703 1_555
Na8 O21 2.700044 1_655
Na8 O18 2.748569 1_555
Na8 O21 2.762341 1_555
Na8 O14 2.839061 1_655
Na9 O22 2.280872 1_556
Na9 O10 2.419758 1_455
Na9 O7 2.428990 1_556
Na9 O23 2.445169 1_545
Na9 O16 2.654859 1_555
Na9 O11 2.804623 1_546
O0 P1 1.550437 1_555
O1 P0 1.550437 1_555
O2 P1 1.553740 1_555
O3 P0 1.553740 1_555
O4 P1 1.546226 1_455
O5 P0 1.546226 1_655
O6 Ti1 1.890737 1_656
O6 Ti0 1.937373 1_555
O7 Ti0 1.890737 1_454
O7 Ti1 1.937373 1_555
O8 P1 1.593834 1_555
O8 Ti2 2.091124 1_565
O9 P0 1.593834 1_555
O9 Ti3 2.091124 1_545
O10 Ti0 1.839626 1_555
O10 Ti2 1.901837 1_555
O11 Ti1 1.839626 1_555
O11 Ti3 1.901837 1_555
O12 Si0 1.641096 1_555
O12 Ti2 2.020088 1_555
O13 Si2 1.641096 1_555
O13 Ti3 2.020088 1_555
O14 Si0 1.632810 1_555
O14 Ti2 1.991618 1_455
O15 Si2 1.632810 1_555
O15 Ti3 1.991618 1_655
O16 Si0 1.650678 1_555
O16 Ti0 2.159505 1_555
O16 Ti1 2.265305 1_556
O17 Si2 1.650678 1_555
O17 Ti1 2.159505 1_555
O17 Ti0 2.265305 1_554
O18 Si1 1.616103 1_555
O18 Ti2 1.952734 1_565
O19 Si3 1.616103 1_555
O19 Ti3 1.952734 1_545
O20 Si3 1.668456 1_555
O20 Si2 1.678149 1_555
O21 Si1 1.668456 1_555
O21 Si0 1.678149 1_555
O22 Si3 1.625098 1_555
O22 Ti0 2.029792 1_554
O23 Si1 1.625098 1_555
O23 Ti1 2.029792 1_556
O24 Si3 1.625403 1_555
O24 Ti3 1.905902 1_645
O25 Si1 1.625403 1_555
O25 Ti2 1.905902 1_465
