# generated using pymatgen
data_Cr2PO5
_symmetry_space_group_name_H-M   'P 1'
_cell_length_a   6.45024542
_cell_length_b   7.31297143
_cell_length_c   7.40818743
_cell_angle_alpha   90.00000000
_cell_angle_beta   90.00000000
_cell_angle_gamma   90.00000000
_symmetry_Int_Tables_number   1
_chemical_formula_structural   Cr2PO5
_chemical_formula_sum   'Cr8 P4 O20'
_cell_volume   349.44761234
_cell_formula_units_Z   4
loop_
 _symmetry_equiv_pos_site_id
 _symmetry_equiv_pos_as_xyz
  1  'x, y, z'
loop_
 _atom_site_type_symbol
 _atom_site_label
 _atom_site_symmetry_multiplicity
 _atom_site_fract_x
 _atom_site_fract_y
 _atom_site_fract_z
 _atom_site_occupancy
  Cr  Cr0  1  0.00000000  0.00000000  -0.00000000  1
  Cr  Cr1  1  0.50000000  0.00000000  -0.00000000  1
  Cr  Cr2  1  0.25000000  0.71960512  0.15938986  1
  Cr  Cr3  1  0.75000000  0.21960512  0.34061014  1
  Cr  Cr4  1  0.00000000  0.50000000  0.50000000  1
  Cr  Cr5  1  0.50000000  0.50000000  0.50000000  1
  Cr  Cr6  1  0.25000000  0.78039488  0.65938986  1
  Cr  Cr7  1  0.75000000  0.28039488  0.84061014  1
  P  P0  1  0.75000000  0.62406649  0.10887854  1
  P  P1  1  0.25000000  0.12406649  0.39112146  1
  P  P2  1  0.75000000  0.87593351  0.60887854  1
  P  P3  1  0.25000000  0.37593351  0.89112146  1
  O  O0  1  0.25000000  0.47220237  0.07160452  1
  O  O1  1  0.75000000  0.13976882  0.08691129  1
  O  O2  1  0.94107837  0.75065110  0.12777836  1
  O  O3  1  0.55892163  0.75065110  0.12777836  1
  O  O4  1  0.25000000  0.98881518  0.23335192  1
  O  O5  1  0.75000000  0.48881518  0.26664808  1
  O  O6  1  0.05892163  0.25065110  0.37222164  1
  O  O7  1  0.44107837  0.25065110  0.37222164  1
  O  O8  1  0.25000000  0.63976882  0.41308871  1
  O  O9  1  0.75000000  0.97220237  0.42839548  1
  O  O10  1  0.25000000  0.02779763  0.57160452  1
  O  O11  1  0.75000000  0.36023118  0.58691129  1
  O  O12  1  0.55892163  0.74934890  0.62777836  1
  O  O13  1  0.94107837  0.74934890  0.62777836  1
  O  O14  1  0.25000000  0.51118482  0.73335192  1
  O  O15  1  0.75000000  0.01118482  0.76664808  1
  O  O16  1  0.05892163  0.24934890  0.87222164  1
  O  O17  1  0.44107837  0.24934890  0.87222164  1
  O  O18  1  0.25000000  0.86023118  0.91308871  1
  O  O19  1  0.75000000  0.52779763  0.92839548  1
loop_
_geom_bond_atom_site_label_1
_geom_bond_atom_site_label_2
_geom_bond_distance
_geom_bond_site_symmetry_2
Cr0 O1 2.014856 1_455
Cr0 O18 2.014856 1_544
Cr0 O16 2.089400 1_554
Cr0 O2 2.089400 1_445
Cr0 O15 2.365481 1_454
Cr0 O4 2.365481 1_545
Cr1 O1 2.014856 1_555
Cr1 O18 2.014856 1_544
Cr1 O17 2.089400 1_554
Cr1 O3 2.089400 1_545
Cr1 O15 2.365481 1_554
Cr1 O4 2.365481 1_545
Cr2 O0 1.922580 1_555
Cr2 O8 1.968044 1_555
Cr2 O2 2.019139 1_455
Cr2 O3 2.019139 1_555
Cr2 O4 2.043551 1_555
Cr2 O18 2.094499 1_554
Cr3 O9 1.922580 1_545
Cr3 O1 1.968044 1_555
Cr3 O6 2.019139 1_655
Cr3 O7 2.019139 1_555
Cr3 O5 2.043551 1_555
Cr3 O11 2.094499 1_555
Cr4 O11 2.014856 1_455
Cr4 O8 2.014856 1_555
Cr4 O13 2.089400 1_455
Cr4 O6 2.089400 1_555
Cr4 O5 2.365481 1_455
Cr4 O14 2.365481 1_555
Cr5 O11 2.014856 1_555
Cr5 O8 2.014856 1_555
Cr5 O12 2.089400 1_555
Cr5 O7 2.089400 1_555
Cr5 O14 2.365481 1_555
Cr5 O5 2.365481 1_555
Cr6 O10 1.922580 1_565
Cr6 O18 1.968044 1_555
Cr6 O13 2.019139 1_455
Cr6 O12 2.019139 1_555
Cr6 O14 2.043551 1_555
Cr6 O8 2.094499 1_555
Cr7 O19 1.922580 1_555
Cr7 O11 1.968044 1_555
Cr7 O16 2.019139 1_655
Cr7 O17 2.019139 1_555
Cr7 O15 2.043551 1_555
Cr7 O1 2.094499 1_556
O0 P3 1.511073 1_554
O2 P0 1.547774 1_555
O3 P0 1.547774 1_555
O4 P1 1.531130 1_565
O5 P0 1.531130 1_555
O6 P1 1.547774 1_555
O7 P1 1.547774 1_555
O9 P2 1.511073 1_555
O10 P1 1.511073 1_555
O12 P2 1.547774 1_555
O13 P2 1.547774 1_555
O14 P3 1.531130 1_555
O15 P2 1.531130 1_545
O16 P3 1.547774 1_555
O17 P3 1.547774 1_555
O19 P0 1.511073 1_556
