# generated using pymatgen
data_Co3B7IO13
_symmetry_space_group_name_H-M   'P 1'
_cell_length_a   8.43975700
_cell_length_b   9.34543300
_cell_length_c   13.37132500
_cell_angle_alpha   90.00000000
_cell_angle_beta   90.00000000
_cell_angle_gamma   90.00000000
_symmetry_Int_Tables_number   1
_chemical_formula_structural   Co3B7IO13
_chemical_formula_sum   'Co12 B28 I4 O52'
_cell_volume   1054.63897143
_cell_formula_units_Z   4
loop_
 _symmetry_equiv_pos_site_id
 _symmetry_equiv_pos_as_xyz
  1  'x, y, z'
loop_
 _atom_site_type_symbol
 _atom_site_label
 _atom_site_symmetry_multiplicity
 _atom_site_fract_x
 _atom_site_fract_y
 _atom_site_fract_z
 _atom_site_occupancy
  Co  Co0  1  0.14708700  0.72491900  0.23637400  1
  Co  Co1  1  0.14708700  0.77508100  0.73637400  1
  Co  Co2  1  0.85291300  0.27508100  0.73637400  1
  Co  Co3  1  0.21014100  0.26428600  0.82164200  1
  Co  Co4  1  0.78985900  0.73571400  0.32164200  1
  Co  Co5  1  0.47811800  0.98937700  0.47394600  1
  Co  Co6  1  0.85291300  0.22491900  0.23637400  1
  Co  Co7  1  0.21014100  0.23571400  0.32164200  1
  Co  Co8  1  0.52188200  0.48937700  0.47394600  1
  Co  Co9  1  0.52188200  0.01062300  0.97394600  1
  Co  Co10  1  0.78985900  0.76428600  0.82164200  1
  Co  Co11  1  0.47811800  0.51062300  0.97394600  1
  B  B0  1  0.17216000  0.51973100  0.43644600  1
  B  B1  1  0.22005100  0.75741200  0.52468300  1
  B  B2  1  0.98735300  0.50867800  0.77690700  1
  B  B3  1  0.97196400  0.87731500  0.58613400  1
  B  B4  1  0.02803600  0.37731500  0.58613400  1
  B  B5  1  0.01264700  0.49132200  0.27690700  1
  B  B6  1  0.46634400  0.75380300  0.12454600  1
  B  B7  1  0.72214400  0.71623900  0.01838100  1
  B  B8  1  0.15241000  0.49483900  0.94128600  1
  B  B9  1  0.17216000  0.98026900  0.93644600  1
  B  B10  1  0.72214400  0.78376100  0.51838100  1
  B  B11  1  0.77994900  0.25741200  0.52468300  1
  B  B12  1  0.77994900  0.24258800  0.02468300  1
  B  B13  1  0.84759000  0.50516100  0.44128600  1
  B  B14  1  0.82784000  0.48026900  0.93644600  1
  B  B15  1  0.27785600  0.28376100  0.51838100  1
  B  B16  1  0.97196400  0.62268500  0.08613400  1
  B  B17  1  0.15241000  0.00516100  0.44128600  1
  B  B18  1  0.98735300  0.99132200  0.27690700  1
  B  B19  1  0.46634400  0.74619700  0.62454600  1
  B  B20  1  0.22005100  0.74258800  0.02468300  1
  B  B21  1  0.53365600  0.25380300  0.12454600  1
  B  B22  1  0.82784000  0.01973100  0.43644600  1
  B  B23  1  0.53365600  0.24619700  0.62454600  1
  B  B24  1  0.02803600  0.12268500  0.08613400  1
  B  B25  1  0.01264700  0.00867800  0.77690700  1
  B  B26  1  0.84759000  0.99483900  0.94128600  1
  B  B27  1  0.27785600  0.21623900  0.01838100  1
  I  I0  1  0.56752700  0.90605900  0.23011400  1
  I  I1  1  0.43247300  0.09394100  0.73011400  1
  I  I2  1  0.43247300  0.40605900  0.23011400  1
  I  I3  1  0.56752700  0.59394100  0.73011400  1
  O  O0  1  0.85647500  0.43558700  0.83505400  1
  O  O1  1  0.97504900  0.84005900  0.27953500  1
  O  O2  1  0.27240200  0.36916400  0.97576400  1
  O  O3  1  0.54994200  0.69624100  0.04921100  1
  O  O4  1  0.28079400  0.61897600  0.48738000  1
  O  O5  1  0.93606400  0.24513500  0.05622800  1
  O  O6  1  0.45005800  0.19624100  0.04921100  1
  O  O7  1  0.68782100  0.22720500  0.13302600  1
  O  O8  1  0.03270500  0.94509200  0.67648700  1
  O  O9  1  0.13802100  0.03554100  0.33236700  1
  O  O10  1  0.73332200  0.61781000  0.93118200  1
  O  O11  1  0.26164600  0.61725900  0.96176300  1
  O  O12  1  0.06393600  0.75486500  0.55622800  1
  O  O13  1  0.81211100  0.83286900  0.59865100  1
  O  O14  1  0.96729500  0.05490800  0.17648700  1
  O  O15  1  0.02495100  0.34005900  0.27953500  1
  O  O16  1  0.93606400  0.25486500  0.55622800  1
  O  O17  1  0.03270500  0.55490800  0.17648700  1
  O  O18  1  0.00934400  0.48738700  0.48899200  1
  O  O19  1  0.73835400  0.11725900  0.96176300  1
  O  O20  1  0.26164600  0.88274100  0.46176300  1
  O  O21  1  0.72759800  0.86916400  0.97576400  1
  O  O22  1  0.14352500  0.56441300  0.33505400  1
  O  O23  1  0.31217900  0.72720500  0.13302600  1
  O  O24  1  0.26667800  0.38219000  0.43118200  1
  O  O25  1  0.14352500  0.93558700  0.83505400  1
  O  O26  1  0.71920600  0.38102400  0.98738000  1
  O  O27  1  0.31217900  0.77279500  0.63302600  1
  O  O28  1  0.13802100  0.46445900  0.83236700  1
  O  O29  1  0.00934400  0.01261300  0.98899200  1
  O  O30  1  0.99065600  0.98738700  0.48899200  1
  O  O31  1  0.96729500  0.44509200  0.67648700  1
  O  O32  1  0.06393600  0.74513500  0.05622800  1
  O  O33  1  0.71920600  0.11897600  0.48738000  1
  O  O34  1  0.27240200  0.13083600  0.47576400  1
  O  O35  1  0.73332200  0.88219000  0.43118200  1
  O  O36  1  0.73835400  0.38274100  0.46176300  1
  O  O37  1  0.72759800  0.63083600  0.47576400  1
  O  O38  1  0.45005800  0.30375900  0.54921100  1
  O  O39  1  0.86197900  0.96445900  0.83236700  1
  O  O40  1  0.28079400  0.88102400  0.98738000  1
  O  O41  1  0.26667800  0.11781000  0.93118200  1
  O  O42  1  0.97504900  0.65994100  0.77953500  1
  O  O43  1  0.99065600  0.51261300  0.98899200  1
  O  O44  1  0.54994200  0.80375900  0.54921100  1
  O  O45  1  0.02495100  0.15994100  0.77953500  1
  O  O46  1  0.85647500  0.06441300  0.33505400  1
  O  O47  1  0.86197900  0.53554100  0.33236700  1
  O  O48  1  0.18788900  0.33286900  0.59865100  1
  O  O49  1  0.68782100  0.27279500  0.63302600  1
  O  O50  1  0.81211100  0.66713100  0.09865100  1
  O  O51  1  0.18788900  0.16713100  0.09865100  1
loop_
_geom_bond_atom_site_label_1
_geom_bond_atom_site_label_2
_geom_bond_distance
_geom_bond_site_symmetry_2
Co0 O1 1.897129 1_455
Co0 O23 1.962521 1_555
Co0 O22 1.997982 1_555
Co0 O17 2.024231 1_555
Co1 O42 1.897129 1_455
Co1 O27 1.962521 1_555
Co1 O25 1.997982 1_555
Co1 O8 2.024231 1_555
Co2 O45 1.897129 1_655
Co2 O49 1.962521 1_555
Co2 O0 1.997982 1_555
Co2 O31 2.024231 1_555
Co3 O45 1.926332 1_555
Co3 O28 1.972456 1_555
Co3 O41 2.060788 1_555
Co3 O2 2.341737 1_555
Co3 I1 2.748289 1_555
Co4 O1 1.926332 1_555
Co4 O47 1.972456 1_555
Co4 O35 2.060788 1_555
Co4 O37 2.341737 1_555
Co4 I0 2.748289 1_555
Co5 O20 2.087461 1_555
Co5 O44 2.095088 1_555
Co5 O34 2.182345 1_565
Co5 O33 2.374716 1_565
Co5 O35 2.443256 1_555
Co6 O15 1.897129 1_655
Co6 O7 1.962521 1_555
Co6 O46 1.997982 1_555
Co6 O14 2.024231 1_555
Co7 O15 1.926332 1_555
Co7 O9 1.972456 1_555
Co7 O24 2.060788 1_555
Co7 O34 2.341737 1_555
Co7 I2 2.748289 1_555
Co8 O36 2.087461 1_555
Co8 O38 2.095088 1_555
Co8 O37 2.182345 1_555
Co8 O4 2.374716 1_555
Co8 O24 2.443256 1_555
Co9 O19 2.087461 1_555
Co9 O6 2.095088 1_556
Co9 O21 2.182345 1_545
Co9 O40 2.374716 1_545
Co9 O41 2.443256 1_555
Co10 O42 1.926332 1_555
Co10 O39 1.972456 1_555
Co10 O10 2.060788 1_555
Co10 O21 2.341737 1_555
Co10 I3 2.748289 1_555
Co11 O11 2.087461 1_555
Co11 O3 2.095088 1_556
Co11 O2 2.182345 1_555
Co11 O26 2.374716 1_555
Co11 O10 2.443256 1_555
B0 O22 1.439034 1_555
B0 O4 1.471283 1_555
B0 O24 1.514429 1_555
B0 O18 1.572658 1_555
B1 O12 1.383647 1_555
B1 O4 1.478304 1_555
B1 O20 1.484216 1_555
B1 O27 1.650434 1_555
B2 O42 1.417863 1_555
B2 O31 1.478090 1_555
B2 O0 1.513666 1_555
B2 O28 1.528945 1_655
B3 O13 1.421502 1_555
B3 O12 1.439430 1_655
B3 O8 1.457258 1_655
B3 O30 1.664403 1_555
B4 O48 1.421502 1_555
B4 O16 1.439430 1_455
B4 O31 1.457258 1_455
B4 O18 1.664403 1_555
B5 O15 1.417863 1_555
B5 O17 1.478090 1_555
B5 O22 1.513666 1_555
B5 O47 1.528945 1_455
B6 O23 1.329490 1_555
B6 O3 1.342345 1_555
B6 I0 2.178636 1_555
B7 O50 1.392539 1_555
B7 O10 1.488127 1_554
B7 O3 1.522194 1_555
B7 O21 1.539258 1_554
B8 O28 1.488768 1_555
B8 O11 1.494592 1_555
B8 O43 1.515972 1_455
B8 O2 1.617877 1_555
B9 O25 1.439034 1_555
B9 O40 1.471283 1_555
B9 O41 1.514429 1_565
B9 O29 1.572658 1_565
B10 O13 1.392539 1_555
B10 O35 1.488127 1_555
B10 O44 1.522194 1_555
B10 O37 1.539258 1_555
B11 O16 1.383647 1_555
B11 O33 1.478304 1_555
B11 O36 1.484216 1_555
B11 O49 1.650434 1_555
B12 O5 1.383647 1_555
B12 O26 1.478304 1_554
B12 O19 1.484216 1_554
B12 O7 1.650434 1_555
B13 O47 1.488768 1_555
B13 O36 1.494592 1_555
B13 O18 1.515972 1_655
B13 O37 1.617877 1_555
B14 O0 1.439034 1_555
B14 O26 1.471283 1_555
B14 O10 1.514429 1_555
B14 O43 1.572658 1_555
B15 O48 1.392539 1_555
B15 O24 1.488127 1_555
B15 O38 1.522194 1_555
B15 O34 1.539258 1_555
B16 O50 1.421502 1_555
B16 O32 1.439430 1_655
B16 O17 1.457258 1_655
B16 O43 1.664403 1_554
B17 O9 1.488768 1_555
B17 O20 1.494592 1_545
B17 O30 1.515972 1_445
B17 O34 1.617877 1_555
B18 O1 1.417863 1_555
B18 O14 1.478090 1_565
B18 O46 1.513666 1_565
B18 O9 1.528945 1_665
B19 O27 1.329490 1_555
B19 O44 1.342345 1_555
B19 I3 2.178636 1_555
B20 O32 1.383647 1_555
B20 O40 1.478304 1_554
B20 O11 1.484216 1_554
B20 O23 1.650434 1_555
B21 O7 1.329490 1_555
B21 O6 1.342345 1_555
B21 I2 2.178636 1_555
B22 O46 1.439034 1_555
B22 O33 1.471283 1_555
B22 O35 1.514429 1_545
B22 O30 1.572658 1_545
B23 O49 1.329490 1_555
B23 O38 1.342345 1_555
B23 I1 2.178636 1_555
B24 O51 1.421502 1_555
B24 O5 1.439430 1_455
B24 O14 1.457258 1_455
B24 O29 1.664403 1_554
B25 O45 1.417863 1_555
B25 O8 1.478090 1_545
B25 O25 1.513666 1_545
B25 O39 1.528945 1_445
B26 O39 1.488768 1_555
B26 O19 1.494592 1_565
B26 O29 1.515972 1_665
B26 O21 1.617877 1_555
B27 O51 1.392539 1_555
B27 O41 1.488127 1_554
B27 O6 1.522194 1_555
B27 O2 1.539258 1_554
