# generated using pymatgen
data_EuGePd2
_symmetry_space_group_name_H-M   'P 1'
_cell_length_a   5.73806090
_cell_length_b   6.99853377
_cell_length_c   7.72310437
_cell_angle_alpha   90.00000000
_cell_angle_beta   89.99782254
_cell_angle_gamma   90.00000000
_symmetry_Int_Tables_number   1
_chemical_formula_structural   EuGePd2
_chemical_formula_sum   'Eu4 Ge4 Pd8'
_cell_volume   310.14452546
_cell_formula_units_Z   4
loop_
 _symmetry_equiv_pos_site_id
 _symmetry_equiv_pos_as_xyz
  1  'x, y, z'
loop_
 _atom_site_type_symbol
 _atom_site_label
 _atom_site_symmetry_multiplicity
 _atom_site_fract_x
 _atom_site_fract_y
 _atom_site_fract_z
 _atom_site_occupancy
  Eu  Eu0  1  0.36108402  0.75000000  0.02780196  1
  Eu  Eu1  1  0.13889365  0.75000000  0.52783423  1
  Eu  Eu2  1  0.63896187  0.25000000  0.97218246  1
  Eu  Eu3  1  0.86105408  0.25000000  0.47215503  1
  Ge  Ge0  1  0.64305487  0.75000000  0.37239791  1
  Ge  Ge1  1  0.85688592  0.75000000  0.87246672  1
  Ge  Ge2  1  0.35693514  0.25000000  0.62757374  1
  Ge  Ge3  1  0.14313568  0.25000000  0.12754521  1
  Pd  Pd0  1  0.90509763  0.55432195  0.16814000  1
  Pd  Pd1  1  0.59497122  0.94567359  0.66815538  1
  Pd  Pd2  1  0.09486369  0.05435017  0.83187564  1
  Pd  Pd3  1  0.40506485  0.44564675  0.33184984  1
  Pd  Pd4  1  0.09486369  0.44564983  0.83187564  1
  Pd  Pd5  1  0.40506485  0.05435325  0.33184984  1
  Pd  Pd6  1  0.90509763  0.94567805  0.16814000  1
  Pd  Pd7  1  0.59497122  0.55432641  0.66815538  1
loop_
_geom_bond_atom_site_label_1
_geom_bond_atom_site_label_2
_geom_bond_distance
_geom_bond_site_symmetry_2
Eu0 Pd2 3.026595 1_564
Eu0 Pd4 3.026595 1_554
Eu0 Ge1 3.087498 1_554
Eu0 Ge0 3.114631 1_555
Eu0 Ge1 3.132030 1_454
Eu0 Pd0 3.145772 1_455
Eu0 Pd6 3.145772 1_455
Eu0 Pd3 3.180371 1_555
Eu0 Pd5 3.180371 1_565
Eu0 Pd1 3.375080 1_554
Eu0 Pd7 3.375080 1_554
Eu0 Pd0 3.576965 1_555
Eu0 Pd6 3.576965 1_555
Eu1 Pd3 3.026634 1_555
Eu1 Pd5 3.026634 1_565
Eu1 Ge0 3.088080 1_455
Eu1 Ge1 3.114877 1_455
Eu1 Ge0 3.132049 1_555
Eu1 Pd7 3.146217 1_555
Eu1 Pd1 3.146217 1_555
Eu1 Pd2 3.180328 1_565
Eu1 Pd4 3.180328 1_555
Eu1 Pd6 3.375272 1_455
Eu1 Pd0 3.375272 1_455
Eu1 Pd7 3.576385 1_455
Eu1 Pd1 3.576385 1_455
Eu2 Pd6 3.026331 1_546
Eu2 Pd0 3.026331 1_556
Eu2 Ge3 3.087709 1_556
Eu2 Ge2 3.114882 1_555
Eu2 Ge3 3.131983 1_656
Eu2 Pd4 3.145199 1_655
Eu2 Pd2 3.145199 1_655
Eu2 Pd1 3.180131 1_545
Eu2 Pd7 3.180131 1_555
Eu2 Pd5 3.375159 1_556
Eu2 Pd3 3.375159 1_556
Eu2 Pd4 3.577240 1_555
Eu2 Pd2 3.577240 1_555
Eu3 Pd1 3.026307 1_545
Eu3 Pd7 3.026307 1_555
Eu3 Ge2 3.088251 1_655
Eu3 Ge3 3.114948 1_655
Eu3 Ge2 3.131773 1_555
Eu3 Pd5 3.145671 1_555
Eu3 Pd3 3.145671 1_555
Eu3 Pd6 3.180051 1_545
Eu3 Pd0 3.180051 1_555
Eu3 Pd4 3.375391 1_655
Eu3 Pd2 3.375391 1_655
Eu3 Pd5 3.576718 1_655
Eu3 Pd3 3.576718 1_655
Ge0 Pd5 2.549506 1_565
Ge0 Pd3 2.549506 1_555
Ge0 Pd0 2.573835 1_555
Ge0 Pd6 2.573835 1_555
Ge0 Pd7 2.677466 1_555
Ge0 Pd1 2.677466 1_555
Ge1 Pd2 2.549478 1_665
Ge1 Pd4 2.549478 1_655
Ge1 Pd7 2.573712 1_555
Ge1 Pd1 2.573712 1_555
Ge1 Pd0 2.677021 1_556
Ge1 Pd6 2.677021 1_556
Ge2 Pd1 2.549522 1_545
Ge2 Pd7 2.549522 1_555
Ge2 Pd4 2.574034 1_555
Ge2 Pd2 2.574034 1_555
Ge2 Pd5 2.677176 1_555
Ge2 Pd3 2.677176 1_555
Ge3 Pd6 2.549502 1_445
Ge3 Pd0 2.549502 1_455
Ge3 Pd5 2.573629 1_555
Ge3 Pd3 2.573629 1_555
Ge3 Pd2 2.676931 1_554
Ge3 Pd4 2.676931 1_554
Pd0 Pd6 2.738919 1_555
Pd0 Pd4 2.916904 1_654
Pd0 Pd3 3.226077 1_655
Pd0 Pd3 3.226326 1_555
Pd1 Pd7 2.738856 1_555
Pd1 Pd5 2.917575 1_565
Pd1 Pd2 3.225729 1_665
Pd1 Pd2 3.226741 1_565
Pd2 Pd4 2.738524 1_555
Pd2 Pd6 2.916904 1_446
Pd3 Pd5 2.738481 1_555
Pd3 Pd7 2.917575 1_555
Pd4 Pd7 3.225729 1_455
Pd4 Pd7 3.226741 1_555
Pd5 Pd6 3.226077 1_445
Pd5 Pd6 3.226326 1_545
