# generated using pymatgen
data_Nb39C34
_symmetry_space_group_name_H-M   'P 1'
_cell_length_a   3.18217888
_cell_length_b   3.18217888
_cell_length_c   100.69320900
_cell_angle_alpha   90.00000000
_cell_angle_beta   90.00000000
_cell_angle_gamma   120.00001823
_symmetry_Int_Tables_number   1
_chemical_formula_structural   Nb39C34
_chemical_formula_sum   'Nb39 C34'
_cell_volume   883.03905256
_cell_formula_units_Z   1
loop_
 _symmetry_equiv_pos_site_id
 _symmetry_equiv_pos_as_xyz
  1  'x, y, z'
loop_
 _atom_site_type_symbol
 _atom_site_label
 _atom_site_symmetry_multiplicity
 _atom_site_fract_x
 _atom_site_fract_y
 _atom_site_fract_z
 _atom_site_occupancy
  Nb  Nb0  1  0.33333300  0.66666700  0.85871300  1
  Nb  Nb1  1  0.00000000  0.00000000  0.88528300  1
  Nb  Nb2  1  0.66666700  0.33333300  0.91024600  1
  Nb  Nb3  1  0.00000000  0.00000000  0.96203300  1
  Nb  Nb4  1  0.33333300  0.66666700  0.93527400  1
  Nb  Nb5  1  0.66666700  0.33333300  0.98693100  1
  Nb  Nb6  1  0.33333300  0.66666700  0.01306900  1
  Nb  Nb7  1  0.00000000  0.00000000  0.03796700  1
  Nb  Nb8  1  0.66666700  0.33333300  0.06472600  1
  Nb  Nb9  1  0.33333300  0.66666700  0.08975400  1
  Nb  Nb10  1  0.66666700  0.33333300  0.14128700  1
  Nb  Nb11  1  0.00000000  0.00000000  0.11471700  1
  Nb  Nb12  1  0.00000000  0.00000000  0.19250700  1
  Nb  Nb13  1  0.33333300  0.66666700  0.16591100  1
  Nb  Nb14  1  0.66666700  0.33333300  0.21783700  1
  Nb  Nb15  1  0.33333300  0.66666700  0.24380800  1
  Nb  Nb16  1  0.00000000  0.00000000  0.26905900  1
  Nb  Nb17  1  0.66666700  0.33333300  0.29490600  1
  Nb  Nb18  1  0.00000000  0.00000000  0.34624100  1
  Nb  Nb19  1  0.33333300  0.66666700  0.32038700  1
  Nb  Nb20  1  0.33333300  0.66666700  0.39745900  1
  Nb  Nb21  1  0.66666700  0.33333300  0.37173400  1
  Nb  Nb22  1  0.00000000  0.00000000  0.42304700  1
  Nb  Nb23  1  0.66666700  0.33333300  0.44868900  1
  Nb  Nb24  1  0.33333300  0.66666700  0.47433500  1
  Nb  Nb25  1  0.00000000  0.00000000  0.50000000  1
  Nb  Nb26  1  0.66666700  0.33333300  0.52566500  1
  Nb  Nb27  1  0.33333300  0.66666700  0.55131100  1
  Nb  Nb28  1  0.00000000  0.00000000  0.57695300  1
  Nb  Nb29  1  0.66666700  0.33333300  0.60254100  1
  Nb  Nb30  1  0.33333300  0.66666700  0.62826600  1
  Nb  Nb31  1  0.00000000  0.00000000  0.65375900  1
  Nb  Nb32  1  0.66666700  0.33333300  0.67961300  1
  Nb  Nb33  1  0.33333300  0.66666700  0.70509400  1
  Nb  Nb34  1  0.00000000  0.00000000  0.73094100  1
  Nb  Nb35  1  0.66666700  0.33333300  0.75619200  1
  Nb  Nb36  1  0.33333300  0.66666700  0.78216300  1
  Nb  Nb37  1  0.00000000  0.00000000  0.80749300  1
  Nb  Nb38  1  0.66666700  0.33333300  0.83408900  1
  C  C0  1  0.33333300  0.66666700  0.89670300  1
  C  C1  1  0.00000000  0.00000000  0.92388100  1
  C  C2  1  0.33333300  0.66666700  0.97442700  1
  C  C3  1  0.66666700  0.33333300  0.02557300  1
  C  C4  1  0.00000000  0.00000000  0.07611900  1
  C  C5  1  0.66666700  0.33333300  0.10329700  1
  C  C6  1  0.00000000  0.00000000  0.15292000  1
  C  C7  1  0.66666700  0.33333300  0.17919400  1
  C  C8  1  0.33333300  0.66666700  0.20499900  1
  C  C9  1  0.00000000  0.00000000  0.23070600  1
  C  C10  1  0.66666700  0.33333300  0.25637800  1
  C  C11  1  0.33333300  0.66666700  0.28196700  1
  C  C12  1  0.00000000  0.00000000  0.30767700  1
  C  C13  1  0.66666700  0.33333300  0.33328600  1
  C  C14  1  0.33333300  0.66666700  0.35898300  1
  C  C15  1  0.00000000  0.00000000  0.38458900  1
  C  C16  1  0.66666700  0.33333300  0.41025500  1
  C  C17  1  0.33333300  0.66666700  0.43585200  1
  C  C18  1  0.00000000  0.00000000  0.46153300  1
  C  C19  1  0.66666700  0.33333300  0.48717000  1
  C  C20  1  0.33333300  0.66666700  0.51283000  1
  C  C21  1  0.00000000  0.00000000  0.53846700  1
  C  C22  1  0.66666700  0.33333300  0.56414800  1
  C  C23  1  0.33333300  0.66666700  0.58974500  1
  C  C24  1  0.00000000  0.00000000  0.61541100  1
  C  C25  1  0.66666700  0.33333300  0.64101700  1
  C  C26  1  0.33333300  0.66666700  0.66671400  1
  C  C27  1  0.00000000  0.00000000  0.69232300  1
  C  C28  1  0.66666700  0.33333300  0.71803300  1
  C  C29  1  0.33333300  0.66666700  0.74362200  1
  C  C30  1  0.00000000  0.00000000  0.76929400  1
  C  C31  1  0.66666700  0.33333300  0.79500100  1
  C  C32  1  0.33333300  0.66666700  0.82080600  1
  C  C33  1  0.00000000  0.00000000  0.84708000  1
loop_
_geom_bond_atom_site_label_1
_geom_bond_atom_site_label_2
_geom_bond_distance
_geom_bond_site_symmetry_2
C0 Nb1 2.167423 1_565
C0 Nb1 2.167425 1_555
C0 Nb1 2.167425 1_665
C0 Nb2 2.288025 1_455
C0 Nb2 2.288025 1_565
C0 Nb2 2.288030 1_555
C1 Nb4 2.165982 1_545
C1 Nb4 2.165984 1_555
C1 Nb4 2.165984 1_445
C1 Nb2 2.293559 1_455
C1 Nb2 2.293561 1_445
C1 Nb2 2.293561 1_555
C2 Nb3 2.221013 1_565
C2 Nb3 2.221015 1_665
C2 Nb3 2.221015 1_555
C2 Nb5 2.227255 1_565
C2 Nb5 2.227255 1_455
C2 Nb5 2.227260 1_555
C3 Nb7 2.221013 1_655
C3 Nb7 2.221015 1_555
C3 Nb7 2.221015 1_665
C3 Nb6 2.227255 1_545
C3 Nb6 2.227255 1_655
C3 Nb6 2.227260 1_555
C4 Nb8 2.165982 1_455
C4 Nb8 2.165984 1_555
C4 Nb8 2.165984 1_445
C4 Nb9 2.293559 1_545
C4 Nb9 2.293561 1_445
C4 Nb9 2.293561 1_555
C5 Nb11 2.167423 1_655
C5 Nb11 2.167425 1_555
C5 Nb11 2.167425 1_665
C5 Nb9 2.288025 1_545
C5 Nb9 2.288025 1_655
C5 Nb9 2.288030 1_555
C6 Nb10 2.178878 1_455
C6 Nb10 2.178880 1_445
C6 Nb10 2.178880 1_555
C6 Nb13 2.255339 1_545
C6 Nb13 2.255341 1_555
C6 Nb13 2.255341 1_445
C7 Nb13 2.272518 1_545
C7 Nb13 2.272518 1_655
C7 Nb13 2.272523 1_555
C7 Nb12 2.274298 1_655
C7 Nb12 2.274300 1_555
C7 Nb12 2.274300 1_665
C8 Nb12 2.226573 1_565
C8 Nb12 2.226574 1_555
C8 Nb12 2.226574 1_665
C8 Nb14 2.246438 1_455
C8 Nb14 2.246438 1_565
C8 Nb14 2.246443 1_555
C9 Nb14 2.248236 1_455
C9 Nb14 2.248238 1_555
C9 Nb14 2.248238 1_445
C9 Nb15 2.261840 1_545
C9 Nb15 2.261842 1_445
C9 Nb15 2.261842 1_555
C10 Nb15 2.231019 1_545
C10 Nb15 2.231019 1_655
C10 Nb15 2.231024 1_555
C10 Nb16 2.237379 1_655
C10 Nb16 2.237381 1_555
C10 Nb16 2.237381 1_665
C11 Nb16 2.250502 1_565
C11 Nb16 2.250504 1_555
C11 Nb16 2.250504 1_665
C11 Nb17 2.252306 1_565
C11 Nb17 2.252306 1_455
C11 Nb17 2.252311 1_555
C12 Nb19 2.239047 1_545
C12 Nb19 2.239049 1_555
C12 Nb19 2.239049 1_445
C12 Nb17 2.242563 1_455
C12 Nb17 2.242565 1_445
C12 Nb17 2.242565 1_555
C13 Nb19 2.249978 1_545
C13 Nb19 2.249978 1_655
C13 Nb19 2.249983 1_555
C13 Nb18 2.253239 1_655
C13 Nb18 2.253240 1_665
C13 Nb18 2.253240 1_555
C14 Nb18 2.240890 1_565
C14 Nb18 2.240892 1_665
C14 Nb18 2.240892 1_555
C14 Nb21 2.241409 1_455
C14 Nb21 2.241409 1_565
C14 Nb21 2.241414 1_555
C15 Nb21 2.247424 1_455
C15 Nb21 2.247426 1_445
C15 Nb21 2.247426 1_555
C15 Nb20 2.248294 1_545
C15 Nb20 2.248296 1_555
C15 Nb20 2.248296 1_445
C16 Nb22 2.243776 1_655
C16 Nb22 2.243778 1_665
C16 Nb22 2.243778 1_555
C16 Nb20 2.244007 1_545
C16 Nb20 2.244007 1_655
C16 Nb20 2.244012 1_555
C17 Nb22 2.244528 1_565
C17 Nb22 2.244530 1_555
C17 Nb22 2.244530 1_665
C17 Nb23 2.246380 1_455
C17 Nb23 2.246380 1_565
C17 Nb23 2.246385 1_555
C18 Nb24 2.244355 1_545
C18 Nb24 2.244356 1_555
C18 Nb24 2.244356 1_445
C18 Nb23 2.246786 1_455
C18 Nb23 2.246788 1_555
C18 Nb23 2.246788 1_445
C19 Nb25 2.245975 1_655
C19 Nb25 2.245977 1_665
C19 Nb25 2.245977 1_555
C19 Nb24 2.246264 1_655
C19 Nb24 2.246264 1_545
C19 Nb24 2.246269 1_555
C20 Nb25 2.245975 1_565
C20 Nb25 2.245977 1_665
C20 Nb25 2.245977 1_555
C20 Nb26 2.246264 1_455
C20 Nb26 2.246264 1_565
C20 Nb26 2.246269 1_555
C21 Nb26 2.244355 1_455
C21 Nb26 2.244356 1_555
C21 Nb26 2.244356 1_445
C21 Nb27 2.246786 1_545
C21 Nb27 2.246788 1_555
C21 Nb27 2.246788 1_445
C22 Nb28 2.244528 1_655
C22 Nb28 2.244530 1_555
C22 Nb28 2.244530 1_665
C22 Nb27 2.246380 1_545
C22 Nb27 2.246380 1_655
C22 Nb27 2.246385 1_555
C23 Nb28 2.243776 1_565
C23 Nb28 2.243778 1_665
C23 Nb28 2.243778 1_555
C23 Nb29 2.244007 1_455
C23 Nb29 2.244007 1_565
C23 Nb29 2.244012 1_555
C24 Nb30 2.247424 1_545
C24 Nb30 2.247426 1_555
C24 Nb30 2.247426 1_445
C24 Nb29 2.248294 1_455
C24 Nb29 2.248296 1_555
C24 Nb29 2.248296 1_445
C25 Nb31 2.240890 1_655
C25 Nb31 2.240892 1_555
C25 Nb31 2.240892 1_665
C25 Nb30 2.241409 1_545
C25 Nb30 2.241409 1_655
C25 Nb30 2.241414 1_555
C26 Nb32 2.249978 1_455
C26 Nb32 2.249978 1_565
C26 Nb32 2.249983 1_555
C26 Nb31 2.253239 1_565
C26 Nb31 2.253240 1_555
C26 Nb31 2.253240 1_665
C27 Nb32 2.239047 1_455
C27 Nb32 2.239049 1_555
C27 Nb32 2.239049 1_445
C27 Nb33 2.242563 1_545
C27 Nb33 2.242565 1_555
C27 Nb33 2.242565 1_445
C28 Nb34 2.250502 1_655
C28 Nb34 2.250504 1_665
C28 Nb34 2.250504 1_555
C28 Nb33 2.252306 1_545
C28 Nb33 2.252306 1_655
C28 Nb33 2.252311 1_555
C29 Nb35 2.231019 1_455
C29 Nb35 2.231019 1_565
C29 Nb35 2.231024 1_555
C29 Nb34 2.237379 1_565
C29 Nb34 2.237381 1_555
C29 Nb34 2.237381 1_665
C30 Nb36 2.248236 1_545
C30 Nb36 2.248238 1_445
C30 Nb36 2.248238 1_555
C30 Nb35 2.261840 1_455
C30 Nb35 2.261842 1_445
C30 Nb35 2.261842 1_555
C31 Nb37 2.226573 1_655
C31 Nb37 2.226574 1_665
C31 Nb37 2.226574 1_555
C31 Nb36 2.246438 1_545
C31 Nb36 2.246438 1_655
C31 Nb36 2.246443 1_555
C32 Nb38 2.272518 1_455
C32 Nb38 2.272518 1_565
C32 Nb38 2.272523 1_555
C32 Nb37 2.274298 1_565
C32 Nb37 2.274300 1_555
C32 Nb37 2.274300 1_665
C33 Nb0 2.178878 1_545
C33 Nb0 2.178880 1_555
C33 Nb0 2.178880 1_445
C33 Nb38 2.255339 1_455
C33 Nb38 2.255341 1_445
C33 Nb38 2.255341 1_555
