# generated using pymatgen
data_Mn2CrPb2O9
_symmetry_space_group_name_H-M   'P 1'
_cell_length_a   5.01566017
_cell_length_b   7.55881202
_cell_length_c   10.34569768
_cell_angle_alpha   91.69689682
_cell_angle_beta   99.05798338
_cell_angle_gamma   109.32744795
_symmetry_Int_Tables_number   1
_chemical_formula_structural   Mn2CrPb2O9
_chemical_formula_sum   'Mn4 Cr2 Pb4 O18'
_cell_volume   364.10173313
_cell_formula_units_Z   2
loop_
 _symmetry_equiv_pos_site_id
 _symmetry_equiv_pos_as_xyz
  1  'x, y, z'
loop_
 _atom_site_type_symbol
 _atom_site_label
 _atom_site_symmetry_multiplicity
 _atom_site_fract_x
 _atom_site_fract_y
 _atom_site_fract_z
 _atom_site_occupancy
  Mn  Mn0  1  0.40154851  0.80450644  0.50138434  1
  Mn  Mn1  1  0.59845149  0.19549356  0.49861566  1
  Mn  Mn2  1  0.80381810  0.60606545  0.50674750  1
  Mn  Mn3  1  0.19618190  0.39393455  0.49325250  1
  Cr  Cr0  1  0.18914145  0.76650532  0.04796271  1
  Cr  Cr1  1  0.81085855  0.23349468  0.95203729  1
  Pb  Pb0  1  0.89563871  0.96016310  0.25805830  1
  Pb  Pb1  1  0.10436129  0.03983690  0.74194170  1
  Pb  Pb2  1  0.50846484  0.38958464  0.17940689  1
  Pb  Pb3  1  0.49153516  0.61041536  0.82059311  1
  O  O0  1  0.45175676  0.67610743  0.06745180  1
  O  O1  1  0.54824324  0.32389257  0.93254820  1
  O  O2  1  0.94832436  0.65158998  0.13193461  1
  O  O3  1  0.05167564  0.34841002  0.86806539  1
  O  O4  1  0.05176672  0.73883629  0.88777165  1
  O  O5  1  0.94823328  0.26116371  0.11222835  1
  O  O6  1  0.30708166  0.98918119  0.10586928  1
  O  O7  1  0.69291834  0.01081881  0.89413072  1
  O  O8  1  0.17117834  0.61025889  0.59785321  1
  O  O9  1  0.82882166  0.38974111  0.40214679  1
  O  O10  1  0.55495447  0.40731663  0.59647793  1
  O  O11  1  0.44504553  0.59268337  0.40352207  1
  O  O12  1  0.57810126  0.98503596  0.39577320  1
  O  O13  1  0.42189874  0.01496404  0.60422680  1
  O  O14  1  0.74147478  0.78718605  0.60981774  1
  O  O15  1  0.25852522  0.21281395  0.39018226  1
  O  O16  1  0.03175519  0.77103592  0.40995369  1
  O  O17  1  0.96824481  0.22896408  0.59004631  1
loop_
_geom_bond_atom_site_label_1
_geom_bond_atom_site_label_2
_geom_bond_distance
_geom_bond_site_symmetry_2
Mn0 O13 1.852356 1_565
Mn0 O12 1.852881 1_555
Mn0 O16 1.876615 1_555
Mn0 O14 1.933057 1_555
Mn0 O8 1.952923 1_555
Mn0 O11 1.959858 1_555
Mn1 O12 1.852356 1_545
Mn1 O13 1.852881 1_555
Mn1 O17 1.876615 1_555
Mn1 O15 1.933057 1_555
Mn1 O9 1.952923 1_555
Mn1 O10 1.959858 1_555
Mn2 O16 1.831820 1_655
Mn2 O14 1.846905 1_555
Mn2 O11 1.912297 1_555
Mn2 O8 1.922798 1_655
Mn2 O10 1.970517 1_555
Mn2 O9 1.983486 1_555
Mn3 O17 1.831820 1_455
Mn3 O15 1.846905 1_555
Mn3 O10 1.912297 1_555
Mn3 O9 1.922798 1_455
Mn3 O11 1.970517 1_555
Mn3 O8 1.983486 1_555
Cr0 O2 1.627500 1_455
Cr0 O6 1.646664 1_555
Cr0 O0 1.662180 1_555
Cr0 O4 1.670220 1_554
Cr1 O3 1.627500 1_655
Cr1 O7 1.646664 1_555
Cr1 O1 1.662180 1_555
Cr1 O5 1.670220 1_556
O0 Pb2 2.562344 1_555
O0 Pb3 2.638147 1_554
O1 Pb3 2.562344 1_555
O1 Pb2 2.638147 1_556
O2 Pb2 2.556810 1_555
O2 Pb0 2.747553 1_555
O3 Pb3 2.556810 1_555
O3 Pb1 2.747553 1_555
O4 Pb3 2.619285 1_455
O4 Pb1 2.730145 1_565
O5 Pb2 2.619285 1_655
O5 Pb0 2.730145 1_545
O6 Pb0 2.744041 1_455
O7 Pb1 2.744041 1_655
O8 Pb3 2.593219 1_555
O9 Pb2 2.593219 1_555
O12 Pb0 2.344924 1_555
O13 Pb1 2.344924 1_555
O14 Pb1 2.364226 1_665
O15 Pb0 2.364226 1_445
O16 Pb0 2.328211 1_455
O17 Pb1 2.328211 1_655
