# generated using pymatgen
data_CeAgAs2
_symmetry_space_group_name_H-M   'P 1'
_cell_length_a   5.76705400
_cell_length_b   5.81748100
_cell_length_c   20.25584600
_cell_angle_alpha   90.00000000
_cell_angle_beta   90.00000000
_cell_angle_gamma   90.00000000
_symmetry_Int_Tables_number   1
_chemical_formula_structural   CeAgAs2
_chemical_formula_sum   'Ce8 Ag8 As16'
_cell_volume   679.57810489
_cell_formula_units_Z   8
loop_
 _symmetry_equiv_pos_site_id
 _symmetry_equiv_pos_as_xyz
  1  'x, y, z'
loop_
 _atom_site_type_symbol
 _atom_site_label
 _atom_site_symmetry_multiplicity
 _atom_site_fract_x
 _atom_site_fract_y
 _atom_site_fract_z
 _atom_site_occupancy
  Ce  Ce0  1  0.00975200  0.75000000  0.88714000  1
  Ce  Ce1  1  0.99024800  0.75000000  0.38714000  1
  Ce  Ce2  1  0.50902500  0.75000000  0.60944600  1
  Ce  Ce3  1  0.49097500  0.75000000  0.10944600  1
  Ce  Ce4  1  0.50902500  0.25000000  0.89055400  1
  Ce  Ce5  1  0.99024800  0.25000000  0.11286000  1
  Ce  Ce6  1  0.49097500  0.25000000  0.39055400  1
  Ce  Ce7  1  0.00975200  0.25000000  0.61286000  1
  Ag  Ag0  1  0.76196500  0.00000000  0.75000000  1
  Ag  Ag1  1  0.23803500  0.50000000  0.25000000  1
  Ag  Ag2  1  0.26381800  0.00000000  0.75000000  1
  Ag  Ag3  1  0.23803500  0.00000000  0.25000000  1
  Ag  Ag4  1  0.76196500  0.50000000  0.75000000  1
  Ag  Ag5  1  0.73618200  0.50000000  0.25000000  1
  Ag  Ag6  1  0.26381800  0.50000000  0.75000000  1
  Ag  Ag7  1  0.73618200  0.00000000  0.25000000  1
  As  As0  1  0.51098500  0.25000000  0.65626100  1
  As  As1  1  0.48901500  0.75000000  0.34373900  1
  As  As2  1  0.98962500  0.75000000  0.15686200  1
  As  As3  1  0.76656100  0.50473500  0.99980600  1
  As  As4  1  0.76656100  0.49526500  0.50019400  1
  As  As5  1  0.98962500  0.25000000  0.34313800  1
  As  As6  1  0.23343900  0.50473500  0.49980600  1
  As  As7  1  0.76656100  0.99526500  0.99980600  1
  As  As8  1  0.23343900  0.99526500  0.49980600  1
  As  As9  1  0.76656100  0.00473500  0.50019400  1
  As  As10  1  0.23343900  0.49526500  0.00019400  1
  As  As11  1  0.48901500  0.25000000  0.15626100  1
  As  As12  1  0.01037500  0.25000000  0.84313800  1
  As  As13  1  0.01037500  0.75000000  0.65686200  1
  As  As14  1  0.51098500  0.75000000  0.84373900  1
  As  As15  1  0.23343900  0.00473500  0.00019400  1
loop_
_geom_bond_atom_site_label_1
_geom_bond_atom_site_label_2
_geom_bond_distance
_geom_bond_site_symmetry_2
Ag0 As12 2.779701 1_655
Ag0 As13 2.779701 1_645
Ag0 As0 2.795622 1_555
Ag0 As14 2.795622 1_545
Ag0 Ag2 2.872841 1_555
Ag0 Ag2 2.894213 1_655
Ag0 Ag4 2.908740 1_545
Ag0 Ag4 2.908740 1_555
Ag0 Ce7 3.445851 1_655
Ag0 Ce0 3.445851 1_645
Ag0 Ce4 3.514070 1_555
Ag0 Ce2 3.514070 1_545
Ag1 As5 2.779701 1_455
Ag1 As2 2.779701 1_455
Ag1 As1 2.795622 1_555
Ag1 As11 2.795622 1_555
Ag1 Ag5 2.872841 1_555
Ag1 Ag5 2.894213 1_455
Ag1 Ag3 2.908740 1_555
Ag1 Ag3 2.908740 1_565
Ag1 Ce5 3.445851 1_455
Ag1 Ce1 3.445851 1_455
Ag1 Ce6 3.514070 1_555
Ag1 Ce3 3.514070 1_555
Ag2 As0 2.784301 1_555
Ag2 As14 2.784301 1_545
Ag2 As12 2.794771 1_555
Ag2 As13 2.794771 1_545
Ag2 Ag6 2.908740 1_545
Ag2 Ag6 2.908740 1_555
Ag2 Ce7 3.461025 1_555
Ag2 Ce0 3.461025 1_545
Ag2 Ce4 3.495793 1_555
Ag2 Ce2 3.495793 1_545
Ag3 As2 2.779701 1_445
Ag3 As5 2.779701 1_455
Ag3 As1 2.795622 1_545
Ag3 As11 2.795622 1_555
Ag3 Ag7 2.872841 1_555
Ag3 Ag7 2.894213 1_455
Ag3 Ce5 3.445851 1_455
Ag3 Ce1 3.445851 1_445
Ag3 Ce6 3.514070 1_555
Ag3 Ce3 3.514070 1_545
Ag4 As12 2.779701 1_655
Ag4 As13 2.779701 1_655
Ag4 As0 2.795622 1_555
Ag4 As14 2.795622 1_555
Ag4 Ag6 2.872841 1_555
Ag4 Ag6 2.894213 1_655
Ag4 Ce7 3.445851 1_655
Ag4 Ce0 3.445851 1_655
Ag4 Ce4 3.514070 1_555
Ag4 Ce2 3.514070 1_555
Ag5 As1 2.784301 1_555
Ag5 As11 2.784301 1_555
Ag5 As2 2.794771 1_555
Ag5 As5 2.794771 1_555
Ag5 Ag7 2.908740 1_565
Ag5 Ag7 2.908740 1_555
Ag5 Ce5 3.461025 1_555
Ag5 Ce1 3.461025 1_555
Ag5 Ce6 3.495793 1_555
Ag5 Ce3 3.495793 1_555
Ag6 As14 2.784301 1_555
Ag6 As0 2.784301 1_555
Ag6 As12 2.794771 1_555
Ag6 As13 2.794771 1_555
Ag6 Ce7 3.461025 1_555
Ag6 Ce0 3.461025 1_555
Ag6 Ce4 3.495793 1_555
Ag6 Ce2 3.495793 1_555
Ag7 As1 2.784301 1_545
Ag7 As11 2.784301 1_555
Ag7 As2 2.794771 1_545
Ag7 As5 2.794771 1_555
Ag7 Ce5 3.461025 1_555
Ag7 Ce1 3.461025 1_545
Ag7 Ce6 3.495793 1_555
Ag7 Ce3 3.495793 1_545
As0 Ce7 3.007762 1_655
As0 Ce7 3.021365 1_555
As0 Ce2 3.059433 1_555
As0 Ce2 3.059433 1_545
As1 Ce1 3.007762 1_455
As1 Ce1 3.021365 1_555
As1 Ce6 3.059433 1_555
As1 Ce6 3.059433 1_565
As2 Ce3 3.031890 1_555
As2 Ce5 3.042235 1_565
As2 Ce5 3.042235 1_555
As2 Ce3 3.046663 1_655
As3 As7 2.853649 1_555
As3 As7 2.963832 1_545
As3 Ce5 3.017339 1_556
As3 Ce0 3.034964 1_655
As3 Ce4 3.049475 1_555
As3 Ce3 3.081224 1_556
As4 As6 2.693086 1_655
As4 As9 2.853649 1_555
As4 As9 2.963832 1_565
As4 Ce1 3.017339 1_555
As4 Ce7 3.034964 1_655
As4 Ce2 3.049475 1_555
As4 As6 3.075047 1_555
As4 Ce6 3.081224 1_555
As5 Ce6 3.031890 1_555
As5 Ce1 3.042235 1_555
As5 Ce1 3.042235 1_545
As5 Ce6 3.046663 1_655
As6 As8 2.853649 1_555
As6 As8 2.963832 1_545
As6 Ce7 3.017339 1_555
As6 Ce1 3.034964 1_455
As6 Ce6 3.049475 1_555
As6 Ce2 3.081224 1_555
As7 Ce5 3.017339 1_566
As7 Ce0 3.034964 1_655
As7 Ce4 3.049475 1_565
As7 Ce3 3.081224 1_556
As8 As9 2.693086 1_465
As8 Ce7 3.017339 1_565
As8 Ce1 3.034964 1_455
As8 Ce6 3.049475 1_565
As8 As9 3.075047 1_565
As8 Ce2 3.081224 1_555
As9 Ce1 3.017339 1_545
As9 Ce7 3.034964 1_655
As9 Ce2 3.049475 1_545
As9 Ce6 3.081224 1_555
As10 As3 2.693086 1_454
As10 As15 2.853649 1_555
As10 As15 2.963832 1_565
As10 Ce0 3.017339 1_554
As10 Ce5 3.034964 1_455
As10 Ce3 3.049475 1_555
As10 As3 3.075047 1_554
As10 Ce4 3.081224 1_554
As11 Ce5 3.007762 1_455
As11 Ce5 3.021365 1_555
As11 Ce3 3.059433 1_545
As11 Ce3 3.059433 1_555
As12 Ce4 3.031890 1_555
As12 Ce0 3.042235 1_555
As12 Ce0 3.042235 1_545
As12 Ce4 3.046663 1_455
As13 Ce2 3.031890 1_555
As13 Ce7 3.042235 1_565
As13 Ce7 3.042235 1_555
As13 Ce2 3.046663 1_455
As14 Ce0 3.007762 1_655
As14 Ce0 3.021365 1_555
As14 Ce4 3.059433 1_565
As14 Ce4 3.059433 1_555
As15 As7 2.693086 1_444
As15 Ce0 3.017339 1_544
As15 Ce5 3.034964 1_455
As15 Ce3 3.049475 1_545
As15 As7 3.075047 1_544
As15 Ce4 3.081224 1_554
