# generated using pymatgen
data_BaCaMg6
_symmetry_space_group_name_H-M   'P 1'
_cell_length_a   5.44094300
_cell_length_b   7.23349600
_cell_length_c   12.20081200
_cell_angle_alpha   90.00000000
_cell_angle_beta   90.00000000
_cell_angle_gamma   90.00000000
_symmetry_Int_Tables_number   1
_chemical_formula_structural   BaCaMg6
_chemical_formula_sum   'Ba2 Ca2 Mg12'
_cell_volume   480.18783892
_cell_formula_units_Z   2
loop_
 _symmetry_equiv_pos_site_id
 _symmetry_equiv_pos_as_xyz
  1  'x, y, z'
loop_
 _atom_site_type_symbol
 _atom_site_label
 _atom_site_symmetry_multiplicity
 _atom_site_fract_x
 _atom_site_fract_y
 _atom_site_fract_z
 _atom_site_occupancy
  Ba  Ba0  1  0.50000000  0.50000000  0.83495900  1
  Ba  Ba1  1  0.50000000  0.00000000  0.33495900  1
  Ca  Ca0  1  0.50000000  0.50000000  0.33567700  1
  Ca  Ca1  1  0.50000000  0.00000000  0.83567700  1
  Mg  Mg0  1  0.50000000  0.24672000  0.08109200  1
  Mg  Mg1  1  0.50000000  0.75328000  0.08109200  1
  Mg  Mg2  1  0.00000000  0.23692500  0.92980900  1
  Mg  Mg3  1  0.00000000  0.76307500  0.92980900  1
  Mg  Mg4  1  0.00000000  0.50000000  0.15743300  1
  Mg  Mg5  1  0.00000000  0.50000000  0.65013500  1
  Mg  Mg6  1  0.50000000  0.74672000  0.58109200  1
  Mg  Mg7  1  0.50000000  0.25328000  0.58109200  1
  Mg  Mg8  1  0.00000000  0.73692500  0.42980900  1
  Mg  Mg9  1  0.00000000  0.26307500  0.42980900  1
  Mg  Mg10  1  0.00000000  0.00000000  0.65743300  1
  Mg  Mg11  1  0.00000000  0.00000000  0.15013500  1
loop_
_geom_bond_atom_site_label_1
_geom_bond_atom_site_label_2
_geom_bond_distance
_geom_bond_site_symmetry_2
Ba0 Mg2 3.515880 1_555
Ba0 Mg2 3.515880 1_655
Ba0 Mg3 3.515880 1_555
Ba0 Mg3 3.515880 1_655
Ba0 Mg0 3.517774 1_556
Ba0 Mg1 3.517774 1_556
Ba0 Mg5 3.533554 1_555
Ba0 Mg5 3.533554 1_655
Ba0 Mg6 3.574738 1_555
Ba0 Mg7 3.574738 1_555
Ba0 Ca1 3.616759 1_555
Ba0 Ca1 3.616759 1_565
Ba1 Mg9 3.515880 1_555
Ba1 Mg9 3.515880 1_655
Ba1 Mg8 3.515880 1_545
Ba1 Mg8 3.515880 1_645
Ba1 Mg7 3.517774 1_555
Ba1 Mg6 3.517774 1_545
Ba1 Mg11 3.533554 1_555
Ba1 Mg11 3.533554 1_655
Ba1 Mg1 3.574738 1_545
Ba1 Mg0 3.574738 1_555
Ba1 Ca0 3.616759 1_545
Ba1 Ca0 3.616759 1_555
Ca0 Mg8 3.414247 1_555
Ca0 Mg8 3.414247 1_655
Ca0 Mg9 3.414247 1_655
Ca0 Mg9 3.414247 1_555
Ca0 Mg4 3.482869 1_655
Ca0 Mg4 3.482869 1_555
Ca0 Mg6 3.485768 1_555
Ca0 Mg7 3.485768 1_555
Ca0 Mg0 3.606206 1_555
Ca0 Mg1 3.606206 1_555
Ca1 Mg2 3.414247 1_655
Ca1 Mg2 3.414247 1_555
Ca1 Mg3 3.414247 1_645
Ca1 Mg3 3.414247 1_545
Ca1 Mg10 3.482869 1_655
Ca1 Mg10 3.482869 1_555
Ca1 Mg1 3.485768 1_546
Ca1 Mg0 3.485768 1_556
Ca1 Mg7 3.606206 1_555
Ca1 Mg6 3.606206 1_545
Mg0 Mg2 3.288293 1_654
Mg0 Mg2 3.288293 1_554
Mg0 Mg11 3.360884 1_555
Mg0 Mg11 3.360884 1_655
Mg0 Mg4 3.409560 1_555
Mg0 Mg4 3.409560 1_655
Mg1 Mg3 3.288293 1_554
Mg1 Mg3 3.288293 1_654
Mg1 Mg11 3.360884 1_565
Mg1 Mg11 3.360884 1_665
Mg1 Mg4 3.409560 1_555
Mg1 Mg4 3.409560 1_655
Mg2 Mg4 3.366609 1_556
Mg2 Mg3 3.427592 1_545
Mg3 Mg4 3.366609 1_556
Mg5 Mg8 3.187990 1_555
Mg5 Mg9 3.187990 1_555
Mg5 Mg7 3.360884 1_455
Mg5 Mg7 3.360884 1_555
Mg5 Mg6 3.360884 1_455
Mg5 Mg6 3.360884 1_555
Mg6 Mg8 3.288293 1_655
Mg6 Mg8 3.288293 1_555
Mg7 Mg9 3.288293 1_555
Mg7 Mg9 3.288293 1_655
Mg8 Mg9 3.427592 1_555
Mg10 Mg9 3.366609 1_555
Mg10 Mg8 3.366609 1_545
Mg10 Mg7 3.409560 1_555
Mg10 Mg6 3.409560 1_445
Mg10 Mg6 3.409560 1_545
Mg10 Mg7 3.409560 1_455
Mg11 Mg2 3.187990 1_554
Mg11 Mg3 3.187990 1_544
