# generated using pymatgen
data_LiHo2Cu(SiO3)4
_symmetry_space_group_name_H-M   'P 1'
_cell_length_a   5.02249978
_cell_length_b   7.12374978
_cell_length_c   7.78097323
_cell_angle_alpha   65.10602371
_cell_angle_beta   85.49709468
_cell_angle_gamma   77.23201987
_symmetry_Int_Tables_number   1
_chemical_formula_structural   LiHo2Cu(SiO3)4
_chemical_formula_sum   'Li1 Ho2 Cu1 Si4 O12'
_cell_volume   246.25199763
_cell_formula_units_Z   1
loop_
 _symmetry_equiv_pos_site_id
 _symmetry_equiv_pos_as_xyz
  1  'x, y, z'
loop_
 _atom_site_type_symbol
 _atom_site_label
 _atom_site_symmetry_multiplicity
 _atom_site_fract_x
 _atom_site_fract_y
 _atom_site_fract_z
 _atom_site_occupancy
  Li  Li0  1  0.89384300  0.32651900  0.00694300  1
  Ho  Ho0  1  0.01331400  0.78503300  0.43261100  1
  Ho  Ho1  1  0.97815200  0.22048900  0.57345100  1
  Cu  Cu0  1  0.01138500  0.94970000  0.00628700  1
  Si  Si0  1  0.57775500  0.59409200  0.21586000  1
  Si  Si1  1  0.41400800  0.41627200  0.78264300  1
  Si  Si2  1  0.43467200  0.18263600  0.21745900  1
  Si  Si3  1  0.55012000  0.82256000  0.78177300  1
  O  O0  1  0.30072800  0.75654900  0.21714300  1
  O  O1  1  0.71814900  0.27612100  0.79896000  1
  O  O2  1  0.28473600  0.33284000  0.00196800  1
  O  O3  1  0.69248500  0.65369700  0.99455800  1
  O  O4  1  0.19200900  0.43898700  0.63193000  1
  O  O5  1  0.81362300  0.56349900  0.36211600  1
  O  O6  1  0.28790200  0.99466700  0.79406600  1
  O  O7  1  0.71686000  0.02915700  0.19875700  1
  O  O8  1  0.53381500  0.34748500  0.28822900  1
  O  O9  1  0.43657500  0.66903500  0.70409500  1
  O  O10  1  0.19586500  0.08886800  0.36055400  1
  O  O11  1  0.78733600  0.92216300  0.63893000  1
loop_
_geom_bond_atom_site_label_1
_geom_bond_atom_site_label_2
_geom_bond_distance
_geom_bond_site_symmetry_2
Li0 O2 1.970683 1_655
Li0 O1 2.092821 1_554
Li0 O3 2.291010 1_554
Li0 O7 2.338226 1_555
Ho0 O0 2.170879 1_555
Ho0 O7 2.273570 1_465
Ho0 O4 2.304276 1_555
Ho0 O5 2.304802 1_455
Ho0 O11 2.315980 1_455
Ho0 O10 2.369513 1_565
Ho0 O9 2.850150 1_555
Ho1 O1 2.222193 1_555
Ho1 O6 2.223323 1_645
Ho1 O4 2.279360 1_655
Ho1 O5 2.301251 1_555
Ho1 O10 2.321424 1_655
Ho1 O11 2.367816 1_545
Cu0 O6 2.036999 1_554
Cu0 O0 2.070488 1_555
Cu0 O7 2.178786 1_465
Cu0 O1 2.424856 1_464
Cu0 Li0 2.620106 1_465
O0 Si0 1.603485 1_555
O1 Si1 1.611197 1_555
O2 Si1 1.682209 1_554
O2 Si2 1.689706 1_555
O3 Si0 1.677567 1_556
O3 Si3 1.681824 1_555
O4 Si1 1.615674 1_555
O5 Si0 1.623185 1_555
O6 Si3 1.616183 1_555
O7 Si2 1.625399 1_555
O8 Si0 1.664646 1_555
O8 Si2 1.666191 1_555
O9 Si3 1.665221 1_555
O9 Si1 1.667771 1_555
O10 Si2 1.625661 1_555
O11 Si3 1.630971 1_555
