# generated using pymatgen
data_Mg6MnSn
_symmetry_space_group_name_H-M   'P 1'
_cell_length_a   4.96477300
_cell_length_b   6.34663200
_cell_length_c   10.86248500
_cell_angle_alpha   90.00000000
_cell_angle_beta   90.00000000
_cell_angle_gamma   90.00000000
_symmetry_Int_Tables_number   1
_chemical_formula_structural   Mg6MnSn
_chemical_formula_sum   'Mg12 Mn2 Sn2'
_cell_volume   342.27241826
_cell_formula_units_Z   2
loop_
 _symmetry_equiv_pos_site_id
 _symmetry_equiv_pos_as_xyz
  1  'x, y, z'
loop_
 _atom_site_type_symbol
 _atom_site_label
 _atom_site_symmetry_multiplicity
 _atom_site_fract_x
 _atom_site_fract_y
 _atom_site_fract_z
 _atom_site_occupancy
  Mg  Mg0  1  0.00000000  0.74470300  0.58185600  1
  Mg  Mg1  1  0.00000000  0.25529700  0.58185600  1
  Mg  Mg2  1  0.00000000  0.00000000  0.33351900  1
  Mg  Mg3  1  0.50000000  0.74467200  0.41426800  1
  Mg  Mg4  1  0.50000000  0.25532800  0.41426800  1
  Mg  Mg5  1  0.50000000  0.00000000  0.16785800  1
  Mg  Mg6  1  0.00000000  0.24470300  0.08185600  1
  Mg  Mg7  1  0.00000000  0.75529700  0.08185600  1
  Mg  Mg8  1  0.00000000  0.50000000  0.83351900  1
  Mg  Mg9  1  0.50000000  0.24467200  0.91426800  1
  Mg  Mg10  1  0.50000000  0.75532800  0.91426800  1
  Mg  Mg11  1  0.50000000  0.50000000  0.66785800  1
  Mn  Mn0  1  0.00000000  0.00000000  0.83392800  1
  Mn  Mn1  1  0.00000000  0.50000000  0.33392800  1
  Sn  Sn0  1  0.50000000  0.00000000  0.67244800  1
  Sn  Sn1  1  0.50000000  0.50000000  0.17244800  1
loop_
_geom_bond_atom_site_label_1
_geom_bond_atom_site_label_2
_geom_bond_distance
_geom_bond_site_symmetry_2
Mg0 Mg11 3.073580 1_455
Mg0 Mg11 3.073580 1_555
Mg0 Mg3 3.078340 1_455
Mg0 Mg3 3.078340 1_555
Mg0 Mg1 3.106080 1_555
Mg0 Mn1 3.108826 1_555
Mg0 Sn0 3.123444 1_565
Mg0 Sn0 3.123444 1_465
Mg0 Mg8 3.144037 1_555
Mg0 Mg2 3.146762 1_565
Mg0 Mn0 3.181610 1_565
Mg0 Mg1 3.240552 1_565
Mg1 Mg11 3.073580 1_455
Mg1 Mg11 3.073580 1_555
Mg1 Mg4 3.078340 1_455
Mg1 Mg4 3.078340 1_555
Mg1 Mn1 3.108826 1_555
Mg1 Sn0 3.123444 1_555
Mg1 Sn0 3.123444 1_455
Mg1 Mg8 3.144037 1_555
Mg1 Mg2 3.146762 1_555
Mg1 Mn0 3.181610 1_555
Mg2 Mg5 3.066008 1_455
Mg2 Mg5 3.066008 1_555
Mg2 Mg3 3.091527 1_445
Mg2 Mg3 3.091527 1_545
Mg2 Mg4 3.091527 1_455
Mg2 Mg4 3.091527 1_555
Mg2 Mg6 3.144037 1_555
Mg2 Mg7 3.144037 1_545
Mg2 Mn1 3.173319 1_545
Mg2 Mn1 3.173319 1_555
Mg3 Sn1 3.051430 1_555
Mg3 Mn1 3.055349 1_555
Mg3 Mn1 3.055349 1_655
Mg3 Mg4 3.105686 1_555
Mg3 Mg5 3.128938 1_565
Mg3 Sn0 3.238984 1_565
Mg3 Mg4 3.240946 1_565
Mg4 Sn1 3.051430 1_555
Mg4 Mn1 3.055349 1_555
Mg4 Mn1 3.055349 1_655
Mg4 Mg5 3.128938 1_555
Mg4 Sn0 3.238984 1_555
Mg5 Mg6 3.073580 1_655
Mg5 Mg6 3.073580 1_555
Mg5 Mg7 3.073580 1_545
Mg5 Mg7 3.073580 1_645
Mg5 Mg9 3.162157 1_554
Mg5 Sn1 3.173708 1_545
Mg5 Sn1 3.173708 1_555
Mg6 Mg9 3.078340 1_554
Mg6 Mg9 3.078340 1_454
Mg6 Mg7 3.106080 1_545
Mg6 Mn0 3.108826 1_554
Mg6 Sn1 3.123444 1_555
Mg6 Sn1 3.123444 1_455
Mg6 Mg8 3.146762 1_554
Mg6 Mn1 3.181610 1_555
Mg6 Mg7 3.240552 1_555
Mg7 Mn0 3.108826 1_564
Mg7 Sn1 3.123444 1_455
Mg7 Sn1 3.123444 1_555
Mg7 Mg8 3.146762 1_554
Mg7 Mn1 3.181610 1_555
Mg8 Mg9 3.091527 1_455
Mg8 Mg9 3.091527 1_555
Mg8 Mn0 3.173319 1_565
Mg8 Mn0 3.173319 1_555
Mg9 Sn0 3.051430 1_555
Mg9 Mn0 3.055349 1_555
Mg9 Mn0 3.055349 1_655
Mg9 Sn1 3.238984 1_556
Mg10 Sn0 3.051430 1_565
Mg10 Mn0 3.055349 1_665
Mg10 Mn0 3.055349 1_565
Mg10 Mg7 3.078340 1_556
Mg10 Mg7 3.078340 1_656
Mg10 Mg8 3.091527 1_655
Mg10 Mg8 3.091527 1_555
Mg10 Mg9 3.105686 1_565
Mg10 Mg11 3.128938 1_555
Mg10 Mg5 3.162157 1_566
Mg10 Sn1 3.238984 1_556
Mg10 Mg9 3.240946 1_555
Mg11 Mg8 3.066008 1_555
Mg11 Mg8 3.066008 1_655
Mg11 Mg9 3.128938 1_555
Mg11 Mg3 3.162157 1_555
Mg11 Mg4 3.162157 1_555
Mg11 Sn0 3.173708 1_555
Mg11 Sn0 3.173708 1_565
Mn0 Sn0 3.039575 1_455
Mn0 Sn0 3.039575 1_555
Mn1 Sn1 3.039575 1_455
Mn1 Sn1 3.039575 1_555
