# generated using pymatgen
data_Y2CoRu3
_symmetry_space_group_name_H-M   'P 1'
_cell_length_a   5.24884276
_cell_length_b   5.24883348
_cell_length_c   5.24885719
_cell_angle_alpha   60.35638146
_cell_angle_beta   60.35664640
_cell_angle_gamma   60.35633169
_symmetry_Int_Tables_number   1
_chemical_formula_structural   Y2CoRu3
_chemical_formula_sum   'Y2 Co1 Ru3'
_cell_volume   103.07751265
_cell_formula_units_Z   1
loop_
 _symmetry_equiv_pos_site_id
 _symmetry_equiv_pos_as_xyz
  1  'x, y, z'
loop_
 _atom_site_type_symbol
 _atom_site_label
 _atom_site_symmetry_multiplicity
 _atom_site_fract_x
 _atom_site_fract_y
 _atom_site_fract_z
 _atom_site_occupancy
  Y  Y0  1  0.12442732  0.12442332  0.12442732  1
  Y  Y1  1  0.87557268  0.87557668  0.87557268  1
  Co  Co0  1  0.50000000  0.50000000  0.50000000  1
  Ru  Ru0  1  0.50000000  0.00000000  0.50000000  1
  Ru  Ru1  1  -0.00000000  0.50000000  0.50000000  1
  Ru  Ru2  1  0.50000000  0.50000000  0.00000000  1
loop_
_geom_bond_atom_site_label_1
_geom_bond_atom_site_label_2
_geom_bond_distance
_geom_bond_site_symmetry_2
Co0 Ru0 2.624417 1_555
Co0 Ru0 2.624417 1_565
Co0 Ru1 2.624421 1_555
Co0 Ru1 2.624421 1_655
Co0 Ru2 2.624429 1_555
Co0 Ru2 2.624429 1_556
Co0 Y0 3.094479 1_565
Co0 Y1 3.094479 1_545
Co0 Y0 3.094511 1_655
Co0 Y1 3.094511 1_455
Co0 Y1 3.094516 1_554
Co0 Y0 3.094516 1_556
Ru0 Ru1 2.638541 1_645
Ru0 Ru1 2.638541 1_555
Ru0 Ru2 2.638547 1_546
Ru0 Ru2 2.638547 1_555
Ru0 Y0 3.081531 1_555
Ru0 Y1 3.081531 1_545
Ru0 Y0 3.083398 1_655
Ru0 Y1 3.083398 1_445
Ru0 Y0 3.083405 1_556
Ru0 Y1 3.083405 1_544
Ru1 Ru2 2.638560 1_555
Ru1 Ru2 2.638560 1_456
Ru1 Y0 3.081543 1_555
Ru1 Y1 3.081543 1_455
Ru1 Y1 3.083378 1_445
Ru1 Y0 3.083378 1_565
Ru1 Y0 3.083403 1_556
Ru1 Y1 3.083403 1_454
Ru2 Y1 3.081539 1_554
Ru2 Y0 3.081539 1_555
Ru2 Y0 3.083376 1_565
Ru2 Y1 3.083376 1_544
Ru2 Y0 3.083395 1_655
Ru2 Y1 3.083395 1_454
