# generated using pymatgen
data_BeTlPO4
_symmetry_space_group_name_H-M   'P 1'
_cell_length_a   4.83742666
_cell_length_b   8.06981089
_cell_length_c   9.35815203
_cell_angle_alpha   90.00000000
_cell_angle_beta   90.00000000
_cell_angle_gamma   90.00000000
_symmetry_Int_Tables_number   1
_chemical_formula_structural   BeTlPO4
_chemical_formula_sum   'Be4 Tl4 P4 O16'
_cell_volume   365.31528824
_cell_formula_units_Z   4
loop_
 _symmetry_equiv_pos_site_id
 _symmetry_equiv_pos_as_xyz
  1  'x, y, z'
loop_
 _atom_site_type_symbol
 _atom_site_label
 _atom_site_symmetry_multiplicity
 _atom_site_fract_x
 _atom_site_fract_y
 _atom_site_fract_z
 _atom_site_occupancy
  Be  Be0  1  0.96570089  0.11659831  0.14773593  1
  Be  Be1  1  0.46570089  0.88340169  0.85226407  1
  Be  Be2  1  0.46570089  0.61659831  0.35226407  1
  Be  Be3  1  0.96570089  0.38340169  0.64773593  1
  Tl  Tl0  1  0.97307103  0.84551820  0.46825135  1
  Tl  Tl1  1  0.47307103  0.15448180  0.53174865  1
  Tl  Tl2  1  0.47307103  0.34551820  0.03174865  1
  Tl  Tl3  1  0.97307103  0.65448180  0.96825135  1
  P  P0  1  0.46586782  0.92034261  0.17118038  1
  P  P1  1  0.96586782  0.07965739  0.82881962  1
  P  P2  1  0.96586782  0.42034261  0.32881962  1
  P  P3  1  0.46586782  0.57965739  0.67118038  1
  O  O0  1  0.55643147  0.79266551  0.28209897  1
  O  O1  1  0.05643147  0.20733449  0.71790103  1
  O  O2  1  0.05643147  0.29266551  0.21790103  1
  O  O3  1  0.55643147  0.70733449  0.78209897  1
  O  O4  1  0.50194854  0.84461971  0.02210914  1
  O  O5  1  0.00194854  0.15538029  0.97789086  1
  O  O6  1  0.00194854  0.34461971  0.47789086  1
  O  O7  1  0.50194854  0.65538029  0.52210914  1
  O  O8  1  0.16255835  0.96598488  0.19784990  1
  O  O9  1  0.66255835  0.03401512  0.80215010  1
  O  O10  1  0.66255835  0.46598488  0.30215010  1
  O  O11  1  0.16255835  0.53401512  0.69784990  1
  O  O12  1  0.64542290  0.07680103  0.18631330  1
  O  O13  1  0.14542290  0.92319897  0.81368670  1
  O  O14  1  0.14542290  0.57680103  0.31368670  1
  O  O15  1  0.64542290  0.42319897  0.68631330  1
loop_
_geom_bond_atom_site_label_1
_geom_bond_atom_site_label_2
_geom_bond_distance
_geom_bond_site_symmetry_2
Be0 O8 1.613701 1_645
Be0 O12 1.622920 1_555
Be0 O2 1.625587 1_655
Be0 O5 1.629417 1_654
Be1 O9 1.613701 1_565
Be1 O13 1.622920 1_555
Be1 O3 1.625587 1_555
Be1 O4 1.629417 1_556
Be2 O10 1.613701 1_555
Be2 O14 1.622920 1_555
Be2 O0 1.625587 1_555
Be2 O7 1.629417 1_555
Be3 O11 1.613701 1_655
Be3 O15 1.622920 1_555
Be3 O1 1.625587 1_655
Be3 O6 1.629417 1_655
O0 P0 1.526741 1_555
O0 Tl0 2.697909 1_555
O1 P1 1.526741 1_455
O1 Tl1 2.697909 1_555
O2 P2 1.526741 1_455
O2 Tl2 2.697909 1_555
O3 P3 1.526741 1_555
O3 Tl3 2.697909 1_555
O4 P0 1.532965 1_555
O4 Tl3 2.793255 1_554
O5 P1 1.532965 1_455
O5 Tl2 2.793255 1_556
O6 P2 1.532965 1_455
O6 Tl1 2.793255 1_555
O7 P3 1.532965 1_555
O7 Tl0 2.793255 1_555
O8 P0 1.533211 1_555
O8 Tl0 2.861554 1_455
O9 P1 1.533211 1_555
O9 Tl1 2.861554 1_555
O10 P2 1.533211 1_555
O10 Tl2 2.861554 1_555
O11 P3 1.533211 1_555
O11 Tl3 2.861554 1_455
O12 P0 1.539035 1_545
O12 Tl2 2.736729 1_555
O13 P1 1.539035 1_465
O13 Tl3 2.736729 1_455
O14 P2 1.539035 1_455
O14 Tl0 2.736729 1_455
O15 P3 1.539035 1_555
O15 Tl1 2.736729 1_555
