# generated using pymatgen
data_Sm2MgSe4
_symmetry_space_group_name_H-M   'P 1'
_cell_length_a   4.09226800
_cell_length_b   13.35321600
_cell_length_c   14.51043500
_cell_angle_alpha   90.00000000
_cell_angle_beta   90.00000000
_cell_angle_gamma   90.00000000
_symmetry_Int_Tables_number   1
_chemical_formula_structural   Sm2MgSe4
_chemical_formula_sum   'Sm8 Mg4 Se16'
_cell_volume   792.92182867
_cell_formula_units_Z   4
loop_
 _symmetry_equiv_pos_site_id
 _symmetry_equiv_pos_as_xyz
  1  'x, y, z'
loop_
 _atom_site_type_symbol
 _atom_site_label
 _atom_site_symmetry_multiplicity
 _atom_site_fract_x
 _atom_site_fract_y
 _atom_site_fract_z
 _atom_site_occupancy
  Sm  Sm0  1  0.25000000  0.11786000  0.07354500  1
  Sm  Sm1  1  0.75000000  0.88214000  0.92645500  1
  Sm  Sm2  1  0.75000000  0.38214000  0.57354500  1
  Sm  Sm3  1  0.25000000  0.61786000  0.42645500  1
  Sm  Sm4  1  0.25000000  0.13798700  0.70372900  1
  Sm  Sm5  1  0.75000000  0.86201300  0.29627100  1
  Sm  Sm6  1  0.75000000  0.36201300  0.20372900  1
  Sm  Sm7  1  0.25000000  0.63798700  0.79627100  1
  Mg  Mg0  1  0.75000000  0.10790200  0.46002500  1
  Mg  Mg1  1  0.25000000  0.89209800  0.53997500  1
  Mg  Mg2  1  0.25000000  0.39209800  0.96002500  1
  Mg  Mg3  1  0.75000000  0.60790200  0.03997500  1
  Se  Se0  1  0.75000000  0.00320400  0.61572600  1
  Se  Se1  1  0.25000000  0.99679600  0.38427400  1
  Se  Se2  1  0.25000000  0.49679600  0.11572600  1
  Se  Se3  1  0.75000000  0.50320400  0.88427400  1
  Se  Se4  1  0.25000000  0.02899900  0.88289200  1
  Se  Se5  1  0.75000000  0.97100100  0.11710800  1
  Se  Se6  1  0.75000000  0.47100100  0.38289200  1
  Se  Se7  1  0.25000000  0.52899900  0.61710800  1
  Se  Se8  1  0.25000000  0.22408000  0.24630400  1
  Se  Se9  1  0.75000000  0.77592000  0.75369600  1
  Se  Se10  1  0.75000000  0.27592000  0.74630400  1
  Se  Se11  1  0.25000000  0.72408000  0.25369600  1
  Se  Se12  1  0.75000000  0.26489800  0.01408400  1
  Se  Se13  1  0.25000000  0.73510200  0.98591600  1
  Se  Se14  1  0.25000000  0.23510200  0.51408400  1
  Se  Se15  1  0.75000000  0.76489800  0.48591600  1
loop_
_geom_bond_atom_site_label_1
_geom_bond_atom_site_label_2
_geom_bond_distance
_geom_bond_site_symmetry_2
Mg0 Se0 2.656868 1_555
Mg0 Se1 2.756084 1_645
Mg0 Se1 2.756084 1_545
Mg0 Se14 2.772540 1_655
Mg0 Se14 2.772540 1_555
Mg1 Se1 2.656868 1_555
Mg1 Se0 2.756084 1_465
Mg1 Se0 2.756084 1_565
Mg1 Se15 2.772540 1_555
Mg1 Se15 2.772540 1_455
Mg2 Se2 2.656868 1_556
Mg2 Se3 2.756084 1_555
Mg2 Se3 2.756084 1_455
Mg2 Se12 2.772540 1_456
Mg2 Se12 2.772540 1_556
Mg3 Se3 2.656868 1_554
Mg3 Se2 2.756084 1_555
Mg3 Se2 2.756084 1_655
Mg3 Se13 2.772540 1_554
Mg3 Se13 2.772540 1_654
Se0 Sm4 3.009406 1_555
Se0 Sm4 3.009406 1_655
Se1 Sm5 3.009406 1_555
Se1 Sm5 3.009406 1_455
Se2 Sm6 3.009406 1_455
Se2 Sm6 3.009406 1_555
Se3 Sm7 3.009406 1_555
Se3 Sm7 3.009406 1_655
Se4 Sm1 2.903776 1_545
Se4 Sm1 2.903776 1_445
Se4 Sm4 2.979367 1_555
Se4 Sm0 3.010193 1_556
Se5 Sm0 2.903776 1_565
Se5 Sm0 2.903776 1_665
Se5 Sm5 2.979367 1_555
Se5 Sm1 3.010193 1_554
Se6 Sm3 2.903776 1_655
Se6 Sm3 2.903776 1_555
Se6 Sm6 2.979367 1_555
Se6 Sm2 3.010193 1_555
Se7 Sm2 2.903776 1_455
Se7 Sm2 2.903776 1_555
Se7 Sm7 2.979367 1_555
Se7 Sm3 3.010193 1_555
Se8 Sm6 2.821476 1_555
Se8 Sm6 2.821476 1_455
Se8 Sm0 2.880258 1_555
Se9 Sm7 2.821476 1_555
Se9 Sm7 2.821476 1_655
Se9 Sm1 2.880258 1_555
Se10 Sm4 2.821476 1_555
Se10 Sm4 2.821476 1_655
Se10 Sm2 2.880258 1_555
Se11 Sm5 2.821476 1_455
Se11 Sm5 2.821476 1_555
Se11 Sm3 2.880258 1_555
Se12 Sm0 2.964145 1_555
Se12 Sm0 2.964145 1_655
Se12 Sm6 3.042082 1_555
Se13 Sm1 2.964145 1_555
Se13 Sm1 2.964145 1_455
Se13 Sm7 3.042082 1_555
Se14 Sm2 2.964145 1_555
Se14 Sm2 2.964145 1_455
Se14 Sm4 3.042082 1_555
Se15 Sm3 2.964145 1_555
Se15 Sm3 2.964145 1_655
Se15 Sm5 3.042082 1_555
