# generated using pymatgen
data_La2Al3GaPd4
_symmetry_space_group_name_H-M   'P 1'
_cell_length_a   4.42576100
_cell_length_b   4.42576100
_cell_length_c   10.20785100
_cell_angle_alpha   90.00000000
_cell_angle_beta   90.00000000
_cell_angle_gamma   90.00000000
_symmetry_Int_Tables_number   1
_chemical_formula_structural   La2Al3GaPd4
_chemical_formula_sum   'La2 Al3 Ga1 Pd4'
_cell_volume   199.94485674
_cell_formula_units_Z   1
loop_
 _symmetry_equiv_pos_site_id
 _symmetry_equiv_pos_as_xyz
  1  'x, y, z'
loop_
 _atom_site_type_symbol
 _atom_site_label
 _atom_site_symmetry_multiplicity
 _atom_site_fract_x
 _atom_site_fract_y
 _atom_site_fract_z
 _atom_site_occupancy
  La  La0  1  0.50000000  0.00000000  0.25221900  1
  La  La1  1  0.00000000  0.50000000  0.74778100  1
  Al  Al0  1  0.00000000  0.00000000  0.50000000  1
  Al  Al1  1  0.50000000  0.00000000  0.87872800  1
  Al  Al2  1  0.00000000  0.50000000  0.12127200  1
  Ga  Ga0  1  0.50000000  0.50000000  0.50000000  1
  Pd  Pd0  1  0.50000000  0.50000000  0.00000000  1
  Pd  Pd1  1  0.00000000  0.00000000  0.00000000  1
  Pd  Pd2  1  0.50000000  0.00000000  0.63210700  1
  Pd  Pd3  1  0.00000000  0.50000000  0.36789300  1
loop_
_geom_bond_atom_site_label_1
_geom_bond_atom_site_label_2
_geom_bond_distance
_geom_bond_site_symmetry_2
La0 Pd3 3.344836 1_655
La0 Pd3 3.344836 1_545
La0 Pd3 3.344836 1_645
La0 Pd3 3.344836 1_555
La0 Pd1 3.394919 1_655
La0 Pd1 3.394919 1_555
La0 Pd0 3.394919 1_545
La0 Pd0 3.394919 1_555
La1 Pd2 3.344836 1_555
La1 Pd2 3.344836 1_565
La1 Pd2 3.344836 1_465
La1 Pd2 3.344836 1_455
La1 Pd1 3.394919 1_556
La1 Pd0 3.394919 1_456
La1 Pd0 3.394919 1_556
La1 Pd1 3.394919 1_566
Al0 Pd2 2.591403 1_455
Al0 Pd2 2.591403 1_555
Al0 Pd3 2.591403 1_555
Al0 Pd3 2.591403 1_545
Al0 La1 3.360693 1_555
Al0 La1 3.360693 1_545
Al0 La0 3.360693 1_455
Al0 La0 3.360693 1_555
Al1 Pd2 2.517470 1_555
Al1 Pd1 2.535607 1_656
Al1 Pd0 2.535607 1_556
Al1 Pd1 2.535607 1_556
Al1 Pd0 2.535607 1_546
Al1 La1 3.403001 1_645
Al1 La1 3.403001 1_555
Al1 La1 3.403001 1_545
Al1 La1 3.403001 1_655
Al2 Pd3 2.517470 1_555
Al2 Pd1 2.535607 1_555
Al2 Pd0 2.535607 1_555
Al2 Pd0 2.535607 1_455
Al2 Pd1 2.535607 1_565
Al2 La0 3.403001 1_455
Al2 La0 3.403001 1_555
Al2 La0 3.403001 1_465
Al2 La0 3.403001 1_565
Ga0 Pd2 2.591403 1_565
Ga0 Pd2 2.591403 1_555
Ga0 Pd3 2.591403 1_555
Ga0 Pd3 2.591403 1_655
Ga0 La1 3.360693 1_555
Ga0 La1 3.360693 1_655
Ga0 La0 3.360693 1_555
Ga0 La0 3.360693 1_565
