# generated using pymatgen
data_Sr2Cu(SCl)2
_symmetry_space_group_name_H-M   'P 1'
_cell_length_a   8.67369817
_cell_length_b   8.67369817
_cell_length_c   8.67369817
_cell_angle_alpha   149.18278283
_cell_angle_beta   149.18278283
_cell_angle_gamma   44.14232841
_symmetry_Int_Tables_number   1
_chemical_formula_structural   Sr2Cu(SCl)2
_chemical_formula_sum   'Sr2 Cu1 S2 Cl2'
_cell_volume   170.76808700
_cell_formula_units_Z   1
loop_
 _symmetry_equiv_pos_site_id
 _symmetry_equiv_pos_as_xyz
  1  'x, y, z'
loop_
 _atom_site_type_symbol
 _atom_site_label
 _atom_site_symmetry_multiplicity
 _atom_site_fract_x
 _atom_site_fract_y
 _atom_site_fract_z
 _atom_site_occupancy
  Sr  Sr0  1  0.37490500  0.37490500  0.00000000  1
  Sr  Sr1  1  0.62509500  0.62509500  0.00000000  1
  Cu  Cu0  1  0.00000000  0.00000000  0.00000000  1
  S  S0  1  0.50000000  0.00000000  0.50000000  1
  S  S1  1  0.00000000  0.50000000  0.50000000  1
  Cl  Cl0  1  0.18998600  0.18998600  0.00000000  1
  Cl  Cl1  1  0.81001400  0.81001400  0.00000000  1
loop_
_geom_bond_atom_site_label_1
_geom_bond_atom_site_label_2
_geom_bond_distance
_geom_bond_site_symmetry_2
Cu0 S1 2.304610 1_555
Cu0 S0 2.304610 1_454
Cu0 S1 2.304610 1_544
Cu0 S0 2.304610 1_555
S0 Sr0 3.058681 1_545
S0 Sr1 3.058681 1_556
S0 Sr1 3.058681 1_545
S0 Sr0 3.058681 1_556
S1 Sr1 3.058681 1_556
S1 Sr1 3.058681 1_455
S1 Sr0 3.058681 1_455
S1 Sr0 3.058681 1_556
Cl0 Sr0 2.972784 1_555
Cl0 Cu0 3.054242 1_555
Cl0 Sr1 3.422092 1_545
Cl0 Sr1 3.422092 1_455
Cl0 Sr1 3.422092 1_556
Cl0 Sr1 3.422092 1_444
Cl1 Sr1 2.972784 1_555
Cl1 Cu0 3.054242 1_665
Cl1 Sr0 3.422092 1_554
Cl1 Sr0 3.422092 1_565
Cl1 Sr0 3.422092 1_666
Cl1 Sr0 3.422092 1_655
