# generated using pymatgen
data_TbAsPd
_symmetry_space_group_name_H-M   'P 1'
_cell_length_a   4.13426336
_cell_length_b   7.08676292
_cell_length_c   7.91610306
_cell_angle_alpha   90.00000000
_cell_angle_beta   90.00000000
_cell_angle_gamma   90.00000000
_symmetry_Int_Tables_number   1
_chemical_formula_structural   TbAsPd
_chemical_formula_sum   'Tb4 As4 Pd4'
_cell_volume   231.93029604
_cell_formula_units_Z   4
loop_
 _symmetry_equiv_pos_site_id
 _symmetry_equiv_pos_as_xyz
  1  'x, y, z'
loop_
 _atom_site_type_symbol
 _atom_site_label
 _atom_site_symmetry_multiplicity
 _atom_site_fract_x
 _atom_site_fract_y
 _atom_site_fract_z
 _atom_site_occupancy
  Tb  Tb0  1  0.25000000  0.52911976  0.30686425  1
  Tb  Tb1  1  0.25000000  0.02911976  0.19313575  1
  Tb  Tb2  1  0.75000000  0.47088024  0.69313575  1
  Tb  Tb3  1  0.75000000  0.97088024  0.80686425  1
  As  As0  1  0.25000000  0.24938822  0.88102702  1
  As  As1  1  0.25000000  0.74938822  0.61897298  1
  As  As2  1  0.75000000  0.75061178  0.11897298  1
  As  As3  1  0.75000000  0.25061178  0.38102702  1
  Pd  Pd0  1  0.25000000  0.64519987  0.93686415  1
  Pd  Pd1  1  0.25000000  0.14519987  0.56313585  1
  Pd  Pd2  1  0.75000000  0.35480013  0.06313585  1
  Pd  Pd3  1  0.75000000  0.85480013  0.43686415  1
loop_
_geom_bond_atom_site_label_1
_geom_bond_atom_site_label_2
_geom_bond_distance
_geom_bond_site_symmetry_2
As0 Pd1 2.622545 1_555
As0 Pd2 2.628550 1_556
As0 Pd2 2.628550 1_456
As0 Pd0 2.839636 1_555
As0 Tb3 2.917750 1_545
As0 Tb3 2.917750 1_445
As0 Tb1 2.922495 1_556
As0 Tb2 2.991510 1_555
As0 Tb2 2.991510 1_455
As1 Pd0 2.622545 1_555
As1 Pd3 2.628550 1_555
As1 Pd3 2.628550 1_455
As1 Pd1 2.839636 1_565
As1 Tb2 2.917750 1_555
As1 Tb2 2.917750 1_455
As1 Tb0 2.922495 1_555
As1 Tb3 2.991510 1_455
As1 Tb3 2.991510 1_555
As2 Pd3 2.622545 1_555
As2 Pd0 2.628550 1_554
As2 Pd0 2.628550 1_654
As2 Pd2 2.839636 1_555
As2 Tb1 2.917750 1_565
As2 Tb1 2.917750 1_665
As2 Tb3 2.922495 1_554
As2 Tb0 2.991510 1_555
As2 Tb0 2.991510 1_655
As3 Pd2 2.622545 1_555
As3 Pd1 2.628550 1_555
As3 Pd1 2.628550 1_655
As3 Pd3 2.839636 1_545
As3 Tb0 2.917750 1_555
As3 Tb0 2.917750 1_655
As3 Tb2 2.922495 1_555
As3 Tb1 2.991510 1_655
As3 Tb1 2.991510 1_555
Pd0 Tb0 3.042289 1_556
Pd0 Pd2 3.083429 1_556
Pd0 Pd2 3.083429 1_456
Pd0 Tb2 3.085718 1_555
Pd0 Tb2 3.085718 1_455
Pd0 Tb3 3.264815 1_455
Pd0 Tb3 3.264815 1_555
Pd0 Tb1 3.393816 1_566
Pd1 Tb1 3.042289 1_555
Pd1 Pd3 3.083429 1_545
Pd1 Pd3 3.083429 1_445
Pd1 Tb3 3.085718 1_545
Pd1 Tb3 3.085718 1_445
Pd1 Tb2 3.264815 1_455
Pd1 Tb2 3.264815 1_555
Pd1 Tb0 3.393816 1_555
Pd2 Tb2 3.042289 1_554
Pd2 Tb0 3.085718 1_655
Pd2 Tb0 3.085718 1_555
Pd2 Tb1 3.264815 1_555
Pd2 Tb1 3.264815 1_655
Pd2 Tb3 3.393816 1_544
Pd3 Tb3 3.042289 1_555
Pd3 Tb1 3.085718 1_665
Pd3 Tb1 3.085718 1_565
Pd3 Tb0 3.264815 1_555
Pd3 Tb0 3.264815 1_655
Pd3 Tb2 3.393816 1_555
