# generated using pymatgen
data_Mg3Si4
_symmetry_space_group_name_H-M   'P 1'
_cell_length_a   4.32615000
_cell_length_b   8.01288900
_cell_length_c   8.15520756
_cell_angle_alpha   67.84238145
_cell_angle_beta   90.00000000
_cell_angle_gamma   90.00000000
_symmetry_Int_Tables_number   1
_chemical_formula_structural   Mg3Si4
_chemical_formula_sum   'Mg6 Si8'
_cell_volume   261.82249973
_cell_formula_units_Z   2
loop_
 _symmetry_equiv_pos_site_id
 _symmetry_equiv_pos_as_xyz
  1  'x, y, z'
loop_
 _atom_site_type_symbol
 _atom_site_label
 _atom_site_symmetry_multiplicity
 _atom_site_fract_x
 _atom_site_fract_y
 _atom_site_fract_z
 _atom_site_occupancy
  Mg  Mg0  1  0.00000000  0.54902400  0.10261200  1
  Mg  Mg1  1  0.50000000  0.84486900  0.05648400  1
  Mg  Mg2  1  0.50000000  0.90029500  0.43348700  1
  Mg  Mg3  1  0.00000000  0.92542900  0.76343100  1
  Mg  Mg4  1  0.50000000  0.50837800  0.40908000  1
  Mg  Mg5  1  0.00000000  0.14842300  0.11896500  1
  Si  Si0  1  0.00000000  0.63948000  0.63043800  1
  Si  Si1  1  0.50000000  0.66658600  0.80586700  1
  Si  Si2  1  0.00000000  0.24471700  0.44005300  1
  Si  Si3  1  0.50000000  0.14544000  0.57917200  1
  Si  Si4  1  0.00000000  0.77170500  0.30149100  1
  Si  Si5  1  0.00000000  0.32064000  0.70627200  1
  Si  Si6  1  0.50000000  0.38230300  0.05303600  1
  Si  Si7  1  0.50000000  0.19939200  0.85305700  1
loop_
_geom_bond_atom_site_label_1
_geom_bond_atom_site_label_2
_geom_bond_distance
_geom_bond_site_symmetry_2
Mg0 Si6 2.652252 1_455
Mg0 Si6 2.652252 1_555
Mg0 Si4 2.827953 1_555
Mg0 Si2 2.908107 1_555
Mg0 Si1 3.114991 1_554
Mg0 Si1 3.114991 1_454
Mg1 Si7 2.695778 1_564
Mg1 Si4 2.851549 1_555
Mg1 Si4 2.851549 1_655
Mg1 Si1 2.901800 1_554
Mg2 Si3 2.651513 1_565
Mg2 Si4 2.781362 1_555
Mg2 Si4 2.781362 1_655
Mg2 Si1 2.905086 1_555
Mg2 Si0 3.015674 1_655
Mg2 Si0 3.015674 1_555
Mg3 Si3 2.836648 1_565
Mg3 Si3 2.836648 1_465
Mg3 Si0 2.881112 1_555
Mg3 Si2 2.900171 1_565
Mg3 Si1 2.925583 1_555
Mg3 Si1 2.925583 1_455
Mg3 Si5 3.021970 1_565
Mg4 Si3 2.709011 1_555
Mg4 Si4 2.916229 1_655
Mg4 Si4 2.916229 1_555
Mg4 Si2 2.967087 1_555
Mg4 Si2 2.967087 1_655
Mg4 Si5 3.172668 1_555
Mg4 Si5 3.172668 1_655
Mg4 Si0 3.236008 1_555
Mg4 Si0 3.236008 1_655
Mg5 Si6 2.778489 1_555
Mg5 Si6 2.778489 1_455
Mg5 Si4 2.817506 1_545
Mg5 Si7 2.979963 1_554
Mg5 Si7 2.979963 1_454
Mg5 Si2 2.996022 1_555
Mg5 Si5 3.119009 1_554
Si0 Si5 2.391192 1_555
Si0 Si4 2.484977 1_555
Si0 Si1 2.647121 1_455
Si0 Si1 2.647121 1_555
Si1 Si6 2.405935 1_556
Si2 Si3 2.432717 1_555
Si2 Si3 2.432717 1_455
Si2 Si5 2.465755 1_555
Si3 Si7 2.429852 1_555
Si5 Si7 2.485657 1_455
Si5 Si7 2.485657 1_555
Si6 Si7 2.571161 1_554
