# generated using pymatgen
data_Er3Mg
_symmetry_space_group_name_H-M   'P 1'
_cell_length_a   6.93469684
_cell_length_b   6.93469684
_cell_length_c   5.49790765
_cell_angle_alpha   90.00000000
_cell_angle_beta   90.00000000
_cell_angle_gamma   120.00000665
_symmetry_Int_Tables_number   1
_chemical_formula_structural   Er3Mg
_chemical_formula_sum   'Er6 Mg2'
_cell_volume   228.97232969
_cell_formula_units_Z   2
loop_
 _symmetry_equiv_pos_site_id
 _symmetry_equiv_pos_as_xyz
  1  'x, y, z'
loop_
 _atom_site_type_symbol
 _atom_site_label
 _atom_site_symmetry_multiplicity
 _atom_site_fract_x
 _atom_site_fract_y
 _atom_site_fract_z
 _atom_site_occupancy
  Er  Er0  1  0.16955171  0.33910142  0.25000000  1
  Er  Er1  1  0.16955171  0.83044829  0.25000000  1
  Er  Er2  1  0.66089858  0.83044829  0.25000000  1
  Er  Er3  1  0.33910142  0.16955171  0.75000000  1
  Er  Er4  1  0.83044829  0.16955171  0.75000000  1
  Er  Er5  1  0.83044829  0.66089858  0.75000000  1
  Mg  Mg0  1  0.66666700  0.33333300  0.25000000  1
  Mg  Mg1  1  0.33333300  0.66666700  0.75000000  1
loop_
_geom_bond_atom_site_label_1
_geom_bond_atom_site_label_2
_geom_bond_distance
_geom_bond_site_symmetry_2
Er0 Mg1 3.380349 1_555
Er0 Mg1 3.380349 1_554
Er0 Er2 3.407341 1_555
Er0 Er1 3.407342 1_555
Er0 Er3 3.421125 1_554
Er0 Er3 3.421125 1_555
Er0 Er4 3.421139 1_455
Er0 Er4 3.421139 1_454
Er0 Mg0 3.467518 1_555
Er0 Mg0 3.467525 1_455
Er0 Er2 3.527355 1_445
Er0 Er1 3.527355 1_545
Er1 Mg1 3.380339 1_554
Er1 Mg1 3.380339 1_555
Er1 Er2 3.407342 1_555
Er1 Er3 3.421139 1_565
Er1 Er3 3.421139 1_564
Er1 Er5 3.421139 1_455
Er1 Er5 3.421139 1_454
Er1 Mg0 3.467521 1_455
Er1 Mg0 3.467521 1_565
Er1 Er2 3.527355 1_455
Er2 Mg1 3.380349 1_555
Er2 Mg1 3.380349 1_554
Er2 Er5 3.421125 1_554
Er2 Er5 3.421125 1_555
Er2 Er4 3.421139 1_564
Er2 Er4 3.421139 1_565
Er2 Mg0 3.467518 1_555
Er2 Mg0 3.467525 1_565
Er3 Mg0 3.380349 1_556
Er3 Mg0 3.380349 1_555
Er3 Er5 3.407341 1_555
Er3 Er4 3.407342 1_555
Er3 Mg1 3.467518 1_555
Er3 Mg1 3.467525 1_545
Er3 Er5 3.527355 1_445
Er3 Er4 3.527355 1_455
Er4 Mg0 3.380339 1_555
Er4 Mg0 3.380339 1_556
Er4 Er5 3.407342 1_555
Er4 Mg1 3.467521 1_655
Er4 Mg1 3.467521 1_545
Er4 Er5 3.527355 1_545
Er5 Mg0 3.380349 1_556
Er5 Mg0 3.380349 1_555
Er5 Mg1 3.467518 1_555
Er5 Mg1 3.467525 1_655
