# generated using pymatgen
data_SrCaPb6
_symmetry_space_group_name_H-M   'P 1'
_cell_length_a   4.96146953
_cell_length_b   4.96146953
_cell_length_c   9.91244194
_cell_angle_alpha   90.00000000
_cell_angle_beta   90.00000000
_cell_angle_gamma   90.00000000
_symmetry_Int_Tables_number   1
_chemical_formula_structural   SrCaPb6
_chemical_formula_sum   'Sr1 Ca1 Pb6'
_cell_volume   244.00645401
_cell_formula_units_Z   1
loop_
 _symmetry_equiv_pos_site_id
 _symmetry_equiv_pos_as_xyz
  1  'x, y, z'
loop_
 _atom_site_type_symbol
 _atom_site_label
 _atom_site_symmetry_multiplicity
 _atom_site_fract_x
 _atom_site_fract_y
 _atom_site_fract_z
 _atom_site_occupancy
  Sr  Sr0  1  0.00000000  0.00000000  0.50000000  1
  Ca  Ca0  1  0.00000000  0.00000000  0.00000000  1
  Pb  Pb0  1  0.50000000  0.00000000  0.24479490  1
  Pb  Pb1  1  0.50000000  0.00000000  0.75520510  1
  Pb  Pb2  1  0.00000000  0.50000000  0.24479490  1
  Pb  Pb3  1  0.00000000  0.50000000  0.75520510  1
  Pb  Pb4  1  0.50000000  0.50000000  0.00000000  1
  Pb  Pb5  1  0.50000000  0.50000000  0.50000000  1
loop_
_geom_bond_atom_site_label_1
_geom_bond_atom_site_label_2
_geom_bond_distance
_geom_bond_site_symmetry_2
Ca0 Pb0 3.470162 1_455
Ca0 Pb2 3.470162 1_545
Ca0 Pb2 3.470162 1_555
Ca0 Pb0 3.470162 1_555
Ca0 Pb3 3.470162 1_554
Ca0 Pb1 3.470162 1_554
Ca0 Pb3 3.470162 1_544
Ca0 Pb1 3.470162 1_454
Ca0 Pb4 3.508289 1_455
Ca0 Pb4 3.508289 1_445
Ca0 Pb4 3.508289 1_555
Ca0 Pb4 3.508289 1_545
Pb0 Pb4 3.470162 1_555
Pb0 Pb4 3.470162 1_545
Pb0 Pb2 3.508289 1_545
Pb0 Pb2 3.508289 1_655
Pb0 Pb2 3.508289 1_645
Pb0 Pb2 3.508289 1_555
Pb0 Sr0 3.543086 1_555
Pb0 Pb5 3.543086 1_545
Pb0 Pb5 3.543086 1_555
Pb0 Sr0 3.543086 1_655
Pb1 Pb4 3.470162 1_556
Pb1 Pb4 3.470162 1_546
Pb1 Pb3 3.508289 1_645
Pb1 Pb3 3.508289 1_545
Pb1 Pb3 3.508289 1_555
Pb1 Pb3 3.508289 1_655
Pb1 Sr0 3.543086 1_655
Pb1 Sr0 3.543086 1_555
Pb1 Pb5 3.543086 1_555
Pb1 Pb5 3.543086 1_545
Pb2 Pb4 3.470162 1_455
Pb2 Pb4 3.470162 1_555
Pb2 Sr0 3.543086 1_555
Pb2 Pb5 3.543086 1_555
Pb2 Pb5 3.543086 1_455
Pb2 Sr0 3.543086 1_565
Pb3 Pb4 3.470162 1_556
Pb3 Pb4 3.470162 1_456
Pb3 Sr0 3.543086 1_555
Pb3 Pb5 3.543086 1_555
Pb3 Pb5 3.543086 1_455
Pb3 Sr0 3.543086 1_565
Pb5 Sr0 3.508289 1_665
Pb5 Sr0 3.508289 1_565
Pb5 Sr0 3.508289 1_655
Pb5 Sr0 3.508289 1_555
