# generated using pymatgen
data_NbReMo2
_symmetry_space_group_name_H-M   'P 1'
_cell_length_a   10.51040007
_cell_length_b   10.51040007
_cell_length_c   10.51040007
_cell_angle_alpha   128.40955419
_cell_angle_beta   117.60184969
_cell_angle_gamma   85.14679812
_symmetry_Int_Tables_number   1
_chemical_formula_structural   NbReMo2
_chemical_formula_sum   'Nb1 Re1 Mo2'
_cell_volume   770.94606123
_cell_formula_units_Z   1
loop_
 _symmetry_equiv_pos_site_id
 _symmetry_equiv_pos_as_xyz
  1  'x, y, z'
loop_
 _atom_site_type_symbol
 _atom_site_label
 _atom_site_symmetry_multiplicity
 _atom_site_fract_x
 _atom_site_fract_y
 _atom_site_fract_z
 _atom_site_occupancy
  Nb  Nb0  1  0.00000000  0.00000000  0.00000000  1
  Re  Re0  1  0.00000000  0.50000000  0.50000000  1
  Mo  Mo0  1  0.00000000  0.25176500  0.25176500  1
  Mo  Mo1  1  0.00000000  0.74823500  0.74823500  1
loop_
_geom_bond_atom_site_label_1
_geom_bond_atom_site_label_2
_geom_bond_distance
_geom_bond_site_symmetry_2
Mo0 Re0 2.270687 1_555
Mo0 Nb0 2.302977 1_555
Mo1 Re0 2.270687 1_555
Mo1 Nb0 2.302977 1_566
