# generated using pymatgen
data_Li3MnCoO5
_symmetry_space_group_name_H-M   'P 1'
_cell_length_a   5.01866000
_cell_length_b   5.89205468
_cell_length_c   6.60352149
_cell_angle_alpha   103.49887804
_cell_angle_beta   97.42711100
_cell_angle_gamma   106.84673003
_symmetry_Int_Tables_number   1
_chemical_formula_structural   Li3MnCoO5
_chemical_formula_sum   'Li6 Mn2 Co2 O10'
_cell_volume   177.61000321
_cell_formula_units_Z   2
loop_
 _symmetry_equiv_pos_site_id
 _symmetry_equiv_pos_as_xyz
  1  'x, y, z'
loop_
 _atom_site_type_symbol
 _atom_site_label
 _atom_site_symmetry_multiplicity
 _atom_site_fract_x
 _atom_site_fract_y
 _atom_site_fract_z
 _atom_site_occupancy
  Li  Li0  1  0.19427800  0.89821000  0.40441000  1
  Li  Li1  1  0.99933700  0.49747200  0.99433100  1
  Li  Li2  1  0.40276200  0.30280600  0.79510800  1
  Li  Li3  1  0.60528400  0.69722700  0.20511100  1
  Li  Li4  1  0.79420200  0.10310300  0.59750600  1
  Li  Li5  1  0.79753900  0.59784900  0.60043100  1
  Mn  Mn0  1  0.99944600  0.99728400  0.99617900  1
  Mn  Mn1  1  0.39686100  0.79552300  0.79490700  1
  Co  Co0  1  0.61411400  0.21842100  0.21193100  1
  Co  Co1  1  0.21134200  0.40220700  0.41020100  1
  O  O0  1  0.29523500  0.86465600  0.08003400  1
  O  O1  1  0.12456300  0.47265100  0.70352400  1
  O  O2  1  0.48311100  0.25097300  0.48539900  1
  O  O3  1  0.69870600  0.68007700  0.90284300  1
  O  O4  1  0.90085400  0.04954000  0.27943500  1
  O  O5  1  0.11375400  0.94653300  0.72554600  1
  O  O6  1  0.89654000  0.52442500  0.29362400  1
  O  O7  1  0.28677000  0.32633600  0.10115200  1
  O  O8  1  0.48151100  0.75025700  0.51803900  1
  O  O9  1  0.70379100  0.12445000  0.90028800  1
loop_
_geom_bond_atom_site_label_1
_geom_bond_atom_site_label_2
_geom_bond_distance
_geom_bond_site_symmetry_2
Li0 O8 2.038402 1_555
Li0 O2 2.059529 1_565
Li0 O4 2.105957 1_465
Li0 O6 2.162429 1_455
Li0 O5 2.178949 1_555
Li0 O0 2.241652 1_555
Li1 O1 2.082853 1_655
Li1 O6 2.088551 1_556
Li1 O7 2.123045 1_656
Li1 O0 2.134256 1_656
Li1 O9 2.156706 1_555
Li1 O3 2.192642 1_555
Li2 O1 2.047114 1_555
Li2 O5 2.081851 1_545
Li2 O2 2.105135 1_555
Li2 O7 2.159288 1_556
Li2 O3 2.174451 1_555
Li2 O9 2.204287 1_555
Li3 O4 2.074062 1_565
Li3 O3 2.095096 1_554
Li3 O6 2.105820 1_555
Li3 O7 2.189349 1_555
Li3 O8 2.212809 1_555
Li3 O0 2.239302 1_555
Li4 O9 2.090366 1_555
Li4 O8 2.108783 1_545
Li4 O2 2.129652 1_555
Li4 O1 2.208127 1_655
Li4 O4 2.208353 1_555
Li4 O5 2.238076 1_645
Li5 O2 2.083321 1_555
Li5 O1 2.085322 1_655
Li5 O5 2.097788 1_655
Li5 O3 2.100567 1_555
Li5 O8 2.109139 1_555
Li5 O6 2.124703 1_555
Mn0 O5 1.930635 1_655
Mn0 O3 1.933316 1_555
Mn0 O0 1.944947 1_656
Mn0 O9 1.946023 1_565
Mn0 O7 1.952546 1_666
Mn0 O4 1.974097 1_566
Mn1 O1 1.895970 1_555
Mn1 O8 1.906079 1_555
Mn1 O5 1.942923 1_555
Mn1 O3 1.951915 1_555
Mn1 O9 1.993979 1_565
Mn1 O0 1.995439 1_556
Co0 O6 1.848728 1_555
Co0 O2 1.987078 1_555
Co0 O4 2.032469 1_555
Co0 O7 2.037213 1_555
Co0 O0 2.126744 1_545
Co0 O9 2.143868 1_554
Co1 O2 1.907040 1_555
Co1 O8 2.001987 1_555
Co1 O1 2.015271 1_555
Co1 O6 2.052080 1_455
Co1 O7 2.092832 1_555
Co1 O4 2.104574 1_455
