# generated using pymatgen
data_Li(NiGe)6
_symmetry_space_group_name_H-M   'P 1'
_cell_length_a   8.67223765
_cell_length_b   8.67230365
_cell_length_c   7.74390465
_cell_angle_alpha   89.99998170
_cell_angle_beta   89.99998488
_cell_angle_gamma   119.99770363
_symmetry_Int_Tables_number   1
_chemical_formula_structural   Li(NiGe)6
_chemical_formula_sum   'Li3 Ni18 Ge18'
_cell_volume   504.38983300
_cell_formula_units_Z   3
loop_
 _symmetry_equiv_pos_site_id
 _symmetry_equiv_pos_as_xyz
  1  'x, y, z'
loop_
 _atom_site_type_symbol
 _atom_site_label
 _atom_site_symmetry_multiplicity
 _atom_site_fract_x
 _atom_site_fract_y
 _atom_site_fract_z
 _atom_site_occupancy
  Li  Li0  1  0.33333024  0.66664954  0.00001745  1
  Li  Li1  1  0.66672167  0.33335485  0.00001742  1
  Li  Li2  1  -0.00001909  -0.00000015  0.49996660  1
  Ni  Ni0  1  0.16680200  0.33377334  0.24509415  1
  Ni  Ni1  1  0.83310002  0.16697360  0.24507748  1
  Ni  Ni2  1  0.33394473  0.16699615  0.24508123  1
  Ni  Ni3  1  0.66592071  0.83296726  0.24505918  1
  Ni  Ni4  1  0.16679958  0.83304567  0.24509635  1
  Ni  Ni5  1  0.83311795  0.66621105  0.75489572  1
  Ni  Ni6  1  0.83309667  0.16697613  0.75491173  1
  Ni  Ni7  1  0.83312058  0.66621382  0.24509387  1
  Ni  Ni8  1  0.33394431  0.16699646  0.75490737  1
  Ni  Ni9  1  0.66591985  0.83296670  0.75492901  1
  Ni  Ni10  1  0.16680215  0.33377408  0.75489482  1
  Ni  Ni11  1  0.16680117  0.83304371  0.75489261  1
  Ni  Ni12  1  0.50009033  0.00000745  0.26123308  1
  Ni  Ni13  1  0.50008322  0.50001542  0.26122910  1
  Ni  Ni14  1  0.00007495  0.50000015  0.26124227  1
  Ni  Ni15  1  0.50009154  0.00000792  0.73878712  1
  Ni  Ni16  1  0.50008381  0.50001614  0.73879229  1
  Ni  Ni17  1  0.00007504  0.50000060  0.73877889  1
  Ge  Ge0  1  0.34181252  0.00001500  0.00001414  1
  Ge  Ge1  1  0.34180992  0.34177964  0.00001372  1
  Ge  Ge2  1  0.00001911  0.65822214  0.00001372  1
  Ge  Ge3  1  0.00002172  0.34178975  0.00001379  1
  Ge  Ge4  1  0.65821986  0.65821316  0.00001282  1
  Ge  Ge5  1  0.65820972  0.99998925  0.00001337  1
  Ge  Ge6  1  0.32415062  -0.00000968  0.49998441  1
  Ge  Ge7  1  0.32415472  0.32417281  0.49998481  1
  Ge  Ge8  1  -0.00000902  0.67582913  0.49998469  1
  Ge  Ge9  1  -0.00001186  0.32416209  0.49998452  1
  Ge  Ge10  1  0.67583280  0.67583660  0.49998566  1
  Ge  Ge11  1  0.67584471  0.00000751  0.49998513  1
  Ge  Ge12  1  0.33332919  0.66665166  0.33806321  1
  Ge  Ge13  1  0.66671855  0.33335255  0.33806381  1
  Ge  Ge14  1  0.66671891  0.33335258  0.66196232  1
  Ge  Ge15  1  0.33332892  0.66665141  0.66196316  1
  Ge  Ge16  1  -0.00002743  -0.00000184  0.16103684  1
  Ge  Ge17  1  -0.00002737  -0.00000165  0.83892015  1
loop_
_geom_bond_atom_site_label_1
_geom_bond_atom_site_label_2
_geom_bond_distance
_geom_bond_site_symmetry_2
Li0 Ni3 3.136958 1_555
Li0 Ni9 3.137171 1_554
Li0 Ni0 3.138845 1_555
Li0 Ni10 3.139057 1_554
Li0 Ni4 3.139082 1_555
Li0 Ni11 3.139276 1_554
Li1 Ni1 3.137994 1_555
Li1 Ni6 3.138172 1_554
Li1 Ni2 3.138176 1_555
Li1 Ni8 3.138396 1_554
Li1 Ni7 3.138742 1_555
Li1 Ni5 3.138936 1_554
Li2 Ni4 3.190487 1_545
Li2 Ni0 3.190576 1_555
Li2 Ni7 3.190653 1_445
Li2 Ni11 3.190775 1_545
Li2 Ni10 3.190849 1_555
Li2 Ni5 3.190938 1_445
Li2 Ni1 3.191060 1_455
Li2 Ni6 3.191363 1_455
Li2 Ni2 3.191746 1_555
Li2 Ni8 3.192011 1_555
Li2 Ni3 3.192422 1_445
Li2 Ni9 3.192689 1_445
Ni0 Ni14 2.503716 1_555
Ni0 Ni13 2.506245 1_555
Ni0 Ni1 2.506286 1_455
Ni0 Ni2 2.507846 1_555
Ni1 Ni12 2.504217 1_555
Ni1 Ni14 2.504366 1_655
Ni1 Ni3 2.508592 1_545
Ni2 Ni4 2.508172 1_545
Ni3 Ni7 2.508097 1_555
Ni4 Ni7 2.506113 1_455
Ni5 Ni9 2.508100 1_555
Ni6 Ni9 2.508615 1_545
Ni10 Ni17 2.503702 1_555
Ni10 Ni16 2.506235 1_555
Ni10 Ni6 2.506312 1_455
Ni10 Ni8 2.507845 1_555
Ni11 Ni17 2.504468 1_555
Ni11 Ni5 2.506145 1_455
Ni11 Ni15 2.506301 1_565
Ni11 Ni8 2.508189 1_565
Ni12 Ni3 2.503106 1_545
Ni12 Ni2 2.505072 1_555
Ni12 Ni4 2.506316 1_545
Ni13 Ni3 2.503810 1_555
Ni13 Ni2 2.504304 1_555
Ni13 Ni7 2.504415 1_555
Ni14 Ni4 2.504498 1_555
Ni14 Ni7 2.505323 1_455
Ni15 Ni9 2.503085 1_545
Ni15 Ni6 2.504171 1_555
Ni15 Ni8 2.505071 1_555
Ni16 Ni9 2.503788 1_555
Ni16 Ni8 2.504294 1_555
Ni16 Ni5 2.504378 1_555
Ni17 Ni6 2.504338 1_455
Ni17 Ni5 2.505308 1_455
Ge0 Ni2 2.408742 1_555
Ge0 Ni8 2.408986 1_554
Ge0 Ni4 2.409301 1_545
Ge0 Ni11 2.409543 1_544
Ge0 Ni12 2.444611 1_555
Ge0 Ni15 2.444667 1_554
Ge0 Li0 2.854980 1_545
Ge0 Li1 2.855059 1_555
Ge1 Ni2 2.408404 1_555
Ge1 Ni8 2.408639 1_554
Ge1 Ni0 2.409323 1_555
Ge1 Ni10 2.409560 1_554
Ge1 Ni13 2.444487 1_555
Ge1 Ni16 2.444528 1_554
Ge1 Li0 2.854847 1_555
Ge1 Li1 2.854942 1_555
Ge2 Ni4 2.408297 1_555
Ge2 Ni11 2.408528 1_554
Ge2 Ni7 2.408727 1_455
Ge2 Ni5 2.408965 1_454
Ge2 Ni14 2.444524 1_555
Ge2 Ni17 2.444563 1_554
Ge2 Li1 2.854692 1_455
Ge2 Li0 2.854715 1_555
Ge3 Ni0 2.408169 1_555
Ge3 Ni10 2.408402 1_554
Ge3 Ni1 2.408509 1_455
Ge3 Ni6 2.408746 1_454
Ge3 Ni14 2.444202 1_555
Ge3 Ni17 2.444245 1_554
Ge3 Li1 2.854588 1_455
Ge3 Li0 2.854711 1_555
Ge4 Ni3 2.408528 1_555
Ge4 Ni9 2.408754 1_554
Ge4 Ni7 2.408770 1_555
Ge4 Ni5 2.408982 1_554
Ge4 Ni13 2.444066 1_555
Ge4 Ni16 2.444092 1_554
Ge4 Li0 2.854802 1_555
Ge4 Li1 2.854846 1_555
Ge5 Ni3 2.408382 1_555
Ge5 Ni9 2.408619 1_554
Ge5 Ni1 2.408879 1_565
Ge5 Ni6 2.409104 1_564
Ge5 Ni12 2.443871 1_565
Ge5 Ni15 2.443908 1_564
Ge5 Li1 2.854857 1_565
Ge5 Li0 2.854934 1_555
Ge6 Ni12 2.397107 1_555
Ge6 Ni15 2.397420 1_555
Ge6 Ni2 2.424523 1_555
Ge6 Ni4 2.424604 1_545
Ge6 Ni8 2.424651 1_555
Ge6 Ni11 2.424731 1_545
Ge6 Li2 2.811318 1_555
Ge7 Ni13 2.396918 1_555
Ge7 Ni16 2.397233 1_555
Ge7 Ni2 2.424335 1_555
Ge7 Ni8 2.424452 1_555
Ge7 Ni0 2.424614 1_555
Ge7 Ni10 2.424737 1_555
Ge7 Li2 2.811417 1_555
Ge8 Ni14 2.396730 1_555
Ge8 Ni17 2.397036 1_555
Ge8 Ni4 2.423923 1_555
Ge8 Ni11 2.424048 1_555
Ge8 Ni7 2.424168 1_455
Ge8 Ni5 2.424301 1_455
Ge8 Li2 2.811351 1_565
Ge9 Ni14 2.396307 1_555
Ge9 Ni17 2.396621 1_555
Ge9 Ni0 2.423889 1_555
Ge9 Ni10 2.424015 1_555
Ge9 Ni1 2.424196 1_455
Ge9 Ni6 2.424325 1_455
Ge9 Li2 2.811202 1_555
Ge10 Ni13 2.396372 1_555
Ge10 Ni16 2.396666 1_555
Ge10 Ni7 2.424355 1_555
Ge10 Ni5 2.424465 1_555
Ge10 Ni3 2.424583 1_555
Ge10 Ni9 2.424689 1_555
Ge10 Li2 2.811263 1_665
Ge11 Ni12 2.396136 1_555
Ge11 Ni15 2.396429 1_555
Ge11 Ni3 2.424544 1_545
Ge11 Ni1 2.424566 1_555
Ge11 Ni9 2.424657 1_545
Ge11 Ni6 2.424686 1_555
Ge11 Li2 2.811019 1_655
Ge12 Ge15 2.508250 1_555
Ge12 Ni14 2.572649 1_555
Ge12 Ni12 2.573426 1_565
Ge12 Ni13 2.573592 1_555
Ge12 Ni3 2.599700 1_555
Ge12 Ni0 2.601714 1_555
Ge12 Ni4 2.601943 1_555
Ge12 Li0 2.617794 1_555
Ge13 Ge14 2.508239 1_555
Ge13 Ni13 2.572920 1_555
Ge13 Ni12 2.573349 1_555
Ge13 Ni14 2.573396 1_655
Ge13 Ni1 2.600807 1_555
Ge13 Ni2 2.600970 1_555
Ge13 Ni7 2.601592 1_555
Ge13 Li1 2.617799 1_555
Ge14 Ni16 2.572915 1_555
Ge14 Ni15 2.573335 1_555
Ge14 Ni17 2.573386 1_655
Ge14 Ni6 2.600683 1_555
Ge14 Ni8 2.600895 1_555
Ge14 Ni5 2.601494 1_555
Ge14 Li1 2.617866 1_556
Ge15 Ni17 2.572637 1_555
Ge15 Ni15 2.573421 1_565
Ge15 Ni16 2.573582 1_555
Ge15 Ni9 2.599615 1_555
Ge15 Ni10 2.601626 1_555
Ge15 Ni11 2.601837 1_555
Ge15 Li0 2.617860 1_556
Ge16 Ge17 2.494441 1_554
Ge16 Ni4 2.589929 1_545
Ge16 Ni0 2.589988 1_555
Ge16 Ni7 2.590053 1_445
Ge16 Ni1 2.590391 1_455
Ge16 Ni2 2.591376 1_555
Ge16 Ni3 2.591912 1_445
Ge16 Li2 2.624640 1_555
Ge17 Ni11 2.589894 1_545
Ge17 Ni10 2.589929 1_555
Ge17 Ni5 2.590012 1_445
Ge17 Ni6 2.590370 1_455
Ge17 Ni8 2.591310 1_555
Ge17 Ni9 2.591858 1_445
Ge17 Li2 2.624824 1_555
