# generated using pymatgen
data_LiGdSe2
_symmetry_space_group_name_H-M   'P 1'
_cell_length_a   4.12606300
_cell_length_b   4.12606300
_cell_length_c   5.60656200
_cell_angle_alpha   90.00000000
_cell_angle_beta   90.00000000
_cell_angle_gamma   90.00000000
_symmetry_Int_Tables_number   1
_chemical_formula_structural   LiGdSe2
_chemical_formula_sum   'Li1 Gd1 Se2'
_cell_volume   95.44833101
_cell_formula_units_Z   1
loop_
 _symmetry_equiv_pos_site_id
 _symmetry_equiv_pos_as_xyz
  1  'x, y, z'
loop_
 _atom_site_type_symbol
 _atom_site_label
 _atom_site_symmetry_multiplicity
 _atom_site_fract_x
 _atom_site_fract_y
 _atom_site_fract_z
 _atom_site_occupancy
  Li  Li0  1  0.00000000  0.00000000  0.00000000  1
  Gd  Gd0  1  0.50000000  0.50000000  0.50000000  1
  Se  Se0  1  0.00000000  0.00000000  0.50000000  1
  Se  Se1  1  0.50000000  0.50000000  0.00000000  1
loop_
_geom_bond_atom_site_label_1
_geom_bond_atom_site_label_2
_geom_bond_distance
_geom_bond_site_symmetry_2
Li0 Se0 2.803281 1_555
Li0 Se0 2.803281 1_554
Li0 Se1 2.917567 1_445
Li0 Se1 2.917567 1_455
Li0 Se1 2.917567 1_555
Li0 Se1 2.917567 1_545
Gd0 Se1 2.803281 1_555
Gd0 Se1 2.803281 1_556
Gd0 Se0 2.917567 1_565
Gd0 Se0 2.917567 1_555
Gd0 Se0 2.917567 1_655
Gd0 Se0 2.917567 1_665
