# generated using pymatgen
data_Sm6Al43W4
_symmetry_space_group_name_H-M   'P 1'
_cell_length_a   11.09532437
_cell_length_b   11.09525642
_cell_length_c   17.75290109
_cell_angle_alpha   90.00000000
_cell_angle_beta   90.00000000
_cell_angle_gamma   120.00019802
_symmetry_Int_Tables_number   1
_chemical_formula_structural   Sm6Al43W4
_chemical_formula_sum   'Sm12 Al86 W8'
_cell_volume   1892.67674349
_cell_formula_units_Z   2
loop_
 _symmetry_equiv_pos_site_id
 _symmetry_equiv_pos_as_xyz
  1  'x, y, z'
loop_
 _atom_site_type_symbol
 _atom_site_label
 _atom_site_symmetry_multiplicity
 _atom_site_fract_x
 _atom_site_fract_y
 _atom_site_fract_z
 _atom_site_occupancy
  Sm  Sm0  1  0.53070498  0.00000000  0.59554499  1
  Sm  Sm1  1  0.46928952  0.46929271  0.59554550  1
  Sm  Sm2  1  0.99999682  0.53070729  0.59554550  1
  Sm  Sm3  1  0.46929502  1.00000000  0.40445501  1
  Sm  Sm4  1  0.53071048  0.53070729  0.40445450  1
  Sm  Sm5  1  0.00000318  0.46929271  0.40445450  1
  Sm  Sm6  1  0.46929502  1.00000000  0.09554499  1
  Sm  Sm7  1  0.53071048  0.53070729  0.09554550  1
  Sm  Sm8  1  0.00000318  0.46929271  0.09554550  1
  Sm  Sm9  1  0.53070498  0.00000000  0.90445501  1
  Sm  Sm10  1  0.46928952  0.46929271  0.90445450  1
  Sm  Sm11  1  0.99999682  0.53070729  0.90445450  1
  Al  Al0  1  0.15826958  0.39395096  0.66442566  1
  Al  Al1  1  0.23567437  0.84173300  0.66442756  1
  Al  Al2  1  0.60604523  0.76432454  0.66442648  1
  Al  Al3  1  0.76431862  0.60604904  0.66442566  1
  Al  Al4  1  0.39394136  0.15826700  0.66442756  1
  Al  Al5  1  0.84172068  0.23567546  0.66442648  1
  Al  Al6  1  0.84173042  0.60604904  0.33557434  1
  Al  Al7  1  0.76432563  0.15826700  0.33557244  1
  Al  Al8  1  0.39395477  0.23567546  0.33557352  1
  Al  Al9  1  0.23568138  0.39395096  0.33557434  1
  Al  Al10  1  0.60605864  0.84173300  0.33557244  1
  Al  Al11  1  0.15827932  0.76432454  0.33557352  1
  Al  Al12  1  0.84173042  0.60604904  0.16442566  1
  Al  Al13  1  0.76432563  0.15826700  0.16442756  1
  Al  Al14  1  0.39395477  0.23567546  0.16442648  1
  Al  Al15  1  0.23568138  0.39395096  0.16442566  1
  Al  Al16  1  0.60605864  0.84173300  0.16442756  1
  Al  Al17  1  0.15827932  0.76432454  0.16442648  1
  Al  Al18  1  0.15826958  0.39395096  0.83557434  1
  Al  Al19  1  0.23567437  0.84173300  0.83557244  1
  Al  Al20  1  0.60604523  0.76432454  0.83557352  1
  Al  Al21  1  0.76431862  0.60604904  0.83557434  1
  Al  Al22  1  0.39394136  0.15826700  0.83557244  1
  Al  Al23  1  0.84172068  0.23567546  0.83557352  1
  Al  Al24  1  0.15845427  0.00000000  0.11524615  1
  Al  Al25  1  0.84154494  0.84154311  0.11524439  1
  Al  Al26  1  0.00000183  0.15845689  0.11524439  1
  Al  Al27  1  0.84154573  1.00000000  0.88475385  1
  Al  Al28  1  0.15845506  0.15845689  0.88475561  1
  Al  Al29  1  0.99999817  0.84154311  0.88475561  1
  Al  Al30  1  0.84154573  1.00000000  0.61524615  1
  Al  Al31  1  0.15845506  0.15845689  0.61524439  1
  Al  Al32  1  0.99999817  0.84154311  0.61524439  1
  Al  Al33  1  0.15845427  0.00000000  0.38475385  1
  Al  Al34  1  0.84154494  0.84154311  0.38475561  1
  Al  Al35  1  0.00000183  0.15845689  0.38475561  1
  Al  Al36  1  0.25250643  0.00000000  0.53092748  1
  Al  Al37  1  0.74749366  0.74749248  0.53092819  1
  Al  Al38  1  0.00000118  0.25250752  0.53092819  1
  Al  Al39  1  0.74749357  1.00000000  0.46907252  1
  Al  Al40  1  0.25250634  0.25250752  0.46907181  1
  Al  Al41  1  0.99999882  0.74749248  0.46907181  1
  Al  Al42  1  0.74749357  1.00000000  0.03092748  1
  Al  Al43  1  0.25250634  0.25250752  0.03092819  1
  Al  Al44  1  0.99999882  0.74749248  0.03092819  1
  Al  Al45  1  0.25250643  0.00000000  0.96907252  1
  Al  Al46  1  0.74749366  0.74749248  0.96907181  1
  Al  Al47  1  0.00000118  0.25250752  0.96907181  1
  Al  Al48  1  0.14742597  0.59558710  0.75000000  1
  Al  Al49  1  0.44815491  0.85257126  0.75000000  1
  Al  Al50  1  0.40440994  0.55184517  0.75000000  1
  Al  Al51  1  0.55183887  0.40441290  0.75000000  1
  Al  Al52  1  0.59558365  0.14742874  0.75000000  1
  Al  Al53  1  0.85256477  0.44815483  0.75000000  1
  Al  Al54  1  0.85257403  0.40441290  0.25000000  1
  Al  Al55  1  0.55184509  0.14742874  0.25000000  1
  Al  Al56  1  0.59559006  0.44815483  0.25000000  1
  Al  Al57  1  0.44816113  0.59558710  0.25000000  1
  Al  Al58  1  0.40441635  0.85257126  0.25000000  1
  Al  Al59  1  0.14743523  0.55184517  0.25000000  1
  Al  Al60  1  0.24685893  0.49371786  0.50000000  1
  Al  Al61  1  0.24685469  0.75314243  0.49999696  1
  Al  Al62  1  0.50628774  0.75314243  0.50000304  1
  Al  Al63  1  0.75314107  0.50628214  0.50000000  1
  Al  Al64  1  0.49371226  0.24685757  0.49999696  1
  Al  Al65  1  0.75314531  0.24685757  0.50000304  1
  Al  Al66  1  0.75314107  0.50628214  0.00000000  1
  Al  Al67  1  0.75314531  0.24685757  0.99999696  1
  Al  Al68  1  0.49371226  0.24685757  0.00000304  1
  Al  Al69  1  0.24685893  0.49371786  0.00000000  1
  Al  Al70  1  0.50628774  0.75314243  0.99999696  1
  Al  Al71  1  0.24685469  0.75314243  0.00000304  1
  Al  Al72  1  0.33332999  0.66666877  0.62664007  1
  Al  Al73  1  0.66666123  0.33333123  0.62664007  1
  Al  Al74  1  0.66667001  0.33333123  0.37335993  1
  Al  Al75  1  0.33333877  0.66666877  0.37335993  1
  Al  Al76  1  0.66667001  0.33333123  0.12664007  1
  Al  Al77  1  0.33333877  0.66666877  0.12664007  1
  Al  Al78  1  0.33332999  0.66666877  0.87335993  1
  Al  Al79  1  0.66666123  0.33333123  0.87335993  1
  Al  Al80  1  0.14695418  0.00000000  0.75000000  1
  Al  Al81  1  0.85303780  0.85303871  0.75000000  1
  Al  Al82  1  0.99999909  0.14696129  0.75000000  1
  Al  Al83  1  0.85304582  1.00000000  0.25000000  1
  Al  Al84  1  0.14696220  0.14696129  0.25000000  1
  Al  Al85  1  0.00000091  0.85303871  0.25000000  1
  W  W0  1  0.73001133  1.00000000  0.75000000  1
  W  W1  1  0.26998267  0.26998695  0.75000000  1
  W  W2  1  0.99999572  0.73001305  0.75000000  1
  W  W3  1  0.26998867  0.00000000  0.25000000  1
  W  W4  1  0.73001733  0.73001305  0.25000000  1
  W  W5  1  0.00000428  0.26998695  0.25000000  1
  W  W6  1  -0.00000000  0.00000000  0.50000000  1
  W  W7  1  -0.00000000  0.00000000  0.00000000  1
loop_
_geom_bond_atom_site_label_1
_geom_bond_atom_site_label_2
_geom_bond_distance
_geom_bond_site_symmetry_2
Sm0 Sm3 3.460151 1_545
Sm0 W0 3.522620 1_545
Sm1 Sm4 3.460185 1_555
Sm1 W1 3.522604 1_555
Sm2 Sm5 3.460185 1_655
Sm2 W2 3.522604 1_555
Sm3 W3 3.522620 1_565
Sm4 W4 3.522604 1_555
Sm5 W5 3.522604 1_555
Sm6 Sm9 3.460151 1_564
Sm6 W3 3.522620 1_565
Sm7 W4 3.522604 1_555
Sm8 W5 3.522604 1_555
Sm9 W0 3.522620 1_545
Sm10 Sm7 3.460185 1_556
Sm10 W1 3.522604 1_555
Sm11 Sm8 3.460185 1_656
Sm11 W2 3.522604 1_555
Al0 W1 2.727796 1_555
Al0 Al72 2.738846 1_555
Al0 Al38 2.899556 1_555
Al0 Sm2 3.089675 1_455
Al0 Al60 3.102284 1_555
Al0 Sm1 3.349305 1_555
Al1 W2 2.727789 1_455
Al1 Al72 2.738889 1_555
Al1 Al36 2.899565 1_565
Al1 Sm0 3.089701 1_565
Al1 Al61 3.102377 1_555
Al1 Sm2 3.349336 1_455
Al2 W0 2.727765 1_555
Al2 Al72 2.738844 1_555
Al2 Al37 2.899631 1_555
Al2 Sm1 3.089689 1_555
Al2 Al62 3.102207 1_555
Al2 Sm0 3.349265 1_565
Al3 W2 2.727797 1_555
Al3 Al73 2.738846 1_555
Al3 Al37 2.899556 1_555
Al3 Sm1 3.089675 1_555
Al3 Al63 3.102284 1_555
Al3 Sm2 3.349305 1_555
Al4 W1 2.727789 1_555
Al4 Al73 2.738890 1_555
Al4 Sm0 3.089701 1_555
Al4 Al64 3.102377 1_555
Al4 Sm1 3.349336 1_555
Al5 W0 2.727765 1_545
Al5 Al73 2.738844 1_555
Al5 Sm2 3.089689 1_555
Al5 Al65 3.102207 1_555
Al5 Sm0 3.349265 1_555
Al6 W4 2.727796 1_555
Al6 Al74 2.738846 1_555
Al6 Sm5 3.089675 1_655
Al6 Al63 3.102284 1_555
Al6 Sm4 3.349305 1_555
Al7 W5 2.727789 1_655
Al7 Al74 2.738889 1_555
Al7 Sm3 3.089701 1_545
Al7 Sm5 3.349336 1_655
Al8 W3 2.727765 1_555
Al8 Sm4 3.089689 1_555
Al8 Sm3 3.349265 1_545
Al9 W5 2.727797 1_555
Al9 Sm4 3.089675 1_555
Al9 Sm5 3.349305 1_555
Al10 W4 2.727789 1_555
Al10 Al75 2.738890 1_555
Al10 Al39 2.899565 1_555
Al10 Sm3 3.089701 1_555
Al10 Al62 3.102377 1_555
Al10 Sm4 3.349336 1_555
Al11 W3 2.727765 1_565
Al11 Al75 2.738844 1_555
Al11 Al41 2.899631 1_455
Al11 Sm5 3.089689 1_555
Al11 Al61 3.102207 1_555
Al11 Sm3 3.349265 1_555
Al12 W4 2.727796 1_555
Al12 Al76 2.738846 1_555
Al12 Al44 2.899556 1_555
Al12 Sm8 3.089675 1_655
Al12 Al66 3.102284 1_555
Al12 Sm7 3.349305 1_555
Al13 W5 2.727789 1_655
Al13 Al76 2.738889 1_555
Al13 Al42 2.899565 1_545
Al13 Sm6 3.089701 1_545
Al13 Al67 3.102377 1_554
Al13 Sm8 3.349336 1_655
Al14 W3 2.727765 1_555
Al14 Al76 2.738844 1_555
Al14 Al43 2.899631 1_555
Al14 Sm7 3.089689 1_555
Al14 Al68 3.102207 1_555
Al14 Sm6 3.349265 1_545
Al15 W5 2.727797 1_555
Al15 Al77 2.738846 1_555
Al15 Al43 2.899556 1_555
Al15 Sm7 3.089675 1_555
Al15 Al69 3.102284 1_555
Al15 Sm8 3.349305 1_555
Al16 W4 2.727789 1_555
Al16 Al77 2.738890 1_555
Al16 Al42 2.899565 1_555
Al16 Sm6 3.089701 1_555
Al16 Al70 3.102377 1_554
Al16 Sm7 3.349336 1_555
Al17 W3 2.727765 1_565
Al17 Al77 2.738844 1_555
Al17 Al44 2.899631 1_455
Al17 Sm8 3.089689 1_555
Al17 Al71 3.102207 1_555
Al17 Sm6 3.349265 1_555
Al18 W1 2.727796 1_555
Al18 Al78 2.738846 1_555
Al18 Al47 2.899556 1_555
Al18 Sm11 3.089675 1_455
Al18 Al69 3.102284 1_556
Al18 Sm10 3.349305 1_555
Al19 W2 2.727789 1_455
Al19 Al78 2.738889 1_555
Al19 Al45 2.899565 1_565
Al19 Sm9 3.089701 1_565
Al19 Al71 3.102377 1_556
Al19 Sm11 3.349336 1_455
Al20 W0 2.727765 1_555
Al20 Al78 2.738844 1_555
Al20 Al46 2.899631 1_555
Al20 Sm10 3.089689 1_555
Al20 Al70 3.102207 1_555
Al20 Sm9 3.349265 1_565
Al21 W2 2.727797 1_555
Al21 Al79 2.738846 1_555
Al21 Al46 2.899556 1_555
Al21 Sm10 3.089675 1_555
Al21 Al66 3.102284 1_556
Al21 Sm11 3.349305 1_555
Al22 W1 2.727789 1_555
Al22 Al79 2.738890 1_555
Al22 Al45 2.899565 1_555
Al22 Sm9 3.089701 1_555
Al22 Al68 3.102377 1_556
Al22 Sm10 3.349336 1_555
Al23 W0 2.727765 1_545
Al23 Al79 2.738844 1_555
Al23 Al47 2.899631 1_655
Al23 Sm11 3.089689 1_555
Al23 Al67 3.102207 1_555
Al23 Sm9 3.349265 1_555
Al24 W3 2.693399 1_555
Al24 W7 2.697563 1_555
Al24 Al45 2.796968 1_554
Al24 Al43 2.873183 1_555
Al24 Al44 2.873183 1_445
Al24 Sm6 3.466568 1_545
Al25 W4 2.693395 1_555
Al25 W7 2.697545 1_665
Al25 Al46 2.796943 1_554
Al25 Al44 2.873156 1_555
Al25 Al42 2.873190 1_555
Al25 Sm7 3.466481 1_555
Al26 W5 2.693395 1_555
Al26 W7 2.697545 1_555
Al26 Al47 2.796943 1_554
Al26 Al43 2.873156 1_555
Al26 Al42 2.873191 1_445
Al26 Sm8 3.466481 1_555
Al27 W0 2.693399 1_555
Al27 W7 2.697563 1_666
Al27 Al42 2.796968 1_556
Al27 Al46 2.873183 1_555
Al27 Al47 2.873183 1_665
Al27 Sm9 3.466568 1_565
Al28 W1 2.693395 1_555
Al28 W7 2.697545 1_556
Al28 Al43 2.796943 1_556
Al28 Al47 2.873156 1_555
Al28 Al45 2.873190 1_555
Al28 Sm10 3.466481 1_555
Al29 W2 2.693395 1_555
Al29 W7 2.697545 1_666
Al29 Al44 2.796943 1_556
Al29 Al46 2.873156 1_555
Al29 Al45 2.873191 1_665
Al29 Sm11 3.466481 1_555
Al30 W0 2.693399 1_555
Al30 W6 2.697563 1_665
Al30 Al39 2.796968 1_555
Al30 Al37 2.873183 1_555
Al30 Al38 2.873183 1_665
Al30 Sm0 3.466568 1_565
Al31 W1 2.693395 1_555
Al31 W6 2.697545 1_555
Al31 Al40 2.796943 1_555
Al31 Al38 2.873156 1_555
Al31 Al36 2.873190 1_555
Al31 Sm1 3.466481 1_555
Al32 W2 2.693395 1_555
Al32 W6 2.697545 1_665
Al32 Al41 2.796943 1_555
Al32 Al37 2.873156 1_555
Al32 Al36 2.873191 1_665
Al32 Sm2 3.466481 1_555
Al33 W3 2.693399 1_555
Al33 W6 2.697563 1_555
Al33 Al36 2.796968 1_555
Al33 Al40 2.873183 1_555
Al33 Al41 2.873183 1_445
Al33 Sm3 3.466568 1_545
Al34 W4 2.693395 1_555
Al34 W6 2.697545 1_665
Al34 Al37 2.796943 1_555
Al34 Al41 2.873156 1_555
Al34 Al39 2.873190 1_555
Al34 Sm4 3.466481 1_555
Al35 W5 2.693395 1_555
Al35 W6 2.697545 1_555
Al35 Al38 2.796943 1_555
Al35 Al40 2.873156 1_555
Al35 Al39 2.873191 1_445
Al35 Sm5 3.466481 1_555
Al36 Al61 2.763247 1_545
Al36 Al64 2.763247 1_555
Al36 W6 2.854934 1_555
Al36 Al4 2.899565 1_555
Al36 Al40 3.009157 1_555
Al36 Al41 3.009157 1_445
Al36 Sm3 3.290414 1_545
Al36 Sm0 3.292975 1_555
Al37 Al62 2.763235 1_555
Al37 Al63 2.763264 1_555
Al37 W6 2.854925 1_665
Al37 Al41 3.009153 1_555
Al37 Al39 3.009157 1_555
Al37 Sm4 3.290382 1_555
Al37 Sm1 3.292992 1_555
Al38 Al65 2.763235 1_455
Al38 Al60 2.763264 1_555
Al38 W6 2.854925 1_555
Al38 Al5 2.899631 1_455
Al38 Al40 3.009153 1_555
Al38 Al39 3.009157 1_445
Al38 Sm5 3.290382 1_555
Al38 Sm2 3.292992 1_455
Al39 Al65 2.763247 1_565
Al39 Al62 2.763247 1_555
Al39 W6 2.854934 1_665
Al39 Al7 2.899565 1_565
Al39 Sm0 3.290414 1_565
Al39 Sm3 3.292975 1_555
Al40 Al64 2.763235 1_555
Al40 Al60 2.763264 1_555
Al40 W6 2.854925 1_555
Al40 Al9 2.899556 1_555
Al40 Al8 2.899631 1_555
Al40 Sm1 3.290382 1_555
Al40 Sm4 3.292992 1_555
Al41 Al61 2.763235 1_655
Al41 Al63 2.763264 1_555
Al41 W6 2.854925 1_665
Al41 Al6 2.899556 1_555
Al41 Sm2 3.290382 1_555
Al41 Sm5 3.292992 1_655
Al42 Al67 2.763247 1_564
Al42 Al70 2.763247 1_554
Al42 W7 2.854934 1_665
Al42 Al46 3.009157 1_554
Al42 Al47 3.009157 1_664
Al42 Sm9 3.290414 1_564
Al42 Sm6 3.292975 1_555
Al43 Al68 2.763235 1_555
Al43 Al69 2.763264 1_555
Al43 W7 2.854925 1_555
Al43 Al47 3.009153 1_554
Al43 Al45 3.009157 1_554
Al43 Sm10 3.290382 1_554
Al43 Sm7 3.292992 1_555
Al44 Al71 2.763235 1_655
Al44 Al66 2.763264 1_555
Al44 W7 2.854925 1_665
Al44 Al46 3.009153 1_554
Al44 Al45 3.009157 1_664
Al44 Sm11 3.290382 1_554
Al44 Sm8 3.292992 1_655
Al45 Al71 2.763247 1_546
Al45 Al68 2.763247 1_556
Al45 W7 2.854934 1_556
Al45 Sm6 3.290414 1_546
Al45 Sm9 3.292975 1_555
Al46 Al70 2.763235 1_555
Al46 Al66 2.763264 1_556
Al46 W7 2.854925 1_666
Al46 Sm7 3.290382 1_556
Al46 Sm10 3.292992 1_555
Al47 Al67 2.763235 1_455
Al47 Al69 2.763264 1_556
Al47 W7 2.854925 1_556
Al47 Sm8 3.290382 1_556
Al47 Sm11 3.292992 1_455
Al48 W2 2.709265 1_455
Al48 Al78 2.836530 1_555
Al48 Al72 2.836530 1_555
Al48 Sm11 3.087891 1_455
Al48 Sm2 3.087891 1_455
Al49 W0 2.709266 1_555
Al49 Al78 2.836516 1_555
Al49 Al72 2.836516 1_555
Al49 Sm0 3.087893 1_565
Al49 Sm9 3.087893 1_565
Al50 W1 2.709267 1_555
Al50 Al78 2.836526 1_555
Al50 Al72 2.836526 1_555
Al50 Sm10 3.087903 1_555
Al50 Sm1 3.087903 1_555
Al51 W1 2.709265 1_555
Al51 Al79 2.836530 1_555
Al51 Al73 2.836530 1_555
Al51 Sm10 3.087891 1_555
Al51 Sm1 3.087891 1_555
Al52 W0 2.709265 1_545
Al52 Al79 2.836516 1_555
Al52 Al73 2.836516 1_555
Al52 Sm0 3.087893 1_555
Al52 Sm9 3.087893 1_555
Al53 W2 2.709267 1_555
Al53 Al79 2.836526 1_555
Al53 Al73 2.836526 1_555
Al53 Sm11 3.087904 1_555
Al53 Sm2 3.087904 1_555
Al54 W5 2.709265 1_655
Al54 Al76 2.836530 1_555
Al54 Al74 2.836530 1_555
Al54 Sm5 3.087891 1_655
Al54 Sm8 3.087891 1_655
Al55 W3 2.709266 1_555
Al55 Al76 2.836516 1_555
Al55 Al74 2.836516 1_555
Al55 Sm3 3.087893 1_545
Al55 Sm6 3.087893 1_545
Al56 W4 2.709267 1_555
Al56 Al76 2.836526 1_555
Al56 Al74 2.836526 1_555
Al56 Sm4 3.087903 1_555
Al56 Sm7 3.087903 1_555
Al57 W4 2.709265 1_555
Al57 Al75 2.836530 1_555
Al57 Al77 2.836530 1_555
Al57 Sm4 3.087891 1_555
Al57 Sm7 3.087891 1_555
Al58 W3 2.709265 1_565
Al58 Al77 2.836516 1_555
Al58 Al75 2.836516 1_555
Al58 Sm6 3.087893 1_555
Al58 Sm3 3.087893 1_555
Al59 W5 2.709267 1_555
Al59 Al75 2.836526 1_555
Al59 Al77 2.836526 1_555
Al59 Sm5 3.087904 1_555
Al59 Sm8 3.087904 1_555
Al60 Al72 2.795756 1_555
Al60 Al75 2.795756 1_555
Al60 Al61 2.878406 1_555
Al60 Al62 2.878406 1_555
Al60 Al9 3.102284 1_555
Al60 Sm1 3.116107 1_555
Al60 Sm5 3.116107 1_555
Al60 Sm2 3.416414 1_455
Al60 Sm4 3.416414 1_555
Al61 Al75 2.795758 1_555
Al61 Al72 2.795795 1_555
Al61 Al62 2.878494 1_555
Al61 Sm3 3.116106 1_555
Al61 Sm2 3.116153 1_455
Al61 Sm5 3.416319 1_555
Al61 Sm0 3.416399 1_565
Al62 Al72 2.795758 1_555
Al62 Al75 2.795795 1_555
Al62 Sm0 3.116106 1_565
Al62 Sm4 3.116153 1_555
Al62 Sm1 3.416319 1_555
Al62 Sm3 3.416399 1_555
Al63 Al74 2.795756 1_555
Al63 Al73 2.795756 1_555
Al63 Al65 2.878406 1_555
Al63 Al64 2.878406 1_555
Al63 Sm4 3.116107 1_555
Al63 Sm2 3.116107 1_555
Al63 Sm5 3.416414 1_655
Al63 Sm1 3.416414 1_555
Al64 Al74 2.795758 1_555
Al64 Al73 2.795795 1_555
Al64 Al65 2.878494 1_555
Al64 Al8 3.102207 1_555
Al64 Sm3 3.116106 1_545
Al64 Sm1 3.116153 1_555
Al64 Sm4 3.416319 1_555
Al64 Sm0 3.416399 1_555
Al65 Al73 2.795758 1_555
Al65 Al74 2.795795 1_555
Al65 Al7 3.102377 1_555
Al65 Sm0 3.116106 1_555
Al65 Sm5 3.116153 1_655
Al65 Sm2 3.416319 1_555
Al65 Sm3 3.416399 1_545
Al66 Al76 2.795756 1_555
Al66 Al79 2.795756 1_554
Al66 Al67 2.878406 1_554
Al66 Al68 2.878406 1_555
Al66 Sm7 3.116107 1_555
Al66 Sm11 3.116107 1_554
Al66 Sm8 3.416414 1_655
Al66 Sm10 3.416414 1_554
Al67 Al79 2.795758 1_555
Al67 Al76 2.795795 1_556
Al67 Al68 2.878494 1_556
Al67 Sm9 3.116106 1_555
Al67 Sm8 3.116153 1_656
Al67 Sm11 3.416319 1_555
Al67 Sm6 3.416399 1_546
Al68 Al76 2.795758 1_555
Al68 Al79 2.795795 1_554
Al68 Sm6 3.116106 1_545
Al68 Sm10 3.116153 1_554
Al68 Sm7 3.416319 1_555
Al68 Sm9 3.416399 1_554
Al69 Al78 2.795756 1_554
Al69 Al77 2.795756 1_555
Al69 Al71 2.878406 1_555
Al69 Al70 2.878406 1_554
Al69 Sm10 3.116107 1_554
Al69 Sm8 3.116107 1_555
Al69 Sm11 3.416414 1_454
Al69 Sm7 3.416414 1_555
Al70 Al78 2.795758 1_555
Al70 Al77 2.795795 1_556
Al70 Al71 2.878494 1_556
Al70 Sm9 3.116106 1_565
Al70 Sm7 3.116153 1_556
Al70 Sm10 3.416319 1_555
Al70 Sm6 3.416399 1_556
Al71 Al77 2.795758 1_555
Al71 Al78 2.795795 1_554
Al71 Sm6 3.116106 1_555
Al71 Sm11 3.116153 1_454
Al71 Sm8 3.416319 1_555
Al71 Sm9 3.416399 1_564
Al72 Sm0 3.267933 1_565
Al72 Sm2 3.267966 1_455
Al72 Sm1 3.267988 1_555
Al73 Sm0 3.267933 1_555
Al73 Sm1 3.267966 1_555
Al73 Sm2 3.267988 1_555
Al74 Al8 2.738844 1_555
Al74 Sm3 3.267933 1_545
Al74 Sm5 3.267966 1_655
Al74 Sm4 3.267988 1_555
Al75 Al9 2.738846 1_555
Al75 Sm3 3.267933 1_555
Al75 Sm4 3.267966 1_555
Al75 Sm5 3.267988 1_555
Al76 Sm6 3.267933 1_545
Al76 Sm8 3.267966 1_655
Al76 Sm7 3.267988 1_555
Al77 Sm6 3.267933 1_555
Al77 Sm7 3.267966 1_555
Al77 Sm8 3.267988 1_555
Al78 Sm9 3.267933 1_565
Al78 Sm11 3.267966 1_455
Al78 Sm10 3.267988 1_555
Al79 Sm9 3.267933 1_555
Al79 Sm10 3.267966 1_555
Al79 Sm11 3.267988 1_555
Al80 W1 2.597633 1_555
Al80 W2 2.597633 1_445
Al81 W2 2.597618 1_555
Al81 W0 2.597657 1_555
Al82 W1 2.597618 1_655
Al82 W0 2.597657 1_545
Al83 W4 2.597633 1_555
Al83 W5 2.597633 1_665
Al84 W5 2.597618 1_555
Al84 W3 2.597657 1_555
Al85 W4 2.597618 1_455
Al85 W3 2.597657 1_565
