# generated using pymatgen
data_Ba2Sr(ZrSe3)3
_symmetry_space_group_name_H-M   'P 1'
_cell_length_a   4.05466800
_cell_length_b   15.01896500
_cell_length_c   27.35231701
_cell_angle_alpha   89.94412301
_cell_angle_beta   90.00000000
_cell_angle_gamma   90.00000000
_symmetry_Int_Tables_number   1
_chemical_formula_structural   Ba2Sr(ZrSe3)3
_chemical_formula_sum   'Ba8 Sr4 Zr12 Se36'
_cell_volume   1665.67098039
_cell_formula_units_Z   4
loop_
 _symmetry_equiv_pos_site_id
 _symmetry_equiv_pos_as_xyz
  1  'x, y, z'
loop_
 _atom_site_type_symbol
 _atom_site_label
 _atom_site_symmetry_multiplicity
 _atom_site_fract_x
 _atom_site_fract_y
 _atom_site_fract_z
 _atom_site_occupancy
  Ba  Ba0  1  0.50000000  0.32371900  0.47750700  1
  Ba  Ba1  1  0.50000000  0.32367300  0.14412800  1
  Ba  Ba2  1  0.00000000  0.82618200  0.68926100  1
  Ba  Ba3  1  0.00000000  0.82622300  0.35589800  1
  Ba  Ba4  1  0.00000000  0.82621500  0.02244800  1
  Ba  Ba5  1  0.00000000  0.67408700  0.85582300  1
  Ba  Ba6  1  0.00000000  0.67447300  0.52243700  1
  Ba  Ba7  1  0.00000000  0.67464800  0.18912900  1
  Sr  Sr0  1  0.50000000  0.17629600  0.97828300  1
  Sr  Sr1  1  0.50000000  0.17706300  0.64622000  1
  Sr  Sr2  1  0.50000000  0.17601900  0.31228600  1
  Sr  Sr3  1  0.50000000  0.32258400  0.81211800  1
  Zr  Zr0  1  0.50000000  0.94359900  0.88865800  1
  Zr  Zr1  1  0.50000000  0.94300700  0.55556500  1
  Zr  Zr2  1  0.50000000  0.94297300  0.22225000  1
  Zr  Zr3  1  0.50000000  0.55635700  0.72206100  1
  Zr  Zr4  1  0.50000000  0.55883000  0.38774900  1
  Zr  Zr5  1  0.50000000  0.55880400  0.05430800  1
  Zr  Zr6  1  0.00000000  0.06158700  0.77817900  1
  Zr  Zr7  1  0.00000000  0.05974100  0.44450000  1
  Zr  Zr8  1  0.00000000  0.05965900  0.11115100  1
  Zr  Zr9  1  0.00000000  0.43825000  0.94469700  1
  Zr  Zr10  1  0.00000000  0.43886100  0.61250500  1
  Zr  Zr11  1  0.00000000  0.43871900  0.27904300  1
  Se  Se0  1  0.50000000  0.10835900  0.84114600  1
  Se  Se1  1  0.50000000  0.10691200  0.50771900  1
  Se  Se2  1  0.50000000  0.10696900  0.17440300  1
  Se  Se3  1  0.50000000  0.39221300  0.67503300  1
  Se  Se4  1  0.50000000  0.39241800  0.34196300  1
  Se  Se5  1  0.50000000  0.39188300  0.00813900  1
  Se  Se6  1  0.00000000  0.89537700  0.82522300  1
  Se  Se7  1  0.00000000  0.89475300  0.49194400  1
  Se  Se8  1  0.00000000  0.89473600  0.15855900  1
  Se  Se9  1  0.00000000  0.60534200  0.99111000  1
  Se  Se10  1  0.00000000  0.60493300  0.65879700  1
  Se  Se11  1  0.00000000  0.60564800  0.32466800  1
  Se  Se12  1  0.50000000  0.78690900  0.92911000  1
  Se  Se13  1  0.50000000  0.78650000  0.59590700  1
  Se  Se14  1  0.50000000  0.78645800  0.26251800  1
  Se  Se15  1  0.50000000  0.71313300  0.76249500  1
  Se  Se16  1  0.50000000  0.71433700  0.42913300  1
  Se  Se17  1  0.50000000  0.71416900  0.09578800  1
  Se  Se18  1  0.00000000  0.21840800  0.73708100  1
  Se  Se19  1  0.00000000  0.21301100  0.39976800  1
  Se  Se20  1  0.00000000  0.21292600  0.06622700  1
  Se  Se21  1  0.00000000  0.28192800  0.90350600  1
  Se  Se22  1  0.00000000  0.27972200  0.57459300  1
  Se  Se23  1  0.00000000  0.28003100  0.24112700  1
  Se  Se24  1  0.50000000  0.50283700  0.88807100  1
  Se  Se25  1  0.50000000  0.50460300  0.55576800  1
  Se  Se26  1  0.50000000  0.50443800  0.22248700  1
  Se  Se27  1  0.50000000  0.99699400  0.72134200  1
  Se  Se28  1  0.50000000  0.99582700  0.38794400  1
  Se  Se29  1  0.50000000  0.99589700  0.05461300  1
  Se  Se30  1  0.00000000  0.48794800  0.77828800  1
  Se  Se31  1  0.00000000  0.49385300  0.44430700  1
  Se  Se32  1  0.00000000  0.49382300  0.11092900  1
  Se  Se33  1  0.00000000  0.01181900  0.94473300  1
  Se  Se34  1  0.00000000  0.01176000  0.61138300  1
  Se  Se35  1  0.00000000  0.01155400  0.27797500  1
loop_
_geom_bond_atom_site_label_1
_geom_bond_atom_site_label_2
_geom_bond_distance
_geom_bond_site_symmetry_2
Ba0 Se1 3.358658 1_555
Ba0 Se19 3.376825 1_555
Ba0 Se19 3.376825 1_655
Ba0 Se31 3.385178 1_555
Ba0 Se31 3.385178 1_655
Ba0 Se22 3.405162 1_655
Ba0 Se22 3.405162 1_555
Ba0 Se25 3.460347 1_555
Ba0 Se4 3.847370 1_555
Ba1 Se2 3.357582 1_555
Ba1 Se20 3.379907 1_555
Ba1 Se20 3.379907 1_655
Ba1 Se32 3.385352 1_655
Ba1 Se32 3.385352 1_555
Ba1 Se23 3.402280 1_655
Ba1 Se23 3.402280 1_555
Ba1 Se26 3.460605 1_555
Ba1 Se5 3.857147 1_555
Ba2 Se13 3.314867 1_455
Ba2 Se13 3.314867 1_555
Ba2 Se15 3.316433 1_455
Ba2 Se15 3.316433 1_555
Ba2 Se27 3.386124 1_555
Ba2 Se27 3.386124 1_455
Ba2 Se10 3.426601 1_555
Ba2 Se34 3.506331 1_565
Ba2 Se6 3.862329 1_555
Ba3 Se16 3.307552 1_455
Ba3 Se16 3.307552 1_555
Ba3 Se14 3.315640 1_555
Ba3 Se14 3.315640 1_455
Ba3 Se28 3.372145 1_555
Ba3 Se28 3.372145 1_455
Ba3 Se11 3.421973 1_555
Ba3 Se35 3.504133 1_565
Ba3 Se7 3.861859 1_555
Ba4 Se17 3.310510 1_555
Ba4 Se17 3.310510 1_455
Ba4 Se12 3.313515 1_454
Ba4 Se12 3.313515 1_554
Ba4 Se29 3.373880 1_455
Ba4 Se29 3.373880 1_555
Ba4 Se9 3.427047 1_554
Ba4 Se33 3.503938 1_564
Ba4 Se8 3.863537 1_555
Ba5 Se15 3.311726 1_455
Ba5 Se15 3.311726 1_555
Ba5 Se12 3.317564 1_555
Ba5 Se12 3.317564 1_455
Ba5 Se24 3.390996 1_555
Ba5 Se24 3.390996 1_455
Ba5 Se6 3.426525 1_555
Ba5 Se30 3.510649 1_555
Ba5 Se9 3.840783 1_555
Ba6 Se16 3.313409 1_455
Ba6 Se16 3.313409 1_555
Ba6 Se13 3.314510 1_455
Ba6 Se13 3.314510 1_555
Ba6 Se25 3.383148 1_455
Ba6 Se25 3.383148 1_555
Ba6 Se7 3.411103 1_555
Ba6 Se31 3.455013 1_555
Ba6 Se10 3.872252 1_555
Ba7 Se14 3.311510 1_455
Ba7 Se14 3.311510 1_555
Ba7 Se17 3.313265 1_455
Ba7 Se17 3.313265 1_555
Ba7 Se26 3.387198 1_555
Ba7 Se26 3.387198 1_455
Ba7 Se8 3.408821 1_555
Ba7 Se32 3.458618 1_555
Ba7 Se11 3.848449 1_555
Se0 Zr6 2.751763 1_555
Se0 Zr6 2.751763 1_655
Se0 Zr0 2.793898 1_545
Se0 Sr3 3.313206 1_555
Se1 Zr7 2.757621 1_655
Se1 Zr7 2.757621 1_555
Se1 Zr1 2.786807 1_545
Se2 Zr8 2.758725 1_555
Se2 Zr8 2.758725 1_655
Se2 Zr2 2.788027 1_545
Se3 Zr10 2.742931 1_655
Se3 Zr10 2.742931 1_555
Se3 Zr3 2.781796 1_555
Se3 Sr1 3.326795 1_555
Se4 Zr11 2.748306 1_555
Se4 Zr11 2.748306 1_655
Se4 Zr4 2.796636 1_555
Se4 Sr2 3.350692 1_555
Se5 Zr9 2.757516 1_554
Se5 Zr9 2.757516 1_654
Se5 Zr5 2.808178 1_555
Se5 Sr0 3.340060 1_554
Se6 Zr0 2.765432 1_455
Se6 Zr0 2.765432 1_555
Se6 Zr6 2.807315 1_565
Se7 Zr1 2.768755 1_555
Se7 Zr1 2.768755 1_455
Se7 Zr7 2.796067 1_565
Se8 Zr2 2.769892 1_455
Se8 Zr2 2.769892 1_555
Se8 Zr8 2.794747 1_565
Se9 Zr5 2.753972 1_556
Se9 Zr5 2.753972 1_456
Se9 Zr9 2.813483 1_555
Se10 Zr3 2.763010 1_555
Se10 Zr3 2.763010 1_455
Se10 Zr10 2.798319 1_555
Se11 Zr4 2.753033 1_455
Se11 Zr4 2.753033 1_555
Se11 Zr11 2.801613 1_555
Se12 Zr0 2.599479 1_555
Se13 Zr1 2.595714 1_555
Se14 Zr2 2.594965 1_555
Se15 Zr3 2.602391 1_555
Se16 Zr4 2.596397 1_555
Se17 Zr5 2.595627 1_555
Se18 Zr6 2.608808 1_555
Se18 Sr1 3.267292 1_455
Se18 Sr1 3.267292 1_555
Se18 Sr3 3.282813 1_555
Se18 Sr3 3.282813 1_455
Se19 Zr7 2.605863 1_555
Se19 Sr2 3.185437 1_455
Se19 Sr2 3.185437 1_555
Se20 Zr8 2.608289 1_555
Se20 Sr0 3.193997 1_454
Se20 Sr0 3.193997 1_554
Se21 Zr9 2.605126 1_555
Se21 Sr3 3.275411 1_455
Se21 Sr3 3.275411 1_555
Se21 Sr0 3.286949 1_455
Se21 Sr0 3.286949 1_555
Se22 Zr10 2.606292 1_555
Se22 Sr1 3.212439 1_555
Se22 Sr1 3.212439 1_455
Se23 Zr11 2.600123 1_555
Se23 Sr2 3.214468 1_455
Se23 Sr2 3.214468 1_555
Se24 Zr9 2.728929 1_655
Se24 Zr9 2.728929 1_555
Se24 Sr3 3.414080 1_555
Se25 Zr10 2.736853 1_655
Se25 Zr10 2.736853 1_555
Se26 Zr11 2.733926 1_555
Se26 Zr11 2.733926 1_655
Se27 Zr6 2.733315 1_565
Se27 Zr6 2.733315 1_665
Se27 Sr1 3.394886 1_565
Se28 Zr7 2.725334 1_665
Se28 Zr7 2.725334 1_565
Se28 Sr2 3.405235 1_565
Se29 Zr8 2.724250 1_565
Se29 Zr8 2.724250 1_665
Se29 Sr0 3.418884 1_564
Se30 Zr3 2.743697 1_455
Se30 Zr3 2.743697 1_555
Se30 Sr3 3.336178 1_455
Se30 Sr3 3.336178 1_555
Se31 Zr4 2.729960 1_555
Se31 Zr4 2.729960 1_455
Se32 Zr5 2.730957 1_455
Se32 Zr5 2.730957 1_555
Se33 Zr0 2.741428 1_545
Se33 Zr0 2.741428 1_445
Se33 Sr0 3.325489 1_455
Se33 Sr0 3.325489 1_555
Se34 Zr1 2.740509 1_445
Se34 Zr1 2.740509 1_545
Se34 Sr1 3.344602 1_555
Se34 Sr1 3.344602 1_455
Se35 Zr2 2.738117 1_445
Se35 Zr2 2.738117 1_545
Se35 Sr2 3.331175 1_455
Se35 Sr2 3.331175 1_555
