# generated using pymatgen
data_Hf2Se3
_symmetry_space_group_name_H-M   'P 1'
_cell_length_a   6.43344179
_cell_length_b   13.06002895
_cell_length_c   6.43796889
_cell_angle_alpha   75.71359407
_cell_angle_beta   119.98087546
_cell_angle_gamma   104.24876665
_symmetry_Int_Tables_number   1
_chemical_formula_structural   Hf2Se3
_chemical_formula_sum   'Hf8 Se12'
_cell_volume   449.16761999
_cell_formula_units_Z   4
loop_
 _symmetry_equiv_pos_site_id
 _symmetry_equiv_pos_as_xyz
  1  'x, y, z'
loop_
 _atom_site_type_symbol
 _atom_site_label
 _atom_site_symmetry_multiplicity
 _atom_site_fract_x
 _atom_site_fract_y
 _atom_site_fract_z
 _atom_site_occupancy
  Hf  Hf0  1  0.74454949  0.23190724  0.92546972  1
  Hf  Hf1  1  0.91268034  0.73174459  0.42515007  1
  Hf  Hf2  1  0.83329818  0.49926851  0.83626245  1
  Hf  Hf3  1  0.16977233  0.49820545  0.49995439  1
  Hf  Hf4  1  0.49682930  0.49822685  0.16435893  1
  Hf  Hf5  1  0.66600973  0.99821303  0.66450416  1
  Hf  Hf6  1  0.00214790  0.99937805  0.33682189  1
  Hf  Hf7  1  0.32845516  0.99808176  0.00001547  1
  Se  Se0  1  0.62281955  0.87099044  0.04251170  1
  Se  Se1  1  0.28923731  0.86741964  0.37620644  1
  Se  Se2  1  0.95422981  0.86666656  0.71179727  1
  Se  Se3  1  0.45391116  0.36725683  0.87615904  1
  Se  Se4  1  0.12440699  0.36687005  0.21193187  1
  Se  Se5  1  0.79120222  0.37099379  0.54217702  1
  Se  Se6  1  0.70628820  0.12751352  0.30251170  1
  Se  Se7  1  0.36554456  0.12719797  0.61431520  1
  Se  Se8  1  0.05307128  0.12751012  0.95554259  1
  Se  Se9  1  0.87575365  0.62702403  0.11386403  1
  Se  Se10  1  0.52974425  0.62757449  0.45496312  1
  Se  Se11  1  0.22317960  0.62736108  0.80234994  1
loop_
_geom_bond_atom_site_label_1
_geom_bond_atom_site_label_2
_geom_bond_distance
_geom_bond_site_symmetry_2
Hf0 Se6 2.571034 1_556
Hf0 Se8 2.579518 1_655
Hf0 Se7 2.580159 1_555
Hf0 Se4 2.731252 1_656
Hf0 Se3 2.734673 1_555
Hf0 Se5 2.781805 1_555
Hf1 Se11 2.569914 1_655
Hf1 Se10 2.578919 1_555
Hf1 Se9 2.580714 1_555
Hf1 Se2 2.731667 1_555
Hf1 Se1 2.735330 1_655
Hf1 Se0 2.778548 1_555
Hf2 Se9 2.609981 1_556
Hf2 Se5 2.700765 1_555
Hf2 Se3 2.707815 1_555
Hf2 Se4 2.711090 1_656
Hf2 Se10 2.727140 1_555
Hf2 Se11 2.727484 1_655
Hf3 Se10 2.608538 1_555
Hf3 Se3 2.683690 1_555
Hf3 Se5 2.685649 1_455
Hf3 Se4 2.692214 1_555
Hf3 Se9 2.718533 1_455
Hf3 Se11 2.724010 1_555
Hf4 Se11 2.606991 1_554
Hf4 Se5 2.686017 1_555
Hf4 Se4 2.688521 1_555
Hf4 Se3 2.695620 1_554
Hf4 Se9 2.716893 1_555
Hf4 Se10 2.717825 1_555
Hf5 Se6 2.606879 1_565
Hf5 Se0 2.685745 1_556
Hf5 Se2 2.688535 1_555
Hf5 Se1 2.695999 1_555
Hf5 Se7 2.718230 1_565
Hf5 Se8 2.718735 1_665
Hf6 Se7 2.611596 1_565
Hf6 Se0 2.699905 1_455
Hf6 Se1 2.707182 1_555
Hf6 Se2 2.709720 1_455
Hf6 Se6 2.727180 1_465
Hf6 Se8 2.727555 1_564
Hf7 Se8 2.608907 1_564
Hf7 Se1 2.683337 1_555
Hf7 Se0 2.687311 1_555
Hf7 Se2 2.694056 1_454
Hf7 Se7 2.719169 1_564
Hf7 Se6 2.725723 1_565
