# generated using pymatgen
data_Ca5(CuN2)2
_symmetry_space_group_name_H-M   'P 1'
_cell_length_a   7.98590079
_cell_length_b   7.98590079
_cell_length_c   12.35167072
_cell_angle_alpha   90.00000000
_cell_angle_beta   90.00000000
_cell_angle_gamma   90.00000000
_symmetry_Int_Tables_number   1
_chemical_formula_structural   Ca5(CuN2)2
_chemical_formula_sum   'Ca20 Cu8 N16'
_cell_volume   787.72300065
_cell_formula_units_Z   4
loop_
 _symmetry_equiv_pos_site_id
 _symmetry_equiv_pos_as_xyz
  1  'x, y, z'
loop_
 _atom_site_type_symbol
 _atom_site_label
 _atom_site_symmetry_multiplicity
 _atom_site_fract_x
 _atom_site_fract_y
 _atom_site_fract_z
 _atom_site_occupancy
  Ca  Ca0  1  0.75000000  0.75000000  0.36150161  1
  Ca  Ca1  1  0.75000000  0.75000000  0.86150161  1
  Ca  Ca2  1  0.25000000  0.25000000  0.63849839  1
  Ca  Ca3  1  0.25000000  0.25000000  0.13849839  1
  Ca  Ca4  1  0.13338088  0.57773029  0.40992309  1
  Ca  Ca5  1  0.36661912  0.57773029  0.90992309  1
  Ca  Ca6  1  0.13338088  0.92226971  0.90992309  1
  Ca  Ca7  1  0.36661912  0.92226971  0.40992309  1
  Ca  Ca8  1  0.57773029  0.13338088  0.90992309  1
  Ca  Ca9  1  0.92226971  0.13338088  0.40992309  1
  Ca  Ca10  1  0.57773029  0.36661912  0.40992309  1
  Ca  Ca11  1  0.92226971  0.36661912  0.90992309  1
  Ca  Ca12  1  0.86661912  0.42226971  0.59007691  1
  Ca  Ca13  1  0.63338088  0.42226971  0.09007691  1
  Ca  Ca14  1  0.86661912  0.07773029  0.09007691  1
  Ca  Ca15  1  0.63338088  0.07773029  0.59007691  1
  Ca  Ca16  1  0.42226971  0.86661912  0.09007691  1
  Ca  Ca17  1  0.07773029  0.86661912  0.59007691  1
  Ca  Ca18  1  0.42226971  0.63338088  0.59007691  1
  Ca  Ca19  1  0.07773029  0.63338088  0.09007691  1
  Cu  Cu0  1  0.09242414  0.90757586  0.25000000  1
  Cu  Cu1  1  0.40757586  0.90757586  0.75000000  1
  Cu  Cu2  1  0.09242414  0.59242414  0.75000000  1
  Cu  Cu3  1  0.40757586  0.59242414  0.25000000  1
  Cu  Cu4  1  0.90757586  0.09242414  0.75000000  1
  Cu  Cu5  1  0.59242414  0.09242414  0.25000000  1
  Cu  Cu6  1  0.90757586  0.40757586  0.25000000  1
  Cu  Cu7  1  0.59242414  0.40757586  0.75000000  1
  N  N0  1  0.63670665  0.05199874  0.39485251  1
  N  N1  1  0.86329335  0.05199874  0.89485251  1
  N  N2  1  0.63670665  0.44800126  0.89485251  1
  N  N3  1  0.86329335  0.44800126  0.39485251  1
  N  N4  1  0.05199874  0.63670665  0.89485251  1
  N  N5  1  0.44800126  0.63670665  0.39485251  1
  N  N6  1  0.05199874  0.86329335  0.39485251  1
  N  N7  1  0.44800126  0.86329335  0.89485251  1
  N  N8  1  0.36329335  0.94800126  0.60514749  1
  N  N9  1  0.13670665  0.94800126  0.10514749  1
  N  N10  1  0.36329335  0.55199874  0.10514749  1
  N  N11  1  0.13670665  0.55199874  0.60514749  1
  N  N12  1  0.94800126  0.36329335  0.10514749  1
  N  N13  1  0.55199874  0.36329335  0.60514749  1
  N  N14  1  0.94800126  0.13670665  0.60514749  1
  N  N15  1  0.55199874  0.13670665  0.10514749  1
loop_
_geom_bond_atom_site_label_1
_geom_bond_atom_site_label_2
_geom_bond_distance
_geom_bond_site_symmetry_2
Ca0 N0 2.608585 1_565
Ca0 N6 2.608585 1_655
Ca0 N3 2.608585 1_555
Ca0 N5 2.608585 1_555
Ca1 N2 2.608585 1_555
Ca1 N4 2.608585 1_655
Ca1 N1 2.608585 1_565
Ca1 N7 2.608585 1_555
Ca2 N8 2.608585 1_545
Ca2 N14 2.608585 1_455
Ca2 N11 2.608585 1_555
Ca2 N13 2.608585 1_555
Ca3 N9 2.608585 1_545
Ca3 N12 2.608585 1_455
Ca3 N15 2.608585 1_555
Ca3 N10 2.608585 1_555
Ca4 N6 2.378574 1_555
Ca4 N3 2.400029 1_455
Ca4 N11 2.420233 1_555
Ca4 N5 2.563058 1_555
Ca5 N7 2.378574 1_555
Ca5 N2 2.400029 1_555
Ca5 N10 2.420233 1_556
Ca5 N4 2.563058 1_555
Ca6 N4 2.378574 1_555
Ca6 N1 2.400029 1_465
Ca6 N9 2.420233 1_556
Ca6 N7 2.563058 1_555
Ca7 N5 2.378574 1_555
Ca7 N0 2.400029 1_565
Ca7 N8 2.420233 1_555
Ca7 N6 2.563058 1_555
Ca8 N1 2.378574 1_555
Ca8 N7 2.400029 1_545
Ca8 N15 2.420233 1_556
Ca8 N2 2.563058 1_555
Ca9 N0 2.378574 1_555
Ca9 N6 2.400029 1_645
Ca9 N14 2.420233 1_555
Ca9 N3 2.563058 1_555
Ca10 N3 2.378574 1_555
Ca10 N5 2.400029 1_555
Ca10 N13 2.420233 1_555
Ca10 N0 2.563058 1_555
Ca11 N2 2.378574 1_555
Ca11 N4 2.400029 1_655
Ca11 N12 2.420233 1_556
Ca11 N1 2.563058 1_555
Ca12 N14 2.378574 1_555
Ca12 N11 2.400029 1_655
Ca12 N3 2.420233 1_555
Ca12 N13 2.563058 1_555
Ca13 N15 2.378574 1_555
Ca13 N10 2.400029 1_555
Ca13 N2 2.420233 1_554
Ca13 N12 2.563058 1_555
Ca14 N12 2.378574 1_555
Ca14 N9 2.400029 1_645
Ca14 N1 2.420233 1_554
Ca14 N15 2.563058 1_555
Ca15 N13 2.378574 1_555
Ca15 N8 2.400029 1_545
Ca15 N0 2.420233 1_555
Ca15 N14 2.563058 1_555
Ca16 N9 2.378574 1_555
Ca16 N15 2.400029 1_565
Ca16 N7 2.420233 1_554
Ca16 N10 2.563058 1_555
Ca17 N8 2.378574 1_555
Ca17 N14 2.400029 1_465
Ca17 N6 2.420233 1_555
Ca17 N11 2.563058 1_555
Ca18 N11 2.378574 1_555
Ca18 N13 2.400029 1_555
Ca18 N5 2.420233 1_555
Ca18 N8 2.563058 1_555
Ca19 N10 2.378574 1_555
Ca19 N12 2.400029 1_455
Ca19 N4 2.420233 1_554
Ca19 N9 2.563058 1_555
Cu0 N6 1.852137 1_555
Cu0 N9 1.852137 1_555
Cu1 N7 1.852137 1_555
Cu1 N8 1.852137 1_555
Cu2 N11 1.852137 1_555
Cu2 N4 1.852137 1_555
Cu3 N10 1.852137 1_555
Cu3 N5 1.852137 1_555
Cu4 N1 1.852137 1_555
Cu4 N14 1.852137 1_555
Cu5 N0 1.852137 1_555
Cu5 N15 1.852137 1_555
Cu6 N3 1.852137 1_555
Cu6 N12 1.852137 1_555
Cu7 N13 1.852137 1_555
Cu7 N2 1.852137 1_555
