# generated using pymatgen
data_SrWO4
_symmetry_space_group_name_H-M   'P 1'
_cell_length_a   5.44017001
_cell_length_b   5.44027867
_cell_length_c   7.10218477
_cell_angle_alpha   112.51544845
_cell_angle_beta   112.52018600
_cell_angle_gamma   90.01932981
_symmetry_Int_Tables_number   1
_chemical_formula_structural   SrWO4
_chemical_formula_sum   'Sr2 W2 O8'
_cell_volume   176.68614825
_cell_formula_units_Z   2
loop_
 _symmetry_equiv_pos_site_id
 _symmetry_equiv_pos_as_xyz
  1  'x, y, z'
loop_
 _atom_site_type_symbol
 _atom_site_label
 _atom_site_symmetry_multiplicity
 _atom_site_fract_x
 _atom_site_fract_y
 _atom_site_fract_z
 _atom_site_occupancy
  Sr  Sr0  1  0.62499147  0.87498822  0.24998391  1
  Sr  Sr1  1  0.37500853  0.12501178  0.75001609  1
  W  W0  1  0.12499445  0.37503882  0.25003971  1
  W  W1  1  0.87500555  0.62496118  0.74996029  1
  O  O0  1  0.19356525  0.56583113  0.91600253  1
  O  O1  1  0.35033685  0.69365578  0.41609778  1
  O  O2  1  0.06576647  0.22246234  0.41608145  1
  O  O3  1  0.72247883  0.85016408  0.91602396  1
  O  O4  1  0.27752117  0.14983592  0.08397604  1
  O  O5  1  0.93423353  0.77753766  0.58391855  1
  O  O6  1  0.64966315  0.30634422  0.58390222  1
  O  O7  1  0.80643475  0.43416887  0.08399747  1
loop_
_geom_bond_atom_site_label_1
_geom_bond_atom_site_label_2
_geom_bond_distance
_geom_bond_site_symmetry_2
O0 W1 1.795245 1_455
O0 Sr0 2.577038 1_556
O0 Sr1 2.615929 1_555
O1 W0 1.795473 1_555
O1 Sr1 2.577389 1_565
O1 Sr0 2.615005 1_555
O2 W0 1.795556 1_555
O2 Sr1 2.577463 1_555
O2 Sr0 2.614800 1_445
O3 W1 1.795622 1_555
O3 Sr0 2.577491 1_556
O3 Sr1 2.616090 1_565
O4 W0 1.795622 1_555
O4 Sr1 2.577491 1_554
O4 Sr0 2.616090 1_545
O5 W1 1.795556 1_555
O5 Sr0 2.577463 1_555
O5 Sr1 2.614800 1_665
O6 W1 1.795473 1_555
O6 Sr0 2.577389 1_545
O6 Sr1 2.615005 1_555
O7 W0 1.795245 1_655
O7 Sr1 2.577038 1_554
O7 Sr0 2.615929 1_555
