# generated using pymatgen
data_Li9Mn2Co5O16
_symmetry_space_group_name_H-M   'P 1'
_cell_length_a   5.11867727
_cell_length_b   5.11867727
_cell_length_c   20.78998885
_cell_angle_alpha   81.81472970
_cell_angle_beta   81.81472970
_cell_angle_gamma   32.92169985
_symmetry_Int_Tables_number   1
_chemical_formula_structural   Li9Mn2Co5O16
_chemical_formula_sum   'Li9 Mn2 Co5 O16'
_cell_volume   292.76809097
_cell_formula_units_Z   1
loop_
 _symmetry_equiv_pos_site_id
 _symmetry_equiv_pos_as_xyz
  1  'x, y, z'
loop_
 _atom_site_type_symbol
 _atom_site_label
 _atom_site_symmetry_multiplicity
 _atom_site_fract_x
 _atom_site_fract_y
 _atom_site_fract_z
 _atom_site_occupancy
  Li  Li0  1  0.25619900  0.25619900  0.93610600  1
  Li  Li1  1  0.74380100  0.74380100  0.06389400  1
  Li  Li2  1  0.25193200  0.25193200  0.19396100  1
  Li  Li3  1  0.73954600  0.73954600  0.32092100  1
  Li  Li4  1  0.23940200  0.23940200  0.44390200  1
  Li  Li5  1  0.76059800  0.76059800  0.55609800  1
  Li  Li6  1  0.26045400  0.26045400  0.67907900  1
  Li  Li7  1  0.74806800  0.74806800  0.80603900  1
  Li  Li8  1  0.50000000  0.50000000  0.50000000  1
  Mn  Mn0  1  0.00110600  0.00110600  0.87403200  1
  Mn  Mn1  1  0.99889400  0.99889400  0.12596800  1
  Co  Co0  1  0.50000000  0.50000000  0.00000000  1
  Co  Co1  1  0.49952500  0.49952500  0.25607600  1
  Co  Co2  1  0.98361300  0.98361300  0.38773600  1
  Co  Co3  1  0.01638700  0.01638700  0.61226400  1
  Co  Co4  1  0.50047500  0.50047500  0.74392400  1
  O  O0  1  0.39124600  0.39124600  0.84574100  1
  O  O1  1  0.88765500  0.88765500  0.95989400  1
  O  O2  1  0.38521300  0.38521300  0.09951600  1
  O  O3  1  0.89034300  0.89034300  0.21393000  1
  O  O4  1  0.38439900  0.38439900  0.34246000  1
  O  O5  1  0.87439900  0.87439900  0.46426800  1
  O  O6  1  0.39279500  0.39279500  0.59678400  1
  O  O7  1  0.88541100  0.88541100  0.72237800  1
  O  O8  1  0.11234500  0.11234500  0.04010600  1
  O  O9  1  0.60875400  0.60875400  0.15425900  1
  O  O10  1  0.11458900  0.11458900  0.27762200  1
  O  O11  1  0.60720500  0.60720500  0.40321600  1
  O  O12  1  0.12560100  0.12560100  0.53573200  1
  O  O13  1  0.61560100  0.61560100  0.65754000  1
  O  O14  1  0.10965700  0.10965700  0.78607000  1
  O  O15  1  0.61478700  0.61478700  0.90048400  1
loop_
_geom_bond_atom_site_label_1
_geom_bond_atom_site_label_2
_geom_bond_distance
_geom_bond_site_symmetry_2
Li0 O1 2.050244 1_545
Li0 O1 2.050244 1_455
Li0 O0 2.132553 1_555
Li0 O15 2.210205 1_455
Li0 O15 2.210205 1_545
Li0 O8 2.400604 1_556
Li1 O8 2.050244 1_565
Li1 O8 2.050244 1_655
Li1 O9 2.132553 1_555
Li1 O2 2.210205 1_565
Li1 O2 2.210205 1_655
Li1 O1 2.400604 1_554
Li2 O10 2.036425 1_555
Li2 O3 2.071274 1_455
Li2 O3 2.071274 1_545
Li2 O2 2.191969 1_555
Li2 O9 2.259535 1_455
Li2 O9 2.259535 1_545
Li3 O11 1.988803 1_555
Li3 O4 2.125044 1_655
Li3 O4 2.125044 1_565
Li3 O10 2.178764 1_655
Li3 O10 2.178764 1_565
Li3 O3 2.482289 1_555
Li4 O5 2.050913 1_455
Li4 O5 2.050913 1_545
Li4 O12 2.063926 1_555
Li4 O11 2.197653 1_455
Li4 O11 2.197653 1_545
Li4 O4 2.362807 1_555
Li5 O12 2.050913 1_655
Li5 O12 2.050913 1_565
Li5 O5 2.063926 1_555
Li5 O6 2.197653 1_655
Li5 O6 2.197653 1_565
Li5 O13 2.362807 1_555
Li6 O6 1.988803 1_555
Li6 O13 2.125044 1_455
Li6 O13 2.125044 1_545
Li6 O7 2.178764 1_545
Li6 O7 2.178764 1_455
Li6 O14 2.482289 1_555
Li7 O7 2.036425 1_555
Li7 O14 2.071274 1_565
Li7 O14 2.071274 1_655
Li7 O15 2.191969 1_555
Li7 O0 2.259535 1_655
Li7 O0 2.259535 1_565
Li8 O12 2.109070 1_565
Li8 O12 2.109070 1_655
Li8 O5 2.109070 1_545
Li8 O5 2.109070 1_455
Li8 O6 2.127832 1_555
Li8 O11 2.127832 1_555
Mn0 O0 1.949713 1_545
Mn0 O0 1.949713 1_455
Mn0 O15 1.958081 1_455
Mn0 O15 1.958081 1_545
Mn0 O1 1.958762 1_445
Mn0 O14 1.975184 1_555
Mn1 O9 1.949713 1_565
Mn1 O9 1.949713 1_655
Mn1 O2 1.958081 1_655
Mn1 O2 1.958081 1_565
Mn1 O8 1.958762 1_665
Mn1 O3 1.975184 1_555
Co0 O8 2.070892 1_655
Co0 O8 2.070892 1_565
Co0 O1 2.070892 1_544
Co0 O1 2.070892 1_454
Co0 O15 2.204138 1_554
Co0 O2 2.204138 1_555
Co1 O10 1.931528 1_655
Co1 O10 1.931528 1_565
Co1 O4 1.974881 1_555
Co1 O3 2.073497 1_455
Co1 O3 2.073497 1_545
Co1 O9 2.226373 1_555
Co2 O5 1.781779 1_555
Co2 O11 1.948230 1_565
Co2 O11 1.948230 1_655
Co2 O4 2.052022 1_655
Co2 O4 2.052022 1_565
Co2 O10 2.453612 1_665
Co3 O12 1.781779 1_555
Co3 O6 1.948230 1_545
Co3 O6 1.948230 1_455
Co3 O13 2.052022 1_545
Co3 O13 2.052022 1_455
Co3 O7 2.453612 1_445
Co4 O7 1.931528 1_545
Co4 O7 1.931528 1_455
Co4 O13 1.974881 1_555
Co4 O14 2.073497 1_655
Co4 O14 2.073497 1_565
Co4 O0 2.226373 1_555
