# generated using pymatgen
data_Na3Tl4
_symmetry_space_group_name_H-M   'P 1'
_cell_length_a   5.37739009
_cell_length_b   5.37739009
_cell_length_c   9.22944159
_cell_angle_alpha   73.06316431
_cell_angle_beta   90.00000000
_cell_angle_gamma   120.00000000
_symmetry_Int_Tables_number   1
_chemical_formula_structural   Na3Tl4
_chemical_formula_sum   'Na3 Tl4'
_cell_volume   217.65726402
_cell_formula_units_Z   1
loop_
 _symmetry_equiv_pos_site_id
 _symmetry_equiv_pos_as_xyz
  1  'x, y, z'
loop_
 _atom_site_type_symbol
 _atom_site_label
 _atom_site_symmetry_multiplicity
 _atom_site_fract_x
 _atom_site_fract_y
 _atom_site_fract_z
 _atom_site_occupancy
  Na  Na0  1  0.37494600  0.74989200  0.87516200  1
  Na  Na1  1  0.99471000  0.98942000  0.01587000  1
  Na  Na2  1  0.50545600  0.01091300  0.48363100  1
  Tl  Tl0  1  0.62849800  0.25699500  0.11450700  1
  Tl  Tl1  1  0.12479900  0.24959900  0.62560200  1
  Tl  Tl2  1  0.24622000  0.49244100  0.26133900  1
  Tl  Tl3  1  0.75037000  0.50074000  0.74889000  1
loop_
_geom_bond_atom_site_label_1
_geom_bond_atom_site_label_2
_geom_bond_distance
_geom_bond_site_symmetry_2
Na0 Tl3 3.292915 1_565
Na0 Tl3 3.292915 1_455
Na0 Tl3 3.292915 1_555
Na0 Tl2 3.356494 1_556
Na1 Tl0 3.220829 1_565
Na1 Tl0 3.220834 1_555
Na1 Tl0 3.220834 1_665
Na1 Tl1 3.392051 1_664
Na1 Tl2 3.767048 1_655
Na1 Tl2 3.767052 1_555
Na1 Tl2 3.767052 1_665
Na2 Tl0 3.208276 1_555
Na2 Tl1 3.340871 1_545
Na2 Tl1 3.340871 1_655
Na2 Tl1 3.340871 1_555
Na2 Tl2 3.656730 1_555
Na2 Tl2 3.656730 1_655
Na2 Tl2 3.656730 1_545
Tl0 Tl2 3.356703 1_545
Tl0 Tl2 3.356703 1_655
Tl0 Tl2 3.356711 1_555
Tl1 Tl2 3.166026 1_555
