# generated using pymatgen
data_Sr5ZrTi4O15
_symmetry_space_group_name_H-M   'P 1'
_cell_length_a   12.00292396
_cell_length_b   12.00292396
_cell_length_c   12.00292369
_cell_angle_alpha   27.20523158
_cell_angle_beta   27.20523158
_cell_angle_gamma   27.20523631
_symmetry_Int_Tables_number   1
_chemical_formula_structural   Sr5ZrTi4O15
_chemical_formula_sum   'Sr5 Zr1 Ti4 O15'
_cell_volume   318.88978521
_cell_formula_units_Z   1
loop_
 _symmetry_equiv_pos_site_id
 _symmetry_equiv_pos_as_xyz
  1  'x, y, z'
loop_
 _atom_site_type_symbol
 _atom_site_label
 _atom_site_symmetry_multiplicity
 _atom_site_fract_x
 _atom_site_fract_y
 _atom_site_fract_z
 _atom_site_occupancy
  Sr  Sr0  1  0.89765300  0.89765300  0.89765300  1
  Sr  Sr1  1  0.10234700  0.10234700  0.10234700  1
  Sr  Sr2  1  0.50000000  0.50000000  0.50000000  1
  Sr  Sr3  1  0.29770300  0.29770300  0.29770300  1
  Sr  Sr4  1  0.70229700  0.70229700  0.70229700  1
  Zr  Zr0  1  0.00000000  0.00000000  0.00000000  1
  Ti  Ti0  1  0.40198500  0.40198500  0.40198500  1
  Ti  Ti1  1  0.80049100  0.80049100  0.80049100  1
  Ti  Ti2  1  0.19950900  0.19950900  0.19950900  1
  Ti  Ti3  1  0.59801500  0.59801500  0.59801500  1
  O  O0  1  0.39798700  0.39798700  0.89987900  1
  O  O1  1  0.60201300  0.60201300  0.10012100  1
  O  O2  1  0.00000000  0.00000000  0.50000000  1
  O  O3  1  0.79240800  0.79240800  0.30818800  1
  O  O4  1  0.20759200  0.20759200  0.69181200  1
  O  O5  1  0.89987900  0.39798700  0.39798700  1
  O  O6  1  0.10012100  0.60201300  0.60201300  1
  O  O7  1  0.50000000  0.00000000  0.00000000  1
  O  O8  1  0.30818800  0.79240800  0.79240800  1
  O  O9  1  0.69181200  0.20759200  0.20759200  1
  O  O10  1  0.39798700  0.89987900  0.39798700  1
  O  O11  1  0.60201300  0.10012100  0.60201300  1
  O  O12  1  0.00000000  0.50000000  0.00000000  1
  O  O13  1  0.79240800  0.30818800  0.79240800  1
  O  O14  1  0.20759200  0.69181200  0.20759200  1
loop_
_geom_bond_atom_site_label_1
_geom_bond_atom_site_label_2
_geom_bond_distance
_geom_bond_site_symmetry_2
O0 Ti2 1.974911 1_556
O0 Ti3 1.990748 1_555
O0 Sr2 2.791985 1_555
O0 Sr3 2.797958 1_556
O0 Sr0 2.823131 1_545
O0 Sr0 2.823131 1_455
O1 Ti1 1.974911 1_554
O1 Ti0 1.990748 1_555
O1 Sr2 2.791985 1_555
O1 Sr4 2.797958 1_554
O1 Sr1 2.823131 1_565
O1 Sr1 2.823131 1_655
O2 Ti2 1.987896 1_555
O2 Ti1 1.987896 1_445
O2 Sr0 2.761319 1_445
O2 Sr1 2.761319 1_555
O2 Sr2 2.822926 1_455
O2 Sr2 2.822926 1_545
O3 Ti3 1.948870 1_555
O3 Zr0 2.086699 1_665
O3 Sr3 2.823395 1_565
O3 Sr3 2.823395 1_655
O3 Sr0 2.857764 1_554
O3 Sr4 2.931907 1_555
O4 Ti0 1.948870 1_555
O4 Zr0 2.086699 1_556
O4 Sr4 2.823395 1_545
O4 Sr4 2.823395 1_455
O4 Sr1 2.857764 1_556
O4 Sr3 2.931907 1_555
O5 Ti2 1.974912 1_655
O5 Ti3 1.990748 1_555
O5 Sr2 2.791985 1_555
O5 Sr3 2.797959 1_655
O5 Sr0 2.823130 1_545
O5 Sr0 2.823130 1_554
O6 Ti1 1.974912 1_455
O6 Ti0 1.990748 1_555
O6 Sr2 2.791985 1_555
O6 Sr4 2.797959 1_455
O6 Sr1 2.823130 1_565
O6 Sr1 2.823130 1_556
O7 Ti2 1.987896 1_555
O7 Ti1 1.987896 1_544
O7 Sr0 2.761319 1_544
O7 Sr1 2.761319 1_555
O7 Sr2 2.822925 1_545
O7 Sr2 2.822925 1_554
O8 Ti3 1.948870 1_555
O8 Zr0 2.086699 1_566
O8 Sr3 2.823394 1_556
O8 Sr3 2.823394 1_565
O8 Sr0 2.857764 1_455
O8 Sr4 2.931907 1_555
O9 Ti0 1.948870 1_555
O9 Zr0 2.086699 1_655
O9 Sr4 2.823394 1_554
O9 Sr4 2.823394 1_545
O9 Sr1 2.857764 1_655
O9 Sr3 2.931907 1_555
O10 Ti2 1.974912 1_565
O10 Ti3 1.990748 1_555
O10 Sr2 2.791985 1_555
O10 Sr3 2.797959 1_565
O10 Sr0 2.823130 1_455
O10 Sr0 2.823130 1_554
O11 Ti1 1.974912 1_545
O11 Ti0 1.990748 1_555
O11 Sr2 2.791985 1_555
O11 Sr4 2.797959 1_545
O11 Sr1 2.823130 1_655
O11 Sr1 2.823130 1_556
O12 Ti2 1.987896 1_555
O12 Ti1 1.987896 1_454
O12 Sr0 2.761319 1_454
O12 Sr1 2.761319 1_555
O12 Sr2 2.822925 1_455
O12 Sr2 2.822925 1_554
O13 Ti3 1.948870 1_555
O13 Zr0 2.086699 1_656
O13 Sr3 2.823394 1_556
O13 Sr3 2.823394 1_655
O13 Sr0 2.857764 1_545
O13 Sr4 2.931907 1_555
O14 Ti0 1.948870 1_555
O14 Zr0 2.086699 1_565
O14 Sr4 2.823394 1_554
O14 Sr4 2.823394 1_455
O14 Sr1 2.857764 1_565
O14 Sr3 2.931907 1_555
