# generated using pymatgen
data_Zn4InGaO7
_symmetry_space_group_name_H-M   'P 1'
_cell_length_a   3.32781360
_cell_length_b   3.32781360
_cell_length_c   33.39609100
_cell_angle_alpha   90.00000000
_cell_angle_beta   90.00000000
_cell_angle_gamma   119.99999203
_symmetry_Int_Tables_number   1
_chemical_formula_structural   Zn4InGaO7
_chemical_formula_sum   'Zn8 In2 Ga2 O14'
_cell_volume   320.29066904
_cell_formula_units_Z   2
loop_
 _symmetry_equiv_pos_site_id
 _symmetry_equiv_pos_as_xyz
  1  'x, y, z'
loop_
 _atom_site_type_symbol
 _atom_site_label
 _atom_site_symmetry_multiplicity
 _atom_site_fract_x
 _atom_site_fract_y
 _atom_site_fract_z
 _atom_site_occupancy
  Zn  Zn0  1  0.66666700  0.33333300  0.40777300  1
  Zn  Zn1  1  0.33333300  0.66666700  0.59222700  1
  Zn  Zn2  1  0.33333300  0.66666700  0.90777300  1
  Zn  Zn3  1  0.66666700  0.33333300  0.09222700  1
  Zn  Zn4  1  0.00000000  0.00000000  0.32894800  1
  Zn  Zn5  1  0.00000000  0.00000000  0.67105200  1
  Zn  Zn6  1  0.00000000  0.00000000  0.82894800  1
  Zn  Zn7  1  0.00000000  0.00000000  0.17105200  1
  In  In0  1  0.00000000  0.00000000  0.50000000  1
  In  In1  1  0.00000000  0.00000000  0.00000000  1
  Ga  Ga0  1  0.66666700  0.33333300  0.25000000  1
  Ga  Ga1  1  0.33333300  0.66666700  0.75000000  1
  O  O0  1  0.66666700  0.33333300  0.46720100  1
  O  O1  1  0.33333300  0.66666700  0.53279900  1
  O  O2  1  0.33333300  0.66666700  0.96720100  1
  O  O3  1  0.66666700  0.33333300  0.03279900  1
  O  O4  1  0.00000000  0.00000000  0.38889600  1
  O  O5  1  0.00000000  0.00000000  0.61110400  1
  O  O6  1  0.00000000  0.00000000  0.88889600  1
  O  O7  1  0.00000000  0.00000000  0.11110400  1
  O  O8  1  0.66666700  0.33333300  0.31001300  1
  O  O9  1  0.33333300  0.66666700  0.68998700  1
  O  O10  1  0.33333300  0.66666700  0.81001300  1
  O  O11  1  0.66666700  0.33333300  0.18998700  1
  O  O12  1  0.00000000  0.00000000  0.25000000  1
  O  O13  1  0.00000000  0.00000000  0.75000000  1
loop_
_geom_bond_atom_site_label_1
_geom_bond_atom_site_label_2
_geom_bond_distance
_geom_bond_site_symmetry_2
In0 O1 2.211617 1_545
In0 O0 2.211617 1_455
In0 O0 2.211620 1_445
In0 O1 2.211620 1_555
In0 O1 2.211620 1_445
In0 O0 2.211620 1_555
In1 O3 2.211617 1_455
In1 O2 2.211617 1_544
In1 O3 2.211620 1_445
In1 O2 2.211620 1_554
In1 O3 2.211620 1_555
In1 O2 2.211620 1_444
Ga0 O12 1.921312 1_655
Ga0 O12 1.921315 1_665
Ga0 O12 1.921315 1_555
Ga0 O8 2.004200 1_555
Ga0 O11 2.004200 1_555
Ga1 O13 1.921312 1_565
Ga1 O13 1.921315 1_555
Ga1 O13 1.921315 1_665
Ga1 O9 2.004200 1_555
Ga1 O10 2.004200 1_555
O0 Zn0 1.984663 1_555
O1 Zn1 1.984663 1_555
O2 Zn2 1.984663 1_555
O3 Zn3 1.984663 1_555
O4 Zn4 2.002029 1_555
O4 Zn0 2.022095 1_455
O4 Zn0 2.022098 1_445
O4 Zn0 2.022098 1_555
O5 Zn5 2.002029 1_555
O5 Zn1 2.022095 1_545
O5 Zn1 2.022098 1_555
O5 Zn1 2.022098 1_445
O6 Zn6 2.002029 1_555
O6 Zn2 2.022095 1_545
O6 Zn2 2.022098 1_445
O6 Zn2 2.022098 1_555
O7 Zn7 2.002029 1_555
O7 Zn3 2.022095 1_455
O7 Zn3 2.022098 1_445
O7 Zn3 2.022098 1_555
O8 Zn4 2.022699 1_655
O8 Zn4 2.022702 1_665
O8 Zn4 2.022702 1_555
O9 Zn5 2.022699 1_565
O9 Zn5 2.022702 1_555
O9 Zn5 2.022702 1_665
O10 Zn6 2.022699 1_565
O10 Zn6 2.022702 1_665
O10 Zn6 2.022702 1_555
O11 Zn7 2.022699 1_655
O11 Zn7 2.022702 1_665
O11 Zn7 2.022702 1_555
