# generated using pymatgen
data_Zn(CoO2)4
_symmetry_space_group_name_H-M   'P 1'
_cell_length_a   6.03032171
_cell_length_b   6.03032171
_cell_length_c   6.03032182
_cell_angle_alpha   58.05892425
_cell_angle_beta   58.05892425
_cell_angle_gamma   58.05893155
_symmetry_Int_Tables_number   1
_chemical_formula_structural   Zn(CoO2)4
_chemical_formula_sum   'Zn1 Co4 O8'
_cell_volume   148.16027288
_cell_formula_units_Z   1
loop_
 _symmetry_equiv_pos_site_id
 _symmetry_equiv_pos_as_xyz
  1  'x, y, z'
loop_
 _atom_site_type_symbol
 _atom_site_label
 _atom_site_symmetry_multiplicity
 _atom_site_fract_x
 _atom_site_fract_y
 _atom_site_fract_z
 _atom_site_occupancy
  Zn  Zn0  1  0.50000000  0.50000000  0.50000000  1
  Co  Co0  1  0.00000000  0.50000000  0.50000000  1
  Co  Co1  1  0.50000000  0.00000000  0.50000000  1
  Co  Co2  1  0.50000000  0.50000000  0.00000000  1
  Co  Co3  1  0.00000000  0.00000000  0.00000000  1
  O  O0  1  0.27645700  0.75695100  0.75695100  1
  O  O1  1  0.24304900  0.24304900  0.72354300  1
  O  O2  1  0.72354300  0.24304900  0.24304900  1
  O  O3  1  0.24304900  0.72354300  0.24304900  1
  O  O4  1  0.26607000  0.26607000  0.26607000  1
  O  O5  1  0.73393000  0.73393000  0.73393000  1
  O  O6  1  0.75695100  0.27645700  0.75695100  1
  O  O7  1  0.75695100  0.75695100  0.27645700  1
loop_
_geom_bond_atom_site_label_1
_geom_bond_atom_site_label_2
_geom_bond_distance
_geom_bond_site_symmetry_2
Co0 O3 1.960551 1_555
Co0 O6 1.960551 1_455
Co0 O1 1.960552 1_555
Co0 O7 1.960552 1_455
Co0 O4 1.967280 1_555
Co0 O5 1.967280 1_455
Co1 O2 1.960551 1_555
Co1 O0 1.960551 1_545
Co1 O1 1.960552 1_555
Co1 O7 1.960552 1_545
Co1 O4 1.967280 1_555
Co1 O5 1.967280 1_545
Co2 O2 1.960552 1_555
Co2 O3 1.960552 1_555
Co2 O6 1.960552 1_554
Co2 O0 1.960552 1_554
Co2 O4 1.967279 1_555
Co2 O5 1.967279 1_554
Co3 O1 2.043973 1_554
Co3 O7 2.043973 1_445
Co3 O3 2.043973 1_545
Co3 O2 2.043973 1_455
Co3 O6 2.043973 1_454
Co3 O0 2.043973 1_544
O0 Zn0 2.176984 1_555
O1 Zn0 2.176984 1_555
O2 Zn0 2.176984 1_555
O3 Zn0 2.176984 1_555
O6 Zn0 2.176984 1_555
O7 Zn0 2.176984 1_555
