# generated using pymatgen
data_Li2Cr(CoO3)2
_symmetry_space_group_name_H-M   'P 1'
_cell_length_a   5.11846665
_cell_length_b   10.11921314
_cell_length_c   4.99663232
_cell_angle_alpha   89.85618801
_cell_angle_beta   120.80020415
_cell_angle_gamma   90.21555864
_symmetry_Int_Tables_number   1
_chemical_formula_structural   Li2Cr(CoO3)2
_chemical_formula_sum   'Li4 Cr2 Co4 O12'
_cell_volume   222.29659245
_cell_formula_units_Z   2
loop_
 _symmetry_equiv_pos_site_id
 _symmetry_equiv_pos_as_xyz
  1  'x, y, z'
loop_
 _atom_site_type_symbol
 _atom_site_label
 _atom_site_symmetry_multiplicity
 _atom_site_fract_x
 _atom_site_fract_y
 _atom_site_fract_z
 _atom_site_occupancy
  Li  Li0  1  0.63849600  0.74940400  0.49254700  1
  Li  Li1  1  0.85449800  0.25058100  0.49331900  1
  Li  Li2  1  0.15022900  0.74996500  0.50514800  1
  Li  Li3  1  0.35563000  0.25001300  0.50635800  1
  Cr  Cr0  1  0.50190700  0.49980200  0.00420900  1
  Cr  Cr1  1  0.99761900  0.00008700  0.99570700  1
  Co  Co0  1  0.84153900  0.49994900  0.68314000  1
  Co  Co1  1  0.33007600  0.00011500  0.66029700  1
  Co  Co2  1  0.65867600  0.00008700  0.31751600  1
  Co  Co3  1  0.17008400  0.49989600  0.33995900  1
  O  O0  1  0.16568300  0.59548200  0.01379200  1
  O  O1  1  0.33632400  0.09554500  0.98659500  1
  O  O2  1  0.65016900  0.90450100  0.98671800  1
  O  O3  1  0.84865900  0.40458800  0.01379800  1
  O  O4  1  0.32075800  0.89128600  0.35049200  1
  O  O5  1  0.50594200  0.39895300  0.35644600  1
  O  O6  1  0.85033600  0.60071100  0.35623500  1
  O  O7  1  0.02968800  0.10883000  0.35052400  1
  O  O8  1  0.65103800  0.10121600  0.64410000  1
  O  O9  1  0.99316500  0.89922800  0.64409000  1
  O  O10  1  0.17837900  0.39108100  0.64967100  1
  O  O11  1  0.47110400  0.60868000  0.64933800  1
loop_
_geom_bond_atom_site_label_1
_geom_bond_atom_site_label_2
_geom_bond_distance
_geom_bond_site_symmetry_2
Li0 O4 2.010069 1_555
Li0 O11 2.012037 1_555
Li0 O6 2.162710 1_555
Li0 O9 2.178255 1_555
Li1 O7 2.010150 1_655
Li1 O10 2.010334 1_655
Li1 O5 2.161096 1_555
Li1 O8 2.173145 1_555
Li2 O9 1.998904 1_455
Li2 O6 2.002370 1_455
Li2 O11 2.015251 1_555
Li2 O4 2.019875 1_555
Li3 O8 1.993313 1_555
Li3 O5 2.000079 1_555
Li3 O10 2.013412 1_555
Li3 O7 2.021877 1_555
Cr0 O0 1.999637 1_555
Cr0 O3 2.001552 1_555
Cr0 O10 2.020560 1_554
Cr0 O11 2.021888 1_554
Cr0 O5 2.023212 1_555
Cr0 O6 2.024837 1_555
Cr1 O2 2.001454 1_545
Cr1 O1 2.002175 1_655
Cr1 O7 2.022712 1_656
Cr1 O4 2.022765 1_646
Cr1 O8 2.023282 1_555
Cr1 O9 2.024026 1_545
Co0 O3 1.895468 1_556
Co0 O0 1.898846 1_656
Co0 O6 1.943287 1_555
Co0 O5 1.945090 1_555
Co0 O11 2.126259 1_555
Co0 O10 2.127121 1_655
Co1 O7 1.880694 1_555
Co1 O4 1.882514 1_545
Co1 O1 1.883084 1_555
Co1 O2 1.883621 1_545
Co1 O9 1.966401 1_445
Co1 O8 1.968554 1_555
Co2 O1 1.897238 1_554
Co2 O2 1.898284 1_544
Co2 O9 1.944039 1_545
Co2 O8 1.945667 1_555
Co2 O4 2.123091 1_545
Co2 O7 2.123383 1_655
Co3 O11 1.879360 1_555
Co3 O10 1.879785 1_555
Co3 O3 1.882271 1_455
Co3 O0 1.883291 1_555
Co3 O5 1.968036 1_555
Co3 O6 1.968544 1_455
