# generated using pymatgen
data_Li7Mn2(CoO4)3
_symmetry_space_group_name_H-M   'P 1'
_cell_length_a   2.92456614
_cell_length_b   15.21617290
_cell_length_c   9.78456468
_cell_angle_alpha   101.32570816
_cell_angle_beta   93.09603496
_cell_angle_gamma   88.99733601
_symmetry_Int_Tables_number   1
_chemical_formula_structural   Li7Mn2(CoO4)3
_chemical_formula_sum   'Li14 Mn4 Co6 O24'
_cell_volume   426.30720595
_cell_formula_units_Z   2
loop_
 _symmetry_equiv_pos_site_id
 _symmetry_equiv_pos_as_xyz
  1  'x, y, z'
loop_
 _atom_site_type_symbol
 _atom_site_label
 _atom_site_symmetry_multiplicity
 _atom_site_fract_x
 _atom_site_fract_y
 _atom_site_fract_z
 _atom_site_occupancy
  Li  Li0  1  0.00286900  0.08144400  0.74551100  1
  Li  Li1  1  0.00222200  0.58378300  0.25063600  1
  Li  Li2  1  0.50123100  0.33247200  0.49982400  1
  Li  Li3  1  0.49998800  0.83361000  0.99993400  1
  Li  Li4  1  0.49637300  0.08271700  0.24819600  1
  Li  Li5  1  0.50023000  0.58416200  0.75033200  1
  Li  Li6  1  0.99616200  0.42865100  0.76252200  1
  Li  Li7  1  0.99891000  0.92461800  0.25819200  1
  Li  Li8  1  0.00269600  0.24096100  0.24089600  1
  Li  Li9  1  0.99985100  0.74123600  0.74052500  1
  Li  Li10  1  0.47543800  0.16650100  0.00843000  1
  Li  Li11  1  0.48093100  0.66644100  0.50842500  1
  Li  Li12  1  0.52155200  0.50126900  0.99303000  1
  Li  Li13  1  0.51453000  0.99958600  0.49065300  1
  Mn  Mn0  1  0.98395000  0.50290000  0.50702800  1
  Mn  Mn1  1  0.00755800  0.16038100  0.49182800  1
  Mn  Mn2  1  0.98178400  0.00292200  0.00471900  1
  Mn  Mn3  1  0.01814100  0.66460300  0.99455900  1
  Co  Co0  1  0.99991300  0.83271300  0.49986800  1
  Co  Co1  1  0.51685300  0.25420500  0.75039400  1
  Co  Co2  1  0.48403100  0.41449200  0.25261500  1
  Co  Co3  1  0.00945500  0.33556100  0.00194900  1
  Co  Co4  1  0.52048400  0.75288300  0.24931300  1
  Co  Co5  1  0.47992800  0.91333900  0.75037100  1
  O  O0  1  0.50415500  0.46301500  0.61017000  1
  O  O1  1  0.50258400  0.96300500  0.10768400  1
  O  O2  1  0.48678800  0.20224000  0.39038900  1
  O  O3  1  0.49693600  0.70436300  0.89141800  1
  O  O4  1  0.00560100  0.21867500  0.87088400  1
  O  O5  1  0.97943500  0.71738900  0.37103800  1
  O  O6  1  0.02387000  0.45021900  0.13192900  1
  O  O7  1  0.01973400  0.94781600  0.62845100  1
  O  O8  1  0.99968300  0.04827300  0.38484100  1
  O  O9  1  0.00673000  0.55140100  0.88952300  1
  O  O10  1  0.99207400  0.11654200  0.10998600  1
  O  O11  1  0.99488900  0.61652800  0.61176600  1
  O  O12  1  0.47306000  0.29903100  0.12398600  1
  O  O13  1  0.46625400  0.79741800  0.62336500  1
  O  O14  1  0.54469100  0.37300900  0.88172200  1
  O  O15  1  0.53349200  0.86809400  0.37656200  1
  O  O16  1  0.52582700  0.12970000  0.61358100  1
  O  O17  1  0.53556900  0.63542600  0.11867300  1
  O  O18  1  0.46446600  0.03173200  0.88060500  1
  O  O19  1  0.46676700  0.53202400  0.38313800  1
  O  O20  1  0.95453500  0.38258300  0.37491200  1
  O  O21  1  0.95129300  0.88252400  0.87331100  1
  O  O22  1  0.02688900  0.28287700  0.62562100  1
  O  O23  1  0.04959700  0.78466900  0.12669700  1
loop_
_geom_bond_atom_site_label_1
_geom_bond_atom_site_label_2
_geom_bond_distance
_geom_bond_site_symmetry_2
Li0 O16 2.072158 1_455
Li0 O18 2.075110 1_555
Li0 O7 2.129913 1_545
Li0 O4 2.204227 1_555
Li0 O16 2.273657 1_555
Li0 O18 2.336239 1_455
Li1 O17 2.077955 1_455
Li1 O19 2.078516 1_555
Li1 O6 2.135355 1_555
Li1 O5 2.142041 1_455
Li1 O17 2.318765 1_555
Li1 O19 2.327425 1_455
Li2 O2 2.059086 1_555
Li2 O0 2.066079 1_555
Li2 O20 2.099801 1_555
Li2 O22 2.137223 1_655
Li2 O22 2.143570 1_555
Li2 O20 2.178027 1_455
Li3 O1 2.042665 1_556
Li3 O3 2.043178 1_555
Li3 O23 2.097992 1_556
Li3 O21 2.098625 1_555
Li3 O21 2.183949 1_455
Li3 O23 2.186810 1_656
Li4 O1 2.055847 1_545
Li4 O2 2.062204 1_555
Li4 O8 2.065093 1_555
Li4 O10 2.073705 1_455
Li4 O8 2.164256 1_455
Li4 O10 2.169472 1_555
Li5 O3 2.064010 1_555
Li5 O11 2.070097 1_455
Li5 O0 2.070517 1_555
Li5 O9 2.078571 1_655
Li5 O11 2.161633 1_555
Li5 O9 2.165765 1_555
Li6 O9 2.029779 1_655
Li6 O14 2.100904 1_555
Li6 O0 2.148062 1_555
Li6 O14 2.188340 1_655
Li6 O0 2.296812 1_655
Li6 O22 2.358276 1_655
Li7 O8 2.039591 1_565
Li7 O15 2.129882 1_555
Li7 O15 2.161954 1_655
Li7 O1 2.166595 1_555
Li7 O23 2.268371 1_655
Li7 O1 2.298258 1_655
Li8 O10 2.066663 1_455
Li8 O2 2.139319 1_555
Li8 O12 2.142689 1_555
Li8 O12 2.155518 1_455
Li8 O20 2.298381 1_455
Li8 O2 2.317586 1_455
Li9 O11 2.061126 1_555
Li9 O13 2.121356 1_655
Li9 O13 2.150633 1_555
Li9 O3 2.161711 1_655
Li9 O21 2.289603 1_555
Li9 O3 2.290569 1_555
Li10 O10 1.985580 1_555
Li10 O10 2.012379 1_455
Li10 O12 2.109484 1_555
Li10 O4 2.123981 1_554
Li10 O18 2.182003 1_554
Li10 O4 2.352379 1_654
Li11 O11 1.988985 1_555
Li11 O11 2.028413 1_455
Li11 O13 2.088169 1_555
Li11 O19 2.168058 1_555
Li11 O5 2.171565 1_455
Li11 O5 2.279062 1_555
Li12 O9 1.993251 1_555
Li12 O9 2.029168 1_655
Li12 O14 2.041583 1_555
Li12 O17 2.166089 1_556
Li12 O6 2.183494 1_656
Li12 O6 2.288415 1_556
Li13 O8 1.995419 1_465
Li13 O8 2.032392 1_565
Li13 O15 2.092370 1_555
Li13 O16 2.104813 1_565
Li13 O7 2.186937 1_655
Li13 O7 2.280403 1_555
Mn0 O11 1.828414 1_555
Mn0 O0 1.934887 1_655
Mn0 O0 1.943989 1_555
Mn0 O19 1.985721 1_555
Mn0 O19 2.019272 1_655
Mn0 O20 2.023393 1_555
Mn1 O8 1.817606 1_455
Mn1 O2 1.939455 1_455
Mn1 O2 1.945491 1_555
Mn1 O16 1.983219 1_555
Mn1 O16 2.011161 1_455
Mn1 O22 2.056321 1_555
Mn2 O10 1.830248 1_555
Mn2 O1 1.935458 1_645
Mn2 O1 1.941810 1_545
Mn2 O18 1.985781 1_554
Mn2 O18 2.018810 1_654
Mn2 O21 2.021266 1_544
Mn3 O9 1.824103 1_555
Mn3 O3 1.936320 1_455
Mn3 O3 1.940963 1_555
Mn3 O17 1.987850 1_556
Mn3 O17 2.020521 1_456
Mn3 O23 2.020666 1_556
Co0 O15 1.912543 1_555
Co0 O13 1.913083 1_655
Co0 O7 1.945235 1_655
Co0 O5 1.948990 1_555
Co0 O15 2.160666 1_655
Co0 O13 2.161566 1_555
Co1 O22 1.931958 1_555
Co1 O4 1.940765 1_655
Co1 O14 2.001805 1_555
Co1 O22 2.081939 1_655
Co1 O4 2.094474 1_555
Co1 O16 2.094692 1_555
Co2 O6 1.885719 1_555
Co2 O20 1.894211 1_555
Co2 O12 1.949560 1_555
Co2 O19 1.984595 1_555
Co2 O20 2.126105 1_455
Co2 O6 2.160120 1_655
Co3 O14 1.902499 1_454
Co3 O12 1.905922 1_555
Co3 O6 1.946369 1_555
Co3 O4 1.977692 1_554
Co3 O14 2.156897 1_554
Co3 O12 2.165463 1_455
Co4 O5 1.888496 1_555
Co4 O23 1.896302 1_555
Co4 O15 1.940317 1_555
Co4 O17 1.983974 1_555
Co4 O23 2.126614 1_655
Co4 O5 2.167982 1_455
Co5 O7 1.886089 1_555
Co5 O21 1.893941 1_555
Co5 O13 1.947642 1_555
Co5 O18 1.993220 1_565
Co5 O21 2.122464 1_455
Co5 O7 2.160744 1_655
