# generated using pymatgen
data_Cu4Se3O10
_symmetry_space_group_name_H-M   'P 1'
_cell_length_a   13.68280596
_cell_length_b   16.21499943
_cell_length_c   18.01873035
_cell_angle_alpha   90.87955734
_cell_angle_beta   90.00000000
_cell_angle_gamma   90.00000000
_symmetry_Int_Tables_number   1
_chemical_formula_structural   Cu4Se3O10
_chemical_formula_sum   'Cu64 Se48 O160'
_cell_volume   3997.28503279
_cell_formula_units_Z   16
loop_
 _symmetry_equiv_pos_site_id
 _symmetry_equiv_pos_as_xyz
  1  'x, y, z'
loop_
 _atom_site_type_symbol
 _atom_site_label
 _atom_site_symmetry_multiplicity
 _atom_site_fract_x
 _atom_site_fract_y
 _atom_site_fract_z
 _atom_site_occupancy
  Cu  Cu0  1  0.70623363  0.25369904  0.87510023  1
  Cu  Cu1  1  0.20623363  0.24630096  0.12489977  1
  Cu  Cu2  1  0.29376637  0.74630096  0.12489977  1
  Cu  Cu3  1  0.79376637  0.75369904  0.87510023  1
  Cu  Cu4  1  0.91572668  0.25660048  0.87134488  1
  Cu  Cu5  1  0.41572668  0.24339952  0.12865512  1
  Cu  Cu6  1  0.08427332  0.74339952  0.12865512  1
  Cu  Cu7  1  0.58427332  0.75660048  0.87134488  1
  Cu  Cu8  1  0.14208572  0.25364442  0.88552004  1
  Cu  Cu9  1  0.64208572  0.24635558  0.11447996  1
  Cu  Cu10  1  0.85791428  0.74635558  0.11447996  1
  Cu  Cu11  1  0.35791428  0.75364442  0.88552004  1
  Cu  Cu12  1  0.47970534  0.25922271  0.86555131  1
  Cu  Cu13  1  0.97970534  0.24077729  0.13444869  1
  Cu  Cu14  1  0.52029466  0.74077729  0.13444869  1
  Cu  Cu15  1  0.02029466  0.75922271  0.86555131  1
  Cu  Cu16  1  0.66041044  0.25980954  0.62491283  1
  Cu  Cu17  1  0.16041044  0.24019046  0.37508717  1
  Cu  Cu18  1  0.33958956  0.74019046  0.37508717  1
  Cu  Cu19  1  0.83958956  0.75980954  0.62491283  1
  Cu  Cu20  1  0.00041105  0.26229612  0.61230202  1
  Cu  Cu21  1  0.50041105  0.23770388  0.38769798  1
  Cu  Cu22  1  0.99958895  0.73770388  0.38769798  1
  Cu  Cu23  1  0.49958895  0.76229612  0.61230202  1
  Cu  Cu24  1  0.23053456  0.25159500  0.62847149  1
  Cu  Cu25  1  0.73053456  0.24840500  0.37152851  1
  Cu  Cu26  1  0.76946544  0.74840500  0.37152851  1
  Cu  Cu27  1  0.26946544  0.75159500  0.62847149  1
  Cu  Cu28  1  0.43737302  0.25531490  0.62168864  1
  Cu  Cu29  1  0.93737302  0.24468510  0.37831136  1
  Cu  Cu30  1  0.56262698  0.74468510  0.37831136  1
  Cu  Cu31  1  0.06262698  0.75531490  0.62168864  1
  Cu  Cu32  1  0.82128847  0.43372052  0.88676098  1
  Cu  Cu33  1  0.32128847  0.06627948  0.11323902  1
  Cu  Cu34  1  0.17871153  0.56627948  0.11323902  1
  Cu  Cu35  1  0.67871153  0.93372052  0.88676098  1
  Cu  Cu36  1  0.34184019  0.34593521  0.77190377  1
  Cu  Cu37  1  0.84184019  0.15406479  0.22809623  1
  Cu  Cu38  1  0.65815981  0.65406479  0.22809623  1
  Cu  Cu39  1  0.15815981  0.84593521  0.77190377  1
  Cu  Cu40  1  0.32967257  0.42999932  0.61618452  1
  Cu  Cu41  1  0.82967257  0.07000068  0.38381548  1
  Cu  Cu42  1  0.67032743  0.57000068  0.38381548  1
  Cu  Cu43  1  0.17032743  0.92999932  0.61618452  1
  Cu  Cu44  1  0.85524042  0.34807343  0.51504075  1
  Cu  Cu45  1  0.35524042  0.15192657  0.48495925  1
  Cu  Cu46  1  0.14475958  0.65192657  0.48495925  1
  Cu  Cu47  1  0.64475958  0.84807343  0.51504075  1
  Cu  Cu48  1  0.82938952  0.42686120  0.36199530  1
  Cu  Cu49  1  0.32938952  0.07313880  0.63800470  1
  Cu  Cu50  1  0.17061048  0.57313880  0.63800470  1
  Cu  Cu51  1  0.67061048  0.92686120  0.36199530  1
  Cu  Cu52  1  0.29962015  0.32246504  0.27706452  1
  Cu  Cu53  1  0.79962015  0.17753496  0.72293548  1
  Cu  Cu54  1  0.70037985  0.67753496  0.72293548  1
  Cu  Cu55  1  0.20037985  0.82246504  0.27706452  1
  Cu  Cu56  1  0.32879215  0.42490055  0.14499408  1
  Cu  Cu57  1  0.82879215  0.07509945  0.85500592  1
  Cu  Cu58  1  0.67120785  0.57509945  0.85500592  1
  Cu  Cu59  1  0.17120785  0.92490055  0.14499408  1
  Cu  Cu60  1  0.78769395  0.33393445  0.02256745  1
  Cu  Cu61  1  0.28769395  0.16606555  0.97743255  1
  Cu  Cu62  1  0.21230605  0.66606555  0.97743255  1
  Cu  Cu63  1  0.71230605  0.83393445  0.02256745  1
  Se  Se0  1  0.59446702  0.41859079  0.94273140  1
  Se  Se1  1  0.09446702  0.08140921  0.05726860  1
  Se  Se2  1  0.40553298  0.58140921  0.05726860  1
  Se  Se3  1  0.90553298  0.91859079  0.94273140  1
  Se  Se4  1  0.01271042  0.38781321  0.99050499  1
  Se  Se5  1  0.51271042  0.11218679  0.00949501  1
  Se  Se6  1  0.98728958  0.61218679  0.00949501  1
  Se  Se7  1  0.48728958  0.88781321  0.99050499  1
  Se  Se8  1  0.29707217  0.38142740  0.95337878  1
  Se  Se9  1  0.79707217  0.11857260  0.04662122  1
  Se  Se10  1  0.70292783  0.61857260  0.04662122  1
  Se  Se11  1  0.20292783  0.88142740  0.95337878  1
  Se  Se12  1  0.54073016  0.41917769  0.69922306  1
  Se  Se13  1  0.04073016  0.08082231  0.30077694  1
  Se  Se14  1  0.45926984  0.58082231  0.30077694  1
  Se  Se15  1  0.95926984  0.91917769  0.69922306  1
  Se  Se16  1  0.81709345  0.38882180  0.69350258  1
  Se  Se17  1  0.31709345  0.11117820  0.30649742  1
  Se  Se18  1  0.18290655  0.61117820  0.30649742  1
  Se  Se19  1  0.68290655  0.88882180  0.69350258  1
  Se  Se20  1  0.12069648  0.39768818  0.72867565  1
  Se  Se21  1  0.62069648  0.10231182  0.27132435  1
  Se  Se22  1  0.87930352  0.60231182  0.27132435  1
  Se  Se23  1  0.37930352  0.89768818  0.72867565  1
  Se  Se24  1  0.62989779  0.39303979  0.47585486  1
  Se  Se25  1  0.12989779  0.10696021  0.52414514  1
  Se  Se26  1  0.37010221  0.60696021  0.52414514  1
  Se  Se27  1  0.87010221  0.89303979  0.47585486  1
  Se  Se28  1  0.04595331  0.41762184  0.42739189  1
  Se  Se29  1  0.54595331  0.08237816  0.57260811  1
  Se  Se30  1  0.95404669  0.58237816  0.57260811  1
  Se  Se31  1  0.45404669  0.91762184  0.42739189  1
  Se  Se32  1  0.34276776  0.36699532  0.45093857  1
  Se  Se33  1  0.84276776  0.13300468  0.54906143  1
  Se  Se34  1  0.65723224  0.63300468  0.54906143  1
  Se  Se35  1  0.15723224  0.86699532  0.45093857  1
  Se  Se36  1  0.52491408  0.37275726  0.24290544  1
  Se  Se37  1  0.02491408  0.12724274  0.75709456  1
  Se  Se38  1  0.47508592  0.62724274  0.75709456  1
  Se  Se39  1  0.97508592  0.87275726  0.24290544  1
  Se  Se40  1  0.81991189  0.37040166  0.19833043  1
  Se  Se41  1  0.31991189  0.12959834  0.80166957  1
  Se  Se42  1  0.18008811  0.62959834  0.80166957  1
  Se  Se43  1  0.68008811  0.87040166  0.19833043  1
  Se  Se44  1  0.10124249  0.40781322  0.20290610  1
  Se  Se45  1  0.60124249  0.09218678  0.79709390  1
  Se  Se46  1  0.89875751  0.59218678  0.79709390  1
  Se  Se47  1  0.39875751  0.90781322  0.20290610  1
  O  O0  1  0.80759199  0.32093657  0.91684925  1
  O  O1  1  0.30759199  0.17906343  0.08315075  1
  O  O2  1  0.19240801  0.67906343  0.08315075  1
  O  O3  1  0.69240801  0.82093657  0.91684925  1
  O  O4  1  0.33427233  0.32358659  0.66509766  1
  O  O5  1  0.83427233  0.17641341  0.33490234  1
  O  O6  1  0.66572767  0.67641341  0.33490234  1
  O  O7  1  0.16572767  0.82358659  0.66509766  1
  O  O8  1  0.83575776  0.32044132  0.41024028  1
  O  O9  1  0.33575776  0.17955868  0.58975972  1
  O  O10  1  0.16424224  0.67955868  0.58975972  1
  O  O11  1  0.66424224  0.82044132  0.41024028  1
  O  O12  1  0.31171825  0.31009050  0.17110460  1
  O  O13  1  0.81171825  0.18990950  0.82889540  1
  O  O14  1  0.68828175  0.68990950  0.82889540  1
  O  O15  1  0.18828175  0.81009050  0.17110460  1
  O  O16  1  0.67051316  0.41363699  0.01627005  1
  O  O17  1  0.17051316  0.08636301  0.98372995  1
  O  O18  1  0.32948684  0.58636301  0.98372995  1
  O  O19  1  0.82948684  0.91363699  0.01627005  1
  O  O20  1  0.59030353  0.31255324  0.91713657  1
  O  O21  1  0.09030353  0.18744676  0.08286343  1
  O  O22  1  0.40969647  0.68744676  0.08286343  1
  O  O23  1  0.90969647  0.81255324  0.91713657  1
  O  O24  1  0.67423720  0.45300417  0.87225361  1
  O  O25  1  0.17423720  0.04699583  0.12774639  1
  O  O26  1  0.32576280  0.54699583  0.12774639  1
  O  O27  1  0.82576280  0.95300417  0.87225361  1
  O  O28  1  0.02330419  0.30938903  0.92095131  1
  O  O29  1  0.52330419  0.19061097  0.07904869  1
  O  O30  1  0.97669581  0.69061097  0.07904869  1
  O  O31  1  0.47669581  0.80938903  0.92095131  1
  O  O32  1  0.94382113  0.45663029  0.94204256  1
  O  O33  1  0.44382113  0.04336971  0.05795744  1
  O  O34  1  0.05617887  0.54336971  0.05795744  1
  O  O35  1  0.55617887  0.95663029  0.94204256  1
  O  O36  1  0.92925848  0.34270834  0.05029715  1
  O  O37  1  0.42925848  0.15729166  0.94970285  1
  O  O38  1  0.07074152  0.65729166  0.94970285  1
  O  O39  1  0.57074152  0.84270834  0.05029715  1
  O  O40  1  0.22202570  0.29474629  0.97001843  1
  O  O41  1  0.72202570  0.20525371  0.02998157  1
  O  O42  1  0.77797430  0.70525371  0.02998157  1
  O  O43  1  0.27797430  0.79474629  0.97001843  1
  O  O44  1  0.37089690  0.38264220  0.02820943  1
  O  O45  1  0.87089690  0.11735780  0.97179057  1
  O  O46  1  0.62910310  0.61735780  0.97179057  1
  O  O47  1  0.12910310  0.88264220  0.02820943  1
  O  O48  1  0.37407808  0.34252372  0.88208560  1
  O  O49  1  0.87407808  0.15747628  0.11791440  1
  O  O50  1  0.62592192  0.65747628  0.11791440  1
  O  O51  1  0.12592192  0.84252372  0.88208560  1
  O  O52  1  0.45389363  0.47711622  0.65490284  1
  O  O53  1  0.95389363  0.02288378  0.34509716  1
  O  O54  1  0.54610637  0.52288378  0.34509716  1
  O  O55  1  0.04610637  0.97711622  0.65490284  1
  O  O56  1  0.54455753  0.33278872  0.63580663  1
  O  O57  1  0.04455753  0.16721128  0.36419337  1
  O  O58  1  0.45544247  0.66721128  0.36419337  1
  O  O59  1  0.95544247  0.83278872  0.63580663  1
  O  O60  1  0.48124320  0.37593318  0.77177654  1
  O  O61  1  0.98124320  0.12406682  0.22822346  1
  O  O62  1  0.51875680  0.62406682  0.22822346  1
  O  O63  1  0.01875680  0.87593318  0.77177654  1
  O  O64  1  0.73587840  0.30679934  0.70906508  1
  O  O65  1  0.23587840  0.19320066  0.29093492  1
  O  O66  1  0.26412160  0.69320066  0.29093492  1
  O  O67  1  0.76412160  0.80679934  0.70906508  1
  O  O68  1  0.88446488  0.38883342  0.77185022  1
  O  O69  1  0.38446488  0.11116658  0.22814978  1
  O  O70  1  0.11553512  0.61116658  0.22814978  1
  O  O71  1  0.61553512  0.88883342  0.77185022  1
  O  O72  1  0.89595631  0.34713762  0.62391265  1
  O  O73  1  0.39595631  0.15286238  0.37608735  1
  O  O74  1  0.10404369  0.65286238  0.37608735  1
  O  O75  1  0.60404369  0.84713762  0.62391265  1
  O  O76  1  0.19965939  0.35396337  0.79248913  1
  O  O77  1  0.69965939  0.14603663  0.20751087  1
  O  O78  1  0.80034061  0.64603663  0.20751087  1
  O  O79  1  0.30034061  0.85396337  0.79248913  1
  O  O80  1  0.11426058  0.31581356  0.66287620  1
  O  O81  1  0.61426058  0.18418644  0.33712380  1
  O  O82  1  0.88573942  0.68418644  0.33712380  1
  O  O83  1  0.38573942  0.81581356  0.66287620  1
  O  O84  1  0.19997786  0.46498580  0.68517285  1
  O  O85  1  0.69997786  0.03501420  0.31482715  1
  O  O86  1  0.80002214  0.53501420  0.31482715  1
  O  O87  1  0.30002214  0.96498580  0.68517285  1
  O  O88  1  0.71304320  0.35314402  0.53825007  1
  O  O89  1  0.21304320  0.14685598  0.46174993  1
  O  O90  1  0.28695680  0.64685598  0.46174993  1
  O  O91  1  0.78695680  0.85314402  0.53825007  1
  O  O92  1  0.61892659  0.31009358  0.41214626  1
  O  O93  1  0.11892659  0.18990642  0.58785374  1
  O  O94  1  0.38107341  0.68990642  0.58785374  1
  O  O95  1  0.88107341  0.81009358  0.41214626  1
  O  O96  1  0.70465826  0.46068792  0.42804069  1
  O  O97  1  0.20465826  0.03931208  0.57195931  1
  O  O98  1  0.29534174  0.53931208  0.57195931  1
  O  O99  1  0.79534174  0.96068792  0.42804069  1
  O  O100  1  0.97027397  0.44707828  0.35631817  1
  O  O101  1  0.47027397  0.05292172  0.64368183  1
  O  O102  1  0.02972603  0.55292172  0.64368183  1
  O  O103  1  0.52972603  0.94707828  0.35631817  1
  O  O104  1  0.05122146  0.30846566  0.41125674  1
  O  O105  1  0.55122146  0.19153434  0.58874326  1
  O  O106  1  0.94877854  0.69153434  0.58874326  1
  O  O107  1  0.44877854  0.80846566  0.41125674  1
  O  O108  1  0.97281005  0.41444271  0.50433379  1
  O  O109  1  0.47281005  0.08555729  0.49566621  1
  O  O110  1  0.02718995  0.58555729  0.49566621  1
  O  O111  1  0.52718995  0.91444271  0.50433379  1
  O  O112  1  0.26913687  0.36692576  0.52717861  1
  O  O113  1  0.76913687  0.13307424  0.47282139  1
  O  O114  1  0.73086313  0.63307424  0.47282139  1
  O  O115  1  0.23086313  0.86692576  0.52717861  1
  O  O116  1  0.42298291  0.28647861  0.47051658  1
  O  O117  1  0.92298291  0.21352139  0.52948342  1
  O  O118  1  0.57701709  0.71352139  0.52948342  1
  O  O119  1  0.07701709  0.78647861  0.47051658  1
  O  O120  1  0.26501211  0.32221237  0.38431141  1
  O  O121  1  0.76501211  0.17778763  0.61568859  1
  O  O122  1  0.73498789  0.67778763  0.61568859  1
  O  O123  1  0.23498789  0.82221237  0.38431141  1
  O  O124  1  0.45343152  0.44237776  0.19782403  1
  O  O125  1  0.95343152  0.05762224  0.80217597  1
  O  O126  1  0.54656848  0.55762224  0.80217597  1
  O  O127  1  0.04656848  0.94237776  0.19782403  1
  O  O128  1  0.53287789  0.29275090  0.17470371  1
  O  O129  1  0.03287789  0.20724910  0.82529629  1
  O  O130  1  0.46712211  0.70724910  0.82529629  1
  O  O131  1  0.96712211  0.79275090  0.17470371  1
  O  O132  1  0.44151086  0.32611419  0.30237663  1
  O  O133  1  0.94151086  0.17388581  0.69762337  1
  O  O134  1  0.55848914  0.67388581  0.69762337  1
  O  O135  1  0.05848914  0.82611419  0.30237663  1
  O  O136  1  0.74496401  0.32847027  0.12773782  1
  O  O137  1  0.24496401  0.17152973  0.87226218  1
  O  O138  1  0.25503599  0.67152973  0.87226218  1
  O  O139  1  0.75503599  0.82847027  0.12773782  1
  O  O140  1  0.74787141  0.36234399  0.27424060  1
  O  O141  1  0.24787141  0.13765601  0.72575940  1
  O  O142  1  0.25212859  0.63765601  0.72575940  1
  O  O143  1  0.75212859  0.86234399  0.27424060  1
  O  O144  1  0.90224970  0.29049635  0.21388188  1
  O  O145  1  0.40224970  0.20950365  0.78611812  1
  O  O146  1  0.09775030  0.70950365  0.78611812  1
  O  O147  1  0.59775030  0.79049635  0.21388188  1
  O  O148  1  0.18174807  0.44754155  0.13608269  1
  O  O149  1  0.68174807  0.05245845  0.86391731  1
  O  O150  1  0.81825193  0.55245845  0.86391731  1
  O  O151  1  0.31825193  0.94754155  0.13608269  1
  O  O152  1  0.17633855  0.39499499  0.27603783  1
  O  O153  1  0.67633855  0.10500501  0.72396217  1
  O  O154  1  0.82366145  0.60500501  0.72396217  1
  O  O155  1  0.32366145  0.89499499  0.27603783  1
  O  O156  1  0.09704609  0.30648687  0.16515318  1
  O  O157  1  0.59704609  0.19351313  0.83484682  1
  O  O158  1  0.90295391  0.69351313  0.83484682  1
  O  O159  1  0.40295391  0.80648687  0.16515318  1
loop_
_geom_bond_atom_site_label_1
_geom_bond_atom_site_label_2
_geom_bond_distance
_geom_bond_site_symmetry_2
Cu0 O0 1.911225 1_555
Cu0 O157 1.920618 1_555
Cu0 O13 1.954423 1_555
Cu0 O20 1.994603 1_555
Cu1 O1 1.911225 1_555
Cu1 O156 1.920618 1_555
Cu1 O12 1.954423 1_555
Cu1 O21 1.994603 1_555
Cu2 O2 1.911225 1_555
Cu2 O159 1.920618 1_555
Cu2 O15 1.954423 1_555
Cu2 O22 1.994603 1_555
Cu3 O3 1.911225 1_555
Cu3 O158 1.920618 1_555
Cu3 O14 1.954423 1_555
Cu3 O23 1.994603 1_555
Cu4 O28 1.916982 1_655
Cu4 O13 1.937617 1_555
Cu4 O129 1.969244 1_655
Cu4 O0 1.980779 1_555
Cu5 O29 1.916982 1_555
Cu5 O12 1.937617 1_555
Cu5 O128 1.969244 1_555
Cu5 O1 1.980779 1_555
Cu6 O30 1.916982 1_455
Cu6 O15 1.937617 1_555
Cu6 O131 1.969244 1_455
Cu6 O2 1.980779 1_555
Cu7 O31 1.916982 1_555
Cu7 O14 1.937617 1_555
Cu7 O130 1.969244 1_555
Cu7 O3 1.980779 1_555
Cu8 O137 1.949791 1_555
Cu8 O28 1.961731 1_555
Cu8 O40 1.981817 1_555
Cu8 O129 1.987787 1_555
Cu8 O76 2.482002 1_555
Cu9 O136 1.949791 1_555
Cu9 O29 1.961731 1_555
Cu9 O41 1.981817 1_555
Cu9 O128 1.987787 1_555
Cu9 O77 2.482002 1_555
Cu10 O139 1.949791 1_555
Cu10 O30 1.961731 1_555
Cu10 O42 1.981817 1_555
Cu10 O131 1.987787 1_555
Cu10 O78 2.482002 1_555
Cu11 O138 1.949791 1_555
Cu11 O31 1.961731 1_555
Cu11 O43 1.981817 1_555
Cu11 O130 1.987787 1_555
Cu11 O79 2.482002 1_555
Cu12 O145 1.945842 1_555
Cu12 O20 1.969049 1_555
Cu12 O48 1.997421 1_555
Cu12 O157 2.000259 1_555
Cu12 O37 2.363125 1_555
Cu12 O60 2.556387 1_555
Cu13 O144 1.945842 1_555
Cu13 O21 1.969049 1_655
Cu13 O49 1.997421 1_555
Cu13 O156 2.000259 1_655
Cu13 O36 2.363125 1_555
Cu13 O61 2.556387 1_555
Cu14 O147 1.945842 1_555
Cu14 O22 1.969049 1_555
Cu14 O50 1.997421 1_555
Cu14 O159 2.000259 1_555
Cu14 O39 2.363125 1_555
Cu14 O62 2.556387 1_555
Cu15 O146 1.945842 1_555
Cu15 O23 1.969049 1_455
Cu15 O51 1.997421 1_555
Cu15 O158 2.000259 1_455
Cu15 O38 2.363125 1_555
Cu15 O63 2.556387 1_555
Cu16 O121 1.959122 1_555
Cu16 O105 1.964765 1_555
Cu16 O64 1.977521 1_555
Cu16 O56 1.986094 1_555
Cu16 O88 2.306529 1_555
Cu17 O120 1.959122 1_555
Cu17 O104 1.964765 1_555
Cu17 O65 1.977521 1_555
Cu17 O57 1.986094 1_555
Cu17 O89 2.306529 1_555
Cu18 O123 1.959122 1_555
Cu18 O107 1.964765 1_555
Cu18 O66 1.977521 1_555
Cu18 O58 1.986094 1_555
Cu18 O90 2.306529 1_555
Cu19 O122 1.959122 1_555
Cu19 O106 1.964765 1_555
Cu19 O67 1.977521 1_555
Cu19 O59 1.986094 1_555
Cu19 O91 2.306529 1_555
Cu20 O117 1.984585 1_455
Cu20 O72 1.992538 1_455
Cu20 O80 1.996469 1_555
Cu20 O93 2.045889 1_555
Cu20 O133 2.266241 1_455
Cu21 O116 1.984585 1_555
Cu21 O73 1.992538 1_555
Cu21 O81 1.996469 1_555
Cu21 O92 2.045889 1_555
Cu21 O132 2.266241 1_555
Cu22 O119 1.984585 1_655
Cu22 O74 1.992538 1_655
Cu22 O82 1.996469 1_555
Cu22 O95 2.045889 1_555
Cu22 O135 2.266241 1_655
Cu23 O118 1.984585 1_555
Cu23 O75 1.992538 1_555
Cu23 O83 1.996469 1_555
Cu23 O94 2.045889 1_555
Cu23 O134 2.266241 1_555
Cu24 O4 1.946624 1_555
Cu24 O93 1.961071 1_555
Cu24 O9 1.974539 1_555
Cu24 O80 1.994979 1_555
Cu24 O141 2.577220 1_555
Cu25 O5 1.946624 1_555
Cu25 O92 1.961071 1_555
Cu25 O8 1.974539 1_555
Cu25 O81 1.994979 1_555
Cu25 O140 2.577220 1_555
Cu26 O6 1.946624 1_555
Cu26 O95 1.961071 1_555
Cu26 O11 1.974539 1_555
Cu26 O82 1.994979 1_555
Cu26 O143 2.577220 1_555
Cu27 O7 1.946624 1_555
Cu27 O94 1.961071 1_555
Cu27 O10 1.974539 1_555
Cu27 O83 1.994979 1_555
Cu27 O142 2.577220 1_555
Cu28 O9 1.936851 1_555
Cu28 O56 1.945227 1_555
Cu28 O4 1.949567 1_555
Cu28 O105 1.956978 1_555
Cu29 O8 1.936851 1_555
Cu29 O57 1.945227 1_655
Cu29 O5 1.949567 1_555
Cu29 O104 1.956978 1_655
Cu30 O11 1.936851 1_555
Cu30 O58 1.945227 1_555
Cu30 O6 1.949567 1_555
Cu30 O107 1.956978 1_555
Cu31 O10 1.936851 1_555
Cu31 O59 1.945227 1_455
Cu31 O7 1.949567 1_555
Cu31 O106 1.956978 1_455
Cu32 O0 1.924570 1_555
Cu32 O150 1.975449 1_555
Cu32 O32 1.982377 1_555
Cu32 O24 2.053547 1_555
Cu32 O68 2.349019 1_555
Cu33 O1 1.924570 1_555
Cu33 O151 1.975449 1_545
Cu33 O33 1.982377 1_555
Cu33 O25 2.053547 1_555
Cu33 O69 2.349019 1_555
Cu34 O2 1.924570 1_555
Cu34 O148 1.975449 1_555
Cu34 O34 1.982377 1_555
Cu34 O26 2.053547 1_555
Cu34 O70 2.349019 1_555
Cu35 O3 1.924570 1_555
Cu35 O149 1.975449 1_565
Cu35 O35 1.982377 1_555
Cu35 O27 2.053547 1_555
Cu35 O71 2.349019 1_555
Cu36 O4 1.955600 1_555
Cu36 O60 1.968479 1_555
Cu36 O76 1.984377 1_555
Cu36 O48 2.035330 1_555
Cu36 O145 2.379120 1_555
Cu37 O5 1.955600 1_555
Cu37 O61 1.968479 1_555
Cu37 O77 1.984377 1_555
Cu37 O49 2.035330 1_555
Cu37 O144 2.379120 1_555
Cu38 O6 1.955600 1_555
Cu38 O62 1.968479 1_555
Cu38 O78 1.984377 1_555
Cu38 O50 2.035330 1_555
Cu38 O147 2.379120 1_555
Cu39 O7 1.955600 1_555
Cu39 O63 1.968479 1_555
Cu39 O79 1.984377 1_555
Cu39 O51 2.035330 1_555
Cu39 O146 2.379120 1_555
Cu40 O4 1.950570 1_555
Cu40 O52 1.985701 1_555
Cu40 O98 2.010180 1_555
Cu40 O112 2.062475 1_555
Cu40 O84 2.234860 1_555
Cu41 O5 1.950570 1_555
Cu41 O53 1.985701 1_555
Cu41 O99 2.010180 1_545
Cu41 O113 2.062475 1_555
Cu41 O85 2.234860 1_555
Cu42 O6 1.950570 1_555
Cu42 O54 1.985701 1_555
Cu42 O96 2.010180 1_555
Cu42 O114 2.062475 1_555
Cu42 O86 2.234860 1_555
Cu43 O7 1.950570 1_555
Cu43 O55 1.985701 1_555
Cu43 O97 2.010180 1_565
Cu43 O115 2.062475 1_555
Cu43 O87 2.234860 1_555
Cu44 O108 1.946693 1_555
Cu44 O8 1.952380 1_555
Cu44 O88 1.991527 1_555
Cu44 O72 2.039586 1_555
Cu44 O117 2.388388 1_555
Cu45 O109 1.946693 1_555
Cu45 O9 1.952380 1_555
Cu45 O89 1.991527 1_555
Cu45 O73 2.039586 1_555
Cu45 O116 2.388388 1_555
Cu46 O110 1.946693 1_555
Cu46 O10 1.952380 1_555
Cu46 O90 1.991527 1_555
Cu46 O74 2.039586 1_555
Cu46 O119 2.388388 1_555
Cu47 O111 1.946693 1_555
Cu47 O11 1.952380 1_555
Cu47 O91 1.991527 1_555
Cu47 O75 2.039586 1_555
Cu47 O118 2.388388 1_555
Cu48 O8 1.946032 1_555
Cu48 O100 1.958307 1_555
Cu48 O86 2.001259 1_555
Cu48 O96 2.147039 1_555
Cu48 O140 2.188157 1_555
Cu49 O9 1.946032 1_555
Cu49 O101 1.958307 1_555
Cu49 O87 2.001259 1_545
Cu49 O97 2.147039 1_555
Cu49 O141 2.188157 1_555
Cu50 O10 1.946032 1_555
Cu50 O102 1.958307 1_555
Cu50 O84 2.001259 1_555
Cu50 O98 2.147039 1_555
Cu50 O142 2.188157 1_555
Cu51 O11 1.946032 1_555
Cu51 O103 1.958307 1_555
Cu51 O85 2.001259 1_565
Cu51 O99 2.147039 1_555
Cu51 O143 2.188157 1_555
Cu52 O12 1.923847 1_555
Cu52 O120 1.989691 1_555
Cu52 O132 1.994987 1_555
Cu52 O152 2.056595 1_555
Cu52 O65 2.287472 1_555
Cu53 O13 1.923847 1_555
Cu53 O121 1.989691 1_555
Cu53 O133 1.994987 1_555
Cu53 O153 2.056595 1_555
Cu53 O64 2.287472 1_555
Cu54 O14 1.923847 1_555
Cu54 O122 1.989691 1_555
Cu54 O134 1.994987 1_555
Cu54 O154 2.056595 1_555
Cu54 O67 2.287472 1_555
Cu55 O15 1.923847 1_555
Cu55 O123 1.989691 1_555
Cu55 O135 1.994987 1_555
Cu55 O155 2.056595 1_555
Cu55 O66 2.287472 1_555
Cu56 O12 1.941273 1_555
Cu56 O124 1.971457 1_555
Cu56 O26 2.009154 1_555
Cu56 O148 2.051931 1_555
Cu56 O44 2.277122 1_555
Cu57 O13 1.941273 1_555
Cu57 O125 1.971457 1_555
Cu57 O27 2.009154 1_545
Cu57 O149 2.051931 1_555
Cu57 O45 2.277122 1_555
Cu58 O14 1.941273 1_555
Cu58 O126 1.971457 1_555
Cu58 O24 2.009154 1_555
Cu58 O150 2.051931 1_555
Cu58 O46 2.277122 1_555
Cu59 O15 1.941273 1_555
Cu59 O127 1.971457 1_555
Cu59 O25 2.009154 1_565
Cu59 O151 2.051931 1_555
Cu59 O47 2.277122 1_555
Cu60 O0 1.932587 1_554
Cu60 O136 1.986455 1_555
Cu60 O36 2.004914 1_555
Cu60 O16 2.063585 1_555
Cu60 O41 2.277604 1_555
Cu61 O1 1.932587 1_556
Cu61 O137 1.986455 1_555
Cu61 O37 2.004914 1_555
Cu61 O17 2.063585 1_555
Cu61 O40 2.277604 1_555
Cu62 O2 1.932587 1_556
Cu62 O138 1.986455 1_555
Cu62 O38 2.004914 1_555
Cu62 O18 2.063585 1_555
Cu62 O43 2.277604 1_555
Cu63 O3 1.932587 1_554
Cu63 O139 1.986455 1_555
Cu63 O39 2.004914 1_555
Cu63 O19 2.063585 1_555
Cu63 O42 2.277604 1_555
O16 Se0 1.687670 1_554
O17 Se1 1.687670 1_556
O18 Se2 1.687670 1_556
O19 Se3 1.687670 1_554
O20 Se0 1.774239 1_555
O21 Se1 1.774239 1_555
O22 Se2 1.774239 1_555
O23 Se3 1.774239 1_555
O24 Se0 1.771203 1_555
O25 Se1 1.771203 1_555
O26 Se2 1.771203 1_555
O27 Se3 1.771203 1_555
O28 Se4 1.777598 1_555
O29 Se5 1.777598 1_555
O30 Se6 1.777598 1_555
O31 Se7 1.777598 1_555
O32 Se4 1.710586 1_655
O33 Se5 1.710586 1_555
O34 Se6 1.710586 1_455
O35 Se7 1.710586 1_555
O36 Se4 1.738874 1_654
O37 Se5 1.738874 1_556
O38 Se6 1.738874 1_456
O39 Se7 1.738874 1_554
O40 Se8 1.769964 1_555
O41 Se9 1.769964 1_555
O42 Se10 1.769964 1_555
O43 Se11 1.769964 1_555
O44 Se8 1.684634 1_554
O45 Se9 1.684634 1_556
O46 Se10 1.684634 1_556
O47 Se11 1.684634 1_554
O48 Se8 1.770164 1_555
O49 Se9 1.770164 1_555
O50 Se10 1.770164 1_555
O51 Se11 1.770164 1_555
O52 Se12 1.719051 1_555
O53 Se13 1.719051 1_655
O54 Se14 1.719051 1_555
O55 Se15 1.719051 1_455
O56 Se12 1.794870 1_555
O57 Se13 1.794870 1_555
O58 Se14 1.794870 1_555
O59 Se15 1.794870 1_555
O60 Se12 1.700424 1_555
O61 Se13 1.700424 1_655
O62 Se14 1.700424 1_555
O63 Se15 1.700424 1_455
O64 Se16 1.758933 1_555
O65 Se17 1.758933 1_555
O66 Se18 1.758933 1_555
O67 Se19 1.758933 1_555
O68 Se16 1.686040 1_555
O69 Se17 1.686040 1_555
O70 Se18 1.686040 1_555
O71 Se19 1.686040 1_555
O72 Se16 1.779757 1_555
O73 Se17 1.779757 1_555
O74 Se18 1.779757 1_555
O75 Se19 1.779757 1_555
O76 Se20 1.737001 1_555
O77 Se21 1.737001 1_555
O78 Se22 1.737001 1_555
O79 Se23 1.737001 1_555
O80 Se20 1.768515 1_555
O81 Se21 1.768515 1_555
O82 Se22 1.768515 1_555
O83 Se23 1.768515 1_555
O84 Se20 1.734435 1_555
O85 Se21 1.734435 1_555
O86 Se22 1.734435 1_555
O87 Se23 1.734435 1_555
O88 Se24 1.731793 1_555
O89 Se25 1.731793 1_555
O90 Se26 1.731793 1_555
O91 Se27 1.731793 1_555
O92 Se24 1.761213 1_555
O93 Se25 1.761213 1_555
O94 Se26 1.761213 1_555
O95 Se27 1.761213 1_555
O96 Se24 1.738073 1_555
O97 Se25 1.738073 1_555
O98 Se26 1.738073 1_555
O99 Se27 1.738073 1_555
O100 Se28 1.720254 1_655
O101 Se29 1.720254 1_555
O102 Se30 1.720254 1_455
O103 Se31 1.720254 1_555
O104 Se28 1.790729 1_555
O105 Se29 1.790729 1_555
O106 Se30 1.790729 1_555
O107 Se31 1.790729 1_555
O108 Se28 1.711302 1_655
O109 Se29 1.711302 1_555
O110 Se30 1.711302 1_455
O111 Se31 1.711302 1_555
O112 Se32 1.703598 1_555
O113 Se33 1.703598 1_555
O114 Se34 1.703598 1_555
O115 Se35 1.703598 1_555
O116 Se32 1.745789 1_555
O117 Se33 1.745789 1_555
O118 Se34 1.745789 1_555
O119 Se35 1.745789 1_555
O120 Se32 1.753209 1_555
O121 Se33 1.753209 1_555
O122 Se34 1.753209 1_555
O123 Se35 1.753209 1_555
O124 Se36 1.708523 1_555
O125 Se37 1.708523 1_655
O126 Se38 1.708523 1_555
O127 Se39 1.708523 1_455
O128 Se36 1.776553 1_555
O129 Se37 1.776553 1_555
O130 Se38 1.776553 1_555
O131 Se39 1.776553 1_555
O132 Se36 1.745717 1_555
O133 Se37 1.745717 1_655
O134 Se38 1.745717 1_555
O135 Se39 1.745717 1_455
O136 Se40 1.762197 1_555
O137 Se41 1.762197 1_555
O138 Se42 1.762197 1_555
O139 Se43 1.762197 1_555
O140 Se40 1.692656 1_555
O141 Se41 1.692656 1_555
O142 Se42 1.692656 1_555
O143 Se43 1.692656 1_555
O144 Se40 1.742891 1_555
O145 Se41 1.742891 1_555
O146 Se42 1.742891 1_555
O147 Se43 1.742891 1_555
O148 Se44 1.761246 1_555
O149 Se45 1.761246 1_555
O150 Se46 1.761246 1_555
O151 Se47 1.761246 1_555
O152 Se44 1.686374 1_555
O153 Se45 1.686374 1_555
O154 Se46 1.686374 1_555
O155 Se47 1.686374 1_555
O156 Se44 1.769522 1_555
O157 Se45 1.769522 1_555
O158 Se46 1.769522 1_555
O159 Se47 1.769522 1_555
