# generated using pymatgen
data_Pr4MgIr
_symmetry_space_group_name_H-M   'P 1'
_cell_length_a   10.09026950
_cell_length_b   10.09026919
_cell_length_c   10.09029378
_cell_angle_alpha   60.00044743
_cell_angle_beta   60.00044031
_cell_angle_gamma   60.00035897
_symmetry_Int_Tables_number   1
_chemical_formula_structural   Pr4MgIr
_chemical_formula_sum   'Pr16 Mg4 Ir4'
_cell_volume   726.43778145
_cell_formula_units_Z   4
loop_
 _symmetry_equiv_pos_site_id
 _symmetry_equiv_pos_as_xyz
  1  'x, y, z'
loop_
 _atom_site_type_symbol
 _atom_site_label
 _atom_site_symmetry_multiplicity
 _atom_site_fract_x
 _atom_site_fract_y
 _atom_site_fract_z
 _atom_site_occupancy
  Pr  Pr0  1  0.34576923  0.34576926  0.34577129  1
  Pr  Pr1  1  0.34576620  0.34576608  0.96269483  1
  Pr  Pr2  1  0.34576401  0.96269817  0.34576659  1
  Pr  Pr3  1  0.96269834  0.34576394  0.34576649  1
  Pr  Pr4  1  0.81137650  0.18863091  0.18863013  1
  Pr  Pr5  1  0.18863198  0.81137070  0.81136646  1
  Pr  Pr6  1  0.18863087  0.81137658  0.18863007  1
  Pr  Pr7  1  0.81137061  0.18863189  0.81136653  1
  Pr  Pr8  1  0.18863015  0.18863010  0.81137505  1
  Pr  Pr9  1  0.81136875  0.81136882  0.18863186  1
  Pr  Pr10  1  0.93906999  0.56092426  0.56092895  1
  Pr  Pr11  1  0.56091699  0.93907495  0.93907617  1
  Pr  Pr12  1  0.56092428  0.93907006  0.56092902  1
  Pr  Pr13  1  0.93907481  0.56091706  0.93907633  1
  Pr  Pr14  1  0.56092784  0.56092794  0.93906917  1
  Pr  Pr15  1  0.93907622  0.93907640  0.56091858  1
  Mg  Mg0  1  0.57856701  0.57856706  0.57856905  1
  Mg  Mg1  1  0.57855584  0.57855580  0.26431721  1
  Mg  Mg2  1  0.57855511  0.26431654  0.57855756  1
  Mg  Mg3  1  0.26431661  0.57855512  0.57855759  1
  Ir  Ir0  1  0.14136358  0.14136366  0.14136029  1
  Ir  Ir1  1  0.14136645  0.14136621  0.57591322  1
  Ir  Ir2  1  0.14136721  0.57591437  0.14136327  1
  Ir  Ir3  1  0.57591442  0.14136711  0.14136331  1
loop_
_geom_bond_atom_site_label_1
_geom_bond_atom_site_label_2
_geom_bond_distance
_geom_bond_site_symmetry_2
Pr0 Pr10 3.627937 1_455
Pr0 Pr12 3.627937 1_545
Pr0 Pr14 3.627976 1_554
Pr1 Pr11 3.627873 1_545
Pr1 Pr13 3.627875 1_455
Pr1 Pr14 3.627937 1_555
Pr10 Pr3 3.627919 1_555
Pr10 Pr7 3.774808 1_555
Pr10 Pr9 3.774862 1_555
Pr10 Pr8 3.774895 1_655
Pr10 Pr6 3.774951 1_655
Pr10 Pr14 3.815576 1_555
Pr10 Pr13 3.815606 1_555
Pr10 Pr12 3.815613 1_555
Pr10 Pr15 3.815636 1_555
Pr11 Pr2 3.627894 1_556
Pr11 Pr6 3.774751 1_556
Pr11 Pr8 3.774768 1_565
Pr11 Pr9 3.774907 1_556
Pr11 Pr7 3.774918 1_565
Pr11 Pr14 3.815586 1_555
Pr11 Pr12 3.815604 1_555
Pr11 Pr13 3.815735 1_555
Pr11 Pr15 3.815750 1_555
Pr12 Pr2 3.627920 1_555
Pr12 Pr5 3.774808 1_555
Pr12 Pr9 3.774863 1_555
Pr12 Pr8 3.774893 1_565
Pr12 Pr4 3.774950 1_565
Pr12 Pr14 3.815576 1_555
Pr12 Pr15 3.815634 1_555
Pr13 Pr3 3.627893 1_556
Pr13 Pr4 3.774751 1_556
Pr13 Pr8 3.774769 1_655
Pr13 Pr9 3.774905 1_556
Pr13 Pr5 3.774919 1_655
Pr13 Pr14 3.815586 1_555
Pr13 Pr15 3.815752 1_555
Pr14 Pr5 3.774851 1_555
Pr14 Pr7 3.774852 1_555
Pr14 Pr6 3.774920 1_556
Pr14 Pr4 3.774921 1_556
Pr15 Pr3 3.627857 1_565
Pr15 Pr2 3.627858 1_655
Pr15 Pr4 3.774782 1_565
Pr15 Pr6 3.774783 1_655
Pr15 Pr7 3.774874 1_565
Pr15 Pr5 3.774876 1_655
Mg0 Mg3 3.170989 1_555
Mg0 Mg2 3.170990 1_555
Mg0 Mg1 3.171007 1_555
Mg0 Pr10 3.468714 1_555
Mg0 Pr12 3.468715 1_555
Mg0 Pr14 3.468715 1_555
Mg0 Pr1 3.656158 1_555
Mg0 Pr2 3.656190 1_555
Mg0 Pr3 3.656191 1_555
Mg0 Pr5 3.681013 1_555
Mg0 Pr7 3.681015 1_555
Mg0 Pr9 3.681040 1_555
Mg1 Mg3 3.170789 1_555
Mg1 Mg2 3.170790 1_555
Mg1 Pr14 3.468849 1_554
Mg1 Pr13 3.468921 1_554
Mg1 Pr11 3.468923 1_554
Mg1 Pr0 3.655973 1_555
Mg1 Pr2 3.656166 1_555
Mg1 Pr3 3.656167 1_555
Mg1 Pr4 3.681005 1_555
Mg1 Pr6 3.681007 1_555
Mg1 Pr9 3.681119 1_555
Mg2 Mg3 3.170769 1_555
Mg2 Pr12 3.468845 1_545
Mg2 Pr15 3.468922 1_545
Mg2 Pr11 3.468924 1_545
Mg2 Pr0 3.655973 1_555
Mg2 Pr1 3.656133 1_555
Mg2 Pr3 3.656169 1_555
Mg2 Pr8 3.681007 1_555
Mg2 Pr4 3.681031 1_555
Mg2 Pr7 3.681112 1_555
Mg3 Pr10 3.468848 1_455
Mg3 Pr15 3.468924 1_455
Mg3 Pr13 3.468926 1_455
Mg3 Pr0 3.655974 1_555
Mg3 Pr1 3.656133 1_555
Mg3 Pr2 3.656167 1_555
Mg3 Pr8 3.681008 1_555
Mg3 Pr6 3.681033 1_555
Mg3 Pr5 3.681112 1_555
Ir0 Pr1 2.928329 1_554
Ir0 Pr3 2.928341 1_455
Ir0 Pr2 2.928343 1_545
Ir0 Pr4 2.931370 1_455
Ir0 Pr6 2.931371 1_545
Ir0 Pr8 2.931375 1_554
Ir0 Pr13 3.624727 1_454
Ir0 Pr11 3.624727 1_544
Ir0 Pr15 3.624771 1_445
Ir1 Pr0 2.928342 1_555
Ir1 Pr2 2.928403 1_545
Ir1 Pr3 2.928405 1_455
Ir1 Pr8 2.931419 1_555
Ir1 Pr5 2.931451 1_545
Ir1 Pr7 2.931453 1_455
Ir1 Pr12 3.624747 1_545
Ir1 Pr10 3.624748 1_455
Ir1 Pr15 3.624846 1_445
Ir2 Pr0 2.928372 1_555
Ir2 Pr1 2.928416 1_554
Ir2 Pr3 2.928437 1_455
Ir2 Pr6 2.931437 1_555
Ir2 Pr9 2.931470 1_455
Ir2 Pr5 2.931474 1_554
Ir2 Pr14 3.624768 1_554
Ir2 Pr10 3.624812 1_455
Ir2 Pr13 3.624859 1_454
Ir3 Pr0 2.928372 1_555
Ir3 Pr1 2.928416 1_554
Ir3 Pr2 2.928437 1_545
Ir3 Pr4 2.931437 1_555
Ir3 Pr9 2.931468 1_545
Ir3 Pr7 2.931473 1_554
Ir3 Pr14 3.624770 1_554
Ir3 Pr12 3.624812 1_545
Ir3 Pr11 3.624859 1_544
