# generated using pymatgen
data_PrZnGe
_symmetry_space_group_name_H-M   'P 1'
_cell_length_a   4.26118402
_cell_length_b   4.26118402
_cell_length_c   16.96936292
_cell_angle_alpha   90.00000000
_cell_angle_beta   90.00000000
_cell_angle_gamma   119.99998600
_symmetry_Int_Tables_number   1
_chemical_formula_structural   PrZnGe
_chemical_formula_sum   'Pr4 Zn4 Ge4'
_cell_volume   266.84361158
_cell_formula_units_Z   4
loop_
 _symmetry_equiv_pos_site_id
 _symmetry_equiv_pos_as_xyz
  1  'x, y, z'
loop_
 _atom_site_type_symbol
 _atom_site_label
 _atom_site_symmetry_multiplicity
 _atom_site_fract_x
 _atom_site_fract_y
 _atom_site_fract_z
 _atom_site_occupancy
  Pr  Pr0  1  0.00000000  0.00000000  0.25000000  1
  Pr  Pr1  1  0.00000000  0.00000000  0.75000000  1
  Pr  Pr2  1  0.00000000  0.00000000  -0.00000000  1
  Pr  Pr3  1  0.00000000  0.00000000  0.50000000  1
  Zn  Zn0  1  0.33333300  0.66666700  0.13819451  1
  Zn  Zn1  1  0.66666700  0.33333300  0.86180549  1
  Zn  Zn2  1  0.66666700  0.33333300  0.63819451  1
  Zn  Zn3  1  0.33333300  0.66666700  0.36180549  1
  Ge  Ge0  1  0.33333300  0.66666700  0.61780270  1
  Ge  Ge1  1  0.66666700  0.33333300  0.38219730  1
  Ge  Ge2  1  0.66666700  0.33333300  0.11780270  1
  Ge  Ge3  1  0.33333300  0.66666700  0.88219730  1
loop_
_geom_bond_atom_site_label_1
_geom_bond_atom_site_label_2
_geom_bond_distance
_geom_bond_site_symmetry_2
Pr0 Zn3 3.106795 1_545
Pr0 Zn0 3.106795 1_545
Pr0 Zn3 3.106798 1_445
Pr0 Zn0 3.106798 1_445
Pr0 Zn3 3.106798 1_555
Pr0 Zn0 3.106798 1_555
Pr1 Zn1 3.106795 1_455
Pr1 Zn2 3.106795 1_455
Pr1 Zn2 3.106798 1_445
Pr1 Zn1 3.106798 1_445
Pr1 Zn1 3.106798 1_555
Pr1 Zn2 3.106798 1_555
Pr2 Zn0 3.398811 1_545
Pr2 Zn1 3.398811 1_454
Pr2 Zn0 3.398814 1_445
Pr2 Zn0 3.398814 1_555
Pr2 Zn1 3.398814 1_444
Pr2 Zn1 3.398814 1_554
Pr3 Zn3 3.398811 1_545
Pr3 Zn2 3.398811 1_455
Pr3 Zn3 3.398814 1_445
Pr3 Zn3 3.398814 1_555
Pr3 Zn2 3.398814 1_445
Pr3 Zn2 3.398814 1_555
Ge0 Zn2 2.484410 1_455
Ge0 Zn2 2.484410 1_565
Ge0 Zn2 2.484417 1_555
Ge0 Pr3 3.169968 1_565
Ge0 Pr3 3.169971 1_665
Ge0 Pr3 3.169971 1_555
Ge0 Pr1 3.329409 1_565
Ge0 Pr1 3.329412 1_555
Ge0 Pr1 3.329412 1_665
Ge1 Zn3 2.484410 1_545
Ge1 Zn3 2.484410 1_655
Ge1 Zn3 2.484417 1_555
Ge1 Pr3 3.169968 1_655
Ge1 Pr3 3.169971 1_555
Ge1 Pr3 3.169971 1_665
Ge1 Pr0 3.329409 1_655
Ge1 Pr0 3.329412 1_665
Ge1 Pr0 3.329412 1_555
Ge2 Zn0 2.484410 1_545
Ge2 Zn0 2.484410 1_655
Ge2 Zn0 2.484417 1_555
Ge2 Pr2 3.169968 1_655
Ge2 Pr2 3.169971 1_665
Ge2 Pr2 3.169971 1_555
Ge2 Pr0 3.329409 1_655
Ge2 Pr0 3.329412 1_665
Ge2 Pr0 3.329412 1_555
Ge3 Zn1 2.484410 1_455
Ge3 Zn1 2.484410 1_565
Ge3 Zn1 2.484417 1_555
Ge3 Pr2 3.169968 1_566
Ge3 Pr2 3.169971 1_666
Ge3 Pr2 3.169971 1_556
Ge3 Pr1 3.329409 1_565
Ge3 Pr1 3.329412 1_555
Ge3 Pr1 3.329412 1_665
