# generated using pymatgen
data_CeSe2
_symmetry_space_group_name_H-M   'P 1'
_cell_length_a   6.88300900
_cell_length_b   6.91533200
_cell_length_c   7.16172700
_cell_angle_alpha   90.00000000
_cell_angle_beta   90.00000000
_cell_angle_gamma   90.00000000
_symmetry_Int_Tables_number   1
_chemical_formula_structural   CeSe2
_chemical_formula_sum   'Ce4 Se8'
_cell_volume   340.88597579
_cell_formula_units_Z   4
loop_
 _symmetry_equiv_pos_site_id
 _symmetry_equiv_pos_as_xyz
  1  'x, y, z'
loop_
 _atom_site_type_symbol
 _atom_site_label
 _atom_site_symmetry_multiplicity
 _atom_site_fract_x
 _atom_site_fract_y
 _atom_site_fract_z
 _atom_site_occupancy
  Ce  Ce0  1  0.27666100  0.74699200  0.45255800  1
  Ce  Ce1  1  0.72333900  0.24699200  0.54744200  1
  Ce  Ce2  1  0.27666100  0.24699200  0.04744200  1
  Ce  Ce3  1  0.72333900  0.74699200  0.95255800  1
  Se  Se0  1  0.06630700  0.89521900  0.13570300  1
  Se  Se1  1  0.93369300  0.39521900  0.86429700  1
  Se  Se2  1  0.06630700  0.39521900  0.36429700  1
  Se  Se3  1  0.93369300  0.89521900  0.63570300  1
  Se  Se4  1  0.55256400  0.00178900  0.25265700  1
  Se  Se5  1  0.44743600  0.50178900  0.74734300  1
  Se  Se6  1  0.55256400  0.50178900  0.24734300  1
  Se  Se7  1  0.44743600  0.00178900  0.75265700  1
loop_
_geom_bond_atom_site_label_1
_geom_bond_atom_site_label_2
_geom_bond_distance
_geom_bond_site_symmetry_2
Ce0 Se0 2.880352 1_555
Ce0 Se3 2.888558 1_455
Ce0 Se2 2.900612 1_555
Ce0 Se6 2.939664 1_555
Ce0 Se5 2.951944 1_555
Ce0 Se4 2.959833 1_565
Ce0 Se7 3.017535 1_565
Ce1 Se1 2.880352 1_555
Ce1 Se2 2.888558 1_655
Ce1 Se3 2.900612 1_545
Ce1 Se7 2.939664 1_555
Ce1 Se4 2.951944 1_555
Ce1 Se5 2.959833 1_555
Ce1 Se6 3.017535 1_555
Ce2 Se2 2.880352 1_555
Ce2 Se1 2.888558 1_454
Ce2 Se0 2.900612 1_545
Ce2 Se4 2.939664 1_555
Ce2 Se7 2.951944 1_554
Ce2 Se6 2.959833 1_555
Ce2 Se5 3.017535 1_554
Ce3 Se3 2.880352 1_555
Ce3 Se0 2.888558 1_656
Ce3 Se1 2.900612 1_555
Ce3 Se5 2.939664 1_555
Ce3 Se6 2.951944 1_556
Ce3 Se7 2.959833 1_565
Ce3 Se4 3.017535 1_566
