# generated using pymatgen
data_Tb2(Ga3Ru)3
_symmetry_space_group_name_H-M   'P 1'
_cell_length_a   7.39845944
_cell_length_b   7.39845944
_cell_length_c   9.67908607
_cell_angle_alpha   90.00000000
_cell_angle_beta   90.00000000
_cell_angle_gamma   118.84234342
_symmetry_Int_Tables_number   1
_chemical_formula_structural   Tb2(Ga3Ru)3
_chemical_formula_sum   'Tb4 Ga18 Ru6'
_cell_volume   464.08386120
_cell_formula_units_Z   2
loop_
 _symmetry_equiv_pos_site_id
 _symmetry_equiv_pos_as_xyz
  1  'x, y, z'
loop_
 _atom_site_type_symbol
 _atom_site_label
 _atom_site_symmetry_multiplicity
 _atom_site_fract_x
 _atom_site_fract_y
 _atom_site_fract_z
 _atom_site_occupancy
  Tb  Tb0  1  0.99765167  0.67502911  0.25000000  1
  Tb  Tb1  1  0.00234833  0.32497089  0.75000000  1
  Tb  Tb2  1  0.67502911  0.99765167  0.25000000  1
  Tb  Tb3  1  0.32497089  0.00234833  0.75000000  1
  Ga  Ga0  1  0.13428881  0.13428881  0.25000000  1
  Ga  Ga1  1  0.86571119  0.86571119  0.75000000  1
  Ga  Ga2  1  0.01169702  0.33863791  0.07602717  1
  Ga  Ga3  1  0.98830298  0.66136209  0.92397283  1
  Ga  Ga4  1  0.98830298  0.66136209  0.57602717  1
  Ga  Ga5  1  0.33863791  0.01169702  0.42397283  1
  Ga  Ga6  1  0.01169702  0.33863791  0.42397283  1
  Ga  Ga7  1  0.66136209  0.98830298  0.57602717  1
  Ga  Ga8  1  0.66136209  0.98830298  0.92397283  1
  Ga  Ga9  1  0.33863791  0.01169702  0.07602717  1
  Ga  Ga10  1  0.33910131  0.33910131  0.56133243  1
  Ga  Ga11  1  0.66089869  0.66089869  0.43866757  1
  Ga  Ga12  1  0.66089869  0.66089869  0.06133243  1
  Ga  Ga13  1  0.33910131  0.33910131  0.93866757  1
  Ga  Ga14  1  0.33944791  0.55325227  0.25000000  1
  Ga  Ga15  1  0.66055209  0.44674773  0.75000000  1
  Ga  Ga16  1  0.55325227  0.33944791  0.25000000  1
  Ga  Ga17  1  0.44674773  0.66055209  0.75000000  1
  Ru  Ru0  1  0.67659904  0.32340096  -0.00000000  1
  Ru  Ru1  1  0.32340096  0.67659904  -0.00000000  1
  Ru  Ru2  1  0.32340096  0.67659904  0.50000000  1
  Ru  Ru3  1  0.67659904  0.32340096  0.50000000  1
  Ru  Ru4  1  -0.00000000  0.00000000  -0.00000000  1
  Ru  Ru5  1  -0.00000000  0.00000000  0.50000000  1
loop_
_geom_bond_atom_site_label_1
_geom_bond_atom_site_label_2
_geom_bond_distance
_geom_bond_site_symmetry_2
Ga0 Ru4 2.622430 1_555
Ga0 Ru5 2.622430 1_555
Ga0 Ga5 2.695714 1_555
Ga0 Ga6 2.695714 1_555
Ga0 Ga9 2.695714 1_555
Ga0 Ga2 2.695714 1_555
Ga0 Ga16 2.715263 1_555
Ga0 Ga14 2.715263 1_555
Ga0 Tb0 3.041891 1_445
Ga0 Tb2 3.041891 1_445
Ga1 Ru5 2.622430 1_665
Ga1 Ru4 2.622430 1_666
Ga1 Ga4 2.695714 1_555
Ga1 Ga3 2.695714 1_555
Ga1 Ga7 2.695714 1_555
Ga1 Ga8 2.695714 1_555
Ga1 Ga15 2.715263 1_555
Ga1 Ga17 2.715263 1_555
Ga1 Tb3 3.041891 1_665
Ga1 Tb1 3.041891 1_665
Ga2 Ru0 2.535952 1_455
Ga2 Ru1 2.558990 1_555
Ga2 Ru4 2.572321 1_555
Ga2 Tb0 3.047923 1_455
Ga2 Tb2 3.056385 1_445
Ga2 Tb1 3.156954 1_554
Ga3 Ru1 2.535952 1_656
Ga3 Ru0 2.558990 1_556
Ga3 Ru4 2.572321 1_666
Ga3 Tb1 3.047923 1_655
Ga3 Tb3 3.056385 1_665
Ga3 Tb0 3.156954 1_556
Ga4 Ru2 2.535952 1_655
Ga4 Ru3 2.558990 1_555
Ga4 Ru5 2.572321 1_665
Ga4 Tb1 3.047923 1_655
Ga4 Tb3 3.056385 1_665
Ga4 Tb0 3.156954 1_555
Ga5 Ru2 2.535952 1_545
Ga5 Ru3 2.558990 1_555
Ga5 Ru5 2.572321 1_555
Ga5 Tb2 3.047923 1_545
Ga5 Tb0 3.056385 1_445
Ga5 Tb3 3.156954 1_555
Ga6 Ru3 2.535952 1_455
Ga6 Ru2 2.558990 1_555
Ga6 Ru5 2.572321 1_555
Ga6 Tb0 3.047923 1_455
Ga6 Tb2 3.056385 1_445
Ga6 Tb1 3.156954 1_555
Ga7 Ru3 2.535952 1_565
Ga7 Ru2 2.558990 1_555
Ga7 Ru5 2.572321 1_665
Ga7 Tb3 3.047923 1_565
Ga7 Tb1 3.056385 1_665
Ga7 Tb2 3.156954 1_555
Ga8 Ru0 2.535952 1_566
Ga8 Ru1 2.558990 1_556
Ga8 Ru4 2.572321 1_666
Ga8 Tb3 3.047923 1_565
Ga8 Tb1 3.056385 1_665
Ga8 Tb2 3.156954 1_556
Ga9 Ru1 2.535952 1_545
Ga9 Ru0 2.558990 1_555
Ga9 Ru4 2.572321 1_555
Ga9 Tb2 3.047923 1_545
Ga9 Tb0 3.056385 1_445
Ga9 Tb3 3.156954 1_554
Ga10 Ru5 2.620719 1_555
Ga10 Ru3 2.623083 1_555
Ga10 Ru2 2.623083 1_555
Ga10 Ga11 2.697663 1_555
Ga10 Ga6 2.761718 1_555
Ga10 Ga5 2.761718 1_555
Ga10 Ga17 2.792428 1_555
Ga10 Ga15 2.792428 1_555
Ga10 Tb1 3.049872 1_555
Ga10 Tb3 3.049872 1_555
Ga11 Ru5 2.620719 1_665
Ga11 Ru2 2.623083 1_555
Ga11 Ru3 2.623083 1_555
Ga11 Ga4 2.761718 1_555
Ga11 Ga7 2.761718 1_555
Ga11 Ga16 2.792428 1_555
Ga11 Ga14 2.792428 1_555
Ga11 Tb2 3.049872 1_555
Ga11 Tb0 3.049872 1_555
Ga12 Ru4 2.620719 1_665
Ga12 Ru1 2.623083 1_555
Ga12 Ru0 2.623083 1_555
Ga12 Ga13 2.697663 1_554
Ga12 Ga3 2.761718 1_554
Ga12 Ga8 2.761718 1_554
Ga12 Ga16 2.792428 1_555
Ga12 Ga14 2.792428 1_555
Ga12 Tb2 3.049872 1_555
Ga12 Tb0 3.049872 1_555
Ga13 Ru4 2.620719 1_556
Ga13 Ru0 2.623083 1_556
Ga13 Ru1 2.623083 1_556
Ga13 Ga2 2.761718 1_556
Ga13 Ga9 2.761718 1_556
Ga13 Ga17 2.792428 1_555
Ga13 Ga15 2.792428 1_555
Ga13 Tb1 3.049872 1_555
Ga13 Tb3 3.049872 1_555
Ga14 Ru1 2.608968 1_555
Ga14 Ru2 2.608968 1_555
Ga14 Ga16 2.723678 1_555
Ga14 Ga6 2.742604 1_555
Ga14 Ga2 2.742604 1_555
Ga14 Tb2 3.016382 1_555
Ga14 Tb0 3.066678 1_455
Ga15 Ru0 2.608968 1_556
Ga15 Ru3 2.608968 1_555
Ga15 Ga17 2.723678 1_555
Ga15 Ga3 2.742604 1_555
Ga15 Ga4 2.742604 1_555
Ga15 Tb3 3.016382 1_555
Ga15 Tb1 3.066678 1_655
Ga16 Ru0 2.608968 1_555
Ga16 Ru3 2.608968 1_555
Ga16 Ga5 2.742604 1_555
Ga16 Ga9 2.742604 1_555
Ga16 Tb0 3.016382 1_555
Ga16 Tb2 3.066678 1_545
Ga17 Ru2 2.608968 1_555
Ga17 Ru1 2.608968 1_556
Ga17 Ga7 2.742604 1_555
Ga17 Ga8 2.742604 1_555
Ga17 Tb1 3.016382 1_555
Ga17 Tb3 3.066678 1_565
