# generated using pymatgen
data_CsNi2F6
_symmetry_space_group_name_H-M   'P 1'
_cell_length_a   7.26618241
_cell_length_b   7.26618241
_cell_length_c   7.26618241
_cell_angle_alpha   120.58665633
_cell_angle_beta   117.93790627
_cell_angle_gamma   91.29755409
_symmetry_Int_Tables_number   1
_chemical_formula_structural   CsNi2F6
_chemical_formula_sum   'Cs2 Ni4 F12'
_cell_volume   274.04189503
_cell_formula_units_Z   2
loop_
 _symmetry_equiv_pos_site_id
 _symmetry_equiv_pos_as_xyz
  1  'x, y, z'
loop_
 _atom_site_type_symbol
 _atom_site_label
 _atom_site_symmetry_multiplicity
 _atom_site_fract_x
 _atom_site_fract_y
 _atom_site_fract_z
 _atom_site_occupancy
  Cs  Cs0  1  0.37764200  0.62764200  0.75000000  1
  Cs  Cs1  1  0.62235800  0.37235800  0.25000000  1
  Ni  Ni0  1  0.50000000  0.00000000  0.50000000  1
  Ni  Ni1  1  0.00000000  0.00000000  0.00000000  1
  Ni  Ni2  1  0.00000000  0.00000000  0.50000000  1
  Ni  Ni3  1  0.00000000  0.50000000  0.00000000  1
  F  F0  1  0.67429100  0.30844200  0.73841100  1
  F  F1  1  0.07003100  0.30844200  0.13415100  1
  F  F2  1  0.32570900  0.06412100  0.63415100  1
  F  F3  1  0.32570900  0.69155800  0.26158900  1
  F  F4  1  0.32130300  0.07130300  0.25000000  1
  F  F5  1  0.92272700  0.67272700  0.25000000  1
  F  F6  1  0.67429100  0.93587900  0.36584900  1
  F  F7  1  0.92996900  0.06412100  0.23841100  1
  F  F8  1  0.92996900  0.69155800  0.86584900  1
  F  F9  1  0.07727300  0.32727300  0.75000000  1
  F  F10  1  0.07003100  0.93587900  0.76158900  1
  F  F11  1  0.67869700  0.92869700  0.75000000  1
loop_
_geom_bond_atom_site_label_1
_geom_bond_atom_site_label_2
_geom_bond_distance
_geom_bond_site_symmetry_2
Cs0 F9 3.051425 1_555
Cs0 F11 3.058394 1_555
Cs0 F10 3.198509 1_555
Cs0 F1 3.198514 1_555
Cs0 F0 3.198514 1_555
Cs0 F6 3.198514 1_556
Cs1 F5 3.051425 1_555
Cs1 F4 3.058394 1_555
Cs1 F7 3.198509 1_555
Cs1 F3 3.198514 1_555
Cs1 F8 3.198514 1_555
Cs1 F2 3.198514 1_554
F0 Ni0 1.868786 1_555
F0 Ni3 2.023496 1_656
F1 Ni1 1.868786 1_555
F1 Ni3 2.023496 1_555
F2 Ni0 1.868786 1_555
F2 Ni2 2.023495 1_555
F3 Ni0 1.868786 1_565
F3 Ni3 2.023496 1_555
F4 Ni1 2.008067 1_555
F4 Ni0 2.008067 1_555
F5 Ni3 1.964111 1_655
F5 Ni2 1.964111 1_665
F6 Ni0 1.868786 1_565
F6 Ni2 2.023495 1_665
F7 Ni1 1.868784 1_655
F7 Ni2 2.023501 1_655
F8 Ni1 1.868786 1_666
F8 Ni3 2.023496 1_656
F9 Ni2 1.964111 1_555
F9 Ni3 1.964111 1_556
F10 Ni1 1.868784 1_566
F10 Ni2 2.023501 1_565
F11 Ni1 2.008067 1_666
F11 Ni0 2.008067 1_565
