# generated using pymatgen
data_MgCo(Si2O5)2
_symmetry_space_group_name_H-M   'P 1'
_cell_length_a   7.31339500
_cell_length_b   7.31339500
_cell_length_c   14.92495000
_cell_angle_alpha   90.00000000
_cell_angle_beta   90.00000000
_cell_angle_gamma   90.00000000
_symmetry_Int_Tables_number   1
_chemical_formula_structural   MgCo(Si2O5)2
_chemical_formula_sum   'Mg4 Co4 Si16 O40'
_cell_volume   798.27209112
_cell_formula_units_Z   4
loop_
 _symmetry_equiv_pos_site_id
 _symmetry_equiv_pos_as_xyz
  1  'x, y, z'
loop_
 _atom_site_type_symbol
 _atom_site_label
 _atom_site_symmetry_multiplicity
 _atom_site_fract_x
 _atom_site_fract_y
 _atom_site_fract_z
 _atom_site_occupancy
  Mg  Mg0  1  0.25000000  0.75000000  0.50000000  1
  Mg  Mg1  1  0.75000000  0.25000000  0.50000000  1
  Mg  Mg2  1  0.75000000  0.25000000  0.00000000  1
  Mg  Mg3  1  0.25000000  0.75000000  0.00000000  1
  Co  Co0  1  0.25000000  0.25000000  0.57117300  1
  Co  Co1  1  0.75000000  0.75000000  0.92882700  1
  Co  Co2  1  0.75000000  0.75000000  0.42882700  1
  Co  Co3  1  0.25000000  0.25000000  0.07117300  1
  Si  Si0  1  0.91379200  0.49209400  0.64476300  1
  Si  Si1  1  0.58620800  0.00790600  0.64476300  1
  Si  Si2  1  0.99209400  0.41379200  0.85523700  1
  Si  Si3  1  0.49209400  0.58620800  0.64476300  1
  Si  Si4  1  0.00790600  0.91379200  0.64476300  1
  Si  Si5  1  0.08620800  0.99209400  0.85523700  1
  Si  Si6  1  0.41379200  0.50790600  0.85523700  1
  Si  Si7  1  0.50790600  0.08620800  0.85523700  1
  Si  Si8  1  0.08620800  0.50790600  0.35523700  1
  Si  Si9  1  0.41379200  0.99209400  0.35523700  1
  Si  Si10  1  0.00790600  0.58620800  0.14476300  1
  Si  Si11  1  0.50790600  0.41379200  0.35523700  1
  Si  Si12  1  0.99209400  0.08620800  0.35523700  1
  Si  Si13  1  0.91379200  0.00790600  0.14476300  1
  Si  Si14  1  0.58620800  0.49209400  0.14476300  1
  Si  Si15  1  0.49209400  0.91379200  0.14476300  1
  O  O0  1  0.98468900  0.33695300  0.57572700  1
  O  O1  1  0.51531100  0.16304700  0.57572700  1
  O  O2  1  0.83695300  0.48468900  0.92427300  1
  O  O3  1  0.33695300  0.51531100  0.57572700  1
  O  O4  1  0.16304700  0.98468900  0.57572700  1
  O  O5  1  0.01531100  0.83695300  0.92427300  1
  O  O6  1  0.48468900  0.66304700  0.92427300  1
  O  O7  1  0.66304700  0.01531100  0.92427300  1
  O  O8  1  0.01531100  0.66304700  0.42427300  1
  O  O9  1  0.48468900  0.83695300  0.42427300  1
  O  O10  1  0.16304700  0.51531100  0.07572700  1
  O  O11  1  0.66304700  0.48468900  0.42427300  1
  O  O12  1  0.83695300  0.01531100  0.42427300  1
  O  O13  1  0.98468900  0.16304700  0.07572700  1
  O  O14  1  0.51531100  0.33695300  0.07572700  1
  O  O15  1  0.00058200  0.30612700  0.37571000  1
  O  O16  1  0.33695300  0.98468900  0.07572700  1
  O  O17  1  0.50058200  0.80612700  0.62429100  1
  O  O18  1  0.19387300  0.49941800  0.87570900  1
  O  O19  1  0.69387300  0.50058200  0.62429100  1
  O  O20  1  0.80612700  0.99941800  0.62429100  1
  O  O21  1  0.00058200  0.19387300  0.87570900  1
  O  O22  1  0.49941800  0.30612700  0.87570900  1
  O  O23  1  0.30612700  0.00058200  0.87570900  1
  O  O24  1  0.44768300  0.94768300  0.25000000  1
  O  O25  1  0.55231700  0.44768300  0.25000000  1
  O  O26  1  0.94768300  0.05231800  0.25000000  1
  O  O27  1  0.05231800  0.55231700  0.25000000  1
  O  O28  1  0.55231700  0.05231800  0.75000000  1
  O  O29  1  0.44768300  0.55231700  0.75000000  1
  O  O30  1  0.05231800  0.94768300  0.75000000  1
  O  O31  1  0.94768300  0.44768300  0.75000000  1
  O  O32  1  0.69387300  0.99941800  0.12429100  1
  O  O33  1  0.50058200  0.69387300  0.12429100  1
  O  O34  1  0.99941800  0.80612700  0.12429100  1
  O  O35  1  0.19387300  0.00058200  0.37571000  1
  O  O36  1  0.30612700  0.49941800  0.37571000  1
  O  O37  1  0.80612700  0.50058200  0.12429100  1
  O  O38  1  0.49941800  0.19387300  0.37571000  1
  O  O39  1  0.99941800  0.69387300  0.62429100  1
loop_
_geom_bond_atom_site_label_1
_geom_bond_atom_site_label_2
_geom_bond_distance
_geom_bond_site_symmetry_2
Mg0 O4 2.151217 1_555
Mg0 O3 2.151217 1_555
Mg0 O9 2.151217 1_555
Mg0 O8 2.151217 1_555
Mg0 O35 2.639705 1_565
Mg0 O36 2.639705 1_555
Mg0 O17 2.639715 1_555
Mg0 O39 2.639715 1_455
Mg1 O0 2.151217 1_555
Mg1 O1 2.151217 1_555
Mg1 O12 2.151217 1_555
Mg1 O11 2.151217 1_555
Mg1 O15 2.639705 1_655
Mg1 O38 2.639705 1_555
Mg1 O19 2.639715 1_555
Mg1 O20 2.639715 1_545
Mg2 O13 2.151217 1_555
Mg2 O2 2.151217 1_554
Mg2 O14 2.151217 1_555
Mg2 O7 2.151217 1_554
Mg2 O21 2.639715 1_654
Mg2 O37 2.639715 1_555
Mg2 O22 2.639715 1_554
Mg2 O32 2.639715 1_545
Mg3 O16 2.151217 1_555
Mg3 O5 2.151217 1_554
Mg3 O10 2.151217 1_555
Mg3 O6 2.151217 1_554
Mg3 O23 2.639715 1_564
Mg3 O33 2.639715 1_555
Mg3 O18 2.639715 1_554
Mg3 O34 2.639715 1_455
Co0 O1 2.043006 1_555
Co0 O3 2.043006 1_555
Co0 O4 2.043006 1_545
Co0 O0 2.043006 1_455
Co1 O2 2.043006 1_555
Co1 O5 2.043006 1_655
Co1 O6 2.043006 1_555
Co1 O7 2.043006 1_565
Co2 O9 2.043006 1_555
Co2 O12 2.043006 1_565
Co2 O8 2.043006 1_655
Co2 O11 2.043006 1_555
Co3 O10 2.043006 1_555
Co3 O14 2.043006 1_555
Co3 O16 2.043006 1_545
Co3 O13 2.043006 1_455
O0 Si0 1.617966 1_555
O1 Si1 1.617966 1_555
O2 Si2 1.617966 1_555
O3 Si3 1.617966 1_555
O4 Si4 1.617966 1_555
O5 Si5 1.617966 1_555
O6 Si6 1.617966 1_555
O7 Si7 1.617966 1_555
O8 Si8 1.617966 1_555
O9 Si9 1.617966 1_555
O10 Si10 1.617966 1_555
O11 Si11 1.617966 1_555
O12 Si12 1.617966 1_555
O13 Si13 1.617966 1_555
O14 Si14 1.617966 1_555
O15 Si8 1.631923 1_555
O15 Si12 1.638299 1_455
O16 Si15 1.617966 1_555
O17 Si1 1.631920 1_565
O17 Si3 1.638296 1_555
O18 Si2 1.631920 1_455
O18 Si6 1.638296 1_555
O19 Si3 1.631920 1_555
O19 Si0 1.638296 1_555
O20 Si4 1.631920 1_655
O20 Si1 1.638296 1_565
O21 Si5 1.631920 1_545
O21 Si2 1.638296 1_455
O22 Si6 1.631920 1_555
O22 Si7 1.638296 1_555
O23 Si7 1.631920 1_555
O23 Si5 1.638296 1_545
O24 Si9 1.622926 1_555
O24 Si15 1.622926 1_555
O25 Si11 1.622926 1_555
O25 Si14 1.622926 1_555
O26 Si12 1.622925 1_555
O26 Si13 1.622928 1_555
O27 Si8 1.622925 1_555
O27 Si10 1.622928 1_555
O28 Si7 1.622925 1_555
O28 Si1 1.622928 1_555
O29 Si6 1.622926 1_555
O29 Si3 1.622926 1_555
O30 Si5 1.622925 1_555
O30 Si4 1.622928 1_555
O31 Si2 1.622926 1_555
O31 Si0 1.622926 1_555
O32 Si15 1.631920 1_555
O32 Si13 1.638296 1_565
O33 Si14 1.631920 1_555
O33 Si15 1.638296 1_555
O34 Si13 1.631920 1_565
O34 Si10 1.638296 1_655
O35 Si12 1.631923 1_455
O35 Si9 1.638299 1_545
O36 Si11 1.631923 1_555
O36 Si8 1.638299 1_555
O37 Si10 1.631920 1_655
O37 Si14 1.638296 1_555
O38 Si9 1.631923 1_545
O38 Si11 1.638299 1_555
O39 Si0 1.631920 1_555
O39 Si4 1.638296 1_655
