# generated using pymatgen
data_ZrSc2
_symmetry_space_group_name_H-M   'P 1'
_cell_length_a   6.58035204
_cell_length_b   12.36416760
_cell_length_c   15.30115989
_cell_angle_alpha   102.92470384
_cell_angle_beta   90.00000000
_cell_angle_gamma   105.43266147
_symmetry_Int_Tables_number   1
_chemical_formula_structural   ZrSc2
_chemical_formula_sum   'Zr16 Sc32'
_cell_volume   1167.27225523
_cell_formula_units_Z   16
loop_
 _symmetry_equiv_pos_site_id
 _symmetry_equiv_pos_as_xyz
  1  'x, y, z'
loop_
 _atom_site_type_symbol
 _atom_site_label
 _atom_site_symmetry_multiplicity
 _atom_site_fract_x
 _atom_site_fract_y
 _atom_site_fract_z
 _atom_site_occupancy
  Zr  Zr0_0  1  0.23915356  0.47830712  0.09579542  1
  Zr  Zr0_1  1  0.23915356  0.47830712  0.59579542  1
  Zr  Zr0_2  1  0.23915356  0.97830712  0.09579542  1
  Zr  Zr0_3  1  0.23915356  0.97830712  0.59579542  1
  Zr  Zr0_4  1  0.73915356  0.47830712  0.09579542  1
  Zr  Zr0_5  1  0.73915356  0.47830711  0.59579542  1
  Zr  Zr0_6  1  0.73915356  0.97830712  0.09579542  1
  Zr  Zr0_7  1  0.73915356  0.97830712  0.59579542  1
  Zr  Zr1_0  1  0.26084644  0.02169289  0.40420458  1
  Zr  Zr1_1  1  0.26084644  0.02169289  0.90420458  1
  Zr  Zr1_2  1  0.26084644  0.52169288  0.40420458  1
  Zr  Zr1_3  1  0.26084644  0.52169288  0.90420458  1
  Zr  Zr1_4  1  0.76084644  0.02169288  0.40420458  1
  Zr  Zr1_5  1  0.76084644  0.02169289  0.90420458  1
  Zr  Zr1_6  1  0.76084644  0.52169288  0.40420458  1
  Zr  Zr1_7  1  0.76084644  0.52169288  0.90420458  1
  Sc  Sc0_0  1  0.40378054  0.30756058  0.43099642  1
  Sc  Sc0_1  1  0.40378054  0.30756058  0.93099642  1
  Sc  Sc0_2  1  0.40378054  0.80756058  0.43099642  1
  Sc  Sc0_3  1  0.40378054  0.80756058  0.93099642  1
  Sc  Sc0_4  1  0.90378054  0.30756058  0.43099642  1
  Sc  Sc0_5  1  0.90378054  0.30756058  0.93099642  1
  Sc  Sc0_6  1  0.90378054  0.80756058  0.43099642  1
  Sc  Sc0_7  1  0.90378054  0.80756058  0.93099642  1
  Sc  Sc1_0  1  0.09621946  0.19243943  0.06900358  1
  Sc  Sc1_1  1  0.09621946  0.19243943  0.56900358  1
  Sc  Sc1_2  1  0.09621946  0.69243942  0.06900358  1
  Sc  Sc1_3  1  0.09621946  0.69243942  0.56900358  1
  Sc  Sc1_4  1  0.59621946  0.19243943  0.06900358  1
  Sc  Sc1_5  1  0.59621946  0.19243943  0.56900358  1
  Sc  Sc1_6  1  0.59621946  0.69243942  0.06900358  1
  Sc  Sc1_7  1  0.59621946  0.69243942  0.56900358  1
  Sc  Sc2_0  1  0.43315435  0.36630870  0.23514352  1
  Sc  Sc2_1  1  0.43315435  0.36630870  0.73514352  1
  Sc  Sc2_2  1  0.43315435  0.86630870  0.23514352  1
  Sc  Sc2_3  1  0.43315435  0.86630870  0.73514352  1
  Sc  Sc2_4  1  0.93315435  0.36630870  0.23514352  1
  Sc  Sc2_5  1  0.93315435  0.36630870  0.73514352  1
  Sc  Sc2_6  1  0.93315435  0.86630870  0.23514352  1
  Sc  Sc2_7  1  0.93315435  0.86630870  0.73514352  1
  Sc  Sc3_0  1  0.06684565  0.13369130  0.26485648  1
  Sc  Sc3_1  1  0.06684565  0.13369130  0.76485648  1
  Sc  Sc3_2  1  0.06684565  0.63369130  0.26485648  1
  Sc  Sc3_3  1  0.06684565  0.63369130  0.76485648  1
  Sc  Sc3_4  1  0.56684565  0.13369130  0.26485648  1
  Sc  Sc3_5  1  0.56684565  0.13369130  0.76485648  1
  Sc  Sc3_6  1  0.56684565  0.63369130  0.26485648  1
  Sc  Sc3_7  1  0.56684565  0.63369130  0.76485648  1
loop_
_geom_bond_atom_site_label_1
_geom_bond_atom_site_label_2
_geom_bond_distance
_geom_bond_site_symmetry_2
Zr0_0 Zr1_3 3.092719 1_554
Zr0_0 Zr0_4 3.290176 1_455
Zr0_0 Zr0_4 3.290176 1_555
Zr0_1 Zr1_2 3.092719 1_555
Zr0_1 Zr0_5 3.290176 1_455
Zr0_1 Zr0_5 3.290176 1_555
Zr0_2 Zr1_1 3.092719 1_564
Zr0_2 Zr0_6 3.290176 1_455
Zr0_2 Zr0_6 3.290176 1_555
Zr0_3 Zr1_0 3.092719 1_565
Zr0_3 Zr0_7 3.290176 1_455
Zr0_3 Zr0_7 3.290176 1_555
Zr0_4 Zr1_7 3.092719 1_554
Zr0_5 Zr1_6 3.092719 1_555
Zr0_6 Zr1_5 3.092719 1_564
Zr0_7 Zr1_4 3.092719 1_565
Zr1_0 Zr1_4 3.290176 1_455
Zr1_0 Zr1_4 3.290176 1_555
Zr1_1 Zr1_5 3.290176 1_455
Zr1_1 Zr1_5 3.290176 1_555
Zr1_2 Zr1_6 3.290176 1_455
Zr1_2 Zr1_6 3.290176 1_555
Zr1_3 Zr1_7 3.290176 1_455
Zr1_3 Zr1_7 3.290176 1_555
Sc0_0 Zr1_6 3.142155 1_555
Sc0_0 Zr1_2 3.142157 1_555
Sc0_0 Sc1_5 3.223750 1_555
Sc0_0 Sc1_1 3.223753 1_555
Sc0_0 Sc2_0 3.231824 1_555
Sc0_0 Zr0_5 3.290099 1_555
Sc0_0 Zr0_1 3.290100 1_555
Sc0_0 Sc0_4 3.290176 1_455
Sc0_0 Sc0_4 3.290176 1_555
Sc0_0 Sc3_4 3.319371 1_555
Sc0_0 Sc3_0 3.319373 1_555
Sc0_0 Zr1_0 3.335871 1_555
Sc0_1 Zr1_7 3.142155 1_555
Sc0_1 Zr1_3 3.142157 1_555
Sc0_1 Sc1_4 3.223750 1_556
Sc0_1 Sc1_0 3.223753 1_556
Sc0_1 Sc2_1 3.231824 1_555
Sc0_1 Zr0_4 3.290099 1_556
Sc0_1 Zr0_0 3.290100 1_556
Sc0_1 Sc0_5 3.290176 1_455
Sc0_1 Sc0_5 3.290176 1_555
Sc0_1 Sc3_5 3.319371 1_555
Sc0_1 Sc3_1 3.319373 1_555
Sc0_1 Zr1_1 3.335871 1_555
Sc0_2 Zr1_4 3.142155 1_565
Sc0_2 Zr1_0 3.142157 1_565
Sc0_2 Sc1_7 3.223750 1_555
Sc0_2 Sc1_3 3.223753 1_555
Sc0_2 Sc2_2 3.231824 1_555
Sc0_2 Zr0_7 3.290099 1_555
Sc0_2 Zr0_3 3.290100 1_555
Sc0_2 Sc0_6 3.290176 1_455
Sc0_2 Sc0_6 3.290176 1_555
Sc0_2 Sc3_6 3.319371 1_555
Sc0_2 Sc3_2 3.319373 1_555
Sc0_2 Zr1_2 3.335871 1_555
Sc0_3 Zr1_5 3.142155 1_565
Sc0_3 Zr1_1 3.142157 1_565
Sc0_3 Sc1_6 3.223750 1_556
Sc0_3 Sc1_2 3.223753 1_556
Sc0_3 Sc2_3 3.231824 1_555
Sc0_3 Zr0_6 3.290099 1_556
Sc0_3 Zr0_2 3.290100 1_556
Sc0_3 Sc0_7 3.290176 1_555
Sc0_3 Sc0_7 3.290176 1_455
Sc0_3 Sc3_7 3.319371 1_555
Sc0_3 Sc3_3 3.319373 1_555
Sc0_3 Zr1_3 3.335871 1_555
Sc0_4 Zr1_2 3.142155 1_655
Sc0_4 Zr1_6 3.142157 1_555
Sc0_4 Sc1_1 3.223750 1_655
Sc0_4 Sc1_5 3.223753 1_555
Sc0_4 Sc2_4 3.231824 1_555
Sc0_4 Zr0_1 3.290099 1_655
Sc0_4 Zr0_5 3.290100 1_555
Sc0_4 Sc3_0 3.319371 1_655
Sc0_4 Sc3_4 3.319373 1_555
Sc0_4 Zr1_4 3.335871 1_555
Sc0_5 Zr1_3 3.142155 1_655
Sc0_5 Zr1_7 3.142157 1_555
Sc0_5 Sc1_0 3.223750 1_656
Sc0_5 Sc1_4 3.223753 1_556
Sc0_5 Sc2_5 3.231824 1_555
Sc0_5 Zr0_0 3.290099 1_656
Sc0_5 Zr0_4 3.290100 1_556
Sc0_5 Sc3_1 3.319371 1_655
Sc0_5 Sc3_5 3.319373 1_555
Sc0_5 Zr1_5 3.335871 1_555
Sc0_6 Zr1_0 3.142155 1_665
Sc0_6 Zr1_4 3.142157 1_565
Sc0_6 Sc1_3 3.223750 1_655
Sc0_6 Sc1_7 3.223753 1_555
Sc0_6 Sc2_6 3.231824 1_555
Sc0_6 Zr0_3 3.290099 1_655
Sc0_6 Zr0_7 3.290100 1_555
Sc0_6 Sc3_2 3.319371 1_655
Sc0_6 Sc3_6 3.319373 1_555
Sc0_6 Zr1_6 3.335871 1_555
Sc0_7 Zr1_1 3.142155 1_665
Sc0_7 Zr1_5 3.142157 1_565
Sc0_7 Sc1_2 3.223750 1_656
Sc0_7 Sc1_6 3.223753 1_556
Sc0_7 Sc2_7 3.231824 1_555
Sc0_7 Zr0_2 3.290099 1_656
Sc0_7 Zr0_6 3.290100 1_556
Sc0_7 Sc3_3 3.319371 1_655
Sc0_7 Sc3_7 3.319373 1_555
Sc0_7 Zr1_7 3.335871 1_555
Sc1_0 Zr0_6 3.142155 1_445
Sc1_0 Zr0_2 3.142157 1_545
Sc1_0 Sc3_0 3.231824 1_555
Sc1_0 Zr1_5 3.290099 1_454
Sc1_0 Zr1_1 3.290100 1_554
Sc1_0 Sc1_4 3.290176 1_555
Sc1_0 Sc1_4 3.290176 1_455
Sc1_0 Sc2_4 3.319371 1_455
Sc1_0 Sc2_0 3.319373 1_555
Sc1_0 Zr0_0 3.335871 1_555
Sc1_1 Zr0_7 3.142155 1_445
Sc1_1 Zr0_3 3.142157 1_545
Sc1_1 Sc3_1 3.231824 1_555
Sc1_1 Zr1_4 3.290099 1_455
Sc1_1 Zr1_0 3.290100 1_555
Sc1_1 Sc1_5 3.290176 1_455
Sc1_1 Sc1_5 3.290176 1_555
Sc1_1 Sc2_5 3.319371 1_455
Sc1_1 Sc2_1 3.319373 1_555
Sc1_1 Zr0_1 3.335871 1_555
Sc1_2 Zr0_4 3.142155 1_455
Sc1_2 Zr0_0 3.142157 1_555
Sc1_2 Sc3_2 3.231824 1_555
Sc1_2 Zr1_7 3.290099 1_454
Sc1_2 Zr1_3 3.290100 1_554
Sc1_2 Sc1_6 3.290176 1_455
Sc1_2 Sc1_6 3.290176 1_555
Sc1_2 Sc2_6 3.319371 1_455
Sc1_2 Sc2_2 3.319373 1_555
Sc1_2 Zr0_2 3.335871 1_555
Sc1_3 Zr0_5 3.142155 1_455
Sc1_3 Zr0_1 3.142157 1_555
Sc1_3 Sc3_3 3.231824 1_555
Sc1_3 Zr1_6 3.290099 1_455
Sc1_3 Zr1_2 3.290100 1_555
Sc1_3 Sc1_7 3.290176 1_555
Sc1_3 Sc1_7 3.290176 1_455
Sc1_3 Sc2_7 3.319371 1_455
Sc1_3 Sc2_3 3.319373 1_555
Sc1_3 Zr0_3 3.335871 1_555
Sc1_4 Zr0_2 3.142155 1_545
Sc1_4 Zr0_6 3.142157 1_545
Sc1_4 Sc3_4 3.231824 1_555
Sc1_4 Zr1_1 3.290099 1_554
Sc1_4 Zr1_5 3.290100 1_554
Sc1_4 Sc2_0 3.319371 1_555
Sc1_4 Sc2_4 3.319373 1_555
Sc1_4 Zr0_4 3.335871 1_555
Sc1_5 Zr0_3 3.142155 1_545
Sc1_5 Zr0_7 3.142157 1_545
Sc1_5 Sc3_5 3.231824 1_555
Sc1_5 Zr1_0 3.290099 1_555
Sc1_5 Zr1_4 3.290100 1_555
Sc1_5 Sc2_1 3.319371 1_555
Sc1_5 Sc2_5 3.319373 1_555
Sc1_5 Zr0_5 3.335871 1_555
Sc1_6 Zr0_0 3.142155 1_555
Sc1_6 Zr0_4 3.142157 1_555
Sc1_6 Sc3_6 3.231824 1_555
Sc1_6 Zr1_3 3.290099 1_554
Sc1_6 Zr1_7 3.290100 1_554
Sc1_6 Sc2_2 3.319371 1_555
Sc1_6 Sc2_6 3.319373 1_555
Sc1_6 Zr0_6 3.335871 1_555
Sc1_7 Zr0_1 3.142155 1_555
Sc1_7 Zr0_5 3.142157 1_555
Sc1_7 Sc3_7 3.231824 1_555
Sc1_7 Zr1_2 3.290099 1_555
Sc1_7 Zr1_6 3.290100 1_555
Sc1_7 Sc2_3 3.319371 1_555
Sc1_7 Sc2_7 3.319373 1_555
Sc1_7 Zr0_7 3.335871 1_555
Sc2_0 Sc3_6 3.112843 1_555
Sc2_0 Zr0_0 3.217940 1_555
Sc2_0 Zr0_4 3.217941 1_555
Sc2_0 Zr1_2 3.256445 1_555
Sc2_0 Zr1_6 3.256445 1_555
Sc2_0 Sc2_4 3.290176 1_455
Sc2_0 Sc2_4 3.290176 1_555
Sc2_0 Sc3_4 3.344288 1_555
Sc2_0 Sc3_0 3.344289 1_555
Sc2_1 Sc3_7 3.112843 1_555
Sc2_1 Zr0_1 3.217940 1_555
Sc2_1 Zr0_5 3.217941 1_555
Sc2_1 Zr1_3 3.256445 1_555
Sc2_1 Zr1_7 3.256445 1_555
Sc2_1 Sc2_5 3.290176 1_455
Sc2_1 Sc2_5 3.290176 1_555
Sc2_1 Sc3_5 3.344288 1_555
Sc2_1 Sc3_1 3.344289 1_555
Sc2_2 Sc3_4 3.112843 1_565
Sc2_2 Zr0_2 3.217940 1_555
Sc2_2 Zr0_6 3.217941 1_555
Sc2_2 Zr1_0 3.256445 1_565
Sc2_2 Zr1_4 3.256445 1_565
Sc2_2 Sc2_6 3.290176 1_455
Sc2_2 Sc2_6 3.290176 1_555
Sc2_2 Sc3_6 3.344288 1_555
Sc2_2 Sc3_2 3.344289 1_555
Sc2_3 Sc3_5 3.112843 1_565
Sc2_3 Zr0_3 3.217940 1_555
Sc2_3 Zr0_7 3.217941 1_555
Sc2_3 Zr1_1 3.256445 1_565
Sc2_3 Zr1_5 3.256445 1_565
Sc2_3 Sc2_7 3.290176 1_455
Sc2_3 Sc2_7 3.290176 1_555
Sc2_3 Sc3_7 3.344288 1_555
Sc2_3 Sc3_3 3.344289 1_555
Sc2_4 Sc3_2 3.112843 1_655
Sc2_4 Zr0_4 3.217940 1_555
Sc2_4 Zr0_0 3.217941 1_655
Sc2_4 Zr1_6 3.256445 1_555
Sc2_4 Zr1_2 3.256445 1_655
Sc2_4 Sc3_0 3.344288 1_655
Sc2_4 Sc3_4 3.344289 1_555
Sc2_5 Sc3_3 3.112843 1_655
Sc2_5 Zr0_5 3.217940 1_555
Sc2_5 Zr0_1 3.217941 1_655
Sc2_5 Zr1_7 3.256445 1_555
Sc2_5 Zr1_3 3.256445 1_655
Sc2_5 Sc3_1 3.344288 1_655
Sc2_5 Sc3_5 3.344289 1_555
Sc2_6 Sc3_0 3.112843 1_665
Sc2_6 Zr0_6 3.217940 1_555
Sc2_6 Zr0_2 3.217941 1_655
Sc2_6 Zr1_4 3.256445 1_565
Sc2_6 Zr1_0 3.256445 1_665
Sc2_6 Sc3_2 3.344288 1_655
Sc2_6 Sc3_6 3.344289 1_555
Sc2_7 Sc3_1 3.112843 1_665
Sc2_7 Zr0_7 3.217940 1_555
Sc2_7 Zr0_3 3.217941 1_655
Sc2_7 Zr1_5 3.256445 1_565
Sc2_7 Zr1_1 3.256445 1_665
Sc2_7 Sc3_3 3.344288 1_655
Sc2_7 Sc3_7 3.344289 1_555
Sc3_0 Zr1_0 3.217940 1_555
Sc3_0 Zr1_4 3.217941 1_455
Sc3_0 Zr0_2 3.256445 1_545
Sc3_0 Zr0_6 3.256445 1_445
Sc3_0 Sc3_4 3.290176 1_555
Sc3_0 Sc3_4 3.290176 1_455
Sc3_1 Zr1_1 3.217940 1_555
Sc3_1 Zr1_5 3.217941 1_455
Sc3_1 Zr0_3 3.256445 1_545
Sc3_1 Zr0_7 3.256445 1_445
Sc3_1 Sc3_5 3.290176 1_455
Sc3_1 Sc3_5 3.290176 1_555
Sc3_2 Zr1_2 3.217940 1_555
Sc3_2 Zr1_6 3.217941 1_455
Sc3_2 Zr0_0 3.256445 1_555
Sc3_2 Zr0_4 3.256445 1_455
Sc3_2 Sc3_6 3.290176 1_455
Sc3_2 Sc3_6 3.290176 1_555
Sc3_3 Zr1_3 3.217940 1_555
Sc3_3 Zr1_7 3.217941 1_455
Sc3_3 Zr0_1 3.256445 1_555
Sc3_3 Zr0_5 3.256445 1_455
Sc3_3 Sc3_7 3.290176 1_455
Sc3_3 Sc3_7 3.290176 1_555
Sc3_4 Zr1_4 3.217940 1_555
Sc3_4 Zr1_0 3.217941 1_555
Sc3_4 Zr0_6 3.256445 1_545
Sc3_4 Zr0_2 3.256445 1_545
Sc3_5 Zr1_5 3.217940 1_555
Sc3_5 Zr1_1 3.217941 1_555
Sc3_5 Zr0_7 3.256445 1_545
Sc3_5 Zr0_3 3.256445 1_545
Sc3_6 Zr1_6 3.217940 1_555
Sc3_6 Zr1_2 3.217941 1_555
Sc3_6 Zr0_4 3.256445 1_555
Sc3_6 Zr0_0 3.256445 1_555
Sc3_7 Zr1_7 3.217940 1_555
Sc3_7 Zr1_3 3.217941 1_555
Sc3_7 Zr0_5 3.256445 1_555
Sc3_7 Zr0_1 3.256445 1_555
