# generated using pymatgen
data_Sc3Si3Pt
_symmetry_space_group_name_H-M   'P 1'
_cell_length_a   4.03644555
_cell_length_b   10.21849964
_cell_length_c   11.70456234
_cell_angle_alpha   90.00071289
_cell_angle_beta   89.99998835
_cell_angle_gamma   90.00002274
_symmetry_Int_Tables_number   1
_chemical_formula_structural   Sc3Si3Pt
_chemical_formula_sum   'Sc12 Si12 Pt4'
_cell_volume   482.77126374
_cell_formula_units_Z   4
loop_
 _symmetry_equiv_pos_site_id
 _symmetry_equiv_pos_as_xyz
  1  'x, y, z'
loop_
 _atom_site_type_symbol
 _atom_site_label
 _atom_site_symmetry_multiplicity
 _atom_site_fract_x
 _atom_site_fract_y
 _atom_site_fract_z
 _atom_site_occupancy
  Sc  Sc0  1  0.25000055  0.87630251  0.02127362  1
  Sc  Sc1  1  0.24999977  0.62362088  0.52130023  1
  Sc  Sc2  1  0.74999940  0.12369390  0.97872477  1
  Sc  Sc3  1  0.75000119  0.37637816  0.47870153  1
  Sc  Sc4  1  0.24999985  0.92001878  0.59926113  1
  Sc  Sc5  1  0.25000048  0.57992101  0.09911303  1
  Sc  Sc6  1  0.75000004  0.07997363  0.40073947  1
  Sc  Sc7  1  0.75000012  0.42007475  0.90088523  1
  Sc  Sc8  1  0.24999875  0.65819203  0.80111635  1
  Sc  Sc9  1  0.25000024  0.84168338  0.30095992  1
  Sc  Sc10  1  0.74999907  0.34180337  0.19888696  1
  Sc  Sc11  1  0.75000035  0.15831010  0.69903739  1
  Si  Si0  1  0.25000014  0.01626974  0.82465757  1
  Si  Si1  1  0.25000018  0.48374632  0.32460551  1
  Si  Si2  1  0.75000013  0.98372603  0.17534394  1
  Si  Si3  1  0.75000004  0.51625101  0.67539153  1
  Si  Si4  1  0.24999980  0.24683327  0.84406737  1
  Si  Si5  1  0.24999985  0.25320772  0.34399344  1
  Si  Si6  1  0.75000040  0.75316199  0.15593101  1
  Si  Si7  1  0.75000000  0.74678621  0.65600655  1
  Si  Si8  1  0.24999988  0.18937626  0.54268880  1
  Si  Si9  1  0.24999966  0.31066416  0.04267894  1
  Si  Si10  1  0.75000035  0.81062225  0.45731028  1
  Si  Si11  1  0.74999984  0.68933542  0.95732102  1
  Pt  Pt0  1  0.25000008  0.38643899  0.67857697  1
  Pt  Pt1  1  0.24999973  0.11361015  0.17854937  1
  Pt  Pt2  1  0.75000029  0.61357485  0.32142193  1
  Pt  Pt3  1  0.74999980  0.88642216  0.82145513  1
loop_
_geom_bond_atom_site_label_1
_geom_bond_atom_site_label_2
_geom_bond_distance
_geom_bond_site_symmetry_2
Sc0 Si0 2.709560 1_564
Sc0 Si6 2.853196 1_455
Sc0 Si6 2.853197 1_555
Sc0 Si11 2.878122 1_554
Sc0 Si11 2.878125 1_454
Sc0 Si2 2.920635 1_555
Sc0 Si2 2.920638 1_455
Sc1 Si1 2.709812 1_555
Sc1 Si7 2.853607 1_455
Sc1 Si7 2.853608 1_555
Sc1 Si10 2.878481 1_455
Sc1 Si10 2.878483 1_555
Sc1 Si3 2.920598 1_455
Sc1 Si3 2.920600 1_555
Sc2 Si2 2.709594 1_546
Sc2 Si4 2.853191 1_555
Sc2 Si4 2.853192 1_655
Sc2 Si9 2.878149 1_556
Sc2 Si9 2.878150 1_656
Sc2 Si0 2.920614 1_555
Sc2 Si0 2.920619 1_655
Sc3 Si3 2.709756 1_555
Sc3 Si5 2.853638 1_655
Sc3 Si5 2.853645 1_555
Sc3 Si8 2.878474 1_655
Sc3 Si8 2.878481 1_555
Sc3 Si1 2.920623 1_655
Sc3 Si1 2.920630 1_555
Sc4 Si7 2.765485 1_455
Sc4 Si7 2.765487 1_555
Sc4 Si0 2.815530 1_565
Sc4 Si8 2.830965 1_565
Sc4 Si10 2.843113 1_455
Sc4 Si10 2.843116 1_555
Sc5 Si6 2.765734 1_555
Sc5 Si6 2.765735 1_455
Sc5 Si1 2.816334 1_555
Sc5 Si9 2.829571 1_555
Sc5 Si11 2.842114 1_554
Sc5 Si11 2.842119 1_454
Sc6 Si5 2.765497 1_655
Sc6 Si5 2.765499 1_555
Sc6 Si2 2.815508 1_545
Sc6 Si10 2.830900 1_545
Sc6 Si8 2.843128 1_655
Sc6 Si8 2.843129 1_555
Sc7 Si4 2.765737 1_655
Sc7 Si4 2.765738 1_555
Sc7 Si3 2.816353 1_555
Sc7 Si11 2.829613 1_555
Sc7 Si9 2.842112 1_656
Sc7 Si9 2.842113 1_556
Sc8 Si11 2.741746 1_455
Sc8 Si11 2.741753 1_555
Sc8 Si7 2.788823 1_455
Sc8 Si7 2.788829 1_555
Sc8 Si3 2.888313 1_455
Sc8 Si3 2.888320 1_555
Sc9 Si10 2.742794 1_455
Sc9 Si10 2.742796 1_555
Sc9 Si6 2.787994 1_455
Sc9 Si6 2.787995 1_555
Sc9 Si2 2.888207 1_555
Sc9 Si2 2.888209 1_455
Sc10 Si9 2.741769 1_555
Sc10 Si9 2.741773 1_655
Sc10 Si5 2.788804 1_555
Sc10 Si5 2.788810 1_655
Sc10 Si1 2.888286 1_555
Sc10 Si1 2.888292 1_655
Sc11 Si8 2.742785 1_655
Sc11 Si8 2.742789 1_555
Sc11 Si4 2.788006 1_655
Sc11 Si4 2.788009 1_555
Sc11 Si0 2.888221 1_555
Sc11 Si0 2.888221 1_655
Si0 Si4 2.366938 1_555
Si1 Si5 2.366666 1_555
Si2 Si6 2.366947 1_555
Si3 Si7 2.366628 1_555
Si4 Si9 2.414426 1_556
Si5 Si8 2.415387 1_555
Si10 Si7 2.415410 1_555
Si11 Si6 2.414396 1_556
Pt0 Si4 2.405636 1_555
Pt0 Si3 2.415403 1_555
Pt0 Si3 2.415404 1_455
Pt0 Si8 2.566043 1_555
Pt0 Sc1 3.043502 1_555
Pt0 Sc3 3.091410 1_455
Pt0 Sc3 3.091416 1_555
Pt0 Sc11 3.092696 1_455
Pt0 Sc11 3.092699 1_555
Pt0 Sc8 3.125420 1_555
Pt1 Si5 2.405122 1_555
Pt1 Si2 2.415810 1_445
Pt1 Si2 2.415813 1_545
Pt1 Si9 2.565875 1_555
Pt1 Sc0 3.044482 1_545
Pt1 Sc2 3.090971 1_554
Pt1 Sc2 3.090974 1_454
Pt1 Sc10 3.093075 1_555
Pt1 Sc10 3.093080 1_455
Pt1 Sc9 3.126338 1_545
Pt2 Si6 2.405529 1_555
Pt2 Si1 2.415496 1_555
Pt2 Si1 2.415496 1_655
Pt2 Si10 2.565921 1_555
Pt2 Sc3 3.043643 1_555
Pt2 Sc1 3.091432 1_655
Pt2 Sc1 3.091434 1_555
Pt2 Sc9 3.092541 1_655
Pt2 Sc9 3.092543 1_555
Pt2 Sc10 3.125564 1_555
Pt3 Si7 2.405397 1_555
Pt3 Si0 2.415605 1_565
Pt3 Si0 2.415606 1_665
Pt3 Si11 2.566105 1_555
Pt3 Sc2 3.044147 1_565
Pt3 Sc0 3.090928 1_556
Pt3 Sc0 3.090933 1_656
Pt3 Sc8 3.093361 1_655
Pt3 Sc8 3.093365 1_555
Pt3 Sc11 3.126024 1_565
