# generated using pymatgen
data_Rb2Ni(PS3)2
_symmetry_space_group_name_H-M   'P 1'
_cell_length_a   12.66432900
_cell_length_b   5.96689300
_cell_length_c   8.93457634
_cell_angle_alpha   57.93184326
_cell_angle_beta   90.00000000
_cell_angle_gamma   90.00000000
_symmetry_Int_Tables_number   1
_chemical_formula_structural   Rb2Ni(PS3)2
_chemical_formula_sum   'Rb4 Ni2 P4 S12'
_cell_volume   572.13910824
_cell_formula_units_Z   2
loop_
 _symmetry_equiv_pos_site_id
 _symmetry_equiv_pos_as_xyz
  1  'x, y, z'
loop_
 _atom_site_type_symbol
 _atom_site_label
 _atom_site_symmetry_multiplicity
 _atom_site_fract_x
 _atom_site_fract_y
 _atom_site_fract_z
 _atom_site_occupancy
  Rb  Rb0  1  0.68099900  0.69065200  0.03331000  1
  Rb  Rb1  1  0.31900100  0.30934800  0.96669000  1
  Rb  Rb2  1  0.18099900  0.30934800  0.46669000  1
  Rb  Rb3  1  0.81900100  0.69065200  0.53331000  1
  Ni  Ni0  1  0.00000000  0.00000000  0.00000000  1
  Ni  Ni1  1  0.50000000  0.00000000  0.50000000  1
  P  P0  1  0.96404100  0.34488300  0.12610900  1
  P  P1  1  0.03595900  0.65511700  0.87389100  1
  P  P2  1  0.46404100  0.65511700  0.37389100  1
  P  P3  1  0.53595900  0.34488300  0.62610900  1
  S  S0  1  0.93414400  0.55808200  0.23841400  1
  S  S1  1  0.06585600  0.44191800  0.76158600  1
  S  S2  1  0.43414400  0.44191800  0.26158600  1
  S  S3  1  0.56585600  0.55808200  0.73841400  1
  S  S4  1  0.57251200  0.95144700  0.26071500  1
  S  S5  1  0.42748800  0.04855300  0.73928500  1
  S  S6  1  0.07251200  0.04855300  0.23928500  1
  S  S7  1  0.92748800  0.95144700  0.76071500  1
  S  S8  1  0.84126700  0.20118000  0.05380000  1
  S  S9  1  0.15873300  0.79882000  0.94620000  1
  S  S10  1  0.34126700  0.79882000  0.44620000  1
  S  S11  1  0.65873300  0.20118000  0.55380000  1
loop_
_geom_bond_atom_site_label_1
_geom_bond_atom_site_label_2
_geom_bond_distance
_geom_bond_site_symmetry_2
Rb0 S4 3.434320 1_555
Rb0 S3 3.450685 1_554
Rb0 S8 3.480726 1_555
Rb0 S0 3.566858 1_555
Rb0 S2 3.594677 1_555
Rb0 S11 3.722317 1_564
Rb0 S8 3.745004 1_565
Rb0 S7 3.751451 1_554
Rb1 S5 3.434320 1_555
Rb1 S2 3.450685 1_556
Rb1 S9 3.480726 1_555
Rb1 S1 3.566858 1_555
Rb1 S3 3.594677 1_555
Rb1 S10 3.722317 1_546
Rb1 S9 3.745004 1_545
Rb1 S6 3.751451 1_556
Rb2 S6 3.434320 1_555
Rb2 S1 3.450685 1_555
Rb2 S10 3.480726 1_555
Rb2 S2 3.566858 1_555
Rb2 S0 3.594677 1_455
Rb2 S9 3.722317 1_545
Rb2 S10 3.745004 1_545
Rb2 S5 3.751451 1_555
Rb3 S7 3.434320 1_555
Rb3 S0 3.450685 1_555
Rb3 S11 3.480726 1_555
Rb3 S3 3.566858 1_555
Rb3 S1 3.594677 1_655
Rb3 S8 3.722317 1_565
Rb3 S11 3.745004 1_565
Rb3 S4 3.751451 1_555
Ni0 S7 2.481045 1_444
Ni0 S6 2.481045 1_555
Ni0 S1 2.494362 1_554
Ni0 S0 2.494362 1_445
Ni0 S8 2.515127 1_455
Ni0 S9 2.515127 1_544
Ni1 S5 2.481045 1_555
Ni1 S4 2.481045 1_545
Ni1 S2 2.494362 1_555
Ni1 S3 2.494362 1_545
Ni1 S11 2.515127 1_555
Ni1 S10 2.515127 1_545
P0 S0 2.030740 1_555
P0 S6 2.034075 1_655
P0 S8 2.039217 1_555
P1 S1 2.030740 1_555
P1 S7 2.034075 1_455
P1 S9 2.039217 1_555
P2 S2 2.030740 1_555
P2 S4 2.034075 1_555
P2 S10 2.039217 1_555
P3 S3 2.030740 1_555
P3 S5 2.034075 1_555
P3 S11 2.039217 1_555
