# generated using pymatgen
data_Ho2(NiB2)3
_symmetry_space_group_name_H-M   'P 1'
_cell_length_a   5.76274632
_cell_length_b   5.76274632
_cell_length_c   3.44733410
_cell_angle_alpha   90.00000000
_cell_angle_beta   90.00000000
_cell_angle_gamma   96.59508636
_symmetry_Int_Tables_number   1
_chemical_formula_structural   Ho2(NiB2)3
_chemical_formula_sum   'Ho2 Ni3 B6'
_cell_volume   113.72578307
_cell_formula_units_Z   1
loop_
 _symmetry_equiv_pos_site_id
 _symmetry_equiv_pos_as_xyz
  1  'x, y, z'
loop_
 _atom_site_type_symbol
 _atom_site_label
 _atom_site_symmetry_multiplicity
 _atom_site_fract_x
 _atom_site_fract_y
 _atom_site_fract_z
 _atom_site_occupancy
  Ho  Ho0  1  0.27532778  0.72467222  0.00000000  1
  Ho  Ho1  1  0.72467222  0.27532778  0.00000000  1
  Ni  Ni0  1  0.00000000  0.00000000  0.50000000  1
  Ni  Ni1  1  0.22646219  0.22646219  -0.00000000  1
  Ni  Ni2  1  0.77353781  0.77353781  -0.00000000  1
  B  B0  1  0.38346601  0.08425949  0.50000000  1
  B  B1  1  0.61653399  0.91574051  0.50000000  1
  B  B2  1  0.08425949  0.38346601  0.50000000  1
  B  B3  1  0.91574051  0.61653399  0.50000000  1
  B  B4  1  0.38680210  0.38680210  0.50000000  1
  B  B5  1  0.61319790  0.61319790  0.50000000  1
loop_
_geom_bond_atom_site_label_1
_geom_bond_atom_site_label_2
_geom_bond_distance
_geom_bond_site_symmetry_2
Ho0 Ni1 2.852465 1_555
Ho0 Ni2 2.852465 1_555
Ho0 Ni0 2.929876 1_565
Ho0 Ni0 2.929876 1_564
Ho0 Ni1 2.937381 1_565
Ho0 Ni2 2.937381 1_455
Ho1 Ni1 2.852465 1_555
Ho1 Ni2 2.852465 1_555
Ho1 Ni0 2.929876 1_655
Ho1 Ni0 2.929876 1_654
Ho1 Ni1 2.937381 1_655
Ho1 Ni2 2.937381 1_545
Ni0 Ni2 2.446649 1_446
Ni0 Ni2 2.446649 1_445
Ni0 Ni1 2.446649 1_556
Ni0 Ni1 2.446649 1_555
B0 B4 1.741373 1_555
B0 B1 1.745468 1_545
B0 Ni1 2.152092 1_556
B0 Ni1 2.152092 1_555
B0 Ni0 2.207395 1_555
B0 Ho0 2.712342 1_545
B0 Ho0 2.712342 1_546
B0 Ho1 2.748156 1_555
B0 Ho1 2.748156 1_556
B1 B5 1.741373 1_555
B1 Ni2 2.152092 1_556
B1 Ni2 2.152092 1_555
B1 Ni0 2.207395 1_665
B1 Ho1 2.712342 1_566
B1 Ho1 2.712342 1_565
B1 Ho0 2.748156 1_556
B1 Ho0 2.748156 1_555
B2 B4 1.741373 1_555
B2 B3 1.745468 1_455
B2 Ni1 2.152092 1_556
B2 Ni1 2.152092 1_555
B2 Ni0 2.207395 1_555
B2 Ho1 2.712342 1_455
B2 Ho1 2.712342 1_456
B2 Ho0 2.748156 1_556
B2 Ho0 2.748156 1_555
B3 B5 1.741373 1_555
B3 Ni2 2.152092 1_556
B3 Ni2 2.152092 1_555
B3 Ni0 2.207395 1_665
B3 Ho0 2.712342 1_655
B3 Ho0 2.712342 1_656
B3 Ho1 2.748156 1_555
B3 Ho1 2.748156 1_556
B4 B5 1.735884 1_555
B4 Ni1 2.117182 1_556
B4 Ni1 2.117182 1_555
B4 Ho0 2.731676 1_555
B4 Ho1 2.731676 1_555
B4 Ho0 2.731676 1_556
B4 Ho1 2.731676 1_556
B5 Ni2 2.117182 1_555
B5 Ni2 2.117182 1_556
B5 Ho0 2.731676 1_555
B5 Ho1 2.731676 1_555
B5 Ho0 2.731676 1_556
B5 Ho1 2.731676 1_556
