# generated using pymatgen
data_TiSiAg2O5
_symmetry_space_group_name_H-M   'P 1'
_cell_length_a   6.55907200
_cell_length_b   6.55907200
_cell_length_c   5.52764800
_cell_angle_alpha   90.00000000
_cell_angle_beta   90.00000000
_cell_angle_gamma   90.00000000
_symmetry_Int_Tables_number   1
_chemical_formula_structural   TiSiAg2O5
_chemical_formula_sum   'Ti2 Si2 Ag4 O10'
_cell_volume   237.80729663
_cell_formula_units_Z   2
loop_
 _symmetry_equiv_pos_site_id
 _symmetry_equiv_pos_as_xyz
  1  'x, y, z'
loop_
 _atom_site_type_symbol
 _atom_site_label
 _atom_site_symmetry_multiplicity
 _atom_site_fract_x
 _atom_site_fract_y
 _atom_site_fract_z
 _atom_site_occupancy
  Ti  Ti0  1  0.00000000  0.50000000  0.93691800  1
  Ti  Ti1  1  0.50000000  0.00000000  0.06308200  1
  Si  Si0  1  0.50000000  0.50000000  0.00000000  1
  Si  Si1  1  0.00000000  0.00000000  0.00000000  1
  Ag  Ag0  1  0.25000000  0.25000000  0.50000000  1
  Ag  Ag1  1  0.75000000  0.75000000  0.50000000  1
  Ag  Ag2  1  0.25000000  0.75000000  0.50000000  1
  Ag  Ag3  1  0.75000000  0.25000000  0.50000000  1
  O  O0  1  0.29249300  0.50000000  0.83170500  1
  O  O1  1  0.70750700  0.50000000  0.83170500  1
  O  O2  1  0.79249300  0.00000000  0.16829500  1
  O  O3  1  0.20750700  0.00000000  0.16829500  1
  O  O4  1  0.50000000  0.70750700  0.16829500  1
  O  O5  1  0.50000000  0.29249300  0.16829500  1
  O  O6  1  0.00000000  0.20750700  0.83170500  1
  O  O7  1  0.00000000  0.79249300  0.83170500  1
  O  O8  1  0.00000000  0.50000000  0.24655300  1
  O  O9  1  0.50000000  0.00000000  0.75344700  1
loop_
_geom_bond_atom_site_label_1
_geom_bond_atom_site_label_2
_geom_bond_distance
_geom_bond_site_symmetry_2
Ag0 O0 2.475565 1_555
Ag0 O6 2.475565 1_555
Ag0 O5 2.475565 1_555
Ag0 O3 2.475565 1_555
Ag0 O8 2.709314 1_555
Ag0 O9 2.709314 1_555
Ag1 O1 2.475565 1_555
Ag1 O7 2.475565 1_655
Ag1 O2 2.475565 1_565
Ag1 O4 2.475565 1_555
Ag1 O8 2.709314 1_655
Ag1 O9 2.709314 1_565
Ag2 O0 2.475565 1_555
Ag2 O7 2.475565 1_555
Ag2 O3 2.475565 1_565
Ag2 O4 2.475565 1_555
Ag2 O8 2.709314 1_555
Ag2 O9 2.709314 1_565
Ag3 O1 2.475565 1_555
Ag3 O6 2.475565 1_655
Ag3 O5 2.475565 1_555
Ag3 O2 2.475565 1_555
Ag3 O8 2.709314 1_655
Ag3 O9 2.709314 1_555
O0 Si0 1.648599 1_556
O0 Ti0 2.004697 1_555
O1 Si0 1.648599 1_556
O1 Ti0 2.004697 1_655
O2 Si1 1.648599 1_655
O2 Ti1 2.004697 1_555
O3 Si1 1.648599 1_555
O3 Ti1 2.004697 1_555
O4 Si0 1.648599 1_555
O4 Ti1 2.004697 1_565
O5 Si0 1.648599 1_555
O5 Ti1 2.004697 1_555
O6 Si1 1.648599 1_556
O6 Ti0 2.004697 1_555
O7 Si1 1.648599 1_566
O7 Ti0 2.004697 1_555
O8 Ti0 1.711553 1_554
O9 Ti1 1.711553 1_556
