# generated using pymatgen
data_ZnS
_symmetry_space_group_name_H-M   'P 1'
_cell_length_a   14.00900036
_cell_length_b   13.32141684
_cell_length_c   13.22008150
_cell_angle_alpha   96.42474006
_cell_angle_beta   97.39088569
_cell_angle_gamma   89.84097124
_symmetry_Int_Tables_number   1
_chemical_formula_structural   ZnS
_chemical_formula_sum   'Zn50 S50'
_cell_volume   2431.09571798
_cell_formula_units_Z   50
loop_
 _symmetry_equiv_pos_site_id
 _symmetry_equiv_pos_as_xyz
  1  'x, y, z'
loop_
 _atom_site_type_symbol
 _atom_site_label
 _atom_site_symmetry_multiplicity
 _atom_site_fract_x
 _atom_site_fract_y
 _atom_site_fract_z
 _atom_site_occupancy
  Zn  Zn0  1  0.27577149  0.79446679  0.35022494  1
  Zn  Zn1  1  0.46032799  0.57994667  0.49468686  1
  Zn  Zn2  1  0.01886446  0.90870709  0.74315879  1
  Zn  Zn3  1  0.57589674  0.43849885  0.25547759  1
  Zn  Zn4  1  0.25431639  0.84664414  0.54857223  1
  Zn  Zn5  1  0.48861786  0.96920749  0.23190864  1
  Zn  Zn6  1  0.77574778  0.83580968  0.36949743  1
  Zn  Zn7  1  0.31201849  0.11627430  0.30269648  1
  Zn  Zn8  1  0.47148016  0.49093993  0.97095360  1
  Zn  Zn9  1  0.84707556  0.79044255  0.11042121  1
  Zn  Zn10  1  0.67262590  0.38952696  0.79447203  1
  Zn  Zn11  1  0.56564620  0.98754732  0.97859844  1
  Zn  Zn12  1  0.21343486  0.18814025  0.53011676  1
  Zn  Zn13  1  0.64673621  0.09586178  0.83070902  1
  Zn  Zn14  1  0.77355531  0.85105826  0.75008027  1
  Zn  Zn15  1  0.65974492  0.68519426  0.15788214  1
  Zn  Zn16  1  0.22024223  0.70283129  0.80407587  1
  Zn  Zn17  1  0.05652705  0.04911856  0.65879229  1
  Zn  Zn18  1  0.24442195  0.24664483  0.90518245  1
  Zn  Zn19  1  0.93026070  0.44468563  0.87796834  1
  Zn  Zn20  1  0.34679719  0.07583816  0.00277886  1
  Zn  Zn21  1  0.19746857  0.99481560  0.80238707  1
  Zn  Zn22  1  0.58168836  0.46128869  0.56279749  1
  Zn  Zn23  1  0.42375693  0.81250981  0.78241632  1
  Zn  Zn24  1  0.73394549  0.61611082  0.49398719  1
  Zn  Zn25  1  0.10571208  0.82176213  0.00887119  1
  Zn  Zn26  1  0.54981335  0.26224936  0.02617102  1
  Zn  Zn27  1  0.88970397  0.27017467  0.31170210  1
  Zn  Zn28  1  0.00272239  0.36063984  0.62348890  1
  Zn  Zn29  1  0.43713244  0.20262397  0.73287470  1
  Zn  Zn30  1  0.82192662  0.57849296  0.65933393  1
  Zn  Zn31  1  0.40050792  0.91074499  0.47703576  1
  Zn  Zn32  1  0.95087860  0.04730257  0.15544591  1
  Zn  Zn33  1  0.44526478  0.25488310  0.15993403  1
  Zn  Zn34  1  0.49995728  0.58906348  0.69544510  1
  Zn  Zn35  1  0.51593206  0.74068445  0.92583548  1
  Zn  Zn36  1  0.55323811  0.90857474  0.60624541  1
  Zn  Zn37  1  0.31819008  0.53026086  0.34971641  1
  Zn  Zn38  1  0.17133128  0.51849378  0.90928416  1
  Zn  Zn39  1  0.00256305  0.02452569  0.42131006  1
  Zn  Zn40  1  0.72186461  0.61520037  0.89786139  1
  Zn  Zn41  1  0.56945672  0.82970658  0.42034143  1
  Zn  Zn42  1  0.27989198  0.38873141  0.10494909  1
  Zn  Zn43  1  0.98158968  0.77588754  0.32487096  1
  Zn  Zn44  1  0.28605764  0.59890656  0.53224916  1
  Zn  Zn45  1  0.13025895  0.34491549  0.27726094  1
  Zn  Zn46  1  0.00127695  0.00693156  0.94071634  1
  Zn  Zn47  1  0.00577348  0.29891183  0.06879565  1
  Zn  Zn48  1  0.78313001  0.42225255  0.52579639  1
  Zn  Zn49  1  0.44163396  0.26958841  0.42735181  1
  S  S0  1  0.43966488  0.94652379  0.05320069  1
  S  S1  1  0.72020688  0.24756254  0.08263011  1
  S  S2  1  0.12999346  0.70069375  0.34442463  1
  S  S3  1  0.10711615  0.20202735  0.77388715  1
  S  S4  1  0.19872530  0.47766345  0.21764773  1
  S  S5  1  0.16504686  0.97764428  0.97092869  1
  S  S6  1  0.99556202  0.87078122  0.13296787  1
  S  S7  1  0.82709828  0.70007299  0.24668351  1
  S  S8  1  0.71140302  0.00376202  0.68755621  1
  S  S9  1  0.90910506  0.13828805  0.65334671  1
  S  S10  1  0.92494885  0.85823395  0.85512456  1
  S  S11  1  0.54102203  0.94576465  0.79127086  1
  S  S12  1  0.26129015  0.84532529  0.73350006  1
  S  S13  1  0.56187483  0.54026012  0.12412096  1
  S  S14  1  0.72189133  0.68720380  0.74697509  1
  S  S15  1  0.97239399  0.37150135  0.22145236  1
  S  S16  1  0.70754081  0.07050049  0.00042903  1
  S  S17  1  0.78429620  0.45786990  0.93129568  1
  S  S18  1  0.45683840  0.73101981  0.62338669  1
  S  S19  1  0.07139387  0.39106988  0.95659215  1
  S  S20  1  0.50420781  0.66803652  0.36281204  1
  S  S21  1  0.55878693  0.52659677  0.84146174  1
  S  S22  1  0.34063875  0.94398211  0.30112616  1
  S  S23  1  0.92946231  0.87926341  0.45305259  1
  S  S24  1  0.26842329  0.20848311  0.08908839  1
  S  S25  1  0.14849008  0.02558616  0.52400347  1
  S  S26  1  0.37264094  0.67314843  0.26896439  1
  S  S27  1  0.47691180  0.14633748  0.29172653  1
  S  S28  1  0.70437010  0.47954146  0.37398497  1
  S  S29  1  0.15355943  0.54284138  0.72842366  1
  S  S30  1  0.69585968  0.75834351  0.01317847  1
  S  S31  1  0.15302616  0.29215126  0.66843087  1
  S  S32  1  0.33734530  0.11591475  0.83062014  1
  S  S33  1  0.89783199  0.09623579  0.30570710  1
  S  S34  1  0.38435963  0.20997468  0.56518427  1
  S  S35  1  0.18777229  0.20832881  0.35380734  1
  S  S36  1  0.71420332  0.78554005  0.51632085  1
  S  S37  1  0.62230511  0.86614176  0.26614114  1
  S  S38  1  0.68097531  0.34049904  0.62151764  1
  S  S39  1  0.30506864  0.56689720  0.70544274  1
  S  S40  1  0.31788084  0.41948142  0.94528590  1
  S  S41  1  0.14634221  0.70147191  0.50584524  1
  S  S42  1  0.95831604  0.50167967  0.72987923  1
  S  S43  1  0.20393585  0.69017028  0.97440207  1
  S  S44  1  0.71260983  0.29011027  0.23130058  1
  S  S45  1  0.78757276  0.06657686  0.57925166  1
  S  S46  1  0.43323566  0.39015883  0.31206272  1
  S  S47  1  0.92249024  0.37014308  0.46912012  1
  S  S48  1  0.57328845  0.25353396  0.84063903  1
  S  S49  1  0.93687814  0.14114872  0.01963860  1
loop_
_geom_bond_atom_site_label_1
_geom_bond_atom_site_label_2
_geom_bond_distance
_geom_bond_site_symmetry_2
S0 Zn11 2.227084 1_554
S0 Zn20 2.264032 1_565
S0 Zn5 2.359602 1_555
S1 S44 1.999923 1_555
S1 Zn26 2.421789 1_555
S1 S16 2.480934 1_555
S2 S41 2.115611 1_555
S2 Zn43 2.302286 1_455
S2 Zn0 2.385244 1_555
S3 S31 2.099576 1_555
S3 Zn18 2.445907 1_555
S3 Zn17 2.450222 1_555
S4 Zn42 2.224757 1_555
S4 Zn45 2.276848 1_555
S4 Zn37 2.306764 1_555
S5 Zn46 2.317216 1_565
S5 Zn21 2.366053 1_555
S5 Zn25 2.367412 1_556
S5 Zn20 2.826766 1_566
S6 Zn9 2.311425 1_555
S6 Zn32 2.427564 1_565
S6 Zn25 2.430015 1_655
S7 Zn9 2.321533 1_555
S7 Zn43 2.444475 1_555
S7 Zn6 2.461596 1_555
S7 Zn15 2.481197 1_555
S8 Zn14 2.400152 1_545
S8 Zn13 2.413043 1_555
S8 Zn36 2.602044 1_545
S9 Zn17 2.376692 1_655
S10 Zn2 2.258918 1_655
S10 Zn46 2.355079 1_665
S10 Zn14 2.376844 1_555
S11 Zn23 2.404939 1_555
S11 Zn11 2.456538 1_555
S11 Zn13 2.459177 1_565
S11 Zn36 2.468587 1_555
S12 Zn16 2.311903 1_555
S12 Zn21 2.321255 1_555
S12 Zn23 2.338489 1_555
S12 Zn4 2.436158 1_555
S13 Zn8 2.276537 1_554
S13 Zn3 2.308556 1_555
S13 Zn15 2.339045 1_555
S14 Zn14 2.295885 1_555
S14 Zn40 2.308110 1_555
S14 Zn30 2.331203 1_555
S15 Zn47 2.242799 1_655
S15 Zn45 2.279250 1_655
S15 Zn27 2.304797 1_555
S16 Zn11 2.247002 1_544
S16 Zn13 2.355909 1_554
S17 Zn19 2.247291 1_555
S17 Zn40 2.334660 1_555
S17 Zn10 2.336528 1_555
S18 Zn34 2.257707 1_555
S18 Zn23 2.355919 1_555
S18 Zn1 2.490374 1_555
S18 Zn36 2.772379 1_555
S19 Zn19 2.264766 1_455
S19 Zn47 2.305902 1_556
S19 Zn38 2.389279 1_555
S20 S26 2.090669 1_555
S20 Zn41 2.348993 1_555
S20 Zn1 2.352006 1_555
S21 Zn34 2.245957 1_555
S21 Zn8 2.318623 1_555
S21 Zn10 2.499639 1_555
S21 Zn40 2.558919 1_555
S22 Zn7 2.327099 1_565
S22 Zn0 2.380194 1_555
S22 Zn5 2.410078 1_555
S22 Zn31 2.456456 1_555
S23 Zn43 2.256505 1_555
S23 Zn39 2.296240 1_665
S23 Zn6 2.333274 1_555
S24 Zn20 2.343090 1_555
S24 Zn42 2.390849 1_555
S24 Zn18 2.519487 1_554
S24 Zn33 2.584303 1_555
S25 Zn39 2.303103 1_555
S25 Zn17 2.323062 1_555
S25 Zn12 2.340154 1_555
S25 Zn4 2.831158 1_545
S26 Zn0 2.362595 1_555
S26 Zn37 2.452964 1_555
S27 Zn7 2.371033 1_555
S27 Zn33 2.384236 1_555
S27 Zn49 2.391530 1_555
S27 Zn5 2.415303 1_545
S28 Zn3 2.254098 1_555
S28 Zn24 2.277598 1_555
S28 Zn48 2.365605 1_555
S29 S39 2.211658 1_555
S29 Zn16 2.389344 1_555
S29 Zn38 2.429810 1_555
S30 Zn9 2.346149 1_555
S30 Zn15 2.352444 1_555
S30 Zn40 2.362503 1_554
S30 Zn35 2.633588 1_554
S31 Zn28 2.325462 1_555
S31 Zn12 2.409167 1_555
S32 Zn18 2.373279 1_555
S32 Zn20 2.382545 1_556
S32 Zn29 2.401237 1_555
S32 Zn21 2.505227 1_545
S33 Zn32 2.238418 1_555
S33 Zn39 2.267792 1_655
S33 Zn27 2.312578 1_555
S34 Zn29 2.257705 1_555
S34 Zn49 2.301784 1_555
S34 Zn12 2.391898 1_555
S35 Zn7 2.257259 1_555
S35 Zn45 2.275533 1_555
S35 Zn12 2.357644 1_555
S36 Zn24 2.264131 1_555
S36 Zn41 2.359333 1_555
S36 Zn6 2.384114 1_555
S37 Zn5 2.346078 1_555
S37 Zn41 2.356071 1_555
S37 Zn6 2.452352 1_555
S37 Zn15 2.747335 1_555
S38 Zn22 2.261803 1_555
S38 Zn10 2.324301 1_555
S38 Zn48 2.370321 1_555
S39 Zn44 2.357150 1_555
S39 Zn16 2.499958 1_555
S39 Zn34 2.768515 1_555
S40 Zn42 2.321647 1_556
S40 Zn8 2.324364 1_555
S40 Zn38 2.460727 1_555
S40 Zn18 2.498175 1_555
S41 Zn44 2.394932 1_555
S41 Zn4 2.428780 1_555
S42 Zn19 2.257426 1_555
S42 Zn30 2.304735 1_555
S42 Zn28 2.350000 1_655
S43 Zn25 2.267863 1_556
S43 Zn16 2.316991 1_555
S43 Zn38 2.375710 1_555
S44 Zn27 2.595442 1_555
S44 Zn3 2.769983 1_555
S45 S9 2.035019 1_555
S45 S8 2.134249 1_555
S46 Zn49 2.327503 1_555
S46 Zn3 2.338380 1_555
S46 Zn37 2.512043 1_555
S46 Zn33 2.568072 1_555
S47 Zn28 2.216071 1_655
S47 Zn48 2.259901 1_555
S47 Zn27 2.335075 1_555
S48 Zn29 2.284650 1_555
S48 Zn13 2.334251 1_555
S48 Zn10 2.463946 1_555
S48 Zn26 2.506229 1_556
S49 Zn46 2.216987 1_654
S49 Zn32 2.288043 1_555
S49 Zn47 2.305412 1_655
