# generated using pymatgen
data_Cd2C9Br7N3
_symmetry_space_group_name_H-M   'P 1'
_cell_length_a   12.19961100
_cell_length_b   12.19961121
_cell_length_c   7.31360900
_cell_angle_alpha   90.00000000
_cell_angle_beta   90.00000000
_cell_angle_gamma   120.00000213
_symmetry_Int_Tables_number   1
_chemical_formula_structural   Cd2C9Br7N3
_chemical_formula_sum   'Cd4 C18 Br14 N6'
_cell_volume   942.65838309
_cell_formula_units_Z   2
loop_
 _symmetry_equiv_pos_site_id
 _symmetry_equiv_pos_as_xyz
  1  'x, y, z'
loop_
 _atom_site_type_symbol
 _atom_site_label
 _atom_site_symmetry_multiplicity
 _atom_site_fract_x
 _atom_site_fract_y
 _atom_site_fract_z
 _atom_site_occupancy
  Cd  Cd0  1  0.00000000  0.00000000  0.97861700  1
  Cd  Cd1  1  0.00000000  0.00000000  0.47861700  1
  Cd  Cd2  1  0.33333300  0.66666700  0.34489500  1
  Cd  Cd3  1  0.66666700  0.33333300  0.84489500  1
  C  C0  1  0.79887700  0.20112300  0.09315700  1
  C  C1  1  0.40224600  0.20112300  0.09315700  1
  C  C2  1  0.79887700  0.59775400  0.09315700  1
  C  C3  1  0.20112300  0.79887700  0.59315700  1
  C  C4  1  0.59775400  0.79887700  0.59315700  1
  C  C5  1  0.20112300  0.40224600  0.59315700  1
  C  C6  1  0.85367000  0.25976000  0.44235000  1
  C  C7  1  0.40609000  0.14633000  0.44235000  1
  C  C8  1  0.74024000  0.59391000  0.44235000  1
  C  C9  1  0.40609000  0.25976000  0.44235000  1
  C  C10  1  0.74024000  0.14633000  0.44235000  1
  C  C11  1  0.85367000  0.59391000  0.44235000  1
  C  C12  1  0.14633000  0.74024000  0.94235000  1
  C  C13  1  0.59391000  0.85367000  0.94235000  1
  C  C14  1  0.25976000  0.40609000  0.94235000  1
  C  C15  1  0.59391000  0.74024000  0.94235000  1
  C  C16  1  0.25976000  0.85367000  0.94235000  1
  C  C17  1  0.14633000  0.40609000  0.94235000  1
  Br  Br0  1  0.33333300  0.66666700  0.97980800  1
  Br  Br1  1  0.66666700  0.33333300  0.47980800  1
  Br  Br2  1  0.09992400  0.90007600  0.22741200  1
  Br  Br3  1  0.80015100  0.90007600  0.22741200  1
  Br  Br4  1  0.09992400  0.19984900  0.22741200  1
  Br  Br5  1  0.90007600  0.09992400  0.72741200  1
  Br  Br6  1  0.19984900  0.09992400  0.72741200  1
  Br  Br7  1  0.90007600  0.80015100  0.72741200  1
  Br  Br8  1  0.44637600  0.55362400  0.49672800  1
  Br  Br9  1  0.10724700  0.55362400  0.49672800  1
  Br  Br10  1  0.44637600  0.89275300  0.49672800  1
  Br  Br11  1  0.55362400  0.44637600  0.99672800  1
  Br  Br12  1  0.89275300  0.44637600  0.99672800  1
  Br  Br13  1  0.55362400  0.10724700  0.99672800  1
  N  N0  1  0.80158800  0.19841200  0.26147800  1
  N  N1  1  0.39682400  0.19841200  0.26147800  1
  N  N2  1  0.80158800  0.60317600  0.26147800  1
  N  N3  1  0.19841200  0.80158800  0.76147800  1
  N  N4  1  0.60317600  0.80158800  0.76147800  1
  N  N5  1  0.19841200  0.39682400  0.76147800  1
loop_
_geom_bond_atom_site_label_1
_geom_bond_atom_site_label_2
_geom_bond_distance
_geom_bond_site_symmetry_2
C0 N0 1.232366 1_555
C1 N1 1.232366 1_555
C2 N2 1.232366 1_555
C3 N3 1.232366 1_555
C4 N4 1.232366 1_555
C5 N5 1.232366 1_555
C6 N0 1.496056 1_555
C7 C9 1.383802 1_555
C7 N1 1.496056 1_555
C8 N2 1.496056 1_555
C9 N1 1.496056 1_555
C10 C6 1.383802 1_555
C10 N0 1.496056 1_555
C11 C8 1.383802 1_555
C11 N2 1.496056 1_555
C12 C16 1.383802 1_555
C12 N3 1.496056 1_555
C13 C15 1.383802 1_555
C13 N4 1.496056 1_555
C14 C17 1.383802 1_555
C14 N5 1.496056 1_555
C15 N4 1.496056 1_555
C16 N3 1.496056 1_555
C17 N5 1.496056 1_555
Br0 Cd2 2.670104 1_556
Br1 Cd3 2.670104 1_555
Br2 Cd0 2.787299 1_564
Br2 Cd1 2.798837 1_565
Br3 Cd0 2.787307 1_664
Br3 Cd1 2.798845 1_665
Br4 Cd0 2.787307 1_554
Br4 Cd1 2.798845 1_555
Br5 Cd1 2.787299 1_655
Br5 Cd0 2.798837 1_655
Br6 Cd1 2.787307 1_555
Br6 Cd0 2.798845 1_555
Br7 Cd1 2.787307 1_665
Br7 Cd0 2.798845 1_665
Br8 Cd2 2.634138 1_555
Br9 Cd2 2.634138 1_555
Br10 Cd2 2.634138 1_555
Br11 Cd3 2.634138 1_555
Br12 Cd3 2.634138 1_555
Br13 Cd3 2.634138 1_555
