# generated using pymatgen
data_Mg2FeIrO6
_symmetry_space_group_name_H-M   'P 1'
_cell_length_a   5.14005668
_cell_length_b   5.32116002
_cell_length_c   7.58301165
_cell_angle_alpha   89.99063194
_cell_angle_beta   90.31382739
_cell_angle_gamma   89.99956878
_symmetry_Int_Tables_number   1
_chemical_formula_structural   Mg2FeIrO6
_chemical_formula_sum   'Mg4 Fe2 Ir2 O12'
_cell_volume   207.40032387
_cell_formula_units_Z   2
loop_
 _symmetry_equiv_pos_site_id
 _symmetry_equiv_pos_as_xyz
  1  'x, y, z'
loop_
 _atom_site_type_symbol
 _atom_site_label
 _atom_site_symmetry_multiplicity
 _atom_site_fract_x
 _atom_site_fract_y
 _atom_site_fract_z
 _atom_site_occupancy
  Mg  Mg0  1  0.01091400  0.94020600  0.24781400  1
  Mg  Mg1  1  0.48906600  0.44019400  0.25221300  1
  Mg  Mg2  1  0.51093300  0.55980500  0.74778700  1
  Mg  Mg3  1  0.98908600  0.05979300  0.75218600  1
  Fe  Fe0  1  0.00000200  0.50000600  0.99999300  1
  Fe  Fe1  1  0.50000300  0.00000200  0.50000500  1
  Ir  Ir0  1  0.99999900  0.49999900  0.50000000  1
  Ir  Ir1  1  0.50000000  0.00000000  0.00000000  1
  O  O0  1  0.13433800  0.43044600  0.74562000  1
  O  O1  1  0.18222600  0.18490800  0.06985500  1
  O  O2  1  0.17694400  0.18852100  0.42729100  1
  O  O3  1  0.32307700  0.68856700  0.07270200  1
  O  O4  1  0.31775600  0.68491900  0.43015700  1
  O  O5  1  0.36567800  0.93046200  0.75439400  1
  O  O6  1  0.63432200  0.06953700  0.24560600  1
  O  O7  1  0.68224300  0.31508100  0.56984300  1
  O  O8  1  0.67692200  0.31143300  0.92729800  1
  O  O9  1  0.81777400  0.81509000  0.93014500  1
  O  O10  1  0.82305600  0.81147800  0.57271000  1
  O  O11  1  0.86566100  0.56955300  0.25437900  1
loop_
_geom_bond_atom_site_label_1
_geom_bond_atom_site_label_2
_geom_bond_distance
_geom_bond_site_symmetry_2
Mg0 O6 2.054376 1_465
Mg0 O1 2.074693 1_565
Mg0 O2 2.077097 1_565
Mg0 O11 2.109569 1_455
Mg0 O3 2.480853 1_555
Mg0 O4 2.494028 1_555
Mg0 O9 2.684375 1_454
Mg1 O11 2.054451 1_555
Mg1 O4 2.074960 1_555
Mg1 O3 2.077085 1_555
Mg1 O6 2.109608 1_555
Mg1 O2 2.480453 1_555
Mg1 O1 2.494340 1_555
Mg1 O7 2.683977 1_555
Mg2 O0 2.054451 1_555
Mg2 O7 2.074956 1_555
Mg2 O8 2.077081 1_555
Mg2 O5 2.109606 1_555
Mg2 O10 2.480453 1_555
Mg2 O9 2.494341 1_555
Mg2 O4 2.683978 1_555
Mg3 O5 2.054376 1_645
Mg3 O9 2.074696 1_545
Mg3 O10 2.077092 1_545
Mg3 O0 2.109568 1_655
Mg3 O8 2.480859 1_555
Mg3 O7 2.494034 1_555
Mg3 O1 2.684374 1_656
Fe0 O9 1.990767 1_455
Fe0 O1 1.990848 1_556
Fe0 O3 2.014591 1_556
Fe0 O8 2.014615 1_455
Fe0 O0 2.085501 1_555
Fe0 O11 2.085588 1_456
Fe1 O7 1.990912 1_555
Fe1 O4 1.990966 1_545
Fe1 O10 2.014289 1_545
Fe1 O2 2.014320 1_555
Fe1 O5 2.085465 1_545
Fe1 O6 2.085520 1_555
Ir0 O2 1.970791 1_655
Ir0 O10 1.970793 1_555
Ir0 O7 1.981327 1_555
Ir0 O4 1.981337 1_655
Ir0 O0 2.017056 1_655
Ir0 O11 2.017062 1_555
Ir1 O8 1.970380 1_554
Ir1 O3 1.970383 1_545
Ir1 O1 1.981476 1_555
Ir1 O9 1.981481 1_544
Ir1 O6 2.017027 1_555
Ir1 O5 2.017028 1_544
