# generated using pymatgen
data_Tb2Hf2(MoO4)7
_symmetry_space_group_name_H-M   'P 1'
_cell_length_a   11.65399977
_cell_length_b   11.65399977
_cell_length_c   14.01673131
_cell_angle_alpha   69.11097024
_cell_angle_beta   69.11097024
_cell_angle_gamma   50.60496558
_symmetry_Int_Tables_number   1
_chemical_formula_structural   Tb2Hf2(MoO4)7
_chemical_formula_sum   'Tb4 Hf4 Mo14 O56'
_cell_volume   1351.90106914
_cell_formula_units_Z   2
loop_
 _symmetry_equiv_pos_site_id
 _symmetry_equiv_pos_as_xyz
  1  'x, y, z'
loop_
 _atom_site_type_symbol
 _atom_site_label
 _atom_site_symmetry_multiplicity
 _atom_site_fract_x
 _atom_site_fract_y
 _atom_site_fract_z
 _atom_site_occupancy
  Tb  Tb0  1  0.14926400  0.12443000  0.06304800  1
  Tb  Tb1  1  0.85073600  0.87557000  0.93695200  1
  Tb  Tb2  1  0.87557000  0.85073600  0.43695200  1
  Tb  Tb3  1  0.12443000  0.14926400  0.56304800  1
  Hf  Hf0  1  0.42032800  0.34853500  0.18729300  1
  Hf  Hf1  1  0.57967200  0.65146500  0.81270700  1
  Hf  Hf2  1  0.65146500  0.57967200  0.31270700  1
  Hf  Hf3  1  0.34853500  0.42032800  0.68729300  1
  Mo  Mo0  1  0.49936300  0.98788400  0.17347500  1
  Mo  Mo1  1  0.50063700  0.01211600  0.82652500  1
  Mo  Mo2  1  0.01211600  0.50063700  0.32652500  1
  Mo  Mo3  1  0.98788400  0.49936300  0.67347500  1
  Mo  Mo4  1  0.45615000  0.22764800  0.47709200  1
  Mo  Mo5  1  0.54385000  0.77235200  0.52290800  1
  Mo  Mo6  1  0.77235200  0.54385000  0.02290800  1
  Mo  Mo7  1  0.22764800  0.45615000  0.97709200  1
  Mo  Mo8  1  0.81186200  0.06664500  0.14694700  1
  Mo  Mo9  1  0.18813800  0.93335500  0.85305300  1
  Mo  Mo10  1  0.93335500  0.18813800  0.35305300  1
  Mo  Mo11  1  0.06664500  0.81186200  0.64694700  1
  Mo  Mo12  1  0.29659500  0.70340500  0.25000000  1
  Mo  Mo13  1  0.70340500  0.29659500  0.75000000  1
  O  O0  1  0.48731300  0.12586100  0.21801200  1
  O  O1  1  0.51268700  0.87413900  0.78198800  1
  O  O2  1  0.87413900  0.51268700  0.28198800  1
  O  O3  1  0.12586100  0.48731300  0.71801200  1
  O  O4  1  0.64228000  0.07088800  0.49550600  1
  O  O5  1  0.35772000  0.92911200  0.50449400  1
  O  O6  1  0.92911200  0.35772000  0.00449400  1
  O  O7  1  0.07088800  0.64228000  0.99550600  1
  O  O8  1  0.31648300  0.05999200  0.16576200  1
  O  O9  1  0.68351700  0.94000800  0.83423800  1
  O  O10  1  0.94000800  0.68351700  0.33423800  1
  O  O11  1  0.05999200  0.31648300  0.66576200  1
  O  O12  1  0.93488600  0.02519000  0.39823800  1
  O  O13  1  0.06511400  0.97481000  0.60176200  1
  O  O14  1  0.97481000  0.06511400  0.10176200  1
  O  O15  1  0.02519000  0.93488600  0.89823800  1
  O  O16  1  0.79710500  0.99666700  0.28288300  1
  O  O17  1  0.20289500  0.00333300  0.71711700  1
  O  O18  1  0.00333300  0.20289500  0.21711700  1
  O  O19  1  0.99666700  0.79710500  0.78288300  1
  O  O20  1  0.57597500  0.80574400  0.26112400  1
  O  O21  1  0.42402500  0.19425600  0.73887600  1
  O  O22  1  0.19425600  0.42402500  0.23887600  1
  O  O23  1  0.80574400  0.57597500  0.76112400  1
  O  O24  1  0.66586000  0.82945200  0.47061300  1
  O  O25  1  0.33414000  0.17054800  0.52938700  1
  O  O26  1  0.17054800  0.33414000  0.02938700  1
  O  O27  1  0.82945200  0.66586000  0.97061300  1
  O  O28  1  0.82956700  0.94676300  0.08330500  1
  O  O29  1  0.17043300  0.05323700  0.91669500  1
  O  O30  1  0.05323700  0.17043300  0.41669500  1
  O  O31  1  0.94676300  0.82956700  0.58330500  1
  O  O32  1  0.61121500  0.96052500  0.04838500  1
  O  O33  1  0.38878500  0.03947500  0.95161500  1
  O  O34  1  0.03947500  0.38878500  0.45161500  1
  O  O35  1  0.96052500  0.61121500  0.54838500  1
  O  O36  1  0.37544100  0.39015900  0.04338000  1
  O  O37  1  0.62455900  0.60984100  0.95662000  1
  O  O38  1  0.60984100  0.62455900  0.45662000  1
  O  O39  1  0.39015900  0.37544100  0.54338000  1
  O  O40  1  0.25965900  0.86786300  0.15741900  1
  O  O41  1  0.74034100  0.13213700  0.84258200  1
  O  O42  1  0.13213700  0.74034100  0.34258100  1
  O  O43  1  0.86786300  0.25965900  0.65741900  1
  O  O44  1  0.43973400  0.63888900  0.31960800  1
  O  O45  1  0.56026600  0.36111100  0.68039200  1
  O  O46  1  0.36111100  0.56026600  0.18039200  1
  O  O47  1  0.63888900  0.43973400  0.81960800  1
  O  O48  1  0.64258400  0.26384700  0.12487900  1
  O  O49  1  0.35741600  0.73615300  0.87512100  1
  O  O50  1  0.73615300  0.35741600  0.37512100  1
  O  O51  1  0.26384700  0.64258400  0.62487900  1
  O  O52  1  0.44859900  0.30324900  0.33938300  1
  O  O53  1  0.55140100  0.69675100  0.66061700  1
  O  O54  1  0.69675100  0.55140100  0.16061700  1
  O  O55  1  0.30324900  0.44859900  0.83938300  1
loop_
_geom_bond_atom_site_label_1
_geom_bond_atom_site_label_2
_geom_bond_distance
_geom_bond_site_symmetry_2
Hf0 O48 2.050205 1_555
Hf0 O46 2.071264 1_555
Hf0 O36 2.076202 1_555
Hf0 O22 2.095507 1_555
Hf0 O0 2.097743 1_555
Hf0 O52 2.099884 1_555
Hf1 O49 2.050205 1_555
Hf1 O47 2.071264 1_555
Hf1 O37 2.076202 1_555
Hf1 O23 2.095507 1_555
Hf1 O1 2.097743 1_555
Hf1 O53 2.099884 1_555
Hf2 O50 2.050205 1_555
Hf2 O44 2.071264 1_555
Hf2 O38 2.076202 1_555
Hf2 O20 2.095507 1_555
Hf2 O2 2.097743 1_555
Hf2 O54 2.099884 1_555
Hf3 O51 2.050205 1_555
Hf3 O45 2.071264 1_555
Hf3 O39 2.076202 1_555
Hf3 O21 2.095507 1_555
Hf3 O3 2.097743 1_555
Hf3 O55 2.099884 1_555
Mo0 O8 1.756809 1_565
Mo0 O32 1.765313 1_555
Mo0 O20 1.824587 1_555
Mo0 O0 1.833501 1_565
Mo1 O9 1.756809 1_545
Mo1 O33 1.765313 1_555
Mo1 O21 1.824587 1_555
Mo1 O1 1.833501 1_545
Mo2 O10 1.756809 1_455
Mo2 O34 1.765313 1_555
Mo2 O22 1.824587 1_555
Mo2 O2 1.833501 1_455
Mo3 O11 1.756809 1_655
Mo3 O35 1.765313 1_555
Mo3 O23 1.824587 1_555
Mo3 O3 1.833501 1_655
Mo4 O25 1.764047 1_555
Mo4 O4 1.772647 1_555
Mo4 O52 1.822018 1_555
Mo4 O39 1.836202 1_555
Mo5 O24 1.764047 1_555
Mo5 O5 1.772647 1_555
Mo5 O53 1.822018 1_555
Mo5 O38 1.836202 1_555
Mo6 O27 1.764047 1_554
Mo6 O6 1.772647 1_555
Mo6 O54 1.822018 1_555
Mo6 O37 1.836202 1_554
Mo7 O26 1.764047 1_556
Mo7 O7 1.772647 1_555
Mo7 O55 1.822018 1_555
Mo7 O36 1.836202 1_556
Mo8 O14 1.764936 1_555
Mo8 O16 1.778024 1_545
Mo8 O28 1.783766 1_545
Mo8 O48 1.855403 1_555
Mo9 O15 1.764936 1_555
Mo9 O17 1.778024 1_565
Mo9 O29 1.783766 1_565
Mo9 O49 1.855403 1_555
Mo10 O12 1.764936 1_555
Mo10 O18 1.778024 1_655
Mo10 O30 1.783766 1_655
Mo10 O50 1.855403 1_555
Mo11 O13 1.764936 1_555
Mo11 O19 1.778024 1_455
Mo11 O31 1.783766 1_455
Mo11 O51 1.855403 1_555
Mo12 O42 1.766388 1_555
Mo12 O40 1.766388 1_555
Mo12 O46 1.829056 1_555
Mo12 O44 1.829056 1_555
Mo13 O43 1.766388 1_555
Mo13 O41 1.766394 1_555
Mo13 O45 1.829056 1_555
Mo13 O47 1.829056 1_555
O4 Tb2 2.388340 1_545
O5 Tb3 2.388340 1_565
O6 Tb0 2.388340 1_655
O7 Tb1 2.388340 1_455
O8 Tb0 2.409690 1_555
O9 Tb1 2.409690 1_555
O10 Tb2 2.409690 1_555
O11 Tb3 2.409690 1_555
O12 Tb2 2.373908 1_545
O13 Tb3 2.373908 1_565
O14 Tb0 2.373908 1_655
O15 Tb1 2.373908 1_455
O16 Tb2 2.281950 1_555
O17 Tb3 2.281950 1_555
O18 Tb0 2.281950 1_555
O19 Tb1 2.281950 1_555
O24 Tb2 2.474025 1_555
O25 Tb3 2.474025 1_555
O26 Tb0 2.474025 1_555
O27 Tb1 2.474025 1_555
O28 Tb1 2.355941 1_554
O29 Tb0 2.355941 1_556
O30 Tb3 2.355941 1_555
O31 Tb2 2.355941 1_555
O32 Tb1 2.386900 1_554
O33 Tb0 2.386900 1_556
O34 Tb3 2.386900 1_555
O35 Tb2 2.386900 1_555
O40 Tb0 2.419807 1_565
O41 Tb1 2.419803 1_545
O42 Tb2 2.419807 1_455
O43 Tb3 2.419807 1_655
