# generated using pymatgen
data_AgSbS2
_symmetry_space_group_name_H-M   'P 1'
_cell_length_a   3.96999200
_cell_length_b   3.96999200
_cell_length_c   5.40808700
_cell_angle_alpha   90.00000000
_cell_angle_beta   90.00000000
_cell_angle_gamma   90.00000000
_symmetry_Int_Tables_number   1
_chemical_formula_structural   AgSbS2
_chemical_formula_sum   'Ag1 Sb1 S2'
_cell_volume   85.23597488
_cell_formula_units_Z   1
loop_
 _symmetry_equiv_pos_site_id
 _symmetry_equiv_pos_as_xyz
  1  'x, y, z'
loop_
 _atom_site_type_symbol
 _atom_site_label
 _atom_site_symmetry_multiplicity
 _atom_site_fract_x
 _atom_site_fract_y
 _atom_site_fract_z
 _atom_site_occupancy
  Ag  Ag0  1  0.00000000  0.00000000  0.00000000  1
  Sb  Sb0  1  0.50000000  0.50000000  0.50000000  1
  S  S0  1  0.00000000  0.00000000  0.50000000  1
  S  S1  1  0.50000000  0.50000000  0.00000000  1
loop_
_geom_bond_atom_site_label_1
_geom_bond_atom_site_label_2
_geom_bond_distance
_geom_bond_site_symmetry_2
Ag0 S0 2.704044 1_554
Ag0 S0 2.704044 1_555
Ag0 S1 2.807208 1_545
Ag0 S1 2.807208 1_445
Ag0 S1 2.807208 1_455
Ag0 S1 2.807208 1_555
S0 Sb0 2.807208 1_455
S0 Sb0 2.807208 1_445
S0 Sb0 2.807208 1_545
S0 Sb0 2.807208 1_555
S1 Sb0 2.704044 1_555
S1 Sb0 2.704044 1_554
