# generated using pymatgen
data_Mn5V4O12
_symmetry_space_group_name_H-M   'P 1'
_cell_length_a   6.08534125
_cell_length_b   6.08543484
_cell_length_c   13.24378911
_cell_angle_alpha   77.32403351
_cell_angle_beta   77.32579151
_cell_angle_gamma   90.49948165
_symmetry_Int_Tables_number   1
_chemical_formula_structural   Mn5V4O12
_chemical_formula_sum   'Mn10 V8 O24'
_cell_volume   465.99664595
_cell_formula_units_Z   2
loop_
 _symmetry_equiv_pos_site_id
 _symmetry_equiv_pos_as_xyz
  1  'x, y, z'
loop_
 _atom_site_type_symbol
 _atom_site_label
 _atom_site_symmetry_multiplicity
 _atom_site_fract_x
 _atom_site_fract_y
 _atom_site_fract_z
 _atom_site_occupancy
  Mn  Mn0  1  0.28656966  0.04662126  0.41512731  1
  Mn  Mn1  1  0.62801965  0.37196938  0.75002641  1
  Mn  Mn2  1  0.95340819  0.71333757  0.08486908  1
  Mn  Mn3  1  0.04669419  0.28674748  0.91503304  1
  Mn  Mn4  1  0.37193231  0.62805954  0.24999528  1
  Mn  Mn5  1  0.71330936  0.95334814  0.58495324  1
  Mn  Mn6  1  0.84136262  0.82696073  0.83336119  1
  Mn  Mn7  1  0.15857169  0.17306874  0.16663615  1
  Mn  Mn8  1  0.82691802  0.84139680  0.33334654  1
  Mn  Mn9  1  0.17307762  0.15866087  0.66666401  1
  V  V0  1  0.50006658  0.49995701  0.49999426  1
  V  V1  1  0.33874726  0.82534781  0.83665131  1
  V  V2  1  0.66131569  0.17466544  0.16336987  1
  V  V3  1  -0.00003627  0.49997733  0.49999341  1
  V  V4  1  0.50005567  0.49993536  0.00000467  1
  V  V5  1  0.50000889  0.00002901  0.00000797  1
  V  V6  1  0.82528901  0.33865372  0.33659805  1
  V  V7  1  0.17471267  0.66127440  0.66338059  1
  O  O0  1  0.94176766  0.42393724  0.65593384  1
  O  O1  1  0.27737074  0.75311109  0.99794657  1
  O  O2  1  0.59913588  0.10821302  0.32235182  1
  O  O3  1  0.39812624  0.42320905  0.65828144  1
  O  O4  1  0.72068263  0.75015660  0.99586846  1
  O  O5  1  0.04493512  0.10418914  0.33038320  1
  O  O6  1  0.24682869  0.72260756  0.50209451  1
  O  O7  1  0.57610878  0.05813799  0.84407304  1
  O  O8  1  0.89184804  0.40076891  0.17763236  1
  O  O9  1  0.24985806  0.27922454  0.50419781  1
  O  O10  1  0.57672053  0.60182387  0.84176910  1
  O  O11  1  0.89571277  0.95490283  0.16963948  1
  O  O12  1  0.40089451  0.89172512  0.67774489  1
  O  O13  1  0.72264353  0.24687836  0.00195219  1
  O  O14  1  0.05816788  0.57606208  0.34408444  1
  O  O15  1  0.95507800  0.89578864  0.66960256  1
  O  O16  1  0.27922935  0.24985489  0.00411606  1
  O  O17  1  0.60188926  0.57678892  0.34173789  1
  O  O18  1  0.10824149  0.59927012  0.82233901  1
  O  O19  1  0.42381650  0.94186763  0.15589248  1
  O  O20  1  0.75318192  0.27735483  0.49794360  1
  O  O21  1  0.10437825  0.04506752  0.83038513  1
  O  O22  1  0.42321651  0.39822062  0.15820627  1
  O  O23  1  0.75014386  0.72083183  0.49581047  1
loop_
_geom_bond_atom_site_label_1
_geom_bond_atom_site_label_2
_geom_bond_distance
_geom_bond_site_symmetry_2
Mn0 O2 2.006982 1_555
Mn0 O9 2.016864 1_555
Mn0 O5 2.026110 1_555
Mn0 O6 2.036096 1_545
Mn1 O0 2.017586 1_555
Mn1 O7 2.017759 1_555
Mn1 O10 2.029118 1_555
Mn1 O3 2.029276 1_555
Mn2 O8 2.006923 1_555
Mn2 O4 2.016767 1_554
Mn2 O11 2.026082 1_555
Mn2 O1 2.035641 1_654
Mn3 O18 2.006359 1_555
Mn3 O16 2.016579 1_556
Mn3 O21 2.025575 1_555
Mn3 O13 2.036071 1_456
Mn4 O14 2.017653 1_555
Mn4 O19 2.017921 1_555
Mn4 O22 2.029477 1_555
Mn4 O17 2.029577 1_555
Mn5 O12 2.006321 1_555
Mn5 O23 2.017100 1_555
Mn5 O15 2.025953 1_555
Mn5 O20 2.036233 1_565
Mn6 O21 2.058461 1_665
Mn6 O4 2.061253 1_555
Mn6 O15 2.072590 1_555
Mn6 O10 2.073366 1_555
Mn6 O18 2.145389 1_655
Mn6 O7 2.152083 1_565
Mn7 O11 2.057851 1_445
Mn7 O16 2.061392 1_555
Mn7 O5 2.072389 1_555
Mn7 O22 2.073361 1_555
Mn7 O8 2.144706 1_455
Mn7 O19 2.152159 1_545
Mn8 O5 2.057127 1_665
Mn8 O23 2.060633 1_555
Mn8 O11 2.071824 1_555
Mn8 O17 2.072848 1_555
Mn8 O2 2.145458 1_565
Mn8 O14 2.152759 1_655
Mn9 O15 2.057529 1_445
Mn9 O9 2.060660 1_555
Mn9 O21 2.072069 1_555
Mn9 O3 2.072680 1_555
Mn9 O12 2.146193 1_545
Mn9 O0 2.152738 1_455
O0 V3 1.965083 1_655
O0 V7 2.047765 1_655
O1 V5 2.023083 1_566
O1 V1 2.032445 1_555
O1 V4 2.060331 1_556
O2 V2 2.003493 1_555
O2 V6 2.022999 1_555
O3 V7 1.997183 1_555
O3 V0 1.998031 1_555
O4 V4 2.004908 1_556
O4 V5 2.039208 1_566
O5 V6 1.966128 1_455
O6 V3 2.022979 1_555
O6 V7 2.032354 1_555
O6 V0 2.060469 1_555
O7 V5 1.965045 1_556
O7 V1 2.047096 1_545
O8 V6 2.003283 1_555
O8 V2 2.023268 1_555
O9 V0 2.005013 1_555
O9 V3 2.039660 1_555
O10 V1 1.997232 1_555
O10 V4 1.997367 1_556
O11 V2 1.966336 1_565
O12 V1 2.002550 1_555
O12 V7 2.023781 1_555
O13 V5 2.022258 1_555
O13 V2 2.034024 1_555
O13 V4 2.059405 1_555
O14 V3 1.964681 1_555
O14 V6 2.047979 1_455
O15 V7 1.966310 1_655
O16 V4 2.005159 1_555
O16 V5 2.039399 1_555
O17 V6 1.997464 1_555
O17 V0 1.997596 1_555
O18 V7 2.003236 1_555
O18 V1 2.023305 1_555
O19 V5 1.964389 1_565
O19 V2 2.047985 1_565
O20 V3 2.022354 1_655
O20 V6 2.033124 1_555
O20 V0 2.059717 1_555
O21 V1 1.966030 1_545
O22 V4 1.996867 1_555
O22 V2 1.997954 1_555
O23 V0 2.005061 1_555
O23 V3 2.039712 1_655
