# generated using pymatgen
data_Sr4MnN4
_symmetry_space_group_name_H-M   'P 1'
_cell_length_a   11.76165500
_cell_length_b   5.26005800
_cell_length_c   11.57195500
_cell_angle_alpha   90.00000000
_cell_angle_beta   90.00000000
_cell_angle_gamma   90.00000000
_symmetry_Int_Tables_number   1
_chemical_formula_structural   Sr4MnN4
_chemical_formula_sum   'Sr16 Mn4 N16'
_cell_volume   715.92199506
_cell_formula_units_Z   4
loop_
 _symmetry_equiv_pos_site_id
 _symmetry_equiv_pos_as_xyz
  1  'x, y, z'
loop_
 _atom_site_type_symbol
 _atom_site_label
 _atom_site_symmetry_multiplicity
 _atom_site_fract_x
 _atom_site_fract_y
 _atom_site_fract_z
 _atom_site_occupancy
  Sr  Sr0  1  0.55542100  0.25000000  0.88983900  1
  Sr  Sr1  1  0.05542100  0.25000000  0.61016100  1
  Sr  Sr2  1  0.44457900  0.75000000  0.11016100  1
  Sr  Sr3  1  0.94457900  0.75000000  0.38983900  1
  Sr  Sr4  1  0.72755800  0.25000000  0.52416600  1
  Sr  Sr5  1  0.22755800  0.25000000  0.97583400  1
  Sr  Sr6  1  0.27244200  0.75000000  0.47583400  1
  Sr  Sr7  1  0.77244200  0.75000000  0.02416600  1
  Sr  Sr8  1  0.86376000  0.25000000  0.83705400  1
  Sr  Sr9  1  0.36376000  0.25000000  0.66294600  1
  Sr  Sr10  1  0.13624000  0.75000000  0.16294600  1
  Sr  Sr11  1  0.63624000  0.75000000  0.33705400  1
  Sr  Sr12  1  0.90645800  0.25000000  0.18364700  1
  Sr  Sr13  1  0.40645800  0.25000000  0.31635300  1
  Sr  Sr14  1  0.09354200  0.75000000  0.81635300  1
  Sr  Sr15  1  0.59354200  0.75000000  0.68364700  1
  Mn  Mn0  1  0.63471100  0.25000000  0.14840700  1
  Mn  Mn1  1  0.13471100  0.25000000  0.35159300  1
  Mn  Mn2  1  0.36528900  0.75000000  0.85159300  1
  Mn  Mn3  1  0.86528900  0.75000000  0.64840700  1
  N  N0  1  0.49620800  0.25000000  0.10937400  1
  N  N1  1  0.99620800  0.25000000  0.39062600  1
  N  N2  1  0.50379200  0.75000000  0.89062600  1
  N  N3  1  0.00379200  0.75000000  0.60937400  1
  N  N4  1  0.73256700  0.25000000  0.03080100  1
  N  N5  1  0.23256700  0.25000000  0.46919900  1
  N  N6  1  0.26743300  0.75000000  0.96919900  1
  N  N7  1  0.76743300  0.75000000  0.53080100  1
  N  N8  1  0.67829300  0.25000000  0.28939200  1
  N  N9  1  0.17829300  0.25000000  0.21060800  1
  N  N10  1  0.32170700  0.75000000  0.71060800  1
  N  N11  1  0.82170700  0.75000000  0.78939200  1
  N  N12  1  0.06964700  0.25000000  0.83381300  1
  N  N13  1  0.56964700  0.25000000  0.66618700  1
  N  N14  1  0.93035300  0.75000000  0.16618700  1
  N  N15  1  0.43035300  0.75000000  0.33381300  1
loop_
_geom_bond_atom_site_label_1
_geom_bond_atom_site_label_2
_geom_bond_distance
_geom_bond_site_symmetry_2
Mn0 N0 1.690486 1_555
Mn0 N8 1.710104 1_555
Mn0 N4 1.782363 1_555
Mn1 N1 1.690486 1_455
Mn1 N9 1.710104 1_555
Mn1 N5 1.782363 1_555
Mn2 N2 1.690486 1_555
Mn2 N10 1.710104 1_555
Mn2 N6 1.782363 1_555
Mn3 N3 1.690486 1_655
Mn3 N11 1.710104 1_555
Mn3 N7 1.782363 1_555
N0 Sr13 2.617453 1_555
N0 Sr0 2.634182 1_554
N0 Sr2 2.699237 1_545
N0 Sr2 2.699237 1_555
N1 Sr12 2.617453 1_555
N1 Sr1 2.634182 1_655
N1 Sr3 2.699237 1_545
N1 Sr3 2.699237 1_555
N2 Sr15 2.617453 1_555
N2 Sr2 2.634182 1_556
N2 Sr0 2.699237 1_565
N2 Sr0 2.699237 1_555
N3 Sr14 2.617453 1_555
N3 Sr3 2.634182 1_455
N3 Sr1 2.699237 1_555
N3 Sr1 2.699237 1_565
N4 Sr0 2.646116 1_554
N4 Sr7 2.672621 1_545
N4 Sr7 2.672621 1_555
N4 Sr12 2.703965 1_555
N4 Sr8 2.721709 1_554
N5 Sr1 2.646116 1_555
N5 Sr6 2.672621 1_555
N5 Sr6 2.672621 1_545
N5 Sr13 2.703965 1_555
N5 Sr9 2.721709 1_555
N6 Sr2 2.646116 1_556
N6 Sr5 2.672621 1_555
N6 Sr5 2.672621 1_565
N6 Sr14 2.703965 1_555
N6 Sr10 2.721709 1_556
N7 Sr3 2.646116 1_555
N7 Sr4 2.672621 1_555
N7 Sr4 2.672621 1_565
N7 Sr15 2.703965 1_555
N7 Sr11 2.721709 1_555
N8 Sr11 2.732379 1_545
N8 Sr11 2.732379 1_555
N8 Sr4 2.777898 1_555
N8 Sr12 2.949421 1_555
N8 Sr13 3.212416 1_555
N9 Sr10 2.732379 1_555
N9 Sr10 2.732379 1_545
N9 Sr5 2.777898 1_554
N9 Sr13 2.949421 1_555
N9 Sr12 3.212416 1_455
N10 Sr9 2.732379 1_555
N10 Sr9 2.732379 1_565
N10 Sr6 2.777898 1_555
N10 Sr14 2.949421 1_555
N10 Sr15 3.212416 1_555
N11 Sr8 2.732379 1_565
N11 Sr8 2.732379 1_555
N11 Sr7 2.777898 1_556
N11 Sr15 2.949421 1_555
N11 Sr14 3.212416 1_655
N12 Sr8 2.421862 1_455
N12 Sr5 2.480021 1_555
N12 Sr1 2.593494 1_555
N12 Sr14 2.652708 1_555
N12 Sr14 2.652708 1_545
N13 Sr9 2.421862 1_555
N13 Sr4 2.480021 1_555
N13 Sr0 2.593494 1_555
N13 Sr15 2.652708 1_545
N13 Sr15 2.652708 1_555
N14 Sr10 2.421862 1_655
N14 Sr7 2.480021 1_555
N14 Sr3 2.593494 1_555
N14 Sr12 2.652708 1_555
N14 Sr12 2.652708 1_565
N15 Sr11 2.421862 1_555
N15 Sr6 2.480021 1_555
N15 Sr2 2.593494 1_555
N15 Sr13 2.652708 1_565
N15 Sr13 2.652708 1_555
