# generated using pymatgen
data_Mg14CuC
_symmetry_space_group_name_H-M   'P 1'
_cell_length_a   6.14614547
_cell_length_b   6.14614501
_cell_length_c   9.85098463
_cell_angle_alpha   90.00000000
_cell_angle_beta   90.00000000
_cell_angle_gamma   120.00000244
_symmetry_Int_Tables_number   1
_chemical_formula_structural   Mg14CuC
_chemical_formula_sum   'Mg14 Cu1 C1'
_cell_volume   322.26704732
_cell_formula_units_Z   1
loop_
 _symmetry_equiv_pos_site_id
 _symmetry_equiv_pos_as_xyz
  1  'x, y, z'
loop_
 _atom_site_type_symbol
 _atom_site_label
 _atom_site_symmetry_multiplicity
 _atom_site_fract_x
 _atom_site_fract_y
 _atom_site_fract_z
 _atom_site_occupancy
  Mg  Mg0  1  0.16684515  0.83342208  0.12500000  1
  Mg  Mg1  1  0.16433688  0.83216794  0.62500000  1
  Mg  Mg2  1  0.66657792  0.33315485  0.12500000  1
  Mg  Mg3  1  0.66783206  0.33566312  0.62500000  1
  Mg  Mg4  1  0.66657792  0.83342208  0.12500000  1
  Mg  Mg5  1  0.66783206  0.83216794  0.62500000  1
  Mg  Mg6  1  0.32644884  0.17355116  0.37842580  1
  Mg  Mg7  1  0.32644884  0.17355116  0.87157420  1
  Mg  Mg8  1  0.32644884  0.65289868  0.37842580  1
  Mg  Mg9  1  0.32644884  0.65289868  0.87157420  1
  Mg  Mg10  1  0.84710132  0.17355116  0.37842580  1
  Mg  Mg11  1  0.84710132  0.17355116  0.87157420  1
  Mg  Mg12  1  0.83333300  0.66666700  0.37317517  1
  Mg  Mg13  1  0.83333300  0.66666700  0.87682483  1
  Cu  Cu0  1  0.16666700  0.33333300  0.12500000  1
  C  C0  1  0.16666700  0.33333300  0.62500000  1
loop_
_geom_bond_atom_site_label_1
_geom_bond_atom_site_label_2
_geom_bond_distance
_geom_bond_site_symmetry_2
Mg0 Mg12 3.021292 1_455
Mg0 Mg13 3.021292 1_454
Mg0 Mg2 3.071430 1_565
Mg0 Mg4 3.071430 1_555
Mg0 Mg2 3.074715 1_455
Mg0 Mg4 3.074715 1_455
Mg0 Mg8 3.084504 1_555
Mg0 Mg9 3.084504 1_554
Mg0 Mg6 3.084510 1_565
Mg0 Mg7 3.084510 1_564
Mg1 Mg13 3.042707 1_455
Mg1 Mg12 3.042707 1_455
Mg2 Mg4 3.071430 1_545
Mg2 Mg4 3.074715 1_555
Mg2 Mg6 3.084510 1_555
Mg2 Mg7 3.084510 1_554
Mg4 Mg8 3.084510 1_555
Mg4 Mg9 3.084510 1_554
Mg10 Mg12 3.074381 1_545
Mg10 Mg12 3.074381 1_555
Mg10 Mg2 3.084504 1_555
Mg10 Mg4 3.084510 1_545
Mg11 Mg13 3.074381 1_545
Mg11 Mg13 3.074381 1_555
Mg11 Mg2 3.084504 1_556
Mg11 Mg4 3.084510 1_546
Mg12 Mg4 3.021285 1_555
Mg12 Mg2 3.021292 1_555
Mg12 Mg5 3.042701 1_555
Mg12 Mg3 3.042707 1_555
Mg12 Mg6 3.074381 1_665
Mg12 Mg6 3.074381 1_555
Mg12 Mg8 3.074382 1_655
Mg12 Mg8 3.074382 1_555
Mg13 Mg4 3.021285 1_556
Mg13 Mg2 3.021292 1_556
Mg13 Mg5 3.042701 1_555
Mg13 Mg3 3.042707 1_555
Mg13 Mg7 3.074381 1_665
Mg13 Mg7 3.074381 1_555
Mg13 Mg9 3.074382 1_655
Mg13 Mg9 3.074382 1_555
Cu0 Mg6 3.020878 1_555
Cu0 Mg7 3.020878 1_554
Cu0 Mg8 3.020884 1_555
Cu0 Mg9 3.020884 1_554
Cu0 Mg10 3.020884 1_455
Cu0 Mg11 3.020884 1_454
Cu0 Mg0 3.073073 1_545
Cu0 Mg4 3.073073 1_555
Cu0 Mg4 3.073073 1_445
Cu0 Mg0 3.073073 1_555
Cu0 Mg2 3.073073 1_555
Cu0 Mg2 3.073073 1_455
