# generated using pymatgen
data_ZrMn6(GaSn2)2
_symmetry_space_group_name_H-M   'P 1'
_cell_length_a   5.35956933
_cell_length_b   5.35975000
_cell_length_c   8.78127000
_cell_angle_alpha   90.00000000
_cell_angle_beta   90.00000000
_cell_angle_gamma   60.00111832
_symmetry_Int_Tables_number   1
_chemical_formula_structural   ZrMn6(GaSn2)2
_chemical_formula_sum   'Zr1 Mn6 Ga2 Sn4'
_cell_volume   218.45766261
_cell_formula_units_Z   1
loop_
 _symmetry_equiv_pos_site_id
 _symmetry_equiv_pos_as_xyz
  1  'x, y, z'
loop_
 _atom_site_type_symbol
 _atom_site_label
 _atom_site_symmetry_multiplicity
 _atom_site_fract_x
 _atom_site_fract_y
 _atom_site_fract_z
 _atom_site_occupancy
  Zr  Zr0  1  0.99999500  0.00000000  0.50000000  1
  Mn  Mn0  1  0.49997400  0.00000000  0.24484900  1
  Mn  Mn1  1  0.00000100  0.50004300  0.24476000  1
  Mn  Mn2  1  0.50004400  0.49995700  0.24476000  1
  Mn  Mn3  1  0.49997400  0.00000000  0.75515100  1
  Mn  Mn4  1  0.00000100  0.50004300  0.75524000  1
  Mn  Mn5  1  0.50004400  0.49995700  0.75524000  1
  Ga  Ga0  1  0.66657900  0.66671700  0.00000000  1
  Ga  Ga1  1  0.33329600  0.33328300  0.00000000  1
  Sn  Sn0  1  0.99993600  0.00000000  0.16455500  1
  Sn  Sn1  1  0.99993600  0.00000000  0.83544500  1
  Sn  Sn2  1  0.66674100  0.66653600  0.50000000  1
  Sn  Sn3  1  0.33327600  0.33346400  0.50000000  1
loop_
_geom_bond_atom_site_label_1
_geom_bond_atom_site_label_2
_geom_bond_distance
_geom_bond_site_symmetry_2
Mn0 Sn3 2.723216 1_555
Mn0 Sn2 2.723216 1_545
Mn0 Sn0 2.770794 1_555
Mn0 Sn0 2.771187 1_455
Mn1 Sn2 2.723291 1_455
Mn1 Sn3 2.723331 1_555
Mn1 Sn0 2.770488 1_465
Mn1 Sn0 2.771270 1_455
Mn2 Sn3 2.723294 1_555
Mn2 Sn2 2.723333 1_555
Mn2 Sn0 2.770488 1_555
Mn2 Sn0 2.771271 1_465
Mn3 Sn3 2.723216 1_555
Mn3 Sn2 2.723216 1_545
Mn3 Sn1 2.770794 1_555
Mn3 Sn1 2.771187 1_455
Mn4 Sn2 2.723291 1_455
Mn4 Sn3 2.723331 1_555
Mn4 Sn1 2.770488 1_465
Mn4 Sn1 2.771270 1_455
Mn5 Sn3 2.723294 1_555
Mn5 Sn2 2.723333 1_555
Mn5 Sn1 2.770488 1_555
Mn5 Sn1 2.771271 1_465
Ga0 Mn5 2.648161 1_554
Ga0 Mn2 2.648161 1_555
Ga0 Mn4 2.648506 1_654
Ga0 Mn1 2.648506 1_655
Ga0 Mn0 2.648794 1_565
Ga0 Mn3 2.648794 1_564
Ga1 Mn4 2.648161 1_554
Ga1 Mn1 2.648161 1_555
Ga1 Mn5 2.648506 1_554
Ga1 Mn2 2.648506 1_555
Ga1 Mn0 2.648794 1_555
Ga1 Mn3 2.648794 1_554
Sn0 Sn1 2.890004 1_554
Sn0 Zr0 2.945633 1_555
Sn1 Zr0 2.945633 1_555
Sn2 Zr0 3.093881 1_555
Sn2 Zr0 3.094622 1_565
Sn2 Zr0 3.094752 1_465
Sn3 Zr0 3.093881 1_465
Sn3 Zr0 3.094627 1_555
Sn3 Zr0 3.094747 1_455
