# generated using pymatgen
data_AlP2H12N3O8
_symmetry_space_group_name_H-M   'P 1'
_cell_length_a   10.14454700
_cell_length_b   9.13141600
_cell_length_c   14.34985236
_cell_angle_alpha   51.03996396
_cell_angle_beta   90.00000000
_cell_angle_gamma   90.00000000
_symmetry_Int_Tables_number   1
_chemical_formula_structural   AlP2H12N3O8
_chemical_formula_sum   'Al4 P8 H48 N12 O32'
_cell_volume   1033.63198642
_cell_formula_units_Z   4
loop_
 _symmetry_equiv_pos_site_id
 _symmetry_equiv_pos_as_xyz
  1  'x, y, z'
loop_
 _atom_site_type_symbol
 _atom_site_label
 _atom_site_symmetry_multiplicity
 _atom_site_fract_x
 _atom_site_fract_y
 _atom_site_fract_z
 _atom_site_occupancy
  Al  Al0  1  0.42415300  0.98385000  0.65066200  1
  Al  Al1  1  0.57584700  0.01615000  0.34933800  1
  Al  Al2  1  0.92415300  0.01615000  0.84933800  1
  Al  Al3  1  0.07584700  0.98385000  0.15066200  1
  P  P0  1  0.63944100  0.89050700  0.84408800  1
  P  P1  1  0.36055900  0.10949300  0.15591200  1
  P  P2  1  0.13944100  0.10949300  0.65591200  1
  P  P3  1  0.86055900  0.89050700  0.34408800  1
  P  P4  1  0.44546200  0.71355300  0.59107600  1
  P  P5  1  0.55453800  0.28644700  0.40892400  1
  P  P6  1  0.94546200  0.28644700  0.90892400  1
  P  P7  1  0.05453800  0.71355300  0.09107600  1
  H  H0  1  0.85669400  0.87101800  0.55691800  1
  H  H1  1  0.14330600  0.12898200  0.44308200  1
  H  H2  1  0.35669400  0.12898200  0.94308200  1
  H  H3  1  0.64330600  0.87101800  0.05691800  1
  H  H4  1  0.01827600  0.68286700  0.54998300  1
  H  H5  1  0.98172400  0.31713300  0.45001700  1
  H  H6  1  0.51827600  0.31713300  0.95001700  1
  H  H7  1  0.48172400  0.68286700  0.04998300  1
  H  H8  1  0.23218000  0.46626000  0.98441300  1
  H  H9  1  0.76782000  0.53374000  0.01558700  1
  H  H10  1  0.73218000  0.53374000  0.51558700  1
  H  H11  1  0.26782000  0.46626000  0.48441300  1
  H  H12  1  0.83346800  0.76131100  0.70690200  1
  H  H13  1  0.16653200  0.23868900  0.29309800  1
  H  H14  1  0.33346800  0.23868900  0.79309800  1
  H  H15  1  0.66653200  0.76131100  0.20690200  1
  H  H16  1  0.05152900  0.55114500  0.69887200  1
  H  H17  1  0.94847100  0.44885500  0.30112800  1
  H  H18  1  0.55152900  0.44885500  0.80112800  1
  H  H19  1  0.44847100  0.55114500  0.19887200  1
  H  H20  1  0.76275200  0.97733600  0.59722500  1
  H  H21  1  0.23724800  0.02266400  0.40277500  1
  H  H22  1  0.26275200  0.02266400  0.90277500  1
  H  H23  1  0.73724800  0.97733600  0.09722500  1
  H  H24  1  0.09880500  0.46876800  0.62385100  1
  H  H25  1  0.90119500  0.53123200  0.37614900  1
  H  H26  1  0.59880500  0.53123200  0.87614900  1
  H  H27  1  0.40119500  0.46876800  0.12385100  1
  H  H28  1  0.24147100  0.66677400  0.83752100  1
  H  H29  1  0.75852900  0.33322600  0.16247900  1
  H  H30  1  0.74147100  0.33322600  0.66247900  1
  H  H31  1  0.25852900  0.66677400  0.33752100  1
  H  H32  1  0.17762500  0.65802600  0.59175900  1
  H  H33  1  0.82237500  0.34197400  0.40824100  1
  H  H34  1  0.67762500  0.34197400  0.90824100  1
  H  H35  1  0.32237500  0.65802600  0.09175900  1
  H  H36  1  0.09632500  0.55245300  0.88800600  1
  H  H37  1  0.90367500  0.44754700  0.11199400  1
  H  H38  1  0.59632500  0.44754700  0.61199400  1
  H  H39  1  0.40367500  0.55245300  0.38800600  1
  H  H40  1  0.92806100  0.95816700  0.61765800  1
  H  H41  1  0.07193900  0.04183300  0.38234200  1
  H  H42  1  0.42806100  0.04183300  0.88234200  1
  H  H43  1  0.57193900  0.95816700  0.11765800  1
  H  H44  1  0.16275000  0.67136300  0.93672200  1
  H  H45  1  0.83725000  0.32863700  0.06327800  1
  H  H46  1  0.66275000  0.32863700  0.56327800  1
  H  H47  1  0.33725000  0.67136300  0.43672200  1
  N  N0  1  0.18224900  0.58773700  0.91188900  1
  N  N1  1  0.81775100  0.41226300  0.08811100  1
  N  N2  1  0.68224900  0.41226300  0.58811100  1
  N  N3  1  0.31775100  0.58773700  0.41188900  1
  N  N4  1  0.84283200  0.88848700  0.62231000  1
  N  N5  1  0.15716800  0.11151300  0.37769000  1
  N  N6  1  0.34283200  0.11151300  0.87769000  1
  N  N7  1  0.65716800  0.88848700  0.12231000  1
  N  N8  1  0.08566000  0.58856700  0.61748300  1
  N  N9  1  0.91434000  0.41143300  0.38251700  1
  N  N10  1  0.58566000  0.41143300  0.88251700  1
  N  N11  1  0.41434000  0.58856700  0.11748300  1
  O  O0  1  0.44000300  0.77043000  0.67432900  1
  O  O1  1  0.55999700  0.22957000  0.32567100  1
  O  O2  1  0.94000300  0.22957000  0.82567100  1
  O  O3  1  0.05999700  0.77043000  0.17432900  1
  O  O4  1  0.04504300  0.00545000  0.76687600  1
  O  O5  1  0.95495700  0.99455000  0.23312400  1
  O  O6  1  0.54504300  0.99455000  0.73312400  1
  O  O7  1  0.45495700  0.00545000  0.26687600  1
  O  O8  1  0.31855100  0.77477500  0.51679900  1
  O  O9  1  0.68144900  0.22522500  0.48320100  1
  O  O10  1  0.81855100  0.22522500  0.98320100  1
  O  O11  1  0.18144900  0.77477500  0.01679900  1
  O  O12  1  0.47372300  0.50189500  0.67027900  1
  O  O13  1  0.52627700  0.49810500  0.32972100  1
  O  O14  1  0.97372300  0.49810500  0.82972100  1
  O  O15  1  0.02627700  0.50189500  0.17027900  1
  O  O16  1  0.26669600  0.98190900  0.70333900  1
  O  O17  1  0.73330400  0.01809100  0.29666100  1
  O  O18  1  0.76669600  0.01809100  0.79666100  1
  O  O19  1  0.23330400  0.98190900  0.20333900  1
  O  O20  1  0.07232400  0.10895000  0.55962600  1
  O  O21  1  0.92767600  0.89105000  0.44037400  1
  O  O22  1  0.57232400  0.89105000  0.94037400  1
  O  O23  1  0.42767600  0.10895000  0.05962600  1
  O  O24  1  0.17410100  0.30630100  0.61162000  1
  O  O25  1  0.82589900  0.69369900  0.38838000  1
  O  O26  1  0.67410100  0.69369900  0.88838000  1
  O  O27  1  0.32589900  0.30630100  0.11162000  1
  O  O28  1  0.93465500  0.82241200  0.00266500  1
  O  O29  1  0.06534500  0.17758800  0.99733500  1
  O  O30  1  0.43465500  0.17758800  0.49733500  1
  O  O31  1  0.56534500  0.82241200  0.50266500  1
loop_
_geom_bond_atom_site_label_1
_geom_bond_atom_site_label_2
_geom_bond_distance
_geom_bond_site_symmetry_2
Al0 O6 1.749050 1_555
Al0 O30 1.757018 1_565
Al0 O16 1.762477 1_555
Al0 O0 1.762611 1_555
Al1 O7 1.749050 1_555
Al1 O31 1.757018 1_545
Al1 O17 1.762477 1_555
Al1 O1 1.762611 1_555
Al2 O4 1.749050 1_655
Al2 O28 1.757018 1_546
Al2 O18 1.762477 1_555
Al2 O2 1.762611 1_555
Al3 O5 1.749050 1_455
Al3 O29 1.757018 1_564
Al3 O19 1.762477 1_555
Al3 O3 1.762611 1_555
H0 N4 1.055456 1_555
H1 N5 1.055456 1_555
H2 N6 1.055456 1_555
H3 N7 1.055456 1_555
H4 N8 1.047898 1_555
H5 N9 1.047898 1_555
H6 N10 1.047898 1_555
H7 N11 1.047898 1_555
H8 N0 1.057523 1_555
H9 N1 1.057523 1_555
H10 N2 1.057523 1_555
H11 N3 1.057523 1_555
H12 N4 1.028784 1_555
H13 N5 1.028784 1_555
H14 N6 1.028784 1_555
H15 N7 1.028784 1_555
H16 N8 1.048239 1_555
H17 N9 1.048239 1_555
H18 N10 1.048239 1_555
H19 N11 1.048239 1_555
H20 N4 1.039471 1_555
H21 N5 1.039471 1_555
H22 N6 1.039471 1_555
H23 N7 1.039471 1_555
H24 N8 1.047433 1_555
H25 N9 1.047433 1_555
H26 N10 1.047433 1_555
H27 N11 1.047433 1_555
H28 N0 1.025720 1_555
H29 N1 1.025720 1_555
H30 N2 1.025720 1_555
H31 N3 1.025720 1_555
H32 N8 1.055699 1_555
H32 O8 1.701567 1_555
H33 N9 1.055699 1_555
H33 O9 1.701567 1_555
H34 N10 1.055699 1_555
H34 O10 1.701567 1_555
H35 N11 1.055699 1_555
H35 O11 1.701567 1_555
H36 N0 1.058261 1_555
H37 N1 1.058261 1_555
H38 N2 1.058261 1_555
H39 N3 1.058261 1_555
H40 N4 1.050447 1_555
H41 N5 1.050447 1_555
H42 N6 1.050447 1_555
H43 N7 1.050447 1_555
H44 N0 1.044719 1_555
H45 N1 1.044719 1_555
H46 N2 1.044719 1_555
H47 N3 1.044719 1_555
O0 P4 1.574903 1_555
O1 P5 1.574903 1_555
O2 P6 1.574903 1_555
O3 P7 1.574903 1_555
O4 P2 1.566112 1_555
O5 P3 1.566112 1_555
O6 P0 1.566112 1_555
O7 P1 1.566112 1_555
O8 P4 1.535188 1_555
O9 P5 1.535188 1_555
O10 P6 1.535188 1_555
O11 P7 1.535188 1_555
O12 P4 1.531992 1_555
O13 P5 1.531992 1_555
O14 P6 1.531992 1_555
O15 P7 1.531992 1_555
O16 P2 1.577942 1_565
O17 P3 1.577942 1_545
O18 P0 1.577942 1_545
O19 P1 1.577942 1_565
O20 P2 1.543144 1_555
O21 P3 1.543144 1_555
O22 P0 1.543144 1_555
O23 P1 1.543144 1_555
O24 P2 1.523442 1_555
O25 P3 1.523442 1_555
O26 P0 1.523442 1_555
O27 P1 1.523442 1_555
O28 P7 1.578222 1_655
O29 P6 1.578222 1_455
O30 P5 1.578222 1_555
O31 P4 1.578222 1_555
