# generated using pymatgen
data_AlPO6
_symmetry_space_group_name_H-M   'P 1'
_cell_length_a   9.63583500
_cell_length_b   5.31093900
_cell_length_c   10.11475114
_cell_angle_alpha   58.28117623
_cell_angle_beta   90.00000000
_cell_angle_gamma   90.00000000
_symmetry_Int_Tables_number   1
_chemical_formula_structural   AlPO6
_chemical_formula_sum   'Al4 P4 O24'
_cell_volume   440.31235096
_cell_formula_units_Z   4
loop_
 _symmetry_equiv_pos_site_id
 _symmetry_equiv_pos_as_xyz
  1  'x, y, z'
loop_
 _atom_site_type_symbol
 _atom_site_label
 _atom_site_symmetry_multiplicity
 _atom_site_fract_x
 _atom_site_fract_y
 _atom_site_fract_z
 _atom_site_occupancy
  Al  Al0  1  0.81139600  0.88433700  0.18937100  1
  Al  Al1  1  0.68860400  0.88433700  0.68937100  1
  Al  Al2  1  0.18860400  0.11566300  0.81062900  1
  Al  Al3  1  0.31139600  0.11566300  0.31062900  1
  P  P0  1  0.14674400  0.72519200  0.18506300  1
  P  P1  1  0.35325600  0.72519200  0.68506300  1
  P  P2  1  0.85325600  0.27480800  0.81493700  1
  P  P3  1  0.64674400  0.27480800  0.31493700  1
  O  O0  1  0.18894300  0.90182700  0.26132600  1
  O  O1  1  0.31105700  0.90182700  0.76132600  1
  O  O2  1  0.81105700  0.09817300  0.73867400  1
  O  O3  1  0.68894300  0.09817300  0.23867400  1
  O  O4  1  0.20652600  0.87618000  0.01985800  1
  O  O5  1  0.29347400  0.87618000  0.51985800  1
  O  O6  1  0.79347400  0.12382000  0.98014200  1
  O  O7  1  0.70652600  0.12382000  0.48014200  1
  O  O8  1  0.69807000  0.59231300  0.21727300  1
  O  O9  1  0.80193000  0.59231300  0.71727300  1
  O  O10  1  0.30193000  0.40768700  0.78272700  1
  O  O11  1  0.19807000  0.40768700  0.28272700  1
  O  O12  1  0.98533500  0.72426100  0.17865900  1
  O  O13  1  0.51466500  0.72426100  0.67865900  1
  O  O14  1  0.01466500  0.27573900  0.82134100  1
  O  O15  1  0.48533500  0.27573900  0.32134100  1
  O  O16  1  0.44815200  0.84185400  0.30827500  1
  O  O17  1  0.05184800  0.84185400  0.80827500  1
  O  O18  1  0.55184800  0.15814600  0.69172500  1
  O  O19  1  0.94815200  0.15814600  0.19172500  1
  O  O20  1  0.38394600  0.26095200  0.10817900  1
  O  O21  1  0.11605400  0.26095200  0.60817900  1
  O  O22  1  0.61605400  0.73904800  0.89182100  1
  O  O23  1  0.88394600  0.73904800  0.39182100  1
loop_
_geom_bond_atom_site_label_1
_geom_bond_atom_site_label_2
_geom_bond_distance
_geom_bond_site_symmetry_2
Al0 O8 1.793657 1_555
Al0 O6 1.815466 1_564
Al0 O3 1.877818 1_565
Al0 O23 1.901543 1_555
Al0 O12 1.908008 1_555
Al0 O19 1.971829 1_565
Al1 O9 1.793657 1_555
Al1 O7 1.815466 1_565
Al1 O2 1.877818 1_565
Al1 O22 1.901543 1_555
Al1 O13 1.908008 1_555
Al1 O18 1.971829 1_565
Al2 O10 1.793657 1_555
Al2 O4 1.815466 1_546
Al2 O1 1.877818 1_545
Al2 O21 1.901543 1_555
Al2 O14 1.908008 1_555
Al2 O17 1.971829 1_545
Al3 O11 1.793657 1_555
Al3 O5 1.815466 1_545
Al3 O0 1.877818 1_545
Al3 O20 1.901543 1_555
Al3 O15 1.908008 1_555
Al3 O16 1.971829 1_545
O0 P0 1.549612 1_555
O1 P1 1.549612 1_555
O2 P2 1.549612 1_555
O3 P3 1.549612 1_555
O4 P0 1.535627 1_555
O5 P1 1.535627 1_555
O6 P2 1.535627 1_555
O7 P3 1.535627 1_555
O8 P3 1.520635 1_555
O9 P2 1.520635 1_555
O10 P1 1.520635 1_555
O11 P0 1.520635 1_555
O12 P0 1.556775 1_655
O13 P1 1.556775 1_555
O14 P2 1.556775 1_455
O15 P3 1.556775 1_555
