# generated using pymatgen
data_Zr2GaFe3
_symmetry_space_group_name_H-M   'P 1'
_cell_length_a   5.03209400
_cell_length_b   5.03209379
_cell_length_c   8.21093900
_cell_angle_alpha   90.00000000
_cell_angle_beta   90.00000000
_cell_angle_gamma   120.00000136
_symmetry_Int_Tables_number   1
_chemical_formula_structural   Zr2GaFe3
_chemical_formula_sum   'Zr4 Ga2 Fe6'
_cell_volume   180.06152501
_cell_formula_units_Z   2
loop_
 _symmetry_equiv_pos_site_id
 _symmetry_equiv_pos_as_xyz
  1  'x, y, z'
loop_
 _atom_site_type_symbol
 _atom_site_label
 _atom_site_symmetry_multiplicity
 _atom_site_fract_x
 _atom_site_fract_y
 _atom_site_fract_z
 _atom_site_occupancy
  Zr  Zr0  1  0.33333300  0.66666700  0.43446400  1
  Zr  Zr1  1  0.66666700  0.33333300  0.56553600  1
  Zr  Zr2  1  0.66666700  0.33333300  0.93446400  1
  Zr  Zr3  1  0.33333300  0.66666700  0.06553600  1
  Ga  Ga0  1  0.00000000  0.00000000  0.50000000  1
  Ga  Ga1  1  0.00000000  0.00000000  0.00000000  1
  Fe  Fe0  1  0.82768800  0.17231200  0.25000000  1
  Fe  Fe1  1  0.82768800  0.65537600  0.25000000  1
  Fe  Fe2  1  0.34462400  0.17231200  0.25000000  1
  Fe  Fe3  1  0.17231200  0.82768800  0.75000000  1
  Fe  Fe4  1  0.17231200  0.34462400  0.75000000  1
  Fe  Fe5  1  0.65537600  0.82768800  0.75000000  1
loop_
_geom_bond_atom_site_label_1
_geom_bond_atom_site_label_2
_geom_bond_distance
_geom_bond_site_symmetry_2
Zr0 Zr3 3.029245 1_555
Zr0 Zr1 3.098209 1_565
Zr0 Zr1 3.098209 1_455
Zr0 Zr1 3.098217 1_555
Zr1 Zr2 3.029245 1_555
Zr2 Zr3 3.098209 1_546
Zr2 Zr3 3.098209 1_656
Zr2 Zr3 3.098217 1_556
Ga0 Zr1 2.954692 1_455
Ga0 Zr0 2.954692 1_545
Ga0 Zr1 2.954696 1_445
Ga0 Zr0 2.954696 1_555
Ga0 Zr1 2.954696 1_555
Ga0 Zr0 2.954696 1_445
Ga1 Zr3 2.954692 1_545
Ga1 Zr2 2.954692 1_454
Ga1 Zr3 2.954696 1_555
Ga1 Zr2 2.954696 1_444
Ga1 Zr3 2.954696 1_445
Ga1 Zr2 2.954696 1_554
Fe0 Fe1 2.430823 1_555
Fe0 Fe2 2.430823 1_555
Fe0 Ga0 2.543473 1_655
Fe0 Ga1 2.543473 1_655
Fe0 Fe1 2.601270 1_545
Fe0 Fe2 2.601271 1_655
Fe0 Zr0 2.937175 1_545
Fe0 Zr3 2.937175 1_545
Fe0 Zr0 2.937175 1_655
Fe0 Zr3 2.937175 1_655
Fe0 Zr1 2.946543 1_555
Fe0 Zr2 2.946543 1_554
Fe1 Fe2 2.430823 1_555
Fe1 Ga0 2.543473 1_665
Fe1 Ga1 2.543473 1_665
Fe1 Fe2 2.601270 1_665
Fe1 Zr0 2.937173 1_655
Fe1 Zr3 2.937173 1_655
Fe1 Zr0 2.937177 1_555
Fe1 Zr3 2.937177 1_555
Fe1 Zr1 2.946545 1_555
Fe1 Zr2 2.946545 1_554
Fe2 Ga1 2.543473 1_555
Fe2 Ga0 2.543473 1_555
Fe2 Zr0 2.937172 1_545
Fe2 Zr3 2.937172 1_545
Fe2 Zr0 2.937177 1_555
Fe2 Zr3 2.937177 1_555
Fe2 Zr1 2.946545 1_555
Fe2 Zr2 2.946545 1_554
Fe3 Fe4 2.430823 1_555
Fe3 Fe5 2.430823 1_555
Fe3 Ga1 2.543473 1_566
Fe3 Ga0 2.543473 1_565
Fe3 Fe4 2.601270 1_565
Fe3 Fe5 2.601271 1_455
Fe3 Zr2 2.937175 1_565
Fe3 Zr1 2.937175 1_565
Fe3 Zr2 2.937175 1_455
Fe3 Zr1 2.937175 1_455
Fe3 Zr3 2.946543 1_556
Fe3 Zr0 2.946543 1_555
Fe4 Fe5 2.430823 1_555
Fe4 Ga1 2.543473 1_556
Fe4 Ga0 2.543473 1_555
Fe4 Fe5 2.601270 1_445
Fe4 Zr2 2.937173 1_455
Fe4 Zr1 2.937173 1_455
Fe4 Zr2 2.937177 1_555
Fe4 Zr1 2.937177 1_555
Fe4 Zr3 2.946545 1_556
Fe4 Zr0 2.946545 1_555
Fe5 Ga0 2.543473 1_665
Fe5 Ga1 2.543473 1_666
Fe5 Zr2 2.937172 1_565
Fe5 Zr1 2.937172 1_565
Fe5 Zr2 2.937177 1_555
Fe5 Zr1 2.937177 1_555
Fe5 Zr3 2.946545 1_556
Fe5 Zr0 2.946545 1_555
