# generated using pymatgen
data_Dy(Fe2Si)2
_symmetry_space_group_name_H-M   'P 1'
_cell_length_a   7.09549300
_cell_length_b   7.09549300
_cell_length_c   3.74345100
_cell_angle_alpha   90.00000000
_cell_angle_beta   90.00000000
_cell_angle_gamma   90.00000000
_symmetry_Int_Tables_number   1
_chemical_formula_structural   Dy(Fe2Si)2
_chemical_formula_sum   'Dy2 Fe8 Si4'
_cell_volume   188.46786233
_cell_formula_units_Z   2
loop_
 _symmetry_equiv_pos_site_id
 _symmetry_equiv_pos_as_xyz
  1  'x, y, z'
loop_
 _atom_site_type_symbol
 _atom_site_label
 _atom_site_symmetry_multiplicity
 _atom_site_fract_x
 _atom_site_fract_y
 _atom_site_fract_z
 _atom_site_occupancy
  Dy  Dy0  1  0.50000000  0.50000000  0.50000000  1
  Dy  Dy1  1  0.00000000  0.00000000  0.00000000  1
  Fe  Fe0  1  0.64673600  0.91488100  0.50000000  1
  Fe  Fe1  1  0.35326400  0.08511900  0.50000000  1
  Fe  Fe2  1  0.14673600  0.58511900  0.00000000  1
  Fe  Fe3  1  0.85326400  0.41488100  0.00000000  1
  Fe  Fe4  1  0.91488100  0.64673600  0.50000000  1
  Fe  Fe5  1  0.08511900  0.35326400  0.50000000  1
  Fe  Fe6  1  0.58511900  0.14673600  0.00000000  1
  Fe  Fe7  1  0.41488100  0.85326400  0.00000000  1
  Si  Si0  1  0.78079700  0.21920300  0.50000000  1
  Si  Si1  1  0.21920300  0.78079700  0.50000000  1
  Si  Si2  1  0.28079700  0.28079700  0.00000000  1
  Si  Si3  1  0.71920300  0.71920300  0.00000000  1
loop_
_geom_bond_atom_site_label_1
_geom_bond_atom_site_label_2
_geom_bond_distance
_geom_bond_site_symmetry_2
Dy0 Si1 2.817669 1_555
Dy0 Si0 2.817669 1_555
Dy0 Si3 2.888184 1_555
Dy0 Si3 2.888184 1_556
Dy0 Si2 2.888184 1_556
Dy0 Si2 2.888184 1_555
Dy0 Fe0 3.122482 1_555
Dy0 Fe4 3.122482 1_555
Dy0 Fe1 3.122482 1_555
Dy0 Fe5 3.122482 1_555
Dy0 Fe7 3.186076 1_556
Dy0 Fe3 3.186076 1_555
Dy0 Fe3 3.186076 1_556
Dy0 Fe7 3.186076 1_555
Dy0 Fe2 3.186076 1_556
Dy0 Fe6 3.186076 1_556
Dy0 Fe6 3.186076 1_555
Dy0 Fe2 3.186076 1_555
Dy1 Si2 2.817669 1_555
Dy1 Si3 2.817669 1_445
Dy1 Si1 2.888184 1_545
Dy1 Si0 2.888184 1_454
Dy1 Si0 2.888184 1_455
Dy1 Si1 2.888184 1_544
Dy1 Fe2 3.122482 1_545
Dy1 Fe6 3.122482 1_455
Dy1 Fe7 3.122482 1_545
Dy1 Fe3 3.122482 1_455
Dy1 Fe5 3.186076 1_554
Dy1 Fe1 3.186076 1_555
Dy1 Fe5 3.186076 1_555
Dy1 Fe1 3.186076 1_554
Dy1 Fe0 3.186076 1_444
Dy1 Fe0 3.186076 1_445
Dy1 Fe4 3.186076 1_444
Dy1 Fe4 3.186076 1_445
Fe0 Si0 2.359550 1_565
Fe0 Si3 2.386523 1_555
Fe0 Si3 2.386523 1_556
Fe0 Fe1 2.407316 1_565
Fe0 Fe7 2.530008 1_556
Fe0 Fe7 2.530008 1_555
Fe0 Fe6 2.530008 1_565
Fe0 Fe6 2.530008 1_566
Fe0 Fe4 2.690712 1_555
Fe1 Si1 2.359550 1_545
Fe1 Si2 2.386523 1_556
Fe1 Si2 2.386523 1_555
Fe1 Fe6 2.530008 1_556
Fe1 Fe6 2.530008 1_555
Fe1 Fe7 2.530008 1_546
Fe1 Fe7 2.530008 1_545
Fe1 Fe5 2.690712 1_555
Fe2 Si2 2.359550 1_555
Fe2 Si1 2.386523 1_554
Fe2 Si1 2.386523 1_555
Fe2 Fe3 2.407316 1_455
Fe2 Fe5 2.530008 1_554
Fe2 Fe5 2.530008 1_555
Fe2 Fe4 2.530008 1_455
Fe2 Fe4 2.530008 1_454
Fe2 Fe7 2.690712 1_555
Fe3 Si3 2.359550 1_555
Fe3 Si0 2.386523 1_555
Fe3 Si0 2.386523 1_554
Fe3 Fe4 2.530008 1_555
Fe3 Fe4 2.530008 1_554
Fe3 Fe5 2.530008 1_655
Fe3 Fe5 2.530008 1_654
Fe3 Fe6 2.690712 1_555
Fe4 Si1 2.359550 1_655
Fe4 Si3 2.386523 1_555
Fe4 Si3 2.386523 1_556
Fe4 Fe5 2.407316 1_655
Fe5 Si0 2.359550 1_455
Fe5 Si2 2.386523 1_556
Fe5 Si2 2.386523 1_555
Fe6 Si2 2.359550 1_555
Fe6 Si0 2.386523 1_555
Fe6 Si0 2.386523 1_554
Fe6 Fe7 2.407316 1_545
Fe7 Si3 2.359550 1_555
Fe7 Si1 2.386523 1_554
Fe7 Si1 2.386523 1_555
