# generated using pymatgen
data_NiSO10
_symmetry_space_group_name_H-M   'P 1'
_cell_length_a   6.36276700
_cell_length_b   6.36276700
_cell_length_c   15.96614100
_cell_angle_alpha   90.00000000
_cell_angle_beta   90.00000000
_cell_angle_gamma   90.00000000
_symmetry_Int_Tables_number   1
_chemical_formula_structural   NiSO10
_chemical_formula_sum   'Ni4 S4 O40'
_cell_volume   646.38608737
_cell_formula_units_Z   4
loop_
 _symmetry_equiv_pos_site_id
 _symmetry_equiv_pos_as_xyz
  1  'x, y, z'
loop_
 _atom_site_type_symbol
 _atom_site_label
 _atom_site_symmetry_multiplicity
 _atom_site_fract_x
 _atom_site_fract_y
 _atom_site_fract_z
 _atom_site_occupancy
  Ni  Ni0  1  0.21526600  0.78473400  0.75000000  1
  Ni  Ni1  1  0.78473400  0.21526600  0.25000000  1
  Ni  Ni2  1  0.28473400  0.28473400  0.50000000  1
  Ni  Ni3  1  0.71526600  0.71526600  0.00000000  1
  S  S0  1  0.71225800  0.28774200  0.75000000  1
  S  S1  1  0.28774200  0.71225800  0.25000000  1
  S  S2  1  0.78774200  0.78774200  0.50000000  1
  S  S3  1  0.21225800  0.21225800  0.00000000  1
  O  O0  1  0.60979200  0.38227200  0.67413400  1
  O  O1  1  0.39020800  0.61772800  0.17413400  1
  O  O2  1  0.88227200  0.89020800  0.42413400  1
  O  O3  1  0.11772800  0.10979200  0.92413400  1
  O  O4  1  0.61772800  0.39020800  0.82586600  1
  O  O5  1  0.38227200  0.60979200  0.32586600  1
  O  O6  1  0.89020800  0.88227200  0.57586600  1
  O  O7  1  0.10979200  0.11772800  0.07586600  1
  O  O8  1  0.94280300  0.32492900  0.74538300  1
  O  O9  1  0.05719700  0.67507100  0.24538300  1
  O  O10  1  0.82492900  0.55719700  0.49538300  1
  O  O11  1  0.17507100  0.44280300  0.99538300  1
  O  O12  1  0.67507100  0.05719700  0.75461700  1
  O  O13  1  0.32492900  0.94280300  0.25461700  1
  O  O14  1  0.55719700  0.82492900  0.50461700  1
  O  O15  1  0.44280300  0.17507100  0.00461700  1
  O  O16  1  0.19892900  0.02842600  0.68717500  1
  O  O17  1  0.80107100  0.97157400  0.18717500  1
  O  O18  1  0.52842600  0.30107100  0.43717500  1
  O  O19  1  0.47157400  0.69892900  0.93717500  1
  O  O20  1  0.97157400  0.80107100  0.81282500  1
  O  O21  1  0.02842600  0.19892900  0.31282500  1
  O  O22  1  0.30107100  0.52842600  0.56282500  1
  O  O23  1  0.69892900  0.47157400  0.06282500  1
  O  O24  1  0.44388600  0.77730500  0.68231000  1
  O  O25  1  0.55611400  0.22269500  0.18231000  1
  O  O26  1  0.27730500  0.05611400  0.43231000  1
  O  O27  1  0.72269500  0.94388600  0.93231000  1
  O  O28  1  0.22269500  0.55611400  0.81769000  1
  O  O29  1  0.77730500  0.44388600  0.31769000  1
  O  O30  1  0.05611400  0.27730500  0.56769000  1
  O  O31  1  0.94388600  0.72269500  0.06769000  1
  O  O32  1  0.07185300  0.64459000  0.66522100  1
  O  O33  1  0.92814700  0.35541000  0.16522100  1
  O  O34  1  0.14459000  0.42814700  0.41522100  1
  O  O35  1  0.85541000  0.57185300  0.91522100  1
  O  O36  1  0.35541000  0.92814700  0.83477900  1
  O  O37  1  0.64459000  0.07185300  0.33477900  1
  O  O38  1  0.42814700  0.14459000  0.58477900  1
  O  O39  1  0.57185300  0.85541000  0.08477900  1
loop_
_geom_bond_atom_site_label_1
_geom_bond_atom_site_label_2
_geom_bond_distance
_geom_bond_site_symmetry_2
Ni0 O24 1.812808 1_555
Ni0 O28 1.812808 1_555
Ni0 O20 1.849644 1_455
Ni0 O16 1.849644 1_565
Ni0 O36 1.860111 1_555
Ni0 O32 1.860111 1_555
Ni1 O29 1.812808 1_555
Ni1 O25 1.812808 1_555
Ni1 O17 1.849644 1_545
Ni1 O21 1.849644 1_655
Ni1 O33 1.860111 1_555
Ni1 O37 1.860111 1_555
Ni2 O26 1.812808 1_555
Ni2 O30 1.812808 1_555
Ni2 O18 1.849644 1_555
Ni2 O22 1.849644 1_555
Ni2 O34 1.860111 1_555
Ni2 O38 1.860111 1_555
Ni3 O31 1.812808 1_555
Ni3 O27 1.812808 1_554
Ni3 O19 1.849644 1_554
Ni3 O23 1.849644 1_555
Ni3 O39 1.860111 1_555
Ni3 O35 1.860111 1_554
O0 S0 1.501348 1_555
O1 S1 1.501348 1_555
O2 S2 1.501348 1_555
O3 S3 1.501348 1_556
O4 S0 1.501348 1_555
O5 S1 1.501348 1_555
O6 S2 1.501348 1_555
O7 S3 1.501348 1_555
O8 S0 1.487692 1_555
O9 S1 1.487692 1_555
O10 S2 1.487692 1_555
O11 S3 1.487692 1_556
O12 S0 1.487692 1_555
O13 S1 1.487692 1_555
O14 S2 1.487692 1_555
O15 S3 1.487692 1_555
