# generated using pymatgen
data_Mg4Si7
_symmetry_space_group_name_H-M   'P 1'
_cell_length_a   14.96582601
_cell_length_b   14.96582601
_cell_length_c   6.74147379
_cell_angle_alpha   87.97508589
_cell_angle_beta   87.97508589
_cell_angle_gamma   15.21541003
_symmetry_Int_Tables_number   1
_chemical_formula_structural   Mg4Si7
_chemical_formula_sum   'Mg8 Si14'
_cell_volume   396.02679092
_cell_formula_units_Z   2
loop_
 _symmetry_equiv_pos_site_id
 _symmetry_equiv_pos_as_xyz
  1  'x, y, z'
loop_
 _atom_site_type_symbol
 _atom_site_label
 _atom_site_symmetry_multiplicity
 _atom_site_fract_x
 _atom_site_fract_y
 _atom_site_fract_z
 _atom_site_occupancy
  Mg  Mg0  1  0.90366400  0.90366400  0.94132300  1
  Mg  Mg1  1  0.69521300  0.69521300  0.66062400  1
  Mg  Mg2  1  0.11828400  0.11828400  0.82600200  1
  Mg  Mg3  1  0.26966200  0.26966200  0.46500200  1
  Mg  Mg4  1  0.85801500  0.85801500  0.45978300  1
  Mg  Mg5  1  0.04862100  0.04862100  0.43072000  1
  Mg  Mg6  1  0.15342100  0.15342100  0.34628700  1
  Mg  Mg7  1  0.23045900  0.23045900  0.96891500  1
  Si  Si0  1  0.41995700  0.41995700  0.62781500  1
  Si  Si1  1  0.42235400  0.42235400  0.26105100  1
  Si  Si2  1  0.96899300  0.96899300  0.24746600  1
  Si  Si3  1  0.97274600  0.97274600  0.65131200  1
  Si  Si4  1  0.71918600  0.71918600  0.27265800  1
  Si  Si5  1  0.65936900  0.65936900  0.03948100  1
  Si  Si6  1  0.52924400  0.52924400  0.75440200  1
  Si  Si7  1  0.34528700  0.34528700  0.14044200  1
  Si  Si8  1  0.78801200  0.78801200  0.76664900  1
  Si  Si9  1  0.03411400  0.03411400  0.01466500  1
  Si  Si10  1  0.60178800  0.60178800  0.54656500  1
  Si  Si11  1  0.34187500  0.34187500  0.76940100  1
  Si  Si12  1  0.79469200  0.79469200  0.13352900  1
  Si  Si13  1  0.58168800  0.58168800  0.17224900  1
loop_
_geom_bond_atom_site_label_1
_geom_bond_atom_site_label_2
_geom_bond_distance
_geom_bond_site_symmetry_2
Mg0 Si3 2.781608 1_555
Mg0 Si2 2.881195 1_556
Mg0 Si0 2.924613 1_565
Mg0 Si0 2.924613 1_655
Mg0 Si7 2.925989 1_656
Mg0 Si7 2.925989 1_566
Mg0 Si11 2.963261 1_565
Mg0 Si11 2.963261 1_655
Mg0 Si1 2.994032 1_656
Mg0 Si1 2.994032 1_566
Mg1 Si4 2.685866 1_555
Mg1 Si5 2.731378 1_556
Mg1 Si8 2.869003 1_555
Mg1 Si10 2.902722 1_555
Mg2 Si5 2.758197 1_456
Mg2 Si5 2.758197 1_546
Mg2 Si9 2.761715 1_556
Mg2 Si10 2.789202 1_455
Mg2 Si10 2.789202 1_545
Mg2 Si13 3.220610 1_456
Mg2 Si13 3.220610 1_546
Mg3 Si4 2.826316 1_455
Mg3 Si4 2.826316 1_545
Mg3 Si8 2.904523 1_455
Mg3 Si8 2.904523 1_545
Mg3 Si11 3.019032 1_555
Mg3 Si12 3.058150 1_455
Mg3 Si12 3.058150 1_545
Mg3 Si7 3.077563 1_555
Mg4 Si8 2.878659 1_555
Mg4 Si11 2.905238 1_655
Mg4 Si11 2.905238 1_565
Mg4 Si12 2.943048 1_555
Mg4 Si0 2.955404 1_655
Mg4 Si0 2.955404 1_565
Mg4 Si7 2.959875 1_565
Mg4 Si7 2.959875 1_655
Mg4 Si1 3.030153 1_655
Mg4 Si1 3.030153 1_565
Mg5 Si3 2.653333 1_445
Mg5 Si10 2.666732 1_455
Mg5 Si10 2.666732 1_545
Mg5 Si2 2.704684 1_445
Mg5 Si13 2.793280 1_455
Mg5 Si13 2.793280 1_545
Mg5 Si9 2.852779 1_555
Mg5 Si6 2.988012 1_545
Mg5 Si6 2.988012 1_455
Mg6 Si4 2.812449 1_545
Mg6 Si4 2.812449 1_455
Mg6 Si10 2.819170 1_455
Mg6 Si10 2.819170 1_545
Mg6 Si5 2.865086 1_545
Mg6 Si5 2.865086 1_455
Mg6 Si13 3.163765 1_455
Mg6 Si13 3.163765 1_545
Mg7 Si4 2.860356 1_546
Mg7 Si4 2.860356 1_456
Mg7 Si5 2.920404 1_456
Mg7 Si5 2.920404 1_546
Mg7 Si8 2.921386 1_455
Mg7 Si8 2.921386 1_545
Mg7 Si12 2.989906 1_456
Mg7 Si12 2.989906 1_546
Si0 Si1 2.471017 1_555
Si0 Si11 2.473829 1_555
Si0 Si3 2.534019 1_455
Si0 Si3 2.534019 1_545
Si1 Si2 2.416526 1_455
Si1 Si2 2.416526 1_545
Si1 Si7 2.453863 1_555
Si2 Si9 2.445325 1_665
Si2 Si3 2.728756 1_555
Si3 Si6 2.702093 1_655
Si3 Si6 2.702093 1_565
Si4 Si5 2.412336 1_555
Si6 Si9 2.653874 1_566
Si6 Si9 2.653874 1_656
Si10 Si6 2.525933 1_555
Si10 Si13 2.613552 1_555
Si11 Si7 2.507014 1_556
Si11 Si8 2.545928 1_545
Si11 Si8 2.545928 1_455
Si12 Si4 2.397517 1_555
Si12 Si7 2.487163 1_565
Si12 Si7 2.487163 1_655
Si12 Si8 2.488272 1_554
Si13 Si5 2.442434 1_555
Si13 Si9 2.674559 1_565
Si13 Si9 2.674559 1_655
