# generated using pymatgen
data_Li2FeP2O7
_symmetry_space_group_name_H-M   'P 1'
_cell_length_a   5.13222481
_cell_length_b   7.14447485
_cell_length_c   16.31680826
_cell_angle_alpha   88.93912622
_cell_angle_beta   81.15587014
_cell_angle_gamma   67.82185659
_symmetry_Int_Tables_number   1
_chemical_formula_structural   Li2FeP2O7
_chemical_formula_sum   'Li8 Fe4 P8 O28'
_cell_volume   546.92646855
_cell_formula_units_Z   4
loop_
 _symmetry_equiv_pos_site_id
 _symmetry_equiv_pos_as_xyz
  1  'x, y, z'
loop_
 _atom_site_type_symbol
 _atom_site_label
 _atom_site_symmetry_multiplicity
 _atom_site_fract_x
 _atom_site_fract_y
 _atom_site_fract_z
 _atom_site_occupancy
  Li  Li0  1  0.76222400  0.33012500  0.00738700  1
  Li  Li1  1  0.75956500  0.83042100  0.50785200  1
  Li  Li2  1  0.23728300  0.16989300  0.49306800  1
  Li  Li3  1  0.24319600  0.67047200  0.99159700  1
  Li  Li4  1  0.65886300  0.26999900  0.37905500  1
  Li  Li5  1  0.65480900  0.77592500  0.87994100  1
  Li  Li6  1  0.34063000  0.23106500  0.12135100  1
  Li  Li7  1  0.34475900  0.73016100  0.61949100  1
  Fe  Fe0  1  0.99922200  0.48369800  0.66941100  1
  Fe  Fe1  1  0.00690900  0.01636900  0.83052800  1
  Fe  Fe2  1  0.99701000  0.98294900  0.16855700  1
  Fe  Fe3  1  0.00409100  0.51721600  0.33144700  1
  P  P0  1  0.58523100  0.45616500  0.19635400  1
  P  P1  1  0.58155200  0.95456700  0.69699000  1
  P  P2  1  0.41503800  0.04403400  0.30370800  1
  P  P3  1  0.41602600  0.54221900  0.80247300  1
  P  P4  1  0.64289300  0.77301700  0.07129900  1
  P  P5  1  0.63799200  0.27150900  0.57187900  1
  P  P6  1  0.35916100  0.72716800  0.42867600  1
  P  P7  1  0.36015800  0.23016900  0.92880600  1
  O  O0  1  0.26355200  0.50662400  0.21841300  1
  O  O1  1  0.25917800  0.00525700  0.71849300  1
  O  O2  1  0.73664700  0.99352400  0.28151300  1
  O  O3  1  0.73987900  0.47846000  0.77938600  1
  O  O4  1  0.74207500  0.41527800  0.27011700  1
  O  O5  1  0.73567600  0.91198300  0.77116100  1
  O  O6  1  0.25742300  0.08527800  0.23006400  1
  O  O7  1  0.25793300  0.58931600  0.72892300  1
  O  O8  1  0.71932500  0.27960800  0.12921700  1
  O  O9  1  0.71680700  0.77820100  0.62953900  1
  O  O10  1  0.28118100  0.22039700  0.37093700  1
  O  O11  1  0.29210200  0.72045800  0.86907700  1
  O  O12  1  0.09831800  0.67265100  0.42538300  1
  O  O13  1  0.10565500  0.16823800  0.92793100  1
  O  O14  1  0.90443400  0.82677700  0.07469000  1
  O  O15  1  0.89827800  0.32486100  0.57527000  1
  O  O16  1  0.66857400  0.13012600  0.49823300  1
  O  O17  1  0.67589700  0.63222700  0.99716300  1
  O  O18  1  0.33013200  0.37207500  0.00221700  1
  O  O19  1  0.32575200  0.86888500  0.50250700  1
  O  O20  1  0.62265100  0.65271300  0.15606800  1
  O  O21  1  0.61628500  0.15205600  0.65718100  1
  O  O22  1  0.37787100  0.84726300  0.34376800  1
  O  O23  1  0.36044000  0.35277300  0.84380200  1
  O  O24  1  0.64156300  0.54458700  0.42168100  1
  O  O25  1  0.64890400  0.05202400  0.91995200  1
  O  O26  1  0.36139700  0.95627800  0.07835600  1
  O  O27  1  0.35545700  0.45493700  0.57908800  1
loop_
_geom_bond_atom_site_label_1
_geom_bond_atom_site_label_2
_geom_bond_distance
_geom_bond_site_symmetry_2
Li0 O13 1.984685 1_654
Li0 O8 2.007295 1_555
Li0 O17 2.042078 1_554
Li0 O18 2.137631 1_555
Li1 O12 1.990261 1_655
Li1 O9 2.007519 1_555
Li1 O16 2.020586 1_565
Li1 O19 2.153369 1_555
Li2 O15 1.983687 1_455
Li2 O10 2.012175 1_555
Li2 O19 2.031444 1_545
Li2 O16 2.137525 1_555
Li3 O14 1.993352 1_456
Li3 O18 2.016437 1_556
Li3 O11 2.018421 1_555
Li3 O17 2.148834 1_555
Li4 O24 2.059192 1_555
Li4 O4 2.110024 1_555
Li4 O10 2.121230 1_555
Li4 O16 2.168606 1_555
Li4 O2 2.433079 1_545
Li5 O5 2.069240 1_555
Li5 O11 2.077166 1_555
Li5 O25 2.077182 1_565
Li5 O17 2.152011 1_555
Li5 O3 2.570519 1_555
Li6 O26 2.056148 1_545
Li6 O6 2.109084 1_555
Li6 O8 2.121645 1_555
Li6 O18 2.171462 1_555
Li6 O0 2.423931 1_555
Li7 O27 2.063842 1_555
Li7 O9 2.093739 1_555
Li7 O7 2.103989 1_555
Li7 O19 2.132971 1_555
Li7 O1 2.431654 1_565
Fe0 O3 2.072123 1_555
Fe0 O7 2.110756 1_655
Fe0 O27 2.110902 1_655
Fe0 O15 2.160747 1_555
Fe0 O9 2.210886 1_555
Fe1 O1 2.055319 1_555
Fe1 O25 2.099009 1_455
Fe1 O5 2.158111 1_445
Fe1 O13 2.164872 1_555
Fe1 O11 2.214764 1_545
Fe2 O2 2.088023 1_555
Fe2 O14 2.122211 1_555
Fe2 O6 2.122550 1_665
Fe2 O26 2.143551 1_655
Fe2 O8 2.210365 1_565
Fe3 O0 2.086733 1_555
Fe3 O12 2.124324 1_555
Fe3 O4 2.126095 1_455
Fe3 O24 2.135736 1_455
Fe3 O10 2.211090 1_555
O0 P0 1.535523 1_555
O1 P1 1.538003 1_545
O2 P2 1.535285 1_565
O3 P3 1.534327 1_555
O4 P0 1.513027 1_555
O5 P1 1.510612 1_555
O6 P2 1.513579 1_555
O7 P3 1.513317 1_555
O8 P0 1.558447 1_555
O9 P1 1.561067 1_555
O10 P2 1.558482 1_555
O11 P3 1.560263 1_555
O12 P6 1.537295 1_555
O13 P7 1.531125 1_555
O14 P4 1.537912 1_555
O15 P5 1.529958 1_555
O16 P5 1.534996 1_555
O17 P4 1.535308 1_556
O18 P7 1.535151 1_554
O19 P6 1.535055 1_555
O20 P0 1.603574 1_555
O20 P4 1.625388 1_555
O21 P1 1.601511 1_545
O21 P5 1.630378 1_555
O22 P2 1.603146 1_565
O22 P6 1.625453 1_555
O23 P3 1.602075 1_555
O23 P7 1.626770 1_555
O24 P6 1.530527 1_555
O25 P7 1.534223 1_555
O26 P4 1.530049 1_555
O27 P5 1.533768 1_555
