# generated using pymatgen
data_K2MgCuF6
_symmetry_space_group_name_H-M   'P 1'
_cell_length_a   5.76078700
_cell_length_b   5.76078700
_cell_length_c   4.07131500
_cell_angle_alpha   90.00000000
_cell_angle_beta   90.00000000
_cell_angle_gamma   90.00000000
_symmetry_Int_Tables_number   1
_chemical_formula_structural   K2MgCuF6
_chemical_formula_sum   'K2 Mg1 Cu1 F6'
_cell_volume   135.11337458
_cell_formula_units_Z   1
loop_
 _symmetry_equiv_pos_site_id
 _symmetry_equiv_pos_as_xyz
  1  'x, y, z'
loop_
 _atom_site_type_symbol
 _atom_site_label
 _atom_site_symmetry_multiplicity
 _atom_site_fract_x
 _atom_site_fract_y
 _atom_site_fract_z
 _atom_site_occupancy
  K  K0  1  0.00000000  0.50000000  0.50000000  1
  K  K1  1  0.50000000  0.00000000  0.50000000  1
  Mg  Mg0  1  0.50000000  0.50000000  0.00000000  1
  Cu  Cu0  1  0.00000000  0.00000000  0.00000000  1
  F  F0  1  0.25245600  0.25245600  0.00000000  1
  F  F1  1  0.74754400  0.74754400  0.00000000  1
  F  F2  1  0.74754400  0.25245600  0.00000000  1
  F  F3  1  0.25245600  0.74754400  0.00000000  1
  F  F4  1  0.00000000  0.00000000  0.50000000  1
  F  F5  1  0.50000000  0.50000000  0.50000000  1
loop_
_geom_bond_atom_site_label_1
_geom_bond_atom_site_label_2
_geom_bond_distance
_geom_bond_site_symmetry_2
Cu0 F4 2.035658 1_555
Cu0 F4 2.035658 1_554
Cu0 F0 2.056755 1_555
Cu0 F3 2.056755 1_545
Cu0 F2 2.056755 1_455
Cu0 F1 2.056755 1_445
F0 Mg0 2.016737 1_555
F0 K1 2.879694 1_555
F0 K1 2.879694 1_554
F0 K0 2.879694 1_554
F0 K0 2.879694 1_555
F1 Mg0 2.016737 1_555
F1 K1 2.879694 1_565
F1 K1 2.879694 1_564
F1 K0 2.879694 1_654
F1 K0 2.879694 1_655
F2 Mg0 2.016737 1_555
F2 K1 2.879694 1_555
F2 K1 2.879694 1_554
F2 K0 2.879694 1_654
F2 K0 2.879694 1_655
F3 Mg0 2.016737 1_555
F3 K1 2.879694 1_565
F3 K1 2.879694 1_564
F3 K0 2.879694 1_554
F3 K0 2.879694 1_555
F4 K1 2.880393 1_455
F4 K1 2.880393 1_555
F4 K0 2.880393 1_555
F4 K0 2.880393 1_545
F5 Mg0 2.035658 1_555
F5 Mg0 2.035658 1_556
F5 K1 2.880393 1_555
F5 K0 2.880393 1_555
F5 K0 2.880393 1_655
F5 K1 2.880393 1_565
