# generated using pymatgen
data_Rb(MoS)9
_symmetry_space_group_name_H-M   'P 1'
_cell_length_a   9.05750128
_cell_length_b   9.05750128
_cell_length_c   13.13861100
_cell_angle_alpha   90.00000000
_cell_angle_beta   90.00000000
_cell_angle_gamma   119.99999477
_symmetry_Int_Tables_number   1
_chemical_formula_structural   Rb(MoS)9
_chemical_formula_sum   'Rb2 Mo18 S18'
_cell_volume   933.46259007
_cell_formula_units_Z   2
loop_
 _symmetry_equiv_pos_site_id
 _symmetry_equiv_pos_as_xyz
  1  'x, y, z'
loop_
 _atom_site_type_symbol
 _atom_site_label
 _atom_site_symmetry_multiplicity
 _atom_site_fract_x
 _atom_site_fract_y
 _atom_site_fract_z
 _atom_site_occupancy
  Rb  Rb0  1  0.66666700  0.33333300  0.25000000  1
  Rb  Rb1  1  0.33333300  0.66666700  0.75000000  1
  Mo  Mo0  1  0.97316400  0.81389000  0.25000000  1
  Mo  Mo1  1  0.97236400  0.81211300  0.91676000  1
  Mo  Mo2  1  0.97236400  0.81211300  0.58324000  1
  Mo  Mo3  1  0.84072600  0.02683600  0.25000000  1
  Mo  Mo4  1  0.83975000  0.02763600  0.91676000  1
  Mo  Mo5  1  0.83975000  0.02763600  0.58324000  1
  Mo  Mo6  1  0.18611000  0.15927400  0.25000000  1
  Mo  Mo7  1  0.18788700  0.16025000  0.91676000  1
  Mo  Mo8  1  0.18788700  0.16025000  0.58324000  1
  Mo  Mo9  1  0.02763600  0.18788700  0.41676000  1
  Mo  Mo10  1  0.02763600  0.18788700  0.08324000  1
  Mo  Mo11  1  0.02683600  0.18611000  0.75000000  1
  Mo  Mo12  1  0.16025000  0.97236400  0.41676000  1
  Mo  Mo13  1  0.16025000  0.97236400  0.08324000  1
  Mo  Mo14  1  0.15927400  0.97316400  0.75000000  1
  Mo  Mo15  1  0.81211300  0.83975000  0.41676000  1
  Mo  Mo16  1  0.81211300  0.83975000  0.08324000  1
  Mo  Mo17  1  0.81389000  0.84072600  0.75000000  1
  S  S0  1  0.29030600  0.94921400  0.25000000  1
  S  S1  1  0.29034500  0.94945200  0.91647200  1
  S  S2  1  0.29034500  0.94945200  0.58352800  1
  S  S3  1  0.65890700  0.70969400  0.25000000  1
  S  S4  1  0.65910800  0.70965500  0.91647200  1
  S  S5  1  0.65910800  0.70965500  0.58352800  1
  S  S6  1  0.05078600  0.34109300  0.25000000  1
  S  S7  1  0.05054800  0.34089200  0.91647200  1
  S  S8  1  0.05054800  0.34089200  0.58352800  1
  S  S9  1  0.70965500  0.05054800  0.41647200  1
  S  S10  1  0.70965500  0.05054800  0.08352800  1
  S  S11  1  0.70969400  0.05078600  0.75000000  1
  S  S12  1  0.34089200  0.29034500  0.41647200  1
  S  S13  1  0.34089200  0.29034500  0.08352800  1
  S  S14  1  0.34109300  0.29030600  0.75000000  1
  S  S15  1  0.94945200  0.65910800  0.41647200  1
  S  S16  1  0.94945200  0.65910800  0.08352800  1
  S  S17  1  0.94921400  0.65890700  0.75000000  1
loop_
_geom_bond_atom_site_label_1
_geom_bond_atom_site_label_2
_geom_bond_distance
_geom_bond_site_symmetry_2
Rb0 S6 3.444553 1_655
Rb0 S0 3.444562 1_545
Rb0 S3 3.444571 1_555
Rb0 S9 3.534568 1_555
Rb0 S10 3.534568 1_555
Rb0 S16 3.534577 1_555
Rb0 S15 3.534577 1_555
Rb0 S13 3.534582 1_555
Rb0 S12 3.534582 1_555
Rb1 S17 3.444553 1_455
Rb1 S11 3.444562 1_565
Rb1 S14 3.444571 1_555
Rb1 S2 3.534568 1_555
Rb1 S1 3.534568 1_555
Rb1 S8 3.534577 1_555
Rb1 S7 3.534577 1_555
Rb1 S4 3.534582 1_555
Rb1 S5 3.534582 1_555
Mo0 S0 2.496565 1_655
Mo0 S3 2.511231 1_555
Mo0 S15 2.548402 1_555
Mo0 S16 2.548402 1_555
Mo1 S1 2.501952 1_655
Mo1 S4 2.505698 1_555
Mo1 S16 2.544985 1_556
Mo1 S17 2.545401 1_555
Mo2 S2 2.501952 1_655
Mo2 S5 2.505698 1_555
Mo2 S15 2.544985 1_555
Mo2 S17 2.545401 1_555
Mo3 S3 2.496566 1_545
Mo3 S6 2.511230 1_655
Mo3 S10 2.548407 1_555
Mo3 S9 2.548407 1_555
Mo4 S4 2.501952 1_545
Mo4 S7 2.505698 1_655
Mo4 S10 2.544994 1_556
Mo4 S11 2.545401 1_555
Mo5 S5 2.501952 1_545
Mo5 S8 2.505698 1_655
Mo5 S9 2.544994 1_555
Mo5 S11 2.545401 1_555
Mo6 S6 2.496573 1_555
Mo6 S0 2.511223 1_545
Mo6 S12 2.548404 1_555
Mo6 S13 2.548404 1_555
Mo7 S7 2.501952 1_555
Mo7 S1 2.505698 1_545
Mo7 S13 2.544988 1_556
Mo7 S14 2.545401 1_555
Mo8 S8 2.501952 1_555
Mo8 S2 2.505698 1_545
Mo8 S12 2.544988 1_555
Mo8 S14 2.545401 1_555
Mo9 S9 2.501952 1_455
Mo9 S12 2.505698 1_555
Mo9 S8 2.544985 1_555
Mo9 S6 2.545401 1_555
Mo10 S10 2.501952 1_455
Mo10 S13 2.505698 1_555
Mo10 S7 2.544985 1_554
Mo10 S6 2.545401 1_555
Mo11 S11 2.496565 1_455
Mo11 S14 2.511231 1_555
Mo11 S8 2.548402 1_555
Mo11 S7 2.548402 1_555
Mo12 S12 2.501952 1_565
Mo12 S15 2.505698 1_455
Mo12 S2 2.544994 1_555
Mo12 S0 2.545401 1_555
Mo13 S13 2.501952 1_565
Mo13 S16 2.505698 1_455
Mo13 S1 2.544994 1_554
Mo13 S0 2.545401 1_555
Mo14 S14 2.496566 1_565
Mo14 S17 2.511230 1_455
Mo14 S1 2.548407 1_555
Mo14 S2 2.548407 1_555
Mo15 S15 2.501952 1_555
Mo15 S9 2.505698 1_565
Mo15 S5 2.544988 1_555
Mo15 S3 2.545401 1_555
Mo16 S16 2.501952 1_555
Mo16 S10 2.505698 1_565
Mo16 S4 2.544988 1_554
Mo16 S3 2.545401 1_555
Mo17 S17 2.496573 1_555
Mo17 S11 2.511223 1_565
Mo17 S5 2.548404 1_555
Mo17 S4 2.548404 1_555
