# generated using pymatgen
data_MgMnAsO5
_symmetry_space_group_name_H-M   'P 1'
_cell_length_a   6.06687700
_cell_length_b   8.04388600
_cell_length_c   8.61776000
_cell_angle_alpha   90.00000000
_cell_angle_beta   90.00000000
_cell_angle_gamma   90.00000000
_symmetry_Int_Tables_number   1
_chemical_formula_structural   MgMnAsO5
_chemical_formula_sum   'Mg4 Mn4 As4 O20'
_cell_volume   420.55760639
_cell_formula_units_Z   4
loop_
 _symmetry_equiv_pos_site_id
 _symmetry_equiv_pos_as_xyz
  1  'x, y, z'
loop_
 _atom_site_type_symbol
 _atom_site_label
 _atom_site_symmetry_multiplicity
 _atom_site_fract_x
 _atom_site_fract_y
 _atom_site_fract_z
 _atom_site_occupancy
  Mg  Mg0  1  0.09806900  0.84127600  0.68341100  1
  Mg  Mg1  1  0.40193100  0.15872400  0.18341100  1
  Mg  Mg2  1  0.90193100  0.34127600  0.81658900  1
  Mg  Mg3  1  0.59806900  0.65872400  0.31658900  1
  Mn  Mn0  1  0.25958600  0.75147600  0.00361900  1
  Mn  Mn1  1  0.24041400  0.24852400  0.50361900  1
  Mn  Mn2  1  0.74041400  0.25147600  0.49638100  1
  Mn  Mn3  1  0.75958600  0.74852400  0.99638100  1
  As  As0  1  0.47409100  0.09823800  0.82647900  1
  As  As1  1  0.02590900  0.90176200  0.32647900  1
  As  As2  1  0.52590900  0.59823800  0.67352100  1
  As  As3  1  0.97409100  0.40176200  0.17352100  1
  O  O0  1  0.51463400  0.90917100  0.92089300  1
  O  O1  1  0.98536600  0.09082900  0.42089300  1
  O  O2  1  0.48536600  0.40917100  0.57910700  1
  O  O3  1  0.01463400  0.59082900  0.07910700  1
  O  O4  1  0.40902700  0.23893200  0.96517300  1
  O  O5  1  0.09097300  0.76106800  0.46517300  1
  O  O6  1  0.59097300  0.73893200  0.53482700  1
  O  O7  1  0.90902700  0.26106800  0.03482700  1
  O  O8  1  0.71391700  0.14991300  0.73001900  1
  O  O9  1  0.78608300  0.85008700  0.23001900  1
  O  O10  1  0.28608300  0.64991300  0.76998100  1
  O  O11  1  0.21391700  0.35008700  0.26998100  1
  O  O12  1  0.25965800  0.07047000  0.69539400  1
  O  O13  1  0.24034200  0.92953000  0.19539400  1
  O  O14  1  0.74034200  0.57047000  0.80460600  1
  O  O15  1  0.75965800  0.42953000  0.30460600  1
  O  O16  1  0.00730900  0.85356600  0.90666500  1
  O  O17  1  0.49269100  0.14643400  0.40666500  1
  O  O18  1  0.99269100  0.35356600  0.59333500  1
  O  O19  1  0.50730900  0.64643400  0.09333500  1
loop_
_geom_bond_atom_site_label_1
_geom_bond_atom_site_label_2
_geom_bond_distance
_geom_bond_site_symmetry_2
Mg0 O5 1.988777 1_555
Mg0 O16 2.003634 1_555
Mg0 O10 2.055998 1_555
Mg0 O12 2.090605 1_565
Mg1 O4 1.988777 1_554
Mg1 O17 2.003634 1_555
Mg1 O11 2.055998 1_555
Mg1 O13 2.090605 1_545
Mg2 O7 1.988777 1_556
Mg2 O18 2.003634 1_555
Mg2 O8 2.055998 1_555
Mg2 O14 2.090605 1_555
Mg3 O6 1.988777 1_555
Mg3 O19 2.003634 1_555
Mg3 O9 2.055998 1_555
Mg3 O15 2.090605 1_555
Mn0 O19 1.889555 1_555
Mn0 O16 1.927435 1_554
Mn0 O3 2.074011 1_555
Mn0 O0 2.124044 1_554
Mn0 O10 2.178805 1_554
Mn0 O13 2.190041 1_555
Mn1 O18 1.889555 1_455
Mn1 O17 1.927435 1_555
Mn1 O2 2.074011 1_555
Mn1 O1 2.124044 1_455
Mn1 O11 2.178805 1_555
Mn1 O12 2.190041 1_555
Mn2 O17 1.889555 1_555
Mn2 O18 1.927435 1_555
Mn2 O1 2.074011 1_555
Mn2 O2 2.124044 1_555
Mn2 O8 2.178805 1_555
Mn2 O15 2.190041 1_555
Mn3 O16 1.889555 1_655
Mn3 O19 1.927435 1_556
Mn3 O0 2.074011 1_555
Mn3 O3 2.124044 1_656
Mn3 O9 2.178805 1_556
Mn3 O14 2.190041 1_555
As0 O4 1.692690 1_555
As0 O8 1.726499 1_555
As0 O12 1.737372 1_555
As0 O0 1.742252 1_545
As1 O5 1.692690 1_555
As1 O9 1.726499 1_455
As1 O13 1.737372 1_555
As1 O1 1.742252 1_465
As2 O6 1.692690 1_555
As2 O10 1.726499 1_555
As2 O14 1.737372 1_555
As2 O2 1.742252 1_555
As3 O7 1.692690 1_555
As3 O11 1.726499 1_655
As3 O15 1.737372 1_555
As3 O3 1.742252 1_655
