# generated using pymatgen
data_Hf3Sc
_symmetry_space_group_name_H-M   'P 1'
_cell_length_a   6.43288229
_cell_length_b   6.43288229
_cell_length_c   5.03378266
_cell_angle_alpha   90.00000000
_cell_angle_beta   90.00000000
_cell_angle_gamma   120.00001411
_symmetry_Int_Tables_number   1
_chemical_formula_structural   Hf3Sc
_chemical_formula_sum   'Hf6 Sc2'
_cell_volume   180.39987818
_cell_formula_units_Z   2
loop_
 _symmetry_equiv_pos_site_id
 _symmetry_equiv_pos_as_xyz
  1  'x, y, z'
loop_
 _atom_site_type_symbol
 _atom_site_label
 _atom_site_symmetry_multiplicity
 _atom_site_fract_x
 _atom_site_fract_y
 _atom_site_fract_z
 _atom_site_occupancy
  Hf  Hf0  1  0.16640085  0.33280070  0.25000000  1
  Hf  Hf1  1  0.66719930  0.83359915  0.25000000  1
  Hf  Hf2  1  0.16640085  0.83359915  0.25000000  1
  Hf  Hf3  1  0.83359915  0.66719930  0.75000000  1
  Hf  Hf4  1  0.33280070  0.16640085  0.75000000  1
  Hf  Hf5  1  0.83359915  0.16640085  0.75000000  1
  Sc  Sc0  1  0.33333300  0.66666700  0.75000000  1
  Sc  Sc1  1  0.66666700  0.33333300  0.25000000  1
loop_
_geom_bond_atom_site_label_1
_geom_bond_atom_site_label_2
_geom_bond_distance
_geom_bond_site_symmetry_2
Hf0 Hf4 3.126053 1_555
Hf0 Hf4 3.126053 1_554
Hf0 Hf5 3.126059 1_455
Hf0 Hf5 3.126059 1_454
Hf0 Sc0 3.129581 1_554
Hf0 Sc0 3.129581 1_555
Hf0 Hf1 3.211304 1_445
Hf0 Hf2 3.211305 1_545
Hf0 Sc1 3.216443 1_555
Hf0 Sc1 3.216443 1_455
Hf0 Hf1 3.221577 1_555
Hf0 Hf2 3.221577 1_555
Hf1 Hf3 3.126053 1_554
Hf1 Hf3 3.126053 1_555
Hf1 Hf5 3.126059 1_565
Hf1 Hf5 3.126059 1_564
Hf1 Sc0 3.129581 1_554
Hf1 Sc0 3.129581 1_555
Hf1 Hf2 3.211305 1_655
Hf1 Sc1 3.216443 1_555
Hf1 Sc1 3.216443 1_565
Hf1 Hf2 3.221577 1_555
Hf2 Hf3 3.126059 1_455
Hf2 Hf3 3.126059 1_454
Hf2 Hf4 3.126059 1_565
Hf2 Hf4 3.126059 1_564
Hf2 Sc0 3.129574 1_555
Hf2 Sc0 3.129574 1_554
Hf2 Sc1 3.216442 1_565
Hf2 Sc1 3.216442 1_455
Hf3 Sc1 3.129581 1_556
Hf3 Sc1 3.129581 1_555
Hf3 Hf4 3.211304 1_665
Hf3 Hf5 3.211305 1_565
Hf3 Sc0 3.216443 1_555
Hf3 Sc0 3.216443 1_655
Hf3 Hf4 3.221577 1_555
Hf3 Hf5 3.221577 1_555
Hf4 Sc1 3.129581 1_555
Hf4 Sc1 3.129581 1_556
Hf4 Hf5 3.211305 1_455
Hf4 Sc0 3.216443 1_555
Hf4 Sc0 3.216443 1_545
Hf4 Hf5 3.221577 1_555
Hf5 Sc1 3.129574 1_556
Hf5 Sc1 3.129574 1_555
Hf5 Sc0 3.216442 1_545
Hf5 Sc0 3.216442 1_655
