# generated using pymatgen
data_Rb2CeI5
_symmetry_space_group_name_H-M   'P 1'
_cell_length_a   9.34250408
_cell_length_b   10.11084241
_cell_length_c   14.78311738
_cell_angle_alpha   90.00000000
_cell_angle_beta   90.00000000
_cell_angle_gamma   90.00000000
_symmetry_Int_Tables_number   1
_chemical_formula_structural   Rb2CeI5
_chemical_formula_sum   'Rb8 Ce4 I20'
_cell_volume   1396.42193754
_cell_formula_units_Z   4
loop_
 _symmetry_equiv_pos_site_id
 _symmetry_equiv_pos_as_xyz
  1  'x, y, z'
loop_
 _atom_site_type_symbol
 _atom_site_label
 _atom_site_symmetry_multiplicity
 _atom_site_fract_x
 _atom_site_fract_y
 _atom_site_fract_z
 _atom_site_occupancy
  Rb  Rb0  1  0.93842505  0.00455958  0.82800715  1
  Rb  Rb1  1  0.06157495  0.99544042  0.17199285  1
  Rb  Rb2  1  0.43842505  0.99544042  0.67199285  1
  Rb  Rb3  1  0.06157495  0.50455958  0.17199285  1
  Rb  Rb4  1  0.56157495  0.00455958  0.32800715  1
  Rb  Rb5  1  0.93842505  0.49544042  0.82800715  1
  Rb  Rb6  1  0.56157495  0.49544042  0.32800715  1
  Rb  Rb7  1  0.43842505  0.50455958  0.67199285  1
  Ce  Ce0  1  0.92138454  0.75000000  0.50557266  1
  Ce  Ce1  1  0.07861546  0.25000000  0.49442734  1
  Ce  Ce2  1  0.42138454  0.25000000  0.99442734  1
  Ce  Ce3  1  0.57861546  0.75000000  0.00557266  1
  I  I0  1  0.12072019  0.75000000  0.68094331  1
  I  I1  1  0.87927981  0.25000000  0.31905669  1
  I  I2  1  0.62072019  0.25000000  0.81905669  1
  I  I3  1  0.37927981  0.75000000  0.18094331  1
  I  I4  1  0.83165970  0.04541997  0.57427266  1
  I  I5  1  0.16834030  0.95458003  0.42572734  1
  I  I6  1  0.33165970  0.95458003  0.92572734  1
  I  I7  1  0.16834030  0.54541997  0.42572734  1
  I  I8  1  0.66834030  0.04541997  0.07427266  1
  I  I9  1  0.83165970  0.45458003  0.57427266  1
  I  I10  1  0.66834030  0.45458003  0.07427266  1
  I  I11  1  0.33165970  0.54541997  0.92572734  1
  I  I12  1  0.57336816  0.75000000  0.50945752  1
  I  I13  1  0.42663184  0.25000000  0.49054248  1
  I  I14  1  0.07336816  0.25000000  0.99054248  1
  I  I15  1  0.92663184  0.75000000  0.00945752  1
  I  I16  1  0.65794904  0.75000000  0.79600608  1
  I  I17  1  0.34205096  0.25000000  0.20399392  1
  I  I18  1  0.15794904  0.25000000  0.70399392  1
  I  I19  1  0.84205096  0.75000000  0.29600608  1
loop_
_geom_bond_atom_site_label_1
_geom_bond_atom_site_label_2
_geom_bond_distance
_geom_bond_site_symmetry_2
Ce0 I19 3.185473 1_555
Ce0 I0 3.192072 1_655
Ce0 I12 3.251852 1_555
Ce0 I4 3.264346 1_565
Ce0 I9 3.264346 1_555
Ce0 I7 3.315864 1_655
Ce0 I5 3.315864 1_655
Ce1 I18 3.185473 1_555
Ce1 I1 3.192072 1_455
Ce1 I13 3.251852 1_555
Ce1 I5 3.264346 1_545
Ce1 I7 3.264346 1_555
Ce1 I4 3.315864 1_455
Ce1 I9 3.315864 1_455
Ce2 I17 3.185473 1_556
Ce2 I2 3.192072 1_555
Ce2 I14 3.251852 1_555
Ce2 I6 3.264346 1_545
Ce2 I11 3.264346 1_555
Ce2 I10 3.315864 1_556
Ce2 I8 3.315864 1_556
Ce3 I16 3.185473 1_554
Ce3 I3 3.192072 1_555
Ce3 I15 3.251852 1_555
Ce3 I10 3.264346 1_555
Ce3 I8 3.264346 1_565
Ce3 I6 3.315864 1_554
Ce3 I11 3.315864 1_554
I0 Rb5 3.775126 1_455
I0 Rb0 3.775126 1_465
I0 Rb2 3.871157 1_555
I0 Rb7 3.871157 1_555
I1 Rb3 3.775126 1_655
I1 Rb1 3.775126 1_645
I1 Rb4 3.871157 1_555
I1 Rb6 3.871157 1_555
I2 Rb7 3.775126 1_555
I2 Rb2 3.775126 1_545
I2 Rb0 3.871157 1_555
I2 Rb5 3.871157 1_555
I3 Rb6 3.775126 1_555
I3 Rb4 3.775126 1_565
I3 Rb1 3.871157 1_555
I3 Rb3 3.871157 1_555
I4 Rb0 3.903268 1_555
I4 Rb2 3.979829 1_545
I5 Rb1 3.903268 1_555
I5 Rb4 3.979829 1_565
I6 Rb2 3.903268 1_555
I6 Rb0 3.979829 1_465
I7 Rb3 3.903268 1_555
I7 Rb6 3.979829 1_555
I8 Rb4 3.903268 1_555
I8 Rb1 3.979829 1_645
I9 Rb5 3.903268 1_555
I9 Rb7 3.979829 1_555
I10 Rb6 3.903268 1_555
I10 Rb3 3.979829 1_655
I11 Rb7 3.903268 1_555
I11 Rb5 3.979829 1_455
I12 Rb7 3.677107 1_555
I12 Rb2 3.677107 1_555
I12 Rb4 3.719130 1_565
I12 Rb6 3.719130 1_555
I13 Rb4 3.677107 1_555
I13 Rb6 3.677107 1_555
I13 Rb7 3.719130 1_555
I13 Rb2 3.719130 1_545
I14 Rb0 3.677107 1_455
I14 Rb5 3.677107 1_455
I14 Rb3 3.719130 1_556
I14 Rb1 3.719130 1_546
I15 Rb1 3.677107 1_655
I15 Rb3 3.677107 1_655
I15 Rb0 3.719130 1_564
I15 Rb5 3.719130 1_554
I16 Rb5 3.703314 1_555
I16 Rb0 3.703314 1_565
I16 Rb2 3.704806 1_555
I16 Rb7 3.704806 1_555
I17 Rb1 3.703314 1_545
I17 Rb3 3.703314 1_555
I17 Rb6 3.704806 1_555
I17 Rb4 3.704806 1_555
I18 Rb7 3.703314 1_555
I18 Rb2 3.703314 1_545
I18 Rb0 3.704806 1_455
I18 Rb5 3.704806 1_455
I19 Rb4 3.703314 1_565
I19 Rb6 3.703314 1_555
I19 Rb3 3.704806 1_655
I19 Rb1 3.704806 1_655
