# generated using pymatgen
data_NbSeBr
_symmetry_space_group_name_H-M   'P 1'
_cell_length_a   7.45016337
_cell_length_b   7.45016337
_cell_length_c   7.45016337
_cell_angle_alpha   60.00000000
_cell_angle_beta   60.00000000
_cell_angle_gamma   60.00000000
_symmetry_Int_Tables_number   1
_chemical_formula_structural   NbSeBr
_chemical_formula_sum   'Nb4 Se4 Br4'
_cell_volume   292.40338161
_cell_formula_units_Z   4
loop_
 _symmetry_equiv_pos_site_id
 _symmetry_equiv_pos_as_xyz
  1  'x, y, z'
loop_
 _atom_site_type_symbol
 _atom_site_label
 _atom_site_symmetry_multiplicity
 _atom_site_fract_x
 _atom_site_fract_y
 _atom_site_fract_z
 _atom_site_occupancy
  Nb  Nb0  1  0.35151198  0.35151198  0.35151198  1
  Nb  Nb1  1  0.35151198  0.35151198  0.94546505  1
  Nb  Nb2  1  0.35151198  0.94546505  0.35151198  1
  Nb  Nb3  1  0.94546505  0.35151198  0.35151198  1
  Se  Se0  1  0.11546675  0.11546675  0.11546675  1
  Se  Se1  1  0.11546675  0.11546675  0.65359774  1
  Se  Se2  1  0.11546675  0.65359774  0.11546675  1
  Se  Se3  1  0.65359774  0.11546675  0.11546675  1
  Br  Br0  1  0.61962643  0.61962643  0.61962643  1
  Br  Br1  1  0.61962643  0.61962643  0.14111971  1
  Br  Br2  1  0.61962643  0.14111971  0.61962643  1
  Br  Br3  1  0.14111971  0.61962643  0.61962643  1
loop_
_geom_bond_atom_site_label_1
_geom_bond_atom_site_label_2
_geom_bond_distance
_geom_bond_site_symmetry_2
Nb0 Se2 2.535203 1_555
Nb0 Se3 2.535203 1_555
Nb0 Se1 2.535203 1_555
Nb1 Se2 2.535189 1_556
Nb1 Se3 2.535189 1_556
Nb1 Se0 2.535207 1_556
Nb2 Se1 2.535189 1_565
Nb2 Se3 2.535189 1_565
Nb2 Se0 2.535207 1_565
Nb3 Se1 2.535189 1_655
Nb3 Se2 2.535189 1_655
Nb3 Se0 2.535207 1_655
Br0 Nb1 2.857434 1_555
Br0 Nb2 2.857434 1_555
Br0 Nb3 2.857434 1_555
Br1 Nb0 2.857432 1_555
Br1 Nb2 2.857444 1_555
Br1 Nb3 2.857444 1_555
Br2 Nb0 2.857432 1_555
Br2 Nb3 2.857444 1_555
Br2 Nb1 2.857444 1_555
Br3 Nb0 2.857432 1_555
Br3 Nb1 2.857444 1_555
Br3 Nb2 2.857444 1_555
