# generated using pymatgen
data_EuCdO3
_symmetry_space_group_name_H-M   'P 1'
_cell_length_a   4.16332400
_cell_length_b   4.16332400
_cell_length_c   4.16332400
_cell_angle_alpha   90.00000000
_cell_angle_beta   90.00000000
_cell_angle_gamma   90.00000000
_symmetry_Int_Tables_number   1
_chemical_formula_structural   EuCdO3
_chemical_formula_sum   'Eu1 Cd1 O3'
_cell_volume   72.16400537
_cell_formula_units_Z   1
loop_
 _symmetry_equiv_pos_site_id
 _symmetry_equiv_pos_as_xyz
  1  'x, y, z'
loop_
 _atom_site_type_symbol
 _atom_site_label
 _atom_site_symmetry_multiplicity
 _atom_site_fract_x
 _atom_site_fract_y
 _atom_site_fract_z
 _atom_site_occupancy
  Eu  Eu0  1  0.00000000  0.00000000  0.00000000  1
  Cd  Cd0  1  0.50000000  0.50000000  0.50000000  1
  O  O0  1  0.50000000  0.50000000  0.00000000  1
  O  O1  1  0.50000000  0.00000000  0.50000000  1
  O  O2  1  0.00000000  0.50000000  0.50000000  1
loop_
_geom_bond_atom_site_label_1
_geom_bond_atom_site_label_2
_geom_bond_distance
_geom_bond_site_symmetry_2
Eu0 O2 2.943915 1_545
Eu0 O1 2.943915 1_455
Eu0 O1 2.943915 1_454
Eu0 O0 2.943915 1_545
Eu0 O1 2.943915 1_555
Eu0 O0 2.943915 1_555
Eu0 O0 2.943915 1_445
Eu0 O1 2.943915 1_554
Eu0 O2 2.943915 1_555
Eu0 O2 2.943915 1_554
Eu0 O0 2.943915 1_455
Eu0 O2 2.943915 1_544
Cd0 O1 2.081662 1_555
Cd0 O0 2.081662 1_555
Cd0 O2 2.081662 1_555
Cd0 O1 2.081662 1_565
Cd0 O0 2.081662 1_556
Cd0 O2 2.081662 1_655
