# generated using pymatgen
data_W5I16
_symmetry_space_group_name_H-M   'P 1'
_cell_length_a   10.75933400
_cell_length_b   10.82271500
_cell_length_c   30.27008700
_cell_angle_alpha   90.00000000
_cell_angle_beta   90.00000000
_cell_angle_gamma   90.00000000
_symmetry_Int_Tables_number   1
_chemical_formula_structural   W5I16
_chemical_formula_sum   'W20 I64'
_cell_volume   3524.80650036
_cell_formula_units_Z   4
loop_
 _symmetry_equiv_pos_site_id
 _symmetry_equiv_pos_as_xyz
  1  'x, y, z'
loop_
 _atom_site_type_symbol
 _atom_site_label
 _atom_site_symmetry_multiplicity
 _atom_site_fract_x
 _atom_site_fract_y
 _atom_site_fract_z
 _atom_site_occupancy
  W  W0  1  0.57952500  0.32479500  0.62348200  1
  W  W1  1  0.07952500  0.67520500  0.37651800  1
  W  W2  1  0.07952500  0.82479500  0.87651800  1
  W  W3  1  0.57952500  0.17520500  0.12348200  1
  W  W4  1  0.75742800  0.16788000  0.59607900  1
  W  W5  1  0.25742800  0.83212000  0.40392100  1
  W  W6  1  0.25742800  0.66788000  0.90392100  1
  W  W7  1  0.75742800  0.33212000  0.09607900  1
  W  W8  1  0.76028400  0.25666200  0.67859500  1
  W  W9  1  0.26028400  0.74333800  0.32140500  1
  W  W10  1  0.26028400  0.75666200  0.82140500  1
  W  W11  1  0.76028400  0.24333800  0.17859500  1
  W  W12  1  0.75643700  0.48567800  0.64763900  1
  W  W13  1  0.25643700  0.51432200  0.35236100  1
  W  W14  1  0.25643700  0.98567800  0.85236100  1
  W  W15  1  0.75643700  0.01432200  0.14763900  1
  W  W16  1  0.75569700  0.39954500  0.56607300  1
  W  W17  1  0.25569700  0.60045500  0.43392700  1
  W  W18  1  0.25569700  0.89954500  0.93392700  1
  W  W19  1  0.75569700  0.10045500  0.06607300  1
  I  I0  1  0.57641900  0.07984300  0.65570300  1
  I  I1  1  0.07641900  0.92015700  0.34429700  1
  I  I2  1  0.07641900  0.57984300  0.84429700  1
  I  I3  1  0.57641900  0.42015700  0.15570300  1
  I  I4  1  0.57603500  0.42250600  0.70999200  1
  I  I5  1  0.07603500  0.57749400  0.29000800  1
  I  I6  1  0.07603500  0.92250600  0.79000800  1
  I  I7  1  0.57603500  0.07749400  0.20999200  1
  I  I8  1  0.56532100  0.56804200  0.59101200  1
  I  I9  1  0.06532100  0.43195800  0.40898800  1
  I  I10  1  0.06532100  0.06804200  0.90898800  1
  I  I11  1  0.56532100  0.93195800  0.09101200  1
  I  I12  1  0.56777100  0.23654700  0.53639500  1
  I  I13  1  0.06777100  0.76345300  0.46360500  1
  I  I14  1  0.06777100  0.73654700  0.96360500  1
  I  I15  1  0.56777100  0.26345300  0.03639500  1
  I  I16  1  0.94508700  0.09301300  0.65282300  1
  I  I17  1  0.44508700  0.90698700  0.34717700  1
  I  I18  1  0.44508700  0.59301300  0.84717700  1
  I  I19  1  0.94508700  0.40698700  0.15282300  1
  I  I20  1  0.94496200  0.41958300  0.70497800  1
  I  I21  1  0.44496200  0.58041700  0.29502200  1
  I  I22  1  0.44496200  0.91958300  0.79502200  1
  I  I23  1  0.94496200  0.08041700  0.20497800  1
  I  I24  1  0.94247500  0.56272300  0.59083400  1
  I  I25  1  0.44247500  0.43727700  0.40916600  1
  I  I26  1  0.44247500  0.06272300  0.90916600  1
  I  I27  1  0.94247500  0.93727700  0.09083400  1
  I  I28  1  0.94563800  0.24324400  0.54059200  1
  I  I29  1  0.44563800  0.75675600  0.45940800  1
  I  I30  1  0.44563800  0.74324400  0.95940800  1
  I  I31  1  0.94563800  0.25675600  0.04059200  1
  I  I32  1  0.30957700  0.31328700  0.62742400  1
  I  I33  1  0.80957700  0.68671300  0.37257600  1
  I  I34  1  0.80957700  0.81328700  0.87257600  1
  I  I35  1  0.30957700  0.18671300  0.12742400  1
  I  I36  1  0.75782600  0.93601000  0.55336400  1
  I  I37  1  0.25782600  0.06399000  0.44663600  1
  I  I38  1  0.25782600  0.43601000  0.94663600  1
  I  I39  1  0.75782600  0.56399000  0.05336400  1
  I  I40  1  0.76442900  0.15021900  0.76451800  1
  I  I41  1  0.26442900  0.84978100  0.23548200  1
  I  I42  1  0.26442900  0.65021900  0.73548200  1
  I  I43  1  0.76442900  0.34978100  0.26451800  1
  I  I44  1  0.76037500  0.73311200  0.68100900  1
  I  I45  1  0.26037500  0.26688800  0.31899100  1
  I  I46  1  0.26037500  0.23311200  0.81899100  1
  I  I47  1  0.76037500  0.76688800  0.18100900  1
  I  I48  1  0.75678500  0.50965600  0.48241300  1
  I  I49  1  0.25678500  0.49034400  0.51758700  1
  I  I50  1  0.25678500  0.00965600  0.01758700  1
  I  I51  1  0.75678500  0.99034400  0.98241300  1
  I  I52  1  0.27481900  0.24518900  0.72147300  1
  I  I53  1  0.77481900  0.75481100  0.27852700  1
  I  I54  1  0.77481900  0.74518900  0.77852700  1
  I  I55  1  0.27481900  0.25481100  0.22147300  1
  I  I56  1  0.76239000  0.32184300  0.85499700  1
  I  I57  1  0.26239000  0.67815700  0.14500300  1
  I  I58  1  0.26239000  0.82184300  0.64500300  1
  I  I59  1  0.76239000  0.17815700  0.35499700  1
  I  I60  1  0.76061000  0.05780800  0.43773100  1
  I  I61  1  0.26061000  0.94219200  0.56226900  1
  I  I62  1  0.26061000  0.55780800  0.06226900  1
  I  I63  1  0.76061000  0.44219200  0.93773100  1
loop_
_geom_bond_atom_site_label_1
_geom_bond_atom_site_label_2
_geom_bond_distance
_geom_bond_site_symmetry_2
W0 W8 2.666328 1_555
W0 W12 2.681341 1_555
W0 W4 2.689971 1_555
W0 W16 2.695781 1_555
W1 W9 2.666328 1_555
W1 W13 2.681341 1_555
W1 W5 2.689971 1_555
W1 W17 2.695781 1_555
W2 W6 2.689971 1_555
W3 W7 2.689971 1_555
W4 W8 2.676385 1_555
W5 W9 2.676385 1_555
W10 W14 2.650112 1_555
W10 W2 2.666328 1_555
W10 W6 2.676385 1_555
W11 W15 2.650112 1_555
W11 W3 2.666328 1_555
W11 W7 2.676385 1_555
W12 W16 2.639139 1_555
W12 W8 2.650112 1_555
W13 W17 2.639139 1_555
W13 W9 2.650112 1_555
W14 W18 2.639139 1_555
W14 W2 2.681341 1_555
W15 W19 2.639139 1_555
W15 W3 2.681341 1_555
W16 W4 2.666759 1_555
W17 W5 2.666759 1_555
W18 W6 2.666759 1_555
W18 W2 2.695781 1_555
W19 W7 2.666759 1_555
W19 W3 2.695781 1_555
I0 W4 2.821013 1_555
I0 W0 2.824966 1_555
I0 W8 2.838275 1_555
I1 W5 2.821013 1_555
I1 W1 2.824966 1_555
I1 W9 2.838275 1_555
I2 W6 2.821013 1_555
I2 W2 2.824966 1_555
I2 W10 2.838275 1_555
I3 W7 2.821013 1_555
I3 W3 2.824966 1_555
I3 W11 2.838275 1_555
I4 W12 2.792370 1_555
I4 W0 2.824380 1_555
I4 W8 2.838087 1_555
I5 W13 2.792370 1_555
I5 W1 2.824380 1_555
I5 W9 2.838087 1_555
I6 W14 2.792370 1_555
I6 W2 2.824380 1_555
I6 W10 2.838087 1_555
I7 W15 2.792370 1_555
I7 W3 2.824380 1_555
I7 W11 2.838087 1_555
I8 W0 2.814238 1_555
I8 W12 2.821532 1_555
I8 W16 2.844467 1_555
I9 W1 2.814238 1_555
I9 W13 2.821532 1_555
I9 W17 2.844467 1_555
I10 W2 2.814238 1_545
I10 W14 2.821532 1_545
I10 W18 2.844467 1_545
I11 W3 2.814238 1_565
I11 W15 2.821532 1_565
I11 W19 2.844467 1_565
I12 W0 2.806664 1_555
I12 W4 2.824928 1_555
I12 W16 2.829725 1_555
I13 W1 2.806664 1_555
I13 W5 2.824928 1_555
I13 W17 2.829725 1_555
I14 W2 2.806664 1_555
I14 W6 2.824928 1_555
I14 W18 2.829725 1_555
I15 W3 2.806664 1_555
I15 W7 2.824928 1_555
I15 W19 2.829725 1_555
I16 W4 2.771920 1_555
I16 W8 2.774715 1_555
I17 W5 2.771920 1_555
I17 W9 2.774715 1_555
I18 W6 2.771920 1_555
I18 W10 2.774715 1_555
I19 W7 2.771920 1_555
I19 W11 2.774715 1_555
I20 W12 2.763805 1_555
I20 W8 2.773995 1_555
I21 W13 2.763805 1_555
I21 W9 2.773995 1_555
I22 W14 2.763805 1_555
I22 W10 2.773995 1_555
I23 W15 2.763805 1_555
I23 W11 2.773995 1_555
I24 W12 2.767403 1_555
I24 W16 2.778337 1_555
I25 W13 2.767403 1_555
I25 W17 2.778337 1_555
I26 W14 2.767403 1_545
I26 W18 2.778337 1_545
I27 W15 2.767403 1_565
I27 W19 2.778337 1_565
I28 W4 2.754451 1_555
I28 W16 2.762770 1_555
I29 W5 2.754451 1_555
I29 W17 2.762770 1_555
I30 W6 2.754451 1_555
I30 W18 2.762770 1_555
I31 W7 2.754451 1_555
I31 W19 2.762770 1_555
I32 W0 2.909578 1_555
I32 I52 2.964407 1_555
I33 W1 2.909578 1_655
I33 I53 2.964407 1_555
I34 W2 2.909578 1_655
I34 I54 2.964407 1_555
I35 W3 2.909578 1_555
I35 I55 2.964407 1_555
I36 W4 2.822984 1_565
I37 W5 2.822984 1_545
I38 W6 2.822984 1_555
I39 W7 2.822984 1_555
I40 W8 2.844954 1_555
I40 I56 3.309323 1_555
I41 W9 2.844954 1_555
I41 I57 3.309323 1_555
I42 W10 2.844954 1_555
I42 I58 3.309323 1_555
I43 W11 2.844954 1_555
I43 I59 3.309323 1_555
I44 W12 2.862396 1_555
I44 I54 2.958855 1_555
I45 W13 2.862396 1_555
I45 I55 2.958855 1_555
I46 W14 2.862396 1_545
I46 I52 2.958855 1_555
I47 W15 2.862396 1_565
I47 I53 2.958855 1_555
I48 W16 2.798806 1_555
I49 W17 2.798806 1_555
I50 W18 2.798806 1_544
I51 W19 2.798806 1_566
I56 I63 2.822893 1_555
I57 I62 2.822893 1_555
I58 I61 2.822893 1_555
I59 I60 2.822893 1_555
