# generated using pymatgen
data_Mg14SbMo
_symmetry_space_group_name_H-M   'P 1'
_cell_length_a   6.28199100
_cell_length_b   6.28199050
_cell_length_c   10.16523114
_cell_angle_alpha   90.00000000
_cell_angle_beta   90.00000000
_cell_angle_gamma   120.00000261
_symmetry_Int_Tables_number   1
_chemical_formula_structural   Mg14SbMo
_chemical_formula_sum   'Mg14 Sb1 Mo1'
_cell_volume   347.41011897
_cell_formula_units_Z   1
loop_
 _symmetry_equiv_pos_site_id
 _symmetry_equiv_pos_as_xyz
  1  'x, y, z'
loop_
 _atom_site_type_symbol
 _atom_site_label
 _atom_site_symmetry_multiplicity
 _atom_site_fract_x
 _atom_site_fract_y
 _atom_site_fract_z
 _atom_site_occupancy
  Mg  Mg0  1  0.16562810  0.83281355  0.12500000  1
  Mg  Mg1  1  0.16643056  0.83321478  0.62500000  1
  Mg  Mg2  1  0.66718645  0.33437190  0.12500000  1
  Mg  Mg3  1  0.66678522  0.33356944  0.62500000  1
  Mg  Mg4  1  0.66718645  0.83281355  0.12500000  1
  Mg  Mg5  1  0.66678522  0.83321478  0.62500000  1
  Mg  Mg6  1  0.32852922  0.17147078  0.36364041  1
  Mg  Mg7  1  0.32852922  0.17147078  0.88635959  1
  Mg  Mg8  1  0.32852922  0.65705944  0.36364041  1
  Mg  Mg9  1  0.32852922  0.65705944  0.88635959  1
  Mg  Mg10  1  0.84294056  0.17147078  0.36364041  1
  Mg  Mg11  1  0.84294056  0.17147078  0.88635959  1
  Mg  Mg12  1  0.83333300  0.66666700  0.37318602  1
  Mg  Mg13  1  0.83333300  0.66666700  0.87681398  1
  Sb  Sb0  1  0.16666700  0.33333300  0.62500000  1
  Mo  Mo0  1  0.16666700  0.33333300  0.12500000  1
loop_
_geom_bond_atom_site_label_1
_geom_bond_atom_site_label_2
_geom_bond_distance
_geom_bond_site_symmetry_2
Mg0 Mg8 3.046436 1_555
Mg0 Mg9 3.046436 1_554
Mg0 Mg6 3.046442 1_565
Mg0 Mg7 3.046442 1_564
Mg0 Mg12 3.103712 1_455
Mg0 Mg13 3.103712 1_454
Mg0 Mg2 3.131206 1_455
Mg0 Mg4 3.131206 1_455
Mg0 Mo0 3.141000 1_565
Mg0 Mo0 3.141000 1_555
Mg0 Mg2 3.150785 1_565
Mg0 Mg4 3.150785 1_555
Mg1 Mg13 3.136283 1_455
Mg1 Mg12 3.136283 1_455
Mg1 Sb0 3.140996 1_565
Mg1 Sb0 3.140996 1_555
Mg2 Mg6 3.046442 1_555
Mg2 Mg7 3.046442 1_554
Mg2 Mg4 3.131206 1_555
Mg2 Mo0 3.141001 1_655
Mg2 Mo0 3.141001 1_555
Mg2 Mg4 3.150785 1_545
Mg3 Sb0 3.140996 1_655
Mg3 Sb0 3.140996 1_555
Mg4 Mg8 3.046442 1_555
Mg4 Mg9 3.046442 1_554
Mg4 Mo0 3.141000 1_665
Mg4 Mo0 3.141000 1_555
Mg5 Sb0 3.140996 1_665
Mg5 Sb0 3.140996 1_555
Mg6 Mo0 2.997737 1_555
Mg6 Sb0 3.187512 1_555
Mg7 Mo0 2.997737 1_556
Mg7 Sb0 3.187512 1_555
Mg8 Mo0 2.997743 1_555
Mg8 Sb0 3.187518 1_555
Mg9 Mo0 2.997743 1_556
Mg9 Sb0 3.187518 1_555
Mg10 Mo0 2.997743 1_655
Mg10 Mg2 3.046436 1_555
Mg10 Mg4 3.046442 1_545
Mg10 Mg12 3.142928 1_545
Mg10 Mg12 3.142928 1_555
Mg10 Sb0 3.187518 1_655
Mg11 Mo0 2.997743 1_656
Mg11 Mg2 3.046436 1_556
Mg11 Mg4 3.046442 1_546
Mg11 Mg13 3.142928 1_545
Mg11 Mg13 3.142928 1_555
Mg11 Sb0 3.187518 1_655
Mg12 Mg4 3.103706 1_555
Mg12 Mg2 3.103712 1_555
Mg12 Mg5 3.136277 1_555
Mg12 Mg3 3.136283 1_555
Mg12 Mg6 3.142928 1_665
Mg12 Mg6 3.142928 1_555
Mg12 Mg8 3.142929 1_555
Mg12 Mg8 3.142929 1_655
Mg13 Mg4 3.103706 1_556
Mg13 Mg2 3.103712 1_556
Mg13 Mg5 3.136277 1_555
Mg13 Mg3 3.136283 1_555
Mg13 Mg7 3.142928 1_665
Mg13 Mg7 3.142928 1_555
Mg13 Mg9 3.142929 1_655
Mg13 Mg9 3.142929 1_555
