# generated using pymatgen
data_CaMnAsO5
_symmetry_space_group_name_H-M   'P 1'
_cell_length_a   5.93444900
_cell_length_b   7.70008100
_cell_length_c   9.07755200
_cell_angle_alpha   90.00000000
_cell_angle_beta   90.00000000
_cell_angle_gamma   90.00000000
_symmetry_Int_Tables_number   1
_chemical_formula_structural   CaMnAsO5
_chemical_formula_sum   'Ca4 Mn4 As4 O20'
_cell_volume   414.80543779
_cell_formula_units_Z   4
loop_
 _symmetry_equiv_pos_site_id
 _symmetry_equiv_pos_as_xyz
  1  'x, y, z'
loop_
 _atom_site_type_symbol
 _atom_site_label
 _atom_site_symmetry_multiplicity
 _atom_site_fract_x
 _atom_site_fract_y
 _atom_site_fract_z
 _atom_site_occupancy
  Ca  Ca0  1  0.97774000  0.85061500  0.66991500  1
  Ca  Ca1  1  0.52226000  0.14938500  0.16991500  1
  Ca  Ca2  1  0.02226000  0.35061500  0.83008500  1
  Ca  Ca3  1  0.47774000  0.64938500  0.33008500  1
  Mn  Mn0  1  0.25199100  0.75339100  0.99684700  1
  Mn  Mn1  1  0.24800900  0.24660900  0.49684700  1
  Mn  Mn2  1  0.74800900  0.25339100  0.50315300  1
  Mn  Mn3  1  0.75199100  0.74660900  0.00315300  1
  As  As0  1  0.48100000  0.11060300  0.81601500  1
  As  As1  1  0.01900000  0.88939700  0.31601500  1
  As  As2  1  0.51900000  0.61060300  0.68398500  1
  As  As3  1  0.98100000  0.38939700  0.18398500  1
  O  O0  1  0.50804300  0.92905800  0.93133100  1
  O  O1  1  0.99195700  0.07094200  0.43133100  1
  O  O2  1  0.49195700  0.42905800  0.56866900  1
  O  O3  1  0.00804300  0.57094200  0.06866900  1
  O  O4  1  0.41251700  0.27384400  0.93379800  1
  O  O5  1  0.08748300  0.72615600  0.43379800  1
  O  O6  1  0.58748300  0.77384400  0.56620200  1
  O  O7  1  0.91251700  0.22615600  0.06620200  1
  O  O8  1  0.73476300  0.13533200  0.72422600  1
  O  O9  1  0.76523700  0.86466800  0.22422600  1
  O  O10  1  0.26523700  0.63533200  0.77577400  1
  O  O11  1  0.23476300  0.36466800  0.27577400  1
  O  O12  1  0.25085600  0.09483400  0.69974500  1
  O  O13  1  0.24914400  0.90516600  0.19974500  1
  O  O14  1  0.74914400  0.59483400  0.80025500  1
  O  O15  1  0.75085600  0.40516600  0.30025500  1
  O  O16  1  0.99712500  0.86825600  0.92311400  1
  O  O17  1  0.50287500  0.13174400  0.42311400  1
  O  O18  1  0.00287500  0.36825600  0.57688600  1
  O  O19  1  0.49712500  0.63174400  0.07688600  1
loop_
_geom_bond_atom_site_label_1
_geom_bond_atom_site_label_2
_geom_bond_distance
_geom_bond_site_symmetry_2
Ca0 O16 2.305310 1_555
Ca0 O5 2.436510 1_655
Ca0 O12 2.497318 1_665
Ca0 O10 2.565593 1_655
Ca0 O6 2.568943 1_555
Ca0 O14 2.668200 1_555
Ca0 O8 2.669945 1_565
Ca0 O1 2.752428 1_565
Ca1 O17 2.305310 1_555
Ca1 O4 2.436510 1_554
Ca1 O13 2.497318 1_545
Ca1 O11 2.565593 1_555
Ca1 O7 2.568943 1_555
Ca1 O15 2.668200 1_555
Ca1 O9 2.669945 1_545
Ca1 O0 2.752428 1_544
Ca2 O18 2.305310 1_555
Ca2 O7 2.436510 1_456
Ca2 O14 2.497318 1_455
Ca2 O8 2.565593 1_455
Ca2 O4 2.568943 1_555
Ca2 O12 2.668200 1_555
Ca2 O10 2.669945 1_555
Ca2 O3 2.752428 1_556
Ca3 O19 2.305310 1_555
Ca3 O6 2.436510 1_555
Ca3 O15 2.497318 1_555
Ca3 O9 2.565593 1_555
Ca3 O5 2.568943 1_555
Ca3 O13 2.668200 1_555
Ca3 O11 2.669945 1_555
Ca3 O2 2.752428 1_555
Mn0 O16 1.875605 1_455
Mn0 O19 1.876575 1_556
Mn0 O0 2.119510 1_555
Mn0 O3 2.120036 1_556
Mn0 O13 2.181373 1_556
Mn0 O10 2.204502 1_555
Mn1 O17 1.875605 1_555
Mn1 O18 1.876575 1_555
Mn1 O1 2.119510 1_455
Mn1 O2 2.120036 1_555
Mn1 O12 2.181373 1_555
Mn1 O11 2.204502 1_555
Mn2 O18 1.875605 1_655
Mn2 O17 1.876575 1_555
Mn2 O2 2.119510 1_555
Mn2 O1 2.120036 1_555
Mn2 O15 2.181373 1_555
Mn2 O8 2.204502 1_555
Mn3 O19 1.875605 1_555
Mn3 O16 1.876575 1_554
Mn3 O3 2.119510 1_655
Mn3 O0 2.120036 1_554
Mn3 O14 2.181373 1_554
Mn3 O9 2.204502 1_555
As0 O4 1.699496 1_555
As0 O12 1.730335 1_555
As0 O8 1.731583 1_555
As0 O0 1.753760 1_545
As1 O5 1.699496 1_555
As1 O13 1.730335 1_555
As1 O9 1.731583 1_455
As1 O1 1.753760 1_465
As2 O6 1.699496 1_555
As2 O14 1.730335 1_555
As2 O10 1.731583 1_555
As2 O2 1.753760 1_555
As3 O7 1.699496 1_555
As3 O15 1.730335 1_555
As3 O11 1.731583 1_655
As3 O3 1.753760 1_655
