# generated using pymatgen
data_Y5Pt3
_symmetry_space_group_name_H-M   'P 1'
_cell_length_a   8.45364920
_cell_length_b   8.45364920
_cell_length_c   6.18853236
_cell_angle_alpha   90.00000000
_cell_angle_beta   90.00000000
_cell_angle_gamma   120.00000533
_symmetry_Int_Tables_number   1
_chemical_formula_structural   Y5Pt3
_chemical_formula_sum   'Y10 Pt6'
_cell_volume   383.00700648
_cell_formula_units_Z   2
loop_
 _symmetry_equiv_pos_site_id
 _symmetry_equiv_pos_as_xyz
  1  'x, y, z'
loop_
 _atom_site_type_symbol
 _atom_site_label
 _atom_site_symmetry_multiplicity
 _atom_site_fract_x
 _atom_site_fract_y
 _atom_site_fract_z
 _atom_site_occupancy
  Y  Y0  1  0.66666700  0.33333300  0.00000000  1
  Y  Y1  1  0.33333300  0.66666700  0.00000000  1
  Y  Y2  1  0.33333300  0.66666700  0.50000000  1
  Y  Y3  1  0.66666700  0.33333300  0.50000000  1
  Y  Y4  1  0.75218673  0.75218673  0.75000000  1
  Y  Y5  1  0.24781327  0.00000000  0.75000000  1
  Y  Y6  1  0.00000000  0.24781327  0.75000000  1
  Y  Y7  1  0.24781327  0.24781327  0.25000000  1
  Y  Y8  1  0.75218673  -0.00000000  0.25000000  1
  Y  Y9  1  -0.00000000  0.75218673  0.25000000  1
  Pt  Pt0  1  0.39443831  0.39443831  0.75000000  1
  Pt  Pt1  1  0.60556169  -0.00000000  0.75000000  1
  Pt  Pt2  1  -0.00000000  0.60556169  0.75000000  1
  Pt  Pt3  1  0.60556169  0.60556169  0.25000000  1
  Pt  Pt4  1  0.39443831  0.00000000  0.25000000  1
  Pt  Pt5  1  0.00000000  0.39443831  0.25000000  1
loop_
_geom_bond_atom_site_label_1
_geom_bond_atom_site_label_2
_geom_bond_distance
_geom_bond_site_symmetry_2
Pt0 Y5 2.919215 1_555
Pt0 Y6 2.919215 1_555
Pt0 Y0 3.024126 1_556
Pt0 Y2 3.024126 1_555
Pt0 Y3 3.024126 1_555
Pt0 Y1 3.024126 1_556
Pt0 Y4 3.024279 1_555
Pt0 Y7 3.333299 1_555
Pt0 Y7 3.333299 1_556
Pt1 Y6 2.919215 1_655
Pt1 Y4 2.919215 1_545
Pt1 Y0 3.024119 1_556
Pt1 Y3 3.024119 1_555
Pt1 Y1 3.024121 1_546
Pt1 Y2 3.024121 1_545
Pt1 Y5 3.024280 1_555
Pt1 Y8 3.333299 1_556
Pt1 Y8 3.333299 1_555
Pt2 Y5 2.919215 1_565
Pt2 Y4 2.919215 1_455
Pt2 Y1 3.024119 1_556
Pt2 Y2 3.024119 1_555
Pt2 Y0 3.024121 1_456
Pt2 Y3 3.024121 1_455
Pt2 Y6 3.024280 1_555
Pt2 Y9 3.333299 1_556
Pt2 Y9 3.333299 1_555
Pt3 Y8 2.919215 1_565
Pt3 Y9 2.919215 1_655
Pt3 Y1 3.024126 1_555
Pt3 Y2 3.024126 1_555
Pt3 Y3 3.024126 1_555
Pt3 Y0 3.024126 1_555
Pt3 Y7 3.024279 1_555
Pt3 Y4 3.333299 1_554
Pt3 Y4 3.333299 1_555
Pt4 Y9 2.919215 1_545
Pt4 Y7 2.919215 1_555
Pt4 Y1 3.024119 1_545
Pt4 Y2 3.024119 1_545
Pt4 Y3 3.024121 1_555
Pt4 Y0 3.024121 1_555
Pt4 Y8 3.024280 1_555
Pt4 Y5 3.333299 1_555
Pt4 Y5 3.333299 1_554
Pt5 Y8 2.919215 1_455
Pt5 Y7 2.919215 1_555
Pt5 Y3 3.024119 1_455
Pt5 Y0 3.024119 1_455
Pt5 Y1 3.024121 1_555
Pt5 Y2 3.024121 1_555
Pt5 Y9 3.024280 1_555
Pt5 Y6 3.333299 1_555
Pt5 Y6 3.333299 1_554
