# generated using pymatgen
data_Rb8Ta6O19
_symmetry_space_group_name_H-M   'P 1'
_cell_length_a   9.63133165
_cell_length_b   9.63062152
_cell_length_c   9.63088685
_cell_angle_alpha   118.94916521
_cell_angle_beta   118.95189162
_cell_angle_gamma   91.82686355
_symmetry_Int_Tables_number   1
_chemical_formula_structural   Rb8Ta6O19
_chemical_formula_sum   'Rb8 Ta6 O19'
_cell_volume   641.34350413
_cell_formula_units_Z   1
loop_
 _symmetry_equiv_pos_site_id
 _symmetry_equiv_pos_as_xyz
  1  'x, y, z'
loop_
 _atom_site_type_symbol
 _atom_site_label
 _atom_site_symmetry_multiplicity
 _atom_site_fract_x
 _atom_site_fract_y
 _atom_site_fract_z
 _atom_site_occupancy
  Rb  Rb0  1  0.62789043  0.44374840  0.36044036  1
  Rb  Rb1  1  0.37211002  0.55625141  0.63955955  1
  Rb  Rb2  1  0.08333456  0.26744651  0.63957994  1
  Rb  Rb3  1  0.44374209  0.08331200  0.81586932  1
  Rb  Rb4  1  0.91666501  0.73255365  0.36041941  1
  Rb  Rb5  1  0.55625696  0.91668706  0.18413006  1
  Rb  Rb6  1  0.26745630  0.62788218  0.18412678  1
  Rb  Rb7  1  0.73254406  0.37211790  0.81587321  1
  Ta  Ta0  1  0.17353920  0.17353277  0.00000699  1
  Ta  Ta1  1  0.82646115  0.82646777  -0.00000647  1
  Ta  Ta2  1  0.21915068  0.10627636  0.32543051  1
  Ta  Ta3  1  0.78084608  0.89372074  0.67456394  1
  Ta  Ta4  1  0.10628410  0.78084683  0.88712867  1
  Ta  Ta5  1  0.89371455  0.21915865  0.11287422  1
  O  O0  1  0.08869792  0.26558286  0.35428759  1
  O  O1  1  0.91130193  0.73441668  0.64571216  1
  O  O2  1  0.26558780  0.91129825  0.17688786  1
  O  O3  1  0.73441256  0.08870244  0.82311378  1
  O  O4  1  0.32562426  0.23698091  0.27049382  1
  O  O5  1  0.67437683  0.76301938  0.72950721  1
  O  O6  1  0.96649792  0.05512228  0.72952160  1
  O  O7  1  0.23699288  0.96650281  0.91138446  1
  O  O8  1  0.03350291  0.94487814  0.27047875  1
  O  O9  1  0.76300635  0.03349751  0.08861601  1
  O  O10  1  0.05513235  0.32561141  0.08864904  1
  O  O11  1  0.94486708  0.67438738  0.91135097  1
  O  O12  1  0.37760865  0.20284441  0.58045478  1
  O  O13  1  0.62239399  0.79715668  0.41954854  1
  O  O14  1  0.20284753  0.62239861  0.82523759  1
  O  O15  1  0.79715315  0.37759978  0.17476224  1
  O  O16  1  0.30922921  0.30922556  0.00001308  1
  O  O17  1  0.69077066  0.69077413  0.99998725  1
  O  O18  1  -0.00000016  -0.00000043  -0.00000019  1
loop_
_geom_bond_atom_site_label_1
_geom_bond_atom_site_label_2
_geom_bond_distance
_geom_bond_site_symmetry_2
O0 Ta5 1.960936 1_455
O0 Ta2 2.014422 1_555
O0 Rb2 2.764440 1_555
O0 Rb1 2.764474 1_555
O1 Ta4 1.960929 1_655
O1 Ta3 2.014422 1_555
O1 Rb4 2.764445 1_555
O1 Rb0 2.764470 1_555
O2 Ta2 1.960891 1_565
O2 Ta4 2.014421 1_554
O2 Rb6 2.764297 1_555
O2 Rb5 2.764619 1_555
O3 Ta3 1.960917 1_545
O3 Ta5 2.014425 1_556
O3 Rb7 2.764299 1_555
O3 Rb3 2.764621 1_555
O4 Ta2 2.000940 1_555
O4 Ta0 2.003208 1_555
O4 Rb0 2.951242 1_555
O4 Rb1 3.174920 1_555
O5 Ta3 2.000943 1_555
O5 Ta1 2.003203 1_556
O5 Rb1 2.951243 1_555
O5 Rb0 3.174925 1_555
O6 Ta3 2.000894 1_545
O6 Ta0 2.003233 1_656
O6 Rb2 2.951198 1_655
O6 Rb4 3.174919 1_545
O7 Ta4 2.000926 1_555
O7 Ta0 2.003150 1_566
O7 Rb3 2.951143 1_565
O7 Rb5 3.174822 1_556
O8 Ta2 2.000876 1_565
O8 Ta1 2.003233 1_455
O8 Rb4 2.951198 1_455
O8 Rb2 3.174918 1_565
O9 Ta5 2.000949 1_555
O9 Ta1 2.003154 1_545
O9 Rb5 2.951142 1_545
O9 Rb3 3.174820 1_554
O10 Ta5 2.000893 1_455
O10 Ta0 2.003269 1_555
O10 Rb6 2.951312 1_555
O10 Rb7 3.175033 1_454
O11 Ta4 2.000901 1_655
O11 Ta1 2.003273 1_556
O11 Rb7 2.951297 1_555
O11 Rb6 3.175031 1_656
O12 Ta2 1.815425 1_555
O12 Rb3 2.836652 1_555
O12 Rb7 2.836726 1_555
O12 Rb1 3.174270 1_555
O12 Rb2 3.174315 1_555
O13 Ta3 1.815362 1_555
O13 Rb5 2.836665 1_555
O13 Rb6 2.836743 1_555
O13 Rb0 3.174268 1_555
O13 Rb4 3.174307 1_555
O14 Ta4 1.815341 1_555
O14 Rb2 2.836725 1_555
O14 Rb1 2.836734 1_555
O14 Rb6 3.174230 1_556
O14 Rb5 3.174380 1_556
O15 Ta5 1.815275 1_555
O15 Rb0 2.836736 1_555
O15 Rb4 2.836740 1_555
O15 Rb7 3.174236 1_554
O15 Rb3 3.174386 1_554
O16 Ta0 1.818413 1_555
O16 Rb6 2.868008 1_555
O16 Rb2 2.868019 1_554
O16 Rb3 2.868111 1_554
O16 Rb0 2.868113 1_555
O17 Ta1 1.818421 1_556
O17 Rb7 2.868008 1_555
O17 Rb4 2.868009 1_556
O17 Rb5 2.868110 1_556
O17 Rb1 2.868113 1_555
O18 Ta1 2.325573 1_445
O18 Ta0 2.325580 1_555
O18 Ta2 2.382848 1_555
O18 Ta4 2.382883 1_544
O18 Ta3 2.382883 1_444
O18 Ta5 2.382938 1_455
