# generated using pymatgen
data_TmNiGe2
_symmetry_space_group_name_H-M   'P 1'
_cell_length_a   9.15702759
_cell_length_b   9.15702759
_cell_length_c   9.15702759
_cell_angle_alpha   154.05646012
_cell_angle_beta   125.39338661
_cell_angle_gamma   61.41821782
_symmetry_Int_Tables_number   1
_chemical_formula_structural   TmNiGe2
_chemical_formula_sum   'Tm4 Ni4 Ge8'
_cell_volume   271.89177681
_cell_formula_units_Z   4
loop_
 _symmetry_equiv_pos_site_id
 _symmetry_equiv_pos_as_xyz
  1  'x, y, z'
loop_
 _atom_site_type_symbol
 _atom_site_label
 _atom_site_symmetry_multiplicity
 _atom_site_fract_x
 _atom_site_fract_y
 _atom_site_fract_z
 _atom_site_occupancy
  Tm  Tm0  1  0.20384035  0.20384035  -0.00000000  1
  Tm  Tm1  1  0.79615965  0.79615965  -0.00000000  1
  Tm  Tm2  1  0.23895722  -0.00000000  0.23895722  1
  Tm  Tm3  1  0.76104278  -0.00000000  0.76104278  1
  Ni  Ni0  1  0.60201769  0.35207973  0.24993797  1
  Ni  Ni1  1  0.39798231  0.64792027  0.75006203  1
  Ni  Ni2  1  0.10214176  0.35207973  0.75006203  1
  Ni  Ni3  1  0.89785824  0.64792027  0.24993797  1
  Ge  Ge0  1  0.07715881  0.57715881  0.50000000  1
  Ge  Ge1  1  0.92284119  0.42284119  0.50000000  1
  Ge  Ge2  1  0.53837523  0.19676098  0.34161325  1
  Ge  Ge3  1  0.46162477  0.80323902  0.65838675  1
  Ge  Ge4  1  0.85514673  0.19676098  0.65838675  1
  Ge  Ge5  1  0.14485327  0.80323902  0.34161325  1
  Ge  Ge6  1  0.42111312  0.42111312  0.00000000  1
  Ge  Ge7  1  0.57888688  0.57888688  -0.00000000  1
loop_
_geom_bond_atom_site_label_1
_geom_bond_atom_site_label_2
_geom_bond_distance
_geom_bond_site_symmetry_2
Ni0 Tm1 3.068097 1_556
Ni0 Tm1 3.068097 1_545
Ni0 Tm3 3.107830 1_565
Ni0 Tm3 3.107830 1_554
Ni0 Tm0 3.139559 1_555
Ni1 Tm0 3.068097 1_555
Ni1 Tm0 3.068097 1_566
Ni1 Tm2 3.107830 1_555
Ni1 Tm2 3.107830 1_566
Ni1 Tm1 3.139559 1_556
Ni2 Tm1 3.068097 1_456
Ni2 Tm1 3.068097 1_445
Ni2 Tm2 3.107830 1_566
Ni2 Tm2 3.107830 1_555
Ni2 Tm0 3.139559 1_556
Ni3 Tm0 3.068097 1_666
Ni3 Tm0 3.068097 1_655
Ni3 Tm3 3.107830 1_565
Ni3 Tm3 3.107830 1_554
Ni3 Tm1 3.139559 1_555
Ge0 Ni3 2.377886 1_455
Ge0 Ni1 2.377886 1_555
Ge0 Ge1 2.429869 1_455
Ge0 Tm0 2.864247 1_555
Ge0 Tm0 2.864247 1_566
Ge0 Tm3 3.119415 1_465
Ge0 Tm2 3.119415 1_555
Ge0 Tm3 3.119415 1_454
Ge0 Tm2 3.119415 1_566
Ge1 Ni2 2.377886 1_655
Ge1 Ni0 2.377886 1_555
Ge1 Tm1 2.864247 1_556
Ge1 Tm1 2.864247 1_545
Ge1 Tm3 3.119415 1_554
Ge1 Tm3 3.119415 1_565
Ge1 Tm2 3.119415 1_666
Ge1 Tm2 3.119415 1_655
Ge2 Ni1 2.325502 1_544
Ge2 Ni1 2.325506 1_555
Ge2 Ni0 2.564019 1_555
Ge2 Ge4 2.661102 1_555
Ge2 Tm0 2.871949 1_555
Ge2 Tm1 2.906022 1_545
Ge2 Tm1 2.906025 1_556
Ge2 Tm2 3.215970 1_555
Ge3 Ni0 2.325502 1_566
Ge3 Ni0 2.325506 1_555
Ge3 Ni1 2.564019 1_555
Ge3 Ge5 2.661102 1_555
Ge3 Tm1 2.871949 1_556
Ge3 Tm0 2.906022 1_566
Ge3 Tm0 2.906025 1_555
Ge3 Tm3 3.215970 1_565
Ge4 Ni3 2.325497 1_556
Ge4 Ni3 2.325501 1_545
Ge4 Ni2 2.564034 1_655
Ge4 Tm0 2.871950 1_656
Ge4 Tm1 2.906030 1_556
Ge4 Tm1 2.906033 1_545
Ge4 Tm3 3.215954 1_555
Ge5 Ni2 2.325497 1_554
Ge5 Ni2 2.325501 1_565
Ge5 Ni3 2.564034 1_455
Ge5 Tm1 2.871950 1_455
Ge5 Tm0 2.906030 1_555
Ge5 Tm0 2.906033 1_566
Ge5 Tm2 3.215954 1_565
Ge6 Ni0 2.364333 1_555
Ge6 Ni2 2.364333 1_554
Ge6 Ge7 2.484289 1_555
Ge6 Tm2 3.252216 1_554
Ge6 Tm2 3.252216 1_565
Ge6 Tm3 3.252216 1_554
Ge6 Tm3 3.252216 1_565
Ge7 Ni1 2.364333 1_554
Ge7 Ni3 2.364333 1_555
Ge7 Tm3 3.252216 1_554
Ge7 Tm2 3.252216 1_554
Ge7 Tm2 3.252216 1_565
Ge7 Tm3 3.252216 1_565
