# generated using pymatgen
data_CaCoBiO5
_symmetry_space_group_name_H-M   'P 1'
_cell_length_a   10.70575100
_cell_length_b   5.87517700
_cell_length_c   8.42385940
_cell_angle_alpha   72.54365047
_cell_angle_beta   90.00000000
_cell_angle_gamma   90.00000000
_symmetry_Int_Tables_number   1
_chemical_formula_structural   CaCoBiO5
_chemical_formula_sum   'Ca4 Co4 Bi4 O20'
_cell_volume   505.44381557
_cell_formula_units_Z   4
loop_
 _symmetry_equiv_pos_site_id
 _symmetry_equiv_pos_as_xyz
  1  'x, y, z'
loop_
 _atom_site_type_symbol
 _atom_site_label
 _atom_site_symmetry_multiplicity
 _atom_site_fract_x
 _atom_site_fract_y
 _atom_site_fract_z
 _atom_site_occupancy
  Ca  Ca0  1  0.09400800  0.53870600  0.80990100  1
  Ca  Ca1  1  0.90599200  0.46129400  0.19009900  1
  Ca  Ca2  1  0.59400800  0.46129400  0.69009900  1
  Ca  Ca3  1  0.40599200  0.53870600  0.30990100  1
  Co  Co0  1  0.37249500  0.13781600  0.04687600  1
  Co  Co1  1  0.62750500  0.86218400  0.95312400  1
  Co  Co2  1  0.87249500  0.86218400  0.45312400  1
  Co  Co3  1  0.12750500  0.13781600  0.54687600  1
  Bi  Bi0  1  0.89907500  0.00751600  0.84613000  1
  Bi  Bi1  1  0.10092500  0.99248400  0.15387000  1
  Bi  Bi2  1  0.60092500  0.00751600  0.34613000  1
  Bi  Bi3  1  0.39907500  0.99248400  0.65387000  1
  O  O0  1  0.93374700  0.82299800  0.66189200  1
  O  O1  1  0.02868900  0.25640200  0.68304900  1
  O  O2  1  0.78645400  0.14804100  0.33751800  1
  O  O3  1  0.45745100  0.77628900  0.49149700  1
  O  O4  1  0.71800300  0.70669200  0.48288700  1
  O  O5  1  0.78199700  0.70669200  0.98288700  1
  O  O6  1  0.47131100  0.25640200  0.18304900  1
  O  O7  1  0.52868900  0.74359800  0.81695100  1
  O  O8  1  0.54254900  0.22371100  0.50850300  1
  O  O9  1  0.43374700  0.17700200  0.83810800  1
  O  O10  1  0.28199700  0.29330800  0.51711300  1
  O  O11  1  0.06625300  0.17700200  0.33810800  1
  O  O12  1  0.56625300  0.82299800  0.16189200  1
  O  O13  1  0.21800300  0.29330800  0.01711300  1
  O  O14  1  0.95745100  0.22371100  0.00850300  1
  O  O15  1  0.04254900  0.77628900  0.99149700  1
  O  O16  1  0.21354600  0.85195900  0.66248200  1
  O  O17  1  0.97131100  0.74359800  0.31695100  1
  O  O18  1  0.28645400  0.85195900  0.16248200  1
  O  O19  1  0.71354600  0.14804100  0.83751800  1
loop_
_geom_bond_atom_site_label_1
_geom_bond_atom_site_label_2
_geom_bond_distance
_geom_bond_site_symmetry_2
Ca0 O16 2.279437 1_555
Ca0 O13 2.319008 1_556
Ca0 O1 2.333476 1_555
Ca0 O15 2.423438 1_555
Ca0 O0 2.457352 1_455
Ca0 O14 2.550208 1_456
Ca1 O2 2.279437 1_555
Ca1 O5 2.319008 1_554
Ca1 O17 2.333476 1_555
Ca1 O14 2.423438 1_555
Ca1 O11 2.457352 1_655
Ca1 O15 2.550208 1_654
Ca2 O19 2.279437 1_555
Ca2 O4 2.319008 1_555
Ca2 O7 2.333476 1_555
Ca2 O8 2.423438 1_555
Ca2 O9 2.457352 1_555
Ca2 O3 2.550208 1_555
Ca3 O18 2.279437 1_555
Ca3 O10 2.319008 1_555
Ca3 O6 2.333476 1_555
Ca3 O3 2.423438 1_555
Ca3 O12 2.457352 1_555
Ca3 O8 2.550208 1_555
Co0 O9 1.825619 1_554
Co0 O6 1.843880 1_555
Co0 O13 1.869643 1_555
Co0 O18 1.906882 1_545
Co1 O12 1.825619 1_556
Co1 O7 1.843880 1_555
Co1 O5 1.869643 1_555
Co1 O19 1.906882 1_565
Co2 O0 1.825619 1_555
Co2 O17 1.843880 1_555
Co2 O4 1.869643 1_555
Co2 O2 1.906882 1_565
Co3 O11 1.825619 1_555
Co3 O1 1.843880 1_555
Co3 O10 1.869643 1_555
Co3 O16 1.906882 1_545
Bi0 O19 2.143842 1_555
Bi0 O15 2.169394 1_645
Bi0 O0 2.175111 1_545
Bi0 O1 2.178463 1_655
Bi0 O5 2.190960 1_545
Bi0 O14 2.217473 1_556
Bi1 O18 2.143842 1_555
Bi1 O14 2.169394 1_465
Bi1 O11 2.175111 1_565
Bi1 O17 2.178463 1_455
Bi1 O13 2.190960 1_565
Bi1 O15 2.217473 1_554
Bi2 O2 2.143842 1_555
Bi2 O3 2.169394 1_545
Bi2 O12 2.175111 1_545
Bi2 O6 2.178463 1_555
Bi2 O4 2.190960 1_545
Bi2 O8 2.217473 1_555
Bi3 O16 2.143842 1_555
Bi3 O8 2.169394 1_565
Bi3 O9 2.175111 1_565
Bi3 O7 2.178463 1_555
Bi3 O10 2.190960 1_565
Bi3 O3 2.217473 1_555
