# generated using pymatgen
data_Li9Mn7O16
_symmetry_space_group_name_H-M   'P 1'
_cell_length_a   6.07234500
_cell_length_b   6.52272999
_cell_length_c   8.71069047
_cell_angle_alpha   82.76772775
_cell_angle_beta   109.61048209
_cell_angle_gamma   113.15459645
_symmetry_Int_Tables_number   1
_chemical_formula_structural   Li9Mn7O16
_chemical_formula_sum   'Li9 Mn7 O16'
_cell_volume   298.81584134
_cell_formula_units_Z   1
loop_
 _symmetry_equiv_pos_site_id
 _symmetry_equiv_pos_as_xyz
  1  'x, y, z'
loop_
 _atom_site_type_symbol
 _atom_site_label
 _atom_site_symmetry_multiplicity
 _atom_site_fract_x
 _atom_site_fract_y
 _atom_site_fract_z
 _atom_site_occupancy
  Li  Li0  1  0.74595700  0.76070800  0.24023000  1
  Li  Li1  1  0.25247300  0.99862100  0.50312000  1
  Li  Li2  1  0.25194900  0.74856900  0.24629200  1
  Li  Li3  1  0.74752700  0.00137900  0.49688000  1
  Li  Li4  1  0.74805100  0.25143100  0.75370800  1
  Li  Li5  1  0.25404300  0.23929200  0.75977000  1
  Li  Li6  1  0.23537300  0.49119000  0.00132700  1
  Li  Li7  1  0.76462700  0.50881000  0.99867300  1
  Li  Li8  1  0.50000000  0.00000000  0.00000000  1
  Mn  Mn0  1  0.00000000  0.00000000  0.00000000  1
  Mn  Mn1  1  0.49350700  0.24393300  0.24686000  1
  Mn  Mn2  1  0.00000000  0.50000000  0.50000000  1
  Mn  Mn3  1  0.50649300  0.75606700  0.75314000  1
  Mn  Mn4  1  0.98392300  0.24169100  0.24724500  1
  Mn  Mn5  1  0.50000000  0.50000000  0.50000000  1
  Mn  Mn6  1  0.01607700  0.75830900  0.75275500  1
  O  O0  1  0.09849500  0.00073900  0.23678700  1
  O  O1  1  0.60533800  0.25673400  0.48969100  1
  O  O2  1  0.63195400  0.02209200  0.24997600  1
  O  O3  1  0.10751500  0.25806600  0.48759300  1
  O  O4  1  0.11242100  0.50754500  0.74201400  1
  O  O5  1  0.62735300  0.51645500  0.74130800  1
  O  O6  1  0.66229600  0.77597500  0.98802100  1
  O  O7  1  0.11248700  0.76051100  0.98876300  1
  O  O8  1  0.37264700  0.48354500  0.25869200  1
  O  O9  1  0.89248500  0.74193400  0.51240700  1
  O  O10  1  0.88757900  0.49245500  0.25798600  1
  O  O11  1  0.39466200  0.74326600  0.51030900  1
  O  O12  1  0.36804600  0.97790800  0.75002400  1
  O  O13  1  0.90150500  0.99926100  0.76321300  1
  O  O14  1  0.88751300  0.23948900  0.01123700  1
  O  O15  1  0.33770400  0.22402500  0.01197900  1
loop_
_geom_bond_atom_site_label_1
_geom_bond_atom_site_label_2
_geom_bond_distance
_geom_bond_site_symmetry_2
Li0 O6 2.080859 1_554
Li0 O2 2.096983 1_565
Li0 O0 2.104842 1_665
Li0 O10 2.202504 1_555
Li0 O9 2.241472 1_555
Li0 O8 2.319804 1_555
Li1 O12 2.030900 1_555
Li1 O11 2.142919 1_555
Li1 O3 2.165844 1_565
Li1 O1 2.172804 1_565
Li1 O9 2.189656 1_455
Li1 O0 2.191486 1_565
Li2 O8 2.105567 1_555
Li2 O7 2.118521 1_554
Li2 O0 2.167931 1_565
Li2 O11 2.169538 1_555
Li2 O10 2.213204 1_455
Li2 O2 2.288195 1_565
Li3 O2 2.030900 1_555
Li3 O1 2.142919 1_555
Li3 O9 2.165844 1_545
Li3 O11 2.172804 1_545
Li3 O3 2.189656 1_655
Li3 O13 2.191486 1_545
Li4 O5 2.105567 1_555
Li4 O14 2.118521 1_556
Li4 O13 2.167931 1_545
Li4 O1 2.169538 1_555
Li4 O4 2.213204 1_655
Li4 O12 2.288195 1_545
Li5 O15 2.080859 1_556
Li5 O12 2.096983 1_545
Li5 O13 2.104842 1_445
Li5 O4 2.202504 1_555
Li5 O3 2.241472 1_555
Li5 O5 2.319804 1_555
Li6 O15 2.050298 1_555
Li6 O8 2.115014 1_555
Li6 O14 2.127020 1_455
Li6 O4 2.130941 1_554
Li6 O7 2.140678 1_554
Li6 O6 2.558325 1_554
Li7 O6 2.050298 1_555
Li7 O5 2.115014 1_555
Li7 O7 2.127020 1_655
Li7 O10 2.130941 1_556
Li7 O14 2.140678 1_556
Li7 O15 2.558325 1_556
Li8 O2 2.054555 1_555
Li8 O12 2.054555 1_544
Li8 O15 2.087425 1_555
Li8 O6 2.087425 1_544
Li8 O14 2.231603 1_555
Li8 O7 2.231603 1_544
Mn0 O0 1.945287 1_555
Mn0 O13 1.945287 1_444
Mn0 O14 1.959309 1_455
Mn0 O7 1.959309 1_544
Mn0 O6 1.972194 1_444
Mn0 O15 1.972194 1_555
Mn1 O2 1.932052 1_555
Mn1 O15 1.941372 1_555
Mn1 O1 1.994491 1_555
Mn1 O8 1.996337 1_555
Mn1 O0 2.275738 1_555
Mn1 O10 2.279611 1_555
Mn2 O9 1.956721 1_455
Mn2 O3 1.956721 1_555
Mn2 O4 1.986521 1_555
Mn2 O10 1.986521 1_455
Mn2 O11 2.273778 1_555
Mn2 O1 2.273778 1_455
Mn3 O12 1.932052 1_555
Mn3 O6 1.941372 1_555
Mn3 O11 1.994491 1_555
Mn3 O5 1.996337 1_555
Mn3 O13 2.275738 1_555
Mn3 O4 2.279611 1_555
Mn4 O14 1.939633 1_555
Mn4 O10 1.963223 1_555
Mn4 O3 1.973924 1_655
Mn4 O0 1.975084 1_655
Mn4 O2 2.058695 1_555
Mn4 O8 2.241331 1_655
Mn5 O1 1.951319 1_555
Mn5 O11 1.951319 1_555
Mn5 O5 1.981969 1_555
Mn5 O8 1.981969 1_555
Mn5 O9 2.257078 1_555
Mn5 O3 2.257078 1_555
Mn6 O7 1.939633 1_555
Mn6 O4 1.963223 1_555
Mn6 O9 1.973924 1_455
Mn6 O13 1.975084 1_455
Mn6 O12 2.058695 1_555
Mn6 O5 2.241331 1_455
