# generated using pymatgen
data_K8Zr3Si12SnO40
_symmetry_space_group_name_H-M   'P 1'
_cell_length_a   7.24679300
_cell_length_b   10.33907464
_cell_length_c   13.53332192
_cell_angle_alpha   90.29605169
_cell_angle_beta   90.05466107
_cell_angle_gamma   90.08221076
_symmetry_Int_Tables_number   1
_chemical_formula_structural   K8Zr3Si12SnO40
_chemical_formula_sum   'K8 Zr3 Si12 Sn1 O40'
_cell_volume   1013.97090614
_cell_formula_units_Z   1
loop_
 _symmetry_equiv_pos_site_id
 _symmetry_equiv_pos_as_xyz
  1  'x, y, z'
loop_
 _atom_site_type_symbol
 _atom_site_label
 _atom_site_symmetry_multiplicity
 _atom_site_fract_x
 _atom_site_fract_y
 _atom_site_fract_z
 _atom_site_occupancy
  K  K0  1  0.65591700  0.21948900  0.13777900  1
  K  K1  1  0.15830200  0.28048400  0.86310700  1
  K  K2  1  0.34337000  0.72077700  0.36264600  1
  K  K3  1  0.84222200  0.77432900  0.63555900  1
  K  K4  1  0.21697100  0.43314300  0.58245200  1
  K  K5  1  0.72036000  0.06997800  0.41866800  1
  K  K6  1  0.78129700  0.92966600  0.91753600  1
  K  K7  1  0.28034800  0.56888400  0.08135000  1
  Zr  Zr0  1  0.25868800  0.05455500  0.29238300  1
  Zr  Zr1  1  0.24353900  0.94573000  0.79111300  1
  Zr  Zr2  1  0.74216000  0.55329000  0.20865900  1
  Si  Si0  1  0.23060600  0.03386500  0.54928700  1
  Si  Si1  1  0.73118000  0.46857600  0.45457900  1
  Si  Si2  1  0.76827200  0.52775600  0.95027300  1
  Si  Si3  1  0.27025200  0.96897100  0.04838000  1
  Si  Si4  1  0.08013400  0.63282000  0.83100700  1
  Si  Si5  1  0.58421800  0.86580600  0.16659900  1
  Si  Si6  1  0.91689900  0.13772800  0.66799400  1
  Si  Si7  1  0.41643300  0.36717000  0.33470900  1
  Si  Si8  1  0.50379600  0.17723900  0.67445700  1
  Si  Si9  1  0.00199000  0.32739200  0.32788000  1
  Si  Si10  1  0.49608500  0.66822400  0.82432100  1
  Si  Si11  1  0.99794500  0.82692100  0.17250400  1
  Sn  Sn0  1  0.75850900  0.44452800  0.71006300  1
  O  O0  1  0.31312700  0.72446400  0.57193400  1
  O  O1  1  0.81274600  0.77625600  0.42795500  1
  O  O2  1  0.68410000  0.21986200  0.92778300  1
  O  O3  1  0.18561000  0.27597400  0.07191300  1
  O  O4  1  0.77799200  0.51265600  0.56616900  1
  O  O5  1  0.27387900  0.98971300  0.43770800  1
  O  O6  1  0.22796900  0.01200900  0.93649400  1
  O  O7  1  0.72766000  0.48524000  0.06222700  1
  O  O8  1  0.74633600  0.41025100  0.86700300  1
  O  O9  1  0.24625000  0.08422800  0.13188900  1
  O  O10  1  0.25439700  0.91783000  0.63150200  1
  O  O11  1  0.75687100  0.58278600  0.37041400  1
  O  O12  1  0.94285500  0.29259400  0.68749400  1
  O  O13  1  0.44086600  0.21281400  0.31583700  1
  O  O14  1  0.05966000  0.78772300  0.81370700  1
  O  O15  1  0.56022100  0.71154300  0.18473000  1
  O  O16  1  0.99853600  0.55071000  0.73771200  1
  O  O17  1  0.50403300  0.94980000  0.25861100  1
  O  O18  1  0.99971400  0.05360600  0.75882600  1
  O  O19  1  0.49639300  0.45023500  0.24274500  1
  O  O20  1  0.59842400  0.60730800  0.72841000  1
  O  O21  1  0.09761800  0.89028400  0.26807800  1
  O  O22  1  0.40496500  0.11108000  0.76903500  1
  O  O23  1  0.90340500  0.38992800  0.23234700  1
  O  O24  1  0.36901600  0.15687000  0.57682600  1
  O  O25  1  0.86745700  0.34530800  0.42567800  1
  O  O26  1  0.62676500  0.64844800  0.92341200  1
  O  O27  1  0.13166200  0.84600900  0.07441200  1
  O  O28  1  0.01733100  0.09054200  0.56275700  1
  O  O29  1  0.51607800  0.41518200  0.44010900  1
  O  O30  1  0.98128900  0.58519900  0.93610000  1
  O  O31  1  0.48409300  0.91339600  0.06149300  1
  O  O32  1  0.69836900  0.10175500  0.64633000  1
  O  O33  1  0.19718500  0.40379900  0.35576600  1
  O  O34  1  0.29895700  0.59324400  0.84978100  1
  O  O35  1  0.80303200  0.90288600  0.14505100  1
  O  O36  1  0.52990700  0.33241600  0.68718100  1
  O  O37  1  0.03356900  0.17309300  0.31446100  1
  O  O38  1  0.46563900  0.82285000  0.81168100  1
  O  O39  1  0.96653300  0.67279100  0.18513300  1
loop_
_geom_bond_atom_site_label_1
_geom_bond_atom_site_label_2
_geom_bond_distance
_geom_bond_site_symmetry_2
K0 O23 2.814798 1_555
K0 O2 2.849489 1_554
K0 O13 2.872068 1_555
K0 O7 2.981796 1_555
K0 O19 3.003655 1_555
K0 O9 3.280575 1_555
K1 O22 2.806061 1_555
K1 O3 2.833200 1_556
K1 O12 2.845742 1_455
K1 O18 2.961380 1_455
K1 O6 2.996297 1_555
K1 O8 3.275169 1_455
K1 O34 3.394834 1_555
K2 O21 2.812258 1_555
K2 O0 2.841101 1_555
K2 O15 2.877741 1_555
K2 O17 2.995734 1_555
K2 O5 2.998798 1_555
K3 O20 2.774943 1_555
K3 O1 2.817652 1_555
K3 O14 2.881558 1_655
K3 O4 2.896086 1_555
K3 O16 2.928714 1_555
K4 O12 2.845518 1_455
K4 O36 2.872652 1_555
K4 O16 2.895464 1_455
K4 O29 2.906746 1_555
K4 O24 3.063634 1_555
K4 O33 3.084398 1_555
K4 O0 3.094592 1_555
K5 O13 2.871310 1_555
K5 O37 2.879577 1_655
K5 O28 2.909569 1_655
K5 O17 2.941702 1_545
K5 O25 3.039257 1_555
K5 O32 3.101075 1_555
K5 O1 3.113822 1_545
K6 O14 2.861822 1_655
K6 O31 2.910833 1_556
K6 O38 2.911142 1_555
K6 O18 2.964768 1_565
K6 O2 3.085363 1_565
K6 O35 3.096761 1_556
K6 O26 3.115667 1_555
K7 O15 2.865505 1_555
K7 O39 2.880296 1_455
K7 O30 2.930132 1_454
K7 O19 2.958632 1_555
K7 O27 3.064429 1_555
K7 O3 3.106259 1_555
K7 O34 3.148301 1_554
O4 Si1 1.610871 1_555
O4 Sn0 2.079117 1_555
O5 Si0 1.606586 1_565
O5 Zr0 2.083990 1_565
O6 Si3 1.609699 1_546
O6 Zr1 2.083276 1_545
O7 Si2 1.607098 1_554
O7 Zr2 2.101956 1_555
O8 Si2 1.660162 1_555
O8 Sn0 2.156955 1_555
O9 Si3 1.647600 1_545
O9 Zr0 2.196929 1_555
O10 Si0 1.649541 1_565
O10 Zr1 2.179275 1_555
O11 Si1 1.655318 1_555
O11 Zr2 2.211111 1_555
O12 Si6 1.632007 1_555
O12 Sn0 2.085042 1_555
O13 Si7 1.624856 1_555
O13 Zr0 2.123358 1_555
O14 Si4 1.626743 1_555
O14 Zr1 2.130172 1_555
O15 Si5 1.624070 1_555
O15 Zr2 2.128665 1_555
O16 Si4 1.628054 1_655
O16 Sn0 2.088029 1_555
O17 Si5 1.622978 1_555
O17 Zr0 2.131913 1_565
O18 Si6 1.624451 1_555
O18 Zr1 2.136875 1_645
O19 Si7 1.622744 1_555
O19 Zr2 2.126338 1_555
O20 Si10 1.620555 1_555
O20 Sn0 2.059562 1_555
O21 Si11 1.616162 1_455
O21 Zr0 2.083998 1_565
O22 Si8 1.621270 1_555
O22 Zr1 2.092983 1_545
O23 Si9 1.614988 1_655
O23 Zr2 2.081223 1_555
O24 Si8 1.654741 1_555
O24 Si0 1.659236 1_555
O25 Si9 1.654385 1_655
O25 Si1 1.658845 1_555
O26 Si10 1.654680 1_555
O26 Si2 1.657860 1_555
O27 Si11 1.656757 1_455
O27 Si3 1.658516 1_555
O28 Si0 1.663551 1_555
O28 Si6 1.670896 1_455
O29 Si1 1.663968 1_555
O29 Si7 1.670985 1_555
O30 Si2 1.664814 1_555
O30 Si4 1.669281 1_655
O31 Si3 1.663186 1_555
O31 Si5 1.672776 1_555
O32 Si6 1.651819 1_555
O32 Si8 1.656282 1_555
O33 Si7 1.658473 1_555
O33 Si9 1.661355 1_555
O34 Si4 1.657950 1_555
O34 Si10 1.661613 1_555
O35 Si5 1.657333 1_555
O35 Si11 1.659891 1_555
O36 Si8 1.623492 1_555
O36 Sn0 2.042968 1_555
O37 Si9 1.621263 1_555
O37 Zr0 2.062916 1_555
O38 Si10 1.624044 1_555
O38 Zr1 2.071415 1_555
O39 Si11 1.619357 1_555
O39 Zr2 2.066644 1_555
