# generated using pymatgen
data_PrSmFe4
_symmetry_space_group_name_H-M   'P 1'
_cell_length_a   5.27689183
_cell_length_b   5.27689183
_cell_length_c   5.27689183
_cell_angle_alpha   60.00000000
_cell_angle_beta   60.00000000
_cell_angle_gamma   60.00000000
_symmetry_Int_Tables_number   1
_chemical_formula_structural   PrSmFe4
_chemical_formula_sum   'Pr1 Sm1 Fe4'
_cell_volume   103.90096439
_cell_formula_units_Z   1
loop_
 _symmetry_equiv_pos_site_id
 _symmetry_equiv_pos_as_xyz
  1  'x, y, z'
loop_
 _atom_site_type_symbol
 _atom_site_label
 _atom_site_symmetry_multiplicity
 _atom_site_fract_x
 _atom_site_fract_y
 _atom_site_fract_z
 _atom_site_occupancy
  Pr  Pr0  1  0.25000000  0.25000000  0.25000000  1
  Sm  Sm0  1  0.00000000  0.00000000  0.00000000  1
  Fe  Fe0  1  0.62493700  0.62493700  0.12518800  1
  Fe  Fe1  1  0.62493700  0.12518800  0.62493700  1
  Fe  Fe2  1  0.12518800  0.62493700  0.62493700  1
  Fe  Fe3  1  0.62493700  0.62493700  0.62493700  1
loop_
_geom_bond_atom_site_label_1
_geom_bond_atom_site_label_2
_geom_bond_distance
_geom_bond_site_symmetry_2
Pr0 Sm0 3.231423 1_565
Pr0 Sm0 3.231423 1_655
Pr0 Sm0 3.231423 1_556
Pr0 Sm0 3.231423 1_555
Fe0 Fe3 2.637121 1_555
Fe0 Fe2 2.637121 1_555
Fe0 Fe1 2.637121 1_555
Fe0 Fe3 2.639770 1_554
Fe0 Fe1 2.639770 1_564
Fe0 Fe2 2.639770 1_654
Fe0 Pr0 3.093708 1_555
Fe0 Pr0 3.093713 1_655
Fe0 Pr0 3.093713 1_565
Fe0 Sm0 3.093992 1_655
Fe0 Sm0 3.093992 1_565
Fe0 Sm0 3.093996 1_665
Fe1 Fe3 2.637121 1_555
Fe1 Fe2 2.637121 1_555
Fe1 Fe3 2.639770 1_545
Fe1 Fe2 2.639770 1_645
Fe1 Pr0 3.093708 1_555
Fe1 Pr0 3.093713 1_655
Fe1 Pr0 3.093713 1_556
Fe1 Sm0 3.093992 1_655
Fe1 Sm0 3.093992 1_556
Fe1 Sm0 3.093996 1_656
Fe2 Fe3 2.637121 1_555
Fe2 Fe3 2.639770 1_455
Fe2 Pr0 3.093708 1_555
Fe2 Pr0 3.093713 1_556
Fe2 Pr0 3.093713 1_565
Fe2 Sm0 3.093992 1_556
Fe2 Sm0 3.093992 1_565
Fe2 Sm0 3.093996 1_566
Fe3 Pr0 3.093710 1_565
Fe3 Pr0 3.093710 1_655
Fe3 Pr0 3.093710 1_556
Fe3 Sm0 3.093994 1_566
Fe3 Sm0 3.093994 1_656
Fe3 Sm0 3.093994 1_665
