# generated using pymatgen
data_MnFeCo(PO4)3
_symmetry_space_group_name_H-M   'P 1'
_cell_length_a   5.97616800
_cell_length_b   9.87145600
_cell_length_c   14.64087239
_cell_angle_alpha   89.74116599
_cell_angle_beta   90.00000000
_cell_angle_gamma   90.00000000
_symmetry_Int_Tables_number   1
_chemical_formula_structural   MnFeCo(PO4)3
_chemical_formula_sum   'Mn4 Fe4 Co4 P12 O48'
_cell_volume   863.70719159
_cell_formula_units_Z   4
loop_
 _symmetry_equiv_pos_site_id
 _symmetry_equiv_pos_as_xyz
  1  'x, y, z'
loop_
 _atom_site_type_symbol
 _atom_site_label
 _atom_site_symmetry_multiplicity
 _atom_site_fract_x
 _atom_site_fract_y
 _atom_site_fract_z
 _atom_site_occupancy
  Mn  Mn0  1  0.00000000  0.21507600  0.14493800  1
  Mn  Mn1  1  0.00000000  0.21725700  0.47867700  1
  Mn  Mn2  1  0.00000000  0.21329800  0.81027700  1
  Mn  Mn3  1  0.50000000  0.28629800  0.64554700  1
  Fe  Fe0  1  0.50000000  0.27750500  0.31909600  1
  Fe  Fe1  1  0.50000000  0.27662900  0.98558600  1
  Fe  Fe2  1  0.00000000  0.72674200  0.01197900  1
  Fe  Fe3  1  0.00000000  0.72791300  0.34397900  1
  Co  Co0  1  0.00000000  0.72570400  0.67922800  1
  Co  Co1  1  0.50000000  0.77089000  0.84272000  1
  Co  Co2  1  0.50000000  0.77191900  0.17873200  1
  Co  Co3  1  0.50000000  0.77922100  0.51801900  1
  P  P0  1  0.50000000  0.09528500  0.80427000  1
  P  P1  1  0.50000000  0.09792600  0.47170600  1
  P  P2  1  0.50000000  0.09436500  0.13799500  1
  P  P3  1  0.00000000  0.39935600  0.30500800  1
  P  P4  1  0.00000000  0.39866100  0.97184900  1
  P  P5  1  0.00000000  0.40265300  0.63906600  1
  P  P6  1  0.50000000  0.60211300  0.03045900  1
  P  P7  1  0.50000000  0.60233000  0.36569800  1
  P  P8  1  0.50000000  0.59854800  0.69621300  1
  P  P9  1  0.00000000  0.90279300  0.52713100  1
  P  P10  1  0.00000000  0.89870500  0.86167600  1
  P  P11  1  0.00000000  0.90236000  0.19498700  1
  O  O0  1  0.00000000  0.05451500  0.55152000  1
  O  O1  1  0.00000000  0.05506200  0.21770800  1
  O  O2  1  0.00000000  0.05164100  0.88078600  1
  O  O3  1  0.50000000  0.12213300  0.57519200  1
  O  O4  1  0.50000000  0.11805300  0.90718600  1
  O  O5  1  0.50000000  0.11868800  0.24057700  1
  O  O6  1  0.29845700  0.16631600  0.75474200  1
  O  O7  1  0.70154300  0.16631600  0.75474200  1
  O  O8  1  0.30130200  0.16893300  0.08759600  1
  O  O9  1  0.69869800  0.16893300  0.08759600  1
  O  O10  1  0.30092100  0.17269600  0.42183200  1
  O  O11  1  0.69907900  0.17269600  0.42183200  1
  O  O12  1  0.79574200  0.32761400  0.25897900  1
  O  O13  1  0.20425800  0.32761400  0.25897900  1
  O  O14  1  0.20409500  0.32697200  0.92566600  1
  O  O15  1  0.79590500  0.32697200  0.92566600  1
  O  O16  1  0.79851000  0.33325800  0.58986800  1
  O  O17  1  0.20149000  0.33325800  0.58986800  1
  O  O18  1  0.00000000  0.37943400  0.74295600  1
  O  O19  1  0.00000000  0.37842900  0.07709200  1
  O  O20  1  0.00000000  0.37968200  0.41026200  1
  O  O21  1  0.50000000  0.45031100  0.05024000  1
  O  O22  1  0.50000000  0.44996500  0.38461200  1
  O  O23  1  0.50000000  0.44544000  0.71911500  1
  O  O24  1  0.00000000  0.55182300  0.28640300  1
  O  O25  1  0.00000000  0.55133400  0.95338800  1
  O  O26  1  0.00000000  0.55736800  0.62112100  1
  O  O27  1  0.50000000  0.61722200  0.59215000  1
  O  O28  1  0.50000000  0.62748700  0.92631100  1
  O  O29  1  0.50000000  0.62731400  0.26093200  1
  O  O30  1  0.29741800  0.67523400  0.07817100  1
  O  O31  1  0.70258200  0.67523400  0.07817100  1
  O  O32  1  0.29736300  0.67525300  0.41245100  1
  O  O33  1  0.70263700  0.67525300  0.41245100  1
  O  O34  1  0.29831600  0.67022200  0.74540400  1
  O  O35  1  0.70168400  0.67022200  0.74540400  1
  O  O36  1  0.79648800  0.82870100  0.57567100  1
  O  O37  1  0.20351200  0.82870100  0.57567100  1
  O  O38  1  0.80028400  0.82952100  0.24498400  1
  O  O39  1  0.19971600  0.82952100  0.24498400  1
  O  O40  1  0.79940300  0.82832900  0.91102400  1
  O  O41  1  0.20059700  0.82832900  0.91102400  1
  O  O42  1  0.00000000  0.87477700  0.75699100  1
  O  O43  1  0.00000000  0.88386000  0.09163800  1
  O  O44  1  0.00000000  0.88426100  0.42432100  1
  O  O45  1  0.50000000  0.94103500  0.78406200  1
  O  O46  1  0.50000000  0.94735600  0.44963200  1
  O  O47  1  0.50000000  0.94184600  0.11693100  1
loop_
_geom_bond_atom_site_label_1
_geom_bond_atom_site_label_2
_geom_bond_distance
_geom_bond_site_symmetry_2
Mn0 O19 1.890101 1_555
Mn0 O1 1.901303 1_555
Mn0 O8 2.039125 1_555
Mn0 O9 2.039125 1_455
Mn0 O12 2.351321 1_455
Mn0 O13 2.351321 1_555
Mn1 O20 1.886691 1_555
Mn1 O0 1.924254 1_555
Mn1 O10 2.030650 1_555
Mn1 O11 2.030650 1_455
Mn1 O17 2.329852 1_555
Mn1 O16 2.329852 1_455
Mn2 O2 1.896664 1_555
Mn2 O18 1.909579 1_555
Mn2 O6 2.015176 1_555
Mn2 O7 2.015176 1_455
Mn2 O15 2.370240 1_455
Mn2 O14 2.370240 1_555
Mn3 O23 1.908758 1_555
Mn3 O3 1.924130 1_555
Mn3 O17 2.014565 1_555
Mn3 O16 2.014565 1_555
Mn3 O7 2.322127 1_555
Mn3 O6 2.322127 1_555
Fe0 O5 1.948253 1_555
Fe0 O22 1.957834 1_555
Fe0 O12 2.034490 1_555
Fe0 O13 2.034490 1_555
Fe0 O11 2.175840 1_555
Fe0 O10 2.175840 1_555
Fe1 O4 1.945298 1_555
Fe1 O21 1.962190 1_556
Fe1 O15 2.034653 1_555
Fe1 O14 2.034653 1_555
Fe1 O9 2.180941 1_556
Fe1 O8 2.180941 1_556
Fe2 O25 1.935842 1_554
Fe2 O43 1.944761 1_555
Fe2 O30 2.086258 1_555
Fe2 O31 2.086258 1_455
Fe2 O40 2.148035 1_454
Fe2 O41 2.148035 1_554
Fe3 O24 1.935301 1_555
Fe3 O44 1.944752 1_555
Fe3 O32 2.104413 1_555
Fe3 O33 2.104413 1_455
Fe3 O39 2.125588 1_555
Fe3 O38 2.125588 1_455
Co0 O42 1.864637 1_555
Co0 O26 1.870253 1_555
Co0 O34 2.100527 1_555
Co0 O35 2.100527 1_455
Co0 O36 2.190380 1_455
Co0 O37 2.190380 1_555
Co1 O28 1.867099 1_555
Co1 O45 1.882949 1_555
Co1 O35 2.117329 1_555
Co1 O34 2.117329 1_555
Co1 O41 2.127960 1_555
Co1 O40 2.127960 1_555
Co2 O29 1.862925 1_555
Co2 O47 1.902301 1_555
Co2 O38 2.118864 1_555
Co2 O39 2.118864 1_555
Co2 O31 2.134712 1_555
Co2 O30 2.134712 1_555
Co3 O27 1.928631 1_555
Co3 O46 1.934478 1_555
Co3 O37 2.023427 1_555
Co3 O36 2.023427 1_555
Co3 O33 2.218797 1_555
Co3 O32 2.218797 1_555
O0 P9 1.541263 1_545
O1 P11 1.545127 1_545
O2 P10 1.536650 1_545
O3 P1 1.534919 1_555
O4 P0 1.524454 1_555
O5 P2 1.522032 1_555
O6 P0 1.569582 1_555
O7 P0 1.569582 1_555
O8 P2 1.578432 1_555
O9 P2 1.578432 1_555
O10 P1 1.577515 1_555
O11 P1 1.577515 1_555
O12 P3 1.565268 1_655
O13 P3 1.565268 1_555
O14 P4 1.565248 1_555
O15 P4 1.565248 1_655
O16 P5 1.562852 1_655
O17 P5 1.562852 1_555
O18 P5 1.537189 1_555
O19 P4 1.552844 1_554
O20 P3 1.552330 1_555
O21 P6 1.524951 1_555
O22 P7 1.528113 1_555
O23 P8 1.546667 1_555
O24 P3 1.528311 1_555
O25 P4 1.529947 1_555
O26 P5 1.548526 1_555
O27 P8 1.533857 1_555
O28 P6 1.544136 1_556
O29 P7 1.552466 1_555
O30 P6 1.574560 1_555
O31 P6 1.574560 1_555
O32 P7 1.567704 1_555
O33 P7 1.567704 1_555
O34 P8 1.573730 1_555
O35 P8 1.573730 1_555
O36 P9 1.585714 1_655
O37 P9 1.585714 1_555
O38 P11 1.572449 1_655
O39 P11 1.572449 1_555
O40 P10 1.561160 1_655
O41 P10 1.561160 1_555
O42 P10 1.551828 1_555
O43 P11 1.524919 1_555
O44 P9 1.517124 1_555
O45 P0 1.552461 1_565
O46 P1 1.522501 1_565
O47 P2 1.538209 1_565
