# generated using pymatgen
data_Dy2Pt2O7
_symmetry_space_group_name_H-M   'P 1'
_cell_length_a   7.20462675
_cell_length_b   7.20462675
_cell_length_c   7.20462675
_cell_angle_alpha   60.00000000
_cell_angle_beta   60.00000000
_cell_angle_gamma   60.00000000
_symmetry_Int_Tables_number   1
_chemical_formula_structural   Dy2Pt2O7
_chemical_formula_sum   'Dy4 Pt4 O14'
_cell_volume   264.43531897
_cell_formula_units_Z   2
loop_
 _symmetry_equiv_pos_site_id
 _symmetry_equiv_pos_as_xyz
  1  'x, y, z'
loop_
 _atom_site_type_symbol
 _atom_site_label
 _atom_site_symmetry_multiplicity
 _atom_site_fract_x
 _atom_site_fract_y
 _atom_site_fract_z
 _atom_site_occupancy
  Dy  Dy0  1  0.12500000  0.62500000  0.12500000  1
  Dy  Dy1  1  0.12500000  0.12500000  0.62500000  1
  Dy  Dy2  1  0.62500000  0.12500000  0.12500000  1
  Dy  Dy3  1  0.12500000  0.12500000  0.12500000  1
  Pt  Pt0  1  0.62500000  0.62500000  0.62500000  1
  Pt  Pt1  1  0.12500000  0.62500000  0.62500000  1
  Pt  Pt2  1  0.62500000  0.12500000  0.62500000  1
  Pt  Pt3  1  0.62500000  0.62500000  0.12500000  1
  O  O0  1  0.28447646  0.71552354  0.71552354  1
  O  O1  1  0.53447646  0.96552354  0.96552354  1
  O  O2  1  0.71552354  0.28447646  0.71552354  1
  O  O3  1  0.28447646  0.28447646  0.71552354  1
  O  O4  1  0.71552354  0.71552354  0.28447646  1
  O  O5  1  0.00000000  -0.00000000  0.00000000  1
  O  O6  1  0.28447646  0.71552354  0.28447646  1
  O  O7  1  0.96552354  0.53447646  0.96552354  1
  O  O8  1  0.96552354  0.96552354  0.53447646  1
  O  O9  1  0.53447646  0.53447646  0.96552354  1
  O  O10  1  0.25000000  0.25000000  0.25000000  1
  O  O11  1  0.53447646  0.96552354  0.53447646  1
  O  O12  1  0.71552354  0.28447646  0.28447646  1
  O  O13  1  0.96552354  0.53447646  0.53447646  1
loop_
_geom_bond_atom_site_label_1
_geom_bond_atom_site_label_2
_geom_bond_distance
_geom_bond_site_symmetry_2
Dy0 O10 2.205957 1_555
Dy0 O5 2.205957 1_565
Dy0 O7 2.425783 1_454
Dy0 O0 2.425783 1_554
Dy0 O4 2.425783 1_455
Dy0 O6 2.425783 1_555
Dy0 O13 2.425783 1_455
Dy0 O9 2.425783 1_554
Dy1 O5 2.205957 1_556
Dy1 O10 2.205957 1_555
Dy1 O8 2.425783 1_445
Dy1 O2 2.425783 1_455
Dy1 O0 2.425783 1_545
Dy1 O3 2.425783 1_555
Dy1 O13 2.425783 1_455
Dy1 O11 2.425783 1_545
Dy2 O10 2.205957 1_555
Dy2 O5 2.205957 1_655
Dy2 O1 2.425783 1_544
Dy2 O2 2.425783 1_554
Dy2 O4 2.425783 1_545
Dy2 O12 2.425783 1_555
Dy2 O11 2.425783 1_545
Dy2 O9 2.425783 1_554
Dy3 O5 2.205957 1_555
Dy3 O10 2.205957 1_555
Dy3 O6 2.425783 1_545
Dy3 O12 2.425783 1_455
Dy3 O3 2.425783 1_554
Dy3 O1 2.425783 1_544
Dy3 O7 2.425783 1_454
Dy3 O8 2.425783 1_445
O0 Pt0 2.023577 1_555
O0 Pt1 2.023577 1_555
O1 Pt3 2.023577 1_556
O1 Pt2 2.023577 1_565
O2 Pt0 2.023577 1_555
O2 Pt2 2.023577 1_555
O3 Pt1 2.023577 1_555
O3 Pt2 2.023577 1_555
O4 Pt0 2.023577 1_555
O4 Pt3 2.023577 1_555
O6 Pt1 2.023577 1_555
O6 Pt3 2.023577 1_555
O7 Pt1 2.023577 1_655
O7 Pt3 2.023577 1_556
O8 Pt1 2.023577 1_655
O8 Pt2 2.023577 1_565
O9 Pt3 2.023577 1_556
O9 Pt0 2.023577 1_555
O11 Pt2 2.023577 1_565
O11 Pt0 2.023577 1_555
O12 Pt3 2.023577 1_555
O12 Pt2 2.023577 1_555
O13 Pt1 2.023577 1_655
O13 Pt0 2.023577 1_555
