# generated using pymatgen
data_Al2O3
_symmetry_space_group_name_H-M   'P 1'
_cell_length_a   10.17373005
_cell_length_b   10.43683229
_cell_length_c   10.62314279
_cell_angle_alpha   88.02867262
_cell_angle_beta   81.66493095
_cell_angle_gamma   87.65392422
_symmetry_Int_Tables_number   1
_chemical_formula_structural   Al2O3
_chemical_formula_sum   'Al40 O60'
_cell_volume   1114.66896292
_cell_formula_units_Z   20
loop_
 _symmetry_equiv_pos_site_id
 _symmetry_equiv_pos_as_xyz
  1  'x, y, z'
loop_
 _atom_site_type_symbol
 _atom_site_label
 _atom_site_symmetry_multiplicity
 _atom_site_fract_x
 _atom_site_fract_y
 _atom_site_fract_z
 _atom_site_occupancy
  Al  Al0  1  0.30236500  0.64409400  0.31456100  1
  Al  Al1  1  0.43791400  0.02721900  0.53587700  1
  Al  Al2  1  0.63905700  0.64680300  0.66058800  1
  Al  Al3  1  0.89389200  0.76468000  0.92700100  1
  Al  Al4  1  0.45202800  0.87374000  0.78794200  1
  Al  Al5  1  0.91516200  0.76003300  0.68885100  1
  Al  Al6  1  0.36426300  0.32209800  0.46987800  1
  Al  Al7  1  0.11128900  0.97750800  0.95396300  1
  Al  Al8  1  0.25903100  0.76833500  0.99898400  1
  Al  Al9  1  0.83640500  0.44829600  0.55316500  1
  Al  Al10  1  0.80848700  0.76080100  0.29676000  1
  Al  Al11  1  0.71429800  0.27440900  0.10904400  1
  Al  Al12  1  0.95039200  0.10734400  0.29536100  1
  Al  Al13  1  0.41425800  0.77904600  0.48231600  1
  Al  Al14  1  0.18123200  0.80277200  0.69171700  1
  Al  Al15  1  0.06437800  0.22794300  0.05041800  1
  Al  Al16  1  0.93445900  0.39335700  0.89587200  1
  Al  Al17  1  0.67463700  0.24512100  0.40857000  1
  Al  Al18  1  0.66706500  0.97658300  0.34985800  1
  Al  Al19  1  0.40690500  0.28598300  0.06496600  1
  Al  Al20  1  0.28819200  0.17272900  0.27116100  1
  Al  Al21  1  0.83392000  0.00284800  0.08642500  1
  Al  Al22  1  0.54803700  0.79436500  0.01527900  1
  Al  Al23  1  0.29928800  0.88734300  0.21237300  1
  Al  Al24  1  0.12095900  0.52860200  0.55917200  1
  Al  Al25  1  0.99526500  0.21286200  0.50012400  1
  Al  Al26  1  0.73794500  0.94264500  0.58202200  1
  Al  Al27  1  0.45794500  0.55723000  0.94501000  1
  Al  Al28  1  0.61045800  0.51344500  0.36838100  1
  Al  Al29  1  0.72853400  0.61059600  0.07192700  1
  Al  Al30  1  0.19928000  0.48331000  0.02275700  1
  Al  Al31  1  0.67331400  0.39663100  0.86002700  1
  Al  Al32  1  0.25324900  0.45750500  0.73699300  1
  Al  Al33  1  0.11055100  0.40872400  0.32859000  1
  Al  Al34  1  0.13919100  0.23146300  0.74896200  1
  Al  Al35  1  0.02839000  0.64213700  0.15389100  1
  Al  Al36  1  0.44547100  0.18187900  0.78565800  1
  Al  Al37  1  0.14547900  0.93776500  0.46456300  1
  Al  Al38  1  0.52397000  0.05227600  0.04281400  1
  Al  Al39  1  0.75282300  0.20189300  0.69745100  1
  O  O0  1  0.75193700  0.89826900  0.20651600  1
  O  O1  1  0.54302800  0.93609400  0.90449800  1
  O  O2  1  0.49090200  0.75757600  0.64381000  1
  O  O3  1  0.58921700  0.53859000  0.79840100  1
  O  O4  1  0.08837700  0.38215800  0.96904300  1
  O  O5  1  0.08403400  0.16566100  0.62061700  1
  O  O6  1  0.36117700  0.15545200  0.46777600  1
  O  O7  1  0.82735600  0.31694000  0.78335800  1
  O  O8  1  0.98624900  0.07393900  0.13323400  1
  O  O9  1  0.30045100  0.71705100  0.16224100  1
  O  O10  1  0.44357600  0.02964300  0.70632900  1
  O  O11  1  0.99095500  0.04038200  0.44086000  1
  O  O12  1  0.79631200  0.04345900  0.68391600  1
  O  O13  1  0.79833500  0.27700400  0.53094100  1
  O  O14  1  0.50484600  0.91228100  0.41068300  1
  O  O15  1  0.55182800  0.61872000  0.06332800  1
  O  O16  1  0.76286300  0.86199400  0.43531300  1
  O  O17  1  0.88434200  0.27529800  0.03420400  1
  O  O18  1  0.78644400  0.49207100  0.94629300  1
  O  O19  1  0.45373900  0.16862700  0.18328400  1
  O  O20  1  0.90000000  0.65467500  0.06199100  1
  O  O21  1  0.21682800  0.86532600  0.83911700  1
  O  O22  1  0.14348200  0.65126600  0.00707600  1
  O  O23  1  0.58999100  0.33911400  0.01162300  1
  O  O24  1  0.29114700  0.90351300  0.57570300  1
  O  O25  1  0.19304700  0.63476300  0.66865900  1
  O  O26  1  0.69404000  0.54562200  0.51489100  1
  O  O27  1  0.08819900  0.48602200  0.18410900  1
  O  O28  1  0.30728600  0.27485000  0.74822500  1
  O  O29  1  0.42118100  0.73723500  0.91197600  1
  O  O30  1  0.77011700  0.12271200  0.30599800  1
  O  O31  1  0.35853700  0.45166100  0.07449600  1
  O  O32  1  0.16842900  0.55976500  0.39052100  1
  O  O33  1  0.07660900  0.40360300  0.74684200  1
  O  O34  1  0.72111300  0.77129700  0.98140500  1
  O  O35  1  0.26736500  0.79977500  0.38213600  1
  O  O36  1  0.69253300  0.35843100  0.26236400  1
  O  O37  1  0.27626200  0.43444500  0.56953700  1
  O  O38  1  0.21312200  0.92001300  0.06850000  1
  O  O39  1  0.45404000  0.62530200  0.39234400  1
  O  O40  1  0.97932500  0.74125600  0.27937900  1
  O  O41  1  0.21763900  0.22847900  0.12432600  1
  O  O42  1  0.94668600  0.91781100  0.96935300  1
  O  O43  1  0.59439500  0.26769400  0.75328300  1
  O  O44  1  0.00849000  0.40415500  0.49884300  1
  O  O45  1  0.22581400  0.01804700  0.31165000  1
  O  O46  1  0.01570300  0.25593900  0.32784100  1
  O  O47  1  0.53530400  0.36043300  0.45453800  1
  O  O48  1  0.31984000  0.51045800  0.86511500  1
  O  O49  1  0.04846200  0.85217500  0.60193000  1
  O  O50  1  0.85256300  0.55021000  0.68444600  1
  O  O51  1  0.74031100  0.78787400  0.67026300  1
  O  O52  1  0.71332200  0.62473200  0.25864600  1
  O  O53  1  0.47049200  0.90729600  0.13793700  1
  O  O54  1  0.42842100  0.16102600  0.95010900  1
  O  O55  1  0.10678600  0.13774100  0.89670600  1
  O  O56  1  0.94817600  0.62247900  0.58274400  1
  O  O57  1  0.62299600  0.07854800  0.50283700  1
  O  O58  1  0.26815000  0.32897200  0.33941700  1
  O  O59  1  0.69327800  0.10224800  0.06023300  1
loop_
_geom_bond_atom_site_label_1
_geom_bond_atom_site_label_2
_geom_bond_distance
_geom_bond_site_symmetry_2
Al0 O32 1.735818 1_555
Al0 O9 1.766813 1_555
Al0 O35 1.800254 1_555
Al0 O39 1.853683 1_555
Al1 O6 1.713369 1_555
Al1 O10 1.821053 1_555
Al1 O14 1.857902 1_545
Al1 O57 1.958012 1_555
Al1 O24 2.003143 1_545
Al2 O3 1.842249 1_555
Al2 O51 1.845205 1_555
Al2 O2 1.887152 1_555
Al2 O26 1.907013 1_555
Al2 O50 2.400323 1_555
Al3 O34 1.768316 1_555
Al3 O42 1.798602 1_555
Al3 O20 1.812494 1_556
Al4 O1 1.803015 1_555
Al4 O10 1.822012 1_565
Al4 O29 1.911000 1_555
Al4 O2 1.970674 1_555
Al4 O21 2.380296 1_555
Al5 O49 1.816376 1_655
Al5 O51 1.828507 1_555
Al5 O56 1.845667 1_555
Al6 O37 1.738364 1_555
Al6 O6 1.741793 1_555
Al6 O47 1.784648 1_555
Al6 O58 1.806196 1_555
Al7 O55 1.760841 1_565
Al7 O38 1.782757 1_556
Al7 O42 1.793970 1_455
Al7 O21 1.904662 1_555
Al7 O8 2.362771 1_466
Al8 O22 1.721418 1_556
Al8 O38 1.785890 1_556
Al8 O29 1.793272 1_555
Al8 O9 1.897740 1_556
Al8 O21 2.037351 1_555
Al9 O44 1.808233 1_655
Al9 O50 1.812785 1_555
Al9 O26 1.821208 1_555
Al9 O13 1.874573 1_555
Al9 O56 2.238026 1_555
Al10 O40 1.725421 1_555
Al10 O0 1.818298 1_555
Al10 O16 1.834668 1_555
Al10 O52 1.839527 1_555
Al11 O17 1.796400 1_555
Al11 O23 1.840635 1_555
Al11 O36 1.857048 1_555
Al11 O59 1.915948 1_555
Al12 O8 1.752051 1_555
Al12 O11 1.770530 1_555
Al12 O46 1.775774 1_655
Al12 O30 1.821917 1_555
Al13 O14 1.786302 1_555
Al13 O39 1.895328 1_555
Al13 O35 1.957436 1_555
Al13 O24 1.958484 1_555
Al13 O2 1.987086 1_555
Al14 O25 1.775642 1_555
Al14 O21 1.806479 1_555
Al14 O49 1.811871 1_555
Al14 O24 1.866116 1_555
Al15 O4 1.809061 1_554
Al15 O41 1.844893 1_555
Al15 O55 1.899225 1_554
Al15 O17 1.907965 1_455
Al15 O8 1.947774 1_455
Al16 O18 1.814681 1_555
Al16 O4 1.844351 1_655
Al16 O17 1.909795 1_556
Al16 O7 1.940709 1_555
Al16 O33 1.986592 1_655
Al17 O47 1.842915 1_555
Al17 O30 1.857516 1_555
Al17 O36 1.911358 1_555
Al17 O13 1.980589 1_555
Al17 O57 2.025755 1_555
Al18 O16 1.814021 1_555
Al18 O14 1.828470 1_555
Al18 O0 1.838212 1_555
Al18 O30 1.892797 1_565
Al18 O57 1.960409 1_565
Al19 O31 1.780535 1_555
Al19 O54 1.801709 1_554
Al19 O19 1.824002 1_555
Al19 O23 1.963431 1_555
Al19 O41 2.045015 1_555
Al20 O45 1.775096 1_555
Al20 O58 1.799367 1_555
Al20 O19 1.803039 1_555
Al20 O41 1.874800 1_555
Al20 O6 2.314989 1_555
Al21 O59 1.781864 1_555
Al21 O0 1.784587 1_545
Al21 O42 1.797083 1_544
Al21 O8 1.882143 1_555
Al22 O34 1.753716 1_554
Al22 O53 1.854976 1_555
Al22 O1 1.862000 1_554
Al22 O15 1.886295 1_555
Al22 O29 1.934967 1_554
Al23 O45 1.821762 1_565
Al23 O53 1.822500 1_555
Al23 O9 1.871940 1_555
Al23 O38 1.883831 1_555
Al23 O35 1.983472 1_555
Al24 O32 1.808529 1_555
Al24 O37 1.841232 1_555
Al24 O25 1.876380 1_555
Al24 O44 1.948975 1_555
Al24 O56 1.964931 1_455
Al24 O33 2.342782 1_555
Al25 O5 1.718160 1_655
Al25 O46 1.853554 1_655
Al25 O11 1.931642 1_555
Al25 O44 2.005957 1_655
Al25 O13 2.069902 1_555
Al26 O12 1.716745 1_565
Al26 O16 1.777635 1_555
Al26 O51 1.840579 1_555
Al26 O57 2.038238 1_565
Al27 O15 1.832406 1_556
Al27 O48 1.833899 1_555
Al27 O3 1.908835 1_555
Al27 O31 1.926802 1_556
Al27 O29 1.930715 1_555
Al28 O52 1.858985 1_555
Al28 O26 1.923869 1_555
Al28 O39 1.926398 1_555
Al28 O47 1.941419 1_555
Al28 O36 2.079713 1_555
Al29 O20 1.809658 1_555
Al29 O15 1.811649 1_555
Al29 O18 1.866687 1_554
Al29 O34 1.908712 1_554
Al29 O52 1.977226 1_555
Al30 O4 1.743213 1_554
Al30 O31 1.799514 1_555
Al30 O22 1.829923 1_555
Al30 O27 1.911826 1_555
Al30 O48 1.946651 1_554
Al31 O23 1.803272 1_556
Al31 O3 1.829651 1_555
Al31 O7 1.838750 1_555
Al31 O18 1.902412 1_555
Al31 O43 2.049098 1_555
Al32 O48 1.722391 1_555
Al32 O37 1.783633 1_555
Al32 O33 1.892395 1_555
Al32 O28 1.966766 1_555
Al32 O25 2.066006 1_555
Al33 O27 1.749079 1_555
Al33 O58 1.792892 1_555
Al33 O32 1.877293 1_555
Al33 O46 1.898158 1_555
Al33 O44 1.950690 1_555
Al34 O5 1.721412 1_555
Al34 O28 1.785779 1_555
Al34 O55 1.816480 1_555
Al34 O33 1.881852 1_555
Al35 O40 1.719334 1_455
Al35 O20 1.738770 1_455
Al35 O27 1.751440 1_555
Al35 O22 1.811639 1_555
Al36 O54 1.737381 1_555
Al36 O28 1.760665 1_555
Al36 O43 1.776189 1_555
Al36 O10 1.826027 1_555
Al37 O49 1.861871 1_555
Al37 O45 1.893750 1_565
Al37 O11 1.907946 1_465
Al37 O35 2.001070 1_555
Al37 O24 2.037867 1_555
Al38 O54 1.820271 1_554
Al38 O53 1.846486 1_545
Al38 O59 1.856297 1_555
Al38 O1 1.920325 1_544
Al38 O19 1.989072 1_555
Al39 O12 1.699610 1_555
Al39 O43 1.755438 1_555
Al39 O7 1.788891 1_555
Al39 O13 1.911714 1_555
O50 O56 1.543274 1_555
