# generated using pymatgen
data_MgNb2Te4Cl10O
_symmetry_space_group_name_H-M   'P 1'
_cell_length_a   6.93057799
_cell_length_b   9.10370161
_cell_length_c   9.81267634
_cell_angle_alpha   80.76285581
_cell_angle_beta   87.71443971
_cell_angle_gamma   73.53442262
_symmetry_Int_Tables_number   1
_chemical_formula_structural   MgNb2Te4Cl10O
_chemical_formula_sum   'Mg1 Nb2 Te4 Cl10 O1'
_cell_volume   586.02058781
_cell_formula_units_Z   1
loop_
 _symmetry_equiv_pos_site_id
 _symmetry_equiv_pos_as_xyz
  1  'x, y, z'
loop_
 _atom_site_type_symbol
 _atom_site_label
 _atom_site_symmetry_multiplicity
 _atom_site_fract_x
 _atom_site_fract_y
 _atom_site_fract_z
 _atom_site_occupancy
  Mg  Mg0  1  0.89267000  0.73269300  0.65678800  1
  Nb  Nb0  1  0.50313500  0.62042900  0.62715800  1
  Nb  Nb1  1  0.48141400  0.35712300  0.35552900  1
  Te  Te0  1  0.20371800  0.89935100  0.16037800  1
  Te  Te1  1  0.08948900  0.18259500  0.99046300  1
  Te  Te2  1  0.92186300  0.80407500  0.03540900  1
  Te  Te3  1  0.80227600  0.08992300  0.86782100  1
  Cl  Cl0  1  0.45589100  0.19192000  0.19671900  1
  Cl  Cl1  1  0.35967100  0.50364000  0.82374400  1
  Cl  Cl2  1  0.80281300  0.20704200  0.43108200  1
  Cl  Cl3  1  0.15074800  0.53661800  0.28977100  1
  Cl  Cl4  1  0.61772700  0.51570000  0.18717900  1
  Cl  Cl5  1  0.32372900  0.22485200  0.53030200  1
  Cl  Cl6  1  0.85636400  0.47120400  0.70378500  1
  Cl  Cl7  1  0.66672200  0.79476100  0.46321800  1
  Cl  Cl8  1  0.17298300  0.82523900  0.58676800  1
  Cl  Cl9  1  0.59967500  0.81043800  0.79679500  1
  O  O0  1  0.48800100  0.50382700  0.49709100  1
loop_
_geom_bond_atom_site_label_1
_geom_bond_atom_site_label_2
_geom_bond_distance
_geom_bond_site_symmetry_2
Nb0 O0 1.809835 1_555
Nb1 O0 2.085810 1_555
Te0 Te2 2.750442 1_455
Te0 Te1 2.761074 1_564
Te1 Te3 2.755240 1_455
Te2 Te3 2.770433 1_564
Cl0 Nb1 2.376312 1_555
Cl1 Nb0 2.372350 1_555
Cl2 Nb1 2.336526 1_555
Cl3 Nb1 2.448479 1_555
Cl4 Nb1 2.364024 1_555
Cl5 Nb1 2.349258 1_555
Cl6 Mg0 2.433250 1_555
Cl6 Nb0 2.517460 1_555
Cl7 Mg0 2.402172 1_555
Cl7 Nb0 2.539083 1_555
Cl8 Mg0 2.364668 1_455
Cl8 Nb0 2.507142 1_555
Cl9 Mg0 2.405567 1_555
Cl9 Nb0 2.807136 1_555
