# generated using pymatgen
data_LaH3CSO7
_symmetry_space_group_name_H-M   'P 1'
_cell_length_a   7.10129600
_cell_length_b   7.10129600
_cell_length_c   12.04233600
_cell_angle_alpha   90.00000000
_cell_angle_beta   90.00000000
_cell_angle_gamma   90.00000000
_symmetry_Int_Tables_number   1
_chemical_formula_structural   LaH3CSO7
_chemical_formula_sum   'La4 H12 C4 S4 O28'
_cell_volume   607.27579550
_cell_formula_units_Z   4
loop_
 _symmetry_equiv_pos_site_id
 _symmetry_equiv_pos_as_xyz
  1  'x, y, z'
loop_
 _atom_site_type_symbol
 _atom_site_label
 _atom_site_symmetry_multiplicity
 _atom_site_fract_x
 _atom_site_fract_y
 _atom_site_fract_z
 _atom_site_occupancy
  La  La0  1  0.10646600  0.63927000  0.90766200  1
  La  La1  1  0.89353400  0.36073000  0.40766200  1
  La  La2  1  0.63927000  0.89353400  0.65766200  1
  La  La3  1  0.36073000  0.10646600  0.15766200  1
  H  H0  1  0.01872800  0.15641100  0.86661200  1
  H  H1  1  0.98127200  0.84358900  0.36661200  1
  H  H2  1  0.15641100  0.98127200  0.61661200  1
  H  H3  1  0.84358900  0.01872800  0.11661200  1
  H  H4  1  0.17301200  0.40627900  0.68686800  1
  H  H5  1  0.82698800  0.59372100  0.18686800  1
  H  H6  1  0.40627900  0.82698800  0.43686800  1
  H  H7  1  0.59372100  0.17301200  0.93686800  1
  H  H8  1  0.37713200  0.45475300  0.73007700  1
  H  H9  1  0.62286800  0.54524700  0.23007700  1
  H  H10  1  0.45475300  0.62286800  0.48007700  1
  H  H11  1  0.54524700  0.37713200  0.98007700  1
  C  C0  1  0.09993200  0.15090400  0.94449200  1
  C  C1  1  0.90006800  0.84909600  0.44449200  1
  C  C2  1  0.15090400  0.90006800  0.69449200  1
  C  C3  1  0.84909600  0.09993200  0.19449200  1
  S  S0  1  0.75325300  0.38769500  0.71235400  1
  S  S1  1  0.24674700  0.61230500  0.21235400  1
  S  S2  1  0.38769500  0.24674700  0.46235400  1
  S  S3  1  0.61230500  0.75325300  0.96235400  1
  O  O0  1  0.86860700  0.33911100  0.61330800  1
  O  O1  1  0.13139300  0.66088900  0.11330800  1
  O  O2  1  0.33911100  0.13139300  0.36330800  1
  O  O3  1  0.66088900  0.86860700  0.86330800  1
  O  O4  1  0.61303400  0.53750800  0.68377200  1
  O  O5  1  0.38696600  0.46249200  0.18377200  1
  O  O6  1  0.53750800  0.38696600  0.43377200  1
  O  O7  1  0.46249200  0.61303400  0.93377200  1
  O  O8  1  0.87754900  0.45669600  0.80196700  1
  O  O9  1  0.12245100  0.54330400  0.30196700  1
  O  O10  1  0.45669600  0.12245100  0.55196700  1
  O  O11  1  0.54330400  0.87754900  0.05196700  1
  O  O12  1  0.65373300  0.21611000  0.75165300  1
  O  O13  1  0.34626700  0.78389000  0.25165300  1
  O  O14  1  0.21611000  0.34626700  0.50165300  1
  O  O15  1  0.78389000  0.65373300  0.00165300  1
  O  O16  1  0.14094100  0.30364300  0.99359100  1
  O  O17  1  0.85905900  0.69635700  0.49359100  1
  O  O18  1  0.30364300  0.85905900  0.74359100  1
  O  O19  1  0.69635700  0.14094100  0.24359100  1
  O  O20  1  0.14817700  0.99035800  0.98324200  1
  O  O21  1  0.85182300  0.00964200  0.48324200  1
  O  O22  1  0.99035800  0.85182300  0.73324200  1
  O  O23  1  0.00964200  0.14817700  0.23324200  1
  O  O24  1  0.24481200  0.44051100  0.75307900  1
  O  O25  1  0.75518800  0.55948900  0.25307900  1
  O  O26  1  0.44051100  0.75518800  0.50307900  1
  O  O27  1  0.55948900  0.24481200  0.00307900  1
loop_
_geom_bond_atom_site_label_1
_geom_bond_atom_site_label_2
_geom_bond_distance
_geom_bond_site_symmetry_2
La0 O8 2.437950 1_455
La0 O1 2.487519 1_556
La0 O24 2.534304 1_555
La0 O7 2.554526 1_555
La0 O15 2.557151 1_456
La0 O16 2.609837 1_555
La0 O20 2.670594 1_555
La0 O22 2.714757 1_455
La0 O18 2.881046 1_555
La1 O9 2.437950 1_655
La1 O0 2.487519 1_555
La1 O25 2.534304 1_555
La1 O6 2.554526 1_555
La1 O14 2.557151 1_655
La1 O17 2.609837 1_555
La1 O21 2.670594 1_555
La1 O23 2.714757 1_655
La1 O19 2.881046 1_555
La2 O10 2.437950 1_565
La2 O3 2.487519 1_555
La2 O26 2.534304 1_555
La2 O4 2.554526 1_555
La2 O12 2.557151 1_565
La2 O18 2.609837 1_555
La2 O22 2.670594 1_555
La2 O21 2.714757 1_565
La2 O17 2.881046 1_555
La3 O11 2.437950 1_545
La3 O2 2.487519 1_555
La3 O27 2.534304 1_555
La3 O5 2.554526 1_555
La3 O13 2.557151 1_545
La3 O19 2.609837 1_555
La3 O23 2.670594 1_555
La3 O20 2.714757 1_544
La3 O16 2.881046 1_554
H4 O24 0.977142 1_555
H5 O25 0.977142 1_555
H6 O26 0.977142 1_555
H7 O27 0.977142 1_556
H8 O24 0.984828 1_555
H9 O25 0.984828 1_555
H10 O26 0.984828 1_555
H11 O27 0.984828 1_556
C0 H0 1.101651 1_555
C0 O16 1.269196 1_555
C0 O20 1.278641 1_545
C1 H1 1.101651 1_555
C1 O17 1.269196 1_555
C1 O21 1.278641 1_565
C2 H2 1.101651 1_555
C2 O18 1.269196 1_555
C2 O22 1.278641 1_455
C3 H3 1.101651 1_555
C3 O19 1.269196 1_555
C3 O23 1.278641 1_655
O0 S0 1.487515 1_555
O1 S1 1.487515 1_555
O2 S2 1.487515 1_555
O3 S3 1.487515 1_555
O4 S0 1.497255 1_555
O5 S1 1.497255 1_555
O6 S2 1.497255 1_555
O7 S3 1.497255 1_555
O8 S0 1.477753 1_555
O9 S1 1.477753 1_555
O10 S2 1.477753 1_555
O11 S3 1.477753 1_554
O12 S0 1.485969 1_555
O13 S1 1.485969 1_555
O14 S2 1.485969 1_555
O15 S3 1.485969 1_554
