# generated using pymatgen
data_Na5Mn3S4(O4F)4
_symmetry_space_group_name_H-M   'P 1'
_cell_length_a   9.10611039
_cell_length_b   9.36763355
_cell_length_c   9.75668099
_cell_angle_alpha   89.56197871
_cell_angle_beta   88.50583145
_cell_angle_gamma   98.44076117
_symmetry_Int_Tables_number   1
_chemical_formula_structural   Na5Mn3S4(O4F)4
_chemical_formula_sum   'Na10 Mn6 S8 O32 F8'
_cell_volume   822.92094016
_cell_formula_units_Z   2
loop_
 _symmetry_equiv_pos_site_id
 _symmetry_equiv_pos_as_xyz
  1  'x, y, z'
loop_
 _atom_site_type_symbol
 _atom_site_label
 _atom_site_symmetry_multiplicity
 _atom_site_fract_x
 _atom_site_fract_y
 _atom_site_fract_z
 _atom_site_occupancy
  Na  Na0  1  0.00000000  0.25000000  0.75000100  1
  Na  Na1  1  0.99999900  0.75000000  0.25000000  1
  Na  Na2  1  0.01810900  0.85130800  0.88680900  1
  Na  Na3  1  0.01811000  0.35130800  0.38680900  1
  Na  Na4  1  0.98189100  0.14869300  0.11319000  1
  Na  Na5  1  0.98189000  0.64869100  0.61318800  1
  Na  Na6  1  0.33936100  0.37715600  0.11690500  1
  Na  Na7  1  0.33936400  0.87715200  0.61690400  1
  Na  Na8  1  0.66063600  0.62284600  0.88309300  1
  Na  Na9  1  0.66063700  0.12284700  0.38309400  1
  Mn  Mn0  1  0.00004300  0.49996100  0.00002100  1
  Mn  Mn1  1  0.35701100  0.28373800  0.55573400  1
  Mn  Mn2  1  0.64298000  0.71625800  0.44427400  1
  Mn  Mn3  1  0.99999700  0.00003400  0.49996400  1
  Mn  Mn4  1  0.35702200  0.78374300  0.05573100  1
  Mn  Mn5  1  0.64298600  0.21624500  0.94429100  1
  S  S0  1  0.29818400  0.58895400  0.36629600  1
  S  S1  1  0.29818600  0.08895400  0.86629000  1
  S  S2  1  0.70181400  0.41104500  0.63370400  1
  S  S3  1  0.70181400  0.91104600  0.13370900  1
  S  S4  1  0.28062100  0.54653300  0.79871400  1
  S  S5  1  0.28062100  0.04654600  0.29872100  1
  S  S6  1  0.71937300  0.45346100  0.20128900  1
  S  S7  1  0.71937600  0.95345600  0.70127900  1
  O  O0  1  0.21748700  0.66198400  0.72966000  1
  O  O1  1  0.21749000  0.16197700  0.22966200  1
  O  O2  1  0.78251200  0.33801900  0.27033700  1
  O  O3  1  0.78251000  0.83802400  0.77033700  1
  O  O4  1  0.31515200  0.43455800  0.39293500  1
  O  O5  1  0.31515600  0.93455100  0.89294400  1
  O  O6  1  0.68484700  0.56544300  0.60706400  1
  O  O7  1  0.68484400  0.06545000  0.10705600  1
  O  O8  1  0.33714200  0.61832600  0.21833500  1
  O  O9  1  0.33714200  0.11831800  0.71834000  1
  O  O10  1  0.66285900  0.38167400  0.78166600  1
  O  O11  1  0.66285800  0.88168300  0.28166000  1
  O  O12  1  0.59950000  0.81170600  0.04748400  1
  O  O13  1  0.59950700  0.31170100  0.54748600  1
  O  O14  1  0.40049700  0.18829500  0.95251500  1
  O  O15  1  0.40049100  0.68830000  0.45251500  1
  O  O16  1  0.34972400  0.45377600  0.70411800  1
  O  O17  1  0.34972900  0.95376200  0.20410400  1
  O  O18  1  0.65027500  0.54622500  0.29588100  1
  O  O19  1  0.65027000  0.04623800  0.79589400  1
  O  O20  1  0.15444600  0.44550500  0.87352200  1
  O  O21  1  0.15444800  0.94549700  0.37351900  1
  O  O22  1  0.84554700  0.55450200  0.12648200  1
  O  O23  1  0.84555000  0.05450400  0.62648200  1
  O  O24  1  0.38894400  0.60555200  0.90413700  1
  O  O25  1  0.38894400  0.10554300  0.40413200  1
  O  O26  1  0.61105700  0.39445000  0.09586000  1
  O  O27  1  0.61105500  0.89445800  0.59586600  1
  O  O28  1  0.14132400  0.10780800  0.89840300  1
  O  O29  1  0.14132300  0.60781400  0.39840400  1
  O  O30  1  0.85867600  0.89219200  0.10159600  1
  O  O31  1  0.85867600  0.39218700  0.60159700  1
  F  F0  1  0.91855200  0.60126500  0.85934300  1
  F  F1  1  0.91855500  0.10125700  0.35935000  1
  F  F2  1  0.08143900  0.39874400  0.14064700  1
  F  F3  1  0.08144800  0.89873700  0.64065700  1
  F  F4  1  0.12159700  0.70975600  0.04748200  1
  F  F5  1  0.12158700  0.20975500  0.54748500  1
  F  F6  1  0.87840100  0.29024400  0.95251700  1
  F  F7  1  0.87841100  0.79024500  0.45251500  1
loop_
_geom_bond_atom_site_label_1
_geom_bond_atom_site_label_2
_geom_bond_distance
_geom_bond_site_symmetry_2
Na0 O31 2.469343 1_455
Na0 O28 2.469360 1_555
Na0 O23 2.479960 1_455
Na0 O20 2.480008 1_555
Na1 O29 2.469337 1_655
Na1 O30 2.469366 1_555
Na1 O21 2.479962 1_655
Na1 O22 2.479976 1_555
Na2 O3 2.441408 1_455
Na2 O28 2.502888 1_565
Na2 O30 2.581251 1_456
Na2 O5 2.705235 1_555
Na3 O2 2.441397 1_455
Na3 O29 2.502934 1_555
Na3 O31 2.581253 1_455
Na3 O4 2.705196 1_555
Na4 O1 2.441408 1_655
Na4 O30 2.502897 1_545
Na4 O28 2.581254 1_654
Na4 O7 2.705235 1_555
Na5 O0 2.441386 1_655
Na5 O31 2.502917 1_555
Na5 O29 2.581213 1_655
Na5 O6 2.705201 1_555
Na6 O1 2.398064 1_555
Na6 O26 2.458633 1_555
Na6 O8 2.475934 1_555
Na6 O14 2.509660 1_554
Na6 O4 2.759838 1_555
Na6 O24 2.947959 1_554
Na7 O0 2.397998 1_555
Na7 O27 2.458575 1_555
Na7 O9 2.475927 1_565
Na7 O15 2.509566 1_555
Na7 O5 2.759927 1_555
Na7 O25 2.947953 1_565
Na8 O3 2.398061 1_555
Na8 O24 2.458596 1_555
Na8 O10 2.475944 1_555
Na8 O12 2.509659 1_556
Na8 O6 2.759832 1_555
Na8 O26 2.947951 1_556
Na9 O2 2.398025 1_555
Na9 O25 2.458594 1_555
Na9 O11 2.475901 1_545
Na9 O13 2.509607 1_555
Na9 O7 2.759903 1_555
Na9 O27 2.947940 1_545
Mn0 O20 1.972323 1_554
Mn0 O22 1.973013 1_455
Mn1 O16 2.167672 1_555
Mn1 O13 2.184449 1_555
Mn1 O9 2.194556 1_555
Mn1 O4 2.195376 1_555
Mn1 O25 2.284000 1_555
Mn2 O18 2.167705 1_555
Mn2 O15 2.184386 1_555
Mn2 O11 2.194641 1_555
Mn2 O6 2.195303 1_555
Mn2 O27 2.283956 1_555
Mn3 O21 1.972603 1_645
Mn3 O23 1.972779 1_555
Mn4 O17 2.167474 1_555
Mn4 O12 2.184286 1_555
Mn4 O8 2.194519 1_555
Mn4 O5 2.195235 1_554
Mn4 O24 2.283899 1_554
Mn5 O19 2.167538 1_555
Mn5 O14 2.184387 1_555
Mn5 O10 2.194745 1_555
Mn5 O7 2.194978 1_556
Mn5 O26 2.283854 1_556
O0 S4 1.464813 1_555
O1 S5 1.464674 1_555
O2 S6 1.464743 1_555
O3 S7 1.464690 1_555
O4 S0 1.498411 1_555
O5 S1 1.498505 1_565
O6 S2 1.498429 1_555
O7 S3 1.498512 1_545
O8 S0 1.491350 1_555
O9 S1 1.491233 1_555
O10 S2 1.491353 1_555
O11 S3 1.491241 1_555
O12 S3 1.496684 1_555
O13 S2 1.496629 1_555
O14 S1 1.496674 1_555
O15 S0 1.496645 1_555
O16 S4 1.464682 1_555
O17 S5 1.465000 1_565
O18 S6 1.464679 1_555
O19 S7 1.464966 1_545
O20 S4 1.541097 1_555
O21 S5 1.541140 1_565
O22 S6 1.541148 1_555
O23 S7 1.541137 1_545
O24 S4 1.496038 1_555
O25 S5 1.495898 1_555
O26 S6 1.496019 1_555
O27 S7 1.495903 1_555
O28 S1 1.490391 1_555
O29 S0 1.490387 1_555
O30 S3 1.490391 1_555
O31 S2 1.490390 1_555
F0 Mn0 1.890781 1_656
F0 Na8 2.392126 1_555
F0 Na2 2.403951 1_655
F0 Na5 2.476733 1_555
F1 Mn3 1.889687 1_555
F1 Na9 2.392159 1_555
F1 Na3 2.404007 1_655
F1 Na4 2.476789 1_555
F2 Mn0 1.889539 1_555
F2 Na6 2.392189 1_555
F2 Na4 2.403990 1_455
F2 Na3 2.476796 1_555
F3 Mn3 1.890676 1_465
F3 Na7 2.392136 1_555
F3 Na5 2.403983 1_455
F3 Na2 2.476710 1_555
F4 Mn4 2.157868 1_555
F4 Mn0 2.168865 1_555
F4 Na1 2.300486 1_455
F4 Na2 2.348606 1_554
F5 Mn1 2.157853 1_555
F5 Mn3 2.168551 1_455
F5 Na0 2.300423 1_555
F5 Na3 2.348581 1_555
F6 Mn5 2.157787 1_555
F6 Mn0 2.168662 1_656
F6 Na0 2.300474 1_655
F6 Na4 2.348609 1_556
F7 Mn2 2.157915 1_555
F7 Mn3 2.168903 1_565
F7 Na1 2.300419 1_555
F7 Na5 2.348576 1_555
