# generated using pymatgen
data_CdAu
_symmetry_space_group_name_H-M   'P 1'
_cell_length_a   6.06921680
_cell_length_b   9.55359768
_cell_length_c   10.42509082
_cell_angle_alpha   90.00000000
_cell_angle_beta   90.00000000
_cell_angle_gamma   90.00000000
_symmetry_Int_Tables_number   1
_chemical_formula_structural   CdAu
_chemical_formula_sum   'Cd16 Au16'
_cell_volume   604.47653501
_cell_formula_units_Z   16
loop_
 _symmetry_equiv_pos_site_id
 _symmetry_equiv_pos_as_xyz
  1  'x, y, z'
loop_
 _atom_site_type_symbol
 _atom_site_label
 _atom_site_symmetry_multiplicity
 _atom_site_fract_x
 _atom_site_fract_y
 _atom_site_fract_z
 _atom_site_occupancy
  Cd  Cd0_0  1  0.00000000  0.37500000  0.34363452  1
  Cd  Cd0_1  1  0.00000000  0.37500000  0.84363451  1
  Cd  Cd0_2  1  0.00000000  0.87500000  0.34363452  1
  Cd  Cd0_3  1  0.00000000  0.87500000  0.84363451  1
  Cd  Cd0_4  1  0.50000000  0.37500000  0.34363452  1
  Cd  Cd0_5  1  0.50000000  0.37500000  0.84363451  1
  Cd  Cd0_6  1  0.50000000  0.87500000  0.34363452  1
  Cd  Cd0_7  1  0.50000000  0.87500000  0.84363451  1
  Cd  Cd1_0  1  0.00000000  0.12500000  0.15636548  1
  Cd  Cd1_1  1  0.00000000  0.12500000  0.65636549  1
  Cd  Cd1_2  1  0.00000000  0.62500000  0.15636548  1
  Cd  Cd1_3  1  0.00000000  0.62500000  0.65636549  1
  Cd  Cd1_4  1  0.50000000  0.12500000  0.15636548  1
  Cd  Cd1_5  1  0.50000000  0.12500000  0.65636549  1
  Cd  Cd1_6  1  0.50000000  0.62500000  0.15636548  1
  Cd  Cd1_7  1  0.50000000  0.62500000  0.65636549  1
  Au  Au0_0  1  0.25000000  0.37500000  0.09114556  1
  Au  Au0_1  1  0.25000000  0.37500000  0.59114557  1
  Au  Au0_2  1  0.25000000  0.87500000  0.09114556  1
  Au  Au0_3  1  0.25000000  0.87500000  0.59114557  1
  Au  Au0_4  1  0.75000000  0.37500000  0.09114556  1
  Au  Au0_5  1  0.75000000  0.37500000  0.59114557  1
  Au  Au0_6  1  0.75000000  0.87500000  0.09114556  1
  Au  Au0_7  1  0.75000000  0.87500000  0.59114557  1
  Au  Au1_0  1  0.25000000  0.12500000  0.40885394  1
  Au  Au1_1  1  0.25000000  0.12500000  0.90885393  1
  Au  Au1_2  1  0.25000000  0.62500000  0.40885394  1
  Au  Au1_3  1  0.25000000  0.62500000  0.90885393  1
  Au  Au1_4  1  0.75000000  0.12500000  0.40885394  1
  Au  Au1_5  1  0.75000000  0.12500000  0.90885393  1
  Au  Au1_6  1  0.75000000  0.62500000  0.40885394  1
  Au  Au1_7  1  0.75000000  0.62500000  0.90885393  1
loop_
_geom_bond_atom_site_label_1
_geom_bond_atom_site_label_2
_geom_bond_distance
_geom_bond_site_symmetry_2
Cd0_0 Cd0_4 3.034608 1_555
Cd0_0 Cd0_4 3.034608 1_455
Cd0_0 Cd1_2 3.084788 1_555
Cd0_0 Cd1_0 3.084788 1_555
Cd0_1 Cd0_5 3.034608 1_555
Cd0_1 Cd0_5 3.034608 1_455
Cd0_1 Cd1_1 3.084788 1_555
Cd0_1 Cd1_3 3.084788 1_555
Cd0_2 Cd0_6 3.034608 1_455
Cd0_2 Cd0_6 3.034608 1_555
Cd0_2 Cd1_0 3.084788 1_565
Cd0_2 Cd1_2 3.084788 1_555
Cd0_3 Cd0_7 3.034608 1_455
Cd0_3 Cd0_7 3.034608 1_555
Cd0_3 Cd1_1 3.084788 1_565
Cd0_3 Cd1_3 3.084788 1_555
Cd0_4 Cd1_4 3.084788 1_555
Cd0_4 Cd1_6 3.084788 1_555
Cd0_5 Cd1_7 3.084788 1_555
Cd0_5 Cd1_5 3.084788 1_555
Cd0_6 Cd1_4 3.084788 1_565
Cd0_6 Cd1_6 3.084788 1_555
Cd0_7 Cd1_5 3.084788 1_565
Cd0_7 Cd1_7 3.084788 1_555
Cd1_0 Cd1_4 3.034608 1_455
Cd1_0 Cd1_4 3.034608 1_555
Cd1_1 Cd1_5 3.034608 1_455
Cd1_1 Cd1_5 3.034608 1_555
Cd1_2 Cd1_6 3.034608 1_455
Cd1_2 Cd1_6 3.034608 1_555
Cd1_3 Cd1_7 3.034608 1_455
Cd1_3 Cd1_7 3.034608 1_555
Au0_0 Cd1_0 2.910148 1_555
Au0_0 Cd1_6 2.910148 1_555
Au0_0 Cd1_4 2.910148 1_555
Au0_0 Cd1_2 2.910148 1_555
Au0_0 Cd0_5 2.993374 1_554
Au0_0 Cd0_1 2.993374 1_554
Au0_0 Au0_4 3.034608 1_455
Au0_0 Au0_4 3.034608 1_555
Au0_0 Cd0_4 3.038222 1_555
Au0_0 Cd0_0 3.038222 1_555
Au0_0 Au1_3 3.052212 1_554
Au0_0 Au1_1 3.052212 1_554
Au0_1 Cd1_1 2.910148 1_555
Au0_1 Cd1_3 2.910148 1_555
Au0_1 Cd1_7 2.910148 1_555
Au0_1 Cd1_5 2.910148 1_555
Au0_1 Cd0_4 2.993374 1_555
Au0_1 Cd0_0 2.993374 1_555
Au0_1 Au0_5 3.034608 1_455
Au0_1 Au0_5 3.034608 1_555
Au0_1 Cd0_1 3.038222 1_555
Au0_1 Cd0_5 3.038222 1_555
Au0_1 Au1_2 3.052212 1_555
Au0_1 Au1_0 3.052212 1_555
Au0_2 Cd1_0 2.910148 1_565
Au0_2 Cd1_4 2.910148 1_565
Au0_2 Cd1_6 2.910148 1_555
Au0_2 Cd1_2 2.910148 1_555
Au0_2 Cd0_3 2.993374 1_554
Au0_2 Cd0_7 2.993374 1_554
Au0_2 Au0_6 3.034608 1_455
Au0_2 Au0_6 3.034608 1_555
Au0_2 Cd0_2 3.038222 1_555
Au0_2 Cd0_6 3.038222 1_555
Au0_2 Au1_1 3.052212 1_564
Au0_2 Au1_3 3.052212 1_554
Au0_3 Cd1_1 2.910148 1_565
Au0_3 Cd1_5 2.910148 1_565
Au0_3 Cd1_3 2.910148 1_555
Au0_3 Cd1_7 2.910148 1_555
Au0_3 Cd0_2 2.993374 1_555
Au0_3 Cd0_6 2.993374 1_555
Au0_3 Au0_7 3.034608 1_455
Au0_3 Au0_7 3.034608 1_555
Au0_3 Cd0_3 3.038222 1_555
Au0_3 Cd0_7 3.038222 1_555
Au0_3 Au1_0 3.052212 1_565
Au0_3 Au1_2 3.052212 1_555
Au0_4 Cd1_0 2.910148 1_655
Au0_4 Cd1_2 2.910148 1_655
Au0_4 Cd1_6 2.910148 1_555
Au0_4 Cd1_4 2.910148 1_555
Au0_4 Cd0_1 2.993374 1_654
Au0_4 Cd0_5 2.993374 1_554
Au0_4 Cd0_0 3.038222 1_655
Au0_4 Cd0_4 3.038222 1_555
Au0_4 Au1_7 3.052212 1_554
Au0_4 Au1_5 3.052212 1_554
Au0_5 Cd1_1 2.910148 1_655
Au0_5 Cd1_3 2.910148 1_655
Au0_5 Cd1_5 2.910148 1_555
Au0_5 Cd1_7 2.910148 1_555
Au0_5 Cd0_0 2.993374 1_655
Au0_5 Cd0_4 2.993374 1_555
Au0_5 Cd0_1 3.038222 1_655
Au0_5 Cd0_5 3.038222 1_555
Au0_5 Au1_4 3.052212 1_555
Au0_5 Au1_6 3.052212 1_555
Au0_6 Cd1_0 2.910148 1_665
Au0_6 Cd1_4 2.910148 1_565
Au0_6 Cd1_2 2.910148 1_655
Au0_6 Cd1_6 2.910148 1_555
Au0_6 Cd0_3 2.993374 1_654
Au0_6 Cd0_7 2.993374 1_554
Au0_6 Cd0_2 3.038222 1_655
Au0_6 Cd0_6 3.038222 1_555
Au0_6 Au1_5 3.052212 1_564
Au0_6 Au1_7 3.052212 1_554
Au0_7 Cd1_1 2.910148 1_665
Au0_7 Cd1_5 2.910148 1_565
Au0_7 Cd1_3 2.910148 1_655
Au0_7 Cd1_7 2.910148 1_555
Au0_7 Cd0_2 2.993374 1_655
Au0_7 Cd0_6 2.993374 1_555
Au0_7 Cd0_3 3.038222 1_655
Au0_7 Cd0_7 3.038222 1_555
Au0_7 Au1_4 3.052212 1_565
Au0_7 Au1_6 3.052212 1_555
Au1_0 Cd0_6 2.910147 1_545
Au1_0 Cd0_2 2.910147 1_545
Au1_0 Cd0_4 2.910147 1_555
Au1_0 Cd0_0 2.910147 1_555
Au1_0 Cd1_1 2.993379 1_555
Au1_0 Cd1_5 2.993379 1_555
Au1_0 Au1_4 3.034608 1_455
Au1_0 Au1_4 3.034608 1_555
Au1_0 Cd1_4 3.038218 1_555
Au1_0 Cd1_0 3.038218 1_555
Au1_1 Cd0_3 2.910147 1_545
Au1_1 Cd0_7 2.910147 1_545
Au1_1 Cd0_1 2.910147 1_555
Au1_1 Cd0_5 2.910147 1_555
Au1_1 Cd1_0 2.993379 1_556
Au1_1 Cd1_4 2.993379 1_556
Au1_1 Au1_5 3.034608 1_455
Au1_1 Au1_5 3.034608 1_555
Au1_1 Cd1_1 3.038218 1_555
Au1_1 Cd1_5 3.038218 1_555
Au1_2 Cd0_4 2.910147 1_555
Au1_2 Cd0_0 2.910147 1_555
Au1_2 Cd0_2 2.910147 1_555
Au1_2 Cd0_6 2.910147 1_555
Au1_2 Cd1_3 2.993379 1_555
Au1_2 Cd1_7 2.993379 1_555
Au1_2 Au1_6 3.034608 1_455
Au1_2 Au1_6 3.034608 1_555
Au1_2 Cd1_2 3.038218 1_555
Au1_2 Cd1_6 3.038218 1_555
Au1_3 Cd0_1 2.910147 1_555
Au1_3 Cd0_5 2.910147 1_555
Au1_3 Cd0_7 2.910147 1_555
Au1_3 Cd0_3 2.910147 1_555
Au1_3 Cd1_2 2.993379 1_556
Au1_3 Cd1_6 2.993379 1_556
Au1_3 Au1_7 3.034608 1_455
Au1_3 Au1_7 3.034608 1_555
Au1_3 Cd1_3 3.038218 1_555
Au1_3 Cd1_7 3.038218 1_555
Au1_4 Cd0_2 2.910147 1_645
Au1_4 Cd0_6 2.910147 1_545
Au1_4 Cd0_0 2.910147 1_655
Au1_4 Cd0_4 2.910147 1_555
Au1_4 Cd1_1 2.993379 1_655
Au1_4 Cd1_5 2.993379 1_555
Au1_4 Cd1_0 3.038218 1_655
Au1_4 Cd1_4 3.038218 1_555
Au1_5 Cd0_3 2.910147 1_645
Au1_5 Cd0_7 2.910147 1_545
Au1_5 Cd0_1 2.910147 1_655
Au1_5 Cd0_5 2.910147 1_555
Au1_5 Cd1_0 2.993379 1_656
Au1_5 Cd1_4 2.993379 1_556
Au1_5 Cd1_1 3.038218 1_655
Au1_5 Cd1_5 3.038218 1_555
Au1_6 Cd0_0 2.910147 1_655
Au1_6 Cd0_2 2.910147 1_655
Au1_6 Cd0_4 2.910147 1_555
Au1_6 Cd0_6 2.910147 1_555
Au1_6 Cd1_3 2.993379 1_655
Au1_6 Cd1_7 2.993379 1_555
Au1_6 Cd1_2 3.038218 1_655
Au1_6 Cd1_6 3.038218 1_555
Au1_7 Cd0_1 2.910147 1_655
Au1_7 Cd0_3 2.910147 1_655
Au1_7 Cd0_5 2.910147 1_555
Au1_7 Cd0_7 2.910147 1_555
Au1_7 Cd1_2 2.993379 1_656
Au1_7 Cd1_6 2.993379 1_556
Au1_7 Cd1_3 3.038218 1_655
Au1_7 Cd1_7 3.038218 1_555
