# generated using pymatgen
data_Mg4Si3
_symmetry_space_group_name_H-M   'P 1'
_cell_length_a   6.25704800
_cell_length_b   7.22527019
_cell_length_c   7.24153072
_cell_angle_alpha   112.62617897
_cell_angle_beta   110.78480011
_cell_angle_gamma   91.27510873
_symmetry_Int_Tables_number   1
_chemical_formula_structural   Mg4Si3
_chemical_formula_sum   'Mg8 Si6'
_cell_volume   277.69519132
_cell_formula_units_Z   2
loop_
 _symmetry_equiv_pos_site_id
 _symmetry_equiv_pos_as_xyz
  1  'x, y, z'
loop_
 _atom_site_type_symbol
 _atom_site_label
 _atom_site_symmetry_multiplicity
 _atom_site_fract_x
 _atom_site_fract_y
 _atom_site_fract_z
 _atom_site_occupancy
  Mg  Mg0  1  0.49340800  0.38218600  0.61033200  1
  Mg  Mg1  1  0.44309300  0.83502700  0.89099400  1
  Mg  Mg2  1  0.80197300  0.59333300  0.11141000  1
  Mg  Mg3  1  0.16904400  0.45096100  0.84997000  1
  Mg  Mg4  1  0.15619800  0.96267000  0.52367000  1
  Mg  Mg5  1  0.74229400  0.25988500  0.31654900  1
  Mg  Mg6  1  0.83389200  0.74690100  0.67974100  1
  Mg  Mg7  1  0.06639200  0.19593900  0.06713600  1
  Si  Si0  1  0.56484600  0.19199500  0.87413900  1
  Si  Si1  1  0.78568300  0.11178400  0.63441900  1
  Si  Si2  1  0.12930800  0.85765500  0.11603700  1
  Si  Si3  1  0.40874400  0.51984100  0.30180000  1
  Si  Si4  1  0.52817600  0.83499000  0.29101100  1
  Si  Si5  1  0.12705200  0.55675200  0.48283100  1
loop_
_geom_bond_atom_site_label_1
_geom_bond_atom_site_label_2
_geom_bond_distance
_geom_bond_site_symmetry_2
Mg0 Si3 2.674873 1_555
Mg0 Si0 2.679344 1_555
Mg0 Si5 2.687120 1_555
Mg0 Si1 2.717856 1_555
Mg1 Si0 2.732809 1_565
Mg1 Si4 2.753292 1_556
Mg1 Si5 2.791330 1_555
Mg1 Si2 2.935545 1_556
Mg2 Si2 2.751607 1_655
Mg2 Si4 2.764465 1_555
Mg2 Si0 2.779913 1_554
Mg2 Si5 2.851238 1_655
Mg3 Si1 2.886816 1_455
Mg3 Si2 2.902581 1_556
Mg3 Si3 2.904097 1_556
Mg3 Si5 2.966228 1_555
Mg3 Si0 3.132976 1_555
Mg4 Si2 2.690006 1_555
Mg4 Si0 2.773927 1_565
Mg4 Si1 2.818600 1_465
Mg4 Si5 2.827185 1_555
Mg5 Si5 2.751731 1_655
Mg5 Si0 2.824765 1_554
Mg5 Si1 2.825240 1_555
Mg5 Si3 2.839997 1_555
Mg6 Si5 2.783285 1_655
Mg6 Si1 2.789281 1_565
Mg6 Si2 2.807712 1_656
Mg6 Si3 2.905563 1_555
Mg7 Si2 2.619983 1_545
Mg7 Si3 2.662088 1_555
Mg7 Si1 2.802508 1_454
Mg7 Si0 2.941933 1_454
Mg7 Si5 3.018090 1_555
Si0 Si1 2.494523 1_555
Si1 Si4 2.442557 1_545
Si2 Si4 2.407180 1_555
Si3 Si4 2.419098 1_555
Si3 Si5 2.507610 1_555
