# generated using pymatgen
data_Y2Si2O7
_symmetry_space_group_name_H-M   'P 1'
_cell_length_a   5.09591200
_cell_length_b   8.22332200
_cell_length_c   13.84074400
_cell_angle_alpha   90.00000000
_cell_angle_beta   90.00000000
_cell_angle_gamma   90.00000000
_symmetry_Int_Tables_number   1
_chemical_formula_structural   Y2Si2O7
_chemical_formula_sum   'Y8 Si8 O28'
_cell_volume   580.00087916
_cell_formula_units_Z   4
loop_
 _symmetry_equiv_pos_site_id
 _symmetry_equiv_pos_as_xyz
  1  'x, y, z'
loop_
 _atom_site_type_symbol
 _atom_site_label
 _atom_site_symmetry_multiplicity
 _atom_site_fract_x
 _atom_site_fract_y
 _atom_site_fract_z
 _atom_site_occupancy
  Y  Y0  1  0.84194800  0.50940400  0.62568900  1
  Y  Y1  1  0.15805200  0.00940400  0.37431100  1
  Y  Y2  1  0.65805200  0.50940400  0.12568900  1
  Y  Y3  1  0.34194800  0.00940400  0.87431100  1
  Y  Y4  1  0.84194800  0.99059600  0.62568900  1
  Y  Y5  1  0.15805200  0.49059600  0.37431100  1
  Y  Y6  1  0.65805200  0.99059600  0.12568900  1
  Y  Y7  1  0.34194800  0.49059600  0.87431100  1
  Si  Si0  1  0.12562400  0.25000000  0.04005700  1
  Si  Si1  1  0.87437600  0.75000000  0.95994300  1
  Si  Si2  1  0.37437600  0.25000000  0.54005700  1
  Si  Si3  1  0.62562400  0.75000000  0.45994300  1
  Si  Si4  1  0.87937100  0.25000000  0.81888200  1
  Si  Si5  1  0.12062900  0.75000000  0.18111800  1
  Si  Si6  1  0.62062900  0.25000000  0.31888200  1
  Si  Si7  1  0.37937100  0.75000000  0.68111800  1
  O  O0  1  0.84961600  0.25000000  0.09967100  1
  O  O1  1  0.15038400  0.75000000  0.90032900  1
  O  O2  1  0.65038400  0.25000000  0.59967100  1
  O  O3  1  0.34961600  0.75000000  0.40032900  1
  O  O4  1  0.29317200  0.41840400  0.04708500  1
  O  O5  1  0.70682800  0.91840400  0.95291500  1
  O  O6  1  0.20682800  0.41840400  0.54708500  1
  O  O7  1  0.79317200  0.91840400  0.45291500  1
  O  O8  1  0.29317200  0.08159600  0.04708500  1
  O  O9  1  0.70682800  0.58159600  0.95291500  1
  O  O10  1  0.20682800  0.08159600  0.54708500  1
  O  O11  1  0.79317200  0.58159600  0.45291500  1
  O  O12  1  0.06445500  0.25000000  0.91967100  1
  O  O13  1  0.93554500  0.75000000  0.08032900  1
  O  O14  1  0.43554500  0.25000000  0.41967100  1
  O  O15  1  0.56445500  0.75000000  0.58032900  1
  O  O16  1  0.48935000  0.58558900  0.73272800  1
  O  O17  1  0.51065000  0.08558900  0.26727200  1
  O  O18  1  0.01065000  0.58558900  0.23272800  1
  O  O19  1  0.98935000  0.08558900  0.76727200  1
  O  O20  1  0.48935000  0.91441100  0.73272800  1
  O  O21  1  0.51065000  0.41441100  0.26727200  1
  O  O22  1  0.01065000  0.91441100  0.23272800  1
  O  O23  1  0.98935000  0.41441100  0.76727200  1
  O  O24  1  0.06891700  0.75000000  0.65490100  1
  O  O25  1  0.93108300  0.25000000  0.34509900  1
  O  O26  1  0.43108300  0.75000000  0.15490100  1
  O  O27  1  0.56891700  0.25000000  0.84509900  1
loop_
_geom_bond_atom_site_label_1
_geom_bond_atom_site_label_2
_geom_bond_distance
_geom_bond_site_symmetry_2
O0 Si0 1.630666 1_655
O0 Y2 2.373397 1_555
O0 Y6 2.373397 1_545
O1 Si1 1.630666 1_455
O1 Y3 2.373397 1_565
O1 Y7 2.373397 1_555
O2 Si2 1.630666 1_555
O2 Y0 2.373397 1_555
O2 Y4 2.373397 1_545
O3 Si3 1.630666 1_555
O3 Y1 2.373397 1_565
O3 Y5 2.373397 1_555
O4 Si0 1.629796 1_555
O4 Y2 2.280559 1_555
O4 Y7 2.476414 1_554
O5 Si1 1.629796 1_555
O5 Y3 2.280559 1_565
O5 Y6 2.476414 1_556
O6 Si2 1.629796 1_555
O6 Y0 2.280559 1_455
O6 Y5 2.476414 1_555
O7 Si3 1.629796 1_555
O7 Y1 2.280559 1_665
O7 Y4 2.476414 1_555
O8 Si0 1.629796 1_555
O8 Y6 2.280559 1_545
O8 Y3 2.476414 1_554
O9 Si1 1.629796 1_555
O9 Y7 2.280559 1_555
O9 Y2 2.476414 1_556
O10 Si2 1.629796 1_555
O10 Y4 2.280559 1_445
O10 Y1 2.476414 1_555
O11 Si3 1.629796 1_555
O11 Y5 2.280559 1_655
O11 Y0 2.476414 1_555
O12 Si4 1.683919 1_455
O12 Si0 1.695138 1_556
O12 Y7 2.511619 1_555
O12 Y3 2.511619 1_555
O13 Si5 1.683919 1_655
O13 Si1 1.695138 1_554
O13 Y6 2.511619 1_555
O13 Y2 2.511619 1_555
O14 Si6 1.683919 1_555
O14 Si2 1.695138 1_555
O14 Y5 2.511619 1_555
O14 Y1 2.511619 1_555
O15 Si7 1.683919 1_555
O15 Si3 1.695138 1_555
O15 Y4 2.511619 1_555
O15 Y0 2.511619 1_555
O16 Si7 1.628578 1_555
O16 Y7 2.239312 1_555
O16 Y0 2.411608 1_555
O17 Si6 1.628578 1_555
O17 Y6 2.239312 1_545
O17 Y1 2.411608 1_555
O18 Si5 1.628578 1_555
O18 Y5 2.239312 1_555
O18 Y2 2.411608 1_455
O19 Si4 1.628578 1_555
O19 Y4 2.239312 1_545
O19 Y3 2.411608 1_655
O20 Si7 1.628578 1_555
O20 Y3 2.239312 1_565
O20 Y4 2.411608 1_555
O21 Si6 1.628578 1_555
O21 Y2 2.239312 1_555
O21 Y5 2.411608 1_555
O22 Si5 1.628578 1_555
O22 Y1 2.239312 1_565
O22 Y6 2.411608 1_455
O23 Si4 1.628578 1_555
O23 Y0 2.239312 1_555
O23 Y7 2.411608 1_655
O24 Si7 1.623127 1_555
O24 Y4 2.327162 1_455
O24 Y0 2.327162 1_455
O25 Si6 1.623127 1_555
O25 Y1 2.327162 1_655
O25 Y5 2.327162 1_655
O26 Si5 1.623127 1_555
O26 Y6 2.327162 1_555
O26 Y2 2.327162 1_555
O27 Si4 1.623127 1_555
O27 Y3 2.327162 1_555
O27 Y7 2.327162 1_555
