# generated using pymatgen
data_CeAl4Si2Ir
_symmetry_space_group_name_H-M   'P 1'
_cell_length_a   4.26405600
_cell_length_b   4.26405600
_cell_length_c   7.91524800
_cell_angle_alpha   90.00000000
_cell_angle_beta   90.00000000
_cell_angle_gamma   90.00000000
_symmetry_Int_Tables_number   1
_chemical_formula_structural   CeAl4Si2Ir
_chemical_formula_sum   'Ce1 Al4 Si2 Ir1'
_cell_volume   143.91641299
_cell_formula_units_Z   1
loop_
 _symmetry_equiv_pos_site_id
 _symmetry_equiv_pos_as_xyz
  1  'x, y, z'
loop_
 _atom_site_type_symbol
 _atom_site_label
 _atom_site_symmetry_multiplicity
 _atom_site_fract_x
 _atom_site_fract_y
 _atom_site_fract_z
 _atom_site_occupancy
  Ce  Ce0  1  0.00000000  0.00000000  0.50000000  1
  Al  Al0  1  0.00000000  0.50000000  0.82939500  1
  Al  Al1  1  0.50000000  0.00000000  0.82939500  1
  Al  Al2  1  0.00000000  0.50000000  0.17060500  1
  Al  Al3  1  0.50000000  0.00000000  0.17060500  1
  Si  Si0  1  0.50000000  0.50000000  0.64350800  1
  Si  Si1  1  0.50000000  0.50000000  0.35649200  1
  Ir  Ir0  1  0.00000000  0.00000000  0.00000000  1
loop_
_geom_bond_atom_site_label_1
_geom_bond_atom_site_label_2
_geom_bond_distance
_geom_bond_site_symmetry_2
Ce0 Si0 3.222012 1_555
Ce0 Si1 3.222012 1_445
Ce0 Si0 3.222012 1_445
Ce0 Si1 3.222012 1_555
Ce0 Si1 3.222012 1_545
Ce0 Si1 3.222012 1_455
Ce0 Si0 3.222012 1_455
Ce0 Si0 3.222012 1_545
Al0 Ir0 2.523702 1_556
Al0 Ir0 2.523702 1_566
Al0 Si0 2.590442 1_455
Al0 Si0 2.590442 1_555
Al0 Ce0 3.367976 1_555
Al0 Ce0 3.367976 1_565
Al1 Ir0 2.523702 1_556
Al1 Ir0 2.523702 1_656
Al1 Si0 2.590442 1_545
Al1 Si0 2.590442 1_555
Al1 Ce0 3.367976 1_655
Al1 Ce0 3.367976 1_555
Al2 Ir0 2.523702 1_555
Al2 Ir0 2.523702 1_565
Al2 Si1 2.590442 1_455
Al2 Si1 2.590442 1_555
Al2 Ce0 3.367976 1_565
Al2 Ce0 3.367976 1_555
Al3 Ir0 2.523702 1_555
Al3 Ir0 2.523702 1_655
Al3 Si1 2.590442 1_555
Al3 Si1 2.590442 1_545
Al3 Ce0 3.367976 1_655
Al3 Ce0 3.367976 1_555
Si0 Si1 2.271803 1_555
