# generated using pymatgen
data_Sr5La6Nb4O24
_symmetry_space_group_name_H-M   'P 1'
_cell_length_a   11.78112445
_cell_length_b   11.78112445
_cell_length_c   11.73626551
_cell_angle_alpha   60.29602292
_cell_angle_beta   60.29602292
_cell_angle_gamma   90.55152774
_symmetry_Int_Tables_number   1
_chemical_formula_structural   Sr5La6Nb4O24
_chemical_formula_sum   'Sr10 La12 Nb8 O48'
_cell_volume   1156.54549672
_cell_formula_units_Z   2
loop_
 _symmetry_equiv_pos_site_id
 _symmetry_equiv_pos_as_xyz
  1  'x, y, z'
loop_
 _atom_site_type_symbol
 _atom_site_label
 _atom_site_symmetry_multiplicity
 _atom_site_fract_x
 _atom_site_fract_y
 _atom_site_fract_z
 _atom_site_occupancy
  Sr  Sr0  1  0.86502900  0.13497100  0.75000000  1
  Sr  Sr1  1  0.61555900  0.38444100  0.25000000  1
  Sr  Sr2  1  0.13497100  0.86502900  0.25000000  1
  Sr  Sr3  1  0.38444100  0.61555900  0.75000000  1
  Sr  Sr4  1  0.62596400  0.37403600  0.75000000  1
  Sr  Sr5  1  0.37403600  0.62596400  0.25000000  1
  Sr  Sr6  1  0.61839700  0.84941300  0.22070400  1
  Sr  Sr7  1  0.15058700  0.38160300  0.27929600  1
  Sr  Sr8  1  0.38160300  0.15058700  0.77929600  1
  Sr  Sr9  1  0.84941300  0.61839700  0.72070400  1
  La  La0  1  0.23719400  0.80744700  0.51811300  1
  La  La1  1  0.19255300  0.76280600  0.98188700  1
  La  La2  1  0.17195100  0.24316200  0.06621900  1
  La  La3  1  0.75683800  0.82804900  0.43378100  1
  La  La4  1  0.76280600  0.19255300  0.48188700  1
  La  La5  1  0.80744700  0.23719400  0.01811300  1
  La  La6  1  0.82804900  0.75683800  0.93378100  1
  La  La7  1  0.24316200  0.17195100  0.56621900  1
  La  La8  1  0.43018400  0.16216700  0.18576700  1
  La  La9  1  0.83783300  0.56981600  0.31423300  1
  La  La10  1  0.56981600  0.83783300  0.81423300  1
  La  La11  1  0.16216700  0.43018400  0.68576700  1
  Nb  Nb0  1  0.50000000  0.00000000  0.50000000  1
  Nb  Nb1  1  0.00000000  0.50000000  0.00000000  1
  Nb  Nb2  1  0.00000000  0.00000000  0.50000000  1
  Nb  Nb3  1  0.00000000  0.00000000  0.00000000  1
  Nb  Nb4  1  0.00000000  0.50000000  0.50000000  1
  Nb  Nb5  1  0.50000000  0.00000000  0.00000000  1
  Nb  Nb6  1  0.50000000  0.50000000  0.50000000  1
  Nb  Nb7  1  0.50000000  0.50000000  0.00000000  1
  O  O0  1  0.10207100  0.64395600  0.49987800  1
  O  O1  1  0.35604400  0.89792900  0.00012200  1
  O  O2  1  0.35177800  0.40282100  0.74338200  1
  O  O3  1  0.59717900  0.64822200  0.75661800  1
  O  O4  1  0.89792900  0.35604400  0.50012200  1
  O  O5  1  0.64395600  0.10207100  0.99987800  1
  O  O6  1  0.64822200  0.59717900  0.25661800  1
  O  O7  1  0.40282100  0.35177800  0.24338200  1
  O  O8  1  0.41672400  0.15263300  0.97996400  1
  O  O9  1  0.84736700  0.58327600  0.52003600  1
  O  O10  1  0.37601000  0.61327900  0.03940900  1
  O  O11  1  0.38672100  0.62399000  0.46059100  1
  O  O12  1  0.58327600  0.84736700  0.02003600  1
  O  O13  1  0.15263300  0.41672400  0.47996400  1
  O  O14  1  0.62399000  0.38672100  0.96059100  1
  O  O15  1  0.61327900  0.37601000  0.53940900  1
  O  O16  1  0.39552000  0.84145800  0.74025000  1
  O  O17  1  0.15854200  0.60448000  0.75975000  1
  O  O18  1  0.92228300  0.87000500  0.46949500  1
  O  O19  1  0.12999500  0.07771700  0.03050500  1
  O  O20  1  0.60448000  0.15854200  0.25975000  1
  O  O21  1  0.84145800  0.39552000  0.24025000  1
  O  O22  1  0.07771700  0.12999500  0.53050500  1
  O  O23  1  0.87000500  0.92228300  0.96949500  1
  O  O24  1  0.38308400  0.89933500  0.23953400  1
  O  O25  1  0.10066500  0.61691600  0.26046600  1
  O  O26  1  0.36386600  0.37436800  0.02136200  1
  O  O27  1  0.62563200  0.63613400  0.47863800  1
  O  O28  1  0.61691600  0.10066500  0.76046600  1
  O  O29  1  0.89933500  0.38308400  0.73953400  1
  O  O30  1  0.63613400  0.62563200  0.97863800  1
  O  O31  1  0.37436800  0.36386600  0.52136200  1
  O  O32  1  0.98758900  0.67093300  0.00782100  1
  O  O33  1  0.32906700  0.01241100  0.49217900  1
  O  O34  1  0.82673800  0.00876700  0.16420400  1
  O  O35  1  0.99123300  0.17326200  0.33579600  1
  O  O36  1  0.01241100  0.32906700  0.99217900  1
  O  O37  1  0.67093300  0.98758900  0.50782100  1
  O  O38  1  0.17326200  0.99123300  0.83579600  1
  O  O39  1  0.00876700  0.82673800  0.66420400  1
  O  O40  1  0.85140100  0.50294000  0.96538800  1
  O  O41  1  0.49706000  0.14859900  0.53461200  1
  O  O42  1  0.03618000  0.18834600  0.81797400  1
  O  O43  1  0.81165400  0.96382000  0.68202600  1
  O  O44  1  0.14859900  0.49706000  0.03461200  1
  O  O45  1  0.50294000  0.85140100  0.46538800  1
  O  O46  1  0.96382000  0.81165400  0.18202600  1
  O  O47  1  0.18834600  0.03618000  0.31797400  1
loop_
_geom_bond_atom_site_label_1
_geom_bond_atom_site_label_2
_geom_bond_distance
_geom_bond_site_symmetry_2
La0 O17 2.291607 1_555
La0 O24 2.388091 1_555
La0 O33 2.447405 1_565
La0 O39 2.461450 1_555
La0 O0 2.641393 1_555
La0 O45 2.860797 1_555
La0 O47 2.864720 1_565
La0 O11 2.927637 1_555
La1 O16 2.291607 1_555
La1 O25 2.388091 1_556
La1 O32 2.447405 1_456
La1 O38 2.461450 1_555
La1 O1 2.641393 1_556
La1 O44 2.860797 1_556
La1 O46 2.864720 1_456
La1 O10 2.927637 1_556
La2 O19 2.283755 1_555
La2 O26 2.392724 1_555
La2 O35 2.435041 1_455
La2 O36 2.468962 1_554
La2 O2 2.699516 1_554
La2 O47 2.854446 1_555
La2 O44 2.859709 1_555
La2 O8 2.951975 1_554
La3 O18 2.283755 1_555
La3 O27 2.392724 1_555
La3 O34 2.435041 1_565
La3 O37 2.468962 1_555
La3 O3 2.699516 1_555
La3 O46 2.854446 1_555
La3 O45 2.859709 1_555
La3 O9 2.951975 1_555
La4 O21 2.291607 1_555
La4 O28 2.388091 1_555
La4 O37 2.447405 1_545
La4 O35 2.461450 1_555
La4 O4 2.641393 1_555
La4 O41 2.860797 1_555
La4 O43 2.864720 1_545
La4 O15 2.927637 1_555
La5 O20 2.291607 1_555
La5 O29 2.388091 1_554
La5 O36 2.447405 1_654
La5 O34 2.461450 1_555
La5 O5 2.641393 1_554
La5 O40 2.860797 1_554
La5 O42 2.864720 1_654
La5 O14 2.927637 1_554
La6 O23 2.283755 1_555
La6 O30 2.392724 1_555
La6 O39 2.435041 1_655
La6 O32 2.468962 1_556
La6 O6 2.699516 1_556
La6 O43 2.854446 1_555
La6 O40 2.859709 1_555
La6 O12 2.951975 1_556
La7 O22 2.283755 1_555
La7 O31 2.392724 1_555
La7 O38 2.435041 1_545
La7 O33 2.468962 1_555
La7 O7 2.699516 1_555
La7 O42 2.854446 1_555
La7 O41 2.859709 1_555
La7 O13 2.951975 1_555
La8 O47 2.446049 1_555
La8 O14 2.484153 1_554
La8 O8 2.553394 1_554
La8 O20 2.589228 1_555
La8 O7 2.616473 1_555
La8 O33 2.624922 1_555
La8 O26 2.708208 1_555
La8 O5 2.779110 1_554
La8 O24 2.824468 1_545
La9 O46 2.446049 1_555
La9 O15 2.484153 1_555
La9 O9 2.553394 1_555
La9 O21 2.589228 1_555
La9 O6 2.616473 1_555
La9 O32 2.624922 1_555
La9 O27 2.708208 1_555
La9 O4 2.779110 1_555
La9 O25 2.824468 1_655
La10 O43 2.446049 1_555
La10 O10 2.484153 1_556
La10 O12 2.553394 1_556
La10 O16 2.589228 1_555
La10 O3 2.616473 1_555
La10 O37 2.624922 1_555
La10 O30 2.708208 1_555
La10 O1 2.779110 1_556
La10 O28 2.824468 1_565
La11 O42 2.446049 1_555
La11 O11 2.484153 1_555
La11 O13 2.553394 1_555
La11 O17 2.589228 1_555
La11 O2 2.616473 1_555
La11 O36 2.624922 1_555
La11 O31 2.708208 1_555
La11 O0 2.779110 1_555
La11 O29 2.824468 1_455
Nb0 O41 1.980664 1_555
Nb0 O45 1.980664 1_545
Nb0 O16 2.061792 1_545
Nb0 O20 2.061792 1_555
Nb0 O37 2.064142 1_545
Nb0 O33 2.064142 1_555
Nb1 O40 1.980664 1_454
Nb1 O44 1.980664 1_555
Nb1 O17 2.061792 1_554
Nb1 O21 2.061792 1_455
Nb1 O36 2.064142 1_554
Nb1 O32 2.064142 1_455
Nb2 O47 2.012628 1_555
Nb2 O43 2.012628 1_445
Nb2 O18 2.037936 1_445
Nb2 O22 2.037936 1_555
Nb2 O35 2.047921 1_455
Nb2 O39 2.047921 1_545
Nb3 O46 2.012628 1_445
Nb3 O42 2.012628 1_554
Nb3 O23 2.037936 1_444
Nb3 O19 2.037936 1_555
Nb3 O38 2.047921 1_544
Nb3 O34 2.047921 1_455
Nb4 O25 2.008409 1_555
Nb4 O29 2.008409 1_455
Nb4 O13 2.023573 1_555
Nb4 O9 2.023573 1_455
Nb4 O0 2.068563 1_555
Nb4 O4 2.068563 1_455
Nb5 O24 2.008409 1_545
Nb5 O28 2.008409 1_554
Nb5 O8 2.023573 1_554
Nb5 O12 2.023573 1_545
Nb5 O5 2.068563 1_554
Nb5 O1 2.068563 1_545
Nb6 O27 2.003444 1_555
Nb6 O31 2.003444 1_555
Nb6 O15 2.026921 1_555
Nb6 O11 2.026921 1_555
Nb6 O2 2.072783 1_555
Nb6 O6 2.072783 1_555
Nb7 O30 2.003444 1_554
Nb7 O26 2.003444 1_555
Nb7 O10 2.026921 1_555
Nb7 O14 2.026921 1_554
Nb7 O3 2.072783 1_554
Nb7 O7 2.072783 1_555
O0 Sr2 2.611215 1_555
O0 Sr9 2.689179 1_455
O0 Sr5 3.198163 1_555
O1 Sr2 2.611215 1_555
O1 Sr8 2.689179 1_564
O1 Sr5 3.198163 1_555
O2 Sr3 2.576740 1_555
O2 Sr8 2.838505 1_555
O3 Sr3 2.576740 1_555
O3 Sr9 2.838505 1_555
O4 Sr0 2.611215 1_555
O4 Sr7 2.689179 1_655
O4 Sr4 3.198163 1_555
O5 Sr0 2.611215 1_555
O5 Sr6 2.689179 1_546
O5 Sr4 3.198163 1_555
O6 Sr1 2.576740 1_555
O6 Sr6 2.838505 1_555
O7 Sr1 2.576740 1_555
O7 Sr7 2.838505 1_555
O8 Sr4 2.543718 1_555
O8 Sr8 2.596157 1_555
O9 Sr4 2.543718 1_555
O9 Sr9 2.596157 1_555
O10 Sr5 2.537833 1_555
O10 Sr7 2.695192 1_555
O11 Sr5 2.537833 1_555
O11 Sr6 2.695192 1_555
O12 Sr5 2.543718 1_555
O12 Sr6 2.596157 1_555
O13 Sr5 2.543718 1_555
O13 Sr7 2.596157 1_555
O14 Sr4 2.537833 1_555
O14 Sr9 2.695192 1_555
O15 Sr4 2.537833 1_555
O15 Sr8 2.695192 1_555
O16 Sr3 2.605684 1_555
O17 Sr3 2.605684 1_555
O18 Sr2 2.583321 1_655
O18 Sr9 2.645283 1_555
O19 Sr2 2.583321 1_545
O19 Sr8 2.645283 1_554
O20 Sr1 2.605684 1_555
O21 Sr1 2.605684 1_555
O22 Sr0 2.583321 1_455
O22 Sr7 2.645283 1_555
O23 Sr0 2.583321 1_565
O23 Sr6 2.645283 1_556
O24 Sr6 2.762818 1_555
O24 Sr2 2.880085 1_555
O25 Sr7 2.762818 1_555
O25 Sr2 2.880085 1_555
O26 Sr7 2.864663 1_555
O26 Sr3 2.920432 1_554
O27 Sr6 2.864663 1_555
O27 Sr3 2.920432 1_555
O28 Sr8 2.762818 1_555
O28 Sr0 2.880085 1_555
O29 Sr9 2.762818 1_555
O29 Sr0 2.880085 1_555
O30 Sr9 2.864663 1_555
O30 Sr1 2.920432 1_556
O31 Sr8 2.864663 1_555
O31 Sr1 2.920432 1_555
O34 Sr6 2.655809 1_545
O35 Sr7 2.655809 1_655
O38 Sr8 2.655809 1_565
O39 Sr9 2.655809 1_455
O40 Sr9 2.508672 1_555
O40 Sr1 2.632980 1_556
O41 Sr8 2.508672 1_555
O41 Sr1 2.632980 1_555
O42 Sr0 2.676639 1_455
O43 Sr0 2.676639 1_565
O44 Sr7 2.508672 1_555
O44 Sr3 2.632980 1_554
O45 Sr6 2.508672 1_555
O45 Sr3 2.632980 1_555
O46 Sr2 2.676639 1_655
O47 Sr2 2.676639 1_545
