# generated using pymatgen
data_LiTi4O8
_symmetry_space_group_name_H-M   'P 1'
_cell_length_a   3.82730100
_cell_length_b   6.49341920
_cell_length_c   6.60498914
_cell_angle_alpha   107.04891823
_cell_angle_beta   73.15832111
_cell_angle_gamma   90.00000000
_symmetry_Int_Tables_number   1
_chemical_formula_structural   LiTi4O8
_chemical_formula_sum   'Li1 Ti4 O8'
_cell_volume   149.55569295
_cell_formula_units_Z   1
loop_
 _symmetry_equiv_pos_site_id
 _symmetry_equiv_pos_as_xyz
  1  'x, y, z'
loop_
 _atom_site_type_symbol
 _atom_site_label
 _atom_site_symmetry_multiplicity
 _atom_site_fract_x
 _atom_site_fract_y
 _atom_site_fract_z
 _atom_site_occupancy
  Li  Li0  1  0.32443900  0.00000000  0.00000000  1
  Ti  Ti0  1  0.30444900  0.29258000  0.40610600  1
  Ti  Ti1  1  0.71055500  0.70742000  0.59389400  1
  Ti  Ti2  1  0.41043600  0.68913300  0.20228700  1
  Ti  Ti3  1  0.61272300  0.31086700  0.79771300  1
  O  O0  1  0.13404800  0.31183600  0.73130600  1
  O  O1  1  0.86535300  0.68816400  0.26869400  1
  O  O2  1  0.35483900  0.00140200  0.28191400  1
  O  O3  1  0.63675200  0.99859800  0.71808600  1
  O  O4  1  0.23903300  0.65143100  0.52724700  1
  O  O5  1  0.76628100  0.34856900  0.47275300  1
  O  O6  1  0.43047800  0.34374400  0.11013600  1
  O  O7  1  0.54061400  0.65625600  0.88986400  1
loop_
_geom_bond_atom_site_label_1
_geom_bond_atom_site_label_2
_geom_bond_distance
_geom_bond_site_symmetry_2
Li0 O3 1.896418 1_544
Li0 O2 1.896420 1_555
Li0 O7 2.212466 1_544
Li0 O6 2.212466 1_555
O0 Ti3 1.915208 1_455
O0 Ti3 2.004001 1_555
O0 Ti0 2.021241 1_555
O1 Ti2 1.915204 1_555
O1 Ti2 2.004004 1_655
O1 Ti1 2.021241 1_555
O2 Ti0 1.812141 1_555
O2 Ti2 1.934747 1_545
O3 Ti1 1.812141 1_555
O3 Ti3 1.934747 1_565
O4 Ti1 1.951222 1_455
O4 Ti1 1.987266 1_555
O4 Ti2 2.142279 1_555
O4 Ti0 2.218838 1_555
O5 Ti0 1.951226 1_555
O5 Ti0 1.987262 1_655
O5 Ti3 2.142279 1_555
O5 Ti1 2.218838 1_555
O6 Ti3 1.923013 1_554
O6 Ti0 1.999758 1_555
O6 Ti2 2.139814 1_555
O7 Ti2 1.923013 1_556
O7 Ti1 1.999758 1_555
O7 Ti3 2.139814 1_555
