# generated using pymatgen
data_CaV(SiO3)2
_symmetry_space_group_name_H-M   'P 1'
_cell_length_a   5.41491500
_cell_length_b   9.60481000
_cell_length_c   19.39268700
_cell_angle_alpha   90.00000000
_cell_angle_beta   90.00000000
_cell_angle_gamma   90.00000000
_symmetry_Int_Tables_number   1
_chemical_formula_structural   CaV(SiO3)2
_chemical_formula_sum   'Ca8 V8 Si16 O48'
_cell_volume   1008.59871348
_cell_formula_units_Z   8
loop_
 _symmetry_equiv_pos_site_id
 _symmetry_equiv_pos_as_xyz
  1  'x, y, z'
loop_
 _atom_site_type_symbol
 _atom_site_label
 _atom_site_symmetry_multiplicity
 _atom_site_fract_x
 _atom_site_fract_y
 _atom_site_fract_z
 _atom_site_occupancy
  Ca  Ca0  1  0.62440300  0.14624700  0.37771300  1
  Ca  Ca1  1  0.37559700  0.85375300  0.62228700  1
  Ca  Ca2  1  0.62440300  0.64624700  0.12228700  1
  Ca  Ca3  1  0.12440300  0.85375300  0.12228700  1
  Ca  Ca4  1  0.87559700  0.14624700  0.87771300  1
  Ca  Ca5  1  0.37559700  0.35375300  0.87771300  1
  Ca  Ca6  1  0.12440300  0.35375300  0.37771300  1
  Ca  Ca7  1  0.87559700  0.64624700  0.62228700  1
  V  V0  1  0.36495300  0.98060200  0.87384300  1
  V  V1  1  0.63504700  0.01939800  0.12615700  1
  V  V2  1  0.86495300  0.01939800  0.62615700  1
  V  V3  1  0.13504700  0.98060200  0.37384300  1
  V  V4  1  0.36495300  0.48060200  0.62615700  1
  V  V5  1  0.63504700  0.51939800  0.37384300  1
  V  V6  1  0.86495300  0.51939800  0.87384300  1
  V  V7  1  0.13504700  0.48060200  0.12615700  1
  Si  Si0  1  0.55140500  0.66338700  0.77091700  1
  Si  Si1  1  0.72904100  0.83406800  0.47597800  1
  Si  Si2  1  0.77095900  0.83406800  0.97597800  1
  Si  Si3  1  0.94859500  0.16338700  0.22908300  1
  Si  Si4  1  0.05140500  0.33661300  0.72908300  1
  Si  Si5  1  0.44859500  0.83661300  0.27091700  1
  Si  Si6  1  0.22904100  0.66593200  0.47597800  1
  Si  Si7  1  0.72904100  0.33406800  0.02402200  1
  Si  Si8  1  0.77095900  0.33406800  0.52402200  1
  Si  Si9  1  0.94859500  0.66338700  0.27091700  1
  Si  Si10  1  0.44859500  0.33661300  0.22908300  1
  Si  Si11  1  0.55140500  0.16338700  0.72908300  1
  Si  Si12  1  0.27095900  0.16593200  0.52402200  1
  Si  Si13  1  0.05140500  0.83661300  0.77091700  1
  Si  Si14  1  0.27095900  0.66593200  0.97597800  1
  Si  Si15  1  0.22904100  0.16593200  0.02402200  1
  O  O0  1  0.95160200  0.51747100  0.31118000  1
  O  O1  1  0.30903400  0.03099800  0.06680400  1
  O  O2  1  0.04839800  0.48252900  0.68882000  1
  O  O3  1  0.73734200  0.34964500  0.94006900  1
  O  O4  1  0.23734200  0.15035500  0.94006900  1
  O  O5  1  0.93383700  0.20783200  0.04568300  1
  O  O6  1  0.97429400  0.65217100  0.18755900  1
  O  O7  1  0.02570600  0.84782900  0.68755900  1
  O  O8  1  0.73734200  0.84964500  0.55993100  1
  O  O9  1  0.97429400  0.15217100  0.31244100  1
  O  O10  1  0.45160200  0.48252900  0.18882000  1
  O  O11  1  0.76265800  0.34964500  0.44006900  1
  O  O12  1  0.69096600  0.96900200  0.93319600  1
  O  O13  1  0.47429400  0.84782900  0.18755900  1
  O  O14  1  0.54839800  0.01747100  0.68882000  1
  O  O15  1  0.30903400  0.53099800  0.43319600  1
  O  O16  1  0.45160200  0.98252900  0.31118000  1
  O  O17  1  0.16979700  0.77415300  0.29721800  1
  O  O18  1  0.33020300  0.77415300  0.79721800  1
  O  O19  1  0.56616300  0.70783200  0.95431700  1
  O  O20  1  0.76265800  0.84964500  0.05993100  1
  O  O21  1  0.52570600  0.65217100  0.68755900  1
  O  O22  1  0.80903400  0.46900200  0.06680400  1
  O  O23  1  0.16979700  0.27415300  0.20278200  1
  O  O24  1  0.26265800  0.15035500  0.44006900  1
  O  O25  1  0.52570600  0.15217100  0.81244100  1
  O  O26  1  0.69096600  0.46900200  0.56680400  1
  O  O27  1  0.23734200  0.65035500  0.55993100  1
  O  O28  1  0.19096600  0.53099800  0.93319600  1
  O  O29  1  0.66979700  0.72584700  0.29721800  1
  O  O30  1  0.04839800  0.98252900  0.81118000  1
  O  O31  1  0.83020300  0.72584700  0.79721800  1
  O  O32  1  0.83020300  0.22584700  0.70278200  1
  O  O33  1  0.80903400  0.96900200  0.43319600  1
  O  O34  1  0.26265800  0.65035500  0.05993100  1
  O  O35  1  0.19096600  0.03099800  0.56680400  1
  O  O36  1  0.33020300  0.27415300  0.70278200  1
  O  O37  1  0.06616300  0.79216800  0.95431700  1
  O  O38  1  0.43383700  0.79216800  0.45431700  1
  O  O39  1  0.66979700  0.22584700  0.20278200  1
  O  O40  1  0.43383700  0.29216800  0.04568300  1
  O  O41  1  0.56616300  0.20783200  0.54568300  1
  O  O42  1  0.06616300  0.29216800  0.54568300  1
  O  O43  1  0.47429400  0.34782900  0.31244100  1
  O  O44  1  0.54839800  0.51747100  0.81118000  1
  O  O45  1  0.93383700  0.70783200  0.45431700  1
  O  O46  1  0.02570600  0.34782900  0.81244100  1
  O  O47  1  0.95160200  0.01747100  0.18882000  1
loop_
_geom_bond_atom_site_label_1
_geom_bond_atom_site_label_2
_geom_bond_distance
_geom_bond_site_symmetry_2
Ca0 O16 2.238970 1_545
Ca0 O33 2.248422 1_545
Ca0 O9 2.279278 1_555
Ca0 O24 2.302349 1_555
Ca0 O11 2.416464 1_555
Ca0 O43 2.451865 1_555
Ca1 O14 2.238970 1_565
Ca1 O35 2.248422 1_565
Ca1 O7 2.279278 1_555
Ca1 O8 2.302349 1_555
Ca1 O27 2.416464 1_555
Ca1 O21 2.451865 1_555
Ca2 O10 2.238970 1_555
Ca2 O22 2.248422 1_555
Ca2 O6 2.279278 1_555
Ca2 O34 2.302349 1_555
Ca2 O20 2.416464 1_555
Ca2 O13 2.451865 1_555
Ca3 O47 2.238970 1_465
Ca3 O1 2.248422 1_565
Ca3 O13 2.279278 1_555
Ca3 O20 2.302349 1_455
Ca3 O34 2.416464 1_555
Ca3 O6 2.451865 1_455
Ca4 O30 2.238970 1_645
Ca4 O12 2.248422 1_545
Ca4 O25 2.279278 1_555
Ca4 O4 2.302349 1_655
Ca4 O3 2.416464 1_555
Ca4 O46 2.451865 1_655
Ca5 O44 2.238970 1_555
Ca5 O28 2.248422 1_555
Ca5 O46 2.279278 1_555
Ca5 O3 2.302349 1_555
Ca5 O4 2.416464 1_555
Ca5 O25 2.451865 1_555
Ca6 O0 2.238970 1_455
Ca6 O15 2.248422 1_555
Ca6 O43 2.279278 1_555
Ca6 O11 2.302349 1_455
Ca6 O24 2.416464 1_555
Ca6 O9 2.451865 1_455
Ca7 O2 2.238970 1_655
Ca7 O26 2.248422 1_555
Ca7 O21 2.279278 1_555
Ca7 O27 2.302349 1_655
Ca7 O8 2.416464 1_555
Ca7 O7 2.451865 1_655
O0 Si9 1.604405 1_555
O0 V5 2.101253 1_555
O1 Si15 1.598628 1_555
O1 V1 2.110366 1_555
O2 Si4 1.604405 1_555
O2 V4 2.101253 1_555
O3 Si7 1.635552 1_556
O3 V6 2.187524 1_555
O4 Si15 1.635552 1_556
O4 V0 2.187524 1_545
O5 Si7 1.695972 1_555
O5 Si15 1.701068 1_655
O6 Si9 1.626087 1_555
O6 V7 2.211589 1_655
O7 Si13 1.626087 1_555
O7 V2 2.211589 1_465
O8 Si1 1.635552 1_555
O8 V2 2.187524 1_565
O9 Si3 1.626087 1_555
O9 V3 2.211589 1_645
O10 Si10 1.604405 1_555
O10 V7 2.101253 1_555
O11 Si8 1.635552 1_555
O11 V5 2.187524 1_555
O12 Si2 1.598628 1_555
O12 V0 2.110366 1_555
O13 Si5 1.626087 1_555
O13 V1 2.211589 1_565
O14 Si11 1.604405 1_555
O14 V2 2.101253 1_555
O15 Si6 1.598628 1_555
O15 V5 2.110366 1_555
O16 Si5 1.604405 1_555
O16 V3 2.101253 1_555
O17 Si9 1.681280 1_455
O17 Si5 1.702687 1_555
O17 V3 2.485036 1_555
O18 Si0 1.681280 1_555
O18 Si13 1.702687 1_555
O18 V0 2.485036 1_555
O19 Si2 1.695972 1_555
O19 Si14 1.701068 1_555
O20 Si2 1.635552 1_554
O20 V1 2.187524 1_565
O21 Si0 1.626087 1_555
O21 V4 2.211589 1_555
O22 Si7 1.598628 1_555
O22 V7 2.110366 1_655
O23 Si3 1.681280 1_455
O23 Si10 1.702687 1_555
O23 V7 2.485036 1_555
O24 Si12 1.635552 1_555
O24 V3 2.187524 1_545
O25 Si11 1.626087 1_555
O25 V0 2.211589 1_545
O26 Si8 1.598628 1_555
O26 V4 2.110366 1_555
O27 Si6 1.635552 1_555
O27 V4 2.187524 1_555
O28 Si14 1.598628 1_555
O28 V6 2.110366 1_455
O29 Si5 1.681280 1_555
O29 Si9 1.702687 1_555
O29 V5 2.485036 1_555
O30 Si13 1.604405 1_555
O30 V0 2.101253 1_555
O31 Si13 1.681280 1_655
O31 Si0 1.702687 1_555
O31 V6 2.485036 1_555
O32 Si4 1.681280 1_655
O32 Si11 1.702687 1_555
O32 V2 2.485036 1_555
O33 Si1 1.598628 1_555
O33 V3 2.110366 1_655
O34 Si14 1.635552 1_554
O34 V7 2.187524 1_555
O35 Si12 1.598628 1_555
O35 V2 2.110366 1_455
O36 Si11 1.681280 1_555
O36 Si4 1.702687 1_555
O36 V4 2.485036 1_555
O37 Si14 1.695972 1_555
O37 Si2 1.701068 1_455
O38 Si6 1.695972 1_555
O38 Si1 1.701068 1_555
O39 Si10 1.681280 1_555
O39 Si3 1.702687 1_555
O39 V1 2.485036 1_555
O40 Si15 1.695972 1_555
O40 Si7 1.701068 1_555
O41 Si8 1.695972 1_555
O41 Si12 1.701068 1_555
O42 Si12 1.695972 1_555
O42 Si8 1.701068 1_455
O43 Si10 1.626087 1_555
O43 V5 2.211589 1_555
O44 Si0 1.604405 1_555
O44 V6 2.101253 1_555
O45 Si1 1.695972 1_555
O45 Si6 1.701068 1_655
O46 Si4 1.626087 1_555
O46 V6 2.211589 1_455
O47 Si3 1.604405 1_555
O47 V1 2.101253 1_555
