# generated using pymatgen
data_Cs2CdI4
_symmetry_space_group_name_H-M   'P 1'
_cell_length_a   8.03299053
_cell_length_b   8.49618626
_cell_length_c   11.22844426
_cell_angle_alpha   90.00000000
_cell_angle_beta   112.08262916
_cell_angle_gamma   90.00000000
_symmetry_Int_Tables_number   1
_chemical_formula_structural   Cs2CdI4
_chemical_formula_sum   'Cs4 Cd2 I8'
_cell_volume   710.12230349
_cell_formula_units_Z   2
loop_
 _symmetry_equiv_pos_site_id
 _symmetry_equiv_pos_as_xyz
  1  'x, y, z'
loop_
 _atom_site_type_symbol
 _atom_site_label
 _atom_site_symmetry_multiplicity
 _atom_site_fract_x
 _atom_site_fract_y
 _atom_site_fract_z
 _atom_site_occupancy
  Cs  Cs0  1  0.28754930  0.25000000  0.58975069  1
  Cs  Cs1  1  0.71245070  0.75000000  0.41024931  1
  Cs  Cs2  1  0.84129324  0.25000000  0.03498067  1
  Cs  Cs3  1  0.15870676  0.75000000  0.96501933  1
  Cd  Cd0  1  0.58730942  0.75000000  0.77880356  1
  Cd  Cd1  1  0.41269058  0.25000000  0.22119644  1
  I  I0  1  0.75059686  0.01051229  0.71468389  1
  I  I1  1  0.24940314  0.51051229  0.28531611  1
  I  I2  1  0.24940314  0.98948771  0.28531611  1
  I  I3  1  0.75059686  0.48948771  0.71468389  1
  I  I4  1  0.31028731  0.25000000  0.95137136  1
  I  I5  1  0.68971269  0.75000000  0.04862864  1
  I  I6  1  0.78179912  0.25000000  0.35825769  1
  I  I7  1  0.21820088  0.75000000  0.64174231  1
loop_
_geom_bond_atom_site_label_1
_geom_bond_atom_site_label_2
_geom_bond_distance
_geom_bond_site_symmetry_2
Cs0 I6 3.914303 1_455
Cs0 I2 3.986257 1_545
Cs0 I1 3.986257 1_555
Cs0 I4 3.995357 1_555
Cs0 I0 4.002566 1_555
Cs0 I3 4.002566 1_555
Cs0 I7 4.352236 1_555
Cs0 I7 4.352236 1_545
Cs1 I7 3.914303 1_655
Cs1 I3 3.986257 1_555
Cs1 I0 3.986257 1_565
Cs1 I5 3.995357 1_555
Cs1 I1 4.002566 1_555
Cs1 I2 4.002566 1_555
Cs1 I6 4.352236 1_555
Cs1 I6 4.352236 1_565
Cs2 I6 3.835222 1_555
Cs2 I3 3.954133 1_554
Cs2 I0 3.954133 1_554
Cs2 I4 4.008173 1_554
Cs2 I1 4.076626 1_655
Cs2 I2 4.076626 1_645
Cs2 I4 4.211195 1_654
Cs2 I5 4.437650 1_545
Cs2 I5 4.437650 1_555
Cs3 I7 3.835222 1_555
Cs3 I2 3.954133 1_556
Cs3 I1 3.954133 1_556
Cs3 I5 4.008173 1_556
Cs3 I3 4.076626 1_455
Cs3 I0 4.076626 1_465
Cs3 I5 4.211195 1_456
Cs3 I4 4.437650 1_565
Cs3 I4 4.437650 1_555
Cd0 I7 2.780106 1_555
Cd0 I3 2.801409 1_555
Cd0 I0 2.801409 1_565
Cd0 I5 2.825236 1_556
Cd1 I6 2.780106 1_555
Cd1 I1 2.801409 1_555
Cd1 I2 2.801409 1_545
Cd1 I4 2.825236 1_554
