# generated using pymatgen
data_Tb3Ni7P5
_symmetry_space_group_name_H-M   'P 1'
_cell_length_a   3.81640100
_cell_length_b   16.32704500
_cell_length_c   16.32995893
_cell_angle_alpha   60.05626822
_cell_angle_beta   90.00000000
_cell_angle_gamma   90.00000000
_symmetry_Int_Tables_number   1
_chemical_formula_structural   Tb3Ni7P5
_chemical_formula_sum   'Tb12 Ni28 P20'
_cell_volume   881.70494984
_cell_formula_units_Z   4
loop_
 _symmetry_equiv_pos_site_id
 _symmetry_equiv_pos_as_xyz
  1  'x, y, z'
loop_
 _atom_site_type_symbol
 _atom_site_label
 _atom_site_symmetry_multiplicity
 _atom_site_fract_x
 _atom_site_fract_y
 _atom_site_fract_z
 _atom_site_occupancy
  Tb  Tb0  1  0.00000000  0.12078300  0.64445200  1
  Tb  Tb1  1  0.00000000  0.64427700  0.23474700  1
  Tb  Tb2  1  0.00000000  0.23631800  0.12159500  1
  Tb  Tb3  1  0.50000000  0.87834100  0.35742500  1
  Tb  Tb4  1  0.50000000  0.35652400  0.76471600  1
  Tb  Tb5  1  0.50000000  0.76485900  0.87915700  1
  Tb  Tb6  1  0.00000000  0.38410700  0.43991600  1
  Tb  Tb7  1  0.00000000  0.44006900  0.17574000  1
  Tb  Tb8  1  0.00000000  0.17562500  0.38408200  1
  Tb  Tb9  1  0.50000000  0.61629800  0.55945100  1
  Tb  Tb10  1  0.50000000  0.55951600  0.82447900  1
  Tb  Tb11  1  0.50000000  0.82433900  0.61614000  1
  Ni  Ni0  1  0.00000000  0.98629900  0.56678700  1
  Ni  Ni1  1  0.00000000  0.56679900  0.44679400  1
  Ni  Ni2  1  0.00000000  0.44653300  0.98620900  1
  Ni  Ni3  1  0.50000000  0.01419800  0.43243000  1
  Ni  Ni4  1  0.50000000  0.43224600  0.55367900  1
  Ni  Ni5  1  0.50000000  0.55368400  0.01452300  1
  Ni  Ni6  1  0.00000000  0.93195500  0.82246000  1
  Ni  Ni7  1  0.00000000  0.82194600  0.24545700  1
  Ni  Ni8  1  0.00000000  0.25142200  0.92655200  1
  Ni  Ni9  1  0.50000000  0.07357200  0.17774500  1
  Ni  Ni10  1  0.50000000  0.17771500  0.74959700  1
  Ni  Ni11  1  0.50000000  0.74931100  0.07331900  1
  Ni  Ni12  1  0.00000000  0.71508000  0.77308500  1
  Ni  Ni13  1  0.00000000  0.77309700  0.51168600  1
  Ni  Ni14  1  0.00000000  0.51205100  0.71487100  1
  Ni  Ni15  1  0.50000000  0.28528300  0.22669600  1
  Ni  Ni16  1  0.50000000  0.22678600  0.48833300  1
  Ni  Ni17  1  0.50000000  0.48822900  0.28488100  1
  Ni  Ni18  1  0.00000000  0.30262100  0.65496100  1
  Ni  Ni19  1  0.00000000  0.65563400  0.04229600  1
  Ni  Ni20  1  0.00000000  0.04174600  0.30310300  1
  Ni  Ni21  1  0.50000000  0.69692100  0.34598700  1
  Ni  Ni22  1  0.50000000  0.34498700  0.95800800  1
  Ni  Ni23  1  0.50000000  0.95722500  0.69681300  1
  Ni  Ni24  1  0.00000000  0.08706800  0.05930800  1
  Ni  Ni25  1  0.50000000  0.94061200  0.14795900  1
  Ni  Ni26  1  0.50000000  0.14787700  0.91190500  1
  Ni  Ni27  1  0.50000000  0.90910300  0.93878100  1
  P  P0  1  0.00000000  0.66676100  0.66661600  1
  P  P1  1  0.50000000  0.33325200  0.33334200  1
  P  P2  1  0.00000000  0.60950700  0.92637800  1
  P  P3  1  0.00000000  0.92633800  0.46406400  1
  P  P4  1  0.00000000  0.46425200  0.60944200  1
  P  P5  1  0.50000000  0.39080400  0.07328600  1
  P  P6  1  0.50000000  0.07323100  0.53642500  1
  P  P7  1  0.50000000  0.53642900  0.39032300  1
  P  P8  1  0.00000000  0.81869100  0.98017200  1
  P  P9  1  0.00000000  0.97562900  0.20628200  1
  P  P10  1  0.00000000  0.20139200  0.81725700  1
  P  P11  1  0.50000000  0.18327000  0.02314600  1
  P  P12  1  0.50000000  0.02313600  0.79331700  1
  P  P13  1  0.50000000  0.79320800  0.18382800  1
  P  P14  1  0.00000000  0.86901100  0.72286600  1
  P  P15  1  0.00000000  0.72292300  0.40808900  1
  P  P16  1  0.00000000  0.40876300  0.86867700  1
  P  P17  1  0.50000000  0.13154100  0.27724500  1
  P  P18  1  0.50000000  0.27696300  0.59190700  1
  P  P19  1  0.50000000  0.59183900  0.13121300  1
loop_
_geom_bond_atom_site_label_1
_geom_bond_atom_site_label_2
_geom_bond_distance
_geom_bond_site_symmetry_2
Ni0 P6 2.280145 1_565
Ni0 P6 2.280145 1_465
Ni0 P14 2.300174 1_555
Ni0 P3 2.326309 1_555
Ni0 Tb11 3.025839 1_455
Ni0 Tb11 3.025839 1_555
Ni0 Tb0 3.034755 1_565
Ni0 Tb8 3.041359 1_565
Ni1 P7 2.279030 1_555
Ni1 P7 2.279030 1_455
Ni1 P15 2.299723 1_555
Ni1 P4 2.327738 1_555
Ni1 Tb9 3.027055 1_555
Ni1 Tb9 3.027055 1_455
Ni1 Tb1 3.036078 1_555
Ni1 Tb6 3.040442 1_555
Ni2 P5 2.280237 1_456
Ni2 P5 2.280237 1_556
Ni2 P16 2.290312 1_555
Ni2 P2 2.332283 1_555
Ni2 Tb2 3.015400 1_556
Ni2 Tb10 3.025821 1_455
Ni2 Tb10 3.025821 1_555
Ni2 Tb7 3.043728 1_556
Ni3 P3 2.286064 1_645
Ni3 P3 2.286064 1_545
Ni3 P17 2.290343 1_555
Ni3 P6 2.333882 1_555
Ni3 Tb3 3.022017 1_545
Ni3 Tb8 3.022210 1_555
Ni3 Tb8 3.022210 1_655
Ni3 Tb11 3.053724 1_545
Ni4 P4 2.284414 1_655
Ni4 P4 2.284414 1_555
Ni4 P18 2.288560 1_555
Ni4 P7 2.340857 1_555
Ni4 Tb4 3.025157 1_555
Ni4 Tb6 3.027843 1_655
Ni4 Tb6 3.027843 1_555
Ni4 Tb9 3.053166 1_555
Ni5 P19 2.281277 1_555
Ni5 P2 2.287823 1_654
Ni5 P2 2.287823 1_554
Ni5 P5 2.333539 1_555
Ni5 Tb7 3.022896 1_655
Ni5 Tb7 3.022896 1_555
Ni5 Tb5 3.027468 1_554
Ni5 Tb10 3.056996 1_554
Ni6 P8 2.301755 1_555
Ni6 P14 2.317276 1_555
Ni6 P12 2.318773 1_465
Ni6 P12 2.318773 1_565
Ni6 Tb0 3.001357 1_565
Ni6 Tb5 3.069172 1_455
Ni6 Tb5 3.069172 1_555
Ni7 P9 2.258942 1_555
Ni7 P13 2.312062 1_555
Ni7 P13 2.312062 1_455
Ni7 P15 2.319612 1_555
Ni7 Tb1 2.991948 1_555
Ni7 Tb3 3.084298 1_555
Ni7 Tb3 3.084298 1_455
Ni8 P16 2.251396 1_555
Ni8 P10 2.303928 1_555
Ni8 P11 2.369662 1_456
Ni8 P11 2.369662 1_556
Ni8 Tb4 3.007136 1_455
Ni8 Tb4 3.007136 1_555
Ni8 Tb2 3.069399 1_556
Ni9 P11 2.251100 1_555
Ni9 P17 2.251908 1_555
Ni9 P9 2.381521 1_545
Ni9 P9 2.381521 1_645
Ni9 Tb2 3.018313 1_555
Ni9 Tb2 3.018313 1_655
Ni9 Tb3 3.071303 1_545
Ni10 P12 2.254013 1_555
Ni10 P18 2.256360 1_555
Ni10 P10 2.331917 1_655
Ni10 P10 2.331917 1_555
Ni10 Tb0 3.007772 1_655
Ni10 Tb0 3.007772 1_555
Ni10 Tb4 3.050171 1_555
Ni11 P13 2.249768 1_555
Ni11 P19 2.253342 1_555
Ni11 P8 2.349041 1_554
Ni11 P8 2.349041 1_654
Ni11 Tb1 3.003035 1_655
Ni11 Tb1 3.003035 1_555
Ni11 Tb5 3.051885 1_554
Ni12 P2 2.220349 1_555
Ni12 P14 2.220665 1_555
Ni12 P0 2.239310 1_555
Ni12 Tb10 2.944260 1_555
Ni12 Tb10 2.944260 1_455
Ni12 Tb5 2.950853 1_455
Ni12 Tb5 2.950853 1_555
Ni12 Tb11 2.971162 1_455
Ni12 Tb11 2.971162 1_555
Ni13 P15 2.217328 1_555
Ni13 P3 2.218613 1_555
Ni13 P0 2.242796 1_555
Ni13 Tb3 2.935709 1_455
Ni13 Tb3 2.935709 1_555
Ni13 Tb11 2.945391 1_455
Ni13 Tb11 2.945391 1_555
Ni13 Tb9 2.968182 1_555
Ni13 Tb9 2.968182 1_455
Ni14 P4 2.216856 1_555
Ni14 P16 2.218979 1_555
Ni14 P0 2.239271 1_555
Ni14 Tb9 2.944011 1_455
Ni14 Tb9 2.944011 1_555
Ni14 Tb4 2.947611 1_455
Ni14 Tb4 2.947611 1_555
Ni14 Tb10 2.971575 1_455
Ni14 Tb10 2.971575 1_555
Ni15 P17 2.216696 1_555
Ni15 P5 2.221582 1_555
Ni15 P1 2.237840 1_555
Ni15 Tb2 2.931857 1_555
Ni15 Tb2 2.931857 1_655
Ni15 Tb7 2.936160 1_655
Ni15 Tb7 2.936160 1_555
Ni15 Tb8 2.976325 1_555
Ni15 Tb8 2.976325 1_655
Ni16 P18 2.217009 1_555
Ni16 P6 2.221875 1_555
Ni16 P1 2.243983 1_555
Ni16 Tb8 2.942245 1_555
Ni16 Tb8 2.942245 1_655
Ni16 Tb0 2.954881 1_655
Ni16 Tb0 2.954881 1_555
Ni16 Tb6 2.972642 1_555
Ni16 Tb6 2.972642 1_655
Ni17 P19 2.218318 1_555
Ni17 P7 2.221905 1_555
Ni17 P1 2.242713 1_555
Ni17 Tb6 2.940106 1_655
Ni17 Tb6 2.940106 1_555
Ni17 Tb1 2.953045 1_555
Ni17 Tb1 2.953045 1_655
Ni17 Tb7 2.972377 1_655
Ni17 Tb7 2.972377 1_555
Ni18 P18 2.303813 1_555
Ni18 P18 2.303813 1_455
Ni18 P10 2.320088 1_555
Ni18 P4 2.357618 1_555
Ni18 Tb4 3.033605 1_455
Ni18 Tb4 3.033605 1_555
Ni18 Tb0 3.058155 1_555
Ni18 Tb6 3.072105 1_555
Ni19 P19 2.307519 1_555
Ni19 P19 2.307519 1_455
Ni19 P8 2.328195 1_554
Ni19 P2 2.360841 1_554
Ni19 Tb5 3.029169 1_454
Ni19 Tb5 3.029169 1_554
Ni19 Tb1 3.054391 1_555
Ni19 Tb7 3.078845 1_555
Ni20 P17 2.313207 1_555
Ni20 P17 2.313207 1_455
Ni20 P9 2.317110 1_545
Ni20 P3 2.348418 1_545
Ni20 Tb3 3.030398 1_445
Ni20 Tb3 3.030398 1_545
Ni20 Tb8 3.067938 1_555
Ni20 Tb2 3.078529 1_555
Ni21 P15 2.297761 1_555
Ni21 P15 2.297761 1_655
Ni21 P13 2.308190 1_555
Ni21 P7 2.344471 1_555
Ni21 Tb1 3.039497 1_555
Ni21 Tb1 3.039497 1_655
Ni21 Tb9 3.050114 1_555
Ni21 Tb3 3.059569 1_555
Ni22 P11 2.301997 1_556
Ni22 P16 2.310216 1_555
Ni22 P16 2.310216 1_655
Ni22 P5 2.347157 1_556
Ni22 Tb2 3.032126 1_556
Ni22 Tb2 3.032126 1_656
Ni22 Tb10 3.065698 1_555
Ni22 Tb4 3.066775 1_555
Ni23 P14 2.298893 1_555
Ni23 P14 2.298893 1_655
Ni23 P12 2.309662 1_565
Ni23 P6 2.344126 1_565
Ni23 Tb0 3.037107 1_665
Ni23 Tb0 3.037107 1_565
Ni23 Tb11 3.048969 1_555
Ni23 Tb5 3.065075 1_555
Ni24 P9 2.170578 1_545
Ni24 P11 2.351824 1_455
Ni24 P11 2.351824 1_555
Ni24 Tb2 3.073598 1_555
Ni25 P13 2.174368 1_555
Ni25 P9 2.327827 1_555
Ni25 P9 2.327827 1_655
Ni25 Tb3 3.043387 1_555
Ni26 P11 2.163737 1_556
Ni26 P10 2.333532 1_655
Ni26 P10 2.333532 1_555
Ni26 Tb4 3.034466 1_555
Ni27 P12 2.166546 1_565
Ni27 P8 2.298060 1_555
Ni27 P8 2.298060 1_655
Ni27 Tb5 2.963704 1_555
P0 Tb9 2.970177 1_455
P0 Tb9 2.970177 1_555
P0 Tb11 2.970320 1_455
P0 Tb11 2.970320 1_555
P0 Tb10 2.974316 1_455
P0 Tb10 2.974316 1_555
P1 Tb6 2.966822 1_555
P1 Tb6 2.966822 1_655
P1 Tb8 2.970238 1_555
P1 Tb8 2.970238 1_655
P1 Tb7 2.970788 1_655
P1 Tb7 2.970788 1_555
P2 Tb10 2.903825 1_455
P2 Tb10 2.903825 1_555
P2 Tb5 2.952425 1_555
P2 Tb5 2.952425 1_455
P3 Tb11 2.907435 1_455
P3 Tb11 2.907435 1_555
P3 Tb3 2.941119 1_455
P3 Tb3 2.941119 1_555
P4 Tb9 2.906400 1_555
P4 Tb9 2.906400 1_455
P4 Tb4 2.951608 1_555
P4 Tb4 2.951608 1_455
P5 Tb7 2.903587 1_655
P5 Tb7 2.903587 1_555
P5 Tb2 2.939243 1_555
P5 Tb2 2.939243 1_655
P6 Tb8 2.910861 1_655
P6 Tb8 2.910861 1_555
P6 Tb0 2.953513 1_555
P6 Tb0 2.953513 1_655
P7 Tb6 2.910576 1_555
P7 Tb6 2.910576 1_655
P7 Tb1 2.954706 1_555
P7 Tb1 2.954706 1_655
P8 Tb5 2.929536 1_555
P8 Tb5 2.929536 1_455
P9 Tb3 2.888307 1_455
P9 Tb3 2.888307 1_555
P10 Tb4 2.936533 1_455
P10 Tb4 2.936533 1_555
P11 Tb2 2.892412 1_555
P11 Tb2 2.892412 1_655
P12 Tb0 2.867663 1_555
P12 Tb0 2.867663 1_655
P13 Tb1 2.868253 1_555
P13 Tb1 2.868253 1_655
P14 Tb11 2.911984 1_455
P14 Tb11 2.911984 1_555
P14 Tb5 2.951966 1_455
P14 Tb5 2.951966 1_555
P15 Tb9 2.913020 1_555
P15 Tb9 2.913020 1_455
P15 Tb3 2.944298 1_555
P15 Tb3 2.944298 1_455
P16 Tb10 2.906362 1_455
P16 Tb10 2.906362 1_555
P16 Tb4 2.948948 1_555
P16 Tb4 2.948948 1_455
P17 Tb8 2.908033 1_555
P17 Tb8 2.908033 1_655
P17 Tb2 2.947451 1_555
P17 Tb2 2.947451 1_655
P18 Tb6 2.920153 1_555
P18 Tb6 2.920153 1_655
P18 Tb0 2.948811 1_555
P18 Tb0 2.948811 1_655
P19 Tb7 2.917445 1_655
P19 Tb7 2.917445 1_555
P19 Tb1 2.945805 1_555
P19 Tb1 2.945805 1_655
