# generated using pymatgen
data_KVHO3
_symmetry_space_group_name_H-M   'P 1'
_cell_length_a   3.75647800
_cell_length_b   8.11469100
_cell_length_c   13.71615300
_cell_angle_alpha   90.00000000
_cell_angle_beta   90.00000000
_cell_angle_gamma   90.00000000
_symmetry_Int_Tables_number   1
_chemical_formula_structural   KVHO3
_chemical_formula_sum   'K4 V4 H4 O12'
_cell_volume   418.10480397
_cell_formula_units_Z   4
loop_
 _symmetry_equiv_pos_site_id
 _symmetry_equiv_pos_as_xyz
  1  'x, y, z'
loop_
 _atom_site_type_symbol
 _atom_site_label
 _atom_site_symmetry_multiplicity
 _atom_site_fract_x
 _atom_site_fract_y
 _atom_site_fract_z
 _atom_site_occupancy
  K  K0  1  0.75000000  0.74863200  0.23100500  1
  K  K1  1  0.25000000  0.25136800  0.76899500  1
  K  K2  1  0.25000000  0.75136800  0.73100500  1
  K  K3  1  0.75000000  0.24863200  0.26899500  1
  V  V0  1  0.75000000  0.57433000  0.91891100  1
  V  V1  1  0.25000000  0.42567000  0.08108900  1
  V  V2  1  0.25000000  0.92567000  0.41891100  1
  V  V3  1  0.75000000  0.07433000  0.58108900  1
  H  H0  1  0.75000000  0.61499300  0.58479200  1
  H  H1  1  0.25000000  0.38500700  0.41520800  1
  H  H2  1  0.25000000  0.88500700  0.08479200  1
  H  H3  1  0.75000000  0.11499300  0.91520800  1
  O  O0  1  0.75000000  0.77731500  0.90365900  1
  O  O1  1  0.25000000  0.22268500  0.09634100  1
  O  O2  1  0.25000000  0.72268500  0.40365900  1
  O  O3  1  0.75000000  0.27731500  0.59634100  1
  O  O4  1  0.75000000  0.96517700  0.44989200  1
  O  O5  1  0.25000000  0.03482300  0.55010800  1
  O  O6  1  0.25000000  0.53482300  0.94989200  1
  O  O7  1  0.75000000  0.46517700  0.05010800  1
  O  O8  1  0.75000000  0.98825100  0.69410900  1
  O  O9  1  0.25000000  0.01174900  0.30589100  1
  O  O10  1  0.25000000  0.51174900  0.19410900  1
  O  O11  1  0.75000000  0.48825100  0.80589100  1
loop_
_geom_bond_atom_site_label_1
_geom_bond_atom_site_label_2
_geom_bond_distance
_geom_bond_site_symmetry_2
K0 O10 2.734752 1_655
K0 O10 2.734752 1_555
K0 O9 3.023495 1_565
K0 O9 3.023495 1_665
K0 O2 3.029891 1_555
K0 O2 3.029891 1_655
K1 O11 2.734752 1_555
K1 O11 2.734752 1_455
K1 O8 3.023495 1_445
K1 O8 3.023495 1_545
K1 O3 3.029891 1_455
K1 O3 3.029891 1_555
K2 O8 2.734752 1_455
K2 O8 2.734752 1_555
K2 O11 3.023495 1_455
K2 O11 3.023495 1_555
K2 O0 3.029891 1_455
K2 O0 3.029891 1_555
K3 O9 2.734752 1_655
K3 O9 2.734752 1_555
K3 O10 3.023495 1_555
K3 O10 3.023495 1_655
K3 O1 3.029891 1_555
K3 O1 3.029891 1_655
H0 K2 2.962159 1_655
H0 K2 2.962159 1_555
H1 K3 2.962159 1_555
H1 K3 2.962159 1_455
H2 K0 2.962159 1_555
H2 K0 2.962159 1_455
H3 K1 2.962159 1_555
H3 K1 2.962159 1_655
O0 V0 1.660392 1_555
O1 V1 1.660392 1_555
O2 V2 1.660392 1_555
O3 V3 1.660392 1_555
O4 V2 1.952212 1_555
O4 V2 1.952212 1_655
O4 V3 2.005693 1_565
O5 V3 1.952212 1_455
O5 V3 1.952212 1_555
O5 V2 2.005693 1_545
O6 V0 1.952212 1_555
O6 V0 1.952212 1_455
O6 V1 2.005693 1_556
O7 V1 1.952212 1_655
O7 V1 1.952212 1_555
O7 V0 2.005693 1_554
O8 V3 1.700302 1_565
O9 V2 1.700302 1_545
O10 V1 1.700302 1_555
O11 V0 1.700302 1_555
