# generated using pymatgen
data_TbCu4Ag
_symmetry_space_group_name_H-M   'P 1'
_cell_length_a   5.00740746
_cell_length_b   5.00740746
_cell_length_c   5.00740746
_cell_angle_alpha   60.00000000
_cell_angle_beta   60.00000000
_cell_angle_gamma   60.00000000
_symmetry_Int_Tables_number   1
_chemical_formula_structural   TbCu4Ag
_chemical_formula_sum   'Tb1 Cu4 Ag1'
_cell_volume   88.78176973
_cell_formula_units_Z   1
loop_
 _symmetry_equiv_pos_site_id
 _symmetry_equiv_pos_as_xyz
  1  'x, y, z'
loop_
 _atom_site_type_symbol
 _atom_site_label
 _atom_site_symmetry_multiplicity
 _atom_site_fract_x
 _atom_site_fract_y
 _atom_site_fract_z
 _atom_site_occupancy
  Tb  Tb0  1  0.00000000  0.00000000  0.00000000  1
  Cu  Cu0  1  0.62384390  0.62384390  0.12846829  1
  Cu  Cu1  1  0.62384390  0.12846829  0.62384390  1
  Cu  Cu2  1  0.12846829  0.62384390  0.62384390  1
  Cu  Cu3  1  0.62384390  0.62384390  0.62384390  1
  Ag  Ag0  1  0.25000000  0.25000000  0.25000000  1
loop_
_geom_bond_atom_site_label_1
_geom_bond_atom_site_label_2
_geom_bond_distance
_geom_bond_site_symmetry_2
Cu0 Cu1 2.480548 1_555
Cu0 Cu2 2.480548 1_555
Cu0 Cu3 2.480548 1_555
Cu0 Cu3 2.526860 1_554
Cu0 Cu1 2.526860 1_564
Cu0 Cu2 2.526860 1_654
Cu0 Tb0 2.938354 1_565
Cu0 Tb0 2.938354 1_655
Cu0 Tb0 2.938355 1_665
Cu1 Cu2 2.480548 1_555
Cu1 Cu3 2.480548 1_555
Cu1 Cu2 2.526860 1_645
Cu1 Cu3 2.526860 1_545
Cu1 Tb0 2.938354 1_655
Cu1 Tb0 2.938354 1_556
Cu1 Tb0 2.938355 1_656
Cu2 Cu3 2.480548 1_555
Cu2 Cu3 2.526860 1_455
Cu2 Tb0 2.938354 1_556
Cu2 Tb0 2.938354 1_565
Cu2 Tb0 2.938355 1_566
Cu3 Tb0 2.938355 1_665
Cu3 Tb0 2.938355 1_656
Cu3 Tb0 2.938355 1_566
Ag0 Cu2 2.933418 1_555
Ag0 Cu0 2.933418 1_555
Ag0 Cu1 2.933418 1_555
Ag0 Cu3 2.933418 1_545
Ag0 Cu3 2.933418 1_455
Ag0 Cu3 2.933418 1_554
Ag0 Cu0 2.933418 1_545
Ag0 Cu2 2.933418 1_554
Ag0 Cu2 2.933418 1_545
Ag0 Cu1 2.933418 1_455
Ag0 Cu0 2.933418 1_455
Ag0 Cu1 2.933418 1_554
Ag0 Tb0 3.066398 1_655
Ag0 Tb0 3.066398 1_555
Ag0 Tb0 3.066398 1_556
Ag0 Tb0 3.066398 1_565
