# generated using pymatgen
data_CoO2
_symmetry_space_group_name_H-M   'P 1'
_cell_length_a   2.84966107
_cell_length_b   2.84966107
_cell_length_c   38.15209875
_cell_angle_alpha   89.94662598
_cell_angle_beta   89.94662598
_cell_angle_gamma   119.76790869
_symmetry_Int_Tables_number   1
_chemical_formula_structural   CoO2
_chemical_formula_sum   'Co8 O16'
_cell_volume   268.93398065
_cell_formula_units_Z   8
loop_
 _symmetry_equiv_pos_site_id
 _symmetry_equiv_pos_as_xyz
  1  'x, y, z'
loop_
 _atom_site_type_symbol
 _atom_site_label
 _atom_site_symmetry_multiplicity
 _atom_site_fract_x
 _atom_site_fract_y
 _atom_site_fract_z
 _atom_site_occupancy
  Co  Co0  1  0.46912000  0.96962000  0.31250900  1
  Co  Co1  1  0.00859800  0.51151900  0.93646800  1
  Co  Co2  1  0.00975400  0.51187100  0.18702800  1
  Co  Co3  1  0.49457000  0.98465100  0.56188000  1
  Co  Co4  1  0.48812900  0.99024600  0.81297200  1
  Co  Co5  1  0.48848100  0.99140200  0.06353200  1
  Co  Co6  1  0.01534900  0.50543000  0.43812000  1
  Co  Co7  1  0.03038000  0.53088000  0.68749100  1
  O  O0  1  0.83943500  0.69138500  0.83857400  1
  O  O1  1  0.34731000  0.17048200  0.41353200  1
  O  O2  1  0.82332700  0.65891700  0.08811000  1
  O  O3  1  0.15330000  0.32324300  0.03919600  1
  O  O4  1  0.13459800  0.30185700  0.28788800  1
  O  O5  1  0.36236400  0.19576100  0.66317200  1
  O  O6  1  0.69814300  0.86540200  0.71211200  1
  O  O7  1  0.34108300  0.17667300  0.91189000  1
  O  O8  1  0.67675700  0.84670000  0.96080400  1
  O  O9  1  0.30861500  0.16056500  0.16142600  1
  O  O10  1  0.80423900  0.63763600  0.33682800  1
  O  O11  1  0.15948400  0.31709500  0.53754800  1
  O  O12  1  0.82951800  0.65269000  0.58646800  1
  O  O13  1  0.70714500  0.86132600  0.21308800  1
  O  O14  1  0.13867400  0.29285500  0.78691200  1
  O  O15  1  0.68290500  0.84051600  0.46245200  1
loop_
_geom_bond_atom_site_label_1
_geom_bond_atom_site_label_2
_geom_bond_distance
_geom_bond_site_symmetry_2
Co0 O10 1.887037 1_455
Co0 O10 1.888105 1_555
Co0 O4 1.893054 1_565
Co0 O4 1.893994 1_665
Co0 O10 1.896417 1_565
Co0 O4 1.901545 1_555
Co1 O8 1.887221 1_445
Co1 O8 1.888251 1_455
Co1 O7 1.892490 1_565
Co1 O7 1.893466 1_555
Co1 O8 1.897044 1_555
Co1 O7 1.900206 1_455
Co2 O9 1.878397 1_565
Co2 O9 1.878423 1_555
Co2 O13 1.891140 1_445
Co2 O13 1.891233 1_455
Co2 O9 1.991889 1_455
Co2 O13 1.992500 1_555
Co3 O11 1.887355 1_665
Co3 O11 1.889263 1_565
Co3 O12 1.892456 1_455
Co3 O12 1.892754 1_555
Co3 O11 1.895671 1_555
Co3 O12 1.901520 1_565
Co4 O0 1.878397 1_455
Co4 O0 1.878423 1_555
Co4 O14 1.891140 1_665
Co4 O14 1.891233 1_565
Co4 O0 1.991889 1_565
Co4 O14 1.992500 1_555
Co5 O3 1.887221 1_665
Co5 O3 1.888251 1_565
Co5 O2 1.892490 1_455
Co5 O2 1.893466 1_555
Co5 O3 1.897044 1_555
Co5 O2 1.900206 1_565
Co6 O15 1.887355 1_445
Co6 O15 1.889263 1_455
Co6 O1 1.892456 1_565
Co6 O1 1.892754 1_555
Co6 O15 1.895671 1_555
Co6 O1 1.901520 1_455
Co7 O5 1.887037 1_565
Co7 O5 1.888105 1_555
Co7 O6 1.893054 1_455
Co7 O6 1.893994 1_445
Co7 O5 1.896417 1_455
Co7 O6 1.901545 1_555
