# generated using pymatgen
data_BaCu2GeSe4
_symmetry_space_group_name_H-M   'P 1'
_cell_length_a   6.59720687
_cell_length_b   6.59720687
_cell_length_c   16.40473800
_cell_angle_alpha   90.00000000
_cell_angle_beta   90.00000000
_cell_angle_gamma   120.00000877
_symmetry_Int_Tables_number   1
_chemical_formula_structural   BaCu2GeSe4
_chemical_formula_sum   'Ba3 Cu6 Ge3 Se12'
_cell_volume   618.32968633
_cell_formula_units_Z   3
loop_
 _symmetry_equiv_pos_site_id
 _symmetry_equiv_pos_as_xyz
  1  'x, y, z'
loop_
 _atom_site_type_symbol
 _atom_site_label
 _atom_site_symmetry_multiplicity
 _atom_site_fract_x
 _atom_site_fract_y
 _atom_site_fract_z
 _atom_site_occupancy
  Ba  Ba0  1  0.44870700  0.00000000  0.33333300  1
  Ba  Ba1  1  0.55129300  0.55129300  0.00000000  1
  Ba  Ba2  1  0.00000000  0.44870700  0.66666700  1
  Cu  Cu0  1  0.07753400  0.43315400  0.42223800  1
  Cu  Cu1  1  0.35561900  0.92246600  0.08890500  1
  Cu  Cu2  1  0.56684600  0.64438100  0.75557200  1
  Cu  Cu3  1  0.92246600  0.35561900  0.91109500  1
  Cu  Cu4  1  0.43315400  0.07753400  0.57776200  1
  Cu  Cu5  1  0.64438100  0.56684600  0.24442800  1
  Ge  Ge0  1  0.00000000  0.28637400  0.16666700  1
  Ge  Ge1  1  0.28637400  0.00000000  0.83333300  1
  Ge  Ge2  1  0.71362600  0.71362600  0.50000000  1
  Se  Se0  1  0.53213600  0.04059300  0.94895700  1
  Se  Se1  1  0.50845700  0.46786400  0.61562300  1
  Se  Se2  1  0.95940700  0.49154300  0.28229000  1
  Se  Se3  1  0.89376200  0.66404200  0.83586500  1
  Se  Se4  1  0.22972000  0.33595800  0.83080200  1
  Se  Se5  1  0.10623800  0.77028000  0.49746900  1
  Se  Se6  1  0.77028000  0.10623800  0.50253100  1
  Se  Se7  1  0.46786400  0.50845700  0.38437700  1
  Se  Se8  1  0.33595800  0.22972000  0.16919800  1
  Se  Se9  1  0.04059300  0.53213600  0.05104300  1
  Se  Se10  1  0.49154300  0.95940700  0.71771000  1
  Se  Se11  1  0.66404200  0.89376200  0.16413500  1
loop_
_geom_bond_atom_site_label_1
_geom_bond_atom_site_label_2
_geom_bond_distance
_geom_bond_site_symmetry_2
Ba0 Se6 3.348022 1_555
Ba0 Se11 3.348022 1_545
Ba0 Se8 3.350729 1_555
Ba0 Se5 3.350742 1_545
Ba0 Se2 3.397816 1_445
Ba0 Se7 3.397821 1_555
Ba0 Se2 3.412151 1_555
Ba0 Se7 3.412156 1_545
Ba1 Se4 3.348022 1_554
Ba1 Se8 3.348022 1_555
Ba1 Se11 3.350729 1_555
Ba1 Se3 3.350729 1_554
Ba1 Se0 3.397817 1_564
Ba1 Se9 3.397817 1_655
Ba1 Se0 3.412152 1_554
Ba1 Se9 3.412152 1_555
Ba2 Se5 3.348022 1_555
Ba2 Se3 3.348022 1_455
Ba2 Se4 3.350729 1_555
Ba2 Se6 3.350742 1_455
Ba2 Se10 3.397816 1_445
Ba2 Se1 3.397821 1_555
Ba2 Se10 3.412151 1_555
Ba2 Se1 3.412156 1_455
Cu0 Se7 2.446296 1_555
Cu0 Se5 2.466654 1_555
Cu0 Se6 2.474578 1_455
Cu0 Se2 2.515282 1_455
Cu1 Se9 2.446298 1_555
Cu1 Se11 2.466651 1_555
Cu1 Se8 2.474576 1_565
Cu1 Se0 2.515284 1_564
Cu2 Se10 2.446294 1_555
Cu2 Se4 2.466648 1_555
Cu2 Se3 2.474581 1_555
Cu2 Se1 2.515299 1_555
Cu3 Se0 2.446298 1_555
Cu3 Se3 2.466651 1_555
Cu3 Se4 2.474576 1_655
Cu3 Se9 2.515284 1_656
Cu4 Se1 2.446296 1_555
Cu4 Se6 2.466654 1_555
Cu4 Se5 2.474578 1_545
Cu4 Se10 2.515282 1_545
Cu5 Se2 2.446294 1_555
Cu5 Se8 2.466648 1_555
Cu5 Se11 2.474581 1_555
Cu5 Se7 2.515299 1_555
Ge0 Se2 2.421568 1_455
Ge0 Se9 2.421581 1_555
Ge0 Se11 2.425319 1_445
Ge0 Se8 2.425319 1_555
Ge1 Se10 2.421568 1_545
Ge1 Se0 2.421581 1_555
Ge1 Se3 2.425319 1_445
Ge1 Se4 2.425319 1_555
Ge2 Se7 2.421568 1_555
Ge2 Se1 2.421568 1_555
Ge2 Se6 2.425319 1_565
Ge2 Se5 2.425319 1_655
