# generated using pymatgen
data_La3AlO
_symmetry_space_group_name_H-M   'P 1'
_cell_length_a   5.03101297
_cell_length_b   5.03100776
_cell_length_c   5.03100880
_cell_angle_alpha   90.00000000
_cell_angle_beta   90.00000000
_cell_angle_gamma   90.00000000
_symmetry_Int_Tables_number   1
_chemical_formula_structural   La3AlO
_chemical_formula_sum   'La3 Al1 O1'
_cell_volume   127.34019223
_cell_formula_units_Z   1
loop_
 _symmetry_equiv_pos_site_id
 _symmetry_equiv_pos_as_xyz
  1  'x, y, z'
loop_
 _atom_site_type_symbol
 _atom_site_label
 _atom_site_symmetry_multiplicity
 _atom_site_fract_x
 _atom_site_fract_y
 _atom_site_fract_z
 _atom_site_occupancy
  La  La0  1  0.50000000  -0.00000000  -0.00000000  1
  La  La1  1  0.00000000  0.50000000  0.00000000  1
  La  La2  1  0.00000000  0.00000000  0.50000000  1
  Al  Al0  1  0.50000000  0.50000000  0.50000000  1
  O  O0  1  -0.00000000  0.00000000  -0.00000000  1
loop_
_geom_bond_atom_site_label_1
_geom_bond_atom_site_label_2
_geom_bond_distance
_geom_bond_site_symmetry_2
La0 O0 2.515506 1_555
La0 O0 2.515506 1_655
La1 O0 2.515504 1_555
La1 O0 2.515504 1_565
La2 O0 2.515504 1_555
La2 O0 2.515504 1_556
Al0 La0 3.557460 1_555
Al0 La0 3.557460 1_556
Al0 La0 3.557460 1_566
Al0 La0 3.557460 1_565
Al0 La2 3.557462 1_555
Al0 La2 3.557462 1_565
Al0 La2 3.557462 1_655
Al0 La2 3.557462 1_665
Al0 La1 3.557462 1_555
Al0 La1 3.557462 1_556
Al0 La1 3.557462 1_655
Al0 La1 3.557462 1_656
