# generated using pymatgen
data_Y2MgSe4
_symmetry_space_group_name_H-M   'P 1'
_cell_length_a   7.48774500
_cell_length_b   8.67791053
_cell_length_c   13.87046281
_cell_angle_alpha   99.17382705
_cell_angle_beta   95.39729116
_cell_angle_gamma   89.98000107
_symmetry_Int_Tables_number   1
_chemical_formula_structural   Y2MgSe4
_chemical_formula_sum   'Y8 Mg4 Se16'
_cell_volume   885.70350122
_cell_formula_units_Z   4
loop_
 _symmetry_equiv_pos_site_id
 _symmetry_equiv_pos_as_xyz
  1  'x, y, z'
loop_
 _atom_site_type_symbol
 _atom_site_label
 _atom_site_symmetry_multiplicity
 _atom_site_fract_x
 _atom_site_fract_y
 _atom_site_fract_z
 _atom_site_occupancy
  Y  Y0  1  0.86380000  0.30036800  0.69952800  1
  Y  Y1  1  0.13620000  0.69963200  0.30047200  1
  Y  Y2  1  0.75874200  0.12598300  0.00060600  1
  Y  Y3  1  0.24125800  0.87401700  0.99939400  1
  Y  Y4  1  0.63154200  0.44420000  0.29916600  1
  Y  Y5  1  0.36845800  0.55580000  0.70083400  1
  Y  Y6  1  0.63218800  0.95568200  0.30239600  1
  Y  Y7  1  0.36781200  0.04431800  0.69760400  1
  Mg  Mg0  1  0.86711400  0.80045900  0.70223900  1
  Mg  Mg1  1  0.13288600  0.19954100  0.29776100  1
  Mg  Mg2  1  0.75127200  0.62336000  0.99691400  1
  Mg  Mg3  1  0.24872800  0.37664000  0.00308600  1
  Se  Se0  1  0.90555600  0.35528400  0.89775800  1
  Se  Se1  1  0.09444400  0.64471600  0.10224200  1
  Se  Se2  1  0.89247100  0.84309100  0.89078200  1
  Se  Se3  1  0.10752900  0.15690900  0.10921800  1
  Se  Se4  1  0.82861100  0.21917500  0.37488600  1
  Se  Se5  1  0.17138900  0.78082500  0.62511400  1
  Se  Se6  1  0.81065700  0.71898700  0.37777900  1
  Se  Se7  1  0.18934300  0.28101300  0.62222100  1
  Se  Se8  1  0.69546100  0.02068900  0.62563400  1
  Se  Se9  1  0.30453900  0.97931100  0.37436600  1
  Se  Se10  1  0.69403600  0.54231400  0.62627500  1
  Se  Se11  1  0.30596400  0.45768600  0.37372500  1
  Se  Se12  1  0.60504400  0.89549000  0.10359500  1
  Se  Se13  1  0.39495600  0.10451000  0.89640500  1
  Se  Se14  1  0.59588800  0.40691900  0.10122300  1
  Se  Se15  1  0.40411200  0.59308100  0.89877700  1
loop_
_geom_bond_atom_site_label_1
_geom_bond_atom_site_label_2
_geom_bond_distance
_geom_bond_site_symmetry_2
Mg0 Se2 2.571034 1_555
Mg0 Se5 2.600834 1_655
Mg0 Se10 2.607786 1_555
Mg0 Se8 2.611953 1_565
Mg1 Se3 2.571034 1_555
Mg1 Se4 2.600834 1_455
Mg1 Se11 2.607786 1_555
Mg1 Se9 2.611953 1_545
Mg2 Se15 2.810662 1_555
Mg2 Se0 2.813329 1_555
Mg2 Se1 2.824759 1_656
Mg2 Se2 2.847812 1_555
Mg2 Se12 2.855511 1_556
Mg2 Se14 2.856482 1_556
Mg3 Se14 2.810662 1_555
Mg3 Se1 2.813329 1_555
Mg3 Se0 2.824759 1_454
Mg3 Se3 2.847812 1_555
Mg3 Se13 2.855511 1_554
Mg3 Se15 2.856482 1_554
Se0 Y0 2.702853 1_555
Se0 Y2 2.899086 1_556
Se1 Y1 2.702853 1_555
Se1 Y3 2.899086 1_554
Se2 Y3 2.879858 1_655
Se2 Y2 2.905606 1_566
Se3 Y2 2.879858 1_455
Se3 Y3 2.905606 1_544
Se4 Y6 2.719114 1_545
Se4 Y4 2.730218 1_555
Se5 Y7 2.719114 1_565
Se5 Y5 2.730218 1_555
Se6 Y6 2.741911 1_555
Se6 Y1 2.748420 1_655
Se6 Y4 2.751717 1_555
Se7 Y7 2.741911 1_555
Se7 Y0 2.748420 1_455
Se7 Y5 2.751717 1_555
Se8 Y7 2.729946 1_555
Se8 Y0 2.737827 1_555
Se9 Y6 2.729946 1_555
Se9 Y1 2.737827 1_555
Se10 Y5 2.731626 1_555
Se10 Y0 2.737121 1_555
Se11 Y4 2.731626 1_555
Se11 Y1 2.737121 1_555
Se12 Y6 2.711664 1_555
Se12 Y2 2.930501 1_565
Se12 Y3 2.952515 1_554
Se13 Y7 2.711664 1_555
Se13 Y3 2.930501 1_545
Se13 Y2 2.952515 1_556
Se14 Y4 2.700553 1_555
Se14 Y2 2.934518 1_555
Se15 Y5 2.700553 1_555
Se15 Y3 2.934518 1_555
