# generated using pymatgen
data_Li2Co3NiO8
_symmetry_space_group_name_H-M   'P 1'
_cell_length_a   5.60075584
_cell_length_b   10.28936535
_cell_length_c   5.68506601
_cell_angle_alpha   90.54585383
_cell_angle_beta   119.08664040
_cell_angle_gamma   73.90823021
_symmetry_Int_Tables_number   1
_chemical_formula_structural   Li2Co3NiO8
_chemical_formula_sum   'Li4 Co6 Ni2 O16'
_cell_volume   272.00882356
_cell_formula_units_Z   2
loop_
 _symmetry_equiv_pos_site_id
 _symmetry_equiv_pos_as_xyz
  1  'x, y, z'
loop_
 _atom_site_type_symbol
 _atom_site_label
 _atom_site_symmetry_multiplicity
 _atom_site_fract_x
 _atom_site_fract_y
 _atom_site_fract_z
 _atom_site_occupancy
  Li  Li0  1  0.49527000  0.25265900  0.74575200  1
  Li  Li1  1  0.50471700  0.74733800  0.25424400  1
  Li  Li2  1  0.00958200  0.24703400  0.25893700  1
  Li  Li3  1  0.99038000  0.75297200  0.74104800  1
  Co  Co0  1  0.50003500  0.50001900  0.00002600  1
  Co  Co1  1  0.50009400  0.50002000  0.50001400  1
  Co  Co2  1  0.99996100  0.50001400  0.99996700  1
  Co  Co3  1  0.49999000  0.99998900  0.50000600  1
  Co  Co4  1  0.49995300  0.99999400  0.99997900  1
  Co  Co5  1  0.00000800  0.99999200  0.50003700  1
  Ni  Ni0  1  0.99992700  0.00003200  0.00001800  1
  Ni  Ni1  1  0.00014500  0.49995200  0.50002900  1
  O  O0  1  0.77544100  0.10277900  0.13778700  1
  O  O1  1  0.74847200  0.60932600  0.60200200  1
  O  O2  1  0.25162700  0.39059000  0.39795700  1
  O  O3  1  0.22446900  0.89728200  0.86221400  1
  O  O4  1  0.24506000  0.10845400  0.60702200  1
  O  O5  1  0.27214500  0.60135000  0.14281200  1
  O  O6  1  0.72784700  0.39863900  0.85718100  1
  O  O7  1  0.75490000  0.89156700  0.39296900  1
  O  O8  1  0.26778700  0.09721200  0.13731100  1
  O  O9  1  0.26417100  0.59927900  0.63775000  1
  O  O10  1  0.77080600  0.09930500  0.64464800  1
  O  O11  1  0.77473300  0.59719800  0.14443300  1
  O  O12  1  0.22534500  0.40274600  0.85559100  1
  O  O13  1  0.22911800  0.90074200  0.35533400  1
  O  O14  1  0.73587300  0.40067900  0.36224500  1
  O  O15  1  0.73214600  0.90283400  0.86268600  1
loop_
_geom_bond_atom_site_label_1
_geom_bond_atom_site_label_2
_geom_bond_distance
_geom_bond_site_symmetry_2
Li0 O2 2.035279 1_555
Li0 O6 2.149052 1_555
Li0 O12 2.159983 1_555
Li0 O10 2.167241 1_555
Li0 O4 2.200737 1_555
Li0 O0 2.265305 1_556
Li1 O1 2.035579 1_555
Li1 O5 2.149105 1_555
Li1 O11 2.160493 1_555
Li1 O13 2.167691 1_555
Li1 O7 2.200847 1_555
Li1 O3 2.265625 1_554
Li2 O4 2.040186 1_555
Li2 O0 2.139760 1_455
Li2 O8 2.159152 1_555
Li2 O2 2.165713 1_555
Li2 O14 2.169892 1_455
Li2 O6 2.310680 1_454
Li3 O7 2.040244 1_555
Li3 O3 2.140060 1_655
Li3 O15 2.159514 1_555
Li3 O1 2.166021 1_555
Li3 O9 2.170411 1_655
Li3 O5 2.310799 1_656
Co0 O5 1.904888 1_555
Co0 O6 1.905002 1_554
Co0 O11 1.910488 1_555
Co0 O12 1.911179 1_554
Co0 O9 1.917521 1_554
Co0 O14 1.917567 1_555
Co1 O1 1.899202 1_555
Co1 O2 1.900564 1_555
Co1 O5 1.903303 1_555
Co1 O6 1.903350 1_555
Co1 O14 1.908965 1_555
Co1 O9 1.909139 1_555
Co2 O11 1.886288 1_556
Co2 O12 1.886837 1_655
Co2 O5 1.931827 1_656
Co2 O6 1.931831 1_555
Co2 O1 2.107045 1_555
Co2 O2 2.107565 1_656
Co3 O7 1.897877 1_555
Co3 O4 1.898046 1_565
Co3 O13 1.910630 1_555
Co3 O10 1.910926 1_565
Co3 O15 1.911384 1_555
Co3 O8 1.911692 1_565
Co4 O15 1.884445 1_555
Co4 O8 1.884697 1_566
Co4 O3 1.955553 1_555
Co4 O0 1.956140 1_566
Co4 O4 2.082714 1_565
Co4 O7 2.082737 1_556
Co5 O7 1.877048 1_455
Co5 O4 1.877137 1_565
Co5 O13 1.910524 1_555
Co5 O10 1.910731 1_465
Co5 O3 1.930041 1_555
Co5 O0 1.930642 1_465
Ni0 O0 1.875287 1_555
Ni0 O3 1.875670 1_644
Ni0 O15 1.880759 1_544
Ni0 O8 1.880944 1_655
Ni0 O13 1.887632 1_645
Ni0 O10 1.887793 1_554
Ni1 O2 1.868262 1_555
Ni1 O1 1.868722 1_455
Ni1 O12 1.880852 1_555
Ni1 O11 1.881145 1_455
Ni1 O9 1.881776 1_555
Ni1 O14 1.882377 1_455
