# generated using pymatgen
data_Mg14ZrCu
_symmetry_space_group_name_H-M   'P 1'
_cell_length_a   6.37314513
_cell_length_b   6.24399449
_cell_length_c   10.05103901
_cell_angle_alpha   90.00000000
_cell_angle_beta   90.00000000
_cell_angle_gamma   119.33188428
_symmetry_Int_Tables_number   1
_chemical_formula_structural   Mg14ZrCu
_chemical_formula_sum   'Mg14 Zr1 Cu1'
_cell_volume   348.69245500
_cell_formula_units_Z   1
loop_
 _symmetry_equiv_pos_site_id
 _symmetry_equiv_pos_as_xyz
  1  'x, y, z'
loop_
 _atom_site_type_symbol
 _atom_site_label
 _atom_site_symmetry_multiplicity
 _atom_site_fract_x
 _atom_site_fract_y
 _atom_site_fract_z
 _atom_site_occupancy
  Mg  Mg0  1  0.17187400  0.33593650  0.62500000  1
  Mg  Mg1  1  0.16631511  0.83315706  0.62500000  1
  Mg  Mg2  1  0.64167274  0.30769609  0.12500000  1
  Mg  Mg3  1  0.66644051  0.33791976  0.62500000  1
  Mg  Mg4  1  0.64167274  0.83397565  0.12500000  1
  Mg  Mg5  1  0.66644051  0.82851975  0.62500000  1
  Mg  Mg6  1  0.33163885  0.16459787  0.36741769  1
  Mg  Mg7  1  0.33163885  0.16459787  0.88258231  1
  Mg  Mg8  1  0.33163885  0.66704198  0.36741769  1
  Mg  Mg9  1  0.33163885  0.66704198  0.88258231  1
  Mg  Mg10  1  0.83943968  0.16972034  0.37860179  1
  Mg  Mg11  1  0.83943968  0.16972034  0.87139821  1
  Mg  Mg12  1  0.85201521  0.67600810  0.35284379  1
  Mg  Mg13  1  0.85201521  0.67600810  0.89715621  1
  Zr  Zr0  1  0.14455903  0.32227901  0.12500000  1
  Cu  Cu0  1  0.19156018  0.84577959  0.12500000  1
loop_
_geom_bond_atom_site_label_1
_geom_bond_atom_site_label_2
_geom_bond_distance
_geom_bond_site_symmetry_2
Mg0 Mg10 3.089478 1_455
Mg0 Mg11 3.089478 1_455
Mg0 Mg1 3.122150 1_545
Mg0 Mg1 3.122150 1_555
Mg0 Mg5 3.145896 1_555
Mg0 Mg3 3.145896 1_555
Mg0 Mg7 3.154568 1_555
Mg0 Mg6 3.154568 1_555
Mg0 Mg8 3.154574 1_555
Mg0 Mg9 3.154574 1_555
Mg0 Mg5 3.227285 1_445
Mg0 Mg3 3.227285 1_455
Mg1 Mg9 3.155858 1_555
Mg1 Mg8 3.155858 1_555
Mg1 Mg7 3.155864 1_565
Mg1 Mg6 3.155864 1_565
Mg1 Mg3 3.171689 1_455
Mg1 Mg5 3.171690 1_455
Mg1 Mg3 3.201655 1_565
Mg1 Mg5 3.201656 1_555
Mg1 Mg13 3.245333 1_455
Mg1 Mg12 3.245333 1_455
Mg2 Mg4 2.957908 1_545
Mg2 Mg7 2.984892 1_554
Mg2 Mg6 2.984892 1_555
Mg2 Zr0 3.161359 1_655
Mg2 Zr0 3.213764 1_555
Mg2 Mg4 3.286087 1_555
Mg3 Mg5 3.063304 1_555
Mg3 Mg5 3.180691 1_545
Mg3 Mg6 3.188170 1_555
Mg3 Mg7 3.188170 1_555
Mg4 Mg8 2.984891 1_555
Mg4 Mg9 2.984891 1_554
Mg4 Zr0 3.161359 1_665
Mg4 Zr0 3.213763 1_555
Mg5 Mg8 3.188170 1_555
Mg5 Mg9 3.188170 1_555
Mg6 Zr0 3.078599 1_555
Mg6 Mg8 3.106736 1_545
Mg6 Mg8 3.137258 1_555
Mg7 Zr0 3.078599 1_556
Mg7 Mg9 3.106736 1_545
Mg7 Mg9 3.137258 1_555
Mg8 Zr0 3.078605 1_555
Mg9 Zr0 3.078605 1_556
Mg10 Zr0 3.061232 1_655
Mg10 Mg3 3.096195 1_555
Mg10 Mg5 3.096201 1_545
Mg10 Mg12 3.133492 1_555
Mg10 Mg12 3.133493 1_545
Mg10 Mg2 3.145135 1_555
Mg10 Mg4 3.145141 1_545
Mg10 Mg8 3.154652 1_655
Mg10 Mg6 3.154652 1_655
Mg10 Mg8 3.222702 1_545
Mg10 Mg6 3.222702 1_555
Mg11 Zr0 3.061232 1_656
Mg11 Mg3 3.096195 1_555
Mg11 Mg5 3.096201 1_545
Mg11 Mg13 3.133492 1_555
Mg11 Mg13 3.133493 1_545
Mg11 Mg2 3.145135 1_556
Mg11 Mg4 3.145141 1_546
Mg11 Mg9 3.154652 1_655
Mg11 Mg7 3.154652 1_655
Mg11 Mg9 3.222702 1_545
Mg11 Mg7 3.222702 1_555
Mg12 Mg4 3.051195 1_555
Mg12 Mg2 3.051202 1_555
Mg12 Mg6 3.087998 1_665
Mg12 Mg8 3.087998 1_655
Mg12 Mg6 3.292631 1_555
Mg12 Mg8 3.292631 1_555
Mg12 Mg5 3.300264 1_555
Mg12 Mg3 3.300270 1_555
Mg13 Mg4 3.051195 1_556
Mg13 Mg2 3.051202 1_556
Mg13 Mg7 3.087998 1_665
Mg13 Mg9 3.087998 1_655
Mg13 Mg7 3.292631 1_555
Mg13 Mg9 3.292631 1_555
Mg13 Mg5 3.300264 1_555
Mg13 Mg3 3.300270 1_555
Cu0 Mg2 2.905448 1_565
Cu0 Mg4 2.905448 1_555
Cu0 Mg12 2.967060 1_455
Cu0 Mg13 2.967060 1_454
Cu0 Mg8 2.992564 1_555
Cu0 Mg9 2.992564 1_554
Cu0 Mg6 2.992571 1_565
Cu0 Mg7 2.992571 1_564
Cu0 Zr0 3.132900 1_565
Cu0 Zr0 3.132900 1_555
