# generated using pymatgen
data_KFeBr4
_symmetry_space_group_name_H-M   'P 1'
_cell_length_a   7.71859286
_cell_length_b   10.36185954
_cell_length_c   10.30902180
_cell_angle_alpha   90.00000632
_cell_angle_beta   90.00001721
_cell_angle_gamma   89.99995023
_symmetry_Int_Tables_number   1
_chemical_formula_structural   KFeBr4
_chemical_formula_sum   'K4 Fe4 Br16'
_cell_volume   824.50499745
_cell_formula_units_Z   4
loop_
 _symmetry_equiv_pos_site_id
 _symmetry_equiv_pos_as_xyz
  1  'x, y, z'
loop_
 _atom_site_type_symbol
 _atom_site_label
 _atom_site_symmetry_multiplicity
 _atom_site_fract_x
 _atom_site_fract_y
 _atom_site_fract_z
 _atom_site_occupancy
  K  K0  1  0.32487206  0.24999991  0.24999992  1
  K  K1  1  0.67512716  0.74999980  0.75000013  1
  K  K2  1  0.17512743  0.75000022  0.25000012  1
  K  K3  1  0.82487335  0.24999978  0.74999992  1
  Fe  Fe0  1  0.24999986  -0.00000018  0.68083778  1
  Fe  Fe1  1  0.74999768  -0.00000026  0.31916265  1
  Fe  Fe2  1  0.24999769  0.50000103  0.81916222  1
  Fe  Fe3  1  0.74999847  0.49999905  0.18083891  1
  Br  Br0  1  0.16722514  0.17666717  0.55294565  1
  Br  Br1  1  0.83277642  0.82333261  0.44705442  1
  Br  Br2  1  0.33277605  0.82333293  0.55294561  1
  Br  Br3  1  0.33277611  0.67666721  0.94705414  1
  Br  Br4  1  0.66722472  0.17666693  0.44705398  1
  Br  Br5  1  0.66722513  0.32333319  0.05294624  1
  Br  Br6  1  0.16722507  0.32333302  0.94705389  1
  Br  Br7  1  0.83277634  0.67666751  0.05294530  1
  Br  Br8  1  0.99024388  0.04576543  0.18643327  1
  Br  Br9  1  0.00975639  0.95423488  0.81356763  1
  Br  Br10  1  0.50975689  0.95423527  0.18643247  1
  Br  Br11  1  0.50975671  0.54576506  0.31356733  1
  Br  Br12  1  0.49024359  0.04576556  0.81356648  1
  Br  Br13  1  0.49024352  0.45423453  0.68643347  1
  Br  Br14  1  0.99024354  0.45423450  0.31356604  1
  Br  Br15  1  0.00975682  0.54576485  0.68643244  1
loop_
_geom_bond_atom_site_label_1
_geom_bond_atom_site_label_2
_geom_bond_distance
_geom_bond_site_symmetry_2
Br0 Fe0 2.344695 1_555
Br0 K3 3.418595 1_455
Br0 K0 3.436804 1_555
Br1 Fe1 2.344699 1_565
Br1 K2 3.418590 1_655
Br1 K1 3.436810 1_555
Br2 Fe0 2.344694 1_565
Br2 K1 3.418593 1_555
Br2 K2 3.436805 1_555
Br3 Fe2 2.344692 1_555
Br3 K1 3.418590 1_555
Br3 K2 3.436811 1_556
Br4 Fe1 2.344685 1_555
Br4 K0 3.418599 1_555
Br4 K3 3.436810 1_555
Br5 Fe3 2.344683 1_555
Br5 K0 3.418602 1_555
Br5 K3 3.436814 1_554
Br6 Fe2 2.344694 1_555
Br6 K3 3.418595 1_455
Br6 K0 3.436807 1_556
Br7 Fe3 2.344720 1_555
Br7 K2 3.418595 1_655
Br7 K1 3.436803 1_554
Br8 Fe1 2.352832 1_555
Br8 K0 3.402809 1_655
Br8 K2 3.443562 1_645
Br9 Fe0 2.352817 1_565
Br9 K1 3.402821 1_455
Br9 K3 3.443559 1_465
Br10 Fe1 2.352801 1_565
Br10 K2 3.402822 1_555
Br10 K0 3.443562 1_565
Br11 Fe3 2.352799 1_555
Br11 K2 3.402818 1_555
Br11 K0 3.443568 1_555
Br12 Fe0 2.352812 1_555
Br12 K3 3.402817 1_555
Br12 K1 3.443566 1_545
Br13 Fe2 2.352827 1_555
Br13 K3 3.402817 1_555
Br13 K1 3.443565 1_555
Br14 Fe3 2.352808 1_555
Br14 K0 3.402808 1_655
Br14 K2 3.443568 1_655
Br15 Fe2 2.352797 1_555
Br15 K1 3.402820 1_455
Br15 K3 3.443564 1_455
