# generated using pymatgen
data_KAlH3
_symmetry_space_group_name_H-M   'P 1'
_cell_length_a   3.98168300
_cell_length_b   3.98168300
_cell_length_c   3.98168300
_cell_angle_alpha   90.00000000
_cell_angle_beta   90.00000000
_cell_angle_gamma   90.00000000
_symmetry_Int_Tables_number   1
_chemical_formula_structural   KAlH3
_chemical_formula_sum   'K1 Al1 H3'
_cell_volume   63.12480400
_cell_formula_units_Z   1
loop_
 _symmetry_equiv_pos_site_id
 _symmetry_equiv_pos_as_xyz
  1  'x, y, z'
loop_
 _atom_site_type_symbol
 _atom_site_label
 _atom_site_symmetry_multiplicity
 _atom_site_fract_x
 _atom_site_fract_y
 _atom_site_fract_z
 _atom_site_occupancy
  K  K0  1  0.50000000  0.50000000  0.50000000  1
  Al  Al0  1  0.00000000  0.00000000  0.00000000  1
  H  H0  1  0.00000000  0.50000000  0.00000000  1
  H  H1  1  0.00000000  0.00000000  0.50000000  1
  H  H2  1  0.50000000  0.00000000  0.00000000  1
loop_
_geom_bond_atom_site_label_1
_geom_bond_atom_site_label_2
_geom_bond_distance
_geom_bond_site_symmetry_2
Al0 H2 1.990841 1_455
Al0 H2 1.990841 1_555
Al0 H1 1.990841 1_554
Al0 H0 1.990841 1_555
Al0 H0 1.990841 1_545
Al0 H1 1.990841 1_555
H0 K0 2.815475 1_554
H0 K0 2.815475 1_455
H0 K0 2.815475 1_454
H0 K0 2.815475 1_555
H1 K0 2.815475 1_455
H1 K0 2.815475 1_555
H1 K0 2.815475 1_545
H1 K0 2.815475 1_445
H2 K0 2.815475 1_554
H2 K0 2.815475 1_555
H2 K0 2.815475 1_545
H2 K0 2.815475 1_544
