# generated using pymatgen
data_BaEuYWO6
_symmetry_space_group_name_H-M   'P 1'
_cell_length_a   5.93640213
_cell_length_b   5.95565683
_cell_length_c   8.47521588
_cell_angle_alpha   90.11891188
_cell_angle_beta   89.85515620
_cell_angle_gamma   89.21657621
_symmetry_Int_Tables_number   1
_chemical_formula_structural   BaEuYWO6
_chemical_formula_sum   'Ba2 Eu2 Y2 W2 O12'
_cell_volume   299.61309652
_cell_formula_units_Z   2
loop_
 _symmetry_equiv_pos_site_id
 _symmetry_equiv_pos_as_xyz
  1  'x, y, z'
loop_
 _atom_site_type_symbol
 _atom_site_label
 _atom_site_symmetry_multiplicity
 _atom_site_fract_x
 _atom_site_fract_y
 _atom_site_fract_z
 _atom_site_occupancy
  Ba  Ba0  1  0.99577256  0.02071115  0.25056633  1
  Ba  Ba1  1  0.00422744  0.97928885  0.74943367  1
  Eu  Eu0  1  0.50104431  0.53245808  0.25153835  1
  Eu  Eu1  1  0.49895569  0.46754192  0.74846165  1
  Y  Y0  1  0.50000000  -0.00000000  -0.00000000  1
  Y  Y1  1  -0.00000000  0.50000000  0.50000000  1
  W  W0  1  -0.00000000  0.50000000  -0.00000000  1
  W  W1  1  0.50000000  -0.00000000  0.50000000  1
  O  O0  1  0.20664928  0.24110051  0.96664697  1
  O  O1  1  0.30145302  0.72541407  0.53882068  1
  O  O2  1  0.79335072  0.75889949  0.03335303  1
  O  O3  1  0.69854698  0.27458593  0.46117932  1
  O  O4  1  0.27163731  0.70136215  0.96120858  1
  O  O5  1  0.24054590  0.20892934  0.52804401  1
  O  O6  1  0.72836269  0.29863785  0.03879142  1
  O  O7  1  0.75945410  0.79107066  0.47195599  1
  O  O8  1  0.44801672  0.97113433  0.26213497  1
  O  O9  1  0.08080008  0.50014265  0.23699699  1
  O  O10  1  0.55198328  0.02886567  0.73786503  1
  O  O11  1  0.91919992  0.49985735  0.76300301  1
loop_
_geom_bond_atom_site_label_1
_geom_bond_atom_site_label_2
_geom_bond_distance
_geom_bond_site_symmetry_2
Ba0 O8 2.698925 1_645
Ba0 O2 2.704589 1_545
Ba0 O7 2.721944 1_545
Ba0 O6 2.904503 1_555
Ba0 O9 2.908848 1_655
Ba0 O3 2.912990 1_555
Ba0 O5 2.991533 1_655
Ba0 O0 3.020420 1_654
Ba0 O9 3.136155 1_645
Ba1 O10 2.698925 1_465
Ba1 O0 2.704589 1_565
Ba1 O5 2.721944 1_565
Ba1 O4 2.904503 1_555
Ba1 O11 2.908848 1_455
Ba1 O1 2.912990 1_555
Ba1 O7 2.991533 1_455
Ba1 O2 3.020420 1_456
Ba1 O11 3.136155 1_465
Eu0 O9 2.508094 1_555
Eu0 O3 2.619694 1_555
Eu0 O8 2.628547 1_555
Eu0 O6 2.633856 1_555
Eu0 O7 2.877912 1_555
Eu0 O2 2.882251 1_555
Eu0 O1 2.930736 1_555
Eu0 O4 2.985111 1_554
Eu1 O11 2.508094 1_555
Eu1 O1 2.619694 1_555
Eu1 O10 2.628547 1_555
Eu1 O4 2.633856 1_555
Eu1 O5 2.877912 1_555
Eu1 O0 2.882251 1_555
Eu1 O3 2.930736 1_555
Eu1 O6 2.985111 1_556
O0 W0 1.976625 1_556
O0 Y0 2.260571 1_556
O1 W1 2.055430 1_565
O1 Y1 2.275927 1_555
O2 W0 1.976625 1_655
O2 Y0 2.260571 1_565
O3 W1 2.055430 1_555
O3 Y1 2.275927 1_655
O4 W0 2.049005 1_556
O4 Y0 2.274864 1_566
O5 W1 1.980304 1_555
O5 Y1 2.244198 1_555
O6 W0 2.049005 1_655
O6 Y0 2.274864 1_555
O7 W1 1.980304 1_565
O7 Y1 2.244198 1_655
O8 W1 2.047444 1_565
O8 Y0 2.249463 1_565
O9 W0 2.066259 1_555
O9 Y1 2.278851 1_555
O10 W1 2.047444 1_555
O10 Y0 2.249463 1_556
O11 W0 2.066259 1_656
O11 Y1 2.278851 1_655
