# generated using pymatgen
data_Al2FeP2(HO)18
_symmetry_space_group_name_H-M   'P 1'
_cell_length_a   5.36468800
_cell_length_b   7.03277210
_cell_length_c   11.49699263
_cell_angle_alpha   78.16904238
_cell_angle_beta   82.19156415
_cell_angle_gamma   68.74000069
_symmetry_Int_Tables_number   1
_chemical_formula_structural   Al2FeP2(HO)18
_chemical_formula_sum   'Al2 Fe1 P2 H18 O18'
_cell_volume   394.75726654
_cell_formula_units_Z   1
loop_
 _symmetry_equiv_pos_site_id
 _symmetry_equiv_pos_as_xyz
  1  'x, y, z'
loop_
 _atom_site_type_symbol
 _atom_site_label
 _atom_site_symmetry_multiplicity
 _atom_site_fract_x
 _atom_site_fract_y
 _atom_site_fract_z
 _atom_site_occupancy
  Al  Al0  1  0.00000000  0.00000000  0.50000000  1
  Al  Al1  1  0.00000000  0.50000000  0.50000000  1
  Fe  Fe0  1  0.00000000  0.00000000  0.00000000  1
  P  P0  1  0.59445800  0.92668000  0.36105400  1
  P  P1  1  0.40554200  0.07332000  0.63894600  1
  H  H0  1  0.65419700  0.32530400  0.52409000  1
  H  H1  1  0.34580300  0.67469600  0.47591000  1
  H  H2  1  0.71102200  0.62138700  0.75712500  1
  H  H3  1  0.28897800  0.37861300  0.24287500  1
  H  H4  1  0.39187300  0.54262500  0.82666600  1
  H  H5  1  0.60812700  0.45737500  0.17333400  1
  H  H6  1  0.74295100  0.55335100  0.89592600  1
  H  H7  1  0.25704900  0.44664900  0.10407400  1
  H  H8  1  0.95609300  0.31468200  0.08156300  1
  H  H9  1  0.04390700  0.68531800  0.91843700  1
  H  H10  1  0.68370400  0.16236300  0.00755400  1
  H  H11  1  0.31629600  0.83763700  0.99244600  1
  H  H12  1  0.48553700  0.94832800  0.82191600  1
  H  H13  1  0.51446300  0.05167200  0.17808400  1
  H  H14  1  0.72929000  0.64055000  0.15040600  1
  H  H15  1  0.27071000  0.35945000  0.84959400  1
  H  H16  1  0.94521200  0.45923600  0.30658200  1
  H  H17  1  0.05478800  0.54076400  0.69341800  1
  O  O0  1  0.77404400  0.04479700  0.37608900  1
  O  O1  1  0.22595600  0.95520300  0.62391100  1
  O  O2  1  0.67695300  0.70323000  0.42990400  1
  O  O3  1  0.32304700  0.29677000  0.57009600  1
  O  O4  1  0.63001400  0.91473100  0.21824900  1
  O  O5  1  0.36998600  0.08526900  0.78175100  1
  O  O6  1  0.70671800  0.96283200  0.61394200  1
  O  O7  1  0.29328200  0.03716800  0.38605800  1
  O  O8  1  0.85098200  0.28807300  0.51384200  1
  O  O9  1  0.14901800  0.71192700  0.48615800  1
  O  O10  1  0.60941400  0.64263000  0.84028200  1
  O  O11  1  0.39058600  0.35737000  0.15971800  1
  O  O12  1  0.06847200  0.21762200  0.02520600  1
  O  O13  1  0.93152800  0.78237800  0.97479400  1
  O  O14  1  0.89449600  0.54872400  0.65582700  1
  O  O15  1  0.10550400  0.45127600  0.34417300  1
  O  O16  1  0.77747500  0.48995200  0.17109300  1
  O  O17  1  0.22252500  0.51004800  0.82890700  1
loop_
_geom_bond_atom_site_label_1
_geom_bond_atom_site_label_2
_geom_bond_distance
_geom_bond_site_symmetry_2
Al0 O1 1.899048 1_545
Al0 O0 1.899048 1_455
Al0 O9 1.921455 1_545
Al0 O8 1.921455 1_455
Al0 O7 1.964097 1_555
Al0 O6 1.964097 1_445
Al1 O15 1.866264 1_555
Al1 O14 1.866264 1_455
Al1 O8 1.902122 1_455
Al1 O9 1.902122 1_555
Al1 O2 1.951051 1_455
Al1 O3 1.951051 1_555
Fe0 H10 1.669171 1_455
Fe0 H11 1.669171 1_544
Fe0 O13 1.783198 1_444
Fe0 O12 1.783198 1_555
H0 O8 0.987580 1_555
H1 O9 0.987580 1_555
H2 O10 1.044699 1_555
H2 O14 1.467682 1_555
H3 O11 1.044699 1_555
H3 O15 1.467682 1_555
H4 O17 1.010292 1_555
H4 O10 1.603485 1_555
H5 O16 1.010292 1_555
H5 O11 1.603485 1_555
H6 O10 0.974848 1_555
H7 O11 0.974848 1_555
H8 O12 1.012919 1_655
H9 O13 1.012919 1_455
H12 O5 0.993727 1_565
H13 O4 0.993727 1_545
H14 O16 0.979793 1_555
H15 O17 0.979793 1_555
H16 O15 0.992736 1_655
H17 O14 0.992736 1_455
O0 P0 1.527293 1_545
O1 P1 1.527293 1_565
O2 P0 1.540366 1_555
O3 P1 1.540366 1_555
O4 P0 1.642833 1_555
O5 P1 1.642833 1_555
O6 P1 1.533584 1_565
O7 P0 1.533584 1_545
