# generated using pymatgen
data_Bi4IBr3
_symmetry_space_group_name_H-M   'P 1'
_cell_length_a   7.52560485
_cell_length_b   7.52560485
_cell_length_c   20.63349800
_cell_angle_alpha   90.00000000
_cell_angle_beta   90.00000000
_cell_angle_gamma   146.54897738
_symmetry_Int_Tables_number   1
_chemical_formula_structural   Bi4IBr3
_chemical_formula_sum   'Bi8 I2 Br6'
_cell_volume   644.14519526
_cell_formula_units_Z   2
loop_
 _symmetry_equiv_pos_site_id
 _symmetry_equiv_pos_as_xyz
  1  'x, y, z'
loop_
 _atom_site_type_symbol
 _atom_site_label
 _atom_site_symmetry_multiplicity
 _atom_site_fract_x
 _atom_site_fract_y
 _atom_site_fract_z
 _atom_site_occupancy
  Bi  Bi0  1  0.25503000  0.74497000  0.86450400  1
  Bi  Bi1  1  0.74497000  0.25503000  0.36450400  1
  Bi  Bi2  1  0.05629200  0.94370800  0.50380200  1
  Bi  Bi3  1  0.94370800  0.05629200  0.00380200  1
  Bi  Bi4  1  0.29478000  0.70522000  0.01109300  1
  Bi  Bi5  1  0.70522000  0.29478000  0.51109300  1
  Bi  Bi6  1  0.01617400  0.98382600  0.65099600  1
  Bi  Bi7  1  0.98382600  0.01617400  0.15099600  1
  I  I0  1  0.34088200  0.65911800  0.19567000  1
  I  I1  1  0.65911800  0.34088200  0.69567000  1
  Br  Br0  1  0.38131400  0.61868600  0.62461700  1
  Br  Br1  1  0.61868600  0.38131400  0.12461700  1
  Br  Br2  1  0.11709400  0.88290600  0.32592500  1
  Br  Br3  1  0.88290600  0.11709400  0.82592500  1
  Br  Br4  1  0.37586300  0.62413700  0.39829200  1
  Br  Br5  1  0.62413700  0.37586300  0.89829200  1
loop_
_geom_bond_atom_site_label_1
_geom_bond_atom_site_label_2
_geom_bond_distance
_geom_bond_site_symmetry_2
Bi0 Br3 2.953275 1_455
Bi0 Br3 2.953275 1_565
Bi0 Br5 2.955746 1_455
Bi0 Br5 2.955746 1_565
Bi0 Bi4 3.078436 1_556
Bi1 Br2 2.953275 1_655
Bi1 Br2 2.953275 1_545
Bi1 Br4 2.955746 1_545
Bi1 Br4 2.955746 1_655
Bi1 Bi5 3.078436 1_555
Bi2 Bi5 3.053128 1_455
Bi2 Bi5 3.053128 1_565
Bi2 Bi6 3.091690 1_555
Bi3 Bi4 3.053128 1_655
Bi3 Bi4 3.053128 1_545
Bi3 Bi7 3.091690 1_555
Bi6 Br0 2.960692 1_565
Bi6 Br0 2.960692 1_455
Bi6 I1 3.128217 1_565
Bi6 I1 3.128217 1_455
Bi7 Br1 2.960692 1_655
Bi7 Br1 2.960692 1_545
Bi7 I0 3.128217 1_655
Bi7 I0 3.128217 1_545
