# generated using pymatgen
data_SrMg2
_symmetry_space_group_name_H-M   'P 1'
_cell_length_a   6.34660238
_cell_length_b   6.34660238
_cell_length_c   5.60663600
_cell_angle_alpha   90.00000000
_cell_angle_beta   90.00000000
_cell_angle_gamma   120.00000397
_symmetry_Int_Tables_number   1
_chemical_formula_structural   SrMg2
_chemical_formula_sum   'Sr2 Mg4'
_cell_volume   195.57599854
_cell_formula_units_Z   2
loop_
 _symmetry_equiv_pos_site_id
 _symmetry_equiv_pos_as_xyz
  1  'x, y, z'
loop_
 _atom_site_type_symbol
 _atom_site_label
 _atom_site_symmetry_multiplicity
 _atom_site_fract_x
 _atom_site_fract_y
 _atom_site_fract_z
 _atom_site_occupancy
  Sr  Sr0  1  0.66666700  0.33333300  0.00000000  1
  Sr  Sr1  1  0.33333300  0.66666700  0.00000000  1
  Mg  Mg0  1  0.71228200  0.00000000  0.50000000  1
  Mg  Mg1  1  0.28771800  0.28771800  0.50000000  1
  Mg  Mg2  1  0.00000000  0.71228200  0.50000000  1
  Mg  Mg3  1  0.00000000  0.00000000  0.00000000  1
loop_
_geom_bond_atom_site_label_1
_geom_bond_atom_site_label_2
_geom_bond_distance
_geom_bond_site_symmetry_2
Sr0 Sr1 3.664209 1_545
Sr0 Sr1 3.664209 1_655
Sr0 Sr1 3.664220 1_555
Mg0 Mg1 3.162780 1_655
Mg0 Mg2 3.162780 1_645
Mg0 Mg3 3.345592 1_655
Mg0 Mg3 3.345592 1_656
Mg0 Sr0 3.609754 1_555
Mg0 Sr0 3.609754 1_556
Mg0 Sr1 3.609756 1_545
Mg0 Sr1 3.609756 1_546
Mg1 Mg2 3.162780 1_545
Mg1 Mg3 3.345592 1_555
Mg1 Mg3 3.345592 1_556
Mg1 Sr0 3.609758 1_555
Mg1 Sr0 3.609758 1_556
Mg1 Sr1 3.609758 1_555
Mg1 Sr1 3.609758 1_556
Mg2 Mg3 3.345592 1_565
Mg2 Mg3 3.345592 1_566
Mg2 Sr1 3.609754 1_555
Mg2 Sr1 3.609754 1_556
Mg2 Sr0 3.609756 1_456
Mg2 Sr0 3.609756 1_455
Mg3 Sr1 3.664209 1_545
Mg3 Sr0 3.664209 1_455
Mg3 Sr0 3.664214 1_555
Mg3 Sr0 3.664214 1_445
Mg3 Sr1 3.664214 1_555
Mg3 Sr1 3.664214 1_445
