# generated using pymatgen
data_Cs2KTiO2F3
_symmetry_space_group_name_H-M   'P 1'
_cell_length_a   6.75986310
_cell_length_b   6.50398340
_cell_length_c   6.42485300
_cell_angle_alpha   63.04395645
_cell_angle_beta   59.04976227
_cell_angle_gamma   57.90628127
_symmetry_Int_Tables_number   1
_chemical_formula_structural   Cs2KTiO2F3
_chemical_formula_sum   'Cs2 K1 Ti1 O2 F3'
_cell_volume   198.83111864
_cell_formula_units_Z   1
loop_
 _symmetry_equiv_pos_site_id
 _symmetry_equiv_pos_as_xyz
  1  'x, y, z'
loop_
 _atom_site_type_symbol
 _atom_site_label
 _atom_site_symmetry_multiplicity
 _atom_site_fract_x
 _atom_site_fract_y
 _atom_site_fract_z
 _atom_site_occupancy
  Cs  Cs0  1  0.26569000  0.26569000  0.23431000  1
  Cs  Cs1  1  0.76569000  0.76569000  0.73431000  1
  K  K0  1  0.49882100  0.49882100  0.50117900  1
  Ti  Ti0  1  0.01985500  0.01985500  0.98014500  1
  O  O0  1  0.75213800  0.09480400  0.24786200  1
  O  O1  1  0.09480400  0.75213800  0.90519600  1
  F  F0  1  0.82811900  0.26303800  0.73696200  1
  F  F1  1  0.22684400  0.22684400  0.77315600  1
  F  F2  1  0.26303800  0.82811900  0.17188100  1
loop_
_geom_bond_atom_site_label_1
_geom_bond_atom_site_label_2
_geom_bond_distance
_geom_bond_site_symmetry_2
Cs0 O0 2.894668 1_555
Cs0 O1 2.894668 1_554
Cs0 F0 3.058949 1_455
Cs0 F2 3.058949 1_545
Cs0 F1 3.234298 1_555
Cs0 F1 3.234298 1_554
Cs0 F0 3.485668 1_554
Cs0 F2 3.485668 1_555
Cs1 O1 2.894668 1_655
Cs1 O0 2.894668 1_565
Cs1 F2 3.058949 1_556
Cs1 F0 3.058949 1_555
Cs1 F1 3.234298 1_655
Cs1 F1 3.234298 1_565
Cs1 F0 3.485668 1_565
Cs1 F2 3.485668 1_655
K0 O1 2.952166 1_555
K0 O0 2.952166 1_555
O0 Ti0 1.758476 1_654
O1 Ti0 1.758476 1_565
F0 Ti0 2.070470 1_655
F0 K0 2.708624 1_555
F1 Ti0 2.000821 1_555
F1 K0 2.629015 1_555
F2 Ti0 2.070470 1_564
F2 K0 2.708624 1_555
