# generated using pymatgen
data_FeO
_symmetry_space_group_name_H-M   'P 1'
_cell_length_a   4.25832565
_cell_length_b   3.01544239
_cell_length_c   4.26447953
_cell_angle_alpha   45.00000000
_cell_angle_beta   90.00000000
_cell_angle_gamma   90.00000000
_symmetry_Int_Tables_number   1
_chemical_formula_structural   FeO
_chemical_formula_sum   'Fe2 O2'
_cell_volume   38.72049868
_cell_formula_units_Z   2
loop_
 _symmetry_equiv_pos_site_id
 _symmetry_equiv_pos_as_xyz
  1  'x, y, z'
loop_
 _atom_site_type_symbol
 _atom_site_label
 _atom_site_symmetry_multiplicity
 _atom_site_fract_x
 _atom_site_fract_y
 _atom_site_fract_z
 _atom_site_occupancy
  Fe  Fe0  1  0.00000000  -0.00000000  -0.00000000  1
  Fe  Fe1  1  0.50000000  0.00000000  0.50000000  1
  O  O0  1  0.50000000  -0.00000000  0.00000000  1
  O  O1  1  0.00000000  0.00000000  0.50000000  1
loop_
_geom_bond_atom_site_label_1
_geom_bond_atom_site_label_2
_geom_bond_distance
_geom_bond_site_symmetry_2
Fe0 O0 2.129163 1_555
Fe0 O0 2.129163 1_455
Fe0 O1 2.132240 1_545
Fe0 O1 2.132240 1_564
Fe0 O1 2.132240 1_555
Fe0 O1 2.132240 1_554
Fe1 O1 2.129163 1_555
Fe1 O1 2.129163 1_655
Fe1 O0 2.132240 1_546
Fe1 O0 2.132240 1_565
Fe1 O0 2.132240 1_556
Fe1 O0 2.132240 1_555
