# generated using pymatgen
data_MoWS4
_symmetry_space_group_name_H-M   'P 1'
_cell_length_a   3.18469149
_cell_length_b   3.18469149
_cell_length_c   34.62124677
_cell_angle_alpha   90.00000000
_cell_angle_beta   90.00000000
_cell_angle_gamma   120.00002299
_symmetry_Int_Tables_number   1
_chemical_formula_structural   MoWS4
_chemical_formula_sum   'Mo2 W2 S8'
_cell_volume   304.09408203
_cell_formula_units_Z   2
loop_
 _symmetry_equiv_pos_site_id
 _symmetry_equiv_pos_as_xyz
  1  'x, y, z'
loop_
 _atom_site_type_symbol
 _atom_site_label
 _atom_site_symmetry_multiplicity
 _atom_site_fract_x
 _atom_site_fract_y
 _atom_site_fract_z
 _atom_site_occupancy
  Mo  Mo0  1  0.00000000  -0.00000000  0.09408988  1
  Mo  Mo1  1  0.00000000  -0.00000000  0.46963962  1
  W  W0  1  0.33333300  0.66666700  0.28172949  1
  W  W1  1  0.33333300  0.66666700  0.65747038  1
  S  S0  1  0.00000000  -0.00000000  0.32674995  1
  S  S1  1  0.00000000  -0.00000000  0.70248768  1
  S  S2  1  0.33333300  0.66666700  0.04929826  1
  S  S3  1  0.33333300  0.66666700  0.42483692  1
  S  S4  1  0.33333300  0.66666700  0.13890334  1
  S  S5  1  0.33333300  0.66666700  0.51444545  1
  S  S6  1  0.00000000  -0.00000000  0.23668789  1
  S  S7  1  0.00000000  -0.00000000  0.61240915  1
loop_
_geom_bond_atom_site_label_1
_geom_bond_atom_site_label_2
_geom_bond_distance
_geom_bond_site_symmetry_2
Mo0 S2 2.405316 1_545
Mo0 S2 2.405318 1_445
Mo0 S2 2.405318 1_555
Mo0 S4 2.405804 1_545
Mo0 S4 2.405806 1_445
Mo0 S4 2.405806 1_555
Mo1 S3 2.405564 1_545
Mo1 S3 2.405565 1_555
Mo1 S3 2.405565 1_445
Mo1 S5 2.405634 1_545
Mo1 S5 2.405635 1_445
Mo1 S5 2.405635 1_555
S0 W0 2.410432 1_545
S0 W0 2.410434 1_445
S0 W0 2.410434 1_555
S1 W1 2.410361 1_545
S1 W1 2.410363 1_555
S1 W1 2.410363 1_445
S6 W0 2.410905 1_545
S6 W0 2.410907 1_555
S6 W0 2.410907 1_445
S7 W1 2.411345 1_545
S7 W1 2.411347 1_445
S7 W1 2.411347 1_555
