# generated using pymatgen
data_LiMg6Ti
_symmetry_space_group_name_H-M   'P 1'
_cell_length_a   4.99187600
_cell_length_b   6.39249400
_cell_length_c   10.84369800
_cell_angle_alpha   90.00000000
_cell_angle_beta   90.00000000
_cell_angle_gamma   90.00000000
_symmetry_Int_Tables_number   1
_chemical_formula_structural   LiMg6Ti
_chemical_formula_sum   'Li2 Mg12 Ti2'
_cell_volume   346.02823035
_cell_formula_units_Z   2
loop_
 _symmetry_equiv_pos_site_id
 _symmetry_equiv_pos_as_xyz
  1  'x, y, z'
loop_
 _atom_site_type_symbol
 _atom_site_label
 _atom_site_symmetry_multiplicity
 _atom_site_fract_x
 _atom_site_fract_y
 _atom_site_fract_z
 _atom_site_occupancy
  Li  Li0  1  0.50000000  0.50000000  0.83451300  1
  Li  Li1  1  0.50000000  0.00000000  0.33451300  1
  Mg  Mg0  1  0.50000000  0.25229600  0.08272500  1
  Mg  Mg1  1  0.50000000  0.74770400  0.08272500  1
  Mg  Mg2  1  0.00000000  0.24636200  0.91325000  1
  Mg  Mg3  1  0.00000000  0.75363800  0.91325000  1
  Mg  Mg4  1  0.00000000  0.50000000  0.17098400  1
  Mg  Mg5  1  0.00000000  0.50000000  0.66847300  1
  Mg  Mg6  1  0.50000000  0.75229600  0.58272500  1
  Mg  Mg7  1  0.50000000  0.24770400  0.58272500  1
  Mg  Mg8  1  0.00000000  0.74636200  0.41325000  1
  Mg  Mg9  1  0.00000000  0.25363800  0.41325000  1
  Mg  Mg10  1  0.00000000  0.00000000  0.67098400  1
  Mg  Mg11  1  0.00000000  0.00000000  0.16847300  1
  Ti  Ti0  1  0.50000000  0.50000000  0.33408300  1
  Ti  Ti1  1  0.50000000  0.00000000  0.83408300  1
loop_
_geom_bond_atom_site_label_1
_geom_bond_atom_site_label_2
_geom_bond_distance
_geom_bond_site_symmetry_2
Li0 Mg5 3.077574 1_655
Li0 Mg5 3.077574 1_555
Li0 Mg3 3.096377 1_555
Li0 Mg2 3.096377 1_555
Li0 Mg3 3.096377 1_655
Li0 Mg2 3.096377 1_655
Li0 Mg1 3.122766 1_556
Li0 Mg0 3.122766 1_556
Li0 Mg6 3.171078 1_555
Li0 Mg7 3.171078 1_555
Li0 Ti1 3.196250 1_565
Li0 Ti1 3.196250 1_555
Li1 Mg11 3.077574 1_655
Li1 Mg11 3.077574 1_555
Li1 Mg9 3.096377 1_555
Li1 Mg9 3.096377 1_655
Li1 Mg8 3.096377 1_545
Li1 Mg8 3.096377 1_645
Li1 Mg6 3.122766 1_545
Li1 Mg7 3.122766 1_555
Li1 Mg1 3.171078 1_545
Li1 Mg0 3.171078 1_555
Li1 Ti0 3.196250 1_555
Li1 Ti0 3.196250 1_545
Mg0 Mg2 3.099745 1_554
Mg0 Mg2 3.099745 1_654
Mg0 Mg4 3.106921 1_555
Mg0 Mg4 3.106921 1_655
Mg0 Mg11 3.113745 1_655
Mg0 Mg11 3.113745 1_555
Mg0 Ti1 3.141753 1_554
Mg0 Ti0 3.152217 1_555
Mg0 Mg1 3.166893 1_555
Mg0 Mg1 3.225601 1_545
Mg1 Mg3 3.099745 1_654
Mg1 Mg3 3.099745 1_554
Mg1 Mg4 3.106921 1_655
Mg1 Mg4 3.106921 1_555
Mg1 Mg11 3.113745 1_665
Mg1 Mg11 3.113745 1_565
Mg1 Ti1 3.141753 1_564
Mg1 Ti0 3.152217 1_555
Mg2 Ti1 3.073577 1_555
Mg2 Ti1 3.073577 1_455
Mg2 Mg5 3.110324 1_555
Mg2 Mg3 3.149735 1_545
Mg2 Mg4 3.231056 1_556
Mg2 Mg3 3.242759 1_555
Mg3 Ti1 3.073577 1_565
Mg3 Ti1 3.073577 1_465
Mg3 Mg5 3.110324 1_555
Mg3 Mg4 3.231056 1_556
Mg4 Ti0 3.059026 1_555
Mg4 Ti0 3.059026 1_455
Mg4 Mg9 3.062948 1_555
Mg4 Mg8 3.062948 1_555
Mg5 Mg6 3.113745 1_455
Mg5 Mg6 3.113745 1_555
Mg5 Mg7 3.113745 1_555
Mg5 Mg7 3.113745 1_455
Mg5 Mg9 3.184274 1_555
Mg5 Mg8 3.184274 1_555
Mg6 Mg8 3.099745 1_555
Mg6 Mg8 3.099745 1_655
Mg6 Ti0 3.141753 1_555
Mg6 Ti1 3.152217 1_565
Mg6 Mg7 3.166893 1_565
Mg6 Mg7 3.225601 1_555
Mg7 Mg9 3.099745 1_655
Mg7 Mg9 3.099745 1_555
Mg7 Ti0 3.141753 1_555
Mg7 Ti1 3.152217 1_555
Mg8 Ti0 3.073577 1_455
Mg8 Ti0 3.073577 1_555
Mg8 Mg9 3.149735 1_555
Mg8 Mg9 3.242759 1_565
Mg9 Ti0 3.073577 1_455
Mg9 Ti0 3.073577 1_555
Mg10 Ti1 3.059026 1_555
Mg10 Ti1 3.059026 1_455
Mg10 Mg3 3.062948 1_545
Mg10 Mg2 3.062948 1_555
Mg10 Mg6 3.106921 1_545
Mg10 Mg7 3.106921 1_455
Mg10 Mg7 3.106921 1_555
Mg10 Mg6 3.106921 1_445
Mg10 Mg5 3.196363 1_545
Mg10 Mg5 3.196363 1_555
Mg10 Mg8 3.231056 1_545
Mg10 Mg9 3.231056 1_555
Mg11 Mg8 3.110324 1_545
Mg11 Mg9 3.110324 1_555
Mg11 Mg2 3.184274 1_554
Mg11 Mg3 3.184274 1_544
Mg11 Mg4 3.196363 1_555
Mg11 Mg4 3.196363 1_545
