# generated using pymatgen
data_Mg2Cr3InS8
_symmetry_space_group_name_H-M   'P 1'
_cell_length_a   7.38659597
_cell_length_b   7.38717925
_cell_length_c   7.38739343
_cell_angle_alpha   59.24692937
_cell_angle_beta   59.24356273
_cell_angle_gamma   59.24356873
_symmetry_Int_Tables_number   1
_chemical_formula_structural   Mg2Cr3InS8
_chemical_formula_sum   'Mg2 Cr3 In1 S8'
_cell_volume   280.13185483
_cell_formula_units_Z   1
loop_
 _symmetry_equiv_pos_site_id
 _symmetry_equiv_pos_as_xyz
  1  'x, y, z'
loop_
 _atom_site_type_symbol
 _atom_site_label
 _atom_site_symmetry_multiplicity
 _atom_site_fract_x
 _atom_site_fract_y
 _atom_site_fract_z
 _atom_site_occupancy
  Mg  Mg0  1  0.87492200  0.87492900  0.87492700  1
  Mg  Mg1  1  0.12508800  0.12507200  0.12508000  1
  Cr  Cr0  1  0.50000800  0.49999000  0.00003500  1
  Cr  Cr1  1  0.00000600  0.50002100  0.50001700  1
  Cr  Cr2  1  0.49993400  0.99996600  0.50002900  1
  In  In0  1  0.50004500  0.50003300  0.49991900  1
  S  S0  1  0.73639800  0.73639700  0.73641900  1
  S  S1  1  0.25031100  0.25030400  0.71656100  1
  S  S2  1  0.25028700  0.71656100  0.25030000  1
  S  S3  1  0.71656600  0.25030100  0.25027200  1
  S  S4  1  0.74968400  0.28343200  0.74970300  1
  S  S5  1  0.28343200  0.74969700  0.74969100  1
  S  S6  1  0.26358800  0.26359000  0.26361100  1
  S  S7  1  0.74973400  0.74970200  0.28343900  1
loop_
_geom_bond_atom_site_label_1
_geom_bond_atom_site_label_2
_geom_bond_distance
_geom_bond_site_symmetry_2
Mg0 S5 2.445805 1_655
Mg0 S4 2.446045 1_565
Mg0 S7 2.446197 1_556
Mg0 S0 2.520689 1_555
Mg1 S3 2.445900 1_455
Mg1 S2 2.446114 1_545
Mg1 S1 2.446224 1_554
Mg1 S6 2.520598 1_555
Cr0 S3 2.428568 1_555
Cr0 S2 2.428732 1_555
Cr0 S4 2.429009 1_554
Cr0 S5 2.429221 1_554
Cr0 S0 2.460513 1_554
Cr0 S6 2.460607 1_555
Cr1 S2 2.428652 1_555
Cr1 S7 2.428810 1_455
Cr1 S1 2.428826 1_555
Cr1 S4 2.429098 1_455
Cr1 S0 2.460395 1_455
Cr1 S6 2.460674 1_555
Cr2 S5 2.428420 1_555
Cr2 S7 2.428831 1_555
Cr2 S1 2.428893 1_565
Cr2 S3 2.429423 1_565
Cr2 S6 2.460384 1_565
Cr2 S0 2.460801 1_555
In0 S7 2.608976 1_555
In0 S2 2.609088 1_555
In0 S3 2.609106 1_555
In0 S4 2.609286 1_555
In0 S5 2.609349 1_555
In0 S1 2.609430 1_555
