# generated using pymatgen
data_RbLiMg14O15
_symmetry_space_group_name_H-M   'P 1'
_cell_length_a   8.49431649
_cell_length_b   8.75551921
_cell_length_c   4.36156493
_cell_angle_alpha   90.00000000
_cell_angle_beta   90.00000000
_cell_angle_gamma   90.00000000
_symmetry_Int_Tables_number   1
_chemical_formula_structural   RbLiMg14O15
_chemical_formula_sum   'Rb1 Li1 Mg14 O15'
_cell_volume   324.37896646
_cell_formula_units_Z   1
loop_
 _symmetry_equiv_pos_site_id
 _symmetry_equiv_pos_as_xyz
  1  'x, y, z'
loop_
 _atom_site_type_symbol
 _atom_site_label
 _atom_site_symmetry_multiplicity
 _atom_site_fract_x
 _atom_site_fract_y
 _atom_site_fract_z
 _atom_site_occupancy
  Rb  Rb0  1  0.09160210  0.50000000  -0.00000000  1
  Li  Li0  1  0.98330625  -0.00000000  -0.00000000  1
  Mg  Mg0  1  0.50269272  -0.00000000  -0.00000000  1
  Mg  Mg1  1  0.52212865  0.50000000  -0.00000000  1
  Mg  Mg2  1  0.99294776  0.23727007  0.50000000  1
  Mg  Mg3  1  0.99294776  0.76272993  0.50000000  1
  Mg  Mg4  1  0.49706603  0.25113478  0.50000000  1
  Mg  Mg5  1  0.49706603  0.74886522  0.50000000  1
  Mg  Mg6  1  0.24089646  -0.00000000  0.50000000  1
  Mg  Mg7  1  0.25086733  0.50000000  0.50000000  1
  Mg  Mg8  1  0.75257926  -0.00000000  0.50000000  1
  Mg  Mg9  1  0.76446542  0.50000000  0.50000000  1
  Mg  Mg10  1  0.23884813  0.21543265  -0.00000000  1
  Mg  Mg11  1  0.23884813  0.78456735  -0.00000000  1
  Mg  Mg12  1  0.76175230  0.24981158  -0.00000000  1
  Mg  Mg13  1  0.76175230  0.75018842  -0.00000000  1
  O  O0  1  0.26606234  -0.00000000  -0.00000000  1
  O  O1  1  0.73453506  -0.00000000  -0.00000000  1
  O  O2  1  0.74730717  0.50000000  -0.00000000  1
  O  O3  1  0.24464508  0.26138743  0.50000000  1
  O  O4  1  0.24464508  0.73861257  0.50000000  1
  O  O5  1  0.74336465  0.25054887  0.50000000  1
  O  O6  1  0.74336465  0.74945113  0.50000000  1
  O  O7  1  0.00057140  -0.00000000  0.50000000  1
  O  O8  1  0.99701920  0.50000000  0.50000000  1
  O  O9  1  0.49206163  -0.00000000  0.50000000  1
  O  O10  1  0.48479687  0.50000000  0.50000000  1
  O  O11  1  0.00066917  0.22902828  0.00000000  1
  O  O12  1  0.00066917  0.77097172  -0.00000000  1
  O  O13  1  0.48026096  0.26533745  -0.00000000  1
  O  O14  1  0.48026096  0.73466255  -0.00000000  1
loop_
_geom_bond_atom_site_label_1
_geom_bond_atom_site_label_2
_geom_bond_distance
_geom_bond_site_symmetry_2
Li0 O12 2.010678 1_645
Li0 O11 2.010678 1_655
Li0 O1 2.113141 1_555
Li0 O7 2.185708 1_655
Li0 O7 2.185708 1_654
Li0 O0 2.401820 1_655
Mg0 O1 1.969342 1_555
Mg0 O0 2.010013 1_555
Mg0 O9 2.182651 1_554
Mg0 O9 2.182651 1_555
Mg0 O14 2.330968 1_545
Mg0 O13 2.330968 1_555
Mg1 O2 1.912738 1_555
Mg1 O13 2.085145 1_555
Mg1 O14 2.085145 1_555
Mg1 O10 2.203717 1_555
Mg1 O10 2.203717 1_554
Mg2 O7 2.078432 1_655
Mg2 O5 2.123223 1_555
Mg2 O3 2.148399 1_655
Mg2 O11 2.182962 1_655
Mg2 O11 2.182962 1_656
Mg2 O8 2.300597 1_555
Mg3 O7 2.078432 1_665
Mg3 O6 2.123223 1_555
Mg3 O4 2.148399 1_655
Mg3 O12 2.182962 1_656
Mg3 O12 2.182962 1_655
Mg3 O8 2.300597 1_555
Mg4 O5 2.092145 1_555
Mg4 O3 2.146022 1_555
Mg4 O10 2.181435 1_555
Mg4 O13 2.188984 1_555
Mg4 O13 2.188984 1_556
Mg4 O9 2.199226 1_555
Mg5 O6 2.092145 1_555
Mg5 O4 2.146022 1_555
Mg5 O10 2.181435 1_555
Mg5 O14 2.188984 1_556
Mg5 O14 2.188984 1_555
Mg5 O9 2.199226 1_565
Mg6 O7 2.041397 1_555
Mg6 O9 2.133476 1_555
Mg6 O0 2.191234 1_555
Mg6 O0 2.191234 1_556
Mg6 O4 2.288804 1_545
Mg6 O3 2.288804 1_555
Mg7 O10 1.987072 1_555
Mg7 O3 2.089845 1_555
Mg7 O4 2.089845 1_555
Mg7 O8 2.156266 1_455
Mg8 O7 2.106524 1_655
Mg8 O1 2.186162 1_555
Mg8 O1 2.186162 1_556
Mg8 O5 2.195081 1_555
Mg8 O6 2.195081 1_545
Mg8 O9 2.212919 1_555
Mg9 O8 1.975385 1_555
Mg9 O2 2.185647 1_555
Mg9 O2 2.185647 1_556
Mg9 O6 2.191416 1_555
Mg9 O5 2.191416 1_555
Mg9 O10 2.375593 1_555
Mg10 O0 1.900337 1_555
Mg10 O11 2.026666 1_555
Mg10 O13 2.096671 1_555
Mg10 O3 2.218136 1_554
Mg10 O3 2.218136 1_555
Mg11 O0 1.900337 1_565
Mg11 O12 2.026666 1_555
Mg11 O14 2.096671 1_555
Mg11 O4 2.218136 1_554
Mg11 O4 2.218136 1_555
Mg12 O11 2.037577 1_655
Mg12 O5 2.186378 1_555
Mg12 O5 2.186378 1_554
Mg12 O2 2.193963 1_555
Mg12 O1 2.199415 1_555
Mg12 O13 2.394938 1_555
Mg13 O12 2.037577 1_655
Mg13 O6 2.186378 1_555
Mg13 O6 2.186378 1_554
Mg13 O2 2.193963 1_555
Mg13 O1 2.199415 1_565
Mg13 O14 2.394938 1_555
O8 Rb0 2.324068 1_656
O8 Rb0 2.324068 1_655
O11 Rb0 2.495069 1_555
O12 Rb0 2.495069 1_555
