# generated using pymatgen
data_SrNb5Se8
_symmetry_space_group_name_H-M   'P 1'
_cell_length_a   3.55098300
_cell_length_b   9.38094225
_cell_length_c   9.39765880
_cell_angle_alpha   104.16323771
_cell_angle_beta   90.00000000
_cell_angle_gamma   100.90994309
_symmetry_Int_Tables_number   1
_chemical_formula_structural   SrNb5Se8
_chemical_formula_sum   'Sr1 Nb5 Se8'
_cell_volume   297.69586566
_cell_formula_units_Z   1
loop_
 _symmetry_equiv_pos_site_id
 _symmetry_equiv_pos_as_xyz
  1  'x, y, z'
loop_
 _atom_site_type_symbol
 _atom_site_label
 _atom_site_symmetry_multiplicity
 _atom_site_fract_x
 _atom_site_fract_y
 _atom_site_fract_z
 _atom_site_occupancy
  Sr  Sr0  1  0.50000000  0.00000000  0.50000000  1
  Nb  Nb0  1  0.00000000  0.00000000  0.00000000  1
  Nb  Nb1  1  0.35967000  0.71934000  0.01208900  1
  Nb  Nb2  1  0.64033000  0.28066000  0.98791100  1
  Nb  Nb3  1  0.28776200  0.57552400  0.62559300  1
  Nb  Nb4  1  0.71223800  0.42447600  0.37440700  1
  Se  Se0  1  0.57346100  0.14692300  0.19265200  1
  Se  Se1  1  0.42653900  0.85307700  0.80734800  1
  Se  Se2  1  0.07875900  0.15751700  0.79602800  1
  Se  Se3  1  0.92124100  0.84248300  0.20397200  1
  Se  Se4  1  0.14607100  0.29214300  0.50209800  1
  Se  Se5  1  0.85392900  0.70785700  0.49790200  1
  Se  Se6  1  0.24046900  0.48093700  0.15898300  1
  Se  Se7  1  0.75953100  0.51906300  0.84101700  1
loop_
_geom_bond_atom_site_label_1
_geom_bond_atom_site_label_2
_geom_bond_distance
_geom_bond_site_symmetry_2
Nb0 Se0 2.653421 1_555
Nb0 Se1 2.653421 1_444
Nb0 Se0 2.653424 1_455
Nb0 Se1 2.653424 1_544
Nb0 Se3 2.676888 1_445
Nb0 Se2 2.676888 1_554
Nb1 Se1 2.530019 1_554
Nb1 Se3 2.582894 1_555
Nb1 Se3 2.582897 1_455
Nb1 Se7 2.768077 1_554
Nb1 Se7 2.768079 1_454
Nb1 Se6 2.870371 1_555
Nb2 Se0 2.530019 1_556
Nb2 Se2 2.582894 1_555
Nb2 Se2 2.582897 1_655
Nb2 Se6 2.768077 1_556
Nb2 Se6 2.768079 1_656
Nb2 Se7 2.870371 1_555
Nb3 Se4 2.578940 1_555
Nb3 Se5 2.609071 1_455
Nb3 Se5 2.609074 1_555
Nb3 Se1 2.697698 1_555
Nb3 Se7 2.836568 1_555
Nb3 Se7 2.836570 1_455
Nb4 Se5 2.578940 1_555
Nb4 Se4 2.609071 1_655
Nb4 Se4 2.609074 1_555
Nb4 Se0 2.697698 1_555
Nb4 Se6 2.836568 1_555
Nb4 Se6 2.836570 1_655
Se0 Sr0 3.481714 1_555
Se1 Sr0 3.481714 1_565
Se2 Sr0 3.314404 1_555
Se2 Sr0 3.314406 1_455
Se3 Sr0 3.314404 1_565
Se3 Sr0 3.314406 1_665
Se4 Sr0 3.219941 1_455
Se4 Sr0 3.219943 1_555
Se5 Sr0 3.219941 1_665
Se5 Sr0 3.219943 1_565
