# generated using pymatgen
data_KNb3(SeO6)2
_symmetry_space_group_name_H-M   'P 1'
_cell_length_a   4.07274700
_cell_length_b   15.18150800
_cell_length_c   17.54971000
_cell_angle_alpha   90.00000000
_cell_angle_beta   90.00000000
_cell_angle_gamma   90.00000000
_symmetry_Int_Tables_number   1
_chemical_formula_structural   KNb3(SeO6)2
_chemical_formula_sum   'K4 Nb12 Se8 O48'
_cell_volume   1085.10631157
_cell_formula_units_Z   4
loop_
 _symmetry_equiv_pos_site_id
 _symmetry_equiv_pos_as_xyz
  1  'x, y, z'
loop_
 _atom_site_type_symbol
 _atom_site_label
 _atom_site_symmetry_multiplicity
 _atom_site_fract_x
 _atom_site_fract_y
 _atom_site_fract_z
 _atom_site_occupancy
  K  K0  1  0.20058800  0.06712800  0.75000000  1
  K  K1  1  0.79941200  0.93287200  0.25000000  1
  K  K2  1  0.20058800  0.43287200  0.25000000  1
  K  K3  1  0.79941200  0.56712800  0.75000000  1
  Nb  Nb0  1  0.26294800  0.78882400  0.75000000  1
  Nb  Nb1  1  0.73705200  0.21117600  0.25000000  1
  Nb  Nb2  1  0.26294800  0.71117600  0.25000000  1
  Nb  Nb3  1  0.73705200  0.28882400  0.75000000  1
  Nb  Nb4  1  0.74206500  0.14831400  0.56667500  1
  Nb  Nb5  1  0.25793500  0.85168600  0.06667500  1
  Nb  Nb6  1  0.74206500  0.35168600  0.43332500  1
  Nb  Nb7  1  0.25793500  0.64831400  0.93332500  1
  Nb  Nb8  1  0.25793500  0.85168600  0.43332500  1
  Nb  Nb9  1  0.74206500  0.14831400  0.93332500  1
  Nb  Nb10  1  0.25793500  0.64831400  0.56667500  1
  Nb  Nb11  1  0.74206500  0.35168600  0.06667500  1
  Se  Se0  1  0.58849800  0.91878300  0.60131400  1
  Se  Se1  1  0.41150200  0.08121700  0.10131400  1
  Se  Se2  1  0.58849800  0.58121700  0.39868600  1
  Se  Se3  1  0.41150200  0.41878300  0.89868600  1
  Se  Se4  1  0.41150200  0.08121700  0.39868600  1
  Se  Se5  1  0.58849800  0.91878300  0.89868600  1
  Se  Se6  1  0.41150200  0.41878300  0.60131400  1
  Se  Se7  1  0.58849800  0.58121700  0.10131400  1
  O  O0  1  0.30252700  0.93247000  0.52890300  1
  O  O1  1  0.69747300  0.06753000  0.02890300  1
  O  O2  1  0.30252700  0.56753000  0.47109700  1
  O  O3  1  0.69747300  0.43247000  0.97109700  1
  O  O4  1  0.69747300  0.06753000  0.47109700  1
  O  O5  1  0.30252700  0.93247000  0.97109700  1
  O  O6  1  0.69747300  0.43247000  0.52890300  1
  O  O7  1  0.30252700  0.56753000  0.02890300  1
  O  O8  1  0.67270800  0.02659600  0.62779900  1
  O  O9  1  0.32729200  0.97340400  0.12779900  1
  O  O10  1  0.67270800  0.47340400  0.37220100  1
  O  O11  1  0.32729200  0.52659600  0.87220100  1
  O  O12  1  0.32729200  0.97340400  0.37220100  1
  O  O13  1  0.67270800  0.02659600  0.87220100  1
  O  O14  1  0.32729200  0.52659600  0.62779900  1
  O  O15  1  0.67270800  0.47340400  0.12779900  1
  O  O16  1  0.30948500  0.89565200  0.67319900  1
  O  O17  1  0.69051500  0.10434800  0.17319900  1
  O  O18  1  0.30948500  0.60434800  0.32680100  1
  O  O19  1  0.69051500  0.39565200  0.82680100  1
  O  O20  1  0.69051500  0.10434800  0.32680100  1
  O  O21  1  0.30948500  0.89565200  0.82680100  1
  O  O22  1  0.69051500  0.39565200  0.67319900  1
  O  O23  1  0.30948500  0.60434800  0.17319900  1
  O  O24  1  0.31312200  0.70360000  0.66767000  1
  O  O25  1  0.68687800  0.29640000  0.16767000  1
  O  O26  1  0.31312200  0.79640000  0.33233000  1
  O  O27  1  0.68687800  0.20360000  0.83233000  1
  O  O28  1  0.68687800  0.29640000  0.33233000  1
  O  O29  1  0.31312200  0.70360000  0.83233000  1
  O  O30  1  0.68687800  0.20360000  0.66767000  1
  O  O31  1  0.31312200  0.79640000  0.16767000  1
  O  O32  1  0.81412800  0.79657700  0.75000000  1
  O  O33  1  0.18587200  0.20342300  0.25000000  1
  O  O34  1  0.81412800  0.70342300  0.25000000  1
  O  O35  1  0.18587200  0.29657700  0.75000000  1
  O  O36  1  0.68589500  0.25000000  0.50000000  1
  O  O37  1  0.31410500  0.75000000  0.00000000  1
  O  O38  1  0.31410500  0.75000000  0.50000000  1
  O  O39  1  0.68589500  0.25000000  0.00000000  1
  O  O40  1  0.18778300  0.14246400  0.56724300  1
  O  O41  1  0.81221700  0.85753600  0.06724300  1
  O  O42  1  0.18778300  0.35753600  0.43275700  1
  O  O43  1  0.81221700  0.64246400  0.93275700  1
  O  O44  1  0.81221700  0.85753600  0.43275700  1
  O  O45  1  0.18778300  0.14246400  0.93275700  1
  O  O46  1  0.81221700  0.64246400  0.56724300  1
  O  O47  1  0.18778300  0.35753600  0.06724300  1
loop_
_geom_bond_atom_site_label_1
_geom_bond_atom_site_label_2
_geom_bond_distance
_geom_bond_site_symmetry_2
K0 O8 2.945364 1_555
K0 O13 2.945364 1_555
K0 O21 2.964852 1_545
K0 O16 2.964852 1_545
K0 O13 3.098399 1_455
K0 O8 3.098399 1_455
K0 O30 3.209787 1_555
K0 O27 3.209787 1_555
K0 O30 3.279871 1_455
K0 O27 3.279871 1_455
K1 O12 2.945364 1_555
K1 O9 2.945364 1_555
K1 O17 2.964852 1_565
K1 O20 2.964852 1_565
K1 O9 3.098399 1_655
K1 O12 3.098399 1_655
K1 O31 3.209787 1_555
K1 O26 3.209787 1_555
K1 O31 3.279871 1_655
K1 O26 3.279871 1_655
K2 O15 2.945364 1_555
K2 O10 2.945364 1_555
K2 O23 2.964852 1_555
K2 O18 2.964852 1_555
K2 O10 3.098399 1_455
K2 O15 3.098399 1_455
K2 O25 3.209787 1_555
K2 O28 3.209787 1_555
K2 O25 3.279871 1_455
K2 O28 3.279871 1_455
K3 O11 2.945364 1_555
K3 O14 2.945364 1_555
K3 O22 2.964852 1_555
K3 O19 2.964852 1_555
K3 O11 3.098399 1_655
K3 O14 3.098399 1_655
K3 O24 3.209787 1_555
K3 O29 3.209787 1_555
K3 O24 3.279871 1_655
K3 O29 3.279871 1_655
Nb0 O32 1.831716 1_455
Nb0 O24 1.950229 1_555
Nb0 O29 1.950229 1_555
Nb0 O16 2.117274 1_555
Nb0 O21 2.117274 1_555
Nb0 O32 2.247900 1_555
Nb1 O33 1.831716 1_655
Nb1 O25 1.950229 1_555
Nb1 O28 1.950229 1_555
Nb1 O20 2.117274 1_555
Nb1 O17 2.117274 1_555
Nb1 O33 2.247900 1_555
Nb2 O34 1.831716 1_455
Nb2 O31 1.950229 1_555
Nb2 O26 1.950229 1_555
Nb2 O23 2.117274 1_555
Nb2 O18 2.117274 1_555
Nb2 O34 2.247900 1_555
Nb3 O35 1.831716 1_655
Nb3 O30 1.950229 1_555
Nb3 O27 1.950229 1_555
Nb3 O22 2.117274 1_555
Nb3 O19 2.117274 1_555
Nb3 O35 2.247900 1_555
Nb4 O40 1.817495 1_655
Nb4 O36 1.950560 1_555
Nb4 O30 1.973956 1_555
Nb4 O4 2.085822 1_555
Nb4 O8 2.155247 1_555
Nb4 O40 2.259219 1_555
Nb5 O41 1.817495 1_455
Nb5 O37 1.950560 1_555
Nb5 O31 1.973956 1_555
Nb5 O5 2.085822 1_554
Nb5 O9 2.155247 1_555
Nb5 O41 2.259219 1_555
Nb6 O42 1.817495 1_655
Nb6 O36 1.950560 1_555
Nb6 O28 1.973956 1_555
Nb6 O6 2.085822 1_555
Nb6 O10 2.155247 1_555
Nb6 O42 2.259219 1_555
Nb7 O43 1.817495 1_455
Nb7 O37 1.950560 1_556
Nb7 O29 1.973956 1_555
Nb7 O7 2.085822 1_556
Nb7 O11 2.155247 1_555
Nb7 O43 2.259219 1_555
Nb8 O44 1.817495 1_455
Nb8 O38 1.950560 1_555
Nb8 O26 1.973956 1_555
Nb8 O0 2.085822 1_555
Nb8 O12 2.155247 1_555
Nb8 O44 2.259219 1_555
Nb9 O45 1.817495 1_655
Nb9 O39 1.950560 1_556
Nb9 O27 1.973956 1_555
Nb9 O1 2.085822 1_556
Nb9 O13 2.155247 1_555
Nb9 O45 2.259219 1_555
Nb10 O46 1.817495 1_455
Nb10 O38 1.950560 1_555
Nb10 O24 1.973956 1_555
Nb10 O2 2.085822 1_555
Nb10 O14 2.155247 1_555
Nb10 O46 2.259219 1_555
Nb11 O47 1.817495 1_655
Nb11 O39 1.950560 1_555
Nb11 O25 1.973956 1_555
Nb11 O3 2.085822 1_554
Nb11 O15 2.155247 1_555
Nb11 O47 2.259219 1_555
O0 Se0 1.736256 1_555
O1 Se1 1.736256 1_555
O2 Se2 1.736256 1_555
O3 Se3 1.736256 1_555
O4 Se4 1.736256 1_555
O5 Se5 1.736256 1_555
O6 Se6 1.736256 1_555
O7 Se7 1.736256 1_555
O8 Se0 1.735703 1_545
O9 Se1 1.735703 1_565
O10 Se2 1.735703 1_555
O11 Se3 1.735703 1_555
O12 Se4 1.735703 1_565
O13 Se5 1.735703 1_545
O14 Se6 1.735703 1_555
O15 Se7 1.735703 1_555
O16 Se0 1.733823 1_555
O17 Se1 1.733823 1_555
O18 Se2 1.733823 1_555
O19 Se3 1.733823 1_555
O20 Se4 1.733823 1_555
O21 Se5 1.733823 1_555
O22 Se6 1.733823 1_555
O23 Se7 1.733823 1_555
