# generated using pymatgen
data_Mg(SnO2)4
_symmetry_space_group_name_H-M   'P 1'
_cell_length_a   8.06940181
_cell_length_b   8.06940181
_cell_length_c   9.82242144
_cell_angle_alpha   53.10620187
_cell_angle_beta   53.10620187
_cell_angle_gamma   23.05692661
_symmetry_Int_Tables_number   1
_chemical_formula_structural   Mg(SnO2)4
_chemical_formula_sum   'Mg1 Sn4 O8'
_cell_volume   197.96905402
_cell_formula_units_Z   1
loop_
 _symmetry_equiv_pos_site_id
 _symmetry_equiv_pos_as_xyz
  1  'x, y, z'
loop_
 _atom_site_type_symbol
 _atom_site_label
 _atom_site_symmetry_multiplicity
 _atom_site_fract_x
 _atom_site_fract_y
 _atom_site_fract_z
 _atom_site_occupancy
  Mg  Mg0  1  0.69035300  0.69035300  0.79863800  1
  Sn  Sn0  1  0.37042400  0.37042400  0.42948800  1
  Sn  Sn1  1  0.89852300  0.89852300  0.78994200  1
  Sn  Sn2  1  0.14882500  0.14882500  0.15755000  1
  Sn  Sn3  1  0.66556900  0.66556900  0.49057400  1
  O  O0  1  0.13561600  0.13561600  0.39501100  1
  O  O1  1  0.53370400  0.53370400  0.26523500  1
  O  O2  1  0.51256200  0.51256200  0.71906800  1
  O  O3  1  0.85538400  0.85538400  0.58147300  1
  O  O4  1  0.83592300  0.83592300  0.32667500  1
  O  O5  1  0.17131500  0.17131500  0.92984600  1
  O  O6  1  0.19553300  0.19553300  0.61337700  1
  O  O7  1  0.74866100  0.74866100  0.09433000  1
loop_
_geom_bond_atom_site_label_1
_geom_bond_atom_site_label_2
_geom_bond_distance
_geom_bond_site_symmetry_2
Mg0 O5 1.969004 1_655
Mg0 O5 1.969004 1_565
Mg0 O3 2.130522 1_555
Mg0 O6 2.395044 1_655
Mg0 O6 2.395044 1_565
O0 Sn3 2.061811 1_545
O0 Sn3 2.061811 1_455
O0 Sn2 2.210637 1_555
O1 Sn0 2.040833 1_555
O1 Sn2 2.161961 1_565
O1 Sn2 2.161961 1_655
O2 Sn3 2.058413 1_555
O2 Sn1 2.190682 1_545
O2 Sn1 2.190682 1_455
O3 Sn0 2.109728 1_655
O3 Sn0 2.109728 1_565
O3 Sn1 2.523884 1_555
O4 Sn3 2.129386 1_555
O4 Sn0 2.143235 1_565
O4 Sn0 2.143235 1_655
O5 Sn2 2.038179 1_556
O6 Sn0 2.188556 1_555
O6 Sn3 2.231742 1_455
O6 Sn3 2.231742 1_545
O7 Sn2 2.068214 1_655
O7 Sn2 2.068214 1_565
O7 Sn1 2.423382 1_554
