# generated using pymatgen
data_In(PO4)3
_symmetry_space_group_name_H-M   'P 1'
_cell_length_a   8.80990652
_cell_length_b   8.80990652
_cell_length_c   7.33955800
_cell_angle_alpha   90.00000000
_cell_angle_beta   90.00000000
_cell_angle_gamma   120.00000390
_symmetry_Int_Tables_number   1
_chemical_formula_structural   In(PO4)3
_chemical_formula_sum   'In2 P6 O24'
_cell_volume   493.33635621
_cell_formula_units_Z   2
loop_
 _symmetry_equiv_pos_site_id
 _symmetry_equiv_pos_as_xyz
  1  'x, y, z'
loop_
 _atom_site_type_symbol
 _atom_site_label
 _atom_site_symmetry_multiplicity
 _atom_site_fract_x
 _atom_site_fract_y
 _atom_site_fract_z
 _atom_site_occupancy
  In  In0  1  0.33333300  0.66666700  0.00388900  1
  In  In1  1  0.66666700  0.33333300  0.50388900  1
  P  P0  1  0.37033100  0.05032600  0.16484300  1
  P  P1  1  0.94967400  0.32000500  0.16484300  1
  P  P2  1  0.62966900  0.94967400  0.66484300  1
  P  P3  1  0.67999500  0.62966900  0.16484300  1
  P  P4  1  0.05032600  0.67999500  0.66484300  1
  P  P5  1  0.32000500  0.37033100  0.66484300  1
  O  O0  1  0.44120300  0.16798100  0.33243100  1
  O  O1  1  0.83201900  0.27322200  0.33243100  1
  O  O2  1  0.55879700  0.83201900  0.83243100  1
  O  O3  1  0.72677800  0.55879700  0.33243100  1
  O  O4  1  0.16798100  0.72677800  0.83243100  1
  O  O5  1  0.27322200  0.44120300  0.83243100  1
  O  O6  1  0.27361200  0.43980200  0.49145100  1
  O  O7  1  0.56019800  0.83381000  0.49145100  1
  O  O8  1  0.72638800  0.56019800  0.99145100  1
  O  O9  1  0.16619000  0.72638800  0.49145100  1
  O  O10  1  0.43980200  0.16619000  0.99145100  1
  O  O11  1  0.83381000  0.27361200  0.99145100  1
  O  O12  1  0.02671400  0.19656200  0.13878100  1
  O  O13  1  0.80343800  0.83015200  0.13878100  1
  O  O14  1  0.97328600  0.80343800  0.63878100  1
  O  O15  1  0.16984800  0.97328600  0.13878100  1
  O  O16  1  0.19656200  0.16984800  0.63878100  1
  O  O17  1  0.83015200  0.02671400  0.63878100  1
  O  O18  1  0.10068900  0.51071200  0.16569800  1
  O  O19  1  0.48928800  0.58997700  0.16569800  1
  O  O20  1  0.89931100  0.48928800  0.66569800  1
  O  O21  1  0.41002300  0.89931100  0.16569800  1
  O  O22  1  0.51071200  0.41002300  0.66569800  1
  O  O23  1  0.58997700  0.10068900  0.66569800  1
loop_
_geom_bond_atom_site_label_1
_geom_bond_atom_site_label_2
_geom_bond_distance
_geom_bond_site_symmetry_2
In0 O21 2.163995 1_555
In0 O18 2.163997 1_555
In0 O19 2.164003 1_555
In0 O4 2.181194 1_554
In0 O2 2.181199 1_554
In0 O5 2.181201 1_554
In1 O23 2.163995 1_555
In1 O20 2.163997 1_555
In1 O22 2.164003 1_555
In1 O1 2.181194 1_555
In1 O0 2.181199 1_555
In1 O3 2.181201 1_555
O0 P0 1.526436 1_555
O1 P1 1.526436 1_555
O2 P2 1.526436 1_555
O3 P3 1.526437 1_555
O4 P4 1.526436 1_555
O5 P5 1.526437 1_555
O6 P5 1.552851 1_555
O7 P2 1.552851 1_555
O8 P3 1.552851 1_556
O9 P4 1.552851 1_555
O10 P0 1.552851 1_556
O11 P1 1.552851 1_556
O12 P1 1.555012 1_455
O13 P3 1.555012 1_555
O14 P4 1.555012 1_655
O15 P0 1.555012 1_565
O16 P5 1.555012 1_555
O17 P2 1.555012 1_545
O18 P1 1.535443 1_455
O19 P3 1.535443 1_555
O20 P4 1.535443 1_655
O21 P0 1.535443 1_565
O22 P5 1.535443 1_555
O23 P2 1.535443 1_545
