# generated using pymatgen
data_V4O7
_symmetry_space_group_name_H-M   'P 1'
_cell_length_a   6.71820777
_cell_length_b   6.73456567
_cell_length_c   6.43496473
_cell_angle_alpha   68.53106728
_cell_angle_beta   87.67708476
_cell_angle_gamma   86.62510424
_symmetry_Int_Tables_number   1
_chemical_formula_structural   V4O7
_chemical_formula_sum   'V8 O14'
_cell_volume   270.41777113
_cell_formula_units_Z   2
loop_
 _symmetry_equiv_pos_site_id
 _symmetry_equiv_pos_as_xyz
  1  'x, y, z'
loop_
 _atom_site_type_symbol
 _atom_site_label
 _atom_site_symmetry_multiplicity
 _atom_site_fract_x
 _atom_site_fract_y
 _atom_site_fract_z
 _atom_site_occupancy
  V  V0  1  0.63861300  0.06228900  0.28872200  1
  V  V1  1  0.36138700  0.93771000  0.71127700  1
  V  V2  1  0.59997200  0.39078100  0.71444100  1
  V  V3  1  0.40002800  0.60921900  0.28555900  1
  V  V4  1  0.10295200  0.18419500  0.30309500  1
  V  V5  1  0.89704900  0.81580500  0.69690600  1
  V  V6  1  0.13720100  0.35713400  0.70313300  1
  V  V7  1  0.86279900  0.64286600  0.29686800  1
  O  O0  1  0.64790100  0.41715800  0.39439100  1
  O  O1  1  0.35210000  0.58284200  0.60561000  1
  O  O2  1  0.13487100  0.44786900  0.35648500  1
  O  O3  1  0.86513000  0.55213100  0.64351600  1
  O  O4  1  0.61347300  0.81801900  0.23263600  1
  O  O5  1  0.38652700  0.18198100  0.76736500  1
  O  O6  1  0.92290700  0.72406600  0.98363000  1
  O  O7  1  0.07709200  0.27593400  0.01637100  1
  O  O8  1  0.64808200  0.95647900  0.62249900  1
  O  O9  1  0.35191700  0.04352100  0.37750200  1
  O  O10  1  0.36397500  0.72378700  0.96613600  1
  O  O11  1  0.06601000  0.06875400  0.65012200  1
  O  O12  1  0.93399000  0.93124500  0.34987900  1
  O  O13  1  0.63602400  0.27621200  0.03386500  1
loop_
_geom_bond_atom_site_label_1
_geom_bond_atom_site_label_2
_geom_bond_distance
_geom_bond_site_symmetry_2
O0 V2 2.015441 1_555
O0 V3 2.028407 1_555
O0 V7 2.067703 1_555
O1 V3 2.015446 1_555
O1 V2 2.028401 1_555
O1 V6 2.067708 1_555
O2 V4 1.953103 1_555
O2 V6 2.086495 1_555
O2 V3 2.088382 1_555
O2 V7 2.148991 1_455
O3 V5 1.953103 1_555
O3 V7 2.086495 1_555
O3 V2 2.088388 1_555
O3 V6 2.148986 1_655
O4 V0 1.826809 1_565
O4 V7 1.958203 1_555
O4 V3 1.999215 1_555
O5 V1 1.826823 1_545
O5 V6 1.958203 1_555
O5 V2 1.999214 1_555
O6 V5 1.730624 1_555
O6 V7 1.917870 1_556
O7 V4 1.730625 1_555
O7 V6 1.917871 1_554
O8 V5 1.862988 1_555
O8 V1 1.984622 1_555
O8 V0 2.002614 1_565
O9 V4 1.862976 1_555
O9 V0 1.984631 1_555
O9 V1 2.002602 1_545
O10 V1 1.742225 1_555
O10 V3 1.932983 1_556
O11 V5 2.026229 1_445
O11 V4 2.088000 1_555
O11 V1 2.115293 1_545
O11 V6 2.173581 1_555
O12 V4 2.026238 1_665
O12 V5 2.088000 1_555
O12 V0 2.115294 1_565
O12 V7 2.173575 1_555
O13 V0 1.742217 1_555
O13 V2 1.932988 1_554
