# generated using pymatgen
data_Sm3CrSe6
_symmetry_space_group_name_H-M   'P 1'
_cell_length_a   4.00470018
_cell_length_b   14.14253683
_cell_length_c   16.92718365
_cell_angle_alpha   90.00000000
_cell_angle_beta   90.00000000
_cell_angle_gamma   90.00000000
_symmetry_Int_Tables_number   1
_chemical_formula_structural   Sm3CrSe6
_chemical_formula_sum   'Sm12 Cr4 Se24'
_cell_volume   958.69846448
_cell_formula_units_Z   4
loop_
 _symmetry_equiv_pos_site_id
 _symmetry_equiv_pos_as_xyz
  1  'x, y, z'
loop_
 _atom_site_type_symbol
 _atom_site_label
 _atom_site_symmetry_multiplicity
 _atom_site_fract_x
 _atom_site_fract_y
 _atom_site_fract_z
 _atom_site_occupancy
  Sm  Sm0  1  0.50000000  0.74169221  0.59593905  1
  Sm  Sm1  1  0.50000000  0.25830779  0.40406095  1
  Sm  Sm2  1  -0.00000000  0.24169221  0.90406095  1
  Sm  Sm3  1  -0.00000000  0.75830779  0.09593905  1
  Sm  Sm4  1  0.50000000  0.94775964  0.77901390  1
  Sm  Sm5  1  0.50000000  0.05224036  0.22098610  1
  Sm  Sm6  1  -0.00000000  0.44775964  0.72098610  1
  Sm  Sm7  1  0.00000000  0.55224036  0.27901390  1
  Sm  Sm8  1  0.50000000  0.17966118  0.64837249  1
  Sm  Sm9  1  0.50000000  0.82033882  0.35162751  1
  Sm  Sm10  1  0.00000000  0.67966118  0.85162751  1
  Sm  Sm11  1  -0.00000000  0.32033882  0.14837249  1
  Cr  Cr0  1  0.50000000  0.50000000  0.50000000  1
  Cr  Cr1  1  0.00000000  0.00000000  -0.00000000  1
  Cr  Cr2  1  0.50000000  0.50000000  -0.00000000  1
  Cr  Cr3  1  0.00000000  0.00000000  0.50000000  1
  Se  Se0  1  0.50000000  0.97656057  0.59698629  1
  Se  Se1  1  0.50000000  0.02343943  0.40301371  1
  Se  Se2  1  0.00000000  0.47656057  0.90301371  1
  Se  Se3  1  -0.00000000  0.52343943  0.09698629  1
  Se  Se4  1  0.50000000  0.08018965  0.92460206  1
  Se  Se5  1  0.50000000  0.91981035  0.07539794  1
  Se  Se6  1  -0.00000000  0.58018965  0.57539794  1
  Se  Se7  1  0.00000000  0.41981035  0.42460206  1
  Se  Se8  1  -0.00000000  0.10184132  0.75515985  1
  Se  Se9  1  -0.00000000  0.89815868  0.24484015  1
  Se  Se10  1  0.50000000  0.60184132  0.74484015  1
  Se  Se11  1  0.50000000  0.39815868  0.25515985  1
  Se  Se12  1  -0.00000000  0.12173693  0.10621681  1
  Se  Se13  1  0.00000000  0.87826307  0.89378319  1
  Se  Se14  1  0.50000000  0.62173693  0.39378319  1
  Se  Se15  1  0.50000000  0.37826307  0.60621681  1
  Se  Se16  1  -0.00000000  0.19023908  0.28998085  1
  Se  Se17  1  0.00000000  0.80976092  0.71001915  1
  Se  Se18  1  0.50000000  0.69023908  0.21001915  1
  Se  Se19  1  0.50000000  0.30976092  0.78998085  1
  Se  Se20  1  -0.00000000  0.17890459  0.52047138  1
  Se  Se21  1  0.00000000  0.82109541  0.47952862  1
  Se  Se22  1  0.50000000  0.67890459  0.97952862  1
  Se  Se23  1  0.50000000  0.32109541  0.02047138  1
loop_
_geom_bond_atom_site_label_1
_geom_bond_atom_site_label_2
_geom_bond_distance
_geom_bond_site_symmetry_2
Cr0 Se14 2.489332 1_555
Cr0 Se15 2.489332 1_555
Cr0 Se6 2.631432 1_655
Cr0 Se7 2.631432 1_655
Cr0 Se6 2.631432 1_555
Cr0 Se7 2.631432 1_555
Cr1 Se13 2.489332 1_544
Cr1 Se12 2.489332 1_555
Cr1 Se5 2.631432 1_545
Cr1 Se5 2.631432 1_445
Cr1 Se4 2.631432 1_554
Cr1 Se4 2.631432 1_454
Cr2 Se23 2.553784 1_555
Cr2 Se22 2.553784 1_554
Cr2 Se3 2.610457 1_555
Cr2 Se2 2.610457 1_554
Cr2 Se3 2.610457 1_655
Cr2 Se2 2.610457 1_654
Cr3 Se20 2.553784 1_555
Cr3 Se21 2.553784 1_545
Cr3 Se1 2.610457 1_555
Cr3 Se1 2.610457 1_455
Cr3 Se0 2.610457 1_445
Cr3 Se0 2.610457 1_545
Se0 Sm8 3.001172 1_565
Se0 Sm4 3.108021 1_555
Se0 Sm0 3.321682 1_555
Se1 Sm9 3.001172 1_545
Se1 Sm5 3.108021 1_555
Se1 Sm1 3.321682 1_555
Se2 Sm10 3.001172 1_555
Se2 Sm6 3.108021 1_555
Se2 Sm2 3.321682 1_555
Se3 Sm11 3.001172 1_555
Se3 Sm7 3.108021 1_555
Se3 Sm3 3.321682 1_555
Se4 Sm2 3.057321 1_655
Se4 Sm2 3.057321 1_555
Se4 Sm4 3.095318 1_545
Se5 Sm3 3.057321 1_655
Se5 Sm3 3.057321 1_555
Se5 Sm5 3.095318 1_565
Se6 Sm0 3.057321 1_555
Se6 Sm0 3.057321 1_455
Se6 Sm6 3.095318 1_555
Se7 Sm1 3.057321 1_555
Se7 Sm1 3.057321 1_455
Se7 Sm7 3.095318 1_555
Se8 Sm8 2.913436 1_555
Se8 Sm8 2.913436 1_455
Se8 Sm4 2.986796 1_545
Se8 Sm4 2.986796 1_445
Se8 Sm2 3.203853 1_555
Se9 Sm9 2.913436 1_455
Se9 Sm9 2.913436 1_555
Se9 Sm5 2.986796 1_465
Se9 Sm5 2.986796 1_565
Se9 Sm3 3.203853 1_555
Se10 Sm10 2.913436 1_555
Se10 Sm10 2.913436 1_655
Se10 Sm6 2.986796 1_555
Se10 Sm6 2.986796 1_655
Se10 Sm0 3.203853 1_555
Se11 Sm11 2.913436 1_555
Se11 Sm11 2.913436 1_655
Se11 Sm7 2.986796 1_555
Se11 Sm7 2.986796 1_655
Se11 Sm1 3.203853 1_555
Se12 Sm11 2.897962 1_555
Se12 Sm5 2.957969 1_555
Se12 Sm5 2.957969 1_455
Se13 Sm10 2.897962 1_555
Se13 Sm4 2.957969 1_555
Se13 Sm4 2.957969 1_455
Se14 Sm9 2.897962 1_555
Se14 Sm7 2.957969 1_555
Se14 Sm7 2.957969 1_655
Se15 Sm8 2.897962 1_555
Se15 Sm6 2.957969 1_555
Se15 Sm6 2.957969 1_655
Se16 Sm1 2.943654 1_555
Se16 Sm1 2.943654 1_455
Se16 Sm11 3.021777 1_555
Se16 Sm5 3.030233 1_555
Se16 Sm5 3.030233 1_455
Se17 Sm0 2.943654 1_455
Se17 Sm0 2.943654 1_555
Se17 Sm10 3.021777 1_555
Se17 Sm4 3.030233 1_455
Se17 Sm4 3.030233 1_555
Se18 Sm3 2.943654 1_555
Se18 Sm3 2.943654 1_655
Se18 Sm9 3.021777 1_555
Se18 Sm7 3.030233 1_555
Se18 Sm7 3.030233 1_655
Se19 Sm2 2.943654 1_555
Se19 Sm2 2.943654 1_655
Se19 Sm8 3.021777 1_555
Se19 Sm6 3.030233 1_555
Se19 Sm6 3.030233 1_655
Se20 Sm8 2.949029 1_455
Se20 Sm8 2.949029 1_555
Se20 Sm1 3.025446 1_555
Se20 Sm1 3.025446 1_455
Se21 Sm9 2.949029 1_455
Se21 Sm9 2.949029 1_555
Se21 Sm0 3.025446 1_455
Se21 Sm0 3.025446 1_555
Se22 Sm10 2.949029 1_555
Se22 Sm10 2.949029 1_655
Se22 Sm3 3.025446 1_556
Se22 Sm3 3.025446 1_656
Se23 Sm11 2.949029 1_555
Se23 Sm11 2.949029 1_655
Se23 Sm2 3.025446 1_554
Se23 Sm2 3.025446 1_654
