# generated using pymatgen
data_Ca2AlP2O9
_symmetry_space_group_name_H-M   'P 1'
_cell_length_a   5.67060900
_cell_length_b   7.65118000
_cell_length_c   8.31557880
_cell_angle_alpha   66.96853217
_cell_angle_beta   90.00000000
_cell_angle_gamma   90.00000000
_symmetry_Int_Tables_number   1
_chemical_formula_structural   Ca2AlP2O9
_chemical_formula_sum   'Ca4 Al2 P4 O18'
_cell_volume   332.02850069
_cell_formula_units_Z   2
loop_
 _symmetry_equiv_pos_site_id
 _symmetry_equiv_pos_as_xyz
  1  'x, y, z'
loop_
 _atom_site_type_symbol
 _atom_site_label
 _atom_site_symmetry_multiplicity
 _atom_site_fract_x
 _atom_site_fract_y
 _atom_site_fract_z
 _atom_site_occupancy
  Ca  Ca0  1  0.75000000  0.79477100  0.24696800  1
  Ca  Ca1  1  0.25000000  0.20522900  0.75303200  1
  Ca  Ca2  1  0.75000000  0.17729800  0.41404000  1
  Ca  Ca3  1  0.25000000  0.82270200  0.58596000  1
  Al  Al0  1  0.50000000  0.50000000  0.00000000  1
  Al  Al1  1  0.00000000  0.50000000  0.00000000  1
  P  P0  1  0.25000000  0.07722700  0.18390000  1
  P  P1  1  0.75000000  0.92277300  0.81610000  1
  P  P2  1  0.25000000  0.49985400  0.33266100  1
  P  P3  1  0.75000000  0.50014600  0.66733900  1
  O  O0  1  0.52651500  0.44648400  0.79165100  1
  O  O1  1  0.02651500  0.55351600  0.20834900  1
  O  O2  1  0.47348500  0.55351600  0.20834900  1
  O  O3  1  0.97348500  0.44648400  0.79165100  1
  O  O4  1  0.25000000  0.28653800  0.44650400  1
  O  O5  1  0.75000000  0.71346200  0.55349600  1
  O  O6  1  0.25000000  0.61957500  0.44156900  1
  O  O7  1  0.75000000  0.38042500  0.55843100  1
  O  O8  1  0.02935800  0.01276300  0.30363400  1
  O  O9  1  0.52935800  0.98723700  0.69636600  1
  O  O10  1  0.97064200  0.98723700  0.69636600  1
  O  O11  1  0.47064200  0.01276300  0.30363400  1
  O  O12  1  0.25000000  0.99485400  0.04361500  1
  O  O13  1  0.75000000  0.00514600  0.95638500  1
  O  O14  1  0.25000000  0.30386200  0.08676400  1
  O  O15  1  0.75000000  0.69613800  0.91323600  1
  O  O16  1  0.25000000  0.65020000  0.89194500  1
  O  O17  1  0.75000000  0.34980000  0.10805500  1
loop_
_geom_bond_atom_site_label_1
_geom_bond_atom_site_label_2
_geom_bond_distance
_geom_bond_site_symmetry_2
Ca0 O13 2.320845 1_564
Ca0 O5 2.375587 1_555
Ca0 O8 2.475551 1_665
Ca0 O11 2.475551 1_565
Ca0 O1 2.536319 1_655
Ca0 O2 2.536319 1_555
Ca1 O12 2.320845 1_546
Ca1 O4 2.375587 1_555
Ca1 O10 2.475551 1_445
Ca1 O9 2.475551 1_545
Ca1 O0 2.536319 1_555
Ca1 O3 2.536319 1_455
Ca2 O7 2.305914 1_555
Ca2 O17 2.363984 1_555
Ca2 O11 2.416922 1_555
Ca2 O8 2.416922 1_655
Ca2 O9 2.553518 1_545
Ca2 O10 2.553518 1_545
Ca3 O6 2.305914 1_555
Ca3 O16 2.363984 1_555
Ca3 O10 2.416922 1_455
Ca3 O9 2.416922 1_555
Ca3 O11 2.553518 1_565
Ca3 O8 2.553518 1_565
Al0 O17 1.824774 1_555
Al0 O16 1.824774 1_554
Al0 O2 1.935733 1_555
Al0 O0 1.935733 1_554
Al0 O15 1.983719 1_554
Al0 O14 1.983719 1_555
Al1 O16 1.824774 1_554
Al1 O17 1.824774 1_455
Al1 O1 1.935733 1_555
Al1 O3 1.935733 1_454
Al1 O15 1.983719 1_454
Al1 O14 1.983719 1_555
O0 P3 1.584646 1_555
O1 P2 1.584646 1_555
O2 P2 1.584646 1_555
O3 P3 1.584646 1_555
O4 P2 1.533302 1_555
O5 P3 1.533302 1_555
O6 P2 1.519327 1_555
O7 P3 1.519327 1_555
O8 P0 1.554279 1_555
O9 P1 1.554279 1_555
O10 P1 1.554279 1_555
O11 P0 1.554279 1_555
O12 P0 1.527530 1_565
O13 P1 1.527530 1_545
O14 P0 1.601038 1_555
O15 P1 1.601038 1_555
