# generated using pymatgen
data_Ba4Li(BiO4)3
_symmetry_space_group_name_H-M   'P 1'
_cell_length_a   7.48040181
_cell_length_b   7.48040181
_cell_length_c   7.48040181
_cell_angle_alpha   109.47122063
_cell_angle_beta   109.47122063
_cell_angle_gamma   109.47122063
_symmetry_Int_Tables_number   1
_chemical_formula_structural   Ba4Li(BiO4)3
_chemical_formula_sum   'Ba4 Li1 Bi3 O12'
_cell_volume   322.22029398
_cell_formula_units_Z   1
loop_
 _symmetry_equiv_pos_site_id
 _symmetry_equiv_pos_as_xyz
  1  'x, y, z'
loop_
 _atom_site_type_symbol
 _atom_site_label
 _atom_site_symmetry_multiplicity
 _atom_site_fract_x
 _atom_site_fract_y
 _atom_site_fract_z
 _atom_site_occupancy
  Ba  Ba0  1  0.50000000  0.50000000  0.50000000  1
  Ba  Ba1  1  0.00000000  0.00000000  0.50000000  1
  Ba  Ba2  1  0.00000000  0.50000000  0.00000000  1
  Ba  Ba3  1  0.50000000  0.00000000  0.00000000  1
  Li  Li0  1  0.00000000  0.00000000  0.00000000  1
  Bi  Bi0  1  0.00000000  0.50000000  0.50000000  1
  Bi  Bi1  1  0.50000000  0.00000000  0.50000000  1
  Bi  Bi2  1  0.50000000  0.50000000  0.00000000  1
  O  O0  1  0.00000000  0.26114500  0.26114500  1
  O  O1  1  0.00000000  0.73885500  0.73885500  1
  O  O2  1  0.26114500  0.00000000  0.26114500  1
  O  O3  1  0.73885500  0.00000000  0.73885500  1
  O  O4  1  0.26114500  0.26114500  0.00000000  1
  O  O5  1  0.73885500  0.73885500  0.00000000  1
  O  O6  1  0.50000000  0.75000000  0.25000000  1
  O  O7  1  0.50000000  0.25000000  0.75000000  1
  O  O8  1  0.25000000  0.50000000  0.75000000  1
  O  O9  1  0.75000000  0.50000000  0.25000000  1
  O  O10  1  0.75000000  0.25000000  0.50000000  1
  O  O11  1  0.25000000  0.75000000  0.50000000  1
loop_
_geom_bond_atom_site_label_1
_geom_bond_atom_site_label_2
_geom_bond_distance
_geom_bond_site_symmetry_2
Ba0 O7 3.053861 1_555
Ba0 O8 3.053861 1_555
Ba0 O11 3.053861 1_555
Ba0 O10 3.053861 1_555
Ba0 O6 3.053861 1_555
Ba0 O9 3.053861 1_555
Ba0 O3 3.055378 1_565
Ba0 O4 3.055378 1_555
Ba0 O1 3.055378 1_655
Ba0 O5 3.055378 1_556
Ba0 O2 3.055378 1_555
Ba0 O0 3.055378 1_555
Ba1 O9 3.053861 1_445
Ba1 O6 3.053861 1_445
Ba1 O7 3.053861 1_555
Ba1 O8 3.053861 1_555
Ba1 O11 3.053861 1_545
Ba1 O10 3.053861 1_455
Ba1 O4 3.055378 1_556
Ba1 O2 3.055378 1_555
Ba1 O3 3.055378 1_455
Ba1 O1 3.055378 1_545
Ba1 O0 3.055378 1_555
Ba1 O5 3.055378 1_445
Ba2 O7 3.053861 1_454
Ba2 O6 3.053861 1_555
Ba2 O9 3.053861 1_455
Ba2 O8 3.053861 1_554
Ba2 O11 3.053861 1_555
Ba2 O10 3.053861 1_454
Ba2 O3 3.055378 1_454
Ba2 O4 3.055378 1_555
Ba2 O1 3.055378 1_554
Ba2 O0 3.055378 1_555
Ba2 O5 3.055378 1_455
Ba2 O2 3.055378 1_565
Ba3 O8 3.053861 1_544
Ba3 O9 3.053861 1_555
Ba3 O7 3.053861 1_554
Ba3 O6 3.053861 1_545
Ba3 O10 3.053861 1_555
Ba3 O11 3.053861 1_544
Ba3 O4 3.055378 1_555
Ba3 O2 3.055378 1_555
Ba3 O1 3.055378 1_544
Ba3 O3 3.055378 1_554
Ba3 O5 3.055378 1_545
Ba3 O0 3.055378 1_655
Li0 O3 2.255672 1_454
Li0 O1 2.255672 1_544
Li0 O5 2.255672 1_445
Li0 O0 2.255672 1_555
Li0 O4 2.255672 1_555
Li0 O2 2.255672 1_555
Bi0 O0 2.063140 1_555
Bi0 O1 2.063140 1_555
Bi0 O9 2.159406 1_455
Bi0 O8 2.159406 1_555
Bi0 O11 2.159406 1_555
Bi0 O10 2.159406 1_455
Bi1 O2 2.063140 1_555
Bi1 O3 2.063140 1_555
Bi1 O11 2.159406 1_545
Bi1 O7 2.159406 1_555
Bi1 O6 2.159406 1_545
Bi1 O10 2.159406 1_555
Bi2 O4 2.063140 1_555
Bi2 O5 2.063140 1_555
Bi2 O6 2.159406 1_555
Bi2 O9 2.159406 1_555
Bi2 O7 2.159406 1_554
Bi2 O8 2.159406 1_554
