# generated using pymatgen
data_Na4XeO12
_symmetry_space_group_name_H-M   'P 1'
_cell_length_a   7.15282421
_cell_length_b   11.61481698
_cell_length_c   14.47930985
_cell_angle_alpha   90.00000000
_cell_angle_beta   90.00000000
_cell_angle_gamma   90.00000000
_symmetry_Int_Tables_number   1
_chemical_formula_structural   Na4XeO12
_chemical_formula_sum   'Na16 Xe4 O48'
_cell_volume   1202.92287762
_cell_formula_units_Z   4
loop_
 _symmetry_equiv_pos_site_id
 _symmetry_equiv_pos_as_xyz
  1  'x, y, z'
loop_
 _atom_site_type_symbol
 _atom_site_label
 _atom_site_symmetry_multiplicity
 _atom_site_fract_x
 _atom_site_fract_y
 _atom_site_fract_z
 _atom_site_occupancy
  Na  Na0  1  0.87840032  0.81514509  0.52934437  1
  Na  Na1  1  0.12159968  0.68485491  0.02934437  1
  Na  Na2  1  0.62159968  0.31514509  0.47065563  1
  Na  Na3  1  0.37840032  0.18485491  0.97065563  1
  Na  Na4  1  0.12159968  0.18485491  0.47065563  1
  Na  Na5  1  0.87840032  0.31514509  0.97065563  1
  Na  Na6  1  0.37840032  0.68485491  0.52934437  1
  Na  Na7  1  0.62159968  0.81514509  0.02934437  1
  Na  Na8  1  0.94462287  0.89323536  0.21295956  1
  Na  Na9  1  0.05537713  0.60676464  0.71295956  1
  Na  Na10  1  0.55537713  0.39323536  0.78704044  1
  Na  Na11  1  0.44462287  0.10676464  0.28704044  1
  Na  Na12  1  0.05537713  0.10676464  0.78704044  1
  Na  Na13  1  0.94462287  0.39323536  0.28704044  1
  Na  Na14  1  0.44462287  0.60676464  0.21295956  1
  Na  Na15  1  0.55537713  0.89323536  0.71295956  1
  Xe  Xe0  1  0.50000000  -0.00000000  0.50000000  1
  Xe  Xe1  1  0.50000000  0.50000000  0.00000000  1
  Xe  Xe2  1  0.00000000  0.50000000  0.50000000  1
  Xe  Xe3  1  0.00000000  -0.00000000  0.00000000  1
  O  O0  1  0.77765070  0.01804367  0.31894788  1
  O  O1  1  0.22234930  0.48195633  0.81894788  1
  O  O2  1  0.72234930  0.51804367  0.68105212  1
  O  O3  1  0.27765070  0.98195633  0.18105212  1
  O  O4  1  0.22234930  0.98195633  0.68105212  1
  O  O5  1  0.77765070  0.51804367  0.18105212  1
  O  O6  1  0.27765070  0.48195633  0.31894788  1
  O  O7  1  0.72234930  0.01804367  0.81894788  1
  O  O8  1  0.25126573  0.79039964  0.38129925  1
  O  O9  1  0.74873427  0.70960036  0.88129925  1
  O  O10  1  0.24873427  0.29039964  0.61870075  1
  O  O11  1  0.75126573  0.20960036  0.11870075  1
  O  O12  1  0.74873427  0.20960036  0.61870075  1
  O  O13  1  0.25126573  0.29039964  0.11870075  1
  O  O14  1  0.75126573  0.70960036  0.38129925  1
  O  O15  1  0.24873427  0.79039964  0.88129925  1
  O  O16  1  0.56855668  0.83390283  0.55944594  1
  O  O17  1  0.43144332  0.66609717  0.05944594  1
  O  O18  1  0.93144332  0.33390283  0.44055406  1
  O  O19  1  0.06855668  0.16609717  0.94055406  1
  O  O20  1  0.43144332  0.16609717  0.44055406  1
  O  O21  1  0.56855668  0.33390283  0.94055406  1
  O  O22  1  0.06855668  0.66609717  0.55944594  1
  O  O23  1  0.93144332  0.83390283  0.05944594  1
  O  O24  1  0.66308154  0.74795788  0.31285898  1
  O  O25  1  0.33691846  0.75204212  0.81285898  1
  O  O26  1  0.83691846  0.24795788  0.68714102  1
  O  O27  1  0.16308154  0.25204212  0.18714102  1
  O  O28  1  0.33691846  0.25204212  0.68714102  1
  O  O29  1  0.66308154  0.24795788  0.18714102  1
  O  O30  1  0.16308154  0.75204212  0.31285898  1
  O  O31  1  0.83691846  0.74795788  0.81285898  1
  O  O32  1  0.42265890  0.90965450  0.16294308  1
  O  O33  1  0.57734110  0.59034550  0.66294308  1
  O  O34  1  0.07734110  0.40965450  0.83705692  1
  O  O35  1  0.92265890  0.09034550  0.33705692  1
  O  O36  1  0.57734110  0.09034550  0.83705692  1
  O  O37  1  0.42265890  0.40965450  0.33705692  1
  O  O38  1  0.92265890  0.59034550  0.16294308  1
  O  O39  1  0.07734110  0.90965450  0.66294308  1
  O  O40  1  0.58884155  0.46567074  0.34984824  1
  O  O41  1  0.41115845  0.03432926  0.84984824  1
  O  O42  1  0.91115845  0.96567074  0.65015176  1
  O  O43  1  0.08884155  0.53432926  0.15015176  1
  O  O44  1  0.41115845  0.53432926  0.65015176  1
  O  O45  1  0.58884155  0.96567074  0.15015176  1
  O  O46  1  0.08884155  0.03432926  0.34984824  1
  O  O47  1  0.91115845  0.46567074  0.84984824  1
loop_
_geom_bond_atom_site_label_1
_geom_bond_atom_site_label_2
_geom_bond_distance
_geom_bond_site_symmetry_2
Na0 O22 2.244308 1_655
Na0 O16 2.269191 1_555
Na0 O42 2.484206 1_555
Na0 O14 2.631488 1_555
Na0 O39 2.640423 1_655
Na1 O23 2.244308 1_455
Na1 O17 2.269191 1_555
Na1 O43 2.484206 1_555
Na1 O15 2.631488 1_554
Na1 O38 2.640423 1_455
Na2 O20 2.244308 1_555
Na2 O18 2.269191 1_555
Na2 O40 2.484206 1_555
Na2 O12 2.631488 1_555
Na2 O37 2.640423 1_555
Na3 O21 2.244308 1_555
Na3 O19 2.269191 1_555
Na3 O41 2.484206 1_555
Na3 O13 2.631488 1_556
Na3 O36 2.640423 1_555
Na4 O18 2.244308 1_455
Na4 O20 2.269191 1_555
Na4 O46 2.484206 1_555
Na4 O10 2.631488 1_555
Na4 O35 2.640423 1_455
Na5 O19 2.244308 1_655
Na5 O21 2.269191 1_555
Na5 O47 2.484206 1_555
Na5 O11 2.631488 1_556
Na5 O34 2.640423 1_655
Na6 O16 2.244308 1_555
Na6 O22 2.269191 1_555
Na6 O44 2.484206 1_555
Na6 O8 2.631488 1_555
Na6 O33 2.640423 1_555
Na7 O17 2.244308 1_555
Na7 O23 2.269191 1_555
Na7 O45 2.484206 1_555
Na7 O9 2.631488 1_554
Na7 O32 2.640423 1_555
Na8 O23 2.329057 1_555
Na8 O0 2.425476 1_565
Na8 O3 2.636224 1_655
Na8 O30 2.687634 1_655
Na8 O46 2.770970 1_665
Na8 O45 2.830384 1_555
Na8 O24 2.999161 1_555
Na9 O22 2.329057 1_555
Na9 O1 2.425476 1_555
Na9 O2 2.636224 1_455
Na9 O31 2.687634 1_455
Na9 O47 2.770970 1_455
Na9 O44 2.830384 1_555
Na9 O25 2.999161 1_555
Na10 O21 2.329057 1_555
Na10 O2 2.425476 1_555
Na10 O1 2.636224 1_555
Na10 O28 2.687634 1_555
Na10 O44 2.770970 1_555
Na10 O47 2.830384 1_555
Na10 O26 2.999161 1_555
Na11 O20 2.329057 1_555
Na11 O3 2.425476 1_545
Na11 O0 2.636224 1_555
Na11 O29 2.687634 1_555
Na11 O45 2.770970 1_545
Na11 O46 2.830384 1_555
Na11 O27 2.999161 1_555
Na12 O19 2.329057 1_555
Na12 O4 2.425476 1_545
Na12 O7 2.636224 1_455
Na12 O26 2.687634 1_455
Na12 O42 2.770970 1_445
Na12 O41 2.830384 1_555
Na12 O28 2.999161 1_555
Na13 O18 2.329057 1_555
Na13 O5 2.425476 1_555
Na13 O6 2.636224 1_655
Na13 O27 2.687634 1_655
Na13 O43 2.770970 1_655
Na13 O40 2.830384 1_555
Na13 O29 2.999161 1_555
Na14 O17 2.329057 1_555
Na14 O6 2.425476 1_555
Na14 O5 2.636224 1_555
Na14 O24 2.687634 1_555
Na14 O40 2.770970 1_555
Na14 O43 2.830384 1_555
Na14 O30 2.999161 1_555
Na15 O16 2.329057 1_555
Na15 O7 2.425476 1_565
Na15 O4 2.636224 1_555
Na15 O25 2.687634 1_555
Na15 O41 2.770970 1_565
Na15 O42 2.830384 1_555
Na15 O31 2.999161 1_555
O0 O35 1.360070 1_555
O1 O34 1.360070 1_555
O2 O33 1.360070 1_555
O3 O32 1.360070 1_555
O10 O28 1.256331 1_555
O11 O29 1.256331 1_555
O12 O26 1.256331 1_555
O13 O27 1.256331 1_555
O14 O24 1.256331 1_555
O15 O25 1.256331 1_555
O16 Xe0 2.168663 1_565
O17 Xe1 2.168663 1_555
O18 Xe2 2.168663 1_655
O19 Xe3 2.168663 1_556
O20 Xe0 2.168663 1_555
O21 Xe1 2.168663 1_556
O22 Xe2 2.168663 1_555
O23 Xe3 2.168663 1_665
O30 O8 1.256331 1_555
O31 O9 1.256331 1_555
O32 O45 1.367683 1_555
O33 O44 1.367683 1_555
O34 O47 1.367683 1_455
O35 O46 1.367683 1_655
O36 O7 1.360070 1_555
O36 O41 1.367683 1_555
O37 O6 1.360070 1_555
O37 O40 1.367683 1_555
O38 O5 1.360070 1_555
O38 O43 1.367683 1_655
O39 O4 1.360070 1_555
O39 O42 1.367683 1_455
