# generated using pymatgen
data_HfV2
_symmetry_space_group_name_H-M   'P 1'
_cell_length_a   5.16869293
_cell_length_b   5.16869293
_cell_length_c   5.16869293
_cell_angle_alpha   120.57584631
_cell_angle_beta   118.82263327
_cell_angle_gamma   90.52837115
_symmetry_Int_Tables_number   1
_chemical_formula_structural   HfV2
_chemical_formula_sum   'Hf2 V4'
_cell_volume   98.05084860
_cell_formula_units_Z   2
loop_
 _symmetry_equiv_pos_site_id
 _symmetry_equiv_pos_as_xyz
  1  'x, y, z'
loop_
 _atom_site_type_symbol
 _atom_site_label
 _atom_site_symmetry_multiplicity
 _atom_site_fract_x
 _atom_site_fract_y
 _atom_site_fract_z
 _atom_site_occupancy
  Hf  Hf0  1  0.87452400  0.62452400  0.25000000  1
  Hf  Hf1  1  0.12547600  0.37547600  0.75000000  1
  V  V0  1  0.00000000  0.00000000  0.00000000  1
  V  V1  1  0.50000000  0.00000000  0.50000000  1
  V  V2  1  0.50000000  0.50000000  0.50000000  1
  V  V3  1  0.50000000  0.00000000  0.00000000  1
loop_
_geom_bond_atom_site_label_1
_geom_bond_atom_site_label_2
_geom_bond_distance
_geom_bond_site_symmetry_2
Hf0 V2 3.011023 1_555
Hf0 V3 3.011023 1_555
Hf0 V1 3.018821 1_554
Hf0 V0 3.018821 1_666
Hf0 V0 3.018821 1_655
Hf0 V1 3.018821 1_565
Hf0 V0 3.031965 1_665
Hf0 V1 3.031965 1_665
Hf0 V3 3.064662 1_565
Hf0 V2 3.064662 1_655
Hf0 V2 3.064662 1_554
Hf0 V3 3.064662 1_666
Hf0 Hf1 3.145917 1_665
Hf0 Hf1 3.145917 1_654
Hf0 Hf1 3.193968 1_554
Hf0 Hf1 3.193968 1_655
Hf1 V2 3.011023 1_555
Hf1 V3 3.011023 1_566
Hf1 V1 3.018821 1_555
Hf1 V0 3.018821 1_555
Hf1 V1 3.018821 1_566
Hf1 V0 3.018821 1_566
Hf1 V1 3.031965 1_455
Hf1 V0 3.031965 1_556
Hf1 V3 3.064662 1_455
Hf1 V2 3.064662 1_455
Hf1 V3 3.064662 1_556
Hf1 V2 3.064662 1_556
V0 V2 2.584346 1_444
V0 V2 2.584346 1_555
V0 V3 2.584346 1_555
V0 V3 2.584346 1_455
V0 V1 2.630200 1_454
V0 V1 2.630200 1_555
V1 V2 2.584346 1_545
V1 V2 2.584346 1_555
V1 V3 2.584346 1_555
V1 V3 2.584346 1_556
V2 V3 2.561820 1_566
V2 V3 2.561820 1_555
