# generated using pymatgen
data_Sc2(NbSi)3
_symmetry_space_group_name_H-M   'P 1'
_cell_length_a   7.77010621
_cell_length_b   7.77010621
_cell_length_c   5.37687600
_cell_angle_alpha   90.00000000
_cell_angle_beta   90.00000000
_cell_angle_gamma   120.43927963
_symmetry_Int_Tables_number   1
_chemical_formula_structural   Sc2(NbSi)3
_chemical_formula_sum   'Sc4 Nb6 Si6'
_cell_volume   279.88208544
_cell_formula_units_Z   2
loop_
 _symmetry_equiv_pos_site_id
 _symmetry_equiv_pos_as_xyz
  1  'x, y, z'
loop_
 _atom_site_type_symbol
 _atom_site_label
 _atom_site_symmetry_multiplicity
 _atom_site_fract_x
 _atom_site_fract_y
 _atom_site_fract_z
 _atom_site_occupancy
  Sc  Sc0  1  0.75407700  0.75407700  0.50000000  1
  Sc  Sc1  1  0.25116800  0.99992300  0.50000000  1
  Sc  Sc2  1  0.99992300  0.25116800  0.50000000  1
  Sc  Sc3  1  0.25138200  0.25138200  0.00000000  1
  Nb  Nb0  1  0.73639500  0.00003100  0.00000000  1
  Nb  Nb1  1  0.00003100  0.73639500  0.00000000  1
  Nb  Nb2  1  0.66742900  0.33403200  0.25100100  1
  Nb  Nb3  1  0.33403200  0.66742900  0.25100100  1
  Nb  Nb4  1  0.33403200  0.66742900  0.74899900  1
  Nb  Nb5  1  0.66742900  0.33403200  0.74899900  1
  Si  Si0  1  0.39578800  0.39578800  0.50000000  1
  Si  Si1  1  0.60585600  0.99984800  0.50000000  1
  Si  Si2  1  0.99984800  0.60585600  0.50000000  1
  Si  Si3  1  0.61231400  0.61231400  0.00000000  1
  Si  Si4  1  0.39084800  0.99944200  0.00000000  1
  Si  Si5  1  0.99944200  0.39084800  0.00000000  1
loop_
_geom_bond_atom_site_label_1
_geom_bond_atom_site_label_2
_geom_bond_distance
_geom_bond_site_symmetry_2
Sc0 Si2 2.683601 1_555
Sc0 Si1 2.683601 1_555
Sc0 Si0 2.765439 1_555
Sc0 Si3 2.902577 1_555
Sc0 Si3 2.902577 1_556
Sc1 Si2 2.670266 1_455
Sc1 Si0 2.687328 1_565
Sc1 Si1 2.756259 1_555
Sc1 Si4 2.899959 1_556
Sc1 Si4 2.899959 1_555
Sc2 Si1 2.670266 1_545
Sc2 Si0 2.687328 1_655
Sc2 Si2 2.756259 1_555
Sc2 Si5 2.899959 1_555
Sc2 Si5 2.899959 1_556
Sc3 Si4 2.675075 1_545
Sc3 Si5 2.675075 1_455
Sc3 Si3 2.785838 1_555
Sc3 Si0 2.910329 1_554
Sc3 Si0 2.910329 1_555
Nb0 Si3 2.657499 1_545
Nb0 Si5 2.666474 1_555
Nb0 Si4 2.682621 1_545
Nb0 Si1 2.873160 1_544
Nb0 Si1 2.873160 1_545
Nb1 Si3 2.657499 1_455
Nb1 Si4 2.666474 1_555
Nb1 Si5 2.682621 1_455
Nb1 Si2 2.873160 1_455
Nb1 Si2 2.873160 1_454
Nb2 Si2 2.719796 1_555
Nb2 Si0 2.739332 1_555
Nb2 Si1 2.739557 1_545
Nb2 Si5 2.741822 1_555
Nb2 Si4 2.745486 1_545
Nb2 Si3 2.760171 1_555
Nb3 Si1 2.719796 1_555
Nb3 Si0 2.739332 1_555
Nb3 Si2 2.739557 1_455
Nb3 Si4 2.741822 1_555
Nb3 Si5 2.745486 1_455
Nb3 Si3 2.760171 1_555
Nb4 Si1 2.719796 1_555
Nb4 Si0 2.739332 1_555
Nb4 Si2 2.739557 1_455
Nb4 Si4 2.741822 1_556
Nb4 Si5 2.745486 1_456
Nb4 Si3 2.760171 1_556
Nb5 Si2 2.719796 1_555
Nb5 Si0 2.739332 1_555
Nb5 Si1 2.739557 1_545
Nb5 Si5 2.741822 1_556
Nb5 Si4 2.745486 1_546
Nb5 Si3 2.760171 1_556
