# generated using pymatgen
data_LuTlS2O9
_symmetry_space_group_name_H-M   'P 1'
_cell_length_a   8.16852000
_cell_length_b   10.25931389
_cell_length_c   10.10865024
_cell_angle_alpha   120.15192355
_cell_angle_beta   90.00000000
_cell_angle_gamma   90.00000000
_symmetry_Int_Tables_number   1
_chemical_formula_structural   LuTlS2O9
_chemical_formula_sum   'Lu4 Tl4 S8 O36'
_cell_volume   732.51851170
_cell_formula_units_Z   4
loop_
 _symmetry_equiv_pos_site_id
 _symmetry_equiv_pos_as_xyz
  1  'x, y, z'
loop_
 _atom_site_type_symbol
 _atom_site_label
 _atom_site_symmetry_multiplicity
 _atom_site_fract_x
 _atom_site_fract_y
 _atom_site_fract_z
 _atom_site_occupancy
  Lu  Lu0  1  0.34909900  0.95923400  0.71158000  1
  Lu  Lu1  1  0.65090100  0.04076600  0.28842000  1
  Lu  Lu2  1  0.84909900  0.54076600  0.78842000  1
  Lu  Lu3  1  0.15090100  0.45923400  0.21158000  1
  Tl  Tl0  1  0.36191900  0.68798200  0.94764200  1
  Tl  Tl1  1  0.63808100  0.31201800  0.05235800  1
  Tl  Tl2  1  0.86191900  0.81201800  0.55235800  1
  Tl  Tl3  1  0.13808100  0.18798200  0.44764200  1
  S  S0  1  0.12310200  0.31746500  0.87058200  1
  S  S1  1  0.87689800  0.68253500  0.12941800  1
  S  S2  1  0.62310200  0.18253500  0.62941800  1
  S  S3  1  0.37689800  0.81746500  0.37058200  1
  S  S4  1  0.20113100  0.59564300  0.59878700  1
  S  S5  1  0.79886900  0.40435700  0.40121300  1
  S  S6  1  0.70113100  0.90435700  0.90121300  1
  S  S7  1  0.29886900  0.09564300  0.09878700  1
  O  O0  1  0.78732900  0.05048300  0.96995200  1
  O  O1  1  0.21267100  0.94951700  0.03004800  1
  O  O2  1  0.28732900  0.44951700  0.53004800  1
  O  O3  1  0.71267100  0.55048300  0.46995200  1
  O  O4  1  0.19666800  0.16875500  0.76209500  1
  O  O5  1  0.80333200  0.83124500  0.23790500  1
  O  O6  1  0.69666800  0.33124500  0.73790500  1
  O  O7  1  0.30333200  0.66875500  0.26209500  1
  O  O8  1  0.31899600  0.72362900  0.67333200  1
  O  O9  1  0.68100400  0.27637100  0.32666800  1
  O  O10  1  0.81899600  0.77637100  0.82666800  1
  O  O11  1  0.18100400  0.22362900  0.17333200  1
  O  O12  1  0.38712200  0.10765200  0.97430600  1
  O  O13  1  0.61287800  0.89234800  0.02569400  1
  O  O14  1  0.88712200  0.39234800  0.52569400  1
  O  O15  1  0.11287800  0.60765200  0.47430600  1
  O  O16  1  0.07700600  0.93758000  0.72819600  1
  O  O17  1  0.92299400  0.06242000  0.27180400  1
  O  O18  1  0.57700600  0.56242000  0.77180400  1
  O  O19  1  0.42299400  0.43758000  0.22819600  1
  O  O20  1  0.25321500  0.42551800  0.97113100  1
  O  O21  1  0.74678500  0.57448200  0.02886900  1
  O  O22  1  0.75321500  0.07448200  0.52886900  1
  O  O23  1  0.24678500  0.92551800  0.47113100  1
  O  O24  1  0.00656500  0.30897200  0.97885500  1
  O  O25  1  0.99343500  0.69102800  0.02114500  1
  O  O26  1  0.50656500  0.19102800  0.52114500  1
  O  O27  1  0.49343500  0.80897200  0.47885500  1
  O  O28  1  0.04229500  0.37244600  0.77584100  1
  O  O29  1  0.95770500  0.62755400  0.22415900  1
  O  O30  1  0.54229500  0.12755400  0.72415900  1
  O  O31  1  0.45770500  0.87244600  0.27584100  1
  O  O32  1  0.58700300  0.88634800  0.77902500  1
  O  O33  1  0.41299700  0.11365200  0.22097500  1
  O  O34  1  0.08700300  0.61365200  0.72097500  1
  O  O35  1  0.91299700  0.38634800  0.27902500  1
loop_
_geom_bond_atom_site_label_1
_geom_bond_atom_site_label_2
_geom_bond_distance
_geom_bond_site_symmetry_2
Lu0 O16 2.248330 1_555
Lu0 O8 2.261350 1_555
Lu0 O30 2.295226 1_565
Lu0 O32 2.304912 1_555
Lu0 O4 2.308456 1_565
Lu0 O12 2.325042 1_565
Lu0 O27 2.378592 1_555
Lu0 O23 2.425161 1_555
Lu1 O17 2.248330 1_555
Lu1 O9 2.261350 1_555
Lu1 O31 2.295226 1_545
Lu1 O33 2.304912 1_555
Lu1 O5 2.308456 1_545
Lu1 O13 2.325042 1_545
Lu1 O26 2.378592 1_555
Lu1 O22 2.425161 1_555
Lu2 O18 2.248330 1_555
Lu2 O10 2.261350 1_555
Lu2 O28 2.295226 1_655
Lu2 O34 2.304912 1_655
Lu2 O6 2.308456 1_555
Lu2 O14 2.325042 1_555
Lu2 O25 2.378592 1_556
Lu2 O21 2.425161 1_556
Lu3 O19 2.248330 1_555
Lu3 O11 2.261350 1_555
Lu3 O29 2.295226 1_455
Lu3 O35 2.304912 1_455
Lu3 O7 2.308456 1_555
Lu3 O15 2.325042 1_555
Lu3 O24 2.378592 1_554
Lu3 O20 2.425161 1_554
O0 S6 1.476339 1_545
O0 Tl1 2.670998 1_556
O1 S7 1.476339 1_565
O1 Tl0 2.670998 1_554
O2 S4 1.476339 1_555
O2 Tl3 2.670998 1_555
O3 S5 1.476339 1_555
O3 Tl2 2.670998 1_555
O4 S0 1.486811 1_555
O5 S1 1.486811 1_555
O6 S2 1.486811 1_555
O7 S3 1.486811 1_555
O8 S4 1.491608 1_555
O9 S5 1.491608 1_555
O10 S6 1.491608 1_555
O11 S7 1.491608 1_555
O12 S7 1.507986 1_556
O12 Tl1 2.749360 1_556
O13 S6 1.507986 1_554
O13 Tl0 2.749360 1_554
O14 S5 1.507986 1_555
O14 Tl3 2.749360 1_655
O15 S4 1.507986 1_555
O15 Tl2 2.749360 1_455
O16 Tl2 2.367589 1_455
O17 Tl3 2.367589 1_655
O18 Tl0 2.367589 1_555
O19 Tl1 2.367589 1_555
O20 S0 1.503221 1_555
O21 S1 1.503221 1_555
O22 S2 1.503221 1_555
O23 S3 1.503221 1_555
O24 S0 1.485763 1_555
O25 S1 1.485763 1_555
O26 S2 1.485763 1_555
O27 S3 1.485763 1_555
O28 S0 1.487869 1_555
O29 S1 1.487869 1_555
O30 S2 1.487869 1_555
O31 S3 1.487869 1_555
O32 S6 1.483103 1_555
O33 S7 1.483103 1_555
O34 S4 1.483103 1_555
O35 S5 1.483103 1_555
