# generated using pymatgen
data_Mg2Ta2VO8
_symmetry_space_group_name_H-M   'P 1'
_cell_length_a   5.22910216
_cell_length_b   6.02379795
_cell_length_c   19.30601992
_cell_angle_alpha   89.98780987
_cell_angle_beta   90.02321555
_cell_angle_gamma   90.00188323
_symmetry_Int_Tables_number   1
_chemical_formula_structural   Mg2Ta2VO8
_chemical_formula_sum   'Mg8 Ta8 V4 O32'
_cell_volume   608.12131677
_cell_formula_units_Z   4
loop_
 _symmetry_equiv_pos_site_id
 _symmetry_equiv_pos_as_xyz
  1  'x, y, z'
loop_
 _atom_site_type_symbol
 _atom_site_label
 _atom_site_symmetry_multiplicity
 _atom_site_fract_x
 _atom_site_fract_y
 _atom_site_fract_z
 _atom_site_occupancy
  Mg  Mg0  1  0.75547500  0.14134100  0.27297700  1
  Mg  Mg1  1  0.75547600  0.64134200  0.77297600  1
  Mg  Mg2  1  0.74528400  0.64119700  0.22705500  1
  Mg  Mg3  1  0.74528400  0.14119600  0.72705400  1
  Mg  Mg4  1  0.24530100  0.35488500  0.22691800  1
  Mg  Mg5  1  0.24530200  0.85488500  0.72691900  1
  Mg  Mg6  1  0.25547000  0.85502800  0.27284600  1
  Mg  Mg7  1  0.25547200  0.35502900  0.77284500  1
  Ta  Ta0  1  0.74525100  0.16099300  0.11738500  1
  Ta  Ta1  1  0.74525100  0.66098800  0.61738600  1
  Ta  Ta2  1  0.75536700  0.66102200  0.38256000  1
  Ta  Ta3  1  0.75536900  0.16102300  0.88256000  1
  Ta  Ta4  1  0.25536400  0.33538900  0.38249700  1
  Ta  Ta5  1  0.25536500  0.83539100  0.88249900  1
  Ta  Ta6  1  0.24528300  0.83528300  0.11735300  1
  Ta  Ta7  1  0.24528400  0.33528100  0.61735300  1
  V  V0  1  0.75021300  0.64211400  0.99994500  1
  V  V1  1  0.25031300  0.85425600  0.49996400  1
  V  V2  1  0.75021600  0.14212100  0.49994700  1
  V  V3  1  0.25031200  0.35425400  0.99996400  1
  O  O0  1  0.07908800  0.10832300  0.07270000  1
  O  O1  1  0.07908900  0.60832400  0.57270100  1
  O  O2  1  0.42155900  0.60821300  0.42724500  1
  O  O3  1  0.42155900  0.10821200  0.92724600  1
  O  O4  1  0.92150100  0.38798300  0.42719600  1
  O  O5  1  0.92150100  0.88798200  0.92719400  1
  O  O6  1  0.57904900  0.88821000  0.07263900  1
  O  O7  1  0.57905100  0.38821000  0.57263700  1
  O  O8  1  0.59715200  0.37118900  0.06053700  1
  O  O9  1  0.59715300  0.87118400  0.56053700  1
  O  O10  1  0.90334200  0.87103000  0.43946900  1
  O  O11  1  0.90334200  0.37103500  0.93946900  1
  O  O12  1  0.40335300  0.12525900  0.43939100  1
  O  O13  1  0.40335300  0.62526500  0.93939100  1
  O  O14  1  0.09716700  0.62533500  0.06045500  1
  O  O15  1  0.09716500  0.12533200  0.56045500  1
  O  O16  1  0.45549100  0.10173800  0.18654800  1
  O  O17  1  0.45549400  0.60173800  0.68654700  1
  O  O18  1  0.04520800  0.60199500  0.31338800  1
  O  O19  1  0.04520900  0.10199700  0.81338700  1
  O  O20  1  0.95555200  0.89428800  0.18653200  1
  O  O21  1  0.95554800  0.39428500  0.68653300  1
  O  O22  1  0.54523800  0.39453400  0.31335200  1
  O  O23  1  0.54523500  0.89453400  0.81335300  1
  O  O24  1  0.38076400  0.64473100  0.19182300  1
  O  O25  1  0.38076700  0.14473300  0.69182400  1
  O  O26  1  0.12012800  0.14485200  0.30801900  1
  O  O27  1  0.12012800  0.64484700  0.80801900  1
  O  O28  1  0.61999200  0.85150100  0.30806300  1
  O  O29  1  0.61998800  0.35149900  0.80806200  1
  O  O30  1  0.88063700  0.35139100  0.19188400  1
  O  O31  1  0.88063600  0.85139400  0.69188400  1
loop_
_geom_bond_atom_site_label_1
_geom_bond_atom_site_label_2
_geom_bond_distance
_geom_bond_site_symmetry_2
Mg0 O28 2.002209 1_545
Mg0 O26 2.023117 1_655
Mg0 O22 2.035597 1_555
Mg0 O30 2.116675 1_555
Mg0 O16 2.302133 1_555
Mg0 O20 2.469240 1_545
Mg1 O29 2.002234 1_555
Mg1 O27 2.023118 1_655
Mg1 O23 2.035619 1_555
Mg1 O31 2.116665 1_555
Mg1 O17 2.302126 1_555
Mg1 O21 2.469217 1_555
Mg2 O30 2.002638 1_555
Mg2 O24 2.023690 1_555
Mg2 O20 2.036018 1_555
Mg2 O28 2.117012 1_555
Mg2 O18 2.300264 1_655
Mg2 O22 2.465354 1_555
Mg3 O31 2.002609 1_545
Mg3 O25 2.023662 1_555
Mg3 O21 2.035983 1_555
Mg3 O29 2.117015 1_555
Mg3 O19 2.300266 1_655
Mg3 O23 2.465384 1_545
Mg4 O24 2.002262 1_555
Mg4 O30 2.023119 1_455
Mg4 O16 2.035220 1_555
Mg4 O26 2.116746 1_555
Mg4 O22 2.302064 1_555
Mg4 O18 2.469809 1_555
Mg5 O25 2.002277 1_565
Mg5 O31 2.023135 1_455
Mg5 O17 2.035241 1_555
Mg5 O27 2.116752 1_555
Mg5 O23 2.302050 1_555
Mg5 O19 2.469790 1_565
Mg6 O26 2.002726 1_565
Mg6 O28 2.023602 1_555
Mg6 O18 2.035881 1_555
Mg6 O24 2.117204 1_555
Mg6 O20 2.300013 1_455
Mg6 O16 2.465483 1_565
Mg7 O27 2.002704 1_555
Mg7 O29 2.023573 1_555
Mg7 O19 2.035879 1_555
Mg7 O25 2.117173 1_555
Mg7 O21 2.300004 1_455
Mg7 O17 2.465481 1_555
O0 Ta0 1.973227 1_455
O0 Ta6 2.049991 1_545
O0 V3 2.228958 1_554
O1 Ta1 1.973226 1_455
O1 Ta7 2.049997 1_555
O1 V1 2.228974 1_555
O2 Ta2 1.973150 1_555
O2 Ta4 2.049968 1_555
O2 V1 2.229682 1_555
O3 Ta3 1.973170 1_555
O3 Ta5 2.049943 1_545
O3 V3 2.229668 1_555
O4 Ta4 1.973392 1_655
O4 Ta2 2.049713 1_555
O4 V2 2.228992 1_555
O5 Ta5 1.973360 1_655
O5 Ta3 2.049702 1_565
O5 V0 2.229022 1_555
O6 Ta6 1.973315 1_555
O6 Ta0 2.049769 1_565
O6 V0 2.229418 1_554
O7 Ta7 1.973339 1_555
O7 Ta1 2.049765 1_555
O7 V2 2.229343 1_555
O8 Ta0 1.845603 1_555
O8 V3 2.160011 1_554
O8 V0 2.161546 1_554
O9 Ta1 1.845612 1_555
O9 V1 2.160009 1_555
O9 V2 2.161583 1_565
O10 Ta2 1.845541 1_555
O10 V1 2.159708 1_655
O10 V2 2.161652 1_565
O11 Ta3 1.845553 1_555
O11 V3 2.159706 1_655
O11 V0 2.161582 1_555
O12 Ta4 1.845617 1_555
O12 V2 2.159914 1_555
O12 V1 2.161661 1_545
O13 Ta5 1.845576 1_555
O13 V0 2.159876 1_555
O13 V3 2.161700 1_555
O14 Ta6 1.845476 1_555
O14 V0 2.159792 1_454
O14 V3 2.161779 1_554
O15 Ta7 1.845486 1_555
O15 V2 2.159752 1_455
O15 V1 2.161762 1_545
O16 Ta0 2.051223 1_555
O16 Ta6 2.359804 1_545
O17 Ta1 2.051181 1_555
O17 Ta7 2.359806 1_555
O18 Ta2 2.051527 1_455
O18 Ta4 2.359020 1_555
O19 Ta3 2.051535 1_455
O19 Ta5 2.359052 1_545
O20 Ta6 2.051167 1_655
O20 Ta0 2.360193 1_565
O21 Ta7 2.051198 1_655
O21 Ta1 2.360175 1_555
O22 Ta4 2.051323 1_555
O22 Ta2 2.359889 1_555
O23 Ta5 2.051318 1_555
O23 Ta3 2.359894 1_565
O24 Ta6 1.971042 1_555
O25 Ta7 1.971046 1_555
O26 Ta4 1.970972 1_555
O27 Ta5 1.971026 1_555
O28 Ta2 1.970967 1_555
O29 Ta3 1.970982 1_555
O30 Ta0 1.971061 1_555
O31 Ta1 1.971073 1_555
