# generated using pymatgen
data_LaMg6Mn
_symmetry_space_group_name_H-M   'P 1'
_cell_length_a   5.17663600
_cell_length_b   6.51608800
_cell_length_c   11.52440400
_cell_angle_alpha   90.00000000
_cell_angle_beta   90.00000000
_cell_angle_gamma   90.00000000
_symmetry_Int_Tables_number   1
_chemical_formula_structural   LaMg6Mn
_chemical_formula_sum   'La2 Mg12 Mn2'
_cell_volume   388.73446225
_cell_formula_units_Z   2
loop_
 _symmetry_equiv_pos_site_id
 _symmetry_equiv_pos_as_xyz
  1  'x, y, z'
loop_
 _atom_site_type_symbol
 _atom_site_label
 _atom_site_symmetry_multiplicity
 _atom_site_fract_x
 _atom_site_fract_y
 _atom_site_fract_z
 _atom_site_occupancy
  La  La0  1  0.50000000  0.50000000  0.16697900  1
  La  La1  1  0.50000000  0.00000000  0.66697900  1
  Mg  Mg0  1  0.50000000  0.25531700  0.41858400  1
  Mg  Mg1  1  0.50000000  0.74468300  0.41858400  1
  Mg  Mg2  1  0.00000000  0.76510000  0.08334600  1
  Mg  Mg3  1  0.00000000  0.23490000  0.08334600  1
  Mg  Mg4  1  0.00000000  0.00000000  0.32803500  1
  Mg  Mg5  1  0.00000000  0.50000000  0.33869900  1
  Mg  Mg6  1  0.50000000  0.75531700  0.91858400  1
  Mg  Mg7  1  0.50000000  0.24468300  0.91858400  1
  Mg  Mg8  1  0.00000000  0.26510000  0.58334600  1
  Mg  Mg9  1  0.00000000  0.73490000  0.58334600  1
  Mg  Mg10  1  0.00000000  0.50000000  0.82803500  1
  Mg  Mg11  1  0.00000000  0.00000000  0.83869900  1
  Mn  Mn0  1  0.50000000  0.00000000  0.16242200  1
  Mn  Mn1  1  0.50000000  0.50000000  0.66242200  1
loop_
_geom_bond_atom_site_label_1
_geom_bond_atom_site_label_2
_geom_bond_distance
_geom_bond_site_symmetry_2
La0 Mg2 3.257653 1_555
La0 Mg3 3.257653 1_655
La0 Mg3 3.257653 1_555
La0 Mg2 3.257653 1_655
La0 Mg5 3.258177 1_555
La0 Mg5 3.258177 1_655
La0 Mn0 3.258467 1_555
La0 Mn0 3.258467 1_565
La0 Mg0 3.309033 1_555
La0 Mg1 3.309033 1_555
La0 Mg6 3.310936 1_554
La0 Mg7 3.310936 1_554
La1 Mg8 3.257653 1_555
La1 Mg8 3.257653 1_655
La1 Mg9 3.257653 1_645
La1 Mg9 3.257653 1_545
La1 Mg11 3.258177 1_555
La1 Mg11 3.258177 1_655
La1 Mn1 3.258467 1_555
La1 Mn1 3.258467 1_545
La1 Mg7 3.309033 1_555
La1 Mg6 3.309033 1_545
La1 Mg1 3.310936 1_545
La1 Mg0 3.310936 1_555
Mg0 Mg5 3.176315 1_655
Mg0 Mg5 3.176315 1_555
Mg0 Mg1 3.188752 1_555
Mg0 Mg8 3.210737 1_555
Mg0 Mg8 3.210737 1_655
Mg0 Mn1 3.230886 1_555
Mg0 Mg4 3.249019 1_555
Mg0 Mg4 3.249019 1_655
Mg0 Mg1 3.327336 1_545
Mg0 Mn0 3.388624 1_555
Mg1 Mg5 3.176315 1_655
Mg1 Mg5 3.176315 1_555
Mg1 Mg9 3.210737 1_555
Mg1 Mg9 3.210737 1_655
Mg1 Mn1 3.230886 1_555
Mg1 Mg4 3.249019 1_665
Mg1 Mg4 3.249019 1_565
Mg1 Mn0 3.388624 1_565
Mg2 Mg3 3.061258 1_565
Mg2 Mn0 3.142084 1_565
Mg2 Mn0 3.142084 1_465
Mg2 Mg4 3.208525 1_565
Mg2 Mg6 3.210737 1_554
Mg2 Mg6 3.210737 1_454
Mg2 Mg5 3.412328 1_555
Mg2 Mg3 3.454830 1_555
Mg3 Mn0 3.142084 1_555
Mg3 Mn0 3.142084 1_455
Mg3 Mg4 3.208525 1_555
Mg3 Mg7 3.210737 1_554
Mg3 Mg7 3.210737 1_454
Mg3 Mg5 3.412328 1_555
Mg4 Mn0 3.215915 1_455
Mg4 Mn0 3.215915 1_555
Mg4 Mg5 3.260361 1_545
Mg4 Mg5 3.260361 1_555
Mg4 Mg8 3.411911 1_555
Mg4 Mg9 3.411911 1_545
Mg5 Mg9 3.208100 1_555
Mg5 Mg8 3.208100 1_555
Mg6 Mg7 3.188752 1_565
Mg6 Mn0 3.230886 1_566
Mg6 Mg7 3.327336 1_555
Mg6 Mn1 3.388624 1_555
Mg7 Mn0 3.230886 1_556
Mg7 Mn1 3.388624 1_555
Mg8 Mg9 3.061258 1_555
Mg8 Mn1 3.142084 1_455
Mg8 Mn1 3.142084 1_555
Mg8 Mg9 3.454830 1_545
Mg9 Mn1 3.142084 1_555
Mg9 Mn1 3.142084 1_455
Mg10 Mg9 3.208525 1_555
Mg10 Mg8 3.208525 1_555
Mg10 Mn1 3.215915 1_555
Mg10 Mn1 3.215915 1_455
Mg10 Mg6 3.249019 1_555
Mg10 Mg6 3.249019 1_455
Mg10 Mg7 3.249019 1_455
Mg10 Mg7 3.249019 1_555
Mg10 Mg11 3.260361 1_555
Mg10 Mg11 3.260361 1_565
Mg10 Mg3 3.411911 1_556
Mg10 Mg2 3.411911 1_556
Mg11 Mg7 3.176315 1_455
Mg11 Mg7 3.176315 1_555
Mg11 Mg6 3.176315 1_545
Mg11 Mg6 3.176315 1_445
Mg11 Mg3 3.208100 1_556
Mg11 Mg2 3.208100 1_546
Mg11 Mg9 3.412328 1_545
Mg11 Mg8 3.412328 1_555
