# generated using pymatgen
data_CsCdInTe3
_symmetry_space_group_name_H-M   'P 1'
_cell_length_a   9.12611887
_cell_length_b   9.12611887
_cell_length_c   24.84688069
_cell_angle_alpha   84.74705676
_cell_angle_beta   84.74705676
_cell_angle_gamma   89.98748985
_symmetry_Int_Tables_number   1
_chemical_formula_structural   CsCdInTe3
_chemical_formula_sum   'Cs8 Cd8 In8 Te24'
_cell_volume   2051.98338667
_cell_formula_units_Z   8
loop_
 _symmetry_equiv_pos_site_id
 _symmetry_equiv_pos_as_xyz
  1  'x, y, z'
loop_
 _atom_site_type_symbol
 _atom_site_label
 _atom_site_symmetry_multiplicity
 _atom_site_fract_x
 _atom_site_fract_y
 _atom_site_fract_z
 _atom_site_occupancy
  Cs  Cs0  1  0.73077100  0.10648800  0.07644600  1
  Cs  Cs1  1  0.89351200  0.26922900  0.42355400  1
  Cs  Cs2  1  0.26922900  0.89351200  0.92355400  1
  Cs  Cs3  1  0.10648800  0.73077100  0.57644600  1
  Cs  Cs4  1  0.73084200  0.60529700  0.07642300  1
  Cs  Cs5  1  0.39470300  0.26915800  0.42357700  1
  Cs  Cs6  1  0.26915800  0.39470300  0.92357700  1
  Cs  Cs7  1  0.60529700  0.73084200  0.57642300  1
  Cd  Cd0  1  0.93975800  0.06024200  0.25000000  1
  Cd  Cd1  1  0.06024200  0.93975800  0.75000000  1
  Cd  Cd2  1  0.43539200  0.56460800  0.25000000  1
  Cd  Cd3  1  0.56460800  0.43539200  0.75000000  1
  Cd  Cd4  1  0.93968100  0.56492500  0.24998400  1
  Cd  Cd5  1  0.43507500  0.06031900  0.25001600  1
  Cd  Cd6  1  0.06031900  0.43507500  0.75001600  1
  Cd  Cd7  1  0.56492500  0.93968100  0.74998400  1
  In  In0  1  0.21961500  0.84448800  0.12240700  1
  In  In1  1  0.15551200  0.78038500  0.37759300  1
  In  In2  1  0.78038500  0.15551200  0.87759300  1
  In  In3  1  0.84448800  0.21961500  0.62240700  1
  In  In4  1  0.21947100  0.34438700  0.12249300  1
  In  In5  1  0.65561300  0.78052900  0.37750700  1
  In  In6  1  0.78052900  0.65561300  0.87750700  1
  In  In7  1  0.34438700  0.21947100  0.62249300  1
  Te  Te0  1  0.23713900  0.11186600  0.05249900  1
  Te  Te1  1  0.88813400  0.76286100  0.44750100  1
  Te  Te2  1  0.76286100  0.88813400  0.94750100  1
  Te  Te3  1  0.11186600  0.23713900  0.55249900  1
  Te  Te4  1  0.93783000  0.33012500  0.17986000  1
  Te  Te5  1  0.66987500  0.06217000  0.32014000  1
  Te  Te6  1  0.06217000  0.66987500  0.82014000  1
  Te  Te7  1  0.33012500  0.93783000  0.67986000  1
  Te  Te8  1  0.23673900  0.61190300  0.05250200  1
  Te  Te9  1  0.38809700  0.76326100  0.44749800  1
  Te  Te10  1  0.76326100  0.38809700  0.94749800  1
  Te  Te11  1  0.61190300  0.23673900  0.55250200  1
  Te  Te12  1  0.47300300  0.83003700  0.17952300  1
  Te  Te13  1  0.16996300  0.52699700  0.32047700  1
  Te  Te14  1  0.52699700  0.16996300  0.82047700  1
  Te  Te15  1  0.83003700  0.47300300  0.67952300  1
  Te  Te16  1  0.47244100  0.33000400  0.17981500  1
  Te  Te17  1  0.66999600  0.52755900  0.32018500  1
  Te  Te18  1  0.52755900  0.66999600  0.82018500  1
  Te  Te19  1  0.33000400  0.47244100  0.67981500  1
  Te  Te20  1  0.93732000  0.83028200  0.17943400  1
  Te  Te21  1  0.16971800  0.06268000  0.32056600  1
  Te  Te22  1  0.06268000  0.16971800  0.82056600  1
  Te  Te23  1  0.83028200  0.93732000  0.67943400  1
loop_
_geom_bond_atom_site_label_1
_geom_bond_atom_site_label_2
_geom_bond_distance
_geom_bond_site_symmetry_2
Cs0 Te10 3.908554 1_554
Cs0 Te2 3.913891 1_544
Cs0 Te20 4.019360 1_545
Cs0 Te16 4.020461 1_555
Cs0 Te12 4.021783 1_545
Cs0 Te4 4.023629 1_555
Cs1 Te11 3.908554 1_555
Cs1 Te3 3.913891 1_655
Cs1 Te21 4.019360 1_655
Cs1 Te17 4.020461 1_555
Cs1 Te13 4.021783 1_655
Cs1 Te5 4.023629 1_555
Cs2 Te8 3.908554 1_556
Cs2 Te0 3.913891 1_566
Cs2 Te22 4.019360 1_565
Cs2 Te18 4.020461 1_555
Cs2 Te14 4.021783 1_565
Cs2 Te6 4.023629 1_555
Cs3 Te9 3.908554 1_555
Cs3 Te1 3.913891 1_455
Cs3 Te23 4.019360 1_455
Cs3 Te19 4.020461 1_555
Cs3 Te15 4.021783 1_455
Cs3 Te7 4.023629 1_555
Cs4 Te10 3.907322 1_554
Cs4 Te2 3.914606 1_554
Cs4 Te12 4.020216 1_555
Cs4 Te20 4.020530 1_555
Cs4 Te16 4.022953 1_555
Cs4 Te4 4.023076 1_555
Cs5 Te11 3.907322 1_555
Cs5 Te3 3.914606 1_555
Cs5 Te13 4.020216 1_555
Cs5 Te21 4.020530 1_555
Cs5 Te17 4.022953 1_555
Cs5 Te5 4.023076 1_555
Cs6 Te8 3.907322 1_556
Cs6 Te0 3.914606 1_556
Cs6 Te14 4.020216 1_555
Cs6 Te22 4.020530 1_555
Cs6 Te18 4.022953 1_555
Cs6 Te6 4.023076 1_555
Cs7 Te9 3.907322 1_555
Cs7 Te1 3.914606 1_555
Cs7 Te15 4.020216 1_555
Cs7 Te23 4.020530 1_555
Cs7 Te19 4.022953 1_555
Cs7 Te7 4.023076 1_555
Cd0 Te20 2.856561 1_545
Cd0 Te21 2.856561 1_655
Cd0 Te4 2.885039 1_555
Cd0 Te5 2.885039 1_555
Cd1 Te23 2.856561 1_455
Cd1 Te22 2.856561 1_565
Cd1 Te6 2.885039 1_555
Cd1 Te7 2.885039 1_555
Cd2 Te13 2.857551 1_555
Cd2 Te12 2.857551 1_555
Cd2 Te16 2.883538 1_555
Cd2 Te17 2.883538 1_555
Cd3 Te15 2.857551 1_555
Cd3 Te14 2.857551 1_555
Cd3 Te19 2.883538 1_555
Cd3 Te18 2.883538 1_555
Cd4 Te13 2.857795 1_655
Cd4 Te20 2.857869 1_555
Cd4 Te4 2.883886 1_555
Cd4 Te17 2.884712 1_555
Cd5 Te12 2.857795 1_545
Cd5 Te21 2.857869 1_555
Cd5 Te5 2.883886 1_555
Cd5 Te16 2.884712 1_555
Cd6 Te15 2.857795 1_455
Cd6 Te22 2.857869 1_555
Cd6 Te6 2.883886 1_555
Cd6 Te19 2.884712 1_555
Cd7 Te14 2.857795 1_565
Cd7 Te23 2.857869 1_555
Cd7 Te7 2.883886 1_555
Cd7 Te18 2.884712 1_555
In0 Te12 2.818743 1_555
In0 Te20 2.821301 1_455
In0 Te0 2.858347 1_565
In0 Te8 2.858665 1_555
In1 Te13 2.818743 1_555
In1 Te21 2.821301 1_565
In1 Te1 2.858347 1_455
In1 Te9 2.858665 1_555
In2 Te14 2.818743 1_555
In2 Te22 2.821301 1_655
In2 Te2 2.858347 1_545
In2 Te10 2.858665 1_555
In3 Te15 2.818743 1_555
In3 Te23 2.821301 1_545
In3 Te3 2.858347 1_655
In3 Te11 2.858665 1_555
In4 Te16 2.818383 1_555
In4 Te4 2.819646 1_455
In4 Te0 2.859681 1_555
In4 Te8 2.860434 1_555
In5 Te17 2.818383 1_555
In5 Te5 2.819646 1_565
In5 Te1 2.859681 1_555
In5 Te9 2.860434 1_555
In6 Te18 2.818383 1_555
In6 Te6 2.819646 1_655
In6 Te2 2.859681 1_555
In6 Te10 2.860434 1_555
In7 Te19 2.818383 1_555
In7 Te7 2.819646 1_545
In7 Te3 2.859681 1_555
In7 Te11 2.860434 1_555
