# generated using pymatgen
data_BaLa2Ti3O10
_symmetry_space_group_name_H-M   'P 1'
_cell_length_a   14.55381407
_cell_length_b   14.55381407
_cell_length_c   7.74101900
_cell_angle_alpha   90.00000000
_cell_angle_beta   90.00000000
_cell_angle_gamma   164.47485273
_symmetry_Int_Tables_number   1
_chemical_formula_structural   BaLa2Ti3O10
_chemical_formula_sum   'Ba2 La4 Ti6 O20'
_cell_volume   438.87146608
_cell_formula_units_Z   2
loop_
 _symmetry_equiv_pos_site_id
 _symmetry_equiv_pos_as_xyz
  1  'x, y, z'
loop_
 _atom_site_type_symbol
 _atom_site_label
 _atom_site_symmetry_multiplicity
 _atom_site_fract_x
 _atom_site_fract_y
 _atom_site_fract_z
 _atom_site_occupancy
  Ba  Ba0  1  0.28503900  0.75279500  0.75000000  1
  Ba  Ba1  1  0.75279500  0.28503900  0.25000000  1
  La  La0  1  0.60446700  0.45171500  0.75000000  1
  La  La1  1  0.45171500  0.60446700  0.25000000  1
  La  La2  1  0.45468900  0.60324000  0.75000000  1
  La  La3  1  0.60324000  0.45468900  0.25000000  1
  Ti  Ti0  1  0.02146100  0.02146100  0.50000000  1
  Ti  Ti1  1  0.02146100  0.02146100  0.00000000  1
  Ti  Ti2  1  0.16574400  0.87390700  0.49979400  1
  Ti  Ti3  1  0.87390700  0.16574400  0.50020600  1
  Ti  Ti4  1  0.16574400  0.87390700  0.00020600  1
  Ti  Ti5  1  0.87390700  0.16574400  0.99979400  1
  O  O0  1  0.50252000  0.50252000  0.50000000  1
  O  O1  1  0.50252000  0.50252000  0.00000000  1
  O  O2  1  0.98419900  0.99294800  0.75000000  1
  O  O3  1  0.99294800  0.98419900  0.25000000  1
  O  O4  1  0.88702600  0.14504400  0.75000000  1
  O  O5  1  0.14504400  0.88702600  0.25000000  1
  O  O6  1  0.15154100  0.87991800  0.75000000  1
  O  O7  1  0.87991800  0.15154100  0.25000000  1
  O  O8  1  0.06984600  0.93536600  0.51372400  1
  O  O9  1  0.93536600  0.06984600  0.48627600  1
  O  O10  1  0.06984600  0.93536600  0.98627600  1
  O  O11  1  0.93536600  0.06984600  0.01372400  1
  O  O12  1  0.22523600  0.81051200  0.47523200  1
  O  O13  1  0.81051200  0.22523600  0.52476800  1
  O  O14  1  0.22523600  0.81051200  0.02476800  1
  O  O15  1  0.81051200  0.22523600  0.97523200  1
  O  O16  1  0.64698600  0.38251200  0.49598400  1
  O  O17  1  0.38251200  0.64698600  0.50401600  1
  O  O18  1  0.64698600  0.38251200  0.00401600  1
  O  O19  1  0.38251200  0.64698600  0.99598400  1
loop_
_geom_bond_atom_site_label_1
_geom_bond_atom_site_label_2
_geom_bond_distance
_geom_bond_site_symmetry_2
Ba0 O14 2.719569 1_556
Ba0 O12 2.719569 1_555
Ba0 O15 2.733646 1_565
Ba0 O13 2.733646 1_565
Ba0 O13 2.739538 1_455
Ba0 O15 2.739538 1_455
Ba1 O13 2.719569 1_555
Ba1 O15 2.719569 1_554
Ba1 O14 2.733646 1_655
Ba1 O12 2.733646 1_655
Ba1 O12 2.739538 1_545
Ba1 O14 2.739538 1_545
La0 O16 2.542604 1_555
La0 O18 2.542604 1_556
La0 O6 2.571749 1_655
La0 O10 2.625845 1_655
La0 O8 2.625845 1_655
La0 O6 2.645002 1_545
La0 O10 2.771804 1_545
La0 O8 2.771804 1_545
La0 O0 2.933843 1_555
La0 O1 2.933843 1_556
La0 O2 2.949811 1_555
La0 O2 3.150082 1_445
La1 O17 2.542604 1_555
La1 O19 2.542604 1_554
La1 O7 2.571749 1_565
La1 O11 2.625845 1_565
La1 O9 2.625845 1_565
La1 O7 2.645002 1_455
La1 O9 2.771804 1_455
La1 O11 2.771804 1_455
La1 O0 2.933843 1_555
La1 O1 2.933843 1_555
La1 O3 2.949811 1_555
La1 O3 3.150082 1_445
La2 O4 2.481695 1_565
La2 O17 2.534448 1_555
La2 O19 2.534448 1_555
La2 O4 2.560958 1_455
La2 O2 2.707286 1_555
La2 O9 2.770631 1_565
La2 O11 2.770631 1_566
La2 O0 2.888758 1_555
La2 O1 2.888758 1_556
La2 O11 2.913972 1_456
La2 O9 2.913972 1_455
La2 O2 2.928828 1_445
La3 O5 2.481695 1_655
La3 O18 2.534448 1_555
La3 O16 2.534448 1_555
La3 O5 2.560958 1_545
La3 O3 2.707286 1_555
La3 O8 2.770631 1_655
La3 O10 2.770631 1_654
La3 O1 2.888758 1_555
La3 O0 2.888758 1_555
La3 O10 2.913972 1_544
La3 O8 2.913972 1_545
La3 O3 2.928828 1_445
O0 Ti0 1.891293 1_555
O0 Ti0 2.040227 1_665
O1 Ti1 1.891293 1_555
O1 Ti1 2.040227 1_665
O2 Ti0 1.943668 1_665
O2 Ti1 1.943668 1_666
O3 Ti0 1.943668 1_665
O3 Ti1 1.943668 1_665
O4 Ti5 1.994267 1_555
O4 Ti3 1.994267 1_555
O5 Ti4 1.994267 1_555
O5 Ti2 1.994267 1_555
O6 Ti4 1.958728 1_556
O6 Ti2 1.958728 1_555
O7 Ti5 1.958728 1_554
O7 Ti3 1.958728 1_555
O8 Ti0 1.943584 1_565
O8 Ti2 2.272727 1_555
O9 Ti0 1.943584 1_655
O9 Ti3 2.272727 1_555
O10 Ti1 1.943584 1_566
O10 Ti4 2.272727 1_556
O11 Ti1 1.943584 1_655
O11 Ti5 2.272727 1_554
O12 Ti2 1.782273 1_555
O13 Ti3 1.782273 1_555
O14 Ti4 1.782273 1_555
O15 Ti5 1.782273 1_555
O16 Ti2 1.985626 1_545
O16 Ti2 2.024758 1_655
O17 Ti3 1.985626 1_455
O17 Ti3 2.024758 1_565
O18 Ti4 1.985626 1_545
O18 Ti4 2.024758 1_655
O19 Ti5 1.985626 1_455
O19 Ti5 2.024758 1_565
