# generated using pymatgen
data_Ca3Mn2O12
_symmetry_space_group_name_H-M   'P 1'
_cell_length_a   11.10364426
_cell_length_b   11.10364426
_cell_length_c   11.10364426
_cell_angle_alpha   109.47122063
_cell_angle_beta   109.47122063
_cell_angle_gamma   109.47122063
_symmetry_Int_Tables_number   1
_chemical_formula_structural   Ca3Mn2O12
_chemical_formula_sum   'Ca12 Mn8 O48'
_cell_volume   1053.84011642
_cell_formula_units_Z   4
loop_
 _symmetry_equiv_pos_site_id
 _symmetry_equiv_pos_as_xyz
  1  'x, y, z'
loop_
 _atom_site_type_symbol
 _atom_site_label
 _atom_site_symmetry_multiplicity
 _atom_site_fract_x
 _atom_site_fract_y
 _atom_site_fract_z
 _atom_site_occupancy
  Ca  Ca0  1  0.25000000  0.37500000  0.12500000  1
  Ca  Ca1  1  0.75000000  0.62500000  0.87500000  1
  Ca  Ca2  1  0.75000000  0.12500000  0.37500000  1
  Ca  Ca3  1  0.12500000  0.25000000  0.37500000  1
  Ca  Ca4  1  0.37500000  0.75000000  0.12500000  1
  Ca  Ca5  1  0.25000000  0.87500000  0.62500000  1
  Ca  Ca6  1  0.87500000  0.75000000  0.62500000  1
  Ca  Ca7  1  0.62500000  0.25000000  0.87500000  1
  Ca  Ca8  1  0.37500000  0.12500000  0.25000000  1
  Ca  Ca9  1  0.62500000  0.87500000  0.75000000  1
  Ca  Ca10  1  0.12500000  0.37500000  0.75000000  1
  Ca  Ca11  1  0.87500000  0.62500000  0.25000000  1
  Mn  Mn0  1  0.00000000  0.00000000  0.00000000  1
  Mn  Mn1  1  0.50000000  0.00000000  0.50000000  1
  Mn  Mn2  1  0.00000000  0.50000000  0.50000000  1
  Mn  Mn3  1  0.50000000  0.00000000  0.00000000  1
  Mn  Mn4  1  0.50000000  0.50000000  0.00000000  1
  Mn  Mn5  1  0.50000000  0.50000000  0.50000000  1
  Mn  Mn6  1  0.00000000  0.00000000  0.50000000  1
  Mn  Mn7  1  0.00000000  0.50000000  0.00000000  1
  O  O0  1  0.45619200  0.38195800  0.30744400  1
  O  O1  1  0.54380800  0.61804200  0.69255600  1
  O  O2  1  0.57451400  0.14874800  0.19255600  1
  O  O3  1  0.92548600  0.11804200  0.57423500  1
  O  O4  1  0.30744400  0.45619200  0.38195800  1
  O  O5  1  0.35125200  0.92548600  0.30744400  1
  O  O6  1  0.42548600  0.85125200  0.80744400  1
  O  O7  1  0.07451400  0.88195800  0.42576500  1
  O  O8  1  0.69255600  0.54380800  0.61804200  1
  O  O9  1  0.64874800  0.07451400  0.69255600  1
  O  O10  1  0.04380800  0.35125200  0.92576500  1
  O  O11  1  0.19255600  0.57451400  0.14874800  1
  O  O12  1  0.11804200  0.04380800  0.19255600  1
  O  O13  1  0.95619200  0.64874800  0.07423500  1
  O  O14  1  0.80744400  0.42548600  0.85125200  1
  O  O15  1  0.88195800  0.95619200  0.80744400  1
  O  O16  1  0.57423500  0.92548600  0.11804200  1
  O  O17  1  0.14874800  0.45619200  0.57423500  1
  O  O18  1  0.42576500  0.07451400  0.88195800  1
  O  O19  1  0.85125200  0.54380800  0.42576500  1
  O  O20  1  0.92576500  0.04380800  0.35125200  1
  O  O21  1  0.38195800  0.57451400  0.92576500  1
  O  O22  1  0.07423500  0.95619200  0.64874800  1
  O  O23  1  0.61804200  0.42548600  0.07423500  1
  O  O24  1  0.38195800  0.30744400  0.45619200  1
  O  O25  1  0.57451400  0.92576500  0.38195800  1
  O  O26  1  0.61804200  0.69255600  0.54380800  1
  O  O27  1  0.42548600  0.07423500  0.61804200  1
  O  O28  1  0.11804200  0.57423500  0.92548600  1
  O  O29  1  0.04380800  0.19255600  0.11804200  1
  O  O30  1  0.88195800  0.42576500  0.07451400  1
  O  O31  1  0.95619200  0.80744400  0.88195800  1
  O  O32  1  0.35125200  0.92576500  0.04380800  1
  O  O33  1  0.92548600  0.30744400  0.35125200  1
  O  O34  1  0.64874800  0.07423500  0.95619200  1
  O  O35  1  0.07451400  0.69255600  0.64874800  1
  O  O36  1  0.14874800  0.19255600  0.57451400  1
  O  O37  1  0.45619200  0.57423500  0.14874800  1
  O  O38  1  0.85125200  0.80744400  0.42548600  1
  O  O39  1  0.54380800  0.42576500  0.85125200  1
  O  O40  1  0.30744400  0.35125200  0.92548600  1
  O  O41  1  0.69255600  0.64874800  0.07451400  1
  O  O42  1  0.19255600  0.11804200  0.04380800  1
  O  O43  1  0.80744400  0.88195800  0.95619200  1
  O  O44  1  0.92576500  0.38195800  0.57451400  1
  O  O45  1  0.07423500  0.61804200  0.42548600  1
  O  O46  1  0.57423500  0.14874800  0.45619200  1
  O  O47  1  0.42576500  0.85125200  0.54380800  1
loop_
_geom_bond_atom_site_label_1
_geom_bond_atom_site_label_2
_geom_bond_distance
_geom_bond_site_symmetry_2
Ca0 O29 2.457084 1_555
Ca0 O0 2.457084 1_555
Ca0 O37 2.457090 1_555
Ca0 O10 2.457090 1_554
Ca0 O4 2.459425 1_555
Ca0 O11 2.459425 1_555
Ca0 O42 2.459425 1_555
Ca0 O40 2.459425 1_554
Ca1 O31 2.457084 1_555
Ca1 O1 2.457084 1_555
Ca1 O13 2.457090 1_556
Ca1 O39 2.457090 1_555
Ca1 O43 2.459425 1_555
Ca1 O14 2.459425 1_555
Ca1 O8 2.459425 1_555
Ca1 O41 2.459425 1_556
Ca2 O33 2.457084 1_555
Ca2 O2 2.457084 1_555
Ca2 O3 2.457091 1_555
Ca2 O25 2.457091 1_545
Ca2 O20 2.459414 1_555
Ca2 O46 2.459414 1_555
Ca2 O44 2.459424 1_555
Ca2 O16 2.459424 1_545
Ca3 O12 2.457084 1_555
Ca3 O4 2.457084 1_555
Ca3 O17 2.457090 1_555
Ca3 O20 2.457090 1_455
Ca3 O24 2.459425 1_555
Ca3 O36 2.459425 1_555
Ca3 O29 2.459425 1_555
Ca3 O33 2.459425 1_455
Ca4 O5 2.457084 1_555
Ca4 O11 2.457084 1_555
Ca4 O16 2.457091 1_555
Ca4 O21 2.457091 1_554
Ca4 O32 2.459414 1_555
Ca4 O37 2.459414 1_555
Ca4 O25 2.459424 1_555
Ca4 O28 2.459424 1_554
Ca5 O6 2.457084 1_555
Ca5 O35 2.457084 1_555
Ca5 O7 2.457091 1_555
Ca5 O27 2.457091 1_565
Ca5 O22 2.459414 1_555
Ca5 O47 2.459414 1_555
Ca5 O18 2.459424 1_565
Ca5 O45 2.459424 1_555
Ca6 O15 2.457084 1_555
Ca6 O8 2.457084 1_555
Ca6 O22 2.457090 1_655
Ca6 O19 2.457090 1_555
Ca6 O31 2.459425 1_555
Ca6 O38 2.459425 1_555
Ca6 O26 2.459425 1_555
Ca6 O35 2.459425 1_655
Ca7 O14 2.457084 1_555
Ca7 O9 2.457084 1_555
Ca7 O18 2.457091 1_555
Ca7 O23 2.457091 1_556
Ca7 O34 2.459414 1_555
Ca7 O39 2.459414 1_555
Ca7 O30 2.459424 1_556
Ca7 O27 2.459424 1_555
Ca8 O42 2.457084 1_555
Ca8 O24 2.457084 1_555
Ca8 O46 2.457090 1_555
Ca8 O32 2.457090 1_545
Ca8 O0 2.459425 1_555
Ca8 O2 2.459425 1_555
Ca8 O12 2.459425 1_555
Ca8 O5 2.459425 1_545
Ca9 O43 2.457084 1_555
Ca9 O26 2.457084 1_555
Ca9 O34 2.457090 1_565
Ca9 O47 2.457090 1_555
Ca9 O15 2.459425 1_555
Ca9 O6 2.459425 1_555
Ca9 O9 2.459425 1_565
Ca9 O1 2.459425 1_555
Ca10 O40 2.457084 1_555
Ca10 O36 2.457084 1_555
Ca10 O28 2.457091 1_555
Ca10 O44 2.457091 1_455
Ca10 O10 2.459414 1_555
Ca10 O17 2.459414 1_555
Ca10 O21 2.459424 1_555
Ca10 O3 2.459424 1_455
Ca11 O38 2.457084 1_555
Ca11 O41 2.457084 1_555
Ca11 O30 2.457091 1_555
Ca11 O45 2.457091 1_655
Ca11 O13 2.459414 1_555
Ca11 O19 2.459414 1_555
Ca11 O7 2.459424 1_655
Ca11 O23 2.459424 1_555
Mn0 O42 1.881294 1_555
Mn0 O12 1.881294 1_555
Mn0 O29 1.881294 1_555
Mn0 O15 1.881294 1_444
Mn0 O31 1.881294 1_444
Mn0 O43 1.881294 1_444
Mn1 O5 1.881294 1_545
Mn1 O9 1.881294 1_555
Mn1 O46 1.881296 1_555
Mn1 O47 1.881296 1_545
Mn1 O27 1.881297 1_555
Mn1 O25 1.881297 1_545
Mn2 O33 1.881294 1_455
Mn2 O35 1.881294 1_555
Mn2 O17 1.881296 1_555
Mn2 O19 1.881296 1_455
Mn2 O45 1.881297 1_555
Mn2 O44 1.881297 1_455
Mn3 O2 1.881294 1_555
Mn3 O6 1.881294 1_544
Mn3 O32 1.881296 1_545
Mn3 O34 1.881296 1_554
Mn3 O16 1.881297 1_545
Mn3 O18 1.881297 1_554
Mn4 O40 1.881294 1_554
Mn4 O41 1.881294 1_555
Mn4 O37 1.881296 1_555
Mn4 O39 1.881296 1_554
Mn4 O23 1.881297 1_555
Mn4 O21 1.881297 1_554
Mn5 O1 1.881294 1_555
Mn5 O26 1.881294 1_555
Mn5 O8 1.881294 1_555
Mn5 O24 1.881294 1_555
Mn5 O0 1.881294 1_555
Mn5 O4 1.881294 1_555
Mn6 O36 1.881294 1_555
Mn6 O38 1.881294 1_445
Mn6 O20 1.881296 1_455
Mn6 O22 1.881296 1_545
Mn6 O3 1.881297 1_455
Mn6 O7 1.881297 1_545
Mn7 O11 1.881294 1_555
Mn7 O14 1.881294 1_454
Mn7 O10 1.881296 1_554
Mn7 O13 1.881296 1_455
Mn7 O28 1.881297 1_554
Mn7 O30 1.881297 1_455
