# generated using pymatgen
data_RbNa2Fe3P4ClO14
_symmetry_space_group_name_H-M   'P 1'
_cell_length_a   10.88329256
_cell_length_b   10.88329256
_cell_length_c   13.90095499
_cell_angle_alpha   62.10553361
_cell_angle_beta   62.10553361
_cell_angle_gamma   27.96761206
_symmetry_Int_Tables_number   1
_chemical_formula_structural   RbNa2Fe3P4ClO14
_chemical_formula_sum   'Rb2 Na4 Fe6 P8 Cl2 O28'
_cell_volume   676.49600912
_cell_formula_units_Z   2
loop_
 _symmetry_equiv_pos_site_id
 _symmetry_equiv_pos_as_xyz
  1  'x, y, z'
loop_
 _atom_site_type_symbol
 _atom_site_label
 _atom_site_symmetry_multiplicity
 _atom_site_fract_x
 _atom_site_fract_y
 _atom_site_fract_z
 _atom_site_occupancy
  Rb  Rb0  1  0.50000000  0.50000000  0.00000000  1
  Rb  Rb1  1  0.50000000  0.50000000  0.50000000  1
  Na  Na0  1  0.24794500  0.30994500  0.15099300  1
  Na  Na1  1  0.69005500  0.75205500  0.34900700  1
  Na  Na2  1  0.75205500  0.69005500  0.84900700  1
  Na  Na3  1  0.30994500  0.24794500  0.65099300  1
  Fe  Fe0  1  0.66421300  0.64352500  0.15773300  1
  Fe  Fe1  1  0.35647500  0.33578700  0.34226700  1
  Fe  Fe2  1  0.33578700  0.35647500  0.84226700  1
  Fe  Fe3  1  0.64352500  0.66421300  0.65773300  1
  Fe  Fe4  1  0.93952800  0.06047200  0.25000000  1
  Fe  Fe5  1  0.06047200  0.93952800  0.75000000  1
  P  P0  1  0.17896900  0.13721400  0.00729600  1
  P  P1  1  0.86278600  0.82103100  0.49270400  1
  P  P2  1  0.82103100  0.86278600  0.99270400  1
  P  P3  1  0.13721400  0.17896900  0.50729600  1
  P  P4  1  0.87155900  0.89236300  0.17239300  1
  P  P5  1  0.10763700  0.12844100  0.32760700  1
  P  P6  1  0.12844100  0.10763700  0.82760700  1
  P  P7  1  0.89236300  0.87155900  0.67239300  1
  Cl  Cl0  1  0.46102300  0.53897700  0.25000000  1
  Cl  Cl1  1  0.53897700  0.46102300  0.75000000  1
  O  O0  1  0.95490800  0.96634500  0.14791400  1
  O  O1  1  0.03365500  0.04509200  0.35208600  1
  O  O2  1  0.04509200  0.03365500  0.85208600  1
  O  O3  1  0.96634500  0.95490800  0.64791400  1
  O  O4  1  0.06767400  0.14705600  0.95024900  1
  O  O5  1  0.85294400  0.93232600  0.54975100  1
  O  O6  1  0.93232600  0.85294400  0.04975100  1
  O  O7  1  0.14705600  0.06767400  0.45024900  1
  O  O8  1  0.88207300  0.42594100  0.28989300  1
  O  O9  1  0.57405900  0.11792700  0.21010700  1
  O  O10  1  0.11792700  0.57405900  0.71010700  1
  O  O11  1  0.42594100  0.88207300  0.78989300  1
  O  O12  1  0.98761600  0.25159600  0.11470000  1
  O  O13  1  0.74840400  0.01238400  0.38530000  1
  O  O14  1  0.01238400  0.74840400  0.88530000  1
  O  O15  1  0.25159600  0.98761600  0.61470000  1
  O  O16  1  0.46500500  0.84543500  0.02614500  1
  O  O17  1  0.15456500  0.53499500  0.47385500  1
  O  O18  1  0.53499500  0.15456500  0.97385500  1
  O  O19  1  0.84543500  0.46500500  0.52614500  1
  O  O20  1  0.04012100  0.62862900  0.24587900  1
  O  O21  1  0.37137100  0.95987900  0.25412100  1
  O  O22  1  0.95987900  0.37137100  0.75412100  1
  O  O23  1  0.62862900  0.04012100  0.74587900  1
  O  O24  1  0.84648500  0.68826600  0.07376900  1
  O  O25  1  0.31173400  0.15351500  0.42623100  1
  O  O26  1  0.15351500  0.31173400  0.92623100  1
  O  O27  1  0.68826600  0.84648500  0.57376900  1
loop_
_geom_bond_atom_site_label_1
_geom_bond_atom_site_label_2
_geom_bond_distance
_geom_bond_site_symmetry_2
Na0 O9 2.379010 1_555
Na0 O24 2.381317 1_455
Na0 O21 2.454779 1_545
Na0 O18 2.459496 1_554
Na0 O20 2.552814 1_555
Na0 O8 2.717469 1_455
Na1 O8 2.379010 1_555
Na1 O25 2.381317 1_565
Na1 O20 2.454779 1_655
Na1 O19 2.459496 1_555
Na1 O21 2.552814 1_555
Na1 O9 2.717469 1_565
Na2 O11 2.379010 1_555
Na2 O26 2.381317 1_655
Na2 O23 2.454779 1_565
Na2 O16 2.459496 1_556
Na2 O22 2.552814 1_555
Na2 O10 2.717469 1_655
Na3 O10 2.379010 1_555
Na3 O27 2.381317 1_545
Na3 O22 2.454779 1_455
Na3 O17 2.459496 1_555
Na3 O23 2.552814 1_555
Na3 O11 2.717469 1_545
Fe0 O16 2.099830 1_555
Fe0 O24 2.131328 1_555
Fe0 O8 2.166042 1_555
Fe0 O21 2.178211 1_555
Fe0 O12 2.199584 1_555
Fe1 O17 2.099830 1_555
Fe1 O25 2.131328 1_555
Fe1 O9 2.166042 1_555
Fe1 O20 2.178211 1_555
Fe1 O13 2.199584 1_555
Fe2 O18 2.099830 1_555
Fe2 O26 2.131328 1_555
Fe2 O10 2.166042 1_555
Fe2 O23 2.178211 1_555
Fe2 O14 2.199584 1_555
Fe3 O19 2.099830 1_555
Fe3 O27 2.131328 1_555
Fe3 O11 2.166042 1_555
Fe3 O22 2.178211 1_555
Fe3 O15 2.199584 1_555
Fe4 O0 1.981503 1_545
Fe4 O1 1.981503 1_655
Fe4 O13 2.340790 1_555
Fe4 O12 2.340790 1_555
Fe5 O3 1.981503 1_455
Fe5 O2 1.981503 1_565
Fe5 O14 2.340790 1_555
Fe5 O15 2.340790 1_555
Cl0 Fe4 2.516862 1_555
Cl0 Fe4 2.742982 1_465
Cl0 Fe1 2.873166 1_555
Cl0 Fe0 2.873166 1_555
Cl0 Rb0 3.481281 1_555
Cl0 Rb1 3.481281 1_555
Cl1 Fe5 2.516862 1_555
Cl1 Fe5 2.742982 1_645
Cl1 Fe2 2.873166 1_555
Cl1 Fe3 2.873166 1_555
Cl1 Rb1 3.481281 1_555
Cl1 Rb0 3.481281 1_556
O0 P4 1.527059 1_555
O0 Rb0 3.166967 1_565
O0 Rb0 3.216535 1_655
O1 P5 1.527059 1_555
O1 Rb1 3.166967 1_455
O1 Rb1 3.216535 1_545
O2 P6 1.527059 1_555
O2 Rb0 3.166967 1_546
O2 Rb0 3.216535 1_456
O3 P7 1.527059 1_555
O3 Rb1 3.166967 1_655
O3 Rb1 3.216535 1_565
O4 P6 1.629758 1_555
O4 P0 1.642431 1_556
O4 Rb0 3.157612 1_456
O5 P7 1.629758 1_555
O5 P1 1.642431 1_555
O5 Rb1 3.157612 1_565
O6 P4 1.629758 1_555
O6 P2 1.642431 1_554
O6 Rb0 3.157612 1_655
O7 P5 1.629758 1_555
O7 P3 1.642431 1_555
O7 Rb1 3.157612 1_545
O8 P5 1.536316 1_655
O8 Rb1 3.374825 1_555
O9 P4 1.536316 1_545
O9 Rb0 3.374825 1_555
O10 P7 1.536316 1_455
O10 Rb1 3.374825 1_555
O11 P6 1.536316 1_565
O11 Rb0 3.374825 1_556
O12 P0 1.538217 1_655
O13 P1 1.538217 1_545
O14 P2 1.538217 1_455
O15 P3 1.538217 1_565
O16 P0 1.538252 1_565
O17 P1 1.538252 1_455
O18 P2 1.538252 1_545
O19 P3 1.538252 1_655
O20 P4 1.535003 1_455
O21 P5 1.535003 1_565
O22 P6 1.535003 1_655
O23 P7 1.535003 1_545
O24 P2 1.521220 1_554
O25 P3 1.521220 1_555
O26 P0 1.521220 1_556
O27 P1 1.521220 1_555
