# generated using pymatgen
data_La9Lu11(GaO4)12
_symmetry_space_group_name_H-M   'P 1'
_cell_length_a   11.26864175
_cell_length_b   11.26864175
_cell_length_c   12.98230332
_cell_angle_alpha   54.87440429
_cell_angle_beta   54.87440429
_cell_angle_gamma   70.55027293
_symmetry_Int_Tables_number   1
_chemical_formula_structural   La9Lu11(GaO4)12
_chemical_formula_sum   'La9 Lu11 Ga12 O48'
_cell_volume   1102.77223738
_cell_formula_units_Z   1
loop_
 _symmetry_equiv_pos_site_id
 _symmetry_equiv_pos_as_xyz
  1  'x, y, z'
loop_
 _atom_site_type_symbol
 _atom_site_label
 _atom_site_symmetry_multiplicity
 _atom_site_fract_x
 _atom_site_fract_y
 _atom_site_fract_z
 _atom_site_occupancy
  La  La0  1  0.87585700  0.12414300  0.50000000  1
  La  La1  1  0.62386900  0.12527600  0.87643400  1
  La  La2  1  0.87472400  0.37613100  0.12356600  1
  La  La3  1  0.74962900  0.75003900  0.37543500  1
  La  La4  1  0.24996100  0.25037100  0.62456500  1
  La  La5  1  0.37458300  0.62541700  0.50000000  1
  La  La6  1  0.12542800  0.87457200  0.00000000  1
  La  La7  1  0.37501100  0.87460500  0.62502400  1
  La  La8  1  0.12539500  0.62498900  0.37497600  1
  Lu  Lu0  1  0.00255600  0.00130300  0.24947400  1
  Lu  Lu1  1  0.99869700  0.99744400  0.75052600  1
  Lu  Lu2  1  0.50161000  0.50122200  0.24509100  1
  Lu  Lu3  1  0.49877800  0.49839000  0.75490900  1
  Lu  Lu4  1  0.00322000  0.49841500  0.24801700  1
  Lu  Lu5  1  0.99552700  0.50214800  0.75173800  1
  Lu  Lu6  1  0.50158500  0.99678000  0.75198300  1
  Lu  Lu7  1  0.49785200  0.00447300  0.24826200  1
  Lu  Lu8  1  0.25174200  0.25017000  0.12433900  1
  Lu  Lu9  1  0.74983000  0.74825800  0.87566100  1
  Lu  Lu10  1  0.62441900  0.37558100  0.00000000  1
  Ga  Ga0  1  0.25228800  0.25069900  0.37017800  1
  Ga  Ga1  1  0.74930100  0.74771200  0.62982200  1
  Ga  Ga2  1  0.87206100  0.12793900  0.00000000  1
  Ga  Ga3  1  0.62505200  0.37494800  0.50000000  1
  Ga  Ga4  1  0.37594500  0.87589100  0.12422400  1
  Ga  Ga5  1  0.12410900  0.62405500  0.87577600  1
  Ga  Ga6  1  0.74984300  0.74985900  0.12221800  1
  Ga  Ga7  1  0.25014100  0.25015700  0.87778200  1
  Ga  Ga8  1  0.12416400  0.87583600  0.50000000  1
  Ga  Ga9  1  0.37873800  0.62126200  0.00000000  1
  Ga  Ga10  1  0.62465000  0.12641700  0.37283200  1
  Ga  Ga11  1  0.87358300  0.37535000  0.62716800  1
  O  O0  1  0.02253600  0.08700200  0.85048200  1
  O  O1  1  0.91299800  0.97746400  0.14951800  1
  O  O2  1  0.58643700  0.52353600  0.54076200  1
  O  O3  1  0.47646400  0.41356300  0.45923800  1
  O  O4  1  0.18704800  0.87548900  0.16244100  1
  O  O5  1  0.37592400  0.68672000  0.27417600  1
  O  O6  1  0.31328000  0.62407600  0.72582400  1
  O  O7  1  0.12451100  0.81295200  0.83755900  1
  O  O8  1  0.28882800  0.40029000  0.37326900  1
  O  O9  1  0.21093600  0.10030300  0.56134700  1
  O  O10  1  0.59971000  0.71117200  0.62673100  1
  O  O11  1  0.89969700  0.78906400  0.43865300  1
  O  O12  1  0.97003000  0.90719400  0.65472000  1
  O  O13  1  0.09280600  0.02997000  0.34528000  1
  O  O14  1  0.41851900  0.46509300  0.96838200  1
  O  O15  1  0.53490700  0.58148100  0.03161800  1
  O  O16  1  0.81236800  0.12451200  0.33772500  1
  O  O17  1  0.62349000  0.31241300  0.21939000  1
  O  O18  1  0.68758700  0.37651000  0.78061000  1
  O  O19  1  0.87548800  0.18763200  0.66227500  1
  O  O20  1  0.71208300  0.60578500  0.11363800  1
  O  O21  1  0.78735000  0.89488700  0.93217400  1
  O  O22  1  0.39421500  0.28791700  0.88636200  1
  O  O23  1  0.10511300  0.21265000  0.06782600  1
  O  O24  1  0.96982300  0.59277800  0.87525200  1
  O  O25  1  0.09414000  0.46997800  0.06133500  1
  O  O26  1  0.40722200  0.03017700  0.12474800  1
  O  O27  1  0.53002200  0.90586000  0.93866500  1
  O  O28  1  0.81319000  0.37654700  0.34844100  1
  O  O29  1  0.62345300  0.18681000  0.65155900  1
  O  O30  1  0.68208500  0.13554400  0.03767200  1
  O  O31  1  0.86445600  0.31791500  0.96232800  1
  O  O32  1  0.71287300  0.89297400  0.67453200  1
  O  O33  1  0.78207400  0.60062200  0.78529200  1
  O  O34  1  0.39937800  0.21792600  0.21470800  1
  O  O35  1  0.10702600  0.28712700  0.32546800  1
  O  O36  1  0.02483000  0.41367400  0.62575100  1
  O  O37  1  0.91316200  0.52343700  0.43691000  1
  O  O38  1  0.58632600  0.97517000  0.37424900  1
  O  O39  1  0.47656300  0.08683800  0.56309000  1
  O  O40  1  0.18866400  0.62388100  0.14956500  1
  O  O41  1  0.37611900  0.81133600  0.85043500  1
  O  O42  1  0.31310400  0.87623200  0.46141400  1
  O  O43  1  0.12376800  0.68689600  0.53858600  1
  O  O44  1  0.28940600  0.09978500  0.83792000  1
  O  O45  1  0.20937600  0.39975000  0.72800900  1
  O  O46  1  0.60025000  0.79062400  0.27199100  1
  O  O47  1  0.90021500  0.71059400  0.16208000  1
loop_
_geom_bond_atom_site_label_1
_geom_bond_atom_site_label_2
_geom_bond_distance
_geom_bond_site_symmetry_2
La0 O12 2.492343 1_545
La0 O13 2.492343 1_655
La0 O29 2.506239 1_555
La0 O28 2.506239 1_555
La0 O19 2.583101 1_555
La0 O16 2.583101 1_555
La0 O32 2.626443 1_545
La0 O35 2.626443 1_655
La1 O26 2.492212 1_556
La1 O19 2.504074 1_555
La1 O27 2.518713 1_545
La1 O18 2.520145 1_555
La1 O29 2.586081 1_555
La1 O30 2.595160 1_556
La1 O22 2.608088 1_555
La1 O21 2.616213 1_545
La2 O24 2.492212 1_554
La2 O16 2.504074 1_555
La2 O25 2.518713 1_655
La2 O17 2.520145 1_555
La2 O28 2.586081 1_555
La2 O31 2.595160 1_554
La2 O20 2.608088 1_555
La2 O23 2.616213 1_655
La3 O10 2.489047 1_555
La3 O46 2.495603 1_555
La3 O11 2.496861 1_555
La3 O47 2.500972 1_555
La3 O38 2.588669 1_555
La3 O37 2.601300 1_555
La3 O2 2.604404 1_555
La3 O1 2.614987 1_555
La4 O8 2.489047 1_555
La4 O45 2.495603 1_555
La4 O9 2.496861 1_555
La4 O44 2.500972 1_555
La4 O36 2.588669 1_555
La4 O39 2.601300 1_555
La4 O3 2.604404 1_555
La4 O0 2.614987 1_555
La5 O42 2.487015 1_555
La5 O43 2.487015 1_555
La5 O2 2.495339 1_555
La5 O3 2.495339 1_555
La5 O6 2.588019 1_555
La5 O5 2.588019 1_555
La5 O46 2.616073 1_555
La5 O45 2.616073 1_555
La6 O40 2.489550 1_555
La6 O41 2.489550 1_554
La6 O1 2.497381 1_455
La6 O0 2.497381 1_564
La6 O7 2.577687 1_554
La6 O4 2.577687 1_555
La6 O44 2.605061 1_564
La6 O47 2.605061 1_455
La7 O6 2.485038 1_555
La7 O38 2.486798 1_555
La7 O7 2.490264 1_555
La7 O39 2.495329 1_565
La7 O42 2.578815 1_555
La7 O41 2.589839 1_555
La7 O10 2.591453 1_555
La7 O9 2.603481 1_565
La8 O5 2.485038 1_555
La8 O36 2.486798 1_555
La8 O4 2.490264 1_555
La8 O37 2.495329 1_455
La8 O43 2.578815 1_555
La8 O40 2.589839 1_555
La8 O8 2.591453 1_555
La8 O11 2.603481 1_455
Lu0 O4 2.187735 1_545
Lu0 O23 2.191491 1_555
Lu0 O13 2.195989 1_555
Lu0 O16 2.203800 1_455
Lu0 O1 2.205278 1_445
Lu0 O11 2.215024 1_445
Lu1 O7 2.187735 1_655
Lu1 O21 2.191491 1_555
Lu1 O12 2.195989 1_555
Lu1 O19 2.203800 1_565
Lu1 O0 2.205278 1_665
Lu1 O9 2.215024 1_665
Lu2 O15 2.187315 1_555
Lu2 O20 2.194396 1_555
Lu2 O5 2.199813 1_555
Lu2 O8 2.204249 1_555
Lu2 O17 2.206343 1_555
Lu2 O3 2.214684 1_555
Lu3 O14 2.187315 1_555
Lu3 O22 2.194396 1_555
Lu3 O6 2.199813 1_555
Lu3 O10 2.204249 1_555
Lu3 O18 2.206343 1_555
Lu3 O2 2.214684 1_555
Lu4 O35 2.189062 1_555
Lu4 O40 2.194075 1_555
Lu4 O25 2.200849 1_555
Lu4 O28 2.203778 1_455
Lu4 O37 2.205524 1_455
Lu4 O47 2.209316 1_455
Lu5 O33 2.186255 1_555
Lu5 O36 2.194069 1_655
Lu5 O31 2.197702 1_555
Lu5 O24 2.202524 1_555
Lu5 O43 2.202812 1_655
Lu5 O45 2.221810 1_655
Lu6 O32 2.189062 1_555
Lu6 O41 2.194075 1_555
Lu6 O27 2.200849 1_555
Lu6 O29 2.203778 1_565
Lu6 O39 2.205524 1_565
Lu6 O44 2.209316 1_565
Lu7 O34 2.186255 1_555
Lu7 O38 2.194069 1_545
Lu7 O30 2.197702 1_555
Lu7 O26 2.202524 1_555
Lu7 O42 2.202812 1_545
Lu7 O46 2.221810 1_545
Lu8 O22 2.353335 1_554
Lu8 O35 2.355806 1_555
Lu8 O34 2.372570 1_555
Lu8 O23 2.379986 1_555
Lu8 O26 2.513624 1_555
Lu8 O25 2.523683 1_555
Lu8 O13 2.539667 1_555
Lu8 O14 2.550807 1_554
Lu9 O20 2.353335 1_556
Lu9 O32 2.355806 1_555
Lu9 O33 2.372570 1_555
Lu9 O21 2.379986 1_555
Lu9 O24 2.513624 1_555
Lu9 O27 2.523683 1_555
Lu9 O12 2.539667 1_555
Lu9 O15 2.550807 1_556
Lu10 O14 2.372812 1_554
Lu10 O15 2.372812 1_555
Lu10 O30 2.377133 1_555
Lu10 O31 2.377133 1_554
Lu10 O18 2.501323 1_554
Lu10 O17 2.501323 1_555
Lu10 O34 2.554269 1_555
Lu10 O33 2.554269 1_554
Ga0 O35 1.885882 1_555
Ga0 O34 1.886226 1_555
Ga0 O8 1.889917 1_555
Ga0 O9 1.898357 1_555
Ga1 O32 1.885882 1_555
Ga1 O33 1.886226 1_555
Ga1 O10 1.889917 1_555
Ga1 O11 1.898357 1_555
Ga2 O30 1.884325 1_555
Ga2 O31 1.884325 1_554
Ga2 O1 1.891504 1_545
Ga2 O0 1.891504 1_654
Ga3 O2 1.882121 1_555
Ga3 O3 1.882121 1_555
Ga3 O28 1.884360 1_555
Ga3 O29 1.884360 1_555
Ga4 O5 1.886346 1_555
Ga4 O4 1.888309 1_555
Ga4 O26 1.889820 1_565
Ga4 O27 1.890245 1_554
Ga5 O6 1.886346 1_555
Ga5 O7 1.888309 1_555
Ga5 O24 1.889820 1_455
Ga5 O25 1.890245 1_556
Ga6 O20 1.884666 1_555
Ga6 O21 1.885932 1_554
Ga6 O46 1.890420 1_555
Ga6 O47 1.892396 1_555
Ga7 O22 1.884666 1_555
Ga7 O23 1.885932 1_556
Ga7 O45 1.890420 1_555
Ga7 O44 1.892396 1_555
Ga8 O43 1.886917 1_555
Ga8 O42 1.886917 1_555
Ga8 O12 1.889333 1_455
Ga8 O13 1.889333 1_565
Ga9 O15 1.886934 1_555
Ga9 O14 1.886934 1_554
Ga9 O41 1.896510 1_554
Ga9 O40 1.896510 1_555
Ga10 O38 1.880584 1_545
Ga10 O16 1.885307 1_555
Ga10 O17 1.889036 1_555
Ga10 O39 1.889267 1_555
Ga11 O36 1.880584 1_655
Ga11 O19 1.885307 1_555
Ga11 O18 1.889036 1_555
Ga11 O37 1.889267 1_555
