# generated using pymatgen
data_LaPdO4
_symmetry_space_group_name_H-M   'P 1'
_cell_length_a   6.40404352
_cell_length_b   6.40404352
_cell_length_c   6.40404395
_cell_angle_alpha   35.05825665
_cell_angle_beta   35.05825665
_cell_angle_gamma   35.05826012
_symmetry_Int_Tables_number   1
_chemical_formula_structural   LaPdO4
_chemical_formula_sum   'La1 Pd1 O4'
_cell_volume   77.38237994
_cell_formula_units_Z   1
loop_
 _symmetry_equiv_pos_site_id
 _symmetry_equiv_pos_as_xyz
  1  'x, y, z'
loop_
 _atom_site_type_symbol
 _atom_site_label
 _atom_site_symmetry_multiplicity
 _atom_site_fract_x
 _atom_site_fract_y
 _atom_site_fract_z
 _atom_site_occupancy
  La  La0  1  0.00000000  0.00000000  0.00000000  1
  Pd  Pd0  1  0.50000000  0.50000000  0.50000000  1
  O  O0  1  0.61188600  0.61188600  0.61188600  1
  O  O1  1  0.15588900  0.15588900  0.15588900  1
  O  O2  1  0.84411100  0.84411100  0.84411100  1
  O  O3  1  0.38811400  0.38811400  0.38811400  1
loop_
_geom_bond_atom_site_label_1
_geom_bond_atom_site_label_2
_geom_bond_distance
_geom_bond_site_symmetry_2
La0 O0 2.436029 1_445
La0 O3 2.436029 1_554
La0 O0 2.436029 1_544
La0 O0 2.436029 1_454
La0 O3 2.436029 1_455
La0 O3 2.436029 1_545
La0 O1 2.807997 1_555
La0 O2 2.807997 1_444
O0 Pd0 2.015380 1_555
O1 Pd0 2.235675 1_554
O1 Pd0 2.235675 1_455
O1 Pd0 2.235675 1_545
O2 Pd0 2.235675 1_556
O2 Pd0 2.235675 1_655
O2 Pd0 2.235675 1_565
O3 Pd0 2.015380 1_555
