# generated using pymatgen
data_NaSrSmWO6
_symmetry_space_group_name_H-M   'P 1'
_cell_length_a   5.98013288
_cell_length_b   5.98013288
_cell_length_c   5.98013288
_cell_angle_alpha   60.00000000
_cell_angle_beta   60.00000000
_cell_angle_gamma   60.00000000
_symmetry_Int_Tables_number   1
_chemical_formula_structural   NaSrSmWO6
_chemical_formula_sum   'Na1 Sr1 Sm1 W1 O6'
_cell_volume   151.22287981
_cell_formula_units_Z   1
loop_
 _symmetry_equiv_pos_site_id
 _symmetry_equiv_pos_as_xyz
  1  'x, y, z'
loop_
 _atom_site_type_symbol
 _atom_site_label
 _atom_site_symmetry_multiplicity
 _atom_site_fract_x
 _atom_site_fract_y
 _atom_site_fract_z
 _atom_site_occupancy
  Na  Na0  1  0.75000000  0.75000000  0.75000000  1
  Sr  Sr0  1  0.25000000  0.25000000  0.25000000  1
  Sm  Sm0  1  0.00000000  0.00000000  0.00000000  1
  W  W0  1  0.50000000  0.50000000  0.50000000  1
  O  O0  1  0.73027465  0.26972535  0.26972535  1
  O  O1  1  0.26972535  0.73027465  0.73027465  1
  O  O2  1  0.73027465  0.26972535  0.73027465  1
  O  O3  1  0.26972535  0.73027465  0.26972535  1
  O  O4  1  0.73027465  0.73027465  0.26972535  1
  O  O5  1  0.26972535  0.26972535  0.73027465  1
loop_
_geom_bond_atom_site_label_1
_geom_bond_atom_site_label_2
_geom_bond_distance
_geom_bond_site_symmetry_2
Na0 O4 2.994716 1_556
Na0 O1 2.994716 1_655
Na0 O2 2.994716 1_565
Na0 O5 2.994716 1_655
Na0 O5 2.994716 1_565
Na0 O3 2.994716 1_556
Na0 O0 2.994716 1_556
Na0 O0 2.994716 1_565
Na0 O3 2.994716 1_655
Na0 O4 2.994716 1_555
Na0 O1 2.994716 1_555
Na0 O2 2.994716 1_555
O0 W0 1.947475 1_555
O0 Sm0 2.281117 1_655
O0 Sr0 2.994716 1_655
O0 Sr0 2.994716 1_555
O1 W0 1.947475 1_555
O1 Sm0 2.281117 1_566
O1 Sr0 2.994716 1_565
O1 Sr0 2.994716 1_556
O2 W0 1.947475 1_555
O2 Sm0 2.281117 1_656
O2 Sr0 2.994716 1_655
O2 Sr0 2.994716 1_556
O3 W0 1.947475 1_555
O3 Sm0 2.281117 1_565
O3 Sr0 2.994716 1_565
O3 Sr0 2.994716 1_555
O4 W0 1.947475 1_555
O4 Sm0 2.281117 1_665
O4 Sr0 2.994716 1_655
O4 Sr0 2.994716 1_565
O5 W0 1.947475 1_555
O5 Sm0 2.281117 1_556
O5 Sr0 2.994716 1_555
O5 Sr0 2.994716 1_556
