# generated using pymatgen
data_MgAl2O4
_symmetry_space_group_name_H-M   'P 1'
_cell_length_a   8.76286551
_cell_length_b   8.76286551
_cell_length_c   2.83163600
_cell_angle_alpha   90.00000000
_cell_angle_beta   90.00000000
_cell_angle_gamma   119.99999630
_symmetry_Int_Tables_number   1
_chemical_formula_structural   MgAl2O4
_chemical_formula_sum   'Mg3 Al6 O12'
_cell_volume   188.30435558
_cell_formula_units_Z   3
loop_
 _symmetry_equiv_pos_site_id
 _symmetry_equiv_pos_as_xyz
  1  'x, y, z'
loop_
 _atom_site_type_symbol
 _atom_site_label
 _atom_site_symmetry_multiplicity
 _atom_site_fract_x
 _atom_site_fract_y
 _atom_site_fract_z
 _atom_site_occupancy
  Mg  Mg0  1  0.33333300  0.66666700  0.00000000  1
  Mg  Mg1  1  0.00000000  0.00000000  0.50000000  1
  Mg  Mg2  1  0.66666700  0.33333300  0.00000000  1
  Al  Al0  1  0.02019000  0.34358400  0.00000000  1
  Al  Al1  1  0.32339400  0.97981000  0.00000000  1
  Al  Al2  1  0.65641600  0.67660600  0.00000000  1
  Al  Al3  1  0.31448700  0.32329300  0.50000000  1
  Al  Al4  1  0.00880600  0.68551300  0.50000000  1
  Al  Al5  1  0.67670700  0.99119400  0.50000000  1
  O  O0  1  0.13489500  0.20270500  0.00000000  1
  O  O1  1  0.06781000  0.86510500  0.00000000  1
  O  O2  1  0.79729500  0.93219000  0.00000000  1
  O  O3  1  0.19867000  0.46408600  0.50000000  1
  O  O4  1  0.26541600  0.80133000  0.50000000  1
  O  O5  1  0.53591400  0.73458400  0.50000000  1
  O  O6  1  0.56358400  0.03860900  0.00000000  1
  O  O7  1  0.47502500  0.43641600  0.00000000  1
  O  O8  1  0.96139100  0.52497500  0.00000000  1
  O  O9  1  0.76951500  0.62753900  0.50000000  1
  O  O10  1  0.85802500  0.23048500  0.50000000  1
  O  O11  1  0.37246100  0.14197500  0.50000000  1
loop_
_geom_bond_atom_site_label_1
_geom_bond_atom_site_label_2
_geom_bond_distance
_geom_bond_site_symmetry_2
Mg0 O4 2.110335 1_554
Mg0 O4 2.110335 1_555
Mg0 O3 2.110340 1_555
Mg0 O3 2.110340 1_554
Mg0 O5 2.110341 1_555
Mg0 O5 2.110341 1_554
Mg1 O1 2.111233 1_545
Mg1 O1 2.111233 1_546
Mg1 O2 2.111233 1_445
Mg1 O2 2.111233 1_446
Mg1 O0 2.111233 1_555
Mg1 O0 2.111233 1_556
Mg2 O6 2.270027 1_555
Mg2 O8 2.270029 1_555
Mg2 O7 2.270035 1_555
Al0 O10 1.896773 1_455
Al0 O10 1.896773 1_454
Al0 O8 1.900262 1_455
Al0 O0 1.942980 1_555
Al0 O3 1.978421 1_555
Al0 O3 1.978421 1_554
Al1 O11 1.896772 1_564
Al1 O11 1.896772 1_565
Al1 O6 1.900262 1_565
Al1 O1 1.942980 1_555
Al1 O4 1.978421 1_554
Al1 O4 1.978421 1_555
Al2 O9 1.896777 1_554
Al2 O9 1.896777 1_555
Al2 O7 1.900262 1_555
Al2 O2 1.942980 1_555
Al2 O5 1.978421 1_555
Al2 O5 1.978421 1_554
Al3 O7 1.889889 1_555
Al3 O7 1.889889 1_556
Al3 O11 1.894663 1_555
Al3 O3 1.950451 1_555
Al3 O0 1.983643 1_555
Al3 O0 1.983643 1_556
Al4 O8 1.889889 1_456
Al4 O8 1.889889 1_455
Al4 O9 1.894655 1_455
Al4 O4 1.950451 1_555
Al4 O1 1.983643 1_556
Al4 O1 1.983643 1_555
Al5 O6 1.889889 1_565
Al5 O6 1.889889 1_566
Al5 O10 1.894657 1_565
Al5 O5 1.950451 1_555
Al5 O2 1.983643 1_556
Al5 O2 1.983643 1_555
