# generated using pymatgen
data_LaZnNi
_symmetry_space_group_name_H-M   'P 1'
_cell_length_a   7.24426426
_cell_length_b   7.24426469
_cell_length_c   3.90098833
_cell_angle_alpha   90.00000000
_cell_angle_beta   90.00000000
_cell_angle_gamma   120.00001244
_symmetry_Int_Tables_number   1
_chemical_formula_structural   LaZnNi
_chemical_formula_sum   'La3 Zn3 Ni3'
_cell_volume   177.29391194
_cell_formula_units_Z   3
loop_
 _symmetry_equiv_pos_site_id
 _symmetry_equiv_pos_as_xyz
  1  'x, y, z'
loop_
 _atom_site_type_symbol
 _atom_site_label
 _atom_site_symmetry_multiplicity
 _atom_site_fract_x
 _atom_site_fract_y
 _atom_site_fract_z
 _atom_site_occupancy
  La  La0  1  0.00000000  0.58210333  -0.00000000  1
  La  La1  1  0.41789667  0.41789667  0.00000000  1
  La  La2  1  0.58210333  0.00000000  0.00000000  1
  Zn  Zn0  1  0.22392976  -0.00000000  0.50000000  1
  Zn  Zn1  1  0.77607024  0.77607024  0.50000000  1
  Zn  Zn2  1  -0.00000000  0.22392976  0.50000000  1
  Ni  Ni0  1  -0.00000000  -0.00000000  -0.00000000  1
  Ni  Ni1  1  0.66666700  0.33333300  0.50000000  1
  Ni  Ni2  1  0.33333300  0.66666700  0.50000000  1
loop_
_geom_bond_atom_site_label_1
_geom_bond_atom_site_label_2
_geom_bond_distance
_geom_bond_site_symmetry_2
La0 Ni2 2.920866 1_555
La0 Ni2 2.920866 1_554
La0 Ni1 2.920867 1_455
La0 Ni1 2.920867 1_454
La0 Ni0 3.027354 1_565
La0 Zn2 3.246062 1_554
La0 Zn2 3.246062 1_555
La0 Zn0 3.269535 1_564
La0 Zn0 3.269535 1_565
La0 Zn1 3.269535 1_454
La0 Zn1 3.269535 1_455
La1 Ni1 2.920871 1_554
La1 Ni1 2.920871 1_555
La1 Ni2 2.920871 1_555
La1 Ni2 2.920871 1_554
La1 Ni0 3.027353 1_555
La1 Zn1 3.246061 1_555
La1 Zn1 3.246061 1_554
La1 Zn2 3.269535 1_554
La1 Zn2 3.269535 1_555
La1 Zn0 3.269535 1_555
La1 Zn0 3.269535 1_554
La2 Ni1 2.920866 1_554
La2 Ni1 2.920866 1_555
La2 Ni2 2.920867 1_544
La2 Ni2 2.920867 1_545
La2 Ni0 3.027354 1_655
La2 Zn0 3.246062 1_555
La2 Zn0 3.246062 1_554
La2 Zn2 3.269535 1_654
La2 Zn2 3.269535 1_655
La2 Zn1 3.269535 1_545
La2 Zn1 3.269535 1_544
Zn0 Zn1 2.809743 1_445
Zn0 Zn2 2.809744 1_555
Zn1 Zn2 2.809744 1_665
Ni0 Zn1 2.536923 1_445
Ni0 Zn1 2.536923 1_444
Ni0 Zn0 2.536924 1_554
Ni0 Zn0 2.536924 1_555
Ni0 Zn2 2.536924 1_554
Ni0 Zn2 2.536924 1_555
Ni1 Zn2 2.893607 1_655
Ni1 Zn0 2.893611 1_555
Ni1 Zn1 2.893614 1_555
Ni2 Zn0 2.893607 1_565
Ni2 Zn2 2.893611 1_555
Ni2 Zn1 2.893614 1_555
