# generated using pymatgen
data_HfNiSb
_symmetry_space_group_name_H-M   'P 1'
_cell_length_a   4.20461600
_cell_length_b   6.62672700
_cell_length_c   7.63991600
_cell_angle_alpha   90.00000000
_cell_angle_beta   90.00000000
_cell_angle_gamma   90.00000000
_symmetry_Int_Tables_number   1
_chemical_formula_structural   HfNiSb
_chemical_formula_sum   'Hf4 Ni4 Sb4'
_cell_volume   212.86977524
_cell_formula_units_Z   4
loop_
 _symmetry_equiv_pos_site_id
 _symmetry_equiv_pos_as_xyz
  1  'x, y, z'
loop_
 _atom_site_type_symbol
 _atom_site_label
 _atom_site_symmetry_multiplicity
 _atom_site_fract_x
 _atom_site_fract_y
 _atom_site_fract_z
 _atom_site_occupancy
  Hf  Hf0  1  0.25000000  0.50065400  0.20064900  1
  Hf  Hf1  1  0.75000000  0.49934600  0.79935100  1
  Hf  Hf2  1  0.75000000  0.99934600  0.70064900  1
  Hf  Hf3  1  0.25000000  0.00065400  0.29935100  1
  Ni  Ni0  1  0.25000000  0.68342200  0.58946500  1
  Ni  Ni1  1  0.75000000  0.31657800  0.41053500  1
  Ni  Ni2  1  0.75000000  0.81657800  0.08946500  1
  Ni  Ni3  1  0.25000000  0.18342200  0.91053500  1
  Sb  Sb0  1  0.25000000  0.78696100  0.91060500  1
  Sb  Sb1  1  0.75000000  0.21303900  0.08939500  1
  Sb  Sb2  1  0.75000000  0.71303900  0.41060500  1
  Sb  Sb3  1  0.25000000  0.28696100  0.58939500  1
loop_
_geom_bond_atom_site_label_1
_geom_bond_atom_site_label_2
_geom_bond_distance
_geom_bond_site_symmetry_2
Hf0 Ni1 2.911857 1_555
Hf0 Ni1 2.911857 1_455
Hf0 Sb0 2.917178 1_554
Hf0 Sb1 2.962226 1_455
Hf0 Sb1 2.962226 1_555
Hf0 Sb2 2.995578 1_455
Hf0 Sb2 2.995578 1_555
Hf0 Ni3 3.054819 1_554
Hf0 Ni2 3.086124 1_455
Hf0 Ni2 3.086124 1_555
Hf0 Ni0 3.207942 1_555
Hf0 Sb3 3.290307 1_555
Hf1 Ni0 2.911857 1_655
Hf1 Ni0 2.911857 1_555
Hf1 Sb1 2.917178 1_556
Hf1 Sb0 2.962226 1_655
Hf1 Sb0 2.962226 1_555
Hf1 Sb3 2.995578 1_555
Hf1 Sb3 2.995578 1_655
Hf1 Ni2 3.054819 1_556
Hf1 Ni3 3.086124 1_555
Hf1 Ni3 3.086124 1_655
Hf1 Ni1 3.207942 1_555
Hf1 Sb2 3.290307 1_555
Hf2 Ni3 2.911857 1_565
Hf2 Ni3 2.911857 1_665
Hf2 Sb2 2.917178 1_555
Hf2 Sb3 2.962226 1_665
Hf2 Sb3 2.962226 1_565
Hf2 Sb0 2.995578 1_655
Hf2 Sb0 2.995578 1_555
Hf2 Ni1 3.054819 1_565
Hf2 Ni0 3.086124 1_555
Hf2 Ni0 3.086124 1_655
Hf2 Ni2 3.207942 1_556
Hf2 Sb1 3.290307 1_566
Hf3 Ni2 2.911857 1_445
Hf3 Ni2 2.911857 1_545
Hf3 Sb3 2.917178 1_555
Hf3 Sb2 2.962226 1_545
Hf3 Sb2 2.962226 1_445
Hf3 Sb1 2.995578 1_455
Hf3 Sb1 2.995578 1_555
Hf3 Ni0 3.054819 1_545
Hf3 Ni1 3.086124 1_455
Hf3 Ni1 3.086124 1_555
Hf3 Ni3 3.207942 1_554
Hf3 Sb0 3.290307 1_544
Ni0 Sb2 2.515049 1_555
Ni0 Sb2 2.515049 1_455
Ni0 Sb0 2.547615 1_555
Ni0 Sb3 2.627239 1_555
Ni1 Sb3 2.515049 1_655
Ni1 Sb3 2.515049 1_555
Ni1 Sb1 2.547615 1_555
Ni1 Sb2 2.627239 1_555
Ni2 Sb0 2.515049 1_654
Ni2 Sb0 2.515049 1_554
Ni2 Sb2 2.547615 1_555
Ni2 Sb1 2.627239 1_565
Ni3 Sb1 2.515049 1_556
Ni3 Sb1 2.515049 1_456
Ni3 Sb3 2.547615 1_555
Ni3 Sb0 2.627239 1_545
