# generated using pymatgen
data_YbEu(SiAu)4
_symmetry_space_group_name_H-M   'P 1'
_cell_length_a   4.31256801
_cell_length_b   4.31256801
_cell_length_c   10.02948755
_cell_angle_alpha   90.00000000
_cell_angle_beta   90.00000000
_cell_angle_gamma   90.00000000
_symmetry_Int_Tables_number   1
_chemical_formula_structural   YbEu(SiAu)4
_chemical_formula_sum   'Yb1 Eu1 Si4 Au4'
_cell_volume   186.53084534
_cell_formula_units_Z   1
loop_
 _symmetry_equiv_pos_site_id
 _symmetry_equiv_pos_as_xyz
  1  'x, y, z'
loop_
 _atom_site_type_symbol
 _atom_site_label
 _atom_site_symmetry_multiplicity
 _atom_site_fract_x
 _atom_site_fract_y
 _atom_site_fract_z
 _atom_site_occupancy
  Yb  Yb0  1  0.50000000  0.50000000  0.50000000  1
  Eu  Eu0  1  0.00000000  0.00000000  0.00000000  1
  Si  Si0  1  0.50000000  0.50000000  0.11593902  1
  Si  Si1  1  0.00000000  0.00000000  0.61344728  1
  Si  Si2  1  0.00000000  0.00000000  0.38655272  1
  Si  Si3  1  0.50000000  0.50000000  0.88406098  1
  Au  Au0  1  0.00000000  0.50000000  0.25845048  1
  Au  Au1  1  0.50000000  0.00000000  0.74154952  1
  Au  Au2  1  0.50000000  0.00000000  0.25845048  1
  Au  Au3  1  0.00000000  0.50000000  0.74154952  1
loop_
_geom_bond_atom_site_label_1
_geom_bond_atom_site_label_2
_geom_bond_distance
_geom_bond_site_symmetry_2
Eu0 Si3 3.263625 1_454
Eu0 Si3 3.263625 1_444
Eu0 Si3 3.263625 1_554
Eu0 Si3 3.263625 1_544
Eu0 Si0 3.263625 1_445
Eu0 Si0 3.263625 1_545
Eu0 Si0 3.263625 1_455
Eu0 Si0 3.263625 1_555
Si0 Si3 2.325618 1_554
Si1 Si2 2.275636 1_555
Si1 Yb0 3.254804 1_455
Si1 Yb0 3.254804 1_545
Si1 Yb0 3.254804 1_555
Si1 Yb0 3.254804 1_445
Si2 Yb0 3.254804 1_445
Si2 Yb0 3.254804 1_455
Si2 Yb0 3.254804 1_545
Si2 Yb0 3.254804 1_555
Au0 Si2 2.510034 1_565
Au0 Si2 2.510034 1_555
Au0 Si0 2.586988 1_455
Au0 Si0 2.586988 1_555
Au0 Yb0 3.243245 1_555
Au0 Yb0 3.243245 1_455
Au0 Eu0 3.371747 1_555
Au0 Eu0 3.371747 1_565
Au1 Si1 2.510034 1_655
Au1 Si1 2.510034 1_555
Au1 Si3 2.586988 1_545
Au1 Si3 2.586988 1_555
Au1 Yb0 3.243245 1_545
Au1 Yb0 3.243245 1_555
Au1 Eu0 3.371747 1_556
Au1 Eu0 3.371747 1_656
Au2 Si2 2.510034 1_655
Au2 Si2 2.510034 1_555
Au2 Si0 2.586988 1_555
Au2 Si0 2.586988 1_545
Au2 Yb0 3.243245 1_545
Au2 Yb0 3.243245 1_555
Au2 Eu0 3.371747 1_555
Au2 Eu0 3.371747 1_655
Au3 Si1 2.510034 1_555
Au3 Si1 2.510034 1_565
Au3 Si3 2.586988 1_455
Au3 Si3 2.586988 1_555
Au3 Yb0 3.243245 1_455
Au3 Yb0 3.243245 1_555
Au3 Eu0 3.371747 1_556
Au3 Eu0 3.371747 1_566
