# generated using pymatgen
data_SrCdSn
_symmetry_space_group_name_H-M   'P 1'
_cell_length_a   4.99012145
_cell_length_b   6.35087503
_cell_length_c   6.56725346
_cell_angle_alpha   94.70222037
_cell_angle_beta   112.39223195
_cell_angle_gamma   66.93202593
_symmetry_Int_Tables_number   1
_chemical_formula_structural   SrCdSn
_chemical_formula_sum   'Sr2 Cd2 Sn2'
_cell_volume   176.49217043
_cell_formula_units_Z   2
loop_
 _symmetry_equiv_pos_site_id
 _symmetry_equiv_pos_as_xyz
  1  'x, y, z'
loop_
 _atom_site_type_symbol
 _atom_site_label
 _atom_site_symmetry_multiplicity
 _atom_site_fract_x
 _atom_site_fract_y
 _atom_site_fract_z
 _atom_site_occupancy
  Sr  Sr0  1  0.74642623  0.70850329  0.20210399  1
  Sr  Sr1  1  0.25357377  0.29149671  0.79789601  1
  Cd  Cd0  1  0.56709081  0.27621098  0.41101835  1
  Cd  Cd1  1  0.43290919  0.72378902  0.58898165  1
  Sn  Sn0  1  0.04658633  0.11580406  0.21057871  1
  Sn  Sn1  1  0.95341367  0.88419594  0.78942129  1
loop_
_geom_bond_atom_site_label_1
_geom_bond_atom_site_label_2
_geom_bond_distance
_geom_bond_site_symmetry_2
Cd0 Cd1 2.907608 1_555
Cd0 Sn0 2.960644 1_655
Cd0 Sn0 2.960690 1_555
Cd0 Sn1 3.113442 1_545
Cd0 Sr1 3.432394 1_555
Cd0 Sr1 3.433461 1_655
Cd0 Sr0 3.643954 1_545
Cd0 Sr0 3.701216 1_555
Cd0 Sr0 3.703611 1_455
Cd0 Sr1 3.716929 1_554
Cd1 Sn1 2.960644 1_455
Cd1 Sn1 2.960690 1_555
Cd1 Sn0 3.113442 1_565
Cd1 Sr0 3.432394 1_555
Cd1 Sr0 3.433461 1_455
Cd1 Sr1 3.643954 1_565
Cd1 Sr1 3.701216 1_555
Cd1 Sr1 3.703611 1_655
Cd1 Sr0 3.716929 1_556
Sn0 Sn1 2.986440 1_444
Sn0 Sr0 3.447725 1_445
Sn0 Sr0 3.454799 1_545
Sn0 Sr0 3.459490 1_455
Sn0 Sr1 3.621365 1_454
Sn0 Sr1 3.631634 1_554
Sn0 Sr1 3.788275 1_555
Sn1 Sr1 3.447725 1_665
Sn1 Sr1 3.454799 1_565
Sn1 Sr1 3.459490 1_655
Sn1 Sr0 3.621365 1_656
Sn1 Sr0 3.631634 1_556
Sn1 Sr0 3.788275 1_555
