# generated using pymatgen
data_Ga3Cu3(Te2Se)2
_symmetry_space_group_name_H-M   'P 1'
_cell_length_a   18.26234670
_cell_length_b   18.26234670
_cell_length_c   5.95940958
_cell_angle_alpha   80.70418468
_cell_angle_beta   80.70418468
_cell_angle_gamma   18.80932818
_symmetry_Int_Tables_number   1
_chemical_formula_structural   Ga3Cu3(Te2Se)2
_chemical_formula_sum   'Ga6 Cu6 Te8 Se4'
_cell_volume   632.17499541
_cell_formula_units_Z   2
loop_
 _symmetry_equiv_pos_site_id
 _symmetry_equiv_pos_as_xyz
  1  'x, y, z'
loop_
 _atom_site_type_symbol
 _atom_site_label
 _atom_site_symmetry_multiplicity
 _atom_site_fract_x
 _atom_site_fract_y
 _atom_site_fract_z
 _atom_site_occupancy
  Ga  Ga0  1  0.08487800  0.83835200  0.28967000  1
  Ga  Ga1  1  0.74061800  0.51104900  0.63421500  1
  Ga  Ga2  1  0.40605500  0.18026500  0.96822100  1
  Ga  Ga3  1  0.16164800  0.91512200  0.71033000  1
  Ga  Ga4  1  0.81973500  0.59394500  0.03177900  1
  Ga  Ga5  1  0.48895100  0.25938200  0.36578500  1
  Cu  Cu0  1  0.58797000  0.33542500  0.78783000  1
  Cu  Cu1  1  0.26173900  0.99083700  0.11375200  1
  Cu  Cu2  1  0.92898200  0.65753300  0.44520000  1
  Cu  Cu3  1  0.00916300  0.73826100  0.88624800  1
  Cu  Cu4  1  0.66457500  0.41203000  0.21217000  1
  Cu  Cu5  1  0.34246700  0.07101800  0.55480000  1
  Te  Te0  1  0.05200300  0.28135500  0.33335500  1
  Te  Te1  1  0.71864500  0.94799700  0.66664500  1
  Te  Te2  1  0.79286500  0.04267300  0.06820300  1
  Te  Te3  1  0.45708800  0.70723300  0.40624000  1
  Te  Te4  1  0.12492000  0.37500900  0.73690300  1
  Te  Te5  1  0.29276700  0.54291200  0.59376000  1
  Te  Te6  1  0.95732700  0.20713500  0.93179700  1
  Te  Te7  1  0.62499100  0.87508000  0.26309700  1
  Se  Se0  1  0.87131700  0.12868300  0.50000000  1
  Se  Se1  1  0.53331500  0.79923800  0.83378300  1
  Se  Se2  1  0.20076200  0.46668500  0.16621700  1
  Se  Se3  1  0.37721600  0.62278400  0.00000000  1
loop_
_geom_bond_atom_site_label_1
_geom_bond_atom_site_label_2
_geom_bond_distance
_geom_bond_site_symmetry_2
Ga0 Se0 2.512588 1_465
Ga0 Se3 2.531504 1_555
Ga0 Te5 2.663126 1_555
Ga0 Te2 2.667349 1_465
Ga1 Se1 2.508415 1_555
Ga1 Te3 2.659285 1_555
Ga1 Te6 2.667377 1_555
Ga1 Te0 2.669073 1_655
Ga2 Se2 2.499322 1_556
Ga2 Te4 2.653740 1_555
Ga2 Te7 2.656104 1_546
Ga2 Te1 2.667635 1_545
Ga3 Se0 2.512588 1_465
Ga3 Se3 2.531504 1_556
Ga3 Te3 2.663126 1_555
Ga3 Te6 2.667349 1_465
Ga4 Se1 2.499322 1_554
Ga4 Te7 2.653740 1_555
Ga4 Te4 2.656104 1_654
Ga4 Te0 2.667635 1_655
Ga5 Se2 2.508415 1_555
Ga5 Te5 2.659285 1_555
Ga5 Te2 2.667377 1_555
Ga5 Te1 2.669073 1_545
Cu0 Se0 2.492158 1_555
Cu0 Se3 2.506922 1_556
Cu0 Te2 2.576182 1_556
Cu0 Te5 2.585351 1_555
Cu1 Se1 2.446063 1_554
Cu1 Te6 2.583482 1_464
Cu1 Te0 2.585217 1_565
Cu1 Te3 2.588792 1_555
Cu2 Se2 2.449986 1_655
Cu2 Te7 2.564979 1_555
Cu2 Te4 2.570253 1_655
Cu2 Te1 2.585149 1_555
Cu3 Se2 2.446063 1_556
Cu3 Te2 2.583482 1_466
Cu3 Te1 2.585217 1_455
Cu3 Te5 2.588792 1_555
Cu4 Se0 2.492158 1_555
Cu4 Se3 2.506922 1_555
Cu4 Te6 2.576182 1_554
Cu4 Te3 2.585351 1_555
Cu5 Se1 2.449986 1_545
Cu5 Te4 2.564979 1_555
Cu5 Te7 2.570253 1_545
Cu5 Te0 2.585149 1_555
