# generated using pymatgen
data_CaFeP2O7
_symmetry_space_group_name_H-M   'P 1'
_cell_length_a   7.33241153
_cell_length_b   9.78334029
_cell_length_c   8.67192917
_cell_angle_alpha   105.87316253
_cell_angle_beta   110.49958444
_cell_angle_gamma   69.67493662
_symmetry_Int_Tables_number   1
_chemical_formula_structural   CaFeP2O7
_chemical_formula_sum   'Ca4 Fe4 P8 O28'
_cell_volume   538.18187849
_cell_formula_units_Z   4
loop_
 _symmetry_equiv_pos_site_id
 _symmetry_equiv_pos_as_xyz
  1  'x, y, z'
loop_
 _atom_site_type_symbol
 _atom_site_label
 _atom_site_symmetry_multiplicity
 _atom_site_fract_x
 _atom_site_fract_y
 _atom_site_fract_z
 _atom_site_occupancy
  Ca  Ca0  1  0.51994100  0.65055700  0.79318800  1
  Ca  Ca1  1  0.01989100  0.15072800  0.29315200  1
  Ca  Ca2  1  0.98008500  0.84926000  0.70683300  1
  Ca  Ca3  1  0.48005500  0.34943400  0.20683700  1
  Fe  Fe0  1  0.51051200  0.26122800  0.61286000  1
  Fe  Fe1  1  0.48931000  0.73874900  0.38697500  1
  Fe  Fe2  1  0.01047900  0.76133900  0.11286700  1
  Fe  Fe3  1  0.98953100  0.23866500  0.88711800  1
  P  P0  1  0.18756800  0.56095600  0.41461600  1
  P  P1  1  0.68759500  0.06098000  0.91468000  1
  P  P2  1  0.31243200  0.93902700  0.08532800  1
  P  P3  1  0.81243900  0.43903800  0.58541700  1
  P  P4  1  0.70038200  0.97047400  0.34151200  1
  P  P5  1  0.20037000  0.47031200  0.84146500  1
  P  P6  1  0.79965700  0.52971500  0.15858700  1
  P  P7  1  0.29966200  0.02950700  0.65846100  1
  O  O0  1  0.54847500  0.93038500  0.15788900  1
  O  O1  1  0.04852900  0.43029700  0.65783900  1
  O  O2  1  0.95150200  0.56965000  0.34221000  1
  O  O3  1  0.45157500  0.06950900  0.84207200  1
  O  O4  1  0.81509800  0.89889100  0.91702400  1
  O  O5  1  0.31498400  0.39886200  0.41685900  1
  O  O6  1  0.68507300  0.60115400  0.58318000  1
  O  O7  1  0.18494900  0.10112300  0.08298500  1
  O  O8  1  0.79005000  0.63320400  0.04847300  1
  O  O9  1  0.28988400  0.13313700  0.54844500  1
  O  O10  1  0.71025000  0.86685300  0.45155800  1
  O  O11  1  0.20998200  0.36680800  0.95156200  1
  O  O12  1  0.59705600  0.56422300  0.19760100  1
  O  O13  1  0.09716700  0.06375900  0.69750500  1
  O  O14  1  0.90286100  0.93627000  0.30246900  1
  O  O15  1  0.40298200  0.43587900  0.80252500  1
  O  O16  1  0.29539500  0.84410100  0.91311400  1
  O  O17  1  0.79521100  0.34418500  0.41315700  1
  O  O18  1  0.20480200  0.65579000  0.58687500  1
  O  O19  1  0.70457200  0.15590100  0.08688900  1
  O  O20  1  0.25727500  0.87941000  0.20711400  1
  O  O21  1  0.75740900  0.37942400  0.70725700  1
  O  O22  1  0.24251000  0.62058300  0.29274800  1
  O  O23  1  0.74272000  0.12063000  0.79291800  1
  O  O24  1  0.88819700  0.36648400  0.09479400  1
  O  O25  1  0.38845400  0.86631400  0.59464400  1
  O  O26  1  0.61141700  0.13366700  0.40520800  1
  O  O27  1  0.11170700  0.63353500  0.90518600  1
loop_
_geom_bond_atom_site_label_1
_geom_bond_atom_site_label_2
_geom_bond_distance
_geom_bond_site_symmetry_2
Ca0 O16 2.309572 1_555
Ca0 O18 2.369685 1_555
Ca0 O6 2.381758 1_555
Ca0 O8 2.398629 1_556
Ca0 O15 2.558528 1_555
Ca0 O21 2.691147 1_555
Ca0 O25 2.785892 1_555
Ca1 O17 2.310092 1_455
Ca1 O19 2.370497 1_455
Ca1 O7 2.382238 1_555
Ca1 O9 2.398355 1_555
Ca1 O14 2.556756 1_445
Ca1 O20 2.692357 1_545
Ca1 O24 2.784547 1_455
Ca2 O18 2.310114 1_655
Ca2 O16 2.370531 1_655
Ca2 O4 2.382010 1_555
Ca2 O10 2.397701 1_555
Ca2 O13 2.557412 1_665
Ca2 O23 2.692746 1_565
Ca2 O27 2.784342 1_655
Ca3 O19 2.309490 1_555
Ca3 O17 2.369781 1_555
Ca3 O5 2.381506 1_555
Ca3 O11 2.398454 1_554
Ca3 O12 2.559422 1_555
Ca3 O22 2.691441 1_555
Ca3 O26 2.785037 1_555
Fe0 O26 2.099989 1_555
Fe0 O15 2.163687 1_555
Fe0 O9 2.211784 1_555
Fe0 O23 2.216979 1_555
Fe0 O5 2.227481 1_555
Fe0 O21 2.276649 1_555
Fe1 O25 2.099959 1_555
Fe1 O12 2.162000 1_555
Fe1 O10 2.213570 1_555
Fe1 O20 2.215895 1_555
Fe1 O6 2.228787 1_555
Fe1 O22 2.275931 1_555
Fe2 O27 2.101817 1_554
Fe2 O14 2.164798 1_455
Fe2 O8 2.210911 1_455
Fe2 O22 2.216499 1_555
Fe2 O4 2.225865 1_454
Fe2 O20 2.275259 1_555
Fe3 O24 2.102163 1_556
Fe3 O13 2.164797 1_655
Fe3 O11 2.211037 1_655
Fe3 O21 2.216614 1_555
Fe3 O7 2.225999 1_656
Fe3 O23 2.275134 1_555
O0 P2 1.601031 1_555
O0 P4 1.627786 1_555
O1 P3 1.601107 1_455
O1 P5 1.627445 1_555
O2 P0 1.601039 1_655
O2 P6 1.627275 1_555
O3 P1 1.601125 1_555
O3 P7 1.627555 1_555
O4 P1 1.537382 1_565
O5 P0 1.537194 1_555
O6 P3 1.537277 1_555
O7 P2 1.537401 1_545
O8 P6 1.540808 1_555
O9 P7 1.540761 1_555
O10 P4 1.540630 1_555
O11 P5 1.540797 1_555
O12 P6 1.541573 1_555
O13 P7 1.541395 1_555
O14 P4 1.541360 1_555
O15 P5 1.541461 1_555
O16 P2 1.516460 1_556
O17 P3 1.516440 1_555
O18 P0 1.516362 1_555
O19 P1 1.516429 1_554
O20 P2 1.555354 1_555
O21 P3 1.555159 1_555
O22 P0 1.555049 1_555
O23 P1 1.555235 1_555
O24 P6 1.525061 1_555
O25 P7 1.525161 1_565
O26 P4 1.525166 1_545
O27 P5 1.525029 1_555
