# generated using pymatgen
data_Cs2HfF6
_symmetry_space_group_name_H-M   'P 1'
_cell_length_a   6.36074430
_cell_length_b   6.36074362
_cell_length_c   4.97031964
_cell_angle_alpha   90.00000000
_cell_angle_beta   90.00000000
_cell_angle_gamma   119.99999831
_symmetry_Int_Tables_number   1
_chemical_formula_structural   Cs2HfF6
_chemical_formula_sum   'Cs2 Hf1 F6'
_cell_volume   174.15293052
_cell_formula_units_Z   1
loop_
 _symmetry_equiv_pos_site_id
 _symmetry_equiv_pos_as_xyz
  1  'x, y, z'
loop_
 _atom_site_type_symbol
 _atom_site_label
 _atom_site_symmetry_multiplicity
 _atom_site_fract_x
 _atom_site_fract_y
 _atom_site_fract_z
 _atom_site_occupancy
  Cs  Cs0  1  0.33333300  0.66666700  0.69548101  1
  Cs  Cs1  1  0.66666700  0.33333300  0.30451899  1
  Hf  Hf0  1  0.00000000  0.00000000  0.00000000  1
  F  F0  1  0.84892582  0.15107418  0.77846776  1
  F  F1  1  0.84892582  0.69785265  0.77846776  1
  F  F2  1  0.30214735  0.15107418  0.77846776  1
  F  F3  1  0.15107418  0.84892582  0.22153224  1
  F  F4  1  0.15107418  0.30214735  0.22153224  1
  F  F5  1  0.69785265  0.84892582  0.22153224  1
loop_
_geom_bond_atom_site_label_1
_geom_bond_atom_site_label_2
_geom_bond_distance
_geom_bond_site_symmetry_2
Cs0 F3 3.095344 1_555
Cs0 F4 3.095351 1_555
Cs0 F5 3.095351 1_555
Cs0 F2 3.211605 1_555
Cs0 F2 3.211605 1_565
Cs0 F0 3.211605 1_455
Cs0 F0 3.211605 1_565
Cs0 F1 3.211606 1_555
Cs0 F1 3.211606 1_455
Cs0 F3 3.296710 1_556
Cs0 F4 3.296717 1_556
Cs0 F5 3.296717 1_556
Cs1 F0 3.095344 1_555
Cs1 F1 3.095351 1_555
Cs1 F2 3.095351 1_555
Cs1 F5 3.211605 1_555
Cs1 F5 3.211605 1_545
Cs1 F3 3.211605 1_655
Cs1 F3 3.211605 1_545
Cs1 F4 3.211606 1_555
Cs1 F4 3.211606 1_655
Cs1 F0 3.296710 1_554
Cs1 F1 3.296717 1_554
Cs1 F2 3.296717 1_554
F0 Hf0 1.995653 1_656
F1 Hf0 1.995648 1_666
F2 Hf0 1.995649 1_556
F3 Hf0 1.995653 1_565
F4 Hf0 1.995648 1_555
F5 Hf0 1.995649 1_665
