# generated using pymatgen
data_KCN
_symmetry_space_group_name_H-M   'P 1'
_cell_length_a   4.60180500
_cell_length_b   7.82121616
_cell_length_c   8.43649060
_cell_angle_alpha   70.93422684
_cell_angle_beta   87.70971607
_cell_angle_gamma   86.06574778
_symmetry_Int_Tables_number   1
_chemical_formula_structural   KCN
_chemical_formula_sum   'K4 C4 N4'
_cell_volume   286.26122145
_cell_formula_units_Z   4
loop_
 _symmetry_equiv_pos_site_id
 _symmetry_equiv_pos_as_xyz
  1  'x, y, z'
loop_
 _atom_site_type_symbol
 _atom_site_label
 _atom_site_symmetry_multiplicity
 _atom_site_fract_x
 _atom_site_fract_y
 _atom_site_fract_z
 _atom_site_occupancy
  K  K0  1  0.78866700  0.52284500  0.23914800  1
  K  K1  1  0.20847600  0.47741600  0.75472000  1
  K  K2  1  0.29443000  0.01832800  0.25807400  1
  K  K3  1  0.70402800  0.98353500  0.73673900  1
  C  C0  1  0.81784300  0.79835000  0.44920700  1
  C  C1  1  0.32559100  0.29895600  0.45039800  1
  C  C2  1  0.18983200  0.73765500  0.94644400  1
  C  C3  1  0.69285300  0.23241000  0.94976500  1
  N  N0  1  0.18086300  0.19824000  0.55336200  1
  N  N1  1  0.67061700  0.69969000  0.55218900  1
  N  N2  1  0.81365300  0.26532100  0.05620900  1
  N  N3  1  0.31314700  0.76725500  0.05374400  1
loop_
_geom_bond_atom_site_label_1
_geom_bond_atom_site_label_2
_geom_bond_distance
_geom_bond_site_symmetry_2
K0 N2 2.904631 1_555
K0 N3 2.938595 1_555
K0 N3 3.209980 1_655
K0 N1 3.369207 1_555
K1 N1 2.956485 1_555
K1 N2 3.132101 1_456
K1 N1 3.142436 1_455
K1 N0 3.185617 1_555
K2 N3 3.001919 1_545
K2 N2 3.015354 1_455
K2 N2 3.240374 1_555
K2 N0 3.247206 1_555
K2 N1 3.328041 1_545
K3 N0 2.926659 1_665
K3 N0 3.009160 1_565
K3 N1 3.114531 1_555
K3 N3 3.213554 1_556
C0 N1 1.181516 1_555
C0 K2 2.965277 1_665
C0 K2 3.048131 1_565
C0 K3 3.216536 1_555
C0 K0 3.217938 1_555
C0 K1 3.420490 1_655
C1 N0 1.182099 1_555
C1 K0 2.992213 1_555
C1 K2 3.139894 1_555
C1 K0 3.172840 1_455
C1 K3 3.287514 1_545
C1 K1 3.310221 1_555
C2 N3 1.179436 1_556
C2 K1 2.980293 1_555
C2 K3 3.054415 1_455
C2 K0 3.111177 1_456
C2 K3 3.239503 1_555
C3 N2 1.179939 1_556
C3 K1 2.999194 1_555
C3 K3 3.047249 1_545
C3 K2 3.182052 1_556
C3 K1 3.203389 1_655
