# generated using pymatgen
data_GdHCO4
_symmetry_space_group_name_H-M   'P 1'
_cell_length_a   4.91652700
_cell_length_b   7.16437600
_cell_length_c   8.61135100
_cell_angle_alpha   90.00000000
_cell_angle_beta   90.00000000
_cell_angle_gamma   90.00000000
_symmetry_Int_Tables_number   1
_chemical_formula_structural   GdHCO4
_chemical_formula_sum   'Gd4 H4 C4 O16'
_cell_volume   303.32491906
_cell_formula_units_Z   4
loop_
 _symmetry_equiv_pos_site_id
 _symmetry_equiv_pos_as_xyz
  1  'x, y, z'
loop_
 _atom_site_type_symbol
 _atom_site_label
 _atom_site_symmetry_multiplicity
 _atom_site_fract_x
 _atom_site_fract_y
 _atom_site_fract_z
 _atom_site_occupancy
  Gd  Gd0  1  0.75151400  0.13862800  0.33764600  1
  Gd  Gd1  1  0.74848600  0.63862800  0.16235400  1
  Gd  Gd2  1  0.25151400  0.86137200  0.66235400  1
  Gd  Gd3  1  0.24848600  0.36137200  0.83764600  1
  H  H0  1  0.85243000  0.50398700  0.47031800  1
  H  H1  1  0.64757000  0.00398700  0.02968200  1
  H  H2  1  0.35243000  0.49601300  0.52968200  1
  H  H3  1  0.14757000  0.99601300  0.97031800  1
  C  C0  1  0.25125400  0.30117800  0.17215100  1
  C  C1  1  0.24874600  0.80117800  0.32784900  1
  C  C2  1  0.75125500  0.69882200  0.82784900  1
  C  C3  1  0.74874500  0.19882200  0.67215100  1
  O  O0  1  0.02518400  0.34581200  0.10360700  1
  O  O1  1  0.47481600  0.84581200  0.39639300  1
  O  O2  1  0.52518400  0.65418800  0.89639300  1
  O  O3  1  0.97481600  0.15418800  0.60360700  1
  O  O4  1  0.98137400  0.65360800  0.89197000  1
  O  O5  1  0.51862600  0.15360800  0.60803000  1
  O  O6  1  0.48137400  0.34639200  0.10803000  1
  O  O7  1  0.01862600  0.84639200  0.39197000  1
  O  O8  1  0.74365600  0.45678800  0.38328100  1
  O  O9  1  0.75634400  0.95678800  0.11671900  1
  O  O10  1  0.24365600  0.54321200  0.61671900  1
  O  O11  1  0.25634400  0.04321200  0.88328100  1
  O  O12  1  0.24896000  0.20370800  0.29794500  1
  O  O13  1  0.25104000  0.70370800  0.20205500  1
  O  O14  1  0.74896000  0.79629200  0.70205500  1
  O  O15  1  0.75104000  0.29629200  0.79794500  1
loop_
_geom_bond_atom_site_label_1
_geom_bond_atom_site_label_2
_geom_bond_distance
_geom_bond_site_symmetry_2
Gd0 O9 2.305906 1_545
Gd0 O8 2.313368 1_555
Gd0 O12 2.513117 1_655
Gd0 O7 2.515359 1_645
Gd0 O12 2.537564 1_555
Gd0 O3 2.542272 1_555
Gd0 O1 2.550989 1_545
Gd0 O5 2.596894 1_555
Gd0 O6 2.808798 1_555
Gd0 O0 2.841737 1_655
Gd1 O8 2.305906 1_555
Gd1 O9 2.313368 1_555
Gd1 O13 2.513117 1_555
Gd1 O6 2.515359 1_555
Gd1 O13 2.537564 1_655
Gd1 O2 2.542272 1_554
Gd1 O0 2.550989 1_655
Gd1 O4 2.596894 1_554
Gd1 O7 2.808798 1_655
Gd1 O1 2.841737 1_555
Gd2 O11 2.305906 1_565
Gd2 O10 2.313368 1_555
Gd2 O14 2.513117 1_555
Gd2 O5 2.515359 1_565
Gd2 O14 2.537564 1_455
Gd2 O1 2.542272 1_555
Gd2 O3 2.550989 1_465
Gd2 O7 2.596894 1_555
Gd2 O4 2.808798 1_455
Gd2 O2 2.841737 1_555
Gd3 O10 2.305906 1_555
Gd3 O11 2.313368 1_555
Gd3 O15 2.513117 1_455
Gd3 O4 2.515359 1_455
Gd3 O15 2.537564 1_555
Gd3 O0 2.542272 1_556
Gd3 O2 2.550989 1_555
Gd3 O6 2.596894 1_556
Gd3 O5 2.808798 1_555
Gd3 O3 2.841737 1_455
H0 O8 0.980870 1_555
H1 O9 0.980870 1_545
H2 O10 0.980870 1_555
H3 O11 0.980870 1_565
C0 O12 1.288880 1_555
C0 O0 1.298478 1_555
C0 O6 1.299949 1_555
C1 O13 1.288880 1_555
C1 O1 1.298478 1_555
C1 O7 1.299949 1_555
C2 O14 1.288880 1_555
C2 O2 1.298482 1_555
C2 O4 1.299944 1_555
C3 O15 1.288880 1_555
C3 O3 1.298482 1_555
C3 O5 1.299944 1_555
