# generated using pymatgen
data_Mg2Si3
_symmetry_space_group_name_H-M   'P 1'
_cell_length_a   3.55235000
_cell_length_b   6.06918544
_cell_length_c   17.98006139
_cell_angle_alpha   94.84886365
_cell_angle_beta   94.39972247
_cell_angle_gamma   106.99883422
_symmetry_Int_Tables_number   1
_chemical_formula_structural   Mg2Si3
_chemical_formula_sum   'Mg8 Si12'
_cell_volume   367.28655951
_cell_formula_units_Z   4
loop_
 _symmetry_equiv_pos_site_id
 _symmetry_equiv_pos_as_xyz
  1  'x, y, z'
loop_
 _atom_site_type_symbol
 _atom_site_label
 _atom_site_symmetry_multiplicity
 _atom_site_fract_x
 _atom_site_fract_y
 _atom_site_fract_z
 _atom_site_occupancy
  Mg  Mg0  1  0.72486800  0.13671800  0.20245600  1
  Mg  Mg1  1  0.82690600  0.73752000  0.80479700  1
  Mg  Mg2  1  0.46665400  0.81578400  0.05534000  1
  Mg  Mg3  1  0.08673900  0.06796800  0.94660700  1
  Mg  Mg4  1  0.06884700  0.34503100  0.69690400  1
  Mg  Mg5  1  0.46280200  0.53800400  0.29750300  1
  Mg  Mg6  1  0.09306600  0.56168700  0.54598300  1
  Mg  Mg7  1  0.73569000  0.87482600  0.45384000  1
  Si  Si0  1  0.73613800  0.30399400  0.05193400  1
  Si  Si1  1  0.80241600  0.56669300  0.94963700  1
  Si  Si2  1  0.34777500  0.44832100  0.14174500  1
  Si  Si3  1  0.19597200  0.42272800  0.85735300  1
  Si  Si4  1  0.35008300  0.96180200  0.67827500  1
  Si  Si5  1  0.16926300  0.91824000  0.31564100  1
  Si  Si6  1  0.40343300  0.13691000  0.55376300  1
  Si  Si7  1  0.45280900  0.37268600  0.44101600  1
  Si  Si8  1  0.70716200  0.69271600  0.65730300  1
  Si  Si9  1  0.83335600  0.21753500  0.35488400  1
  Si  Si10  1  0.01157200  0.74969900  0.18168300  1
  Si  Si11  1  0.52426100  0.13115900  0.81322500  1
loop_
_geom_bond_atom_site_label_1
_geom_bond_atom_site_label_2
_geom_bond_distance
_geom_bond_site_symmetry_2
Mg0 Si9 2.720388 1_555
Mg0 Si2 2.817315 1_655
Mg0 Si10 2.828940 1_645
Mg0 Si2 2.858051 1_555
Mg0 Si10 2.881624 1_545
Mg0 Si0 2.968876 1_555
Mg0 Si5 3.055730 1_545
Mg0 Si5 3.095012 1_645
Mg1 Si8 2.631560 1_555
Mg1 Si3 2.773610 1_555
Mg1 Si3 2.800292 1_655
Mg1 Si11 2.878907 1_665
Mg1 Si1 2.881490 1_555
Mg1 Si11 2.889992 1_565
Mg2 Si2 2.775143 1_555
Mg2 Si0 2.842694 1_565
Mg2 Si1 2.864567 1_454
Mg2 Si1 2.869945 1_554
Mg2 Si10 2.876295 1_555
Mg2 Si10 3.000281 1_655
Mg3 Si3 2.748264 1_555
Mg3 Si0 2.810529 1_556
Mg3 Si0 2.852374 1_456
Mg3 Si1 2.918674 1_445
Mg3 Si11 2.948391 1_555
Mg3 Si11 3.123995 1_455
Mg4 Si4 2.792552 1_545
Mg4 Si8 2.793819 1_555
Mg4 Si3 2.862599 1_555
Mg4 Si4 2.882012 1_445
Mg4 Si8 2.882615 1_455
Mg4 Si11 3.068072 1_455
Mg4 Si11 3.137512 1_555
Mg5 Si2 2.782612 1_555
Mg5 Si5 2.802007 1_555
Mg5 Si9 2.827977 1_455
Mg5 Si5 2.844455 1_655
Mg5 Si7 2.845558 1_555
Mg5 Si9 2.864963 1_555
Mg5 Si10 3.065664 1_655
Mg5 Si10 3.114656 1_555
Mg6 Si8 2.703177 1_455
Mg6 Si7 2.715149 1_555
Mg6 Si8 2.728386 1_555
Mg6 Si7 2.738736 1_455
Mg6 Si6 3.014667 1_455
Mg6 Si6 3.095278 1_555
Mg7 Si9 2.812597 1_565
Mg7 Si6 2.835755 1_665
Mg7 Si6 2.844473 1_565
Mg7 Si7 2.899263 1_555
Mg7 Si5 3.012740 1_655
Mg7 Si5 3.153742 1_555
Si0 Si2 2.467277 1_555
Si0 Si2 2.491077 1_655
Si0 Si1 2.514599 1_554
Si1 Si3 2.502699 1_555
Si1 Si3 2.509228 1_655
Si4 Si8 2.366192 1_555
Si4 Si8 2.368186 1_455
Si4 Si6 2.554773 1_565
Si5 Si9 2.526875 1_565
Si5 Si9 2.530056 1_465
Si6 Si7 2.566354 1_555
Si7 Si9 2.435460 1_555
Si7 Si9 2.479181 1_455
Si10 Si5 2.490542 1_555
Si10 Si2 2.533362 1_455
Si10 Si2 2.544513 1_555
Si11 Si3 2.496443 1_555
Si11 Si4 2.510571 1_545
Si11 Si3 2.541246 1_655
