# generated using pymatgen
data_NaCaCeBiO6
_symmetry_space_group_name_H-M   'P 1'
_cell_length_a   5.89613057
_cell_length_b   5.89613057
_cell_length_c   8.64216308
_cell_angle_alpha   90.00000000
_cell_angle_beta   90.00000000
_cell_angle_gamma   90.00000000
_symmetry_Int_Tables_number   1
_chemical_formula_structural   NaCaCeBiO6
_chemical_formula_sum   'Na2 Ca2 Ce2 Bi2 O12'
_cell_volume   300.43923132
_cell_formula_units_Z   2
loop_
 _symmetry_equiv_pos_site_id
 _symmetry_equiv_pos_as_xyz
  1  'x, y, z'
loop_
 _atom_site_type_symbol
 _atom_site_label
 _atom_site_symmetry_multiplicity
 _atom_site_fract_x
 _atom_site_fract_y
 _atom_site_fract_z
 _atom_site_occupancy
  Na  Na0  1  0.50000000  -0.00000000  0.25000000  1
  Na  Na1  1  0.00000000  0.50000000  0.75000000  1
  Ca  Ca0  1  0.00000000  0.50000000  0.25000000  1
  Ca  Ca1  1  0.50000000  -0.00000000  0.75000000  1
  Ce  Ce0  1  0.00000000  -0.00000000  0.50000000  1
  Ce  Ce1  1  0.50000000  0.50000000  -0.00000000  1
  Bi  Bi0  1  0.00000000  -0.00000000  0.00000000  1
  Bi  Bi1  1  0.50000000  0.50000000  0.50000000  1
  O  O0  1  0.00000000  -0.00000000  0.24533043  1
  O  O1  1  0.50000000  0.50000000  0.25466957  1
  O  O2  1  0.00000000  -0.00000000  0.75466957  1
  O  O3  1  0.50000000  0.50000000  0.74533043  1
  O  O4  1  0.32130989  0.16640043  0.98348840  1
  O  O5  1  0.67869011  0.83359957  0.98348840  1
  O  O6  1  0.83359957  0.32130989  0.01651160  1
  O  O7  1  0.16640043  0.67869011  0.01651160  1
  O  O8  1  0.82130989  0.33359957  0.48348840  1
  O  O9  1  0.17869011  0.66640043  0.48348840  1
  O  O10  1  0.33359957  0.17869011  0.51651160  1
  O  O11  1  0.66640043  0.82130989  0.51651160  1
loop_
_geom_bond_atom_site_label_1
_geom_bond_atom_site_label_2
_geom_bond_distance
_geom_bond_site_symmetry_2
Na0 O11 2.716160 1_545
Na0 O10 2.716160 1_555
Na0 O5 2.716160 1_544
Na0 O4 2.716160 1_554
Na0 O1 2.948341 1_545
Na0 O0 2.948341 1_555
Na0 O0 2.948341 1_655
Na0 O1 2.948341 1_555
Na1 O7 2.716160 1_556
Na1 O6 2.716160 1_456
Na1 O8 2.716160 1_455
Na1 O9 2.716160 1_555
Na1 O2 2.948341 1_555
Na1 O3 2.948341 1_455
Na1 O3 2.948341 1_555
Na1 O2 2.948341 1_565
Ca0 O9 2.478774 1_555
Ca0 O8 2.478774 1_455
Ca0 O7 2.478774 1_555
Ca0 O6 2.478774 1_455
Ca0 O0 2.948341 1_555
Ca0 O1 2.948341 1_455
Ca0 O1 2.948341 1_555
Ca0 O0 2.948341 1_565
Ca1 O4 2.478774 1_555
Ca1 O5 2.478774 1_545
Ca1 O10 2.478774 1_555
Ca1 O11 2.478774 1_545
Ca1 O2 2.948341 1_555
Ca1 O3 2.948341 1_555
Ca1 O2 2.948341 1_655
Ca1 O3 2.948341 1_545
Ce0 O2 2.200896 1_555
Ce0 O0 2.200896 1_555
Ce0 O9 2.235905 1_545
Ce0 O11 2.235905 1_445
Ce0 O8 2.235905 1_455
Ce0 O10 2.235905 1_555
Ce1 O1 2.200896 1_555
Ce1 O3 2.200896 1_554
Ce1 O7 2.235905 1_555
Ce1 O6 2.235905 1_555
Ce1 O4 2.235905 1_554
Ce1 O5 2.235905 1_554
Bi0 O0 2.120186 1_555
Bi0 O2 2.120186 1_554
Bi0 O7 2.138230 1_545
Bi0 O6 2.138230 1_455
Bi0 O5 2.138230 1_444
Bi0 O4 2.138230 1_554
Bi1 O3 2.120186 1_555
Bi1 O1 2.120186 1_555
Bi1 O8 2.138230 1_555
Bi1 O10 2.138230 1_555
Bi1 O11 2.138230 1_555
Bi1 O9 2.138230 1_555
