# generated using pymatgen
data_Ca3W
_symmetry_space_group_name_H-M   'P 1'
_cell_length_a   7.08130250
_cell_length_b   7.08130250
_cell_length_c   5.42291300
_cell_angle_alpha   90.00000000
_cell_angle_beta   90.00000000
_cell_angle_gamma   120.00000466
_symmetry_Int_Tables_number   1
_chemical_formula_structural   Ca3W
_chemical_formula_sum   'Ca6 W2'
_cell_volume   235.49925757
_cell_formula_units_Z   2
loop_
 _symmetry_equiv_pos_site_id
 _symmetry_equiv_pos_as_xyz
  1  'x, y, z'
loop_
 _atom_site_type_symbol
 _atom_site_label
 _atom_site_symmetry_multiplicity
 _atom_site_fract_x
 _atom_site_fract_y
 _atom_site_fract_z
 _atom_site_occupancy
  Ca  Ca0  1  0.17933800  0.35867700  0.25000000  1
  Ca  Ca1  1  0.64132300  0.82066200  0.25000000  1
  Ca  Ca2  1  0.17933800  0.82066200  0.25000000  1
  Ca  Ca3  1  0.82066200  0.64132300  0.75000000  1
  Ca  Ca4  1  0.35867700  0.17933800  0.75000000  1
  Ca  Ca5  1  0.82066200  0.17933800  0.75000000  1
  W  W0  1  0.33333300  0.66666700  0.75000000  1
  W  W1  1  0.66666700  0.33333300  0.25000000  1
loop_
_geom_bond_atom_site_label_1
_geom_bond_atom_site_label_2
_geom_bond_distance
_geom_bond_site_symmetry_2
Ca0 W0 3.304462 1_554
Ca0 W0 3.304462 1_555
Ca0 W1 3.544054 1_455
Ca0 W1 3.544068 1_555
Ca1 W0 3.304462 1_554
Ca1 W0 3.304462 1_555
Ca1 W1 3.544054 1_565
Ca1 W1 3.544068 1_555
Ca2 W0 3.304462 1_555
Ca2 W0 3.304462 1_554
Ca2 W1 3.544060 1_455
Ca2 W1 3.544060 1_565
Ca3 W1 3.304462 1_555
Ca3 W1 3.304462 1_556
Ca3 W0 3.544054 1_655
Ca3 W0 3.544068 1_555
Ca4 W1 3.304462 1_555
Ca4 W1 3.304462 1_556
Ca4 W0 3.544054 1_545
Ca4 W0 3.544068 1_555
Ca5 W1 3.304462 1_556
Ca5 W1 3.304462 1_555
Ca5 W0 3.544060 1_545
Ca5 W0 3.544060 1_655
