# generated using pymatgen
data_Ta2CrRe
_symmetry_space_group_name_H-M   'P 1'
_cell_length_a   4.44923281
_cell_length_b   4.44923281
_cell_length_c   4.44923281
_cell_angle_alpha   60.00000000
_cell_angle_beta   60.00000000
_cell_angle_gamma   60.00000000
_symmetry_Int_Tables_number   1
_chemical_formula_structural   Ta2CrRe
_chemical_formula_sum   'Ta2 Cr1 Re1'
_cell_volume   62.27882286
_cell_formula_units_Z   1
loop_
 _symmetry_equiv_pos_site_id
 _symmetry_equiv_pos_as_xyz
  1  'x, y, z'
loop_
 _atom_site_type_symbol
 _atom_site_label
 _atom_site_symmetry_multiplicity
 _atom_site_fract_x
 _atom_site_fract_y
 _atom_site_fract_z
 _atom_site_occupancy
  Ta  Ta0  1  0.25000000  0.25000000  0.25000000  1
  Ta  Ta1  1  0.75000000  0.75000000  0.75000000  1
  Cr  Cr0  1  0.50000000  0.50000000  0.50000000  1
  Re  Re0  1  0.00000000  -0.00000000  0.00000000  1
loop_
_geom_bond_atom_site_label_1
_geom_bond_atom_site_label_2
_geom_bond_distance
_geom_bond_site_symmetry_2
Cr0 Ta1 2.724588 1_554
Cr0 Ta0 2.724588 1_556
Cr0 Ta0 2.724588 1_555
Cr0 Ta1 2.724588 1_455
Cr0 Ta1 2.724588 1_555
Cr0 Ta1 2.724588 1_545
Cr0 Ta0 2.724588 1_655
Cr0 Ta0 2.724588 1_565
Re0 Ta0 2.724588 1_555
Re0 Ta1 2.724588 1_544
Re0 Ta1 2.724588 1_454
Re0 Ta1 2.724588 1_444
Re0 Ta0 2.724588 1_455
Re0 Ta0 2.724588 1_545
Re0 Ta1 2.724588 1_445
Re0 Ta0 2.724588 1_554
