# generated using pymatgen
data_Ba(NiB)2
_symmetry_space_group_name_H-M   'P 1'
_cell_length_a   3.70950811
_cell_length_b   8.06962568
_cell_length_c   10.98291513
_cell_angle_alpha   70.35211585
_cell_angle_beta   91.50452311
_cell_angle_gamma   85.34218016
_symmetry_Int_Tables_number   1
_chemical_formula_structural   Ba(NiB)2
_chemical_formula_sum   'Ba4 Ni8 B8'
_cell_volume   308.09916149
_cell_formula_units_Z   4
loop_
 _symmetry_equiv_pos_site_id
 _symmetry_equiv_pos_as_xyz
  1  'x, y, z'
loop_
 _atom_site_type_symbol
 _atom_site_label
 _atom_site_symmetry_multiplicity
 _atom_site_fract_x
 _atom_site_fract_y
 _atom_site_fract_z
 _atom_site_occupancy
  Ba  Ba0  1  0.49221000  0.69959500  0.36913600  1
  Ba  Ba1  1  0.50478000  0.29941400  0.63124600  1
  Ba  Ba2  1  0.03378600  0.86497700  0.85417000  1
  Ba  Ba3  1  0.97607600  0.13509300  0.14613100  1
  Ni  Ni0  1  0.52443900  0.84247600  0.08575600  1
  Ni  Ni1  1  0.48288700  0.15786300  0.91444700  1
  Ni  Ni2  1  0.96894000  0.57324200  0.71353800  1
  Ni  Ni3  1  0.02867600  0.42686300  0.28653000  1
  Ni  Ni4  1  0.50236600  0.47325300  0.85429200  1
  Ni  Ni5  1  0.49533300  0.52668100  0.14563500  1
  Ni  Ni6  1  0.09624200  0.14084600  0.43005800  1
  Ni  Ni7  1  0.90107400  0.85933800  0.57004900  1
  B  B0  1  0.61226300  0.07671500  0.44456900  1
  B  B1  1  0.38534300  0.92317800  0.55474700  1
  B  B2  1  0.00757800  0.47104600  0.93545300  1
  B  B3  1  0.98928100  0.52975400  0.06410800  1
  B  B4  1  0.55515900  0.29841200  0.34032700  1
  B  B5  1  0.44272800  0.70170200  0.65932100  1
  B  B6  1  0.01569000  0.32342500  0.85866000  1
  B  B7  1  0.98515000  0.67613000  0.14182700  1
loop_
_geom_bond_atom_site_label_1
_geom_bond_atom_site_label_2
_geom_bond_distance
_geom_bond_site_symmetry_2
Ba0 Ni0 2.942631 1_555
Ba1 Ni1 2.936816 1_555
Ba2 Ni0 3.034413 1_556
Ba2 Ni7 3.162319 1_455
Ba2 Ni0 3.173286 1_456
Ba2 Ni1 3.230083 1_565
Ba2 Ni1 3.246426 1_465
Ba3 Ni1 3.040088 1_554
Ba3 Ni6 3.154783 1_655
Ba3 Ni1 3.167956 1_654
Ba3 Ni0 3.234097 1_545
Ba3 Ni0 3.239899 1_645
Ni0 Ni5 2.420668 1_555
Ni0 Ni1 2.596524 1_564
Ni1 Ni4 2.412626 1_555
B0 B1 1.709555 1_545
B0 B4 1.761968 1_555
B0 Ni6 1.904433 1_655
B0 Ni6 1.930013 1_555
B0 Ni7 2.028707 1_545
B1 B5 1.761705 1_555
B1 Ni7 1.904895 1_455
B1 Ni7 1.928329 1_555
B1 Ni6 2.027342 1_565
B2 B3 1.635731 1_456
B2 B6 1.674058 1_555
B2 Ni4 2.050188 1_455
B2 Ni4 2.060145 1_555
B2 Ni2 2.291668 1_455
B2 Ba3 2.926510 1_456
B2 Ba2 3.009653 1_555
B3 B7 1.673272 1_555
B3 Ni5 2.053169 1_655
B3 Ni5 2.058714 1_555
B3 Ni3 2.296910 1_655
B3 Ba2 2.925651 1_654
B3 Ba3 3.009150 1_555
B4 Ni3 2.106299 1_555
B4 Ni3 2.108846 1_655
B4 Ni6 2.254535 1_555
B4 Ni6 2.292504 1_655
B4 Ni5 2.296643 1_555
B4 Ba1 3.208175 1_555
B4 Ba3 3.233392 1_555
B4 Ba0 3.347435 1_555
B4 Ba3 3.606909 1_455
B5 Ni2 2.105861 1_555
B5 Ni2 2.110400 1_455
B5 Ni7 2.251743 1_555
B5 Ni7 2.293327 1_455
B5 Ni4 2.299356 1_555
B5 Ba0 3.202826 1_555
B5 Ba2 3.218512 1_555
B5 Ba1 3.352927 1_555
B6 Ni1 2.044899 1_555
B6 Ni2 2.098191 1_455
B6 Ni4 2.161552 1_455
B6 Ni4 2.245745 1_555
B6 Ni1 2.451251 1_455
B6 Ba3 3.022170 1_456
B6 Ba1 3.162954 1_455
B6 Ba1 3.173929 1_555
B7 Ni0 2.029312 1_555
B7 Ni3 2.093306 1_655
B7 Ni5 2.151531 1_655
B7 Ni5 2.254673 1_555
B7 Ni0 2.475489 1_655
B7 Ba2 3.028705 1_654
B7 Ba0 3.152070 1_655
B7 Ba0 3.180169 1_555
