# generated using pymatgen
data_Sc3N5F14
_symmetry_space_group_name_H-M   'P 1'
_cell_length_a   7.95623500
_cell_length_b   7.95623500
_cell_length_c   11.23250700
_cell_angle_alpha   90.00000000
_cell_angle_beta   90.00000000
_cell_angle_gamma   90.00000000
_symmetry_Int_Tables_number   1
_chemical_formula_structural   Sc3N5F14
_chemical_formula_sum   'Sc6 N10 F28'
_cell_volume   711.03651176
_cell_formula_units_Z   2
loop_
 _symmetry_equiv_pos_site_id
 _symmetry_equiv_pos_as_xyz
  1  'x, y, z'
loop_
 _atom_site_type_symbol
 _atom_site_label
 _atom_site_symmetry_multiplicity
 _atom_site_fract_x
 _atom_site_fract_y
 _atom_site_fract_z
 _atom_site_occupancy
  Sc  Sc0  1  0.00000000  0.00000000  0.00000000  1
  Sc  Sc1  1  0.50000000  0.50000000  0.50000000  1
  Sc  Sc2  1  0.00000000  0.50000000  0.00000000  1
  Sc  Sc3  1  0.50000000  0.00000000  0.00000000  1
  Sc  Sc4  1  0.50000000  0.00000000  0.50000000  1
  Sc  Sc5  1  0.00000000  0.50000000  0.50000000  1
  N  N0  1  0.00000000  0.00000000  0.50000000  1
  N  N1  1  0.50000000  0.50000000  0.00000000  1
  N  N2  1  0.32601400  0.82601400  0.25000000  1
  N  N3  1  0.67398600  0.17398600  0.75000000  1
  N  N4  1  0.67398600  0.17398600  0.25000000  1
  N  N5  1  0.17398600  0.32601400  0.25000000  1
  N  N6  1  0.32601400  0.82601400  0.75000000  1
  N  N7  1  0.82601400  0.67398600  0.75000000  1
  N  N8  1  0.82601400  0.67398600  0.25000000  1
  N  N9  1  0.17398600  0.32601400  0.75000000  1
  F  F0  1  0.25858100  0.06128800  0.00000000  1
  F  F1  1  0.74141900  0.93871200  0.00000000  1
  F  F2  1  0.93871200  0.25858100  0.00000000  1
  F  F3  1  0.24141900  0.56128800  0.50000000  1
  F  F4  1  0.06128800  0.74141900  0.00000000  1
  F  F5  1  0.75858100  0.43871200  0.50000000  1
  F  F6  1  0.56128800  0.75858100  0.50000000  1
  F  F7  1  0.43871200  0.24141900  0.50000000  1
  F  F8  1  0.00000000  0.00000000  0.17205000  1
  F  F9  1  0.00000000  0.00000000  0.82795000  1
  F  F10  1  0.50000000  0.50000000  0.32795000  1
  F  F11  1  0.50000000  0.50000000  0.67205000  1
  F  F12  1  0.04931700  0.31572200  0.37116600  1
  F  F13  1  0.95068300  0.68427800  0.62883400  1
  F  F14  1  0.95068300  0.68427800  0.37116600  1
  F  F15  1  0.68427800  0.04931700  0.37116600  1
  F  F16  1  0.45068300  0.81572200  0.12883400  1
  F  F17  1  0.04931700  0.31572200  0.62883400  1
  F  F18  1  0.31572200  0.95068300  0.62883400  1
  F  F19  1  0.54931700  0.18427800  0.87116600  1
  F  F20  1  0.31572200  0.95068300  0.37116600  1
  F  F21  1  0.54931700  0.18427800  0.12883400  1
  F  F22  1  0.68427800  0.04931700  0.62883400  1
  F  F23  1  0.45068300  0.81572200  0.87116600  1
  F  F24  1  0.81572200  0.54931700  0.12883400  1
  F  F25  1  0.18427800  0.45068300  0.87116600  1
  F  F26  1  0.18427800  0.45068300  0.12883400  1
  F  F27  1  0.81572200  0.54931700  0.87116600  1
loop_
_geom_bond_atom_site_label_1
_geom_bond_atom_site_label_2
_geom_bond_distance
_geom_bond_site_symmetry_2
F0 Sc3 1.981715 1_555
F0 Sc0 2.114329 1_555
F1 Sc3 1.981715 1_565
F1 Sc0 2.114329 1_665
F2 Sc2 1.981715 1_655
F2 Sc0 2.114329 1_655
F3 Sc5 1.981715 1_555
F3 Sc1 2.114329 1_555
F4 Sc2 1.981715 1_555
F4 Sc0 2.114329 1_565
F5 Sc5 1.981715 1_655
F5 Sc1 2.114329 1_555
F6 Sc4 1.981715 1_565
F6 Sc1 2.114329 1_555
F7 Sc4 1.981715 1_555
F7 Sc1 2.114329 1_555
F8 Sc0 1.932553 1_555
F9 Sc0 1.932553 1_556
F10 Sc1 1.932553 1_555
F11 Sc1 1.932553 1_555
F12 N5 1.686084 1_555
F12 Sc5 2.097085 1_555
F13 N7 1.686084 1_555
F13 Sc5 2.097085 1_655
F14 N8 1.686084 1_555
F14 Sc5 2.097085 1_655
F15 N4 1.686084 1_555
F15 Sc4 2.097085 1_555
F16 N2 1.686084 1_555
F16 Sc3 2.097085 1_565
F17 N9 1.686084 1_555
F17 Sc5 2.097085 1_555
F18 N6 1.686084 1_555
F18 Sc4 2.097085 1_565
F19 N3 1.686084 1_555
F19 Sc3 2.097085 1_556
F20 N2 1.686084 1_555
F20 Sc4 2.097085 1_565
F21 N4 1.686084 1_555
F21 Sc3 2.097085 1_555
F22 N3 1.686084 1_555
F22 Sc4 2.097085 1_555
F23 N6 1.686084 1_555
F23 Sc3 2.097085 1_566
F24 N8 1.686084 1_555
F24 Sc2 2.097085 1_655
F25 N9 1.686084 1_555
F25 Sc2 2.097085 1_556
F26 N5 1.686084 1_555
F26 Sc2 2.097085 1_555
F27 N7 1.686084 1_555
F27 Sc2 2.097085 1_656
