# generated using pymatgen
data_Th2B15
_symmetry_space_group_name_H-M   'P 1'
_cell_length_a   4.11765700
_cell_length_b   4.11765700
_cell_length_c   20.58367800
_cell_angle_alpha   90.00000000
_cell_angle_beta   90.00000000
_cell_angle_gamma   90.00000000
_symmetry_Int_Tables_number   1
_chemical_formula_structural   Th2B15
_chemical_formula_sum   'Th4 B30'
_cell_volume   348.99830177
_cell_formula_units_Z   2
loop_
 _symmetry_equiv_pos_site_id
 _symmetry_equiv_pos_as_xyz
  1  'x, y, z'
loop_
 _atom_site_type_symbol
 _atom_site_label
 _atom_site_symmetry_multiplicity
 _atom_site_fract_x
 _atom_site_fract_y
 _atom_site_fract_z
 _atom_site_occupancy
  Th  Th0  1  0.00000000  0.00000000  0.19584600  1
  Th  Th1  1  0.00000000  0.00000000  0.39923400  1
  Th  Th2  1  0.00000000  0.00000000  0.60076600  1
  Th  Th3  1  0.00000000  0.00000000  0.80415400  1
  B  B0  1  0.50000000  0.50000000  0.16125100  1
  B  B1  1  0.50000000  0.50000000  0.36066300  1
  B  B2  1  0.50000000  0.50000000  0.56044700  1
  B  B3  1  0.50000000  0.50000000  0.75977200  1
  B  B4  1  0.50000000  0.50000000  0.95971000  1
  B  B5  1  0.50000000  0.20109200  0.10087800  1
  B  B6  1  0.50000000  0.19791800  0.30013700  1
  B  B7  1  0.50000000  0.19770700  0.50000000  1
  B  B8  1  0.50000000  0.19791800  0.69986300  1
  B  B9  1  0.50000000  0.20109200  0.89912200  1
  B  B10  1  0.20109200  0.50000000  0.10087800  1
  B  B11  1  0.19791800  0.50000000  0.30013700  1
  B  B12  1  0.19770700  0.50000000  0.50000000  1
  B  B13  1  0.19791800  0.50000000  0.69986300  1
  B  B14  1  0.20109200  0.50000000  0.89912200  1
  B  B15  1  0.50000000  0.50000000  0.04029000  1
  B  B16  1  0.50000000  0.50000000  0.24022800  1
  B  B17  1  0.50000000  0.50000000  0.43955300  1
  B  B18  1  0.50000000  0.50000000  0.63933700  1
  B  B19  1  0.50000000  0.50000000  0.83874900  1
  B  B20  1  0.50000000  0.79890800  0.10087800  1
  B  B21  1  0.50000000  0.80208200  0.30013700  1
  B  B22  1  0.50000000  0.80229300  0.50000000  1
  B  B23  1  0.50000000  0.80208200  0.69986300  1
  B  B24  1  0.50000000  0.79890800  0.89912200  1
  B  B25  1  0.79890800  0.50000000  0.10087800  1
  B  B26  1  0.80208200  0.50000000  0.30013700  1
  B  B27  1  0.80229300  0.50000000  0.50000000  1
  B  B28  1  0.80208200  0.50000000  0.69986300  1
  B  B29  1  0.79890800  0.50000000  0.89912200  1
loop_
_geom_bond_atom_site_label_1
_geom_bond_atom_site_label_2
_geom_bond_distance
_geom_bond_site_symmetry_2
B0 B16 1.625637 1_555
B0 B10 1.749048 1_555
B0 B5 1.749048 1_555
B0 B25 1.749048 1_555
B0 B20 1.749048 1_555
B0 Th0 2.997436 1_565
B0 Th0 2.997436 1_665
B0 Th0 2.997436 1_555
B0 Th0 2.997436 1_655
B1 B17 1.623846 1_555
B1 B26 1.760497 1_555
B1 B11 1.760497 1_555
B1 B21 1.760497 1_555
B1 B6 1.760497 1_555
B1 Th1 3.017926 1_665
B1 Th1 3.017926 1_565
B1 Th1 3.017926 1_555
B1 Th1 3.017926 1_655
B2 B22 1.759961 1_555
B2 B7 1.759961 1_555
B2 B27 1.759961 1_555
B2 Th2 3.027591 1_665
B2 Th2 3.027591 1_655
B2 Th2 3.027591 1_565
B2 Th2 3.027591 1_555
B3 B8 1.751532 1_555
B3 Th3 3.051576 1_655
B3 Th3 3.051576 1_565
B3 Th3 3.051576 1_665
B3 Th3 3.051576 1_555
B4 B9 1.752195 1_555
B5 Th0 2.957298 1_655
B5 Th0 2.957298 1_555
B6 Th1 3.010588 1_555
B6 Th1 3.010588 1_655
B6 Th0 3.084027 1_655
B6 Th0 3.084027 1_555
B7 Th1 3.033736 1_555
B7 Th1 3.033736 1_655
B7 Th2 3.033736 1_655
B7 Th2 3.033736 1_555
B8 Th2 3.010588 1_655
B8 Th2 3.010588 1_555
B8 Th3 3.084027 1_555
B8 Th3 3.084027 1_655
B9 Th3 2.957298 1_655
B9 Th3 2.957298 1_555
B10 B25 1.656056 1_455
B10 B20 1.740615 1_555
B10 B5 1.740615 1_555
B10 B15 1.752195 1_555
B10 Th0 2.957298 1_565
B10 Th0 2.957298 1_555
B11 B26 1.629917 1_455
B11 B16 1.751532 1_555
B11 B6 1.759098 1_555
B11 B21 1.759098 1_555
B11 Th1 3.010588 1_555
B11 Th1 3.010588 1_565
B11 Th0 3.084027 1_565
B11 Th0 3.084027 1_555
B12 B27 1.628179 1_455
B12 B17 1.759961 1_555
B12 B2 1.759961 1_555
B12 B7 1.760327 1_555
B12 B22 1.760327 1_555
B12 Th1 3.033736 1_555
B12 Th2 3.033736 1_565
B12 Th2 3.033736 1_555
B12 Th1 3.033736 1_565
B13 B28 1.629917 1_455
B13 B3 1.751532 1_555
B13 B8 1.759098 1_555
B13 B23 1.759098 1_555
B13 B18 1.760497 1_555
B13 Th2 3.010588 1_565
B13 Th2 3.010588 1_555
B13 Th3 3.084027 1_565
B13 Th3 3.084027 1_555
B14 B29 1.656056 1_455
B14 B24 1.740615 1_555
B14 B9 1.740615 1_555
B14 B19 1.749048 1_555
B14 B4 1.752195 1_555
B14 Th3 2.957298 1_565
B14 Th3 2.957298 1_555
B15 B4 1.658633 1_554
B15 B20 1.752195 1_555
B15 B25 1.752195 1_555
B15 B5 1.752195 1_555
B16 B21 1.751532 1_555
B16 B6 1.751532 1_555
B16 B26 1.751532 1_555
B16 Th0 3.051576 1_565
B16 Th0 3.051576 1_665
B16 Th0 3.051576 1_555
B16 Th0 3.051576 1_655
B17 B22 1.759961 1_555
B17 B7 1.759961 1_555
B17 B27 1.759961 1_555
B17 Th1 3.027591 1_555
B17 Th1 3.027591 1_655
B17 Th1 3.027591 1_665
B17 Th1 3.027591 1_565
B18 B2 1.623846 1_555
B18 B23 1.760497 1_555
B18 B8 1.760497 1_555
B18 B28 1.760497 1_555
B18 Th2 3.017926 1_665
B18 Th2 3.017926 1_555
B18 Th2 3.017926 1_655
B18 Th2 3.017926 1_565
B19 B3 1.625637 1_555
B19 B24 1.749048 1_555
B19 B9 1.749048 1_555
B19 B29 1.749048 1_555
B19 Th3 2.997436 1_665
B19 Th3 2.997436 1_555
B19 Th3 2.997436 1_655
B19 Th3 2.997436 1_565
B20 B5 1.656056 1_565
B20 B25 1.740615 1_555
B20 Th0 2.957298 1_665
B20 Th0 2.957298 1_565
B21 B6 1.629917 1_565
B21 B26 1.759098 1_555
B21 Th1 3.010588 1_665
B21 Th1 3.010588 1_565
B21 Th0 3.084027 1_665
B21 Th0 3.084027 1_565
B22 B7 1.628179 1_565
B22 B27 1.760327 1_555
B22 Th2 3.033736 1_565
B22 Th2 3.033736 1_665
B22 Th1 3.033736 1_665
B22 Th1 3.033736 1_565
B23 B8 1.629917 1_565
B23 B3 1.751532 1_555
B23 B28 1.759098 1_555
B23 Th2 3.010588 1_565
B23 Th2 3.010588 1_665
B23 Th3 3.084027 1_565
B23 Th3 3.084027 1_665
B24 B9 1.656056 1_565
B24 B29 1.740615 1_555
B24 B4 1.752195 1_555
B24 Th3 2.957298 1_565
B24 Th3 2.957298 1_665
B25 B5 1.740615 1_555
B25 Th0 2.957298 1_655
B25 Th0 2.957298 1_665
B26 B6 1.759098 1_555
B26 Th1 3.010588 1_655
B26 Th1 3.010588 1_665
B26 Th0 3.084027 1_655
B26 Th0 3.084027 1_665
B27 B7 1.760327 1_555
B27 Th2 3.033736 1_655
B27 Th1 3.033736 1_655
B27 Th2 3.033736 1_665
B27 Th1 3.033736 1_665
B28 B3 1.751532 1_555
B28 B8 1.759098 1_555
B28 Th2 3.010588 1_655
B28 Th2 3.010588 1_665
B28 Th3 3.084027 1_665
B28 Th3 3.084027 1_655
B29 B9 1.740615 1_555
B29 B4 1.752195 1_555
B29 Th3 2.957298 1_665
B29 Th3 2.957298 1_655
