# generated using pymatgen
data_Ba2CuMo2F14
_symmetry_space_group_name_H-M   'P 1'
_cell_length_a   7.82458785
_cell_length_b   7.82458785
_cell_length_c   15.68792910
_cell_angle_alpha   87.04039652
_cell_angle_beta   87.04039652
_cell_angle_gamma   40.37743473
_symmetry_Int_Tables_number   1
_chemical_formula_structural   Ba2CuMo2F14
_chemical_formula_sum   'Ba4 Cu2 Mo4 F28'
_cell_volume   621.27619913
_cell_formula_units_Z   2
loop_
 _symmetry_equiv_pos_site_id
 _symmetry_equiv_pos_as_xyz
  1  'x, y, z'
loop_
 _atom_site_type_symbol
 _atom_site_label
 _atom_site_symmetry_multiplicity
 _atom_site_fract_x
 _atom_site_fract_y
 _atom_site_fract_z
 _atom_site_occupancy
  Ba  Ba0  1  0.74839000  0.89672400  0.62818400  1
  Ba  Ba1  1  0.89672400  0.74839000  0.12818400  1
  Ba  Ba2  1  0.25161000  0.10327600  0.37181600  1
  Ba  Ba3  1  0.10327600  0.25161000  0.87181600  1
  Cu  Cu0  1  0.50000000  0.50000000  0.00000000  1
  Cu  Cu1  1  0.50000000  0.50000000  0.50000000  1
  Mo  Mo0  1  0.85150100  0.90304200  0.87219900  1
  Mo  Mo1  1  0.14849900  0.09695800  0.12780100  1
  Mo  Mo2  1  0.90304200  0.85150100  0.37219900  1
  Mo  Mo3  1  0.09695800  0.14849900  0.62780100  1
  F  F0  1  0.92848200  0.07712500  0.34515900  1
  F  F1  1  0.58727800  0.11082100  0.45107700  1
  F  F2  1  0.41272200  0.88917900  0.54892300  1
  F  F3  1  0.13399800  0.36778500  0.59002200  1
  F  F4  1  0.51203400  0.36445100  0.60230200  1
  F  F5  1  0.63554900  0.48796600  0.89769800  1
  F  F6  1  0.11082100  0.58727800  0.95107700  1
  F  F7  1  0.92287500  0.07151800  0.15484100  1
  F  F8  1  0.99850300  0.64279800  0.77855300  1
  F  F9  1  0.86600200  0.63221500  0.40997800  1
  F  F10  1  0.57448800  0.17074500  0.79113500  1
  F  F11  1  0.63221500  0.86600200  0.90997800  1
  F  F12  1  0.17074500  0.57448800  0.29113500  1
  F  F13  1  0.42551200  0.82925500  0.20886500  1
  F  F14  1  0.36445100  0.51203400  0.10230200  1
  F  F15  1  0.00149700  0.35720200  0.22144700  1
  F  F16  1  0.28507900  0.87951800  0.01787900  1
  F  F17  1  0.07151800  0.92287500  0.65484100  1
  F  F18  1  0.71492100  0.12048200  0.98212100  1
  F  F19  1  0.87951800  0.28507900  0.51787900  1
  F  F20  1  0.88917900  0.41272200  0.04892300  1
  F  F21  1  0.82925500  0.42551200  0.70886500  1
  F  F22  1  0.64279800  0.99850300  0.27855300  1
  F  F23  1  0.12048200  0.71492100  0.48212100  1
  F  F24  1  0.48796600  0.63554900  0.39769800  1
  F  F25  1  0.07712500  0.92848200  0.84515900  1
  F  F26  1  0.35720200  0.00149700  0.72144700  1
  F  F27  1  0.36778500  0.13399800  0.09002200  1
loop_
_geom_bond_atom_site_label_1
_geom_bond_atom_site_label_2
_geom_bond_distance
_geom_bond_site_symmetry_2
Ba0 F4 2.567288 1_565
Ba0 F8 2.722290 1_555
Ba0 F17 2.741446 1_655
Ba0 F3 2.763101 1_655
Ba0 F26 2.831959 1_565
Ba0 F10 2.957267 1_565
Ba0 F1 2.962901 1_565
Ba0 F2 3.004831 1_555
Ba0 F23 3.014694 1_655
Ba0 F3 3.182329 1_565
Ba1 F14 2.567288 1_655
Ba1 F22 2.722290 1_555
Ba1 F7 2.741446 1_565
Ba1 F27 2.763101 1_565
Ba1 F15 2.831959 1_655
Ba1 F12 2.957267 1_655
Ba1 F6 2.962901 1_654
Ba1 F20 3.004831 1_555
Ba1 F18 3.014694 1_564
Ba1 F27 3.182329 1_655
Ba2 F24 2.567288 1_545
Ba2 F15 2.722290 1_555
Ba2 F0 2.741446 1_455
Ba2 F9 2.763101 1_455
Ba2 F22 2.831959 1_545
Ba2 F13 2.957267 1_545
Ba2 F2 2.962901 1_545
Ba2 F1 3.004831 1_555
Ba2 F19 3.014694 1_455
Ba2 F9 3.182329 1_545
Ba3 F5 2.567288 1_455
Ba3 F26 2.722290 1_555
Ba3 F25 2.741446 1_545
Ba3 F11 2.763101 1_545
Ba3 F8 2.831959 1_455
Ba3 F21 2.957267 1_455
Ba3 F20 2.962901 1_456
Ba3 F6 3.004831 1_555
Ba3 F16 3.014694 1_546
Ba3 F11 3.182329 1_455
Cu0 F14 1.843141 1_555
Cu0 F5 1.843141 1_554
Cu0 F18 2.038087 1_554
Cu0 F16 2.038087 1_555
Cu1 F4 1.843141 1_555
Cu1 F24 1.843141 1_555
Cu1 F23 2.038087 1_555
Cu1 F19 2.038087 1_555
F0 Mo2 1.945668 1_545
F1 Mo2 2.014510 1_545
F2 Mo3 2.014510 1_565
F3 Mo3 2.003550 1_555
F6 Mo0 2.014510 1_455
F7 Mo1 1.945668 1_655
F8 Mo0 2.047852 1_555
F9 Mo2 2.003550 1_555
F10 Mo0 1.948122 1_545
F11 Mo0 2.003550 1_555
F12 Mo2 1.948122 1_455
F13 Mo1 1.948122 1_565
F15 Mo1 2.047852 1_555
F16 Mo1 2.086366 1_565
F17 Mo3 1.945668 1_565
F18 Mo0 2.086366 1_545
F19 Mo3 2.086366 1_655
F20 Mo1 2.014510 1_655
F21 Mo3 1.948122 1_655
F22 Mo2 2.047852 1_555
F23 Mo2 2.086366 1_455
F25 Mo0 1.945668 1_455
F26 Mo3 2.047852 1_555
F27 Mo1 2.003550 1_555
