# generated using pymatgen
data_CoMo4N5
_symmetry_space_group_name_H-M   'P 1'
_cell_length_a   12.42613295
_cell_length_b   12.42613295
_cell_length_c   2.81244600
_cell_angle_alpha   90.00000000
_cell_angle_beta   90.00000000
_cell_angle_gamma   166.81139350
_symmetry_Int_Tables_number   1
_chemical_formula_structural   CoMo4N5
_chemical_formula_sum   'Co1 Mo4 N5'
_cell_volume   99.08102426
_cell_formula_units_Z   1
loop_
 _symmetry_equiv_pos_site_id
 _symmetry_equiv_pos_as_xyz
  1  'x, y, z'
loop_
 _atom_site_type_symbol
 _atom_site_label
 _atom_site_symmetry_multiplicity
 _atom_site_fract_x
 _atom_site_fract_y
 _atom_site_fract_z
 _atom_site_occupancy
  Co  Co0  1  0.99037800  0.00962200  0.00000000  1
  Mo  Mo0  1  0.40427200  0.59572800  0.00000000  1
  Mo  Mo1  1  0.80180000  0.19820000  0.00000000  1
  Mo  Mo2  1  0.19880000  0.80120000  0.00000000  1
  Mo  Mo3  1  0.59935800  0.40064200  0.00000000  1
  N  N0  1  0.46921400  0.53078600  0.50000000  1
  N  N1  1  0.86954400  0.13045600  0.50000000  1
  N  N2  1  0.26674800  0.73325200  0.50000000  1
  N  N3  1  0.66633000  0.33367000  0.50000000  1
  N  N4  1  0.06701500  0.93298500  0.50000000  1
loop_
_geom_bond_atom_site_label_1
_geom_bond_atom_site_label_2
_geom_bond_distance
_geom_bond_site_symmetry_2
Co0 N0 2.070455 1_655
Co0 N0 2.070455 1_654
Co0 N0 2.070455 1_545
Co0 N0 2.070455 1_544
Co0 N4 2.357358 1_644
Co0 N4 2.357358 1_645
Mo0 N0 2.132596 1_555
Mo0 N0 2.132596 1_554
Mo0 N1 2.179185 1_454
Mo0 N1 2.179185 1_455
Mo0 N1 2.179185 1_565
Mo0 N1 2.179185 1_564
Mo1 N2 2.182345 1_655
Mo1 N2 2.182345 1_654
Mo1 N2 2.182345 1_545
Mo1 N2 2.182345 1_544
Mo1 N1 2.185078 1_554
Mo1 N1 2.185078 1_555
Mo2 N3 2.157862 1_455
Mo2 N3 2.157862 1_454
Mo2 N3 2.157862 1_564
Mo2 N3 2.157862 1_565
Mo2 N2 2.188935 1_555
Mo2 N2 2.188935 1_554
Mo3 N4 2.156699 1_654
Mo3 N4 2.156699 1_655
Mo3 N4 2.156699 1_545
Mo3 N4 2.156699 1_544
Mo3 N3 2.170525 1_555
Mo3 N3 2.170525 1_554
