# generated using pymatgen
data_Li2TiVO4
_symmetry_space_group_name_H-M   'P 1'
_cell_length_a   5.99177304
_cell_length_b   8.45039087
_cell_length_c   5.99178311
_cell_angle_alpha   89.60842132
_cell_angle_beta   90.00379913
_cell_angle_gamma   89.60671417
_symmetry_Int_Tables_number   1
_chemical_formula_structural   Li2TiVO4
_chemical_formula_sum   'Li8 Ti4 V4 O16'
_cell_volume   303.36666649
_cell_formula_units_Z   4
loop_
 _symmetry_equiv_pos_site_id
 _symmetry_equiv_pos_as_xyz
  1  'x, y, z'
loop_
 _atom_site_type_symbol
 _atom_site_label
 _atom_site_symmetry_multiplicity
 _atom_site_fract_x
 _atom_site_fract_y
 _atom_site_fract_z
 _atom_site_occupancy
  Li  Li0  1  0.25041100  0.24910800  0.75041000  1
  Li  Li1  1  0.75226000  0.75133000  0.25060500  1
  Li  Li2  1  0.99959900  0.00091600  0.49959100  1
  Li  Li3  1  0.49938700  0.49866700  0.99774200  1
  Li  Li4  1  0.25101700  0.24925000  0.24909000  1
  Li  Li5  1  0.74606200  0.75089000  0.75010300  1
  Li  Li6  1  0.50090300  0.00074500  0.49895100  1
  Li  Li7  1  0.99992200  0.49913200  0.00397500  1
  Ti  Ti0  1  0.75118700  0.24638500  0.75632400  1
  Ti  Ti1  1  0.25299100  0.75509300  0.24380700  1
  Ti  Ti2  1  0.99371900  0.00352700  0.99894400  1
  Ti  Ti3  1  0.50615000  0.49493100  0.49689400  1
  V  V0  1  0.00427500  0.50362500  0.50689300  1
  V  V1  1  0.24303400  0.74635800  0.74578100  1
  V  V2  1  0.49595700  0.99631900  0.99727400  1
  V  V3  1  0.75270800  0.25363800  0.25398700  1
  O  O0  1  0.76275700  0.00195300  0.23226200  1
  O  O1  1  0.26527200  0.50194200  0.73338400  1
  O  O2  1  0.51771900  0.24803900  0.98727700  1
  O  O3  1  0.01668300  0.74816200  0.48479200  1
  O  O4  1  0.98595300  0.25696900  0.51906400  1
  O  O5  1  0.47918300  0.74707100  0.00526200  1
  O  O6  1  0.74466600  0.50295300  0.27071600  1
  O  O7  1  0.23095500  0.99294800  0.76403500  1
  O  O8  1  0.99516200  0.24420700  0.99515000  1
  O  O9  1  0.48567600  0.74067700  0.48898300  1
  O  O10  1  0.75483100  0.00583700  0.75483900  1
  O  O11  1  0.26106700  0.50932500  0.26431600  1
  O  O12  1  0.74089000  0.49377800  0.73894500  1
  O  O13  1  0.24192100  0.99095100  0.24343000  1
  O  O14  1  0.50664900  0.25911500  0.50814900  1
  O  O15  1  0.01103600  0.75615800  0.00902600  1
loop_
_geom_bond_atom_site_label_1
_geom_bond_atom_site_label_2
_geom_bond_distance
_geom_bond_site_symmetry_2
Li0 O4 2.105652 1_455
Li0 O14 2.114670 1_555
Li0 O8 2.119319 1_455
Li0 O2 2.139853 1_555
Li0 O1 2.140747 1_555
Li0 O7 2.169568 1_545
Li1 O6 2.102321 1_555
Li1 O3 2.116245 1_655
Li1 O0 2.121326 1_565
Li1 O15 2.121646 1_655
Li1 O9 2.144783 1_555
Li1 O5 2.200166 1_555
Li2 O7 2.105649 1_645
Li2 O13 2.114568 1_645
Li2 O10 2.119432 1_555
Li2 O0 2.139850 1_555
Li2 O3 2.140063 1_645
Li2 O4 2.168670 1_555
Li3 O5 2.102560 1_556
Li3 O1 2.115671 1_555
Li3 O2 2.121353 1_555
Li3 O12 2.121436 1_555
Li3 O11 2.144505 1_556
Li3 O6 2.199457 1_556
Li4 O8 2.160690 1_454
Li4 O14 2.183032 1_555
Li4 O13 2.184277 1_545
Li4 O11 2.201487 1_555
Li4 O2 2.239419 1_554
Li4 O4 2.267977 1_455
Li5 O10 2.155783 1_565
Li5 O12 2.174615 1_555
Li5 O9 2.211980 1_555
Li5 O5 2.212658 1_556
Li5 O15 2.220613 1_656
Li5 O3 2.270952 1_655
Li6 O10 2.160792 1_555
Li6 O13 2.182209 1_545
Li6 O14 2.184907 1_555
Li6 O9 2.201413 1_545
Li6 O0 2.239536 1_555
Li6 O7 2.267971 1_545
Li7 O8 2.155610 1_554
Li7 O15 2.173865 1_655
Li7 O11 2.211887 1_655
Li7 O6 2.212461 1_555
Li7 O12 2.221331 1_554
Li7 O1 2.270996 1_654
O0 Ti2 1.967209 1_554
O0 V2 2.131179 1_544
O0 V3 2.132142 1_555
O1 Ti3 2.023539 1_555
O1 V0 2.070413 1_555
O1 V1 2.070631 1_555
O2 Ti0 1.967814 1_555
O2 V3 2.130769 1_556
O2 V2 2.132452 1_545
O3 Ti1 2.023216 1_555
O3 V1 2.069825 1_555
O3 V0 2.071613 1_555
O4 Ti0 2.001983 1_555
O4 V0 2.088757 1_655
O4 V3 2.115997 1_555
O5 Ti1 1.970953 1_555
O5 V1 2.102222 1_554
O5 V2 2.109545 1_554
O6 Ti3 1.970772 1_555
O6 V0 2.102897 1_655
O6 V3 2.110097 1_555
O7 Ti2 2.002478 1_465
O7 V1 2.088156 1_555
O7 V2 2.115643 1_555
O8 Ti2 2.033889 1_555
O8 Ti0 2.045497 1_555
O8 V3 2.126605 1_556
O9 Ti1 2.027722 1_555
O9 Ti3 2.079646 1_555
O9 V1 2.117517 1_555
O10 Ti0 2.032772 1_555
O10 Ti2 2.046313 1_555
O10 V2 2.126720 1_545
O11 Ti3 2.026868 1_555
O11 Ti1 2.079861 1_555
O11 V0 2.117229 1_555
O12 Ti3 2.020181 1_555
O12 Ti0 2.092935 1_555
O12 V0 2.105041 1_655
O13 Ti1 1.993726 1_555
O13 Ti2 2.089099 1_464
O13 V2 2.120053 1_554
O14 Ti3 1.993399 1_555
O14 Ti0 2.089256 1_555
O14 V3 2.120210 1_555
O15 Ti1 2.019942 1_555
O15 Ti2 2.092686 1_464
O15 V1 2.104180 1_554
