# generated using pymatgen
data_Y2Hf2(MoO4)7
_symmetry_space_group_name_H-M   'P 1'
_cell_length_a   11.64740544
_cell_length_b   11.64740544
_cell_length_c   14.00408109
_cell_angle_alpha   69.06956862
_cell_angle_beta   69.06956862
_cell_angle_gamma   50.59555683
_symmetry_Int_Tables_number   1
_chemical_formula_structural   Y2Hf2(MoO4)7
_chemical_formula_sum   'Y4 Hf4 Mo14 O56'
_cell_volume   1348.50963817
_cell_formula_units_Z   2
loop_
 _symmetry_equiv_pos_site_id
 _symmetry_equiv_pos_as_xyz
  1  'x, y, z'
loop_
 _atom_site_type_symbol
 _atom_site_label
 _atom_site_symmetry_multiplicity
 _atom_site_fract_x
 _atom_site_fract_y
 _atom_site_fract_z
 _atom_site_occupancy
  Y  Y0  1  0.14922000  0.12437000  0.06310600  1
  Y  Y1  1  0.85078000  0.87563000  0.93689400  1
  Y  Y2  1  0.87563000  0.85078000  0.43689400  1
  Y  Y3  1  0.12437000  0.14922000  0.56310600  1
  Hf  Hf0  1  0.42039200  0.34858800  0.18726800  1
  Hf  Hf1  1  0.57960800  0.65141200  0.81273200  1
  Hf  Hf2  1  0.65141200  0.57960800  0.31273200  1
  Hf  Hf3  1  0.34858800  0.42039200  0.68726800  1
  Mo  Mo0  1  0.49910900  0.98799400  0.17334200  1
  Mo  Mo1  1  0.50089100  0.01200600  0.82665800  1
  Mo  Mo2  1  0.01200600  0.50089100  0.32665800  1
  Mo  Mo3  1  0.98799400  0.49910900  0.67334200  1
  Mo  Mo4  1  0.45642800  0.22720800  0.47721400  1
  Mo  Mo5  1  0.54357200  0.77279200  0.52278600  1
  Mo  Mo6  1  0.77279200  0.54357200  0.02278600  1
  Mo  Mo7  1  0.22720800  0.45642800  0.97721400  1
  Mo  Mo8  1  0.81193800  0.06626000  0.14706700  1
  Mo  Mo9  1  0.18806200  0.93374000  0.85293300  1
  Mo  Mo10  1  0.93374000  0.18806200  0.35293300  1
  Mo  Mo11  1  0.06626000  0.81193800  0.64706700  1
  Mo  Mo12  1  0.29637600  0.70362400  0.25000000  1
  Mo  Mo13  1  0.70362400  0.29637600  0.75000000  1
  O  O0  1  0.48732100  0.12601800  0.21804500  1
  O  O1  1  0.51267900  0.87398200  0.78195500  1
  O  O2  1  0.87398200  0.51267900  0.28195500  1
  O  O3  1  0.12601800  0.48732100  0.71804500  1
  O  O4  1  0.64265000  0.07051800  0.49565500  1
  O  O5  1  0.35735000  0.92948200  0.50434500  1
  O  O6  1  0.92948200  0.35735000  0.00434500  1
  O  O7  1  0.07051800  0.64265000  0.99565500  1
  O  O8  1  0.31633000  0.06013700  0.16573600  1
  O  O9  1  0.68367000  0.93986300  0.83426400  1
  O  O10  1  0.93986300  0.68367000  0.33426400  1
  O  O11  1  0.06013700  0.31633000  0.66573600  1
  O  O12  1  0.93480300  0.02503000  0.39829400  1
  O  O13  1  0.06519700  0.97497000  0.60170600  1
  O  O14  1  0.97497000  0.06519700  0.10170600  1
  O  O15  1  0.02503000  0.93480300  0.89829400  1
  O  O16  1  0.79711600  0.99644500  0.28314900  1
  O  O17  1  0.20288400  0.00355500  0.71685100  1
  O  O18  1  0.00355500  0.20288400  0.21685100  1
  O  O19  1  0.99644500  0.79711600  0.78314900  1
  O  O20  1  0.57622200  0.80545000  0.26124700  1
  O  O21  1  0.42377800  0.19455000  0.73875300  1
  O  O22  1  0.19455000  0.42377800  0.23875300  1
  O  O23  1  0.80545000  0.57622200  0.76124700  1
  O  O24  1  0.66608600  0.82965400  0.47052800  1
  O  O25  1  0.33391400  0.17034600  0.52947200  1
  O  O26  1  0.17034600  0.33391400  0.02947200  1
  O  O27  1  0.82965400  0.66608600  0.97052800  1
  O  O28  1  0.82948400  0.94659600  0.08326100  1
  O  O29  1  0.17051600  0.05340400  0.91673900  1
  O  O30  1  0.05340400  0.17051600  0.41673900  1
  O  O31  1  0.94659600  0.82948400  0.58326100  1
  O  O32  1  0.61167600  0.96037800  0.04811400  1
  O  O33  1  0.38832400  0.03962200  0.95188600  1
  O  O34  1  0.03962200  0.38832400  0.45188600  1
  O  O35  1  0.96037800  0.61167600  0.54811400  1
  O  O36  1  0.37581700  0.39006600  0.04315800  1
  O  O37  1  0.62418300  0.60993400  0.95684200  1
  O  O38  1  0.60993400  0.62418300  0.45684200  1
  O  O39  1  0.39006600  0.37581700  0.54315800  1
  O  O40  1  0.25969700  0.86810500  0.15722300  1
  O  O41  1  0.74030300  0.13189500  0.84277700  1
  O  O42  1  0.13189500  0.74030300  0.34277700  1
  O  O43  1  0.86810500  0.25969700  0.65722300  1
  O  O44  1  0.43974100  0.63884000  0.31970300  1
  O  O45  1  0.56025900  0.36116000  0.68029700  1
  O  O46  1  0.36116000  0.56025900  0.18029700  1
  O  O47  1  0.63884000  0.43974100  0.81970300  1
  O  O48  1  0.64301600  0.26384000  0.12465600  1
  O  O49  1  0.35698400  0.73616000  0.87534400  1
  O  O50  1  0.73616000  0.35698400  0.37534400  1
  O  O51  1  0.26384000  0.64301600  0.62465600  1
  O  O52  1  0.44859100  0.30343300  0.33928400  1
  O  O53  1  0.55140900  0.69656700  0.66071600  1
  O  O54  1  0.69656700  0.55140900  0.16071600  1
  O  O55  1  0.30343300  0.44859100  0.83928400  1
loop_
_geom_bond_atom_site_label_1
_geom_bond_atom_site_label_2
_geom_bond_distance
_geom_bond_site_symmetry_2
Hf0 O48 2.052126 1_555
Hf0 O46 2.068942 1_555
Hf0 O36 2.075900 1_555
Hf0 O22 2.092267 1_555
Hf0 O0 2.095211 1_555
Hf0 O52 2.096848 1_555
Hf1 O49 2.052126 1_555
Hf1 O47 2.068942 1_555
Hf1 O37 2.075900 1_555
Hf1 O23 2.092267 1_555
Hf1 O1 2.095211 1_555
Hf1 O53 2.096848 1_555
Hf2 O50 2.052126 1_555
Hf2 O44 2.068942 1_555
Hf2 O38 2.075900 1_555
Hf2 O20 2.092267 1_555
Hf2 O2 2.095211 1_555
Hf2 O54 2.096848 1_555
Hf3 O51 2.052126 1_555
Hf3 O45 2.068942 1_555
Hf3 O39 2.075900 1_555
Hf3 O21 2.092267 1_555
Hf3 O3 2.095211 1_555
Hf3 O55 2.096848 1_555
Mo0 O8 1.754020 1_565
Mo0 O32 1.767140 1_555
Mo0 O20 1.827072 1_555
Mo0 O0 1.836468 1_565
Mo1 O9 1.754020 1_545
Mo1 O33 1.767140 1_555
Mo1 O21 1.827072 1_555
Mo1 O1 1.836468 1_545
Mo2 O10 1.754020 1_455
Mo2 O34 1.767140 1_555
Mo2 O22 1.827072 1_555
Mo2 O2 1.836468 1_455
Mo3 O11 1.754020 1_655
Mo3 O35 1.767140 1_555
Mo3 O23 1.827072 1_555
Mo3 O3 1.836468 1_655
Mo4 O25 1.765755 1_555
Mo4 O4 1.771959 1_555
Mo4 O52 1.823572 1_555
Mo4 O39 1.838426 1_555
Mo5 O24 1.765755 1_555
Mo5 O5 1.771959 1_555
Mo5 O53 1.823572 1_555
Mo5 O38 1.838426 1_555
Mo6 O27 1.765755 1_554
Mo6 O6 1.771959 1_555
Mo6 O54 1.823572 1_555
Mo6 O37 1.838426 1_554
Mo7 O26 1.765755 1_556
Mo7 O7 1.771959 1_555
Mo7 O55 1.823572 1_555
Mo7 O36 1.838426 1_556
Mo8 O14 1.767326 1_555
Mo8 O16 1.777284 1_545
Mo8 O28 1.783395 1_545
Mo8 O48 1.855334 1_555
Mo9 O15 1.767326 1_555
Mo9 O17 1.777284 1_565
Mo9 O29 1.783395 1_565
Mo9 O49 1.855334 1_555
Mo10 O12 1.767326 1_555
Mo10 O18 1.777284 1_655
Mo10 O30 1.783395 1_655
Mo10 O50 1.855334 1_555
Mo11 O13 1.767326 1_555
Mo11 O19 1.777284 1_455
Mo11 O31 1.783395 1_455
Mo11 O51 1.855334 1_555
Mo12 O42 1.766323 1_555
Mo12 O40 1.766323 1_555
Mo12 O44 1.830075 1_555
Mo12 O46 1.830075 1_555
Mo13 O41 1.766323 1_555
Mo13 O43 1.766323 1_555
Mo13 O45 1.830075 1_555
Mo13 O47 1.830075 1_555
O4 Y2 2.383934 1_545
O5 Y3 2.383934 1_565
O6 Y0 2.383934 1_655
O7 Y1 2.383934 1_455
O8 Y0 2.407390 1_555
O9 Y1 2.407390 1_555
O10 Y2 2.407390 1_555
O11 Y3 2.407390 1_555
O12 Y2 2.369008 1_545
O13 Y3 2.369008 1_565
O14 Y0 2.369008 1_655
O15 Y1 2.369008 1_455
O16 Y2 2.275414 1_555
O17 Y3 2.275414 1_555
O18 Y0 2.275414 1_555
O19 Y1 2.275414 1_555
O24 Y2 2.469302 1_555
O25 Y3 2.469302 1_555
O26 Y0 2.469302 1_555
O27 Y1 2.469302 1_555
O28 Y1 2.352254 1_554
O29 Y0 2.352254 1_556
O30 Y3 2.352254 1_555
O31 Y2 2.352254 1_555
O32 Y1 2.380216 1_554
O33 Y0 2.380216 1_556
O34 Y3 2.380216 1_555
O35 Y2 2.380216 1_555
O40 Y0 2.413900 1_565
O41 Y1 2.413900 1_545
O42 Y2 2.413900 1_455
O43 Y3 2.413900 1_655
