# generated using pymatgen
data_Sr2In4Au3
_symmetry_space_group_name_H-M   'P 1'
_cell_length_a   15.06804936
_cell_length_b   15.06729627
_cell_length_c   4.61591496
_cell_angle_alpha   89.99993951
_cell_angle_beta   90.00035096
_cell_angle_gamma   120.00098889
_symmetry_Int_Tables_number   1
_chemical_formula_structural   Sr2In4Au3
_chemical_formula_sum   'Sr8 In16 Au12'
_cell_volume   907.56233744
_cell_formula_units_Z   4
loop_
 _symmetry_equiv_pos_site_id
 _symmetry_equiv_pos_as_xyz
  1  'x, y, z'
loop_
 _atom_site_type_symbol
 _atom_site_label
 _atom_site_symmetry_multiplicity
 _atom_site_fract_x
 _atom_site_fract_y
 _atom_site_fract_z
 _atom_site_occupancy
  Sr  Sr0  1  0.45148655  0.00000429  -0.00000071  1
  Sr  Sr1  1  -0.00000267  0.45149426  -0.00000154  1
  Sr  Sr2  1  0.54850596  0.54850156  -0.00000074  1
  Sr  Sr3  1  0.33333317  0.66667514  -0.00000087  1
  Sr  Sr4  1  0.66665320  0.33332460  -0.00000100  1
  Sr  Sr5  1  0.81963306  0.99999430  0.49999934  1
  Sr  Sr6  1  0.00000645  0.81963883  0.49999907  1
  Sr  Sr7  1  0.18037215  0.18035201  0.49999936  1
  In  In0  1  0.18373273  0.38256298  -0.00000066  1
  In  In1  1  0.61741084  0.80111924  -0.00000109  1
  In  In2  1  0.38258223  0.18363916  -0.00000091  1
  In  In3  1  0.19892947  0.81640106  -0.00000099  1
  In  In4  1  0.80111386  0.61741666  -0.00000119  1
  In  In5  1  0.81622096  0.19885087  -0.00000099  1
  In  In6  1  0.27880201  0.00002144  0.49999903  1
  In  In7  1  -0.00001195  0.27873804  0.49999916  1
  In  In8  1  0.72124587  0.72121655  0.49999940  1
  In  In9  1  0.35033953  0.47372796  0.49999911  1
  In  In10  1  0.52621674  0.87659138  0.49999907  1
  In  In11  1  0.47374626  0.35022305  0.49999906  1
  In  In12  1  0.12347790  0.64979489  0.49999910  1
  In  In13  1  0.87650900  0.52626638  0.49999909  1
  In  In14  1  0.64960950  0.12343549  0.49999910  1
  In  In15  1  0.00005118  -0.00002657  -0.00000092  1
  Au  Au0  1  0.17100492  0.49034303  0.49999893  1
  Au  Au1  1  0.50971106  0.68068417  0.49999930  1
  Au  Au2  1  0.49023436  0.17091447  0.49999896  1
  Au  Au3  1  0.31933658  0.82911761  0.49999908  1
  Au  Au4  1  0.68067837  0.50970767  0.49999930  1
  Au  Au5  1  0.82899125  0.31931537  0.49999900  1
  Au  Au6  1  0.17970230  0.00000162  -0.00000091  1
  Au  Au7  1  0.00000400  0.17961358  -0.00000091  1
  Au  Au8  1  0.82036624  0.82034404  -0.00000117  1
  Au  Au9  1  0.65648427  0.99999886  -0.00000092  1
  Au  Au10  1  0.00001260  0.65655829  0.00003179  1
  Au  Au11  1  0.34351004  0.34343672  -0.00000074  1
loop_
_geom_bond_atom_site_label_1
_geom_bond_atom_site_label_2
_geom_bond_distance
_geom_bond_site_symmetry_2
In0 Sr1 3.408665 1_555
In0 Sr7 3.802336 1_555
In0 Sr7 3.802339 1_554
In1 Sr2 3.407877 1_555
In1 Sr5 3.802570 1_555
In1 Sr5 3.802586 1_554
In2 Sr0 3.406818 1_555
In2 Sr7 3.802865 1_554
In2 Sr7 3.802890 1_555
In3 Sr0 3.406929 1_565
In3 Sr6 3.802564 1_554
In3 Sr6 3.802586 1_555
In4 Sr2 3.407892 1_555
In4 Sr6 3.802668 1_655
In4 Sr6 3.802685 1_654
In5 Sr1 3.408415 1_655
In5 Sr5 3.802730 1_545
In5 Sr5 3.802732 1_544
In6 Sr0 3.478186 1_556
In6 Sr0 3.478205 1_555
In6 Sr7 3.689484 1_555
In6 Sr6 3.690065 1_545
In7 Sr1 3.478757 1_556
In7 Sr1 3.478758 1_555
In7 Sr5 3.689255 1_445
In7 Sr7 3.689802 1_555
In8 Sr2 3.478497 1_555
In8 Sr2 3.478513 1_556
In8 Sr6 3.689603 1_655
In8 Sr5 3.689725 1_555
In9 Sr2 3.485365 1_556
In9 Sr2 3.485387 1_555
In9 Sr7 3.844167 1_555
In10 Sr0 3.485147 1_565
In10 Sr0 3.485160 1_566
In10 Sr5 3.844928 1_555
In11 Sr2 3.486461 1_556
In11 Sr2 3.486464 1_555
In11 Sr7 3.844181 1_555
In12 Sr1 3.486601 1_555
In12 Sr1 3.486608 1_556
In12 Sr6 3.843379 1_555
In13 Sr1 3.486337 1_656
In13 Sr1 3.486358 1_655
In13 Sr6 3.843989 1_655
In14 Sr0 3.485014 1_555
In14 Sr0 3.485037 1_556
In14 Sr5 3.845504 1_545
In15 Sr6 3.564794 1_545
In15 Sr6 3.564797 1_544
In15 Sr7 3.565239 1_555
In15 Sr7 3.565256 1_554
In15 Sr5 3.566223 1_444
In15 Sr5 3.566247 1_445
Au0 In12 2.829397 1_555
Au0 In9 2.835699 1_555
Au0 In0 2.883076 1_556
Au0 In0 2.883078 1_555
Au0 In7 2.930791 1_555
Au0 Sr1 3.286419 1_555
Au0 Sr1 3.286437 1_556
Au0 Sr3 3.445209 1_556
Au0 Sr3 3.445224 1_555
Au1 In9 2.828767 1_555
Au1 In10 2.835626 1_555
Au1 In1 2.882387 1_556
Au1 In1 2.882402 1_555
Au1 In8 2.930178 1_555
Au1 Sr2 3.286219 1_556
Au1 Sr2 3.286227 1_555
Au1 Sr3 3.445776 1_555
Au1 Sr3 3.445796 1_556
Au2 In14 2.827871 1_555
Au2 In11 2.834100 1_555
Au2 In2 2.881947 1_555
Au2 In2 2.881965 1_556
Au2 In6 2.928539 1_555
Au2 Sr0 3.285636 1_555
Au2 Sr0 3.285639 1_556
Au2 Sr4 3.446167 1_556
Au2 Sr4 3.446185 1_555
Au3 In10 2.828291 1_555
Au3 In12 2.834750 1_555
Au3 In3 2.882252 1_555
Au3 In3 2.882269 1_556
Au3 In6 2.928619 1_565
Au3 Sr0 3.285432 1_566
Au3 Sr0 3.285444 1_565
Au3 Sr3 3.446438 1_556
Au3 Sr3 3.446443 1_555
Au4 In11 2.829099 1_555
Au4 In13 2.834282 1_555
Au4 In4 2.882433 1_556
Au4 In4 2.882452 1_555
Au4 In8 2.929449 1_555
Au4 Sr2 3.286155 1_555
Au4 Sr2 3.286173 1_556
Au4 Sr4 3.445661 1_556
Au4 Sr4 3.445665 1_555
Au5 In13 2.828973 1_555
Au5 In14 2.835290 1_555
Au5 In5 2.882519 1_556
Au5 In5 2.882520 1_555
Au5 In7 2.930521 1_655
Au5 Sr1 3.286426 1_656
Au5 Sr1 3.286449 1_655
Au5 Sr4 3.445430 1_555
Au5 Sr4 3.445451 1_556
Au6 In15 2.706780 1_555
Au6 In6 2.748807 1_555
Au6 In6 2.748823 1_554
Au6 In3 2.922018 1_545
Au6 In2 2.922736 1_555
Au6 Sr7 3.561397 1_554
Au6 Sr7 3.561402 1_555
Au6 Sr6 3.561570 1_544
Au6 Sr6 3.561588 1_545
Au7 In15 2.707047 1_555
Au7 In7 2.749122 1_554
Au7 In7 2.749125 1_555
Au7 In0 2.923889 1_555
Au7 In5 2.924974 1_455
Au7 Sr5 3.561180 1_444
Au7 Sr5 3.561200 1_445
Au7 Sr7 3.561306 1_555
Au7 Sr7 3.561325 1_554
Au8 In15 2.706975 1_665
Au8 In8 2.749054 1_554
Au8 In8 2.749071 1_555
Au8 In4 2.923330 1_555
Au8 In1 2.924085 1_555
Au8 Sr6 3.561234 1_655
Au8 Sr6 3.561254 1_654
Au8 Sr5 3.561414 1_554
Au8 Sr5 3.561421 1_555
Au9 In5 2.749275 1_565
Au9 In1 2.749873 1_555
Au9 In10 2.997837 1_554
Au9 In10 2.997852 1_555
Au9 In14 2.998186 1_564
Au9 In14 2.998190 1_565
Au9 Sr0 3.088957 1_565
Au9 Sr5 3.371970 1_555
Au9 Sr5 3.371989 1_554
Au10 In4 2.749973 1_455
Au10 In3 2.750499 1_555
Au10 In12 2.997818 1_555
Au10 In12 2.998068 1_554
Au10 In13 2.998280 1_455
Au10 In13 2.998498 1_454
Au10 Sr1 3.089645 1_555
Au10 Sr6 3.371047 1_555
Au10 Sr6 3.371250 1_554
Au11 In2 2.749779 1_555
Au11 In0 2.750109 1_555
Au11 In11 2.997905 1_555
Au11 In11 2.997925 1_554
Au11 In9 2.998188 1_554
Au11 In9 2.998189 1_555
Au11 Sr2 3.089285 1_555
Au11 Sr7 3.371462 1_554
Au11 Sr7 3.371480 1_555
