# generated using pymatgen
data_TiRe2Mo
_symmetry_space_group_name_H-M   'P 1'
_cell_length_a   4.40673962
_cell_length_b   4.40673962
_cell_length_c   4.40673962
_cell_angle_alpha   60.00000000
_cell_angle_beta   60.00000000
_cell_angle_gamma   60.00000000
_symmetry_Int_Tables_number   1
_chemical_formula_structural   TiRe2Mo
_chemical_formula_sum   'Ti1 Re2 Mo1'
_cell_volume   60.51139618
_cell_formula_units_Z   1
loop_
 _symmetry_equiv_pos_site_id
 _symmetry_equiv_pos_as_xyz
  1  'x, y, z'
loop_
 _atom_site_type_symbol
 _atom_site_label
 _atom_site_symmetry_multiplicity
 _atom_site_fract_x
 _atom_site_fract_y
 _atom_site_fract_z
 _atom_site_occupancy
  Ti  Ti0  1  0.00000000  0.00000000  0.00000000  1
  Re  Re0  1  0.25000000  0.25000000  0.25000000  1
  Re  Re1  1  0.75000000  0.75000000  0.75000000  1
  Mo  Mo0  1  0.50000000  0.50000000  0.50000000  1
loop_
_geom_bond_atom_site_label_1
_geom_bond_atom_site_label_2
_geom_bond_distance
_geom_bond_site_symmetry_2
Re0 Ti0 2.698566 1_556
Re0 Ti0 2.698566 1_555
Re0 Ti0 2.698566 1_565
Re0 Ti0 2.698566 1_655
Re1 Ti0 2.698566 1_665
Re1 Ti0 2.698566 1_656
Re1 Ti0 2.698566 1_666
Re1 Ti0 2.698566 1_566
Mo0 Re1 2.698566 1_555
Mo0 Re1 2.698566 1_545
Mo0 Re0 2.698566 1_655
Mo0 Re0 2.698566 1_556
Mo0 Re0 2.698566 1_555
Mo0 Re1 2.698566 1_554
Mo0 Re0 2.698566 1_565
Mo0 Re1 2.698566 1_455
Mo0 Ti0 3.116035 1_556
Mo0 Ti0 3.116035 1_566
Mo0 Ti0 3.116035 1_565
Mo0 Ti0 3.116035 1_656
Mo0 Ti0 3.116035 1_655
Mo0 Ti0 3.116035 1_665
