# generated using pymatgen
data_BaNdEuBiO6
_symmetry_space_group_name_H-M   'P 1'
_cell_length_a   6.14506846
_cell_length_b   6.29502771
_cell_length_c   8.80308165
_cell_angle_alpha   90.26742367
_cell_angle_beta   89.64101886
_cell_angle_gamma   89.92133367
_symmetry_Int_Tables_number   1
_chemical_formula_structural   BaNdEuBiO6
_chemical_formula_sum   'Ba2 Nd2 Eu2 Bi2 O12'
_cell_volume   340.52219134
_cell_formula_units_Z   2
loop_
 _symmetry_equiv_pos_site_id
 _symmetry_equiv_pos_as_xyz
  1  'x, y, z'
loop_
 _atom_site_type_symbol
 _atom_site_label
 _atom_site_symmetry_multiplicity
 _atom_site_fract_x
 _atom_site_fract_y
 _atom_site_fract_z
 _atom_site_occupancy
  Ba  Ba0  1  0.98752435  0.04305784  0.25001194  1
  Ba  Ba1  1  0.01247565  0.95694216  0.74998806  1
  Nd  Nd0  1  0.50000000  0.00000000  -0.00000000  1
  Nd  Nd1  1  0.00000000  0.50000000  0.50000000  1
  Eu  Eu0  1  0.51174209  0.55142858  0.25137315  1
  Eu  Eu1  1  0.48825791  0.44857142  0.74862685  1
  Bi  Bi0  1  0.00000000  0.50000000  -0.00000000  1
  Bi  Bi1  1  0.50000000  0.00000000  0.50000000  1
  O  O0  1  0.20135456  0.22120044  0.94818190  1
  O  O1  1  0.31795847  0.70190723  0.55509739  1
  O  O2  1  0.79864544  0.77879956  0.05181810  1
  O  O3  1  0.68204153  0.29809277  0.44490261  1
  O  O4  1  0.29513209  0.68526749  0.94258288  1
  O  O5  1  0.22103714  0.20572292  0.55074906  1
  O  O6  1  0.70486791  0.31473251  0.05741712  1
  O  O7  1  0.77896286  0.79427708  0.44925094  1
  O  O8  1  0.42015952  0.95057954  0.25912069  1
  O  O9  1  0.11598886  0.48278528  0.23934790  1
  O  O10  1  0.57984048  0.04942046  0.74087931  1
  O  O11  1  0.88401114  0.51721472  0.76065210  1
loop_
_geom_bond_atom_site_label_1
_geom_bond_atom_site_label_2
_geom_bond_distance
_geom_bond_site_symmetry_2
Ba0 O2 2.676203 1_545
Ba0 O7 2.678504 1_545
Ba0 O8 2.722535 1_645
Ba0 O9 2.881294 1_655
Ba0 O6 2.978597 1_555
Ba0 O3 2.995075 1_555
Ba0 O0 3.167351 1_654
Ba0 O5 3.184769 1_655
Ba1 O0 2.676203 1_565
Ba1 O5 2.678504 1_565
Ba1 O10 2.722535 1_465
Ba1 O11 2.881294 1_455
Ba1 O4 2.978597 1_555
Ba1 O1 2.995075 1_555
Ba1 O2 3.167351 1_456
Ba1 O7 3.184769 1_455
Nd0 O0 2.350401 1_554
Nd0 O2 2.350401 1_545
Nd0 O8 2.352394 1_545
Nd0 O10 2.352394 1_554
Nd0 O4 2.402332 1_544
Nd0 O6 2.402332 1_555
Nd1 O7 2.341931 1_455
Nd1 O5 2.341931 1_555
Nd1 O3 2.383547 1_455
Nd1 O1 2.383547 1_555
Nd1 O9 2.400347 1_555
Nd1 O11 2.400347 1_455
Eu0 O9 2.473438 1_555
Eu0 O6 2.547510 1_555
Eu0 O3 2.565926 1_555
Eu0 O8 2.574666 1_555
Eu0 O7 2.843539 1_555
Eu0 O2 2.869588 1_555
Eu0 O1 3.065524 1_555
Eu0 O4 3.151896 1_554
Eu1 O11 2.473438 1_555
Eu1 O4 2.547510 1_555
Eu1 O1 2.565926 1_555
Eu1 O10 2.574666 1_555
Eu1 O5 2.843539 1_555
Eu1 O0 2.869588 1_555
Eu1 O3 3.065524 1_555
Eu1 O6 3.151896 1_556
Bi0 O2 2.190612 1_455
Bi0 O0 2.190612 1_554
Bi0 O6 2.214643 1_455
Bi0 O4 2.214643 1_554
Bi0 O11 2.231581 1_454
Bi0 O9 2.231581 1_555
Bi1 O5 2.189574 1_555
Bi1 O7 2.189574 1_545
Bi1 O10 2.200280 1_555
Bi1 O8 2.200280 1_545
Bi1 O1 2.239502 1_545
Bi1 O3 2.239502 1_555
