# generated using pymatgen
data_Mn5As4(HO2)10
_symmetry_space_group_name_H-M   'P 1'
_cell_length_a   10.35930284
_cell_length_b   10.35930284
_cell_length_c   9.95338851
_cell_angle_alpha   84.48370312
_cell_angle_beta   84.48370312
_cell_angle_gamma   54.26365891
_symmetry_Int_Tables_number   1
_chemical_formula_structural   Mn5As4(HO2)10
_chemical_formula_sum   'Mn10 As8 H20 O40'
_cell_volume   861.95827999
_cell_formula_units_Z   2
loop_
 _symmetry_equiv_pos_site_id
 _symmetry_equiv_pos_as_xyz
  1  'x, y, z'
loop_
 _atom_site_type_symbol
 _atom_site_label
 _atom_site_symmetry_multiplicity
 _atom_site_fract_x
 _atom_site_fract_y
 _atom_site_fract_z
 _atom_site_occupancy
  Mn  Mn0  1  0.89530800  0.10469200  0.25000000  1
  Mn  Mn1  1  0.10469200  0.89530800  0.75000000  1
  Mn  Mn2  1  0.77374700  0.59899700  0.68587100  1
  Mn  Mn3  1  0.40100300  0.22625300  0.81412900  1
  Mn  Mn4  1  0.22625300  0.40100300  0.31412900  1
  Mn  Mn5  1  0.59899700  0.77374700  0.18587100  1
  Mn  Mn6  1  0.14577200  0.20278400  0.63713100  1
  Mn  Mn7  1  0.79721600  0.85422800  0.86286900  1
  Mn  Mn8  1  0.85422800  0.79721600  0.36286900  1
  Mn  Mn9  1  0.20278400  0.14577200  0.13713100  1
  As  As0  1  0.90339100  0.26628700  0.91204500  1
  As  As1  1  0.73371300  0.09660900  0.58795500  1
  As  As2  1  0.09660900  0.73371300  0.08795500  1
  As  As3  1  0.26628700  0.90339100  0.41204500  1
  As  As4  1  0.57868900  0.10225500  0.12546900  1
  As  As5  1  0.89774500  0.42131100  0.37453100  1
  As  As6  1  0.42131100  0.89774500  0.87453100  1
  As  As7  1  0.10225500  0.57868900  0.62546900  1
  H  H0  1  0.69054800  0.27096600  0.01423700  1
  H  H1  1  0.72903400  0.30945200  0.48576300  1
  H  H2  1  0.30945200  0.72903400  0.98576300  1
  H  H3  1  0.27096600  0.69054800  0.51423700  1
  H  H4  1  0.16692300  0.41918500  0.02516300  1
  H  H5  1  0.58081500  0.83307700  0.47483700  1
  H  H6  1  0.83307700  0.58081500  0.97483700  1
  H  H7  1  0.41918500  0.16692300  0.52516300  1
  H  H8  1  0.08851900  0.38289500  0.91551100  1
  H  H9  1  0.61710500  0.91148100  0.58448900  1
  H  H10  1  0.91148100  0.61710500  0.08448900  1
  H  H11  1  0.38289500  0.08851900  0.41551100  1
  H  H12  1  0.51573700  0.34476400  0.27606900  1
  H  H13  1  0.65523600  0.48426300  0.22393100  1
  H  H14  1  0.48426300  0.65523600  0.72393100  1
  H  H15  1  0.34476400  0.51573700  0.77606900  1
  H  H16  1  0.40005800  0.51612400  0.34700000  1
  H  H17  1  0.48387600  0.59994200  0.15300000  1
  H  H18  1  0.59994200  0.48387600  0.65300000  1
  H  H19  1  0.51612400  0.40005800  0.84700000  1
  O  O0  1  0.01547600  0.13848700  0.78649800  1
  O  O1  1  0.86151300  0.98452400  0.71350200  1
  O  O2  1  0.98452400  0.86151300  0.21350200  1
  O  O3  1  0.13848700  0.01547600  0.28649800  1
  O  O4  1  0.89071100  0.43741900  0.86568500  1
  O  O5  1  0.56258100  0.10928900  0.63431500  1
  O  O6  1  0.10928900  0.56258100  0.13431500  1
  O  O7  1  0.43741900  0.89071100  0.36568500  1
  O  O8  1  0.98089100  0.18873600  0.06783500  1
  O  O9  1  0.81126400  0.01910900  0.43216500  1
  O  O10  1  0.01910900  0.81126400  0.93216500  1
  O  O11  1  0.18873600  0.98089100  0.56783500  1
  O  O12  1  0.59862500  0.07246800  0.95374700  1
  O  O13  1  0.92753200  0.40137500  0.54625300  1
  O  O14  1  0.40137500  0.92753200  0.04625300  1
  O  O15  1  0.07246800  0.59862500  0.45374700  1
  O  O16  1  0.38156700  0.20437900  0.17800200  1
  O  O17  1  0.79562100  0.61843300  0.32199800  1
  O  O18  1  0.61843300  0.79562100  0.82199800  1
  O  O19  1  0.20437900  0.38156700  0.67800200  1
  O  O20  1  0.67722900  0.91938800  0.21136400  1
  O  O21  1  0.08061200  0.32277100  0.28863600  1
  O  O22  1  0.32277100  0.08061200  0.78863600  1
  O  O23  1  0.91938800  0.67722900  0.71136400  1
  O  O24  1  0.65800100  0.20454200  0.15787700  1
  O  O25  1  0.79545800  0.34199900  0.34212300  1
  O  O26  1  0.34199900  0.79545800  0.84212300  1
  O  O27  1  0.20454200  0.65800100  0.65787700  1
  O  O28  1  0.71052200  0.31091000  0.92190500  1
  O  O29  1  0.68909000  0.28947800  0.57809500  1
  O  O30  1  0.28947800  0.68909000  0.07809500  1
  O  O31  1  0.31091000  0.71052200  0.42190500  1
  O  O32  1  0.18201700  0.33288500  0.97216100  1
  O  O33  1  0.66711500  0.81798300  0.52783900  1
  O  O34  1  0.81798300  0.66711500  0.02783900  1
  O  O35  1  0.33288500  0.18201700  0.47216100  1
  O  O36  1  0.42344600  0.41030700  0.34095700  1
  O  O37  1  0.58969300  0.57655400  0.15904300  1
  O  O38  1  0.57655400  0.58969300  0.65904300  1
  O  O39  1  0.41030700  0.42344600  0.84095700  1
loop_
_geom_bond_atom_site_label_1
_geom_bond_atom_site_label_2
_geom_bond_distance
_geom_bond_site_symmetry_2
Mn0 O3 2.173494 1_655
Mn0 O2 2.173494 1_545
Mn0 O8 2.262892 1_555
Mn0 O9 2.262892 1_555
Mn0 O24 2.287972 1_555
Mn0 O25 2.287972 1_555
Mn1 O0 2.173494 1_565
Mn1 O1 2.173494 1_455
Mn1 O11 2.262892 1_555
Mn1 O10 2.262892 1_555
Mn1 O26 2.287972 1_555
Mn1 O27 2.287972 1_555
Mn2 O23 2.130468 1_555
Mn2 O38 2.143213 1_555
Mn2 O18 2.203799 1_555
Mn2 O4 2.223731 1_555
Mn2 O13 2.229776 1_555
Mn2 O33 2.358288 1_555
Mn3 O22 2.130468 1_555
Mn3 O39 2.143213 1_555
Mn3 O19 2.203799 1_555
Mn3 O5 2.223731 1_555
Mn3 O12 2.229776 1_555
Mn3 O32 2.358288 1_555
Mn4 O21 2.130468 1_555
Mn4 O36 2.143213 1_555
Mn4 O16 2.203799 1_555
Mn4 O6 2.223731 1_555
Mn4 O15 2.229776 1_555
Mn4 O35 2.358288 1_555
Mn5 O20 2.130468 1_555
Mn5 O37 2.143213 1_555
Mn5 O17 2.203799 1_555
Mn5 O7 2.223731 1_555
Mn5 O14 2.229776 1_555
Mn5 O34 2.358288 1_555
Mn6 O22 2.166051 1_555
Mn6 O13 2.182709 1_455
Mn6 O0 2.224824 1_555
Mn6 O11 2.237938 1_545
Mn6 O35 2.338506 1_555
Mn6 O19 2.338816 1_555
Mn7 O23 2.166051 1_555
Mn7 O12 2.182709 1_565
Mn7 O1 2.224824 1_555
Mn7 O10 2.237938 1_655
Mn7 O34 2.338506 1_556
Mn7 O18 2.338816 1_555
Mn8 O20 2.166051 1_555
Mn8 O15 2.182709 1_655
Mn8 O2 2.224824 1_555
Mn8 O9 2.237938 1_565
Mn8 O33 2.338506 1_555
Mn8 O17 2.338816 1_555
Mn9 O21 2.166051 1_555
Mn9 O14 2.182709 1_545
Mn9 O3 2.224824 1_555
Mn9 O8 2.237938 1_455
Mn9 O32 2.338506 1_554
Mn9 O16 2.338816 1_555
As0 O0 1.704689 1_655
As0 O8 1.714899 1_556
As0 O4 1.719125 1_555
As0 O28 1.762792 1_555
As1 O1 1.704689 1_545
As1 O9 1.714899 1_555
As1 O5 1.719125 1_555
As1 O29 1.762792 1_555
As2 O2 1.704689 1_455
As2 O10 1.714899 1_554
As2 O6 1.719125 1_555
As2 O30 1.762792 1_555
As3 O3 1.704689 1_565
As3 O11 1.714899 1_555
As3 O7 1.719125 1_555
As3 O31 1.762792 1_555
As4 O16 1.714678 1_555
As4 O20 1.720221 1_545
As4 O12 1.737349 1_554
As4 O24 1.742279 1_555
As5 O17 1.714678 1_555
As5 O21 1.720221 1_655
As5 O13 1.737349 1_555
As5 O25 1.742279 1_555
As6 O18 1.714678 1_555
As6 O22 1.720221 1_565
As6 O14 1.737349 1_556
As6 O26 1.742279 1_555
As7 O19 1.714678 1_555
As7 O23 1.720221 1_455
As7 O15 1.737349 1_555
As7 O27 1.742279 1_555
H0 O28 1.024193 1_554
H0 O24 1.618770 1_555
H1 O29 1.024193 1_555
H1 O25 1.618770 1_555
H2 O30 1.024193 1_556
H2 O26 1.618770 1_555
H3 O31 1.024193 1_555
H3 O27 1.618770 1_555
H4 O32 1.006744 1_554
H4 O6 1.700890 1_555
H5 O33 1.006744 1_555
H5 O7 1.700890 1_555
H6 O34 1.006744 1_556
H6 O4 1.700890 1_555
H7 O35 1.006744 1_555
H7 O5 1.700890 1_555
H8 O32 0.993560 1_555
H9 O33 0.993560 1_555
H10 O34 0.993560 1_555
H11 O35 0.993560 1_555
H12 O36 0.999762 1_555
H13 O37 0.999762 1_555
H14 O38 0.999762 1_555
H15 O39 0.999762 1_555
H16 O36 0.981626 1_555
H17 O37 0.981626 1_555
H18 O38 0.981626 1_555
H19 O39 0.981626 1_555
