# generated using pymatgen
data_Li10Zn(PS4)4
_symmetry_space_group_name_H-M   'P 1'
_cell_length_a   7.91054300
_cell_length_b   12.35572178
_cell_length_c   12.99232646
_cell_angle_alpha   89.84227232
_cell_angle_beta   89.98873693
_cell_angle_gamma   89.83735512
_symmetry_Int_Tables_number   1
_chemical_formula_structural   Li10Zn(PS4)4
_chemical_formula_sum   'Li20 Zn2 P8 S32'
_cell_volume   1269.86612385
_cell_formula_units_Z   2
loop_
 _symmetry_equiv_pos_site_id
 _symmetry_equiv_pos_as_xyz
  1  'x, y, z'
loop_
 _atom_site_type_symbol
 _atom_site_label
 _atom_site_symmetry_multiplicity
 _atom_site_fract_x
 _atom_site_fract_y
 _atom_site_fract_z
 _atom_site_occupancy
  Li  Li0  1  0.76024600  0.49403100  0.15654000  1
  Li  Li1  1  0.75744900  0.00343600  0.15808200  1
  Li  Li2  1  0.76019300  0.49943700  0.65811300  1
  Li  Li3  1  0.74753600  0.99753200  0.64857500  1
  Li  Li4  1  0.75682400  0.24183200  0.34098100  1
  Li  Li5  1  0.73989000  0.75413700  0.34272600  1
  Li  Li6  1  0.72828300  0.74938400  0.84003700  1
  Li  Li7  1  0.27522500  0.23752700  0.34004100  1
  Li  Li8  1  0.24709700  0.25018800  0.84877000  1
  Li  Li9  1  0.24297800  0.75329100  0.84255300  1
  Li  Li10  1  0.24461800  0.49057700  0.15713100  1
  Li  Li11  1  0.23690200  0.00127900  0.15645700  1
  Li  Li12  1  0.24585200  0.50292000  0.65888600  1
  Li  Li13  1  0.24994000  0.00076100  0.64899600  1
  Li  Li14  1  0.98690800  0.74132900  0.07013100  1
  Li  Li15  1  0.01422100  0.24220700  0.57218400  1
  Li  Li16  1  0.99518600  0.74742000  0.57537100  1
  Li  Li17  1  0.50612900  0.48534800  0.43007000  1
  Li  Li18  1  0.48981100  0.49226400  0.92790800  1
  Li  Li19  1  0.49239500  0.99593900  0.92467100  1
  Zn  Zn0  1  0.74934700  0.24822000  0.84831800  1
  Zn  Zn1  1  0.25668700  0.75383500  0.34391200  1
  P  P0  1  0.00903000  0.49644900  0.40951300  1
  P  P1  1  0.00179400  0.99408700  0.40724300  1
  P  P2  1  0.99945700  0.49857800  0.91349700  1
  P  P3  1  0.98978000  0.99904100  0.90688800  1
  P  P4  1  0.50906100  0.24925800  0.09560400  1
  P  P5  1  0.49771300  0.75104000  0.09291400  1
  P  P6  1  0.50338200  0.25395800  0.59493100  1
  P  P7  1  0.49214800  0.75414600  0.58855500  1
  S  S0  1  0.00152900  0.44188800  0.05849300  1
  S  S1  1  0.99414800  0.93966200  0.05505500  1
  S  S2  1  0.00591800  0.44641200  0.56033300  1
  S  S3  1  0.00098400  0.94401100  0.55891500  1
  S  S4  1  0.01561900  0.16120700  0.40141200  1
  S  S5  1  0.00401800  0.66785100  0.40137300  1
  S  S6  1  0.99333200  0.16693800  0.91369300  1
  S  S7  1  0.98627500  0.66516400  0.89804900  1
  S  S8  1  0.79277700  0.44435000  0.33877400  1
  S  S9  1  0.78779300  0.94559200  0.33660700  1
  S  S10  1  0.77944600  0.44133500  0.83890900  1
  S  S11  1  0.77494200  0.94581200  0.83300300  1
  S  S12  1  0.72852100  0.19860400  0.15835800  1
  S  S13  1  0.71063900  0.69222600  0.16418600  1
  S  S14  1  0.72348000  0.19718100  0.67070600  1
  S  S15  1  0.70848200  0.69408900  0.65789900  1
  S  S16  1  0.50467400  0.41708200  0.09798600  1
  S  S17  1  0.49681000  0.91672300  0.09800900  1
  S  S18  1  0.50323100  0.42063600  0.60561200  1
  S  S19  1  0.49660000  0.91636100  0.58011300  1
  S  S20  1  0.51653800  0.19587800  0.45041300  1
  S  S21  1  0.49303900  0.68843700  0.43768600  1
  S  S22  1  0.50355400  0.19826400  0.93869100  1
  S  S23  1  0.48499600  0.69421700  0.94447100  1
  S  S24  1  0.28886000  0.19593000  0.15631200  1
  S  S25  1  0.27952700  0.69312000  0.16778300  1
  S  S26  1  0.29056100  0.19662400  0.66836900  1
  S  S27  1  0.27860300  0.69748500  0.66199800  1
  S  S28  1  0.22355900  0.44103400  0.33903700  1
  S  S29  1  0.22699600  0.94253700  0.33913500  1
  S  S30  1  0.21116000  0.44540400  0.83615800  1
  S  S31  1  0.20729400  0.94896900  0.83286500  1
loop_
_geom_bond_atom_site_label_1
_geom_bond_atom_site_label_2
_geom_bond_distance
_geom_bond_site_symmetry_2
Li0 S16 2.363369 1_555
Li0 S0 2.382736 1_655
Li0 S8 2.457663 1_555
Li0 S13 2.481241 1_555
Li1 S12 2.421641 1_555
Li1 S1 2.432085 1_545
Li1 S9 2.436885 1_545
Li1 S17 2.454759 1_545
Li2 S18 2.358092 1_555
Li2 S2 2.412040 1_655
Li2 S15 2.438454 1_555
Li2 S10 2.458946 1_555
Li3 S19 2.398818 1_555
Li3 S3 2.410341 1_655
Li3 S11 2.487546 1_555
Li3 S14 2.491033 1_565
Li4 S4 2.405126 1_655
Li4 S20 2.440793 1_555
Li4 S12 2.443965 1_555
Li4 S8 2.519253 1_555
Li5 S9 2.397885 1_555
Li5 S21 2.448834 1_555
Li5 S13 2.455699 1_555
Li5 S5 2.462984 1_655
Li6 S7 2.408371 1_555
Li6 S23 2.451691 1_555
Li6 S11 2.457400 1_555
Li6 S15 2.469979 1_555
Li7 S4 2.397620 1_555
Li7 S20 2.440603 1_555
Li7 S24 2.445448 1_555
Li7 S28 2.546328 1_555
Li8 S6 2.409471 1_455
Li8 S22 2.425197 1_555
Li8 S30 2.433008 1_555
Li8 S26 2.461034 1_555
Li9 S7 2.415937 1_455
Li9 S31 2.436282 1_555
Li9 S23 2.437040 1_555
Li9 S27 2.462787 1_555
Li10 S16 2.374810 1_555
Li10 S0 2.390361 1_555
Li10 S28 2.445506 1_555
Li10 S25 2.522714 1_555
Li11 S17 2.426294 1_545
Li11 S24 2.441067 1_555
Li11 S1 2.453102 1_445
Li11 S29 2.481285 1_545
Li12 S18 2.376890 1_555
Li12 S2 2.396419 1_555
Li12 S27 2.419092 1_555
Li12 S30 2.424212 1_555
Li13 S19 2.385069 1_545
Li13 S3 2.398566 1_545
Li13 S26 2.455799 1_555
Li13 S31 2.494511 1_545
Li14 S7 2.428131 1_554
Li14 S1 2.458654 1_555
Li14 S13 2.576798 1_555
Li14 S25 2.704039 1_655
Li15 S4 2.436523 1_555
Li15 S2 2.528039 1_555
Li15 S26 2.578309 1_555
Li15 S14 2.690686 1_455
Li16 S3 2.438389 1_655
Li16 S5 2.468543 1_655
Li16 S27 2.581315 1_655
Li16 S15 2.594470 1_555
Li17 S18 2.414841 1_555
Li17 S21 2.513373 1_555
Li17 S28 2.589726 1_555
Li17 S8 2.607877 1_555
Li18 S16 2.397441 1_556
Li18 S23 2.505308 1_555
Li18 S30 2.574322 1_555
Li18 S10 2.641449 1_555
Li19 S17 2.453305 1_556
Li19 S22 2.508804 1_565
Li19 S11 2.606312 1_555
Li19 S31 2.618818 1_555
P0 S28 2.045337 1_555
P0 S8 2.048317 1_455
P0 S2 2.053261 1_555
P0 S5 2.120402 1_555
P1 S9 2.019019 1_455
P1 S3 2.063812 1_555
P1 S4 2.069271 1_565
P1 S29 2.087674 1_555
P2 S0 2.008086 1_656
P2 S30 2.059758 1_655
P2 S7 2.069838 1_555
P2 S10 2.116550 1_555
P3 S1 2.058477 1_556
P3 S11 2.062217 1_555
P3 S31 2.065168 1_655
P3 S6 2.076885 1_565
P4 S12 2.015415 1_555
P4 S24 2.023272 1_555
P4 S16 2.074095 1_555
P4 S22 2.135954 1_554
P5 S17 2.048377 1_555
P5 S13 2.052453 1_555
P5 S23 2.056832 1_554
P5 S25 2.107089 1_555
P6 S20 2.014498 1_555
P6 S26 2.061284 1_555
P6 S18 2.064475 1_555
P6 S14 2.117240 1_555
P7 S19 2.007389 1_555
P7 S27 2.063154 1_555
P7 S15 2.068975 1_555
P7 S21 2.123693 1_555
S5 Zn1 2.384978 1_555
S6 Zn0 2.332402 1_555
S10 Zn0 2.401374 1_555
S14 Zn0 2.402805 1_555
S21 Zn1 2.370624 1_555
S22 Zn0 2.354161 1_555
S25 Zn1 2.416684 1_555
S29 Zn1 2.343339 1_555
