# generated using pymatgen
data_Sr2LiTa2(NO2)2
_symmetry_space_group_name_H-M   'P 1'
_cell_length_a   5.89307887
_cell_length_b   5.77862441
_cell_length_c   5.77944493
_cell_angle_alpha   89.13925575
_cell_angle_beta   119.80751115
_cell_angle_gamma   119.81557534
_symmetry_Int_Tables_number   1
_chemical_formula_structural   Sr2LiTa2(NO2)2
_chemical_formula_sum   'Sr2 Li1 Ta2 N2 O4'
_cell_volume   140.94944414
_cell_formula_units_Z   1
loop_
 _symmetry_equiv_pos_site_id
 _symmetry_equiv_pos_as_xyz
  1  'x, y, z'
loop_
 _atom_site_type_symbol
 _atom_site_label
 _atom_site_symmetry_multiplicity
 _atom_site_fract_x
 _atom_site_fract_y
 _atom_site_fract_z
 _atom_site_occupancy
  Sr  Sr0  1  0.40806600  0.19878600  0.69891300  1
  Sr  Sr1  1  0.59193400  0.80121600  0.30108900  1
  Li  Li0  1  0.00000000  0.50000000  0.99999900  1
  Ta  Ta0  1  0.00000000  0.99999900  0.99999800  1
  Ta  Ta1  1  0.99999900  0.50000300  0.50000100  1
  N  N0  1  0.99996700  0.24910400  0.25087000  1
  N  N1  1  0.00003300  0.75089600  0.74912900  1
  O  O0  1  0.03710900  0.27407700  0.77417800  1
  O  O1  1  0.50016800  0.77100100  0.72915600  1
  O  O2  1  0.96289000  0.72592000  0.22582300  1
  O  O3  1  0.49983200  0.22900000  0.27084200  1
loop_
_geom_bond_atom_site_label_1
_geom_bond_atom_site_label_2
_geom_bond_distance
_geom_bond_site_symmetry_2
Li0 O0 2.018515 1_555
Li0 O2 2.018520 1_456
Li0 N1 2.034955 1_555
Li0 N0 2.034959 1_456
N0 Ta1 2.058490 1_555
N0 Ta0 2.058541 1_644
N0 Sr1 2.654693 1_545
N0 Sr0 2.656146 1_655
N1 Ta1 2.058445 1_455
N1 Ta0 2.058521 1_555
N1 Sr0 2.654690 1_565
N1 Sr1 2.656144 1_455
O0 Ta0 2.033906 1_545
O0 Ta1 2.034807 1_455
O0 Sr0 2.655999 1_555
O0 Sr1 2.790962 1_445
O1 Ta0 2.116573 1_655
O1 Ta1 2.117926 1_455
O1 Sr0 2.768195 1_565
O1 Sr1 2.768896 1_555
O1 Sr1 3.065173 1_556
O1 Sr0 3.065485 1_555
O2 Ta0 2.033930 1_654
O2 Ta1 2.034775 1_555
O2 Sr1 2.656013 1_555
O2 Sr0 2.790980 1_665
O3 Ta0 2.116572 1_544
O3 Ta1 2.117918 1_555
O3 Sr1 2.768188 1_545
O3 Sr0 2.768920 1_555
O3 Sr0 3.065150 1_554
O3 Sr1 3.065491 1_555
