# generated using pymatgen
data_SrHg8
_symmetry_space_group_name_H-M   'P 1'
_cell_length_a   5.47097300
_cell_length_b   13.49580200
_cell_length_c   27.35031400
_cell_angle_alpha   90.00000000
_cell_angle_beta   90.00000000
_cell_angle_gamma   90.00000000
_symmetry_Int_Tables_number   1
_chemical_formula_structural   SrHg8
_chemical_formula_sum   'Sr8 Hg64'
_cell_volume   2019.41503876
_cell_formula_units_Z   8
loop_
 _symmetry_equiv_pos_site_id
 _symmetry_equiv_pos_as_xyz
  1  'x, y, z'
loop_
 _atom_site_type_symbol
 _atom_site_label
 _atom_site_symmetry_multiplicity
 _atom_site_fract_x
 _atom_site_fract_y
 _atom_site_fract_z
 _atom_site_occupancy
  Sr  Sr0  1  0.25000000  0.04438600  0.29876700  1
  Sr  Sr1  1  0.25000000  0.54438600  0.20123300  1
  Sr  Sr2  1  0.75000000  0.95561400  0.70123300  1
  Sr  Sr3  1  0.75000000  0.45561400  0.79876700  1
  Sr  Sr4  1  0.25000000  0.07813500  0.90501100  1
  Sr  Sr5  1  0.25000000  0.57813500  0.59498900  1
  Sr  Sr6  1  0.75000000  0.92186500  0.09498900  1
  Sr  Sr7  1  0.75000000  0.42186500  0.40501100  1
  Hg  Hg0  1  0.25000000  0.00801300  0.44872000  1
  Hg  Hg1  1  0.25000000  0.50801300  0.05128000  1
  Hg  Hg2  1  0.75000000  0.99198700  0.55128000  1
  Hg  Hg3  1  0.75000000  0.49198700  0.94872000  1
  Hg  Hg4  1  0.25000000  0.07260100  0.15762700  1
  Hg  Hg5  1  0.25000000  0.57260100  0.34237300  1
  Hg  Hg6  1  0.75000000  0.92739900  0.84237300  1
  Hg  Hg7  1  0.75000000  0.42739900  0.65762700  1
  Hg  Hg8  1  0.25000000  0.07124800  0.77330100  1
  Hg  Hg9  1  0.25000000  0.57124800  0.72669900  1
  Hg  Hg10  1  0.75000000  0.92875200  0.22669900  1
  Hg  Hg11  1  0.75000000  0.42875200  0.27330100  1
  Hg  Hg12  1  0.25000000  0.12636800  0.66756200  1
  Hg  Hg13  1  0.25000000  0.62636800  0.83243800  1
  Hg  Hg14  1  0.75000000  0.87363200  0.33243800  1
  Hg  Hg15  1  0.75000000  0.37363200  0.16756200  1
  Hg  Hg16  1  0.25000000  0.13559800  0.53979400  1
  Hg  Hg17  1  0.25000000  0.63559800  0.96020600  1
  Hg  Hg18  1  0.75000000  0.86440200  0.46020600  1
  Hg  Hg19  1  0.75000000  0.36440200  0.03979400  1
  Hg  Hg20  1  0.25000000  0.22054300  0.40784000  1
  Hg  Hg21  1  0.25000000  0.72054300  0.09216000  1
  Hg  Hg22  1  0.75000000  0.77945700  0.59216000  1
  Hg  Hg23  1  0.75000000  0.27945700  0.90784000  1
  Hg  Hg24  1  0.25000000  0.27196900  0.21849900  1
  Hg  Hg25  1  0.25000000  0.77196900  0.28150100  1
  Hg  Hg26  1  0.75000000  0.72803100  0.78150100  1
  Hg  Hg27  1  0.75000000  0.22803100  0.71849900  1
  Hg  Hg28  1  0.25000000  0.27779900  0.81562900  1
  Hg  Hg29  1  0.25000000  0.77779900  0.68437100  1
  Hg  Hg30  1  0.75000000  0.72220100  0.18437100  1
  Hg  Hg31  1  0.75000000  0.22220100  0.31562900  1
  Hg  Hg32  1  0.25000000  0.28567500  0.98643200  1
  Hg  Hg33  1  0.25000000  0.78567500  0.51356800  1
  Hg  Hg34  1  0.75000000  0.71432500  0.01356800  1
  Hg  Hg35  1  0.75000000  0.21432500  0.48643200  1
  Hg  Hg36  1  0.25000000  0.31039400  0.10666900  1
  Hg  Hg37  1  0.25000000  0.81039400  0.39333100  1
  Hg  Hg38  1  0.75000000  0.68960600  0.89333100  1
  Hg  Hg39  1  0.75000000  0.18960600  0.60666900  1
  Hg  Hg40  1  0.25000000  0.32556100  0.60413900  1
  Hg  Hg41  1  0.25000000  0.82556100  0.89586100  1
  Hg  Hg42  1  0.75000000  0.67443900  0.39586100  1
  Hg  Hg43  1  0.75000000  0.17443900  0.10413900  1
  Hg  Hg44  1  0.25000000  0.35503900  0.32071700  1
  Hg  Hg45  1  0.25000000  0.85503900  0.17928300  1
  Hg  Hg46  1  0.75000000  0.64496100  0.67928300  1
  Hg  Hg47  1  0.75000000  0.14496100  0.82071700  1
  Hg  Hg48  1  0.25000000  0.35407700  0.71411100  1
  Hg  Hg49  1  0.25000000  0.85407700  0.78588900  1
  Hg  Hg50  1  0.75000000  0.64592300  0.28588900  1
  Hg  Hg51  1  0.75000000  0.14592300  0.21411100  1
  Hg  Hg52  1  0.25000000  0.37253700  0.49031300  1
  Hg  Hg53  1  0.25000000  0.87253700  0.00968700  1
  Hg  Hg54  1  0.75000000  0.62746300  0.50968700  1
  Hg  Hg55  1  0.75000000  0.12746300  0.99031300  1
  Hg  Hg56  1  0.25000000  0.43003600  0.89437200  1
  Hg  Hg57  1  0.25000000  0.93003600  0.60562800  1
  Hg  Hg58  1  0.75000000  0.56996400  0.10562800  1
  Hg  Hg59  1  0.75000000  0.06996400  0.39437200  1
  Hg  Hg60  1  0.25000000  0.58449000  0.45302600  1
  Hg  Hg61  1  0.25000000  0.08449000  0.04697400  1
  Hg  Hg62  1  0.75000000  0.41551000  0.54697400  1
  Hg  Hg63  1  0.75000000  0.91551000  0.95302600  1
loop_
_geom_bond_atom_site_label_1
_geom_bond_atom_site_label_2
_geom_bond_distance
_geom_bond_site_symmetry_2
Hg0 Hg16 3.028102 1_555
Hg0 Hg37 3.067242 1_545
Hg0 Hg20 3.078480 1_555
Hg0 Hg59 3.223570 1_555
Hg0 Hg59 3.223570 1_455
Hg0 Hg18 3.367192 1_445
Hg0 Hg18 3.367192 1_545
Hg1 Hg17 3.028102 1_554
Hg1 Hg36 3.067242 1_555
Hg1 Hg21 3.078480 1_555
Hg1 Hg58 3.223570 1_455
Hg1 Hg58 3.223570 1_555
Hg1 Hg19 3.367192 1_555
Hg1 Hg19 3.367192 1_455
Hg2 Hg39 3.067242 1_565
Hg2 Hg22 3.078480 1_555
Hg2 Hg57 3.223570 1_555
Hg2 Hg57 3.223570 1_655
Hg3 Hg38 3.067242 1_555
Hg3 Hg56 3.223570 1_655
Hg3 Hg56 3.223570 1_555
Hg4 Hg45 2.995319 1_545
Hg4 Hg61 3.030645 1_555
Hg4 Hg51 3.293729 1_555
Hg4 Hg51 3.293729 1_455
Hg4 Sr6 3.815262 1_445
Hg4 Sr6 3.815262 1_545
Hg4 Sr0 3.878959 1_555
Hg5 Hg60 3.030645 1_555
Hg5 Hg50 3.293729 1_455
Hg5 Hg50 3.293729 1_555
Hg5 Sr7 3.815262 1_455
Hg5 Sr7 3.815262 1_555
Hg5 Sr1 3.878959 1_555
Hg6 Hg63 3.030645 1_555
Hg6 Sr4 3.815262 1_665
Hg6 Sr4 3.815262 1_565
Hg6 Sr2 3.878959 1_555
Hg7 Sr5 3.815262 1_555
Hg7 Sr5 3.815262 1_655
Hg7 Sr3 3.878959 1_555
Hg8 Sr4 3.603509 1_555
Hg8 Sr2 3.715298 1_545
Hg8 Sr2 3.715298 1_445
Hg9 Sr5 3.603509 1_555
Hg9 Sr3 3.715298 1_555
Hg9 Sr3 3.715298 1_455
Hg10 Hg51 2.951049 1_565
Hg10 Hg14 2.986135 1_555
Hg10 Hg30 3.018408 1_555
Hg10 Hg45 3.186588 1_655
Hg10 Hg45 3.186588 1_555
Hg10 Sr6 3.603509 1_555
Hg10 Sr0 3.715298 1_665
Hg10 Sr0 3.715298 1_565
Hg11 Hg50 2.951049 1_555
Hg11 Hg15 2.986135 1_555
Hg11 Hg31 3.018408 1_555
Hg11 Hg44 3.186588 1_655
Hg11 Hg44 3.186588 1_555
Hg11 Sr7 3.603509 1_555
Hg11 Sr1 3.715298 1_655
Hg11 Sr1 3.715298 1_555
Hg12 Hg8 2.986135 1_555
Hg12 Hg57 3.144842 1_545
Hg12 Hg40 3.199338 1_555
Hg12 Hg39 3.314356 1_555
Hg12 Hg39 3.314356 1_455
Hg12 Hg48 3.326394 1_555
Hg12 Hg27 3.362467 1_455
Hg12 Hg27 3.362467 1_555
Hg12 Sr2 3.693442 1_545
Hg12 Sr2 3.693442 1_445
Hg13 Hg9 2.986135 1_555
Hg13 Hg56 3.144842 1_555
Hg13 Hg41 3.199338 1_555
Hg13 Hg38 3.314356 1_455
Hg13 Hg38 3.314356 1_555
Hg13 Hg49 3.326394 1_555
Hg13 Hg26 3.362467 1_455
Hg13 Hg26 3.362467 1_555
Hg13 Sr3 3.693442 1_455
Hg13 Sr3 3.693442 1_555
Hg14 Hg59 3.144842 1_565
Hg14 Hg42 3.199338 1_555
Hg14 Hg37 3.314356 1_555
Hg14 Hg37 3.314356 1_655
Hg14 Hg50 3.326394 1_555
Hg14 Hg25 3.362467 1_555
Hg14 Hg25 3.362467 1_655
Hg14 Sr0 3.693442 1_665
Hg14 Sr0 3.693442 1_565
Hg15 Hg58 3.144842 1_555
Hg15 Hg43 3.199338 1_555
Hg15 Hg36 3.314356 1_555
Hg15 Hg36 3.314356 1_655
Hg15 Hg51 3.326394 1_555
Hg15 Hg24 3.362467 1_555
Hg15 Hg24 3.362467 1_655
Hg15 Sr1 3.693442 1_555
Hg15 Sr1 3.693442 1_655
Hg16 Hg40 3.109609 1_555
Hg16 Hg35 3.277469 1_555
Hg16 Hg35 3.277469 1_455
Hg16 Hg57 3.307327 1_545
Hg16 Hg2 3.367192 1_445
Hg16 Hg2 3.367192 1_545
Hg16 Hg39 3.370399 1_455
Hg16 Hg39 3.370399 1_555
Hg17 Hg41 3.109609 1_555
Hg17 Hg34 3.277469 1_456
Hg17 Hg34 3.277469 1_556
Hg17 Hg56 3.307327 1_555
Hg17 Hg3 3.367192 1_455
Hg17 Hg3 3.367192 1_555
Hg17 Hg38 3.370399 1_455
Hg17 Hg38 3.370399 1_555
Hg18 Hg2 3.028102 1_555
Hg18 Hg42 3.109609 1_555
Hg18 Hg33 3.277469 1_555
Hg18 Hg33 3.277469 1_655
Hg18 Hg59 3.307327 1_565
Hg18 Hg37 3.370399 1_655
Hg18 Hg37 3.370399 1_555
Hg19 Hg3 3.028102 1_554
Hg19 Hg43 3.109609 1_555
Hg19 Hg32 3.277469 1_554
Hg19 Hg32 3.277469 1_654
Hg19 Hg58 3.307327 1_555
Hg19 Hg36 3.370399 1_555
Hg19 Hg36 3.370399 1_655
Hg20 Hg44 2.995436 1_555
Hg20 Hg52 3.048896 1_555
Hg20 Sr0 3.814617 1_555
Hg20 Sr7 3.856290 1_455
Hg20 Sr7 3.856290 1_555
Hg21 Hg45 2.995436 1_555
Hg21 Hg53 3.048896 1_555
Hg21 Sr1 3.814617 1_555
Hg21 Sr6 3.856290 1_455
Hg21 Sr6 3.856290 1_555
Hg22 Hg46 2.995436 1_555
Hg22 Hg54 3.048896 1_555
Hg22 Sr2 3.814617 1_555
Hg22 Sr5 3.856290 1_655
Hg22 Sr5 3.856290 1_555
Hg23 Hg47 2.995436 1_555
Hg23 Hg55 3.048896 1_555
Hg23 Hg3 3.078480 1_555
Hg23 Sr3 3.814617 1_555
Hg23 Sr4 3.856290 1_555
Hg23 Sr4 3.856290 1_655
Hg24 Hg44 3.012103 1_555
Hg24 Hg36 3.102236 1_555
Hg24 Hg4 3.164061 1_555
Hg24 Hg51 3.223508 1_455
Hg24 Hg51 3.223508 1_555
Hg24 Sr1 3.706690 1_555
Hg24 Sr0 3.775338 1_555
Hg25 Hg45 3.012103 1_555
Hg25 Hg37 3.102236 1_555
Hg25 Hg5 3.164061 1_555
Hg25 Hg50 3.223508 1_555
Hg25 Hg50 3.223508 1_455
Hg25 Sr0 3.706690 1_565
Hg25 Sr1 3.775338 1_555
Hg26 Hg46 3.012103 1_555
Hg26 Hg38 3.102236 1_555
Hg26 Hg6 3.164061 1_555
Hg26 Hg49 3.223508 1_555
Hg26 Hg49 3.223508 1_655
Hg26 Sr3 3.706690 1_555
Hg26 Sr2 3.775338 1_555
Hg27 Hg47 3.012103 1_555
Hg27 Hg39 3.102236 1_555
Hg27 Hg7 3.164061 1_555
Hg27 Hg48 3.223508 1_655
Hg27 Hg48 3.223508 1_555
Hg27 Sr2 3.706690 1_545
Hg27 Sr3 3.775338 1_555
Hg28 Hg48 2.961243 1_555
Hg28 Hg56 2.976476 1_555
Hg28 Hg8 3.018408 1_555
Hg28 Hg47 3.273564 1_555
Hg28 Hg47 3.273564 1_455
Hg28 Sr4 3.638297 1_555
Hg28 Sr3 3.668024 1_555
Hg28 Sr3 3.668024 1_455
Hg29 Hg49 2.961243 1_555
Hg29 Hg57 2.976476 1_555
Hg29 Hg9 3.018408 1_555
Hg29 Hg46 3.273564 1_555
Hg29 Hg46 3.273564 1_455
Hg29 Sr5 3.638297 1_555
Hg29 Sr2 3.668024 1_555
Hg29 Sr2 3.668024 1_455
Hg30 Hg50 2.961243 1_555
Hg30 Hg58 2.976476 1_555
Hg30 Hg45 3.273564 1_655
Hg30 Hg45 3.273564 1_555
Hg30 Sr6 3.638297 1_555
Hg30 Sr1 3.668024 1_655
Hg30 Sr1 3.668024 1_555
Hg31 Hg51 2.961243 1_555
Hg31 Hg59 2.976476 1_555
Hg31 Hg44 3.273564 1_655
Hg31 Hg44 3.273564 1_555
Hg31 Sr7 3.638297 1_555
Hg31 Sr0 3.668024 1_655
Hg31 Sr0 3.668024 1_555
Hg32 Hg61 3.180231 1_556
Hg32 Hg56 3.183617 1_555
Hg32 Sr4 3.578294 1_555
Hg33 Hg60 3.180231 1_555
Hg33 Hg57 3.183617 1_555
Hg33 Sr5 3.578294 1_555
Hg34 Hg63 3.180231 1_554
Hg34 Hg58 3.183617 1_555
Hg34 Sr6 3.578294 1_555
Hg35 Hg62 3.180231 1_555
Hg35 Hg59 3.183617 1_555
Hg35 Sr7 3.578294 1_555
Hg40 Hg48 3.032289 1_555
Hg40 Hg52 3.177074 1_555
Hg40 Sr5 3.417863 1_555
Hg41 Hg49 3.032289 1_555
Hg41 Hg53 3.177074 1_556
Hg41 Sr4 3.417863 1_565
Hg42 Hg50 3.032289 1_555
Hg42 Hg54 3.177074 1_555
Hg42 Sr7 3.417863 1_555
Hg43 Hg51 3.032289 1_555
Hg43 Hg55 3.177074 1_554
Hg43 Sr6 3.417863 1_545
Hg44 Hg5 2.995319 1_555
Hg44 Sr7 3.689368 1_455
Hg44 Sr7 3.689368 1_555
Hg45 Sr6 3.689368 1_555
Hg45 Sr6 3.689368 1_455
Hg46 Hg7 2.995319 1_555
Hg46 Hg9 3.186588 1_555
Hg46 Hg9 3.186588 1_655
Hg46 Sr5 3.689368 1_555
Hg46 Sr5 3.689368 1_655
Hg47 Hg6 2.995319 1_545
Hg47 Hg8 3.186588 1_555
Hg47 Hg8 3.186588 1_655
Hg47 Sr4 3.689368 1_655
Hg47 Sr4 3.689368 1_555
Hg48 Hg9 2.951049 1_555
Hg48 Hg7 3.293729 1_555
Hg48 Hg7 3.293729 1_455
Hg48 Sr3 3.836874 1_555
Hg48 Sr3 3.836874 1_455
Hg49 Hg8 2.951049 1_565
Hg49 Hg6 3.293729 1_555
Hg49 Hg6 3.293729 1_455
Hg49 Sr2 3.836874 1_455
Hg49 Sr2 3.836874 1_555
Hg50 Sr1 3.836874 1_655
Hg50 Sr1 3.836874 1_555
Hg51 Sr0 3.836874 1_655
Hg51 Sr0 3.836874 1_555
Hg52 Hg60 3.036830 1_555
Hg52 Hg62 3.196997 1_555
Hg52 Hg62 3.196997 1_455
Hg52 Sr7 3.656382 1_555
Hg52 Sr7 3.656382 1_455
Hg52 Sr5 3.986895 1_555
Hg53 Hg61 3.036830 1_565
Hg53 Hg63 3.196997 1_554
Hg53 Hg63 3.196997 1_454
Hg53 Sr6 3.656382 1_455
Hg53 Sr6 3.656382 1_555
Hg53 Sr4 3.986895 1_564
Hg54 Hg62 3.036830 1_555
Hg54 Hg60 3.196997 1_555
Hg54 Hg60 3.196997 1_655
Hg54 Sr5 3.656382 1_555
Hg54 Sr5 3.656382 1_655
Hg54 Sr7 3.986895 1_555
Hg55 Hg63 3.036830 1_545
Hg55 Hg61 3.196997 1_556
Hg55 Hg61 3.196997 1_656
Hg55 Sr4 3.656382 1_555
Hg55 Sr4 3.656382 1_655
Hg55 Sr6 3.986895 1_546
Hg56 Sr3 3.799917 1_455
Hg56 Sr3 3.799917 1_555
Hg57 Sr2 3.799917 1_455
Hg57 Sr2 3.799917 1_555
Hg58 Sr1 3.799917 1_555
Hg58 Sr1 3.799917 1_655
Hg59 Sr0 3.799917 1_655
Hg59 Sr0 3.799917 1_555
Hg60 Sr7 3.744916 1_455
Hg60 Sr7 3.744916 1_555
Hg60 Sr5 3.883680 1_555
Hg61 Sr6 3.744916 1_445
Hg61 Sr6 3.744916 1_545
Hg61 Sr4 3.883680 1_554
Hg62 Hg7 3.030645 1_555
Hg62 Sr5 3.744916 1_555
Hg62 Sr5 3.744916 1_655
Hg62 Sr7 3.883680 1_555
Hg63 Sr4 3.744916 1_565
Hg63 Sr4 3.744916 1_665
Hg63 Sr6 3.883680 1_556
