# generated using pymatgen
data_Mn3(SiN3)2
_symmetry_space_group_name_H-M   'P 1'
_cell_length_a   9.89188689
_cell_length_b   7.28227169
_cell_length_c   9.83515627
_cell_angle_alpha   90.00000000
_cell_angle_beta   90.00000000
_cell_angle_gamma   90.00000000
_symmetry_Int_Tables_number   1
_chemical_formula_structural   Mn3(SiN3)2
_chemical_formula_sum   'Mn18 Si12 N36'
_cell_volume   708.47949327
_cell_formula_units_Z   6
loop_
 _symmetry_equiv_pos_site_id
 _symmetry_equiv_pos_as_xyz
  1  'x, y, z'
loop_
 _atom_site_type_symbol
 _atom_site_label
 _atom_site_symmetry_multiplicity
 _atom_site_fract_x
 _atom_site_fract_y
 _atom_site_fract_z
 _atom_site_occupancy
  Mn  Mn0  1  0.79028264  0.04291886  0.78059480  1
  Mn  Mn1  1  0.20971736  0.95708114  0.78059480  1
  Mn  Mn2  1  0.29028264  0.45708114  0.71940520  1
  Mn  Mn3  1  0.70971736  0.54291886  0.71940520  1
  Mn  Mn4  1  0.20971736  0.95708114  0.21940520  1
  Mn  Mn5  1  0.79028264  0.04291886  0.21940520  1
  Mn  Mn6  1  0.70971736  0.54291886  0.28059480  1
  Mn  Mn7  1  0.29028264  0.45708114  0.28059480  1
  Mn  Mn8  1  0.00000000  0.50000000  0.00000000  1
  Mn  Mn9  1  0.50000000  -0.00000000  0.50000000  1
  Mn  Mn10  1  0.00000000  -0.00000000  0.50000000  1
  Mn  Mn11  1  0.50000000  0.50000000  0.00000000  1
  Mn  Mn12  1  0.50000000  0.50000000  0.50000000  1
  Mn  Mn13  1  0.00000000  0.00000000  0.00000000  1
  Mn  Mn14  1  0.29087805  0.22432601  0.50000000  1
  Mn  Mn15  1  0.70912195  0.77567399  0.50000000  1
  Mn  Mn16  1  0.79087805  0.27567399  0.00000000  1
  Mn  Mn17  1  0.20912195  0.72432601  0.00000000  1
  Si  Si0  1  0.51546672  0.22335946  0.76856820  1
  Si  Si1  1  0.48453328  0.77664054  0.76856820  1
  Si  Si2  1  0.01546672  0.27664054  0.73143180  1
  Si  Si3  1  0.98453328  0.72335946  0.73143180  1
  Si  Si4  1  0.48453328  0.77664054  0.23143180  1
  Si  Si5  1  0.51546672  0.22335946  0.23143180  1
  Si  Si6  1  0.98453328  0.72335946  0.26856820  1
  Si  Si7  1  0.01546672  0.27664054  0.26856820  1
  Si  Si8  1  0.78436497  0.22623064  0.50000000  1
  Si  Si9  1  0.21563503  0.77376936  0.50000000  1
  Si  Si10  1  0.28436497  0.27376936  0.00000000  1
  Si  Si11  1  0.71563503  0.72623064  0.00000000  1
  N  N0  1  0.71238392  0.44290647  0.50000000  1
  N  N1  1  0.28761608  0.55709353  0.50000000  1
  N  N2  1  0.21238392  0.05709353  0.00000000  1
  N  N3  1  0.78761608  0.94290647  0.00000000  1
  N  N4  1  0.68347408  0.03443082  0.50000000  1
  N  N5  1  0.31652592  0.96556918  0.50000000  1
  N  N6  1  0.18347408  0.46556918  0.00000000  1
  N  N7  1  0.81652592  0.53443082  0.00000000  1
  N  N8  1  0.89961384  0.16652849  0.62738501  1
  N  N9  1  0.10038616  0.83347151  0.62738501  1
  N  N10  1  0.39961384  0.33347151  0.87261499  1
  N  N11  1  0.60038616  0.66652849  0.87261499  1
  N  N12  1  0.10038616  0.83347151  0.37261499  1
  N  N13  1  0.89961384  0.16652849  0.37261499  1
  N  N14  1  0.60038616  0.66652849  0.12738501  1
  N  N15  1  0.39961384  0.33347151  0.12738501  1
  N  N16  1  0.17853591  0.21206154  0.68587811  1
  N  N17  1  0.82146409  0.78793846  0.68587811  1
  N  N18  1  0.67853591  0.28793846  0.81412189  1
  N  N19  1  0.32146409  0.71206154  0.81412189  1
  N  N20  1  0.82146409  0.78793846  0.31412189  1
  N  N21  1  0.17853591  0.21206154  0.31412189  1
  N  N22  1  0.32146409  0.71206154  0.18587811  1
  N  N23  1  0.67853591  0.28793846  0.18587811  1
  N  N24  1  0.93852959  0.18424003  0.87659765  1
  N  N25  1  0.06147041  0.81575997  0.87659765  1
  N  N26  1  0.43852959  0.31575997  0.62340235  1
  N  N27  1  0.56147041  0.68424003  0.62340235  1
  N  N28  1  0.06147041  0.81575997  0.12340235  1
  N  N29  1  0.93852959  0.18424003  0.12340235  1
  N  N30  1  0.56147041  0.68424003  0.37659765  1
  N  N31  1  0.43852959  0.31575997  0.37659765  1
  N  N32  1  0.00000000  0.50000000  0.76512196  1
  N  N33  1  0.50000000  0.00000000  0.73487804  1
  N  N34  1  0.00000000  0.50000000  0.23487804  1
  N  N35  1  0.50000000  -0.00000000  0.26512196  1
loop_
_geom_bond_atom_site_label_1
_geom_bond_atom_site_label_2
_geom_bond_distance
_geom_bond_site_symmetry_2
Mn0 N24 2.025117 1_555
Mn0 N8 2.061670 1_555
Mn0 N17 2.100184 1_545
Mn0 N18 2.124696 1_555
Mn0 N3 2.277632 1_546
Mn1 N25 2.025117 1_555
Mn1 N9 2.061670 1_555
Mn1 N16 2.100184 1_565
Mn1 N19 2.124696 1_555
Mn1 N2 2.277632 1_566
Mn2 N26 2.025117 1_555
Mn2 N10 2.061670 1_555
Mn2 N19 2.100184 1_555
Mn2 N16 2.124696 1_555
Mn2 N1 2.277632 1_555
Mn3 N27 2.025117 1_555
Mn3 N11 2.061670 1_555
Mn3 N18 2.100184 1_555
Mn3 N17 2.124696 1_555
Mn3 N0 2.277632 1_555
Mn4 N28 2.025117 1_555
Mn4 N12 2.061670 1_555
Mn4 N21 2.100184 1_565
Mn4 N22 2.124696 1_555
Mn4 N2 2.277632 1_565
Mn5 N29 2.025117 1_555
Mn5 N13 2.061670 1_555
Mn5 N20 2.100184 1_545
Mn5 N23 2.124696 1_555
Mn5 N3 2.277632 1_545
Mn6 N30 2.025117 1_555
Mn6 N14 2.061670 1_555
Mn6 N23 2.100184 1_555
Mn6 N20 2.124696 1_555
Mn6 N0 2.277632 1_555
Mn7 N31 2.025117 1_555
Mn7 N15 2.061670 1_555
Mn7 N22 2.100184 1_555
Mn7 N21 2.124696 1_555
Mn7 N1 2.277632 1_555
Mn8 N7 1.832143 1_455
Mn8 N6 1.832143 1_555
Mn8 N34 2.310062 1_555
Mn8 N32 2.310062 1_554
Mn9 N4 1.832143 1_555
Mn9 N5 1.832143 1_545
Mn9 N35 2.310062 1_555
Mn9 N33 2.310062 1_555
Mn10 N12 2.006579 1_545
Mn10 N13 2.006579 1_455
Mn10 N8 2.006579 1_455
Mn10 N9 2.006579 1_545
Mn11 N11 2.006579 1_554
Mn11 N10 2.006579 1_554
Mn11 N15 2.006579 1_555
Mn11 N14 2.006579 1_555
Mn12 N26 1.908633 1_555
Mn12 N27 1.908633 1_555
Mn12 N31 1.908633 1_555
Mn12 N30 1.908633 1_555
Mn12 N1 2.141624 1_555
Mn12 N0 2.141624 1_555
Mn13 N24 1.908633 1_454
Mn13 N25 1.908633 1_544
Mn13 N29 1.908633 1_455
Mn13 N28 1.908633 1_545
Mn13 N3 2.141624 1_445
Mn13 N2 2.141624 1_555
Mn14 N5 1.901340 1_545
Mn14 N26 2.012359 1_555
Mn14 N31 2.012359 1_555
Mn14 N16 2.141263 1_555
Mn14 N21 2.141263 1_555
Mn14 N1 2.423518 1_555
Mn15 N4 1.901340 1_565
Mn15 N27 2.012359 1_555
Mn15 N30 2.012359 1_555
Mn15 N17 2.141263 1_555
Mn15 N20 2.141263 1_555
Mn15 N0 2.423518 1_555
Mn16 N7 1.901340 1_555
Mn16 N29 2.012359 1_555
Mn16 N24 2.012359 1_554
Mn16 N18 2.141263 1_554
Mn16 N23 2.141263 1_555
Mn16 N3 2.423518 1_545
Mn17 N6 1.901340 1_555
Mn17 N25 2.012359 1_554
Mn17 N28 2.012359 1_555
Mn17 N19 2.141263 1_554
Mn17 N22 2.141263 1_555
Mn17 N2 2.423518 1_565
N0 Si8 1.731106 1_555
N1 Si9 1.731106 1_555
N2 Si10 1.731106 1_555
N3 Si11 1.731106 1_555
N4 Si8 1.716649 1_555
N5 Si9 1.716649 1_555
N6 Si10 1.716649 1_555
N7 Si11 1.716649 1_555
N8 Si2 1.733058 1_655
N8 Si8 1.748807 1_555
N9 Si3 1.733058 1_455
N9 Si9 1.748807 1_555
N10 Si0 1.733058 1_555
N10 Si10 1.748807 1_556
N11 Si1 1.733058 1_555
N11 Si11 1.748807 1_556
N12 Si6 1.733058 1_455
N12 Si9 1.748807 1_555
N13 Si7 1.733058 1_655
N13 Si8 1.748807 1_555
N14 Si4 1.733058 1_555
N14 Si11 1.748807 1_555
N15 Si5 1.733058 1_555
N15 Si10 1.748807 1_555
N16 Si2 1.738926 1_555
N17 Si3 1.738926 1_555
N18 Si0 1.738926 1_555
N19 Si1 1.738926 1_555
N20 Si6 1.738926 1_555
N21 Si7 1.738926 1_555
N22 Si4 1.738926 1_555
N23 Si5 1.738926 1_555
N24 Si2 1.752252 1_655
N25 Si3 1.752252 1_455
N26 Si0 1.752252 1_555
N27 Si1 1.752252 1_555
N28 Si6 1.752252 1_455
N29 Si7 1.752252 1_655
N30 Si4 1.752252 1_555
N31 Si5 1.752252 1_555
N32 Si2 1.667006 1_555
N32 Si3 1.667006 1_455
N33 Si1 1.667006 1_545
N33 Si0 1.667006 1_555
N34 Si7 1.667006 1_555
N34 Si6 1.667006 1_455
N35 Si4 1.667006 1_545
N35 Si5 1.667006 1_555
