# generated using pymatgen
data_Sr5Mg19Ge12
_symmetry_space_group_name_H-M   'P 1'
_cell_length_a   14.69722010
_cell_length_b   14.69722010
_cell_length_c   4.43165900
_cell_angle_alpha   90.00000000
_cell_angle_beta   90.00000000
_cell_angle_gamma   120.00000045
_symmetry_Int_Tables_number   1
_chemical_formula_structural   Sr5Mg19Ge12
_chemical_formula_sum   'Sr5 Mg19 Ge12'
_cell_volume   829.02449253
_cell_formula_units_Z   1
loop_
 _symmetry_equiv_pos_site_id
 _symmetry_equiv_pos_as_xyz
  1  'x, y, z'
loop_
 _atom_site_type_symbol
 _atom_site_label
 _atom_site_symmetry_multiplicity
 _atom_site_fract_x
 _atom_site_fract_y
 _atom_site_fract_z
 _atom_site_occupancy
  Sr  Sr0  1  0.18227000  0.18227000  0.50000000  1
  Sr  Sr1  1  0.81773000  0.00000000  0.50000000  1
  Sr  Sr2  1  0.00000000  0.81773000  0.50000000  1
  Sr  Sr3  1  0.33333300  0.66666700  0.00000000  1
  Sr  Sr4  1  0.66666700  0.33333300  0.00000000  1
  Mg  Mg0  1  0.55884100  0.55884100  0.00000000  1
  Mg  Mg1  1  0.44115900  0.00000000  0.00000000  1
  Mg  Mg2  1  0.00000000  0.44115900  0.00000000  1
  Mg  Mg3  1  0.71962900  0.71962900  0.50000000  1
  Mg  Mg4  1  0.28037100  0.00000000  0.50000000  1
  Mg  Mg5  1  0.00000000  0.28037100  0.50000000  1
  Mg  Mg6  1  0.17665600  0.37385100  0.00000000  1
  Mg  Mg7  1  0.62614900  0.80280500  0.00000000  1
  Mg  Mg8  1  0.19719500  0.82334400  0.00000000  1
  Mg  Mg9  1  0.80280500  0.62614900  0.00000000  1
  Mg  Mg10  1  0.82334400  0.19719500  0.00000000  1
  Mg  Mg11  1  0.37385100  0.17665600  0.00000000  1
  Mg  Mg12  1  0.35832800  0.48242600  0.50000000  1
  Mg  Mg13  1  0.51757400  0.87590200  0.50000000  1
  Mg  Mg14  1  0.12409800  0.64167200  0.50000000  1
  Mg  Mg15  1  0.87590200  0.51757400  0.50000000  1
  Mg  Mg16  1  0.64167200  0.12409800  0.50000000  1
  Mg  Mg17  1  0.48242600  0.35832800  0.50000000  1
  Mg  Mg18  1  0.00000000  0.00000000  0.00000000  1
  Ge  Ge0  1  0.82548700  0.82548700  0.00000000  1
  Ge  Ge1  1  0.17451300  0.00000000  0.00000000  1
  Ge  Ge2  1  0.00000000  0.17451300  0.00000000  1
  Ge  Ge3  1  0.16773900  0.48132000  0.50000000  1
  Ge  Ge4  1  0.51868000  0.68642000  0.50000000  1
  Ge  Ge5  1  0.31358000  0.83226100  0.50000000  1
  Ge  Ge6  1  0.68642000  0.51868000  0.50000000  1
  Ge  Ge7  1  0.83226100  0.31358000  0.50000000  1
  Ge  Ge8  1  0.48132000  0.16773900  0.50000000  1
  Ge  Ge9  1  0.36511600  0.36511600  0.00000000  1
  Ge  Ge10  1  0.63488400  0.00000000  0.00000000  1
  Ge  Ge11  1  0.00000000  0.63488400  0.00000000  1
loop_
_geom_bond_atom_site_label_1
_geom_bond_atom_site_label_2
_geom_bond_distance
_geom_bond_site_symmetry_2
Mg3 Sr1 3.621815 1_565
Mg3 Sr2 3.621815 1_655
Mg4 Sr2 3.621815 1_545
Mg4 Sr0 3.621815 1_555
Mg5 Sr1 3.621815 1_455
Mg5 Sr0 3.621815 1_555
Mg6 Sr0 3.616247 1_555
Mg6 Sr0 3.616247 1_554
Mg7 Sr1 3.616247 1_565
Mg7 Sr1 3.616247 1_564
Mg8 Sr2 3.616247 1_555
Mg8 Sr2 3.616247 1_554
Mg9 Sr2 3.616247 1_654
Mg9 Sr2 3.616247 1_655
Mg10 Sr1 3.616247 1_554
Mg10 Sr1 3.616247 1_555
Mg11 Sr0 3.616247 1_555
Mg11 Sr0 3.616247 1_554
Mg12 Sr0 3.839469 1_555
Mg13 Sr1 3.839469 1_565
Mg14 Sr2 3.839469 1_555
Mg15 Sr2 3.839469 1_655
Mg16 Sr1 3.839469 1_555
Mg17 Sr0 3.839469 1_555
Mg18 Sr0 3.476522 1_555
Mg18 Sr0 3.476522 1_554
Mg18 Sr2 3.476522 1_545
Mg18 Sr1 3.476522 1_454
Mg18 Sr1 3.476522 1_455
Mg18 Sr2 3.476522 1_544
Ge0 Mg18 2.564856 1_665
Ge0 Mg3 2.707484 1_554
Ge0 Mg3 2.707484 1_555
Ge0 Mg9 2.778075 1_555
Ge0 Mg7 2.778075 1_555
Ge0 Sr2 3.434209 1_655
Ge0 Sr2 3.434209 1_654
Ge0 Sr1 3.434209 1_564
Ge0 Sr1 3.434209 1_565
Ge1 Mg18 2.564856 1_555
Ge1 Mg4 2.707484 1_555
Ge1 Mg4 2.707484 1_554
Ge1 Mg11 2.778075 1_555
Ge1 Mg8 2.778075 1_545
Ge1 Sr2 3.434209 1_544
Ge1 Sr2 3.434209 1_545
Ge1 Sr0 3.434209 1_555
Ge1 Sr0 3.434209 1_554
Ge2 Mg18 2.564856 1_555
Ge2 Mg5 2.707484 1_554
Ge2 Mg5 2.707484 1_555
Ge2 Mg6 2.778075 1_555
Ge2 Mg10 2.778075 1_455
Ge2 Sr1 3.434209 1_454
Ge2 Sr1 3.434209 1_455
Ge2 Sr0 3.434209 1_555
Ge2 Sr0 3.434209 1_554
Ge3 Mg14 2.734442 1_555
Ge3 Mg5 2.742120 1_555
Ge3 Mg6 2.762043 1_556
Ge3 Mg6 2.762043 1_555
Ge3 Mg12 2.793036 1_555
Ge3 Mg2 3.143380 1_556
Ge3 Mg2 3.143380 1_555
Ge3 Sr3 3.409397 1_555
Ge3 Sr3 3.409397 1_556
Ge4 Mg12 2.734452 1_555
Ge4 Mg3 2.742126 1_555
Ge4 Mg7 2.762038 1_556
Ge4 Mg7 2.762038 1_555
Ge4 Mg13 2.793022 1_555
Ge4 Mg0 3.143390 1_556
Ge4 Mg0 3.143390 1_555
Ge4 Sr3 3.409397 1_556
Ge4 Sr3 3.409397 1_555
Ge5 Mg13 2.734457 1_555
Ge5 Mg4 2.742111 1_565
Ge5 Mg8 2.762035 1_555
Ge5 Mg8 2.762035 1_556
Ge5 Mg14 2.793029 1_555
Ge5 Mg1 3.143383 1_566
Ge5 Mg1 3.143383 1_565
Ge5 Sr3 3.409397 1_555
Ge5 Sr3 3.409397 1_556
Ge6 Mg17 2.734452 1_555
Ge6 Mg3 2.742126 1_555
Ge6 Mg9 2.762038 1_555
Ge6 Mg9 2.762038 1_556
Ge6 Mg15 2.793022 1_555
Ge6 Mg0 3.143390 1_556
Ge6 Mg0 3.143390 1_555
Ge6 Sr4 3.409397 1_555
Ge6 Sr4 3.409397 1_556
Ge7 Mg15 2.734457 1_555
Ge7 Mg5 2.742111 1_655
Ge7 Mg10 2.762035 1_556
Ge7 Mg10 2.762035 1_555
Ge7 Mg16 2.793029 1_555
Ge7 Mg2 3.143383 1_655
Ge7 Mg2 3.143383 1_656
Ge7 Sr4 3.409397 1_556
Ge7 Sr4 3.409397 1_555
Ge8 Mg16 2.734442 1_555
Ge8 Mg4 2.742120 1_555
Ge8 Mg11 2.762043 1_556
Ge8 Mg11 2.762043 1_555
Ge8 Mg17 2.793036 1_555
Ge8 Mg1 3.143380 1_555
Ge8 Mg1 3.143380 1_556
Ge8 Sr4 3.409397 1_556
Ge8 Sr4 3.409397 1_555
Ge9 Mg6 2.836208 1_555
Ge9 Mg11 2.836208 1_555
Ge9 Mg17 2.839804 1_555
Ge9 Mg12 2.839804 1_555
Ge9 Mg17 2.839804 1_554
Ge9 Mg12 2.839804 1_554
Ge9 Mg0 2.847219 1_555
Ge9 Sr0 3.483049 1_555
Ge9 Sr0 3.483049 1_554
Ge10 Mg10 2.836208 1_555
Ge10 Mg7 2.836208 1_545
Ge10 Mg13 2.839804 1_544
Ge10 Mg13 2.839804 1_545
Ge10 Mg16 2.839804 1_555
Ge10 Mg16 2.839804 1_554
Ge10 Mg1 2.847219 1_555
Ge10 Sr1 3.483049 1_554
Ge10 Sr1 3.483049 1_555
Ge11 Mg8 2.836208 1_555
Ge11 Mg9 2.836208 1_455
Ge11 Mg15 2.839804 1_455
Ge11 Mg15 2.839804 1_454
Ge11 Mg14 2.839804 1_555
Ge11 Mg14 2.839804 1_554
Ge11 Mg2 2.847219 1_555
Ge11 Sr2 3.483049 1_554
Ge11 Sr2 3.483049 1_555
