# generated using pymatgen
data_MgCo4(P2O7)4
_symmetry_space_group_name_H-M   'P 1'
_cell_length_a   7.03770128
_cell_length_b   8.22136950
_cell_length_c   9.56835443
_cell_angle_alpha   89.62753152
_cell_angle_beta   108.76427861
_cell_angle_gamma   89.79934386
_symmetry_Int_Tables_number   1
_chemical_formula_structural   MgCo4(P2O7)4
_chemical_formula_sum   'Mg1 Co4 P8 O28'
_cell_volume   524.17544995
_cell_formula_units_Z   1
loop_
 _symmetry_equiv_pos_site_id
 _symmetry_equiv_pos_as_xyz
  1  'x, y, z'
loop_
 _atom_site_type_symbol
 _atom_site_label
 _atom_site_symmetry_multiplicity
 _atom_site_fract_x
 _atom_site_fract_y
 _atom_site_fract_z
 _atom_site_occupancy
  Mg  Mg0  1  0.30808300  0.80352300  0.88924100  1
  Co  Co0  1  0.75303800  0.78873500  0.01528900  1
  Co  Co1  1  0.71682900  0.72936200  0.50191400  1
  Co  Co2  1  0.28929200  0.27237100  0.48801600  1
  Co  Co3  1  0.27759800  0.23881900  0.99966500  1
  P  P0  1  0.55030300  0.09959700  0.78684600  1
  P  P1  1  0.45839100  0.92758200  0.20454100  1
  P  P2  1  0.52828400  0.42866800  0.29283700  1
  P  P3  1  0.92890900  0.95663000  0.78673200  1
  P  P4  1  0.06971500  0.46096300  0.69880300  1
  P  P5  1  0.06650700  0.04706000  0.20537700  1
  P  P6  1  0.47200500  0.59313600  0.71805800  1
  P  P7  1  0.92370200  0.53681900  0.29244700  1
  O  O0  1  0.52708100  0.59459000  0.36396900  1
  O  O1  1  0.88302700  0.60530300  0.13721000  1
  O  O2  1  0.86569900  0.95355500  0.15088800  1
  O  O3  1  0.91212800  0.67510500  0.39727300  1
  O  O4  1  0.12015800  0.38530400  0.85352400  1
  O  O5  1  0.14579300  0.01945700  0.83847800  1
  O  O6  1  0.10411400  0.33692300  0.59112700  1
  O  O7  1  0.23271000  0.61460000  0.71629500  1
  O  O8  1  0.10829100  0.10911600  0.36084000  1
  O  O9  1  0.12824800  0.45414700  0.34386600  1
  O  O10  1  0.07500500  0.17790100  0.09284700  1
  O  O11  1  0.51108700  0.23987400  0.88015900  1
  O  O12  1  0.42025700  0.09945100  0.62635100  1
  O  O13  1  0.53706000  0.93705700  0.86425100  1
  O  O14  1  0.23090000  0.90704500  0.20774500  1
  O  O15  1  0.49385500  0.42041400  0.66784000  1
  O  O16  1  0.57030200  0.62848100  0.88301500  1
  O  O17  1  0.86920800  0.89267800  0.62963700  1
  O  O18  1  0.48611600  0.29211800  0.39135200  1
  O  O19  1  0.39122000  0.42306400  0.13375900  1
  O  O20  1  0.75759600  0.40096800  0.29238300  1
  O  O21  1  0.78509400  0.10543900  0.79499300  1
  O  O22  1  0.46039900  0.09453700  0.12816300  1
  O  O23  1  0.60299400  0.91783500  0.35897400  1
  O  O24  1  0.47953400  0.79210300  0.09922800  1
  O  O25  1  0.92857800  0.81626000  0.89670900  1
  O  O26  1  0.86746600  0.54429900  0.64817700  1
  O  O27  1  0.50601800  0.72078100  0.61403600  1
loop_
_geom_bond_atom_site_label_1
_geom_bond_atom_site_label_2
_geom_bond_distance
_geom_bond_site_symmetry_2
Mg0 O24 1.984636 1_556
Mg0 O13 2.028825 1_555
Mg0 O5 2.075982 1_565
Mg0 O7 2.215102 1_555
Mg0 O16 2.352302 1_555
Mg0 O25 2.696367 1_455
Co0 O2 1.875301 1_555
Co0 O1 1.937250 1_555
Co0 O25 1.940406 1_554
Co0 O16 1.994484 1_554
Co0 O13 2.106363 1_554
Co0 O24 2.311999 1_555
Co1 O17 1.906467 1_555
Co1 O0 1.910110 1_555
Co1 O3 1.994357 1_555
Co1 O23 2.042600 1_555
Co1 O27 2.093040 1_555
Co1 O26 2.098538 1_555
Co2 O18 1.903798 1_555
Co2 O6 1.944890 1_555
Co2 O12 1.950403 1_555
Co2 O8 1.985149 1_555
Co2 O9 2.091878 1_555
Co2 O15 2.227188 1_555
Co3 O22 1.877914 1_556
Co3 O4 1.898776 1_555
Co3 O10 1.973752 1_556
Co3 O19 1.988417 1_556
Co3 O11 2.283993 1_555
Co3 O5 2.370454 1_555
O0 P2 1.529638 1_555
O1 P7 1.523055 1_555
O2 P5 1.548802 1_665
O3 P7 1.540114 1_555
O4 P4 1.533936 1_555
O5 P3 1.537653 1_445
O6 P4 1.527231 1_555
O7 P4 1.681871 1_555
O7 P6 1.687357 1_555
O8 P5 1.512942 1_555
O9 P7 1.519680 1_455
O10 P5 1.531944 1_555
O11 P0 1.540479 1_555
O12 P0 1.513850 1_555
O13 P0 1.541216 1_565
O14 P1 1.620523 1_555
O14 P5 1.624062 1_565
O15 P6 1.525071 1_555
O16 P6 1.535953 1_555
O17 P3 1.522469 1_555
O18 P2 1.550953 1_555
O19 P2 1.518571 1_555
O20 P7 1.619472 1_555
O20 P2 1.630422 1_555
O21 P3 1.603572 1_545
O21 P0 1.629880 1_555
O22 P1 1.553078 1_545
O23 P1 1.502004 1_555
O24 P1 1.545329 1_555
O25 P3 1.557222 1_555
O26 P4 1.508413 1_655
O27 P6 1.513504 1_555
