# generated using pymatgen
data_SmRu2
_symmetry_space_group_name_H-M   'P 1'
_cell_length_a   5.36385134
_cell_length_b   5.36383955
_cell_length_c   5.36381346
_cell_angle_alpha   60.00011996
_cell_angle_beta   60.00023022
_cell_angle_gamma   60.00028974
_symmetry_Int_Tables_number   1
_chemical_formula_structural   SmRu2
_chemical_formula_sum   'Sm2 Ru4'
_cell_volume   109.12224172
_cell_formula_units_Z   2
loop_
 _symmetry_equiv_pos_site_id
 _symmetry_equiv_pos_as_xyz
  1  'x, y, z'
loop_
 _atom_site_type_symbol
 _atom_site_label
 _atom_site_symmetry_multiplicity
 _atom_site_fract_x
 _atom_site_fract_y
 _atom_site_fract_z
 _atom_site_occupancy
  Sm  Sm0  1  0.87500807  0.87500042  0.87499110  1
  Sm  Sm1  1  0.12499193  0.12499958  0.12500790  1
  Ru  Ru0  1  0.50000000  0.49999900  0.49999900  1
  Ru  Ru1  1  0.50000000  0.50000000  -0.00000000  1
  Ru  Ru2  1  -0.00000000  0.49999900  0.50000000  1
  Ru  Ru3  1  0.49999900  0.00000100  0.50000000  1
loop_
_geom_bond_atom_site_label_1
_geom_bond_atom_site_label_2
_geom_bond_distance
_geom_bond_site_symmetry_2
Ru0 Ru1 2.681899 1_555
Ru0 Ru3 2.681909 1_555
Ru0 Ru1 2.681915 1_556
Ru0 Ru2 2.681923 1_555
Ru0 Ru2 2.681928 1_655
Ru0 Ru3 2.681931 1_565
Ru0 Sm1 3.144803 1_655
Ru0 Sm0 3.144810 1_455
Ru0 Sm0 3.144833 1_545
Ru0 Sm1 3.144836 1_565
Ru0 Sm1 3.144868 1_556
Ru0 Sm0 3.144870 1_554
Ru1 Ru3 2.681915 1_555
Ru1 Ru3 2.681921 1_564
Ru1 Ru2 2.681926 1_654
Ru1 Ru2 2.681926 1_555
Ru1 Sm1 3.144823 1_655
Ru1 Sm0 3.144826 1_454
Ru1 Sm0 3.144850 1_554
Ru1 Sm1 3.144852 1_555
Ru1 Sm1 3.144854 1_565
Ru1 Sm0 3.144856 1_544
Ru2 Ru3 2.681926 1_555
Ru2 Ru3 2.681943 1_465
Ru2 Sm1 3.144801 1_555
Ru2 Sm0 3.144806 1_455
Ru2 Sm0 3.144808 1_445
Ru2 Sm1 3.144817 1_565
Ru2 Sm1 3.144837 1_556
Ru2 Sm0 3.144842 1_454
Ru3 Sm0 3.144801 1_445
Ru3 Sm1 3.144805 1_655
Ru3 Sm1 3.144823 1_555
Ru3 Sm0 3.144823 1_545
Ru3 Sm1 3.144857 1_556
Ru3 Sm0 3.144866 1_544
