# generated using pymatgen
data_UH10CSe2(NO2)4
_symmetry_space_group_name_H-M   'P 1'
_cell_length_a   7.15243300
_cell_length_b   9.57209661
_cell_length_c   9.72191728
_cell_angle_alpha   88.45645041
_cell_angle_beta   109.59736994
_cell_angle_gamma   103.50422552
_symmetry_Int_Tables_number   1
_chemical_formula_structural   UH10CSe2(NO2)4
_chemical_formula_sum   'U2 H20 C2 Se4 N8 O16'
_cell_volume   608.74678730
_cell_formula_units_Z   2
loop_
 _symmetry_equiv_pos_site_id
 _symmetry_equiv_pos_as_xyz
  1  'x, y, z'
loop_
 _atom_site_type_symbol
 _atom_site_label
 _atom_site_symmetry_multiplicity
 _atom_site_fract_x
 _atom_site_fract_y
 _atom_site_fract_z
 _atom_site_occupancy
  U  U0  1  0.23623400  0.47070500  0.80841300  1
  U  U1  1  0.76376600  0.52929500  0.19158700  1
  H  H0  1  0.20389600  0.76370800  0.09422600  1
  H  H1  1  0.79610400  0.23629200  0.90577400  1
  H  H2  1  0.04435800  0.90355000  0.23952200  1
  H  H3  1  0.95564200  0.09645000  0.76047800  1
  H  H4  1  0.24315500  0.84789600  0.73137000  1
  H  H5  1  0.75684500  0.15210400  0.26863000  1
  H  H6  1  0.35525600  0.93144500  0.11567300  1
  H  H7  1  0.64474400  0.06855500  0.88432700  1
  H  H8  1  0.40225500  0.81063000  0.25181200  1
  H  H9  1  0.59774500  0.18937000  0.74818800  1
  H  H10  1  0.26156700  0.98904200  0.38306500  1
  H  H11  1  0.73843300  0.01095800  0.61693500  1
  H  H12  1  0.23776400  0.99145900  0.83903300  1
  H  H13  1  0.76223600  0.00854100  0.16096700  1
  H  H14  1  0.73345700  0.80402500  0.49308800  1
  H  H15  1  0.26654300  0.19597500  0.50691200  1
  H  H16  1  0.04169500  0.25665600  0.46724900  1
  H  H17  1  0.95830500  0.74334400  0.53275100  1
  H  H18  1  0.55331600  0.20969600  0.90741600  1
  H  H19  1  0.44668400  0.79030400  0.09258400  1
  C  C0  1  0.97846900  0.91543800  0.66307600  1
  C  C1  1  0.02153100  0.08456200  0.33692400  1
  Se  Se0  1  0.74058900  0.77076000  0.92806200  1
  Se  Se1  1  0.25941100  0.22924000  0.07193800  1
  Se  Se2  1  0.31089200  0.63672000  0.48342100  1
  Se  Se3  1  0.68910800  0.36328000  0.51657900  1
  N  N0  1  0.11676800  0.18680000  0.44486700  1
  N  N1  1  0.88323200  0.81320000  0.55513300  1
  N  N2  1  0.17433600  0.92643800  0.74469900  1
  N  N3  1  0.82566400  0.07356200  0.25530100  1
  N  N4  1  0.35341000  0.82339700  0.13915600  1
  N  N5  1  0.64659000  0.17660300  0.86084400  1
  N  N6  1  0.12317500  0.99290100  0.30946300  1
  N  N7  1  0.87682500  0.00709900  0.69053700  1
  O  O0  1  0.07401000  0.24885900  0.90722700  1
  O  O1  1  0.92599000  0.75114100  0.09277300  1
  O  O2  1  0.28814200  0.66007800  0.65571800  1
  O  O3  1  0.71185800  0.33992200  0.34428200  1
  O  O4  1  0.11509300  0.57813000  0.88763700  1
  O  O5  1  0.88490700  0.42187000  0.11236300  1
  O  O6  1  0.36100900  0.36932800  0.72457400  1
  O  O7  1  0.63899100  0.63067200  0.27542600  1
  O  O8  1  0.05537400  0.62633700  0.37639200  1
  O  O9  1  0.94462600  0.37366300  0.62360800  1
  O  O10  1  0.64870000  0.90622700  0.96888200  1
  O  O11  1  0.35130000  0.09377300  0.03111800  1
  O  O12  1  0.43292000  0.80153000  0.45109000  1
  O  O13  1  0.56708000  0.19847000  0.54891000  1
  O  O14  1  0.56387000  0.61701600  0.94996200  1
  O  O15  1  0.43613000  0.38298400  0.05003800  1
loop_
_geom_bond_atom_site_label_1
_geom_bond_atom_site_label_2
_geom_bond_distance
_geom_bond_site_symmetry_2
H0 N4 1.037098 1_555
H1 N5 1.037098 1_555
H2 N6 1.029881 1_555
H3 N7 1.029881 1_555
H4 N2 1.022332 1_555
H5 N3 1.022332 1_555
H6 N4 1.051134 1_555
H6 O11 1.739833 1_565
H7 N5 1.051134 1_555
H7 O10 1.739833 1_545
H8 N4 1.045263 1_555
H9 N5 1.045263 1_555
H10 N6 1.016704 1_555
H11 N7 1.016704 1_555
H12 N2 1.026667 1_555
H13 N3 1.026667 1_555
H14 N1 1.022055 1_555
H15 N0 1.022055 1_555
H16 N0 1.018179 1_555
H17 N1 1.018179 1_555
H18 N5 1.029302 1_555
H19 N4 1.029302 1_555
C0 N1 1.336959 1_555
C0 N2 1.339123 1_655
C0 N7 1.345488 1_565
C1 N0 1.336959 1_555
C1 N3 1.339123 1_455
C1 N6 1.345488 1_545
O0 Se1 1.741715 1_556
O0 U0 2.503124 1_555
O1 Se0 1.741715 1_554
O1 U1 2.503124 1_555
O2 Se2 1.761332 1_555
O2 U0 2.353263 1_555
O3 Se3 1.761332 1_555
O3 U1 2.353263 1_555
O4 U0 1.818728 1_555
O5 U1 1.818728 1_555
O6 U0 1.826881 1_555
O7 U1 1.826881 1_555
O8 Se2 1.754336 1_555
O8 U1 2.261045 1_455
O9 Se3 1.754336 1_555
O9 U0 2.261045 1_655
O10 Se0 1.694576 1_555
O11 Se1 1.694576 1_555
O12 Se2 1.692210 1_555
O13 Se3 1.692210 1_555
O14 Se0 1.761708 1_555
O14 U0 2.398840 1_555
O14 U1 2.543372 1_556
O15 Se1 1.761708 1_555
O15 U1 2.398840 1_555
O15 U0 2.543372 1_554
