# generated using pymatgen
data_Yb2B6Ru
_symmetry_space_group_name_H-M   'P 1'
_cell_length_a   3.70001200
_cell_length_b   9.03967300
_cell_length_c   11.33362900
_cell_angle_alpha   90.00000000
_cell_angle_beta   90.00000000
_cell_angle_gamma   90.00000000
_symmetry_Int_Tables_number   1
_chemical_formula_structural   Yb2B6Ru
_chemical_formula_sum   'Yb8 B24 Ru4'
_cell_volume   379.07473966
_cell_formula_units_Z   4
loop_
 _symmetry_equiv_pos_site_id
 _symmetry_equiv_pos_as_xyz
  1  'x, y, z'
loop_
 _atom_site_type_symbol
 _atom_site_label
 _atom_site_symmetry_multiplicity
 _atom_site_fract_x
 _atom_site_fract_y
 _atom_site_fract_z
 _atom_site_occupancy
  Yb  Yb0  1  0.00000000  0.32775900  0.41337100  1
  Yb  Yb1  1  0.00000000  0.67224100  0.58662900  1
  Yb  Yb2  1  0.00000000  0.82775900  0.08662900  1
  Yb  Yb3  1  0.00000000  0.17224100  0.91337100  1
  Yb  Yb4  1  0.00000000  0.94458800  0.36785000  1
  Yb  Yb5  1  0.00000000  0.05541200  0.63215000  1
  Yb  Yb6  1  0.00000000  0.44458800  0.13215000  1
  Yb  Yb7  1  0.00000000  0.55541200  0.86785000  1
  B  B0  1  0.50000000  0.55487600  0.43314200  1
  B  B1  1  0.50000000  0.44512400  0.56685800  1
  B  B2  1  0.50000000  0.05487600  0.06685800  1
  B  B3  1  0.50000000  0.94512400  0.93314200  1
  B  B4  1  0.50000000  0.75171200  0.41885000  1
  B  B5  1  0.50000000  0.24828800  0.58115000  1
  B  B6  1  0.50000000  0.25171200  0.08115000  1
  B  B7  1  0.50000000  0.74828800  0.91885000  1
  B  B8  1  0.50000000  0.79572500  0.26378800  1
  B  B9  1  0.50000000  0.20427500  0.73621200  1
  B  B10  1  0.50000000  0.29572500  0.23621200  1
  B  B11  1  0.50000000  0.70427500  0.76378800  1
  B  B12  1  0.50000000  0.63426000  0.18502900  1
  B  B13  1  0.50000000  0.36574000  0.81497100  1
  B  B14  1  0.50000000  0.13426000  0.31497100  1
  B  B15  1  0.50000000  0.86574000  0.68502900  1
  B  B16  1  0.50000000  0.98413800  0.21135500  1
  B  B17  1  0.50000000  0.01586200  0.78864500  1
  B  B18  1  0.50000000  0.48413800  0.28864500  1
  B  B19  1  0.50000000  0.51586200  0.71135500  1
  B  B20  1  0.50000000  0.59616800  0.02584800  1
  B  B21  1  0.50000000  0.40383200  0.97415200  1
  B  B22  1  0.50000000  0.09616800  0.47415200  1
  B  B23  1  0.50000000  0.90383200  0.52584800  1
  Ru  Ru0  1  0.00000000  0.64295700  0.31988000  1
  Ru  Ru1  1  0.00000000  0.35704300  0.68012000  1
  Ru  Ru2  1  0.00000000  0.14295700  0.18012000  1
  Ru  Ru3  1  0.00000000  0.85704300  0.81988000  1
loop_
_geom_bond_atom_site_label_1
_geom_bond_atom_site_label_2
_geom_bond_distance
_geom_bond_site_symmetry_2
B0 B18 1.758088 1_555
B0 B4 1.786691 1_555
B0 B1 1.811356 1_555
B0 Ru0 2.388368 1_655
B0 Ru0 2.388368 1_555
B0 Yb1 2.752127 1_655
B0 Yb1 2.752127 1_555
B0 Yb0 2.772689 1_655
B0 Yb0 2.772689 1_555
B1 B19 1.758088 1_555
B1 B5 1.786691 1_555
B1 Ru1 2.388368 1_555
B1 Ru1 2.388368 1_655
B1 Yb0 2.752127 1_555
B1 Yb0 2.752127 1_655
B1 Yb1 2.772689 1_555
B1 Yb1 2.772689 1_655
B2 B6 1.786691 1_555
B2 B3 1.811356 1_544
B2 Ru2 2.388368 1_655
B2 Ru2 2.388368 1_555
B2 Yb3 2.752127 1_554
B2 Yb3 2.752127 1_654
B2 Yb2 2.772689 1_545
B2 Yb2 2.772689 1_645
B3 B7 1.786691 1_555
B3 Ru3 2.388368 1_655
B3 Ru3 2.388368 1_555
B3 Yb2 2.752127 1_656
B3 Yb2 2.752127 1_556
B3 Yb3 2.772689 1_565
B3 Yb3 2.772689 1_665
B4 B8 1.801889 1_555
B4 Ru0 2.376387 1_555
B4 Ru0 2.376387 1_655
B4 Yb4 2.607018 1_555
B4 Yb4 2.607018 1_655
B4 Yb1 2.748542 1_555
B4 Yb1 2.748542 1_655
B5 B9 1.801889 1_555
B5 Ru1 2.376387 1_555
B5 Ru1 2.376387 1_655
B5 Yb5 2.607018 1_655
B5 Yb5 2.607018 1_555
B5 Yb0 2.748542 1_555
B5 Yb0 2.748542 1_655
B6 Ru2 2.376387 1_555
B6 Ru2 2.376387 1_655
B6 Yb6 2.607018 1_555
B6 Yb6 2.607018 1_655
B6 Yb3 2.748542 1_554
B6 Yb3 2.748542 1_654
B7 Ru3 2.376387 1_655
B7 Ru3 2.376387 1_555
B7 Yb7 2.607018 1_555
B7 Yb7 2.607018 1_655
B7 Yb2 2.748542 1_556
B7 Yb2 2.748542 1_656
B8 Ru0 2.394526 1_655
B8 Ru0 2.394526 1_555
B8 Yb4 2.573780 1_655
B8 Yb4 2.573780 1_555
B8 Yb2 2.745516 1_555
B8 Yb2 2.745516 1_655
B9 Ru1 2.394526 1_555
B9 Ru1 2.394526 1_655
B9 Yb5 2.573780 1_655
B9 Yb5 2.573780 1_555
B9 Yb3 2.745516 1_555
B9 Yb3 2.745516 1_655
B10 B14 1.710902 1_555
B10 B6 1.801889 1_555
B10 B18 1.803886 1_555
B10 Ru2 2.394526 1_655
B10 Ru2 2.394526 1_555
B10 Yb6 2.573780 1_555
B10 Yb6 2.573780 1_655
B10 Yb0 2.745516 1_655
B10 Yb0 2.745516 1_555
B11 B15 1.710902 1_555
B11 B7 1.801889 1_555
B11 B19 1.803886 1_555
B11 Ru3 2.394526 1_655
B11 Ru3 2.394526 1_555
B11 Yb7 2.573780 1_655
B11 Yb7 2.573780 1_555
B11 Yb1 2.745516 1_655
B11 Yb1 2.745516 1_555
B12 B8 1.710902 1_555
B12 B18 1.794626 1_555
B12 B20 1.836666 1_555
B12 Ru0 2.400950 1_555
B12 Ru0 2.400950 1_655
B12 Yb6 2.592577 1_555
B12 Yb6 2.592577 1_655
B12 Yb2 2.779541 1_655
B12 Yb2 2.779541 1_555
B13 B9 1.710902 1_555
B13 B19 1.794626 1_555
B13 B21 1.836666 1_555
B13 Ru1 2.400950 1_555
B13 Ru1 2.400950 1_655
B13 Yb7 2.592577 1_555
B13 Yb7 2.592577 1_655
B13 Yb3 2.779541 1_555
B13 Yb3 2.779541 1_655
B14 B16 1.794626 1_545
B14 B22 1.836666 1_555
B14 Ru2 2.400950 1_655
B14 Ru2 2.400950 1_555
B14 Yb4 2.592577 1_645
B14 Yb4 2.592577 1_545
B14 Yb0 2.779541 1_555
B14 Yb0 2.779541 1_655
B15 B17 1.794626 1_565
B15 B23 1.836666 1_555
B15 Ru3 2.400950 1_655
B15 Ru3 2.400950 1_555
B15 Yb5 2.592577 1_665
B15 Yb5 2.592577 1_565
B15 Yb1 2.779541 1_555
B15 Yb1 2.779541 1_655
B16 B2 1.758088 1_565
B16 B8 1.803886 1_555
B16 Ru2 2.368332 1_665
B16 Ru2 2.368332 1_565
B16 Yb4 2.587701 1_655
B16 Yb4 2.587701 1_555
B16 Yb2 2.723801 1_655
B16 Yb2 2.723801 1_555
B17 B3 1.758088 1_545
B17 B9 1.803886 1_555
B17 Ru3 2.368332 1_545
B17 Ru3 2.368332 1_645
B17 Yb5 2.587701 1_555
B17 Yb5 2.587701 1_655
B17 Yb3 2.723801 1_555
B17 Yb3 2.723801 1_655
B18 Ru0 2.368332 1_555
B18 Ru0 2.368332 1_655
B18 Yb6 2.587701 1_555
B18 Yb6 2.587701 1_655
B18 Yb0 2.723801 1_655
B18 Yb0 2.723801 1_555
B19 Ru1 2.368332 1_655
B19 Ru1 2.368332 1_555
B19 Yb7 2.587701 1_555
B19 Yb7 2.587701 1_655
B19 Yb1 2.723801 1_655
B19 Yb1 2.723801 1_555
B20 B7 1.833446 1_554
B20 B21 1.834721 1_554
B20 Yb6 2.598379 1_555
B20 Yb6 2.598379 1_655
B20 Yb7 2.600929 1_654
B20 Yb7 2.600929 1_554
B20 Yb2 2.877470 1_655
B20 Yb2 2.877470 1_555
B21 B6 1.833446 1_556
B21 Yb7 2.598379 1_655
B21 Yb7 2.598379 1_555
B21 Yb6 2.600929 1_656
B21 Yb6 2.600929 1_556
B21 Yb3 2.877470 1_555
B21 Yb3 2.877470 1_655
B22 B5 1.833446 1_555
B22 B23 1.834721 1_545
B22 Yb4 2.598379 1_545
B22 Yb4 2.598379 1_645
B22 Yb5 2.600929 1_555
B22 Yb5 2.600929 1_655
B22 Yb0 2.877470 1_655
B22 Yb0 2.877470 1_555
B23 B4 1.833446 1_555
B23 Yb5 2.598379 1_665
B23 Yb5 2.598379 1_565
B23 Yb4 2.600929 1_555
B23 Yb4 2.600929 1_655
B23 Yb1 2.877470 1_655
B23 Yb1 2.877470 1_555
Ru0 Yb4 2.780320 1_555
Ru0 Yb6 2.782531 1_555
Ru0 Yb1 3.034802 1_555
Ru0 Yb0 3.039930 1_555
Ru0 Yb2 3.127180 1_555
Ru1 Yb5 2.780320 1_555
Ru1 Yb7 2.782531 1_555
Ru1 Yb0 3.034802 1_555
Ru1 Yb1 3.039930 1_555
Ru1 Yb3 3.127180 1_555
Ru2 Yb6 2.780320 1_555
Ru2 Yb4 2.782531 1_545
Ru2 Yb3 3.034802 1_554
Ru2 Yb2 3.039930 1_545
Ru2 Yb0 3.127180 1_555
Ru3 Yb7 2.780320 1_555
Ru3 Yb5 2.782531 1_565
Ru3 Yb2 3.034802 1_556
Ru3 Yb3 3.039930 1_565
Ru3 Yb1 3.127180 1_555
