# generated using pymatgen
data_Al2ZnS4
_symmetry_space_group_name_H-M   'P 1'
_cell_length_a   6.15986900
_cell_length_b   7.39995400
_cell_length_c   26.38757300
_cell_angle_alpha   90.00000000
_cell_angle_beta   90.00000000
_cell_angle_gamma   90.00000000
_symmetry_Int_Tables_number   1
_chemical_formula_structural   Al2ZnS4
_chemical_formula_sum   'Al16 Zn8 S32'
_cell_volume   1202.81807050
_cell_formula_units_Z   8
loop_
 _symmetry_equiv_pos_site_id
 _symmetry_equiv_pos_as_xyz
  1  'x, y, z'
loop_
 _atom_site_type_symbol
 _atom_site_label
 _atom_site_symmetry_multiplicity
 _atom_site_fract_x
 _atom_site_fract_y
 _atom_site_fract_z
 _atom_site_occupancy
  Al  Al0  1  0.37599100  0.25139300  0.28970700  1
  Al  Al1  1  0.37615900  0.24933200  0.78989200  1
  Al  Al2  1  0.37599100  0.74860700  0.28970700  1
  Al  Al3  1  0.37615900  0.75066800  0.78989200  1
  Al  Al4  1  0.37624400  0.24870800  0.03990200  1
  Al  Al5  1  0.37590300  0.24912900  0.53971200  1
  Al  Al6  1  0.37624400  0.75129200  0.03990200  1
  Al  Al7  1  0.37590300  0.75087100  0.53971200  1
  Al  Al8  1  0.87615900  0.25066800  0.46010800  1
  Al  Al9  1  0.87624400  0.25129200  0.21009800  1
  Al  Al10  1  0.87615900  0.74933200  0.46010800  1
  Al  Al11  1  0.87624400  0.74870800  0.21009800  1
  Al  Al12  1  0.87599100  0.24860700  0.96029300  1
  Al  Al13  1  0.87590300  0.25087100  0.71028800  1
  Al  Al14  1  0.87599100  0.75139300  0.96029300  1
  Al  Al15  1  0.87590300  0.74912900  0.71028800  1
  Zn  Zn0  1  0.37411400  0.50000000  0.16796700  1
  Zn  Zn1  1  0.37464400  0.00000000  0.66794500  1
  Zn  Zn2  1  0.37527400  0.00000000  0.41748900  1
  Zn  Zn3  1  0.37351900  0.00000000  0.91834400  1
  Zn  Zn4  1  0.87464400  0.50000000  0.58205500  1
  Zn  Zn5  1  0.87411400  0.00000000  0.08203300  1
  Zn  Zn6  1  0.87351900  0.50000000  0.33165600  1
  Zn  Zn7  1  0.87527400  0.50000000  0.83251100  1
  S  S0  1  0.00553400  0.26008700  0.04071800  1
  S  S1  1  0.99839100  0.00000000  0.16783800  1
  S  S2  1  0.00553400  0.73991300  0.04071800  1
  S  S3  1  0.00535100  0.23969700  0.29055100  1
  S  S4  1  0.98913600  0.50000000  0.16623800  1
  S  S5  1  0.00541700  0.24163900  0.54045300  1
  S  S6  1  0.00535100  0.76030300  0.29055100  1
  S  S7  1  0.99050900  0.00000000  0.66762900  1
  S  S8  1  0.99709000  0.50000000  0.66728600  1
  S  S9  1  0.00541700  0.75836100  0.54045300  1
  S  S10  1  0.00559700  0.24201200  0.79060000  1
  S  S11  1  0.00559700  0.75798800  0.79060000  1
  S  S12  1  0.50559700  0.25798800  0.45940000  1
  S  S13  1  0.50535100  0.26030300  0.95944900  1
  S  S14  1  0.50553400  0.23991300  0.20928200  1
  S  S15  1  0.50541700  0.25836100  0.70954700  1
  S  S16  1  0.50559700  0.74201200  0.45940000  1
  S  S17  1  0.50535100  0.73969700  0.95944900  1
  S  S18  1  0.50541700  0.74163900  0.70954700  1
  S  S19  1  0.50553400  0.76008700  0.20928200  1
  S  S20  1  0.48913600  0.00000000  0.08376200  1
  S  S21  1  0.49839100  0.50000000  0.08216200  1
  S  S22  1  0.49709000  0.00000000  0.58271400  1
  S  S23  1  0.49050900  0.50000000  0.58237100  1
  S  S24  1  0.49701200  0.00000000  0.83288300  1
  S  S25  1  0.49089500  0.50000000  0.83266500  1
  S  S26  1  0.49834500  0.00000000  0.33188400  1
  S  S27  1  0.48868300  0.50000000  0.33360400  1
  S  S28  1  0.99089500  0.00000000  0.41733500  1
  S  S29  1  0.99701200  0.50000000  0.41711700  1
  S  S30  1  0.99834500  0.50000000  0.91811600  1
  S  S31  1  0.98868300  0.00000000  0.91639600  1
loop_
_geom_bond_atom_site_label_1
_geom_bond_atom_site_label_2
_geom_bond_distance
_geom_bond_site_symmetry_2
Al0 S14 2.268874 1_555
Al0 S27 2.282112 1_555
Al0 S3 2.284842 1_555
Al0 S26 2.295081 1_555
Al1 S15 2.265675 1_555
Al1 S10 2.283332 1_555
Al1 S25 2.283460 1_555
Al1 S24 2.290264 1_555
Al2 S19 2.268874 1_555
Al2 S27 2.282112 1_555
Al2 S6 2.284842 1_555
Al2 S26 2.295081 1_565
Al3 S18 2.265675 1_555
Al3 S11 2.283332 1_555
Al3 S25 2.283460 1_555
Al3 S24 2.290264 1_565
Al4 S13 2.268654 1_554
Al4 S20 2.282594 1_555
Al4 S0 2.285178 1_555
Al4 S21 2.295120 1_555
Al5 S12 2.265769 1_555
Al5 S5 2.282902 1_555
Al5 S23 2.282948 1_555
Al5 S22 2.289868 1_555
Al6 S17 2.268654 1_554
Al6 S20 2.282594 1_565
Al6 S2 2.285178 1_555
Al6 S21 2.295120 1_555
Al7 S16 2.265769 1_555
Al7 S9 2.282902 1_555
Al7 S23 2.282948 1_555
Al7 S22 2.289868 1_565
Al8 S5 2.265675 1_655
Al8 S12 2.283332 1_555
Al8 S28 2.283460 1_555
Al8 S29 2.290264 1_555
Al9 S3 2.268654 1_655
Al9 S4 2.282594 1_555
Al9 S14 2.285178 1_555
Al9 S1 2.295120 1_555
Al10 S9 2.265675 1_655
Al10 S16 2.283332 1_555
Al10 S28 2.283460 1_565
Al10 S29 2.290264 1_555
Al11 S6 2.268654 1_655
Al11 S4 2.282594 1_555
Al11 S19 2.285178 1_555
Al11 S1 2.295120 1_565
Al12 S0 2.268874 1_656
Al12 S31 2.282112 1_555
Al12 S13 2.284842 1_555
Al12 S30 2.295081 1_555
Al13 S10 2.265769 1_655
Al13 S15 2.282902 1_555
Al13 S7 2.282948 1_555
Al13 S8 2.289868 1_555
Al14 S2 2.268874 1_656
Al14 S31 2.282112 1_565
Al14 S17 2.284842 1_555
Al14 S30 2.295081 1_555
Al15 S11 2.265769 1_655
Al15 S18 2.282902 1_555
Al15 S7 2.282948 1_565
Al15 S8 2.289868 1_555
S0 Zn5 2.355438 1_455
S1 Zn5 2.390099 1_555
S2 Zn5 2.355438 1_465
S3 Zn6 2.355060 1_455
S4 Zn0 2.371853 1_655
S5 Zn4 2.347173 1_455
S6 Zn6 2.355060 1_455
S7 Zn1 2.366236 1_655
S8 Zn4 2.372145 1_555
S9 Zn4 2.347173 1_455
S10 Zn7 2.347804 1_455
S11 Zn7 2.347804 1_455
S12 Zn2 2.347804 1_555
S13 Zn3 2.355060 1_555
S14 Zn0 2.355438 1_555
S15 Zn1 2.347173 1_555
S16 Zn2 2.347804 1_565
S17 Zn3 2.355060 1_565
S18 Zn1 2.347173 1_565
S19 Zn0 2.355438 1_555
S20 Zn5 2.371853 1_555
S21 Zn0 2.390099 1_555
S22 Zn1 2.372145 1_555
S23 Zn4 2.366236 1_555
S24 Zn3 2.379954 1_555
S25 Zn7 2.367728 1_555
S26 Zn2 2.382726 1_555
S27 Zn6 2.371097 1_555
S28 Zn2 2.367728 1_655
S29 Zn6 2.379954 1_555
S30 Zn7 2.382726 1_555
S31 Zn3 2.371097 1_655
