# generated using pymatgen
data_Na2CaPb3(CO3)5
_symmetry_space_group_name_H-M   'P 1'
_cell_length_a   10.70660430
_cell_length_b   10.70660430
_cell_length_c   6.71898968
_cell_angle_alpha   89.52781845
_cell_angle_beta   89.52781845
_cell_angle_gamma   120.28721894
_symmetry_Int_Tables_number   1
_chemical_formula_structural   Na2CaPb3(CO3)5
_chemical_formula_sum   'Na4 Ca2 Pb6 C10 O30'
_cell_volume   664.98885607
_cell_formula_units_Z   2
loop_
 _symmetry_equiv_pos_site_id
 _symmetry_equiv_pos_as_xyz
  1  'x, y, z'
loop_
 _atom_site_type_symbol
 _atom_site_label
 _atom_site_symmetry_multiplicity
 _atom_site_fract_x
 _atom_site_fract_y
 _atom_site_fract_z
 _atom_site_occupancy
  Na  Na0  1  0.47709800  0.52396200  0.18179300  1
  Na  Na1  1  0.47620900  0.95111900  0.18072300  1
  Na  Na2  1  0.52396200  0.47709800  0.68179300  1
  Na  Na3  1  0.95111900  0.47620900  0.68072300  1
  Ca  Ca0  1  0.04593300  0.52307900  0.17480700  1
  Ca  Ca1  1  0.52307900  0.04593300  0.67480700  1
  Pb  Pb0  1  0.15152600  0.84167800  0.49817600  1
  Pb  Pb1  1  0.16338700  0.31606400  0.50598100  1
  Pb  Pb2  1  0.68286100  0.83256100  0.49659400  1
  Pb  Pb3  1  0.84167800  0.15152600  0.99817600  1
  Pb  Pb4  1  0.83256100  0.68286100  0.99659400  1
  Pb  Pb5  1  0.31606400  0.16338700  0.00598100  1
  C  C0  1  0.66844200  0.33263700  0.99717900  1
  C  C1  1  0.33263700  0.66844200  0.49717900  1
  C  C2  1  0.00017700  0.00071900  0.65340500  1
  C  C3  1  0.00071900  0.00017700  0.15340500  1
  C  C4  1  0.20585500  0.79531000  0.94971500  1
  C  C5  1  0.20349700  0.40928500  0.95157500  1
  C  C6  1  0.59044500  0.79681700  0.94964800  1
  C  C7  1  0.79531000  0.20585500  0.44971500  1
  C  C8  1  0.79681700  0.59044500  0.44964800  1
  C  C9  1  0.40928500  0.20349700  0.45157500  1
  O  O0  1  0.08576200  0.38855100  0.86336400  1
  O  O1  1  0.61825300  0.70689000  0.85409700  1
  O  O2  1  0.29930300  0.91359400  0.85485600  1
  O  O3  1  0.08827700  0.69989900  0.86113100  1
  O  O4  1  0.61307200  0.91512200  0.85402100  1
  O  O5  1  0.29334300  0.38139100  0.85723200  1
  O  O6  1  0.91512200  0.61307200  0.35402100  1
  O  O7  1  0.38139100  0.29334300  0.35723200  1
  O  O8  1  0.69989900  0.08827700  0.36113100  1
  O  O9  1  0.91359400  0.29930300  0.35485600  1
  O  O10  1  0.38855100  0.08576200  0.36336400  1
  O  O11  1  0.70689000  0.61825300  0.35409700  1
  O  O12  1  0.59849800  0.40239000  0.00126600  1
  O  O13  1  0.59782900  0.19135500  0.98576900  1
  O  O14  1  0.80949700  0.40282300  0.00531200  1
  O  O15  1  0.40239000  0.59849800  0.50126600  1
  O  O16  1  0.40282300  0.80949700  0.50531200  1
  O  O17  1  0.19135500  0.59782900  0.48576900  1
  O  O18  1  0.07056900  0.93024300  0.15286700  1
  O  O19  1  0.07086000  0.14090700  0.14954500  1
  O  O20  1  0.85977300  0.92982800  0.14839400  1
  O  O21  1  0.93024300  0.07056900  0.65286700  1
  O  O22  1  0.92982800  0.85977300  0.64839400  1
  O  O23  1  0.14090700  0.07086000  0.64954500  1
  O  O24  1  0.22894400  0.77108900  0.12953500  1
  O  O25  1  0.22871800  0.45834700  0.12963200  1
  O  O26  1  0.54392800  0.77228400  0.12818300  1
  O  O27  1  0.77108900  0.22894400  0.62953500  1
  O  O28  1  0.77228400  0.54392800  0.62818300  1
  O  O29  1  0.45834700  0.22871800  0.62963200  1
loop_
_geom_bond_atom_site_label_1
_geom_bond_atom_site_label_2
_geom_bond_distance
_geom_bond_site_symmetry_2
Na0 O26 2.402385 1_555
Na0 O25 2.413149 1_555
Na0 O7 2.432334 1_555
Na0 O11 2.444056 1_555
Na0 O15 2.555003 1_555
Na0 O12 2.561534 1_555
Na0 O1 2.802897 1_554
Na0 O5 2.837719 1_554
Na1 O24 2.391863 1_555
Na1 O26 2.392414 1_555
Na1 O10 2.416550 1_565
Na1 O8 2.427211 1_565
Na1 O16 2.527530 1_555
Na1 O13 2.562268 1_564
Na1 O4 2.764927 1_554
Na1 O2 2.803225 1_554
Na2 O28 2.402385 1_555
Na2 O29 2.413149 1_555
Na2 O5 2.432334 1_555
Na2 O1 2.444056 1_555
Na2 O12 2.555003 1_556
Na2 O15 2.561534 1_555
Na2 O11 2.802897 1_555
Na2 O7 2.837719 1_555
Na3 O27 2.391863 1_555
Na3 O28 2.392414 1_555
Na3 O0 2.416550 1_655
Na3 O3 2.427211 1_655
Na3 O14 2.527530 1_556
Na3 O17 2.562268 1_655
Na3 O6 2.764927 1_555
Na3 O9 2.803225 1_555
Ca0 O6 2.385856 1_455
Ca0 O9 2.389804 1_455
Ca0 O24 2.389882 1_555
Ca0 O25 2.400853 1_555
Ca0 O14 2.479302 1_455
Ca0 O17 2.500873 1_555
Ca0 O3 2.698928 1_554
Ca0 O0 2.699967 1_554
Ca1 O4 2.385856 1_545
Ca1 O2 2.389804 1_545
Ca1 O27 2.389882 1_555
Ca1 O29 2.400853 1_555
Ca1 O16 2.479302 1_545
Ca1 O13 2.500873 1_555
Ca1 O8 2.698928 1_555
Ca1 O10 2.699967 1_555
C0 O12 1.297458 1_556
C0 O14 1.306052 1_556
C0 O13 1.309547 1_555
C1 O15 1.297458 1_555
C1 O16 1.306052 1_555
C1 O17 1.309547 1_555
C2 O21 1.297981 1_455
C2 O23 1.301001 1_555
C2 O22 1.304020 1_445
C3 O18 1.297981 1_545
C3 O19 1.301001 1_555
C3 O20 1.304020 1_445
C4 O24 1.285515 1_556
C4 O3 1.306816 1_555
C4 O2 1.307363 1_555
C5 O25 1.285588 1_556
C5 O5 1.303531 1_555
C5 O0 1.312156 1_555
C6 O26 1.268473 1_556
C6 O1 1.313013 1_555
C6 O4 1.323031 1_555
C7 O27 1.285515 1_555
C7 O8 1.306816 1_555
C7 O9 1.307363 1_555
C8 O28 1.268473 1_555
C8 O11 1.313013 1_555
C8 O6 1.323031 1_555
C9 O29 1.285588 1_555
C9 O7 1.303531 1_555
C9 O10 1.312156 1_555
O0 Pb3 2.706228 1_455
O0 Pb1 2.776235 1_555
O1 Pb4 2.622065 1_555
O1 Pb2 2.653171 1_555
O2 Pb0 2.775543 1_555
O2 Pb5 2.789180 1_566
O3 Pb0 2.754077 1_555
O3 Pb4 2.794627 1_455
O4 Pb3 2.676928 1_565
O4 Pb2 2.789039 1_555
O5 Pb5 2.654107 1_556
O5 Pb1 2.663592 1_555
O6 Pb0 2.676928 1_655
O6 Pb4 2.789039 1_554
O7 Pb1 2.654107 1_555
O7 Pb5 2.663592 1_555
O8 Pb3 2.754077 1_554
O8 Pb2 2.794627 1_545
O9 Pb3 2.775543 1_554
O9 Pb1 2.789180 1_655
O10 Pb0 2.706228 1_545
O10 Pb5 2.776235 1_555
O11 Pb2 2.622065 1_555
O11 Pb4 2.653171 1_554
O12 Pb4 2.775803 1_554
O12 Pb5 2.808049 1_555
O13 Pb3 2.851496 1_555
O13 Pb5 2.879283 1_556
O14 Pb3 2.880437 1_554
O14 Pb4 2.881669 1_554
O15 Pb2 2.775803 1_555
O15 Pb1 2.808049 1_555
O16 Pb0 2.880437 1_555
O16 Pb2 2.881669 1_555
O17 Pb0 2.851496 1_555
O17 Pb1 2.879283 1_555
O18 Pb5 2.722549 1_565
O18 Pb0 2.803452 1_555
O18 Pb4 2.809512 1_454
O19 Pb5 2.682851 1_555
O19 Pb3 2.718249 1_454
O19 Pb1 2.910840 1_555
O20 Pb3 2.667951 1_564
O20 Pb4 2.718297 1_554
O20 Pb2 2.836000 1_555
O21 Pb1 2.722549 1_655
O21 Pb3 2.803452 1_555
O21 Pb2 2.809512 1_545
O22 Pb0 2.667951 1_655
O22 Pb2 2.718297 1_555
O22 Pb4 2.836000 1_555
O23 Pb1 2.682851 1_555
O23 Pb0 2.718249 1_545
O23 Pb5 2.910840 1_556
O24 Pb0 2.832337 1_555
O25 Pb1 2.834912 1_555
O26 Pb2 2.806283 1_555
O27 Pb3 2.832337 1_555
O28 Pb4 2.806283 1_555
O29 Pb5 2.834912 1_556
