# generated using pymatgen
data_Pd(IO3)2
_symmetry_space_group_name_H-M   'P 1'
_cell_length_a   5.94578900
_cell_length_b   6.23477900
_cell_length_c   15.37445200
_cell_angle_alpha   90.00000000
_cell_angle_beta   90.00000000
_cell_angle_gamma   90.00000000
_symmetry_Int_Tables_number   1
_chemical_formula_structural   Pd(IO3)2
_chemical_formula_sum   'Pd4 I8 O24'
_cell_volume   569.94139635
_cell_formula_units_Z   4
loop_
 _symmetry_equiv_pos_site_id
 _symmetry_equiv_pos_as_xyz
  1  'x, y, z'
loop_
 _atom_site_type_symbol
 _atom_site_label
 _atom_site_symmetry_multiplicity
 _atom_site_fract_x
 _atom_site_fract_y
 _atom_site_fract_z
 _atom_site_occupancy
  Pd  Pd0  1  0.00000000  0.00000000  0.50000000  1
  Pd  Pd1  1  0.50000000  0.50000000  0.50000000  1
  Pd  Pd2  1  0.00000000  0.50000000  0.00000000  1
  Pd  Pd3  1  0.50000000  0.00000000  0.00000000  1
  I  I0  1  0.04052300  0.40502300  0.65073500  1
  I  I1  1  0.54052300  0.09497700  0.34926500  1
  I  I2  1  0.95947700  0.90502300  0.84926500  1
  I  I3  1  0.45947700  0.59497700  0.15073500  1
  I  I4  1  0.95947700  0.59497700  0.34926500  1
  I  I5  1  0.45947700  0.90502300  0.65073500  1
  I  I6  1  0.04052300  0.09497700  0.15073500  1
  I  I7  1  0.54052300  0.40502300  0.84926500  1
  O  O0  1  0.88228300  0.17155400  0.60332100  1
  O  O1  1  0.38228300  0.32844600  0.39667900  1
  O  O2  1  0.11771700  0.67155400  0.89667900  1
  O  O3  1  0.61771700  0.82844600  0.10332100  1
  O  O4  1  0.11771700  0.82844600  0.39667900  1
  O  O5  1  0.61771700  0.67155400  0.60332100  1
  O  O6  1  0.88228300  0.32844600  0.10332100  1
  O  O7  1  0.38228300  0.17155400  0.89667900  1
  O  O8  1  0.25674900  0.26550700  0.71407000  1
  O  O9  1  0.75674900  0.23449300  0.28593000  1
  O  O10  1  0.74325100  0.76550700  0.78593000  1
  O  O11  1  0.24325100  0.73449300  0.21407000  1
  O  O12  1  0.74325100  0.73449300  0.28593000  1
  O  O13  1  0.24325100  0.76550700  0.71407000  1
  O  O14  1  0.25674900  0.23449300  0.21407000  1
  O  O15  1  0.75674900  0.26550700  0.78593000  1
  O  O16  1  0.18687700  0.49595400  0.55147800  1
  O  O17  1  0.68687700  0.00404600  0.44852200  1
  O  O18  1  0.81312300  0.99595400  0.94852200  1
  O  O19  1  0.31312300  0.50404600  0.05147800  1
  O  O20  1  0.81312300  0.50404600  0.44852200  1
  O  O21  1  0.31312300  0.99595400  0.55147800  1
  O  O22  1  0.18687700  0.00404600  0.05147800  1
  O  O23  1  0.68687700  0.49595400  0.94852200  1
loop_
_geom_bond_atom_site_label_1
_geom_bond_atom_site_label_2
_geom_bond_distance
_geom_bond_site_symmetry_2
I0 O8 1.832394 1_555
I0 O16 1.845911 1_555
I0 O0 1.880282 1_455
I1 O9 1.832394 1_555
I1 O17 1.845911 1_555
I1 O1 1.880282 1_555
I2 O10 1.832394 1_555
I2 O18 1.845911 1_555
I2 O2 1.880282 1_655
I3 O11 1.832394 1_555
I3 O19 1.845911 1_555
I3 O3 1.880282 1_555
I4 O12 1.832394 1_555
I4 O20 1.845911 1_555
I4 O4 1.880282 1_655
I5 O13 1.832394 1_555
I5 O21 1.845911 1_555
I5 O5 1.880282 1_555
I6 O14 1.832394 1_555
I6 O22 1.845911 1_555
I6 O6 1.880282 1_455
I7 O15 1.832394 1_555
I7 O23 1.845911 1_555
I7 O7 1.880282 1_555
O0 Pd0 2.038941 1_655
O1 Pd1 2.038941 1_555
O2 Pd2 2.038941 1_556
O3 Pd3 2.038941 1_565
O4 Pd0 2.038941 1_565
O5 Pd1 2.038941 1_555
O6 Pd2 2.038941 1_655
O7 Pd3 2.038941 1_556
O16 Pd1 2.023162 1_555
O17 Pd0 2.023162 1_655
O18 Pd3 2.023162 1_566
O19 Pd2 2.023162 1_555
O20 Pd1 2.023162 1_555
O21 Pd0 2.023162 1_565
O22 Pd3 2.023162 1_555
O23 Pd2 2.023162 1_656
