# generated using pymatgen
data_Mg2Al3WS8
_symmetry_space_group_name_H-M   'P 1'
_cell_length_a   7.23500888
_cell_length_b   7.33795929
_cell_length_c   7.23506289
_cell_angle_alpha   60.46337914
_cell_angle_beta   59.99876091
_cell_angle_gamma   60.46390461
_symmetry_Int_Tables_number   1
_chemical_formula_structural   Mg2Al3WS8
_chemical_formula_sum   'Mg2 Al3 W1 S8'
_cell_volume   273.49272730
_cell_formula_units_Z   1
loop_
 _symmetry_equiv_pos_site_id
 _symmetry_equiv_pos_as_xyz
  1  'x, y, z'
loop_
 _atom_site_type_symbol
 _atom_site_label
 _atom_site_symmetry_multiplicity
 _atom_site_fract_x
 _atom_site_fract_y
 _atom_site_fract_z
 _atom_site_occupancy
  Mg  Mg0  1  0.87353191  0.87939215  0.87353586  1
  Mg  Mg1  1  0.12644896  0.12067906  0.12643814  1
  Al  Al0  1  0.50000004  0.50000526  0.49998539  1
  Al  Al1  1  0.49999785  0.49998953  0.00000598  1
  Al  Al2  1  0.00000338  0.49998993  0.50000879  1
  W  W0  1  0.50000667  0.99998271  0.50000939  1
  S  S0  1  0.74048238  0.73216831  0.74048778  1
  S  S1  1  0.25952364  0.26781691  0.71313131  1
  S  S2  1  0.26183669  0.71450341  0.26182633  1
  S  S3  1  0.71313069  0.26781957  0.25951675  1
  S  S4  1  0.73815432  0.28550754  0.73816453  1
  S  S5  1  0.28686518  0.73216146  0.74048927  1
  S  S6  1  0.25952808  0.26780577  0.25953622  1
  S  S7  1  0.74049422  0.73217341  0.28686525  1
loop_
_geom_bond_atom_site_label_1
_geom_bond_atom_site_label_2
_geom_bond_distance
_geom_bond_site_symmetry_2
Mg0 S0 2.449010 1_555
Mg0 S7 2.449047 1_556
Mg0 S5 2.449069 1_655
Mg0 S4 2.450127 1_565
Mg1 S6 2.448884 1_555
Mg1 S1 2.448896 1_554
Mg1 S3 2.448959 1_455
Mg1 S2 2.450491 1_545
Al0 S3 2.440689 1_555
Al0 S7 2.440707 1_555
Al0 S1 2.440708 1_555
Al0 S5 2.440716 1_555
Al0 S2 2.456976 1_555
Al0 S4 2.457035 1_555
Al1 S6 2.440658 1_555
Al1 S3 2.440686 1_555
Al1 S0 2.440699 1_554
Al1 S5 2.440717 1_554
Al1 S4 2.456929 1_554
Al1 S2 2.456975 1_555
Al2 S1 2.440686 1_555
Al2 S6 2.440698 1_555
Al2 S0 2.440699 1_455
Al2 S7 2.440730 1_455
Al2 S4 2.456943 1_455
Al2 S2 2.457013 1_555
S0 W0 2.490219 1_555
S1 W0 2.490186 1_545
S3 W0 2.490182 1_545
S5 W0 2.490179 1_555
S6 W0 2.490214 1_545
S7 W0 2.490155 1_555
