# generated using pymatgen
data_Ga4B2O9
_symmetry_space_group_name_H-M   'P 1'
_cell_length_a   8.11417153
_cell_length_b   8.11417153
_cell_length_c   10.84526349
_cell_angle_alpha   49.45061575
_cell_angle_beta   49.45061575
_cell_angle_gamma   41.54844919
_symmetry_Int_Tables_number   1
_chemical_formula_structural   Ga4B2O9
_chemical_formula_sum   'Ga8 B4 O18'
_cell_volume   340.37867469
_cell_formula_units_Z   2
loop_
 _symmetry_equiv_pos_site_id
 _symmetry_equiv_pos_as_xyz
  1  'x, y, z'
loop_
 _atom_site_type_symbol
 _atom_site_label
 _atom_site_symmetry_multiplicity
 _atom_site_fract_x
 _atom_site_fract_y
 _atom_site_fract_z
 _atom_site_occupancy
  Ga  Ga0  1  0.49713156  0.99909248  0.50105454  1
  Ga  Ga1  1  0.99909248  0.49713156  0.50105454  1
  Ga  Ga2  1  0.34240375  0.34240375  0.63241487  1
  Ga  Ga3  1  0.67231822  0.67231822  0.34221175  1
  Ga  Ga4  1  0.99699180  0.49195003  0.00899540  1
  Ga  Ga5  1  0.49195003  0.99699180  0.00899540  1
  Ga  Ga6  1  0.47561064  0.47561064  0.73326150  1
  Ga  Ga7  1  0.49150969  0.49150969  0.17598606  1
  B  B0  1  0.99885714  0.99885714  0.21436409  1
  B  B1  1  0.99849281  0.99849281  0.77519512  1
  B  B2  1  0.76081349  0.76081349  0.73873449  1
  B  B3  1  0.28623971  0.28623971  0.21907282  1
  O  O0  1  0.56478661  0.97875211  0.66399087  1
  O  O1  1  0.97875211  0.56478661  0.66399087  1
  O  O2  1  0.44506382  0.02068930  0.33834949  1
  O  O3  1  0.02068930  0.44506382  0.33834949  1
  O  O4  1  0.29657540  0.29657540  0.84975156  1
  O  O5  1  0.70398288  0.70398288  0.14728185  1
  O  O6  1  0.87609012  0.87609012  0.35232439  1
  O  O7  1  0.12428080  0.12428080  0.65557913  1
  O  O8  1  0.85686160  0.27148742  0.14171164  1
  O  O9  1  0.27148742  0.85686160  0.14171164  1
  O  O10  1  0.13596720  0.72758529  0.83724459  1
  O  O11  1  0.72758529  0.13596720  0.83724459  1
  O  O12  1  0.73869410  0.73869410  0.88422481  1
  O  O13  1  0.24332982  0.24332982  0.13154992  1
  O  O14  1  0.36384267  0.36384267  0.42204462  1
  O  O15  1  0.64098228  0.64098228  0.60125844  1
  O  O16  1  0.50240456  0.50240456  0.53260334  1
  O  O17  1  0.41781169  0.41781169  0.10054815  1
loop_
_geom_bond_atom_site_label_1
_geom_bond_atom_site_label_2
_geom_bond_distance
_geom_bond_site_symmetry_2
Ga0 O15 1.858420 1_555
Ga0 O2 1.944065 1_565
Ga0 O14 1.944186 1_565
Ga0 O7 2.003636 1_565
Ga0 O6 2.025791 1_555
Ga0 O0 2.048822 1_555
Ga1 O15 1.858420 1_555
Ga1 O3 1.944065 1_655
Ga1 O14 1.944186 1_655
Ga1 O7 2.003636 1_655
Ga1 O6 2.025791 1_555
Ga1 O1 2.048822 1_555
Ga2 O16 1.846930 1_555
Ga2 O1 1.897408 1_455
Ga2 O0 1.897408 1_545
Ga2 O4 1.939090 1_555
Ga2 O14 2.068593 1_555
Ga3 O5 1.813185 1_555
Ga3 O16 1.872835 1_555
Ga3 O2 1.880695 1_565
Ga3 O3 1.880695 1_655
Ga4 O5 1.859594 1_555
Ga4 O4 1.933424 1_654
Ga4 O13 1.940116 1_655
Ga4 O12 2.028882 1_554
Ga4 O8 2.033090 1_555
Ga4 O10 2.064575 1_654
Ga5 O5 1.859594 1_555
Ga5 O4 1.933424 1_564
Ga5 O13 1.940116 1_565
Ga5 O12 2.028882 1_554
Ga5 O9 2.033090 1_555
Ga5 O11 2.064575 1_564
Ga6 O15 1.830385 1_555
Ga6 O10 1.889488 1_555
Ga6 O11 1.889488 1_555
Ga6 O16 1.915924 1_555
Ga6 O4 2.050156 1_555
Ga7 O17 1.786636 1_555
Ga7 O9 1.903181 1_555
Ga7 O8 1.903181 1_555
Ga7 O14 1.919669 1_555
B0 O6 1.353805 1_555
B0 O8 1.393224 1_565
B0 O9 1.393224 1_655
B1 O7 1.372067 1_665
B1 O10 1.382630 1_655
B1 O11 1.382630 1_565
B2 O12 1.365986 1_555
B2 O0 1.384465 1_555
B2 O1 1.384465 1_555
B3 O17 1.438487 1_555
B3 O13 1.477947 1_555
B3 O3 1.537565 1_555
B3 O2 1.537565 1_555
