# generated using pymatgen
data_CaTb4(PO4)4
_symmetry_space_group_name_H-M   'P 1'
_cell_length_a   6.53092063
_cell_length_b   6.64050985
_cell_length_c   8.47095597
_cell_angle_alpha   96.87506931
_cell_angle_beta   104.62317719
_cell_angle_gamma   99.46373950
_symmetry_Int_Tables_number   1
_chemical_formula_structural   CaTb4(PO4)4
_chemical_formula_sum   'Ca1 Tb4 P4 O16'
_cell_volume   345.59733077
_cell_formula_units_Z   1
loop_
 _symmetry_equiv_pos_site_id
 _symmetry_equiv_pos_as_xyz
  1  'x, y, z'
loop_
 _atom_site_type_symbol
 _atom_site_label
 _atom_site_symmetry_multiplicity
 _atom_site_fract_x
 _atom_site_fract_y
 _atom_site_fract_z
 _atom_site_occupancy
  Ca  Ca0  1  0.99275800  0.47851100  0.54668700  1
  Tb  Tb0  1  0.38942200  0.16121800  0.61409500  1
  Tb  Tb1  1  0.80033000  0.66582700  0.90327200  1
  Tb  Tb2  1  0.67856300  0.85371900  0.31687400  1
  Tb  Tb3  1  0.07995500  0.24506200  0.16554500  1
  P  P0  1  0.89682800  0.13648300  0.72590200  1
  P  P1  1  0.35596100  0.73728600  0.85482400  1
  P  P2  1  0.15417100  0.79875300  0.30138800  1
  P  P3  1  0.62802700  0.34202400  0.18036700  1
  O  O0  1  0.16874100  0.27668100  0.43428700  1
  O  O1  1  0.51827500  0.76478300  0.02945900  1
  O  O2  1  0.06182900  0.80042200  0.45322600  1
  O  O3  1  0.38987000  0.26750100  0.09183200  1
  O  O4  1  0.89743300  0.04624400  0.89194600  1
  O  O5  1  0.43619900  0.57101000  0.74750600  1
  O  O6  1  0.97692200  0.86847300  0.16663700  1
  O  O7  1  0.66855600  0.51401300  0.33398000  1
  O  O8  1  0.72130500  0.96312400  0.58751700  1
  O  O9  1  0.11663100  0.64862000  0.84421300  1
  O  O10  1  0.36719700  0.96471400  0.34901600  1
  O  O11  1  0.76694800  0.42186400  0.06562800  1
  O  O12  1  0.75418000  0.32836400  0.71683300  1
  O  O13  1  0.37085700  0.94004200  0.78700400  1
  O  O14  1  0.20176100  0.59477800  0.23437500  1
  O  O15  1  0.74269900  0.17048500  0.25017900  1
loop_
_geom_bond_atom_site_label_1
_geom_bond_atom_site_label_2
_geom_bond_distance
_geom_bond_site_symmetry_2
Ca0 O0 2.185725 1_655
Ca0 O2 2.380807 1_655
Ca0 O7 2.474838 1_555
Ca0 O9 2.504184 1_655
Ca0 O12 2.542897 1_555
O0 Tb0 2.125940 1_555
O0 Tb3 2.177565 1_555
O1 P1 1.557352 1_554
O1 Tb2 2.353267 1_555
O1 Tb1 2.488326 1_554
O2 P2 1.551972 1_555
O2 Tb2 2.579565 1_455
O2 Tb0 2.869701 1_565
O3 P3 1.515130 1_555
O3 Tb3 2.251675 1_555
O4 P0 1.592872 1_555
O4 Tb3 2.427023 1_656
O4 Tb1 2.520874 1_545
O5 P1 1.584520 1_555
O5 Tb1 2.348875 1_555
O5 Tb0 2.755289 1_555
O6 P2 1.578897 1_655
O6 Tb1 2.364287 1_554
O6 Tb3 2.482319 1_665
O6 Tb2 2.577851 1_555
O7 P3 1.561592 1_555
O7 Tb2 2.269043 1_555
O8 P0 1.605596 1_565
O8 Tb2 2.252374 1_555
O8 Tb0 2.755406 1_565
O9 P1 1.552937 1_555
O9 Tb1 2.261937 1_455
O10 P2 1.555264 1_555
O10 Tb2 2.340287 1_555
O10 Tb0 2.416112 1_565
O11 P3 1.568240 1_555
O11 Tb1 2.265436 1_554
O11 Tb3 2.535185 1_655
O12 P0 1.695593 1_555
O12 Tb0 2.348764 1_555
O12 Tb1 2.509397 1_555
O13 P1 1.524024 1_555
O13 Tb0 2.205298 1_565
O14 P2 1.515570 1_555
O14 Tb3 2.280341 1_555
O15 P3 1.557674 1_555
O15 Tb2 2.243561 1_545
O15 Tb3 2.476748 1_655
