# generated using pymatgen
data_Rb12Sn2Bi6O
_symmetry_space_group_name_H-M   'P 1'
_cell_length_a   12.79827501
_cell_length_b   12.79827501
_cell_length_c   6.47942500
_cell_angle_alpha   90.00000000
_cell_angle_beta   90.00000000
_cell_angle_gamma   119.99999489
_symmetry_Int_Tables_number   1
_chemical_formula_structural   Rb12Sn2Bi6O
_chemical_formula_sum   'Rb12 Sn2 Bi6 O1'
_cell_volume   919.11530412
_cell_formula_units_Z   1
loop_
 _symmetry_equiv_pos_site_id
 _symmetry_equiv_pos_as_xyz
  1  'x, y, z'
loop_
 _atom_site_type_symbol
 _atom_site_label
 _atom_site_symmetry_multiplicity
 _atom_site_fract_x
 _atom_site_fract_y
 _atom_site_fract_z
 _atom_site_occupancy
  Rb  Rb0  1  0.90675400  0.45337700  0.24904000  1
  Rb  Rb1  1  0.54662300  0.45337700  0.24904000  1
  Rb  Rb2  1  0.54662300  0.09324600  0.24904000  1
  Rb  Rb3  1  0.09324600  0.54662300  0.75096000  1
  Rb  Rb4  1  0.45337700  0.54662300  0.75096000  1
  Rb  Rb5  1  0.45337700  0.90675400  0.75096000  1
  Rb  Rb6  1  0.22011600  0.11005800  0.27752700  1
  Rb  Rb7  1  0.88994200  0.11005800  0.27752700  1
  Rb  Rb8  1  0.88994200  0.77988400  0.27752700  1
  Rb  Rb9  1  0.77988400  0.88994200  0.72247300  1
  Rb  Rb10  1  0.11005800  0.88994200  0.72247300  1
  Rb  Rb11  1  0.11005800  0.22011600  0.72247300  1
  Sn  Sn0  1  0.66666700  0.33333300  0.74991300  1
  Sn  Sn1  1  0.33333300  0.66666700  0.25008700  1
  Bi  Bi0  1  0.58966300  0.79483200  0.24127700  1
  Bi  Bi1  1  0.20516800  0.79483200  0.24127700  1
  Bi  Bi2  1  0.20516800  0.41033700  0.24127700  1
  Bi  Bi3  1  0.41033700  0.20516800  0.75872300  1
  Bi  Bi4  1  0.79483200  0.20516800  0.75872300  1
  Bi  Bi5  1  0.79483200  0.58966300  0.75872300  1
  O  O0  1  0.00000000  0.00000000  0.50000000  1
loop_
_geom_bond_atom_site_label_1
_geom_bond_atom_site_label_2
_geom_bond_distance
_geom_bond_site_symmetry_2
Rb0 Rb3 3.832468 1_654
Rb0 Rb3 3.853443 1_655
Rb0 Sn0 4.188106 1_554
Rb0 Sn0 4.196848 1_555
Rb0 Rb8 4.294326 1_555
Rb0 Rb7 4.294326 1_555
Rb0 Rb1 4.609056 1_555
Rb0 Rb2 4.609056 1_555
Rb1 Rb4 3.832468 1_554
Rb1 Rb4 3.853443 1_555
Rb1 Sn0 4.188113 1_554
Rb1 Sn0 4.196855 1_555
Rb1 Rb6 4.294326 1_555
Rb1 Rb8 4.294326 1_555
Rb1 Rb2 4.609056 1_555
Rb2 Rb5 3.832468 1_544
Rb2 Rb5 3.853443 1_545
Rb2 Sn0 4.188106 1_554
Rb2 Sn0 4.196848 1_555
Rb2 Rb6 4.294326 1_555
Rb2 Rb7 4.294326 1_555
Rb3 Sn1 4.188106 1_556
Rb3 Sn1 4.196848 1_555
Rb3 Rb4 4.609056 1_555
Rb3 Rb5 4.609056 1_555
Rb4 Sn1 4.188113 1_556
Rb4 Sn1 4.196855 1_555
Rb4 Rb9 4.294326 1_555
Rb4 Rb5 4.609056 1_555
Rb5 Sn1 4.188106 1_556
Rb5 Sn1 4.196848 1_555
Rb5 Rb9 4.294326 1_555
Rb10 Rb3 4.294326 1_555
Rb10 Rb5 4.294326 1_555
Rb11 Rb3 4.294326 1_555
Rb11 Rb4 4.294326 1_555
Bi0 Sn1 2.841641 1_555
Bi0 Rb9 3.763805 1_555
Bi0 Rb7 3.949175 1_565
Bi0 Rb8 3.949181 1_555
Bi0 Rb9 3.968013 1_554
Bi0 Rb2 4.122605 1_565
Bi0 Rb1 4.122618 1_555
Bi0 Rb5 4.205439 1_554
Bi0 Rb4 4.205446 1_554
Bi0 Rb5 4.301018 1_555
Bi0 Rb4 4.301025 1_555
Bi1 Sn1 2.841641 1_555
Bi1 Rb10 3.763799 1_555
Bi1 Rb6 3.949169 1_565
Bi1 Rb8 3.949169 1_455
Bi1 Rb10 3.968007 1_554
Bi1 Rb2 4.122613 1_565
Bi1 Rb0 4.122613 1_455
Bi1 Rb5 4.205446 1_554
Bi1 Rb3 4.205446 1_554
Bi1 Rb3 4.301025 1_555
Bi1 Rb5 4.301025 1_555
Bi2 Sn1 2.841641 1_555
Bi2 Rb11 3.763805 1_555
Bi2 Rb7 3.949175 1_455
Bi2 Rb6 3.949181 1_555
Bi2 Rb11 3.968013 1_554
Bi2 Rb0 4.122605 1_455
Bi2 Rb1 4.122618 1_555
Bi2 Rb3 4.205439 1_554
Bi2 Rb4 4.205446 1_554
Bi2 Rb3 4.301018 1_555
Bi2 Rb4 4.301025 1_555
Bi3 Sn0 2.841641 1_555
Bi3 Rb6 3.763805 1_555
Bi3 Rb10 3.949175 1_545
Bi3 Rb11 3.949181 1_555
Bi3 Rb6 3.968013 1_556
Bi3 Rb5 4.122605 1_545
Bi3 Rb4 4.122618 1_555
Bi3 Rb2 4.205439 1_556
Bi3 Rb1 4.205446 1_556
Bi3 Rb2 4.301018 1_555
Bi3 Rb1 4.301025 1_555
Bi4 Sn0 2.841641 1_555
Bi4 Rb7 3.763799 1_555
Bi4 Rb11 3.949169 1_655
Bi4 Rb9 3.949169 1_545
Bi4 Rb7 3.968007 1_556
Bi4 Rb3 4.122613 1_655
Bi4 Rb5 4.122613 1_545
Bi4 Rb2 4.205446 1_556
Bi4 Rb0 4.205446 1_556
Bi4 Rb0 4.301025 1_555
Bi4 Rb2 4.301025 1_555
Bi5 Sn0 2.841641 1_555
Bi5 Rb8 3.763805 1_555
Bi5 Rb10 3.949175 1_655
Bi5 Rb9 3.949181 1_555
Bi5 Rb8 3.968013 1_556
Bi5 Rb3 4.122605 1_655
Bi5 Rb4 4.122618 1_555
Bi5 Rb0 4.205439 1_556
Bi5 Rb1 4.205446 1_556
Bi5 Rb0 4.301018 1_555
Bi5 Rb1 4.301025 1_555
O0 Rb7 2.833721 1_455
O0 Rb10 2.833721 1_545
O0 Rb8 2.833721 1_445
O0 Rb6 2.833721 1_555
O0 Rb11 2.833721 1_555
O0 Rb9 2.833721 1_445
