# generated using pymatgen
data_LiCaAlN2
_symmetry_space_group_name_H-M   'P 1'
_cell_length_a   6.89955200
_cell_length_b   5.79045100
_cell_length_c   5.82857286
_cell_angle_alpha   89.73602006
_cell_angle_beta   90.00000000
_cell_angle_gamma   90.00000000
_symmetry_Int_Tables_number   1
_chemical_formula_structural   LiCaAlN2
_chemical_formula_sum   'Li4 Ca4 Al4 N8'
_cell_volume   232.85786084
_cell_formula_units_Z   4
loop_
 _symmetry_equiv_pos_site_id
 _symmetry_equiv_pos_as_xyz
  1  'x, y, z'
loop_
 _atom_site_type_symbol
 _atom_site_label
 _atom_site_symmetry_multiplicity
 _atom_site_fract_x
 _atom_site_fract_y
 _atom_site_fract_z
 _atom_site_occupancy
  Li  Li0  1  0.59831300  0.63189400  0.90843000  1
  Li  Li1  1  0.09831300  0.36810600  0.59157000  1
  Li  Li2  1  0.40168700  0.36810600  0.09157000  1
  Li  Li3  1  0.90168700  0.63189400  0.40843000  1
  Ca  Ca0  1  0.87178900  0.97261700  0.74101600  1
  Ca  Ca1  1  0.37178900  0.02738300  0.75898400  1
  Ca  Ca2  1  0.12821100  0.02738300  0.25898400  1
  Ca  Ca3  1  0.62821100  0.97261700  0.24101600  1
  Al  Al0  1  0.63975700  0.37918100  0.57328300  1
  Al  Al1  1  0.13975700  0.62081900  0.92671700  1
  Al  Al2  1  0.36024300  0.62081900  0.42671700  1
  Al  Al3  1  0.86024300  0.37918100  0.07328300  1
  N  N0  1  0.14704800  0.73222900  0.60706300  1
  N  N1  1  0.64704800  0.26777100  0.89293700  1
  N  N2  1  0.85295200  0.26777100  0.39293700  1
  N  N3  1  0.35295200  0.73222900  0.10706300  1
  N  N4  1  0.60662000  0.71198700  0.56497100  1
  N  N5  1  0.10662000  0.28801300  0.93502900  1
  N  N6  1  0.39338000  0.28801300  0.43502900  1
  N  N7  1  0.89338000  0.71198700  0.06497100  1
loop_
_geom_bond_atom_site_label_1
_geom_bond_atom_site_label_2
_geom_bond_distance
_geom_bond_site_symmetry_2
Li0 N4 2.053612 1_555
Li0 N3 2.133065 1_556
Li0 N1 2.137400 1_555
Li0 N7 2.279492 1_556
Li1 N5 2.053612 1_555
Li1 N2 2.133065 1_455
Li1 N0 2.137400 1_555
Li1 N6 2.279492 1_555
Li2 N6 2.053612 1_555
Li2 N1 2.133065 1_554
Li2 N3 2.137400 1_555
Li2 N5 2.279492 1_554
Li3 N7 2.053612 1_555
Li3 N0 2.133065 1_655
Li3 N2 2.137400 1_555
Li3 N4 2.279492 1_555
Ca0 N7 2.416360 1_556
Ca0 N1 2.474542 1_565
Ca0 N0 2.482731 1_655
Ca0 N4 2.586881 1_555
Ca0 N2 2.649891 1_565
Ca0 N5 2.694112 1_665
Ca1 N6 2.416360 1_555
Ca1 N0 2.474542 1_545
Ca1 N1 2.482731 1_555
Ca1 N5 2.586881 1_555
Ca1 N3 2.649891 1_546
Ca1 N4 2.694112 1_545
Ca2 N5 2.416360 1_554
Ca2 N3 2.474542 1_545
Ca2 N2 2.482731 1_455
Ca2 N6 2.586881 1_555
Ca2 N0 2.649891 1_545
Ca2 N7 2.694112 1_445
Ca3 N4 2.416360 1_555
Ca3 N2 2.474542 1_565
Ca3 N3 2.482731 1_555
Ca3 N7 2.586881 1_555
Ca3 N1 2.649891 1_564
Ca3 N6 2.694112 1_565
Al0 N2 1.921211 1_555
Al0 N4 1.940995 1_555
Al0 N6 1.954887 1_555
Al0 N1 1.969484 1_555
Al1 N3 1.921211 1_556
Al1 N5 1.940995 1_555
Al1 N7 1.954887 1_456
Al1 N0 1.969484 1_555
Al2 N0 1.921211 1_555
Al2 N6 1.940995 1_555
Al2 N4 1.954887 1_555
Al2 N3 1.969484 1_555
Al3 N1 1.921211 1_554
Al3 N7 1.940995 1_555
Al3 N5 1.954887 1_654
Al3 N2 1.969484 1_555
