# generated using pymatgen
data_Y3Si3Rh2
_symmetry_space_group_name_H-M   'P 1'
_cell_length_a   5.72421451
_cell_length_b   5.72421451
_cell_length_c   13.74511794
_cell_angle_alpha   90.00000000
_cell_angle_beta   90.00000000
_cell_angle_gamma   137.19181079
_symmetry_Int_Tables_number   1
_chemical_formula_structural   Y3Si3Rh2
_chemical_formula_sum   'Y6 Si6 Rh4'
_cell_volume   306.05483049
_cell_formula_units_Z   2
loop_
 _symmetry_equiv_pos_site_id
 _symmetry_equiv_pos_as_xyz
  1  'x, y, z'
loop_
 _atom_site_type_symbol
 _atom_site_label
 _atom_site_symmetry_multiplicity
 _atom_site_fract_x
 _atom_site_fract_y
 _atom_site_fract_z
 _atom_site_occupancy
  Y  Y0  1  0.91998899  0.08001101  0.38620792  1
  Y  Y1  1  0.08001101  0.91998899  0.61379208  1
  Y  Y2  1  0.91998899  0.08001101  0.11379208  1
  Y  Y3  1  0.08001101  0.91998899  0.88620792  1
  Y  Y4  1  0.64382130  0.35617870  0.25000000  1
  Y  Y5  1  0.35617870  0.64382130  0.75000000  1
  Si  Si0  1  0.61138309  0.38861691  0.46062643  1
  Si  Si1  1  0.38861691  0.61138309  0.53937357  1
  Si  Si2  1  0.61138309  0.38861691  0.03937357  1
  Si  Si3  1  0.38861691  0.61138309  0.96062643  1
  Si  Si4  1  0.33528616  0.66471384  0.25000000  1
  Si  Si5  1  0.66471384  0.33528616  0.75000000  1
  Rh  Rh0  1  0.78601472  0.21398528  0.92016959  1
  Rh  Rh1  1  0.21398528  0.78601472  0.07983041  1
  Rh  Rh2  1  0.78601472  0.21398528  0.57983041  1
  Rh  Rh3  1  0.21398528  0.78601472  0.42016959  1
loop_
_geom_bond_atom_site_label_1
_geom_bond_atom_site_label_2
_geom_bond_distance
_geom_bond_site_symmetry_2
Si0 Si1 2.609495 1_555
Si0 Y4 2.915658 1_555
Si0 Y1 2.984627 1_545
Si0 Y1 2.984627 1_655
Si0 Y0 3.093871 1_565
Si0 Y0 3.093871 1_455
Si1 Y5 2.915658 1_555
Si1 Y0 2.984627 1_455
Si1 Y0 2.984627 1_565
Si1 Y1 3.093871 1_545
Si1 Y1 3.093871 1_655
Si2 Si3 2.609495 1_554
Si2 Y4 2.915658 1_555
Si2 Y3 2.984627 1_544
Si2 Y3 2.984627 1_654
Si2 Y2 3.093871 1_455
Si2 Y2 3.093871 1_565
Si3 Y5 2.915658 1_555
Si3 Y2 2.984627 1_566
Si3 Y2 2.984627 1_456
Si3 Y3 3.093871 1_545
Si3 Y3 3.093871 1_655
Si4 Y4 2.920412 1_565
Si4 Y4 2.920412 1_455
Si4 Y2 2.946896 1_455
Si4 Y0 2.946896 1_455
Si4 Y0 2.946896 1_565
Si4 Y2 2.946896 1_565
Si4 Y4 3.288623 1_555
Si5 Y5 2.920412 1_655
Si5 Y5 2.920412 1_545
Si5 Y3 2.946896 1_545
Si5 Y3 2.946896 1_655
Si5 Y1 2.946896 1_545
Si5 Y1 2.946896 1_655
Si5 Y5 3.288623 1_555
Rh0 Si3 2.422645 1_545
Rh0 Si3 2.422645 1_655
Rh0 Si2 2.479775 1_556
Rh0 Si5 2.672561 1_555
Rh0 Y2 3.020276 1_556
Rh0 Y3 3.066471 1_545
Rh0 Y3 3.066471 1_655
Rh0 Y3 3.168234 1_645
Rh0 Y5 3.224005 1_655
Rh0 Y5 3.224005 1_545
Rh1 Si2 2.422645 1_565
Rh1 Si2 2.422645 1_455
Rh1 Si3 2.479775 1_554
Rh1 Si4 2.672561 1_555
Rh1 Y3 3.020276 1_554
Rh1 Y2 3.066471 1_455
Rh1 Y2 3.066471 1_565
Rh1 Y2 3.168234 1_465
Rh1 Y4 3.224005 1_565
Rh1 Y4 3.224005 1_455
Rh2 Si1 2.422645 1_545
Rh2 Si1 2.422645 1_655
Rh2 Si0 2.479775 1_555
Rh2 Si5 2.672561 1_555
Rh2 Y0 3.020276 1_555
Rh2 Y1 3.066471 1_545
Rh2 Y1 3.066471 1_655
Rh2 Y1 3.168234 1_645
Rh2 Y5 3.224005 1_655
Rh2 Y5 3.224005 1_545
Rh3 Si0 2.422645 1_455
Rh3 Si0 2.422645 1_565
Rh3 Si1 2.479775 1_555
Rh3 Si4 2.672561 1_555
Rh3 Y1 3.020276 1_555
Rh3 Y0 3.066471 1_455
Rh3 Y0 3.066471 1_565
Rh3 Y0 3.168234 1_465
Rh3 Y4 3.224005 1_565
Rh3 Y4 3.224005 1_455
