# generated using pymatgen
data_ZnCr2O4
_symmetry_space_group_name_H-M   'P 1'
_cell_length_a   5.05326685
_cell_length_b   5.05326685
_cell_length_c   9.94085400
_cell_angle_alpha   90.00000000
_cell_angle_beta   90.00000000
_cell_angle_gamma   146.22369376
_symmetry_Int_Tables_number   1
_chemical_formula_structural   ZnCr2O4
_chemical_formula_sum   'Zn2 Cr4 O8'
_cell_volume   141.12546985
_cell_formula_units_Z   2
loop_
 _symmetry_equiv_pos_site_id
 _symmetry_equiv_pos_as_xyz
  1  'x, y, z'
loop_
 _atom_site_type_symbol
 _atom_site_label
 _atom_site_symmetry_multiplicity
 _atom_site_fract_x
 _atom_site_fract_y
 _atom_site_fract_z
 _atom_site_occupancy
  Zn  Zn0  1  0.60802700  0.39197300  0.75000000  1
  Zn  Zn1  1  0.39197300  0.60802700  0.25000000  1
  Cr  Cr0  1  0.13289300  0.86710700  0.07070100  1
  Cr  Cr1  1  0.86710700  0.13289300  0.92929900  1
  Cr  Cr2  1  0.13289300  0.86710700  0.42929900  1
  Cr  Cr3  1  0.86710700  0.13289300  0.57070100  1
  O  O0  1  0.76867500  0.23132500  0.38894300  1
  O  O1  1  0.23132500  0.76867500  0.61105700  1
  O  O2  1  0.23132500  0.76867500  0.88894300  1
  O  O3  1  0.76867500  0.23132500  0.11105700  1
  O  O4  1  0.03720100  0.96279900  0.25000000  1
  O  O5  1  0.96279900  0.03720100  0.75000000  1
  O  O6  1  0.50000000  0.50000000  0.00000000  1
  O  O7  1  0.50000000  0.50000000  0.50000000  1
loop_
_geom_bond_atom_site_label_1
_geom_bond_atom_site_label_2
_geom_bond_distance
_geom_bond_site_symmetry_2
Cr0 O4 2.008301 1_555
Cr0 O3 2.010023 1_565
Cr0 O3 2.010023 1_455
Cr0 O2 2.042243 1_554
Cr0 O6 2.073796 1_565
Cr0 O6 2.073796 1_455
Cr1 O5 2.008301 1_555
Cr1 O2 2.010023 1_545
Cr1 O2 2.010023 1_655
Cr1 O3 2.042243 1_556
Cr1 O6 2.073796 1_546
Cr1 O6 2.073796 1_656
Cr2 O4 2.008301 1_555
Cr2 O0 2.010023 1_565
Cr2 O0 2.010023 1_455
Cr2 O1 2.042243 1_555
Cr2 O7 2.073796 1_565
Cr2 O7 2.073796 1_455
Cr3 O5 2.008301 1_555
Cr3 O1 2.010023 1_655
Cr3 O1 2.010023 1_545
Cr3 O0 2.042243 1_555
Cr3 O7 2.073796 1_655
Cr3 O7 2.073796 1_545
O0 Zn1 2.341905 1_545
O0 Zn1 2.341905 1_655
O1 Zn0 2.341905 1_455
O1 Zn0 2.341905 1_565
O2 Zn0 2.341905 1_455
O2 Zn0 2.341905 1_565
O3 Zn1 2.341905 1_545
O3 Zn1 2.341905 1_655
O4 Zn1 2.031625 1_565
O4 Zn1 2.031625 1_455
O5 Zn0 2.031625 1_655
O5 Zn0 2.031625 1_545
