# generated using pymatgen
data_CaBe3Co2(SiO4)3
_symmetry_space_group_name_H-M   'P 1'
_cell_length_a   7.54611300
_cell_length_b   8.10961200
_cell_length_c   16.19501275
_cell_angle_alpha   59.95974621
_cell_angle_beta   90.00000000
_cell_angle_gamma   90.00000000
_symmetry_Int_Tables_number   1
_chemical_formula_structural   CaBe3Co2(SiO4)3
_chemical_formula_sum   'Ca4 Be12 Co8 Si12 O48'
_cell_volume   857.94412209
_cell_formula_units_Z   4
loop_
 _symmetry_equiv_pos_site_id
 _symmetry_equiv_pos_as_xyz
  1  'x, y, z'
loop_
 _atom_site_type_symbol
 _atom_site_label
 _atom_site_symmetry_multiplicity
 _atom_site_fract_x
 _atom_site_fract_y
 _atom_site_fract_z
 _atom_site_occupancy
  Ca  Ca0  1  0.00248000  0.00055000  0.25185700  1
  Ca  Ca1  1  0.50248000  0.99945000  0.24814300  1
  Ca  Ca2  1  0.99752000  0.99945000  0.74814300  1
  Ca  Ca3  1  0.49752000  0.00055000  0.75185700  1
  Be  Be0  1  0.65840800  0.65347100  0.76640300  1
  Be  Be1  1  0.83778600  0.03101500  0.40834200  1
  Be  Be2  1  0.33778600  0.96898500  0.09165800  1
  Be  Be3  1  0.16221400  0.96898500  0.59165800  1
  Be  Be4  1  0.66221400  0.03101500  0.90834200  1
  Be  Be5  1  0.34149500  0.68497900  0.42201800  1
  Be  Be6  1  0.84149500  0.31502100  0.07798200  1
  Be  Be7  1  0.65850500  0.31502100  0.57798200  1
  Be  Be8  1  0.15850500  0.68497900  0.92201800  1
  Be  Be9  1  0.84159200  0.65347100  0.26640300  1
  Be  Be10  1  0.34159200  0.34652900  0.23359700  1
  Be  Be11  1  0.15840800  0.34652900  0.73359700  1
  Co  Co0  1  0.03750500  0.66095200  0.09105300  1
  Co  Co1  1  0.46249500  0.66095200  0.59105300  1
  Co  Co2  1  0.96249500  0.33904800  0.90894700  1
  Co  Co3  1  0.53750500  0.33904800  0.40894700  1
  Co  Co4  1  0.95465400  0.32910400  0.42682900  1
  Co  Co5  1  0.45465400  0.67089600  0.07317100  1
  Co  Co6  1  0.04534600  0.67089600  0.57317100  1
  Co  Co7  1  0.54534600  0.32910400  0.92682900  1
  Si  Si0  1  0.27119400  0.65224000  0.76686600  1
  Si  Si1  1  0.77119400  0.34776000  0.73313400  1
  Si  Si2  1  0.72880600  0.34776000  0.23313400  1
  Si  Si3  1  0.22880600  0.65224000  0.26686600  1
  Si  Si4  1  0.76675100  0.68507000  0.92584000  1
  Si  Si5  1  0.26675100  0.31493000  0.57416000  1
  Si  Si6  1  0.23324900  0.31493000  0.07416000  1
  Si  Si7  1  0.73324900  0.68507000  0.42584000  1
  Si  Si8  1  0.26484100  0.03934700  0.90716900  1
  Si  Si9  1  0.76484100  0.96065300  0.59283100  1
  Si  Si10  1  0.73515900  0.96065300  0.09283100  1
  Si  Si11  1  0.23515900  0.03934700  0.40716900  1
  O  O0  1  0.37564800  0.20441700  0.04259300  1
  O  O1  1  0.46476300  0.59982400  0.82009200  1
  O  O2  1  0.96476300  0.40017600  0.67990800  1
  O  O3  1  0.53523700  0.40017600  0.17990800  1
  O  O4  1  0.03523700  0.59982400  0.32009200  1
  O  O5  1  0.96453300  0.72777500  0.95350000  1
  O  O6  1  0.46453300  0.27222500  0.54650000  1
  O  O7  1  0.03546700  0.27222500  0.04650000  1
  O  O8  1  0.53546700  0.72777500  0.45350000  1
  O  O9  1  0.46481700  0.13422200  0.88536800  1
  O  O10  1  0.96481700  0.86577800  0.61463200  1
  O  O11  1  0.53518300  0.86577800  0.11463200  1
  O  O12  1  0.37509500  0.21779500  0.35026100  1
  O  O13  1  0.87509500  0.78220500  0.14973900  1
  O  O14  1  0.62490500  0.78220500  0.64973900  1
  O  O15  1  0.12490500  0.21779500  0.85026100  1
  O  O16  1  0.87564800  0.79558300  0.45740700  1
  O  O17  1  0.03518300  0.13422200  0.38536800  1
  O  O18  1  0.12435200  0.20441700  0.54259300  1
  O  O19  1  0.62435200  0.79558300  0.95740700  1
  O  O20  1  0.73187900  0.09491800  0.47617600  1
  O  O21  1  0.87722300  0.41360300  0.14640100  1
  O  O22  1  0.62277700  0.41360300  0.64640100  1
  O  O23  1  0.12277700  0.58639700  0.85359900  1
  O  O24  1  0.75793600  0.11953500  0.80471500  1
  O  O25  1  0.25793600  0.88046500  0.69528500  1
  O  O26  1  0.24206400  0.88046500  0.19528500  1
  O  O27  1  0.74206400  0.11953500  0.30471500  1
  O  O28  1  0.75692000  0.77117800  0.80997600  1
  O  O29  1  0.25692000  0.22882200  0.69002400  1
  O  O30  1  0.24308000  0.22882200  0.19002400  1
  O  O31  1  0.74308000  0.77117800  0.30997600  1
  O  O32  1  0.25130900  0.89445000  0.86371700  1
  O  O33  1  0.75130900  0.10555000  0.63628300  1
  O  O34  1  0.74869100  0.10555000  0.13628300  1
  O  O35  1  0.24869100  0.89445000  0.36371700  1
  O  O36  1  0.75282700  0.44917400  0.80030500  1
  O  O37  1  0.25282700  0.55082600  0.69969500  1
  O  O38  1  0.24717300  0.55082600  0.19969500  1
  O  O39  1  0.74717300  0.44917400  0.30030500  1
  O  O40  1  0.73240900  0.45309900  0.97851200  1
  O  O41  1  0.23240900  0.54690100  0.52148800  1
  O  O42  1  0.26759100  0.54690100  0.02148800  1
  O  O43  1  0.76759100  0.45309900  0.47851200  1
  O  O44  1  0.76812100  0.09491800  0.97617600  1
  O  O45  1  0.26812100  0.90508200  0.52382400  1
  O  O46  1  0.23187900  0.90508200  0.02382400  1
  O  O47  1  0.37722300  0.58639700  0.35359900  1
loop_
_geom_bond_atom_site_label_1
_geom_bond_atom_site_label_2
_geom_bond_distance
_geom_bond_site_symmetry_2
Ca0 O30 2.422823 1_555
Ca0 O35 2.431756 1_545
Ca0 O26 2.439195 1_545
Ca0 O34 2.510054 1_455
Ca0 O27 2.520440 1_455
Ca0 O31 2.534695 1_445
Ca1 O31 2.422823 1_555
Ca1 O34 2.431756 1_565
Ca1 O27 2.439195 1_565
Ca1 O35 2.510054 1_555
Ca1 O26 2.520440 1_555
Ca1 O30 2.534695 1_565
Ca2 O28 2.422823 1_555
Ca2 O33 2.431756 1_565
Ca2 O24 2.439195 1_565
Ca2 O32 2.510054 1_655
Ca2 O25 2.520440 1_655
Ca2 O29 2.534695 1_665
Ca3 O29 2.422823 1_555
Ca3 O32 2.431756 1_545
Ca3 O25 2.439195 1_545
Ca3 O33 2.510054 1_555
Ca3 O24 2.520440 1_555
Ca3 O28 2.534695 1_545
Be0 O28 1.623632 1_555
Be0 O36 1.625804 1_555
Be0 O1 1.643732 1_555
Be0 O14 1.657914 1_555
Be1 O27 1.627073 1_555
Be1 O20 1.638330 1_555
Be1 O17 1.657110 1_655
Be1 O16 1.685038 1_545
Be2 O26 1.627073 1_555
Be2 O46 1.638330 1_555
Be2 O11 1.657110 1_555
Be2 O0 1.685038 1_565
Be3 O25 1.627073 1_555
Be3 O45 1.638330 1_555
Be3 O10 1.657110 1_455
Be3 O18 1.685038 1_565
Be4 O24 1.627073 1_555
Be4 O44 1.638330 1_555
Be4 O9 1.657110 1_555
Be4 O19 1.685038 1_545
Be5 O35 1.631482 1_555
Be5 O8 1.643192 1_555
Be5 O41 1.649394 1_555
Be5 O47 1.681224 1_555
Be6 O34 1.631482 1_555
Be6 O7 1.643192 1_655
Be6 O40 1.649394 1_554
Be6 O21 1.681224 1_555
Be7 O33 1.631482 1_555
Be7 O6 1.643192 1_555
Be7 O43 1.649394 1_555
Be7 O22 1.681224 1_555
Be8 O32 1.631482 1_555
Be8 O5 1.643192 1_455
Be8 O42 1.649394 1_556
Be8 O23 1.681224 1_555
Be9 O31 1.623632 1_555
Be9 O39 1.625804 1_555
Be9 O4 1.643732 1_655
Be9 O13 1.657914 1_555
Be10 O30 1.623632 1_555
Be10 O38 1.625804 1_555
Be10 O3 1.643732 1_555
Be10 O12 1.657914 1_555
Be11 O29 1.623632 1_555
Be11 O37 1.625804 1_555
Be11 O2 1.643732 1_455
Be11 O15 1.657914 1_555
Co0 O13 2.075552 1_455
Co0 O5 2.085845 1_454
Co0 O21 2.118919 1_455
Co0 O38 2.196207 1_555
Co0 O46 2.257934 1_555
Co0 O42 2.486475 1_555
Co1 O14 2.075552 1_555
Co1 O8 2.085845 1_555
Co1 O22 2.118919 1_555
Co1 O37 2.196207 1_555
Co1 O45 2.257934 1_555
Co1 O41 2.486475 1_555
Co2 O15 2.075552 1_655
Co2 O7 2.085845 1_656
Co2 O23 2.118919 1_655
Co2 O36 2.196207 1_555
Co2 O44 2.257934 1_555
Co2 O40 2.486475 1_555
Co3 O12 2.075552 1_555
Co3 O6 2.085845 1_555
Co3 O47 2.118919 1_555
Co3 O39 2.196207 1_555
Co3 O20 2.257934 1_555
Co3 O43 2.486475 1_555
Co4 O18 2.068604 1_655
Co4 O4 2.092397 1_655
Co4 O17 2.092925 1_655
Co4 O43 2.132370 1_555
Co4 O20 2.356252 1_555
Co4 O39 2.366531 1_555
Co5 O19 2.068604 1_554
Co5 O3 2.092397 1_555
Co5 O11 2.092925 1_555
Co5 O42 2.132370 1_555
Co5 O46 2.356252 1_555
Co5 O38 2.366531 1_555
Co6 O16 2.068604 1_455
Co6 O2 2.092397 1_455
Co6 O10 2.092925 1_455
Co6 O41 2.132370 1_555
Co6 O45 2.356252 1_555
Co6 O37 2.366531 1_555
Co7 O0 2.068604 1_556
Co7 O1 2.092397 1_555
Co7 O9 2.092925 1_555
Co7 O40 2.132370 1_555
Co7 O44 2.356252 1_555
Co7 O36 2.366531 1_555
O0 Si6 1.636449 1_555
O1 Si0 1.640272 1_555
O2 Si1 1.640272 1_555
O3 Si2 1.640272 1_555
O4 Si3 1.640272 1_555
O5 Si4 1.644214 1_555
O6 Si5 1.644214 1_555
O7 Si6 1.644214 1_555
O8 Si7 1.644214 1_555
O9 Si8 1.649805 1_555
O10 Si9 1.649805 1_555
O11 Si10 1.649805 1_555
O12 Si11 1.650258 1_555
O13 Si10 1.650258 1_555
O14 Si9 1.650258 1_555
O15 Si8 1.650258 1_555
O16 Si7 1.636449 1_555
O17 Si11 1.649805 1_555
O18 Si5 1.636449 1_555
O19 Si4 1.636449 1_555
O20 Si9 1.660439 1_545
O21 Si2 1.661786 1_555
O22 Si1 1.661786 1_555
O23 Si0 1.661786 1_555
O24 Si1 1.622105 1_555
O25 Si0 1.622105 1_555
O26 Si3 1.622105 1_555
O27 Si2 1.622105 1_555
O28 Si4 1.643830 1_555
O29 Si5 1.643830 1_555
O30 Si6 1.643830 1_555
O31 Si7 1.643830 1_555
O32 Si8 1.647511 1_565
O33 Si9 1.647511 1_545
O34 Si10 1.647511 1_545
O35 Si11 1.647511 1_565
O36 Si1 1.665755 1_555
O37 Si0 1.665755 1_555
O38 Si3 1.665755 1_555
O39 Si2 1.665755 1_555
O40 Si4 1.651377 1_555
O41 Si5 1.651377 1_555
O42 Si6 1.651377 1_555
O43 Si7 1.651377 1_555
O44 Si10 1.660439 1_546
O45 Si11 1.660439 1_565
O46 Si8 1.660439 1_564
O47 Si3 1.661786 1_555
