# generated using pymatgen
data_CsCaMg14
_symmetry_space_group_name_H-M   'P 1'
_cell_length_a   6.65247894
_cell_length_b   6.67680556
_cell_length_c   11.00102304
_cell_angle_alpha   90.00000000
_cell_angle_beta   90.00000000
_cell_angle_gamma   120.12104486
_symmetry_Int_Tables_number   1
_chemical_formula_structural   CsCaMg14
_chemical_formula_sum   'Cs1 Ca1 Mg14'
_cell_volume   422.65394685
_cell_formula_units_Z   1
loop_
 _symmetry_equiv_pos_site_id
 _symmetry_equiv_pos_as_xyz
  1  'x, y, z'
loop_
 _atom_site_type_symbol
 _atom_site_label
 _atom_site_symmetry_multiplicity
 _atom_site_fract_x
 _atom_site_fract_y
 _atom_site_fract_z
 _atom_site_occupancy
  Cs  Cs0  1  0.16200773  0.83100337  0.12500000  1
  Ca  Ca0  1  0.17919199  0.33959550  0.12500000  1
  Mg  Mg0  1  0.15771766  0.32885833  0.62500000  1
  Mg  Mg1  1  0.16305254  0.83152577  0.62500000  1
  Mg  Mg2  1  0.66597684  0.33073553  0.12500000  1
  Mg  Mg3  1  0.67155820  0.33343694  0.62500000  1
  Mg  Mg4  1  0.66597684  0.83524031  0.12500000  1
  Mg  Mg5  1  0.67155820  0.83812026  0.62500000  1
  Mg  Mg6  1  0.34271107  0.17736127  0.40026898  1
  Mg  Mg7  1  0.34271107  0.17736127  0.84973102  1
  Mg  Mg8  1  0.34271107  0.66535079  0.40026898  1
  Mg  Mg9  1  0.34271107  0.66535079  0.84973102  1
  Mg  Mg10  1  0.82882571  0.16441336  0.37760133  1
  Mg  Mg11  1  0.82882571  0.16441336  0.87239867  1
  Mg  Mg12  1  0.81723216  0.65861658  0.39404424  1
  Mg  Mg13  1  0.81723216  0.65861658  0.85595576  1
loop_
_geom_bond_atom_site_label_1
_geom_bond_atom_site_label_2
_geom_bond_distance
_geom_bond_site_symmetry_2
Cs0 Mg2 3.314121 1_455
Cs0 Mg4 3.314122 1_455
Cs0 Mg2 3.338537 1_565
Cs0 Mg4 3.338537 1_555
Cs0 Mg12 3.563151 1_455
Cs0 Mg13 3.563151 1_454
Cs0 Mg8 3.629476 1_555
Cs0 Mg9 3.629476 1_554
Cs0 Mg7 3.629482 1_564
Cs0 Mg6 3.629482 1_565
Ca0 Mg4 3.268413 1_555
Ca0 Mg2 3.268413 1_555
Ca0 Cs0 3.339867 1_545
Ca0 Cs0 3.339867 1_555
Ca0 Mg4 3.384853 1_445
Ca0 Mg2 3.384853 1_455
Ca0 Mg10 3.433172 1_455
Ca0 Mg11 3.433172 1_454
Ca0 Mg6 3.565043 1_555
Ca0 Mg7 3.565043 1_554
Ca0 Mg9 3.565049 1_554
Ca0 Mg8 3.565049 1_555
Mg0 Mg6 3.146302 1_555
Mg0 Mg7 3.146302 1_555
Mg0 Mg9 3.146309 1_555
Mg0 Mg8 3.146309 1_555
Mg0 Mg5 3.249614 1_445
Mg0 Mg3 3.249614 1_455
Mg0 Mg10 3.314948 1_455
Mg0 Mg11 3.314948 1_455
Mg0 Mg1 3.338544 1_555
Mg0 Mg1 3.338544 1_545
Mg0 Mg5 3.403075 1_555
Mg0 Mg3 3.403075 1_555
Mg1 Mg9 3.178445 1_555
Mg1 Mg8 3.178445 1_555
Mg1 Mg7 3.178452 1_565
Mg1 Mg6 3.178452 1_565
Mg1 Mg13 3.227252 1_455
Mg1 Mg12 3.227252 1_455
Mg1 Mg3 3.291971 1_455
Mg1 Mg5 3.291972 1_455
Mg1 Mg3 3.360943 1_565
Mg1 Mg5 3.360943 1_555
Mg2 Mg6 3.554343 1_555
Mg2 Mg7 3.554343 1_554
Mg3 Mg7 3.113811 1_555
Mg3 Mg6 3.113811 1_555
Mg3 Mg5 3.307133 1_545
Mg3 Mg5 3.369672 1_555
Mg4 Mg8 3.554343 1_555
Mg4 Mg9 3.554343 1_554
Mg5 Mg8 3.113811 1_555
Mg5 Mg9 3.113811 1_555
Mg6 Mg8 3.258211 1_555
Mg6 Mg8 3.418594 1_545
Mg7 Mg9 3.258211 1_555
Mg7 Mg9 3.418594 1_545
Mg10 Mg8 3.287575 1_545
Mg10 Mg6 3.287575 1_555
Mg10 Mg3 3.310665 1_555
Mg10 Mg5 3.310671 1_545
Mg10 Mg12 3.343965 1_555
Mg10 Mg12 3.343965 1_545
Mg10 Mg2 3.366965 1_555
Mg10 Mg4 3.366971 1_545
Mg10 Mg8 3.385253 1_655
Mg10 Mg6 3.385253 1_655
Mg11 Mg9 3.287575 1_545
Mg11 Mg7 3.287575 1_555
Mg11 Mg3 3.310665 1_555
Mg11 Mg5 3.310671 1_545
Mg11 Mg13 3.343965 1_555
Mg11 Mg13 3.343965 1_545
Mg11 Mg2 3.366965 1_556
Mg11 Mg4 3.366971 1_546
Mg11 Mg9 3.385253 1_655
Mg11 Mg7 3.385253 1_655
Mg12 Mg5 3.161755 1_555
Mg12 Mg3 3.161762 1_555
Mg12 Mg6 3.180280 1_555
Mg12 Mg8 3.180280 1_555
Mg12 Mg6 3.474066 1_665
Mg12 Mg8 3.474066 1_655
Mg12 Mg4 3.514874 1_555
Mg12 Mg2 3.514881 1_555
Mg13 Mg5 3.161755 1_555
Mg13 Mg3 3.161762 1_555
Mg13 Mg7 3.180280 1_555
Mg13 Mg9 3.180280 1_555
Mg13 Mg7 3.474066 1_665
Mg13 Mg9 3.474066 1_655
Mg13 Mg4 3.514874 1_556
Mg13 Mg2 3.514881 1_556
