# generated using pymatgen
data_Eu3Y
_symmetry_space_group_name_H-M   'P 1'
_cell_length_a   7.73108747
_cell_length_b   7.73108747
_cell_length_c   6.25539100
_cell_angle_alpha   90.00000000
_cell_angle_beta   90.00000000
_cell_angle_gamma   119.99999550
_symmetry_Int_Tables_number   1
_chemical_formula_structural   Eu3Y
_chemical_formula_sum   'Eu6 Y2'
_cell_volume   323.79212848
_cell_formula_units_Z   2
loop_
 _symmetry_equiv_pos_site_id
 _symmetry_equiv_pos_as_xyz
  1  'x, y, z'
loop_
 _atom_site_type_symbol
 _atom_site_label
 _atom_site_symmetry_multiplicity
 _atom_site_fract_x
 _atom_site_fract_y
 _atom_site_fract_z
 _atom_site_occupancy
  Eu  Eu0  1  0.16955100  0.33910300  0.25000000  1
  Eu  Eu1  1  0.66089700  0.83044900  0.25000000  1
  Eu  Eu2  1  0.16955100  0.83044900  0.25000000  1
  Eu  Eu3  1  0.83044900  0.66089700  0.75000000  1
  Eu  Eu4  1  0.33910300  0.16955100  0.75000000  1
  Eu  Eu5  1  0.83044900  0.16955100  0.75000000  1
  Y  Y0  1  0.33333300  0.66666700  0.75000000  1
  Y  Y1  1  0.66666700  0.33333300  0.25000000  1
loop_
_geom_bond_atom_site_label_1
_geom_bond_atom_site_label_2
_geom_bond_distance
_geom_bond_site_symmetry_2
Eu0 Eu2 3.798639 1_555
Eu0 Eu1 3.798639 1_555
Eu0 Y0 3.819995 1_555
Eu0 Y0 3.819995 1_554
Eu0 Eu5 3.864864 1_455
Eu0 Eu5 3.864864 1_454
Eu0 Eu4 3.864872 1_554
Eu0 Eu4 3.864872 1_555
Eu0 Y1 3.865729 1_455
Eu0 Y1 3.865745 1_555
Eu0 Eu2 3.932449 1_545
Eu0 Eu1 3.932449 1_445
Eu1 Eu2 3.798639 1_555
Eu1 Y0 3.819995 1_555
Eu1 Y0 3.819995 1_554
Eu1 Eu5 3.864864 1_564
Eu1 Eu5 3.864864 1_565
Eu1 Eu3 3.864872 1_555
Eu1 Eu3 3.864872 1_554
Eu1 Y1 3.865729 1_565
Eu1 Y1 3.865745 1_555
Eu1 Eu2 3.932449 1_655
Eu2 Y0 3.819995 1_555
Eu2 Y0 3.819995 1_554
Eu2 Eu4 3.864864 1_565
Eu2 Eu4 3.864864 1_564
Eu2 Eu3 3.864864 1_455
Eu2 Eu3 3.864864 1_454
Eu2 Y1 3.865737 1_455
Eu2 Y1 3.865737 1_565
Eu3 Eu5 3.798639 1_555
Eu3 Eu4 3.798639 1_555
Eu3 Y1 3.819995 1_555
Eu3 Y1 3.819995 1_556
Eu3 Y0 3.865729 1_655
Eu3 Y0 3.865745 1_555
Eu3 Eu5 3.932449 1_565
Eu3 Eu4 3.932449 1_665
Eu4 Eu5 3.798639 1_555
Eu4 Y1 3.819995 1_555
Eu4 Y1 3.819995 1_556
Eu4 Y0 3.865729 1_545
Eu4 Y0 3.865745 1_555
Eu4 Eu5 3.932449 1_455
Eu5 Y1 3.819995 1_556
Eu5 Y1 3.819995 1_555
Eu5 Y0 3.865737 1_545
Eu5 Y0 3.865737 1_655
