# generated using pymatgen
data_Dy2ScNbO7
_symmetry_space_group_name_H-M   'P 1'
_cell_length_a   7.36975784
_cell_length_b   7.36975784
_cell_length_c   7.36975784
_cell_angle_alpha   120.74959935
_cell_angle_beta   119.26411842
_cell_angle_gamma   89.99293557
_symmetry_Int_Tables_number   1
_chemical_formula_structural   Dy2ScNbO7
_chemical_formula_sum   'Dy4 Sc2 Nb2 O14'
_cell_volume   282.94913557
_cell_formula_units_Z   2
loop_
 _symmetry_equiv_pos_site_id
 _symmetry_equiv_pos_as_xyz
  1  'x, y, z'
loop_
 _atom_site_type_symbol
 _atom_site_label
 _atom_site_symmetry_multiplicity
 _atom_site_fract_x
 _atom_site_fract_y
 _atom_site_fract_z
 _atom_site_occupancy
  Dy  Dy0  1  0.50000000  0.50000000  0.50000000  1
  Dy  Dy1  1  0.50000000  0.00000000  0.00000000  1
  Dy  Dy2  1  0.50000000  0.50000000  0.00000000  1
  Dy  Dy3  1  0.00000000  0.50000000  0.50000000  1
  Sc  Sc0  1  0.00000000  0.00000000  0.50000000  1
  Sc  Sc1  1  0.00000000  0.50000000  0.00000000  1
  Nb  Nb0  1  0.00000000  0.00000000  0.00000000  1
  Nb  Nb1  1  0.50000000  0.00000000  0.50000000  1
  O  O0  1  0.37882900  0.62882900  0.75000000  1
  O  O1  1  0.62117100  0.37117100  0.25000000  1
  O  O2  1  0.32413300  0.07413300  0.25000000  1
  O  O3  1  0.89996700  0.64996700  0.25000000  1
  O  O4  1  0.34455500  0.67024800  0.26578800  1
  O  O5  1  0.90446000  0.07876700  0.23421200  1
  O  O6  1  0.34455500  0.07876700  0.67430700  1
  O  O7  1  0.90446000  0.67024800  0.82569300  1
  O  O8  1  0.67586700  0.92586700  0.75000000  1
  O  O9  1  0.10003300  0.35003300  0.75000000  1
  O  O10  1  0.65544500  0.32975200  0.73421200  1
  O  O11  1  0.09554000  0.92123300  0.76578800  1
  O  O12  1  0.65544500  0.92123300  0.32569300  1
  O  O13  1  0.09554000  0.32975200  0.17430700  1
loop_
_geom_bond_atom_site_label_1
_geom_bond_atom_site_label_2
_geom_bond_distance
_geom_bond_site_symmetry_2
Dy0 O1 2.216540 1_555
Dy0 O0 2.216540 1_555
Dy0 O10 2.479311 1_555
Dy0 O13 2.479311 1_555
Dy0 O7 2.479311 1_555
Dy0 O4 2.479311 1_555
Dy0 O8 2.584203 1_555
Dy0 O2 2.584203 1_555
Dy1 O1 2.216540 1_555
Dy1 O0 2.216540 1_544
Dy1 O6 2.479311 1_554
Dy1 O11 2.479311 1_544
Dy1 O12 2.479311 1_545
Dy1 O5 2.479311 1_555
Dy1 O8 2.584203 1_544
Dy1 O2 2.584203 1_555
Dy2 O0 2.296403 1_554
Dy2 O1 2.296403 1_555
Dy2 O3 2.431810 1_555
Dy2 O9 2.431810 1_554
Dy2 O10 2.530585 1_554
Dy2 O4 2.530585 1_555
Dy2 O12 2.530585 1_555
Dy2 O6 2.530585 1_554
Dy3 O0 2.296403 1_555
Dy3 O1 2.296403 1_455
Dy3 O3 2.431810 1_455
Dy3 O9 2.431810 1_555
Dy3 O11 2.530585 1_555
Dy3 O7 2.530585 1_455
Dy3 O13 2.530585 1_555
Dy3 O5 2.530585 1_455
Nb0 O5 1.993896 1_455
Nb0 O13 1.993896 1_555
Nb0 O7 1.993896 1_444
Nb0 O11 1.993896 1_544
Nb0 O8 2.016787 1_444
Nb0 O2 2.016787 1_555
Nb1 O12 1.993896 1_545
Nb1 O10 1.993896 1_555
Nb1 O4 1.993896 1_545
Nb1 O6 1.993896 1_555
Nb1 O2 2.016787 1_555
Nb1 O8 2.016787 1_545
O3 Sc1 2.098826 1_655
O3 Sc0 2.098826 1_665
O4 Sc1 2.117508 1_555
O5 Sc0 2.117508 1_655
O6 Sc0 2.117508 1_555
O7 Sc1 2.117508 1_656
O9 Sc0 2.098826 1_555
O9 Sc1 2.098826 1_556
O10 Sc1 2.117508 1_656
O11 Sc0 2.117508 1_565
O12 Sc0 2.117508 1_665
O13 Sc1 2.117508 1_555
