# generated using pymatgen
data_K2H3OsN2O7
_symmetry_space_group_name_H-M   'P 1'
_cell_length_a   16.47807900
_cell_length_b   7.18451100
_cell_length_c   9.26165478
_cell_angle_alpha   75.28267646
_cell_angle_beta   90.00000000
_cell_angle_gamma   90.00000000
_symmetry_Int_Tables_number   1
_chemical_formula_structural   K2H3OsN2O7
_chemical_formula_sum   'K8 H12 Os4 N8 O28'
_cell_volume   1060.48522739
_cell_formula_units_Z   4
loop_
 _symmetry_equiv_pos_site_id
 _symmetry_equiv_pos_as_xyz
  1  'x, y, z'
loop_
 _atom_site_type_symbol
 _atom_site_label
 _atom_site_symmetry_multiplicity
 _atom_site_fract_x
 _atom_site_fract_y
 _atom_site_fract_z
 _atom_site_occupancy
  K  K0  1  0.35183200  0.89052700  0.29589600  1
  K  K1  1  0.64816800  0.10947300  0.70410400  1
  K  K2  1  0.85183200  0.60947300  0.70410400  1
  K  K3  1  0.14816800  0.39052700  0.29589600  1
  K  K4  1  0.57490900  0.87568800  0.33100800  1
  K  K5  1  0.42509100  0.12431200  0.66899200  1
  K  K6  1  0.07490900  0.62431200  0.66899200  1
  K  K7  1  0.92509100  0.37568800  0.33100800  1
  H  H0  1  0.85164900  0.63883100  0.03117300  1
  H  H1  1  0.14835100  0.36116900  0.96882700  1
  H  H2  1  0.35164900  0.86116900  0.96882700  1
  H  H3  1  0.64835100  0.13883100  0.03117300  1
  H  H4  1  0.76784900  0.57677800  0.39460700  1
  H  H5  1  0.23215100  0.42322200  0.60539300  1
  H  H6  1  0.26784900  0.92322200  0.60539300  1
  H  H7  1  0.73215100  0.07677800  0.39460700  1
  H  H8  1  0.68522400  0.71662900  0.09596000  1
  H  H9  1  0.31477600  0.28337100  0.90404000  1
  H  H10  1  0.18522400  0.78337100  0.90404000  1
  H  H11  1  0.81477600  0.21662900  0.09596000  1
  Os  Os0  1  0.47652200  0.44056200  0.16455900  1
  Os  Os1  1  0.52347800  0.55943800  0.83544100  1
  Os  Os2  1  0.97652200  0.05943800  0.83544100  1
  Os  Os3  1  0.02347800  0.94056200  0.16455900  1
  N  N0  1  0.64096900  0.59812400  0.71627200  1
  N  N1  1  0.35903100  0.40187600  0.28372800  1
  N  N2  1  0.14096900  0.90187600  0.28372800  1
  N  N3  1  0.85903100  0.09812400  0.71627200  1
  N  N4  1  0.95402100  0.85947100  0.37121200  1
  N  N5  1  0.04597900  0.14052900  0.62878800  1
  N  N6  1  0.45402100  0.64052900  0.62878800  1
  N  N7  1  0.54597900  0.35947100  0.37121200  1
  O  O0  1  0.92659700  0.98361400  0.03559100  1
  O  O1  1  0.07340300  0.01638600  0.96440900  1
  O  O2  1  0.42659700  0.51638600  0.96440900  1
  O  O3  1  0.57340300  0.48361400  0.03559100  1
  O  O4  1  0.80855400  0.96244900  0.74827500  1
  O  O5  1  0.19144600  0.03755100  0.25172500  1
  O  O6  1  0.30855400  0.53755100  0.25172500  1
  O  O7  1  0.69144600  0.46244900  0.74827500  1
  O  O8  1  0.91035100  0.98080900  0.40990000  1
  O  O9  1  0.08964900  0.01919100  0.59010000  1
  O  O10  1  0.41035100  0.51919100  0.59010000  1
  O  O11  1  0.58964900  0.48080900  0.40990000  1
  O  O12  1  0.66199900  0.75322600  0.62648200  1
  O  O13  1  0.33800100  0.24677400  0.37351800  1
  O  O14  1  0.16199900  0.74677400  0.37351800  1
  O  O15  1  0.83800100  0.25322600  0.62648200  1
  O  O16  1  0.47234300  0.66968000  0.20412900  1
  O  O17  1  0.52765700  0.33032000  0.79587100  1
  O  O18  1  0.97234300  0.83032000  0.79587100  1
  O  O19  1  0.02765700  0.16968000  0.20412900  1
  O  O20  1  0.95112300  0.68628800  0.44898000  1
  O  O21  1  0.04887700  0.31371200  0.55102000  1
  O  O22  1  0.45112300  0.81371200  0.55102000  1
  O  O23  1  0.54887700  0.18628800  0.44898000  1
  O  O24  1  0.53053900  0.81160800  0.80765900  1
  O  O25  1  0.46946100  0.18839200  0.19234100  1
  O  O26  1  0.03053900  0.68839200  0.19234100  1
  O  O27  1  0.96946100  0.31160800  0.80765900  1
loop_
_geom_bond_atom_site_label_1
_geom_bond_atom_site_label_2
_geom_bond_distance
_geom_bond_site_symmetry_2
K0 O6 2.762996 1_555
K0 O16 2.805077 1_555
K0 O22 2.811060 1_555
K0 O5 2.836940 1_565
K0 O13 2.838049 1_565
K0 O25 2.865949 1_565
K1 O7 2.762996 1_555
K1 O17 2.805077 1_555
K1 O23 2.811060 1_555
K1 O4 2.836940 1_545
K1 O12 2.838049 1_545
K1 O24 2.865949 1_545
K2 O4 2.762996 1_555
K2 O18 2.805077 1_555
K2 O20 2.811060 1_555
K2 O7 2.836940 1_555
K2 O15 2.838049 1_555
K2 O27 2.865949 1_555
K3 O5 2.762996 1_555
K3 O19 2.805077 1_555
K3 O21 2.811060 1_555
K3 O6 2.836940 1_555
K3 O14 2.838049 1_555
K3 O26 2.865949 1_555
K4 O16 2.703996 1_555
K4 O11 2.754680 1_555
K4 O23 2.756137 1_565
K4 O22 2.837249 1_555
K4 O25 2.872259 1_565
K4 O12 3.016461 1_555
K5 O17 2.703996 1_555
K5 O10 2.754680 1_555
K5 O22 2.756137 1_545
K5 O23 2.837249 1_555
K5 O24 2.872259 1_545
K5 O13 3.016461 1_555
K6 O18 2.703996 1_455
K6 O9 2.754680 1_565
K6 O21 2.756137 1_555
K6 O20 2.837249 1_455
K6 O27 2.872259 1_455
K6 O14 3.016461 1_555
K7 O19 2.703996 1_655
K7 O8 2.754680 1_545
K7 O20 2.756137 1_555
K7 O21 2.837249 1_655
K7 O26 2.872259 1_655
K7 O15 3.016461 1_555
N0 O12 1.257990 1_555
N0 O7 1.258189 1_555
N0 Os1 2.210823 1_555
N1 O13 1.257990 1_555
N1 O6 1.258189 1_555
N1 Os0 2.210823 1_555
N2 O14 1.257990 1_555
N2 O5 1.258189 1_565
N2 Os3 2.210823 1_555
N3 O15 1.257990 1_555
N3 O4 1.258189 1_545
N3 Os2 2.210823 1_555
N4 O8 1.250951 1_555
N4 O20 1.270366 1_555
N4 Os3 2.178526 1_655
N5 O9 1.250951 1_555
N5 O21 1.270366 1_555
N5 Os2 2.178526 1_455
N6 O10 1.250951 1_555
N6 O22 1.270366 1_555
N6 Os1 2.178526 1_555
N7 O11 1.250951 1_555
N7 O23 1.270366 1_555
N7 Os0 2.178526 1_555
O0 Os3 1.970587 1_655
O0 Os2 1.974013 1_564
O1 Os2 1.970587 1_455
O1 Os3 1.974013 1_546
O2 Os1 1.970587 1_555
O2 Os0 1.974013 1_556
O3 Os0 1.970587 1_555
O3 Os1 1.974013 1_554
O16 Os0 1.776294 1_555
O17 Os1 1.776294 1_555
O18 Os2 1.776294 1_565
O19 Os3 1.776294 1_545
O24 Os1 1.767825 1_555
O25 Os0 1.767825 1_555
O26 Os3 1.767825 1_555
O27 Os2 1.767825 1_555
