# generated using pymatgen
data_ZrCu2(O3F2)4
_symmetry_space_group_name_H-M   'P 1'
_cell_length_a   8.59748037
_cell_length_b   8.59748037
_cell_length_c   12.16821753
_cell_angle_alpha   70.26875427
_cell_angle_beta   70.26875427
_cell_angle_gamma   54.79439108
_symmetry_Int_Tables_number   1
_chemical_formula_structural   ZrCu2(O3F2)4
_chemical_formula_sum   'Zr2 Cu4 O24 F16'
_cell_volume   679.71018709
_cell_formula_units_Z   2
loop_
 _symmetry_equiv_pos_site_id
 _symmetry_equiv_pos_as_xyz
  1  'x, y, z'
loop_
 _atom_site_type_symbol
 _atom_site_label
 _atom_site_symmetry_multiplicity
 _atom_site_fract_x
 _atom_site_fract_y
 _atom_site_fract_z
 _atom_site_occupancy
  Zr  Zr0  1  0.26578000  0.73422000  0.25000000  1
  Zr  Zr1  1  0.73422000  0.26578000  0.75000000  1
  Cu  Cu0  1  0.95486600  0.26858900  0.23824000  1
  Cu  Cu1  1  0.73141100  0.04513400  0.26176000  1
  Cu  Cu2  1  0.04513400  0.73141100  0.76176000  1
  Cu  Cu3  1  0.26858900  0.95486600  0.73824000  1
  O  O0  1  0.15522100  0.27866800  0.11712800  1
  O  O1  1  0.72133200  0.84477900  0.38287200  1
  O  O2  1  0.84477900  0.72133200  0.88287200  1
  O  O3  1  0.27866800  0.15522100  0.61712800  1
  O  O4  1  0.72065200  0.36060400  0.35553600  1
  O  O5  1  0.63939600  0.27934800  0.14446400  1
  O  O6  1  0.27934800  0.63939600  0.64446400  1
  O  O7  1  0.36060500  0.72065200  0.85553600  1
  O  O8  1  0.85500400  0.73596100  0.12795400  1
  O  O9  1  0.26403900  0.14499600  0.37204600  1
  O  O10  1  0.14499600  0.26403900  0.87204600  1
  O  O11  1  0.73596100  0.85500400  0.62795400  1
  O  O12  1  0.66681700  0.24827400  0.44032000  1
  O  O13  1  0.75172600  0.33318300  0.05968000  1
  O  O14  1  0.33318300  0.75172600  0.55968000  1
  O  O15  1  0.24827400  0.66681700  0.94032000  1
  O  O16  1  0.10009800  0.27933400  0.35985900  1
  O  O17  1  0.72066600  0.89990200  0.14014100  1
  O  O18  1  0.89990200  0.72066600  0.64014100  1
  O  O19  1  0.27933400  0.10009800  0.85985900  1
  O  O20  1  0.83775100  0.39535900  0.09198100  1
  O  O21  1  0.60464100  0.16224900  0.40801900  1
  O  O22  1  0.16224900  0.60464100  0.90801900  1
  O  O23  1  0.39535900  0.83775100  0.59198100  1
  F  F0  1  0.00317400  0.93164900  0.17120000  1
  F  F1  1  0.06835100  0.99682600  0.32880000  1
  F  F2  1  0.99682600  0.06835100  0.82880000  1
  F  F3  1  0.93164900  0.00317400  0.67120000  1
  F  F4  1  0.27504900  0.56616000  0.40982300  1
  F  F5  1  0.43384000  0.72495100  0.09017700  1
  F  F6  1  0.72495100  0.43384000  0.59017700  1
  F  F7  1  0.56616000  0.27504900  0.90982300  1
  F  F8  1  0.90079200  0.66857900  0.37081500  1
  F  F9  1  0.33142100  0.09920800  0.12918500  1
  F  F10  1  0.09920800  0.33142100  0.62918500  1
  F  F11  1  0.66857900  0.90079200  0.87081500  1
  F  F12  1  0.25651200  0.52963000  0.21137700  1
  F  F13  1  0.47037000  0.74348800  0.28862300  1
  F  F14  1  0.74348800  0.47037000  0.78862300  1
  F  F15  1  0.52963000  0.25651200  0.71137700  1
loop_
_geom_bond_atom_site_label_1
_geom_bond_atom_site_label_2
_geom_bond_distance
_geom_bond_site_symmetry_2
Cu0 O0 1.875721 1_655
Cu0 O4 1.924264 1_555
Cu0 F1 1.996089 1_645
Cu0 O20 2.000999 1_555
Cu0 O16 2.287066 1_655
Cu1 O1 1.875721 1_545
Cu1 O5 1.924264 1_555
Cu1 F0 1.996089 1_645
Cu1 O21 2.000999 1_555
Cu1 O17 2.287066 1_545
Cu2 O2 1.875721 1_455
Cu2 O6 1.924264 1_555
Cu2 F3 1.996089 1_465
Cu2 O22 2.000999 1_555
Cu2 O18 2.287066 1_455
Cu3 O3 1.875721 1_565
Cu3 O7 1.924265 1_555
Cu3 F2 1.996089 1_465
Cu3 O23 2.000999 1_555
Cu3 O19 2.287066 1_565
O10 O19 1.221084 1_555
O11 O18 1.221084 1_555
O12 O4 1.315858 1_555
O12 O21 1.334634 1_555
O13 O5 1.315858 1_555
O13 O20 1.334634 1_555
O14 O6 1.315858 1_555
O14 O23 1.334634 1_555
O15 O7 1.315864 1_555
O15 O22 1.334634 1_555
O16 O9 1.221084 1_555
O17 O8 1.221084 1_555
F0 Zr0 2.200467 1_555
F1 Zr0 2.200467 1_555
F2 Zr1 2.200467 1_555
F3 Zr1 2.200467 1_555
F4 Zr0 1.987637 1_555
F5 Zr0 1.987637 1_555
F6 Zr1 1.987637 1_555
F7 Zr1 1.987637 1_555
F8 O1 1.413922 1_555
F9 O0 1.413922 1_555
F10 O3 1.413922 1_555
F11 O2 1.413922 1_555
F12 Zr0 2.016488 1_555
F13 Zr0 2.016488 1_555
F14 Zr1 2.016488 1_555
F15 Zr1 2.016488 1_555
