# generated using pymatgen
data_KNaTiH2O3F4
_symmetry_space_group_name_H-M   'P 1'
_cell_length_a   11.07958251
_cell_length_b   10.36306007
_cell_length_c   6.41998000
_cell_angle_alpha   90.00000000
_cell_angle_beta   90.00000000
_cell_angle_gamma   101.01745182
_symmetry_Int_Tables_number   1
_chemical_formula_structural   KNaTiH2O3F4
_chemical_formula_sum   'K4 Na4 Ti4 H8 O12 F16'
_cell_volume   723.54563686
_cell_formula_units_Z   4
loop_
 _symmetry_equiv_pos_site_id
 _symmetry_equiv_pos_as_xyz
  1  'x, y, z'
loop_
 _atom_site_type_symbol
 _atom_site_label
 _atom_site_symmetry_multiplicity
 _atom_site_fract_x
 _atom_site_fract_y
 _atom_site_fract_z
 _atom_site_occupancy
  K  K0  1  0.36569200  0.34778600  0.66475600  1
  K  K1  1  0.63430800  0.15221400  0.16475600  1
  K  K2  1  0.63430800  0.65221400  0.33524400  1
  K  K3  1  0.36569200  0.84778600  0.83524400  1
  Na  Na0  1  0.09968900  0.72036800  0.43301400  1
  Na  Na1  1  0.90031100  0.77963200  0.93301400  1
  Na  Na2  1  0.90031100  0.27963200  0.56698600  1
  Na  Na3  1  0.09968900  0.22036800  0.06698600  1
  Ti  Ti0  1  0.15175000  0.51984400  0.94007500  1
  Ti  Ti1  1  0.84825000  0.98015600  0.44007500  1
  Ti  Ti2  1  0.84825000  0.48015600  0.05992500  1
  Ti  Ti3  1  0.15175000  0.01984400  0.55992500  1
  H  H0  1  0.35624500  0.94818400  0.36175600  1
  H  H1  1  0.64375500  0.55181600  0.86175600  1
  H  H2  1  0.64375500  0.05181600  0.63824400  1
  H  H3  1  0.35624500  0.44818400  0.13824400  1
  H  H4  1  0.00516700  0.49250000  0.44409200  1
  H  H5  1  0.99483300  0.00750000  0.94409200  1
  H  H6  1  0.99483300  0.50750000  0.55590800  1
  H  H7  1  0.00516700  0.99250000  0.05590800  1
  O  O0  1  0.44611400  0.92568800  0.25540500  1
  O  O1  1  0.55388600  0.57431200  0.75540500  1
  O  O2  1  0.55388600  0.07431200  0.74459500  1
  O  O3  1  0.44611400  0.42568800  0.24459500  1
  O  O4  1  0.27440000  0.45200600  0.02749400  1
  O  O5  1  0.72560000  0.04799400  0.52749400  1
  O  O6  1  0.72560000  0.54799400  0.97250600  1
  O  O7  1  0.27440000  0.95200600  0.47250600  1
  O  O8  1  0.47903700  0.82803300  0.36556400  1
  O  O9  1  0.52096300  0.67196700  0.86556400  1
  O  O10  1  0.52096300  0.17196700  0.63443600  1
  O  O11  1  0.47903700  0.32803300  0.13443600  1
  F  F0  1  0.02682000  0.42356700  0.13857900  1
  F  F1  1  0.97318000  0.07643300  0.63857900  1
  F  F2  1  0.97318000  0.57643300  0.86142100  1
  F  F3  1  0.02682000  0.92356700  0.36142100  1
  F  F4  1  0.21408500  0.62038200  0.70513500  1
  F  F5  1  0.78591500  0.87961800  0.20513500  1
  F  F6  1  0.78591500  0.37961800  0.29486500  1
  F  F7  1  0.21408500  0.12038200  0.79486500  1
  F  F8  1  0.17617100  0.67034100  0.11519600  1
  F  F9  1  0.82382900  0.82965900  0.61519600  1
  F  F10  1  0.82382900  0.32965900  0.88480400  1
  F  F11  1  0.17617100  0.17034100  0.38480400  1
  F  F12  1  0.09228000  0.36875400  0.76638000  1
  F  F13  1  0.90772000  0.13124600  0.26638000  1
  F  F14  1  0.90772000  0.63124600  0.23362000  1
  F  F15  1  0.09228000  0.86875400  0.73362000  1
loop_
_geom_bond_atom_site_label_1
_geom_bond_atom_site_label_2
_geom_bond_distance
_geom_bond_site_symmetry_2
K0 O10 2.741400 1_555
K0 O4 2.833776 1_556
K0 O1 2.885527 1_555
K0 O3 2.906347 1_555
K0 O11 3.287778 1_556
K1 O11 2.741400 1_555
K1 O5 2.833776 1_555
K1 O0 2.885527 1_545
K1 O2 2.906347 1_554
K1 O10 3.287778 1_555
K2 O8 2.741400 1_555
K2 O6 2.833776 1_554
K2 O3 2.885527 1_555
K2 O1 2.906347 1_555
K2 O9 3.287778 1_554
K3 O9 2.741400 1_555
K3 O7 2.833776 1_555
K3 O2 2.885527 1_565
K3 O0 2.906347 1_556
K3 O8 3.287778 1_555
Na0 O7 2.792415 1_555
Na1 O6 2.792415 1_555
Na2 O5 2.792415 1_555
Na3 O4 2.792415 1_555
H0 O7 1.158938 1_555
H0 O0 1.265183 1_555
H1 O6 1.158938 1_555
H1 O1 1.265183 1_555
H2 O5 1.158938 1_555
H2 O2 1.265183 1_555
H3 O4 1.158938 1_555
H3 O3 1.265183 1_555
H4 H6 0.747926 1_455
H4 Na0 2.394337 1_555
H4 Na2 2.420518 1_455
H5 H7 0.747926 1_646
H5 Na1 2.394337 1_545
H5 Na3 2.420518 1_656
H6 Na2 2.394337 1_555
H6 Na0 2.420518 1_655
H7 Na3 2.394337 1_565
H7 Na1 2.420518 1_454
O0 O8 1.341069 1_555
O1 O9 1.341069 1_555
O4 Ti0 1.738096 1_554
O5 Ti1 1.738096 1_545
O6 Ti2 1.738096 1_556
O7 Ti3 1.738096 1_565
O10 O2 1.341069 1_555
O11 O3 1.341069 1_555
F0 Ti0 2.001902 1_554
F0 Ti2 2.226374 1_455
F0 Na3 2.438674 1_555
F1 Ti1 2.001902 1_545
F1 Ti3 2.226374 1_655
F1 Na2 2.438674 1_555
F2 Ti2 2.001902 1_556
F2 Ti0 2.226374 1_655
F2 Na1 2.438674 1_555
F3 Ti3 2.001902 1_565
F3 Ti1 2.226374 1_455
F3 Na0 2.438674 1_555
F4 Ti0 1.887452 1_555
F4 Na0 2.496817 1_555
F4 K3 2.749514 1_555
F5 Ti1 1.887452 1_555
F5 Na1 2.496817 1_554
F5 K2 2.749514 1_555
F6 Ti2 1.887452 1_555
F6 Na2 2.496817 1_555
F6 K1 2.749514 1_555
F7 Ti3 1.887452 1_555
F7 Na3 2.496817 1_556
F7 K0 2.749514 1_555
F8 Ti0 1.899550 1_554
F8 Na0 2.306063 1_555
F8 K3 3.089508 1_554
F9 Ti1 1.899550 1_555
F9 Na1 2.306063 1_555
F9 K2 3.089508 1_555
F10 Ti2 1.899550 1_556
F10 Na2 2.306063 1_555
F10 K1 3.089508 1_556
F11 Ti3 1.899550 1_555
F11 Na3 2.306063 1_555
F11 K0 3.089508 1_555
F12 Ti0 1.932590 1_555
F12 Na3 2.478722 1_556
F12 Na2 2.502939 1_455
F12 K0 3.146596 1_555
F13 Ti1 1.932590 1_545
F13 Na2 2.478722 1_555
F13 Na3 2.502939 1_655
F13 K1 3.146596 1_555
F14 Ti2 1.932590 1_555
F14 Na1 2.478722 1_554
F14 Na0 2.502939 1_655
F14 K2 3.146596 1_555
F15 Ti3 1.932590 1_565
F15 Na0 2.478722 1_555
F15 Na1 2.502939 1_455
F15 K3 3.146596 1_555
