# generated using pymatgen
data_ScC6(O2F3)3
_symmetry_space_group_name_H-M   'P 1'
_cell_length_a   8.39706400
_cell_length_b   9.16294200
_cell_length_c   14.85084200
_cell_angle_alpha   90.00000000
_cell_angle_beta   90.00000000
_cell_angle_gamma   90.00000000
_symmetry_Int_Tables_number   1
_chemical_formula_structural   ScC6(O2F3)3
_chemical_formula_sum   'Sc4 C24 O24 F36'
_cell_volume   1142.65066948
_cell_formula_units_Z   4
loop_
 _symmetry_equiv_pos_site_id
 _symmetry_equiv_pos_as_xyz
  1  'x, y, z'
loop_
 _atom_site_type_symbol
 _atom_site_label
 _atom_site_symmetry_multiplicity
 _atom_site_fract_x
 _atom_site_fract_y
 _atom_site_fract_z
 _atom_site_occupancy
  Sc  Sc0  1  0.02855900  0.23982800  0.75000000  1
  Sc  Sc1  1  0.97144100  0.76017200  0.25000000  1
  Sc  Sc2  1  0.02855900  0.26017200  0.25000000  1
  Sc  Sc3  1  0.97144100  0.73982800  0.75000000  1
  C  C0  1  0.76003300  0.02264700  0.96931600  1
  C  C1  1  0.23996700  0.97735300  0.46931600  1
  C  C2  1  0.76003300  0.47735300  0.03068400  1
  C  C3  1  0.23996700  0.52264700  0.53068400  1
  C  C4  1  0.23996700  0.97735300  0.03068400  1
  C  C5  1  0.76003300  0.02264700  0.53068400  1
  C  C6  1  0.23996700  0.52264700  0.96931600  1
  C  C7  1  0.76003300  0.47735300  0.46931600  1
  C  C8  1  0.54978600  0.43091600  0.75000000  1
  C  C9  1  0.45021400  0.56908400  0.25000000  1
  C  C10  1  0.54978600  0.06908400  0.25000000  1
  C  C11  1  0.45021400  0.93091600  0.75000000  1
  C  C12  1  0.85865400  0.99718100  0.88162200  1
  C  C13  1  0.14134600  0.00281900  0.38162200  1
  C  C14  1  0.85865400  0.50281900  0.11837800  1
  C  C15  1  0.14134600  0.49718100  0.61837800  1
  C  C16  1  0.14134600  0.00281900  0.11837800  1
  C  C17  1  0.85865400  0.99718100  0.61837800  1
  C  C18  1  0.14134600  0.49718100  0.88162200  1
  C  C19  1  0.85865400  0.50281900  0.38162200  1
  C  C20  1  0.72867800  0.47681500  0.75000000  1
  C  C21  1  0.27132200  0.52318500  0.25000000  1
  C  C22  1  0.72867800  0.02318500  0.25000000  1
  C  C23  1  0.27132200  0.97681500  0.75000000  1
  O  O0  1  0.92522200  0.10978700  0.85024600  1
  O  O1  1  0.07477800  0.89021300  0.35024600  1
  O  O2  1  0.92522200  0.39021300  0.14975400  1
  O  O3  1  0.07477800  0.60978700  0.64975400  1
  O  O4  1  0.07477800  0.89021300  0.14975400  1
  O  O5  1  0.92522200  0.10978700  0.64975400  1
  O  O6  1  0.07477800  0.60978700  0.85024600  1
  O  O7  1  0.92522200  0.39021300  0.35024600  1
  O  O8  1  0.86168600  0.86945400  0.85059000  1
  O  O9  1  0.13831400  0.13054600  0.35059000  1
  O  O10  1  0.86168600  0.63054600  0.14941000  1
  O  O11  1  0.13831400  0.36945400  0.64941000  1
  O  O12  1  0.13831400  0.13054600  0.14941000  1
  O  O13  1  0.86168600  0.86945400  0.64941000  1
  O  O14  1  0.13831400  0.36945400  0.85059000  1
  O  O15  1  0.86168600  0.63054600  0.35059000  1
  O  O16  1  0.82596100  0.37176400  0.75000000  1
  O  O17  1  0.17403900  0.62823600  0.25000000  1
  O  O18  1  0.82596100  0.12823600  0.25000000  1
  O  O19  1  0.17403900  0.87176400  0.75000000  1
  O  O20  1  0.75971000  0.61112700  0.75000000  1
  O  O21  1  0.24029000  0.38887300  0.25000000  1
  O  O22  1  0.75971000  0.88887300  0.25000000  1
  O  O23  1  0.24029000  0.11112700  0.75000000  1
  F  F0  1  0.85057100  0.09531900  0.03138300  1
  F  F1  1  0.14942900  0.90468100  0.53138300  1
  F  F2  1  0.85057100  0.40468100  0.96861700  1
  F  F3  1  0.14942900  0.59531900  0.46861700  1
  F  F4  1  0.14942900  0.90468100  0.96861700  1
  F  F5  1  0.85057100  0.09531900  0.46861700  1
  F  F6  1  0.14942900  0.59531900  0.03138300  1
  F  F7  1  0.85057100  0.40468100  0.53138300  1
  F  F8  1  0.71077100  0.89696500  0.00735700  1
  F  F9  1  0.28922900  0.10303500  0.50735700  1
  F  F10  1  0.71077100  0.60303500  0.99264300  1
  F  F11  1  0.28922900  0.39696500  0.49264300  1
  F  F12  1  0.28922900  0.10303500  0.99264300  1
  F  F13  1  0.71077100  0.89696500  0.49264300  1
  F  F14  1  0.28922900  0.39696500  0.00735700  1
  F  F15  1  0.71077100  0.60303500  0.50735700  1
  F  F16  1  0.63075700  0.10623500  0.95063400  1
  F  F17  1  0.36924300  0.89376500  0.45063400  1
  F  F18  1  0.63075700  0.39376500  0.04936600  1
  F  F19  1  0.36924300  0.60623500  0.54936600  1
  F  F20  1  0.36924300  0.89376500  0.04936600  1
  F  F21  1  0.63075700  0.10623500  0.54936600  1
  F  F22  1  0.36924300  0.60623500  0.95063400  1
  F  F23  1  0.63075700  0.39376500  0.45063400  1
  F  F24  1  0.51794400  0.34956900  0.82442500  1
  F  F25  1  0.48205600  0.65043100  0.32442500  1
  F  F26  1  0.51794400  0.15043100  0.17557500  1
  F  F27  1  0.48205600  0.84956900  0.67557500  1
  F  F28  1  0.48205600  0.65043100  0.17557500  1
  F  F29  1  0.51794400  0.34956900  0.67557500  1
  F  F30  1  0.48205600  0.84956900  0.82442500  1
  F  F31  1  0.51794400  0.15043100  0.32442500  1
  F  F32  1  0.44972100  0.54709400  0.75000000  1
  F  F33  1  0.55028000  0.45290600  0.25000000  1
  F  F34  1  0.44972100  0.95290600  0.25000000  1
  F  F35  1  0.55028000  0.04709400  0.75000000  1
loop_
_geom_bond_atom_site_label_1
_geom_bond_atom_site_label_2
_geom_bond_distance
_geom_bond_site_symmetry_2
C0 F8 1.347773 1_546
C0 F16 1.357200 1_555
C0 F0 1.367849 1_556
C1 F9 1.347773 1_565
C1 F17 1.357200 1_555
C1 F1 1.367849 1_555
C2 F10 1.347773 1_554
C2 F18 1.357200 1_555
C2 F2 1.367849 1_554
C3 F11 1.347773 1_555
C3 F19 1.357200 1_555
C3 F3 1.367849 1_555
C4 F12 1.347773 1_564
C4 F20 1.357200 1_555
C4 F4 1.367849 1_554
C5 F13 1.347773 1_545
C5 F21 1.357200 1_555
C5 F5 1.367849 1_555
C6 F14 1.347773 1_556
C6 F22 1.357200 1_555
C6 F6 1.367849 1_556
C7 F15 1.347773 1_555
C7 F23 1.357200 1_555
C7 F7 1.367849 1_555
C8 F32 1.356191 1_555
C8 F24 1.359673 1_555
C8 F29 1.359673 1_555
C9 F33 1.356196 1_555
C9 F28 1.359673 1_555
C9 F25 1.359673 1_555
C10 F34 1.356191 1_545
C10 F26 1.359673 1_555
C10 F31 1.359673 1_555
C11 F35 1.356196 1_565
C11 F30 1.359673 1_555
C11 F27 1.359673 1_555
C12 O8 1.258079 1_555
C12 O0 1.262612 1_565
C13 O9 1.258079 1_555
C13 O1 1.262612 1_545
C14 O10 1.258079 1_555
C14 O2 1.262612 1_555
C15 O11 1.258079 1_555
C15 O3 1.262612 1_555
C16 O12 1.258079 1_555
C16 O4 1.262612 1_545
C17 O13 1.258079 1_555
C17 O5 1.262612 1_565
C18 O14 1.258079 1_555
C18 O6 1.262612 1_555
C19 O15 1.258079 1_555
C19 O7 1.262612 1_555
C20 O20 1.257977 1_555
C20 O16 1.262484 1_555
C21 O21 1.257977 1_555
C21 O17 1.262484 1_555
C22 O22 1.257977 1_545
C22 O18 1.262484 1_555
C23 O23 1.257977 1_565
C23 O19 1.262484 1_555
O0 Sc0 2.095018 1_655
O1 Sc1 2.095018 1_455
O2 Sc2 2.095018 1_655
O3 Sc3 2.095018 1_455
O4 Sc1 2.095018 1_455
O5 Sc0 2.095018 1_655
O6 Sc3 2.095018 1_455
O7 Sc2 2.095018 1_655
O8 Sc3 2.119368 1_555
O9 Sc2 2.119368 1_555
O10 Sc1 2.119368 1_555
O11 Sc0 2.119368 1_555
O12 Sc2 2.119368 1_555
O13 Sc3 2.119368 1_555
O14 Sc0 2.119368 1_555
O15 Sc1 2.119368 1_555
O16 Sc0 2.087024 1_655
O17 Sc1 2.087024 1_455
O18 Sc2 2.087024 1_655
O19 Sc3 2.087024 1_455
O20 Sc3 2.133470 1_555
O21 Sc2 2.133470 1_555
O22 Sc1 2.133470 1_555
O23 Sc0 2.133470 1_555
