# generated using pymatgen
data_CsTlS2
_symmetry_space_group_name_H-M   'P 1'
_cell_length_a   8.13227092
_cell_length_b   8.13227092
_cell_length_c   16.57946545
_cell_angle_alpha   82.90240836
_cell_angle_beta   82.90240836
_cell_angle_gamma   89.99712360
_symmetry_Int_Tables_number   1
_chemical_formula_structural   CsTlS2
_chemical_formula_sum   'Cs8 Tl8 S16'
_cell_volume   1079.59490921
_cell_formula_units_Z   8
loop_
 _symmetry_equiv_pos_site_id
 _symmetry_equiv_pos_as_xyz
  1  'x, y, z'
loop_
 _atom_site_type_symbol
 _atom_site_label
 _atom_site_symmetry_multiplicity
 _atom_site_fract_x
 _atom_site_fract_y
 _atom_site_fract_z
 _atom_site_occupancy
  Cs  Cs0  1  0.34675754  0.22353016  0.61088872  1
  Cs  Cs1  1  0.65324246  0.77646984  0.38911128  1
  Cs  Cs2  1  0.77646984  0.65324246  0.88911128  1
  Cs  Cs3  1  0.22353016  0.34675754  0.11088872  1
  Cs  Cs4  1  0.77530462  0.15205247  0.89157225  1
  Cs  Cs5  1  0.22469538  0.84794753  0.10842775  1
  Cs  Cs6  1  0.84794753  0.22469538  0.60842775  1
  Cs  Cs7  1  0.15205247  0.77530462  0.39157225  1
  Tl  Tl0  1  0.29031300  0.91423366  0.83653591  1
  Tl  Tl1  1  0.70968700  0.08576634  0.16346409  1
  Tl  Tl2  1  0.08576634  0.70968700  0.66346409  1
  Tl  Tl3  1  0.91423366  0.29031300  0.33653591  1
  Tl  Tl4  1  0.58184855  0.70955526  0.66315698  1
  Tl  Tl5  1  0.41815145  0.29044474  0.33684302  1
  Tl  Tl6  1  0.29044474  0.41815145  0.83684302  1
  Tl  Tl7  1  0.70955526  0.58184855  0.16315698  1
  S  S0  1  0.57126272  0.94743224  0.74951060  1
  S  S1  1  0.42873728  0.05256776  0.25048940  1
  S  S2  1  0.05256776  0.42873728  0.75048940  1
  S  S3  1  0.94743224  0.57126272  0.24951060  1
  S  S4  1  0.35766030  0.73295129  0.56796691  1
  S  S5  1  0.64233970  0.26704871  0.43203309  1
  S  S6  1  0.26704871  0.64233970  0.93203309  1
  S  S7  1  0.73295129  0.35766030  0.06796691  1
  S  S8  1  0.57143824  0.42856176  0.75000000  1
  S  S9  1  0.42856176  0.57143824  0.25000000  1
  S  S10  1  0.26794981  0.14251142  0.93033543  1
  S  S11  1  0.73205019  0.85748858  0.06966457  1
  S  S12  1  0.85748858  0.73205019  0.56966457  1
  S  S13  1  0.14251142  0.26794981  0.43033543  1
  S  S14  1  0.05261650  0.94738350  0.75000000  1
  S  S15  1  0.94738350  0.05261650  0.25000000  1
loop_
_geom_bond_atom_site_label_1
_geom_bond_atom_site_label_2
_geom_bond_distance
_geom_bond_site_symmetry_2
Cs0 S5 3.560304 1_555
Cs0 S13 3.579342 1_555
Cs0 S0 3.663069 1_545
Cs0 S8 3.664714 1_555
Cs0 S14 3.666289 1_545
Cs0 S2 3.667596 1_555
Cs0 S4 4.114920 1_555
Cs0 S4 4.137208 1_545
Cs1 S4 3.560304 1_555
Cs1 S12 3.579342 1_555
Cs1 S1 3.663069 1_565
Cs1 S9 3.664714 1_555
Cs1 S15 3.666289 1_565
Cs1 S3 3.667596 1_555
Cs1 S5 4.114920 1_555
Cs1 S5 4.137208 1_565
Cs2 S7 3.560304 1_556
Cs2 S11 3.579342 1_556
Cs2 S2 3.663069 1_655
Cs2 S8 3.664714 1_555
Cs2 S14 3.666289 1_655
Cs2 S0 3.667596 1_555
Cs2 S6 4.114920 1_555
Cs2 S6 4.137208 1_655
Cs3 S6 3.560304 1_554
Cs3 S10 3.579342 1_554
Cs3 S3 3.663069 1_455
Cs3 S9 3.664714 1_555
Cs3 S15 3.666289 1_455
Cs3 S1 3.667596 1_555
Cs3 S7 4.114920 1_555
Cs3 S7 4.137208 1_455
Cs4 S7 3.525154 1_556
Cs4 S11 3.546244 1_546
Cs4 S8 3.601572 1_555
Cs4 S0 3.606164 1_545
Cs4 S2 3.607591 1_655
Cs4 S14 3.608656 1_645
Cs4 S10 4.095720 1_555
Cs4 S10 4.134441 1_655
Cs5 S6 3.525154 1_554
Cs5 S10 3.546244 1_564
Cs5 S9 3.601572 1_555
Cs5 S1 3.606164 1_565
Cs5 S3 3.607591 1_455
Cs5 S15 3.608656 1_465
Cs5 S11 4.095720 1_555
Cs5 S11 4.134441 1_455
Cs6 S5 3.525154 1_555
Cs6 S13 3.546244 1_655
Cs6 S8 3.601572 1_555
Cs6 S2 3.606164 1_655
Cs6 S0 3.607591 1_545
Cs6 S14 3.608656 1_645
Cs6 S12 4.095720 1_555
Cs6 S12 4.134441 1_545
Cs7 S4 3.525154 1_555
Cs7 S12 3.546244 1_455
Cs7 S9 3.601572 1_555
Cs7 S3 3.606164 1_455
Cs7 S1 3.607591 1_565
Cs7 S15 3.608656 1_465
Cs7 S13 4.095720 1_555
Cs7 S13 4.134441 1_565
S0 Tl4 2.540340 1_555
S0 Tl0 2.542429 1_555
S1 Tl5 2.540340 1_555
S1 Tl1 2.542429 1_555
S2 Tl6 2.540340 1_555
S2 Tl2 2.542429 1_555
S3 Tl7 2.540340 1_555
S3 Tl3 2.542429 1_555
S4 Tl4 2.547083 1_555
S4 Tl2 2.548045 1_555
S5 Tl5 2.547083 1_555
S5 Tl3 2.548045 1_555
S6 Tl6 2.547083 1_555
S6 Tl0 2.548045 1_555
S7 Tl7 2.547083 1_555
S7 Tl1 2.548045 1_555
S8 Tl4 2.541420 1_555
S8 Tl6 2.541420 1_555
S9 Tl5 2.541420 1_555
S9 Tl7 2.541420 1_555
S10 Tl6 2.555806 1_555
S10 Tl0 2.557605 1_545
S11 Tl7 2.555806 1_555
S11 Tl1 2.557605 1_565
S12 Tl4 2.555806 1_555
S12 Tl2 2.557605 1_655
S13 Tl5 2.555806 1_555
S13 Tl3 2.557605 1_455
S14 Tl2 2.541130 1_555
S14 Tl0 2.541130 1_555
S15 Tl1 2.541130 1_555
S15 Tl3 2.541130 1_555
