# generated using pymatgen
data_TmGe2Os
_symmetry_space_group_name_H-M   'P 1'
_cell_length_a   8.35964200
_cell_length_b   9.62669200
_cell_length_c   10.56767200
_cell_angle_alpha   90.00000000
_cell_angle_beta   90.00000000
_cell_angle_gamma   90.00000000
_symmetry_Int_Tables_number   1
_chemical_formula_structural   TmGe2Os
_chemical_formula_sum   'Tm12 Ge24 Os12'
_cell_volume   850.44078851
_cell_formula_units_Z   12
loop_
 _symmetry_equiv_pos_site_id
 _symmetry_equiv_pos_as_xyz
  1  'x, y, z'
loop_
 _atom_site_type_symbol
 _atom_site_label
 _atom_site_symmetry_multiplicity
 _atom_site_fract_x
 _atom_site_fract_y
 _atom_site_fract_z
 _atom_site_occupancy
  Tm  Tm0  1  0.24524000  0.82310800  0.44942900  1
  Tm  Tm1  1  0.24524000  0.17689200  0.55057100  1
  Tm  Tm2  1  0.75476000  0.32310800  0.05057100  1
  Tm  Tm3  1  0.75476000  0.67689200  0.94942900  1
  Tm  Tm4  1  0.75476000  0.17689200  0.55057100  1
  Tm  Tm5  1  0.75476000  0.82310800  0.44942900  1
  Tm  Tm6  1  0.24524000  0.67689200  0.94942900  1
  Tm  Tm7  1  0.24524000  0.32310800  0.05057100  1
  Tm  Tm8  1  0.00000000  0.83560100  0.17693100  1
  Tm  Tm9  1  0.00000000  0.16439900  0.82306900  1
  Tm  Tm10  1  0.00000000  0.33560100  0.32306900  1
  Tm  Tm11  1  0.00000000  0.66439900  0.67693100  1
  Ge  Ge0  1  0.34819600  0.84162100  0.17960100  1
  Ge  Ge1  1  0.34819600  0.15837900  0.82039900  1
  Ge  Ge2  1  0.65180400  0.34162100  0.32039900  1
  Ge  Ge3  1  0.65180400  0.65837900  0.67960100  1
  Ge  Ge4  1  0.65180400  0.15837900  0.82039900  1
  Ge  Ge5  1  0.65180400  0.84162100  0.17960100  1
  Ge  Ge6  1  0.34819600  0.65837900  0.67960100  1
  Ge  Ge7  1  0.34819600  0.34162100  0.32039900  1
  Ge  Ge8  1  0.50000000  0.54496900  0.11757800  1
  Ge  Ge9  1  0.50000000  0.45503100  0.88242200  1
  Ge  Ge10  1  0.50000000  0.04496900  0.38242200  1
  Ge  Ge11  1  0.50000000  0.95503100  0.61757800  1
  Ge  Ge12  1  0.00000000  0.53634700  0.11831800  1
  Ge  Ge13  1  0.00000000  0.46365300  0.88168200  1
  Ge  Ge14  1  0.00000000  0.03634700  0.38168200  1
  Ge  Ge15  1  0.00000000  0.96365300  0.61831800  1
  Ge  Ge16  1  0.50000000  0.62783300  0.40354100  1
  Ge  Ge17  1  0.50000000  0.37216700  0.59645900  1
  Ge  Ge18  1  0.50000000  0.12783300  0.09645900  1
  Ge  Ge19  1  0.50000000  0.87216700  0.90354100  1
  Ge  Ge20  1  0.00000000  0.63043900  0.39918700  1
  Ge  Ge21  1  0.00000000  0.36956100  0.60081300  1
  Ge  Ge22  1  0.00000000  0.13043900  0.10081300  1
  Ge  Ge23  1  0.00000000  0.86956100  0.89918700  1
  Os  Os0  1  0.25051400  0.58881000  0.23741500  1
  Os  Os1  1  0.25051400  0.41119000  0.76258500  1
  Os  Os2  1  0.74948600  0.08881000  0.26258500  1
  Os  Os3  1  0.74948600  0.91119000  0.73741500  1
  Os  Os4  1  0.74948600  0.41119000  0.76258500  1
  Os  Os5  1  0.74948600  0.58881000  0.23741500  1
  Os  Os6  1  0.25051400  0.91119000  0.73741500  1
  Os  Os7  1  0.25051400  0.08881000  0.26258500  1
  Os  Os8  1  0.24888900  0.50000000  0.50000000  1
  Os  Os9  1  0.75111100  0.00000000  0.00000000  1
  Os  Os10  1  0.75111100  0.50000000  0.50000000  1
  Os  Os11  1  0.24888900  0.00000000  0.00000000  1
loop_
_geom_bond_atom_site_label_1
_geom_bond_atom_site_label_2
_geom_bond_distance
_geom_bond_site_symmetry_2
Ge0 Ge5 2.538054 1_555
Ge0 Os11 2.572170 1_565
Ge0 Os0 2.638777 1_555
Ge0 Os7 2.664283 1_565
Ge0 Tm8 2.911507 1_555
Ge0 Tm0 2.983842 1_555
Ge0 Tm6 3.028530 1_554
Ge1 Ge4 2.538054 1_555
Ge1 Os11 2.572170 1_556
Ge1 Os1 2.638777 1_555
Ge1 Os6 2.664283 1_545
Ge1 Tm9 2.911507 1_555
Ge1 Tm1 2.983842 1_555
Ge1 Tm7 3.028530 1_556
Ge2 Ge7 2.538054 1_555
Ge2 Os10 2.572170 1_555
Ge2 Os2 2.638777 1_555
Ge2 Os5 2.664283 1_555
Ge2 Tm10 2.911507 1_655
Ge2 Tm2 2.983842 1_555
Ge2 Tm4 3.028530 1_555
Ge3 Ge6 2.538054 1_555
Ge3 Os10 2.572170 1_555
Ge3 Os3 2.638777 1_555
Ge3 Os4 2.664283 1_555
Ge3 Tm11 2.911507 1_655
Ge3 Tm3 2.983842 1_555
Ge3 Tm5 3.028530 1_555
Ge4 Os9 2.572170 1_556
Ge4 Os4 2.638777 1_555
Ge4 Os3 2.664283 1_545
Ge4 Tm9 2.911507 1_655
Ge4 Tm4 2.983842 1_555
Ge4 Tm2 3.028530 1_556
Ge5 Os9 2.572170 1_565
Ge5 Os5 2.638777 1_555
Ge5 Os2 2.664283 1_565
Ge5 Tm8 2.911507 1_655
Ge5 Tm5 2.983842 1_555
Ge5 Tm3 3.028530 1_554
Ge6 Os8 2.572170 1_555
Ge6 Os6 2.638777 1_555
Ge6 Os1 2.664283 1_555
Ge6 Tm11 2.911507 1_555
Ge6 Tm6 2.983842 1_555
Ge6 Tm0 3.028530 1_555
Ge7 Os8 2.572170 1_555
Ge7 Os7 2.638777 1_555
Ge7 Os0 2.664283 1_555
Ge7 Tm10 2.911507 1_555
Ge7 Tm7 2.983842 1_555
Ge7 Tm1 3.028530 1_555
Ge8 Os0 2.476221 1_555
Ge8 Os5 2.476221 1_555
Ge8 Ge9 2.631558 1_554
Ge8 Tm6 3.050576 1_554
Ge8 Tm3 3.050576 1_554
Ge8 Tm7 3.098167 1_555
Ge8 Tm2 3.098167 1_555
Ge9 Os4 2.476221 1_555
Ge9 Os1 2.476221 1_555
Ge9 Tm7 3.050576 1_556
Ge9 Tm2 3.050576 1_556
Ge9 Tm6 3.098167 1_555
Ge9 Tm3 3.098167 1_555
Ge10 Os7 2.476221 1_555
Ge10 Os2 2.476221 1_555
Ge10 Ge11 2.631558 1_545
Ge10 Tm1 3.050576 1_555
Ge10 Tm4 3.050576 1_555
Ge10 Tm0 3.098167 1_545
Ge10 Tm5 3.098167 1_545
Ge11 Os6 2.476221 1_555
Ge11 Os3 2.476221 1_555
Ge11 Tm0 3.050576 1_555
Ge11 Tm5 3.050576 1_555
Ge11 Tm1 3.098167 1_565
Ge11 Tm4 3.098167 1_565
Ge12 Os0 2.494954 1_555
Ge12 Os5 2.494954 1_455
Ge12 Ge13 2.596764 1_554
Ge12 Tm10 2.901105 1_555
Ge12 Tm8 2.946662 1_555
Ge12 Tm2 2.988222 1_455
Ge12 Tm7 2.988222 1_555
Ge12 Tm3 3.036269 1_454
Ge12 Tm6 3.036269 1_554
Ge13 Os1 2.494954 1_555
Ge13 Os4 2.494954 1_455
Ge13 Tm11 2.901105 1_555
Ge13 Tm9 2.946662 1_555
Ge13 Tm3 2.988222 1_455
Ge13 Tm6 2.988222 1_555
Ge13 Tm2 3.036269 1_456
Ge13 Tm7 3.036269 1_556
Ge14 Os2 2.494954 1_455
Ge14 Os7 2.494954 1_555
Ge14 Ge15 2.596764 1_545
Ge14 Tm8 2.901105 1_545
Ge14 Tm10 2.946662 1_555
Ge14 Tm5 2.988222 1_445
Ge14 Tm0 2.988222 1_545
Ge14 Tm4 3.036269 1_455
Ge14 Tm1 3.036269 1_555
Ge15 Os6 2.494954 1_555
Ge15 Os3 2.494954 1_455
Ge15 Tm9 2.901105 1_565
Ge15 Tm11 2.946662 1_555
Ge15 Tm4 2.988222 1_465
Ge15 Tm1 2.988222 1_565
Ge15 Tm5 3.036269 1_455
Ge15 Tm0 3.036269 1_555
Ge16 Os10 2.638200 1_555
Ge16 Os8 2.638200 1_555
Ge16 Os5 2.751893 1_555
Ge16 Os0 2.751893 1_555
Ge16 Tm0 2.881776 1_555
Ge16 Tm5 2.881776 1_555
Ge17 Os10 2.638200 1_555
Ge17 Os8 2.638200 1_555
Ge17 Os4 2.751893 1_555
Ge17 Os1 2.751893 1_555
Ge17 Tm1 2.881776 1_555
Ge17 Tm4 2.881776 1_555
Ge18 Os11 2.638200 1_555
Ge18 Os9 2.638200 1_555
Ge18 Os2 2.751893 1_555
Ge18 Os7 2.751893 1_555
Ge18 Tm7 2.881776 1_555
Ge18 Tm2 2.881776 1_555
Ge19 Os11 2.638200 1_566
Ge19 Os9 2.638200 1_566
Ge19 Os6 2.751893 1_555
Ge19 Os3 2.751893 1_555
Ge19 Tm6 2.881776 1_555
Ge19 Tm3 2.881776 1_555
Ge20 Os8 2.653442 1_555
Ge20 Os10 2.653442 1_455
Ge20 Os5 2.732925 1_455
Ge20 Os0 2.732925 1_555
Ge20 Tm5 2.815144 1_455
Ge20 Tm0 2.815144 1_555
Ge20 Tm10 2.950097 1_555
Ge20 Tm11 2.953258 1_555
Ge20 Tm8 3.068758 1_555
Ge21 Os8 2.653442 1_555
Ge21 Os10 2.653442 1_455
Ge21 Os1 2.732925 1_555
Ge21 Os4 2.732925 1_455
Ge21 Tm4 2.815144 1_455
Ge21 Tm1 2.815144 1_555
Ge21 Tm11 2.950097 1_555
Ge21 Tm10 2.953258 1_555
Ge21 Tm9 3.068758 1_555
Ge22 Os11 2.653442 1_555
Ge22 Os9 2.653442 1_455
Ge22 Os2 2.732925 1_455
Ge22 Os7 2.732925 1_555
Ge22 Tm2 2.815144 1_455
Ge22 Tm7 2.815144 1_555
Ge22 Tm8 2.950097 1_545
Ge22 Tm9 2.953258 1_554
Ge22 Tm10 3.068758 1_555
Ge23 Os11 2.653442 1_566
Ge23 Os9 2.653442 1_466
Ge23 Os6 2.732925 1_555
Ge23 Os3 2.732925 1_455
Ge23 Tm3 2.815144 1_455
Ge23 Tm6 2.815144 1_555
Ge23 Tm9 2.950097 1_565
Ge23 Tm8 2.953258 1_556
Ge23 Tm11 3.068758 1_555
Os0 Os8 2.903662 1_555
Os0 Tm6 3.159568 1_554
Os0 Tm0 3.179482 1_555
Os0 Tm8 3.230880 1_555
Os0 Tm7 3.231582 1_555
Os0 Tm10 3.338675 1_555
Os1 Os8 2.903662 1_555
Os1 Tm7 3.159568 1_556
Os1 Tm1 3.179482 1_555
Os1 Tm9 3.230880 1_555
Os1 Tm6 3.231582 1_555
Os1 Tm11 3.338675 1_555
Os2 Os9 2.903662 1_555
Os2 Tm4 3.159568 1_555
Os2 Tm2 3.179482 1_555
Os2 Tm10 3.230880 1_655
Os2 Tm5 3.231582 1_545
Os2 Tm8 3.338675 1_645
Os3 Os9 2.903662 1_566
Os3 Tm5 3.159568 1_555
Os3 Tm3 3.179482 1_555
Os3 Tm11 3.230880 1_655
Os3 Tm4 3.231582 1_565
Os3 Tm9 3.338675 1_665
Os4 Tm2 3.159568 1_556
Os4 Tm4 3.179482 1_555
Os4 Tm9 3.230880 1_655
Os4 Tm3 3.231582 1_555
Os4 Tm11 3.338675 1_655
Os5 Tm3 3.159568 1_554
Os5 Tm5 3.179482 1_555
Os5 Tm8 3.230880 1_655
Os5 Tm2 3.231582 1_555
Os5 Tm10 3.338675 1_655
Os6 Tm0 3.159568 1_555
Os6 Tm6 3.179482 1_555
Os6 Tm11 3.230880 1_555
Os6 Tm1 3.231582 1_565
Os6 Tm9 3.338675 1_565
Os7 Tm1 3.159568 1_555
Os7 Tm7 3.179482 1_555
Os7 Tm10 3.230880 1_555
Os7 Tm0 3.231582 1_545
Os7 Tm8 3.338675 1_545
Os8 Tm1 3.156185 1_555
Os8 Tm0 3.156185 1_555
Os8 Tm11 3.213975 1_555
Os8 Tm10 3.213975 1_555
Os9 Tm2 3.156185 1_555
Os9 Tm3 3.156185 1_544
Os9 Tm8 3.213975 1_645
Os9 Tm9 3.213975 1_654
Os10 Os4 2.903662 1_555
Os10 Os5 2.903662 1_555
Os10 Tm4 3.156185 1_555
Os10 Tm5 3.156185 1_555
Os10 Tm11 3.213975 1_655
Os10 Tm10 3.213975 1_655
Os11 Os7 2.903662 1_555
Os11 Os6 2.903662 1_544
Os11 Tm7 3.156185 1_555
Os11 Tm6 3.156185 1_544
Os11 Tm8 3.213975 1_545
Os11 Tm9 3.213975 1_554
