# generated using pymatgen
data_MgCdPd2
_symmetry_space_group_name_H-M   'P 1'
_cell_length_a   4.53585486
_cell_length_b   4.53585486
_cell_length_c   4.53585486
_cell_angle_alpha   60.00000000
_cell_angle_beta   60.00000000
_cell_angle_gamma   60.00000000
_symmetry_Int_Tables_number   1
_chemical_formula_structural   MgCdPd2
_chemical_formula_sum   'Mg1 Cd1 Pd2'
_cell_volume   65.98761781
_cell_formula_units_Z   1
loop_
 _symmetry_equiv_pos_site_id
 _symmetry_equiv_pos_as_xyz
  1  'x, y, z'
loop_
 _atom_site_type_symbol
 _atom_site_label
 _atom_site_symmetry_multiplicity
 _atom_site_fract_x
 _atom_site_fract_y
 _atom_site_fract_z
 _atom_site_occupancy
  Mg  Mg0  1  -0.00000000  -0.00000000  -0.00000000  1
  Cd  Cd0  1  0.50000000  0.50000000  0.50000000  1
  Pd  Pd0  1  0.25000000  0.25000000  0.25000000  1
  Pd  Pd1  1  0.75000000  0.75000000  0.75000000  1
loop_
_geom_bond_atom_site_label_1
_geom_bond_atom_site_label_2
_geom_bond_distance
_geom_bond_site_symmetry_2
Mg0 Pd0 2.777632 1_554
Mg0 Pd1 2.777632 1_444
Mg0 Pd0 2.777632 1_555
Mg0 Pd1 2.777632 1_454
Mg0 Pd0 2.777632 1_545
Mg0 Pd0 2.777632 1_455
Mg0 Pd1 2.777632 1_445
Mg0 Pd1 2.777632 1_544
Cd0 Pd1 2.777632 1_554
Cd0 Pd0 2.777632 1_565
Cd0 Pd0 2.777632 1_655
Cd0 Pd1 2.777632 1_455
Cd0 Pd0 2.777632 1_555
Cd0 Pd1 2.777632 1_555
Cd0 Pd1 2.777632 1_545
Cd0 Pd0 2.777632 1_556
