# generated using pymatgen
data_RbDy(SO6)2
_symmetry_space_group_name_H-M   'P 1'
_cell_length_a   6.09460609
_cell_length_b   9.15192795
_cell_length_c   20.01302000
_cell_angle_alpha   90.00000000
_cell_angle_beta   90.00000000
_cell_angle_gamma   94.49813697
_symmetry_Int_Tables_number   1
_chemical_formula_structural   RbDy(SO6)2
_chemical_formula_sum   'Rb4 Dy4 S8 O48'
_cell_volume   1112.83588410
_cell_formula_units_Z   4
loop_
 _symmetry_equiv_pos_site_id
 _symmetry_equiv_pos_as_xyz
  1  'x, y, z'
loop_
 _atom_site_type_symbol
 _atom_site_label
 _atom_site_symmetry_multiplicity
 _atom_site_fract_x
 _atom_site_fract_y
 _atom_site_fract_z
 _atom_site_occupancy
  Rb  Rb0  1  0.84314500  0.86468500  0.71072800  1
  Rb  Rb1  1  0.15685500  0.13531500  0.28927200  1
  Rb  Rb2  1  0.15685500  0.63531500  0.21072800  1
  Rb  Rb3  1  0.84314500  0.36468500  0.78927200  1
  Dy  Dy0  1  0.38134200  0.72175600  0.86046200  1
  Dy  Dy1  1  0.61865800  0.27824400  0.13953800  1
  Dy  Dy2  1  0.61865800  0.77824400  0.36046200  1
  Dy  Dy3  1  0.38134200  0.22175600  0.63953800  1
  S  S0  1  0.36777900  0.59072100  0.72153200  1
  S  S1  1  0.63222100  0.40927900  0.27846800  1
  S  S2  1  0.63222100  0.90927900  0.22153200  1
  S  S3  1  0.36777900  0.09072100  0.77846800  1
  S  S4  1  0.81280100  0.74742800  0.93005600  1
  S  S5  1  0.18719900  0.25257200  0.06994400  1
  S  S6  1  0.18719900  0.75257200  0.43005600  1
  S  S7  1  0.81280100  0.24742800  0.56994400  1
  O  O0  1  0.19054800  0.99580700  0.62590800  1
  O  O1  1  0.80945200  0.00419300  0.37409200  1
  O  O2  1  0.80945200  0.50419300  0.12590800  1
  O  O3  1  0.19054800  0.49580700  0.87409200  1
  O  O4  1  0.65383900  0.61364700  0.92220900  1
  O  O5  1  0.34616100  0.38635300  0.07779100  1
  O  O6  1  0.34616100  0.88635300  0.42220900  1
  O  O7  1  0.65383900  0.11364700  0.57779100  1
  O  O8  1  0.83107500  0.87898500  0.26437000  1
  O  O9  1  0.16892500  0.12101500  0.73563000  1
  O  O10  1  0.16892500  0.62101500  0.76437000  1
  O  O11  1  0.83107500  0.37898500  0.23563000  1
  O  O12  1  0.44248000  0.99279400  0.97485400  1
  O  O13  1  0.55752000  0.00720600  0.02514600  1
  O  O14  1  0.55752000  0.50720600  0.47485400  1
  O  O15  1  0.44248000  0.49279400  0.52514600  1
  O  O16  1  0.76266300  0.72564400  0.57077000  1
  O  O17  1  0.23733700  0.27435600  0.42923000  1
  O  O18  1  0.23733700  0.77435600  0.07077000  1
  O  O19  1  0.76266300  0.22564400  0.92923000  1
  O  O20  1  0.39033700  0.69114900  0.66564600  1
  O  O21  1  0.60966300  0.30885100  0.33435400  1
  O  O22  1  0.60966300  0.80885100  0.16564600  1
  O  O23  1  0.39033700  0.19114900  0.83435400  1
  O  O24  1  0.71485100  0.85941500  0.88545600  1
  O  O25  1  0.28514900  0.14058500  0.11454400  1
  O  O26  1  0.28514900  0.64058500  0.38545600  1
  O  O27  1  0.71485100  0.35941500  0.61454400  1
  O  O28  1  0.34776000  0.93371300  0.79874200  1
  O  O29  1  0.65224000  0.06628700  0.20125800  1
  O  O30  1  0.65224000  0.56628700  0.29874200  1
  O  O31  1  0.34776000  0.43371300  0.70125800  1
  O  O32  1  0.55829200  0.61643300  0.77073600  1
  O  O33  1  0.44170800  0.38356700  0.22926400  1
  O  O34  1  0.44170800  0.88356700  0.27073600  1
  O  O35  1  0.55829200  0.11643300  0.72926400  1
  O  O36  1  0.84520900  0.79395600  0.99833200  1
  O  O37  1  0.15479100  0.20604400  0.00166800  1
  O  O38  1  0.15479100  0.70604400  0.49833200  1
  O  O39  1  0.84520900  0.29395600  0.50166800  1
  O  O40  1  0.69101400  0.79803400  0.52515600  1
  O  O41  1  0.30898600  0.20196600  0.47484400  1
  O  O42  1  0.30898600  0.70196600  0.02515600  1
  O  O43  1  0.69101400  0.29803400  0.97484400  1
  O  O44  1  0.03276300  0.71789500  0.89844500  1
  O  O45  1  0.96723700  0.28210500  0.10155500  1
  O  O46  1  0.96723700  0.78210500  0.39844500  1
  O  O47  1  0.03276300  0.21789500  0.60155500  1
loop_
_geom_bond_atom_site_label_1
_geom_bond_atom_site_label_2
_geom_bond_distance
_geom_bond_site_symmetry_2
Dy0 O44 2.254019 1_555
Dy0 O3 2.307697 1_555
Dy0 O28 2.322235 1_555
Dy0 O32 2.340876 1_555
Dy0 O4 2.349862 1_555
Dy0 O24 2.359499 1_555
Dy0 O10 2.457047 1_555
Dy1 O45 2.254019 1_555
Dy1 O2 2.307697 1_555
Dy1 O29 2.322235 1_555
Dy1 O33 2.340876 1_555
Dy1 O5 2.349862 1_555
Dy1 O25 2.359499 1_555
Dy1 O11 2.457047 1_555
Dy2 O46 2.254019 1_555
Dy2 O1 2.307697 1_565
Dy2 O30 2.322235 1_555
Dy2 O34 2.340876 1_555
Dy2 O6 2.349862 1_555
Dy2 O26 2.359499 1_555
Dy2 O8 2.457047 1_555
Dy3 O47 2.254019 1_555
Dy3 O0 2.307697 1_545
Dy3 O31 2.322235 1_555
Dy3 O35 2.340876 1_555
Dy3 O7 2.349862 1_555
Dy3 O27 2.359499 1_555
Dy3 O9 2.457047 1_555
O0 Rb0 2.899298 1_455
O1 Rb1 2.899298 1_655
O2 Rb2 2.899298 1_655
O3 Rb3 2.899298 1_455
O4 S4 1.508723 1_555
O5 S5 1.508723 1_555
O6 S6 1.508723 1_555
O7 S7 1.508723 1_555
O8 S2 1.527532 1_555
O8 Rb1 2.993877 1_665
O8 Rb2 3.280599 1_655
O9 S3 1.527532 1_555
O9 Rb0 2.993877 1_445
O9 Rb3 3.280599 1_455
O10 S0 1.527532 1_555
O10 Rb3 2.993877 1_455
O10 Rb0 3.280599 1_455
O11 S1 1.527532 1_555
O11 Rb2 2.993877 1_655
O11 Rb1 3.280599 1_655
O12 O13 1.227802 1_566
O14 O15 1.227802 1_555
O16 O40 1.228135 1_555
O16 Rb0 3.099586 1_555
O17 O41 1.228135 1_555
O17 Rb1 3.099586 1_555
O18 O42 1.228135 1_555
O18 Rb2 3.099586 1_555
O19 O43 1.228135 1_555
O19 Rb3 3.099586 1_555
O20 S0 1.447332 1_555
O20 Rb0 3.203865 1_555
O21 S1 1.447332 1_555
O21 Rb1 3.203865 1_555
O22 S2 1.447332 1_555
O22 Rb2 3.203865 1_555
O23 S3 1.447332 1_555
O23 Rb3 3.203865 1_555
O24 S4 1.516394 1_555
O25 S5 1.516394 1_555
O26 S6 1.516394 1_555
O27 S7 1.516394 1_555
O28 S3 1.488883 1_565
O29 S2 1.488883 1_545
O30 S1 1.488883 1_555
O31 S0 1.488883 1_555
O32 S0 1.526548 1_555
O32 Rb0 2.999904 1_555
O32 Rb3 3.014507 1_555
O33 S1 1.526548 1_555
O33 Rb1 2.999904 1_555
O33 Rb2 3.014507 1_555
O34 S2 1.526548 1_555
O34 Rb2 2.999904 1_555
O34 Rb1 3.014507 1_565
O35 S3 1.526548 1_555
O35 Rb3 2.999904 1_555
O35 Rb0 3.014507 1_545
O36 S4 1.440214 1_555
O37 S5 1.440214 1_555
O38 S6 1.440214 1_555
O39 S7 1.440214 1_555
O44 S4 1.525539 1_455
O45 S5 1.525539 1_655
O46 S6 1.525539 1_655
O47 S7 1.525539 1_455
