# generated using pymatgen
data_NaMg2H3(SO4)2
_symmetry_space_group_name_H-M   'P 1'
_cell_length_a   7.93841661
_cell_length_b   7.93841661
_cell_length_c   9.21360997
_cell_angle_alpha   62.95351814
_cell_angle_beta   62.95351814
_cell_angle_gamma   47.50608734
_symmetry_Int_Tables_number   1
_chemical_formula_structural   NaMg2H3(SO4)2
_chemical_formula_sum   'Na2 Mg4 H6 S4 O16'
_cell_volume   371.55565603
_cell_formula_units_Z   2
loop_
 _symmetry_equiv_pos_site_id
 _symmetry_equiv_pos_as_xyz
  1  'x, y, z'
loop_
 _atom_site_type_symbol
 _atom_site_label
 _atom_site_symmetry_multiplicity
 _atom_site_fract_x
 _atom_site_fract_y
 _atom_site_fract_z
 _atom_site_occupancy
  Na  Na0  1  0.62892200  0.62892200  0.90601400  1
  Na  Na1  1  0.37107800  0.37107800  0.09398600  1
  Mg  Mg0  1  0.50000000  0.00000000  0.50000000  1
  Mg  Mg1  1  0.00000000  0.50000000  0.50000000  1
  Mg  Mg2  1  0.99006600  0.99006600  0.18727300  1
  Mg  Mg3  1  0.00993400  0.00993400  0.81272700  1
  H  H0  1  0.89009000  0.89009000  0.49567900  1
  H  H1  1  0.10991000  0.10991000  0.50432100  1
  H  H2  1  0.01747700  0.26289000  0.27360300  1
  H  H3  1  0.98252300  0.73711000  0.72639700  1
  H  H4  1  0.26289000  0.01747700  0.27360300  1
  H  H5  1  0.73711000  0.98252300  0.72639700  1
  S  S0  1  0.22629200  0.22629200  0.83735900  1
  S  S1  1  0.77370800  0.77370800  0.16264100  1
  S  S2  1  0.51666900  0.51666900  0.70765800  1
  S  S3  1  0.48333100  0.48333100  0.29234200  1
  O  O0  1  0.45800300  0.06140400  0.72227300  1
  O  O1  1  0.54199700  0.93859600  0.27772700  1
  O  O2  1  0.93859600  0.54199700  0.27772700  1
  O  O3  1  0.06140400  0.45800300  0.72227300  1
  O  O4  1  0.10352000  0.10352000  0.92323900  1
  O  O5  1  0.89648000  0.89648000  0.07676100  1
  O  O6  1  0.64108400  0.64108400  0.62768500  1
  O  O7  1  0.35891600  0.35891600  0.37231500  1
  O  O8  1  0.33038900  0.69370800  0.16757700  1
  O  O9  1  0.66961100  0.30629200  0.83242300  1
  O  O10  1  0.69370800  0.33038900  0.16757700  1
  O  O11  1  0.29989500  0.66203600  0.82888400  1
  O  O12  1  0.85640900  0.85640900  0.42642400  1
  O  O13  1  0.14359100  0.14359100  0.57357600  1
  O  O14  1  0.09644300  0.09644300  0.28539000  1
  O  O15  1  0.90355700  0.90355700  0.71461000  1
loop_
_geom_bond_atom_site_label_1
_geom_bond_atom_site_label_2
_geom_bond_distance
_geom_bond_site_symmetry_2
Na0 O10 2.444416 1_556
Na0 O8 2.444416 1_556
Na0 O6 2.481358 1_555
Na0 O3 2.646455 1_655
Na0 O0 2.646455 1_565
Na0 O9 2.717740 1_555
Na0 O11 2.826120 1_555
Na1 O9 2.444416 1_554
Na1 O11 2.445706 1_554
Na1 O7 2.481358 1_555
Na1 O1 2.646455 1_545
Na1 O2 2.646455 1_455
Na1 O8 2.717740 1_555
Na1 O10 2.717740 1_555
Mg0 O12 2.089312 1_545
Mg0 O13 2.089312 1_555
Mg0 O7 2.143626 1_555
Mg0 O6 2.143626 1_545
Mg0 O0 2.147132 1_555
Mg0 O1 2.147132 1_545
Mg1 O12 2.089312 1_455
Mg1 O13 2.089312 1_555
Mg1 O7 2.143626 1_555
Mg1 O6 2.143626 1_455
Mg1 O3 2.147132 1_555
Mg1 O2 2.147132 1_455
Mg2 O10 2.054740 1_565
Mg2 O8 2.054740 1_655
Mg2 O5 2.064509 1_555
Mg2 O12 2.091733 1_555
Mg2 O14 2.143699 1_665
Mg2 O4 2.156656 1_664
Mg3 O9 2.054740 1_455
Mg3 O4 2.064509 1_555
Mg3 O11 2.072930 1_545
Mg3 O13 2.091733 1_555
Mg3 O15 2.143699 1_445
Mg3 O5 2.156656 1_446
H0 O12 0.978278 1_555
H1 O13 0.978278 1_555
H2 O14 0.981338 1_555
H3 O15 0.981338 1_555
H4 O14 0.981338 1_555
H5 O15 0.981338 1_555
O0 S0 1.567405 1_555
O1 S1 1.567405 1_555
O2 S1 1.567405 1_555
O3 S0 1.567405 1_555
O4 S0 1.551287 1_555
O5 S1 1.551287 1_555
O6 S2 1.577368 1_555
O7 S3 1.577368 1_555
O8 S3 1.539013 1_555
O9 S2 1.539013 1_555
O10 S3 1.539013 1_555
O11 S2 1.510568 1_555
