# generated using pymatgen
data_Dy4FeSe7
_symmetry_space_group_name_H-M   'P 1'
_cell_length_a   6.80826129
_cell_length_b   6.80826129
_cell_length_c   11.94160676
_cell_angle_alpha   76.42626024
_cell_angle_beta   76.42626024
_cell_angle_gamma   33.74053866
_symmetry_Int_Tables_number   1
_chemical_formula_structural   Dy4FeSe7
_chemical_formula_sum   'Dy4 Fe1 Se7'
_cell_volume   298.05507328
_cell_formula_units_Z   1
loop_
 _symmetry_equiv_pos_site_id
 _symmetry_equiv_pos_as_xyz
  1  'x, y, z'
loop_
 _atom_site_type_symbol
 _atom_site_label
 _atom_site_symmetry_multiplicity
 _atom_site_fract_x
 _atom_site_fract_y
 _atom_site_fract_z
 _atom_site_occupancy
  Dy  Dy0  1  0.69402400  0.69402400  0.20569900  1
  Dy  Dy1  1  0.30544800  0.30544800  0.80118900  1
  Dy  Dy2  1  0.99978200  0.99978200  0.00603000  1
  Dy  Dy3  1  0.11283700  0.11283700  0.56449800  1
  Fe  Fe0  1  0.88875400  0.88875400  0.42444500  1
  Se  Se0  1  0.74695500  0.74695500  0.63764700  1
  Se  Se1  1  0.27046600  0.27046600  0.35357900  1
  Se  Se2  1  0.33744000  0.33744000  0.05091800  1
  Se  Se3  1  0.66069500  0.66069500  0.94883200  1
  Se  Se4  1  0.03000900  0.03000900  0.22853600  1
  Se  Se5  1  0.96454900  0.96454900  0.78396300  1
  Se  Se6  1  0.48904200  0.48904200  0.49466400  1
loop_
_geom_bond_atom_site_label_1
_geom_bond_atom_site_label_2
_geom_bond_distance
_geom_bond_site_symmetry_2
Dy0 Se4 2.874002 1_565
Dy0 Se4 2.874002 1_655
Dy0 Se1 2.979468 1_565
Dy0 Se1 2.979468 1_655
Dy0 Se2 3.019637 1_655
Dy0 Se2 3.019637 1_565
Dy0 Se3 3.201720 1_554
Dy1 Se5 2.834596 1_545
Dy1 Se5 2.834596 1_455
Dy1 Se3 2.989792 1_455
Dy1 Se3 2.989792 1_545
Dy1 Se0 3.004808 1_455
Dy1 Se0 3.004808 1_545
Dy1 Se2 3.110768 1_556
Dy2 Se4 2.780026 1_665
Dy2 Se5 2.800033 1_554
Dy2 Se3 2.839773 1_654
Dy2 Se3 2.839773 1_564
Dy2 Se2 2.847777 1_565
Dy2 Se2 2.847777 1_655
Dy3 Se6 2.803780 1_455
Dy3 Se6 2.803780 1_545
Dy3 Se1 2.832880 1_555
Dy3 Se5 2.849239 1_445
Dy3 Se0 2.910292 1_545
Dy3 Se0 2.910292 1_455
Fe0 Se4 2.597859 1_665
Fe0 Se6 2.617657 1_565
Fe0 Se6 2.617657 1_655
Fe0 Se0 2.754741 1_555
Fe0 Se1 2.763239 1_565
Fe0 Se1 2.763239 1_655
