# generated using pymatgen
data_NaYb3Ti2(SbO7)2
_symmetry_space_group_name_H-M   'P 1'
_cell_length_a   7.26802124
_cell_length_b   7.26802124
_cell_length_c   7.23138670
_cell_angle_alpha   60.71788757
_cell_angle_beta   60.71788757
_cell_angle_gamma   60.53585039
_symmetry_Int_Tables_number   1
_chemical_formula_structural   NaYb3Ti2(SbO7)2
_chemical_formula_sum   'Na1 Yb3 Ti2 Sb2 O14'
_cell_volume   274.11488147
_cell_formula_units_Z   1
loop_
 _symmetry_equiv_pos_site_id
 _symmetry_equiv_pos_as_xyz
  1  'x, y, z'
loop_
 _atom_site_type_symbol
 _atom_site_label
 _atom_site_symmetry_multiplicity
 _atom_site_fract_x
 _atom_site_fract_y
 _atom_site_fract_z
 _atom_site_occupancy
  Na  Na0  1  0.00000000  0.00000000  0.00000000  1
  Yb  Yb0  1  0.00000000  0.00000000  0.50000000  1
  Yb  Yb1  1  0.50000000  0.00000000  0.00000000  1
  Yb  Yb2  1  0.00000000  0.50000000  0.00000000  1
  Ti  Ti0  1  0.50000000  0.50000000  0.50000000  1
  Ti  Ti1  1  0.50000000  0.50000000  0.00000000  1
  Sb  Sb0  1  0.00000000  0.50000000  0.50000000  1
  Sb  Sb1  1  0.50000000  0.00000000  0.50000000  1
  O  O0  1  0.56910200  0.56910200  0.18191900  1
  O  O1  1  0.17060700  0.17060700  0.57373400  1
  O  O2  1  0.17725300  0.57504400  0.57667700  1
  O  O3  1  0.56446600  0.17896900  0.17484500  1
  O  O4  1  0.17896900  0.56446600  0.17484500  1
  O  O5  1  0.57504400  0.17725300  0.57667700  1
  O  O6  1  0.43089800  0.43089800  0.81808100  1
  O  O7  1  0.82939300  0.82939300  0.42626600  1
  O  O8  1  0.82274700  0.42495600  0.42332300  1
  O  O9  1  0.43553400  0.82103100  0.82515500  1
  O  O10  1  0.82103100  0.43553400  0.82515500  1
  O  O11  1  0.42495600  0.82274700  0.42332300  1
  O  O12  1  0.86825800  0.86825800  0.87031100  1
  O  O13  1  0.13174200  0.13174200  0.12968900  1
loop_
_geom_bond_atom_site_label_1
_geom_bond_atom_site_label_2
_geom_bond_distance
_geom_bond_site_symmetry_2
Na0 O13 2.317739 1_555
Na0 O12 2.317739 1_444
Na0 O7 2.571279 1_445
Na0 O1 2.571279 1_554
Na0 O9 2.637012 1_544
Na0 O10 2.637012 1_454
Na0 O4 2.637012 1_545
Na0 O3 2.637012 1_455
O0 Ti1 1.943157 1_555
O0 Ti0 1.945061 1_555
O0 Yb2 2.619091 1_655
O0 Yb1 2.619091 1_565
O1 Sb1 2.007729 1_555
O1 Sb0 2.007729 1_555
O1 Yb0 2.483033 1_555
O2 Ti0 1.967807 1_555
O2 Sb0 1.987573 1_555
O2 Yb2 2.555058 1_556
O2 Yb0 2.572093 1_565
O3 Ti1 1.969886 1_555
O3 Sb1 1.992532 1_555
O3 Yb1 2.509580 1_555
O4 Ti1 1.969886 1_555
O4 Sb0 1.992532 1_555
O4 Yb2 2.509580 1_555
O5 Ti0 1.967807 1_555
O5 Sb1 1.987573 1_555
O5 Yb1 2.555058 1_556
O5 Yb0 2.572093 1_655
O6 Ti1 1.943157 1_556
O6 Ti0 1.945061 1_555
O6 Yb1 2.619091 1_556
O6 Yb2 2.619091 1_556
O7 Sb1 2.007729 1_565
O7 Sb0 2.007729 1_655
O7 Yb0 2.483033 1_665
O8 Ti0 1.967807 1_555
O8 Sb0 1.987573 1_655
O8 Yb2 2.555058 1_655
O8 Yb0 2.572093 1_655
O9 Ti1 1.969886 1_556
O9 Sb1 1.992532 1_565
O9 Yb1 2.509580 1_566
O10 Ti1 1.969886 1_556
O10 Sb0 1.992532 1_655
O10 Yb2 2.509580 1_656
O11 Ti0 1.967807 1_555
O11 Sb1 1.987573 1_565
O11 Yb1 2.555058 1_565
O11 Yb0 2.572093 1_565
O12 Yb2 2.204964 1_656
O12 Yb1 2.204964 1_566
O12 Yb0 2.211347 1_665
O13 Yb1 2.204964 1_555
O13 Yb2 2.204964 1_555
O13 Yb0 2.211347 1_555
