# generated using pymatgen
data_UCoC2
_symmetry_space_group_name_H-M   'P 1'
_cell_length_a   3.46902323
_cell_length_b   3.46902323
_cell_length_c   7.27608227
_cell_angle_alpha   90.00000000
_cell_angle_beta   90.00000000
_cell_angle_gamma   90.00000000
_symmetry_Int_Tables_number   1
_chemical_formula_structural   UCoC2
_chemical_formula_sum   'U2 Co2 C4'
_cell_volume   87.56126296
_cell_formula_units_Z   2
loop_
 _symmetry_equiv_pos_site_id
 _symmetry_equiv_pos_as_xyz
  1  'x, y, z'
loop_
 _atom_site_type_symbol
 _atom_site_label
 _atom_site_symmetry_multiplicity
 _atom_site_fract_x
 _atom_site_fract_y
 _atom_site_fract_z
 _atom_site_occupancy
  U  U0  1  0.00000000  0.50000000  0.31808745  1
  U  U1  1  0.50000000  0.00000000  0.68197195  1
  Co  Co0  1  0.50000000  0.50000000  -0.00007046  1
  Co  Co1  1  0.00000000  -0.00000000  -0.00007046  1
  C  C0  1  -0.00000000  0.50000000  0.84468032  1
  C  C1  1  0.50000000  0.00000000  0.15537776  1
  C  C2  1  -0.00000000  0.50000000  0.64163939  1
  C  C3  1  0.50000000  0.00000000  0.35838306  1
loop_
_geom_bond_atom_site_label_1
_geom_bond_atom_site_label_2
_geom_bond_distance
_geom_bond_site_symmetry_2
C0 C2 1.477343 1_555
C0 Co0 2.069913 1_456
C0 Co1 2.069913 1_566
C0 Co0 2.069913 1_556
C0 Co1 2.069913 1_556
C1 C3 1.477083 1_555
C1 Co0 2.070704 1_555
C1 Co0 2.070704 1_545
C1 Co1 2.070704 1_555
C1 Co1 2.070704 1_655
C2 U0 2.354191 1_555
C2 U1 2.470462 1_455
C2 U1 2.470462 1_555
C2 U1 2.470462 1_565
C2 U1 2.470462 1_465
C3 U1 2.354459 1_555
C3 U0 2.470430 1_555
C3 U0 2.470430 1_545
C3 U0 2.470430 1_645
C3 U0 2.470430 1_655
