# generated using pymatgen
data_La7SmMn6(FeO10)2
_symmetry_space_group_name_H-M   'P 1'
_cell_length_a   11.31857117
_cell_length_b   11.87240719
_cell_length_c   17.85379378
_cell_angle_alpha   109.40438066
_cell_angle_beta   108.56547841
_cell_angle_gamma   90.01575311
_symmetry_Int_Tables_number   1
_chemical_formula_structural   La7SmMn6(FeO10)2
_chemical_formula_sum   'La28 Sm4 Mn24 Fe8 O80'
_cell_volume   2129.98651203
_cell_formula_units_Z   4
loop_
 _symmetry_equiv_pos_site_id
 _symmetry_equiv_pos_as_xyz
  1  'x, y, z'
loop_
 _atom_site_type_symbol
 _atom_site_label
 _atom_site_symmetry_multiplicity
 _atom_site_fract_x
 _atom_site_fract_y
 _atom_site_fract_z
 _atom_site_occupancy
  La  La0  1  0.29745100  0.06515200  0.11051900  1
  La  La1  1  0.30395100  0.06433900  0.61010600  1
  La  La2  1  0.30006800  0.56488000  0.61088200  1
  La  La3  1  0.79467100  0.06519500  0.61083500  1
  La  La4  1  0.79963700  0.56574800  0.10943300  1
  La  La5  1  0.79997300  0.56471000  0.61136700  1
  La  La6  1  0.18908100  0.43394100  0.38839200  1
  La  La7  1  0.18964100  0.43641600  0.89145500  1
  La  La8  1  0.19224800  0.93453100  0.38734500  1
  La  La9  1  0.19137700  0.93570600  0.88999700  1
  La  La10  1  0.68822100  0.43559900  0.38877800  1
  La  La11  1  0.68270100  0.93453800  0.38841900  1
  La  La12  1  0.69008000  0.93424700  0.89053100  1
  La  La13  1  0.04441400  0.29477700  0.11066200  1
  La  La14  1  0.05026700  0.29707400  0.61249700  1
  La  La15  1  0.04893800  0.79765400  0.61049400  1
  La  La16  1  0.55370700  0.29405600  0.11047500  1
  La  La17  1  0.54965900  0.29526000  0.61202900  1
  La  La18  1  0.54696500  0.79496200  0.11033000  1
  La  La19  1  0.55098300  0.79419000  0.61107600  1
  La  La20  1  0.43911000  0.20489100  0.38818400  1
  La  La21  1  0.44462200  0.20609000  0.88975800  1
  La  La22  1  0.43742500  0.70513000  0.38768300  1
  La  La23  1  0.44006200  0.70422100  0.88968600  1
  La  La24  1  0.93654800  0.20074100  0.38731200  1
  La  La25  1  0.93476700  0.20575600  0.88961200  1
  La  La26  1  0.93737900  0.70352200  0.38686400  1
  La  La27  1  0.94065600  0.70392900  0.89089700  1
  Sm  Sm0  1  0.29402300  0.56680400  0.10938200  1
  Sm  Sm1  1  0.79694600  0.06520900  0.10867100  1
  Sm  Sm2  1  0.68884500  0.43482000  0.89178300  1
  Sm  Sm3  1  0.04822100  0.79375800  0.11002100  1
  Mn  Mn0  1  0.00241400  0.00010100  0.49954600  1
  Mn  Mn1  1  0.00191700  0.49968700  0.49967700  1
  Mn  Mn2  1  0.50166000  0.49980300  0.49979500  1
  Mn  Mn3  1  0.25358700  0.25169000  0.00121800  1
  Mn  Mn4  1  0.25191800  0.24894700  0.49956900  1
  Mn  Mn5  1  0.25226100  0.75024100  0.49940700  1
  Mn  Mn6  1  0.75162800  0.24941200  0.50022600  1
  Mn  Mn7  1  0.75121900  0.75048700  0.49929000  1
  Mn  Mn8  1  0.10371400  0.09656700  0.24748700  1
  Mn  Mn9  1  0.10885100  0.10094700  0.75043900  1
  Mn  Mn10  1  0.10924900  0.59897700  0.24827100  1
  Mn  Mn11  1  0.10899900  0.59906900  0.75060800  1
  Mn  Mn12  1  0.60970800  0.09730600  0.24848900  1
  Mn  Mn13  1  0.60945600  0.09915400  0.75306400  1
  Mn  Mn14  1  0.60418600  0.59848000  0.24721800  1
  Mn  Mn15  1  0.60986000  0.59795400  0.75228800  1
  Mn  Mn16  1  0.35717000  0.40166100  0.24731300  1
  Mn  Mn17  1  0.36053100  0.40165200  0.75121200  1
  Mn  Mn18  1  0.35291700  0.89895600  0.24483900  1
  Mn  Mn19  1  0.35843900  0.90121200  0.75031200  1
  Mn  Mn20  1  0.85824900  0.40032800  0.24953700  1
  Mn  Mn21  1  0.85684000  0.40117200  0.75203600  1
  Mn  Mn22  1  0.85866900  0.90038100  0.24811300  1
  Mn  Mn23  1  0.86019100  0.90191700  0.75148100  1
  Fe  Fe0  1  0.00410200  0.99891200  0.00148900  1
  Fe  Fe1  1  0.00378200  0.50130200  0.00148700  1
  Fe  Fe2  1  0.50538000  0.99996500  0.00057500  1
  Fe  Fe3  1  0.50247800  0.99982400  0.49964700  1
  Fe  Fe4  1  0.50429200  0.50175300  0.00124000  1
  Fe  Fe5  1  0.25421600  0.75024400  0.00101600  1
  Fe  Fe6  1  0.75355700  0.24996000  0.00044800  1
  Fe  Fe7  1  0.75601100  0.75067300  0.00125600  1
  O  O0  1  0.11141500  0.11402800  0.47133100  1
  O  O1  1  0.11074800  0.11604900  0.97673900  1
  O  O2  1  0.10944900  0.61775600  0.47376100  1
  O  O3  1  0.11426500  0.61757400  0.97988700  1
  O  O4  1  0.61209500  0.11758900  0.48070800  1
  O  O5  1  0.61529500  0.11614100  0.97821500  1
  O  O6  1  0.61012900  0.61942600  0.47668600  1
  O  O7  1  0.61477900  0.61391900  0.97518800  1
  O  O8  1  0.13595200  0.38598600  0.02728400  1
  O  O9  1  0.13591500  0.38229700  0.52604000  1
  O  O10  1  0.13520400  0.87927100  0.02693900  1
  O  O11  1  0.13903600  0.88500500  0.52640800  1
  O  O12  1  0.63502700  0.37991600  0.02090200  1
  O  O13  1  0.63385400  0.38094200  0.52382800  1
  O  O14  1  0.63986400  0.88433100  0.02522000  1
  O  O15  1  0.63109800  0.88234900  0.51828800  1
  O  O16  1  0.36665000  0.11021400  0.47981000  1
  O  O17  1  0.36596100  0.10985600  0.97565700  1
  O  O18  1  0.36019900  0.60724400  0.47519700  1
  O  O19  1  0.36270600  0.61218100  0.97645100  1
  O  O20  1  0.85966500  0.10689700  0.47337000  1
  O  O21  1  0.86260500  0.10922300  0.97983800  1
  O  O22  1  0.85978800  0.60747600  0.47442000  1
  O  O23  1  0.86055100  0.60664200  0.97432600  1
  O  O24  1  0.38741000  0.40173100  0.02844800  1
  O  O25  1  0.38424100  0.39131000  0.52319500  1
  O  O26  1  0.38557500  0.89245500  0.02274800  1
  O  O27  1  0.38740200  0.88895900  0.52002500  1
  O  O28  1  0.88252300  0.39079200  0.02056200  1
  O  O29  1  0.88510900  0.39263300  0.52539700  1
  O  O30  1  0.88929300  0.89360800  0.02943000  1
  O  O31  1  0.88585100  0.89269400  0.52538600  1
  O  O32  1  0.10260500  0.12166400  0.14042100  1
  O  O33  1  0.10547100  0.12133200  0.64066900  1
  O  O34  1  0.10544900  0.62198100  0.13985000  1
  O  O35  1  0.10283600  0.62136700  0.64113000  1
  O  O36  1  0.60979200  0.11812400  0.14034100  1
  O  O37  1  0.60137000  0.12007100  0.64342200  1
  O  O38  1  0.60727500  0.62124200  0.14014200  1
  O  O39  1  0.60296400  0.61874200  0.64203600  1
  O  O40  1  0.46043500  0.38073800  0.35796100  1
  O  O41  1  0.46862300  0.38313300  0.86051000  1
  O  O42  1  0.45469000  0.88053300  0.35571700  1
  O  O43  1  0.45983800  0.88068700  0.86044800  1
  O  O44  1  0.96195700  0.37788600  0.35890800  1
  O  O45  1  0.96288800  0.38047700  0.86096700  1
  O  O46  1  0.96501800  0.87865600  0.35766900  1
  O  O47  1  0.95967100  0.88117900  0.86196200  1
  O  O48  1  0.35680300  0.26850500  0.14039500  1
  O  O49  1  0.35312100  0.27155400  0.64108500  1
  O  O50  1  0.35233000  0.76653200  0.13855900  1
  O  O51  1  0.35556300  0.77241100  0.64043400  1
  O  O52  1  0.84668400  0.26904700  0.13919300  1
  O  O53  1  0.85011600  0.27091200  0.64155200  1
  O  O54  1  0.86107500  0.76958700  0.14042000  1
  O  O55  1  0.84902400  0.77172600  0.64037500  1
  O  O56  1  0.21312900  0.22479000  0.35784800  1
  O  O57  1  0.21546900  0.23079100  0.86060100  1
  O  O58  1  0.21182500  0.72901400  0.35862100  1
  O  O59  1  0.20896500  0.72946100  0.86116200  1
  O  O60  1  0.70833500  0.22884100  0.35960200  1
  O  O61  1  0.70890600  0.23164800  0.86203800  1
  O  O62  1  0.70773900  0.72881700  0.35803600  1
  O  O63  1  0.71046700  0.73045700  0.86173200  1
  O  O64  1  0.42185100  0.06867100  0.24921600  1
  O  O65  1  0.42200700  0.06996100  0.75061600  1
  O  O66  1  0.41427600  0.57051700  0.24404400  1
  O  O67  1  0.42073100  0.57084500  0.74985500  1
  O  O68  1  0.91408100  0.07034200  0.24453700  1
  O  O69  1  0.92081800  0.07134300  0.75076200  1
  O  O70  1  0.92246500  0.56839900  0.24898700  1
  O  O71  1  0.92110000  0.56914300  0.75062900  1
  O  O72  1  0.17051800  0.42944900  0.24970800  1
  O  O73  1  0.17301800  0.43076100  0.75139400  1
  O  O74  1  0.16461100  0.92523500  0.24364900  1
  O  O75  1  0.17078300  0.93064700  0.75033400  1
  O  O76  1  0.67104000  0.43120100  0.24994800  1
  O  O77  1  0.67101700  0.42979700  0.75640900  1
  O  O78  1  0.67152400  0.92874900  0.24998700  1
  O  O79  1  0.67198100  0.92995800  0.75036600  1
loop_
_geom_bond_atom_site_label_1
_geom_bond_atom_site_label_2
_geom_bond_distance
_geom_bond_site_symmetry_2
La0 O48 2.340907 1_555
La0 O64 2.413959 1_555
La0 O32 2.472122 1_555
La0 O26 2.552623 1_545
La0 O10 2.556159 1_545
La0 O1 2.877728 1_554
La0 O17 2.952679 1_554
La1 O49 2.359458 1_555
La1 O65 2.416063 1_555
La1 O33 2.517637 1_555
La1 O11 2.521501 1_545
La1 O27 2.560765 1_545
La1 O16 2.846881 1_555
La1 O0 2.961347 1_555
La1 O37 3.253642 1_555
La2 O51 2.380757 1_555
La2 O67 2.398322 1_555
La2 O35 2.500559 1_555
La2 O25 2.532246 1_555
La2 O9 2.543490 1_555
La2 O18 2.905846 1_555
La2 O2 2.949731 1_555
La3 O53 2.355778 1_555
La3 O69 2.427448 1_555
La3 O37 2.471702 1_555
La3 O31 2.552349 1_545
La3 O15 2.556716 1_545
La3 O4 2.821116 1_555
La3 O20 2.960848 1_555
La4 O54 2.347508 1_555
La4 O70 2.425659 1_555
La4 O38 2.448686 1_555
La4 O28 2.543866 1_555
La4 O12 2.577328 1_555
La4 O7 2.857902 1_554
La4 O23 2.892519 1_554
La5 O55 2.363788 1_555
La5 O71 2.409715 1_555
La5 O39 2.495694 1_555
La5 O29 2.513461 1_555
La5 O13 2.568810 1_555
La5 O6 2.927401 1_555
La5 O22 2.927979 1_555
La6 O56 2.394266 1_555
La6 O72 2.399734 1_555
La6 O44 2.496632 1_455
La6 O18 2.520738 1_555
La6 O2 2.561970 1_555
La6 O25 2.890100 1_555
La6 O9 2.953012 1_555
La7 O57 2.357550 1_555
La7 O73 2.425253 1_555
La7 O45 2.488704 1_455
La7 O3 2.539460 1_555
La7 O19 2.548569 1_555
La7 O24 2.888925 1_556
La7 O8 2.917473 1_556
La8 O58 2.346661 1_555
La8 O74 2.448005 1_555
La8 O46 2.496667 1_455
La8 O0 2.525525 1_565
La8 O16 2.570421 1_565
La8 O27 2.881597 1_555
La8 O11 2.965608 1_555
La9 O59 2.351241 1_555
La9 O75 2.409548 1_555
La9 O17 2.547712 1_565
La9 O47 2.548612 1_455
La9 O1 2.552123 1_565
La9 O26 2.864339 1_556
La9 O10 2.984793 1_556
La10 O60 2.361141 1_555
La10 O76 2.406507 1_555
La10 O40 2.496357 1_555
La10 O22 2.511331 1_555
La10 O6 2.572183 1_555
La10 O29 2.922671 1_555
La10 O13 2.932172 1_555
La11 O62 2.357505 1_555
La11 O78 2.411896 1_555
La11 O42 2.490614 1_555
La11 O20 2.549650 1_565
La11 O4 2.556699 1_565
La11 O15 2.813892 1_555
La11 O31 2.956542 1_555
La12 O63 2.328247 1_555
La12 O79 2.428133 1_555
La12 O43 2.522892 1_555
La12 O5 2.535592 1_565
La12 O21 2.546612 1_565
La12 O14 2.876447 1_556
La12 O30 2.949869 1_556
La13 O32 2.333178 1_555
La13 O72 2.421051 1_555
La13 O52 2.488068 1_455
La13 O8 2.552379 1_555
La13 O28 2.566582 1_455
La13 O21 2.839204 1_454
La13 O1 2.925085 1_554
La14 O33 2.344082 1_555
La14 O73 2.405954 1_555
La14 O9 2.517189 1_555
La14 O53 2.520458 1_455
La14 O29 2.553859 1_455
La14 O20 2.963184 1_455
La14 O0 3.004350 1_555
La15 O35 2.366573 1_555
La15 O75 2.411485 1_555
La15 O31 2.518686 1_455
La15 O55 2.525230 1_455
La15 O11 2.525475 1_555
La15 O2 2.931085 1_555
La15 O22 2.936688 1_455
La16 O36 2.361220 1_555
La16 O76 2.411323 1_555
La16 O48 2.491938 1_555
La16 O12 2.542398 1_555
La16 O24 2.609943 1_555
La16 O5 2.873733 1_554
La16 O17 2.886974 1_554
La16 O52 3.219700 1_555
La17 O37 2.355662 1_555
La17 O77 2.468003 1_555
La17 O49 2.475553 1_555
La17 O13 2.538139 1_555
La17 O25 2.575534 1_555
La17 O16 2.850883 1_555
La17 O4 2.866293 1_555
La18 O38 2.345616 1_555
La18 O78 2.419991 1_555
La18 O50 2.457792 1_555
La18 O26 2.550802 1_555
La18 O14 2.574585 1_555
La18 O19 2.854567 1_554
La18 O7 2.960562 1_554
La19 O39 2.355670 1_555
La19 O79 2.413451 1_555
La19 O51 2.462108 1_555
La19 O27 2.576137 1_555
La19 O15 2.601983 1_555
La19 O6 2.868074 1_555
La19 O18 2.925446 1_555
La19 O55 3.270184 1_555
La20 O40 2.353556 1_555
La20 O64 2.415479 1_555
La20 O56 2.468728 1_555
La20 O16 2.586083 1_555
La20 O4 2.591502 1_555
La20 O13 2.885674 1_555
La20 O25 2.916087 1_555
La20 O60 3.273082 1_555
La21 O41 2.363029 1_555
La21 O65 2.403318 1_555
La21 O57 2.515210 1_555
La21 O17 2.546225 1_555
La21 O5 2.558405 1_555
La21 O12 2.821235 1_556
La21 O24 3.024224 1_556
La21 O61 3.213560 1_555
La22 O42 2.358183 1_555
La22 O66 2.459280 1_555
La22 O58 2.474738 1_555
La22 O6 2.545383 1_555
La22 O18 2.575173 1_555
La22 O27 2.844772 1_555
La22 O15 2.855181 1_555
La23 O43 2.347931 1_555
La23 O67 2.411039 1_555
La23 O19 2.519574 1_555
La23 O59 2.538615 1_555
La23 O7 2.560613 1_555
La23 O26 2.902477 1_556
La23 O14 2.935421 1_556
La24 O44 2.358874 1_555
La24 O68 2.433930 1_555
La24 O60 2.514872 1_555
La24 O20 2.519453 1_555
La24 O0 2.522720 1_655
La24 O9 2.960363 1_655
La24 O29 2.964771 1_555
La25 O45 2.339665 1_555
La25 O69 2.416395 1_555
La25 O61 2.484300 1_555
La25 O21 2.576736 1_555
La25 O1 2.578859 1_655
La25 O28 2.847813 1_556
La25 O8 2.957021 1_656
La26 O46 2.348726 1_555
La26 O70 2.402691 1_555
La26 O62 2.522337 1_555
La26 O2 2.522621 1_655
La26 O22 2.563831 1_555
La26 O31 2.954522 1_555
La26 O11 2.978007 1_655
La27 O47 2.352560 1_555
La27 O71 2.421843 1_555
La27 O23 2.525354 1_555
La27 O63 2.530619 1_555
La27 O3 2.555801 1_655
La27 O10 2.883379 1_656
La27 O30 2.956690 1_556
Mn0 O20 2.085812 1_455
Mn0 O31 2.087367 1_445
Mn0 O11 2.110178 1_545
Mn0 O0 2.110196 1_555
Mn0 O33 2.344879 1_555
Mn0 O46 2.358923 1_445
Mn1 O29 2.085114 1_455
Mn1 O22 2.086040 1_455
Mn1 O9 2.108718 1_555
Mn1 O2 2.109270 1_555
Mn1 O44 2.339458 1_455
Mn1 O35 2.346841 1_555
Mn2 O18 2.075864 1_555
Mn2 O25 2.076088 1_555
Mn2 O6 2.098916 1_555
Mn2 O13 2.099747 1_555
Mn2 O40 2.344587 1_555
Mn2 O39 2.349484 1_555
Mn3 O8 2.105759 1_555
Mn3 O1 2.116400 1_554
Mn3 O17 2.126442 1_554
Mn3 O24 2.158238 1_555
Mn3 O48 2.323970 1_555
Mn3 O57 2.333850 1_554
Mn4 O0 2.073758 1_555
Mn4 O9 2.086356 1_555
Mn4 O25 2.097712 1_555
Mn4 O16 2.104885 1_555
Mn4 O49 2.339690 1_555
Mn4 O56 2.342557 1_555
Mn5 O11 2.077664 1_555
Mn5 O2 2.084541 1_555
Mn5 O18 2.100344 1_555
Mn5 O27 2.103513 1_555
Mn5 O58 2.331837 1_555
Mn5 O51 2.336847 1_555
Mn6 O13 2.077178 1_555
Mn6 O4 2.085876 1_555
Mn6 O20 2.103207 1_555
Mn6 O29 2.105777 1_555
Mn6 O60 2.326442 1_555
Mn6 O53 2.335633 1_555
Mn7 O6 2.074906 1_555
Mn7 O15 2.087198 1_555
Mn7 O31 2.100825 1_555
Mn7 O22 2.106582 1_555
Mn7 O55 2.331547 1_555
Mn7 O62 2.333872 1_555
Mn8 O32 2.026347 1_555
Mn8 O56 2.045856 1_555
Mn8 O74 2.134402 1_545
Mn8 O68 2.150207 1_455
Mn9 O33 2.041647 1_555
Mn9 O57 2.043037 1_555
Mn9 O75 2.139729 1_545
Mn9 O69 2.159126 1_455
Mn10 O34 2.030210 1_555
Mn10 O58 2.033316 1_555
Mn10 O72 2.134550 1_555
Mn10 O70 2.149736 1_455
Mn11 O59 2.029592 1_555
Mn11 O35 2.037747 1_555
Mn11 O73 2.128635 1_555
Mn11 O71 2.156264 1_455
Mn12 O36 2.026709 1_555
Mn12 O60 2.037321 1_555
Mn12 O78 2.125883 1_545
Mn12 O64 2.157983 1_555
Mn13 O61 2.024275 1_555
Mn13 O37 2.027534 1_555
Mn13 O79 2.120490 1_545
Mn13 O65 2.133996 1_555
Mn14 O38 2.028480 1_555
Mn14 O62 2.042254 1_555
Mn14 O76 2.135611 1_555
Mn14 O66 2.154846 1_555
Mn15 O63 2.032037 1_555
Mn15 O39 2.041237 1_555
Mn15 O77 2.129842 1_555
Mn15 O67 2.149200 1_555
Mn16 O48 2.032938 1_555
Mn16 O40 2.046046 1_555
Mn16 O66 2.131002 1_555
Mn16 O72 2.149983 1_555
Mn17 O41 2.029297 1_555
Mn17 O49 2.033623 1_555
Mn17 O67 2.131185 1_555
Mn17 O73 2.151276 1_555
Mn18 O50 2.020408 1_555
Mn18 O42 2.032077 1_555
Mn18 O64 2.128493 1_565
Mn18 O74 2.148581 1_555
Mn19 O43 2.030906 1_555
Mn19 O51 2.038106 1_555
Mn19 O65 2.126274 1_565
Mn19 O75 2.152752 1_555
Mn20 O52 2.030505 1_555
Mn20 O44 2.036703 1_555
Mn20 O70 2.127628 1_555
Mn20 O76 2.152404 1_555
Mn21 O45 2.028464 1_555
Mn21 O53 2.041026 1_555
Mn21 O71 2.133232 1_555
Mn21 O77 2.152344 1_555
Mn22 O54 2.039219 1_555
Mn22 O46 2.043892 1_555
Mn22 O68 2.139987 1_565
Mn22 O78 2.153930 1_555
Mn23 O47 2.031696 1_555
Mn23 O55 2.035420 1_555
Mn23 O69 2.130532 1_565
Mn23 O79 2.151060 1_555
Fe0 O30 2.080101 1_455
Fe0 O1 2.081682 1_564
Fe0 O21 2.091146 1_464
Fe0 O10 2.103964 1_555
Fe0 O47 2.302264 1_454
Fe0 O32 2.314245 1_565
Fe1 O3 2.068319 1_554
Fe1 O8 2.075046 1_555
Fe1 O28 2.077167 1_455
Fe1 O23 2.081091 1_454
Fe1 O34 2.305764 1_555
Fe1 O45 2.331310 1_454
Fe2 O5 2.071407 1_564
Fe2 O26 2.073967 1_555
Fe2 O17 2.080868 1_564
Fe2 O14 2.090781 1_555
Fe2 O43 2.313959 1_554
Fe2 O36 2.320904 1_565
Fe3 O16 2.041921 1_565
Fe3 O15 2.043611 1_555
Fe3 O27 2.044590 1_555
Fe3 O4 2.046668 1_565
Fe3 O42 2.366006 1_555
Fe3 O37 2.369520 1_565
Fe4 O24 2.046446 1_555
Fe4 O7 2.081982 1_554
Fe4 O12 2.100716 1_555
Fe4 O19 2.101894 1_554
Fe4 O38 2.311265 1_555
Fe4 O41 2.337063 1_554
Fe5 O19 2.062368 1_554
Fe5 O10 2.074216 1_555
Fe5 O3 2.087052 1_554
Fe5 O26 2.099464 1_555
Fe5 O50 2.291014 1_555
Fe5 O59 2.309554 1_554
Fe6 O12 2.062149 1_555
Fe6 O5 2.077194 1_554
Fe6 O28 2.078759 1_555
Fe6 O21 2.081462 1_554
Fe6 O61 2.292800 1_554
Fe6 O52 2.294074 1_555
Fe7 O14 2.082673 1_555
Fe7 O30 2.087278 1_555
Fe7 O23 2.091027 1_554
Fe7 O7 2.104935 1_554
Fe7 O63 2.305115 1_554
Fe7 O54 2.320671 1_555
O3 Sm0 2.789168 1_556
O3 Sm3 2.865276 1_556
O5 Sm1 2.811567 1_556
O7 Sm2 2.476586 1_555
O8 Sm0 2.489003 1_555
O10 Sm3 2.475945 1_555
O12 Sm2 2.828893 1_554
O14 Sm1 2.485481 1_565
O19 Sm0 2.924285 1_556
O21 Sm1 2.828963 1_556
O23 Sm2 2.507328 1_555
O23 Sm3 2.908749 1_656
O24 Sm0 2.477524 1_555
O28 Sm2 2.820428 1_554
O30 Sm3 2.489547 1_655
O30 Sm1 2.504459 1_565
O34 Sm3 2.316271 1_555
O34 Sm0 2.404987 1_555
O36 Sm1 2.393543 1_555
O41 Sm2 2.405543 1_555
O50 Sm0 2.299823 1_555
O52 Sm1 2.323389 1_555
O54 Sm3 2.387260 1_655
O61 Sm2 2.319033 1_555
O66 Sm0 2.341068 1_555
O68 Sm1 2.345088 1_555
O74 Sm3 2.320973 1_555
O77 Sm2 2.340840 1_555
