# generated using pymatgen
data_Li9Co7O16
_symmetry_space_group_name_H-M   'P 1'
_cell_length_a   5.10274000
_cell_length_b   7.64513786
_cell_length_c   7.75849814
_cell_angle_alpha   97.54923729
_cell_angle_beta   102.57589272
_cell_angle_gamma   102.91200263
_symmetry_Int_Tables_number   1
_chemical_formula_structural   Li9Co7O16
_chemical_formula_sum   'Li9 Co7 O16'
_cell_volume   282.73406317
_cell_formula_units_Z   1
loop_
 _symmetry_equiv_pos_site_id
 _symmetry_equiv_pos_as_xyz
  1  'x, y, z'
loop_
 _atom_site_type_symbol
 _atom_site_label
 _atom_site_symmetry_multiplicity
 _atom_site_fract_x
 _atom_site_fract_y
 _atom_site_fract_z
 _atom_site_occupancy
  Li  Li0  1  0.50789500  0.75366300  0.75280100  1
  Li  Li1  1  0.49744700  0.62727300  0.37702800  1
  Li  Li2  1  0.50000000  0.00000000  0.50000000  1
  Li  Li3  1  0.49737400  0.88140900  0.12414700  1
  Li  Li4  1  0.49210500  0.24633700  0.24719900  1
  Li  Li5  1  0.50262600  0.11859100  0.87585300  1
  Li  Li6  1  0.50000000  0.50000000  0.00000000  1
  Li  Li7  1  0.50255300  0.37272700  0.62297200  1
  Li  Li8  1  0.00000000  0.00000000  0.00000000  1
  Co  Co0  1  0.99745000  0.62663300  0.87692800  1
  Co  Co1  1  0.00255000  0.37336700  0.12307200  1
  Co  Co2  1  0.00000000  0.50000000  0.50000000  1
  Co  Co3  1  0.99733700  0.24314600  0.75469400  1
  Co  Co4  1  0.00069700  0.12427700  0.37094100  1
  Co  Co5  1  0.99930300  0.87572300  0.62905900  1
  Co  Co6  1  0.00266300  0.75685400  0.24530600  1
  O  O0  1  0.77695200  0.73656400  0.99328300  1
  O  O1  1  0.76863300  0.62434800  0.64146800  1
  O  O2  1  0.76577800  0.00941200  0.74678800  1
  O  O3  1  0.76385600  0.87174900  0.37821500  1
  O  O4  1  0.77251000  0.25864500  0.50019900  1
  O  O5  1  0.77607300  0.14642200  0.13453200  1
  O  O6  1  0.78545500  0.50095900  0.24481800  1
  O  O7  1  0.78121700  0.38717200  0.88943200  1
  O  O8  1  0.22749000  0.74135500  0.49980100  1
  O  O9  1  0.21878300  0.61282800  0.11056800  1
  O  O10  1  0.23422200  0.99058800  0.25321200  1
  O  O11  1  0.22392700  0.85357800  0.86546800  1
  O  O12  1  0.22304800  0.26343600  0.00671700  1
  O  O13  1  0.23614400  0.12825100  0.62178500  1
  O  O14  1  0.21454500  0.49904100  0.75518200  1
  O  O15  1  0.23136700  0.37565200  0.35853200  1
loop_
_geom_bond_atom_site_label_1
_geom_bond_atom_site_label_2
_geom_bond_distance
_geom_bond_site_symmetry_2
Li0 O11 2.077983 1_555
Li0 O1 2.087483 1_555
Li0 O0 2.100469 1_555
Li0 O2 2.111300 1_565
Li0 O8 2.139480 1_555
Li0 O14 2.179358 1_555
Li1 O3 2.048406 1_555
Li1 O15 2.059112 1_555
Li1 O8 2.110829 1_555
Li1 O9 2.213077 1_555
Li1 O1 2.216810 1_555
Li1 O6 2.274855 1_555
Li2 O2 2.073631 1_555
Li2 O10 2.073631 1_545
Li2 O13 2.137158 1_555
Li2 O3 2.137158 1_545
Li2 O8 2.147806 1_545
Li2 O4 2.147806 1_555
Li3 O10 2.090294 1_555
Li3 O11 2.134422 1_554
Li3 O3 2.157769 1_555
Li3 O5 2.180226 1_565
Li3 O9 2.195815 1_555
Li3 O0 2.309474 1_554
Li4 O5 2.077983 1_555
Li4 O15 2.087483 1_555
Li4 O12 2.100469 1_555
Li4 O10 2.111300 1_545
Li4 O4 2.139480 1_555
Li4 O6 2.179358 1_555
Li5 O2 2.090294 1_555
Li5 O5 2.134422 1_556
Li5 O13 2.157769 1_555
Li5 O11 2.180226 1_545
Li5 O7 2.195815 1_555
Li5 O12 2.309474 1_556
Li6 O12 2.045821 1_555
Li6 O0 2.045821 1_554
Li6 O7 2.105684 1_554
Li6 O9 2.105684 1_555
Li6 O6 2.125161 1_555
Li6 O14 2.125161 1_554
Li7 O13 2.048406 1_555
Li7 O1 2.059112 1_555
Li7 O4 2.110829 1_555
Li7 O7 2.213077 1_555
Li7 O15 2.216810 1_555
Li7 O14 2.274855 1_555
Li8 O0 2.067969 1_444
Li8 O12 2.067969 1_555
Li8 O2 2.084747 1_454
Li8 O10 2.084747 1_545
Li8 O5 2.105269 1_455
Li8 O11 2.105269 1_544
Co0 O0 1.858166 1_555
Co0 O11 1.882271 1_655
Co0 O1 1.937653 1_555
Co0 O14 1.940975 1_655
Co0 O7 1.941366 1_555
Co0 O9 1.945401 1_656
Co1 O12 1.858166 1_555
Co1 O5 1.882271 1_455
Co1 O15 1.937653 1_555
Co1 O6 1.940975 1_455
Co1 O9 1.941366 1_555
Co1 O7 1.945401 1_454
Co2 O4 1.948467 1_455
Co2 O8 1.948467 1_555
Co2 O14 2.044956 1_555
Co2 O6 2.044956 1_455
Co2 O1 2.072188 1_455
Co2 O15 2.072188 1_555
Co3 O2 1.894479 1_555
Co3 O12 2.008391 1_656
Co3 O14 2.020634 1_655
Co3 O13 2.026660 1_655
Co3 O7 2.064857 1_555
Co3 O4 2.089172 1_555
Co4 O5 1.989842 1_455
Co4 O10 2.017883 1_545
Co4 O15 2.043294 1_555
Co4 O13 2.044966 1_555
Co4 O4 2.046731 1_455
Co4 O3 2.051001 1_445
Co5 O11 1.989842 1_655
Co5 O2 2.017883 1_565
Co5 O1 2.043294 1_555
Co5 O3 2.044966 1_555
Co5 O8 2.046731 1_655
Co5 O13 2.051001 1_665
Co6 O10 1.894479 1_555
Co6 O0 2.008391 1_454
Co6 O6 2.020634 1_455
Co6 O3 2.026660 1_455
Co6 O9 2.064857 1_555
Co6 O8 2.089172 1_555
