# generated using pymatgen
data_SbAsH6(CF4)2
_symmetry_space_group_name_H-M   'P 1'
_cell_length_a   10.76925940
_cell_length_b   10.76925940
_cell_length_c   10.76925940
_cell_angle_alpha   118.25121995
_cell_angle_beta   116.31507835
_cell_angle_gamma   94.78140745
_symmetry_Int_Tables_number   1
_chemical_formula_structural   SbAsH6(CF4)2
_chemical_formula_sum   'Sb4 As4 H24 C8 F32'
_cell_volume   915.68664726
_cell_formula_units_Z   4
loop_
 _symmetry_equiv_pos_site_id
 _symmetry_equiv_pos_as_xyz
  1  'x, y, z'
loop_
 _atom_site_type_symbol
 _atom_site_label
 _atom_site_symmetry_multiplicity
 _atom_site_fract_x
 _atom_site_fract_y
 _atom_site_fract_z
 _atom_site_occupancy
  Sb  Sb0  1  0.57803200  0.32803200  0.25000000  1
  Sb  Sb1  1  0.92196800  0.17196800  0.75000000  1
  Sb  Sb2  1  0.42196800  0.67196800  0.75000000  1
  Sb  Sb3  1  0.07803200  0.82803200  0.25000000  1
  As  As0  1  0.03055600  0.25000000  0.28055600  1
  As  As1  1  0.46944400  0.75000000  0.21944400  1
  As  As2  1  0.96944400  0.75000000  0.71944400  1
  As  As3  1  0.53055600  0.25000000  0.78055600  1
  H  H0  1  0.18016700  0.18313000  0.15334000  1
  H  H1  1  0.31983300  0.47317300  0.00296200  1
  H  H2  1  0.97021000  0.31687000  0.49703700  1
  H  H3  1  0.52979000  0.02682700  0.34666000  1
  H  H4  1  0.81983300  0.81687000  0.84666000  1
  H  H5  1  0.68016700  0.52682700  0.99703700  1
  H  H6  1  0.02979000  0.68313000  0.50296200  1
  H  H7  1  0.47021000  0.97317300  0.65334000  1
  H  H8  1  0.29013300  0.26857600  0.37801200  1
  H  H9  1  0.20986700  0.58787900  0.97844300  1
  H  H10  1  0.10943600  0.23142400  0.52155700  1
  H  H11  1  0.39056400  0.91212100  0.12198800  1
  H  H12  1  0.70986700  0.73142400  0.62198800  1
  H  H13  1  0.79013300  0.41212100  0.02155700  1
  H  H14  1  0.89056400  0.76857600  0.47844300  1
  H  H15  1  0.60943600  0.08787900  0.87801200  1
  H  H16  1  0.24048500  0.38687500  0.30107400  1
  H  H17  1  0.25951500  0.56058900  0.14638900  1
  H  H18  1  0.91419900  0.11312500  0.35361100  1
  H  H19  1  0.58580100  0.93941100  0.19892600  1
  H  H20  1  0.75951500  0.61312500  0.69892600  1
  H  H21  1  0.74048500  0.43941100  0.85361100  1
  H  H22  1  0.08580100  0.88687500  0.64638900  1
  H  H23  1  0.41419900  0.06058900  0.80107400  1
  C  C0  1  0.20738800  0.27457500  0.27674500  1
  C  C1  1  0.29261200  0.56935700  0.06718800  1
  C  C2  1  0.00217000  0.22542500  0.43281200  1
  C  C3  1  0.49783000  0.93064300  0.22325500  1
  C  C4  1  0.79261200  0.72542500  0.72325500  1
  C  C5  1  0.70738800  0.43064300  0.93281200  1
  C  C6  1  0.99783000  0.77457500  0.56718800  1
  C  C7  1  0.50217000  0.06935700  0.77674500  1
  F  F0  1  0.38879400  0.16420600  0.08034000  1
  F  F1  1  0.11120600  0.19154700  0.77541200  1
  F  F2  1  0.91613500  0.33579400  0.72458800  1
  F  F3  1  0.58386500  0.30845300  0.41966000  1
  F  F4  1  0.61120600  0.83579400  0.91966000  1
  F  F5  1  0.88879400  0.80845300  0.22458800  1
  F  F6  1  0.08386500  0.66420600  0.27541200  1
  F  F7  1  0.41613500  0.69154700  0.58034000  1
  F  F8  1  0.68023100  0.19106400  0.20803900  1
  F  F9  1  0.81976900  0.02780800  0.51083300  1
  F  F10  1  0.01697500  0.30893600  0.98916700  1
  F  F11  1  0.48302500  0.47219200  0.29196100  1
  F  F12  1  0.31976900  0.80893600  0.79196100  1
  F  F13  1  0.18023100  0.97219200  0.48916700  1
  F  F14  1  0.98302500  0.69106400  0.01083300  1
  F  F15  1  0.51697500  0.52780800  0.70803900  1
  F  F16  1  0.57822400  0.35216500  0.08258800  1
  F  F17  1  0.92177600  0.00436400  0.77394100  1
  F  F18  1  0.73042200  0.14783500  0.72605900  1
  F  F19  1  0.76957800  0.49563600  0.41741200  1
  F  F20  1  0.42177600  0.64783500  0.91741200  1
  F  F21  1  0.07822400  0.99563600  0.22605900  1
  F  F22  1  0.26957800  0.85216500  0.27394100  1
  F  F23  1  0.23042200  0.50436400  0.58258800  1
  F  F24  1  0.97252500  0.39393800  0.27628500  1
  F  F25  1  0.52747500  0.80376000  0.42141200  1
  F  F26  1  0.88234700  0.10606200  0.07858800  1
  F  F27  1  0.61765300  0.69624000  0.22371500  1
  F  F28  1  0.02747500  0.60606200  0.72371500  1
  F  F29  1  0.47252500  0.19624000  0.57858800  1
  F  F30  1  0.11765300  0.89393800  0.92141200  1
  F  F31  1  0.38234700  0.30376000  0.77628500  1
loop_
_geom_bond_atom_site_label_1
_geom_bond_atom_site_label_2
_geom_bond_distance
_geom_bond_site_symmetry_2
As0 F26 1.731762 1_455
As0 F24 1.731766 1_455
As0 C2 1.921924 1_555
As0 C0 1.921934 1_555
As1 F25 1.731756 1_555
As1 F27 1.731766 1_555
As1 C3 1.921934 1_555
As1 C1 1.921935 1_555
As2 F30 1.731762 1_655
As2 F28 1.731766 1_655
As2 C6 1.921924 1_555
As2 C4 1.921934 1_555
As3 F29 1.731756 1_555
As3 F31 1.731766 1_555
As3 C7 1.921934 1_555
As3 C5 1.921935 1_555
C0 H0 1.090604 1_555
C0 H8 1.096475 1_555
C0 H16 1.097123 1_555
C1 H1 1.090611 1_555
C1 H9 1.096481 1_554
C1 H17 1.097102 1_555
C2 H2 1.090608 1_455
C2 H10 1.096479 1_555
C2 H18 1.097126 1_455
C3 H3 1.090604 1_565
C3 H11 1.096475 1_555
C3 H19 1.097123 1_555
C4 H4 1.090604 1_555
C4 H12 1.096475 1_555
C4 H20 1.097123 1_555
C5 H5 1.090607 1_555
C5 H13 1.096481 1_556
C5 H21 1.097102 1_555
C6 H6 1.090612 1_655
C6 H14 1.096479 1_555
C6 H22 1.097126 1_655
C7 H7 1.090604 1_545
C7 H15 1.096475 1_555
C7 H23 1.097123 1_555
F0 Sb0 1.910984 1_555
F1 Sb1 1.910984 1_455
F2 Sb1 1.910984 1_555
F3 Sb0 1.910994 1_555
F4 Sb2 1.910984 1_555
F5 Sb3 1.910984 1_655
F6 Sb3 1.910984 1_555
F7 Sb2 1.910994 1_555
F8 Sb0 1.916216 1_555
F9 Sb1 1.916216 1_555
F10 Sb1 1.916216 1_455
F11 Sb0 1.916216 1_555
F12 Sb2 1.916216 1_555
F13 Sb3 1.916216 1_555
F14 Sb3 1.916216 1_655
F15 Sb2 1.916216 1_555
F16 Sb0 1.940310 1_555
F17 Sb1 1.940310 1_555
F18 Sb1 1.940321 1_555
F19 Sb0 1.940317 1_555
F20 Sb2 1.940310 1_555
F21 Sb3 1.940310 1_555
F22 Sb3 1.940321 1_555
F23 Sb2 1.940317 1_555
