# generated using pymatgen
data_Ce2HgPb
_symmetry_space_group_name_H-M   'P 1'
_cell_length_a   5.51754197
_cell_length_b   5.51754197
_cell_length_c   5.51754197
_cell_angle_alpha   60.00000000
_cell_angle_beta   60.00000000
_cell_angle_gamma   60.00000000
_symmetry_Int_Tables_number   1
_chemical_formula_structural   Ce2HgPb
_chemical_formula_sum   'Ce2 Hg1 Pb1'
_cell_volume   118.77415174
_cell_formula_units_Z   1
loop_
 _symmetry_equiv_pos_site_id
 _symmetry_equiv_pos_as_xyz
  1  'x, y, z'
loop_
 _atom_site_type_symbol
 _atom_site_label
 _atom_site_symmetry_multiplicity
 _atom_site_fract_x
 _atom_site_fract_y
 _atom_site_fract_z
 _atom_site_occupancy
  Ce  Ce0  1  0.25000000  0.25000000  0.25000000  1
  Ce  Ce1  1  0.75000000  0.75000000  0.75000000  1
  Hg  Hg0  1  0.50000000  0.50000000  0.50000000  1
  Pb  Pb0  1  -0.00000000  0.00000000  -0.00000000  1
loop_
_geom_bond_atom_site_label_1
_geom_bond_atom_site_label_2
_geom_bond_distance
_geom_bond_site_symmetry_2
Ce0 Hg0 3.378791 1_545
Ce0 Hg0 3.378791 1_555
Ce0 Hg0 3.378791 1_554
Ce0 Pb0 3.378791 1_556
Ce0 Pb0 3.378791 1_565
Ce0 Pb0 3.378791 1_555
Ce0 Hg0 3.378791 1_455
Ce0 Pb0 3.378791 1_655
Ce1 Pb0 3.378791 1_665
Ce1 Hg0 3.378791 1_555
Ce1 Hg0 3.378791 1_556
Ce1 Hg0 3.378791 1_565
Ce1 Pb0 3.378791 1_666
Ce1 Pb0 3.378791 1_656
Ce1 Hg0 3.378791 1_655
Ce1 Pb0 3.378791 1_566
