# generated using pymatgen
data_ErAlCu
_symmetry_space_group_name_H-M   'P 1'
_cell_length_a   6.93314523
_cell_length_b   6.93314523
_cell_length_c   3.96786232
_cell_angle_alpha   90.00000000
_cell_angle_beta   90.00000000
_cell_angle_gamma   120.00000542
_symmetry_Int_Tables_number   1
_chemical_formula_structural   ErAlCu
_chemical_formula_sum   'Er3 Al3 Cu3'
_cell_volume   165.17632417
_cell_formula_units_Z   3
loop_
 _symmetry_equiv_pos_site_id
 _symmetry_equiv_pos_as_xyz
  1  'x, y, z'
loop_
 _atom_site_type_symbol
 _atom_site_label
 _atom_site_symmetry_multiplicity
 _atom_site_fract_x
 _atom_site_fract_y
 _atom_site_fract_z
 _atom_site_occupancy
  Er  Er0  1  0.41489526  0.00000000  0.50000000  1
  Er  Er1  1  0.00000000  0.41489526  0.50000000  1
  Er  Er2  1  0.58510474  0.58510474  0.50000000  1
  Al  Al0  1  0.76558164  -0.00000000  -0.00000000  1
  Al  Al1  1  -0.00000000  0.76558164  -0.00000000  1
  Al  Al2  1  0.23441836  0.23441836  0.00000000  1
  Cu  Cu0  1  0.33333300  0.66666700  0.00000000  1
  Cu  Cu1  1  0.66666700  0.33333300  0.00000000  1
  Cu  Cu2  1  0.00000000  -0.00000000  0.50000000  1
loop_
_geom_bond_atom_site_label_1
_geom_bond_atom_site_label_2
_geom_bond_distance
_geom_bond_site_symmetry_2
Al0 Cu2 2.564652 1_655
Al0 Cu2 2.564652 1_654
Al0 Cu1 2.719583 1_555
Al0 Cu0 2.719588 1_545
Al0 Al2 2.815027 1_655
Al0 Al1 2.815027 1_645
Al0 Er0 3.138071 1_555
Al0 Er0 3.138071 1_554
Al0 Er1 3.190104 1_654
Al0 Er1 3.190104 1_655
Al0 Er2 3.190104 1_545
Al0 Er2 3.190104 1_544
Al1 Cu2 2.564652 1_564
Al1 Cu2 2.564652 1_565
Al1 Cu0 2.719583 1_555
Al1 Cu1 2.719588 1_455
Al1 Al2 2.815027 1_565
Al1 Er1 3.138071 1_554
Al1 Er1 3.138071 1_555
Al1 Er0 3.190104 1_565
Al1 Er0 3.190104 1_564
Al1 Er2 3.190104 1_454
Al1 Er2 3.190104 1_455
Al2 Cu2 2.564652 1_555
Al2 Cu2 2.564652 1_554
Al2 Cu0 2.719590 1_555
Al2 Cu1 2.719590 1_555
Al2 Er2 3.138071 1_555
Al2 Er2 3.138071 1_554
Al2 Er1 3.190104 1_554
Al2 Er1 3.190104 1_555
Al2 Er0 3.190104 1_555
Al2 Er0 3.190104 1_554
Cu0 Er0 2.879207 1_565
Cu0 Er0 2.879207 1_564
Cu0 Er1 2.879208 1_555
Cu0 Er1 2.879208 1_554
Cu0 Er2 2.879212 1_554
Cu0 Er2 2.879212 1_555
Cu1 Er1 2.879207 1_655
Cu1 Er1 2.879207 1_654
Cu1 Er0 2.879208 1_555
Cu1 Er0 2.879208 1_554
Cu1 Er2 2.879212 1_554
Cu1 Er2 2.879212 1_555
Cu2 Er2 2.876529 1_445
Cu2 Er1 2.876529 1_555
Cu2 Er0 2.876529 1_555
