# generated using pymatgen
data_Yb3SbO7
_symmetry_space_group_name_H-M   'P 1'
_cell_length_a   6.30825680
_cell_length_b   6.30825680
_cell_length_c   7.84138100
_cell_angle_alpha   90.00000000
_cell_angle_beta   90.00000000
_cell_angle_gamma   107.81332974
_symmetry_Int_Tables_number   1
_chemical_formula_structural   Yb3SbO7
_chemical_formula_sum   'Yb6 Sb2 O14'
_cell_volume   297.08095070
_cell_formula_units_Z   2
loop_
 _symmetry_equiv_pos_site_id
 _symmetry_equiv_pos_as_xyz
  1  'x, y, z'
loop_
 _atom_site_type_symbol
 _atom_site_label
 _atom_site_symmetry_multiplicity
 _atom_site_fract_x
 _atom_site_fract_y
 _atom_site_fract_z
 _atom_site_occupancy
  Yb  Yb0  1  0.53705100  0.99150200  0.75219000  1
  Yb  Yb1  1  0.46294900  0.00849800  0.25219000  1
  Yb  Yb2  1  0.00849800  0.46294900  0.74781000  1
  Yb  Yb3  1  0.99150200  0.53705100  0.24781000  1
  Yb  Yb4  1  0.51032000  0.51032000  0.00000000  1
  Yb  Yb5  1  0.48968000  0.48968000  0.50000000  1
  Sb  Sb0  1  0.99627600  0.99627600  0.00000000  1
  Sb  Sb1  1  0.00372400  0.00372400  0.50000000  1
  O  O0  1  0.62010900  0.37989100  0.75000000  1
  O  O1  1  0.37989100  0.62010900  0.25000000  1
  O  O2  1  0.93373600  0.06626400  0.75000000  1
  O  O3  1  0.06626400  0.93373600  0.25000000  1
  O  O4  1  0.32718200  0.08499900  0.97310600  1
  O  O5  1  0.67281800  0.91500100  0.47310600  1
  O  O6  1  0.91500100  0.67281800  0.52689400  1
  O  O7  1  0.08499900  0.32718200  0.02689400  1
  O  O8  1  0.38364700  0.61635300  0.75000000  1
  O  O9  1  0.61635300  0.38364700  0.25000000  1
  O  O10  1  0.32767100  0.06761300  0.53266800  1
  O  O11  1  0.67232900  0.93238700  0.03266800  1
  O  O12  1  0.93238700  0.67232900  0.96733200  1
  O  O13  1  0.06761300  0.32767100  0.46733200  1
loop_
_geom_bond_atom_site_label_1
_geom_bond_atom_site_label_2
_geom_bond_distance
_geom_bond_site_symmetry_2
O0 Yb4 2.312624 1_556
O0 Yb5 2.312624 1_555
O0 Yb2 2.343541 1_655
O0 Yb0 2.343541 1_545
O1 Yb4 2.312624 1_555
O1 Yb5 2.312624 1_555
O1 Yb1 2.343541 1_565
O1 Yb3 2.343541 1_455
O2 Sb1 2.073666 1_655
O2 Sb0 2.073666 1_546
O2 Yb2 2.400544 1_655
O2 Yb0 2.400544 1_545
O3 Sb0 2.073666 1_455
O3 Sb1 2.073666 1_565
O3 Yb1 2.400544 1_565
O3 Yb3 2.400544 1_455
O4 Sb0 2.000079 1_446
O4 Yb0 2.362025 1_545
O4 Yb1 2.451203 1_556
O4 Yb4 2.584830 1_556
O5 Sb1 2.000079 1_665
O5 Yb1 2.362025 1_565
O5 Yb0 2.451203 1_555
O5 Yb5 2.584830 1_555
O6 Sb1 2.000079 1_665
O6 Yb2 2.362025 1_655
O6 Yb3 2.451203 1_555
O6 Yb5 2.584830 1_555
O7 Sb0 2.000079 1_445
O7 Yb3 2.362025 1_455
O7 Yb2 2.451203 1_554
O7 Yb4 2.584830 1_555
O8 Yb0 2.266292 1_555
O8 Yb2 2.266292 1_555
O8 Yb4 2.292579 1_556
O8 Yb5 2.292579 1_555
O9 Yb1 2.266292 1_555
O9 Yb3 2.266292 1_555
O9 Yb4 2.292579 1_555
O9 Yb5 2.292579 1_555
O10 Sb1 1.974893 1_555
O10 Yb0 2.307848 1_545
O10 Yb1 2.428802 1_555
O10 Yb5 2.556207 1_555
O11 Sb0 1.974893 1_555
O11 Yb1 2.307848 1_565
O11 Yb0 2.428802 1_554
O11 Yb4 2.556207 1_555
O12 Sb0 1.974893 1_556
O12 Yb2 2.307848 1_655
O12 Yb3 2.428802 1_556
O12 Yb4 2.556207 1_556
O13 Sb1 1.974893 1_555
O13 Yb3 2.307848 1_455
O13 Yb2 2.428802 1_555
O13 Yb5 2.556207 1_555
