# generated using pymatgen
data_Li7Ta24O64
_symmetry_space_group_name_H-M   'P 1'
_cell_length_a   7.77092400
_cell_length_b   8.99884100
_cell_length_c   16.98158388
_cell_angle_alpha   89.80447661
_cell_angle_beta   90.00000000
_cell_angle_gamma   90.00000000
_symmetry_Int_Tables_number   1
_chemical_formula_structural   Li7Ta24O64
_chemical_formula_sum   'Li7 Ta24 O64'
_cell_volume   1187.50352032
_cell_formula_units_Z   1
loop_
 _symmetry_equiv_pos_site_id
 _symmetry_equiv_pos_as_xyz
  1  'x, y, z'
loop_
 _atom_site_type_symbol
 _atom_site_label
 _atom_site_symmetry_multiplicity
 _atom_site_fract_x
 _atom_site_fract_y
 _atom_site_fract_z
 _atom_site_occupancy
  Li  Li0  1  0.50000000  0.91479900  0.59249400  1
  Li  Li1  1  0.50000000  0.91116300  0.90803600  1
  Li  Li2  1  0.00000000  0.08811300  0.40810600  1
  Li  Li3  1  0.00000000  0.08895900  0.09175600  1
  Li  Li4  1  0.50000000  0.32333800  0.25064800  1
  Li  Li5  1  0.00000000  0.67986800  0.75090800  1
  Li  Li6  1  0.50000000  0.52556000  0.49338600  1
  Ta  Ta0  1  0.75584400  0.39276300  0.37006600  1
  Ta  Ta1  1  0.75276900  0.39577900  0.12679900  1
  Ta  Ta2  1  0.24415600  0.39276300  0.37006600  1
  Ta  Ta3  1  0.24723100  0.39577900  0.12679900  1
  Ta  Ta4  1  0.74816800  0.60673800  0.63005600  1
  Ta  Ta5  1  0.74726000  0.60444100  0.87325800  1
  Ta  Ta6  1  0.25183200  0.60673800  0.63005600  1
  Ta  Ta7  1  0.25274000  0.60444100  0.87325800  1
  Ta  Ta8  1  0.75118500  0.05201300  0.24953600  1
  Ta  Ta9  1  0.24881500  0.05201300  0.24953600  1
  Ta  Ta10  1  0.74848000  0.94801000  0.75020500  1
  Ta  Ta11  1  0.25152000  0.94801000  0.75020500  1
  Ta  Ta12  1  0.74799400  0.68431600  0.25107200  1
  Ta  Ta13  1  0.25200600  0.68431600  0.25107200  1
  Ta  Ta14  1  0.75167000  0.31532400  0.74955500  1
  Ta  Ta15  1  0.24833000  0.31532400  0.74955500  1
  Ta  Ta16  1  0.75152400  0.81323400  0.43987400  1
  Ta  Ta17  1  0.75095600  0.81102800  0.06111100  1
  Ta  Ta18  1  0.24847600  0.81323400  0.43987400  1
  Ta  Ta19  1  0.24904400  0.81102800  0.06111100  1
  Ta  Ta20  1  0.74909000  0.19153200  0.55992600  1
  Ta  Ta21  1  0.74905100  0.18878800  0.93905800  1
  Ta  Ta22  1  0.25091000  0.19153200  0.55992600  1
  Ta  Ta23  1  0.25094900  0.18878800  0.93905800  1
  O  O0  1  0.00000000  0.69644000  0.25081200  1
  O  O1  1  0.50000000  0.30319700  0.74952800  1
  O  O2  1  0.72595000  0.87458200  0.32518500  1
  O  O3  1  0.72664000  0.87507800  0.17651800  1
  O  O4  1  0.27405000  0.87458200  0.32518500  1
  O  O5  1  0.27336000  0.87507800  0.17651800  1
  O  O6  1  0.77348900  0.12526300  0.67430200  1
  O  O7  1  0.77368600  0.12482900  0.82374100  1
  O  O8  1  0.22651100  0.12526300  0.67430200  1
  O  O9  1  0.22631400  0.12482900  0.82374100  1
  O  O10  1  0.70655000  0.34290200  0.48030300  1
  O  O11  1  0.71743400  0.33332900  0.02042300  1
  O  O12  1  0.29345000  0.34290200  0.48030300  1
  O  O13  1  0.28256600  0.33332900  0.02042300  1
  O  O14  1  0.77739500  0.66332700  0.52075500  1
  O  O15  1  0.78245900  0.66656300  0.97989600  1
  O  O16  1  0.22260500  0.66332700  0.52075500  1
  O  O17  1  0.21754100  0.66656300  0.97989600  1
  O  O18  1  0.50000000  0.39054200  0.35822900  1
  O  O19  1  0.50000000  0.38728100  0.14394000  1
  O  O20  1  0.00000000  0.61736400  0.64303800  1
  O  O21  1  0.00000000  0.61213500  0.85640700  1
  O  O22  1  0.00000000  0.02006300  0.25036700  1
  O  O23  1  0.50000000  0.98103400  0.75030400  1
  O  O24  1  0.50000000  0.67367400  0.25015800  1
  O  O25  1  0.00000000  0.32659700  0.74982300  1
  O  O26  1  0.74574500  0.61836200  0.36944300  1
  O  O27  1  0.74631800  0.62004200  0.13222600  1
  O  O28  1  0.25425500  0.61836200  0.36944300  1
  O  O29  1  0.25368200  0.62004200  0.13222600  1
  O  O30  1  0.75562900  0.38107300  0.63127100  1
  O  O31  1  0.75378200  0.37974000  0.86819500  1
  O  O32  1  0.24437100  0.38107300  0.63127100  1
  O  O33  1  0.24621800  0.37974000  0.86819500  1
  O  O34  1  0.76080400  0.45011900  0.25080200  1
  O  O35  1  0.23919600  0.45011900  0.25080200  1
  O  O36  1  0.73827300  0.54924900  0.74955200  1
  O  O37  1  0.26172700  0.54924900  0.74955200  1
  O  O38  1  0.50000000  0.80340200  0.45602300  1
  O  O39  1  0.50000000  0.81646400  0.04567800  1
  O  O40  1  0.00000000  0.18792800  0.54096200  1
  O  O41  1  0.00000000  0.18351800  0.95460500  1
  O  O42  1  0.78711200  0.18630000  0.33886400  1
  O  O43  1  0.78681300  0.18969500  0.16300900  1
  O  O44  1  0.21288800  0.18630000  0.33886400  1
  O  O45  1  0.21318700  0.18969500  0.16300900  1
  O  O46  1  0.70888500  0.81132700  0.66253400  1
  O  O47  1  0.71399600  0.81047200  0.83709000  1
  O  O48  1  0.29111500  0.81132700  0.66253400  1
  O  O49  1  0.28600400  0.81047200  0.83709000  1
  O  O50  1  0.50000000  0.09843700  0.25057600  1
  O  O51  1  0.00000000  0.90246200  0.74886200  1
  O  O52  1  0.00000000  0.40885400  0.38985400  1
  O  O53  1  0.00000000  0.41192900  0.11360200  1
  O  O54  1  0.50000000  0.58264900  0.60656900  1
  O  O55  1  0.50000000  0.58815300  0.88673200  1
  O  O56  1  0.00000000  0.85153200  0.42787100  1
  O  O57  1  0.00000000  0.85519500  0.07391300  1
  O  O58  1  0.50000000  0.14900400  0.57267900  1
  O  O59  1  0.50000000  0.14482000  0.92620700  1
  O  O60  1  0.74706300  0.00110300  0.49924600  1
  O  O61  1  0.74998800  0.99994200  0.00009100  1
  O  O62  1  0.25293700  0.00110300  0.49924600  1
  O  O63  1  0.25001200  0.99994200  0.00009100  1
loop_
_geom_bond_atom_site_label_1
_geom_bond_atom_site_label_2
_geom_bond_distance
_geom_bond_site_symmetry_2
Li0 O58 2.133132 1_565
Li0 O48 2.215618 1_555
Li0 O46 2.215618 1_555
Li0 O38 2.528147 1_555
Li0 O62 2.605434 1_565
Li0 O60 2.605434 1_565
Li1 O59 2.126205 1_565
Li1 O49 2.246185 1_555
Li1 O47 2.246185 1_555
Li1 O39 2.485148 1_556
Li2 O56 2.154118 1_545
Li2 O42 2.212019 1_455
Li2 O44 2.212019 1_555
Li2 O40 2.431181 1_555
Li3 O57 2.126338 1_545
Li3 O45 2.244513 1_555
Li3 O43 2.244513 1_455
Li3 O41 2.476888 1_554
Li4 O19 1.899364 1_555
Li4 O18 1.926349 1_555
Li4 O50 2.023853 1_555
Li4 O34 2.325748 1_555
Li4 O35 2.325748 1_555
Li5 O21 1.890417 1_555
Li5 O20 1.918046 1_555
Li5 O51 2.003271 1_555
Li5 O37 2.349237 1_555
Li5 O36 2.349237 1_455
Li6 O54 1.991193 1_555
Li6 O12 2.308664 1_555
Li6 O10 2.308664 1_555
Li6 O14 2.530530 1_555
Li6 O16 2.530530 1_555
Li6 O38 2.577406 1_555
Li6 O18 2.600600 1_555
O0 Ta12 1.961360 1_455
O0 Ta13 1.961360 1_555
O1 Ta14 1.958751 1_555
O1 Ta15 1.958751 1_555
O2 Ta16 2.032259 1_555
O2 Ta8 2.055267 1_565
O2 Ta12 2.135311 1_555
O3 Ta8 2.030392 1_565
O3 Ta17 2.053391 1_555
O3 Ta12 2.135981 1_555
O4 Ta18 2.032259 1_555
O4 Ta9 2.055267 1_565
O4 Ta13 2.135311 1_555
O5 Ta9 2.030392 1_565
O5 Ta19 2.053391 1_555
O5 Ta13 2.135981 1_555
O6 Ta20 2.038662 1_555
O6 Ta10 2.056548 1_545
O6 Ta14 2.145217 1_555
O7 Ta10 2.035469 1_545
O7 Ta21 2.051928 1_555
O7 Ta14 2.130778 1_555
O8 Ta22 2.038662 1_555
O8 Ta11 2.056548 1_545
O8 Ta15 2.145217 1_555
O9 Ta11 2.035469 1_545
O9 Ta23 2.051928 1_555
O9 Ta15 2.130778 1_555
O10 Ta20 1.944329 1_555
O10 Ta0 1.961302 1_555
O11 Ta1 1.913464 1_555
O11 Ta21 1.916656 1_554
O12 Ta22 1.944329 1_555
O12 Ta2 1.961302 1_555
O13 Ta3 1.913464 1_555
O13 Ta23 1.916656 1_554
O14 Ta16 1.932359 1_555
O14 Ta4 1.936382 1_555
O15 Ta17 1.914234 1_556
O15 Ta5 1.916646 1_555
O16 Ta18 1.932359 1_555
O16 Ta6 1.936382 1_555
O17 Ta19 1.914234 1_556
O17 Ta7 1.916646 1_555
O18 Ta2 1.998387 1_555
O18 Ta0 1.998387 1_555
O19 Ta1 1.987133 1_555
O19 Ta3 1.987133 1_555
O20 Ta4 1.971702 1_455
O20 Ta6 1.971702 1_555
O21 Ta5 1.985933 1_455
O21 Ta7 1.985933 1_555
O22 Ta8 1.954826 1_455
O22 Ta9 1.954826 1_555
O23 Ta11 1.953655 1_555
O23 Ta10 1.953655 1_555
O24 Ta13 1.929586 1_555
O24 Ta12 1.929586 1_555
O25 Ta15 1.932424 1_555
O25 Ta14 1.932424 1_455
O26 Ta0 2.031637 1_555
O26 Ta12 2.094046 1_555
O26 Ta16 2.126502 1_555
O27 Ta1 2.021146 1_555
O27 Ta17 2.097453 1_555
O27 Ta12 2.101375 1_555
O28 Ta2 2.031637 1_555
O28 Ta13 2.094046 1_555
O28 Ta18 2.126502 1_555
O29 Ta3 2.021146 1_555
O29 Ta19 2.097453 1_555
O29 Ta13 2.101375 1_555
O30 Ta4 2.031585 1_555
O30 Ta14 2.092266 1_555
O30 Ta20 2.096135 1_555
O31 Ta5 2.024803 1_555
O31 Ta21 2.094766 1_555
O31 Ta14 2.098393 1_555
O32 Ta6 2.031585 1_555
O32 Ta15 2.092266 1_555
O32 Ta22 2.096135 1_555
O33 Ta7 2.024803 1_555
O33 Ta23 2.094766 1_555
O33 Ta15 2.098393 1_555
O34 Ta0 2.088673 1_555
O34 Ta12 2.109872 1_555
O34 Ta1 2.164325 1_555
O35 Ta2 2.088673 1_555
O35 Ta13 2.109872 1_555
O35 Ta3 2.164325 1_555
O36 Ta4 2.093839 1_555
O36 Ta14 2.107626 1_555
O36 Ta5 2.161415 1_555
O37 Ta6 2.093839 1_555
O37 Ta15 2.107626 1_555
O37 Ta7 2.161415 1_555
O38 Ta16 1.975659 1_555
O38 Ta18 1.975659 1_555
O39 Ta17 1.968277 1_555
O39 Ta19 1.968277 1_555
O40 Ta20 1.976502 1_455
O40 Ta22 1.976502 1_555
O41 Ta23 1.968446 1_555
O41 Ta21 1.968446 1_455
O42 Ta0 1.948950 1_555
O42 Ta8 1.962608 1_555
O43 Ta8 1.938641 1_555
O43 Ta1 1.969656 1_555
O44 Ta2 1.948950 1_555
O44 Ta9 1.962608 1_555
O45 Ta9 1.938641 1_555
O45 Ta3 1.969656 1_555
O46 Ta4 1.947772 1_555
O46 Ta10 1.958710 1_555
O47 Ta10 1.941170 1_555
O47 Ta5 1.968182 1_555
O48 Ta6 1.947772 1_555
O48 Ta11 1.958710 1_555
O49 Ta11 1.941170 1_555
O49 Ta7 1.968182 1_555
O50 Ta9 1.996235 1_555
O50 Ta8 1.996235 1_555
O51 Ta10 1.997204 1_455
O51 Ta11 1.997204 1_555
O52 Ta2 1.932364 1_555
O52 Ta0 1.932364 1_455
O53 Ta1 1.939635 1_455
O53 Ta3 1.939635 1_555
O54 Ta6 1.981351 1_555
O54 Ta4 1.981351 1_555
O55 Ta7 1.940499 1_555
O55 Ta5 1.940499 1_555
O56 Ta18 1.971845 1_555
O56 Ta16 1.971845 1_455
O57 Ta19 1.987766 1_555
O57 Ta17 1.987766 1_455
O58 Ta22 1.984836 1_555
O58 Ta20 1.984836 1_555
O59 Ta23 1.987553 1_555
O59 Ta21 1.987553 1_555
O60 Ta16 1.971675 1_545
O60 Ta20 2.002667 1_555
O61 Ta21 1.987505 1_564
O61 Ta17 1.987914 1_555
O62 Ta18 1.971675 1_545
O62 Ta22 2.002667 1_555
O63 Ta23 1.987505 1_564
O63 Ta19 1.987914 1_555
