# generated using pymatgen
data_Rb12Sn2Sb6O
_symmetry_space_group_name_H-M   'P 1'
_cell_length_a   12.56767044
_cell_length_b   12.56767044
_cell_length_c   6.34861900
_cell_angle_alpha   90.00000000
_cell_angle_beta   90.00000000
_cell_angle_gamma   120.00000234
_symmetry_Int_Tables_number   1
_chemical_formula_structural   Rb12Sn2Sb6O
_chemical_formula_sum   'Rb12 Sn2 Sb6 O1'
_cell_volume   868.39927818
_cell_formula_units_Z   1
loop_
 _symmetry_equiv_pos_site_id
 _symmetry_equiv_pos_as_xyz
  1  'x, y, z'
loop_
 _atom_site_type_symbol
 _atom_site_label
 _atom_site_symmetry_multiplicity
 _atom_site_fract_x
 _atom_site_fract_y
 _atom_site_fract_z
 _atom_site_occupancy
  Rb  Rb0  1  0.45417700  0.54582300  0.24935900  1
  Rb  Rb1  1  0.45417700  0.90835400  0.24935900  1
  Rb  Rb2  1  0.09164600  0.54582300  0.24935900  1
  Rb  Rb3  1  0.54582300  0.45417700  0.75064100  1
  Rb  Rb4  1  0.54582300  0.09164600  0.75064100  1
  Rb  Rb5  1  0.90835400  0.45417700  0.75064100  1
  Rb  Rb6  1  0.11147900  0.88852100  0.27432500  1
  Rb  Rb7  1  0.11147900  0.22295900  0.27432500  1
  Rb  Rb8  1  0.77704100  0.88852100  0.27432500  1
  Rb  Rb9  1  0.88852100  0.11147900  0.72567500  1
  Rb  Rb10  1  0.88852100  0.77704100  0.72567500  1
  Rb  Rb11  1  0.22295900  0.11147900  0.72567500  1
  Sn  Sn0  1  0.33333300  0.66666700  0.75027600  1
  Sn  Sn1  1  0.66666700  0.33333300  0.24972400  1
  Sb  Sb0  1  0.79290500  0.20709500  0.24640100  1
  Sb  Sb1  1  0.79290500  0.58581100  0.24640100  1
  Sb  Sb2  1  0.41418900  0.20709500  0.24640100  1
  Sb  Sb3  1  0.20709500  0.79290500  0.75359900  1
  Sb  Sb4  1  0.20709500  0.41418900  0.75359900  1
  Sb  Sb5  1  0.58581100  0.79290500  0.75359900  1
  O  O0  1  0.00000000  0.00000000  0.50000000  1
loop_
_geom_bond_atom_site_label_1
_geom_bond_atom_site_label_2
_geom_bond_distance
_geom_bond_site_symmetry_2
Rb0 Rb3 3.742246 1_554
Rb0 Rb3 3.756028 1_555
Rb0 Sb2 4.029362 1_555
Rb0 Sb1 4.029362 1_555
Rb0 Sn0 4.118120 1_554
Rb0 Sn0 4.127086 1_555
Rb0 Sb4 4.141054 1_554
Rb0 Sb5 4.141054 1_554
Rb0 Sb5 4.182118 1_555
Rb0 Sb4 4.182118 1_555
Rb0 Rb7 4.190848 1_555
Rb0 Rb8 4.190848 1_555
Rb0 Rb2 4.556170 1_555
Rb0 Rb1 4.556170 1_555
Rb1 Rb4 3.742246 1_564
Rb1 Rb4 3.756028 1_565
Rb1 Sb0 4.029367 1_565
Rb1 Sb2 4.029375 1_565
Rb1 Sn0 4.118113 1_554
Rb1 Sn0 4.127079 1_555
Rb1 Sb3 4.141054 1_554
Rb1 Sb5 4.141061 1_554
Rb1 Sb3 4.182118 1_555
Rb1 Sb5 4.182125 1_555
Rb1 Rb8 4.190841 1_555
Rb1 Rb6 4.190853 1_555
Rb1 Rb2 4.556170 1_555
Rb2 Rb5 3.742246 1_454
Rb2 Rb5 3.756028 1_455
Rb2 Sb0 4.029367 1_455
Rb2 Sb1 4.029375 1_455
Rb2 Sn0 4.118113 1_554
Rb2 Sn0 4.127079 1_555
Rb2 Sb3 4.141054 1_554
Rb2 Sb4 4.141061 1_554
Rb2 Sb3 4.182118 1_555
Rb2 Sb4 4.182125 1_555
Rb2 Rb7 4.190841 1_555
Rb2 Rb6 4.190853 1_555
Rb3 Sb4 4.029362 1_555
Rb3 Sb5 4.029362 1_555
Rb3 Sn1 4.118120 1_556
Rb3 Sn1 4.127086 1_555
Rb3 Sb2 4.141054 1_556
Rb3 Sb1 4.141054 1_556
Rb3 Sb2 4.182118 1_555
Rb3 Sb1 4.182118 1_555
Rb3 Rb4 4.556170 1_555
Rb3 Rb5 4.556170 1_555
Rb4 Sb3 4.029367 1_545
Rb4 Sb5 4.029375 1_545
Rb4 Sn1 4.118113 1_556
Rb4 Sn1 4.127079 1_555
Rb4 Sb0 4.141054 1_556
Rb4 Sb2 4.141061 1_556
Rb4 Sb0 4.182118 1_555
Rb4 Sb2 4.182125 1_555
Rb4 Rb9 4.190853 1_555
Rb4 Rb5 4.556170 1_555
Rb5 Sb3 4.029367 1_655
Rb5 Sb4 4.029375 1_655
Rb5 Sn1 4.118113 1_556
Rb5 Sn1 4.127079 1_555
Rb5 Sb0 4.141054 1_556
Rb5 Sb1 4.141061 1_556
Rb5 Sb0 4.182118 1_555
Rb5 Sb1 4.182125 1_555
Rb5 Rb9 4.190853 1_555
Rb6 Sb3 3.686493 1_555
Rb6 Sb3 3.906527 1_554
Rb6 Sb2 3.911881 1_565
Rb6 Sb1 3.911881 1_455
Rb7 Sb4 3.686480 1_555
Rb7 Sb4 3.906515 1_554
Rb7 Sb0 3.911882 1_455
Rb7 Sb2 3.911882 1_555
Rb8 Sb5 3.686480 1_555
Rb8 Sb5 3.906515 1_554
Rb8 Sb0 3.911882 1_565
Rb8 Sb1 3.911882 1_555
Rb9 Sb0 3.686493 1_555
Rb9 Sb0 3.906527 1_556
Rb9 Sb5 3.911881 1_545
Rb9 Sb4 3.911881 1_655
Rb10 Sb1 3.686480 1_555
Rb10 Sb1 3.906515 1_556
Rb10 Sb3 3.911882 1_655
Rb10 Sb5 3.911882 1_555
Rb10 Rb5 4.190841 1_555
Rb10 Rb3 4.190848 1_555
Rb11 Sb2 3.686480 1_555
Rb11 Sb2 3.906515 1_556
Rb11 Sb3 3.911882 1_545
Rb11 Sb4 3.911882 1_555
Rb11 Rb4 4.190841 1_555
Rb11 Rb3 4.190848 1_555
Sb0 Sn1 2.748010 1_555
Sb1 Sn1 2.748032 1_555
Sb2 Sn1 2.748032 1_555
Sb3 Sn0 2.748010 1_555
Sb4 Sn0 2.748032 1_555
Sb5 Sn0 2.748032 1_555
O0 Rb6 2.818043 1_545
O0 Rb9 2.818043 1_455
O0 Rb7 2.818052 1_555
O0 Rb10 2.818052 1_445
O0 Rb8 2.818052 1_445
O0 Rb11 2.818052 1_555
