# generated using pymatgen
data_LiMgP
_symmetry_space_group_name_H-M   'P 1'
_cell_length_a   4.08289112
_cell_length_b   4.08289112
_cell_length_c   4.08289112
_cell_angle_alpha   60.00000000
_cell_angle_beta   60.00000000
_cell_angle_gamma   60.00000000
_symmetry_Int_Tables_number   1
_chemical_formula_structural   LiMgP
_chemical_formula_sum   'Li1 Mg1 P1'
_cell_volume   48.12695658
_cell_formula_units_Z   1
loop_
 _symmetry_equiv_pos_site_id
 _symmetry_equiv_pos_as_xyz
  1  'x, y, z'
loop_
 _atom_site_type_symbol
 _atom_site_label
 _atom_site_symmetry_multiplicity
 _atom_site_fract_x
 _atom_site_fract_y
 _atom_site_fract_z
 _atom_site_occupancy
  Li  Li0  1  0.25000000  0.25000000  0.25000000  1
  Mg  Mg0  1  0.50000000  0.50000000  0.50000000  1
  P  P0  1  0.00000000  0.00000000  0.00000000  1
loop_
_geom_bond_atom_site_label_1
_geom_bond_atom_site_label_2
_geom_bond_distance
_geom_bond_site_symmetry_2
Li0 P0 2.500250 1_556
Li0 Mg0 2.500250 1_545
Li0 P0 2.500250 1_565
Li0 Mg0 2.500250 1_555
Li0 P0 2.500250 1_555
Li0 Mg0 2.500250 1_554
Li0 P0 2.500250 1_655
Li0 Mg0 2.500250 1_455
Mg0 P0 2.887040 1_566
Mg0 P0 2.887040 1_556
Mg0 P0 2.887040 1_655
Mg0 P0 2.887040 1_665
Mg0 P0 2.887040 1_565
Mg0 P0 2.887040 1_656
