# generated using pymatgen
data_Rb2CaNd2(WO4)4
_symmetry_space_group_name_H-M   'P 1'
_cell_length_a   8.07712021
_cell_length_b   8.07712092
_cell_length_c   7.66489573
_cell_angle_alpha   61.96251200
_cell_angle_beta   61.96251160
_cell_angle_gamma   88.85131497
_symmetry_Int_Tables_number   1
_chemical_formula_structural   Rb2CaNd2(WO4)4
_chemical_formula_sum   'Rb2 Ca1 Nd2 W4 O16'
_cell_volume   376.39511789
_cell_formula_units_Z   1
loop_
 _symmetry_equiv_pos_site_id
 _symmetry_equiv_pos_as_xyz
  1  'x, y, z'
loop_
 _atom_site_type_symbol
 _atom_site_label
 _atom_site_symmetry_multiplicity
 _atom_site_fract_x
 _atom_site_fract_y
 _atom_site_fract_z
 _atom_site_occupancy
  Rb  Rb0  1  0.92662700  0.07337300  0.75000000  1
  Rb  Rb1  1  0.19835500  0.80164400  0.25000000  1
  Ca  Ca0  1  0.66875300  0.33124700  0.75000000  1
  Nd  Nd0  1  0.21998400  0.78001600  0.75000000  1
  Nd  Nd1  1  0.76579800  0.23420200  0.25000000  1
  W  W0  1  0.67744000  0.71054200  0.80543600  1
  W  W1  1  0.67652000  0.70638900  0.30192200  1
  W  W2  1  0.29361100  0.32348000  0.19807800  1
  W  W3  1  0.28945800  0.32256000  0.69456400  1
  O  O0  1  0.60512000  0.40312900  0.46224600  1
  O  O1  1  0.27787200  0.06731500  0.76205400  1
  O  O2  1  0.02828300  0.32781900  0.87637100  1
  O  O3  1  0.28382000  0.06804500  0.39054000  1
  O  O4  1  0.73127500  0.65106200  0.55213200  1
  O  O5  1  0.34893800  0.26872500  0.94786800  1
  O  O6  1  0.67218100  0.97171700  0.62362900  1
  O  O7  1  0.38391900  0.62178300  0.54742400  1
  O  O8  1  0.03707300  0.30845900  0.27356300  1
  O  O9  1  0.69154100  0.96292700  0.22643700  1
  O  O10  1  0.37821700  0.61608100  0.95257600  1
  O  O11  1  0.93195500  0.71618000  0.10946000  1
  O  O12  1  0.25605500  0.38901900  0.42092200  1
  O  O13  1  0.61098100  0.74394500  0.07907800  1
  O  O14  1  0.93268500  0.72212800  0.73794600  1
  O  O15  1  0.59687100  0.39488000  0.03775400  1
loop_
_geom_bond_atom_site_label_1
_geom_bond_atom_site_label_2
_geom_bond_distance
_geom_bond_site_symmetry_2
Ca0 O5 2.208452 1_555
Ca0 O4 2.208452 1_555
Ca0 O0 2.305610 1_555
Ca0 O15 2.305610 1_556
Ca0 Rb0 2.915961 1_555
Nd0 O10 2.379628 1_555
Nd0 O7 2.379628 1_555
Nd0 O14 2.428534 1_455
Nd0 O1 2.428534 1_565
Nd0 O11 2.440515 1_456
Nd0 O3 2.440515 1_565
Nd1 O2 2.364050 1_654
Nd1 O6 2.364050 1_545
Nd1 O8 2.391637 1_655
Nd1 O9 2.391637 1_545
Nd1 O15 2.494705 1_555
Nd1 O0 2.494705 1_555
O0 W1 2.098387 1_555
O0 W3 2.191800 1_555
O1 W3 1.867178 1_555
O1 Rb0 2.880343 1_455
O1 Rb1 3.042594 1_546
O2 W3 1.918942 1_555
O2 Rb0 2.919420 1_455
O3 W2 1.864071 1_555
O3 Rb0 2.924114 1_455
O3 Rb1 3.033923 1_545
O4 W1 2.014232 1_555
O4 W0 2.065030 1_555
O4 Rb1 3.224576 1_655
O5 W2 2.014232 1_556
O5 W3 2.065030 1_555
O5 Rb1 3.224583 1_546
O6 W0 1.918942 1_555
O6 Rb0 2.919420 1_565
O7 W1 2.066030 1_555
O7 W3 2.097094 1_555
O7 Rb1 3.092821 1_555
O8 W2 1.860122 1_555
O8 Rb0 2.867709 1_455
O9 W1 1.860122 1_555
O9 Rb0 2.867709 1_564
O10 W2 2.066031 1_556
O10 W0 2.097094 1_555
O10 Rb1 3.092815 1_556
O11 W1 1.864071 1_555
O11 Rb0 2.924114 1_564
O11 Rb1 3.033912 1_655
O12 W2 1.909521 1_555
O12 W3 2.056190 1_555
O12 Rb0 2.803427 1_455
O12 Rb1 3.073794 1_555
O13 W1 1.909521 1_555
O13 W0 2.056190 1_554
O13 Rb0 2.803427 1_564
O13 Rb1 3.073798 1_555
O14 W0 1.867178 1_555
O14 Rb0 2.880344 1_565
O14 Rb1 3.042596 1_655
O15 W2 2.098387 1_555
O15 W0 2.191800 1_554
