# generated using pymatgen
data_Li3Co2O5
_symmetry_space_group_name_H-M   'P 1'
_cell_length_a   2.93565000
_cell_length_b   7.71025745
_cell_length_c   8.17780855
_cell_angle_alpha   104.57311974
_cell_angle_beta   90.57412984
_cell_angle_gamma   97.57591428
_symmetry_Int_Tables_number   1
_chemical_formula_structural   Li3Co2O5
_chemical_formula_sum   'Li6 Co4 O10'
_cell_volume   177.40252455
_cell_formula_units_Z   2
loop_
 _symmetry_equiv_pos_site_id
 _symmetry_equiv_pos_as_xyz
  1  'x, y, z'
loop_
 _atom_site_type_symbol
 _atom_site_label
 _atom_site_symmetry_multiplicity
 _atom_site_fract_x
 _atom_site_fract_y
 _atom_site_fract_z
 _atom_site_occupancy
  Li  Li0  1  0.68822100  0.39891200  0.59430900  1
  Li  Li1  1  0.90861400  0.80614000  0.21231800  1
  Li  Li2  1  0.09138600  0.19386000  0.78768200  1
  Li  Li3  1  0.31177900  0.60108800  0.40569100  1
  Li  Li4  1  0.50000000  0.00000000  0.00000000  1
  Li  Li5  1  0.50000000  0.00000000  0.50000000  1
  Co  Co0  1  0.90639900  0.80717200  0.68790100  1
  Co  Co1  1  0.09360100  0.19282800  0.31209900  1
  Co  Co2  1  0.30711800  0.59966100  0.89572400  1
  Co  Co3  1  0.69288200  0.40033900  0.10427600  1
  O  O0  1  0.28848100  0.61720100  0.65715600  1
  O  O1  1  0.47068200  0.01234100  0.25121900  1
  O  O2  1  0.69329100  0.41044500  0.85561700  1
  O  O3  1  0.90037400  0.79824800  0.47241200  1
  O  O4  1  0.09898200  0.21391800  0.07253200  1
  O  O5  1  0.09962600  0.20175200  0.52758800  1
  O  O6  1  0.30670900  0.58955500  0.14438300  1
  O  O7  1  0.52931800  0.98765900  0.74878100  1
  O  O8  1  0.71151900  0.38279900  0.34284400  1
  O  O9  1  0.90101800  0.78608200  0.92746800  1
loop_
_geom_bond_atom_site_label_1
_geom_bond_atom_site_label_2
_geom_bond_distance
_geom_bond_site_symmetry_2
Li0 O8 2.031138 1_555
Li0 O5 2.036450 1_655
Li0 O5 2.113138 1_555
Li0 O2 2.116122 1_555
Li0 O0 2.138111 1_555
Li0 O0 2.228578 1_655
Li1 O1 2.096360 1_665
Li1 O6 2.126927 1_655
Li1 O1 2.138760 1_565
Li1 O3 2.143405 1_555
Li1 O6 2.225969 1_555
Li1 O9 2.295104 1_554
Li2 O7 2.096360 1_445
Li2 O2 2.126927 1_455
Li2 O7 2.138760 1_545
Li2 O5 2.143405 1_555
Li2 O2 2.225969 1_555
Li2 O4 2.295104 1_556
Li3 O0 2.031138 1_555
Li3 O3 2.036450 1_455
Li3 O3 2.113138 1_555
Li3 O6 2.116122 1_555
Li3 O8 2.138111 1_555
Li3 O8 2.228578 1_455
Li4 O7 2.035789 1_544
Li4 O1 2.035789 1_555
Li4 O9 2.119387 1_544
Li4 O4 2.119387 1_555
Li4 O9 2.210485 1_444
Li4 O4 2.210485 1_655
Li5 O5 2.040327 1_555
Li5 O3 2.040327 1_545
Li5 O1 2.061954 1_555
Li5 O7 2.061954 1_545
Li5 O5 2.159331 1_655
Li5 O3 2.159331 1_445
Co0 O3 1.746004 1_555
Co0 O7 1.865049 1_555
Co0 O0 1.928804 1_655
Co0 O9 2.006278 1_555
Co0 O7 2.119094 1_655
Co0 O0 2.145725 1_555
Co1 O5 1.746004 1_555
Co1 O1 1.865049 1_555
Co1 O8 1.928804 1_455
Co1 O4 2.006278 1_555
Co1 O1 2.119094 1_455
Co1 O8 2.145725 1_555
Co2 O2 1.929751 1_555
Co2 O9 1.955736 1_455
Co2 O0 1.990007 1_555
Co2 O6 2.054482 1_556
Co2 O9 2.077375 1_555
Co2 O2 2.130089 1_455
Co3 O6 1.929751 1_555
Co3 O4 1.955736 1_655
Co3 O8 1.990007 1_555
Co3 O2 2.054482 1_554
Co3 O4 2.077375 1_555
Co3 O6 2.130089 1_655
