# generated using pymatgen
data_Ba2ZnGe2S6O
_symmetry_space_group_name_H-M   'P 1'
_cell_length_a   9.74641100
_cell_length_b   9.74641100
_cell_length_c   6.52762200
_cell_angle_alpha   90.00000000
_cell_angle_beta   90.00000000
_cell_angle_gamma   90.00000000
_symmetry_Int_Tables_number   1
_chemical_formula_structural   Ba2ZnGe2S6O
_chemical_formula_sum   'Ba4 Zn2 Ge4 S12 O2'
_cell_volume   620.07531157
_cell_formula_units_Z   2
loop_
 _symmetry_equiv_pos_site_id
 _symmetry_equiv_pos_as_xyz
  1  'x, y, z'
loop_
 _atom_site_type_symbol
 _atom_site_label
 _atom_site_symmetry_multiplicity
 _atom_site_fract_x
 _atom_site_fract_y
 _atom_site_fract_z
 _atom_site_occupancy
  Ba  Ba0  1  0.83926500  0.66073500  0.50138900  1
  Ba  Ba1  1  0.33926500  0.83926500  0.49861100  1
  Ba  Ba2  1  0.66073500  0.16073500  0.49861100  1
  Ba  Ba3  1  0.16073500  0.33926500  0.50138900  1
  Zn  Zn0  1  0.00000000  0.00000000  0.00000000  1
  Zn  Zn1  1  0.50000000  0.50000000  0.00000000  1
  Ge  Ge0  1  0.62493000  0.87507000  0.93452100  1
  Ge  Ge1  1  0.37507000  0.12493000  0.93452100  1
  Ge  Ge2  1  0.12493000  0.62493000  0.06547900  1
  Ge  Ge3  1  0.87507000  0.37507000  0.06547900  1
  S  S0  1  0.93776300  0.18021200  0.22473100  1
  S  S1  1  0.06223700  0.81978800  0.22473100  1
  S  S2  1  0.18021200  0.06223700  0.77526900  1
  S  S3  1  0.81978800  0.93776300  0.77526900  1
  S  S4  1  0.68021200  0.43776300  0.22473100  1
  S  S5  1  0.56223700  0.68021200  0.77526900  1
  S  S6  1  0.43776300  0.31978800  0.77526900  1
  S  S7  1  0.31978800  0.56223700  0.22473100  1
  S  S8  1  0.36639400  0.13360600  0.26649800  1
  S  S9  1  0.86639400  0.36639400  0.73350200  1
  S  S10  1  0.13360600  0.63360600  0.73350200  1
  S  S11  1  0.63360600  0.86639400  0.26649800  1
  O  O0  1  0.50000000  0.00000000  0.82349900  1
  O  O1  1  0.00000000  0.50000000  0.17650100  1
loop_
_geom_bond_atom_site_label_1
_geom_bond_atom_site_label_2
_geom_bond_distance
_geom_bond_site_symmetry_2
Ba0 O1 3.066915 1_655
Ba0 S11 3.222807 1_555
Ba0 S1 3.222910 1_655
Ba0 S4 3.222910 1_555
Ba0 S5 3.243820 1_555
Ba0 S3 3.243820 1_555
Ba0 S9 3.255059 1_555
Ba0 S10 3.255059 1_655
Ba1 O0 3.066915 1_565
Ba1 S10 3.222807 1_555
Ba1 S5 3.222910 1_555
Ba1 S2 3.222910 1_565
Ba1 S7 3.243820 1_555
Ba1 S1 3.243820 1_555
Ba1 S11 3.255059 1_555
Ba1 S8 3.255059 1_565
Ba2 O0 3.066915 1_555
Ba2 S9 3.222807 1_555
Ba2 S6 3.222910 1_555
Ba2 S3 3.222910 1_545
Ba2 S4 3.243820 1_555
Ba2 S0 3.243820 1_555
Ba2 S8 3.255059 1_555
Ba2 S11 3.255059 1_545
Ba3 O1 3.066915 1_555
Ba3 S8 3.222807 1_555
Ba3 S7 3.222910 1_555
Ba3 S0 3.222910 1_455
Ba3 S6 3.243820 1_555
Ba3 S2 3.243820 1_555
Ba3 S10 3.255059 1_555
Ba3 S9 3.255059 1_455
Ge0 O0 1.868260 1_565
Ge0 S11 2.170317 1_556
Ge0 S3 2.249629 1_555
Ge0 S5 2.249629 1_555
Ge1 O0 1.868260 1_555
Ge1 S8 2.170317 1_556
Ge1 S6 2.249629 1_555
Ge1 S2 2.249629 1_555
Ge2 O1 1.868260 1_555
Ge2 S10 2.170317 1_554
Ge2 S7 2.249629 1_555
Ge2 S1 2.249629 1_555
Ge3 O1 1.868260 1_655
Ge3 S9 2.170317 1_554
Ge3 S0 2.249629 1_555
Ge3 S4 2.249629 1_555
S0 Zn0 2.367473 1_655
S1 Zn0 2.367473 1_565
S2 Zn0 2.367473 1_556
S3 Zn0 2.367473 1_666
S4 Zn1 2.367473 1_555
S5 Zn1 2.367473 1_556
S6 Zn1 2.367473 1_556
S7 Zn1 2.367473 1_555
