# generated using pymatgen
data_LiErF2
_symmetry_space_group_name_H-M   'P 1'
_cell_length_a   7.84130108
_cell_length_b   7.84130108
_cell_length_c   7.84130108
_cell_angle_alpha   131.59794803
_cell_angle_beta   131.59794803
_cell_angle_gamma   70.86477030
_symmetry_Int_Tables_number   1
_chemical_formula_structural   LiErF2
_chemical_formula_sum   'Li4 Er4 F8'
_cell_volume   264.06739452
_cell_formula_units_Z   4
loop_
 _symmetry_equiv_pos_site_id
 _symmetry_equiv_pos_as_xyz
  1  'x, y, z'
loop_
 _atom_site_type_symbol
 _atom_site_label
 _atom_site_symmetry_multiplicity
 _atom_site_fract_x
 _atom_site_fract_y
 _atom_site_fract_z
 _atom_site_occupancy
  Li  Li0  1  0.37500000  0.12500000  0.25000000  1
  Li  Li1  1  0.87500000  0.12500000  0.75000000  1
  Li  Li2  1  0.87500000  0.12500000  0.25000000  1
  Li  Li3  1  0.87500000  0.62500000  0.75000000  1
  Er  Er0  1  0.87500000  0.62500000  0.25000000  1
  Er  Er1  1  0.37500000  0.62500000  0.75000000  1
  Er  Er2  1  0.37500000  0.62500000  0.25000000  1
  Er  Er3  1  0.37500000  0.12500000  0.75000000  1
  F  F0  1  0.19241900  0.45658700  0.26416800  1
  F  F1  1  0.19241900  0.92825100  0.73583200  1
  F  F2  1  0.20658700  0.44241900  0.76416800  1
  F  F3  1  0.55758100  0.79341300  0.23583200  1
  F  F4  1  0.67825100  0.44241900  0.23583200  1
  F  F5  1  0.55758100  0.32174900  0.76416800  1
  F  F6  1  0.54341300  0.80758100  0.73583200  1
  F  F7  1  0.07174900  0.80758100  0.26416800  1
loop_
_geom_bond_atom_site_label_1
_geom_bond_atom_site_label_2
_geom_bond_distance
_geom_bond_site_symmetry_2
Er0 F4 2.334832 1_555
Er0 F7 2.334832 1_655
Er0 F1 2.371507 1_655
Er0 F0 2.371507 1_655
Er0 F3 2.371507 1_555
Er0 F5 2.371507 1_554
Er1 F2 2.334832 1_555
Er1 F6 2.334832 1_555
Er1 F3 2.371507 1_556
Er1 F0 2.371507 1_555
Er1 F1 2.371507 1_555
Er1 F5 2.371507 1_555
Er2 F3 2.334832 1_555
Er2 F0 2.334832 1_555
Er2 F4 2.371507 1_555
Er2 F6 2.371507 1_555
Er2 F7 2.371507 1_555
Er2 F2 2.371507 1_554
Er3 F5 2.334832 1_555
Er3 F1 2.334832 1_545
Er3 F4 2.371507 1_556
Er3 F6 2.371507 1_545
Er3 F7 2.371507 1_545
Er3 F2 2.371507 1_555
F0 Li1 2.491912 1_454
F0 Li0 2.491912 1_555
F1 Li1 2.491912 1_465
F1 Li0 2.491912 1_566
F2 Li2 2.491912 1_455
F2 Li3 2.491912 1_455
F3 Li0 2.491912 1_565
F3 Li1 2.491912 1_565
F4 Li3 2.491912 1_555
F4 Li2 2.491912 1_555
F5 Li0 2.491912 1_555
F5 Li1 2.491912 1_555
F6 Li3 2.491912 1_555
F6 Li2 2.491912 1_566
F7 Li3 2.491912 1_454
F7 Li2 2.491912 1_465
