# generated using pymatgen
data_BaSrTbWO6
_symmetry_space_group_name_H-M   'P 1'
_cell_length_a   8.42634872
_cell_length_b   8.44909460
_cell_length_c   8.49307091
_cell_angle_alpha   90.00000000
_cell_angle_beta   90.00000000
_cell_angle_gamma   90.00000000
_symmetry_Int_Tables_number   1
_chemical_formula_structural   BaSrTbWO6
_chemical_formula_sum   'Ba4 Sr4 Tb4 W4 O24'
_cell_volume   604.66433179
_cell_formula_units_Z   4
loop_
 _symmetry_equiv_pos_site_id
 _symmetry_equiv_pos_as_xyz
  1  'x, y, z'
loop_
 _atom_site_type_symbol
 _atom_site_label
 _atom_site_symmetry_multiplicity
 _atom_site_fract_x
 _atom_site_fract_y
 _atom_site_fract_z
 _atom_site_occupancy
  Ba  Ba0  1  0.00000000  -0.00000000  0.00000000  1
  Ba  Ba1  1  0.50000000  0.50000000  0.50000000  1
  Ba  Ba2  1  0.50000000  0.50000000  0.00000000  1
  Ba  Ba3  1  0.00000000  -0.00000000  0.50000000  1
  Sr  Sr0  1  0.00000000  0.50000000  0.50000000  1
  Sr  Sr1  1  0.50000000  -0.00000000  0.50000000  1
  Sr  Sr2  1  0.50000000  -0.00000000  0.00000000  1
  Sr  Sr3  1  0.00000000  0.50000000  0.00000000  1
  Tb  Tb0  1  0.75000000  0.75000000  0.75000000  1
  Tb  Tb1  1  0.25000000  0.25000000  0.75000000  1
  Tb  Tb2  1  0.25000000  0.75000000  0.25000000  1
  Tb  Tb3  1  0.75000000  0.25000000  0.25000000  1
  W  W0  1  0.25000000  0.25000000  0.25000000  1
  W  W1  1  0.75000000  0.75000000  0.25000000  1
  W  W2  1  0.75000000  0.25000000  0.75000000  1
  W  W3  1  0.25000000  0.75000000  0.75000000  1
  O  O0  1  0.01529352  0.22690463  0.27660705  1
  O  O1  1  0.98470648  0.77309537  0.27660705  1
  O  O2  1  0.98470648  0.22690463  0.72339295  1
  O  O3  1  0.01529352  0.77309537  0.72339295  1
  O  O4  1  0.28153383  0.01553759  0.21857457  1
  O  O5  1  0.28153383  0.98446241  0.78142543  1
  O  O6  1  0.71846617  0.98446241  0.21857457  1
  O  O7  1  0.71846617  0.01553759  0.78142543  1
  O  O8  1  0.21913456  0.28148641  0.01278349  1
  O  O9  1  0.78086544  0.28148641  0.98721651  1
  O  O10  1  0.21913456  0.71851359  0.98721651  1
  O  O11  1  0.78086544  0.71851359  0.01278349  1
  O  O12  1  0.48470648  0.27309537  0.22339295  1
  O  O13  1  0.51529352  0.72690463  0.22339295  1
  O  O14  1  0.51529352  0.27309537  0.77660705  1
  O  O15  1  0.48470648  0.72690463  0.77660705  1
  O  O16  1  0.21846617  0.48446241  0.28142543  1
  O  O17  1  0.21846617  0.51553759  0.71857457  1
  O  O18  1  0.78153383  0.51553759  0.28142543  1
  O  O19  1  0.78153383  0.48446241  0.71857457  1
  O  O20  1  0.28086544  0.21851359  0.48721651  1
  O  O21  1  0.71913456  0.21851359  0.51278349  1
  O  O22  1  0.28086544  0.78148641  0.51278349  1
  O  O23  1  0.71913456  0.78148641  0.48721651  1
loop_
_geom_bond_atom_site_label_1
_geom_bond_atom_site_label_2
_geom_bond_distance
_geom_bond_site_symmetry_2
Ba0 O10 3.012922 1_544
Ba0 O9 3.012922 1_454
Ba0 O11 3.012922 1_445
Ba0 O8 3.012922 1_555
Ba0 O5 3.015155 1_544
Ba0 O7 3.015155 1_454
Ba0 O6 3.015155 1_445
Ba0 O4 3.015155 1_555
Ba0 O3 3.034958 1_544
Ba0 O2 3.034958 1_454
Ba0 O0 3.034958 1_555
Ba0 O1 3.034958 1_445
Ba1 O20 3.012922 1_555
Ba1 O23 3.012922 1_555
Ba1 O21 3.012922 1_555
Ba1 O22 3.012922 1_555
Ba1 O17 3.015155 1_555
Ba1 O18 3.015155 1_555
Ba1 O19 3.015155 1_555
Ba1 O16 3.015155 1_555
Ba1 O14 3.034958 1_555
Ba1 O15 3.034958 1_555
Ba1 O12 3.034958 1_555
Ba1 O13 3.034958 1_555
Ba2 O14 2.700323 1_554
Ba2 O12 2.700323 1_555
Ba2 O13 2.700323 1_555
Ba2 O15 2.700323 1_554
Ba2 O9 3.003585 1_554
Ba2 O8 3.003585 1_555
Ba2 O11 3.003585 1_555
Ba2 O10 3.003585 1_554
Ba3 O2 2.700323 1_455
Ba3 O1 2.700323 1_445
Ba3 O0 2.700323 1_555
Ba3 O3 2.700323 1_545
Ba3 O21 3.003585 1_455
Ba3 O23 3.003585 1_445
Ba3 O20 3.003585 1_555
Ba3 O22 3.003585 1_545
O0 W0 2.000128 1_555
O0 Tb3 2.255306 1_455
O0 Sr0 2.990060 1_555
O1 W1 2.000128 1_555
O1 Tb2 2.255306 1_655
O1 Sr0 2.990060 1_655
O2 W2 2.000128 1_555
O2 Tb1 2.255306 1_655
O2 Sr0 2.990060 1_655
O3 W3 2.000128 1_555
O3 Tb0 2.255306 1_455
O3 Sr0 2.990060 1_555
O4 W0 2.016477 1_555
O4 Tb2 2.274943 1_545
O4 Sr2 2.617661 1_555
O4 Sr1 3.019758 1_555
O5 W3 2.016477 1_555
O5 Tb1 2.274943 1_565
O5 Sr2 2.617661 1_566
O5 Sr1 3.019758 1_565
O6 W1 2.016477 1_555
O6 Tb3 2.274943 1_565
O6 Sr2 2.617661 1_565
O6 Sr1 3.019758 1_565
O7 W2 2.016477 1_555
O7 Tb0 2.274943 1_545
O7 Sr2 2.617661 1_556
O7 Sr1 3.019758 1_555
O8 W0 2.048760 1_555
O8 Tb1 2.262636 1_554
O8 Sr3 2.613422 1_555
O9 W2 2.048760 1_555
O9 Tb3 2.262636 1_556
O9 Sr3 2.613422 1_656
O10 W3 2.048760 1_555
O10 Tb2 2.262636 1_556
O10 Sr3 2.613422 1_556
O11 W1 2.048760 1_555
O11 Tb0 2.262636 1_554
O11 Sr3 2.613422 1_655
O12 W0 2.000128 1_555
O12 Tb3 2.255306 1_555
O12 Sr2 2.990060 1_555
O13 W1 2.000128 1_555
O13 Tb2 2.255306 1_555
O13 Sr2 2.990060 1_565
O14 W2 2.000128 1_555
O14 Tb1 2.255306 1_555
O14 Sr2 2.990060 1_556
O15 W3 2.000128 1_555
O15 Tb0 2.255306 1_555
O15 Sr2 2.990060 1_566
O16 W0 2.016477 1_555
O16 Tb2 2.274943 1_555
O16 Sr0 2.617661 1_555
O16 Sr3 3.019758 1_555
O17 W3 2.016477 1_555
O17 Tb1 2.274943 1_555
O17 Sr0 2.617661 1_555
O17 Sr3 3.019758 1_556
O18 W1 2.016477 1_555
O18 Tb3 2.274943 1_555
O18 Sr0 2.617661 1_655
O18 Sr3 3.019758 1_655
O19 W2 2.016477 1_555
O19 Tb0 2.274943 1_555
O19 Sr0 2.617661 1_655
O19 Sr3 3.019758 1_656
O20 W0 2.048760 1_555
O20 Tb1 2.262636 1_555
O20 Sr1 2.613422 1_555
O21 W2 2.048760 1_555
O21 Tb3 2.262636 1_555
O21 Sr1 2.613422 1_555
O22 W3 2.048760 1_555
O22 Tb2 2.262636 1_555
O22 Sr1 2.613422 1_565
O23 W1 2.048760 1_555
O23 Tb0 2.262636 1_555
O23 Sr1 2.613422 1_565
