# generated using pymatgen
data_CsMg6Cr
_symmetry_space_group_name_H-M   'P 1'
_cell_length_a   5.36230300
_cell_length_b   6.79087200
_cell_length_c   11.86476300
_cell_angle_alpha   90.00000000
_cell_angle_beta   90.00000000
_cell_angle_gamma   90.00000000
_symmetry_Int_Tables_number   1
_chemical_formula_structural   CsMg6Cr
_chemical_formula_sum   'Cs2 Mg12 Cr2'
_cell_volume   432.05194300
_cell_formula_units_Z   2
loop_
 _symmetry_equiv_pos_site_id
 _symmetry_equiv_pos_as_xyz
  1  'x, y, z'
loop_
 _atom_site_type_symbol
 _atom_site_label
 _atom_site_symmetry_multiplicity
 _atom_site_fract_x
 _atom_site_fract_y
 _atom_site_fract_z
 _atom_site_occupancy
  Cs  Cs0  1  0.50000000  0.50000000  0.66581600  1
  Cs  Cs1  1  0.50000000  0.00000000  0.16581600  1
  Mg  Mg0  1  0.50000000  0.74668400  0.91734900  1
  Mg  Mg1  1  0.50000000  0.25331600  0.91734900  1
  Mg  Mg2  1  0.00000000  0.22186400  0.57875100  1
  Mg  Mg3  1  0.00000000  0.77813600  0.57875100  1
  Mg  Mg4  1  0.00000000  0.50000000  0.84847800  1
  Mg  Mg5  1  0.00000000  0.00000000  0.82849300  1
  Mg  Mg6  1  0.50000000  0.24668400  0.41734900  1
  Mg  Mg7  1  0.50000000  0.75331600  0.41734900  1
  Mg  Mg8  1  0.00000000  0.72186400  0.07875100  1
  Mg  Mg9  1  0.00000000  0.27813600  0.07875100  1
  Mg  Mg10  1  0.00000000  0.00000000  0.34847800  1
  Mg  Mg11  1  0.00000000  0.50000000  0.32849300  1
  Cr  Cr0  1  0.50000000  0.00000000  0.66500900  1
  Cr  Cr1  1  0.50000000  0.50000000  0.16500900  1
loop_
_geom_bond_atom_site_label_1
_geom_bond_atom_site_label_2
_geom_bond_distance
_geom_bond_site_symmetry_2
Cs0 Mg6 3.413199 1_555
Cs0 Mg7 3.413199 1_555
Cs0 Mg0 3.422399 1_555
Cs0 Mg1 3.422399 1_555
Cs0 Mg3 3.438486 1_555
Cs0 Mg3 3.438486 1_655
Cs0 Mg2 3.438486 1_655
Cs0 Mg2 3.438486 1_555
Cs0 Mg4 3.447537 1_555
Cs0 Mg4 3.447537 1_655
Cs1 Mg1 3.413199 1_554
Cs1 Mg0 3.413199 1_544
Cs1 Mg7 3.422399 1_545
Cs1 Mg6 3.422399 1_555
Cs1 Mg9 3.438486 1_655
Cs1 Mg8 3.438486 1_645
Cs1 Mg8 3.438486 1_545
Cs1 Mg9 3.438486 1_555
Cs1 Mg10 3.447537 1_655
Cs1 Mg10 3.447537 1_555
Mg0 Mg4 3.265361 1_555
Mg0 Mg4 3.265361 1_655
Mg0 Mg8 3.299120 1_656
Mg0 Mg8 3.299120 1_556
Mg0 Mg1 3.350399 1_555
Mg0 Mg5 3.355479 1_565
Mg0 Mg5 3.355479 1_665
Mg0 Mg1 3.440473 1_565
Mg1 Mg4 3.265361 1_555
Mg1 Mg4 3.265361 1_655
Mg1 Mg9 3.299120 1_556
Mg1 Mg9 3.299120 1_656
Mg1 Mg5 3.355479 1_555
Mg1 Mg5 3.355479 1_655
Mg2 Mg3 3.013300 1_545
Mg2 Mg6 3.299120 1_455
Mg2 Mg6 3.299120 1_555
Mg2 Mg5 3.324174 1_555
Mg3 Mg7 3.299120 1_555
Mg3 Mg7 3.299120 1_455
Mg3 Mg5 3.324174 1_565
Mg4 Mg8 3.120025 1_556
Mg4 Mg9 3.120025 1_556
Mg4 Mg5 3.403705 1_565
Mg4 Mg5 3.403705 1_555
Mg5 Mg9 3.519086 1_556
Mg5 Mg8 3.519086 1_546
Mg6 Mg7 3.350399 1_545
Mg6 Mg7 3.440473 1_555
Mg8 Mg9 3.013300 1_555
Mg10 Mg2 3.120025 1_555
Mg10 Mg3 3.120025 1_545
Mg10 Mg7 3.265361 1_545
Mg10 Mg7 3.265361 1_445
Mg10 Mg6 3.265361 1_555
Mg10 Mg6 3.265361 1_455
Mg10 Mg11 3.403705 1_555
Mg10 Mg11 3.403705 1_545
Mg11 Mg9 3.324174 1_555
Mg11 Mg8 3.324174 1_555
Mg11 Mg7 3.355479 1_555
Mg11 Mg6 3.355479 1_455
Mg11 Mg6 3.355479 1_555
Mg11 Mg7 3.355479 1_455
Mg11 Mg3 3.519086 1_555
Mg11 Mg2 3.519086 1_555
Cr0 Mg2 3.241293 1_555
Cr0 Mg2 3.241293 1_655
Cr0 Mg3 3.241293 1_645
Cr0 Mg3 3.241293 1_545
Cr0 Mg5 3.309230 1_555
Cr0 Mg5 3.309230 1_655
Cr0 Mg6 3.382403 1_555
Cr0 Mg7 3.382403 1_545
Cr0 Cs0 3.395450 1_555
Cr0 Cs0 3.395450 1_545
Cr0 Mg0 3.452966 1_545
Cr0 Mg1 3.452966 1_555
Cr1 Mg8 3.241293 1_555
Cr1 Mg8 3.241293 1_655
Cr1 Mg9 3.241293 1_555
Cr1 Mg9 3.241293 1_655
Cr1 Mg11 3.309230 1_555
Cr1 Mg11 3.309230 1_655
Cr1 Mg0 3.382403 1_554
Cr1 Mg1 3.382403 1_554
Cr1 Cs1 3.395450 1_565
Cr1 Cs1 3.395450 1_555
Cr1 Mg6 3.452966 1_555
Cr1 Mg7 3.452966 1_555
