# generated using pymatgen
data_Sr4Fe3MoO12
_symmetry_space_group_name_H-M   'P 1'
_cell_length_a   5.60060800
_cell_length_b   5.60060800
_cell_length_c   7.99803800
_cell_angle_alpha   90.00000000
_cell_angle_beta   90.00000000
_cell_angle_gamma   90.00000000
_symmetry_Int_Tables_number   1
_chemical_formula_structural   Sr4Fe3MoO12
_chemical_formula_sum   'Sr4 Fe3 Mo1 O12'
_cell_volume   250.87293808
_cell_formula_units_Z   1
loop_
 _symmetry_equiv_pos_site_id
 _symmetry_equiv_pos_as_xyz
  1  'x, y, z'
loop_
 _atom_site_type_symbol
 _atom_site_label
 _atom_site_symmetry_multiplicity
 _atom_site_fract_x
 _atom_site_fract_y
 _atom_site_fract_z
 _atom_site_occupancy
  Sr  Sr0  1  0.50000000  0.00000000  0.73363900  1
  Sr  Sr1  1  0.00000000  0.50000000  0.26636100  1
  Sr  Sr2  1  0.50000000  0.00000000  0.26636100  1
  Sr  Sr3  1  0.00000000  0.50000000  0.73363900  1
  Fe  Fe0  1  0.50000000  0.50000000  0.50000000  1
  Fe  Fe1  1  0.00000000  0.00000000  0.50000000  1
  Fe  Fe2  1  0.50000000  0.50000000  0.00000000  1
  Mo  Mo0  1  0.00000000  0.00000000  0.00000000  1
  O  O0  1  0.00000000  0.00000000  0.75787400  1
  O  O1  1  0.50000000  0.50000000  0.24974300  1
  O  O2  1  0.75460200  0.75460200  0.50000000  1
  O  O3  1  0.24429700  0.24429700  0.00000000  1
  O  O4  1  0.75460200  0.24539800  0.50000000  1
  O  O5  1  0.24429700  0.75570300  0.00000000  1
  O  O6  1  0.00000000  0.00000000  0.24212600  1
  O  O7  1  0.50000000  0.50000000  0.75025700  1
  O  O8  1  0.24539800  0.24539800  0.50000000  1
  O  O9  1  0.75570300  0.75570300  0.00000000  1
  O  O10  1  0.24539800  0.75460200  0.50000000  1
  O  O11  1  0.75570300  0.24429700  0.00000000  1
loop_
_geom_bond_atom_site_label_1
_geom_bond_atom_site_label_2
_geom_bond_distance
_geom_bond_site_symmetry_2
Fe0 O7 2.001565 1_555
Fe0 O1 2.001565 1_555
Fe0 O2 2.016564 1_555
Fe0 O4 2.016564 1_555
Fe0 O10 2.016564 1_555
Fe0 O8 2.016564 1_555
Fe1 O8 1.943664 1_555
Fe1 O4 1.943664 1_455
Fe1 O10 1.943664 1_545
Fe1 O2 1.943664 1_445
Fe1 O0 2.062486 1_555
Fe1 O6 2.062486 1_555
Fe2 O1 1.997454 1_555
Fe2 O7 1.997454 1_554
Fe2 O5 2.025284 1_555
Fe2 O9 2.025284 1_555
Fe2 O3 2.025284 1_555
Fe2 O11 2.025284 1_555
Mo0 O3 1.934944 1_555
Mo0 O5 1.934944 1_545
Mo0 O9 1.934944 1_445
Mo0 O11 1.934944 1_455
Mo0 O6 1.936533 1_555
Mo0 O0 1.936533 1_554
O0 Sr3 2.807004 1_545
O0 Sr3 2.807004 1_555
O0 Sr0 2.807004 1_555
O0 Sr0 2.807004 1_455
O1 Sr1 2.803456 1_655
O1 Sr2 2.803456 1_565
O1 Sr2 2.803456 1_555
O1 Sr1 2.803456 1_555
O2 Sr0 2.722875 1_565
O2 Sr3 2.722875 1_655
O2 Sr2 2.722875 1_565
O2 Sr1 2.722875 1_655
O3 Sr1 2.908840 1_555
O3 Sr2 2.908840 1_555
O3 Sr3 2.908840 1_554
O3 Sr0 2.908840 1_554
O4 Sr0 2.722875 1_555
O4 Sr2 2.722875 1_555
O4 Sr3 2.722875 1_655
O4 Sr1 2.722875 1_655
O5 Sr2 2.908840 1_565
O5 Sr1 2.908840 1_555
O5 Sr0 2.908840 1_564
O5 Sr3 2.908840 1_554
O6 Sr2 2.807004 1_455
O6 Sr2 2.807004 1_555
O6 Sr1 2.807004 1_545
O6 Sr1 2.807004 1_555
O7 Sr3 2.803456 1_555
O7 Sr3 2.803456 1_655
O7 Sr0 2.803456 1_565
O7 Sr0 2.803456 1_555
O8 Sr3 2.722875 1_555
O8 Sr0 2.722875 1_555
O8 Sr1 2.722875 1_555
O8 Sr2 2.722875 1_555
O9 Sr2 2.908840 1_565
O9 Sr1 2.908840 1_655
O9 Sr0 2.908840 1_564
O9 Sr3 2.908840 1_654
O10 Sr3 2.722875 1_555
O10 Sr1 2.722875 1_555
O10 Sr0 2.722875 1_565
O10 Sr2 2.722875 1_565
O11 Sr1 2.908840 1_655
O11 Sr2 2.908840 1_555
O11 Sr3 2.908840 1_654
O11 Sr0 2.908840 1_554
