# generated using pymatgen
data_Te(WO4)2
_symmetry_space_group_name_H-M   'P 1'
_cell_length_a   5.74853500
_cell_length_b   5.27901500
_cell_length_c   10.91416649
_cell_angle_alpha   68.30389662
_cell_angle_beta   90.00000000
_cell_angle_gamma   90.00000000
_symmetry_Int_Tables_number   1
_chemical_formula_structural   Te(WO4)2
_chemical_formula_sum   'Te2 W4 O16'
_cell_volume   307.74434964
_cell_formula_units_Z   2
loop_
 _symmetry_equiv_pos_site_id
 _symmetry_equiv_pos_as_xyz
  1  'x, y, z'
loop_
 _atom_site_type_symbol
 _atom_site_label
 _atom_site_symmetry_multiplicity
 _atom_site_fract_x
 _atom_site_fract_y
 _atom_site_fract_z
 _atom_site_occupancy
  Te  Te0  1  0.40381800  0.50000000  0.75000000  1
  Te  Te1  1  0.59618200  0.50000000  0.25000000  1
  W  W0  1  0.15318700  0.24964200  0.50956300  1
  W  W1  1  0.15318700  0.75035800  0.99043700  1
  W  W2  1  0.84681300  0.75035800  0.49043700  1
  W  W3  1  0.84681300  0.24964200  0.00956300  1
  O  O0  1  0.38989400  0.71922400  0.88223400  1
  O  O1  1  0.38989400  0.28077600  0.61776600  1
  O  O2  1  0.61010600  0.28077600  0.11776600  1
  O  O3  1  0.61010600  0.71922400  0.38223400  1
  O  O4  1  0.87493400  0.13823000  0.40991100  1
  O  O5  1  0.87493400  0.86177000  0.09008900  1
  O  O6  1  0.12506600  0.86177000  0.59008900  1
  O  O7  1  0.12506600  0.13823000  0.90991100  1
  O  O8  1  0.63732800  0.26648800  0.86575600  1
  O  O9  1  0.63732800  0.73351200  0.63424400  1
  O  O10  1  0.36267200  0.73351200  0.13424400  1
  O  O11  1  0.36267200  0.26648800  0.36575600  1
  O  O12  1  0.92281000  0.63900200  0.89253000  1
  O  O13  1  0.07719000  0.36099800  0.10747000  1
  O  O14  1  0.92281000  0.36099800  0.60747000  1
  O  O15  1  0.07719000  0.63900200  0.39253000  1
loop_
_geom_bond_atom_site_label_1
_geom_bond_atom_site_label_2
_geom_bond_distance
_geom_bond_site_symmetry_2
O0 W1 1.848434 1_555
O0 Te0 2.159519 1_555
O1 W0 1.848434 1_555
O1 Te0 2.159519 1_555
O2 W3 1.848434 1_555
O2 Te1 2.159519 1_555
O3 W2 1.848434 1_555
O3 Te1 2.159519 1_555
O4 W2 1.913270 1_545
O4 W0 2.135495 1_655
O4 Te1 2.607042 1_555
O5 W3 1.913270 1_565
O5 W1 2.135495 1_654
O5 Te1 2.607042 1_555
O6 W0 1.913270 1_565
O6 W2 2.135495 1_455
O6 Te0 2.607042 1_555
O7 W1 1.913270 1_545
O7 W3 2.135495 1_456
O7 Te0 2.607042 1_555
O8 Te0 1.940647 1_555
O8 W3 1.954052 1_556
O9 Te0 1.940647 1_555
O9 W2 1.954052 1_555
O10 Te1 1.940647 1_555
O10 W1 1.954052 1_554
O11 Te1 1.940647 1_555
O11 W0 1.954052 1_555
O12 W1 1.925022 1_655
O12 W3 2.026339 1_556
O13 W3 1.925022 1_455
O13 W1 2.026339 1_554
O14 W0 1.925022 1_655
O14 W2 2.026339 1_555
O15 W2 1.925022 1_455
O15 W0 2.026339 1_555
