# generated using pymatgen
data_Ba3Al3N5
_symmetry_space_group_name_H-M   'P 1'
_cell_length_a   5.94966085
_cell_length_b   7.63520041
_cell_length_c   8.87668851
_cell_angle_alpha   108.78877227
_cell_angle_beta   100.95176136
_cell_angle_gamma   96.57420279
_symmetry_Int_Tables_number   1
_chemical_formula_structural   Ba3Al3N5
_chemical_formula_sum   'Ba6 Al6 N10'
_cell_volume   368.04393345
_cell_formula_units_Z   2
loop_
 _symmetry_equiv_pos_site_id
 _symmetry_equiv_pos_as_xyz
  1  'x, y, z'
loop_
 _atom_site_type_symbol
 _atom_site_label
 _atom_site_symmetry_multiplicity
 _atom_site_fract_x
 _atom_site_fract_y
 _atom_site_fract_z
 _atom_site_occupancy
  Ba  Ba0  1  0.81081600  0.42706500  0.60994900  1
  Ba  Ba1  1  0.18918400  0.57293500  0.39005100  1
  Ba  Ba2  1  0.66605300  0.85700800  0.88018700  1
  Ba  Ba3  1  0.33394700  0.14299200  0.11981300  1
  Ba  Ba4  1  0.66114900  0.66076300  0.21591200  1
  Ba  Ba5  1  0.33885100  0.33923700  0.78408800  1
  Al  Al0  1  0.91622000  0.31983100  0.97724900  1
  Al  Al1  1  0.08378000  0.68016900  0.02275100  1
  Al  Al2  1  0.69796500  0.97020100  0.57983400  1
  Al  Al3  1  0.30203500  0.02979900  0.42016600  1
  Al  Al4  1  0.09886500  0.89196500  0.70756400  1
  Al  Al5  1  0.90113500  0.10803500  0.29243600  1
  N  N0  1  0.93593900  0.11145000  0.78084300  1
  N  N1  1  0.06406100  0.88855000  0.21915700  1
  N  N2  1  0.82128100  0.74444800  0.54443300  1
  N  N3  1  0.17871900  0.25555200  0.45556700  1
  N  N4  1  0.78113900  0.51596300  0.92190600  1
  N  N5  1  0.21886100  0.48403700  0.07809400  1
  N  N6  1  0.36943000  0.95203400  0.61001000  1
  N  N7  1  0.63057000  0.04796600  0.38999000  1
  N  N8  1  0.18685800  0.78210600  0.86989100  1
  N  N9  1  0.81314200  0.21789400  0.13010900  1
loop_
_geom_bond_atom_site_label_1
_geom_bond_atom_site_label_2
_geom_bond_distance
_geom_bond_site_symmetry_2
Ba0 N2 2.664848 1_555
Ba0 N4 2.676290 1_555
Ba0 N7 2.862444 1_555
Ba0 N3 3.004044 1_655
Ba0 N8 3.209172 1_655
Ba0 N0 3.316461 1_555
Ba1 N3 2.664848 1_555
Ba1 N5 2.676290 1_555
Ba1 N6 2.862444 1_555
Ba1 N2 3.004044 1_455
Ba1 N9 3.209172 1_455
Ba1 N1 3.316461 1_555
Ba2 N8 2.820968 1_555
Ba2 N9 2.837679 1_566
Ba2 N0 2.838567 1_565
Ba2 N4 2.884374 1_555
Ba2 N6 3.032912 1_555
Ba3 N9 2.820968 1_555
Ba3 N8 2.837679 1_544
Ba3 N1 2.838567 1_545
Ba3 N5 2.884374 1_555
Ba3 N7 3.032912 1_555
Ba4 N5 2.672519 1_555
Ba4 N2 2.724836 1_555
Ba4 N4 2.751916 1_554
Ba4 N1 2.785497 1_655
Ba4 N7 2.906589 1_565
Ba5 N4 2.672519 1_555
Ba5 N3 2.724836 1_555
Ba5 N5 2.751916 1_556
Ba5 N0 2.785497 1_455
Ba5 N6 2.906589 1_545
Al0 N9 1.926190 1_556
Al0 N4 1.931122 1_555
Al0 N5 1.939868 1_656
Al0 N0 1.979485 1_555
Al1 N8 1.926190 1_554
Al1 N5 1.931122 1_555
Al1 N4 1.939868 1_454
Al1 N1 1.979485 1_555
Al2 N2 1.906922 1_555
Al2 N7 1.948198 1_565
Al2 N0 1.949962 1_565
Al2 N6 2.018050 1_555
Al3 N3 1.906922 1_555
Al3 N6 1.948198 1_545
Al3 N1 1.949962 1_545
Al3 N7 2.018050 1_555
Al4 N8 1.909557 1_555
Al4 N2 1.925563 1_455
Al4 N0 2.020020 1_465
Al4 N6 2.041577 1_555
Al5 N9 1.909557 1_555
Al5 N3 1.925563 1_655
Al5 N1 2.020020 1_645
Al5 N7 2.041577 1_555
