# generated using pymatgen
data_SrCa3(RuO4)2
_symmetry_space_group_name_H-M   'P 1'
_cell_length_a   13.27929773
_cell_length_b   13.27929773
_cell_length_c   13.27929773
_cell_angle_alpha   156.63621680
_cell_angle_beta   156.63485096
_cell_angle_gamma   33.27973358
_symmetry_Int_Tables_number   1
_chemical_formula_structural   SrCa3(RuO4)2
_chemical_formula_sum   'Sr2 Ca6 Ru4 O16'
_cell_volume   367.94821467
_cell_formula_units_Z   2
loop_
 _symmetry_equiv_pos_site_id
 _symmetry_equiv_pos_as_xyz
  1  'x, y, z'
loop_
 _atom_site_type_symbol
 _atom_site_label
 _atom_site_symmetry_multiplicity
 _atom_site_fract_x
 _atom_site_fract_y
 _atom_site_fract_z
 _atom_site_occupancy
  Sr  Sr0  1  0.20105000  0.70105000  0.50000000  1
  Sr  Sr1  1  0.70105000  0.20105000  0.50000000  1
  Ca  Ca0  1  0.45207800  0.45207800  0.00000000  1
  Ca  Ca1  1  0.95207800  0.95207800  0.00000000  1
  Ca  Ca2  1  0.30056000  0.30056000  0.00000000  1
  Ca  Ca3  1  0.80056000  0.80056000  0.00000000  1
  Ca  Ca4  1  0.04792600  0.54792600  0.50000000  1
  Ca  Ca5  1  0.54792600  0.04792600  0.50000000  1
  Ru  Ru0  1  0.37672600  0.87672600  0.50000000  1
  Ru  Ru1  1  0.87672600  0.37672600  0.50000000  1
  Ru  Ru2  1  0.62298200  0.62298200  0.00000000  1
  Ru  Ru3  1  0.12298200  0.12298200  0.00000000  1
  O  O0  1  0.81590000  0.31590500  0.88850400  1
  O  O1  1  0.31590000  0.42739600  0.49999500  1
  O  O2  1  0.05900000  0.05900400  0.36545200  1
  O  O3  1  0.55900000  0.19354700  0.99999500  1
  O  O4  1  0.69355200  0.69354700  0.63454800  1
  O  O5  1  0.19355200  0.55900400  0.00000500  1
  O  O6  1  0.42740100  0.92739600  0.11149600  1
  O  O7  1  0.92740100  0.81590500  0.50000500  1
  O  O8  1  0.29557600  0.79557600  0.50000000  1
  O  O9  1  0.79557600  0.29557600  0.50000000  1
  O  O10  1  0.54109700  0.54109700  0.00000000  1
  O  O11  1  0.04109700  0.04109700  0.00000000  1
  O  O12  1  0.20762000  0.20762000  0.00000000  1
  O  O13  1  0.70762000  0.70762000  0.00000000  1
  O  O14  1  0.95853300  0.45853300  0.50000000  1
  O  O15  1  0.45853300  0.95853300  0.50000000  1
loop_
_geom_bond_atom_site_label_1
_geom_bond_atom_site_label_2
_geom_bond_distance
_geom_bond_site_symmetry_2
Ca0 O10 2.265215 1_555
Ca0 O3 2.377350 1_554
Ca0 O5 2.377359 1_555
Ca0 O15 2.693776 1_555
Ca0 O15 2.693776 1_544
Ca0 O14 2.693930 1_454
Ca0 O14 2.693930 1_555
Ca1 O11 2.265215 1_665
Ca1 O2 2.377348 1_665
Ca1 O4 2.377359 1_554
Ca1 O14 2.693776 1_554
Ca1 O14 2.693776 1_565
Ca1 O15 2.693930 1_554
Ca1 O15 2.693930 1_655
Ca2 O12 2.364990 1_555
Ca2 O5 2.375563 1_555
Ca2 O3 2.375575 1_554
Ca2 O8 2.691752 1_544
Ca2 O8 2.691752 1_555
Ca2 O9 2.691907 1_555
Ca2 O9 2.691907 1_454
Ca3 O13 2.364990 1_555
Ca3 O4 2.375563 1_554
Ca3 O2 2.375573 1_665
Ca3 O9 2.691752 1_565
Ca3 O9 2.691752 1_554
Ca3 O8 2.691907 1_554
Ca3 O8 2.691907 1_655
Ca4 O14 2.274731 1_455
Ca4 O1 2.387876 1_555
Ca4 O7 2.387876 1_455
Ca4 O11 2.694373 1_566
Ca4 O11 2.694373 1_555
Ca4 O10 2.694527 1_556
Ca4 O10 2.694527 1_455
Ca5 O15 2.274731 1_545
Ca5 O0 2.387876 1_555
Ca5 O6 2.387876 1_545
Ca5 O10 2.694373 1_545
Ca5 O10 2.694373 1_556
Ca5 O11 2.694527 1_656
Ca5 O11 2.694527 1_555
O0 Ru2 1.948248 1_556
O0 Ru3 1.948332 1_656
O0 Sr1 2.502925 1_555
O1 Ru3 1.948248 1_555
O1 Ru2 1.948332 1_556
O1 Sr0 2.502925 1_555
O2 Ru1 1.968923 1_455
O2 Ru0 1.969010 1_545
O3 Ru0 1.968919 1_545
O3 Ru1 1.969012 1_556
O4 Ru1 1.968920 1_555
O4 Ru0 1.969014 1_555
O5 Ru0 1.968920 1_555
O5 Ru1 1.969014 1_454
O6 Ru2 1.948248 1_555
O6 Ru3 1.948332 1_565
O6 Sr1 2.502925 1_565
O7 Ru3 1.948248 1_666
O7 Ru2 1.948332 1_555
O7 Sr0 2.502925 1_655
O8 Ru0 2.064977 1_555
O8 Sr0 2.405348 1_555
O9 Ru1 2.064977 1_555
O9 Sr1 2.405348 1_555
O10 Ru2 2.083680 1_555
O11 Ru3 2.083680 1_555
O12 Ru3 2.153734 1_555
O12 Sr0 2.693956 1_555
O12 Sr0 2.693956 1_544
O12 Sr1 2.694110 1_454
O12 Sr1 2.694110 1_555
O13 Ru2 2.153734 1_555
O13 Sr1 2.693956 1_554
O13 Sr1 2.693956 1_565
O13 Sr0 2.694110 1_554
O13 Sr0 2.694110 1_655
O14 Ru1 2.081695 1_555
O15 Ru0 2.081695 1_555
