# generated using pymatgen
data_YbPu3
_symmetry_space_group_name_H-M   'P 1'
_cell_length_a   6.83807490
_cell_length_b   6.83807490
_cell_length_c   5.66120122
_cell_angle_alpha   90.00000000
_cell_angle_beta   90.00000000
_cell_angle_gamma   120.00000354
_symmetry_Int_Tables_number   1
_chemical_formula_structural   YbPu3
_chemical_formula_sum   'Yb2 Pu6'
_cell_volume   229.24871775
_cell_formula_units_Z   2
loop_
 _symmetry_equiv_pos_site_id
 _symmetry_equiv_pos_as_xyz
  1  'x, y, z'
loop_
 _atom_site_type_symbol
 _atom_site_label
 _atom_site_symmetry_multiplicity
 _atom_site_fract_x
 _atom_site_fract_y
 _atom_site_fract_z
 _atom_site_occupancy
  Yb  Yb0  1  0.33333300  0.66666700  0.75000000  1
  Yb  Yb1  1  0.66666700  0.33333300  0.25000000  1
  Pu  Pu0  1  0.16261358  0.32522716  0.25000000  1
  Pu  Pu1  1  0.67477284  0.83738642  0.25000000  1
  Pu  Pu2  1  0.16261358  0.83738642  0.25000000  1
  Pu  Pu3  1  0.83738642  0.67477284  0.75000000  1
  Pu  Pu4  1  0.32522716  0.16261358  0.75000000  1
  Pu  Pu5  1  0.83738642  0.16261358  0.75000000  1
loop_
_geom_bond_atom_site_label_1
_geom_bond_atom_site_label_2
_geom_bond_distance
_geom_bond_site_symmetry_2
Pu0 Pu1 3.335891 1_445
Pu0 Pu2 3.335892 1_545
Pu0 Yb1 3.419371 1_455
Pu0 Yb1 3.419378 1_555
Pu0 Pu5 3.423695 1_455
Pu0 Pu5 3.423695 1_454
Pu0 Pu4 3.423695 1_554
Pu0 Pu4 3.423695 1_555
Pu0 Yb0 3.478611 1_554
Pu0 Yb0 3.478611 1_555
Pu0 Pu1 3.502183 1_555
Pu0 Pu2 3.502183 1_555
Pu1 Pu2 3.335892 1_655
Pu1 Yb1 3.419371 1_565
Pu1 Yb1 3.419378 1_555
Pu1 Pu5 3.423695 1_565
Pu1 Pu5 3.423695 1_564
Pu1 Pu3 3.423695 1_554
Pu1 Pu3 3.423695 1_555
Pu1 Yb0 3.478611 1_554
Pu1 Yb0 3.478611 1_555
Pu1 Pu2 3.502183 1_555
Pu2 Yb1 3.419374 1_455
Pu2 Yb1 3.419374 1_565
Pu2 Pu3 3.423695 1_455
Pu2 Pu3 3.423695 1_454
Pu2 Pu4 3.423695 1_565
Pu2 Pu4 3.423695 1_564
Pu2 Yb0 3.478608 1_555
Pu2 Yb0 3.478608 1_554
Pu3 Pu4 3.335891 1_665
Pu3 Pu5 3.335892 1_565
Pu3 Yb0 3.419371 1_655
Pu3 Yb0 3.419378 1_555
Pu3 Yb1 3.478611 1_556
Pu3 Yb1 3.478611 1_555
Pu3 Pu4 3.502183 1_555
Pu3 Pu5 3.502183 1_555
Pu4 Pu5 3.335892 1_455
Pu4 Yb0 3.419371 1_545
Pu4 Yb0 3.419378 1_555
Pu4 Yb1 3.478611 1_555
Pu4 Yb1 3.478611 1_556
Pu4 Pu5 3.502183 1_555
Pu5 Yb0 3.419374 1_545
Pu5 Yb0 3.419374 1_655
Pu5 Yb1 3.478608 1_556
Pu5 Yb1 3.478608 1_555
