# generated using pymatgen
data_CsAl
_symmetry_space_group_name_H-M   'P 1'
_cell_length_a   9.49162000
_cell_length_b   17.16807000
_cell_length_c   21.31692600
_cell_angle_alpha   90.00000000
_cell_angle_beta   90.00000000
_cell_angle_gamma   90.00000000
_symmetry_Int_Tables_number   1
_chemical_formula_structural   CsAl
_chemical_formula_sum   'Cs32 Al32'
_cell_volume   3473.65270605
_cell_formula_units_Z   32
loop_
 _symmetry_equiv_pos_site_id
 _symmetry_equiv_pos_as_xyz
  1  'x, y, z'
loop_
 _atom_site_type_symbol
 _atom_site_label
 _atom_site_symmetry_multiplicity
 _atom_site_fract_x
 _atom_site_fract_y
 _atom_site_fract_z
 _atom_site_occupancy
  Cs  Cs0_0  1  0.12500000  0.17404950  0.34210400  1
  Cs  Cs0_1  1  0.12500000  0.17404950  0.84210400  1
  Cs  Cs0_2  1  0.12500000  0.67404950  0.34210400  1
  Cs  Cs0_3  1  0.12500000  0.67404950  0.84210400  1
  Cs  Cs0_4  1  0.62500000  0.17404950  0.34210400  1
  Cs  Cs0_5  1  0.62500000  0.17404950  0.84210400  1
  Cs  Cs0_6  1  0.62500000  0.67404950  0.34210400  1
  Cs  Cs0_7  1  0.62500000  0.67404950  0.84210400  1
  Cs  Cs1_0  1  0.12500000  0.07595050  0.09210400  1
  Cs  Cs1_1  1  0.12500000  0.07595050  0.59210400  1
  Cs  Cs1_2  1  0.12500000  0.57595050  0.09210400  1
  Cs  Cs1_3  1  0.12500000  0.57595050  0.59210400  1
  Cs  Cs1_4  1  0.62500000  0.07595050  0.09210400  1
  Cs  Cs1_5  1  0.62500000  0.07595050  0.59210400  1
  Cs  Cs1_6  1  0.62500000  0.57595050  0.09210400  1
  Cs  Cs1_7  1  0.62500000  0.57595050  0.59210400  1
  Cs  Cs2_0  1  0.37500000  0.32595050  0.15789600  1
  Cs  Cs2_1  1  0.37500000  0.32595050  0.65789600  1
  Cs  Cs2_2  1  0.37500000  0.82595050  0.15789600  1
  Cs  Cs2_3  1  0.37500000  0.82595050  0.65789600  1
  Cs  Cs2_4  1  0.87500000  0.32595050  0.15789600  1
  Cs  Cs2_5  1  0.87500000  0.32595050  0.65789600  1
  Cs  Cs2_6  1  0.87500000  0.82595050  0.15789600  1
  Cs  Cs2_7  1  0.87500000  0.82595050  0.65789600  1
  Cs  Cs3_0  1  0.37500000  0.42404950  0.40789600  1
  Cs  Cs3_1  1  0.37500000  0.42404950  0.90789600  1
  Cs  Cs3_2  1  0.37500000  0.92404950  0.40789600  1
  Cs  Cs3_3  1  0.37500000  0.92404950  0.90789600  1
  Cs  Cs3_4  1  0.87500000  0.42404950  0.40789600  1
  Cs  Cs3_5  1  0.87500000  0.42404950  0.90789600  1
  Cs  Cs3_6  1  0.87500000  0.92404950  0.40789600  1
  Cs  Cs3_7  1  0.87500000  0.92404950  0.90789600  1
  Al  Al0_0  1  0.12500000  0.27781300  0.00661750  1
  Al  Al0_1  1  0.12500000  0.27781300  0.50661750  1
  Al  Al0_2  1  0.12500000  0.77781300  0.00661750  1
  Al  Al0_3  1  0.12500000  0.77781300  0.50661750  1
  Al  Al0_4  1  0.62500000  0.27781300  0.00661750  1
  Al  Al0_5  1  0.62500000  0.27781300  0.50661750  1
  Al  Al0_6  1  0.62500000  0.77781300  0.00661750  1
  Al  Al0_7  1  0.62500000  0.77781300  0.50661750  1
  Al  Al1_0  1  0.12500000  0.47218700  0.25661750  1
  Al  Al1_1  1  0.12500000  0.47218700  0.75661750  1
  Al  Al1_2  1  0.12500000  0.97218700  0.25661750  1
  Al  Al1_3  1  0.12500000  0.97218700  0.75661750  1
  Al  Al1_4  1  0.62500000  0.47218700  0.25661750  1
  Al  Al1_5  1  0.62500000  0.47218700  0.75661750  1
  Al  Al1_6  1  0.62500000  0.97218700  0.25661750  1
  Al  Al1_7  1  0.62500000  0.97218700  0.75661750  1
  Al  Al2_0  1  0.37500000  0.22218700  0.49338250  1
  Al  Al2_1  1  0.37500000  0.22218700  0.99338250  1
  Al  Al2_2  1  0.37500000  0.72218700  0.49338250  1
  Al  Al2_3  1  0.37500000  0.72218700  0.99338250  1
  Al  Al2_4  1  0.87500000  0.22218700  0.49338250  1
  Al  Al2_5  1  0.87500000  0.22218700  0.99338250  1
  Al  Al2_6  1  0.87500000  0.72218700  0.49338250  1
  Al  Al2_7  1  0.87500000  0.72218700  0.99338250  1
  Al  Al3_0  1  0.37500000  0.02781300  0.24338250  1
  Al  Al3_1  1  0.37500000  0.02781300  0.74338250  1
  Al  Al3_2  1  0.37500000  0.52781300  0.24338250  1
  Al  Al3_3  1  0.37500000  0.52781300  0.74338250  1
  Al  Al3_4  1  0.87500000  0.02781300  0.24338250  1
  Al  Al3_5  1  0.87500000  0.02781300  0.74338250  1
  Al  Al3_6  1  0.87500000  0.52781300  0.24338250  1
  Al  Al3_7  1  0.87500000  0.52781300  0.74338250  1
loop_
_geom_bond_atom_site_label_1
_geom_bond_atom_site_label_2
_geom_bond_distance
_geom_bond_site_symmetry_2
Cs0_0 Cs0_4 4.745810 1_555
Cs0_0 Cs0_4 4.745810 1_455
Cs0_0 Cs3_4 5.100887 1_455
Cs0_0 Cs3_0 5.100887 1_555
Cs0_0 Cs3_2 5.100887 1_545
Cs0_0 Cs3_6 5.100887 1_445
Cs0_0 Cs2_4 5.277395 1_455
Cs0_0 Cs2_0 5.277395 1_555
Cs0_1 Cs0_5 4.745810 1_555
Cs0_1 Cs0_5 4.745810 1_455
Cs0_1 Cs3_1 5.100887 1_555
Cs0_1 Cs3_5 5.100887 1_455
Cs0_1 Cs3_7 5.100887 1_445
Cs0_1 Cs3_3 5.100887 1_545
Cs0_1 Cs2_5 5.277395 1_455
Cs0_1 Cs2_1 5.277395 1_555
Cs0_2 Cs0_6 4.745810 1_555
Cs0_2 Cs0_6 4.745810 1_455
Cs0_2 Cs3_2 5.100887 1_555
Cs0_2 Cs3_6 5.100887 1_455
Cs0_2 Cs3_4 5.100887 1_455
Cs0_2 Cs3_0 5.100887 1_555
Cs0_2 Cs2_2 5.277395 1_555
Cs0_2 Cs2_6 5.277395 1_455
Cs0_3 Cs0_7 4.745810 1_555
Cs0_3 Cs0_7 4.745810 1_455
Cs0_3 Cs3_7 5.100887 1_455
Cs0_3 Cs3_3 5.100887 1_555
Cs0_3 Cs3_1 5.100887 1_555
Cs0_3 Cs3_5 5.100887 1_455
Cs0_3 Cs2_7 5.277395 1_455
Cs0_3 Cs2_3 5.277395 1_555
Cs0_4 Cs3_0 5.100887 1_555
Cs0_4 Cs3_4 5.100887 1_555
Cs0_4 Cs3_2 5.100887 1_545
Cs0_4 Cs3_6 5.100887 1_545
Cs0_4 Cs2_0 5.277395 1_555
Cs0_4 Cs2_4 5.277395 1_555
Cs0_5 Cs3_1 5.100887 1_555
Cs0_5 Cs3_5 5.100887 1_555
Cs0_5 Cs3_3 5.100887 1_545
Cs0_5 Cs3_7 5.100887 1_545
Cs0_5 Cs2_1 5.277395 1_555
Cs0_5 Cs2_5 5.277395 1_555
Cs0_6 Cs3_2 5.100887 1_555
Cs0_6 Cs3_6 5.100887 1_555
Cs0_6 Cs3_0 5.100887 1_555
Cs0_6 Cs3_4 5.100887 1_555
Cs0_6 Cs2_2 5.277395 1_555
Cs0_6 Cs2_6 5.277395 1_555
Cs0_7 Cs3_3 5.100887 1_555
Cs0_7 Cs3_7 5.100887 1_555
Cs0_7 Cs3_1 5.100887 1_555
Cs0_7 Cs3_5 5.100887 1_555
Cs0_7 Cs2_3 5.277395 1_555
Cs0_7 Cs2_7 5.277395 1_555
Cs1_0 Cs1_4 4.745810 1_555
Cs1_0 Cs1_4 4.745810 1_455
Cs1_0 Cs2_6 5.100887 1_445
Cs1_0 Cs2_2 5.100887 1_545
Cs1_0 Cs2_0 5.100887 1_555
Cs1_0 Cs2_4 5.100887 1_455
Cs1_0 Cs3_3 5.277395 1_544
Cs1_0 Cs3_7 5.277395 1_444
Cs1_1 Cs1_5 4.745810 1_555
Cs1_1 Cs1_5 4.745810 1_455
Cs1_1 Cs2_3 5.100887 1_545
Cs1_1 Cs2_7 5.100887 1_445
Cs1_1 Cs2_5 5.100887 1_455
Cs1_1 Cs2_1 5.100887 1_555
Cs1_1 Cs3_2 5.277395 1_545
Cs1_1 Cs3_6 5.277395 1_445
Cs1_2 Cs1_6 4.745810 1_555
Cs1_2 Cs1_6 4.745810 1_455
Cs1_2 Cs2_4 5.100887 1_455
Cs1_2 Cs2_0 5.100887 1_555
Cs1_2 Cs2_6 5.100887 1_455
Cs1_2 Cs2_2 5.100887 1_555
Cs1_2 Cs3_5 5.277395 1_454
Cs1_2 Cs3_1 5.277395 1_554
Cs1_3 Cs1_7 4.745810 1_555
Cs1_3 Cs1_7 4.745810 1_455
Cs1_3 Cs2_5 5.100887 1_455
Cs1_3 Cs2_1 5.100887 1_555
Cs1_3 Cs2_7 5.100887 1_455
Cs1_3 Cs2_3 5.100887 1_555
Cs1_3 Cs3_4 5.277395 1_455
Cs1_3 Cs3_0 5.277395 1_555
Cs1_4 Cs2_2 5.100887 1_545
Cs1_4 Cs2_6 5.100887 1_545
Cs1_4 Cs2_0 5.100887 1_555
Cs1_4 Cs2_4 5.100887 1_555
Cs1_4 Cs3_3 5.277395 1_544
Cs1_4 Cs3_7 5.277395 1_544
Cs1_5 Cs2_3 5.100887 1_545
Cs1_5 Cs2_7 5.100887 1_545
Cs1_5 Cs2_1 5.100887 1_555
Cs1_5 Cs2_5 5.100887 1_555
Cs1_5 Cs3_2 5.277395 1_545
Cs1_5 Cs3_6 5.277395 1_545
Cs1_6 Cs2_0 5.100887 1_555
Cs1_6 Cs2_4 5.100887 1_555
Cs1_6 Cs2_2 5.100887 1_555
Cs1_6 Cs2_6 5.100887 1_555
Cs1_6 Cs3_1 5.277395 1_554
Cs1_6 Cs3_5 5.277395 1_554
Cs1_7 Cs2_1 5.100887 1_555
Cs1_7 Cs2_5 5.100887 1_555
Cs1_7 Cs2_3 5.100887 1_555
Cs1_7 Cs2_7 5.100887 1_555
Cs1_7 Cs3_0 5.277395 1_555
Cs1_7 Cs3_4 5.277395 1_555
Cs2_0 Cs2_4 4.745810 1_555
Cs2_0 Cs2_4 4.745810 1_455
Cs2_1 Cs2_5 4.745810 1_555
Cs2_1 Cs2_5 4.745810 1_455
Cs2_2 Cs2_6 4.745810 1_455
Cs2_2 Cs2_6 4.745810 1_555
Cs2_3 Cs2_7 4.745810 1_555
Cs2_3 Cs2_7 4.745810 1_455
Cs3_0 Cs3_4 4.745810 1_455
Cs3_0 Cs3_4 4.745810 1_555
Cs3_1 Cs3_5 4.745810 1_455
Cs3_1 Cs3_5 4.745810 1_555
Cs3_2 Cs3_6 4.745810 1_555
Cs3_2 Cs3_6 4.745810 1_455
Cs3_3 Cs3_7 4.745810 1_455
Cs3_3 Cs3_7 4.745810 1_555
Al0_0 Al2_1 2.573380 1_554
Al0_0 Al2_5 2.573380 1_454
Al0_0 Cs1_0 3.915498 1_555
Al0_0 Cs0_1 3.933441 1_554
Al0_0 Cs3_5 4.045052 1_454
Al0_0 Cs3_1 4.045052 1_554
Al0_0 Cs2_4 4.088147 1_455
Al0_0 Cs2_0 4.088147 1_555
Al0_1 Al2_0 2.573380 1_555
Al0_1 Al2_4 2.573380 1_455
Al0_1 Cs1_1 3.915498 1_555
Al0_1 Cs0_0 3.933441 1_555
Al0_1 Cs3_0 4.045052 1_555
Al0_1 Cs3_4 4.045052 1_455
Al0_1 Cs2_1 4.088147 1_555
Al0_1 Cs2_5 4.088147 1_455
Al0_2 Al2_7 2.573380 1_454
Al0_2 Al2_3 2.573380 1_554
Al0_2 Cs1_2 3.915498 1_555
Al0_2 Cs0_3 3.933441 1_554
Al0_2 Cs3_7 4.045052 1_454
Al0_2 Cs3_3 4.045052 1_554
Al0_2 Cs2_6 4.088147 1_455
Al0_2 Cs2_2 4.088147 1_555
Al0_3 Al2_6 2.573380 1_455
Al0_3 Al2_2 2.573380 1_555
Al0_3 Cs1_3 3.915498 1_555
Al0_3 Cs0_2 3.933441 1_555
Al0_3 Cs3_6 4.045052 1_455
Al0_3 Cs3_2 4.045052 1_555
Al0_3 Cs2_7 4.088147 1_455
Al0_3 Cs2_3 4.088147 1_555
Al0_4 Al2_1 2.573380 1_554
Al0_4 Al2_5 2.573380 1_554
Al0_4 Cs1_4 3.915498 1_555
Al0_4 Cs0_5 3.933441 1_554
Al0_4 Cs3_1 4.045052 1_554
Al0_4 Cs3_5 4.045052 1_554
Al0_4 Cs2_0 4.088147 1_555
Al0_4 Cs2_4 4.088147 1_555
Al0_5 Al2_0 2.573380 1_555
Al0_5 Al2_4 2.573380 1_555
Al0_5 Cs1_5 3.915498 1_555
Al0_5 Cs0_4 3.933441 1_555
Al0_5 Cs3_0 4.045052 1_555
Al0_5 Cs3_4 4.045052 1_555
Al0_5 Cs2_1 4.088147 1_555
Al0_5 Cs2_5 4.088147 1_555
Al0_6 Al2_3 2.573380 1_554
Al0_6 Al2_7 2.573380 1_554
Al0_6 Cs1_6 3.915498 1_555
Al0_6 Cs0_7 3.933441 1_554
Al0_6 Cs3_3 4.045052 1_554
Al0_6 Cs3_7 4.045052 1_554
Al0_6 Cs2_2 4.088147 1_555
Al0_6 Cs2_6 4.088147 1_555
Al0_7 Al2_2 2.573380 1_555
Al0_7 Al2_6 2.573380 1_555
Al0_7 Cs1_7 3.915498 1_555
Al0_7 Cs0_6 3.933441 1_555
Al0_7 Cs3_2 4.045052 1_555
Al0_7 Cs3_6 4.045052 1_555
Al0_7 Cs2_3 4.088147 1_555
Al0_7 Cs2_7 4.088147 1_555
Al1_0 Al3_2 2.573380 1_555
Al1_0 Al3_6 2.573380 1_455
Al1_0 Cs0_2 3.915498 1_555
Al1_0 Cs1_2 3.933441 1_555
Al1_0 Cs2_4 4.045052 1_455
Al1_0 Cs2_0 4.045052 1_555
Al1_0 Cs3_4 4.088147 1_455
Al1_0 Cs3_0 4.088147 1_555
Al1_1 Al3_3 2.573380 1_555
Al1_1 Al3_7 2.573380 1_455
Al1_1 Cs0_3 3.915498 1_555
Al1_1 Cs1_3 3.933441 1_555
Al1_1 Cs2_5 4.045052 1_455
Al1_1 Cs2_1 4.045052 1_555
Al1_1 Cs3_1 4.088147 1_555
Al1_1 Cs3_5 4.088147 1_455
Al1_2 Al3_0 2.573380 1_565
Al1_2 Al3_4 2.573380 1_465
Al1_2 Cs0_0 3.915498 1_565
Al1_2 Cs1_0 3.933441 1_565
Al1_2 Cs2_2 4.045052 1_555
Al1_2 Cs2_6 4.045052 1_455
Al1_2 Cs3_6 4.088147 1_455
Al1_2 Cs3_2 4.088147 1_555
Al1_3 Al3_5 2.573380 1_465
Al1_3 Al3_1 2.573380 1_565
Al1_3 Cs0_1 3.915498 1_565
Al1_3 Cs1_1 3.933441 1_565
Al1_3 Cs2_7 4.045052 1_455
Al1_3 Cs2_3 4.045052 1_555
Al1_3 Cs3_3 4.088147 1_555
Al1_3 Cs3_7 4.088147 1_455
Al1_4 Al3_2 2.573380 1_555
Al1_4 Al3_6 2.573380 1_555
Al1_4 Cs0_6 3.915498 1_555
Al1_4 Cs1_6 3.933441 1_555
Al1_4 Cs2_0 4.045052 1_555
Al1_4 Cs2_4 4.045052 1_555
Al1_4 Cs3_0 4.088147 1_555
Al1_4 Cs3_4 4.088147 1_555
Al1_5 Al3_3 2.573380 1_555
Al1_5 Al3_7 2.573380 1_555
Al1_5 Cs0_7 3.915498 1_555
Al1_5 Cs1_7 3.933441 1_555
Al1_5 Cs2_1 4.045052 1_555
Al1_5 Cs2_5 4.045052 1_555
Al1_5 Cs3_1 4.088147 1_555
Al1_5 Cs3_5 4.088147 1_555
Al1_6 Al3_0 2.573380 1_565
Al1_6 Al3_4 2.573380 1_565
Al1_6 Cs0_4 3.915498 1_565
Al1_6 Cs1_4 3.933441 1_565
Al1_6 Cs2_2 4.045052 1_555
Al1_6 Cs2_6 4.045052 1_555
Al1_6 Cs3_2 4.088147 1_555
Al1_6 Cs3_6 4.088147 1_555
Al1_7 Al3_1 2.573380 1_565
Al1_7 Al3_5 2.573380 1_565
Al1_7 Cs0_5 3.915498 1_565
Al1_7 Cs1_5 3.933441 1_565
Al1_7 Cs2_3 4.045052 1_555
Al1_7 Cs2_7 4.045052 1_555
Al1_7 Cs3_3 4.088147 1_555
Al1_7 Cs3_7 4.088147 1_555
Al2_0 Cs3_0 3.915498 1_555
Al2_0 Cs2_1 3.933441 1_555
Al2_0 Cs1_1 4.045052 1_555
Al2_0 Cs1_5 4.045052 1_555
Al2_0 Cs0_0 4.088147 1_555
Al2_0 Cs0_4 4.088147 1_555
Al2_1 Cs3_1 3.915498 1_555
Al2_1 Cs2_0 3.933441 1_556
Al2_1 Cs1_4 4.045052 1_556
Al2_1 Cs1_0 4.045052 1_556
Al2_1 Cs0_5 4.088147 1_555
Al2_1 Cs0_1 4.088147 1_555
Al2_2 Cs3_2 3.915498 1_555
Al2_2 Cs2_3 3.933441 1_555
Al2_2 Cs1_7 4.045052 1_555
Al2_2 Cs1_3 4.045052 1_555
Al2_2 Cs0_2 4.088147 1_555
Al2_2 Cs0_6 4.088147 1_555
Al2_3 Cs3_3 3.915498 1_555
Al2_3 Cs2_2 3.933441 1_556
Al2_3 Cs1_2 4.045052 1_556
Al2_3 Cs1_6 4.045052 1_556
Al2_3 Cs0_3 4.088147 1_555
Al2_3 Cs0_7 4.088147 1_555
Al2_4 Cs3_4 3.915498 1_555
Al2_4 Cs2_5 3.933441 1_555
Al2_4 Cs1_1 4.045052 1_655
Al2_4 Cs1_5 4.045052 1_555
Al2_4 Cs0_0 4.088147 1_655
Al2_4 Cs0_4 4.088147 1_555
Al2_5 Cs3_5 3.915498 1_555
Al2_5 Cs2_4 3.933441 1_556
Al2_5 Cs1_0 4.045052 1_656
Al2_5 Cs1_4 4.045052 1_556
Al2_5 Cs0_5 4.088147 1_555
Al2_5 Cs0_1 4.088147 1_655
Al2_6 Cs3_6 3.915498 1_555
Al2_6 Cs2_7 3.933441 1_555
Al2_6 Cs1_7 4.045052 1_555
Al2_6 Cs1_3 4.045052 1_655
Al2_6 Cs0_2 4.088147 1_655
Al2_6 Cs0_6 4.088147 1_555
Al2_7 Cs3_7 3.915498 1_555
Al2_7 Cs2_6 3.933441 1_556
Al2_7 Cs1_2 4.045052 1_656
Al2_7 Cs1_6 4.045052 1_556
Al2_7 Cs0_3 4.088147 1_655
Al2_7 Cs0_7 4.088147 1_555
Al3_0 Cs2_2 3.915498 1_545
Al3_0 Cs3_2 3.933441 1_545
Al3_0 Cs0_4 4.045052 1_555
Al3_0 Cs0_0 4.045052 1_555
Al3_0 Cs1_4 4.088147 1_555
Al3_0 Cs1_0 4.088147 1_555
Al3_1 Cs2_3 3.915498 1_545
Al3_1 Cs3_3 3.933441 1_545
Al3_1 Cs0_5 4.045052 1_555
Al3_1 Cs0_1 4.045052 1_555
Al3_1 Cs1_5 4.088147 1_555
Al3_1 Cs1_1 4.088147 1_555
Al3_2 Cs2_0 3.915498 1_555
Al3_2 Cs3_0 3.933441 1_555
Al3_2 Cs0_6 4.045052 1_555
Al3_2 Cs0_2 4.045052 1_555
Al3_2 Cs1_2 4.088147 1_555
Al3_2 Cs1_6 4.088147 1_555
Al3_3 Cs2_1 3.915498 1_555
Al3_3 Cs3_1 3.933441 1_555
Al3_3 Cs0_7 4.045052 1_555
Al3_3 Cs0_3 4.045052 1_555
Al3_3 Cs1_7 4.088147 1_555
Al3_3 Cs1_3 4.088147 1_555
Al3_4 Cs2_6 3.915498 1_545
Al3_4 Cs3_6 3.933441 1_545
Al3_4 Cs0_0 4.045052 1_655
Al3_4 Cs0_4 4.045052 1_555
Al3_4 Cs1_0 4.088147 1_655
Al3_4 Cs1_4 4.088147 1_555
Al3_5 Cs2_7 3.915498 1_545
Al3_5 Cs3_7 3.933441 1_545
Al3_5 Cs0_5 4.045052 1_555
Al3_5 Cs0_1 4.045052 1_655
Al3_5 Cs1_1 4.088147 1_655
Al3_5 Cs1_5 4.088147 1_555
Al3_6 Cs2_4 3.915498 1_555
Al3_6 Cs3_4 3.933441 1_555
Al3_6 Cs0_2 4.045052 1_655
Al3_6 Cs0_6 4.045052 1_555
Al3_6 Cs1_2 4.088147 1_655
Al3_6 Cs1_6 4.088147 1_555
Al3_7 Cs2_5 3.915498 1_555
Al3_7 Cs3_5 3.933441 1_555
Al3_7 Cs0_7 4.045052 1_555
Al3_7 Cs0_3 4.045052 1_655
Al3_7 Cs1_3 4.088147 1_655
Al3_7 Cs1_7 4.088147 1_555
