# generated using pymatgen
data_DyIn2Pd
_symmetry_space_group_name_H-M   'P 1'
_cell_length_a   10.75590480
_cell_length_b   10.75590297
_cell_length_c   10.75820289
_cell_angle_alpha   100.42033792
_cell_angle_beta   100.42044413
_cell_angle_gamma   129.66228213
_symmetry_Int_Tables_number   1
_chemical_formula_structural   DyIn2Pd
_chemical_formula_sum   'Dy10 In20 Pd10'
_cell_volume   867.16028409
_cell_formula_units_Z   10
loop_
 _symmetry_equiv_pos_site_id
 _symmetry_equiv_pos_as_xyz
  1  'x, y, z'
loop_
 _atom_site_type_symbol
 _atom_site_label
 _atom_site_symmetry_multiplicity
 _atom_site_fract_x
 _atom_site_fract_y
 _atom_site_fract_z
 _atom_site_occupancy
  Dy  Dy0  1  0.66921947  0.38983310  0.27930367  1
  Dy  Dy1  1  0.11024526  0.38987685  0.72048287  1
  Dy  Dy2  1  0.38983302  0.66921882  0.27930325  1
  Dy  Dy3  1  0.38987734  0.11024598  0.72048313  1
  Dy  Dy4  1  0.67464573  0.67464571  0.59631208  1
  Dy  Dy5  1  0.07821485  0.07821485  0.40372867  1
  Dy  Dy6  1  0.07836360  0.67462128  0.00001456  1
  Dy  Dy7  1  0.67462200  0.07836383  0.00001487  1
  Dy  Dy8  1  0.46207772  0.46207749  0.00007390  1
  Dy  Dy9  1  0.99179829  0.99179815  -0.00001623  1
  In  In0  1  0.26849335  0.47679676  0.49243280  1
  In  In1  1  0.98442567  0.77593535  0.50752646  1
  In  In2  1  0.77600987  0.26863080  0.79163540  1
  In  In3  1  0.26863137  0.77601058  0.79163546  1
  In  In4  1  0.47694061  0.98429869  0.20854994  1
  In  In5  1  0.98429839  0.47694013  0.20854998  1
  In  In6  1  0.77593551  0.98442580  0.50752669  1
  In  In7  1  0.47679667  0.26849322  0.49243301  1
  In  In8  1  0.24794162  0.86512021  0.38282685  1
  In  In9  1  0.48226968  0.86498345  0.61721002  1
  In  In10  1  0.86512070  0.24794178  0.38282638  1
  In  In11  1  0.86498394  0.48227023  0.61721021  1
  In  In12  1  0.35529398  0.35529347  0.26242683  1
  In  In13  1  0.09309414  0.09309386  0.73760020  1
  In  In14  1  0.09274358  0.35536479  0.00000881  1
  In  In15  1  0.35536549  0.09274357  0.00000903  1
  In  In16  1  0.88116074  0.71889351  0.16233583  1
  In  In17  1  0.55646632  0.71876742  0.83760711  1
  In  In18  1  0.71889382  0.88116053  0.16233552  1
  In  In19  1  0.71876807  0.55647057  0.83760983  1
  Pd  Pd0  1  0.11564310  0.61560762  0.50008761  1
  Pd  Pd1  1  0.61560751  0.11564373  0.50008710  1
  Pd  Pd2  1  0.37240639  0.37240660  0.67827778  1
  Pd  Pd3  1  0.69433895  0.69433856  0.32183801  1
  Pd  Pd4  1  0.69422243  0.37265203  0.99997333  1
  Pd  Pd5  1  0.37265296  0.69422308  0.99997322  1
  Pd  Pd6  1  0.24095815  0.02633430  0.21452734  1
  Pd  Pd7  1  0.81188814  0.02651227  0.78535444  1
  Pd  Pd8  1  0.02633508  0.24095767  0.21452741  1
  Pd  Pd9  1  0.02651449  0.81188935  0.78535464  1
loop_
_geom_bond_atom_site_label_1
_geom_bond_atom_site_label_2
_geom_bond_distance
_geom_bond_site_symmetry_2
Dy0 Pd4 3.048270 1_554
Dy0 Pd3 3.048451 1_555
Dy0 In15 3.118120 1_555
Dy0 In12 3.118436 1_555
Dy0 In5 3.174934 1_555
Dy0 In1 3.177500 1_555
Dy0 In7 3.255040 1_555
Dy0 In4 3.255255 1_545
Dy0 In16 3.414152 1_555
Dy0 In10 3.446793 1_555
Dy0 In11 3.447978 1_555
Dy1 Pd5 3.049325 1_555
Dy1 Pd2 3.049802 1_555
Dy1 In13 3.119472 1_555
Dy1 In14 3.120232 1_556
Dy1 In3 3.175493 1_555
Dy1 In0 3.177956 1_555
Dy1 In2 3.253088 1_455
Dy1 In6 3.253484 1_445
Dy1 In17 3.415219 1_555
Dy1 In11 3.444813 1_455
Dy1 In10 3.445129 1_455
Dy2 Pd5 3.048271 1_554
Dy2 Pd3 3.048454 1_555
Dy2 In14 3.118119 1_555
Dy2 In12 3.118439 1_555
Dy2 In4 3.174938 1_555
Dy2 In6 3.177504 1_555
Dy2 In0 3.255037 1_555
Dy2 In5 3.255258 1_455
Dy2 In18 3.414155 1_555
Dy2 In8 3.446800 1_555
Dy2 In9 3.447984 1_555
Dy3 Pd4 3.049319 1_555
Dy3 Pd2 3.049801 1_555
Dy3 In13 3.119468 1_555
Dy3 In15 3.120233 1_556
Dy3 In2 3.175486 1_555
Dy3 In7 3.177950 1_555
Dy3 In3 3.253086 1_545
Dy3 In1 3.253489 1_445
Dy3 In19 3.415244 1_555
Dy3 In9 3.444818 1_545
Dy3 In8 3.445132 1_545
Dy4 Pd3 3.033855 1_555
Dy4 Pd7 3.104323 1_565
Dy4 Pd9 3.104335 1_655
Dy4 In6 3.177282 1_555
Dy4 In1 3.177285 1_555
Dy4 In19 3.177687 1_555
Dy4 In17 3.177693 1_555
Dy4 In0 3.219964 1_555
Dy4 In7 3.219966 1_555
Dy4 Pd2 3.239949 1_555
Dy4 In13 3.466484 1_665
Dy4 In12 3.537250 1_555
Dy5 Pd2 3.034190 1_555
Dy5 Pd8 3.105386 1_555
Dy5 Pd6 3.105397 1_555
Dy5 In7 3.176773 1_555
Dy5 In0 3.176774 1_555
Dy5 In18 3.177248 1_445
Dy5 In16 3.177252 1_445
Dy5 In1 3.220174 1_445
Dy5 In6 3.220176 1_445
Dy5 Pd3 3.237031 1_445
Dy5 In12 3.466164 1_555
Dy5 In13 3.536112 1_555
Dy6 Pd5 3.035213 1_554
Dy6 Pd6 3.103539 1_565
Dy6 Pd9 3.105252 1_554
Dy6 In4 3.177437 1_555
Dy6 In3 3.177745 1_554
Dy6 In16 3.178639 1_455
Dy6 In19 3.178865 1_454
Dy6 In2 3.219312 1_454
Dy6 In5 3.221523 1_455
Dy6 Pd4 3.238662 1_454
Dy6 In15 3.463835 1_565
Dy6 In14 3.534607 1_555
Dy7 Pd4 3.035209 1_554
Dy7 Pd8 3.103539 1_655
Dy7 Pd7 3.105254 1_554
Dy7 In5 3.177432 1_555
Dy7 In2 3.177742 1_554
Dy7 In18 3.178633 1_545
Dy7 In17 3.178858 1_544
Dy7 In3 3.219313 1_544
Dy7 In4 3.221523 1_545
Dy7 Pd5 3.238657 1_544
Dy7 In14 3.463832 1_655
Dy7 In15 3.534606 1_555
Dy8 Pd4 3.197842 1_554
Dy8 Pd5 3.197845 1_554
Dy8 Pd3 3.200224 1_555
Dy8 Pd2 3.200373 1_554
Dy8 In16 3.242068 1_555
Dy8 In18 3.242069 1_555
Dy8 In19 3.243105 1_554
Dy8 In17 3.243127 1_554
Dy8 In13 3.355773 1_554
Dy8 In12 3.356475 1_555
Dy8 In15 3.358065 1_555
Dy8 In14 3.358065 1_555
Dy9 Pd8 2.971342 1_665
Dy9 Pd6 2.971346 1_665
Dy9 Pd7 2.972118 1_564
Dy9 Pd9 2.972126 1_654
Dy9 In12 3.323313 1_665
Dy9 In14 3.324212 1_665
Dy9 In15 3.324217 1_665
Dy9 In13 3.324444 1_664
Dy9 In18 3.351186 1_555
Dy9 In16 3.351188 1_555
Dy9 In19 3.351499 1_554
Dy9 In17 3.351536 1_554
In0 Pd0 2.841951 1_555
In0 Pd2 2.848334 1_555
In0 Pd8 2.857096 1_555
In0 In9 3.020407 1_555
In0 In10 3.120874 1_455
In0 In12 3.150540 1_555
In0 In17 3.494274 1_555
In1 Pd0 2.840765 1_655
In1 Pd3 2.848106 1_555
In1 Pd9 2.856070 1_655
In1 In8 3.020555 1_655
In1 In11 3.120330 1_555
In1 In13 3.152633 1_665
In1 In16 3.494991 1_555
In2 Pd1 2.841413 1_555
In2 Pd4 2.848124 1_555
In2 Pd7 2.857273 1_555
In2 In9 3.122654 1_545
In3 Pd0 2.841409 1_555
In3 Pd5 2.848122 1_555
In3 Pd9 2.857259 1_555
In3 In9 3.019870 1_555
In4 Pd1 2.841251 1_565
In4 Pd5 2.849098 1_554
In4 Pd6 2.857360 1_565
In4 In8 3.120060 1_555
In5 Pd0 2.841256 1_655
In5 Pd4 2.849096 1_554
In5 Pd8 2.857368 1_655
In5 In8 3.019994 1_655
In6 Pd1 2.840772 1_565
In6 Pd3 2.848115 1_555
In6 Pd7 2.856071 1_565
In6 In9 3.120334 1_555
In7 Pd1 2.841943 1_555
In7 Pd2 2.848338 1_555
In7 Pd6 2.857099 1_555
In7 In8 3.120878 1_545
In8 Pd6 2.746535 1_565
In8 Pd0 2.796042 1_555
In8 Pd1 2.802512 1_565
In8 In9 3.227653 1_555
In9 Pd7 2.745995 1_565
In9 Pd0 2.794736 1_555
In9 Pd1 2.803585 1_565
In10 Pd8 2.746537 1_655
In10 Pd1 2.796048 1_555
In10 Pd0 2.802512 1_655
In10 In4 3.019993 1_545
In10 In6 3.020558 1_545
In10 In5 3.120049 1_555
In10 In11 3.227663 1_555
In10 In18 3.317939 1_545
In11 Pd9 2.745996 1_655
In11 Pd1 2.794736 1_555
In11 Pd0 2.803575 1_655
In11 In2 3.019873 1_555
In11 In7 3.020410 1_555
In11 In3 3.122654 1_655
In11 In19 3.316479 1_555
In12 Pd8 2.802466 1_555
In12 Pd6 2.802469 1_555
In12 Pd3 2.888514 1_555
In12 In7 3.150533 1_555
In13 Pd9 2.802727 1_545
In13 Pd7 2.802734 1_455
In13 Pd2 2.885176 1_555
In13 In6 3.152632 1_445
In14 Pd7 2.802056 1_454
In14 Pd8 2.802169 1_555
In14 Pd5 2.888206 1_554
In14 In2 3.150477 1_454
In14 In5 3.152201 1_455
In15 Pd9 2.802047 1_544
In15 Pd6 2.802169 1_555
In15 Pd4 2.888196 1_554
In15 In3 3.150474 1_544
In15 In4 3.152192 1_545
In16 Pd4 2.789416 1_554
In16 Pd3 2.790321 1_555
In16 Pd6 2.903992 1_665
In16 In18 3.159247 1_555
In16 In19 3.161793 1_554
In16 In8 3.317935 1_655
In16 In5 3.493460 1_555
In17 Pd5 2.789183 1_555
In17 Pd2 2.789975 1_555
In17 Pd7 2.905789 1_565
In17 In19 3.159877 1_555
In17 In18 3.161817 1_556
In17 In9 3.316440 1_555
In17 In3 3.492561 1_555
In18 Pd5 2.789411 1_554
In18 Pd3 2.790323 1_555
In18 Pd8 2.903991 1_665
In18 In4 3.493464 1_555
In18 In6 3.494998 1_555
In19 Pd4 2.789198 1_555
In19 Pd2 2.789977 1_555
In19 Pd9 2.905806 1_655
In19 In2 3.492601 1_555
In19 In7 3.494305 1_555
