# generated using pymatgen
data_Yb3Lu
_symmetry_space_group_name_H-M   'P 1'
_cell_length_a   7.44974885
_cell_length_b   7.44974885
_cell_length_c   6.07134300
_cell_angle_alpha   90.00000000
_cell_angle_beta   90.00000000
_cell_angle_gamma   120.00000754
_symmetry_Int_Tables_number   1
_chemical_formula_structural   Yb3Lu
_chemical_formula_sum   'Yb6 Lu2'
_cell_volume   291.80896567
_cell_formula_units_Z   2
loop_
 _symmetry_equiv_pos_site_id
 _symmetry_equiv_pos_as_xyz
  1  'x, y, z'
loop_
 _atom_site_type_symbol
 _atom_site_label
 _atom_site_symmetry_multiplicity
 _atom_site_fract_x
 _atom_site_fract_y
 _atom_site_fract_z
 _atom_site_occupancy
  Yb  Yb0  1  0.82877500  0.17122500  0.75000000  1
  Yb  Yb1  1  0.34245000  0.17122500  0.75000000  1
  Yb  Yb2  1  0.82877500  0.65755000  0.75000000  1
  Yb  Yb3  1  0.17122500  0.82877500  0.25000000  1
  Yb  Yb4  1  0.65755000  0.82877500  0.25000000  1
  Yb  Yb5  1  0.17122500  0.34245000  0.25000000  1
  Lu  Lu0  1  0.66666700  0.33333300  0.25000000  1
  Lu  Lu1  1  0.33333300  0.66666700  0.75000000  1
loop_
_geom_bond_atom_site_label_1
_geom_bond_atom_site_label_2
_geom_bond_distance
_geom_bond_site_symmetry_2
Yb0 Yb2 3.622999 1_555
Yb0 Yb1 3.622999 1_555
Yb0 Yb5 3.754549 1_655
Yb0 Yb4 3.754549 1_545
Yb0 Yb4 3.754549 1_546
Yb0 Yb5 3.754549 1_656
Yb0 Yb1 3.826750 1_655
Yb0 Yb2 3.826750 1_545
Yb1 Yb2 3.622999 1_555
Yb1 Yb3 3.754549 1_546
Yb1 Yb3 3.754549 1_545
Yb1 Yb5 3.754549 1_556
Yb1 Yb5 3.754549 1_555
Yb1 Yb2 3.826749 1_445
Yb2 Yb3 3.754549 1_656
Yb2 Yb3 3.754549 1_655
Yb2 Yb4 3.754549 1_555
Yb2 Yb4 3.754549 1_556
Yb3 Yb4 3.622999 1_555
Yb3 Yb5 3.622999 1_555
Yb3 Yb5 3.826750 1_565
Yb3 Yb4 3.826750 1_455
Yb4 Yb5 3.622999 1_555
Yb4 Yb5 3.826749 1_665
Lu0 Yb0 3.686551 1_555
Lu0 Yb0 3.686551 1_554
Lu0 Yb1 3.686554 1_555
Lu0 Yb1 3.686554 1_554
Lu0 Yb2 3.686554 1_555
Lu0 Yb2 3.686554 1_554
Lu0 Yb4 3.725335 1_545
Lu0 Yb5 3.725335 1_655
Lu0 Yb3 3.725338 1_655
Lu0 Yb3 3.725338 1_545
Lu0 Yb5 3.725343 1_555
Lu0 Yb4 3.725343 1_555
Lu1 Yb3 3.686551 1_555
Lu1 Yb3 3.686551 1_556
Lu1 Yb4 3.686554 1_556
Lu1 Yb5 3.686554 1_556
Lu1 Yb5 3.686554 1_555
Lu1 Yb4 3.686554 1_555
Lu1 Yb1 3.725335 1_565
Lu1 Yb2 3.725335 1_455
Lu1 Yb0 3.725338 1_565
Lu1 Yb0 3.725338 1_455
Lu1 Yb1 3.725343 1_555
Lu1 Yb2 3.725343 1_555
