# generated using pymatgen
data_CoH7C3NO7
_symmetry_space_group_name_H-M   'P 1'
_cell_length_a   7.63092519
_cell_length_b   7.74615984
_cell_length_c   12.90027694
_cell_angle_alpha   89.99939420
_cell_angle_beta   89.99973155
_cell_angle_gamma   89.99982285
_symmetry_Int_Tables_number   1
_chemical_formula_structural   CoH7C3NO7
_chemical_formula_sum   'Co4 H28 C12 N4 O28'
_cell_volume   762.54009506
_cell_formula_units_Z   4
loop_
 _symmetry_equiv_pos_site_id
 _symmetry_equiv_pos_as_xyz
  1  'x, y, z'
loop_
 _atom_site_type_symbol
 _atom_site_label
 _atom_site_symmetry_multiplicity
 _atom_site_fract_x
 _atom_site_fract_y
 _atom_site_fract_z
 _atom_site_occupancy
  Co  Co0  1  0.55383372  0.49401236  0.08549208  1
  Co  Co1  1  0.94615788  0.50596642  0.58548641  1
  Co  Co2  1  0.44615525  0.99403245  0.41448705  1
  Co  Co3  1  0.05384755  0.00598273  0.91448836  1
  H  H0  1  0.55736939  0.16878875  0.22499400  1
  H  H1  1  0.94265373  0.83121609  0.72498221  1
  H  H2  1  0.44265915  0.66877385  0.27501574  1
  H  H3  1  0.05736424  0.33122864  0.77499587  1
  H  H4  1  0.39162027  0.80071892  0.95716556  1
  H  H5  1  0.10837103  0.19929146  0.45715314  1
  H  H6  1  0.60838577  0.30072863  0.54282320  1
  H  H7  1  0.89161039  0.69927677  0.04283256  1
  H  H8  1  0.22698493  0.28236527  0.03533371  1
  H  H9  1  0.27299204  0.71762078  0.53533152  1
  H  H10  1  0.77300163  0.78239201  0.46466449  1
  H  H11  1  0.72697580  0.21759256  0.96464347  1
  H  H12  1  0.20537808  0.45867387  0.21395497  1
  H  H13  1  0.29462180  0.54133826  0.71397839  1
  H  H14  1  0.79462406  0.95867390  0.28601842  1
  H  H15  1  0.70538374  0.04134375  0.78600577  1
  H  H16  1  0.08171787  0.25229422  0.27728727  1
  H  H17  1  0.41826640  0.74770384  0.77733187  1
  H  H18  1  0.91826278  0.75230291  0.22266819  1
  H  H19  1  0.58172470  0.24770797  0.72264821  1
  H  H20  1  0.90123804  0.32347237  0.21108658  1
  H  H21  1  0.59873560  0.67652851  0.71111608  1
  H  H22  1  0.09873906  0.82347424  0.28887665  1
  H  H23  1  0.40126512  0.17652834  0.78886596  1
  H  H24  1  0.93470742  0.37902880  0.33906145  1
  H  H25  1  0.56530056  0.62097925  0.83909539  1
  H  H26  1  0.06529464  0.87902493  0.16090013  1
  H  H27  1  0.43469955  0.12097470  0.66089108  1
  C  C0  1  0.42789568  0.22530755  0.23917548  1
  C  C1  1  0.07212594  0.77469516  0.73916582  1
  C  C2  1  0.57213032  0.72529075  0.26082534  1
  C  C3  1  0.92789818  0.27469600  0.76080804  1
  C  C4  1  0.30748877  0.78031676  0.02541440  1
  C  C5  1  0.19250768  0.21969285  0.52539859  1
  C  C6  1  0.69251267  0.28031206  0.47457570  1
  C  C7  1  0.80748705  0.71969108  0.97458268  1
  C  C8  1  0.31122775  0.27224169  0.96651800  1
  C  C9  1  0.18876370  0.72774679  0.46651065  1
  C  C10  1  0.68875882  0.77225590  0.53347654  1
  C  C11  1  0.81122073  0.22774201  0.03345361  1
  N  N0  1  0.99459566  0.35341421  0.26792690  1
  N  N1  1  0.50539427  0.64658526  0.76796603  1
  N  N2  1  0.00539227  0.85342022  0.23203072  1
  N  N3  1  0.49460661  0.14658521  0.73201801  1
  O  O0  1  0.39308892  0.36670462  0.19384889  1
  O  O1  1  0.10692681  0.63329331  0.69384361  1
  O  O2  1  0.60693245  0.86670194  0.30614129  1
  O  O3  1  0.89309562  0.13329774  0.80614037  1
  O  O4  1  0.32255693  0.14823686  0.29870273  1
  O  O5  1  0.17746199  0.85176543  0.79869155  1
  O  O6  1  0.67746537  0.64821641  0.20130042  1
  O  O7  1  0.82256362  0.35174371  0.70127108  1
  O  O8  1  0.34738239  0.66488974  0.08949776  1
  O  O9  1  0.15261752  0.33511213  0.58948583  1
  O  O10  1  0.65260643  0.16488561  0.41049383  1
  O  O11  1  0.84738838  0.83512343  0.91050231  1
  O  O12  1  0.17484237  0.87752412  0.03543701  1
  O  O13  1  0.32516097  0.12249541  0.53541194  1
  O  O14  1  0.82517625  0.37749136  0.46455095  1
  O  O15  1  0.67483714  0.62249389  0.96455430  1
  O  O16  1  0.45260266  0.35452967  0.96297469  1
  O  O17  1  0.04739239  0.64544890  0.46295990  1
  O  O18  1  0.54738286  0.85454766  0.53701920  1
  O  O19  1  0.95260934  0.14547279  0.03699695  1
  O  O20  1  0.25818019  0.17530726  0.89322671  1
  O  O21  1  0.24182024  0.82468436  0.39322431  1
  O  O22  1  0.74180642  0.67530763  0.60675911  1
  O  O23  1  0.75816386  0.32468220  0.10673851  1
  O  O24  1  0.08580108  0.50203164  0.23359285  1
  O  O25  1  0.41417827  0.49796733  0.73364597  1
  O  O26  1  0.91418306  0.00204034  0.26635385  1
  O  O27  1  0.58582819  0.99797347  0.76634248  1
loop_
_geom_bond_atom_site_label_1
_geom_bond_atom_site_label_2
_geom_bond_distance
_geom_bond_site_symmetry_2
Co0 O23 2.055905 1_555
Co0 O8 2.058305 1_555
Co0 O16 2.064504 1_554
Co0 O15 2.068109 1_554
Co0 O0 2.104996 1_555
Co0 O6 2.132798 1_555
Co1 O22 2.056130 1_555
Co1 O9 2.058237 1_655
Co1 O17 2.064580 1_655
Co1 O14 2.068011 1_555
Co1 O1 2.105198 1_655
Co1 O7 2.132515 1_555
Co2 O21 2.056060 1_555
Co2 O10 2.058186 1_565
Co2 O18 2.064629 1_555
Co2 O13 2.067896 1_565
Co2 O2 2.105138 1_555
Co2 O4 2.132449 1_565
Co3 O20 2.055922 1_555
Co3 O11 2.058261 1_445
Co3 O19 2.064460 1_456
Co3 O12 2.068104 1_546
Co3 O3 2.104983 1_455
Co3 O5 2.132684 1_545
H12 O24 1.004789 1_555
H12 O0 1.620674 1_555
H13 O25 1.004778 1_555
H13 O1 1.620578 1_555
H14 O26 1.004774 1_565
H14 O2 1.620590 1_555
H15 O27 1.004759 1_545
H15 O3 1.620695 1_555
H16 N0 1.034462 1_455
H17 N1 1.034491 1_555
H18 N2 1.034490 1_655
H19 N3 1.034475 1_555
H20 N0 1.048326 1_555
H20 O23 1.733245 1_555
H21 N1 1.048323 1_555
H21 O22 1.733311 1_555
H22 N2 1.048323 1_555
H22 O21 1.733275 1_555
H23 N3 1.048308 1_555
H23 O20 1.733417 1_555
H24 N0 1.044179 1_555
H25 N1 1.044168 1_555
H26 N2 1.044164 1_555
H27 N3 1.044154 1_555
C0 H0 1.096034 1_555
C0 O4 1.261841 1_555
C0 O0 1.269679 1_555
C1 H1 1.096035 1_455
C1 O5 1.261827 1_555
C1 O1 1.269685 1_555
C2 H2 1.096031 1_555
C2 O6 1.261824 1_555
C2 O2 1.269715 1_555
C3 H3 1.096042 1_655
C3 O7 1.261815 1_555
C3 O3 1.269715 1_555
C4 H4 1.101040 1_554
C4 O8 1.255199 1_555
C4 O12 1.268178 1_555
C5 H5 1.101035 1_555
C5 O9 1.255194 1_555
C5 O13 1.268162 1_555
C6 H6 1.101024 1_555
C6 O10 1.255221 1_555
C6 O14 1.268159 1_555
C7 H7 1.101032 1_556
C7 O11 1.255217 1_555
C7 O15 1.268165 1_555
C8 H8 1.098857 1_556
C8 O16 1.253893 1_555
C8 O20 1.273428 1_555
C9 H9 1.098851 1_555
C9 O17 1.253912 1_555
C9 O21 1.273402 1_555
C10 H10 1.098825 1_555
C10 O18 1.253911 1_555
C10 O22 1.273395 1_555
C11 H11 1.098828 1_554
C11 O19 1.253906 1_555
C11 O23 1.273411 1_555
N0 O24 1.416282 1_655
N1 O25 1.416278 1_555
N2 O26 1.416273 1_465
N3 O27 1.416266 1_545
