# generated using pymatgen
data_CaAg4(RuO3)4
_symmetry_space_group_name_H-M   'P 1'
_cell_length_a   7.37350942
_cell_length_b   7.21730315
_cell_length_c   7.37350942
_cell_angle_alpha   60.69834747
_cell_angle_beta   88.97101452
_cell_angle_gamma   119.30165253
_symmetry_Int_Tables_number   1
_chemical_formula_structural   CaAg4(RuO3)4
_chemical_formula_sum   'Ca1 Ag4 Ru4 O12'
_cell_volume   280.78463195
_cell_formula_units_Z   1
loop_
 _symmetry_equiv_pos_site_id
 _symmetry_equiv_pos_as_xyz
  1  'x, y, z'
loop_
 _atom_site_type_symbol
 _atom_site_label
 _atom_site_symmetry_multiplicity
 _atom_site_fract_x
 _atom_site_fract_y
 _atom_site_fract_z
 _atom_site_occupancy
  Ca  Ca0  1  0.22422000  0.25000000  0.22422000  1
  Ag  Ag0  1  0.70296000  0.57204100  0.05887800  1
  Ag  Ag1  1  0.97299400  0.05424800  0.97299400  1
  Ag  Ag2  1  0.97299400  0.44575200  0.97299400  1
  Ag  Ag3  1  0.05887800  0.92795900  0.70296000  1
  Ru  Ru0  1  0.47127700  0.99521000  0.98085600  1
  Ru  Ru1  1  0.49367000  0.99179300  0.49367000  1
  Ru  Ru2  1  0.49367000  0.50820700  0.49367000  1
  Ru  Ru3  1  0.98085600  0.50479000  0.47127700  1
  O  O0  1  0.80788500  0.25144400  0.40727800  1
  O  O1  1  0.54079100  0.14663100  0.16341900  1
  O  O2  1  0.54079100  0.73074100  0.16341900  1
  O  O3  1  0.79341800  0.25000000  0.79341800  1
  O  O4  1  0.80788500  0.64916400  0.40727800  1
  O  O5  1  0.42917400  0.25000000  0.42917400  1
  O  O6  1  0.53322200  0.75000000  0.53322200  1
  O  O7  1  0.16355000  0.75000000  0.16355000  1
  O  O8  1  0.16341900  0.35336900  0.54079100  1
  O  O9  1  0.40727800  0.24855600  0.80788500  1
  O  O10  1  0.40727800  0.85083600  0.80788500  1
  O  O11  1  0.16341900  0.76925900  0.54079100  1
loop_
_geom_bond_atom_site_label_1
_geom_bond_atom_site_label_2
_geom_bond_distance
_geom_bond_site_symmetry_2
Ca0 O5 2.156307 1_555
Ca0 O2 2.863668 1_555
Ca0 O8 2.863668 1_555
Ca0 O11 2.863668 1_545
Ca0 O1 2.863668 1_555
Ag0 O2 2.346828 1_555
Ag0 O1 2.346828 1_555
Ag0 O5 2.435199 1_555
Ag1 O3 2.359129 1_555
Ag1 O8 2.631774 1_655
Ag1 O2 2.631774 1_546
Ag1 O4 2.737910 1_546
Ag1 O9 2.737912 1_655
Ag1 Ca0 2.997024 1_656
Ag2 O3 2.359129 1_555
Ag2 O1 2.631774 1_556
Ag2 O11 2.631774 1_655
Ag2 O10 2.737910 1_655
Ag2 O0 2.737912 1_556
Ag2 Ca0 2.997024 1_656
Ag3 O11 2.346828 1_555
Ag3 O8 2.346828 1_565
Ag3 O5 2.435199 1_565
O0 Ru3 1.943248 1_555
O0 Ru1 1.953000 1_545
O1 Ru0 2.045864 1_544
O1 Ru1 2.055542 1_545
O2 Ru0 2.045858 1_554
O2 Ru2 2.055542 1_555
O3 Ru0 2.013155 1_545
O3 Ru3 2.013155 1_555
O4 Ru3 1.943248 1_555
O4 Ru2 1.952998 1_555
O5 Ru2 1.983252 1_555
O5 Ru1 1.983252 1_545
O6 Ru1 1.794021 1_555
O6 Ru2 1.794021 1_555
O7 Ru3 1.929074 1_455
O7 Ru0 1.929074 1_554
O8 Ru3 2.045864 1_455
O8 Ru2 2.055542 1_555
O9 Ru0 1.943248 1_545
O9 Ru2 1.953000 1_555
O10 Ru0 1.943248 1_555
O10 Ru1 1.952998 1_555
O11 Ru3 2.045858 1_455
O11 Ru1 2.055542 1_555
