# generated using pymatgen
data_TiCoN2
_symmetry_space_group_name_H-M   'P 1'
_cell_length_a   5.75287600
_cell_length_b   6.83798000
_cell_length_c   4.12137900
_cell_angle_alpha   90.00000000
_cell_angle_beta   90.00000000
_cell_angle_gamma   90.00000000
_symmetry_Int_Tables_number   1
_chemical_formula_structural   TiCoN2
_chemical_formula_sum   'Ti4 Co4 N8'
_cell_volume   162.12701742
_cell_formula_units_Z   4
loop_
 _symmetry_equiv_pos_site_id
 _symmetry_equiv_pos_as_xyz
  1  'x, y, z'
loop_
 _atom_site_type_symbol
 _atom_site_label
 _atom_site_symmetry_multiplicity
 _atom_site_fract_x
 _atom_site_fract_y
 _atom_site_fract_z
 _atom_site_occupancy
  Ti  Ti0  1  0.61488800  0.37751200  0.93749900  1
  Ti  Ti1  1  0.38511200  0.62248800  0.43749900  1
  Ti  Ti2  1  0.88511200  0.87751200  0.43749900  1
  Ti  Ti3  1  0.11488800  0.12248800  0.93749900  1
  Co  Co0  1  0.56279200  0.84370600  0.93750100  1
  Co  Co1  1  0.43720800  0.15629400  0.43750100  1
  Co  Co2  1  0.93720800  0.34370600  0.43750100  1
  Co  Co3  1  0.06279200  0.65629400  0.93750100  1
  N  N0  1  0.60595400  0.39567400  0.43749900  1
  N  N1  1  0.39404600  0.60432600  0.93749900  1
  N  N2  1  0.89404600  0.89567400  0.93749900  1
  N  N3  1  0.10595400  0.10432600  0.43749900  1
  N  N4  1  0.54145200  0.87833700  0.43750000  1
  N  N5  1  0.45854800  0.12166300  0.93750000  1
  N  N6  1  0.95854800  0.37833700  0.93750000  1
  N  N7  1  0.04145200  0.62166300  0.43750000  1
loop_
_geom_bond_atom_site_label_1
_geom_bond_atom_site_label_2
_geom_bond_distance
_geom_bond_site_symmetry_2
Co0 N1 1.903094 1_555
Co0 N2 1.938512 1_555
Co0 N5 1.993030 1_565
Co0 N4 2.077877 1_556
Co0 N4 2.077885 1_555
Co1 N0 1.903094 1_555
Co1 N3 1.938512 1_555
Co1 N4 1.993030 1_545
Co1 N5 2.077877 1_555
Co1 N5 2.077885 1_554
Co2 N3 1.903094 1_655
Co2 N0 1.938512 1_555
Co2 N7 1.993030 1_655
Co2 N6 2.077877 1_555
Co2 N6 2.077885 1_554
Co3 N2 1.903094 1_455
Co3 N1 1.938512 1_555
Co3 N6 1.993030 1_455
Co3 N7 2.077877 1_556
Co3 N7 2.077885 1_555
N0 Ti1 2.004883 1_555
N0 Ti0 2.065068 1_555
N0 Ti0 2.065068 1_554
N1 Ti0 2.004883 1_555
N1 Ti1 2.065068 1_555
N1 Ti1 2.065068 1_556
N2 Ti3 2.004883 1_665
N2 Ti2 2.065068 1_555
N2 Ti2 2.065068 1_556
N3 Ti2 2.004883 1_445
N3 Ti3 2.065068 1_555
N3 Ti3 2.065068 1_554
N4 Ti1 1.967141 1_555
N4 Ti2 1.977041 1_555
N5 Ti0 1.967141 1_555
N5 Ti3 1.977041 1_555
N6 Ti3 1.967141 1_655
N6 Ti0 1.977041 1_555
N7 Ti2 1.967141 1_455
N7 Ti1 1.977041 1_555
