# generated using pymatgen
data_AsOsS
_symmetry_space_group_name_H-M   'P 1'
_cell_length_a   5.91743338
_cell_length_b   5.95087106
_cell_length_c   5.99840817
_cell_angle_alpha   68.92219276
_cell_angle_beta   90.00000000
_cell_angle_gamma   90.00000000
_symmetry_Int_Tables_number   1
_chemical_formula_structural   AsOsS
_chemical_formula_sum   'As4 Os4 S4'
_cell_volume   197.09464264
_cell_formula_units_Z   4
loop_
 _symmetry_equiv_pos_site_id
 _symmetry_equiv_pos_as_xyz
  1  'x, y, z'
loop_
 _atom_site_type_symbol
 _atom_site_label
 _atom_site_symmetry_multiplicity
 _atom_site_fract_x
 _atom_site_fract_y
 _atom_site_fract_z
 _atom_site_occupancy
  As  As0  1  0.87274011  0.64914322  0.62614027  1
  As  As1  1  0.12725989  0.35085678  0.37385973  1
  As  As2  1  0.37274011  0.35085678  0.87385973  1
  As  As3  1  0.62725989  0.64914322  0.12614027  1
  Os  Os0  1  0.49489930  0.78307429  0.70406876  1
  Os  Os1  1  0.50510070  0.21692571  0.29593124  1
  Os  Os2  1  0.99489930  0.21692571  0.79593124  1
  Os  Os3  1  0.00510070  0.78307429  0.20406876  1
  S  S0  1  0.12709177  0.84376399  0.81456420  1
  S  S1  1  0.87290823  0.15623601  0.18543580  1
  S  S2  1  0.62709177  0.15623601  0.68543580  1
  S  S3  1  0.37290823  0.84376399  0.31456420  1
loop_
_geom_bond_atom_site_label_1
_geom_bond_atom_site_label_2
_geom_bond_distance
_geom_bond_site_symmetry_2
As0 S0 2.413644 1_655
As0 Os0 2.474007 1_555
As0 Os3 2.491407 1_655
As0 Os2 2.508223 1_555
As1 S1 2.413644 1_455
As1 Os1 2.474007 1_555
As1 Os2 2.491407 1_455
As1 Os3 2.508223 1_555
As2 S2 2.413644 1_555
As2 Os2 2.474007 1_455
As2 Os1 2.491407 1_556
As2 Os0 2.508223 1_555
As3 S3 2.413644 1_555
As3 Os3 2.474007 1_655
As3 Os0 2.491407 1_554
As3 Os1 2.508223 1_555
Os0 S2 2.318858 1_565
Os0 S0 2.340717 1_555
Os0 S3 2.345934 1_555
Os1 S3 2.318858 1_545
Os1 S1 2.340717 1_555
Os1 S2 2.345934 1_555
Os2 S0 2.318858 1_645
Os2 S2 2.340717 1_555
Os2 S1 2.345934 1_556
Os3 S1 2.318858 1_465
Os3 S3 2.340717 1_555
Os3 S0 2.345934 1_554
