# generated using pymatgen
data_PrTl(PSe3)2
_symmetry_space_group_name_H-M   'P 1'
_cell_length_a   7.83290400
_cell_length_b   12.04215500
_cell_length_c   12.53643400
_cell_angle_alpha   70.55859086
_cell_angle_beta   90.00000000
_cell_angle_gamma   90.00000000
_symmetry_Int_Tables_number   1
_chemical_formula_structural   PrTl(PSe3)2
_chemical_formula_sum   'Pr4 Tl4 P8 Se24'
_cell_volume   1115.07633666
_cell_formula_units_Z   4
loop_
 _symmetry_equiv_pos_site_id
 _symmetry_equiv_pos_as_xyz
  1  'x, y, z'
loop_
 _atom_site_type_symbol
 _atom_site_label
 _atom_site_symmetry_multiplicity
 _atom_site_fract_x
 _atom_site_fract_y
 _atom_site_fract_z
 _atom_site_occupancy
  Pr  Pr0  1  0.89701500  0.40511300  0.35007300  1
  Pr  Pr1  1  0.39701500  0.09488700  0.64992700  1
  Pr  Pr2  1  0.10298500  0.59488700  0.64992700  1
  Pr  Pr3  1  0.60298500  0.90511300  0.35007300  1
  Tl  Tl0  1  0.08775600  0.12515600  0.12670900  1
  Tl  Tl1  1  0.58775600  0.37484400  0.87329100  1
  Tl  Tl2  1  0.91224400  0.87484400  0.87329100  1
  Tl  Tl3  1  0.41224400  0.62515600  0.12670900  1
  P  P0  1  0.90349700  0.25491000  0.67798000  1
  P  P1  1  0.40349700  0.24509000  0.32202000  1
  P  P2  1  0.09650300  0.74509000  0.32202000  1
  P  P3  1  0.59650300  0.75491000  0.67798000  1
  P  P4  1  0.61889000  0.23109200  0.20830000  1
  P  P5  1  0.11889000  0.26890800  0.79170000  1
  P  P6  1  0.38111000  0.76890800  0.79170000  1
  P  P7  1  0.88111000  0.73109200  0.20830000  1
  Se  Se0  1  0.71536900  0.41288500  0.12828500  1
  Se  Se1  1  0.21536900  0.08711500  0.87171500  1
  Se  Se2  1  0.28463100  0.58711500  0.87171500  1
  Se  Se3  1  0.78463100  0.91288500  0.12828500  1
  Se  Se4  1  0.81440200  0.13104500  0.32845100  1
  Se  Se5  1  0.31440200  0.36895500  0.67154900  1
  Se  Se6  1  0.18559800  0.86895500  0.67154900  1
  Se  Se7  1  0.68559800  0.63104500  0.32845100  1
  Se  Se8  1  0.52649700  0.31418700  0.44781500  1
  Se  Se9  1  0.02649700  0.18581300  0.55218500  1
  Se  Se10  1  0.47350300  0.68581300  0.55218500  1
  Se  Se11  1  0.97350300  0.81418700  0.44781500  1
  Se  Se12  1  0.20988500  0.36064000  0.21148000  1
  Se  Se13  1  0.70988500  0.13936000  0.78852000  1
  Se  Se14  1  0.79011500  0.63936000  0.78852000  1
  Se  Se15  1  0.29011500  0.86064000  0.21148000  1
  Se  Se16  1  0.80731600  0.43661900  0.59128400  1
  Se  Se17  1  0.30731600  0.06338100  0.40871600  1
  Se  Se18  1  0.19268400  0.56338100  0.40871600  1
  Se  Se19  1  0.69268400  0.93661900  0.59128400  1
  Se  Se20  1  0.51802300  0.12842900  0.10757100  1
  Se  Se21  1  0.01802300  0.37157100  0.89242900  1
  Se  Se22  1  0.48197700  0.87157100  0.89242900  1
  Se  Se23  1  0.98197700  0.62842900  0.10757100  1
loop_
_geom_bond_atom_site_label_1
_geom_bond_atom_site_label_2
_geom_bond_distance
_geom_bond_site_symmetry_2
Pr0 Se0 3.096890 1_555
Pr0 Se7 3.118840 1_555
Pr0 Se12 3.151324 1_655
Pr0 Se9 3.157273 1_655
Pr0 Se8 3.198464 1_555
Pr0 Se18 3.235619 1_655
Pr0 Se16 3.247376 1_555
Pr0 Se23 3.387431 1_555
Pr0 Se4 3.461239 1_555
Pr1 Se1 3.096890 1_555
Pr1 Se6 3.118840 1_545
Pr1 Se13 3.151324 1_555
Pr1 Se8 3.157273 1_555
Pr1 Se9 3.198464 1_555
Pr1 Se19 3.235619 1_545
Pr1 Se17 3.247376 1_555
Pr1 Se22 3.387431 1_545
Pr1 Se5 3.461239 1_555
Pr2 Se2 3.096890 1_555
Pr2 Se5 3.118840 1_555
Pr2 Se14 3.151324 1_455
Pr2 Se11 3.157273 1_455
Pr2 Se10 3.198464 1_555
Pr2 Se16 3.235619 1_455
Pr2 Se18 3.247376 1_555
Pr2 Se21 3.387431 1_555
Pr2 Se6 3.461239 1_555
Pr3 Se3 3.096890 1_555
Pr3 Se4 3.118840 1_565
Pr3 Se15 3.151324 1_555
Pr3 Se10 3.157273 1_555
Pr3 Se11 3.198464 1_555
Pr3 Se17 3.235619 1_565
Pr3 Se19 3.247376 1_555
Pr3 Se20 3.387431 1_565
Pr3 Se7 3.461239 1_555
P0 Se13 2.207455 1_555
P0 Se16 2.225705 1_555
P0 Se9 2.231836 1_655
P0 P5 2.251073 1_655
P1 Se12 2.207455 1_555
P1 Se17 2.225705 1_555
P1 Se8 2.231836 1_555
P1 P4 2.251073 1_555
P2 Se15 2.207455 1_555
P2 Se18 2.225705 1_555
P2 Se11 2.231836 1_455
P2 P7 2.251073 1_455
P3 Se14 2.207455 1_555
P3 Se19 2.225705 1_555
P3 Se10 2.231836 1_555
P3 P6 2.251073 1_555
P4 Se20 2.187804 1_555
P4 Se4 2.203989 1_555
P4 Se0 2.215399 1_555
P5 Se21 2.187804 1_555
P5 Se5 2.203989 1_555
P5 Se1 2.215399 1_555
P6 Se22 2.187804 1_555
P6 Se6 2.203989 1_555
P6 Se2 2.215399 1_555
P7 Se23 2.187804 1_555
P7 Se7 2.203989 1_555
P7 Se3 2.215399 1_555
Se4 Tl0 3.332483 1_655
Se5 Tl1 3.332483 1_555
Se6 Tl2 3.332483 1_455
Se7 Tl3 3.332483 1_555
Se12 Tl3 3.396287 1_555
Se13 Tl2 3.396287 1_545
Se14 Tl1 3.396287 1_555
Se15 Tl0 3.396287 1_565
Se20 Tl0 3.378067 1_555
Se21 Tl1 3.378067 1_455
Se22 Tl2 3.378067 1_555
Se23 Tl3 3.378067 1_655
