# generated using pymatgen
data_CaFe3P3H2O13
_symmetry_space_group_name_H-M   'P 1'
_cell_length_a   11.79666697
_cell_length_b   12.73182380
_cell_length_c   12.84641334
_cell_angle_alpha   90.00000000
_cell_angle_beta   90.00000000
_cell_angle_gamma   90.00000000
_symmetry_Int_Tables_number   1
_chemical_formula_structural   CaFe3P3H2O13
_chemical_formula_sum   'Ca8 Fe24 P24 H16 O104'
_cell_volume   1929.44245444
_cell_formula_units_Z   8
loop_
 _symmetry_equiv_pos_site_id
 _symmetry_equiv_pos_as_xyz
  1  'x, y, z'
loop_
 _atom_site_type_symbol
 _atom_site_label
 _atom_site_symmetry_multiplicity
 _atom_site_fract_x
 _atom_site_fract_y
 _atom_site_fract_z
 _atom_site_occupancy
  Ca  Ca0  1  0.00123578  0.24368252  0.87562010  1
  Ca  Ca1  1  0.49876422  0.74368252  0.12437990  1
  Ca  Ca2  1  0.50123578  0.75631748  0.62437990  1
  Ca  Ca3  1  0.99876422  0.25631748  0.37562010  1
  Ca  Ca4  1  0.99876422  0.75631748  0.12437990  1
  Ca  Ca5  1  0.50123578  0.25631748  0.87562010  1
  Ca  Ca6  1  0.49876422  0.24368252  0.37562010  1
  Ca  Ca7  1  0.00123578  0.74368252  0.62437990  1
  Fe  Fe0  1  0.23736856  0.14785613  0.70888327  1
  Fe  Fe1  1  0.26263144  0.64785613  0.29111673  1
  Fe  Fe2  1  0.73736856  0.85214387  0.79111673  1
  Fe  Fe3  1  0.76263144  0.35214387  0.20888327  1
  Fe  Fe4  1  0.76263144  0.85214387  0.29111673  1
  Fe  Fe5  1  0.73736856  0.35214387  0.70888327  1
  Fe  Fe6  1  0.26263144  0.14785613  0.20888327  1
  Fe  Fe7  1  0.23736856  0.64785613  0.79111673  1
  Fe  Fe8  1  0.96547746  0.98976891  0.71480643  1
  Fe  Fe9  1  0.53452254  0.48976891  0.28519357  1
  Fe  Fe10  1  0.46547746  0.01023109  0.78519357  1
  Fe  Fe11  1  0.03452254  0.51023109  0.21480643  1
  Fe  Fe12  1  0.03452254  0.01023109  0.28519357  1
  Fe  Fe13  1  0.46547746  0.51023109  0.71480643  1
  Fe  Fe14  1  0.53452254  0.98976891  0.21480643  1
  Fe  Fe15  1  0.96547746  0.48976891  0.78519357  1
  Fe  Fe16  1  0.77122388  0.17147954  0.04085225  1
  Fe  Fe17  1  0.72877612  0.67147954  0.95914775  1
  Fe  Fe18  1  0.27122388  0.82852046  0.45914775  1
  Fe  Fe19  1  0.22877612  0.32852046  0.54085225  1
  Fe  Fe20  1  0.22877612  0.82852046  0.95914775  1
  Fe  Fe21  1  0.27122388  0.32852046  0.04085225  1
  Fe  Fe22  1  0.72877612  0.17147954  0.54085225  1
  Fe  Fe23  1  0.77122388  0.67147954  0.45914775  1
  P  P0  1  0.23216140  0.88774418  0.70125638  1
  P  P1  1  0.26783860  0.38774418  0.29874362  1
  P  P2  1  0.73216140  0.11225582  0.79874362  1
  P  P3  1  0.76783860  0.61225582  0.20125638  1
  P  P4  1  0.76783860  0.11225582  0.29874362  1
  P  P5  1  0.73216140  0.61225582  0.70125638  1
  P  P6  1  0.26783860  0.88774418  0.20125638  1
  P  P7  1  0.23216140  0.38774418  0.79874362  1
  P  P8  1  0.76245177  0.90499378  0.55662352  1
  P  P9  1  0.73754823  0.40499378  0.44337648  1
  P  P10  1  0.26245177  0.09500622  0.94337648  1
  P  P11  1  0.23754823  0.59500622  0.05662352  1
  P  P12  1  0.23754823  0.09500622  0.44337648  1
  P  P13  1  0.26245177  0.59500622  0.55662352  1
  P  P14  1  0.73754823  0.90499378  0.05662352  1
  P  P15  1  0.76245177  0.40499378  0.94337648  1
  P  P16  1  0.97831185  0.23632229  0.62429705  1
  P  P17  1  0.52168815  0.73632229  0.37570295  1
  P  P18  1  0.47831185  0.76367771  0.87570295  1
  P  P19  1  0.02168815  0.26367771  0.12429705  1
  P  P20  1  0.02168815  0.76367771  0.37570295  1
  P  P21  1  0.47831185  0.26367771  0.62429705  1
  P  P22  1  0.52168815  0.23632229  0.12429705  1
  P  P23  1  0.97831185  0.73632229  0.87570295  1
  H  H0  1  0.06703702  0.00297976  0.91047544  1
  H  H1  1  0.43296298  0.50297976  0.08952456  1
  H  H2  1  0.56703702  0.99702024  0.58952456  1
  H  H3  1  0.93296298  0.49702024  0.41047544  1
  H  H4  1  0.93296298  0.99702024  0.08952456  1
  H  H5  1  0.56703702  0.49702024  0.91047544  1
  H  H6  1  0.43296298  0.00297976  0.41047544  1
  H  H7  1  0.06703702  0.50297976  0.58952456  1
  H  H8  1  0.93109987  0.99888011  0.91882547  1
  H  H9  1  0.56890013  0.49888011  0.08117453  1
  H  H10  1  0.43109987  0.00111989  0.58117453  1
  H  H11  1  0.06890013  0.50111989  0.41882547  1
  H  H12  1  0.06890013  0.00111989  0.08117453  1
  H  H13  1  0.43109987  0.50111989  0.91882547  1
  H  H14  1  0.56890013  0.99888011  0.41882547  1
  H  H15  1  0.93109987  0.49888011  0.58117453  1
  O  O0  1  0.80175413  0.17074758  0.88453782  1
  O  O1  1  0.69824587  0.67074758  0.11546218  1
  O  O2  1  0.30175413  0.82925242  0.61546218  1
  O  O3  1  0.19824587  0.32925242  0.38453782  1
  O  O4  1  0.19824587  0.82925242  0.11546218  1
  O  O5  1  0.30175413  0.32925242  0.88453782  1
  O  O6  1  0.69824587  0.17074758  0.38453782  1
  O  O7  1  0.80175413  0.67074758  0.61546218  1
  O  O8  1  0.60382306  0.18221704  0.04570039  1
  O  O9  1  0.89617694  0.68221704  0.95429961  1
  O  O10  1  0.10382306  0.81778296  0.45429961  1
  O  O11  1  0.39617694  0.31778296  0.54570039  1
  O  O12  1  0.39617694  0.81778296  0.95429961  1
  O  O13  1  0.10382306  0.31778296  0.04570039  1
  O  O14  1  0.89617694  0.18221704  0.54570039  1
  O  O15  1  0.60382306  0.68221704  0.45429961  1
  O  O16  1  0.77101666  0.18310870  0.19938009  1
  O  O17  1  0.72898334  0.68310870  0.80061991  1
  O  O18  1  0.27101666  0.81689130  0.30061991  1
  O  O19  1  0.22898334  0.31689130  0.69938009  1
  O  O20  1  0.22898334  0.81689130  0.80061991  1
  O  O21  1  0.27101666  0.31689130  0.19938009  1
  O  O22  1  0.72898334  0.18310870  0.69938009  1
  O  O23  1  0.77101666  0.68310870  0.30061991  1
  O  O24  1  0.79052414  0.01505079  0.03344236  1
  O  O25  1  0.70947586  0.51505079  0.96655764  1
  O  O26  1  0.29052414  0.98494921  0.46655764  1
  O  O27  1  0.20947586  0.48494921  0.53344236  1
  O  O28  1  0.20947586  0.98494921  0.96655764  1
  O  O29  1  0.29052414  0.48494921  0.03344236  1
  O  O30  1  0.70947586  0.01505079  0.53344236  1
  O  O31  1  0.79052414  0.51505079  0.46655764  1
  O  O32  1  0.94079692  0.20009333  0.05115813  1
  O  O33  1  0.55920308  0.70009333  0.94884187  1
  O  O34  1  0.44079692  0.79990667  0.44884187  1
  O  O35  1  0.05920308  0.29990667  0.55115813  1
  O  O36  1  0.05920308  0.79990667  0.94884187  1
  O  O37  1  0.44079692  0.29990667  0.05115813  1
  O  O38  1  0.55920308  0.20009333  0.55115813  1
  O  O39  1  0.94079692  0.70009333  0.44884187  1
  O  O40  1  0.75808093  0.33825972  0.04516067  1
  O  O41  1  0.74191907  0.83825972  0.95483933  1
  O  O42  1  0.25808093  0.66174028  0.45483933  1
  O  O43  1  0.24191907  0.16174028  0.54516067  1
  O  O44  1  0.24191907  0.66174028  0.95483933  1
  O  O45  1  0.25808093  0.16174028  0.04516067  1
  O  O46  1  0.74191907  0.33825972  0.54516067  1
  O  O47  1  0.75808093  0.83825972  0.45483933  1
  O  O48  1  0.42129522  0.18796183  0.70335299  1
  O  O49  1  0.07870478  0.68796183  0.29664701  1
  O  O50  1  0.92129522  0.81203817  0.79664701  1
  O  O51  1  0.57870478  0.31203817  0.20335299  1
  O  O52  1  0.57870478  0.81203817  0.29664701  1
  O  O53  1  0.92129522  0.31203817  0.70335299  1
  O  O54  1  0.07870478  0.18796183  0.20335299  1
  O  O55  1  0.42129522  0.68796183  0.79664701  1
  O  O56  1  0.18344583  0.14776237  0.86216314  1
  O  O57  1  0.31655417  0.64776237  0.13783686  1
  O  O58  1  0.68344583  0.85223763  0.63783686  1
  O  O59  1  0.81655417  0.35223763  0.36216314  1
  O  O60  1  0.81655417  0.85223763  0.13783686  1
  O  O61  1  0.68344583  0.35223763  0.86216314  1
  O  O62  1  0.31655417  0.14776237  0.36216314  1
  O  O63  1  0.18344583  0.64776237  0.63783686  1
  O  O64  1  0.29409416  0.99117439  0.72801758  1
  O  O65  1  0.20590584  0.49117439  0.27198242  1
  O  O66  1  0.79409416  0.00882561  0.77198242  1
  O  O67  1  0.70590584  0.50882561  0.22801758  1
  O  O68  1  0.70590584  0.00882561  0.27198242  1
  O  O69  1  0.79409416  0.50882561  0.72801758  1
  O  O70  1  0.20590584  0.99117439  0.22801758  1
  O  O71  1  0.29409416  0.49117439  0.77198242  1
  O  O72  1  0.03943265  0.14966988  0.68984590  1
  O  O73  1  0.46056735  0.64966988  0.31015410  1
  O  O74  1  0.53943265  0.85033012  0.81015410  1
  O  O75  1  0.96056735  0.35033012  0.18984590  1
  O  O76  1  0.96056735  0.85033012  0.31015410  1
  O  O77  1  0.53943265  0.35033012  0.68984590  1
  O  O78  1  0.46056735  0.14966988  0.18984590  1
  O  O79  1  0.03943265  0.64966988  0.81015410  1
  O  O80  1  0.99466146  0.02735998  0.87876473  1
  O  O81  1  0.50533854  0.52735998  0.12123527  1
  O  O82  1  0.49466146  0.97264002  0.62123527  1
  O  O83  1  0.00533854  0.47264002  0.37876473  1
  O  O84  1  0.00533854  0.97264002  0.12123527  1
  O  O85  1  0.49466146  0.47264002  0.87876473  1
  O  O86  1  0.50533854  0.02735998  0.37876473  1
  O  O87  1  0.99466146  0.52735998  0.62123527  1
  O  O88  1  0.88641570  0.90947072  0.59434094  1
  O  O89  1  0.61358430  0.40947072  0.40565906  1
  O  O90  1  0.38641570  0.09052928  0.90565906  1
  O  O91  1  0.11358430  0.59052928  0.09434094  1
  O  O92  1  0.11358430  0.09052928  0.40565906  1
  O  O93  1  0.38641570  0.59052928  0.59434094  1
  O  O94  1  0.61358430  0.90947072  0.09434094  1
  O  O95  1  0.88641570  0.40947072  0.90565906  1
  O  O96  1  0.11010409  0.90674819  0.66491264  1
  O  O97  1  0.38989591  0.40674819  0.33508736  1
  O  O98  1  0.61010409  0.09325181  0.83508736  1
  O  O99  1  0.88989591  0.59325181  0.16491264  1
  O  O100  1  0.88989591  0.09325181  0.33508736  1
  O  O101  1  0.61010409  0.59325181  0.66491264  1
  O  O102  1  0.38989591  0.90674819  0.16491264  1
  O  O103  1  0.11010409  0.40674819  0.83508736  1
loop_
_geom_bond_atom_site_label_1
_geom_bond_atom_site_label_2
_geom_bond_distance
_geom_bond_site_symmetry_2
Ca0 O32 2.429302 1_456
Ca0 O56 2.478212 1_555
Ca0 O103 2.496157 1_555
Ca0 O0 2.532400 1_455
Ca0 O95 2.537516 1_455
Ca0 O53 2.558154 1_455
Ca0 O13 2.669926 1_556
Ca0 O72 2.707631 1_555
Ca0 O80 2.755568 1_455
Ca1 O33 2.429302 1_554
Ca1 O57 2.478212 1_555
Ca1 O102 2.496157 1_555
Ca1 O1 2.532400 1_555
Ca1 O94 2.537516 1_555
Ca1 O52 2.558154 1_555
Ca1 O12 2.669926 1_554
Ca1 O73 2.707631 1_555
Ca1 O81 2.755568 1_555
Ca2 O34 2.429302 1_555
Ca2 O58 2.478212 1_555
Ca2 O101 2.496157 1_555
Ca2 O2 2.532400 1_555
Ca2 O93 2.537516 1_555
Ca2 O55 2.558154 1_555
Ca2 O15 2.669926 1_555
Ca2 O74 2.707631 1_555
Ca2 O82 2.755568 1_555
Ca3 O35 2.429302 1_655
Ca3 O59 2.478212 1_555
Ca3 O100 2.496157 1_555
Ca3 O3 2.532400 1_655
Ca3 O92 2.537516 1_655
Ca3 O54 2.558154 1_655
Ca3 O14 2.669926 1_555
Ca3 O75 2.707631 1_555
Ca3 O83 2.755568 1_655
Ca4 O36 2.429302 1_654
Ca4 O60 2.478212 1_555
Ca4 O99 2.496157 1_555
Ca4 O4 2.532400 1_655
Ca4 O91 2.537516 1_655
Ca4 O49 2.558154 1_655
Ca4 O9 2.669926 1_554
Ca4 O76 2.707631 1_555
Ca4 O84 2.755568 1_655
Ca5 O37 2.429302 1_556
Ca5 O61 2.478212 1_555
Ca5 O98 2.496157 1_555
Ca5 O5 2.532400 1_555
Ca5 O90 2.537516 1_555
Ca5 O48 2.558154 1_555
Ca5 O8 2.669926 1_556
Ca5 O77 2.707631 1_555
Ca5 O85 2.755568 1_555
Ca6 O38 2.429302 1_555
Ca6 O62 2.478212 1_555
Ca6 O97 2.496157 1_555
Ca6 O6 2.532400 1_555
Ca6 O89 2.537516 1_555
Ca6 O51 2.558154 1_555
Ca6 O11 2.669926 1_555
Ca6 O78 2.707631 1_555
Ca6 O86 2.755568 1_555
Ca7 O39 2.429302 1_455
Ca7 O63 2.478212 1_555
Ca7 O96 2.496157 1_555
Ca7 O7 2.532400 1_455
Ca7 O88 2.537516 1_455
Ca7 O50 2.558154 1_455
Ca7 O10 2.669926 1_555
Ca7 O79 2.707631 1_555
Ca7 O87 2.755568 1_455
Fe0 O56 2.069294 1_555
Fe0 O43 2.111346 1_555
Fe0 O64 2.118400 1_545
Fe0 O19 2.157854 1_555
Fe0 O48 2.230128 1_555
Fe0 O72 2.347870 1_555
Fe1 O57 2.069294 1_555
Fe1 O42 2.111346 1_555
Fe1 O65 2.118400 1_555
Fe1 O18 2.157854 1_555
Fe1 O49 2.230128 1_555
Fe1 O73 2.347870 1_555
Fe2 O58 2.069294 1_555
Fe2 O41 2.111346 1_555
Fe2 O66 2.118400 1_565
Fe2 O17 2.157854 1_555
Fe2 O50 2.230128 1_555
Fe2 O74 2.347870 1_555
Fe3 O59 2.069294 1_555
Fe3 O40 2.111346 1_555
Fe3 O67 2.118400 1_555
Fe3 O16 2.157854 1_555
Fe3 O51 2.230128 1_555
Fe3 O75 2.347870 1_555
Fe4 O60 2.069294 1_555
Fe4 O47 2.111346 1_555
Fe4 O68 2.118400 1_565
Fe4 O23 2.157854 1_555
Fe4 O52 2.230128 1_555
Fe4 O76 2.347870 1_555
Fe5 O61 2.069294 1_555
Fe5 O46 2.111346 1_555
Fe5 O69 2.118400 1_555
Fe5 O22 2.157854 1_555
Fe5 O53 2.230128 1_555
Fe5 O77 2.347870 1_555
Fe6 O62 2.069294 1_555
Fe6 O45 2.111346 1_555
Fe6 O70 2.118400 1_545
Fe6 O21 2.157854 1_555
Fe6 O54 2.230128 1_555
Fe6 O78 2.347870 1_555
Fe7 O63 2.069294 1_555
Fe7 O44 2.111346 1_555
Fe7 O71 2.118400 1_555
Fe7 O20 2.157854 1_555
Fe7 O55 2.230128 1_555
Fe7 O79 2.347870 1_555
Fe8 O88 2.076044 1_555
Fe8 O96 2.106871 1_655
Fe8 O66 2.164682 1_565
Fe8 O80 2.187232 1_565
Fe8 O72 2.237979 1_665
Fe8 O50 2.549007 1_555
Fe9 O89 2.076044 1_555
Fe9 O97 2.106871 1_555
Fe9 O67 2.164682 1_555
Fe9 O81 2.187232 1_555
Fe9 O73 2.237979 1_555
Fe9 O51 2.549007 1_555
Fe10 O90 2.076044 1_555
Fe10 O98 2.106871 1_555
Fe10 O64 2.164682 1_545
Fe10 O82 2.187232 1_545
Fe10 O74 2.237979 1_545
Fe10 O48 2.549007 1_555
Fe11 O91 2.076044 1_555
Fe11 O99 2.106871 1_455
Fe11 O65 2.164682 1_555
Fe11 O83 2.187232 1_555
Fe11 O75 2.237979 1_455
Fe11 O49 2.549007 1_555
Fe12 O92 2.076044 1_555
Fe12 O100 2.106871 1_455
Fe12 O70 2.164682 1_545
Fe12 O84 2.187232 1_545
Fe12 O76 2.237979 1_445
Fe12 O54 2.549007 1_555
Fe13 O93 2.076044 1_555
Fe13 O101 2.106871 1_555
Fe13 O71 2.164682 1_555
Fe13 O85 2.187232 1_555
Fe13 O77 2.237979 1_555
Fe13 O55 2.549007 1_555
Fe14 O94 2.076044 1_555
Fe14 O102 2.106871 1_555
Fe14 O68 2.164682 1_565
Fe14 O86 2.187232 1_565
Fe14 O78 2.237979 1_565
Fe14 O52 2.549007 1_555
Fe15 O95 2.076044 1_555
Fe15 O103 2.106871 1_655
Fe15 O69 2.164682 1_555
Fe15 O87 2.187232 1_555
Fe15 O79 2.237979 1_655
Fe15 O53 2.549007 1_555
Fe16 O8 1.980478 1_555
Fe16 O24 2.006854 1_555
Fe16 O32 2.037605 1_555
Fe16 O0 2.040143 1_554
Fe16 O16 2.041891 1_555
Fe16 O40 2.129788 1_555
Fe17 O9 1.980478 1_555
Fe17 O25 2.006854 1_555
Fe17 O33 2.037605 1_555
Fe17 O1 2.040143 1_556
Fe17 O17 2.041891 1_555
Fe17 O41 2.129788 1_555
Fe18 O10 1.980478 1_555
Fe18 O26 2.006854 1_555
Fe18 O34 2.037605 1_555
Fe18 O2 2.040143 1_555
Fe18 O18 2.041891 1_555
Fe18 O42 2.129788 1_555
Fe19 O11 1.980478 1_555
Fe19 O27 2.006854 1_555
Fe19 O35 2.037605 1_555
Fe19 O3 2.040143 1_555
Fe19 O19 2.041891 1_555
Fe19 O43 2.129788 1_555
Fe20 O12 1.980478 1_555
Fe20 O28 2.006854 1_555
Fe20 O36 2.037605 1_555
Fe20 O4 2.040143 1_556
Fe20 O20 2.041891 1_555
Fe20 O44 2.129788 1_555
Fe21 O13 1.980478 1_555
Fe21 O29 2.006854 1_555
Fe21 O37 2.037605 1_555
Fe21 O5 2.040143 1_554
Fe21 O21 2.041891 1_555
Fe21 O45 2.129788 1_555
Fe22 O14 1.980478 1_555
Fe22 O30 2.006854 1_555
Fe22 O38 2.037605 1_555
Fe22 O6 2.040143 1_555
Fe22 O22 2.041891 1_555
Fe22 O46 2.129788 1_555
Fe23 O15 1.980478 1_555
Fe23 O31 2.006854 1_555
Fe23 O39 2.037605 1_555
Fe23 O7 2.040143 1_555
Fe23 O23 2.041891 1_555
Fe23 O47 2.129788 1_555
H0 O80 0.995620 1_455
H1 O81 0.995620 1_555
H2 O82 0.995620 1_555
H3 O83 0.995620 1_655
H4 O84 0.995620 1_655
H5 O85 0.995620 1_555
H6 O86 0.995620 1_555
H7 O87 0.995620 1_455
H8 O80 0.979057 1_565
H9 O81 0.979057 1_555
H10 O82 0.979057 1_545
H11 O83 0.979057 1_555
H12 O84 0.979057 1_545
H13 O85 0.979057 1_555
H14 O86 0.979057 1_565
H15 O87 0.979057 1_555
O0 P2 1.563105 1_555
O1 P3 1.563105 1_555
O2 P0 1.563105 1_555
O3 P1 1.563105 1_555
O4 P6 1.563105 1_555
O5 P7 1.563105 1_555
O6 P4 1.563105 1_555
O7 P5 1.563105 1_555
O8 P22 1.559741 1_555
O9 P23 1.559741 1_555
O10 P20 1.559741 1_555
O11 P21 1.559741 1_555
O12 P18 1.559741 1_555
O13 P19 1.559741 1_555
O14 P16 1.559741 1_555
O15 P17 1.559741 1_555
O16 P4 1.563499 1_555
O17 P5 1.563499 1_555
O18 P6 1.563499 1_555
O19 P7 1.563499 1_555
O20 P0 1.563499 1_555
O21 P1 1.563499 1_555
O22 P2 1.563499 1_555
O23 P3 1.563499 1_555
O24 P14 1.562903 1_545
O25 P15 1.562903 1_555
O26 P12 1.562903 1_565
O27 P13 1.562903 1_555
O28 P10 1.562903 1_565
O29 P11 1.562903 1_555
O30 P8 1.562903 1_545
O31 P9 1.562903 1_555
O32 P19 1.564847 1_655
O33 P18 1.564847 1_555
O34 P17 1.564847 1_555
O35 P16 1.564847 1_455
O36 P23 1.564847 1_455
O37 P22 1.564847 1_555
O38 P21 1.564847 1_555
O39 P20 1.564847 1_655
O40 P15 1.560216 1_554
O41 P14 1.560216 1_556
O42 P13 1.560216 1_555
O43 P12 1.560216 1_555
O44 P11 1.560216 1_556
O45 P10 1.560216 1_554
O46 P9 1.560216 1_555
O47 P8 1.560216 1_555
O48 P21 1.553419 1_555
O49 P20 1.553419 1_555
O50 P23 1.553419 1_555
O51 P22 1.553419 1_555
O52 P17 1.553419 1_555
O53 P16 1.553419 1_555
O54 P19 1.553419 1_555
O55 P18 1.553419 1_555
O56 P10 1.551860 1_555
O57 P11 1.551860 1_555
O58 P8 1.551860 1_555
O59 P9 1.551860 1_555
O60 P14 1.551860 1_555
O61 P15 1.551860 1_555
O62 P12 1.551860 1_555
O63 P13 1.551860 1_555
O64 P0 1.544692 1_555
O65 P1 1.544692 1_555
O66 P2 1.544692 1_555
O67 P3 1.544692 1_555
O68 P4 1.544692 1_555
O69 P5 1.544692 1_555
O70 P6 1.544692 1_555
O71 P7 1.544692 1_555
O72 P16 1.564000 1_455
O73 P17 1.564000 1_555
O74 P18 1.564000 1_555
O75 P19 1.564000 1_655
O76 P20 1.564000 1_655
O77 P21 1.564000 1_555
O78 P22 1.564000 1_555
O79 P23 1.564000 1_455
O88 P8 1.541597 1_555
O89 P9 1.541597 1_555
O90 P10 1.541597 1_555
O91 P11 1.541597 1_555
O92 P12 1.541597 1_555
O93 P13 1.541597 1_555
O94 P14 1.541597 1_555
O95 P15 1.541597 1_555
O96 P0 1.532889 1_555
O97 P1 1.532889 1_555
O98 P2 1.532889 1_555
O99 P3 1.532889 1_555
O100 P4 1.532889 1_555
O101 P5 1.532889 1_555
O102 P6 1.532889 1_555
O103 P7 1.532889 1_555
