# generated using pymatgen
data_MgFe8(OF)8
_symmetry_space_group_name_H-M   'P 1'
_cell_length_a   5.37459148
_cell_length_b   5.31791536
_cell_length_c   11.58248304
_cell_angle_alpha   89.02297118
_cell_angle_beta   87.61815172
_cell_angle_gamma   93.09989271
_symmetry_Int_Tables_number   1
_chemical_formula_structural   MgFe8(OF)8
_chemical_formula_sum   'Mg1 Fe8 O8 F8'
_cell_volume   330.21437467
_cell_formula_units_Z   1
loop_
 _symmetry_equiv_pos_site_id
 _symmetry_equiv_pos_as_xyz
  1  'x, y, z'
loop_
 _atom_site_type_symbol
 _atom_site_label
 _atom_site_symmetry_multiplicity
 _atom_site_fract_x
 _atom_site_fract_y
 _atom_site_fract_z
 _atom_site_occupancy
  Mg  Mg0  1  0.49155300  0.06414600  0.84697100  1
  Fe  Fe0  1  0.94518800  0.91802200  0.00819000  1
  Fe  Fe1  1  0.09756300  0.06130400  0.24827500  1
  Fe  Fe2  1  0.94273000  0.89031100  0.49393400  1
  Fe  Fe3  1  0.05591800  0.04218900  0.73501500  1
  Fe  Fe4  1  0.62314600  0.41153200  0.12771200  1
  Fe  Fe5  1  0.41198400  0.56333500  0.62484700  1
  Fe  Fe6  1  0.39903800  0.56628600  0.89348600  1
  Fe  Fe7  1  0.43174200  0.56832100  0.36842400  1
  O  O0  1  0.18156300  0.81202200  0.36561200  1
  O  O1  1  0.14380100  0.77904700  0.61862400  1
  O  O2  1  0.17900400  0.85138700  0.88417900  1
  O  O3  1  0.36235500  0.31898800  0.24616500  1
  O  O4  1  0.34427700  0.32762700  0.75412400  1
  O  O5  1  0.67626500  0.67094700  0.00582000  1
  O  O6  1  0.64149300  0.67716200  0.49613500  1
  O  O7  1  0.87937400  0.17525000  0.12355700  1
  F  F0  1  0.17204400  0.80399600  0.12699900  1
  F  F1  1  0.41022500  0.24201600  0.00198400  1
  F  F2  1  0.28988300  0.33923400  0.49635400  1
  F  F3  1  0.70375900  0.66822900  0.24915800  1
  F  F4  1  0.60638500  0.78096600  0.75034800  1
  F  F5  1  0.85688000  0.15014900  0.37003700  1
  F  F6  1  0.83791000  0.15120300  0.60321500  1
  F  F7  1  0.82981100  0.16633100  0.87854300  1
loop_
_geom_bond_atom_site_label_1
_geom_bond_atom_site_label_2
_geom_bond_distance
_geom_bond_site_symmetry_2
Mg0 O4 1.971199 1_555
Mg0 O2 2.001329 1_545
Fe0 O5 1.901401 1_555
Fe0 O2 1.919215 1_654
Fe0 O7 1.963982 1_565
Fe1 O3 1.920633 1_555
Fe1 O0 1.965327 1_545
Fe1 O7 2.004211 1_455
Fe2 O6 1.924536 1_555
Fe2 O1 1.942542 1_655
Fe2 O0 1.987565 1_655
Fe3 O1 2.020294 1_545
Fe3 O4 2.130860 1_555
Fe3 O2 2.135394 1_545
Fe4 O7 1.913463 1_555
Fe4 O3 1.957465 1_555
Fe4 O5 1.958405 1_555
Fe5 O1 1.892967 1_555
Fe5 O4 1.946033 1_555
Fe5 O6 1.961147 1_555
Fe6 O2 1.976810 1_555
Fe6 O5 2.078183 1_556
Fe6 O4 2.090902 1_555
Fe7 O0 1.918143 1_555
Fe7 O6 1.972607 1_555
Fe7 O3 1.989183 1_555
F0 Fe0 1.984669 1_455
F0 Fe1 2.020835 1_565
F1 Fe4 2.077155 1_555
F1 Mg0 2.084892 1_554
F1 Fe6 2.121352 1_554
F2 Fe7 2.001282 1_555
F2 Fe5 2.030504 1_555
F3 Fe7 2.012715 1_555
F3 Fe4 2.020402 1_555
F4 Mg0 2.000442 1_565
F4 Fe5 2.144044 1_555
F4 Fe6 2.222197 1_555
F5 Fe1 1.955176 1_655
F5 Fe2 2.058629 1_545
F6 Fe2 1.982304 1_545
F6 Fe3 2.057025 1_655
F7 Mg0 1.920762 1_555
F7 Fe0 2.116944 1_546
F7 Fe3 2.152327 1_655
