# generated using pymatgen
data_CeSiBIr3
_symmetry_space_group_name_H-M   'P 1'
_cell_length_a   5.54248095
_cell_length_b   5.54248095
_cell_length_c   3.48476700
_cell_angle_alpha   90.00000000
_cell_angle_beta   90.00000000
_cell_angle_gamma   119.99998747
_symmetry_Int_Tables_number   1
_chemical_formula_structural   CeSiBIr3
_chemical_formula_sum   'Ce1 Si1 B1 Ir3'
_cell_volume   92.70706887
_cell_formula_units_Z   1
loop_
 _symmetry_equiv_pos_site_id
 _symmetry_equiv_pos_as_xyz
  1  'x, y, z'
loop_
 _atom_site_type_symbol
 _atom_site_label
 _atom_site_symmetry_multiplicity
 _atom_site_fract_x
 _atom_site_fract_y
 _atom_site_fract_z
 _atom_site_occupancy
  Ce  Ce0  1  0.66666700  0.33333300  0.00000000  1
  Si  Si0  1  0.33333300  0.66666700  0.00000000  1
  B  B0  1  0.00000000  0.00000000  0.00000000  1
  Ir  Ir0  1  0.16028500  0.32056900  0.50000000  1
  Ir  Ir1  1  0.67943100  0.83971500  0.50000000  1
  Ir  Ir2  1  0.16028500  0.83971500  0.50000000  1
loop_
_geom_bond_atom_site_label_1
_geom_bond_atom_site_label_2
_geom_bond_distance
_geom_bond_site_symmetry_2
Ce0 Si0 3.199950 1_545
Ce0 Si0 3.199950 1_655
Ce0 Si0 3.199959 1_555
Ce0 Ir0 3.274054 1_655
Ce0 Ir0 3.274054 1_654
Ce0 Ir1 3.274054 1_544
Ce0 Ir1 3.274054 1_545
Ce0 Ir0 3.274054 1_554
Ce0 Ir1 3.274054 1_554
Ce0 Ir0 3.274054 1_555
Ce0 Ir1 3.274054 1_555
Ce0 Ir2 3.274054 1_544
Ce0 Ir2 3.274054 1_545
Ce0 Ir2 3.274054 1_654
Ce0 Ir2 3.274054 1_655
B0 Ir1 2.324548 1_444
B0 Ir0 2.324548 1_555
B0 Ir1 2.324548 1_445
B0 Ir0 2.324548 1_554
B0 Ir2 2.324551 1_544
B0 Ir2 2.324551 1_545
B0 Ce0 3.199949 1_455
B0 Ce0 3.199955 1_555
B0 Ce0 3.199955 1_445
Ir0 Si0 2.407413 1_555
Ir0 Si0 2.407413 1_556
Ir1 Si0 2.407413 1_555
Ir1 Si0 2.407413 1_556
Ir2 Si0 2.407407 1_556
Ir2 Si0 2.407407 1_555
