# generated using pymatgen
data_NaZnH2C3O7
_symmetry_space_group_name_H-M   'P 1'
_cell_length_a   5.99481631
_cell_length_b   7.28581155
_cell_length_c   15.58566400
_cell_angle_alpha   90.00000000
_cell_angle_beta   90.00000000
_cell_angle_gamma   100.77761571
_symmetry_Int_Tables_number   1
_chemical_formula_structural   NaZnH2C3O7
_chemical_formula_sum   'Na4 Zn4 H8 C12 O28'
_cell_volume   668.72870062
_cell_formula_units_Z   4
loop_
 _symmetry_equiv_pos_site_id
 _symmetry_equiv_pos_as_xyz
  1  'x, y, z'
loop_
 _atom_site_type_symbol
 _atom_site_label
 _atom_site_symmetry_multiplicity
 _atom_site_fract_x
 _atom_site_fract_y
 _atom_site_fract_z
 _atom_site_occupancy
  Na  Na0  1  0.02604000  0.19239000  0.68184100  1
  Na  Na1  1  0.97396000  0.30761000  0.18184100  1
  Na  Na2  1  0.97396000  0.80761000  0.31815900  1
  Na  Na3  1  0.02604000  0.69239000  0.81815900  1
  Zn  Zn0  1  0.22813000  0.78490700  0.60032100  1
  Zn  Zn1  1  0.77187000  0.71509300  0.10032100  1
  Zn  Zn2  1  0.77187000  0.21509300  0.39967900  1
  Zn  Zn3  1  0.22813000  0.28490700  0.89967900  1
  H  H0  1  0.32557800  0.12481200  0.52576000  1
  H  H1  1  0.67442200  0.37518800  0.02576000  1
  H  H2  1  0.67442200  0.87518800  0.47424000  1
  H  H3  1  0.32557800  0.62481200  0.97424000  1
  H  H4  1  0.44500700  0.13488000  0.61990600  1
  H  H5  1  0.55499300  0.36512000  0.11990600  1
  H  H6  1  0.55499300  0.86512000  0.38009400  1
  H  H7  1  0.44500700  0.63488000  0.88009400  1
  C  C0  1  0.70144500  0.78625500  0.65126100  1
  C  C1  1  0.29855500  0.71374500  0.15126100  1
  C  C2  1  0.29855500  0.21374500  0.34873900  1
  C  C3  1  0.70144500  0.28625500  0.84873900  1
  C  C4  1  0.54813600  0.74482200  0.73264600  1
  C  C5  1  0.45186400  0.75517800  0.23264600  1
  C  C6  1  0.45186400  0.25517800  0.26735400  1
  C  C7  1  0.54813600  0.24482200  0.76735400  1
  C  C8  1  0.00450100  0.57195300  0.46330700  1
  C  C9  1  0.99549900  0.92804700  0.96330700  1
  C  C10  1  0.99549900  0.42804700  0.53669300  1
  C  C11  1  0.00450100  0.07195300  0.03669300  1
  O  O0  1  0.11154800  0.73705000  0.47663900  1
  O  O1  1  0.88845200  0.76295000  0.97663900  1
  O  O2  1  0.88845200  0.26295000  0.52336100  1
  O  O3  1  0.11154800  0.23705000  0.02336100  1
  O  O4  1  0.90363300  0.51571600  0.39429700  1
  O  O5  1  0.09636700  0.98428400  0.89429700  1
  O  O6  1  0.09636700  0.48428400  0.60570300  1
  O  O7  1  0.90363300  0.01571600  0.10570300  1
  O  O8  1  0.30649700  0.07821900  0.58571300  1
  O  O9  1  0.69350300  0.42178100  0.08571300  1
  O  O10  1  0.69350300  0.92178100  0.41428700  1
  O  O11  1  0.30649700  0.57821900  0.91428700  1
  O  O12  1  0.63641600  0.70166800  0.80120200  1
  O  O13  1  0.36358400  0.79833200  0.30120200  1
  O  O14  1  0.36358400  0.29833200  0.19879800  1
  O  O15  1  0.63641600  0.20166800  0.69879800  1
  O  O16  1  0.91382200  0.82175500  0.66424600  1
  O  O17  1  0.08617800  0.67824500  0.16424600  1
  O  O18  1  0.08617800  0.17824500  0.33575400  1
  O  O19  1  0.91382200  0.32175500  0.83575400  1
  O  O20  1  0.59830300  0.78233800  0.57990600  1
  O  O21  1  0.40169700  0.71766200  0.07990600  1
  O  O22  1  0.40169700  0.21766300  0.42009400  1
  O  O23  1  0.59830300  0.28233800  0.92009400  1
  O  O24  1  0.34009800  0.75776800  0.72374100  1
  O  O25  1  0.65990200  0.74223200  0.22374100  1
  O  O26  1  0.65990200  0.24223200  0.27625900  1
  O  O27  1  0.34009800  0.25776800  0.77625900  1
loop_
_geom_bond_atom_site_label_1
_geom_bond_atom_site_label_2
_geom_bond_distance
_geom_bond_site_symmetry_2
Na0 O15 2.364122 1_455
Na0 O27 2.366778 1_555
Na0 O6 2.402784 1_555
Na0 O8 2.507265 1_555
Na0 O16 2.672151 1_445
Na0 O2 2.684058 1_455
Na0 O19 2.707854 1_455
Na1 O14 2.364122 1_655
Na1 O26 2.366778 1_555
Na1 O7 2.402784 1_555
Na1 O9 2.507265 1_555
Na1 O17 2.672151 1_655
Na1 O3 2.684058 1_655
Na1 O18 2.707854 1_655
Na2 O13 2.364122 1_655
Na2 O25 2.366778 1_555
Na2 O4 2.402784 1_555
Na2 O10 2.507265 1_555
Na2 O18 2.672151 1_665
Na2 O0 2.684058 1_655
Na2 O17 2.707854 1_655
Na3 O12 2.364122 1_455
Na3 O24 2.366778 1_555
Na3 O5 2.402784 1_555
Na3 O11 2.507265 1_555
Na3 O19 2.672151 1_455
Na3 O1 2.684058 1_455
Na3 O16 2.707854 1_455
H0 O8 0.993437 1_555
H1 O9 0.993437 1_555
H2 O10 0.993437 1_555
H3 O11 0.993437 1_555
H4 O8 1.007817 1_555
H4 O15 1.690120 1_555
H5 O9 1.007817 1_555
H5 O14 1.690120 1_555
H6 O10 1.007817 1_555
H6 O13 1.690120 1_555
H7 O11 1.007817 1_555
H7 O12 1.690120 1_555
C0 O16 1.267138 1_555
C0 O20 1.270170 1_555
C1 O17 1.267138 1_555
C1 O21 1.270170 1_555
C2 O18 1.267138 1_555
C2 O22 1.270169 1_555
C3 O19 1.267138 1_555
C3 O23 1.270170 1_555
C4 O12 1.258107 1_555
C4 O24 1.275749 1_555
C5 O13 1.258107 1_555
C5 O25 1.275749 1_555
C6 O14 1.258107 1_555
C6 O26 1.275749 1_555
C7 O15 1.258107 1_555
C7 O27 1.275749 1_555
C8 O4 1.264005 1_455
C8 O0 1.270112 1_555
C9 O5 1.264005 1_655
C9 O1 1.270112 1_555
C10 O6 1.264005 1_655
C10 O2 1.270112 1_555
C11 O7 1.264005 1_455
C11 O3 1.270112 1_555
O0 Zn0 2.057858 1_555
O1 Zn1 2.057858 1_556
O2 Zn2 2.057858 1_555
O3 Zn3 2.057858 1_554
O4 Zn2 2.186610 1_555
O5 Zn3 2.186610 1_565
O6 Zn0 2.186610 1_555
O7 Zn1 2.186610 1_545
O8 Zn0 2.112796 1_545
O9 Zn1 2.112796 1_555
O10 Zn2 2.112796 1_565
O11 Zn3 2.112796 1_555
O16 Zn0 2.191844 1_655
O17 Zn1 2.191844 1_455
O18 Zn2 2.191844 1_455
O19 Zn3 2.191844 1_655
O20 Zn0 2.245354 1_555
O21 Zn1 2.245354 1_555
O22 Zn2 2.245355 1_555
O23 Zn3 2.245354 1_555
O24 Zn0 2.058993 1_555
O25 Zn1 2.058993 1_555
O26 Zn2 2.058993 1_555
O27 Zn3 2.058993 1_555
