# generated using pymatgen
data_Cr2O3
_symmetry_space_group_name_H-M   'P 1'
_cell_length_a   10.19560740
_cell_length_b   9.95748279
_cell_length_c   9.54231854
_cell_angle_alpha   85.54428501
_cell_angle_beta   86.46254938
_cell_angle_gamma   93.03128111
_symmetry_Int_Tables_number   1
_chemical_formula_structural   Cr2O3
_chemical_formula_sum   'Cr32 O48'
_cell_volume   962.37216550
_cell_formula_units_Z   16
loop_
 _symmetry_equiv_pos_site_id
 _symmetry_equiv_pos_as_xyz
  1  'x, y, z'
loop_
 _atom_site_type_symbol
 _atom_site_label
 _atom_site_symmetry_multiplicity
 _atom_site_fract_x
 _atom_site_fract_y
 _atom_site_fract_z
 _atom_site_occupancy
  Cr  Cr0  1  0.44653400  0.29986900  0.45251100  1
  Cr  Cr1  1  0.67426500  0.28546300  0.25857400  1
  Cr  Cr2  1  0.50422300  0.51318600  0.00578100  1
  Cr  Cr3  1  0.15135200  0.48957300  0.60231200  1
  Cr  Cr4  1  0.86453500  0.13987800  0.41463000  1
  Cr  Cr5  1  0.99924200  0.85275000  0.86506200  1
  Cr  Cr6  1  0.59441300  0.96591100  0.47889800  1
  Cr  Cr7  1  0.60655200  0.73566300  0.70228500  1
  Cr  Cr8  1  0.28449400  0.31557800  0.75649000  1
  Cr  Cr9  1  0.60306100  0.60475300  0.32080600  1
  Cr  Cr10  1  0.80955000  0.62494900  0.01742600  1
  Cr  Cr11  1  0.19370000  0.86273100  0.63186900  1
  Cr  Cr12  1  0.33759300  0.93687700  0.27438500  1
  Cr  Cr13  1  0.41143600  0.85763100  0.94577900  1
  Cr  Cr14  1  0.91903200  0.06800900  0.13365600  1
  Cr  Cr15  1  0.43325100  0.23159300  0.04148200  1
  Cr  Cr16  1  0.93288200  0.75011200  0.28711300  1
  Cr  Cr17  1  0.53582300  0.44273200  0.70558300  1
  Cr  Cr18  1  0.03328400  0.14882100  0.74545100  1
  Cr  Cr19  1  0.39566800  0.65067500  0.49356600  1
  Cr  Cr20  1  0.03735000  0.37126300  0.92854900  1
  Cr  Cr21  1  0.87498500  0.92888200  0.59622000  1
  Cr  Cr22  1  0.57336000  0.12586900  0.75553300  1
  Cr  Cr23  1  0.71780300  0.92356800  0.91841900  1
  Cr  Cr24  1  0.22229400  0.04127300  0.99965800  1
  Cr  Cr25  1  0.16724800  0.13844400  0.48881700  1
  Cr  Cr26  1  0.89273900  0.50347300  0.46150600  1
  Cr  Cr27  1  0.62890300  0.99852400  0.17522800  1
  Cr  Cr28  1  0.17479500  0.66962800  0.01654800  1
  Cr  Cr29  1  0.26475400  0.48227500  0.23057600  1
  Cr  Cr30  1  0.02138900  0.33343900  0.22946000  1
  Cr  Cr31  1  0.76545000  0.29370700  0.91792300  1
  O  O0  1  0.17610100  0.46769700  0.79925300  1
  O  O1  1  0.64544500  0.60067300  0.11894900  1
  O  O2  1  0.67720300  0.11029000  0.92192100  1
  O  O3  1  0.86795800  0.48042000  0.94730000  1
  O  O4  1  0.59395200  0.41420800  0.37319000  1
  O  O5  1  0.85789100  0.33763400  0.35564600  1
  O  O6  1  0.60476000  0.57603100  0.82274300  1
  O  O7  1  0.12549400  0.46783700  0.09561700  1
  O  O8  1  0.96823200  0.50269200  0.62028200  1
  O  O9  1  0.96377500  0.70006000  0.09496000  1
  O  O10  1  0.39696200  0.59370300  0.31849600  1
  O  O11  1  0.46116400  0.83062400  0.40043200  1
  O  O12  1  0.42796100  0.37238300  0.87755100  1
  O  O13  1  0.23779200  0.67978400  0.57543800  1
  O  O14  1  0.92466200  0.28507900  0.80124400  1
  O  O15  1  0.98481900  0.10413000  0.55638700  1
  O  O16  1  0.14802000  0.28623500  0.62352100  1
  O  O17  1  0.40145900  0.39180300  0.15284000  1
  O  O18  1  0.27480500  0.86645100  0.10595000  1
  O  O19  1  0.19643100  0.82828300  0.84874500  1
  O  O20  1  0.04337200  0.97801500  0.02238700  1
  O  O21  1  0.76073600  0.11753600  0.25332200  1
  O  O22  1  0.71777500  0.82054900  0.56553100  1
  O  O23  1  0.52743500  0.15393200  0.34657500  1
  O  O24  1  0.41396900  0.08021700  0.91116200  1
  O  O25  1  0.91407200  0.26187000  0.07116900  1
  O  O26  1  0.16013200  0.21347500  0.90077000  1
  O  O27  1  0.79396100  0.92499500  0.09821600  1
  O  O28  1  0.43880200  0.21073900  0.63082500  1
  O  O29  1  0.01047500  0.81137600  0.66257900  1
  O  O30  1  0.81336800  0.75789300  0.87823800  1
  O  O31  1  0.55681000  0.90202000  0.78054400  1
  O  O32  1  0.55908700  0.86757400  0.05338200  1
  O  O33  1  0.03524000  0.62780300  0.36483900  1
  O  O34  1  0.78944600  0.62734400  0.34362400  1
  O  O35  1  0.36080200  0.44816400  0.57959200  1
  O  O36  1  0.31020600  0.11051300  0.16194300  1
  O  O37  1  0.56246700  0.60780000  0.55189700  1
  O  O38  1  0.72632000  0.07990000  0.56571100  1
  O  O39  1  0.18643300  0.04608400  0.67542000  1
  O  O40  1  0.37490300  0.65513400  0.98247200  1
  O  O41  1  0.61480800  0.32082500  0.06400600  1
  O  O42  1  0.91492800  0.90033700  0.37703100  1
  O  O43  1  0.02246200  0.14623900  0.28169500  1
  O  O44  1  0.88768600  0.99097700  0.79359800  1
  O  O45  1  0.23015300  0.96411400  0.43551100  1
  O  O46  1  0.65864500  0.31203100  0.74756400  1
  O  O47  1  0.16848900  0.35528500  0.35599400  1
loop_
_geom_bond_atom_site_label_1
_geom_bond_atom_site_label_2
_geom_bond_distance
_geom_bond_site_symmetry_2
Cr0 O28 1.852161 1_555
Cr0 O4 1.916493 1_555
Cr0 O23 2.016440 1_555
Cr0 O35 2.167709 1_555
Cr1 O4 1.930935 1_555
Cr1 O21 1.933720 1_555
Cr1 O41 1.999606 1_555
Cr1 O23 2.031798 1_555
Cr1 O5 2.195187 1_555
Cr2 O17 1.987195 1_555
Cr2 O40 1.992529 1_554
Cr2 O6 2.008566 1_554
Cr2 O1 2.050266 1_555
Cr2 O12 2.082350 1_554
Cr2 O41 2.321452 1_555
Cr3 O8 1.876699 1_455
Cr3 O0 1.908800 1_555
Cr3 O16 2.017392 1_555
Cr3 O13 2.037128 1_555
Cr3 O35 2.197074 1_555
Cr4 O15 1.906967 1_555
Cr4 O21 1.941160 1_555
Cr4 O43 1.982530 1_655
Cr4 O38 1.986804 1_555
Cr4 O5 2.011354 1_555
Cr4 O42 2.514326 1_545
Cr5 O44 1.941280 1_555
Cr5 O29 2.004356 1_655
Cr5 O19 2.035835 1_655
Cr5 O30 2.064507 1_555
Cr5 O20 2.080130 1_656
Cr5 O9 2.565287 1_556
Cr6 O38 1.976203 1_565
Cr6 O11 2.075984 1_555
Cr6 O22 2.120224 1_555
Cr6 O23 2.332415 1_565
Cr7 O22 1.802194 1_555
Cr7 O6 1.886433 1_555
Cr7 O31 1.947607 1_555
Cr7 O37 2.045820 1_555
Cr8 O16 1.965673 1_555
Cr8 O0 1.974752 1_555
Cr8 O26 1.991879 1_555
Cr8 O12 2.004137 1_555
Cr8 O35 2.140262 1_555
Cr8 O28 2.266778 1_555
Cr9 O4 1.920077 1_555
Cr9 O34 1.929415 1_555
Cr9 O1 1.951889 1_555
Cr9 O10 2.099932 1_555
Cr9 O37 2.221256 1_555
Cr10 O3 1.750612 1_554
Cr10 O30 1.798044 1_554
Cr10 O1 1.875417 1_555
Cr10 O9 1.919484 1_555
Cr11 O39 1.907851 1_565
Cr11 O29 1.909257 1_555
Cr11 O13 2.004937 1_555
Cr11 O45 2.061197 1_555
Cr11 O19 2.073424 1_555
Cr12 O45 1.877717 1_555
Cr12 O18 1.933775 1_555
Cr12 O36 2.004584 1_565
Cr12 O11 2.069692 1_555
Cr13 O32 1.876450 1_556
Cr13 O18 2.013786 1_556
Cr13 O40 2.030227 1_555
Cr13 O31 2.100551 1_555
Cr13 O24 2.213895 1_565
Cr13 O19 2.443940 1_555
Cr14 O20 1.907712 1_645
Cr14 O27 1.924674 1_545
Cr14 O25 1.979803 1_555
Cr14 O43 1.995571 1_655
Cr14 O21 2.023891 1_555
Cr15 O36 1.948194 1_555
Cr15 O17 2.013637 1_555
Cr15 O12 2.023096 1_554
Cr15 O24 2.036462 1_554
Cr15 O41 2.041324 1_555
Cr16 O33 1.792219 1_655
Cr16 O42 1.793412 1_555
Cr16 O34 1.880171 1_555
Cr16 O9 1.948579 1_555
Cr17 O46 1.890935 1_555
Cr17 O6 1.932493 1_555
Cr17 O12 1.977398 1_555
Cr17 O37 2.110731 1_555
Cr17 O35 2.213009 1_555
Cr18 O14 1.883930 1_455
Cr18 O15 1.976993 1_455
Cr18 O16 2.002447 1_555
Cr18 O39 2.019311 1_555
Cr18 O44 2.107584 1_445
Cr18 O26 2.140195 1_555
Cr19 O13 1.792947 1_555
Cr19 O10 1.805032 1_555
Cr19 O37 1.881717 1_555
Cr19 O11 1.999802 1_555
Cr19 O35 2.120724 1_555
Cr20 O14 1.939619 1_455
Cr20 O0 1.975447 1_555
Cr20 O25 2.008036 1_456
Cr20 O26 2.082720 1_555
Cr20 O3 2.094461 1_455
Cr20 O7 2.144176 1_556
Cr21 O22 1.934600 1_555
Cr21 O29 1.960117 1_655
Cr21 O15 2.020235 1_565
Cr21 O44 2.036912 1_555
Cr21 O42 2.149607 1_555
Cr21 O38 2.207029 1_565
Cr22 O2 1.962758 1_555
Cr22 O46 1.999389 1_555
Cr22 O28 2.044559 1_555
Cr22 O24 2.138253 1_555
Cr22 O31 2.219537 1_545
Cr22 O38 2.403814 1_555
Cr23 O27 1.927094 1_556
Cr23 O2 1.928402 1_565
Cr23 O30 2.009991 1_555
Cr23 O32 2.030734 1_556
Cr23 O44 2.089854 1_555
Cr23 O31 2.178149 1_555
Cr24 O20 1.892088 1_546
Cr24 O36 1.987117 1_556
Cr24 O26 2.041965 1_555
Cr24 O18 2.058388 1_546
Cr24 O24 2.085155 1_555
Cr24 O19 2.665247 1_545
Cr25 O15 1.934567 1_455
Cr25 O39 1.965260 1_555
Cr25 O45 1.974352 1_545
Cr25 O16 2.037074 1_555
Cr25 O47 2.416317 1_555
Cr25 O43 2.537657 1_555
Cr26 O8 1.740892 1_555
Cr26 O33 1.990319 1_655
Cr26 O34 1.990928 1_555
Cr26 O5 2.028541 1_555
Cr27 O32 1.948925 1_555
Cr27 O21 1.964355 1_565
Cr27 O27 1.992347 1_555
Cr27 O23 2.547943 1_565
Cr27 O2 2.588589 1_564
Cr28 O40 2.060494 1_554
Cr28 O7 2.114276 1_555
Cr28 O19 2.152879 1_554
Cr28 O9 2.277292 1_455
Cr28 O18 2.400901 1_555
Cr29 O17 1.847569 1_555
Cr29 O47 1.866333 1_555
Cr29 O10 1.969236 1_555
Cr29 O7 1.981898 1_555
Cr30 O43 1.892532 1_555
Cr30 O7 1.991391 1_555
Cr30 O47 1.996069 1_555
Cr30 O5 1.999466 1_455
Cr30 O25 2.067676 1_455
Cr31 O14 1.920568 1_555
Cr31 O2 1.989410 1_555
Cr31 O46 2.013728 1_555
Cr31 O41 2.052599 1_556
Cr31 O3 2.130516 1_555
Cr31 O25 2.187969 1_556
