# generated using pymatgen
data_NaV3(PbO3)4
_symmetry_space_group_name_H-M   'P 1'
_cell_length_a   10.28833657
_cell_length_b   10.28833657
_cell_length_c   7.41286500
_cell_angle_alpha   90.00000000
_cell_angle_beta   90.00000000
_cell_angle_gamma   120.00000368
_symmetry_Int_Tables_number   1
_chemical_formula_structural   NaV3(PbO3)4
_chemical_formula_sum   'Na2 V6 Pb8 O24'
_cell_volume   679.52749408
_cell_formula_units_Z   2
loop_
 _symmetry_equiv_pos_site_id
 _symmetry_equiv_pos_as_xyz
  1  'x, y, z'
loop_
 _atom_site_type_symbol
 _atom_site_label
 _atom_site_symmetry_multiplicity
 _atom_site_fract_x
 _atom_site_fract_y
 _atom_site_fract_z
 _atom_site_occupancy
  Na  Na0  1  0.33333300  0.66666700  0.00910300  1
  Na  Na1  1  0.66666700  0.33333300  0.50910300  1
  V  V0  1  0.60363900  0.62329500  0.75125300  1
  V  V1  1  0.01965600  0.39636100  0.75125300  1
  V  V2  1  0.37670500  0.98034400  0.75125300  1
  V  V3  1  0.39636100  0.37670500  0.25125300  1
  V  V4  1  0.98034400  0.60363900  0.25125300  1
  V  V5  1  0.62329500  0.01965600  0.25125300  1
  Pb  Pb0  1  0.00511900  0.74706600  0.74935200  1
  Pb  Pb1  1  0.74194700  0.99488100  0.74935200  1
  Pb  Pb2  1  0.25293400  0.25805300  0.74935200  1
  Pb  Pb3  1  0.99488100  0.25293400  0.24935200  1
  Pb  Pb4  1  0.25805300  0.00511900  0.24935200  1
  Pb  Pb5  1  0.74706600  0.74194700  0.24935200  1
  Pb  Pb6  1  0.66666700  0.33333300  0.97891900  1
  Pb  Pb7  1  0.33333300  0.66666700  0.47891900  1
  O  O0  1  0.25847700  0.91493900  0.56468000  1
  O  O1  1  0.65646200  0.74152300  0.56468000  1
  O  O2  1  0.08506100  0.34353800  0.56468000  1
  O  O3  1  0.74152300  0.08506100  0.06468000  1
  O  O4  1  0.34353800  0.25847700  0.06468000  1
  O  O5  1  0.91493900  0.65646200  0.06468000  1
  O  O6  1  0.74369900  0.08291100  0.43520400  1
  O  O7  1  0.33921200  0.25630100  0.43520400  1
  O  O8  1  0.91708900  0.66078800  0.43520400  1
  O  O9  1  0.25630100  0.91708900  0.93520400  1
  O  O10  1  0.66078800  0.74369900  0.93520400  1
  O  O11  1  0.08291100  0.33921200  0.93520400  1
  O  O12  1  0.10409700  0.59424400  0.75136300  1
  O  O13  1  0.49014700  0.89590300  0.75136300  1
  O  O14  1  0.40575600  0.50985300  0.75136300  1
  O  O15  1  0.89590300  0.40575600  0.25136300  1
  O  O16  1  0.50985300  0.10409700  0.25136300  1
  O  O17  1  0.59424400  0.49014700  0.25136300  1
  O  O18  1  0.69260400  0.51669300  0.75208000  1
  O  O19  1  0.82408900  0.30739600  0.75208000  1
  O  O20  1  0.48330700  0.17591100  0.75208000  1
  O  O21  1  0.30739600  0.48330700  0.25208000  1
  O  O22  1  0.17591100  0.69260400  0.25208000  1
  O  O23  1  0.51669300  0.82408900  0.25208000  1
loop_
_geom_bond_atom_site_label_1
_geom_bond_atom_site_label_2
_geom_bond_distance
_geom_bond_site_symmetry_2
Na0 O22 2.524024 1_555
Na0 O23 2.524029 1_555
Na0 O21 2.524032 1_555
Na0 O12 2.830293 1_554
Na0 O13 2.830294 1_554
Na0 O14 2.830300 1_554
Na1 O19 2.524024 1_555
Na1 O20 2.524029 1_555
Na1 O18 2.524032 1_555
Na1 O15 2.830293 1_555
Na1 O16 2.830294 1_555
Na1 O17 2.830300 1_555
O0 V2 1.739729 1_555
O0 Pb4 2.515694 1_565
O0 Pb0 2.673862 1_555
O1 V0 1.739729 1_555
O1 Pb5 2.515694 1_555
O1 Pb1 2.673863 1_555
O2 V1 1.739729 1_555
O2 Pb3 2.515694 1_455
O2 Pb2 2.673863 1_555
O3 V5 1.739729 1_555
O3 Pb1 2.515694 1_544
O3 Pb3 2.673862 1_555
O4 V3 1.739729 1_555
O4 Pb2 2.515694 1_554
O4 Pb4 2.673863 1_555
O5 V4 1.739729 1_555
O5 Pb0 2.515694 1_654
O5 Pb5 2.673863 1_555
O6 V5 1.735307 1_555
O6 Pb1 2.495451 1_545
O6 Pb3 2.667537 1_555
O7 V3 1.735307 1_555
O7 Pb2 2.495451 1_555
O7 Pb4 2.667537 1_555
O8 V4 1.735307 1_555
O8 Pb0 2.495451 1_655
O8 Pb5 2.667538 1_555
O9 V2 1.735307 1_555
O9 Pb4 2.495451 1_566
O9 Pb0 2.667537 1_555
O10 V0 1.735307 1_555
O10 Pb5 2.495451 1_556
O10 Pb1 2.667537 1_555
O11 V1 1.735307 1_555
O11 Pb3 2.495451 1_456
O11 Pb2 2.667538 1_555
O12 V1 1.769430 1_555
O12 Pb0 2.260611 1_555
O13 V2 1.769430 1_555
O13 Pb1 2.260610 1_555
O14 V0 1.769430 1_555
O14 Pb2 2.260610 1_555
O15 V4 1.769430 1_555
O15 Pb3 2.260611 1_555
O16 V5 1.769430 1_555
O16 Pb4 2.260610 1_555
O17 V3 1.769430 1_555
O17 Pb5 2.260610 1_555
O18 V0 1.744866 1_555
O18 Pb6 2.440104 1_555
O19 V1 1.744865 1_655
O19 Pb6 2.440096 1_555
O20 V2 1.744865 1_545
O20 Pb6 2.440101 1_555
O21 V3 1.744866 1_555
O21 Pb7 2.440104 1_555
O22 V4 1.744865 1_455
O22 Pb7 2.440096 1_555
O23 V5 1.744865 1_565
O23 Pb7 2.440101 1_555
