# generated using pymatgen
data_Ca3(VN2)2
_symmetry_space_group_name_H-M   'P 1'
_cell_length_a   6.84697165
_cell_length_b   8.28715898
_cell_length_c   5.49133769
_cell_angle_alpha   90.00000352
_cell_angle_beta   91.65797716
_cell_angle_gamma   127.24105386
_symmetry_Int_Tables_number   1
_chemical_formula_structural   Ca3(VN2)2
_chemical_formula_sum   'Ca6 V4 N8'
_cell_volume   247.89116885
_cell_formula_units_Z   2
loop_
 _symmetry_equiv_pos_site_id
 _symmetry_equiv_pos_as_xyz
  1  'x, y, z'
loop_
 _atom_site_type_symbol
 _atom_site_label
 _atom_site_symmetry_multiplicity
 _atom_site_fract_x
 _atom_site_fract_y
 _atom_site_fract_z
 _atom_site_occupancy
  Ca  Ca0  1  0.23030300  0.98446700  0.03683800  1
  Ca  Ca1  1  0.76969700  0.75416400  0.46316200  1
  Ca  Ca2  1  0.76969700  0.01553300  0.96316200  1
  Ca  Ca3  1  0.23030300  0.24583600  0.53683800  1
  Ca  Ca4  1  0.00000000  0.60270100  0.75000000  1
  Ca  Ca5  1  0.00000000  0.39729900  0.25000000  1
  V  V0  1  0.59430600  0.17453900  0.58682500  1
  V  V1  1  0.40569400  0.58023300  0.91317500  1
  V  V2  1  0.40569400  0.82546100  0.41317500  1
  V  V3  1  0.59430600  0.41976700  0.08682500  1
  N  N0  1  0.24478500  0.94773600  0.52793200  1
  N  N1  1  0.75521500  0.70295000  0.97206800  1
  N  N2  1  0.75521500  0.05226400  0.47206800  1
  N  N3  1  0.24478500  0.29705000  0.02793200  1
  N  N4  1  0.67412300  0.26581000  0.91484200  1
  N  N5  1  0.32587700  0.59168700  0.58515800  1
  N  N6  1  0.32587700  0.73419000  0.08515800  1
  N  N7  1  0.67412300  0.40831300  0.41484200  1
loop_
_geom_bond_atom_site_label_1
_geom_bond_atom_site_label_2
_geom_bond_distance
_geom_bond_site_symmetry_2
Ca0 N3 2.532176 1_565
Ca0 N6 2.536369 1_555
Ca0 N4 2.581026 1_564
Ca0 N1 2.626509 1_454
Ca0 N0 2.719573 1_555
Ca0 N0 2.822181 1_554
Ca1 N2 2.532168 1_565
Ca1 N7 2.536369 1_555
Ca1 N5 2.581026 1_555
Ca1 N0 2.626508 1_655
Ca1 N1 2.719574 1_554
Ca1 N1 2.822182 1_555
Ca2 N1 2.532176 1_545
Ca2 N4 2.536369 1_555
Ca2 N6 2.581026 1_546
Ca2 N3 2.626509 1_656
Ca2 N2 2.719573 1_555
Ca2 N2 2.822181 1_556
Ca3 N0 2.532168 1_545
Ca3 N5 2.536369 1_555
Ca3 N7 2.581026 1_555
Ca3 N2 2.626508 1_455
Ca3 N3 2.719574 1_556
Ca3 N3 2.822182 1_555
Ca4 N4 2.483881 1_455
Ca4 N5 2.483881 1_555
Ca4 N7 2.524455 1_455
Ca4 N6 2.524455 1_556
Ca4 N1 2.605747 1_455
Ca4 N0 2.605753 1_555
Ca5 N6 2.483881 1_555
Ca5 N7 2.483881 1_455
Ca5 N5 2.524455 1_555
Ca5 N4 2.524455 1_454
Ca5 N3 2.605747 1_555
Ca5 N2 2.605753 1_455
N0 V0 1.968640 1_565
N0 V2 2.007274 1_555
N1 V1 1.968642 1_555
N1 V3 2.007268 1_556
N2 V2 1.968640 1_545
N2 V0 2.007274 1_555
N3 V3 1.968642 1_555
N3 V1 2.007268 1_554
N4 V0 1.886269 1_555
N4 V3 1.921515 1_556
N5 V1 1.886269 1_555
N5 V2 1.921515 1_555
N6 V2 1.886269 1_555
N6 V1 1.921515 1_554
N7 V3 1.886269 1_555
N7 V0 1.921515 1_555
