# generated using pymatgen
data_LiLuF2
_symmetry_space_group_name_H-M   'P 1'
_cell_length_a   7.70459847
_cell_length_b   7.70459847
_cell_length_c   7.70459847
_cell_angle_alpha   131.13240583
_cell_angle_beta   131.13240583
_cell_angle_gamma   71.60279825
_symmetry_Int_Tables_number   1
_chemical_formula_structural   LiLuF2
_chemical_formula_sum   'Li4 Lu4 F8'
_cell_volume   253.86667800
_cell_formula_units_Z   4
loop_
 _symmetry_equiv_pos_site_id
 _symmetry_equiv_pos_as_xyz
  1  'x, y, z'
loop_
 _atom_site_type_symbol
 _atom_site_label
 _atom_site_symmetry_multiplicity
 _atom_site_fract_x
 _atom_site_fract_y
 _atom_site_fract_z
 _atom_site_occupancy
  Li  Li0  1  0.37500000  0.12500000  0.25000000  1
  Li  Li1  1  0.87500000  0.12500000  0.75000000  1
  Li  Li2  1  0.87500000  0.12500000  0.25000000  1
  Li  Li3  1  0.87500000  0.62500000  0.75000000  1
  Lu  Lu0  1  0.87500000  0.62500000  0.25000000  1
  Lu  Lu1  1  0.37500000  0.62500000  0.75000000  1
  Lu  Lu2  1  0.37500000  0.62500000  0.25000000  1
  Lu  Lu3  1  0.37500000  0.12500000  0.75000000  1
  F  F0  1  0.19098500  0.46090800  0.26992300  1
  F  F1  1  0.19098500  0.92106200  0.73007700  1
  F  F2  1  0.21090800  0.44098500  0.76992300  1
  F  F3  1  0.55901500  0.78909200  0.23007700  1
  F  F4  1  0.67106200  0.44098500  0.23007700  1
  F  F5  1  0.55901500  0.32893800  0.76992300  1
  F  F6  1  0.53909200  0.80901500  0.73007700  1
  F  F7  1  0.07893800  0.80901500  0.26992300  1
loop_
_geom_bond_atom_site_label_1
_geom_bond_atom_site_label_2
_geom_bond_distance
_geom_bond_site_symmetry_2
F0 Lu2 2.303253 1_555
F0 Lu0 2.317279 1_455
F0 Lu1 2.317279 1_555
F0 Li1 2.485796 1_454
F0 Li0 2.485796 1_555
F1 Lu3 2.303253 1_565
F1 Lu1 2.317279 1_555
F1 Lu0 2.317279 1_455
F1 Li0 2.485796 1_566
F1 Li1 2.485796 1_465
F2 Lu1 2.303253 1_555
F2 Lu3 2.317279 1_555
F2 Lu2 2.317279 1_556
F2 Li2 2.485796 1_455
F2 Li3 2.485796 1_455
F3 Lu2 2.303253 1_555
F3 Lu1 2.317279 1_554
F3 Lu0 2.317279 1_555
F3 Li0 2.485796 1_565
F3 Li1 2.485796 1_565
F4 Lu0 2.303253 1_555
F4 Lu3 2.317279 1_554
F4 Lu2 2.317279 1_555
F4 Li2 2.485796 1_555
F4 Li3 2.485796 1_555
F5 Lu3 2.303253 1_555
F5 Lu1 2.317279 1_555
F5 Lu0 2.317279 1_556
F5 Li0 2.485796 1_555
F5 Li1 2.485796 1_555
F6 Lu1 2.303253 1_555
F6 Lu2 2.317279 1_555
F6 Lu3 2.317279 1_565
F6 Li3 2.485796 1_555
F6 Li2 2.485796 1_566
F7 Lu0 2.303253 1_455
F7 Lu2 2.317279 1_555
F7 Lu3 2.317279 1_565
F7 Li3 2.485796 1_454
F7 Li2 2.485796 1_465
