# generated using pymatgen
data_CaFe(SiO3)2
_symmetry_space_group_name_H-M   'P 1'
_cell_length_a   5.33435080
_cell_length_b   9.97518008
_cell_length_c   9.15447062
_cell_angle_alpha   90.00143554
_cell_angle_beta   90.00030476
_cell_angle_gamma   74.62143806
_symmetry_Int_Tables_number   1
_chemical_formula_structural   CaFe(SiO3)2
_chemical_formula_sum   'Ca4 Fe4 Si8 O24'
_cell_volume   469.67807911
_cell_formula_units_Z   4
loop_
 _symmetry_equiv_pos_site_id
 _symmetry_equiv_pos_as_xyz
  1  'x, y, z'
loop_
 _atom_site_type_symbol
 _atom_site_label
 _atom_site_symmetry_multiplicity
 _atom_site_fract_x
 _atom_site_fract_y
 _atom_site_fract_z
 _atom_site_occupancy
  Ca  Ca0  1  0.74992600  0.50000900  0.20156000  1
  Ca  Ca1  1  0.74998100  0.00000200  0.70156100  1
  Ca  Ca2  1  0.24993200  0.50000600  0.79843900  1
  Ca  Ca3  1  0.24998700  0.99999900  0.29843800  1
  Fe  Fe0  1  0.75001400  0.99998800  0.09183500  1
  Fe  Fe1  1  0.25000800  0.99998900  0.90817000  1
  Fe  Fe2  1  0.75005900  0.49995600  0.59185100  1
  Fe  Fe3  1  0.25005000  0.49995900  0.40815700  1
  Si  Si0  1  0.26312400  0.28787000  0.09223600  1
  Si  Si1  1  0.26309800  0.78791000  0.59226700  1
  Si  Si2  1  0.76311500  0.28787300  0.90775200  1
  Si  Si3  1  0.76309800  0.78790800  0.40772500  1
  Si  Si4  1  0.73690500  0.71211400  0.90771900  1
  Si  Si5  1  0.73688300  0.21214700  0.40774900  1
  Si  Si6  1  0.23689700  0.71212200  0.09228000  1
  Si  Si7  1  0.23688500  0.21214900  0.59225500  1
  O  O0  1  0.65393000  0.88080000  0.90867400  1
  O  O1  1  0.65391300  0.38077200  0.40862200  1
  O  O2  1  0.15393800  0.88079500  0.09132800  1
  O  O3  1  0.15394000  0.38077100  0.59136400  1
  O  O4  1  0.84605800  0.11921300  0.90868100  1
  O  O5  1  0.84606500  0.61917900  0.40871700  1
  O  O6  1  0.34604400  0.11921500  0.09131700  1
  O  O7  1  0.34603200  0.61917800  0.59126600  1
  O  O8  1  0.32481600  0.63526600  0.24524000  1
  O  O9  1  0.32480100  0.13525200  0.74526900  1
  O  O10  1  0.17522400  0.36479300  0.24532000  1
  O  O11  1  0.17521300  0.86475200  0.74527400  1
  O  O12  1  0.67522400  0.36477800  0.75470100  1
  O  O13  1  0.67521000  0.86475000  0.25473300  1
  O  O14  1  0.82481300  0.63527900  0.75477400  1
  O  O15  1  0.82480000  0.13525100  0.25472800  1
  O  O16  1  0.49857600  0.34928800  0.01661600  1
  O  O17  1  0.49858200  0.84927900  0.51661600  1
  O  O18  1  0.99858000  0.34928700  0.98338600  1
  O  O19  1  0.99858600  0.84927600  0.48338500  1
  O  O20  1  0.00142100  0.65070800  0.01662100  1
  O  O21  1  0.00142500  0.15070200  0.51661800  1
  O  O22  1  0.50142100  0.65070900  0.98337600  1
  O  O23  1  0.50142500  0.15070500  0.48337900  1
loop_
_geom_bond_atom_site_label_1
_geom_bond_atom_site_label_2
_geom_bond_distance
_geom_bond_site_symmetry_2
Ca0 O8 2.345181 1_555
Ca0 O10 2.346000 1_655
Ca0 O1 2.365020 1_555
Ca0 O5 2.365526 1_555
Ca0 O22 2.636223 1_554
Ca0 O18 2.636483 1_554
Ca0 O16 2.827301 1_555
Ca0 O20 2.827659 1_655
Ca1 O9 2.345506 1_555
Ca1 O11 2.345747 1_645
Ca1 O0 2.365270 1_545
Ca1 O4 2.365368 1_555
Ca1 O23 2.636318 1_555
Ca1 O19 2.636422 1_545
Ca1 O17 2.827480 1_545
Ca1 O21 2.827520 1_655
Ca2 O14 2.345255 1_455
Ca2 O12 2.345970 1_555
Ca2 O3 2.365013 1_555
Ca2 O7 2.365634 1_555
Ca2 O20 2.636183 1_556
Ca2 O16 2.636514 1_556
Ca2 O18 2.827364 1_455
Ca2 O22 2.827601 1_555
Ca3 O15 2.345554 1_465
Ca3 O13 2.345685 1_555
Ca3 O2 2.365203 1_555
Ca3 O6 2.365418 1_565
Ca3 O21 2.636269 1_565
Ca3 O17 2.636438 1_555
Ca3 O23 2.827475 1_565
Ca3 O19 2.827551 1_455
Fe0 O13 2.118612 1_555
Fe0 O15 2.118667 1_565
Fe0 O2 2.167374 1_655
Fe0 O6 2.167679 1_565
Fe0 O0 2.193354 1_554
Fe0 O4 2.193497 1_564
Fe1 O11 2.118525 1_555
Fe1 O9 2.118782 1_565
Fe1 O0 2.167353 1_555
Fe1 O4 2.167580 1_465
Fe1 O6 2.193388 1_566
Fe1 O2 2.193390 1_556
Fe2 O12 2.117951 1_555
Fe2 O14 2.119210 1_555
Fe2 O3 2.167156 1_655
Fe2 O7 2.167924 1_555
Fe2 O5 2.193268 1_555
Fe2 O1 2.193930 1_555
Fe3 O10 2.117718 1_555
Fe3 O8 2.119135 1_555
Fe3 O1 2.167080 1_555
Fe3 O5 2.167728 1_455
Fe3 O7 2.192971 1_555
Fe3 O3 2.193778 1_555
O0 Si4 1.622452 1_555
O1 Si5 1.621861 1_555
O2 Si6 1.622327 1_555
O3 Si7 1.621834 1_555
O4 Si2 1.622201 1_555
O5 Si3 1.622868 1_555
O6 Si0 1.622153 1_555
O7 Si1 1.622898 1_555
O8 Si6 1.605553 1_555
O9 Si7 1.606145 1_555
O10 Si0 1.606765 1_555
O11 Si1 1.605814 1_555
O12 Si2 1.606451 1_555
O13 Si3 1.605726 1_555
O14 Si4 1.605311 1_555
O15 Si5 1.606169 1_555
O16 Si0 1.685297 1_555
O16 Si2 1.703318 1_554
O17 Si1 1.685283 1_555
O17 Si3 1.703312 1_555
O18 Si2 1.685367 1_555
O18 Si0 1.703275 1_656
O19 Si3 1.685311 1_555
O19 Si1 1.703250 1_655
O20 Si6 1.685511 1_555
O20 Si4 1.703429 1_454
O21 Si7 1.685541 1_555
O21 Si5 1.703408 1_455
O22 Si4 1.685507 1_555
O22 Si6 1.703471 1_556
O23 Si5 1.685496 1_555
O23 Si7 1.703427 1_555
