# generated using pymatgen
data_TbU3(CoGe)8
_symmetry_space_group_name_H-M   'P 1'
_cell_length_a   4.01699500
_cell_length_b   4.01699500
_cell_length_c   19.67836800
_cell_angle_alpha   90.00000000
_cell_angle_beta   90.00000000
_cell_angle_gamma   90.00000000
_symmetry_Int_Tables_number   1
_chemical_formula_structural   TbU3(CoGe)8
_chemical_formula_sum   'Tb1 U3 Co8 Ge8'
_cell_volume   317.53504262
_cell_formula_units_Z   1
loop_
 _symmetry_equiv_pos_site_id
 _symmetry_equiv_pos_as_xyz
  1  'x, y, z'
loop_
 _atom_site_type_symbol
 _atom_site_label
 _atom_site_symmetry_multiplicity
 _atom_site_fract_x
 _atom_site_fract_y
 _atom_site_fract_z
 _atom_site_occupancy
  Tb  Tb0  1  0.00000000  0.00000000  0.00000000  1
  U  U0  1  0.50000000  0.50000000  0.25101800  1
  U  U1  1  0.00000000  0.00000000  0.50000000  1
  U  U2  1  0.50000000  0.50000000  0.74898200  1
  Co  Co0  1  0.00000000  0.50000000  0.12709100  1
  Co  Co1  1  0.50000000  0.00000000  0.37478100  1
  Co  Co2  1  0.00000000  0.50000000  0.62521900  1
  Co  Co3  1  0.50000000  0.00000000  0.87290900  1
  Co  Co4  1  0.50000000  0.00000000  0.12709100  1
  Co  Co5  1  0.00000000  0.50000000  0.37478100  1
  Co  Co6  1  0.50000000  0.00000000  0.62521900  1
  Co  Co7  1  0.00000000  0.50000000  0.87290900  1
  Ge  Ge0  1  0.50000000  0.50000000  0.06488200  1
  Ge  Ge1  1  0.00000000  0.00000000  0.31419000  1
  Ge  Ge2  1  0.50000000  0.50000000  0.56378700  1
  Ge  Ge3  1  0.00000000  0.00000000  0.81350200  1
  Ge  Ge4  1  0.00000000  0.00000000  0.18649800  1
  Ge  Ge5  1  0.50000000  0.50000000  0.43621300  1
  Ge  Ge6  1  0.00000000  0.00000000  0.68581000  1
  Ge  Ge7  1  0.50000000  0.50000000  0.93511800  1
loop_
_geom_bond_atom_site_label_1
_geom_bond_atom_site_label_2
_geom_bond_distance
_geom_bond_site_symmetry_2
Co0 Ge4 2.323941 1_555
Co0 Ge4 2.323941 1_565
Co0 Ge0 2.352160 1_455
Co0 Ge0 2.352160 1_555
Co0 U0 3.159308 1_455
Co0 U0 3.159308 1_555
Co0 Tb0 3.207613 1_555
Co0 Tb0 3.207613 1_565
Co1 Ge1 2.335748 1_655
Co1 Ge1 2.335748 1_555
Co1 Ge5 2.344239 1_545
Co1 Ge5 2.344239 1_555
Co1 U0 3.156818 1_545
Co1 U0 3.156818 1_555
Co1 U1 3.178974 1_555
Co1 U1 3.178974 1_655
Co2 Ge6 2.335748 1_565
Co2 Ge6 2.335748 1_555
Co2 Ge2 2.344239 1_455
Co2 Ge2 2.344239 1_555
Co2 U2 3.156818 1_455
Co2 U2 3.156818 1_555
Co2 U1 3.178974 1_555
Co2 U1 3.178974 1_565
Co3 Ge3 2.323941 1_655
Co3 Ge3 2.323941 1_555
Co3 Ge7 2.352160 1_555
Co3 Ge7 2.352160 1_545
Co3 U2 3.159308 1_545
Co3 U2 3.159308 1_555
Co3 Tb0 3.207613 1_656
Co3 Tb0 3.207613 1_556
Co4 Ge4 2.323941 1_655
Co4 Ge4 2.323941 1_555
Co4 Ge0 2.352160 1_545
Co4 Ge0 2.352160 1_555
Co4 U0 3.159308 1_545
Co4 U0 3.159308 1_555
Co4 Tb0 3.207613 1_555
Co4 Tb0 3.207613 1_655
Co5 Ge1 2.335748 1_565
Co5 Ge1 2.335748 1_555
Co5 Ge5 2.344239 1_455
Co5 Ge5 2.344239 1_555
Co5 U0 3.156818 1_455
Co5 U0 3.156818 1_555
Co5 U1 3.178974 1_555
Co5 U1 3.178974 1_565
Co6 Ge6 2.335748 1_555
Co6 Ge6 2.335748 1_655
Co6 Ge2 2.344239 1_555
Co6 Ge2 2.344239 1_545
Co6 U2 3.156818 1_545
Co6 U2 3.156818 1_555
Co6 U1 3.178974 1_555
Co6 U1 3.178974 1_655
Co7 Ge3 2.323941 1_565
Co7 Ge3 2.323941 1_555
Co7 Ge7 2.352160 1_555
Co7 Ge7 2.352160 1_455
Co7 U2 3.159308 1_455
Co7 U2 3.159308 1_555
Co7 Tb0 3.207613 1_566
Co7 Tb0 3.207613 1_556
Ge0 Ge7 2.553544 1_554
Ge0 Tb0 3.114205 1_555
Ge0 Tb0 3.114205 1_565
Ge0 Tb0 3.114205 1_665
Ge0 Tb0 3.114205 1_655
Ge1 Ge4 2.512770 1_555
Ge1 U0 3.100561 1_455
Ge1 U0 3.100561 1_545
Ge1 U0 3.100561 1_555
Ge1 U0 3.100561 1_445
Ge2 Ge5 2.510448 1_555
Ge2 U1 3.105433 1_665
Ge2 U1 3.105433 1_555
Ge2 U1 3.105433 1_565
Ge2 U1 3.105433 1_655
Ge3 Ge6 2.512770 1_555
Ge3 U2 3.111291 1_445
Ge3 U2 3.111291 1_455
Ge3 U2 3.111291 1_555
Ge3 U2 3.111291 1_545
Ge4 U0 3.111291 1_545
Ge4 U0 3.111291 1_555
Ge4 U0 3.111291 1_455
Ge4 U0 3.111291 1_445
Ge5 U1 3.105433 1_555
Ge5 U1 3.105433 1_655
Ge5 U1 3.105433 1_665
Ge5 U1 3.105433 1_565
Ge6 U2 3.100561 1_545
Ge6 U2 3.100561 1_445
Ge6 U2 3.100561 1_455
Ge6 U2 3.100561 1_555
Ge7 Tb0 3.114205 1_556
Ge7 Tb0 3.114205 1_656
Ge7 Tb0 3.114205 1_666
Ge7 Tb0 3.114205 1_566
