# generated using pymatgen
data_Th(CoP)2
_symmetry_space_group_name_H-M   'P 1'
_cell_length_a   4.02731567
_cell_length_b   4.02731567
_cell_length_c   9.04434426
_cell_angle_alpha   90.00000000
_cell_angle_beta   90.00000000
_cell_angle_gamma   90.00000000
_symmetry_Int_Tables_number   1
_chemical_formula_structural   Th(CoP)2
_chemical_formula_sum   'Th2 Co4 P4'
_cell_volume   146.69267515
_cell_formula_units_Z   2
loop_
 _symmetry_equiv_pos_site_id
 _symmetry_equiv_pos_as_xyz
  1  'x, y, z'
loop_
 _atom_site_type_symbol
 _atom_site_label
 _atom_site_symmetry_multiplicity
 _atom_site_fract_x
 _atom_site_fract_y
 _atom_site_fract_z
 _atom_site_occupancy
  Th  Th0  1  0.00000000  0.50000000  0.24925036  1
  Th  Th1  1  0.50000000  -0.00000000  0.75074964  1
  Co  Co0  1  0.00000000  0.00000000  0.00000000  1
  Co  Co1  1  0.50000000  0.50000000  0.00000000  1
  Co  Co2  1  -0.00000000  0.50000000  0.60856391  1
  Co  Co3  1  0.50000000  0.00000000  0.39143609  1
  P  P0  1  0.00000000  0.00000000  0.50000000  1
  P  P1  1  0.50000000  0.50000000  0.50000000  1
  P  P2  1  -0.00000000  0.50000000  0.87010841  1
  P  P3  1  0.50000000  0.00000000  0.12989159  1
loop_
_geom_bond_atom_site_label_1
_geom_bond_atom_site_label_2
_geom_bond_distance
_geom_bond_site_symmetry_2
Co0 P2 2.331295 1_544
Co0 P2 2.331295 1_554
Co0 P3 2.331295 1_455
Co0 P3 2.331295 1_555
Co0 Th1 3.022700 1_454
Co0 Th1 3.022700 1_554
Co0 Th0 3.022700 1_555
Co0 Th0 3.022700 1_545
Co1 P2 2.331295 1_654
Co1 P2 2.331295 1_554
Co1 P3 2.331295 1_565
Co1 P3 2.331295 1_555
Co1 Th0 3.022700 1_655
Co1 Th1 3.022700 1_564
Co1 Th1 3.022700 1_554
Co1 Th0 3.022700 1_555
Co2 P1 2.240296 1_455
Co2 P0 2.240296 1_565
Co2 P0 2.240296 1_555
Co2 P1 2.240296 1_555
Co2 P2 2.365498 1_555
Co2 Th1 3.124639 1_555
Co2 Th1 3.124639 1_465
Co2 Th1 3.124639 1_455
Co2 Th1 3.124639 1_565
Co3 P0 2.240296 1_655
Co3 P0 2.240296 1_555
Co3 P1 2.240296 1_545
Co3 P1 2.240296 1_555
Co3 P3 2.365498 1_555
Co3 Th0 3.124639 1_645
Co3 Th0 3.124639 1_545
Co3 Th0 3.124639 1_555
Co3 Th0 3.124639 1_655
P0 Th0 3.032826 1_555
P0 Th0 3.032826 1_545
P0 Th1 3.032826 1_555
P0 Th1 3.032826 1_455
P1 Th0 3.032826 1_555
P1 Th1 3.032826 1_565
P1 Th0 3.032826 1_655
P1 Th1 3.032826 1_555
P2 Th1 3.045489 1_455
P2 Th1 3.045489 1_565
P2 Th1 3.045489 1_555
P2 Th1 3.045489 1_465
P3 Th0 3.045489 1_645
P3 Th0 3.045489 1_555
P3 Th0 3.045489 1_545
P3 Th0 3.045489 1_655
