# generated using pymatgen
data_K2FeO4
_symmetry_space_group_name_H-M   'P 1'
_cell_length_a   5.79055205
_cell_length_b   7.63812963
_cell_length_c   10.24409864
_cell_angle_alpha   90.00023606
_cell_angle_beta   89.99991504
_cell_angle_gamma   89.99991892
_symmetry_Int_Tables_number   1
_chemical_formula_structural   K2FeO4
_chemical_formula_sum   'K8 Fe4 O16'
_cell_volume   453.08610749
_cell_formula_units_Z   4
loop_
 _symmetry_equiv_pos_site_id
 _symmetry_equiv_pos_as_xyz
  1  'x, y, z'
loop_
 _atom_site_type_symbol
 _atom_site_label
 _atom_site_symmetry_multiplicity
 _atom_site_fract_x
 _atom_site_fract_y
 _atom_site_fract_z
 _atom_site_occupancy
  K  K0  1  0.25000122  0.51427677  0.80404187  1
  K  K1  1  0.75000388  0.48572059  0.19595639  1
  K  K2  1  0.25000460  0.01429660  0.69595127  1
  K  K3  1  0.75000599  0.98571998  0.30404109  1
  K  K4  1  0.25000207  0.83982453  0.08787317  1
  K  K5  1  0.75000079  0.16018201  0.91212091  1
  K  K6  1  0.74999849  0.66017117  0.58786306  1
  K  K7  1  0.24999936  0.33982281  0.41213804  1
  Fe  Fe0  1  0.25000053  0.26976138  0.07812970  1
  Fe  Fe1  1  0.75000137  0.73023905  0.92187137  1
  Fe  Fe2  1  0.25000203  0.76976058  0.42187242  1
  Fe  Fe3  1  0.75000217  0.23023678  0.57812934  1
  O  O0  1  0.98142682  0.80816855  0.84928841  1
  O  O1  1  0.48143205  0.19182874  0.15071382  1
  O  O2  1  0.51857285  0.30817848  0.65070869  1
  O  O3  1  0.01856726  0.69181684  0.34929232  1
  O  O4  1  0.01856916  0.19182106  0.15071059  1
  O  O5  1  0.51857592  0.80817794  0.84929292  1
  O  O6  1  0.48143542  0.69182788  0.34928701  1
  O  O7  1  0.98143009  0.30816767  0.65071291  1
  O  O8  1  0.25000250  0.19938933  0.92589854  1
  O  O9  1  0.75000279  0.80060743  0.07409753  1
  O  O10  1  0.25000384  0.69938267  0.57410641  1
  O  O11  1  0.75000413  0.30061404  0.42589883  1
  O  O12  1  0.74998820  0.01600975  0.58427941  1
  O  O13  1  0.24998944  0.98399184  0.41572241  1
  O  O14  1  0.24998850  0.48398966  0.08427898  1
  O  O15  1  0.74998851  0.51601488  0.91572159  1
loop_
_geom_bond_atom_site_label_1
_geom_bond_atom_site_label_2
_geom_bond_distance
_geom_bond_site_symmetry_2
K0 O8 2.709808 1_555
K0 O2 2.713661 1_555
K0 O7 2.713687 1_455
K0 O10 2.747240 1_555
K0 O0 2.769928 1_455
K0 O5 2.769999 1_555
K0 O14 2.880083 1_556
K0 O15 3.113078 1_555
K0 O15 3.113211 1_455
K1 O9 2.709814 1_555
K1 O3 2.713646 1_655
K1 O6 2.713675 1_555
K1 O11 2.747304 1_555
K1 O1 2.769918 1_555
K1 O4 2.769945 1_655
K1 O15 2.880064 1_554
K1 O14 3.113051 1_655
K1 O14 3.113220 1_555
K2 O10 2.709923 1_545
K2 O5 2.713810 1_545
K2 O0 2.713847 1_445
K2 O8 2.747282 1_555
K2 O7 2.769790 1_455
K2 O2 2.769847 1_555
K2 O13 2.880008 1_545
K2 O12 3.113024 1_555
K2 O12 3.113204 1_455
K3 O11 2.709849 1_565
K3 O4 2.713639 1_665
K3 O1 2.713690 1_565
K3 O9 2.747328 1_555
K3 O6 2.769923 1_555
K3 O3 2.769968 1_655
K3 O12 2.880096 1_565
K3 O13 3.113063 1_655
K3 O13 3.113238 1_555
K4 O14 2.718162 1_555
K4 O5 2.906950 1_554
K4 O0 2.907004 1_454
K4 O9 2.914146 1_455
K4 O9 2.914153 1_555
K4 O4 3.072266 1_565
K4 O1 3.072321 1_565
K4 O6 3.200817 1_555
K4 O3 3.200893 1_555
K4 O8 3.208736 1_564
K5 O15 2.718148 1_555
K5 O4 2.907014 1_656
K5 O1 2.907044 1_556
K5 O8 2.914132 1_555
K5 O8 2.914153 1_655
K5 O5 3.072280 1_545
K5 O0 3.072351 1_545
K5 O7 3.200725 1_555
K5 O2 3.200789 1_555
K5 O9 3.208811 1_546
K6 O12 2.718189 1_565
K6 O3 2.906854 1_655
K6 O6 2.906893 1_555
K6 O10 2.914104 1_555
K6 O10 2.914166 1_655
K6 O2 3.072247 1_555
K6 O7 3.072341 1_555
K6 O0 3.200899 1_555
K6 O5 3.200944 1_555
K6 O11 3.208619 1_555
K7 O13 2.718131 1_545
K7 O2 2.906871 1_555
K7 O7 2.906897 1_455
K7 O11 2.914108 1_455
K7 O11 2.914163 1_555
K7 O3 3.072270 1_555
K7 O6 3.072368 1_555
K7 O1 3.200886 1_555
K7 O4 3.200933 1_555
K7 O10 3.208659 1_555
Fe0 O14 1.637515 1_555
Fe0 O1 1.644120 1_555
Fe0 O4 1.644125 1_555
Fe0 O8 1.649503 1_554
Fe1 O15 1.637484 1_555
Fe1 O0 1.644077 1_555
Fe1 O5 1.644082 1_555
Fe1 O9 1.649446 1_556
Fe2 O13 1.637539 1_555
Fe2 O6 1.644131 1_555
Fe2 O3 1.644146 1_555
Fe2 O10 1.649549 1_555
Fe3 O12 1.637507 1_555
Fe3 O7 1.644095 1_555
Fe3 O2 1.644108 1_555
Fe3 O11 1.649514 1_555
