# generated using pymatgen
data_MgCd
_symmetry_space_group_name_H-M   'P 1'
_cell_length_a   11.87011649
_cell_length_b   11.87011649
_cell_length_c   10.53347635
_cell_angle_alpha   66.44510618
_cell_angle_beta   66.44510618
_cell_angle_gamma   30.20521109
_symmetry_Int_Tables_number   1
_chemical_formula_structural   MgCd
_chemical_formula_sum   'Mg16 Cd16'
_cell_volume   679.71167506
_cell_formula_units_Z   16
loop_
 _symmetry_equiv_pos_site_id
 _symmetry_equiv_pos_as_xyz
  1  'x, y, z'
loop_
 _atom_site_type_symbol
 _atom_site_label
 _atom_site_symmetry_multiplicity
 _atom_site_fract_x
 _atom_site_fract_y
 _atom_site_fract_z
 _atom_site_occupancy
  Mg  Mg0_0  1  0.43920317  0.43920317  0.39599263  1
  Mg  Mg0_1  1  0.43920317  0.43920317  0.89599263  1
  Mg  Mg0_2  1  0.43920316  0.93920317  0.39599263  1
  Mg  Mg0_3  1  0.43920317  0.93920317  0.89599263  1
  Mg  Mg0_4  1  0.93920317  0.43920316  0.39599263  1
  Mg  Mg0_5  1  0.93920317  0.43920317  0.89599263  1
  Mg  Mg0_6  1  0.93920317  0.93920317  0.39599263  1
  Mg  Mg0_7  1  0.93920317  0.93920317  0.89599263  1
  Mg  Mg1_0  1  0.06079684  0.06079684  0.10400737  1
  Mg  Mg1_1  1  0.06079684  0.06079684  0.60400737  1
  Mg  Mg1_2  1  0.06079684  0.56079683  0.10400737  1
  Mg  Mg1_3  1  0.06079684  0.56079684  0.60400737  1
  Mg  Mg1_4  1  0.56079683  0.06079684  0.10400737  1
  Mg  Mg1_5  1  0.56079684  0.06079684  0.60400737  1
  Mg  Mg1_6  1  0.56079683  0.56079683  0.10400737  1
  Mg  Mg1_7  1  0.56079683  0.56079683  0.60400737  1
  Cd  Cd0_0  1  0.31363325  0.31363325  0.35471025  1
  Cd  Cd0_1  1  0.31363325  0.31363325  0.85471025  1
  Cd  Cd0_2  1  0.31363325  0.81363325  0.35471025  1
  Cd  Cd0_3  1  0.31363325  0.81363325  0.85471025  1
  Cd  Cd0_4  1  0.81363325  0.31363325  0.35471025  1
  Cd  Cd0_5  1  0.81363325  0.31363325  0.85471025  1
  Cd  Cd0_6  1  0.81363325  0.81363325  0.35471025  1
  Cd  Cd0_7  1  0.81363325  0.81363325  0.85471025  1
  Cd  Cd1_0  1  0.18636675  0.18636675  0.14528975  1
  Cd  Cd1_1  1  0.18636675  0.18636675  0.64528975  1
  Cd  Cd1_2  1  0.18636675  0.68636675  0.14528975  1
  Cd  Cd1_3  1  0.18636675  0.68636675  0.64528975  1
  Cd  Cd1_4  1  0.68636675  0.18636675  0.14528975  1
  Cd  Cd1_5  1  0.68636675  0.18636675  0.64528975  1
  Cd  Cd1_6  1  0.68636675  0.68636675  0.14528975  1
  Cd  Cd1_7  1  0.68636675  0.68636675  0.64528975  1
loop_
_geom_bond_atom_site_label_1
_geom_bond_atom_site_label_2
_geom_bond_distance
_geom_bond_site_symmetry_2
Mg0_0 Mg0_6 3.092740 1_455
Mg0_0 Mg0_6 3.092740 1_545
Mg0_0 Mg1_6 3.182856 1_555
Mg0_0 Mg1_3 3.242776 1_555
Mg0_0 Mg1_5 3.242776 1_555
Mg0_1 Mg0_7 3.092740 1_455
Mg0_1 Mg0_7 3.092740 1_545
Mg0_1 Mg1_7 3.182856 1_555
Mg0_1 Mg1_2 3.242776 1_556
Mg0_1 Mg1_4 3.242776 1_556
Mg0_2 Mg0_4 3.092740 1_465
Mg0_2 Mg0_4 3.092740 1_555
Mg0_2 Mg1_4 3.182856 1_565
Mg0_2 Mg1_1 3.242776 1_565
Mg0_2 Mg1_7 3.242776 1_555
Mg0_3 Mg0_5 3.092740 1_555
Mg0_3 Mg0_5 3.092740 1_465
Mg0_3 Mg1_5 3.182856 1_565
Mg0_3 Mg1_0 3.242776 1_566
Mg0_3 Mg1_6 3.242776 1_556
Mg0_4 Mg1_2 3.182856 1_655
Mg0_4 Mg1_1 3.242776 1_655
Mg0_4 Mg1_7 3.242776 1_555
Mg0_5 Mg1_3 3.182856 1_655
Mg0_5 Mg1_0 3.242776 1_656
Mg0_5 Mg1_6 3.242776 1_556
Mg0_6 Mg1_0 3.182856 1_665
Mg0_6 Mg1_5 3.242776 1_565
Mg0_6 Mg1_3 3.242776 1_655
Mg0_7 Mg1_1 3.182856 1_665
Mg0_7 Mg1_4 3.242776 1_566
Mg0_7 Mg1_2 3.242776 1_656
Mg1_0 Mg1_6 3.092740 1_455
Mg1_0 Mg1_6 3.092740 1_545
Mg1_1 Mg1_7 3.092740 1_455
Mg1_1 Mg1_7 3.092740 1_545
Mg1_2 Mg1_4 3.092740 1_555
Mg1_2 Mg1_4 3.092740 1_465
Mg1_3 Mg1_5 3.092740 1_465
Mg1_3 Mg1_5 3.092740 1_555
Cd0_0 Mg1_5 3.024872 1_555
Cd0_0 Mg1_3 3.024872 1_555
Cd0_0 Mg0_0 3.083602 1_555
Cd0_0 Mg1_2 3.084038 1_555
Cd0_0 Mg1_4 3.084038 1_555
Cd0_0 Cd0_6 3.092740 1_545
Cd0_0 Cd0_6 3.092740 1_455
Cd0_0 Mg0_2 3.112461 1_545
Cd0_0 Mg0_4 3.112461 1_455
Cd0_0 Cd1_2 3.167592 1_555
Cd0_0 Cd1_4 3.167592 1_555
Cd0_0 Cd1_1 3.238217 1_555
Cd0_1 Mg1_2 3.024872 1_556
Cd0_1 Mg1_4 3.024872 1_556
Cd0_1 Mg0_1 3.083602 1_555
Cd0_1 Mg1_5 3.084038 1_555
Cd0_1 Mg1_3 3.084038 1_555
Cd0_1 Cd0_7 3.092740 1_455
Cd0_1 Cd0_7 3.092740 1_545
Cd0_1 Mg0_3 3.112461 1_545
Cd0_1 Mg0_5 3.112461 1_455
Cd0_1 Cd1_3 3.167592 1_555
Cd0_1 Cd1_5 3.167592 1_555
Cd0_1 Cd1_0 3.238217 1_556
Cd0_2 Mg1_7 3.024872 1_555
Cd0_2 Mg1_1 3.024872 1_565
Cd0_2 Mg0_2 3.083602 1_555
Cd0_2 Mg1_0 3.084038 1_565
Cd0_2 Mg1_6 3.084038 1_555
Cd0_2 Cd0_4 3.092740 1_465
Cd0_2 Cd0_4 3.092740 1_555
Cd0_2 Mg0_0 3.112461 1_555
Cd0_2 Mg0_6 3.112461 1_455
Cd0_2 Cd1_0 3.167592 1_565
Cd0_2 Cd1_6 3.167592 1_555
Cd0_2 Cd1_3 3.238217 1_555
Cd0_3 Mg1_6 3.024872 1_556
Cd0_3 Mg1_0 3.024872 1_566
Cd0_3 Mg0_3 3.083602 1_555
Cd0_3 Mg1_1 3.084038 1_565
Cd0_3 Mg1_7 3.084038 1_555
Cd0_3 Cd0_5 3.092740 1_465
Cd0_3 Cd0_5 3.092740 1_555
Cd0_3 Mg0_7 3.112461 1_455
Cd0_3 Mg0_1 3.112461 1_555
Cd0_3 Cd1_7 3.167592 1_555
Cd0_3 Cd1_1 3.167592 1_565
Cd0_3 Cd1_2 3.238217 1_556
Cd0_4 Mg1_7 3.024872 1_555
Cd0_4 Mg1_1 3.024872 1_655
Cd0_4 Mg0_4 3.083602 1_555
Cd0_4 Mg1_0 3.084038 1_655
Cd0_4 Mg1_6 3.084038 1_555
Cd0_4 Mg0_0 3.112461 1_555
Cd0_4 Mg0_6 3.112461 1_545
Cd0_4 Cd1_0 3.167592 1_655
Cd0_4 Cd1_6 3.167592 1_555
Cd0_4 Cd1_5 3.238217 1_555
Cd0_5 Mg1_6 3.024872 1_556
Cd0_5 Mg1_0 3.024872 1_656
Cd0_5 Mg0_5 3.083602 1_555
Cd0_5 Mg1_1 3.084038 1_655
Cd0_5 Mg1_7 3.084038 1_555
Cd0_5 Mg0_7 3.112461 1_545
Cd0_5 Mg0_1 3.112461 1_555
Cd0_5 Cd1_7 3.167592 1_555
Cd0_5 Cd1_1 3.167592 1_655
Cd0_5 Cd1_4 3.238217 1_556
Cd0_6 Mg1_3 3.024872 1_655
Cd0_6 Mg1_5 3.024872 1_565
Cd0_6 Mg0_6 3.083602 1_555
Cd0_6 Mg1_2 3.084038 1_655
Cd0_6 Mg1_4 3.084038 1_565
Cd0_6 Mg0_2 3.112461 1_555
Cd0_6 Mg0_4 3.112461 1_555
Cd0_6 Cd1_2 3.167592 1_655
Cd0_6 Cd1_4 3.167592 1_565
Cd0_6 Cd1_7 3.238217 1_555
Cd0_7 Mg1_4 3.024872 1_566
Cd0_7 Mg1_2 3.024872 1_656
Cd0_7 Mg0_7 3.083602 1_555
Cd0_7 Mg1_3 3.084038 1_655
Cd0_7 Mg1_5 3.084038 1_565
Cd0_7 Mg0_5 3.112461 1_555
Cd0_7 Mg0_3 3.112461 1_555
Cd0_7 Cd1_3 3.167592 1_655
Cd0_7 Cd1_5 3.167592 1_565
Cd0_7 Cd1_6 3.238217 1_556
Cd1_0 Mg0_3 3.024872 1_544
Cd1_0 Mg0_5 3.024872 1_454
Cd1_0 Mg1_0 3.083602 1_555
Cd1_0 Mg0_4 3.084038 1_455
Cd1_0 Mg0_2 3.084038 1_545
Cd1_0 Cd1_6 3.092740 1_545
Cd1_0 Cd1_6 3.092740 1_455
Cd1_0 Mg1_2 3.112461 1_555
Cd1_0 Mg1_4 3.112461 1_555
Cd1_1 Mg0_4 3.024872 1_455
Cd1_1 Mg0_2 3.024872 1_545
Cd1_1 Mg1_1 3.083602 1_555
Cd1_1 Mg0_5 3.084038 1_455
Cd1_1 Mg0_3 3.084038 1_545
Cd1_1 Cd1_7 3.092740 1_545
Cd1_1 Cd1_7 3.092740 1_455
Cd1_1 Mg1_5 3.112461 1_555
Cd1_1 Mg1_3 3.112461 1_555
Cd1_2 Mg0_7 3.024872 1_454
Cd1_2 Mg0_1 3.024872 1_554
Cd1_2 Mg1_2 3.083602 1_555
Cd1_2 Mg0_6 3.084038 1_455
Cd1_2 Mg0_0 3.084038 1_555
Cd1_2 Cd1_4 3.092740 1_555
Cd1_2 Cd1_4 3.092740 1_465
Cd1_2 Mg1_6 3.112461 1_555
Cd1_2 Mg1_0 3.112461 1_565
Cd1_3 Mg0_0 3.024872 1_555
Cd1_3 Mg0_6 3.024872 1_455
Cd1_3 Mg1_3 3.083602 1_555
Cd1_3 Mg0_1 3.084038 1_555
Cd1_3 Mg0_7 3.084038 1_455
Cd1_3 Cd1_5 3.092740 1_555
Cd1_3 Cd1_5 3.092740 1_465
Cd1_3 Mg1_7 3.112461 1_555
Cd1_3 Mg1_1 3.112461 1_565
Cd1_4 Mg0_7 3.024872 1_544
Cd1_4 Mg0_1 3.024872 1_554
Cd1_4 Mg1_4 3.083602 1_555
Cd1_4 Mg0_6 3.084038 1_545
Cd1_4 Mg0_0 3.084038 1_555
Cd1_4 Mg1_6 3.112461 1_555
Cd1_4 Mg1_0 3.112461 1_655
Cd1_5 Mg0_0 3.024872 1_555
Cd1_5 Mg0_6 3.024872 1_545
Cd1_5 Mg1_5 3.083602 1_555
Cd1_5 Mg0_1 3.084038 1_555
Cd1_5 Mg0_7 3.084038 1_545
Cd1_5 Mg1_7 3.112461 1_555
Cd1_5 Mg1_1 3.112461 1_655
Cd1_6 Mg0_5 3.024872 1_554
Cd1_6 Mg0_3 3.024872 1_554
Cd1_6 Mg1_6 3.083602 1_555
Cd1_6 Mg0_4 3.084038 1_555
Cd1_6 Mg0_2 3.084038 1_555
Cd1_6 Mg1_2 3.112461 1_655
Cd1_6 Mg1_4 3.112461 1_565
Cd1_7 Mg0_2 3.024872 1_555
Cd1_7 Mg0_4 3.024872 1_555
Cd1_7 Mg1_7 3.083602 1_555
Cd1_7 Mg0_5 3.084038 1_555
Cd1_7 Mg0_3 3.084038 1_555
Cd1_7 Mg1_3 3.112461 1_655
Cd1_7 Mg1_5 3.112461 1_565
