# generated using pymatgen
data_CaCoP2O7
_symmetry_space_group_name_H-M   'P 1'
_cell_length_a   8.77875300
_cell_length_b   7.37834800
_cell_length_c   9.19533433
_cell_angle_alpha   63.25216060
_cell_angle_beta   90.00000000
_cell_angle_gamma   90.00000000
_symmetry_Int_Tables_number   1
_chemical_formula_structural   CaCoP2O7
_chemical_formula_sum   'Ca4 Co4 P8 O28'
_cell_volume   531.87424568
_cell_formula_units_Z   4
loop_
 _symmetry_equiv_pos_site_id
 _symmetry_equiv_pos_as_xyz
  1  'x, y, z'
loop_
 _atom_site_type_symbol
 _atom_site_label
 _atom_site_symmetry_multiplicity
 _atom_site_fract_x
 _atom_site_fract_y
 _atom_site_fract_z
 _atom_site_occupancy
  Ca  Ca0  1  0.94909900  0.72953000  0.12361000  1
  Ca  Ca1  1  0.44909900  0.27047000  0.37639000  1
  Ca  Ca2  1  0.55090100  0.72953000  0.62361000  1
  Ca  Ca3  1  0.05090100  0.27047000  0.87639000  1
  Co  Co0  1  0.06723500  0.22974300  0.38575700  1
  Co  Co1  1  0.93276500  0.77025700  0.61424300  1
  Co  Co2  1  0.56723500  0.77025700  0.11424300  1
  Co  Co3  1  0.43276500  0.22974300  0.88575700  1
  P  P0  1  0.72649800  0.04732100  0.76372100  1
  P  P1  1  0.24713200  0.52947300  0.03530800  1
  P  P2  1  0.77350200  0.04732100  0.26372100  1
  P  P3  1  0.25286800  0.52947300  0.53530800  1
  P  P4  1  0.22649800  0.95267900  0.73627900  1
  P  P5  1  0.74713200  0.47052700  0.46469200  1
  P  P6  1  0.75286800  0.47052700  0.96469200  1
  P  P7  1  0.27350200  0.95267900  0.23627900  1
  O  O0  1  0.18168800  0.74279100  0.89511200  1
  O  O1  1  0.62778300  0.06895100  0.34428000  1
  O  O2  1  0.87221700  0.06895100  0.84428000  1
  O  O3  1  0.39310200  0.56418500  0.10982600  1
  O  O4  1  0.81831200  0.25720900  0.10488800  1
  O  O5  1  0.08506100  0.98704500  0.62597600  1
  O  O6  1  0.60689800  0.43581500  0.89017400  1
  O  O7  1  0.10933300  0.46731700  0.15165500  1
  O  O8  1  0.23297800  0.38818100  0.45574300  1
  O  O9  1  0.91493900  0.01295500  0.37402400  1
  O  O10  1  0.41493900  0.98704500  0.12597600  1
  O  O11  1  0.76082900  0.89339900  0.19536000  1
  O  O12  1  0.26082900  0.10660100  0.30464000  1
  O  O13  1  0.31831200  0.74279100  0.39511200  1
  O  O14  1  0.58506100  0.01295500  0.87402400  1
  O  O15  1  0.12778300  0.93104900  0.15572000  1
  O  O16  1  0.23917100  0.10660100  0.80464000  1
  O  O17  1  0.89066700  0.53268300  0.84834500  1
  O  O18  1  0.26702200  0.38818100  0.95574300  1
  O  O19  1  0.73297800  0.61181900  0.04425700  1
  O  O20  1  0.89310200  0.43581500  0.39017400  1
  O  O21  1  0.39066700  0.46731700  0.65165500  1
  O  O22  1  0.60933300  0.53268300  0.34834500  1
  O  O23  1  0.37221700  0.93104900  0.65572000  1
  O  O24  1  0.73917100  0.89339900  0.69536000  1
  O  O25  1  0.10689800  0.56418500  0.60982600  1
  O  O26  1  0.76702200  0.61181900  0.54425700  1
  O  O27  1  0.68168800  0.25720900  0.60488800  1
loop_
_geom_bond_atom_site_label_1
_geom_bond_atom_site_label_2
_geom_bond_distance
_geom_bond_site_symmetry_2
Ca0 O15 2.270184 1_655
Ca0 O7 2.310658 1_655
Ca0 O11 2.312332 1_555
Ca0 O19 2.335986 1_555
Ca0 O20 2.482897 1_555
Ca0 O2 2.744925 1_564
Ca0 O0 2.899711 1_654
Ca1 O1 2.270184 1_555
Ca1 O22 2.310658 1_555
Ca1 O12 2.312332 1_555
Ca1 O8 2.335986 1_555
Ca1 O3 2.482897 1_555
Ca1 O23 2.744925 1_545
Ca1 O27 2.899711 1_555
Ca2 O23 2.270184 1_555
Ca2 O21 2.310658 1_555
Ca2 O24 2.312332 1_555
Ca2 O26 2.335986 1_555
Ca2 O6 2.482897 1_555
Ca2 O1 2.744925 1_565
Ca2 O13 2.899711 1_555
Ca3 O2 2.270184 1_455
Ca3 O17 2.310658 1_455
Ca3 O16 2.312332 1_555
Ca3 O18 2.335986 1_555
Ca3 O25 2.482897 1_555
Ca3 O15 2.744925 1_546
Ca3 O4 2.899711 1_456
Co0 O7 2.108698 1_555
Co0 O9 2.124378 1_455
Co0 O5 2.133048 1_545
Co0 O8 2.138922 1_555
Co0 O20 2.169309 1_455
Co0 O12 2.209132 1_555
Co1 O17 2.108698 1_555
Co1 O5 2.124378 1_655
Co1 O9 2.133048 1_565
Co1 O26 2.138922 1_555
Co1 O25 2.169309 1_655
Co1 O24 2.209132 1_555
Co2 O22 2.108698 1_555
Co2 O10 2.124378 1_555
Co2 O14 2.133048 1_564
Co2 O19 2.138922 1_555
Co2 O3 2.169309 1_555
Co2 O11 2.209132 1_555
Co3 O21 2.108698 1_555
Co3 O14 2.124378 1_555
Co3 O10 2.133048 1_546
Co3 O18 2.138922 1_555
Co3 O6 2.169309 1_555
Co3 O16 2.209132 1_555
O0 P1 1.625684 1_556
O0 P4 1.627943 1_555
O1 P2 1.522187 1_555
O2 P0 1.522187 1_555
O3 P1 1.528124 1_555
O4 P6 1.625684 1_554
O4 P2 1.627943 1_555
O5 P4 1.550231 1_555
O6 P6 1.528124 1_555
O7 P1 1.541636 1_555
O8 P3 1.529420 1_555
O9 P2 1.550231 1_555
O10 P7 1.550231 1_555
O11 P2 1.529676 1_565
O12 P7 1.529676 1_545
O13 P3 1.625684 1_555
O13 P7 1.627943 1_555
O14 P0 1.550231 1_555
O15 P7 1.522187 1_555
O16 P4 1.529676 1_545
O17 P6 1.541636 1_555
O18 P1 1.529420 1_556
O19 P6 1.529420 1_554
O20 P5 1.528124 1_555
O21 P3 1.541636 1_555
O22 P5 1.541636 1_555
O23 P4 1.522187 1_555
O24 P0 1.529676 1_565
O25 P3 1.528124 1_555
O26 P5 1.529420 1_555
O27 P5 1.625684 1_555
O27 P0 1.627943 1_555
