# generated using pymatgen
data_BaSrCaMoO6
_symmetry_space_group_name_H-M   'P 1'
_cell_length_a   5.96205002
_cell_length_b   5.96205002
_cell_length_c   5.96205002
_cell_angle_alpha   60.00000000
_cell_angle_beta   60.00000000
_cell_angle_gamma   60.00000000
_symmetry_Int_Tables_number   1
_chemical_formula_structural   BaSrCaMoO6
_chemical_formula_sum   'Ba1 Sr1 Ca1 Mo1 O6'
_cell_volume   149.85521064
_cell_formula_units_Z   1
loop_
 _symmetry_equiv_pos_site_id
 _symmetry_equiv_pos_as_xyz
  1  'x, y, z'
loop_
 _atom_site_type_symbol
 _atom_site_label
 _atom_site_symmetry_multiplicity
 _atom_site_fract_x
 _atom_site_fract_y
 _atom_site_fract_z
 _atom_site_occupancy
  Ba  Ba0  1  0.25000000  0.25000000  0.25000000  1
  Sr  Sr0  1  0.75000000  0.75000000  0.75000000  1
  Ca  Ca0  1  0.50000000  0.50000000  0.50000000  1
  Mo  Mo0  1  0.00000000  0.00000000  0.00000000  1
  O  O0  1  0.76925100  0.76925100  0.23074900  1
  O  O1  1  0.23074900  0.76925100  0.23074900  1
  O  O2  1  0.76925100  0.23074900  0.23074900  1
  O  O3  1  0.23074900  0.23074900  0.76925100  1
  O  O4  1  0.76925100  0.23074900  0.76925100  1
  O  O5  1  0.23074900  0.76925100  0.76925100  1
loop_
_geom_bond_atom_site_label_1
_geom_bond_atom_site_label_2
_geom_bond_distance
_geom_bond_site_symmetry_2
Ba0 O3 2.985441 1_555
Ba0 O2 2.985441 1_555
Ba0 O1 2.985441 1_555
Ba0 O0 2.985441 1_545
Ba0 O5 2.985441 1_554
Ba0 O0 2.985441 1_455
Ba0 O4 2.985441 1_455
Ba0 O4 2.985441 1_554
Ba0 O5 2.985441 1_545
Ba0 O3 2.985441 1_554
Ba0 O2 2.985441 1_455
Ba0 O1 2.985441 1_545
Ca0 O0 2.270220 1_555
Ca0 O4 2.270220 1_555
Ca0 O5 2.270220 1_555
Ca0 O3 2.270220 1_555
Ca0 O2 2.270220 1_555
Ca0 O1 2.270220 1_555
Mo0 O1 1.945586 1_545
Mo0 O3 1.945586 1_554
Mo0 O2 1.945586 1_455
Mo0 O5 1.945586 1_544
Mo0 O0 1.945586 1_445
Mo0 O4 1.945586 1_454
O0 Sr0 2.985441 1_554
O0 Sr0 2.985441 1_555
O1 Sr0 2.985441 1_554
O1 Sr0 2.985441 1_455
O2 Sr0 2.985441 1_545
O2 Sr0 2.985441 1_554
O3 Sr0 2.985441 1_545
O3 Sr0 2.985441 1_455
O4 Sr0 2.985441 1_545
O4 Sr0 2.985441 1_555
O5 Sr0 2.985441 1_455
O5 Sr0 2.985441 1_555
