# generated using pymatgen
data_SrCa7Mn8O24
_symmetry_space_group_name_H-M   'P 1'
_cell_length_a   7.61893100
_cell_length_b   7.61893100
_cell_length_c   7.61893100
_cell_angle_alpha   90.00000000
_cell_angle_beta   90.00000000
_cell_angle_gamma   90.00000000
_symmetry_Int_Tables_number   1
_chemical_formula_structural   SrCa7Mn8O24
_chemical_formula_sum   'Sr1 Ca7 Mn8 O24'
_cell_volume   442.26454159
_cell_formula_units_Z   1
loop_
 _symmetry_equiv_pos_site_id
 _symmetry_equiv_pos_as_xyz
  1  'x, y, z'
loop_
 _atom_site_type_symbol
 _atom_site_label
 _atom_site_symmetry_multiplicity
 _atom_site_fract_x
 _atom_site_fract_y
 _atom_site_fract_z
 _atom_site_occupancy
  Sr  Sr0  1  0.25000000  0.25000000  0.25000000  1
  Ca  Ca0  1  0.25000000  0.25000000  0.75000000  1
  Ca  Ca1  1  0.25000000  0.75000000  0.25000000  1
  Ca  Ca2  1  0.25000000  0.75000000  0.75000000  1
  Ca  Ca3  1  0.75000000  0.25000000  0.25000000  1
  Ca  Ca4  1  0.75000000  0.25000000  0.75000000  1
  Ca  Ca5  1  0.75000000  0.75000000  0.25000000  1
  Ca  Ca6  1  0.75000000  0.75000000  0.75000000  1
  Mn  Mn0  1  0.99963500  0.99963500  0.99963500  1
  Mn  Mn1  1  0.99963500  0.99963500  0.50036500  1
  Mn  Mn2  1  0.99963500  0.50036500  0.99963500  1
  Mn  Mn3  1  0.99963500  0.50036500  0.50036500  1
  Mn  Mn4  1  0.50036500  0.99963500  0.99963500  1
  Mn  Mn5  1  0.50036500  0.99963500  0.50036500  1
  Mn  Mn6  1  0.50036500  0.50036500  0.99963500  1
  Mn  Mn7  1  0.50036500  0.50036500  0.50036500  1
  O  O0  1  0.99826200  0.99826200  0.25000000  1
  O  O1  1  0.99989200  0.99989200  0.75000000  1
  O  O2  1  0.99826200  0.50173800  0.25000000  1
  O  O3  1  0.99989200  0.50010800  0.75000000  1
  O  O4  1  0.50173800  0.99826200  0.25000000  1
  O  O5  1  0.50010800  0.99989200  0.75000000  1
  O  O6  1  0.50173800  0.50173800  0.25000000  1
  O  O7  1  0.50010800  0.50010800  0.75000000  1
  O  O8  1  0.25000000  0.99826200  0.99826200  1
  O  O9  1  0.25000000  0.99826200  0.50173800  1
  O  O10  1  0.25000000  0.50173800  0.99826200  1
  O  O11  1  0.25000000  0.50173800  0.50173800  1
  O  O12  1  0.75000000  0.99989200  0.99989200  1
  O  O13  1  0.75000000  0.99989200  0.50010800  1
  O  O14  1  0.75000000  0.50010800  0.99989200  1
  O  O15  1  0.75000000  0.50010800  0.50010800  1
  O  O16  1  0.99826200  0.25000000  0.99826200  1
  O  O17  1  0.99826200  0.25000000  0.50173800  1
  O  O18  1  0.99989200  0.75000000  0.99989200  1
  O  O19  1  0.99989200  0.75000000  0.50010800  1
  O  O20  1  0.50173800  0.25000000  0.99826200  1
  O  O21  1  0.50173800  0.25000000  0.50173800  1
  O  O22  1  0.50010800  0.75000000  0.99989200  1
  O  O23  1  0.50010800  0.75000000  0.50010800  1
loop_
_geom_bond_atom_site_label_1
_geom_bond_atom_site_label_2
_geom_bond_distance
_geom_bond_site_symmetry_2
Ca0 O10 2.693764 1_555
Ca0 O17 2.693764 1_455
Ca0 O8 2.693764 1_545
Ca0 O9 2.693764 1_545
Ca0 O20 2.693764 1_555
Ca0 O11 2.693764 1_555
Ca0 O21 2.693764 1_555
Ca0 O16 2.693764 1_455
Ca0 O1 2.694863 1_445
Ca0 O3 2.694863 1_455
Ca0 O7 2.694863 1_555
Ca0 O5 2.694863 1_545
Ca1 O10 2.693764 1_554
Ca1 O2 2.693764 1_455
Ca1 O8 2.693764 1_554
Ca1 O11 2.693764 1_555
Ca1 O4 2.693764 1_555
Ca1 O6 2.693764 1_555
Ca1 O0 2.693764 1_455
Ca1 O9 2.693764 1_555
Ca1 O22 2.694863 1_554
Ca1 O19 2.694863 1_455
Ca1 O23 2.694863 1_555
Ca1 O18 2.694863 1_454
Ca2 O8 2.674972 1_555
Ca2 O9 2.674972 1_555
Ca2 O10 2.674972 1_555
Ca2 O11 2.674972 1_555
Ca2 O19 2.693699 1_455
Ca2 O3 2.693699 1_455
Ca2 O7 2.693699 1_555
Ca2 O22 2.693699 1_555
Ca2 O1 2.693699 1_455
Ca2 O23 2.693699 1_555
Ca2 O18 2.693699 1_455
Ca2 O5 2.693699 1_555
Ca3 O16 2.693764 1_554
Ca3 O4 2.693764 1_545
Ca3 O2 2.693764 1_555
Ca3 O17 2.693764 1_555
Ca3 O20 2.693764 1_554
Ca3 O21 2.693764 1_555
Ca3 O0 2.693764 1_545
Ca3 O6 2.693764 1_555
Ca3 O13 2.694863 1_545
Ca3 O12 2.694863 1_544
Ca3 O14 2.694863 1_554
Ca3 O15 2.694863 1_555
Ca4 O16 2.674972 1_555
Ca4 O20 2.674972 1_555
Ca4 O17 2.674972 1_555
Ca4 O21 2.674972 1_555
Ca4 O15 2.693699 1_555
Ca4 O7 2.693699 1_555
Ca4 O13 2.693699 1_545
Ca4 O1 2.693699 1_545
Ca4 O5 2.693699 1_545
Ca4 O3 2.693699 1_555
Ca4 O12 2.693699 1_545
Ca4 O14 2.693699 1_555
Ca5 O6 2.674972 1_555
Ca5 O0 2.674972 1_555
Ca5 O2 2.674972 1_555
Ca5 O4 2.674972 1_555
Ca5 O15 2.693699 1_555
Ca5 O22 2.693699 1_554
Ca5 O19 2.693699 1_555
Ca5 O13 2.693699 1_555
Ca5 O14 2.693699 1_554
Ca5 O18 2.693699 1_554
Ca5 O23 2.693699 1_555
Ca5 O12 2.693699 1_554
Ca6 O1 2.692535 1_555
Ca6 O15 2.692535 1_555
Ca6 O5 2.692535 1_555
Ca6 O14 2.692535 1_555
Ca6 O18 2.692535 1_555
Ca6 O7 2.692535 1_555
Ca6 O22 2.692535 1_555
Ca6 O19 2.692535 1_555
Ca6 O12 2.692535 1_555
Ca6 O3 2.692535 1_555
Ca6 O13 2.692535 1_555
Ca6 O23 2.692535 1_555
Mn0 O1 1.901954 1_555
Mn0 O18 1.901954 1_555
Mn0 O12 1.901954 1_555
Mn0 O0 1.907571 1_556
Mn0 O8 1.907571 1_655
Mn0 O16 1.907571 1_565
Mn1 O19 1.901954 1_555
Mn1 O13 1.901954 1_555
Mn1 O1 1.901954 1_555
Mn1 O0 1.907571 1_555
Mn1 O9 1.907571 1_655
Mn1 O17 1.907571 1_565
Mn2 O14 1.901954 1_555
Mn2 O3 1.901954 1_555
Mn2 O18 1.901954 1_555
Mn2 O16 1.907571 1_555
Mn2 O10 1.907571 1_655
Mn2 O2 1.907571 1_556
Mn3 O15 1.901954 1_555
Mn3 O19 1.901954 1_555
Mn3 O3 1.901954 1_555
Mn3 O2 1.907571 1_555
Mn3 O17 1.907571 1_555
Mn3 O11 1.907571 1_655
Mn4 O5 1.901954 1_555
Mn4 O22 1.901954 1_555
Mn4 O12 1.901954 1_555
Mn4 O8 1.907571 1_555
Mn4 O4 1.907571 1_556
Mn4 O20 1.907571 1_565
Mn5 O23 1.901954 1_555
Mn5 O5 1.901954 1_555
Mn5 O13 1.901954 1_555
Mn5 O4 1.907571 1_555
Mn5 O9 1.907571 1_555
Mn5 O21 1.907571 1_565
Mn6 O7 1.901954 1_555
Mn6 O14 1.901954 1_555
Mn6 O22 1.901954 1_555
Mn6 O20 1.907571 1_555
Mn6 O10 1.907571 1_555
Mn6 O6 1.907571 1_556
Mn7 O23 1.901954 1_555
Mn7 O15 1.901954 1_555
Mn7 O7 1.901954 1_555
Mn7 O11 1.907571 1_555
Mn7 O21 1.907571 1_555
Mn7 O6 1.907571 1_555
O0 Sr0 2.712425 1_665
O2 Sr0 2.712425 1_655
O4 Sr0 2.712425 1_565
O6 Sr0 2.712425 1_555
O8 Sr0 2.712425 1_566
O9 Sr0 2.712425 1_565
O10 Sr0 2.712425 1_556
O11 Sr0 2.712425 1_555
O16 Sr0 2.712425 1_656
O17 Sr0 2.712425 1_655
O20 Sr0 2.712425 1_556
O21 Sr0 2.712425 1_555
