# generated using pymatgen
data_H26Pd4Pt(C11O8)2
_symmetry_space_group_name_H-M   'P 1'
_cell_length_a   10.26618458
_cell_length_b   10.18567331
_cell_length_c   10.93871772
_cell_angle_alpha   93.26384471
_cell_angle_beta   112.84071598
_cell_angle_gamma   116.41212704
_symmetry_Int_Tables_number   1
_chemical_formula_structural   H26Pd4Pt(C11O8)2
_chemical_formula_sum   'H26 Pd4 Pt1 C22 O16'
_cell_volume   906.85056069
_cell_formula_units_Z   1
loop_
 _symmetry_equiv_pos_site_id
 _symmetry_equiv_pos_as_xyz
  1  'x, y, z'
loop_
 _atom_site_type_symbol
 _atom_site_label
 _atom_site_symmetry_multiplicity
 _atom_site_fract_x
 _atom_site_fract_y
 _atom_site_fract_z
 _atom_site_occupancy
  H  H0  1  0.89433600  0.58621500  0.16778900  1
  H  H1  1  0.10566400  0.41378500  0.83221100  1
  H  H2  1  0.88999300  0.66807900  0.31491200  1
  H  H3  1  0.11000700  0.33192100  0.68508800  1
  H  H4  1  0.72228800  0.60274200  0.14587800  1
  H  H5  1  0.27771200  0.39725800  0.85412200  1
  H  H6  1  0.02097500  0.92675900  0.39151500  1
  H  H7  1  0.97902500  0.07324100  0.60848500  1
  H  H8  1  0.31753500  0.31393500  0.42963200  1
  H  H9  1  0.68246500  0.68606500  0.57036800  1
  H  H10  1  0.13149700  0.26835200  0.43425600  1
  H  H11  1  0.86850300  0.73164800  0.56574400  1
  H  H12  1  0.24089200  0.17697900  0.51695100  1
  H  H13  1  0.75910800  0.82302100  0.48304900  1
  H  H14  1  0.44021200  0.79573900  0.47563800  1
  H  H15  1  0.55978800  0.20426100  0.52436200  1
  H  H16  1  0.24230400  0.68035900  0.46393700  1
  H  H17  1  0.75769600  0.31964100  0.53606300  1
  H  H18  1  0.28613600  0.84757400  0.40732100  1
  H  H19  1  0.71386400  0.15242600  0.59267900  1
  H  H20  1  0.37636200  0.53413200  0.29097200  1
  H  H21  1  0.62363800  0.46586800  0.70902800  1
  H  H22  1  0.17357200  0.50580800  0.19837700  1
  H  H23  1  0.82642800  0.49419200  0.80162300  1
  H  H24  1  0.25838200  0.44282100  0.11201300  1
  H  H25  1  0.74161800  0.55717900  0.88798700  1
  Pd  Pd0  1  0.66606100  0.04556900  0.93250200  1
  Pd  Pd1  1  0.33393900  0.95443100  0.06749800  1
  Pd  Pd2  1  0.64502300  0.95993200  0.15466000  1
  Pd  Pd3  1  0.35497700  0.04006800  0.84534000  1
  Pt  Pt0  1  0.00000000  0.00000000  0.00000000  1
  C  C0  1  0.85643600  0.65843700  0.20550500  1
  C  C1  1  0.14356400  0.34156300  0.79449500  1
  C  C2  1  0.93497200  0.81312900  0.18376600  1
  C  C3  1  0.06502800  0.18687100  0.81623400  1
  C  C4  1  0.01807600  0.94482500  0.29356800  1
  C  C5  1  0.98192400  0.05517500  0.70643200  1
  C  C6  1  0.11090900  0.09665600  0.29476600  1
  C  C7  1  0.88909100  0.90334400  0.70523400  1
  C  C8  1  0.20722000  0.22118200  0.42774700  1
  C  C9  1  0.79278000  0.77881800  0.57225300  1
  C  C10  1  0.39815600  0.88884700  0.62866000  1
  C  C11  1  0.60184400  0.11115300  0.37134000  1
  C  C12  1  0.33893500  0.79810800  0.48488200  1
  C  C13  1  0.66106500  0.20189200  0.51511800  1
  C  C14  1  0.36048600  0.68660000  0.16522400  1
  C  C15  1  0.63951400  0.31340000  0.83477600  1
  C  C16  1  0.28746500  0.53391300  0.19421500  1
  C  C17  1  0.71253500  0.46608700  0.80578500  1
  C  C18  1  0.78147500  0.15980600  0.13079500  1
  C  C19  1  0.21852500  0.84019400  0.86920500  1
  C  C20  1  0.59094300  0.84311000  0.97243200  1
  C  C21  1  0.40905700  0.15689000  0.02756800  1
  O  O0  1  0.91776000  0.80958000  0.05978000  1
  O  O1  1  0.08224000  0.19042000  0.94022000  1
  O  O2  1  0.12197700  0.14346700  0.19001800  1
  O  O3  1  0.87802300  0.85653300  0.80998200  1
  O  O4  1  0.54301500  0.92732900  0.71774800  1
  O  O5  1  0.45698500  0.07267100  0.28225200  1
  O  O6  1  0.29808800  0.91876800  0.64818300  1
  O  O7  1  0.70191200  0.08123200  0.35181700  1
  O  O8  1  0.51094500  0.74841000  0.19080800  1
  O  O9  1  0.48905500  0.25159000  0.80919200  1
  O  O10  1  0.26613100  0.74079400  0.11737300  1
  O  O11  1  0.73386900  0.25920600  0.88262700  1
  O  O12  1  0.87766900  0.28626500  0.19988900  1
  O  O13  1  0.12233100  0.71373500  0.80011100  1
  O  O14  1  0.52983500  0.71511500  0.91244600  1
  O  O15  1  0.47016500  0.28488500  0.08755400  1
loop_
_geom_bond_atom_site_label_1
_geom_bond_atom_site_label_2
_geom_bond_distance
_geom_bond_site_symmetry_2
C0 H2 1.094088 1_555
C0 H0 1.098842 1_555
C0 H4 1.099702 1_555
C1 H3 1.094088 1_555
C1 H1 1.098842 1_555
C1 H5 1.099702 1_555
C2 O0 1.294072 1_555
C3 O1 1.294072 1_555
C4 H6 1.088689 1_555
C5 H7 1.088689 1_555
C6 O2 1.291593 1_555
C7 O3 1.291593 1_555
C8 H12 1.095890 1_555
C8 H8 1.096971 1_555
C8 H10 1.100727 1_555
C9 H13 1.095890 1_555
C9 H9 1.096971 1_555
C9 H11 1.100727 1_555
C10 O4 1.275826 1_555
C10 O6 1.278796 1_555
C11 O5 1.275826 1_555
C11 O7 1.278796 1_555
C12 H14 1.093391 1_555
C12 H18 1.096405 1_555
C12 H16 1.099465 1_555
C13 H15 1.093391 1_555
C13 H19 1.096405 1_555
C13 H17 1.099465 1_555
C14 O10 1.277487 1_555
C14 O8 1.280541 1_555
C15 O11 1.277487 1_555
C15 O9 1.280541 1_555
C16 H22 1.093704 1_555
C16 H20 1.095965 1_555
C16 H24 1.099397 1_555
C17 H23 1.093704 1_555
C17 H21 1.095965 1_555
C17 H25 1.099397 1_555
C18 O12 1.176283 1_555
C18 Pd0 1.988345 1_554
C18 Pd2 1.995600 1_545
C19 O13 1.176283 1_555
C19 Pd1 1.988345 1_556
C19 Pd3 1.995600 1_565
C20 O14 1.174386 1_555
C20 Pd2 1.995131 1_556
C20 Pd0 1.996831 1_565
C21 O15 1.174386 1_555
C21 Pd3 1.995131 1_554
C21 Pd1 1.996831 1_545
O0 Pt0 2.004620 1_665
O1 Pt0 2.004620 1_556
O2 Pt0 2.007330 1_555
O3 Pt0 2.007330 1_666
O4 Pd0 2.141312 1_565
O5 Pd1 2.141312 1_545
O6 Pd3 2.143715 1_565
O7 Pd2 2.143715 1_545
O8 Pd2 2.138708 1_555
O9 Pd3 2.138708 1_555
O10 Pd1 2.144705 1_555
O11 Pd0 2.144705 1_555
