# generated using pymatgen
data_HoMn12
_symmetry_space_group_name_H-M   'P 1'
_cell_length_a   6.81047082
_cell_length_b   6.81053092
_cell_length_c   6.81097010
_cell_angle_alpha   98.17582997
_cell_angle_beta   98.17576681
_cell_angle_gamma   135.70028513
_symmetry_Int_Tables_number   1
_chemical_formula_structural   HoMn12
_chemical_formula_sum   'Ho1 Mn12'
_cell_volume   204.34026307
_cell_formula_units_Z   1
loop_
 _symmetry_equiv_pos_site_id
 _symmetry_equiv_pos_as_xyz
  1  'x, y, z'
loop_
 _atom_site_type_symbol
 _atom_site_label
 _atom_site_symmetry_multiplicity
 _atom_site_fract_x
 _atom_site_fract_y
 _atom_site_fract_z
 _atom_site_occupancy
  Ho  Ho0  1  0.00001796  -0.00004394  -0.00002369  1
  Mn  Mn0  1  0.50017516  0.27616861  0.77628897  1
  Mn  Mn1  1  0.49997220  -0.00001741  0.00000895  1
  Mn  Mn2  1  0.49999589  0.50001646  0.50000568  1
  Mn  Mn3  1  -0.00001317  0.00001706  0.50000589  1
  Mn  Mn4  1  0.00002211  0.50003268  0.00000436  1
  Mn  Mn5  1  0.00009389  0.64646192  0.64651952  1
  Mn  Mn6  1  0.35355395  -0.00006949  0.35348017  1
  Mn  Mn7  1  0.64642805  0.00007516  0.64652986  1
  Mn  Mn8  1  -0.00010232  0.35354419  0.35346888  1
  Mn  Mn9  1  0.49984223  0.72382304  0.22370357  1
  Mn  Mn10  1  0.27620430  0.50017960  0.77630159  1
  Mn  Mn11  1  0.72380976  0.49981212  0.22370623  1
loop_
_geom_bond_atom_site_label_1
_geom_bond_atom_site_label_2
_geom_bond_distance
_geom_bond_site_symmetry_2
Ho0 Mn5 3.153596 1_544
Ho0 Mn6 3.153756 1_555
Ho0 Mn7 3.154158 1_454
Ho0 Mn8 3.154373 1_555
Ho0 Mn0 3.252345 1_444
Ho0 Mn11 3.252354 1_555
Ho0 Mn10 3.252476 1_444
Ho0 Mn9 3.252766 1_555
Ho0 Mn0 3.252987 1_554
Ho0 Mn11 3.253153 1_445
Ho0 Mn10 3.253285 1_554
Ho0 Mn9 3.253322 1_445
Ho0 Mn1 3.404763 1_555
Ho0 Mn4 3.404791 1_545
Ho0 Mn2 3.404837 1_444
Ho0 Mn2 3.405197 1_555
Ho0 Mn3 3.405313 1_554
Ho0 Mn3 3.405658 1_555
Ho0 Mn1 3.405708 1_455
Ho0 Mn4 3.405740 1_555
Mn0 Mn4 2.582552 1_656
Mn0 Mn1 2.583011 1_556
Mn0 Mn3 2.584984 1_555
Mn0 Mn2 2.585177 1_555
Mn0 Mn7 2.787020 1_555
Mn0 Mn6 2.789546 1_555
Mn0 Mn5 2.816297 1_545
Mn0 Mn5 2.816485 1_655
Mn0 Mn11 2.822260 1_556
Mn0 Mn10 2.825821 1_555
Mn1 Mn4 2.567497 1_545
Mn1 Mn4 2.568034 1_655
Mn1 Mn11 2.582524 1_555
Mn1 Mn10 2.582607 1_544
Mn1 Mn9 2.582963 1_545
Mn1 Mn5 2.733275 1_544
Mn1 Mn8 2.733278 1_655
Mn1 Mn6 2.733656 1_555
Mn1 Mn7 2.733794 1_554
Mn2 Mn3 2.567743 1_665
Mn2 Mn3 2.567788 1_555
Mn2 Mn9 2.585030 1_555
Mn2 Mn7 2.734549 1_565
Mn2 Mn8 2.734621 1_555
Mn2 Mn6 2.734684 1_555
Mn2 Mn5 2.734704 1_655
Mn3 Mn9 2.584743 1_445
Mn3 Mn8 2.734698 1_555
Mn3 Mn7 2.734713 1_455
Mn3 Mn5 2.734869 1_545
Mn3 Mn6 2.734884 1_555
Mn4 Mn9 2.582588 1_555
Mn4 Mn6 2.733292 1_565
Mn4 Mn7 2.733429 1_454
Mn4 Mn5 2.733766 1_554
Mn4 Mn8 2.733786 1_555
Mn5 Mn8 2.612756 1_555
Mn5 Mn7 3.162571 1_565
Mn5 Mn7 3.162871 1_455
Mn5 Mn6 3.163666 1_455
Mn5 Mn6 3.164123 1_565
Mn6 Mn7 2.612778 1_555
Mn6 Mn9 2.787350 1_545
Mn6 Mn8 3.162671 1_655
Mn6 Mn8 3.162839 1_545
Mn7 Mn9 2.789743 1_545
Mn7 Mn8 3.163680 1_545
Mn7 Mn8 3.164269 1_655
Mn8 Mn9 2.816346 1_445
Mn8 Mn9 2.816568 1_555
Mn10 Mn4 2.583061 1_556
Mn10 Mn3 2.584782 1_555
Mn10 Mn2 2.584935 1_555
Mn10 Mn5 2.787336 1_555
Mn10 Mn8 2.789784 1_555
Mn10 Mn7 2.816380 1_565
Mn10 Mn7 2.816577 1_455
Mn10 Mn9 2.822164 1_556
Mn11 Mn4 2.583004 1_655
Mn11 Mn3 2.585082 1_665
Mn11 Mn2 2.585150 1_555
Mn11 Mn8 2.787078 1_655
Mn11 Mn5 2.789599 1_655
Mn11 Mn6 2.816347 1_555
Mn11 Mn6 2.816449 1_665
Mn11 Mn9 2.825800 1_555
