# generated using pymatgen
data_Sr3CoRuO7
_symmetry_space_group_name_H-M   'P 1'
_cell_length_a   10.72710280
_cell_length_b   10.72710280
_cell_length_c   10.72710280
_cell_angle_alpha   158.79681622
_cell_angle_beta   158.79681622
_cell_angle_gamma   30.16209315
_symmetry_Int_Tables_number   1
_chemical_formula_structural   Sr3CoRuO7
_chemical_formula_sum   'Sr3 Co1 Ru1 O7'
_cell_volume   161.36930456
_cell_formula_units_Z   1
loop_
 _symmetry_equiv_pos_site_id
 _symmetry_equiv_pos_as_xyz
  1  'x, y, z'
loop_
 _atom_site_type_symbol
 _atom_site_label
 _atom_site_symmetry_multiplicity
 _atom_site_fract_x
 _atom_site_fract_y
 _atom_site_fract_z
 _atom_site_occupancy
  Sr  Sr0  1  0.32034500  0.32034500  0.00000000  1
  Sr  Sr1  1  0.68500600  0.68500600  0.00000000  1
  Sr  Sr2  1  0.48904200  0.48904200  0.00000000  1
  Co  Co0  1  0.89451400  0.89451400  0.00000000  1
  Ru  Ru0  1  0.09668200  0.09668200  0.00000000  1
  O  O0  1  0.80375900  0.80375900  0.00000000  1
  O  O1  1  0.19555900  0.19555900  0.00000000  1
  O  O2  1  0.00497100  0.00497100  0.00000000  1
  O  O3  1  0.90492500  0.40492500  0.50000000  1
  O  O4  1  0.40492500  0.90492500  0.50000000  1
  O  O5  1  0.10013600  0.60013600  0.50000000  1
  O  O6  1  0.60013600  0.10013600  0.50000000  1
loop_
_geom_bond_atom_site_label_1
_geom_bond_atom_site_label_2
_geom_bond_distance
_geom_bond_site_symmetry_2
Co0 O0 1.880017 1_555
Co0 O3 1.985307 1_565
Co0 O3 1.985307 1_554
Co0 O4 1.985307 1_554
Co0 O4 1.985307 1_655
Co0 O2 2.288149 1_665
O0 Sr1 2.460004 1_555
O0 Sr0 2.812101 1_554
O0 Sr0 2.812101 1_565
O0 Sr0 2.812101 1_666
O0 Sr0 2.812101 1_655
O1 Ru0 2.048266 1_555
O1 Sr0 2.584979 1_555
O1 Sr1 2.799581 1_444
O1 Sr1 2.799581 1_545
O1 Sr1 2.799581 1_455
O1 Sr1 2.799581 1_556
O2 Ru0 1.899821 1_555
O2 Sr2 2.810471 1_455
O2 Sr2 2.810471 1_556
O2 Sr2 2.810471 1_444
O2 Sr2 2.810471 1_545
O3 Sr2 2.632730 1_555
O3 Sr2 2.632730 1_656
O3 Sr0 2.639088 1_656
O3 Sr0 2.639088 1_555
O4 Sr2 2.632730 1_555
O4 Sr2 2.632730 1_566
O4 Sr0 2.639088 1_566
O4 Sr0 2.639088 1_555
O5 Ru0 1.974855 1_555
O5 Ru0 1.974855 1_566
O5 Sr1 2.643080 1_556
O5 Sr1 2.643080 1_455
O5 Sr2 3.031686 1_556
O5 Sr2 3.031686 1_455
O6 Ru0 1.974855 1_656
O6 Ru0 1.974855 1_555
O6 Sr1 2.643080 1_545
O6 Sr1 2.643080 1_556
O6 Sr2 3.031686 1_545
O6 Sr2 3.031686 1_556
