# generated using pymatgen
data_Ba2Y2Zn8O13
_symmetry_space_group_name_H-M   'P 1'
_cell_length_a   6.45799843
_cell_length_b   6.45799843
_cell_length_c   10.38435395
_cell_angle_alpha   89.70626380
_cell_angle_beta   90.29373620
_cell_angle_gamma   119.84055521
_symmetry_Int_Tables_number   1
_chemical_formula_structural   Ba2Y2Zn8O13
_chemical_formula_sum   'Ba2 Y2 Zn8 O13'
_cell_volume   375.65908120
_cell_formula_units_Z   1
loop_
 _symmetry_equiv_pos_site_id
 _symmetry_equiv_pos_as_xyz
  1  'x, y, z'
loop_
 _atom_site_type_symbol
 _atom_site_label
 _atom_site_symmetry_multiplicity
 _atom_site_fract_x
 _atom_site_fract_y
 _atom_site_fract_z
 _atom_site_occupancy
  Ba  Ba0  1  0.15634100  0.84365900  0.94429400  1
  Ba  Ba1  1  0.86855000  0.13145000  0.43663700  1
  Y  Y0  1  0.17063200  0.82936800  0.31180000  1
  Y  Y1  1  0.85426700  0.14573300  0.80116200  1
  Zn  Zn0  1  0.15396200  0.32933200  0.12668500  1
  Zn  Zn1  1  0.67066800  0.84603800  0.12668500  1
  Zn  Zn2  1  0.84080100  0.65595000  0.62396400  1
  Zn  Zn3  1  0.34405000  0.15919900  0.62396400  1
  Zn  Zn4  1  0.46981600  0.53018400  0.86797200  1
  Zn  Zn5  1  0.50151700  0.49848300  0.38527500  1
  Zn  Zn6  1  0.66161500  0.33838500  0.16194300  1
  Zn  Zn7  1  0.32261400  0.67738600  0.63139200  1
  O  O0  1  0.49062700  0.50937300  0.18851300  1
  O  O1  1  0.49940800  0.50059200  0.68447700  1
  O  O2  1  0.99920400  0.52759700  0.15371700  1
  O  O3  1  0.47240300  0.00079600  0.15371700  1
  O  O4  1  0.00288800  0.51552900  0.72211600  1
  O  O5  1  0.48447100  0.99711200  0.72211600  1
  O  O6  1  0.17859700  0.28689400  0.93794200  1
  O  O7  1  0.71310600  0.82140300  0.93794200  1
  O  O8  1  0.84074200  0.66187900  0.43460000  1
  O  O9  1  0.33812100  0.15925800  0.43460000  1
  O  O10  1  0.33296700  0.66703300  0.44242100  1
  O  O11  1  0.98256400  0.01743600  0.21245900  1
  O  O12  1  0.99326800  0.00673200  0.66470700  1
loop_
_geom_bond_atom_site_label_1
_geom_bond_atom_site_label_2
_geom_bond_distance
_geom_bond_site_symmetry_2
Ba0 O7 2.794126 1_455
Ba0 O6 2.794126 1_565
Ba0 O2 2.800216 1_456
Ba0 O3 2.800216 1_566
Ba0 O4 2.955062 1_555
Ba0 O5 2.955062 1_555
Ba1 O11 2.660504 1_555
Ba1 O12 2.740990 1_555
Ba1 O8 2.947430 1_545
Ba1 O9 2.947430 1_655
Ba1 O10 3.261715 1_655
Ba1 O10 3.261715 1_545
O0 Zn6 1.932494 1_555
O0 Zn1 1.992178 1_555
O0 Zn0 1.992178 1_555
O0 Zn5 2.046148 1_555
O1 Zn4 1.935897 1_555
O1 Zn2 2.017095 1_555
O1 Zn3 2.017095 1_555
O1 Zn7 2.048259 1_555
O2 Zn6 1.898199 1_555
O2 Zn0 1.999278 1_655
O2 Y0 2.363359 1_655
O3 Zn6 1.898199 1_555
O3 Zn1 1.999278 1_545
O3 Y0 2.363359 1_545
O4 Zn2 1.970067 1_455
O4 Zn7 2.026207 1_555
O4 Y1 2.237212 1_455
O5 Zn3 1.970067 1_565
O5 Zn7 2.026207 1_555
O5 Y1 2.237212 1_565
O6 Zn4 1.896097 1_555
O6 Zn0 1.998504 1_556
O6 Y1 2.306102 1_455
O7 Zn4 1.896097 1_555
O7 Zn1 1.998504 1_556
O7 Y1 2.306102 1_565
O8 Zn2 1.966601 1_555
O8 Zn5 1.966870 1_555
O8 Y0 2.248394 1_655
O9 Zn3 1.966601 1_555
O9 Zn5 1.966870 1_555
O9 Y0 2.248394 1_545
O10 Zn7 1.966435 1_555
O10 Zn5 1.978421 1_555
O10 Y0 2.258887 1_555
O11 Zn0 1.961787 1_655
O11 Zn1 1.961787 1_545
O11 Y0 2.335962 1_645
O12 Zn2 2.016456 1_545
O12 Zn3 2.016456 1_655
O12 Y1 2.108910 1_555
