# generated using pymatgen
data_Ba2GaSe4
_symmetry_space_group_name_H-M   'P 1'
_cell_length_a   6.54147500
_cell_length_b   13.43554900
_cell_length_c   21.03530708
_cell_angle_alpha   75.70757262
_cell_angle_beta   90.00000000
_cell_angle_gamma   90.00000000
_symmetry_Int_Tables_number   1
_chemical_formula_structural   Ba2GaSe4
_chemical_formula_sum   'Ba16 Ga8 Se32'
_cell_volume   1791.53548244
_cell_formula_units_Z   8
loop_
 _symmetry_equiv_pos_site_id
 _symmetry_equiv_pos_as_xyz
  1  'x, y, z'
loop_
 _atom_site_type_symbol
 _atom_site_label
 _atom_site_symmetry_multiplicity
 _atom_site_fract_x
 _atom_site_fract_y
 _atom_site_fract_z
 _atom_site_occupancy
  Ba  Ba0  1  0.23496100  0.89315600  0.21622000  1
  Ba  Ba1  1  0.73496100  0.10684400  0.28378000  1
  Ba  Ba2  1  0.76503900  0.10684400  0.78378000  1
  Ba  Ba3  1  0.26503900  0.89315600  0.71622000  1
  Ba  Ba4  1  0.74322300  0.85420600  0.04849600  1
  Ba  Ba5  1  0.24322300  0.14579400  0.45150400  1
  Ba  Ba6  1  0.25677700  0.14579400  0.95150400  1
  Ba  Ba7  1  0.75677700  0.85420600  0.54849600  1
  Ba  Ba8  1  0.23719400  0.61842800  0.03798900  1
  Ba  Ba9  1  0.73719400  0.38157200  0.46201100  1
  Ba  Ba10  1  0.76280600  0.38157200  0.96201100  1
  Ba  Ba11  1  0.26280600  0.61842800  0.53798900  1
  Ba  Ba12  1  0.23154700  0.52752400  0.31235700  1
  Ba  Ba13  1  0.73154700  0.47247600  0.18764300  1
  Ba  Ba14  1  0.76845300  0.47247600  0.68764300  1
  Ba  Ba15  1  0.26845300  0.52752400  0.81235700  1
  Ga  Ga0  1  0.32310500  0.88489900  0.40182200  1
  Ga  Ga1  1  0.82310500  0.11510100  0.09817800  1
  Ga  Ga2  1  0.67689500  0.11510100  0.59817800  1
  Ga  Ga3  1  0.17689500  0.88489900  0.90182200  1
  Ga  Ga4  1  0.31687200  0.30354200  0.09983200  1
  Ga  Ga5  1  0.81687200  0.69645800  0.40016800  1
  Ga  Ga6  1  0.68312800  0.69645800  0.90016800  1
  Ga  Ga7  1  0.18312800  0.30354200  0.59983200  1
  Se  Se0  1  0.73619800  0.95791500  0.17824000  1
  Se  Se1  1  0.23619800  0.04208500  0.32176000  1
  Se  Se2  1  0.26380200  0.04208500  0.82176000  1
  Se  Se3  1  0.76380200  0.95791500  0.67824000  1
  Se  Se4  1  0.24530600  0.88370900  0.01427200  1
  Se  Se5  1  0.74530600  0.11629100  0.48572800  1
  Se  Se6  1  0.75469400  0.11629100  0.98572800  1
  Se  Se7  1  0.25469400  0.88370900  0.51427200  1
  Se  Se8  1  0.69296300  0.87256900  0.38435000  1
  Se  Se9  1  0.19296300  0.12743100  0.11565000  1
  Se  Se10  1  0.30703700  0.12743100  0.61565000  1
  Se  Se11  1  0.80703700  0.87256900  0.88435000  1
  Se  Se12  1  0.18680000  0.72857500  0.37420500  1
  Se  Se13  1  0.68680000  0.27142500  0.12579500  1
  Se  Se14  1  0.81320000  0.27142500  0.62579500  1
  Se  Se15  1  0.31320000  0.72857500  0.87420500  1
  Se  Se16  1  0.41983800  0.68788900  0.17493100  1
  Se  Se17  1  0.91983800  0.31211100  0.32506900  1
  Se  Se18  1  0.58016200  0.31211100  0.82506900  1
  Se  Se19  1  0.08016200  0.68788900  0.67493100  1
  Se  Se20  1  0.05027600  0.68672600  0.17421800  1
  Se  Se21  1  0.55027600  0.31327400  0.32578200  1
  Se  Se22  1  0.94972400  0.31327400  0.82578200  1
  Se  Se23  1  0.44972400  0.68672600  0.67421800  1
  Se  Se24  1  0.22716900  0.42065500  0.16441400  1
  Se  Se25  1  0.72716900  0.57934500  0.33558600  1
  Se  Se26  1  0.77283100  0.57934500  0.83558600  1
  Se  Se27  1  0.27283100  0.42065500  0.66441400  1
  Se  Se28  1  0.23500000  0.38921200  0.48273700  1
  Se  Se29  1  0.73500000  0.61078800  0.01726300  1
  Se  Se30  1  0.76500000  0.61078800  0.51726300  1
  Se  Se31  1  0.26500000  0.38921200  0.98273700  1
loop_
_geom_bond_atom_site_label_1
_geom_bond_atom_site_label_2
_geom_bond_distance
_geom_bond_site_symmetry_2
Ba0 Se16 3.317445 1_555
Ba0 Se1 3.335543 1_565
Ba0 Se20 3.338016 1_555
Ba0 Se9 3.342248 1_565
Ba0 Se0 3.420080 1_455
Ba0 Se0 3.435522 1_555
Ba0 Se12 3.522020 1_555
Ba1 Se17 3.317445 1_555
Ba1 Se0 3.335543 1_545
Ba1 Se21 3.338016 1_555
Ba1 Se8 3.342248 1_545
Ba1 Se1 3.420080 1_555
Ba1 Se1 3.435522 1_655
Ba1 Se13 3.522020 1_555
Ba2 Se18 3.317445 1_555
Ba2 Se3 3.335543 1_545
Ba2 Se22 3.338016 1_555
Ba2 Se11 3.342248 1_545
Ba2 Se2 3.420080 1_655
Ba2 Se2 3.435522 1_555
Ba2 Se14 3.522020 1_555
Ba3 Se19 3.317445 1_555
Ba3 Se2 3.335543 1_565
Ba3 Se23 3.338016 1_555
Ba3 Se10 3.342248 1_565
Ba3 Se3 3.420080 1_555
Ba3 Se3 3.435522 1_455
Ba3 Se15 3.522020 1_555
Ba4 Se4 3.338155 1_555
Ba4 Se0 3.357055 1_555
Ba4 Se4 3.364750 1_655
Ba4 Se11 3.425897 1_554
Ba4 Se6 3.442767 1_564
Ba4 Se29 3.491604 1_555
Ba4 Se20 3.626770 1_655
Ba4 Se16 3.688818 1_555
Ba5 Se5 3.338155 1_455
Ba5 Se1 3.357055 1_555
Ba5 Se5 3.364750 1_555
Ba5 Se10 3.425897 1_555
Ba5 Se7 3.442767 1_545
Ba5 Se28 3.491604 1_555
Ba5 Se21 3.626770 1_555
Ba5 Se17 3.688818 1_455
Ba6 Se6 3.338155 1_555
Ba6 Se2 3.357055 1_555
Ba6 Se6 3.364750 1_455
Ba6 Se9 3.425897 1_556
Ba6 Se4 3.442767 1_546
Ba6 Se31 3.491604 1_555
Ba6 Se22 3.626770 1_455
Ba6 Se18 3.688818 1_555
Ba7 Se7 3.338155 1_655
Ba7 Se3 3.357055 1_555
Ba7 Se7 3.364750 1_555
Ba7 Se8 3.425897 1_555
Ba7 Se5 3.442767 1_565
Ba7 Se30 3.491604 1_555
Ba7 Se23 3.626770 1_555
Ba7 Se19 3.688818 1_655
Ba8 Se24 3.263170 1_555
Ba8 Se29 3.290404 1_555
Ba8 Se29 3.318813 1_455
Ba8 Se15 3.433600 1_554
Ba8 Se20 3.441971 1_555
Ba8 Se16 3.453071 1_555
Ba8 Se4 3.475234 1_555
Ba8 Se31 3.554622 1_554
Ba9 Se25 3.263170 1_555
Ba9 Se28 3.290404 1_655
Ba9 Se28 3.318813 1_555
Ba9 Se14 3.433600 1_555
Ba9 Se21 3.441971 1_555
Ba9 Se17 3.453071 1_555
Ba9 Se5 3.475234 1_555
Ba9 Se30 3.554622 1_555
Ba10 Se26 3.263170 1_555
Ba10 Se31 3.290404 1_555
Ba10 Se31 3.318813 1_655
Ba10 Se13 3.433600 1_556
Ba10 Se22 3.441971 1_555
Ba10 Se18 3.453071 1_555
Ba10 Se6 3.475234 1_555
Ba10 Se29 3.554622 1_556
Ba11 Se27 3.263170 1_555
Ba11 Se30 3.290404 1_455
Ba11 Se30 3.318813 1_555
Ba11 Se12 3.433600 1_555
Ba11 Se23 3.441971 1_555
Ba11 Se19 3.453071 1_555
Ba11 Se7 3.475234 1_555
Ba11 Se28 3.554622 1_555
Ba12 Se12 3.287864 1_555
Ba12 Se20 3.369881 1_555
Ba12 Se25 3.376787 1_555
Ba12 Se16 3.382425 1_555
Ba12 Se25 3.431817 1_455
Ba12 Se17 3.496199 1_455
Ba12 Se21 3.508786 1_555
Ba12 Se28 3.606996 1_555
Ba12 Se24 3.735426 1_555
Ba13 Se13 3.287864 1_555
Ba13 Se21 3.369881 1_555
Ba13 Se24 3.376787 1_655
Ba13 Se17 3.382425 1_555
Ba13 Se24 3.431817 1_555
Ba13 Se16 3.496199 1_555
Ba13 Se20 3.508786 1_655
Ba13 Se29 3.606996 1_555
Ba13 Se25 3.735426 1_555
Ba14 Se14 3.287864 1_555
Ba14 Se22 3.369881 1_555
Ba14 Se27 3.376787 1_555
Ba14 Se18 3.382425 1_555
Ba14 Se27 3.431817 1_655
Ba14 Se19 3.496199 1_655
Ba14 Se23 3.508786 1_555
Ba14 Se30 3.606996 1_555
Ba14 Se26 3.735426 1_555
Ba15 Se15 3.287864 1_555
Ba15 Se23 3.369881 1_555
Ba15 Se26 3.376787 1_455
Ba15 Se19 3.382425 1_555
Ba15 Se26 3.431817 1_555
Ba15 Se18 3.496199 1_555
Ba15 Se22 3.508786 1_455
Ba15 Se31 3.606996 1_555
Ba15 Se27 3.735426 1_555
Ga0 Se7 2.403552 1_555
Ga0 Se1 2.421454 1_565
Ga0 Se8 2.458894 1_555
Ga0 Se12 2.479149 1_555
Ga1 Se6 2.403552 1_554
Ga1 Se0 2.421454 1_545
Ga1 Se9 2.458894 1_655
Ga1 Se13 2.479149 1_555
Ga2 Se5 2.403552 1_555
Ga2 Se3 2.421454 1_545
Ga2 Se10 2.458894 1_555
Ga2 Se14 2.479149 1_555
Ga3 Se4 2.403552 1_556
Ga3 Se2 2.421454 1_565
Ga3 Se11 2.458894 1_455
Ga3 Se15 2.479149 1_555
Ga4 Se24 2.391880 1_555
Ga4 Se9 2.444920 1_555
Ga4 Se31 2.471271 1_554
Ga4 Se13 2.494776 1_555
Ga5 Se25 2.391880 1_555
Ga5 Se8 2.444920 1_555
Ga5 Se30 2.471271 1_555
Ga5 Se12 2.494776 1_655
Ga6 Se26 2.391880 1_555
Ga6 Se11 2.444920 1_555
Ga6 Se29 2.471271 1_556
Ga6 Se15 2.494776 1_555
Ga7 Se27 2.391880 1_555
Ga7 Se10 2.444920 1_555
Ga7 Se28 2.471271 1_555
Ga7 Se14 2.494776 1_455
Se16 Se20 2.417602 1_555
Se17 Se21 2.417602 1_555
Se18 Se22 2.417602 1_555
Se19 Se23 2.417602 1_555
