# generated using pymatgen
data_Mg149S
_symmetry_space_group_name_H-M   'P 1'
_cell_length_a   15.90531934
_cell_length_b   15.90532475
_cell_length_c   15.59572824
_cell_angle_alpha   90.00000000
_cell_angle_beta   90.00000000
_cell_angle_gamma   120.00000896
_symmetry_Int_Tables_number   1
_chemical_formula_structural   Mg149S
_chemical_formula_sum   'Mg149 S1'
_cell_volume   3416.81279937
_cell_formula_units_Z   1
loop_
 _symmetry_equiv_pos_site_id
 _symmetry_equiv_pos_as_xyz
  1  'x, y, z'
loop_
 _atom_site_type_symbol
 _atom_site_label
 _atom_site_symmetry_multiplicity
 _atom_site_fract_x
 _atom_site_fract_y
 _atom_site_fract_z
 _atom_site_occupancy
  Mg  Mg0  1  0.80266953  0.00189848  -0.00000000  1
  Mg  Mg1  1  0.19922895  0.00189848  -0.00000000  1
  Mg  Mg2  1  0.19922895  0.19733047  -0.00000000  1
  Mg  Mg3  1  0.99810152  0.19733147  -0.00000000  1
  Mg  Mg4  1  0.80030760  0.19969240  -0.00000000  1
  Mg  Mg5  1  0.39938480  0.19969240  -0.00000000  1
  Mg  Mg6  1  0.60041361  0.20082723  -0.00000000  1
  Mg  Mg7  1  0.19911149  0.39822298  -0.00000000  1
  Mg  Mg8  1  0.60041361  0.39958639  -0.00000000  1
  Mg  Mg9  1  0.79917377  0.39958639  -0.00000000  1
  Mg  Mg10  1  0.00026883  0.40024440  -0.00000000  1
  Mg  Mg11  1  0.39997557  0.40024440  -0.00000000  1
  Mg  Mg12  1  0.59975560  0.60002443  -0.00000000  1
  Mg  Mg13  1  0.00026883  0.60002443  -0.00000000  1
  Mg  Mg14  1  0.39956646  0.60043454  -0.00000000  1
  Mg  Mg15  1  0.20086908  0.60043454  -0.00000000  1
  Mg  Mg16  1  0.80030760  0.60061520  -0.00000000  1
  Mg  Mg17  1  0.39956646  0.79913092  -0.00000000  1
  Mg  Mg18  1  0.60177702  0.80088851  -0.00000000  1
  Mg  Mg19  1  0.19911149  0.80088851  -0.00000000  1
  Mg  Mg20  1  0.99810152  0.80077105  -0.00000000  1
  Mg  Mg21  1  0.80266953  0.80077105  -0.00000000  1
  Mg  Mg22  1  0.59975560  0.99973117  -0.00000000  1
  Mg  Mg23  1  0.39997557  0.99973117  -0.00000000  1
  Mg  Mg24  1  0.06538982  0.13077864  0.16486622  1
  Mg  Mg25  1  0.06538982  0.93461018  0.16486622  1
  Mg  Mg26  1  0.86922136  0.93461118  0.16486622  1
  Mg  Mg27  1  0.26576391  0.33196208  0.16558590  1
  Mg  Mg28  1  0.06619817  0.33196208  0.16558590  1
  Mg  Mg29  1  0.66803792  0.73423609  0.16558590  1
  Mg  Mg30  1  0.06619817  0.73423609  0.16558590  1
  Mg  Mg31  1  0.66803792  0.93380183  0.16558590  1
  Mg  Mg32  1  0.26576391  0.93380183  0.16558590  1
  Mg  Mg33  1  0.26635281  0.53270463  0.16584274  1
  Mg  Mg34  1  0.26635281  0.73364719  0.16584274  1
  Mg  Mg35  1  0.46729437  0.73364719  0.16584274  1
  Mg  Mg36  1  0.66666600  0.33333300  0.16593213  1
  Mg  Mg37  1  0.46660656  0.13361709  0.16609056  1
  Mg  Mg38  1  0.66701053  0.13361809  0.16609056  1
  Mg  Mg39  1  0.86638191  0.33298847  0.16609056  1
  Mg  Mg40  1  0.46660656  0.33298947  0.16609056  1
  Mg  Mg41  1  0.66701053  0.53339244  0.16609056  1
  Mg  Mg42  1  0.86638191  0.53339244  0.16609056  1
  Mg  Mg43  1  0.06689846  0.53344923  0.16606793  1
  Mg  Mg44  1  0.46655077  0.53345023  0.16606793  1
  Mg  Mg45  1  0.46655077  0.93310154  0.16606793  1
  Mg  Mg46  1  0.26692501  0.13346301  0.16707881  1
  Mg  Mg47  1  0.86653699  0.13346301  0.16707881  1
  Mg  Mg48  1  0.86653699  0.73307399  0.16707881  1
  Mg  Mg49  1  0.00000000  0.00000000  0.33102084  1
  Mg  Mg50  1  0.19987737  0.39975573  0.33218275  1
  Mg  Mg51  1  0.19987737  0.80012263  0.33218275  1
  Mg  Mg52  1  0.60024527  0.80012263  0.33218275  1
  Mg  Mg53  1  0.39980751  0.60019249  0.33256741  1
  Mg  Mg54  1  0.20038499  0.60019249  0.33256741  1
  Mg  Mg55  1  0.39980751  0.79961401  0.33256741  1
  Mg  Mg56  1  0.60020934  0.20041869  0.33267050  1
  Mg  Mg57  1  0.79958031  0.39979066  0.33267050  1
  Mg  Mg58  1  0.60020934  0.39979066  0.33267050  1
  Mg  Mg59  1  0.80017385  0.19982615  0.33268698  1
  Mg  Mg60  1  0.39965229  0.19982615  0.33268698  1
  Mg  Mg61  1  0.80017385  0.60034771  0.33268698  1
  Mg  Mg62  1  0.39993873  0.99977492  0.33311434  1
  Mg  Mg63  1  0.59983719  0.99977592  0.33311434  1
  Mg  Mg64  1  0.00022408  0.40016381  0.33311434  1
  Mg  Mg65  1  0.39993873  0.40016381  0.33311434  1
  Mg  Mg66  1  0.00022408  0.60006127  0.33311434  1
  Mg  Mg67  1  0.59983719  0.60006127  0.33311434  1
  Mg  Mg68  1  0.19953877  0.99979309  0.33356688  1
  Mg  Mg69  1  0.80025433  0.99979309  0.33356688  1
  Mg  Mg70  1  0.19953877  0.19974567  0.33356688  1
  Mg  Mg71  1  0.00020691  0.19974567  0.33356688  1
  Mg  Mg72  1  0.80025433  0.80046123  0.33356688  1
  Mg  Mg73  1  0.00020691  0.80046123  0.33356688  1
  Mg  Mg74  1  0.06636735  0.13273470  0.50000000  1
  Mg  Mg75  1  0.26660356  0.13330178  0.50000000  1
  Mg  Mg76  1  0.86669822  0.13330178  0.50000000  1
  Mg  Mg77  1  0.46649837  0.13304598  0.50000000  1
  Mg  Mg78  1  0.66654662  0.13304598  0.50000000  1
  Mg  Mg79  1  0.06689537  0.33313134  0.50000000  1
  Mg  Mg80  1  0.26623597  0.33313134  0.50000000  1
  Mg  Mg81  1  0.46649837  0.33345238  0.50000000  1
  Mg  Mg82  1  0.86695402  0.33345238  0.50000000  1
  Mg  Mg83  1  0.66666600  0.33333300  0.50000000  1
  Mg  Mg84  1  0.26632884  0.53265869  0.50000000  1
  Mg  Mg85  1  0.66654662  0.53350063  0.50000000  1
  Mg  Mg86  1  0.86695402  0.53350063  0.50000000  1
  Mg  Mg87  1  0.46664277  0.53335623  0.50000000  1
  Mg  Mg88  1  0.06671346  0.53335723  0.50000000  1
  Mg  Mg89  1  0.46734131  0.73367116  0.50000000  1
  Mg  Mg90  1  0.26632884  0.73367116  0.50000000  1
  Mg  Mg91  1  0.86669822  0.73339644  0.50000000  1
  Mg  Mg92  1  0.06689537  0.73376403  0.50000000  1
  Mg  Mg93  1  0.66686866  0.73376403  0.50000000  1
  Mg  Mg94  1  0.46664277  0.93328654  0.50000000  1
  Mg  Mg95  1  0.66686866  0.93310463  0.50000000  1
  Mg  Mg96  1  0.26623597  0.93310463  0.50000000  1
  Mg  Mg97  1  0.06636735  0.93363265  0.50000000  1
  Mg  Mg98  1  0.86726530  0.93363265  0.50000000  1
  Mg  Mg99  1  0.19953877  0.99979309  0.66643312  1
  Mg  Mg100  1  0.80025433  0.99979309  0.66643312  1
  Mg  Mg101  1  0.19953877  0.19974567  0.66643312  1
  Mg  Mg102  1  0.00020691  0.19974567  0.66643312  1
  Mg  Mg103  1  0.80025433  0.80046123  0.66643312  1
  Mg  Mg104  1  0.00020691  0.80046123  0.66643312  1
  Mg  Mg105  1  0.39993873  0.99977492  0.66688466  1
  Mg  Mg106  1  0.59983719  0.99977592  0.66688466  1
  Mg  Mg107  1  0.00022408  0.40016381  0.66688466  1
  Mg  Mg108  1  0.39993873  0.40016381  0.66688466  1
  Mg  Mg109  1  0.00022408  0.60006127  0.66688466  1
  Mg  Mg110  1  0.59983719  0.60006127  0.66688466  1
  Mg  Mg111  1  0.80017385  0.19982615  0.66731202  1
  Mg  Mg112  1  0.39965229  0.19982615  0.66731202  1
  Mg  Mg113  1  0.80017385  0.60034771  0.66731202  1
  Mg  Mg114  1  0.60020934  0.20041869  0.66732950  1
  Mg  Mg115  1  0.79958031  0.39979066  0.66732950  1
  Mg  Mg116  1  0.60020934  0.39979066  0.66732950  1
  Mg  Mg117  1  0.39980751  0.60019249  0.66743259  1
  Mg  Mg118  1  0.20038499  0.60019249  0.66743259  1
  Mg  Mg119  1  0.39980751  0.79961401  0.66743259  1
  Mg  Mg120  1  0.19987737  0.39975573  0.66781825  1
  Mg  Mg121  1  0.19987737  0.80012263  0.66781825  1
  Mg  Mg122  1  0.60024527  0.80012263  0.66781825  1
  Mg  Mg123  1  0.00000000  0.00000000  0.66897916  1
  Mg  Mg124  1  0.26692501  0.13346301  0.83292119  1
  Mg  Mg125  1  0.86653699  0.13346301  0.83292119  1
  Mg  Mg126  1  0.86653699  0.73307399  0.83292119  1
  Mg  Mg127  1  0.06689846  0.53344923  0.83393207  1
  Mg  Mg128  1  0.46655077  0.53345023  0.83393207  1
  Mg  Mg129  1  0.46655077  0.93310154  0.83393207  1
  Mg  Mg130  1  0.46660656  0.13361709  0.83390944  1
  Mg  Mg131  1  0.66701053  0.13361809  0.83390944  1
  Mg  Mg132  1  0.86638191  0.33298847  0.83390944  1
  Mg  Mg133  1  0.46660656  0.33298947  0.83390944  1
  Mg  Mg134  1  0.66701053  0.53339244  0.83390944  1
  Mg  Mg135  1  0.86638191  0.53339244  0.83390944  1
  Mg  Mg136  1  0.66666600  0.33333300  0.83406687  1
  Mg  Mg137  1  0.26635281  0.53270463  0.83415826  1
  Mg  Mg138  1  0.26635281  0.73364719  0.83415826  1
  Mg  Mg139  1  0.46729437  0.73364719  0.83415826  1
  Mg  Mg140  1  0.26576391  0.33196208  0.83441310  1
  Mg  Mg141  1  0.06619817  0.33196208  0.83441310  1
  Mg  Mg142  1  0.66803792  0.73423609  0.83441310  1
  Mg  Mg143  1  0.06619817  0.73423609  0.83441310  1
  Mg  Mg144  1  0.66803792  0.93380183  0.83441310  1
  Mg  Mg145  1  0.26576391  0.93380183  0.83441310  1
  Mg  Mg146  1  0.06538982  0.13077864  0.83513378  1
  Mg  Mg147  1  0.06538982  0.93461018  0.83513378  1
  Mg  Mg148  1  0.86922136  0.93461118  0.83513378  1
  S  S0  1  0.00000000  0.00000000  -0.00000000  1
loop_
_geom_bond_atom_site_label_1
_geom_bond_atom_site_label_2
_geom_bond_distance
_geom_bond_site_symmetry_2
Mg0 Mg3 3.108416 1_555
Mg0 S0 3.153811 1_655
Mg0 Mg148 3.163834 1_544
Mg0 Mg26 3.163834 1_545
Mg0 Mg4 3.164927 1_555
Mg0 Mg47 3.174089 1_555
Mg0 Mg125 3.174089 1_554
Mg0 Mg31 3.179336 1_545
Mg0 Mg144 3.179348 1_544
Mg0 Mg18 3.196194 1_545
Mg0 Mg21 3.198997 1_545
Mg0 Mg22 3.210314 1_545
Mg1 Mg2 3.108409 1_555
Mg1 S0 3.153811 1_555
Mg1 Mg147 3.163834 1_544
Mg1 Mg25 3.163834 1_545
Mg1 Mg5 3.164926 1_555
Mg1 Mg46 3.174089 1_555
Mg1 Mg124 3.174089 1_554
Mg1 Mg32 3.179336 1_545
Mg1 Mg145 3.179349 1_544
Mg1 Mg19 3.196195 1_545
Mg1 Mg20 3.198996 1_445
Mg1 Mg23 3.210314 1_545
Mg2 S0 3.153811 1_555
Mg2 Mg24 3.163834 1_555
Mg2 Mg5 3.164926 1_555
Mg2 Mg46 3.174081 1_555
Mg2 Mg27 3.179336 1_555
Mg2 Mg7 3.196195 1_555
Mg2 Mg3 3.199004 1_455
Mg3 S0 3.153828 1_655
Mg3 Mg4 3.164918 1_555
Mg3 Mg47 3.174088 1_555
Mg3 Mg7 3.196186 1_655
Mg4 Mg47 3.180992 1_555
Mg4 Mg9 3.188434 1_555
Mg4 Mg6 3.188441 1_555
Mg5 Mg6 3.188441 1_555
Mg5 Mg8 3.188441 1_555
Mg6 Mg8 3.161329 1_555
Mg6 Mg9 3.161336 1_555
Mg8 Mg9 3.161344 1_555
Mg10 Mg127 3.174020 1_554
Mg10 Mg43 3.174020 1_555
Mg10 Mg28 3.175996 1_555
Mg10 Mg141 3.176009 1_554
Mg10 Mg13 3.177566 1_555
Mg10 Mg7 3.178854 1_555
Mg10 Mg39 3.179751 1_455
Mg10 Mg132 3.179751 1_454
Mg10 Mg4 3.185156 1_455
Mg10 Mg15 3.187355 1_555
Mg10 Mg9 3.193261 1_455
Mg10 Mg3 3.210299 1_455
Mg11 Mg128 3.174028 1_554
Mg11 Mg44 3.174028 1_555
Mg11 Mg27 3.175996 1_555
Mg11 Mg140 3.176009 1_554
Mg11 Mg12 3.177565 1_555
Mg11 Mg7 3.178854 1_555
Mg11 Mg133 3.179744 1_554
Mg11 Mg40 3.179744 1_555
Mg11 Mg5 3.185157 1_555
Mg11 Mg14 3.187348 1_555
Mg11 Mg8 3.193277 1_555
Mg11 Mg2 3.210314 1_555
Mg12 Mg128 3.174019 1_554
Mg12 Mg44 3.174019 1_555
Mg12 Mg29 3.175996 1_555
Mg12 Mg142 3.176009 1_554
Mg12 Mg18 3.178855 1_555
Mg12 Mg41 3.179752 1_555
Mg12 Mg134 3.179752 1_554
Mg12 Mg16 3.185156 1_555
Mg12 Mg14 3.187339 1_555
Mg12 Mg8 3.193278 1_555
Mg12 Mg21 3.210314 1_555
Mg13 Mg43 3.174020 1_555
Mg13 Mg30 3.175996 1_555
Mg13 Mg143 3.176009 1_554
Mg13 Mg19 3.178854 1_555
Mg13 Mg42 3.179751 1_455
Mg13 Mg135 3.179751 1_454
Mg13 Mg16 3.185156 1_455
Mg13 Mg15 3.187355 1_555
Mg13 Mg9 3.193269 1_455
Mg13 Mg20 3.210315 1_455
Mg14 Mg17 3.160330 1_555
Mg14 Mg15 3.160345 1_555
Mg14 Mg35 3.171267 1_555
Mg14 Mg33 3.171275 1_555
Mg14 Mg44 3.180113 1_555
Mg14 Mg18 3.202345 1_555
Mg14 Mg7 3.202361 1_555
Mg15 Mg17 3.160337 1_555
Mg15 Mg34 3.171267 1_555
Mg15 Mg33 3.171275 1_555
Mg15 Mg43 3.180129 1_555
Mg15 Mg19 3.202355 1_555
Mg15 Mg7 3.202355 1_555
Mg16 Mg20 3.164926 1_555
Mg16 Mg21 3.164927 1_555
Mg16 Mg41 3.175055 1_555
Mg16 Mg42 3.175055 1_555
Mg16 Mg48 3.180992 1_555
Mg16 Mg8 3.188441 1_555
Mg16 Mg9 3.188450 1_555
Mg17 Mg35 3.171259 1_555
Mg17 Mg34 3.171275 1_555
Mg17 Mg45 3.180129 1_555
Mg17 Mg22 3.187347 1_555
Mg17 Mg23 3.187364 1_555
Mg17 Mg18 3.202338 1_555
Mg17 Mg19 3.202369 1_555
Mg18 Mg29 3.165566 1_555
Mg18 Mg31 3.165566 1_555
Mg18 Mg22 3.178855 1_555
Mg18 Mg35 3.181371 1_555
Mg18 Mg21 3.196194 1_555
Mg19 Mg30 3.165566 1_555
Mg19 Mg32 3.165566 1_555
Mg19 Mg23 3.178854 1_555
Mg19 Mg34 3.181371 1_555
Mg19 Mg20 3.196194 1_455
Mg20 Mg21 3.108408 1_555
Mg20 S0 3.153812 1_665
Mg20 Mg25 3.163834 1_655
Mg20 Mg48 3.174088 1_555
Mg20 Mg30 3.179336 1_655
Mg21 S0 3.153811 1_665
Mg21 Mg26 3.163842 1_555
Mg21 Mg48 3.174089 1_555
Mg21 Mg29 3.179336 1_555
Mg22 Mg45 3.174019 1_555
Mg22 Mg31 3.175996 1_555
Mg22 Mg23 3.177565 1_555
Mg22 Mg38 3.179752 1_565
Mg22 Mg4 3.185156 1_565
Mg22 Mg6 3.193278 1_565
Mg23 Mg45 3.174020 1_555
Mg23 Mg32 3.175996 1_555
Mg23 Mg37 3.179744 1_565
Mg23 Mg5 3.185157 1_565
Mg23 Mg6 3.193277 1_565
Mg24 Mg26 3.120114 1_445
Mg24 Mg25 3.120123 1_545
Mg24 S0 3.139451 1_555
Mg24 Mg49 3.155929 1_555
Mg24 Mg3 3.163850 1_455
Mg24 Mg46 3.184535 1_555
Mg24 Mg47 3.184567 1_455
Mg24 Mg27 3.193490 1_555
Mg24 Mg28 3.193499 1_555
Mg24 Mg70 3.215209 1_555
Mg24 Mg71 3.215217 1_555
Mg25 Mg26 3.120130 1_455
Mg25 S0 3.139459 1_565
Mg25 Mg49 3.155937 1_565
Mg25 Mg46 3.184551 1_565
Mg25 Mg48 3.184559 1_455
Mg25 Mg32 3.193482 1_555
Mg25 Mg30 3.193483 1_555
Mg25 Mg68 3.215208 1_555
Mg25 Mg73 3.215209 1_555
Mg26 S0 3.139451 1_665
Mg26 Mg49 3.155928 1_665
Mg26 Mg47 3.184552 1_565
Mg26 Mg48 3.184568 1_555
Mg26 Mg31 3.193490 1_555
Mg26 Mg29 3.193498 1_555
Mg26 Mg69 3.215209 1_555
Mg26 Mg72 3.215217 1_555
Mg27 Mg7 3.165566 1_555
Mg27 Mg46 3.166552 1_555
Mg27 Mg28 3.174157 1_555
Mg27 Mg50 3.184572 1_555
Mg27 Mg40 3.186337 1_555
Mg27 Mg33 3.188205 1_555
Mg27 Mg70 3.190621 1_555
Mg27 Mg44 3.199180 1_555
Mg27 Mg65 3.200379 1_555
Mg28 Mg7 3.165566 1_555
Mg28 Mg47 3.166559 1_455
Mg28 Mg3 3.179328 1_455
Mg28 Mg50 3.184564 1_555
Mg28 Mg39 3.186345 1_455
Mg28 Mg33 3.188212 1_555
Mg28 Mg71 3.190621 1_555
Mg28 Mg43 3.199173 1_555
Mg28 Mg64 3.200387 1_555
Mg29 Mg48 3.166559 1_555
Mg29 Mg31 3.174158 1_555
Mg29 Mg52 3.184564 1_555
Mg29 Mg41 3.186354 1_555
Mg29 Mg35 3.188220 1_555
Mg29 Mg72 3.190621 1_555
Mg29 Mg44 3.199164 1_555
Mg29 Mg67 3.200379 1_555
Mg30 Mg48 3.166559 1_455
Mg30 Mg32 3.174157 1_555
Mg30 Mg51 3.184564 1_555
Mg30 Mg42 3.186353 1_455
Mg30 Mg34 3.188220 1_555
Mg30 Mg73 3.190621 1_555
Mg30 Mg43 3.199173 1_555
Mg30 Mg66 3.200379 1_555
Mg31 Mg47 3.166559 1_565
Mg31 Mg52 3.184564 1_555
Mg31 Mg38 3.186354 1_565
Mg31 Mg35 3.188220 1_555
Mg31 Mg69 3.190621 1_555
Mg31 Mg45 3.199172 1_555
Mg31 Mg63 3.200379 1_555
Mg32 Mg46 3.166568 1_565
Mg32 Mg51 3.184564 1_555
Mg32 Mg37 3.186337 1_565
Mg32 Mg34 3.188221 1_555
Mg32 Mg68 3.190621 1_555
Mg32 Mg45 3.199172 1_555
Mg32 Mg62 3.200379 1_555
Mg33 Mg50 3.175449 1_555
Mg33 Mg44 3.178302 1_555
Mg33 Mg43 3.178325 1_555
Mg33 Mg7 3.181363 1_555
Mg33 Mg53 3.184391 1_555
Mg33 Mg54 3.184399 1_555
Mg33 Mg35 3.196048 1_555
Mg33 Mg34 3.196057 1_555
Mg34 Mg51 3.175465 1_555
Mg34 Mg45 3.178317 1_555
Mg34 Mg43 3.178317 1_555
Mg34 Mg55 3.184391 1_555
Mg34 Mg54 3.184391 1_555
Mg34 Mg35 3.196040 1_555
Mg35 Mg52 3.175464 1_555
Mg35 Mg44 3.178303 1_555
Mg35 Mg45 3.178318 1_555
Mg35 Mg55 3.184383 1_555
Mg35 Mg53 3.184391 1_555
Mg36 Mg6 3.166732 1_555
Mg36 Mg8 3.166732 1_555
Mg36 Mg9 3.166748 1_555
Mg36 Mg38 3.179275 1_555
Mg36 Mg41 3.179275 1_555
Mg36 Mg40 3.179282 1_555
Mg36 Mg37 3.179282 1_555
Mg36 Mg42 3.179282 1_555
Mg36 Mg39 3.179290 1_555
Mg36 Mg57 3.180252 1_555
Mg36 Mg56 3.180252 1_555
Mg36 Mg58 3.180252 1_555
Mg37 Mg40 3.171082 1_555
Mg37 Mg46 3.174812 1_555
Mg37 Mg5 3.175055 1_555
Mg37 Mg6 3.179113 1_555
Mg37 Mg60 3.180425 1_555
Mg37 Mg56 3.183704 1_555
Mg37 Mg38 3.187481 1_555
Mg37 Mg45 3.188821 1_545
Mg37 Mg62 3.191262 1_545
Mg38 Mg39 3.171058 1_555
Mg38 Mg47 3.174803 1_555
Mg38 Mg4 3.175055 1_555
Mg38 Mg6 3.179106 1_555
Mg38 Mg59 3.180424 1_555
Mg38 Mg56 3.183696 1_555
Mg38 Mg45 3.188828 1_545
Mg38 Mg63 3.191262 1_545
Mg39 Mg47 3.174789 1_555
Mg39 Mg4 3.175047 1_555
Mg39 Mg9 3.179106 1_555
Mg39 Mg59 3.180417 1_555
Mg39 Mg57 3.183712 1_555
Mg39 Mg42 3.187490 1_555
Mg39 Mg43 3.188836 1_655
Mg39 Mg64 3.191261 1_655
Mg40 Mg46 3.174804 1_555
Mg40 Mg5 3.175055 1_555
Mg40 Mg8 3.179113 1_555
Mg40 Mg60 3.180425 1_555
Mg40 Mg58 3.183704 1_555
Mg40 Mg41 3.187481 1_555
Mg40 Mg44 3.188837 1_555
Mg40 Mg65 3.191262 1_555
Mg41 Mg42 3.171065 1_555
Mg41 Mg48 3.174804 1_555
Mg41 Mg8 3.179106 1_555
Mg41 Mg61 3.180424 1_555
Mg41 Mg58 3.183696 1_555
Mg41 Mg44 3.188836 1_555
Mg41 Mg67 3.191262 1_555
Mg42 Mg48 3.174805 1_555
Mg42 Mg9 3.179105 1_555
Mg42 Mg61 3.180425 1_555
Mg42 Mg57 3.183696 1_555
Mg42 Mg43 3.188828 1_655
Mg42 Mg66 3.191261 1_655
Mg43 Mg54 3.181754 1_555
Mg43 Mg64 3.187123 1_555
Mg43 Mg66 3.187131 1_555
Mg44 Mg53 3.181747 1_555
Mg44 Mg67 3.187131 1_555
Mg44 Mg65 3.187131 1_555
Mg45 Mg55 3.181763 1_555
Mg45 Mg62 3.187123 1_555
Mg45 Mg63 3.187131 1_555
Mg46 Mg60 3.164366 1_555
Mg46 Mg5 3.180999 1_555
Mg46 Mg70 3.183074 1_555
Mg46 Mg68 3.183082 1_545
Mg47 Mg59 3.164359 1_555
Mg47 Mg71 3.183082 1_655
Mg47 Mg69 3.183082 1_545
Mg48 Mg61 3.164359 1_555
Mg48 Mg73 3.183082 1_655
Mg48 Mg72 3.183082 1_555
Mg49 Mg69 3.175623 1_445
Mg49 Mg68 3.175623 1_545
Mg49 Mg72 3.175623 1_445
Mg49 Mg70 3.175623 1_555
Mg49 Mg71 3.175624 1_555
Mg49 Mg73 3.175624 1_545
Mg49 Mg98 3.207479 1_445
Mg49 Mg97 3.207479 1_545
Mg49 Mg74 3.207479 1_555
Mg50 Mg71 3.178600 1_555
Mg50 Mg70 3.178609 1_555
Mg50 Mg65 3.178833 1_555
Mg50 Mg64 3.178833 1_555
Mg50 Mg54 3.183988 1_555
Mg50 Mg53 3.183995 1_555
Mg50 Mg84 3.193935 1_555
Mg50 Mg79 3.194560 1_555
Mg50 Mg80 3.194568 1_555
Mg51 Mg73 3.178592 1_555
Mg51 Mg68 3.178593 1_555
Mg51 Mg62 3.178825 1_555
Mg51 Mg66 3.178833 1_555
Mg51 Mg54 3.184004 1_555
Mg51 Mg55 3.184011 1_555
Mg51 Mg90 3.193935 1_555
Mg51 Mg92 3.194560 1_555
Mg51 Mg96 3.194560 1_555
Mg52 Mg72 3.178592 1_555
Mg52 Mg69 3.178592 1_555
Mg52 Mg67 3.178834 1_555
Mg52 Mg63 3.178834 1_555
Mg52 Mg55 3.183995 1_555
Mg52 Mg53 3.184003 1_555
Mg52 Mg89 3.193943 1_555
Mg52 Mg93 3.194560 1_555
Mg52 Mg95 3.194560 1_555
Mg53 Mg55 3.171864 1_555
Mg53 Mg54 3.171879 1_555
Mg53 Mg65 3.182577 1_555
Mg53 Mg67 3.182591 1_555
Mg53 Mg84 3.193605 1_555
Mg53 Mg89 3.193605 1_555
Mg53 Mg87 3.195110 1_555
Mg54 Mg55 3.171871 1_555
Mg54 Mg64 3.182584 1_555
Mg54 Mg66 3.182592 1_555
Mg54 Mg84 3.193597 1_555
Mg54 Mg90 3.193605 1_555
Mg54 Mg88 3.195110 1_555
Mg55 Mg62 3.182593 1_555
Mg55 Mg63 3.182600 1_555
Mg55 Mg89 3.193589 1_555
Mg55 Mg90 3.193605 1_555
Mg55 Mg94 3.195118 1_555
Mg56 Mg57 3.171067 1_555
Mg56 Mg58 3.171076 1_555
Mg56 Mg60 3.185222 1_555
Mg56 Mg59 3.185222 1_555
Mg56 Mg83 3.187795 1_555
Mg56 Mg63 3.188340 1_545
Mg56 Mg62 3.188347 1_545
Mg56 Mg78 3.194112 1_555
Mg56 Mg77 3.194120 1_555
Mg57 Mg58 3.171059 1_555
Mg57 Mg61 3.185215 1_555
Mg57 Mg59 3.185231 1_555
Mg57 Mg83 3.187794 1_555
Mg57 Mg64 3.188347 1_655
Mg57 Mg66 3.188347 1_655
Mg57 Mg86 3.194112 1_555
Mg57 Mg82 3.194128 1_555
Mg58 Mg60 3.185222 1_555
Mg58 Mg61 3.185222 1_555
Mg58 Mg83 3.187795 1_555
Mg58 Mg67 3.188340 1_555
Mg58 Mg65 3.188347 1_555
Mg58 Mg85 3.194112 1_555
Mg58 Mg81 3.194120 1_555
Mg59 Mg71 3.182260 1_655
Mg59 Mg69 3.182261 1_545
Mg59 Mg63 3.184150 1_545
Mg59 Mg64 3.184158 1_655
Mg59 Mg76 3.188648 1_555
Mg59 Mg82 3.193227 1_555
Mg59 Mg78 3.193234 1_555
Mg60 Mg70 3.182259 1_555
Mg60 Mg68 3.182259 1_545
Mg60 Mg65 3.184167 1_555
Mg60 Mg62 3.184167 1_545
Mg60 Mg75 3.188648 1_555
Mg60 Mg81 3.193227 1_555
Mg60 Mg77 3.193227 1_555
Mg61 Mg73 3.182259 1_655
Mg61 Mg72 3.182260 1_555
Mg61 Mg67 3.184150 1_555
Mg61 Mg66 3.184150 1_655
Mg61 Mg91 3.188648 1_555
Mg61 Mg85 3.193234 1_555
Mg61 Mg86 3.193235 1_555
Mg62 Mg63 3.179441 1_555
Mg62 Mg94 3.184337 1_555
Mg62 Mg77 3.184961 1_565
Mg62 Mg68 3.187578 1_555
Mg62 Mg96 3.188392 1_555
Mg63 Mg94 3.184352 1_555
Mg63 Mg78 3.184953 1_565
Mg63 Mg69 3.187570 1_555
Mg63 Mg95 3.188393 1_555
Mg64 Mg66 3.179434 1_555
Mg64 Mg88 3.184345 1_555
Mg64 Mg82 3.184952 1_455
Mg64 Mg71 3.187587 1_555
Mg64 Mg79 3.188401 1_555
Mg65 Mg67 3.179441 1_555
Mg65 Mg87 3.184337 1_555
Mg65 Mg81 3.184961 1_555
Mg65 Mg70 3.187578 1_555
Mg65 Mg80 3.188392 1_555
Mg66 Mg88 3.184344 1_555
Mg66 Mg86 3.184952 1_455
Mg66 Mg73 3.187571 1_555
Mg66 Mg92 3.188393 1_555
Mg67 Mg87 3.184352 1_555
Mg67 Mg85 3.184953 1_555
Mg67 Mg72 3.187570 1_555
Mg67 Mg93 3.188393 1_555
Mg68 Mg73 3.170437 1_555
Mg68 Mg97 3.178410 1_555
Mg68 Mg96 3.180107 1_555
Mg68 Mg70 3.180311 1_565
Mg68 Mg75 3.181090 1_565
Mg69 Mg72 3.170438 1_555
Mg69 Mg98 3.178410 1_555
Mg69 Mg95 3.180107 1_555
Mg69 Mg71 3.180310 1_665
Mg69 Mg76 3.181090 1_565
Mg70 Mg71 3.170437 1_555
Mg70 Mg74 3.178410 1_555
Mg70 Mg80 3.180107 1_555
Mg70 Mg75 3.181090 1_555
Mg71 Mg74 3.178410 1_555
Mg71 Mg79 3.180107 1_555
Mg71 Mg76 3.181090 1_455
Mg72 Mg98 3.178410 1_555
Mg72 Mg93 3.180107 1_555
Mg72 Mg73 3.180310 1_655
Mg72 Mg91 3.181090 1_555
Mg73 Mg97 3.178410 1_555
Mg73 Mg92 3.180107 1_555
Mg73 Mg91 3.181090 1_455
Mg74 Mg98 3.166782 1_445
Mg74 Mg97 3.166783 1_545
Mg74 Mg75 3.180321 1_555
Mg74 Mg76 3.180321 1_455
Mg74 Mg80 3.183182 1_555
Mg74 Mg79 3.183183 1_555
Mg75 Mg97 3.180321 1_545
Mg75 Mg99 3.181090 1_545
Mg75 Mg80 3.181281 1_555
Mg75 Mg96 3.181281 1_545
Mg75 Mg77 3.181427 1_555
Mg75 Mg81 3.181427 1_555
Mg76 Mg98 3.180322 1_545
Mg76 Mg79 3.181280 1_655
Mg76 Mg95 3.181280 1_545
Mg76 Mg82 3.181428 1_555
Mg76 Mg78 3.181443 1_555
Mg77 Mg94 3.178388 1_545
Mg77 Mg78 3.181831 1_555
Mg77 Mg96 3.182687 1_545
Mg77 Mg83 3.184680 1_555
Mg77 Mg81 3.187529 1_555
Mg78 Mg94 3.178387 1_545
Mg78 Mg95 3.182696 1_545
Mg78 Mg83 3.184681 1_555
Mg78 Mg82 3.187536 1_555
Mg79 Mg80 3.170576 1_555
Mg79 Mg84 3.172800 1_555
Mg79 Mg82 3.182687 1_455
Mg79 Mg88 3.186105 1_555
Mg80 Mg84 3.172809 1_555
Mg80 Mg81 3.182687 1_555
Mg80 Mg87 3.186089 1_555
Mg81 Mg87 3.178388 1_555
Mg81 Mg85 3.181831 1_555
Mg81 Mg83 3.184680 1_555
Mg82 Mg88 3.178395 1_655
Mg82 Mg86 3.181832 1_555
Mg82 Mg83 3.184696 1_555
Mg83 Mg85 3.184681 1_555
Mg83 Mg86 3.184688 1_555
Mg84 Mg88 3.180516 1_555
Mg84 Mg87 3.180524 1_555
Mg84 Mg89 3.197168 1_555
Mg84 Mg90 3.197169 1_555
Mg85 Mg87 3.178387 1_555
Mg85 Mg91 3.181443 1_555
Mg85 Mg93 3.182696 1_555
Mg85 Mg86 3.187544 1_555
Mg86 Mg88 3.178379 1_655
Mg86 Mg91 3.181444 1_555
Mg86 Mg92 3.182695 1_655
Mg87 Mg89 3.180533 1_555
Mg87 Mg93 3.186104 1_555
Mg88 Mg90 3.180516 1_555
Mg88 Mg92 3.186090 1_555
Mg89 Mg95 3.172800 1_555
Mg89 Mg93 3.172808 1_555
Mg89 Mg94 3.180517 1_555
Mg89 Mg90 3.197168 1_555
Mg90 Mg92 3.172792 1_555
Mg90 Mg96 3.172793 1_555
Mg90 Mg94 3.180516 1_555
Mg91 Mg97 3.180321 1_655
Mg91 Mg98 3.180322 1_555
Mg91 Mg92 3.181280 1_655
Mg91 Mg93 3.181280 1_555
Mg92 Mg96 3.170576 1_555
Mg92 Mg97 3.183183 1_555
Mg93 Mg95 3.170577 1_555
Mg93 Mg98 3.183182 1_555
Mg94 Mg96 3.186088 1_555
Mg94 Mg95 3.186104 1_555
Mg95 Mg98 3.183182 1_555
Mg96 Mg99 3.180107 1_555
Mg96 Mg97 3.183182 1_555
Mg97 Mg98 3.166782 1_455
Mg97 Mg99 3.178410 1_555
Mg100 Mg103 3.170438 1_555
Mg100 Mg123 3.175623 1_665
Mg100 Mg98 3.178410 1_555
Mg100 Mg122 3.178592 1_555
Mg100 Mg95 3.180107 1_555
Mg100 Mg102 3.180310 1_665
Mg100 Mg76 3.181090 1_565
Mg100 Mg111 3.182261 1_565
Mg100 Mg125 3.183082 1_565
Mg100 Mg106 3.187570 1_555
Mg100 Mg144 3.190608 1_555
Mg100 Mg148 3.215209 1_555
Mg101 Mg102 3.170437 1_555
Mg101 Mg123 3.175623 1_555
Mg101 Mg74 3.178410 1_555
Mg101 Mg120 3.178609 1_555
Mg101 Mg80 3.180107 1_555
Mg101 Mg99 3.180311 1_545
Mg101 Mg75 3.181090 1_555
Mg101 Mg112 3.182259 1_555
Mg101 Mg124 3.183074 1_555
Mg101 Mg108 3.187578 1_555
Mg101 Mg140 3.190608 1_555
Mg101 Mg146 3.215209 1_555
Mg102 Mg123 3.175624 1_555
Mg102 Mg74 3.178410 1_555
Mg102 Mg120 3.178600 1_555
Mg102 Mg79 3.180107 1_555
Mg102 Mg76 3.181090 1_455
Mg102 Mg111 3.182259 1_455
Mg102 Mg125 3.183082 1_455
Mg102 Mg107 3.187587 1_555
Mg102 Mg141 3.190608 1_555
Mg102 Mg146 3.215217 1_555
Mg103 Mg123 3.175623 1_665
Mg103 Mg98 3.178410 1_555
Mg103 Mg122 3.178592 1_555
Mg103 Mg93 3.180107 1_555
Mg103 Mg104 3.180310 1_655
Mg103 Mg91 3.181090 1_555
Mg103 Mg113 3.182260 1_555
Mg103 Mg126 3.183082 1_555
Mg103 Mg110 3.187570 1_555
Mg103 Mg142 3.190608 1_555
Mg103 Mg148 3.215217 1_555
Mg104 Mg99 3.170437 1_555
Mg104 Mg123 3.175624 1_565
Mg104 Mg97 3.178410 1_555
Mg104 Mg121 3.178592 1_555
Mg104 Mg92 3.180107 1_555
Mg104 Mg91 3.181090 1_455
Mg104 Mg113 3.182259 1_455
Mg104 Mg126 3.183082 1_455
Mg104 Mg109 3.187571 1_555
Mg104 Mg143 3.190608 1_555
Mg104 Mg147 3.215209 1_555
Mg105 Mg121 3.178825 1_555
Mg105 Mg106 3.179441 1_555
Mg105 Mg119 3.182593 1_555
Mg105 Mg112 3.184167 1_565
Mg105 Mg94 3.184324 1_555
Mg105 Mg77 3.184948 1_565
Mg105 Mg129 3.187136 1_555
Mg105 Mg99 3.187578 1_555
Mg105 Mg114 3.188347 1_565
Mg105 Mg96 3.188380 1_555
Mg105 Mg130 3.191274 1_565
Mg105 Mg145 3.200379 1_555
Mg106 Mg122 3.178834 1_555
Mg106 Mg119 3.182600 1_555
Mg106 Mg111 3.184150 1_565
Mg106 Mg94 3.184339 1_555
Mg106 Mg78 3.184940 1_565
Mg106 Mg129 3.187144 1_555
Mg106 Mg114 3.188341 1_565
Mg106 Mg95 3.188380 1_555
Mg106 Mg131 3.191274 1_565
Mg106 Mg144 3.200379 1_555
Mg107 Mg120 3.178833 1_555
Mg107 Mg109 3.179434 1_555
Mg107 Mg118 3.182584 1_555
Mg107 Mg111 3.184158 1_455
Mg107 Mg88 3.184332 1_555
Mg107 Mg82 3.184940 1_455
Mg107 Mg127 3.187136 1_555
Mg107 Mg115 3.188347 1_455
Mg107 Mg79 3.188388 1_555
Mg107 Mg132 3.191274 1_455
Mg107 Mg141 3.200387 1_555
Mg108 Mg120 3.178833 1_555
Mg108 Mg110 3.179441 1_555
Mg108 Mg117 3.182577 1_555
Mg108 Mg112 3.184167 1_555
Mg108 Mg87 3.184324 1_555
Mg108 Mg81 3.184948 1_555
Mg108 Mg128 3.187144 1_555
Mg108 Mg116 3.188347 1_555
Mg108 Mg80 3.188380 1_555
Mg108 Mg133 3.191274 1_555
Mg108 Mg140 3.200379 1_555
Mg109 Mg121 3.178833 1_555
Mg109 Mg118 3.182592 1_555
Mg109 Mg113 3.184150 1_455
Mg109 Mg88 3.184332 1_555
Mg109 Mg86 3.184940 1_455
Mg109 Mg127 3.187144 1_555
Mg109 Mg115 3.188347 1_455
Mg109 Mg92 3.188380 1_555
Mg109 Mg135 3.191274 1_455
Mg109 Mg143 3.200379 1_555
Mg110 Mg122 3.178834 1_555
Mg110 Mg117 3.182591 1_555
Mg110 Mg113 3.184150 1_555
Mg110 Mg87 3.184339 1_555
Mg110 Mg85 3.184940 1_555
Mg110 Mg128 3.187144 1_555
Mg110 Mg116 3.188340 1_555
Mg110 Mg93 3.188380 1_555
Mg110 Mg134 3.191274 1_555
Mg110 Mg142 3.200379 1_555
Mg111 Mg125 3.164371 1_555
Mg111 Mg132 3.180429 1_555
Mg111 Mg131 3.180437 1_555
Mg111 Mg114 3.185222 1_555
Mg111 Mg115 3.185231 1_555
Mg111 Mg76 3.188635 1_555
Mg111 Mg82 3.193214 1_555
Mg111 Mg78 3.193222 1_555
Mg112 Mg124 3.164379 1_555
Mg112 Mg133 3.180437 1_555
Mg112 Mg130 3.180437 1_555
Mg112 Mg99 3.182259 1_545
Mg112 Mg114 3.185222 1_555
Mg112 Mg116 3.185222 1_555
Mg112 Mg75 3.188635 1_555
Mg112 Mg81 3.193214 1_555
Mg112 Mg77 3.193214 1_555
Mg113 Mg126 3.164371 1_555
Mg113 Mg134 3.180437 1_555
Mg113 Mg135 3.180437 1_555
Mg113 Mg115 3.185215 1_555
Mg113 Mg116 3.185222 1_555
Mg113 Mg91 3.188635 1_555
Mg113 Mg85 3.193222 1_555
Mg113 Mg86 3.193222 1_555
Mg114 Mg115 3.171067 1_555
Mg114 Mg116 3.171076 1_555
Mg114 Mg136 3.180239 1_555
Mg114 Mg131 3.183696 1_555
Mg114 Mg130 3.183704 1_555
Mg114 Mg83 3.187795 1_555
Mg114 Mg78 3.194112 1_555
Mg114 Mg77 3.194120 1_555
Mg115 Mg116 3.171059 1_555
Mg115 Mg136 3.180239 1_555
Mg115 Mg135 3.183696 1_555
Mg115 Mg132 3.183712 1_555
Mg115 Mg83 3.187794 1_555
Mg115 Mg86 3.194112 1_555
Mg115 Mg82 3.194128 1_555
Mg116 Mg136 3.180239 1_555
Mg116 Mg134 3.183696 1_555
Mg116 Mg133 3.183704 1_555
Mg116 Mg83 3.187795 1_555
Mg116 Mg85 3.194112 1_555
Mg116 Mg81 3.194120 1_555
Mg117 Mg119 3.171864 1_555
Mg117 Mg118 3.171879 1_555
Mg117 Mg128 3.181747 1_555
Mg117 Mg120 3.183995 1_555
Mg117 Mg122 3.184003 1_555
Mg117 Mg137 3.184404 1_555
Mg117 Mg139 3.184404 1_555
Mg117 Mg84 3.193605 1_555
Mg117 Mg89 3.193605 1_555
Mg117 Mg87 3.195110 1_555
Mg118 Mg119 3.171871 1_555
Mg118 Mg127 3.181754 1_555
Mg118 Mg120 3.183988 1_555
Mg118 Mg121 3.184004 1_555
Mg118 Mg138 3.184404 1_555
Mg118 Mg137 3.184412 1_555
Mg118 Mg84 3.193597 1_555
Mg118 Mg90 3.193605 1_555
Mg118 Mg88 3.195110 1_555
Mg119 Mg129 3.181763 1_555
Mg119 Mg122 3.183995 1_555
Mg119 Mg121 3.184011 1_555
Mg119 Mg139 3.184396 1_555
Mg119 Mg138 3.184404 1_555
Mg119 Mg89 3.193589 1_555
Mg119 Mg90 3.193605 1_555
Mg119 Mg94 3.195118 1_555
Mg120 Mg137 3.175449 1_555
Mg120 Mg141 3.184538 1_555
Mg120 Mg140 3.184547 1_555
Mg120 Mg84 3.193948 1_555
Mg120 Mg79 3.194572 1_555
Mg120 Mg80 3.194581 1_555
Mg121 Mg138 3.175465 1_555
Mg121 Mg99 3.178593 1_555
Mg121 Mg143 3.184538 1_555
Mg121 Mg145 3.184539 1_555
Mg121 Mg90 3.193948 1_555
Mg121 Mg92 3.194572 1_555
Mg121 Mg96 3.194573 1_555
Mg122 Mg139 3.175464 1_555
Mg122 Mg142 3.184539 1_555
Mg122 Mg144 3.184539 1_555
Mg122 Mg89 3.193956 1_555
Mg122 Mg93 3.194573 1_555
Mg122 Mg95 3.194573 1_555
Mg123 Mg148 3.155928 1_445
Mg123 Mg146 3.155929 1_555
Mg123 Mg147 3.155937 1_545
Mg123 Mg99 3.175623 1_545
Mg123 Mg98 3.207479 1_445
Mg123 Mg97 3.207479 1_545
Mg123 Mg74 3.207479 1_555
Mg124 Mg140 3.166552 1_555
Mg124 Mg145 3.166568 1_545
Mg124 Mg2 3.174081 1_556
Mg124 Mg133 3.174804 1_555
Mg124 Mg130 3.174812 1_555
Mg124 Mg5 3.180999 1_556
Mg124 Mg99 3.183082 1_545
Mg124 Mg146 3.184535 1_555
Mg124 Mg147 3.184551 1_545
Mg125 Mg141 3.166559 1_655
Mg125 Mg144 3.166559 1_545
Mg125 Mg3 3.174088 1_556
Mg125 Mg132 3.174789 1_555
Mg125 Mg131 3.174803 1_555
Mg125 Mg4 3.180992 1_556
Mg125 Mg148 3.184552 1_545
Mg125 Mg146 3.184567 1_655
Mg126 Mg142 3.166559 1_555
Mg126 Mg143 3.166559 1_655
Mg126 Mg20 3.174088 1_556
Mg126 Mg21 3.174089 1_556
Mg126 Mg134 3.174804 1_555
Mg126 Mg135 3.174805 1_555
Mg126 Mg16 3.180992 1_556
Mg126 Mg147 3.184559 1_655
Mg126 Mg148 3.184568 1_555
Mg127 Mg13 3.174020 1_556
Mg127 Mg138 3.178317 1_555
Mg127 Mg137 3.178325 1_555
Mg127 Mg15 3.180129 1_556
Mg127 Mg135 3.188828 1_455
Mg127 Mg132 3.188836 1_455
Mg127 Mg143 3.199173 1_555
Mg127 Mg141 3.199173 1_555
Mg128 Mg137 3.178302 1_555
Mg128 Mg139 3.178303 1_555
Mg128 Mg14 3.180113 1_556
Mg128 Mg134 3.188836 1_555
Mg128 Mg133 3.188837 1_555
Mg128 Mg142 3.199164 1_555
Mg128 Mg140 3.199180 1_555
Mg129 Mg22 3.174019 1_556
Mg129 Mg23 3.174020 1_556
Mg129 Mg138 3.178317 1_555
Mg129 Mg139 3.178318 1_555
Mg129 Mg17 3.180129 1_556
Mg129 Mg130 3.188821 1_565
Mg129 Mg131 3.188828 1_565
Mg129 Mg144 3.199172 1_555
Mg129 Mg145 3.199172 1_555
Mg130 Mg133 3.171082 1_555
Mg130 Mg5 3.175055 1_556
Mg130 Mg6 3.179113 1_556
Mg130 Mg136 3.179282 1_555
Mg130 Mg23 3.179744 1_546
Mg130 Mg145 3.186337 1_545
Mg130 Mg131 3.187481 1_555
Mg131 Mg132 3.171058 1_555
Mg131 Mg4 3.175055 1_556
Mg131 Mg6 3.179106 1_556
Mg131 Mg136 3.179275 1_555
Mg131 Mg22 3.179752 1_546
Mg131 Mg144 3.186354 1_545
Mg132 Mg4 3.175047 1_556
Mg132 Mg9 3.179106 1_556
Mg132 Mg136 3.179290 1_555
Mg132 Mg141 3.186345 1_655
Mg132 Mg135 3.187490 1_555
Mg133 Mg5 3.175055 1_556
Mg133 Mg8 3.179113 1_556
Mg133 Mg136 3.179282 1_555
Mg133 Mg140 3.186337 1_555
Mg133 Mg134 3.187481 1_555
Mg134 Mg135 3.171065 1_555
Mg134 Mg16 3.175055 1_556
Mg134 Mg8 3.179106 1_556
Mg134 Mg136 3.179275 1_555
Mg134 Mg142 3.186354 1_555
Mg135 Mg16 3.175055 1_556
Mg135 Mg9 3.179105 1_556
Mg135 Mg136 3.179282 1_555
Mg135 Mg143 3.186353 1_655
Mg136 Mg6 3.166745 1_556
Mg136 Mg8 3.166745 1_556
Mg136 Mg9 3.166760 1_556
Mg137 Mg14 3.171262 1_556
Mg137 Mg15 3.171262 1_556
Mg137 Mg7 3.181350 1_556
Mg137 Mg140 3.188205 1_555
Mg137 Mg141 3.188212 1_555
Mg137 Mg139 3.196048 1_555
Mg137 Mg138 3.196057 1_555
Mg138 Mg15 3.171255 1_556
Mg138 Mg17 3.171262 1_556
Mg138 Mg19 3.181358 1_556
Mg138 Mg143 3.188220 1_555
Mg138 Mg145 3.188221 1_555
Mg138 Mg139 3.196040 1_555
Mg139 Mg17 3.171246 1_556
Mg139 Mg14 3.171254 1_556
Mg139 Mg18 3.181358 1_556
Mg139 Mg142 3.188220 1_555
Mg139 Mg144 3.188220 1_555
Mg140 Mg7 3.165579 1_556
Mg140 Mg141 3.174157 1_555
Mg140 Mg2 3.179349 1_556
Mg140 Mg146 3.193490 1_555
Mg141 Mg7 3.165578 1_556
Mg141 Mg3 3.179341 1_456
Mg141 Mg146 3.193499 1_555
Mg142 Mg18 3.165579 1_556
Mg142 Mg144 3.174158 1_555
Mg142 Mg21 3.179348 1_556
Mg142 Mg148 3.193498 1_555
Mg143 Mg19 3.165578 1_556
Mg143 Mg145 3.174157 1_555
Mg143 Mg20 3.179349 1_456
Mg143 Mg147 3.193483 1_555
Mg144 Mg18 3.165579 1_556
Mg144 Mg22 3.176009 1_556
Mg144 Mg148 3.193490 1_555
Mg145 Mg19 3.165579 1_556
Mg145 Mg23 3.176009 1_556
Mg145 Mg99 3.190608 1_555
Mg145 Mg147 3.193482 1_555
Mg146 Mg148 3.120114 1_445
Mg146 Mg147 3.120123 1_545
Mg146 S0 3.139451 1_556
Mg146 Mg2 3.163834 1_556
Mg146 Mg3 3.163850 1_456
Mg147 Mg148 3.120130 1_455
Mg147 S0 3.139459 1_566
Mg147 Mg20 3.163834 1_456
Mg147 Mg99 3.215208 1_555
Mg148 S0 3.139451 1_666
Mg148 Mg21 3.163842 1_556
