# generated using pymatgen
data_NaCr2P2O9
_symmetry_space_group_name_H-M   'P 1'
_cell_length_a   6.40171700
_cell_length_b   7.67685500
_cell_length_c   13.98679800
_cell_angle_alpha   90.00000000
_cell_angle_beta   90.00000000
_cell_angle_gamma   90.00000000
_symmetry_Int_Tables_number   1
_chemical_formula_structural   NaCr2P2O9
_chemical_formula_sum   'Na4 Cr8 P8 O36'
_cell_volume   687.38193125
_cell_formula_units_Z   4
loop_
 _symmetry_equiv_pos_site_id
 _symmetry_equiv_pos_as_xyz
  1  'x, y, z'
loop_
 _atom_site_type_symbol
 _atom_site_label
 _atom_site_symmetry_multiplicity
 _atom_site_fract_x
 _atom_site_fract_y
 _atom_site_fract_z
 _atom_site_occupancy
  Na  Na0  1  0.75000000  0.85465500  0.77857500  1
  Na  Na1  1  0.75000000  0.64534500  0.27857500  1
  Na  Na2  1  0.25000100  0.35465400  0.72142500  1
  Na  Na3  1  0.25000100  0.14534500  0.22142500  1
  Cr  Cr0  1  0.75000000  0.34688500  0.88230900  1
  Cr  Cr1  1  0.25000100  0.65311500  0.11769100  1
  Cr  Cr2  1  0.25000100  0.84688500  0.61769100  1
  Cr  Cr3  1  0.75000000  0.15311500  0.38230900  1
  Cr  Cr4  1  0.50000000  0.00000000  0.00000000  1
  Cr  Cr5  1  0.50000000  0.50000000  0.50000000  1
  Cr  Cr6  1  0.00000000  0.50000000  0.50000000  1
  Cr  Cr7  1  0.00000000  0.00000000  0.00000000  1
  P  P0  1  0.25000100  0.34857500  0.93997100  1
  P  P1  1  0.75000000  0.65142500  0.06003000  1
  P  P2  1  0.75000000  0.84857500  0.56002900  1
  P  P3  1  0.25000100  0.15142600  0.43997100  1
  P  P4  1  0.75000000  0.39904000  0.69464900  1
  P  P5  1  0.75000000  0.10096000  0.19464900  1
  P  P6  1  0.25000100  0.89904000  0.80535100  1
  P  P7  1  0.25000100  0.60095900  0.30535100  1
  O  O0  1  0.05171500  0.58851600  0.36808000  1
  O  O1  1  0.55171400  0.41148300  0.63192000  1
  O  O2  1  0.94828500  0.08851600  0.13192000  1
  O  O3  1  0.44828500  0.91148400  0.86808000  1
  O  O4  1  0.94828500  0.41148300  0.63192000  1
  O  O5  1  0.44828500  0.58851600  0.36808000  1
  O  O6  1  0.05171500  0.91148400  0.86808000  1
  O  O7  1  0.55171400  0.08851600  0.13192000  1
  O  O8  1  0.25000100  0.33523000  0.49173200  1
  O  O9  1  0.75000000  0.66477100  0.50826800  1
  O  O10  1  0.75000000  0.83522900  0.00826700  1
  O  O11  1  0.25000100  0.16477100  0.99173200  1
  O  O12  1  0.75000000  0.14463900  0.95220600  1
  O  O13  1  0.25000100  0.85536100  0.04779300  1
  O  O14  1  0.25000100  0.64463900  0.54779300  1
  O  O15  1  0.75000000  0.35536200  0.45220700  1
  O  O16  1  0.75000000  0.22755300  0.75566400  1
  O  O17  1  0.25000100  0.77244700  0.24433700  1
  O  O18  1  0.25000100  0.72755300  0.74433600  1
  O  O19  1  0.75000000  0.27244800  0.25566300  1
  O  O20  1  0.44107300  0.14400700  0.37434500  1
  O  O21  1  0.94107300  0.85599300  0.62565500  1
  O  O22  1  0.55892700  0.64400600  0.12565500  1
  O  O23  1  0.05892700  0.35599300  0.87434500  1
  O  O24  1  0.55892700  0.85599300  0.62565500  1
  O  O25  1  0.05892700  0.14400700  0.37434500  1
  O  O26  1  0.44107300  0.35599300  0.87434500  1
  O  O27  1  0.94107300  0.64400600  0.12565500  1
  O  O28  1  0.75000000  0.51217800  0.98238500  1
  O  O29  1  0.25000100  0.03482600  0.72231200  1
  O  O30  1  0.25000100  0.46517300  0.22231200  1
  O  O31  1  0.75000000  0.53482600  0.77768800  1
  O  O32  1  0.75000000  0.98782200  0.48238500  1
  O  O33  1  0.25000100  0.01217900  0.51761500  1
  O  O34  1  0.25000100  0.48782000  0.01761400  1
  O  O35  1  0.75000000  0.96517400  0.27768800  1
loop_
_geom_bond_atom_site_label_1
_geom_bond_atom_site_label_2
_geom_bond_distance
_geom_bond_site_symmetry_2
Na0 O6 2.342696 1_655
Na0 O3 2.342696 1_555
Na0 O31 2.455312 1_555
Na0 O21 2.463948 1_555
Na0 O24 2.463948 1_555
Na0 O16 2.880564 1_565
Na1 O0 2.342696 1_655
Na1 O5 2.342696 1_555
Na1 O35 2.455312 1_555
Na1 O27 2.463948 1_555
Na1 O22 2.463948 1_555
Na1 O19 2.880558 1_555
Na2 O1 2.342685 1_555
Na2 O4 2.342701 1_455
Na2 O29 2.455305 1_555
Na2 O26 2.463945 1_555
Na2 O23 2.463951 1_555
Na2 O18 2.880571 1_555
Na3 O7 2.342685 1_555
Na3 O2 2.342701 1_455
Na3 O30 2.455305 1_555
Na3 O20 2.463945 1_555
Na3 O25 2.463951 1_555
Na3 O17 2.880565 1_545
Cr0 O12 1.834769 1_555
Cr0 O28 1.889303 1_555
Cr0 O23 1.982031 1_655
Cr0 O26 1.982031 1_555
Cr0 O16 1.994226 1_555
Cr0 O31 2.054980 1_555
Cr1 O13 1.834777 1_555
Cr1 O34 1.889323 1_555
Cr1 O22 1.982025 1_555
Cr1 O27 1.982038 1_455
Cr1 O17 1.994239 1_555
Cr1 O30 2.054986 1_555
Cr2 O14 1.834777 1_555
Cr2 O33 1.889308 1_565
Cr2 O24 1.982025 1_555
Cr2 O21 1.982038 1_455
Cr2 O18 1.994226 1_555
Cr2 O29 2.054980 1_565
Cr3 O15 1.834783 1_555
Cr3 O32 1.889303 1_545
Cr3 O25 1.982031 1_655
Cr3 O20 1.982031 1_555
Cr3 O19 1.994242 1_555
Cr3 O35 2.054980 1_545
Cr4 O7 1.993963 1_555
Cr4 O3 1.993964 1_544
Cr4 O11 2.043222 1_554
Cr4 O10 2.043226 1_545
Cr4 O13 2.059401 1_545
Cr4 O12 2.059411 1_554
Cr5 O5 1.993964 1_555
Cr5 O1 1.993966 1_555
Cr5 O8 2.043217 1_555
Cr5 O9 2.043227 1_555
Cr5 O14 2.059401 1_555
Cr5 O15 2.059402 1_555
Cr6 O0 1.993964 1_555
Cr6 O4 1.993967 1_455
Cr6 O9 2.043227 1_455
Cr6 O8 2.043227 1_555
Cr6 O15 2.059402 1_455
Cr6 O14 2.059411 1_555
Cr7 O6 1.993964 1_544
Cr7 O2 1.993964 1_455
Cr7 O10 2.043226 1_445
Cr7 O11 2.043232 1_554
Cr7 O12 2.059411 1_454
Cr7 O13 2.059411 1_545
O0 P7 1.546033 1_555
O1 P4 1.546033 1_555
O2 P5 1.546029 1_555
O3 P6 1.546023 1_555
O4 P4 1.546028 1_555
O5 P7 1.546023 1_555
O6 P6 1.546034 1_555
O7 P5 1.546034 1_555
O8 P3 1.585925 1_555
O9 P2 1.585925 1_555
O10 P1 1.585938 1_555
O11 P0 1.585925 1_555
O16 P4 1.568892 1_555
O17 P7 1.568890 1_555
O18 P6 1.568892 1_555
O19 P5 1.568890 1_555
O20 P3 1.530350 1_555
O21 P2 1.530355 1_555
O22 P1 1.530347 1_555
O23 P0 1.530360 1_555
O24 P2 1.530355 1_555
O25 P3 1.530360 1_555
O26 P0 1.530350 1_555
O27 P1 1.530347 1_555
O28 P1 1.523851 1_556
O29 P6 1.560635 1_545
O30 P7 1.560635 1_555
O31 P4 1.560635 1_555
O32 P2 1.523841 1_555
O33 P3 1.523841 1_555
O34 P0 1.523821 1_554
O35 P5 1.560635 1_565
