# generated using pymatgen
data_Li32Ti13Cr3O48
_symmetry_space_group_name_H-M   'P 1'
_cell_length_a   5.08741900
_cell_length_b   8.84599812
_cell_length_c   19.65084639
_cell_angle_alpha   98.52103829
_cell_angle_beta   94.63013883
_cell_angle_gamma   90.10939060
_symmetry_Int_Tables_number   1
_chemical_formula_structural   Li32Ti13Cr3O48
_chemical_formula_sum   'Li32 Ti13 Cr3 O48'
_cell_volume   871.65052195
_cell_formula_units_Z   1
loop_
 _symmetry_equiv_pos_site_id
 _symmetry_equiv_pos_as_xyz
  1  'x, y, z'
loop_
 _atom_site_type_symbol
 _atom_site_label
 _atom_site_symmetry_multiplicity
 _atom_site_fract_x
 _atom_site_fract_y
 _atom_site_fract_z
 _atom_site_occupancy
  Li  Li0  1  0.98756300  0.16869800  0.24950500  1
  Li  Li1  1  0.87388800  0.37571700  0.37518100  1
  Li  Li2  1  0.75143900  0.24945300  0.99944100  1
  Li  Li3  1  0.74205700  0.92073300  0.99987000  1
  Li  Li4  1  0.98862900  0.16986700  0.75005100  1
  Li  Li5  1  0.75602900  0.57819000  0.49917800  1
  Li  Li6  1  0.87412500  0.37296900  0.87468700  1
  Li  Li7  1  0.75564800  0.24987300  0.50016900  1
  Li  Li8  1  0.73851300  0.92049900  0.50004900  1
  Li  Li9  1  0.62478500  0.12498400  0.12493700  1
  Li  Li10  1  0.75910100  0.57950700  0.99989500  1
  Li  Li11  1  0.51008300  0.33176900  0.25054100  1
  Li  Li12  1  0.62384600  0.12556100  0.62527700  1
  Li  Li13  1  0.49915900  0.00034400  0.25022000  1
  Li  Li14  1  0.48773300  0.66885100  0.25050800  1
  Li  Li15  1  0.50742800  0.32880900  0.74937500  1
  Li  Li16  1  0.37424200  0.87376400  0.37492200  1
  Li  Li17  1  0.50615900  0.99976600  0.75017800  1
  Li  Li18  1  0.25179900  0.75016800  0.00020800  1
  Li  Li19  1  0.48792200  0.66982600  0.74968800  1
  Li  Li20  1  0.24085500  0.42132500  0.00026500  1
  Li  Li21  1  0.37355500  0.87553700  0.87520200  1
  Li  Li22  1  0.26031500  0.08132200  0.50050600  1
  Li  Li23  1  0.25117700  0.74956200  0.49980600  1
  Li  Li24  1  0.12508900  0.62499900  0.12504000  1
  Li  Li25  1  0.24069800  0.42027800  0.50031600  1
  Li  Li26  1  0.01106800  0.83068200  0.24994000  1
  Li  Li27  1  0.25557600  0.07798400  0.99921400  1
  Li  Li28  1  0.12434600  0.62352600  0.62478300  1
  Li  Li29  1  0.00434200  0.49945600  0.24999500  1
  Li  Li30  1  0.01051100  0.83165600  0.75053300  1
  Li  Li31  1  0.99976100  0.49961300  0.74974200  1
  Ti  Ti0  1  0.87185800  0.70858900  0.37334500  1
  Ti  Ti1  1  0.87951800  0.04130100  0.37453000  1
  Ti  Ti2  1  0.88081700  0.71087600  0.87713600  1
  Ti  Ti3  1  0.62621400  0.79086100  0.12519000  1
  Ti  Ti4  1  0.62451700  0.45902100  0.12512700  1
  Ti  Ti5  1  0.63066700  0.79049900  0.62443000  1
  Ti  Ti6  1  0.62253800  0.45779200  0.62332400  1
  Ti  Ti7  1  0.37989500  0.21145200  0.37718600  1
  Ti  Ti8  1  0.38052900  0.54069000  0.87424100  1
  Ti  Ti9  1  0.37130500  0.20792700  0.87318900  1
  Ti  Ti10  1  0.12420900  0.95895000  0.12501500  1
  Ti  Ti11  1  0.12653900  0.29056300  0.12483800  1
  Ti  Ti12  1  0.13084900  0.96105900  0.62714500  1
  Cr  Cr0  1  0.87072000  0.03996400  0.87496900  1
  Cr  Cr1  1  0.37101700  0.54024000  0.37519300  1
  Cr  Cr2  1  0.12157800  0.29024900  0.62516800  1
  O  O0  1  0.96283800  0.10603800  0.06858000  1
  O  O1  1  0.92868000  0.78449000  0.06846800  1
  O  O2  1  0.92813400  0.42713000  0.06720200  1
  O  O3  1  0.96514000  0.11249900  0.56958100  1
  O  O4  1  0.82150300  0.96551300  0.18173800  1
  O  O5  1  0.82200100  0.32295400  0.18267800  1
  O  O6  1  0.92709800  0.78579200  0.56810000  1
  O  O7  1  0.92486900  0.42885000  0.56728200  1
  O  O8  1  0.78683400  0.64370200  0.18152200  1
  O  O9  1  0.71311100  0.85583200  0.31826600  1
  O  O10  1  0.82148300  0.96575300  0.68157000  1
  O  O11  1  0.83063300  0.32093700  0.68195800  1
  O  O12  1  0.67400400  0.53314800  0.31951600  1
  O  O13  1  0.67758300  0.17731700  0.31735700  1
  O  O14  1  0.78350200  0.64351400  0.68170900  1
  O  O15  1  0.71498300  0.86245800  0.81947800  1
  O  O16  1  0.46294700  0.60612200  0.06851800  1
  O  O17  1  0.56836700  0.71223700  0.43069900  1
  O  O18  1  0.57114300  0.07361000  0.43293800  1
  O  O19  1  0.67664100  0.53586500  0.81791400  1
  O  O20  1  0.67454700  0.17868300  0.81716100  1
  O  O21  1  0.42824700  0.92736000  0.06750300  1
  O  O22  1  0.42825300  0.28433800  0.06813400  1
  O  O23  1  0.54074700  0.39248700  0.43195900  1
  O  O24  1  0.46321000  0.60566600  0.56833200  1
  O  O25  1  0.57120800  0.71569500  0.93149000  1
  O  O26  1  0.58081100  0.07089500  0.93186400  1
  O  O27  1  0.32181600  0.82281100  0.18267600  1
  O  O28  1  0.32162900  0.46543500  0.18157400  1
  O  O29  1  0.42768600  0.92730100  0.56714700  1
  O  O30  1  0.42408600  0.28306400  0.56943900  1
  O  O31  1  0.53369100  0.39340800  0.93142800  1
  O  O32  1  0.28658400  0.14419600  0.18161000  1
  O  O33  1  0.21543900  0.36220800  0.31960400  1
  O  O34  1  0.32126900  0.82378100  0.68286100  1
  O  O35  1  0.31807300  0.46224600  0.68053500  1
  O  O36  1  0.17465700  0.67867100  0.31727600  1
  O  O37  1  0.17718400  0.03603400  0.31838000  1
  O  O38  1  0.29031100  0.14247100  0.68184300  1
  O  O39  1  0.21275400  0.35567900  0.81819900  1
  O  O40  1  0.08090600  0.57096000  0.43184300  1
  O  O41  1  0.07127900  0.21581900  0.43177500  1
  O  O42  1  0.17731500  0.67719000  0.81706300  1
  O  O43  1  0.17386200  0.03302900  0.81936600  1
  O  O44  1  0.03339800  0.89349200  0.43174700  1
  O  O45  1  0.07057000  0.57343800  0.93262700  1
  O  O46  1  0.06805600  0.21216000  0.93047500  1
  O  O47  1  0.04070300  0.89240100  0.93177000  1
loop_
_geom_bond_atom_site_label_1
_geom_bond_atom_site_label_2
_geom_bond_distance
_geom_bond_site_symmetry_2
Li0 O32 2.093915 1_655
Li0 O37 2.098542 1_655
Li0 O13 2.140178 1_555
Li0 O5 2.157033 1_555
Li0 O4 2.195655 1_545
Li0 O33 2.282003 1_655
Li1 O23 2.096787 1_555
Li1 O12 2.108863 1_555
Li1 O33 2.120102 1_655
Li1 O41 2.130076 1_655
Li1 O40 2.136765 1_655
Li1 O13 2.141922 1_555
Li2 O26 2.049128 1_555
Li2 O2 2.057329 1_556
Li2 O46 2.182209 1_655
Li2 O22 2.203983 1_556
Li2 O0 2.211813 1_556
Li2 O31 2.214897 1_555
Li3 O47 2.095795 1_655
Li3 O1 2.109563 1_556
Li3 O26 2.139283 1_565
Li3 O21 2.153690 1_556
Li3 O0 2.205423 1_566
Li3 O25 2.221258 1_555
Li4 O38 2.109050 1_655
Li4 O43 2.119981 1_655
Li4 O11 2.140747 1_555
Li4 O20 2.146767 1_555
Li4 O10 2.209867 1_545
Li4 O39 2.211154 1_655
Li5 O24 2.086935 1_555
Li5 O17 2.097179 1_555
Li5 O7 2.148660 1_555
Li5 O23 2.181608 1_555
Li5 O40 2.194316 1_655
Li5 O6 2.242947 1_555
Li6 O39 2.117278 1_655
Li6 O46 2.119354 1_655
Li6 O20 2.120106 1_555
Li6 O31 2.128084 1_555
Li6 O19 2.152076 1_555
Li6 O45 2.156637 1_655
Li7 O7 2.044454 1_555
Li7 O18 2.059470 1_555
Li7 O41 2.169284 1_655
Li7 O3 2.175907 1_555
Li7 O23 2.203009 1_555
Li7 O30 2.244668 1_555
Li8 O44 2.083409 1_655
Li8 O6 2.097176 1_555
Li8 O29 2.134514 1_555
Li8 O18 2.156645 1_565
Li8 O17 2.249426 1_555
Li8 O3 2.265253 1_565
Li9 O0 2.113274 1_555
Li9 O32 2.117521 1_555
Li9 O22 2.127026 1_555
Li9 O4 2.128176 1_545
Li9 O21 2.134505 1_545
Li9 O5 2.140466 1_555
Li10 O16 2.092651 1_556
Li10 O25 2.109228 1_555
Li10 O45 2.139758 1_655
Li10 O2 2.157524 1_556
Li10 O31 2.218703 1_555
Li10 O1 2.220431 1_556
Li11 O33 2.093553 1_555
Li11 O28 2.103200 1_555
Li11 O5 2.147999 1_555
Li11 O13 2.161538 1_555
Li11 O12 2.191412 1_555
Li11 O32 2.226863 1_555
Li12 O38 2.096046 1_555
Li12 O30 2.111021 1_555
Li12 O3 2.120395 1_555
Li12 O10 2.126585 1_545
Li12 O11 2.137232 1_555
Li12 O29 2.142938 1_545
Li13 O13 2.050481 1_555
Li13 O27 2.055622 1_545
Li13 O37 2.192637 1_555
Li13 O4 2.197847 1_545
Li13 O9 2.209941 1_545
Li13 O32 2.210179 1_555
Li14 O8 2.108936 1_555
Li14 O12 2.111219 1_555
Li14 O36 2.137756 1_555
Li14 O27 2.169063 1_555
Li14 O28 2.207716 1_555
Li14 O9 2.217436 1_555
Li15 O39 2.089602 1_555
Li15 O35 2.102006 1_555
Li15 O20 2.146284 1_555
Li15 O11 2.188238 1_555
Li15 O38 2.192339 1_555
Li15 O19 2.232853 1_555
Li16 O9 2.120220 1_555
Li16 O17 2.124408 1_555
Li16 O36 2.126224 1_555
Li16 O44 2.130777 1_555
Li16 O37 2.144382 1_565
Li16 O18 2.154072 1_565
Li17 O20 2.041271 1_565
Li17 O34 2.059468 1_555
Li17 O10 2.170806 1_555
Li17 O15 2.172556 1_555
Li17 O38 2.207310 1_565
Li17 O43 2.246648 1_565
Li18 O21 2.049424 1_555
Li18 O45 2.058965 1_554
Li18 O25 2.188864 1_554
Li18 O47 2.195102 1_554
Li18 O1 2.197923 1_455
Li18 O16 2.204265 1_555
Li19 O14 2.081680 1_555
Li19 O19 2.095440 1_555
Li19 O42 2.136996 1_555
Li19 O34 2.157016 1_555
Li19 O35 2.242771 1_555
Li19 O15 2.272240 1_555
Li20 O31 2.082787 1_554
Li20 O22 2.105736 1_555
Li20 O2 2.140580 1_455
Li20 O45 2.162475 1_554
Li20 O16 2.201442 1_555
Li20 O46 2.263696 1_554
Li21 O47 2.093110 1_555
Li21 O43 2.110776 1_565
Li21 O15 2.121294 1_555
Li21 O25 2.126787 1_555
Li21 O26 2.138052 1_565
Li21 O42 2.143744 1_555
Li22 O3 2.096024 1_455
Li22 O41 2.106052 1_555
Li22 O18 2.140261 1_555
Li22 O29 2.156254 1_545
Li22 O30 2.193091 1_555
Li22 O44 2.234867 1_545
Li23 O40 2.052521 1_555
Li23 O29 2.053229 1_555
Li23 O17 2.186348 1_555
Li23 O6 2.203145 1_455
Li23 O24 2.208141 1_555
Li23 O44 2.215407 1_555
Li24 O16 2.114299 1_555
Li24 O8 2.115569 1_455
Li24 O1 2.125004 1_455
Li24 O28 2.125334 1_555
Li24 O27 2.137612 1_555
Li24 O2 2.139951 1_455
Li25 O23 2.104651 1_555
Li25 O30 2.115916 1_555
Li25 O40 2.146420 1_555
Li25 O7 2.152059 1_455
Li25 O24 2.203716 1_555
Li25 O41 2.216506 1_555
Li26 O9 2.095552 1_455
Li26 O4 2.101968 1_455
Li26 O27 2.135828 1_555
Li26 O36 2.146037 1_555
Li26 O37 2.215726 1_565
Li26 O8 2.220570 1_455
Li27 O0 2.089616 1_456
Li27 O46 2.101163 1_555
Li27 O21 2.166064 1_546
Li27 O47 2.181976 1_545
Li27 O26 2.196044 1_555
Li27 O22 2.237684 1_556
Li28 O24 2.117867 1_555
Li28 O35 2.121626 1_555
Li28 O7 2.122221 1_455
Li28 O14 2.131938 1_455
Li28 O6 2.146375 1_455
Li28 O34 2.157253 1_555
Li29 O36 2.049569 1_555
Li29 O5 2.057299 1_455
Li29 O28 2.176285 1_555
Li29 O33 2.181380 1_555
Li29 O8 2.221927 1_455
Li29 O12 2.243080 1_455
Li30 O15 2.095534 1_455
Li30 O10 2.106841 1_455
Li30 O34 2.141276 1_555
Li30 O42 2.156644 1_555
Li30 O43 2.189117 1_565
Li30 O14 2.237465 1_455
Li31 O11 2.049061 1_555
Li31 O42 2.054122 1_655
Li31 O35 2.192166 1_655
Li31 O19 2.197711 1_555
Li31 O39 2.209632 1_655
Li31 O14 2.211416 1_555
Cr0 O15 1.905452 1_545
Cr0 O26 1.917621 1_555
Cr0 O43 1.956681 1_655
Cr0 O46 1.960325 1_655
Cr0 O47 1.994462 1_645
Cr0 O20 2.006740 1_555
Cr1 O33 1.909395 1_555
Cr1 O40 1.915353 1_555
Cr1 O12 1.956853 1_555
Cr1 O17 1.959137 1_555
Cr1 O23 1.994775 1_555
Cr1 O36 2.006720 1_555
Cr2 O3 1.909145 1_455
Cr2 O11 1.920519 1_455
Cr2 O30 1.955416 1_555
Cr2 O35 1.956020 1_555
Cr2 O38 1.991859 1_555
Cr2 O7 2.008195 1_455
O0 Ti10 1.970157 1_645
O0 Ti11 1.972708 1_655
O1 Ti3 1.967747 1_555
O1 Ti10 1.978241 1_655
O2 Ti4 1.987835 1_555
O2 Ti11 1.996648 1_655
O3 Ti12 2.020972 1_645
O4 Ti10 1.968680 1_655
O4 Ti3 1.978876 1_555
O5 Ti4 1.990409 1_555
O5 Ti11 1.990935 1_655
O6 Ti5 1.938399 1_555
O6 Ti12 2.022646 1_655
O7 Ti6 1.958435 1_555
O8 Ti3 1.967936 1_555
O8 Ti4 1.972194 1_555
O9 Ti0 1.949596 1_555
O9 Ti1 1.984165 1_565
O10 Ti12 1.970146 1_655
O10 Ti5 1.977119 1_555
O11 Ti6 2.033540 1_555
O12 Ti0 1.968828 1_555
O13 Ti7 1.987720 1_555
O13 Ti1 1.996073 1_555
O14 Ti5 1.964271 1_555
O14 Ti6 1.992640 1_555
O15 Ti2 2.023301 1_555
O16 Ti4 1.972766 1_555
O16 Ti3 1.976586 1_555
O17 Ti0 1.981298 1_555
O18 Ti7 1.965214 1_555
O18 Ti1 2.013827 1_555
O19 Ti8 1.936961 1_555
O19 Ti2 2.023571 1_555
O20 Ti9 1.962254 1_555
O21 Ti10 1.984471 1_555
O21 Ti3 1.995825 1_555
O22 Ti11 1.964430 1_555
O22 Ti4 1.984884 1_555
O23 Ti7 1.932546 1_555
O24 Ti6 1.953829 1_555
O24 Ti5 1.980721 1_555
O25 Ti2 1.970282 1_555
O25 Ti8 1.976155 1_555
O26 Ti9 2.038523 1_555
O27 Ti3 1.985859 1_555
O27 Ti10 1.992470 1_555
O28 Ti4 1.966132 1_555
O28 Ti11 1.981271 1_555
O29 Ti12 1.986098 1_555
O29 Ti5 2.004677 1_555
O30 Ti6 1.966213 1_555
O31 Ti8 1.965666 1_555
O31 Ti9 1.992502 1_555
O32 Ti11 1.967077 1_555
O32 Ti10 1.977618 1_545
O33 Ti7 2.014305 1_555
O34 Ti12 1.959372 1_555
O34 Ti5 2.018925 1_555
O35 Ti6 1.983165 1_555
O36 Ti0 1.961176 1_455
O37 Ti1 1.941060 1_455
O37 Ti7 2.019139 1_555
O38 Ti12 1.931793 1_545
O39 Ti9 1.951528 1_555
O39 Ti8 1.982072 1_555
O40 Ti0 2.038879 1_455
O41 Ti7 1.969053 1_555
O41 Ti1 1.975568 1_455
O42 Ti2 1.985596 1_455
O42 Ti8 2.002142 1_555
O43 Ti9 1.964411 1_555
O44 Ti1 1.970817 1_465
O44 Ti0 1.988506 1_455
O45 Ti2 1.956143 1_455
O45 Ti8 2.020451 1_555
O46 Ti9 1.979103 1_555
O47 Ti2 1.932845 1_455
