# generated using pymatgen
data_Sr2Pr2MgFe2(RuO6)2
_symmetry_space_group_name_H-M   'P 1'
_cell_length_a   6.11700085
_cell_length_b   5.64985733
_cell_length_c   7.86757310
_cell_angle_alpha   92.86440397
_cell_angle_beta   88.07866784
_cell_angle_gamma   95.63054656
_symmetry_Int_Tables_number   1
_chemical_formula_structural   Sr2Pr2MgFe2(RuO6)2
_chemical_formula_sum   'Sr2 Pr2 Mg1 Fe2 Ru2 O12'
_cell_volume   270.14270604
_cell_formula_units_Z   1
loop_
 _symmetry_equiv_pos_site_id
 _symmetry_equiv_pos_as_xyz
  1  'x, y, z'
loop_
 _atom_site_type_symbol
 _atom_site_label
 _atom_site_symmetry_multiplicity
 _atom_site_fract_x
 _atom_site_fract_y
 _atom_site_fract_z
 _atom_site_occupancy
  Sr  Sr0  1  0.55203300  0.51031800  0.75469900  1
  Sr  Sr1  1  0.88293700  0.08855000  0.20993600  1
  Pr  Pr0  1  0.08858400  0.99439700  0.75170200  1
  Pr  Pr1  1  0.43079800  0.43617600  0.25412600  1
  Mg  Mg0  1  0.20486300  0.86802200  0.35111200  1
  Fe  Fe0  1  0.97542300  0.55047300  0.99115200  1
  Fe  Fe1  1  0.58168500  0.96929800  0.52388400  1
  Ru  Ru0  1  0.99418900  0.48245300  0.50706800  1
  Ru  Ru1  1  0.49561700  0.99294900  0.99618300  1
  O  O0  1  0.97680900  0.39373600  0.75426200  1
  O  O1  1  0.48672000  0.07309100  0.74882700  1
  O  O2  1  0.04022700  0.58053700  0.24834800  1
  O  O3  1  0.50577700  0.88489600  0.25590300  1
  O  O4  1  0.17910800  0.18771000  0.44656000  1
  O  O5  1  0.69307800  0.32818100  0.04016900  1
  O  O6  1  0.79717800  0.81841400  0.94668900  1
  O  O7  1  0.30697500  0.69520800  0.53934900  1
  O  O8  1  0.82863400  0.79367900  0.54689000  1
  O  O9  1  0.27300900  0.70438600  0.94652500  1
  O  O10  1  0.22963000  0.17224100  0.04746100  1
  O  O11  1  0.69101100  0.29671600  0.45582700  1
loop_
_geom_bond_atom_site_label_1
_geom_bond_atom_site_label_2
_geom_bond_distance
_geom_bond_site_symmetry_2
Mg0 O4 1.939951 1_565
Mg0 O3 1.959229 1_555
Mg0 O7 1.965437 1_555
Mg0 O2 1.976978 1_555
Fe0 O9 1.967261 1_655
Fe0 O6 2.001310 1_555
Fe0 O0 2.023186 1_555
Fe0 O2 2.070458 1_656
Fe0 O5 2.070520 1_556
Fe1 O8 1.905134 1_555
Fe1 O1 1.925500 1_565
Fe1 O11 1.997037 1_565
Fe1 O7 2.175113 1_555
Fe1 O3 2.193146 1_555
O0 Ru0 2.029276 1_555
O0 Pr0 2.419836 1_645
O0 Sr0 2.742320 1_555
O1 Ru1 2.023675 1_545
O1 Pr0 2.431911 1_545
O1 Sr0 2.461738 1_555
O2 Ru0 2.138535 1_455
O2 Pr1 2.601647 1_555
O2 Sr1 2.855571 1_455
O2 Sr1 3.146932 1_465
O3 Ru1 2.166226 1_554
O3 Sr1 2.498421 1_565
O3 Pr1 2.531113 1_555
O4 Ru0 2.129198 1_455
O4 Pr1 2.503030 1_555
O4 Sr1 2.642832 1_455
O4 Pr0 2.705040 1_545
O5 Ru1 2.163238 1_544
O5 Sr1 2.357759 1_555
O5 Pr1 2.384995 1_555
O5 Sr0 2.717127 1_554
O6 Ru1 2.190238 1_555
O6 Pr0 2.478042 1_655
O6 Sr1 2.548315 1_566
O6 Sr0 2.633852 1_555
O7 Ru0 2.172770 1_455
O7 Sr0 2.619791 1_555
O7 Pr0 2.728450 1_555
O7 Pr1 2.743431 1_555
O8 Ru0 2.118659 1_555
O8 Pr0 2.458931 1_655
O8 Sr0 2.764678 1_555
O9 Ru1 2.049692 1_555
O9 Sr0 2.534198 1_555
O9 Pr0 2.652646 1_555
O10 Ru1 2.018588 1_544
O10 Pr1 2.431745 1_555
O10 Sr1 2.457013 1_455
O10 Pr0 2.626655 1_544
O11 Ru0 2.080631 1_555
O11 Pr1 2.492609 1_555
O11 Sr1 2.528898 1_555
O11 Sr0 2.737128 1_555
