# generated using pymatgen
data_Li2V3CoO8
_symmetry_space_group_name_H-M   'P 1'
_cell_length_a   5.81564946
_cell_length_b   10.24384775
_cell_length_c   5.97644885
_cell_angle_alpha   89.47252224
_cell_angle_beta   120.12909418
_cell_angle_gamma   106.98398156
_symmetry_Int_Tables_number   1
_chemical_formula_structural   Li2V3CoO8
_chemical_formula_sum   'Li4 V6 Co2 O16'
_cell_volume   290.41905065
_cell_formula_units_Z   2
loop_
 _symmetry_equiv_pos_site_id
 _symmetry_equiv_pos_as_xyz
  1  'x, y, z'
loop_
 _atom_site_type_symbol
 _atom_site_label
 _atom_site_symmetry_multiplicity
 _atom_site_fract_x
 _atom_site_fract_y
 _atom_site_fract_z
 _atom_site_occupancy
  Li  Li0  1  0.62902300  0.43797800  0.31755500  1
  Li  Li1  1  0.62793100  0.94017800  0.81150500  1
  Li  Li2  1  0.37071700  0.06197500  0.18241200  1
  Li  Li3  1  0.37170800  0.56001800  0.68818500  1
  V  V0  1  0.99879800  0.50007700  0.00129000  1
  V  V1  1  0.00073300  0.25040000  0.25002000  1
  V  V2  1  0.99987200  0.24981100  0.74980700  1
  V  V3  1  0.00024800  0.00008600  0.49827700  1
  V  V4  1  0.00035700  0.74998900  0.75046700  1
  V  V5  1  0.99973000  0.75006800  0.25022900  1
  Co  Co0  1  0.50035600  0.75005900  0.25015300  1
  Co  Co1  1  0.49996600  0.24989900  0.75016000  1
  O  O0  1  0.78452900  0.12649900  0.37688000  1
  O  O1  1  0.78521000  0.62447900  0.90268400  1
  O  O2  1  0.21530200  0.37295900  0.12188800  1
  O  O3  1  0.21431000  0.87532900  0.59798100  1
  O  O4  1  0.75917300  0.86918700  0.15565100  1
  O  O5  1  0.76351700  0.37442900  0.66464100  1
  O  O6  1  0.76593100  0.64602000  0.37298600  1
  O  O7  1  0.76191300  0.14483600  0.88885300  1
  O  O8  1  0.75184500  0.86990100  0.59244000  1
  O  O9  1  0.74916800  0.36348100  0.09761100  1
  O  O10  1  0.24868400  0.63040600  0.90877500  1
  O  O11  1  0.24977200  0.13615500  0.40179400  1
  O  O12  1  0.23444700  0.85377000  0.12767200  1
  O  O13  1  0.23810900  0.35518900  0.61083500  1
  O  O14  1  0.24099000  0.63086900  0.34371300  1
  O  O15  1  0.23765900  0.12595200  0.83553500  1
loop_
_geom_bond_atom_site_label_1
_geom_bond_atom_site_label_2
_geom_bond_distance
_geom_bond_site_symmetry_2
Li0 O2 1.963091 1_555
Li0 O5 1.995559 1_555
Li0 O6 2.010570 1_555
Li0 O9 2.012580 1_555
Li1 O3 1.963799 1_555
Li1 O7 1.979390 1_565
Li1 O8 2.004813 1_555
Li1 O4 2.015560 1_556
Li2 O0 1.963735 1_555
Li2 O15 1.996703 1_554
Li2 O11 2.011869 1_555
Li2 O12 2.012240 1_545
Li3 O1 1.963535 1_555
Li3 O13 1.981123 1_555
Li3 O10 2.008885 1_555
Li3 O14 2.016600 1_555
Co0 O10 1.951231 1_554
Co0 O8 1.955669 1_555
Co0 O14 1.958785 1_555
Co0 O4 1.959956 1_555
Co0 O12 1.965977 1_555
Co0 O6 1.967029 1_555
Co1 O9 1.950458 1_556
Co1 O11 1.955117 1_555
Co1 O15 1.958951 1_555
Co1 O7 1.959556 1_555
Co1 O13 1.961082 1_555
Co1 O5 1.967215 1_555
O0 V1 1.942601 1_655
O0 V3 1.948133 1_655
O0 V2 2.111167 1_555
O1 V0 1.921011 1_556
O1 V5 2.008968 1_556
O1 V4 2.056093 1_655
O2 V1 1.935492 1_555
O2 V0 1.957050 1_455
O2 V2 2.106523 1_454
O3 V3 1.925843 1_565
O3 V5 2.008268 1_455
O3 V4 2.052019 1_555
O4 V5 1.989074 1_555
O4 V3 2.006709 1_665
O5 V0 1.957552 1_556
O5 V2 2.022102 1_555
O6 V5 1.914008 1_555
O6 V4 2.047145 1_655
O7 V1 1.978243 1_656
O7 V2 2.007666 1_555
O8 V3 1.964419 1_665
O8 V4 2.033497 1_655
O9 V1 1.986148 1_655
O9 V0 2.008563 1_555
O10 V0 1.964597 1_456
O10 V4 2.030246 1_555
O11 V1 1.985413 1_555
O11 V3 2.006175 1_555
O12 V5 1.915867 1_455
O12 V4 2.045301 1_554
O13 V1 1.973947 1_555
O13 V2 2.009897 1_455
O14 V5 1.993273 1_455
O14 V0 2.005327 1_455
O15 V3 1.960985 1_555
O15 V2 2.021511 1_455
