# generated using pymatgen
data_Nb6OsAu
_symmetry_space_group_name_H-M   'P 1'
_cell_length_a   5.20204423
_cell_length_b   5.20204423
_cell_length_c   5.20204423
_cell_angle_alpha   90.00000000
_cell_angle_beta   90.00000000
_cell_angle_gamma   90.00000000
_symmetry_Int_Tables_number   1
_chemical_formula_structural   Nb6OsAu
_chemical_formula_sum   'Nb6 Os1 Au1'
_cell_volume   140.77389314
_cell_formula_units_Z   1
loop_
 _symmetry_equiv_pos_site_id
 _symmetry_equiv_pos_as_xyz
  1  'x, y, z'
loop_
 _atom_site_type_symbol
 _atom_site_label
 _atom_site_symmetry_multiplicity
 _atom_site_fract_x
 _atom_site_fract_y
 _atom_site_fract_z
 _atom_site_occupancy
  Nb  Nb0  1  0.00000000  0.50000000  0.75499212  1
  Nb  Nb1  1  0.50000000  0.24500788  -0.00000000  1
  Nb  Nb2  1  0.75499212  -0.00000000  0.50000000  1
  Nb  Nb3  1  -0.00000000  0.50000000  0.24500788  1
  Nb  Nb4  1  0.50000000  0.75499212  0.00000000  1
  Nb  Nb5  1  0.24500788  0.00000000  0.50000000  1
  Os  Os0  1  0.00000000  -0.00000000  0.00000000  1
  Au  Au0  1  0.50000000  0.50000000  0.50000000  1
loop_
_geom_bond_atom_site_label_1
_geom_bond_atom_site_label_2
_geom_bond_distance
_geom_bond_site_symmetry_2
Nb0 Nb3 2.549084 1_556
Nb0 Nb3 2.652961 1_555
Nb0 Os0 2.896510 1_566
Nb0 Os0 2.896510 1_556
Nb1 Nb4 2.549084 1_545
Nb1 Nb4 2.652961 1_555
Nb1 Os0 2.896510 1_555
Nb1 Os0 2.896510 1_655
Nb2 Nb5 2.549084 1_655
Nb2 Nb5 2.652961 1_555
Nb2 Os0 2.896510 1_655
Nb2 Os0 2.896510 1_656
Nb3 Os0 2.896510 1_555
Nb3 Os0 2.896510 1_565
Nb4 Os0 2.896510 1_665
Nb4 Os0 2.896510 1_565
Nb5 Os0 2.896510 1_555
Nb5 Os0 2.896510 1_556
Au0 Nb1 2.919737 1_556
Au0 Nb1 2.919737 1_555
Au0 Nb3 2.919737 1_655
Au0 Nb4 2.919737 1_555
Au0 Nb4 2.919737 1_556
Au0 Nb2 2.919737 1_555
Au0 Nb5 2.919737 1_555
Au0 Nb5 2.919737 1_565
Au0 Nb3 2.919737 1_555
Au0 Nb0 2.919737 1_555
Au0 Nb0 2.919737 1_655
Au0 Nb2 2.919737 1_565
