# generated using pymatgen
data_YAg3
_symmetry_space_group_name_H-M   'P 1'
_cell_length_a   5.18433908
_cell_length_b   5.18433908
_cell_length_c   5.18433908
_cell_angle_alpha   129.64490618
_cell_angle_beta   129.64490618
_cell_angle_gamma   73.97508199
_symmetry_Int_Tables_number   1
_chemical_formula_structural   YAg3
_chemical_formula_sum   'Y1 Ag3'
_cell_volume   80.57592581
_cell_formula_units_Z   1
loop_
 _symmetry_equiv_pos_site_id
 _symmetry_equiv_pos_as_xyz
  1  'x, y, z'
loop_
 _atom_site_type_symbol
 _atom_site_label
 _atom_site_symmetry_multiplicity
 _atom_site_fract_x
 _atom_site_fract_y
 _atom_site_fract_z
 _atom_site_occupancy
  Y  Y0  1  -0.00000000  -0.00000000  -0.00000000  1
  Ag  Ag0  1  0.75000000  0.25000000  0.50000000  1
  Ag  Ag1  1  0.25000000  0.75000000  0.50000000  1
  Ag  Ag2  1  0.50000000  0.50000000  -0.00000000  1
loop_
_geom_bond_atom_site_label_1
_geom_bond_atom_site_label_2
_geom_bond_distance
_geom_bond_site_symmetry_2
Ag0 Y0 3.025154 1_555
Ag0 Ag2 3.025154 1_656
Ag0 Y0 3.025154 1_666
Ag0 Y0 3.025154 1_655
Ag0 Ag2 3.025154 1_555
Ag0 Ag2 3.025154 1_556
Ag0 Y0 3.025154 1_656
Ag0 Ag2 3.025154 1_545
Ag1 Y0 3.025154 1_666
Ag1 Ag2 3.025154 1_455
Ag1 Ag2 3.025154 1_555
Ag1 Ag2 3.025154 1_556
Ag1 Ag2 3.025154 1_566
Ag1 Y0 3.025154 1_555
Ag1 Y0 3.025154 1_566
Ag1 Y0 3.025154 1_565
Ag2 Y0 3.119113 1_666
Ag2 Y0 3.119113 1_565
Ag2 Y0 3.119113 1_655
Ag2 Y0 3.119113 1_554
