# generated using pymatgen
data_CdFeCu4(SnSe4)2
_symmetry_space_group_name_H-M   'P 1'
_cell_length_a   5.83789000
_cell_length_b   5.83789000
_cell_length_c   11.50281600
_cell_angle_alpha   90.00000000
_cell_angle_beta   90.00000000
_cell_angle_gamma   90.00000000
_symmetry_Int_Tables_number   1
_chemical_formula_structural   CdFeCu4(SnSe4)2
_chemical_formula_sum   'Cd1 Fe1 Cu4 Sn2 Se8'
_cell_volume   392.02700798
_cell_formula_units_Z   1
loop_
 _symmetry_equiv_pos_site_id
 _symmetry_equiv_pos_as_xyz
  1  'x, y, z'
loop_
 _atom_site_type_symbol
 _atom_site_label
 _atom_site_symmetry_multiplicity
 _atom_site_fract_x
 _atom_site_fract_y
 _atom_site_fract_z
 _atom_site_occupancy
  Cd  Cd0  1  0.00000000  0.00000000  0.00000000  1
  Fe  Fe0  1  0.50000000  0.50000000  0.50000000  1
  Cu  Cu0  1  0.50000000  0.00000000  0.25414900  1
  Cu  Cu1  1  0.00000000  0.50000000  0.74585100  1
  Cu  Cu2  1  0.00000000  0.50000000  0.25414900  1
  Cu  Cu3  1  0.50000000  0.00000000  0.74585100  1
  Sn  Sn0  1  0.50000000  0.50000000  0.00000000  1
  Sn  Sn1  1  0.00000000  0.00000000  0.50000000  1
  Se  Se0  1  0.74724000  0.74724000  0.14336200  1
  Se  Se1  1  0.26574900  0.26574900  0.63096500  1
  Se  Se2  1  0.25276000  0.25276000  0.14336200  1
  Se  Se3  1  0.73425100  0.73425100  0.63096500  1
  Se  Se4  1  0.73425100  0.26574900  0.36903500  1
  Se  Se5  1  0.25276000  0.74724000  0.85663800  1
  Se  Se6  1  0.26574900  0.73425100  0.36903500  1
  Se  Se7  1  0.74724000  0.25276000  0.85663800  1
loop_
_geom_bond_atom_site_label_1
_geom_bond_atom_site_label_2
_geom_bond_distance
_geom_bond_site_symmetry_2
Cd0 Se7 2.659722 1_454
Cd0 Se5 2.659722 1_544
Cd0 Se0 2.659722 1_445
Cd0 Se2 2.659722 1_555
Fe0 Se4 2.451474 1_555
Fe0 Se1 2.451474 1_555
Fe0 Se6 2.451474 1_555
Fe0 Se3 2.451474 1_555
Cu0 Se2 2.425827 1_555
Cu0 Se0 2.425827 1_545
Cu0 Se4 2.454266 1_555
Cu0 Se6 2.454266 1_545
Cu1 Se5 2.425827 1_555
Cu1 Se7 2.425827 1_455
Cu1 Se3 2.454266 1_455
Cu1 Se1 2.454266 1_555
Cu2 Se0 2.425827 1_455
Cu2 Se2 2.425827 1_555
Cu2 Se6 2.454266 1_555
Cu2 Se4 2.454266 1_455
Cu3 Se5 2.425827 1_545
Cu3 Se7 2.425827 1_555
Cu3 Se3 2.454266 1_545
Cu3 Se1 2.454266 1_555
Se0 Sn0 2.624118 1_555
Se1 Sn1 2.661430 1_555
Se2 Sn0 2.624118 1_555
Se3 Sn1 2.661430 1_665
Se4 Sn1 2.661430 1_655
Se5 Sn0 2.624118 1_556
Se6 Sn1 2.661430 1_565
Se7 Sn0 2.624118 1_556
