# generated using pymatgen
data_Re4BiO12
_symmetry_space_group_name_H-M   'P 1'
_cell_length_a   4.59262952
_cell_length_b   6.17445416
_cell_length_c   13.15406666
_cell_angle_alpha   82.79113703
_cell_angle_beta   71.07809252
_cell_angle_gamma   66.10977027
_symmetry_Int_Tables_number   1
_chemical_formula_structural   Re4BiO12
_chemical_formula_sum   'Re4 Bi1 O12'
_cell_volume   322.61399744
_cell_formula_units_Z   1
loop_
 _symmetry_equiv_pos_site_id
 _symmetry_equiv_pos_as_xyz
  1  'x, y, z'
loop_
 _atom_site_type_symbol
 _atom_site_label
 _atom_site_symmetry_multiplicity
 _atom_site_fract_x
 _atom_site_fract_y
 _atom_site_fract_z
 _atom_site_occupancy
  Re  Re0  1  0.04842200  0.98967300  0.31294900  1
  Re  Re1  1  0.04361500  0.03465900  0.81324100  1
  Re  Re2  1  0.88610600  0.89707700  0.17366400  1
  Re  Re3  1  0.89533200  0.97167900  0.64773400  1
  Bi  Bi0  1  0.51855100  0.57750500  0.48219500  1
  O  O0  1  0.16176600  0.70077800  0.38070800  1
  O  O1  1  0.29933500  0.95485800  0.54801000  1
  O  O2  1  0.40958800  0.06554000  0.23409700  1
  O  O3  1  0.49290500  0.92630600  0.74803500  1
  O  O4  1  0.67931300  0.20649600  0.39323900  1
  O  O5  1  0.07684700  0.02213200  0.05995500  1
  O  O6  1  0.14475800  0.56215500  0.15827200  1
  O  O7  1  0.79576200  0.60096600  0.22367100  1
  O  O8  1  0.89757700  0.85653400  0.91011600  1
  O  O9  1  0.65246100  0.26084600  0.61691300  1
  O  O10  1  0.02686700  0.65598700  0.60774800  1
  O  O11  1  0.83879800  0.33681000  0.83245400  1
loop_
_geom_bond_atom_site_label_1
_geom_bond_atom_site_label_2
_geom_bond_distance
_geom_bond_site_symmetry_2
Bi0 O10 2.226507 1_555
Bi0 O0 2.280331 1_555
Bi0 O1 2.287517 1_555
Bi0 O4 2.429916 1_555
Bi0 O9 2.490909 1_555
O0 Re0 1.843104 1_555
O1 Re3 1.863802 1_455
O2 Re0 1.854226 1_545
O2 Re2 1.933573 1_545
O3 Re1 1.821817 1_565
O3 Re3 1.995042 1_555
O4 Re0 1.771125 1_645
O5 Re2 1.734659 1_445
O6 O7 1.487567 1_455
O6 Re2 1.920399 1_455
O7 Re2 2.020697 1_555
O8 Re1 1.724738 1_665
O9 Re3 1.759230 1_545
O10 Re3 1.881103 1_455
O11 Re1 1.723938 1_655
