# generated using pymatgen
data_ZrGeO2
_symmetry_space_group_name_H-M   'P 1'
_cell_length_a   7.13281048
_cell_length_b   7.13281048
_cell_length_c   7.13281048
_cell_angle_alpha   126.13459802
_cell_angle_beta   126.13459802
_cell_angle_gamma   79.66703228
_symmetry_Int_Tables_number   1
_chemical_formula_structural   ZrGeO2
_chemical_formula_sum   'Zr4 Ge4 O8'
_cell_volume   228.68625812
_cell_formula_units_Z   4
loop_
 _symmetry_equiv_pos_site_id
 _symmetry_equiv_pos_as_xyz
  1  'x, y, z'
loop_
 _atom_site_type_symbol
 _atom_site_label
 _atom_site_symmetry_multiplicity
 _atom_site_fract_x
 _atom_site_fract_y
 _atom_site_fract_z
 _atom_site_occupancy
  Zr  Zr0  1  0.87500000  0.62500000  0.25000000  1
  Zr  Zr1  1  0.37500000  0.62500000  0.75000000  1
  Zr  Zr2  1  0.37500000  0.62500000  0.25000000  1
  Zr  Zr3  1  0.37500000  0.12500000  0.75000000  1
  Ge  Ge0  1  0.37500000  0.12500000  0.25000000  1
  Ge  Ge1  1  0.87500000  0.12500000  0.75000000  1
  Ge  Ge2  1  0.87500000  0.12500000  0.25000000  1
  Ge  Ge3  1  0.87500000  0.62500000  0.75000000  1
  O  O0  1  0.17377700  0.44668200  0.27290600  1
  O  O1  1  0.17377700  0.90087100  0.72709400  1
  O  O2  1  0.19668200  0.42377700  0.77290600  1
  O  O3  1  0.57622300  0.80331800  0.22709400  1
  O  O4  1  0.65087100  0.42377700  0.22709400  1
  O  O5  1  0.57622300  0.34912900  0.77290600  1
  O  O6  1  0.55331800  0.82622300  0.72709400  1
  O  O7  1  0.09912900  0.82622300  0.27290600  1
loop_
_geom_bond_atom_site_label_1
_geom_bond_atom_site_label_2
_geom_bond_distance
_geom_bond_site_symmetry_2
Ge0 O3 2.450404 1_545
Ge0 O0 2.450404 1_555
Ge0 O5 2.450410 1_555
Ge0 O1 2.450410 1_544
Ge1 O0 2.450408 1_656
Ge1 O3 2.450408 1_545
Ge1 O1 2.450410 1_645
Ge1 O5 2.450410 1_555
Ge2 O6 2.450408 1_544
Ge2 O2 2.450408 1_655
Ge2 O7 2.450410 1_645
Ge2 O4 2.450410 1_555
Ge3 O6 2.450404 1_555
Ge3 O2 2.450404 1_655
Ge3 O7 2.450410 1_656
Ge3 O4 2.450410 1_555
O0 Zr2 2.209306 1_555
O0 Zr1 2.246808 1_555
O0 Zr0 2.246813 1_455
O1 Zr3 2.209301 1_565
O1 Zr0 2.246810 1_455
O1 Zr1 2.246810 1_555
O2 Zr1 2.209306 1_555
O2 Zr2 2.246808 1_556
O2 Zr3 2.246813 1_555
O3 Zr2 2.209306 1_555
O3 Zr1 2.246808 1_554
O3 Zr0 2.246813 1_555
O4 Zr0 2.209301 1_555
O4 Zr2 2.246810 1_555
O4 Zr3 2.246810 1_554
O5 Zr3 2.209301 1_555
O5 Zr0 2.246810 1_556
O5 Zr1 2.246810 1_555
O6 Zr1 2.209306 1_555
O6 Zr2 2.246808 1_555
O6 Zr3 2.246813 1_565
O7 Zr0 2.209301 1_455
O7 Zr2 2.246810 1_555
O7 Zr3 2.246810 1_565
