# generated using pymatgen
data_Mg9Si5
_symmetry_space_group_name_H-M   'P 1'
_cell_length_a   10.60296734
_cell_length_b   8.07728633
_cell_length_c   8.16940071
_cell_angle_alpha   121.29120432
_cell_angle_beta   93.02654003
_cell_angle_gamma   67.50475058
_symmetry_Int_Tables_number   1
_chemical_formula_structural   Mg9Si5
_chemical_formula_sum   'Mg18 Si10'
_cell_volume   542.87212196
_cell_formula_units_Z   2
loop_
 _symmetry_equiv_pos_site_id
 _symmetry_equiv_pos_as_xyz
  1  'x, y, z'
loop_
 _atom_site_type_symbol
 _atom_site_label
 _atom_site_symmetry_multiplicity
 _atom_site_fract_x
 _atom_site_fract_y
 _atom_site_fract_z
 _atom_site_occupancy
  Mg  Mg0  1  0.38559700  0.00837500  0.64622800  1
  Mg  Mg1  1  0.55487100  0.86459800  0.24134400  1
  Mg  Mg2  1  0.37943900  0.63765900  0.94206500  1
  Mg  Mg3  1  0.55035100  0.24520900  0.97627800  1
  Mg  Mg4  1  0.37393300  0.33194000  0.34339800  1
  Mg  Mg5  1  0.59240300  0.47813200  0.48995000  1
  Mg  Mg6  1  0.87318500  0.02337500  0.81796100  1
  Mg  Mg7  1  0.04056500  0.21300400  0.70942300  1
  Mg  Mg8  1  0.88123200  0.62033300  0.11873400  1
  Mg  Mg9  1  0.03142200  0.85800800  0.06296500  1
  Mg  Mg10  1  0.88457900  0.61685000  0.75409000  1
  Mg  Mg11  1  0.03998600  0.56660800  0.43586800  1
  Mg  Mg12  1  0.70882700  0.80067400  0.53994000  1
  Mg  Mg13  1  0.20718600  0.08427200  0.32823900  1
  Mg  Mg14  1  0.69994600  0.43341700  0.83368300  1
  Mg  Mg15  1  0.20778200  0.41776000  0.03059100  1
  Mg  Mg16  1  0.82132000  0.05152500  0.44617700  1
  Mg  Mg17  1  0.20513000  0.80685200  0.70987000  1
  Si  Si0  1  0.72867700  0.98800700  0.09985700  1
  Si  Si1  1  0.58632300  0.82155500  0.86470500  1
  Si  Si2  1  0.33599400  0.02871300  0.99955000  1
  Si  Si3  1  0.01821400  0.22939100  0.08127200  1
  Si  Si4  1  0.74189000  0.42806200  0.17323100  1
  Si  Si5  1  0.21336300  0.43645900  0.68859700  1
  Si  Si6  1  0.88739300  0.31557700  0.38221200  1
  Si  Si7  1  0.13122800  0.81006100  0.37179600  1
  Si  Si8  1  0.39553800  0.65236400  0.29965900  1
  Si  Si9  1  0.52384600  0.23124900  0.61231700  1
loop_
_geom_bond_atom_site_label_1
_geom_bond_atom_site_label_2
_geom_bond_distance
_geom_bond_site_symmetry_2
Mg0 Si8 2.763790 1_545
Mg0 Si9 2.836629 1_555
Mg0 Si2 2.869966 1_555
Mg0 Si5 3.066335 1_555
Mg0 Si1 3.151407 1_545
Mg1 Si9 2.846065 1_565
Mg1 Si0 2.924594 1_555
Mg1 Si1 2.933921 1_554
Mg1 Si8 3.028076 1_555
Mg1 Si4 3.066377 1_555
Mg2 Si2 2.788978 1_565
Mg2 Si9 2.789387 1_555
Mg2 Si8 2.860039 1_556
Mg2 Si5 2.887687 1_555
Mg3 Si8 2.791281 1_556
Mg3 Si0 2.807413 1_546
Mg3 Si4 2.894200 1_556
Mg3 Si1 2.912755 1_545
Mg3 Si9 2.918939 1_555
Mg4 Si2 2.745744 1_554
Mg4 Si8 2.881267 1_555
Mg4 Si5 2.915153 1_555
Mg4 Si9 2.917620 1_555
Mg5 Si1 2.852018 1_555
Mg5 Si4 2.868102 1_555
Mg5 Si6 2.868672 1_555
Mg5 Si8 2.904538 1_555
Mg5 Si9 2.959910 1_555
Mg6 Si3 2.766110 1_656
Mg6 Si4 2.852372 1_556
Mg6 Si0 3.020545 1_546
Mg7 Si7 2.772263 1_545
Mg7 Si3 2.989339 1_556
Mg7 Si5 3.086404 1_555
Mg8 Si4 2.708580 1_555
Mg8 Si3 2.776341 1_655
Mg8 Si0 2.869400 1_555
Mg9 Si7 2.838071 1_555
Mg9 Si3 2.873203 1_565
Mg9 Si0 2.948162 1_455
Mg9 Si6 2.980362 1_465
Mg9 Si5 3.073778 1_554
Mg10 Si6 2.725187 1_555
Mg10 Si0 2.757420 1_556
Mg10 Si1 2.880926 1_555
Mg10 Si5 3.172125 1_655
Mg11 Si7 2.766807 1_555
Mg11 Si3 2.842220 1_555
Mg11 Si6 2.904040 1_455
Mg11 Si5 3.020316 1_555
Mg12 Si4 2.844893 1_555
Mg12 Si1 2.913102 1_555
Mg12 Si9 3.009765 1_565
Mg12 Si6 3.151834 1_555
Mg13 Si7 2.809788 1_545
Mg13 Si2 2.818407 1_554
Mg13 Si5 2.861152 1_555
Mg13 Si6 3.104312 1_455
Mg13 Si3 3.113165 1_555
Mg14 Si1 2.767885 1_555
Mg14 Si4 2.806037 1_556
Mg14 Si9 2.886583 1_555
Mg15 Si7 2.750478 1_555
Mg15 Si2 2.779746 1_554
Mg15 Si5 2.880061 1_554
Mg15 Si3 3.099822 1_555
Mg16 Si6 2.766328 1_555
Mg16 Si0 2.795888 1_545
Mg16 Si9 2.966403 1_555
Mg16 Si7 3.007700 1_645
Mg17 Si2 2.808509 1_565
Mg17 Si7 2.841275 1_555
Mg17 Si5 2.872312 1_555
Mg17 Si3 3.079643 1_566
Si0 Si1 2.517934 1_554
Si1 Si2 2.460448 1_565
Si3 Si6 2.509226 1_455
Si3 Si4 2.665700 1_455
Si4 Si6 2.526043 1_555
Si7 Si8 2.546896 1_555
