# generated using pymatgen
data_ZnCr4CdS8
_symmetry_space_group_name_H-M   'P 1'
_cell_length_a   7.21106506
_cell_length_b   7.21106506
_cell_length_c   7.21106506
_cell_angle_alpha   60.00000000
_cell_angle_beta   60.00000000
_cell_angle_gamma   60.00000000
_symmetry_Int_Tables_number   1
_chemical_formula_structural   ZnCr4CdS8
_chemical_formula_sum   'Zn1 Cr4 Cd1 S8'
_cell_volume   265.14487861
_cell_formula_units_Z   1
loop_
 _symmetry_equiv_pos_site_id
 _symmetry_equiv_pos_as_xyz
  1  'x, y, z'
loop_
 _atom_site_type_symbol
 _atom_site_label
 _atom_site_symmetry_multiplicity
 _atom_site_fract_x
 _atom_site_fract_y
 _atom_site_fract_z
 _atom_site_occupancy
  Zn  Zn0  1  0.50000000  0.50000000  0.50000000  1
  Cr  Cr0  1  0.62472200  0.12509300  0.12509300  1
  Cr  Cr1  1  0.12509300  0.62472200  0.12509300  1
  Cr  Cr2  1  0.12509300  0.12509300  0.62472200  1
  Cr  Cr3  1  0.12509300  0.12509300  0.12509300  1
  Cd  Cd0  1  0.75000000  0.75000000  0.75000000  1
  S  S0  1  0.32678400  0.89107200  0.89107200  1
  S  S1  1  0.89107200  0.32678400  0.89107200  1
  S  S2  1  0.89107200  0.89107200  0.32678400  1
  S  S3  1  0.89107200  0.89107200  0.89107200  1
  S  S4  1  0.90767900  0.36410700  0.36410700  1
  S  S5  1  0.36410700  0.90767900  0.36410700  1
  S  S6  1  0.36410700  0.36410700  0.90767900  1
  S  S7  1  0.36410700  0.36410700  0.36410700  1
loop_
_geom_bond_atom_site_label_1
_geom_bond_atom_site_label_2
_geom_bond_distance
_geom_bond_site_symmetry_2
Cr0 S1 2.397897 1_554
Cr0 S2 2.397897 1_545
Cr0 S3 2.397902 1_544
Cr0 S7 2.442433 1_555
Cr0 S6 2.442438 1_554
Cr0 S5 2.442438 1_545
Cr1 S2 2.397897 1_455
Cr1 S0 2.397897 1_554
Cr1 S3 2.397902 1_454
Cr1 S7 2.442433 1_555
Cr1 S4 2.442438 1_455
Cr1 S6 2.442438 1_554
Cr2 S0 2.397897 1_545
Cr2 S1 2.397897 1_455
Cr2 S3 2.397902 1_445
Cr2 S7 2.442433 1_555
Cr2 S4 2.442438 1_455
Cr2 S5 2.442438 1_545
Cr3 S0 2.397903 1_544
Cr3 S2 2.397903 1_445
Cr3 S1 2.397903 1_454
Cr3 S6 2.442433 1_554
Cr3 S4 2.442433 1_455
Cr3 S5 2.442433 1_545
Cd0 S3 2.491815 1_555
Cd0 S0 2.491815 1_555
Cd0 S2 2.491815 1_555
Cd0 S1 2.491815 1_555
S4 Zn0 2.400336 1_555
S5 Zn0 2.400336 1_555
S6 Zn0 2.400336 1_555
S7 Zn0 2.400336 1_555
