# generated using pymatgen
data_Ti3Si
_symmetry_space_group_name_H-M   'P 1'
_cell_length_a   5.63132404
_cell_length_b   5.63133894
_cell_length_c   4.50545247
_cell_angle_alpha   89.99999941
_cell_angle_beta   90.00000036
_cell_angle_gamma   120.00033305
_symmetry_Int_Tables_number   1
_chemical_formula_structural   Ti3Si
_chemical_formula_sum   'Ti6 Si2'
_cell_volume   123.73420503
_cell_formula_units_Z   2
loop_
 _symmetry_equiv_pos_site_id
 _symmetry_equiv_pos_as_xyz
  1  'x, y, z'
loop_
 _atom_site_type_symbol
 _atom_site_label
 _atom_site_symmetry_multiplicity
 _atom_site_fract_x
 _atom_site_fract_y
 _atom_site_fract_z
 _atom_site_occupancy
  Ti  Ti0  1  0.17179925  0.34359775  0.24999998  1
  Ti  Ti1  1  0.65640251  0.82820185  0.25000000  1
  Ti  Ti2  1  0.17179937  0.82820215  0.25000002  1
  Ti  Ti3  1  0.82820138  0.65640412  0.75000004  1
  Ti  Ti4  1  0.34359570  0.17179755  0.74999999  1
  Ti  Ti5  1  0.82820127  0.17179700  0.74999997  1
  Si  Si0  1  0.66666979  0.33333486  0.25000000  1
  Si  Si1  1  0.33333272  0.66666672  0.75000000  1
loop_
_geom_bond_atom_site_label_1
_geom_bond_atom_site_label_2
_geom_bond_distance
_geom_bond_site_symmetry_2
Ti0 Ti1 2.728950 1_555
Ti0 Ti2 2.728971 1_555
Ti0 Ti5 2.807609 1_455
Ti0 Ti5 2.807609 1_454
Ti0 Ti4 2.807612 1_554
Ti0 Ti4 2.807612 1_555
Ti0 Ti1 2.902353 1_445
Ti0 Ti2 2.902368 1_545
Ti1 Ti2 2.728958 1_555
Ti1 Ti5 2.807603 1_565
Ti1 Ti5 2.807604 1_564
Ti1 Ti3 2.807611 1_554
Ti1 Ti3 2.807612 1_555
Ti1 Ti2 2.902366 1_655
Ti2 Ti4 2.807604 1_565
Ti2 Ti4 2.807604 1_564
Ti2 Ti3 2.807609 1_454
Ti2 Ti3 2.807609 1_455
Ti3 Ti4 2.728964 1_555
Ti3 Ti5 2.728987 1_555
Ti3 Ti4 2.902339 1_665
Ti3 Ti5 2.902352 1_565
Ti4 Ti5 2.728973 1_555
Ti4 Ti5 2.902351 1_455
Si0 Ti3 2.749033 1_554
Si0 Ti3 2.749033 1_555
Si0 Ti5 2.749036 1_555
Si0 Ti5 2.749037 1_554
Si0 Ti4 2.749044 1_555
Si0 Ti4 2.749044 1_554
Si0 Ti2 2.816087 1_655
Si0 Ti0 2.816095 1_655
Si0 Ti2 2.816105 1_545
Si0 Ti1 2.816111 1_545
Si0 Ti0 2.816118 1_555
Si0 Ti1 2.816118 1_555
Si1 Ti1 2.749032 1_556
Si1 Ti1 2.749032 1_555
Si1 Ti0 2.749032 1_556
Si1 Ti0 2.749032 1_555
Si1 Ti2 2.749035 1_555
Si1 Ti2 2.749035 1_556
Si1 Ti5 2.816093 1_565
Si1 Ti5 2.816099 1_455
Si1 Ti3 2.816107 1_455
Si1 Ti3 2.816107 1_555
Si1 Ti4 2.816110 1_565
Si1 Ti4 2.816118 1_555
