# generated using pymatgen
data_Li10Cu(SiO5)2
_symmetry_space_group_name_H-M   'P 1'
_cell_length_a   6.13450892
_cell_length_b   15.44524376
_cell_length_c   5.15715606
_cell_angle_alpha   80.17935333
_cell_angle_beta   89.92618097
_cell_angle_gamma   78.48003872
_symmetry_Int_Tables_number   1
_chemical_formula_structural   Li10Cu(SiO5)2
_chemical_formula_sum   'Li20 Cu2 Si4 O20'
_cell_volume   471.50395900
_cell_formula_units_Z   2
loop_
 _symmetry_equiv_pos_site_id
 _symmetry_equiv_pos_as_xyz
  1  'x, y, z'
loop_
 _atom_site_type_symbol
 _atom_site_label
 _atom_site_symmetry_multiplicity
 _atom_site_fract_x
 _atom_site_fract_y
 _atom_site_fract_z
 _atom_site_occupancy
  Li  Li0  1  0.50774800  0.98730100  0.74557400  1
  Li  Li1  1  0.36855300  0.84694400  0.27574200  1
  Li  Li2  1  0.78007200  0.85158300  0.26696600  1
  Li  Li3  1  0.13465500  0.72934200  0.49846500  1
  Li  Li4  1  0.34442300  0.73358600  0.02097600  1
  Li  Li5  1  0.91964500  0.73348700  0.02305500  1
  Li  Li6  1  0.67873500  0.65212700  0.41614100  1
  Li  Li7  1  0.44090200  0.60947800  0.78372200  1
  Li  Li8  1  0.95052700  0.60858700  0.78837500  1
  Li  Li9  1  0.72742500  0.53845900  0.13861100  1
  Li  Li10  1  0.27096800  0.46130200  0.85979000  1
  Li  Li11  1  0.55807400  0.39032400  0.21516800  1
  Li  Li12  1  0.04878900  0.39148200  0.21037700  1
  Li  Li13  1  0.31785500  0.34806000  0.58233700  1
  Li  Li14  1  0.07791800  0.26597800  0.97599900  1
  Li  Li15  1  0.65367500  0.26626700  0.97621200  1
  Li  Li16  1  0.86462500  0.27077100  0.50016900  1
  Li  Li17  1  0.62986700  0.15361100  0.71783800  1
  Li  Li18  1  0.21846000  0.14789100  0.73156600  1
  Li  Li19  1  0.49022400  0.01262800  0.25163800  1
  Cu  Cu0  1  0.04152600  0.92408400  0.99282000  1
  Cu  Cu1  1  0.95528600  0.07587900  0.00211900  1
  Si  Si0  1  0.60141400  0.79733900  0.70639300  1
  Si  Si1  1  0.21804300  0.56110300  0.30747700  1
  Si  Si2  1  0.78091900  0.43880100  0.69109500  1
  Si  Si3  1  0.39710700  0.20266000  0.29091000  1
  O  O0  1  0.55189800  0.89609400  0.51156100  1
  O  O1  1  0.09610800  0.80571300  0.15296700  1
  O  O2  1  0.59895500  0.79968200  0.02663000  1
  O  O3  1  0.41386500  0.74091200  0.63469700  1
  O  O4  1  0.84543400  0.74024200  0.63786300  1
  O  O5  1  0.41778100  0.61038400  0.16546800  1
  O  O6  1  0.96724300  0.61036900  0.16890100  1
  O  O7  1  0.21221800  0.57465500  0.61742600  1
  O  O8  1  0.72742100  0.54516000  0.72925100  1
  O  O9  1  0.27221900  0.45478600  0.26908200  1
  O  O10  1  0.78679100  0.42521100  0.38116200  1
  O  O11  1  0.03187500  0.38929600  0.82950000  1
  O  O12  1  0.58111700  0.38962400  0.83301900  1
  O  O13  1  0.15384500  0.26006400  0.36062800  1
  O  O14  1  0.58535000  0.25875800  0.36247700  1
  O  O15  1  0.39866200  0.20016500  0.97089300  1
  O  O16  1  0.90174900  0.19447500  0.84438700  1
  O  O17  1  0.44712700  0.10385600  0.48543300  1
  O  O18  1  0.24633600  0.00178400  0.99553700  1
  O  O19  1  0.75145900  0.99789600  0.00132900  1
loop_
_geom_bond_atom_site_label_1
_geom_bond_atom_site_label_2
_geom_bond_distance
_geom_bond_site_symmetry_2
Li0 O0 1.985199 1_555
Li0 O17 2.022116 1_565
Li0 O19 2.044028 1_556
Li0 O18 2.057478 1_565
Li1 O0 1.994952 1_555
Li1 O2 2.020936 1_555
Li1 O1 2.040866 1_555
Li1 O3 2.229686 1_555
Li1 O18 2.545091 1_564
Li2 O0 1.982417 1_555
Li2 O2 2.027691 1_555
Li2 O1 2.048601 1_655
Li2 O4 2.319756 1_555
Li2 O19 2.408424 1_555
Li3 O4 1.900457 1_455
Li3 O3 1.904590 1_555
Li3 O1 1.948018 1_555
Li3 O7 2.314656 1_555
Li4 O5 1.885174 1_555
Li4 O1 1.898159 1_555
Li4 O3 2.025565 1_554
Li4 O2 2.031756 1_555
Li5 O6 1.886241 1_555
Li5 O1 1.898503 1_655
Li5 O4 2.019148 1_554
Li5 O2 2.029478 1_555
Li6 O8 2.078527 1_555
Li6 O6 2.234483 1_555
Li6 O4 2.301131 1_555
Li6 O5 2.313319 1_555
Li6 O3 2.328862 1_555
Li7 O7 1.858666 1_555
Li7 O8 1.884577 1_555
Li7 O5 1.975872 1_556
Li7 O3 2.018123 1_555
Li8 O7 1.856600 1_655
Li8 O8 1.887955 1_555
Li8 O6 1.970402 1_556
Li8 O4 2.022936 1_555
Li9 O10 1.938345 1_555
Li9 O5 2.017524 1_555
Li9 O6 2.033404 1_555
Li9 O8 2.095963 1_554
Li10 O7 1.939068 1_555
Li10 O12 2.018607 1_555
Li10 O11 2.030747 1_555
Li10 O9 2.095915 1_556
Li11 O10 1.858547 1_555
Li11 O9 1.881345 1_555
Li11 O12 1.977397 1_554
Li11 O14 2.018004 1_555
Li12 O10 1.857086 1_455
Li12 O9 1.887750 1_555
Li12 O11 1.973500 1_554
Li12 O13 2.019416 1_555
Li13 O9 2.076991 1_555
Li13 O11 2.221040 1_555
Li13 O13 2.290433 1_555
Li13 O12 2.322550 1_555
Li13 O14 2.346372 1_555
Li14 O11 1.890280 1_555
Li14 O16 1.892775 1_455
Li14 O13 2.020768 1_556
Li14 O15 2.028687 1_555
Li15 O12 1.885656 1_555
Li15 O16 1.894235 1_555
Li15 O14 2.023799 1_556
Li15 O15 2.034208 1_555
Li16 O13 1.900843 1_655
Li16 O14 1.910188 1_555
Li16 O16 1.942175 1_555
Li16 O10 2.311070 1_555
Li17 O17 1.986333 1_555
Li17 O15 2.034653 1_555
Li17 O16 2.042016 1_555
Li17 O14 2.208957 1_555
Li17 O19 2.562212 1_546
Li18 O17 1.987561 1_555
Li18 O15 2.024155 1_555
Li18 O16 2.052436 1_455
Li18 O13 2.327094 1_555
Li18 O18 2.402807 1_555
Li19 O17 1.984685 1_555
Li19 O0 2.021357 1_545
Li19 O18 2.047314 1_554
Li19 O19 2.058042 1_545
Cu0 O1 1.837907 1_556
Cu0 O18 1.904473 1_565
Cu0 O19 1.916913 1_456
Cu1 O16 1.837650 1_554
Cu1 O19 1.901954 1_545
Cu1 O18 1.922403 1_654
O0 Si0 1.649634 1_555
O2 Si0 1.658052 1_554
O3 Si0 1.652725 1_555
O4 Si0 1.649584 1_555
O5 Si1 1.672454 1_555
O6 Si1 1.675278 1_655
O7 Si1 1.646557 1_555
O8 Si2 1.655232 1_555
O9 Si1 1.654961 1_555
O10 Si2 1.646643 1_555
O11 Si2 1.676497 1_455
O12 Si2 1.671775 1_555
O13 Si3 1.649606 1_555
O14 Si3 1.652360 1_555
O15 Si3 1.657356 1_556
O17 Si3 1.649512 1_555
