# generated using pymatgen
data_TaMnSi
_symmetry_space_group_name_H-M   'P 1'
_cell_length_a   7.27117210
_cell_length_b   7.27117210
_cell_length_c   7.27117210
_cell_angle_alpha   127.79365443
_cell_angle_beta   121.99095764
_cell_angle_gamma   81.80138784
_symmetry_Int_Tables_number   1
_chemical_formula_structural   TaMnSi
_chemical_formula_sum   'Ta6 Mn6 Si6'
_cell_volume   247.95968981
_cell_formula_units_Z   6
loop_
 _symmetry_equiv_pos_site_id
 _symmetry_equiv_pos_as_xyz
  1  'x, y, z'
loop_
 _atom_site_type_symbol
 _atom_site_label
 _atom_site_symmetry_multiplicity
 _atom_site_fract_x
 _atom_site_fract_y
 _atom_site_fract_z
 _atom_site_occupancy
  Ta  Ta0  1  0.55207500  0.09737900  0.04530400  1
  Ta  Ta1  1  0.44792500  0.49322900  0.54530400  1
  Ta  Ta2  1  0.96925200  0.49320800  0.02395600  1
  Ta  Ta3  1  0.03074800  0.05470400  0.52395600  1
  Ta  Ta4  1  0.75127800  0.91377500  0.66249800  1
  Ta  Ta5  1  0.24872200  0.91122000  0.16249800  1
  Mn  Mn0  1  0.15379300  0.74394300  0.65210500  1
  Mn  Mn1  1  0.84620700  0.49831100  0.59015000  1
  Mn  Mn2  1  0.59183900  0.74394300  0.09015000  1
  Mn  Mn3  1  0.40816100  0.49831100  0.15210500  1
  Mn  Mn4  1  0.50000000  0.25252300  0.75252300  1
  Mn  Mn5  1  0.00000000  0.25252300  0.25252300  1
  Si  Si0  1  0.33809400  0.82822900  0.50115900  1
  Si  Si1  1  0.66190600  0.16306400  0.49013500  1
  Si  Si2  1  0.82707000  0.82822900  0.99013500  1
  Si  Si3  1  0.17293000  0.16306400  0.00115900  1
  Si  Si4  1  0.77412800  0.52729800  0.25317100  1
  Si  Si5  1  0.22587200  0.47904300  0.75317100  1
loop_
_geom_bond_atom_site_label_1
_geom_bond_atom_site_label_2
_geom_bond_distance
_geom_bond_site_symmetry_2
Mn0 Si5 2.358715 1_555
Mn0 Si4 2.381526 1_455
Mn0 Si0 2.448088 1_555
Mn0 Si3 2.452566 1_566
Mn0 Ta1 2.722682 1_555
Mn0 Ta0 2.740356 1_566
Mn1 Si4 2.358715 1_555
Mn1 Si5 2.381524 1_655
Mn1 Si1 2.448088 1_555
Mn1 Si2 2.452572 1_555
Mn1 Ta0 2.722680 1_555
Mn1 Ta1 2.740355 1_555
Mn2 Si5 2.358720 1_554
Mn2 Si4 2.381530 1_555
Mn2 Si2 2.448082 1_554
Mn2 Si1 2.452568 1_565
Mn2 Ta1 2.722680 1_554
Mn2 Ta0 2.740355 1_565
Mn3 Si4 2.358722 1_555
Mn3 Si5 2.381530 1_554
Mn3 Si3 2.448084 1_555
Mn3 Si0 2.452568 1_555
Mn3 Ta0 2.722679 1_555
Mn3 Ta1 2.740348 1_555
Mn4 Si4 2.397899 1_556
Mn4 Si5 2.397899 1_555
Mn4 Si1 2.467666 1_555
Mn4 Si0 2.467668 1_545
Mn4 Ta0 2.813442 1_556
Mn4 Ta1 2.813442 1_555
Mn5 Si4 2.397894 1_455
Mn5 Si5 2.397899 1_555
Mn5 Si3 2.467666 1_555
Mn5 Si2 2.467668 1_444
Mn5 Ta1 2.813442 1_555
Mn5 Ta0 2.813442 1_455
Si0 Ta4 2.587153 1_555
Si0 Ta3 2.596489 1_565
Si0 Ta0 2.600129 1_566
Si0 Ta1 2.608831 1_555
Si0 Ta2 2.609583 1_455
Si0 Ta5 2.619928 1_555
Si1 Ta5 2.587152 1_545
Si1 Ta2 2.596490 1_556
Si1 Ta1 2.600134 1_555
Si1 Ta0 2.608834 1_555
Si1 Ta3 2.609581 1_655
Si1 Ta4 2.619928 1_545
Si2 Ta4 2.587148 1_555
Si2 Ta3 2.596489 1_666
Si2 Ta0 2.600129 1_566
Si2 Ta1 2.608831 1_555
Si2 Ta2 2.609583 1_556
Si2 Ta5 2.619928 1_656
Si3 Ta5 2.587147 1_545
Si3 Ta2 2.596495 1_455
Si3 Ta1 2.600129 1_555
Si3 Ta0 2.608830 1_555
Si3 Ta3 2.609586 1_554
Si3 Ta4 2.619928 1_444
Si4 Ta2 2.598266 1_555
Si4 Ta4 2.631082 1_555
Si4 Ta0 2.779610 1_555
Si5 Ta3 2.598264 1_555
Si5 Ta5 2.631082 1_556
Si5 Ta1 2.779616 1_555
