# generated using pymatgen
data_LaCe4(SiRu)10
_symmetry_space_group_name_H-M   'P 1'
_cell_length_a   4.21422508
_cell_length_b   4.21422508
_cell_length_c   24.52254058
_cell_angle_alpha   85.07075202
_cell_angle_beta   85.07075202
_cell_angle_gamma   90.00000000
_symmetry_Int_Tables_number   1
_chemical_formula_structural   LaCe4(SiRu)10
_chemical_formula_sum   'La1 Ce4 Si10 Ru10'
_cell_volume   432.28535833
_cell_formula_units_Z   1
loop_
 _symmetry_equiv_pos_site_id
 _symmetry_equiv_pos_as_xyz
  1  'x, y, z'
loop_
 _atom_site_type_symbol
 _atom_site_label
 _atom_site_symmetry_multiplicity
 _atom_site_fract_x
 _atom_site_fract_y
 _atom_site_fract_z
 _atom_site_occupancy
  La  La0  1  -0.00000000  -0.00000000  0.00000000  1
  Ce  Ce0  1  0.39986671  0.39986671  0.20026658  1
  Ce  Ce1  1  0.79988490  0.79988490  0.40023020  1
  Ce  Ce2  1  0.20011510  0.20011510  0.59976980  1
  Ce  Ce3  1  0.60013329  0.60013329  0.79973342  1
  Si  Si0  1  0.47282885  0.47282885  0.05434230  1
  Si  Si1  1  0.87367164  0.87367164  0.25265671  1
  Si  Si2  1  0.27363794  0.27363794  0.45272412  1
  Si  Si3  1  0.67359790  0.67359790  0.65280419  1
  Si  Si4  1  0.07379323  0.07379323  0.85241354  1
  Si  Si5  1  0.92620677  0.92620677  0.14758646  1
  Si  Si6  1  0.32640210  0.32640210  0.34719581  1
  Si  Si7  1  0.72636206  0.72636206  0.54727588  1
  Si  Si8  1  0.12632836  0.12632836  0.74734329  1
  Si  Si9  1  0.52717115  0.52717115  0.94565770  1
  Ru  Ru0  1  0.94922087  0.44922087  0.10155826  1
  Ru  Ru1  1  0.35005070  0.85005070  0.29989859  1
  Ru  Ru2  1  0.75000000  0.25000000  0.50000000  1
  Ru  Ru3  1  0.14994930  0.64994930  0.70010141  1
  Ru  Ru4  1  0.55077913  0.05077913  0.89844174  1
  Ru  Ru5  1  0.44922087  0.94922087  0.10155826  1
  Ru  Ru6  1  0.85005070  0.35005070  0.29989859  1
  Ru  Ru7  1  0.25000000  0.75000000  0.50000000  1
  Ru  Ru8  1  0.64994930  0.14994930  0.70010141  1
  Ru  Ru9  1  0.05077913  0.55077913  0.89844174  1
loop_
_geom_bond_atom_site_label_1
_geom_bond_atom_site_label_2
_geom_bond_distance
_geom_bond_site_symmetry_2
La0 Ru0 3.248193 1_455
La0 Ru9 3.248193 1_544
La0 Ru4 3.248193 1_454
La0 Ru5 3.248193 1_545
La0 Ru0 3.248193 1_445
La0 Ru5 3.248193 1_445
La0 Ru9 3.248193 1_554
La0 Ru4 3.248193 1_554
La0 Si0 3.260288 1_555
La0 Si9 3.260288 1_444
La0 Si0 3.260288 1_455
La0 Si0 3.260288 1_545
La0 Si9 3.260288 1_544
La0 Si9 3.260288 1_454
La0 Si0 3.260288 1_445
La0 Si9 3.260288 1_554
Ce0 Ru5 3.195717 1_545
Ce0 Ru0 3.195717 1_455
Ce0 Ru5 3.195717 1_555
Ce0 Ru0 3.195717 1_555
Ce0 Ru6 3.212655 1_555
Ce0 Ru1 3.212655 1_555
Ce0 Ru6 3.212655 1_455
Ce0 Ru1 3.212655 1_545
Ce0 Si1 3.241300 1_555
Ce0 Si1 3.241300 1_545
Ce0 Si1 3.241300 1_455
Ce0 Si1 3.241300 1_445
Ce0 Si5 3.244084 1_445
Ce0 Si5 3.244084 1_455
Ce0 Si5 3.244084 1_545
Ce0 Si5 3.244084 1_555
Ce1 Ru2 3.215187 1_565
Ce1 Ru7 3.215187 1_655
Ce1 Ru7 3.215187 1_555
Ce1 Ru2 3.215187 1_555
Ce1 Ru1 3.225528 1_555
Ce1 Ru6 3.225528 1_555
Ce1 Ru1 3.225529 1_655
Ce1 Ru6 3.225529 1_565
Ce1 Si2 3.242295 1_665
Ce1 Si2 3.242295 1_655
Ce1 Si2 3.242295 1_565
Ce1 Si2 3.242295 1_555
Ce1 Si6 3.247502 1_555
Ce1 Si6 3.247502 1_565
Ce1 Si6 3.247502 1_655
Ce1 Si6 3.247502 1_665
Ce2 Ru7 3.215187 1_545
Ce2 Ru2 3.215187 1_455
Ce2 Ru7 3.215187 1_555
Ce2 Ru2 3.215187 1_555
Ce2 Ru8 3.225528 1_555
Ce2 Ru3 3.225528 1_555
Ce2 Ru3 3.225529 1_545
Ce2 Ru8 3.225529 1_455
Ce2 Si7 3.242295 1_445
Ce2 Si7 3.242295 1_455
Ce2 Si7 3.242295 1_545
Ce2 Si7 3.242295 1_555
Ce2 Si3 3.247502 1_555
Ce2 Si3 3.247502 1_455
Ce2 Si3 3.247502 1_545
Ce2 Si3 3.247502 1_445
Ce3 Ru4 3.195717 1_565
Ce3 Ru9 3.195717 1_655
Ce3 Ru9 3.195717 1_555
Ce3 Ru4 3.195717 1_555
Ce3 Ru3 3.212655 1_555
Ce3 Ru8 3.212655 1_555
Ce3 Ru3 3.212655 1_655
Ce3 Ru8 3.212655 1_565
Ce3 Si8 3.241300 1_555
Ce3 Si8 3.241300 1_565
Ce3 Si8 3.241300 1_655
Ce3 Si8 3.241300 1_665
Ce3 Si4 3.244084 1_665
Ce3 Si4 3.244084 1_655
Ce3 Si4 3.244084 1_565
Ce3 Si4 3.244084 1_555
Ru0 Si5 2.386449 1_555
Ru0 Si5 2.386449 1_545
Ru0 Si0 2.400157 1_555
Ru0 Si0 2.400157 1_655
Ru1 Si1 2.400460 1_455
Ru1 Si1 2.400460 1_555
Ru1 Si6 2.401105 1_555
Ru1 Si6 2.401105 1_565
Ru2 Si2 2.400856 1_555
Ru2 Si7 2.400856 1_555
Ru2 Si7 2.400856 1_545
Ru2 Si2 2.400856 1_655
Ru3 Si8 2.400460 1_565
Ru3 Si8 2.400460 1_555
Ru3 Si3 2.401105 1_555
Ru3 Si3 2.401105 1_455
Ru4 Si4 2.386449 1_555
Ru4 Si4 2.386449 1_655
Ru4 Si9 2.400157 1_555
Ru4 Si9 2.400157 1_545
Ru5 Si5 2.386449 1_555
Ru5 Si5 2.386449 1_455
Ru5 Si0 2.400157 1_555
Ru5 Si0 2.400157 1_565
Ru6 Si1 2.400460 1_545
Ru6 Si1 2.400460 1_555
Ru6 Si6 2.401105 1_555
Ru6 Si6 2.401105 1_655
Ru7 Si2 2.400856 1_555
Ru7 Si7 2.400856 1_555
Ru7 Si2 2.400856 1_565
Ru7 Si7 2.400856 1_455
Ru8 Si8 2.400460 1_655
Ru8 Si8 2.400460 1_555
Ru8 Si3 2.401105 1_555
Ru8 Si3 2.401105 1_545
Ru9 Si4 2.386449 1_555
Ru9 Si4 2.386449 1_565
Ru9 Si9 2.400157 1_555
Ru9 Si9 2.400157 1_455
