# generated using pymatgen
data_MnH4S(NO2)2
_symmetry_space_group_name_H-M   'P 1'
_cell_length_a   6.69879600
_cell_length_b   7.99779200
_cell_length_c   9.18976400
_cell_angle_alpha   90.00000000
_cell_angle_beta   90.00000000
_cell_angle_gamma   90.00000000
_symmetry_Int_Tables_number   1
_chemical_formula_structural   MnH4S(NO2)2
_chemical_formula_sum   'Mn4 H16 S4 N8 O16'
_cell_volume   492.34690933
_cell_formula_units_Z   4
loop_
 _symmetry_equiv_pos_site_id
 _symmetry_equiv_pos_as_xyz
  1  'x, y, z'
loop_
 _atom_site_type_symbol
 _atom_site_label
 _atom_site_symmetry_multiplicity
 _atom_site_fract_x
 _atom_site_fract_y
 _atom_site_fract_z
 _atom_site_occupancy
  Mn  Mn0  1  0.00000000  0.50000000  0.50000000  1
  Mn  Mn1  1  0.50000000  0.00000000  0.50000000  1
  Mn  Mn2  1  0.50000000  0.50000000  0.00000000  1
  Mn  Mn3  1  0.00000000  0.00000000  0.00000000  1
  H  H0  1  0.30376700  0.37605900  0.67645700  1
  H  H1  1  0.19623300  0.12394100  0.67645700  1
  H  H2  1  0.80376700  0.62394100  0.82354300  1
  H  H3  1  0.69623300  0.87605900  0.82354300  1
  H  H4  1  0.69623300  0.62394100  0.32354300  1
  H  H5  1  0.80376700  0.87605900  0.32354300  1
  H  H6  1  0.19623300  0.37605900  0.17645700  1
  H  H7  1  0.30376700  0.12394100  0.17645700  1
  H  H8  1  0.38087600  0.36611400  0.50691600  1
  H  H9  1  0.11912400  0.13388600  0.50691600  1
  H  H10  1  0.88087600  0.63388600  0.99308400  1
  H  H11  1  0.61912400  0.86611400  0.99308400  1
  H  H12  1  0.61912400  0.63388600  0.49308400  1
  H  H13  1  0.88087600  0.86611400  0.49308400  1
  H  H14  1  0.11912400  0.36611400  0.00691600  1
  H  H15  1  0.38087600  0.13388600  0.00691600  1
  S  S0  1  0.75000000  0.25000000  0.75967200  1
  S  S1  1  0.25000000  0.75000000  0.74032800  1
  S  S2  1  0.25000000  0.75000000  0.24032800  1
  S  S3  1  0.75000000  0.25000000  0.25967200  1
  N  N0  1  0.26141800  0.34102100  0.57323700  1
  N  N1  1  0.23858200  0.15897900  0.57323700  1
  N  N2  1  0.76141800  0.65897900  0.92676300  1
  N  N3  1  0.73858200  0.84102100  0.92676300  1
  N  N4  1  0.73858200  0.65897900  0.42676300  1
  N  N5  1  0.76141800  0.84102100  0.42676300  1
  N  N6  1  0.23858200  0.34102100  0.07323700  1
  N  N7  1  0.26141800  0.15897900  0.07323700  1
  O  O0  1  0.92670000  0.20830800  0.85201800  1
  O  O1  1  0.57330000  0.29169200  0.85201800  1
  O  O2  1  0.42670000  0.79169200  0.64798200  1
  O  O3  1  0.07330000  0.70830800  0.64798200  1
  O  O4  1  0.07330000  0.79169200  0.14798200  1
  O  O5  1  0.42670000  0.70830800  0.14798200  1
  O  O6  1  0.57330000  0.20830800  0.35201800  1
  O  O7  1  0.92670000  0.29169200  0.35201800  1
  O  O8  1  0.79959300  0.39826700  0.66835100  1
  O  O9  1  0.70040700  0.10173300  0.66835100  1
  O  O10  1  0.29959400  0.60173300  0.83164900  1
  O  O11  1  0.20040600  0.89826700  0.83164900  1
  O  O12  1  0.20040600  0.60173300  0.33164900  1
  O  O13  1  0.29959400  0.89826700  0.33164900  1
  O  O14  1  0.70040700  0.39826700  0.16835100  1
  O  O15  1  0.79959300  0.10173300  0.16835100  1
loop_
_geom_bond_atom_site_label_1
_geom_bond_atom_site_label_2
_geom_bond_distance
_geom_bond_site_symmetry_2
Mn0 O12 2.204041 1_555
Mn0 O8 2.204045 1_455
Mn0 O3 2.205913 1_555
Mn0 O7 2.205913 1_455
Mn0 N4 2.266338 1_455
Mn0 N0 2.266338 1_555
Mn1 O13 2.204041 1_545
Mn1 O9 2.204045 1_555
Mn1 O6 2.205913 1_555
Mn1 O2 2.205913 1_545
Mn1 N1 2.266338 1_555
Mn1 N5 2.266338 1_545
Mn2 O10 2.204041 1_554
Mn2 O14 2.204045 1_555
Mn2 O5 2.205913 1_555
Mn2 O1 2.205913 1_554
Mn2 N2 2.266338 1_554
Mn2 N6 2.266338 1_555
Mn3 O11 2.204041 1_544
Mn3 O15 2.204045 1_455
Mn3 O4 2.205913 1_545
Mn3 O0 2.205913 1_454
Mn3 N7 2.266338 1_555
Mn3 N3 2.266338 1_444
H0 N0 1.028973 1_555
H1 N1 1.028973 1_555
H2 N2 1.028973 1_555
H3 N3 1.028973 1_555
H4 N4 1.028973 1_555
H5 N5 1.028973 1_555
H6 N6 1.028973 1_555
H7 N7 1.028973 1_555
H8 N0 1.025717 1_555
H9 N1 1.025717 1_555
H10 N2 1.025717 1_555
H11 N3 1.025717 1_555
H12 N4 1.025717 1_555
H13 N5 1.025717 1_555
H14 N6 1.025717 1_555
H15 N7 1.025717 1_555
O0 S0 1.494143 1_555
O1 S0 1.494143 1_555
O2 S1 1.494143 1_555
O3 S1 1.494143 1_555
O4 S2 1.494143 1_555
O5 S2 1.494143 1_555
O6 S3 1.494143 1_555
O7 S3 1.494143 1_555
O8 S0 1.490233 1_555
O9 S0 1.490233 1_555
O10 S1 1.490235 1_555
O11 S1 1.490235 1_555
O12 S2 1.490235 1_555
O13 S2 1.490235 1_555
O14 S3 1.490233 1_555
O15 S3 1.490233 1_555
