# generated using pymatgen
data_Mn2SiMo
_symmetry_space_group_name_H-M   'P 1'
_cell_length_a   4.66783984
_cell_length_b   4.66783984
_cell_length_c   7.77080007
_cell_angle_alpha   87.86022688
_cell_angle_beta   87.86022688
_cell_angle_gamma   61.26087889
_symmetry_Int_Tables_number   1
_chemical_formula_structural   Mn2SiMo
_chemical_formula_sum   'Mn6 Si3 Mo3'
_cell_volume   148.31937174
_cell_formula_units_Z   3
loop_
 _symmetry_equiv_pos_site_id
 _symmetry_equiv_pos_as_xyz
  1  'x, y, z'
loop_
 _atom_site_type_symbol
 _atom_site_label
 _atom_site_symmetry_multiplicity
 _atom_site_fract_x
 _atom_site_fract_y
 _atom_site_fract_z
 _atom_site_occupancy
  Mn  Mn0  1  0.98919700  0.98919700  0.49477700  1
  Mn  Mn1  1  0.00928800  0.00928800  0.00825900  1
  Mn  Mn2  1  0.81728000  0.81728000  0.25041600  1
  Mn  Mn3  1  0.81261800  0.33416500  0.25658700  1
  Mn  Mn4  1  0.33416500  0.81261800  0.25658700  1
  Mn  Mn5  1  0.18253200  0.18253200  0.72962200  1
  Si  Si0  1  0.17820400  0.67425900  0.76450500  1
  Si  Si1  1  0.67425900  0.17820400  0.76450500  1
  Si  Si2  1  0.31497900  0.31497900  0.40813600  1
  Mo  Mo0  1  0.68672300  0.68672300  0.56581300  1
  Mo  Mo1  1  0.67273000  0.67273000  0.93823800  1
  Mo  Mo2  1  0.32829800  0.32829800  0.06262900  1
loop_
_geom_bond_atom_site_label_1
_geom_bond_atom_site_label_2
_geom_bond_distance
_geom_bond_site_symmetry_2
Mn0 Mn3 2.305050 1_565
Mn0 Mn4 2.305050 1_655
Mn0 Mn2 2.395946 1_555
Mn0 Mn5 2.447120 1_665
Mn0 Si1 2.448161 1_565
Mn0 Si0 2.448161 1_655
Mn0 Mo0 2.468246 1_555
Mn0 Si2 2.673809 1_665
Mn0 Si2 2.854785 1_655
Mn0 Si2 2.854785 1_565
Mn0 Mo0 2.924823 1_565
Mn0 Mo0 2.924823 1_655
Mn1 Si0 2.362015 1_544
Mn1 Si1 2.362015 1_454
Mn1 Mn4 2.369326 1_545
Mn1 Mn3 2.369326 1_455
Mn1 Mn2 2.380790 1_445
Mn1 Mn5 2.522600 1_554
Mn1 Mo2 2.615256 1_555
Mn1 Mo1 2.759348 1_544
Mn1 Mo1 2.759348 1_454
Mn1 Mo1 2.780860 1_444
Mn1 Mo2 2.809832 1_455
Mn1 Mo2 2.809832 1_545
Mn2 Mn3 2.264355 1_555
Mn2 Mn4 2.264355 1_555
Mn2 Mn3 2.404608 1_565
Mn2 Mn4 2.404608 1_655
Mn2 Mo0 2.623682 1_555
Mn2 Si2 2.675184 1_655
Mn2 Si2 2.675184 1_565
Mn2 Mo1 2.734532 1_554
Mn2 Mo2 2.789653 1_565
Mn2 Mo2 2.789653 1_655
Mn3 Mn4 2.275769 1_555
Mn3 Mn4 2.480747 1_645
Mn3 Si2 2.603585 1_555
Mn3 Si2 2.624887 1_655
Mn3 Mo2 2.774957 1_555
Mn3 Mo2 2.781256 1_655
Mn3 Mo1 2.807147 1_554
Mn3 Mo0 2.843862 1_555
Mn4 Si2 2.603585 1_555
Mn4 Si2 2.624887 1_565
Mn4 Mo2 2.774957 1_555
Mn4 Mo2 2.781256 1_565
Mn4 Mo1 2.807147 1_554
Mn4 Mo0 2.843862 1_555
Mn5 Si1 2.311658 1_555
Mn5 Si0 2.311658 1_555
Mn5 Si1 2.387567 1_455
Mn5 Si0 2.387567 1_545
Mn5 Si2 2.672519 1_555
Mn5 Mo0 2.697011 1_545
Mn5 Mo0 2.697011 1_455
Mn5 Mo1 2.877367 1_545
Mn5 Mo1 2.877367 1_455
Mn5 Mo2 2.886250 1_556
Si0 Si1 2.359494 1_555
Si0 Si1 2.397022 1_465
Mo0 Si1 2.789247 1_565
Mo0 Si0 2.789247 1_655
Mo0 Si1 2.806084 1_555
Mo0 Si0 2.806084 1_555
Mo0 Si2 2.847694 1_655
Mo0 Si2 2.847694 1_565
Mo0 Mo1 2.891344 1_555
Mo1 Si0 2.677197 1_655
Mo1 Si1 2.677197 1_565
Mo1 Si0 2.714293 1_555
Mo1 Si1 2.714293 1_555
Mo1 Mo2 2.873503 1_656
Mo1 Mo2 2.873503 1_566
Mo1 Mo2 2.890972 1_556
Mo2 Si2 2.682354 1_555
Mo2 Si0 2.686907 1_554
Mo2 Si1 2.686907 1_554
