# generated using pymatgen
data_Li4Ce3Ge4
_symmetry_space_group_name_H-M   'P 1'
_cell_length_a   4.48546000
_cell_length_b   6.80663800
_cell_length_c   8.34232817
_cell_angle_alpha   114.07662006
_cell_angle_beta   105.59509841
_cell_angle_gamma   90.00000000
_symmetry_Int_Tables_number   1
_chemical_formula_structural   Li4Ce3Ge4
_chemical_formula_sum   'Li4 Ce3 Ge4'
_cell_volume   222.23062281
_cell_formula_units_Z   1
loop_
 _symmetry_equiv_pos_site_id
 _symmetry_equiv_pos_as_xyz
  1  'x, y, z'
loop_
 _atom_site_type_symbol
 _atom_site_label
 _atom_site_symmetry_multiplicity
 _atom_site_fract_x
 _atom_site_fract_y
 _atom_site_fract_z
 _atom_site_occupancy
  Li  Li0  1  0.67043600  0.98112000  0.34087300  1
  Li  Li1  1  0.32956400  0.01887900  0.65912700  1
  Li  Li2  1  0.32956400  0.64024800  0.65912700  1
  Li  Li3  1  0.67043600  0.35975200  0.34087300  1
  Ce  Ce0  1  0.00000000  0.00000000  0.00000000  1
  Ce  Ce1  1  0.13032000  0.63032000  0.26064000  1
  Ce  Ce2  1  0.86968000  0.36968000  0.73936000  1
  Ge  Ge0  1  0.50000000  0.68829200  0.00000000  1
  Ge  Ge1  1  0.50000000  0.31170800  0.00000000  1
  Ge  Ge2  1  0.78619100  0.78619100  0.57238200  1
  Ge  Ge3  1  0.21380900  0.21380900  0.42761800  1
loop_
_geom_bond_atom_site_label_1
_geom_bond_atom_site_label_2
_geom_bond_distance
_geom_bond_site_symmetry_2
Ce0 Ge0 3.087293 1_545
Ce0 Ge0 3.087293 1_445
Ce0 Ge1 3.087293 1_555
Ce0 Ge1 3.087293 1_455
Ce0 Ge3 3.112578 1_555
Ce0 Ge2 3.112578 1_444
Ce1 Li0 3.137338 1_555
Ce1 Li0 3.137341 1_455
Ce1 Li3 3.137343 1_555
Ce1 Li3 3.137346 1_455
Ce1 Li2 3.173895 1_555
Ce1 Li1 3.173895 1_565
Ce1 Ge2 3.190422 1_555
Ce1 Ge2 3.190422 1_455
Ce1 Ge1 3.204944 1_555
Ce1 Ge0 3.204944 1_455
Ce1 Ge0 3.204944 1_555
Ce1 Ge1 3.204944 1_455
Ce2 Li2 3.137343 1_555
Ce2 Li1 3.137343 1_555
Ce2 Li2 3.137346 1_655
Ce2 Li1 3.137346 1_655
Ce2 Li3 3.173895 1_555
Ce2 Li0 3.173898 1_545
Ce2 Ge3 3.190422 1_655
Ce2 Ge3 3.190422 1_555
Ce2 Ge1 3.204944 1_656
Ce2 Ge0 3.204944 1_656
Ce2 Ge0 3.204944 1_556
Ce2 Ge1 3.204944 1_556
Ge0 Ge1 2.563271 1_555
Ge0 Li0 2.617294 1_555
Ge0 Li2 2.617296 1_554
Ge1 Li3 2.617296 1_555
Ge1 Li1 2.617296 1_554
Ge2 Li2 2.662517 1_555
Ge2 Li1 2.662517 1_565
Ge2 Li2 2.662521 1_655
Ge2 Li1 2.662521 1_665
Ge2 Li0 2.704005 1_555
Ge2 Li3 2.704011 1_555
Ge3 Li3 2.662517 1_555
Ge3 Li0 2.662520 1_545
Ge3 Li3 2.662521 1_455
Ge3 Li0 2.662524 1_445
Ge3 Li2 2.704011 1_555
Ge3 Li1 2.704011 1_555
