# generated using pymatgen
data_BeCN2
_symmetry_space_group_name_H-M   'P 1'
_cell_length_a   4.23927908
_cell_length_b   4.39677394
_cell_length_c   5.28857009
_cell_angle_alpha   90.00000000
_cell_angle_beta   90.00000000
_cell_angle_gamma   90.00000000
_symmetry_Int_Tables_number   1
_chemical_formula_structural   BeCN2
_chemical_formula_sum   'Be4 C4 N8'
_cell_volume   98.57446062
_cell_formula_units_Z   4
loop_
 _symmetry_equiv_pos_site_id
 _symmetry_equiv_pos_as_xyz
  1  'x, y, z'
loop_
 _atom_site_type_symbol
 _atom_site_label
 _atom_site_symmetry_multiplicity
 _atom_site_fract_x
 _atom_site_fract_y
 _atom_site_fract_z
 _atom_site_occupancy
  Be  Be0  1  0.99272786  0.58624340  0.87498958  1
  Be  Be1  1  0.49272786  0.41375660  0.12501042  1
  Be  Be2  1  0.49272786  0.91375660  0.37498958  1
  Be  Be3  1  0.99272786  0.08624340  0.62501042  1
  C  C0  1  0.99439394  0.56805158  0.37495484  1
  C  C1  1  0.49439394  0.43194842  0.62504516  1
  C  C2  1  0.49439394  0.93194842  0.87495484  1
  C  C3  1  0.99439394  0.06805158  0.12504516  1
  N  N0  1  0.34905303  0.55864591  0.39672424  1
  N  N1  1  0.84905303  0.44135409  0.60327576  1
  N  N2  1  0.84905303  0.94135409  0.89672424  1
  N  N3  1  0.34905303  0.05864591  0.10327576  1
  N  N4  1  0.39182617  0.60755025  0.85257565  1
  N  N5  1  0.89182617  0.39244975  0.14742435  1
  N  N6  1  0.89182617  0.89244975  0.35257565  1
  N  N7  1  0.39182617  0.10755025  0.64742435  1
loop_
_geom_bond_atom_site_label_1
_geom_bond_atom_site_label_2
_geom_bond_distance
_geom_bond_site_symmetry_2
Be0 N2 1.679874 1_555
Be0 N1 1.685736 1_555
Be0 N4 1.698622 1_655
Be0 N5 1.727676 1_556
Be1 N3 1.679874 1_555
Be1 N0 1.685736 1_555
Be1 N5 1.698622 1_555
Be1 N4 1.727676 1_554
Be2 N0 1.679874 1_555
Be2 N3 1.685736 1_565
Be2 N6 1.698622 1_555
Be2 N7 1.727676 1_565
Be3 N1 1.679874 1_555
Be3 N2 1.685736 1_545
Be3 N7 1.698622 1_655
Be3 N6 1.727676 1_545
C0 N1 1.465599 1_555
C0 N5 1.494366 1_555
C0 N6 1.495800 1_555
C0 N0 1.508467 1_655
C1 N0 1.465599 1_555
C1 N4 1.494366 1_555
C1 N7 1.495800 1_555
C1 N1 1.508467 1_555
C2 N3 1.465599 1_566
C2 N7 1.494366 1_565
C2 N4 1.495800 1_555
C2 N2 1.508467 1_555
C3 N2 1.465599 1_544
C3 N6 1.494366 1_545
C3 N5 1.495800 1_555
C3 N3 1.508467 1_655
