# generated using pymatgen
data_Li3Co2NiO6
_symmetry_space_group_name_H-M   'P 1'
_cell_length_a   2.91235935
_cell_length_b   2.91235935
_cell_length_c   14.42929100
_cell_angle_alpha   90.00000000
_cell_angle_beta   90.00000000
_cell_angle_gamma   119.99998534
_symmetry_Int_Tables_number   1
_chemical_formula_structural   Li3Co2NiO6
_chemical_formula_sum   'Li3 Co2 Ni1 O6'
_cell_volume   105.99017534
_cell_formula_units_Z   1
loop_
 _symmetry_equiv_pos_site_id
 _symmetry_equiv_pos_as_xyz
  1  'x, y, z'
loop_
 _atom_site_type_symbol
 _atom_site_label
 _atom_site_symmetry_multiplicity
 _atom_site_fract_x
 _atom_site_fract_y
 _atom_site_fract_z
 _atom_site_occupancy
  Li  Li0  1  0.33333300  0.66666700  0.16389700  1
  Li  Li1  1  0.00000000  0.00000000  0.50000000  1
  Li  Li2  1  0.66666700  0.33333300  0.83610300  1
  Co  Co0  1  0.66666700  0.33333300  0.33380200  1
  Co  Co1  1  0.33333300  0.66666700  0.66619800  1
  Ni  Ni0  1  0.00000000  0.00000000  0.00000000  1
  O  O0  1  0.66666700  0.33333300  0.07592700  1
  O  O1  1  0.33333300  0.66666700  0.40883300  1
  O  O2  1  0.00000000  0.00000000  0.73924300  1
  O  O3  1  0.00000000  0.00000000  0.26075700  1
  O  O4  1  0.66666700  0.33333300  0.59116700  1
  O  O5  1  0.33333300  0.66666700  0.92407300  1
loop_
_geom_bond_atom_site_label_1
_geom_bond_atom_site_label_2
_geom_bond_distance
_geom_bond_site_symmetry_2
Li0 O0 2.106777 1_455
Li0 O0 2.106777 1_565
Li0 O0 2.106781 1_555
Li0 O3 2.186462 1_565
Li0 O3 2.186465 1_555
Li0 O3 2.186465 1_665
Li1 O1 2.134888 1_545
Li1 O4 2.134888 1_455
Li1 O1 2.134891 1_555
Li1 O4 2.134891 1_555
Li1 O1 2.134891 1_445
Li1 O4 2.134891 1_445
Li2 O5 2.106777 1_655
Li2 O5 2.106777 1_545
Li2 O5 2.106781 1_555
Li2 O2 2.186462 1_655
Li2 O2 2.186465 1_665
Li2 O2 2.186465 1_555
Co0 O3 1.984480 1_655
Co0 O3 1.984483 1_665
Co0 O3 1.984483 1_555
Co0 O1 1.999848 1_545
Co0 O1 1.999848 1_655
Co0 O1 1.999852 1_555
Co1 O2 1.984480 1_565
Co1 O2 1.984483 1_555
Co1 O2 1.984483 1_665
Co1 O4 1.999848 1_455
Co1 O4 1.999848 1_565
Co1 O4 1.999852 1_555
Ni0 O0 2.006876 1_455
Ni0 O5 2.006876 1_544
Ni0 O5 2.006879 1_554
Ni0 O0 2.006879 1_555
Ni0 O0 2.006879 1_445
Ni0 O5 2.006879 1_444
