# generated using pymatgen
data_CsTm(MoO4)2
_symmetry_space_group_name_H-M   'P 1'
_cell_length_a   5.07385400
_cell_length_b   8.06105300
_cell_length_c   9.59945300
_cell_angle_alpha   90.00000000
_cell_angle_beta   90.00000000
_cell_angle_gamma   90.00000000
_symmetry_Int_Tables_number   1
_chemical_formula_structural   CsTm(MoO4)2
_chemical_formula_sum   'Cs2 Tm2 Mo4 O16'
_cell_volume   392.62344505
_cell_formula_units_Z   2
loop_
 _symmetry_equiv_pos_site_id
 _symmetry_equiv_pos_as_xyz
  1  'x, y, z'
loop_
 _atom_site_type_symbol
 _atom_site_label
 _atom_site_symmetry_multiplicity
 _atom_site_fract_x
 _atom_site_fract_y
 _atom_site_fract_z
 _atom_site_occupancy
  Cs  Cs0  1  0.00000000  0.25000000  0.50000000  1
  Cs  Cs1  1  0.00000000  0.75000000  0.50000000  1
  Tm  Tm0  1  0.00000000  0.25000000  0.00000000  1
  Tm  Tm1  1  0.00000000  0.75000000  0.00000000  1
  Mo  Mo0  1  0.52186700  0.00000000  0.19363900  1
  Mo  Mo1  1  0.47813300  0.00000000  0.80636100  1
  Mo  Mo2  1  0.47813300  0.50000000  0.19363900  1
  Mo  Mo3  1  0.52186700  0.50000000  0.80636100  1
  O  O0  1  0.24538600  0.00000000  0.06448900  1
  O  O1  1  0.75461400  0.00000000  0.93551100  1
  O  O2  1  0.75461400  0.50000000  0.06448900  1
  O  O3  1  0.24538600  0.50000000  0.93551100  1
  O  O4  1  0.25825400  0.32327400  0.18448900  1
  O  O5  1  0.74174600  0.67672600  0.81551100  1
  O  O6  1  0.74174600  0.32327400  0.81551100  1
  O  O7  1  0.74174600  0.17672600  0.18448900  1
  O  O8  1  0.25825400  0.67672600  0.18448900  1
  O  O9  1  0.25825400  0.82327400  0.81551100  1
  O  O10  1  0.25825400  0.17672600  0.81551100  1
  O  O11  1  0.74174600  0.82327400  0.18448900  1
  O  O12  1  0.38536100  0.00000000  0.36132500  1
  O  O13  1  0.61463900  0.00000000  0.63867500  1
  O  O14  1  0.61463900  0.50000000  0.36132500  1
  O  O15  1  0.38536100  0.50000000  0.63867500  1
loop_
_geom_bond_atom_site_label_1
_geom_bond_atom_site_label_2
_geom_bond_distance
_geom_bond_site_symmetry_2
Cs0 O15 3.107483 1_555
Cs0 O12 3.107483 1_555
Cs0 O14 3.107483 1_455
Cs0 O13 3.107483 1_455
Cs0 O4 3.352478 1_555
Cs0 O10 3.352478 1_555
Cs0 O6 3.352478 1_455
Cs0 O7 3.352478 1_455
Cs1 O12 3.107483 1_565
Cs1 O15 3.107483 1_555
Cs1 O14 3.107483 1_455
Cs1 O13 3.107483 1_465
Cs1 O11 3.352478 1_455
Cs1 O9 3.352478 1_555
Cs1 O5 3.352478 1_455
Cs1 O8 3.352478 1_555
Mo0 O12 1.752377 1_555
Mo0 O7 1.811583 1_555
Mo0 O11 1.811583 1_545
Mo0 O0 1.872150 1_555
Mo1 O13 1.752377 1_555
Mo1 O10 1.811583 1_555
Mo1 O9 1.811583 1_545
Mo1 O1 1.872150 1_555
Mo2 O14 1.752377 1_555
Mo2 O8 1.811583 1_555
Mo2 O4 1.811583 1_555
Mo2 O2 1.872150 1_555
Mo3 O15 1.752377 1_555
Mo3 O5 1.811583 1_555
Mo3 O6 1.811583 1_555
Mo3 O3 1.872150 1_555
O0 Tm1 2.448403 1_545
O0 Tm0 2.448403 1_555
O1 Tm1 2.448403 1_646
O1 Tm0 2.448403 1_656
O2 Tm0 2.448403 1_655
O2 Tm1 2.448403 1_655
O3 Tm0 2.448403 1_556
O3 Tm1 2.448403 1_556
O4 Tm0 2.280856 1_555
O5 Tm1 2.280856 1_656
O6 Tm0 2.280856 1_656
O7 Tm0 2.280856 1_655
O8 Tm1 2.280856 1_555
O9 Tm1 2.280856 1_556
O10 Tm0 2.280856 1_556
O11 Tm1 2.280856 1_655
