# generated using pymatgen
data_Mg2Si3
_symmetry_space_group_name_H-M   'P 1'
_cell_length_a   4.08293600
_cell_length_b   5.36773055
_cell_length_c   17.44594085
_cell_angle_alpha   84.52857901
_cell_angle_beta   84.17356816
_cell_angle_gamma   69.61270693
_symmetry_Int_Tables_number   1
_chemical_formula_structural   Mg2Si3
_chemical_formula_sum   'Mg8 Si12'
_cell_volume   355.80658947
_cell_formula_units_Z   4
loop_
 _symmetry_equiv_pos_site_id
 _symmetry_equiv_pos_as_xyz
  1  'x, y, z'
loop_
 _atom_site_type_symbol
 _atom_site_label
 _atom_site_symmetry_multiplicity
 _atom_site_fract_x
 _atom_site_fract_y
 _atom_site_fract_z
 _atom_site_occupancy
  Mg  Mg0  1  0.94585500  0.31441500  0.80244000  1
  Mg  Mg1  1  0.46585600  0.87380900  0.19888500  1
  Mg  Mg2  1  0.17212400  0.73845200  0.91068800  1
  Mg  Mg3  1  0.21329900  0.49319700  0.09504000  1
  Mg  Mg4  1  0.16189100  0.42505600  0.30018000  1
  Mg  Mg5  1  0.26895000  0.73288000  0.70208900  1
  Mg  Mg6  1  0.65791600  0.19132900  0.45001200  1
  Mg  Mg7  1  0.02114500  0.33907300  0.59340100  1
  Si  Si0  1  0.82517600  0.40079800  0.97540800  1
  Si  Si1  1  0.92778200  0.06687800  0.08243100  1
  Si  Si2  1  0.45875800  0.17026200  0.91660400  1
  Si  Si3  1  0.55021700  0.85045900  0.02832800  1
  Si  Si4  1  0.86130600  0.99368300  0.30512400  1
  Si  Si5  1  0.54947300  0.18294800  0.69842000  1
  Si  Si6  1  0.42412600  0.81044000  0.37501800  1
  Si  Si7  1  0.35659100  0.74988600  0.52336600  1
  Si  Si8  1  0.98427000  0.57058500  0.44657700  1
  Si  Si9  1  0.74590300  0.91018700  0.59145800  1
  Si  Si10  1  0.65654800  0.86734100  0.80856900  1
  Si  Si11  1  0.75363700  0.31831100  0.19612000  1
loop_
_geom_bond_atom_site_label_1
_geom_bond_atom_site_label_2
_geom_bond_distance
_geom_bond_site_symmetry_2
Mg0 Si10 2.794238 1_555
Mg0 Si5 2.826585 1_655
Mg0 Si5 2.836664 1_555
Mg0 Si2 2.893961 1_655
Mg0 Si2 2.914606 1_555
Mg0 Si10 3.010987 1_545
Mg0 Si10 3.058220 1_645
Mg0 Si0 3.060947 1_555
Mg1 Si11 2.801562 1_555
Mg1 Si4 2.831084 1_555
Mg1 Si4 2.852010 1_455
Mg1 Si3 2.970028 1_555
Mg1 Si1 2.990147 1_565
Mg1 Si1 2.991066 1_465
Mg1 Si11 2.999264 1_565
Mg1 Si6 3.053134 1_555
Mg1 Si11 3.053483 1_465
Mg2 Si10 2.750910 1_555
Mg2 Si10 2.756009 1_455
Mg2 Si0 2.764104 1_455
Mg2 Si2 2.856530 1_555
Mg2 Si3 2.912367 1_556
Mg2 Si0 2.919467 1_555
Mg2 Si2 2.951734 1_565
Mg2 Si3 3.022374 1_456
Mg2 Si2 3.024468 1_465
Mg3 Si11 2.784435 1_455
Mg3 Si11 2.808801 1_555
Mg3 Si3 2.830492 1_555
Mg3 Si1 2.882992 1_465
Mg3 Si0 2.920558 1_454
Mg3 Si1 2.941201 1_455
Mg3 Si3 2.993077 1_455
Mg3 Si1 3.018216 1_555
Mg3 Si0 3.019720 1_554
Mg4 Si8 2.696097 1_455
Mg4 Si11 2.793697 1_555
Mg4 Si11 2.807264 1_455
Mg4 Si4 2.872038 1_455
Mg4 Si4 2.965718 1_445
Mg4 Si4 2.988100 1_545
Mg4 Si6 3.077711 1_555
Mg5 Si5 2.774006 1_555
Mg5 Si10 2.850358 1_555
Mg5 Si9 2.874377 1_455
Mg5 Si10 2.877330 1_455
Mg5 Si9 2.932762 1_555
Mg5 Si5 3.005947 1_565
Mg5 Si5 3.087711 1_465
Mg5 Si7 3.098419 1_555
Mg6 Si9 2.754610 1_545
Mg6 Si4 2.770530 1_545
Mg6 Si8 2.788157 1_555
Mg6 Si8 2.796767 1_455
Mg6 Si6 2.987696 1_545
Mg6 Si8 3.132053 1_545
Mg6 Si7 3.146311 1_545
Mg6 Si7 3.159505 1_555
Mg7 Si8 2.732961 1_455
Mg7 Si5 2.807687 1_455
Mg7 Si5 2.821774 1_555
Mg7 Si9 2.872196 1_455
Mg7 Si9 2.896391 1_445
Mg7 Si9 3.050521 1_545
Mg7 Si7 3.079281 1_555
Mg7 Si7 3.115803 1_455
Si0 Si1 2.423170 1_556
Si0 Si3 2.503009 1_556
Si0 Si2 2.581764 1_555
Si0 Si2 2.597811 1_655
Si1 Si11 2.411746 1_555
Si1 Si3 2.522715 1_645
Si1 Si3 2.523704 1_545
Si2 Si3 2.438939 1_546
Si4 Si6 2.488593 1_555
Si4 Si6 2.549573 1_655
Si5 Si9 2.380760 1_545
Si6 Si7 2.576223 1_555
Si6 Si8 2.582307 1_555
Si6 Si8 2.700122 1_455
Si7 Si9 2.491868 1_555
Si7 Si9 2.543099 1_455
Si7 Si8 2.590476 1_455
Si7 Si8 2.668166 1_555
Si10 Si5 2.405737 1_565
Si10 Si2 2.491770 1_565
Si11 Si4 2.418697 1_545
