# generated using pymatgen
data_SmAlGa
_symmetry_space_group_name_H-M   'P 1'
_cell_length_a   4.27217756
_cell_length_b   4.27217756
_cell_length_c   4.24314368
_cell_angle_alpha   90.00000000
_cell_angle_beta   90.00000000
_cell_angle_gamma   119.99999223
_symmetry_Int_Tables_number   1
_chemical_formula_structural   SmAlGa
_chemical_formula_sum   'Sm1 Al1 Ga1'
_cell_volume   67.06825275
_cell_formula_units_Z   1
loop_
 _symmetry_equiv_pos_site_id
 _symmetry_equiv_pos_as_xyz
  1  'x, y, z'
loop_
 _atom_site_type_symbol
 _atom_site_label
 _atom_site_symmetry_multiplicity
 _atom_site_fract_x
 _atom_site_fract_y
 _atom_site_fract_z
 _atom_site_occupancy
  Sm  Sm0  1  0.33333300  0.66666700  0.00000000  1
  Al  Al0  1  0.66666700  0.33333300  0.50000000  1
  Ga  Ga0  1  0.00000000  -0.00000000  0.50000000  1
loop_
_geom_bond_atom_site_label_1
_geom_bond_atom_site_label_2
_geom_bond_distance
_geom_bond_site_symmetry_2
Al0 Ga0 2.466540 1_655
Al0 Ga0 2.466544 1_665
Al0 Ga0 2.466544 1_555
Al0 Sm0 3.253443 1_656
Al0 Sm0 3.253443 1_545
Al0 Sm0 3.253443 1_546
Al0 Sm0 3.253443 1_655
Al0 Sm0 3.253448 1_556
Al0 Sm0 3.253448 1_555
Ga0 Sm0 3.253443 1_545
Ga0 Sm0 3.253443 1_546
Ga0 Sm0 3.253446 1_556
Ga0 Sm0 3.253446 1_446
Ga0 Sm0 3.253446 1_555
Ga0 Sm0 3.253446 1_445
