# generated using pymatgen
data_LiV(CO3)2
_symmetry_space_group_name_H-M   'P 1'
_cell_length_a   7.07650595
_cell_length_b   9.38274379
_cell_length_c   7.07614942
_cell_angle_alpha   70.80387749
_cell_angle_beta   111.68456681
_cell_angle_gamma   109.14161006
_symmetry_Int_Tables_number   1
_chemical_formula_structural   LiV(CO3)2
_chemical_formula_sum   'Li4 V4 C8 O24'
_cell_volume   400.74373436
_cell_formula_units_Z   4
loop_
 _symmetry_equiv_pos_site_id
 _symmetry_equiv_pos_as_xyz
  1  'x, y, z'
loop_
 _atom_site_type_symbol
 _atom_site_label
 _atom_site_symmetry_multiplicity
 _atom_site_fract_x
 _atom_site_fract_y
 _atom_site_fract_z
 _atom_site_occupancy
  Li  Li0  1  0.41870100  0.37536200  0.91821500  1
  Li  Li1  1  0.91822500  0.62516200  0.41809700  1
  Li  Li2  1  0.41833200  0.87479400  0.91864000  1
  Li  Li3  1  0.91774800  0.12497100  0.41803600  1
  V  V0  1  0.34169700  0.00128300  0.34146800  1
  V  V1  1  0.84160300  0.24938000  0.84188900  1
  V  V2  1  0.34185300  0.50028100  0.34158200  1
  V  V3  1  0.84149000  0.74996900  0.84167900  1
  C  C0  1  0.11738700  0.55825300  0.88060200  1
  C  C1  1  0.61754800  0.80874800  0.38075200  1
  C  C2  1  0.11732600  0.05805500  0.88047400  1
  C  C3  1  0.61800900  0.30867500  0.38086700  1
  C  C4  1  0.38061300  0.19175200  0.61756200  1
  C  C5  1  0.88083400  0.44140900  0.11770300  1
  C  C6  1  0.38048800  0.69156400  0.61715100  1
  C  C7  1  0.88081500  0.94126700  0.11793800  1
  O  O0  1  0.24147000  0.61684300  0.48120600  1
  O  O1  1  0.74160600  0.86756600  0.98093400  1
  O  O2  1  0.24141700  0.11712700  0.48153700  1
  O  O3  1  0.74184100  0.36713100  0.98122300  1
  O  O4  1  0.75883500  0.37084000  0.52835800  1
  O  O5  1  0.25907200  0.62012700  0.02818600  1
  O  O6  1  0.75899900  0.87043400  0.52853600  1
  O  O7  1  0.25874400  0.11968300  0.02837000  1
  O  O8  1  0.02855400  0.37947500  0.25909400  1
  O  O9  1  0.52809200  0.62969500  0.75918400  1
  O  O10  1  0.02812600  0.87888500  0.25901300  1
  O  O11  1  0.52840600  0.12985800  0.75889100  1
  O  O12  1  0.37053700  0.32974500  0.61090300  1
  O  O13  1  0.87063000  0.57952000  0.11113100  1
  O  O14  1  0.37063500  0.82995200  0.60962300  1
  O  O15  1  0.87134100  0.07946500  0.11176700  1
  O  O16  1  0.11044400  0.41998900  0.87077000  1
  O  O17  1  0.61111800  0.67067000  0.37056600  1
  O  O18  1  0.11083100  0.92005600  0.87045300  1
  O  O19  1  0.61226400  0.17059600  0.37138500  1
  O  O20  1  0.98137800  0.13284300  0.74137800  1
  O  O21  1  0.48097700  0.38249700  0.24166800  1
  O  O22  1  0.98115600  0.63288300  0.74157200  1
  O  O23  1  0.48112300  0.88319600  0.24186500  1
loop_
_geom_bond_atom_site_label_1
_geom_bond_atom_site_label_2
_geom_bond_distance
_geom_bond_site_symmetry_2
Li0 O21 2.184794 1_556
Li0 O3 2.184834 1_555
Li0 O12 2.235366 1_555
Li0 O16 2.238714 1_555
Li0 O9 2.286170 1_555
Li0 O7 2.299006 1_556
Li1 O0 2.185683 1_655
Li1 O22 2.185748 1_555
Li1 O13 2.234166 1_555
Li1 O17 2.234366 1_555
Li1 O10 2.282514 1_655
Li1 O4 2.288230 1_555
Li2 O1 2.183835 1_555
Li2 O23 2.186196 1_556
Li2 O18 2.234780 1_555
Li2 O14 2.244737 1_555
Li2 O5 2.289565 1_556
Li2 O11 2.293715 1_565
Li3 O20 2.184308 1_555
Li3 O2 2.186710 1_655
Li3 O19 2.225319 1_555
Li3 O15 2.231038 1_555
Li3 O6 2.288836 1_545
Li3 O8 2.289037 1_655
C0 O5 1.294647 1_556
C0 O22 1.294747 1_455
C0 O16 1.305855 1_555
C1 O6 1.294238 1_555
C1 O23 1.294405 1_555
C1 O17 1.306155 1_555
C2 O20 1.294402 1_455
C2 O7 1.294442 1_556
C2 O18 1.304842 1_545
C3 O4 1.293479 1_555
C3 O21 1.294716 1_555
C3 O19 1.305847 1_555
C4 O11 1.294089 1_555
C4 O2 1.295081 1_555
C4 O12 1.304466 1_555
C5 O8 1.294059 1_655
C5 O3 1.294960 1_554
C5 O13 1.306095 1_555
C6 O9 1.294725 1_555
C6 O0 1.294813 1_555
C6 O14 1.305695 1_555
C7 O10 1.293333 1_655
C7 O1 1.294931 1_554
C7 O15 1.305904 1_565
O0 V2 2.101333 1_555
O1 V3 2.104571 1_555
O2 V0 2.097961 1_555
O3 V1 2.105550 1_555
O4 V1 2.092546 1_555
O5 V2 2.087498 1_555
O6 V3 2.087609 1_555
O7 V0 2.082143 1_555
O8 V2 2.090829 1_555
O9 V3 2.089956 1_555
O10 V0 2.096631 1_565
O11 V1 2.087082 1_555
O12 V2 2.038443 1_555
O13 V3 2.038659 1_554
O14 V0 2.037034 1_565
O15 V1 2.038095 1_554
O16 V1 2.038187 1_455
O17 V2 2.039060 1_555
O18 V3 2.037941 1_455
O19 V0 2.039938 1_555
O20 V1 2.102469 1_555
O21 V2 2.105273 1_555
O22 V3 2.103977 1_555
O23 V0 2.107651 1_565
