# generated using pymatgen
data_CdAu
_symmetry_space_group_name_H-M   'P 1'
_cell_length_a   6.18066415
_cell_length_b   6.18066415
_cell_length_c   9.20256410
_cell_angle_alpha   90.00000000
_cell_angle_beta   90.00000000
_cell_angle_gamma   119.99377121
_symmetry_Int_Tables_number   1
_chemical_formula_structural   CdAu
_chemical_formula_sum   'Cd8 Au8'
_cell_volume   304.46475708
_cell_formula_units_Z   8
loop_
 _symmetry_equiv_pos_site_id
 _symmetry_equiv_pos_as_xyz
  1  'x, y, z'
loop_
 _atom_site_type_symbol
 _atom_site_label
 _atom_site_symmetry_multiplicity
 _atom_site_fract_x
 _atom_site_fract_y
 _atom_site_fract_z
 _atom_site_occupancy
  Cd  Cd0_0  1  0.00000030  0.49999970  0.00000000  1
  Cd  Cd0_1  1  0.00000030  0.49999970  0.50000000  1
  Cd  Cd0_2  1  0.00000030  0.99999970  0.00000000  1
  Cd  Cd0_3  1  0.00000030  0.99999970  0.50000000  1
  Cd  Cd0_4  1  0.50000030  0.49999970  0.00000000  1
  Cd  Cd0_5  1  0.50000030  0.49999970  0.50000000  1
  Cd  Cd0_6  1  0.50000030  0.99999970  0.00000000  1
  Cd  Cd0_7  1  0.50000030  0.99999970  0.50000000  1
  Au  Au0_0  1  0.16666620  0.33333380  0.25000000  1
  Au  Au0_1  1  0.16666620  0.33333380  0.75000000  1
  Au  Au0_2  1  0.16666620  0.83333380  0.25000000  1
  Au  Au0_3  1  0.16666620  0.83333380  0.75000000  1
  Au  Au0_4  1  0.66666620  0.33333380  0.25000000  1
  Au  Au0_5  1  0.66666620  0.33333380  0.75000000  1
  Au  Au0_6  1  0.66666620  0.83333380  0.25000000  1
  Au  Au0_7  1  0.66666620  0.83333380  0.75000000  1
loop_
_geom_bond_atom_site_label_1
_geom_bond_atom_site_label_2
_geom_bond_distance
_geom_bond_site_symmetry_2
Cd0_0 Cd0_2 3.090332 1_545
Cd0_0 Cd0_4 3.090332 1_555
Cd0_0 Cd0_2 3.090332 1_555
Cd0_0 Cd0_4 3.090332 1_455
Cd0_0 Cd0_6 3.090623 1_555
Cd0_0 Cd0_6 3.090623 1_445
Cd0_1 Cd0_5 3.090332 1_555
Cd0_1 Cd0_3 3.090332 1_545
Cd0_1 Cd0_5 3.090332 1_455
Cd0_1 Cd0_3 3.090332 1_555
Cd0_1 Cd0_7 3.090623 1_555
Cd0_1 Cd0_7 3.090623 1_445
Cd0_2 Cd0_6 3.090332 1_555
Cd0_2 Cd0_6 3.090332 1_455
Cd0_2 Cd0_4 3.090623 1_565
Cd0_2 Cd0_4 3.090623 1_455
Cd0_3 Cd0_7 3.090332 1_555
Cd0_3 Cd0_7 3.090332 1_455
Cd0_3 Cd0_5 3.090623 1_455
Cd0_3 Cd0_5 3.090623 1_565
Cd0_4 Cd0_6 3.090332 1_545
Cd0_4 Cd0_6 3.090332 1_555
Cd0_5 Cd0_7 3.090332 1_545
Cd0_5 Cd0_7 3.090332 1_555
Au0_0 Cd0_0 2.911375 1_555
Au0_0 Cd0_1 2.911375 1_555
Au0_0 Cd0_2 2.911485 1_545
Au0_0 Cd0_3 2.911485 1_545
Au0_0 Cd0_5 2.911485 1_555
Au0_0 Cd0_4 2.911485 1_555
Au0_0 Au0_2 3.090332 1_555
Au0_0 Au0_4 3.090332 1_455
Au0_0 Au0_4 3.090332 1_555
Au0_0 Au0_2 3.090332 1_545
Au0_0 Au0_6 3.090623 1_555
Au0_0 Au0_6 3.090623 1_445
Au0_1 Cd0_0 2.911375 1_556
Au0_1 Cd0_1 2.911375 1_555
Au0_1 Cd0_3 2.911485 1_545
Au0_1 Cd0_2 2.911485 1_546
Au0_1 Cd0_4 2.911485 1_556
Au0_1 Cd0_5 2.911485 1_555
Au0_1 Au0_3 3.090332 1_555
Au0_1 Au0_5 3.090332 1_455
Au0_1 Au0_3 3.090332 1_545
Au0_1 Au0_5 3.090332 1_555
Au0_1 Au0_7 3.090623 1_445
Au0_1 Au0_7 3.090623 1_555
Au0_2 Cd0_2 2.911375 1_555
Au0_2 Cd0_3 2.911375 1_555
Au0_2 Cd0_0 2.911485 1_555
Au0_2 Cd0_1 2.911485 1_555
Au0_2 Cd0_7 2.911485 1_555
Au0_2 Cd0_6 2.911485 1_555
Au0_2 Au0_6 3.090332 1_555
Au0_2 Au0_6 3.090332 1_455
Au0_2 Au0_4 3.090623 1_565
Au0_2 Au0_4 3.090623 1_455
Au0_3 Cd0_2 2.911375 1_556
Au0_3 Cd0_3 2.911375 1_555
Au0_3 Cd0_0 2.911485 1_556
Au0_3 Cd0_1 2.911485 1_555
Au0_3 Cd0_6 2.911485 1_556
Au0_3 Cd0_7 2.911485 1_555
Au0_3 Au0_7 3.090332 1_555
Au0_3 Au0_7 3.090332 1_455
Au0_3 Au0_5 3.090623 1_455
Au0_3 Au0_5 3.090623 1_565
Au0_4 Cd0_5 2.911375 1_555
Au0_4 Cd0_4 2.911375 1_555
Au0_4 Cd0_7 2.911485 1_545
Au0_4 Cd0_6 2.911485 1_545
Au0_4 Cd0_0 2.911485 1_655
Au0_4 Cd0_1 2.911485 1_655
Au0_4 Au0_6 3.090332 1_545
Au0_4 Au0_6 3.090332 1_555
Au0_5 Cd0_4 2.911375 1_556
Au0_5 Cd0_5 2.911375 1_555
Au0_5 Cd0_6 2.911485 1_546
Au0_5 Cd0_7 2.911485 1_545
Au0_5 Cd0_0 2.911485 1_656
Au0_5 Cd0_1 2.911485 1_655
Au0_5 Au0_7 3.090332 1_545
Au0_5 Au0_7 3.090332 1_555
Au0_6 Cd0_6 2.911375 1_555
Au0_6 Cd0_7 2.911375 1_555
Au0_6 Cd0_5 2.911485 1_555
Au0_6 Cd0_4 2.911485 1_555
Au0_6 Cd0_2 2.911485 1_655
Au0_6 Cd0_3 2.911485 1_655
Au0_7 Cd0_6 2.911375 1_556
Au0_7 Cd0_7 2.911375 1_555
Au0_7 Cd0_5 2.911485 1_555
Au0_7 Cd0_4 2.911485 1_556
Au0_7 Cd0_3 2.911485 1_655
Au0_7 Cd0_2 2.911485 1_656
