# generated using pymatgen
data_Co2GeO4
_symmetry_space_group_name_H-M   'P 1'
_cell_length_a   5.87367999
_cell_length_b   5.87284232
_cell_length_c   5.87251371
_cell_angle_alpha   119.97360057
_cell_angle_beta   120.09713377
_cell_angle_gamma   89.92771835
_symmetry_Int_Tables_number   1
_chemical_formula_structural   Co2GeO4
_chemical_formula_sum   'Co4 Ge2 O8'
_cell_volume   143.17804278
_cell_formula_units_Z   2
loop_
 _symmetry_equiv_pos_site_id
 _symmetry_equiv_pos_as_xyz
  1  'x, y, z'
loop_
 _atom_site_type_symbol
 _atom_site_label
 _atom_site_symmetry_multiplicity
 _atom_site_fract_x
 _atom_site_fract_y
 _atom_site_fract_z
 _atom_site_occupancy
  Co  Co0  1  0.99999948  0.99999321  0.99999205  1
  Co  Co1  1  0.49999945  0.99998915  0.49998810  1
  Co  Co2  1  0.50000731  0.49998644  0.49998785  1
  Co  Co3  1  0.49999200  0.99998099  0.99997935  1
  Ge  Ge0  1  0.12522904  0.37602572  0.74922189  1
  Ge  Ge1  1  0.87477211  0.62397670  0.25078074  1
  O  O0  1  0.74966752  0.25118146  0.00089690  1
  O  O1  1  0.24753722  0.25156238  0.99580808  1
  O  O2  1  0.25075287  0.25175590  0.50188279  1
  O  O3  1  0.75246129  0.74845063  0.00420590  1
  O  O4  1  0.75333634  0.25315434  0.49982898  1
  O  O5  1  0.24666496  0.74685916  0.50018511  1
  O  O6  1  0.74924781  0.74825450  0.49812771  1
  O  O7  1  0.25033262  0.74882942  0.99911454  1
loop_
_geom_bond_atom_site_label_1
_geom_bond_atom_site_label_2
_geom_bond_distance
_geom_bond_site_symmetry_2
Co0 O7 2.081424 1_655
Co0 O0 2.081521 1_566
Co0 O6 2.083090 1_555
Co0 O2 2.083200 1_666
Co0 O1 2.091627 1_665
Co0 O3 2.091643 1_556
Co1 O7 2.078984 1_554
Co1 O0 2.079131 1_566
Co1 O6 2.079311 1_555
Co1 O2 2.079437 1_565
Co1 O4 2.105502 1_565
Co1 O5 2.105504 1_555
Co2 O6 2.075214 1_555
Co2 O2 2.075261 1_555
Co2 O4 2.076059 1_555
Co2 O5 2.076284 1_555
Co2 O1 2.092764 1_554
Co2 O3 2.092922 1_556
Co3 O5 2.074676 1_555
Co3 O4 2.074907 1_566
Co3 O7 2.077610 1_555
Co3 O0 2.077662 1_566
Co3 O3 2.091886 1_556
Co3 O1 2.092036 1_565
Ge0 O1 1.777719 1_555
Ge0 O4 1.782303 1_455
Ge0 O7 1.788632 1_555
Ge0 O2 1.788706 1_555
Ge1 O3 1.777715 1_555
Ge1 O5 1.782304 1_655
Ge1 O0 1.788592 1_555
Ge1 O6 1.788746 1_555
