# generated using pymatgen
data_Hg5Br11N
_symmetry_space_group_name_H-M   'P 1'
_cell_length_a   10.24811022
_cell_length_b   10.24811022
_cell_length_c   6.96432428
_cell_angle_alpha   72.49312372
_cell_angle_beta   72.49312372
_cell_angle_gamma   101.89532646
_symmetry_Int_Tables_number   1
_chemical_formula_structural   Hg5Br11N
_chemical_formula_sum   'Hg5 Br11 N1'
_cell_volume   628.85984739
_cell_formula_units_Z   1
loop_
 _symmetry_equiv_pos_site_id
 _symmetry_equiv_pos_as_xyz
  1  'x, y, z'
loop_
 _atom_site_type_symbol
 _atom_site_label
 _atom_site_symmetry_multiplicity
 _atom_site_fract_x
 _atom_site_fract_y
 _atom_site_fract_z
 _atom_site_occupancy
  Hg  Hg0  1  0.14832600  0.48225600  0.68389100  1
  Hg  Hg1  1  0.48225600  0.14832600  0.68389100  1
  Hg  Hg2  1  0.85167400  0.51774400  0.31610900  1
  Hg  Hg3  1  0.51774400  0.85167400  0.31610900  1
  Hg  Hg4  1  0.00000000  0.00000000  0.00000000  1
  Br  Br0  1  0.07902600  0.32798400  0.07155400  1
  Br  Br1  1  0.32798400  0.07902600  0.07155400  1
  Br  Br2  1  0.92097400  0.67201600  0.92844600  1
  Br  Br3  1  0.67201600  0.92097400  0.92844600  1
  Br  Br4  1  0.20423100  0.63961600  0.30213300  1
  Br  Br5  1  0.63961600  0.20423100  0.30213300  1
  Br  Br6  1  0.79576900  0.36038400  0.69786700  1
  Br  Br7  1  0.36038400  0.79576900  0.69786700  1
  Br  Br8  1  0.14422400  0.14422400  0.60517200  1
  Br  Br9  1  0.85577600  0.85577600  0.39482800  1
  Br  Br10  1  0.50000000  0.50000000  0.50000000  1
  N  N0  1  0.50000000  0.50000000  0.00000000  1
loop_
_geom_bond_atom_site_label_1
_geom_bond_atom_site_label_2
_geom_bond_distance
_geom_bond_site_symmetry_2
Br0 Hg0 2.471520 1_554
Br1 Hg1 2.471520 1_554
Br2 Hg2 2.471520 1_556
Br3 Hg3 2.471520 1_556
Br4 Hg0 2.473988 1_555
Br5 Hg1 2.473988 1_555
Br6 Hg2 2.473988 1_555
Br7 Hg3 2.473988 1_555
Br8 Hg4 2.477728 1_556
Br9 Hg4 2.477728 1_665
