# generated using pymatgen
data_ZnBiAsO5
_symmetry_space_group_name_H-M   'P 1'
_cell_length_a   7.25542100
_cell_length_b   8.13134800
_cell_length_c   8.99938000
_cell_angle_alpha   90.00000000
_cell_angle_beta   90.00000000
_cell_angle_gamma   90.00000000
_symmetry_Int_Tables_number   1
_chemical_formula_structural   ZnBiAsO5
_chemical_formula_sum   'Zn4 Bi4 As4 O20'
_cell_volume   530.93059960
_cell_formula_units_Z   4
loop_
 _symmetry_equiv_pos_site_id
 _symmetry_equiv_pos_as_xyz
  1  'x, y, z'
loop_
 _atom_site_type_symbol
 _atom_site_label
 _atom_site_symmetry_multiplicity
 _atom_site_fract_x
 _atom_site_fract_y
 _atom_site_fract_z
 _atom_site_occupancy
  Zn  Zn0  1  0.05135800  0.74396600  0.68168800  1
  Zn  Zn1  1  0.44864200  0.25603400  0.18168800  1
  Zn  Zn2  1  0.94864200  0.24396600  0.81831200  1
  Zn  Zn3  1  0.55135800  0.75603400  0.31831200  1
  Bi  Bi0  1  0.26168600  0.75109100  0.01484200  1
  Bi  Bi1  1  0.23831400  0.24890900  0.51484200  1
  Bi  Bi2  1  0.73831400  0.25109100  0.48515800  1
  Bi  Bi3  1  0.76168600  0.74890900  0.98515800  1
  As  As0  1  0.48960700  0.12991800  0.85075100  1
  As  As1  1  0.01039300  0.87008200  0.35075100  1
  As  As2  1  0.51039300  0.62991800  0.64924900  1
  As  As3  1  0.98960700  0.37008200  0.14924900  1
  O  O0  1  0.50251700  0.94536900  0.94953900  1
  O  O1  1  0.99748300  0.05463100  0.44953900  1
  O  O2  1  0.49748300  0.44536900  0.55046100  1
  O  O3  1  0.00251700  0.55463100  0.05046100  1
  O  O4  1  0.46423600  0.28817400  0.97529100  1
  O  O5  1  0.03576400  0.71182600  0.47529100  1
  O  O6  1  0.53576400  0.78817400  0.52470900  1
  O  O7  1  0.96423600  0.21182600  0.02470900  1
  O  O8  1  0.68966800  0.15499700  0.74924900  1
  O  O9  1  0.81033200  0.84500300  0.24924900  1
  O  O10  1  0.31033200  0.65499700  0.75075100  1
  O  O11  1  0.18966800  0.34500300  0.25075100  1
  O  O12  1  0.29922700  0.12298500  0.73719200  1
  O  O13  1  0.20077300  0.87701500  0.23719200  1
  O  O14  1  0.70077300  0.62298500  0.76280800  1
  O  O15  1  0.79922700  0.37701500  0.26280800  1
  O  O16  1  0.00147500  0.84875100  0.86219200  1
  O  O17  1  0.49852500  0.15124900  0.36219200  1
  O  O18  1  0.99852500  0.34875100  0.63780800  1
  O  O19  1  0.50147500  0.65124900  0.13780800  1
loop_
_geom_bond_atom_site_label_1
_geom_bond_atom_site_label_2
_geom_bond_distance
_geom_bond_site_symmetry_2
Bi0 O19 2.215966 1_555
Bi0 O13 2.290809 1_555
Bi0 O0 2.427782 1_554
Bi0 O16 2.466197 1_554
Bi0 O3 2.488079 1_555
Bi0 O10 2.526580 1_554
Bi1 O18 2.215966 1_455
Bi1 O12 2.290809 1_555
Bi1 O1 2.427782 1_455
Bi1 O17 2.466197 1_555
Bi1 O2 2.488079 1_555
Bi1 O11 2.526580 1_555
Bi2 O17 2.215966 1_555
Bi2 O15 2.290809 1_555
Bi2 O2 2.427782 1_555
Bi2 O18 2.466197 1_555
Bi2 O1 2.488079 1_555
Bi2 O8 2.526580 1_555
Bi3 O16 2.215966 1_655
Bi3 O14 2.290809 1_555
Bi3 O3 2.427782 1_656
Bi3 O19 2.466197 1_556
Bi3 O0 2.488079 1_555
Bi3 O9 2.526580 1_556
As0 O4 1.716386 1_555
As0 O12 1.719167 1_555
As0 O8 1.727112 1_555
As0 O0 1.746724 1_545
As1 O5 1.716386 1_555
As1 O13 1.719167 1_555
As1 O9 1.727112 1_455
As1 O1 1.746724 1_465
As2 O6 1.716386 1_555
As2 O14 1.719167 1_555
As2 O10 1.727112 1_555
As2 O2 1.746724 1_555
As3 O7 1.716386 1_555
As3 O15 1.719167 1_555
As3 O11 1.727112 1_655
As3 O3 1.746724 1_655
O4 Zn1 1.879149 1_556
O5 Zn0 1.879149 1_555
O6 Zn3 1.879149 1_555
O7 Zn2 1.879149 1_554
O8 Zn2 2.107170 1_555
O9 Zn3 2.107170 1_555
O10 Zn0 2.107170 1_555
O11 Zn1 2.107170 1_555
O16 Zn0 1.869684 1_555
O17 Zn1 1.869684 1_555
O18 Zn2 1.869684 1_555
O19 Zn3 1.869684 1_555
