# generated using pymatgen
data_U2Ga5Cu3
_symmetry_space_group_name_H-M   'P 1'
_cell_length_a   4.12485100
_cell_length_b   4.12485100
_cell_length_c   10.24301400
_cell_angle_alpha   90.00000000
_cell_angle_beta   90.00000000
_cell_angle_gamma   90.00000000
_symmetry_Int_Tables_number   1
_chemical_formula_structural   U2Ga5Cu3
_chemical_formula_sum   'U2 Ga5 Cu3'
_cell_volume   174.27869410
_cell_formula_units_Z   1
loop_
 _symmetry_equiv_pos_site_id
 _symmetry_equiv_pos_as_xyz
  1  'x, y, z'
loop_
 _atom_site_type_symbol
 _atom_site_label
 _atom_site_symmetry_multiplicity
 _atom_site_fract_x
 _atom_site_fract_y
 _atom_site_fract_z
 _atom_site_occupancy
  U  U0  1  0.00000000  0.00000000  0.99916600  1
  U  U1  1  0.50000000  0.50000000  0.50922100  1
  Ga  Ga0  1  0.00000000  0.50000000  0.25901300  1
  Ga  Ga1  1  0.50000000  0.00000000  0.74739800  1
  Ga  Ga2  1  0.50000000  0.00000000  0.25901300  1
  Ga  Ga3  1  0.00000000  0.50000000  0.74739800  1
  Ga  Ga4  1  0.50000000  0.50000000  0.10226100  1
  Cu  Cu0  1  0.00000000  0.00000000  0.61398700  1
  Cu  Cu1  1  0.00000000  0.00000000  0.38746200  1
  Cu  Cu2  1  0.50000000  0.50000000  0.87508000  1
loop_
_geom_bond_atom_site_label_1
_geom_bond_atom_site_label_2
_geom_bond_distance
_geom_bond_site_symmetry_2
Ga0 Ga4 2.613731 1_455
Ga0 Ga4 2.613731 1_555
Ga0 U1 3.289677 1_455
Ga0 U1 3.289677 1_555
Ga0 U0 3.367165 1_564
Ga0 U0 3.367165 1_554
Ga1 U1 3.194604 1_545
Ga1 U1 3.194604 1_555
Ga1 U0 3.302141 1_655
Ga1 U0 3.302141 1_555
Ga2 Ga4 2.613731 1_555
Ga2 Ga4 2.613731 1_545
Ga2 U1 3.289677 1_545
Ga2 U1 3.289677 1_555
Ga2 U0 3.367165 1_654
Ga2 U0 3.367165 1_554
Ga3 U1 3.194604 1_455
Ga3 U1 3.194604 1_555
Ga3 U0 3.302141 1_555
Ga3 U0 3.302141 1_565
Ga4 U0 3.101990 1_554
Ga4 U0 3.101990 1_654
Ga4 U0 3.101990 1_564
Ga4 U0 3.101990 1_664
Cu0 Cu1 2.320299 1_555
Cu0 Ga3 2.474067 1_545
Cu0 Ga3 2.474067 1_555
Cu0 Ga1 2.474067 1_555
Cu0 Ga1 2.474067 1_455
Cu0 U1 3.107858 1_455
Cu0 U1 3.107858 1_445
Cu0 U1 3.107858 1_545
Cu0 U1 3.107858 1_555
Cu1 Ga0 2.446360 1_555
Cu1 Ga2 2.446360 1_455
Cu1 Ga2 2.446360 1_555
Cu1 Ga0 2.446360 1_545
Cu1 U1 3.172169 1_545
Cu1 U1 3.172169 1_555
Cu1 U1 3.172169 1_455
Cu1 U1 3.172169 1_445
Cu2 Ga4 2.327018 1_556
Cu2 Ga1 2.442144 1_555
Cu2 Ga3 2.442144 1_655
Cu2 Ga1 2.442144 1_565
Cu2 Ga3 2.442144 1_555
Cu2 U0 3.181615 1_555
Cu2 U0 3.181615 1_655
Cu2 U0 3.181615 1_565
Cu2 U0 3.181615 1_665
