# generated using pymatgen
data_Li3Mn3CoO8
_symmetry_space_group_name_H-M   'P 1'
_cell_length_a   5.83056243
_cell_length_b   5.83056243
_cell_length_c   9.54512615
_cell_angle_alpha   89.65977298
_cell_angle_beta   89.65977298
_cell_angle_gamma   119.14643211
_symmetry_Int_Tables_number   1
_chemical_formula_structural   Li3Mn3CoO8
_chemical_formula_sum   'Li6 Mn6 Co2 O16'
_cell_volume   283.38370386
_cell_formula_units_Z   2
loop_
 _symmetry_equiv_pos_site_id
 _symmetry_equiv_pos_as_xyz
  1  'x, y, z'
loop_
 _atom_site_type_symbol
 _atom_site_label
 _atom_site_symmetry_multiplicity
 _atom_site_fract_x
 _atom_site_fract_y
 _atom_site_fract_z
 _atom_site_occupancy
  Li  Li0  1  0.16523800  0.81872200  0.44363200  1
  Li  Li1  1  0.16958100  0.34955900  0.44307900  1
  Li  Li2  1  0.64826600  0.82361600  0.44348200  1
  Li  Li3  1  0.34955900  0.16958100  0.94307900  1
  Li  Li4  1  0.82361600  0.64826600  0.94348200  1
  Li  Li5  1  0.81872200  0.16523800  0.94363200  1
  Mn  Mn0  1  0.16747800  0.83412200  0.71424400  1
  Mn  Mn1  1  0.16805700  0.33640500  0.71490800  1
  Mn  Mn2  1  0.66508900  0.83302200  0.71505900  1
  Mn  Mn3  1  0.33640500  0.16805700  0.21490800  1
  Mn  Mn4  1  0.83302200  0.66508900  0.21505900  1
  Mn  Mn5  1  0.83412200  0.16747800  0.21424400  1
  Co  Co0  1  0.33531800  0.67339900  0.99737500  1
  Co  Co1  1  0.67339900  0.33531800  0.49737500  1
  O  O0  1  0.16130400  0.85114800  0.10355100  1
  O  O1  1  0.03033700  0.51783700  0.83553300  1
  O  O2  1  0.30223700  0.65181000  0.59554200  1
  O  O3  1  0.47897600  0.96650600  0.83238500  1
  O  O4  1  0.15858200  0.32034900  0.10148500  1
  O  O5  1  0.48039900  0.51370700  0.83509300  1
  O  O6  1  0.69200800  0.85219500  0.09926200  1
  O  O7  1  0.32034900  0.15858200  0.60148500  1
  O  O8  1  0.51370700  0.48039900  0.33509300  1
  O  O9  1  0.65181000  0.30223700  0.09554200  1
  O  O10  1  0.85219500  0.69200800  0.59926200  1
  O  O11  1  0.03232100  0.01804400  0.82831500  1
  O  O12  1  0.01804400  0.03232100  0.32831500  1
  O  O13  1  0.51783700  0.03033700  0.33553300  1
  O  O14  1  0.96650600  0.47897600  0.33238500  1
  O  O15  1  0.85114800  0.16130400  0.60355100  1
loop_
_geom_bond_atom_site_label_1
_geom_bond_atom_site_label_2
_geom_bond_distance
_geom_bond_site_symmetry_2
Li0 O14 2.048890 1_455
Li0 O13 2.074213 1_565
Li0 O2 2.107575 1_555
Li0 O12 2.129607 1_565
Li0 O10 2.173755 1_455
Li0 O7 2.306675 1_565
Li1 O12 1.961013 1_555
Li1 O14 1.990829 1_455
Li1 O8 2.036010 1_555
Li1 O2 2.130220 1_555
Li1 O15 2.226940 1_455
Li1 O7 2.290865 1_555
Li2 O13 1.995036 1_565
Li2 O8 2.048265 1_555
Li2 O12 2.176684 1_665
Li2 O10 2.260482 1_555
Li2 O2 2.271540 1_555
Li2 O15 2.323532 1_565
Li3 O11 1.961013 1_555
Li3 O3 1.990829 1_545
Li3 O5 2.036010 1_555
Li3 O9 2.130220 1_556
Li3 O0 2.226940 1_546
Li3 O4 2.290865 1_556
Li4 O1 1.995036 1_655
Li4 O5 2.048265 1_555
Li4 O11 2.176684 1_665
Li4 O6 2.260482 1_556
Li4 O9 2.271540 1_556
Li4 O0 2.323532 1_656
Li5 O3 2.048890 1_545
Li5 O1 2.074213 1_655
Li5 O9 2.107575 1_556
Li5 O11 2.129607 1_655
Li5 O6 2.173755 1_546
Li5 O4 2.306675 1_656
Mn0 O11 1.945088 1_565
Mn0 O10 1.954846 1_455
Mn0 O3 1.958353 1_555
Mn0 O2 1.961716 1_555
Mn0 O7 1.963072 1_565
Mn0 O1 1.976803 1_555
Mn1 O11 1.943878 1_555
Mn1 O15 1.945499 1_455
Mn1 O2 1.963461 1_555
Mn1 O5 1.976428 1_555
Mn1 O1 1.980006 1_555
Mn1 O7 1.983485 1_555
Mn2 O3 1.963673 1_555
Mn2 O15 1.978088 1_565
Mn2 O5 1.986372 1_555
Mn2 O10 1.989472 1_555
Mn2 O11 2.169878 1_665
Mn2 O2 2.181573 1_555
Mn3 O12 1.943878 1_555
Mn3 O0 1.945499 1_545
Mn3 O9 1.963461 1_555
Mn3 O8 1.976428 1_555
Mn3 O13 1.980006 1_555
Mn3 O4 1.983485 1_555
Mn4 O14 1.963673 1_555
Mn4 O0 1.978088 1_655
Mn4 O8 1.986372 1_555
Mn4 O6 1.989472 1_555
Mn4 O12 2.169878 1_665
Mn4 O9 2.181573 1_555
Mn5 O12 1.945088 1_655
Mn5 O6 1.954846 1_545
Mn5 O14 1.958353 1_555
Mn5 O9 1.961716 1_555
Mn5 O4 1.963072 1_655
Mn5 O13 1.976803 1_555
Co0 O0 2.038411 1_556
Co0 O4 2.045494 1_556
Co0 O6 2.069282 1_556
Co0 O3 2.158787 1_555
Co0 O5 2.179603 1_555
Co0 O1 2.202117 1_555
Co1 O15 2.038411 1_555
Co1 O7 2.045494 1_555
Co1 O10 2.069282 1_555
Co1 O14 2.158787 1_555
Co1 O8 2.179603 1_555
Co1 O13 2.202117 1_555
