# generated using pymatgen
data_Mn13Si2(SbO14)2
_symmetry_space_group_name_H-M   'P 1'
_cell_length_a   5.58741782
_cell_length_b   8.84550615
_cell_length_c   11.75375360
_cell_angle_alpha   87.52253614
_cell_angle_beta   76.10954976
_cell_angle_gamma   79.00803492
_symmetry_Int_Tables_number   1
_chemical_formula_structural   Mn13Si2(SbO14)2
_chemical_formula_sum   'Mn13 Si2 Sb2 O28'
_cell_volume   553.57642804
_cell_formula_units_Z   1
loop_
 _symmetry_equiv_pos_site_id
 _symmetry_equiv_pos_as_xyz
  1  'x, y, z'
loop_
 _atom_site_type_symbol
 _atom_site_label
 _atom_site_symmetry_multiplicity
 _atom_site_fract_x
 _atom_site_fract_y
 _atom_site_fract_z
 _atom_site_occupancy
  Mn  Mn0  1  0.95883700  0.63055300  0.68356600  1
  Mn  Mn1  1  0.64900700  0.35353000  0.14846900  1
  Mn  Mn2  1  0.35725700  0.36567800  0.68332800  1
  Mn  Mn3  1  0.03570400  0.36820000  0.31908300  1
  Mn  Mn4  1  0.35552100  0.64555200  0.85067900  1
  Mn  Mn5  1  0.28599300  0.99814700  0.42845600  1
  Mn  Mn6  1  0.20389300  0.64361200  0.14896800  1
  Mn  Mn7  1  0.00100800  0.99945100  0.00090100  1
  Mn  Mn8  1  0.42390500  0.00095700  0.14864800  1
  Mn  Mn9  1  0.79425300  0.35366000  0.85371200  1
  Mn  Mn10  1  0.63615100  0.63255800  0.31498900  1
  Mn  Mn11  1  0.57848300  0.99877200  0.85158000  1
  Mn  Mn12  1  0.71401100  0.00066100  0.57130600  1
  Si  Si0  1  0.23359800  0.31719200  0.00042900  1
  Si  Si1  1  0.77114200  0.68243200  0.00049000  1
  Sb  Sb0  1  0.85359600  0.99982800  0.29227300  1
  Sb  Sb1  1  0.14873900  0.99749400  0.70829400  1
  O  O0  1  0.70362400  0.40675100  0.30026500  1
  O  O1  1  0.19167100  0.35948400  0.42677000  1
  O  O2  1  0.93621900  0.34875700  0.00093700  1
  O  O3  1  0.31751700  0.12644200  0.00058800  1
  O  O4  1  0.82053100  0.63912900  0.57030000  1
  O  O5  1  0.29083100  0.59050600  0.70080000  1
  O  O6  1  0.00238800  0.09858800  0.57764800  1
  O  O7  1  0.00804600  0.89755900  0.41962600  1
  O  O8  1  0.68717900  0.87257000  0.00022400  1
  O  O9  1  0.11854500  0.88390300  0.16025600  1
  O  O10  1  0.28531000  0.38597500  0.11998900  1
  O  O11  1  0.98494300  0.59304900  0.29878600  1
  O  O12  1  0.43029800  0.89552300  0.58052400  1
  O  O13  1  0.72263100  0.11386700  0.15940600  1
  O  O14  1  0.60001900  0.61517900  0.12134200  1
  O  O15  1  0.06941600  0.64972400  0.99896300  1
  O  O16  1  0.28405500  0.88573900  0.84154400  1
  O  O17  1  0.88020800  0.11367800  0.83975000  1
  O  O18  1  0.57520500  0.09963400  0.42289200  1
  O  O19  1  0.11435600  0.13693200  0.28919500  1
  O  O20  1  0.88407000  0.86209300  0.71119400  1
  O  O21  1  0.40236800  0.38418300  0.87938500  1
  O  O22  1  0.40661700  0.13486100  0.71085900  1
  O  O23  1  0.61078700  0.35462600  0.56967500  1
  O  O24  1  0.72000000  0.61332100  0.88093200  1
  O  O25  1  0.58575500  0.86649900  0.28979400  1
  O  O26  1  0.00639300  0.40553900  0.70338800  1
  O  O27  1  0.38094800  0.64153900  0.42730500  1
loop_
_geom_bond_atom_site_label_1
_geom_bond_atom_site_label_2
_geom_bond_distance
_geom_bond_site_symmetry_2
Mn0 O4 1.684686 1_555
Mn0 O5 1.879129 1_655
Mn0 O26 1.968345 1_655
Mn0 O20 2.034877 1_555
Mn0 O24 2.397113 1_555
Mn1 O0 1.971507 1_555
Mn1 O2 2.056313 1_555
Mn1 O13 2.085466 1_555
Mn1 O10 2.102347 1_555
Mn1 O14 2.295570 1_555
Mn2 O23 1.688387 1_555
Mn2 O26 1.882773 1_555
Mn2 O5 1.962692 1_555
Mn2 O22 2.029849 1_555
Mn2 O21 2.393289 1_555
Mn3 O1 1.692033 1_555
Mn3 O0 1.886058 1_455
Mn3 O11 1.967090 1_455
Mn3 O19 2.036303 1_555
Mn3 O10 2.435301 1_555
Mn4 O5 1.979418 1_555
Mn4 O15 2.059091 1_555
Mn4 O16 2.088575 1_555
Mn4 O24 2.114842 1_555
Mn4 O21 2.296001 1_555
Mn5 O7 1.956160 1_555
Mn5 O18 1.979600 1_565
Mn5 O6 2.153837 1_565
Mn5 O25 2.219737 1_555
Mn5 O12 2.222923 1_555
Mn5 O19 2.288451 1_565
Mn6 O11 1.975791 1_455
Mn6 O15 2.070852 1_554
Mn6 O9 2.090507 1_555
Mn6 O14 2.125371 1_555
Mn6 O10 2.261383 1_555
Mn7 O13 2.255182 1_465
Mn7 O8 2.256628 1_455
Mn7 O3 2.267897 1_565
Mn7 O9 2.270080 1_555
Mn7 O16 2.270496 1_554
Mn7 O17 2.291834 1_464
Mn8 O13 2.132453 1_555
Mn8 O9 2.133399 1_545
Mn8 O3 2.166099 1_555
Mn8 O8 2.190684 1_545
Mn8 O25 2.263671 1_545
Mn8 O19 2.274576 1_555
Mn9 O26 1.967023 1_655
Mn9 O2 2.065179 1_556
Mn9 O17 2.089786 1_555
Mn9 O21 2.103039 1_555
Mn9 O24 2.277354 1_555
Mn10 O27 1.686532 1_555
Mn10 O11 1.877295 1_555
Mn10 O0 1.967993 1_555
Mn10 O25 2.052791 1_555
Mn10 O14 2.346835 1_555
Mn11 O17 2.103143 1_565
Mn11 O16 2.109626 1_555
Mn11 O8 2.179397 1_556
Mn11 O3 2.187642 1_566
Mn11 O20 2.265454 1_555
Mn11 O22 2.292726 1_565
Mn12 O12 1.964838 1_545
Mn12 O6 1.986860 1_655
Mn12 O18 2.160920 1_555
Mn12 O7 2.207294 1_645
Mn12 O22 2.255605 1_555
Mn12 O20 2.289190 1_545
O2 Si0 1.630125 1_655
O3 Si0 1.662897 1_555
O6 Sb1 2.007898 1_545
O7 Sb0 2.002288 1_455
O8 Si1 1.657750 1_555
O9 Sb0 2.026457 1_455
O10 Si0 1.662641 1_555
O12 Sb1 1.996363 1_555
O13 Sb0 2.030487 1_545
O14 Si1 1.666602 1_555
O15 Si1 1.632095 1_456
O16 Sb1 2.037512 1_555
O17 Sb1 2.032460 1_645
O18 Sb0 2.000719 1_545
O19 Sb0 2.059022 1_445
O20 Sb1 2.066449 1_655
O21 Si0 1.661492 1_556
O22 Sb1 2.060367 1_545
O24 Si1 1.662466 1_556
O25 Sb0 2.080466 1_555
