# generated using pymatgen
data_MgCd2
_symmetry_space_group_name_H-M   'P 1'
_cell_length_a   5.40937659
_cell_length_b   5.40937632
_cell_length_c   15.09388223
_cell_angle_alpha   90.00000000
_cell_angle_beta   90.00000000
_cell_angle_gamma   120.00000172
_symmetry_Int_Tables_number   1
_chemical_formula_structural   MgCd2
_chemical_formula_sum   'Mg6 Cd12'
_cell_volume   382.49520393
_cell_formula_units_Z   6
loop_
 _symmetry_equiv_pos_site_id
 _symmetry_equiv_pos_as_xyz
  1  'x, y, z'
loop_
 _atom_site_type_symbol
 _atom_site_label
 _atom_site_symmetry_multiplicity
 _atom_site_fract_x
 _atom_site_fract_y
 _atom_site_fract_z
 _atom_site_occupancy
  Mg  Mg0  1  -0.00000000  -0.00000000  0.16708889  1
  Mg  Mg1  1  0.66666700  0.33333300  0.16624511  1
  Mg  Mg2  1  0.66666700  0.33333300  0.50042189  1
  Mg  Mg3  1  0.33333300  0.66666700  0.49957811  1
  Mg  Mg4  1  0.33333300  0.66666700  0.83375489  1
  Mg  Mg5  1  -0.00000000  -0.00000000  0.83291111  1
  Cd  Cd0  1  0.66669192  0.66669192  -0.00000000  1
  Cd  Cd1  1  0.00000000  0.33330808  -0.00000000  1
  Cd  Cd2  1  0.33333300  0.66666700  0.16666700  1
  Cd  Cd3  1  0.33330808  -0.00000000  -0.00000000  1
  Cd  Cd4  1  0.33335792  0.00002492  0.33333300  1
  Cd  Cd5  1  0.66666700  0.66664208  0.33333300  1
  Cd  Cd6  1  -0.00000000  -0.00000000  0.50000000  1
  Cd  Cd7  1  0.99997508  0.33333300  0.33333300  1
  Cd  Cd8  1  0.00002492  0.33335792  0.66666700  1
  Cd  Cd9  1  0.33333300  0.99997508  0.66666700  1
  Cd  Cd10  1  0.66666700  0.33333300  0.83333300  1
  Cd  Cd11  1  0.66664208  0.66666700  0.66666700  1
loop_
_geom_bond_atom_site_label_1
_geom_bond_atom_site_label_2
_geom_bond_distance
_geom_bond_site_symmetry_2
Mg0 Mg1 3.123128 1_455
Mg0 Mg1 3.123132 1_445
Mg0 Mg1 3.123133 1_555
Mg2 Mg3 3.123128 1_545
Mg2 Mg3 3.123128 1_655
Mg2 Mg3 3.123137 1_555
Mg4 Mg5 3.123128 1_565
Mg4 Mg5 3.123132 1_555
Mg4 Mg5 3.123133 1_665
Cd0 Mg1 3.089988 1_555
Cd0 Mg4 3.089988 1_554
Cd0 Cd10 3.095161 1_554
Cd0 Cd2 3.095161 1_555
Cd0 Mg0 3.100218 1_665
Cd0 Mg5 3.100218 1_664
Cd0 Cd1 3.122868 1_665
Cd0 Cd3 3.122868 1_665
Cd0 Cd3 3.123223 1_555
Cd0 Cd1 3.123223 1_555
Cd0 Cd1 3.123223 1_655
Cd0 Cd3 3.123223 1_565
Cd1 Mg1 3.089985 1_455
Cd1 Mg4 3.089986 1_554
Cd1 Cd10 3.095158 1_454
Cd1 Cd2 3.095160 1_555
Cd1 Mg0 3.100218 1_555
Cd1 Mg5 3.100218 1_554
Cd1 Cd3 3.122868 1_555
Cd1 Cd3 3.123223 1_565
Cd1 Cd3 3.123223 1_455
Cd2 Cd4 3.095146 1_565
Cd2 Cd7 3.095147 1_455
Cd2 Cd5 3.095149 1_555
Cd2 Cd3 3.095158 1_565
Cd2 Mg1 3.123108 1_565
Cd2 Mg1 3.123108 1_455
Cd2 Mg0 3.123108 1_565
Cd2 Mg0 3.123113 1_555
Cd2 Mg0 3.123113 1_665
Cd2 Mg1 3.123118 1_555
Cd3 Mg4 3.089985 1_544
Cd3 Mg1 3.089986 1_555
Cd3 Mg0 3.100218 1_555
Cd3 Mg5 3.100218 1_554
Cd4 Mg0 3.089972 1_555
Cd4 Mg3 3.089985 1_545
Cd4 Cd6 3.095158 1_555
Cd4 Mg1 3.100208 1_555
Cd4 Mg2 3.100220 1_555
Cd4 Cd5 3.122873 1_555
Cd4 Cd7 3.122873 1_555
Cd4 Cd5 3.123219 1_445
Cd4 Cd7 3.123219 1_455
Cd4 Cd7 3.123223 1_445
Cd4 Cd5 3.123223 1_545
Cd5 Mg0 3.089972 1_665
Cd5 Mg3 3.089988 1_555
Cd5 Cd6 3.095158 1_665
Cd5 Mg1 3.100209 1_555
Cd5 Mg2 3.100221 1_555
Cd5 Cd7 3.122873 1_555
Cd5 Cd7 3.123218 1_565
Cd5 Cd7 3.123223 1_455
Cd6 Cd8 3.095158 1_555
Cd6 Cd7 3.095158 1_455
Cd6 Cd9 3.095158 1_545
Cd6 Mg3 3.123108 1_545
Cd6 Mg2 3.123108 1_455
Cd6 Mg3 3.123113 1_555
Cd6 Mg2 3.123113 1_445
Cd6 Mg3 3.123113 1_445
Cd6 Mg2 3.123113 1_555
Cd7 Mg0 3.089972 1_655
Cd7 Mg3 3.089986 1_655
Cd7 Mg1 3.100206 1_555
Cd7 Mg2 3.100218 1_555
Cd8 Mg5 3.089972 1_555
Cd8 Mg2 3.089985 1_455
Cd8 Mg4 3.100208 1_555
Cd8 Mg3 3.100220 1_555
Cd8 Cd9 3.122873 1_555
Cd8 Cd9 3.123219 1_545
Cd8 Cd9 3.123223 1_445
Cd9 Mg5 3.089972 1_565
Cd9 Mg2 3.089986 1_565
Cd9 Mg4 3.100206 1_555
Cd9 Mg3 3.100218 1_555
Cd10 Cd8 3.095146 1_655
Cd10 Cd9 3.095147 1_545
Cd10 Cd11 3.095149 1_555
Cd10 Cd3 3.095160 1_556
Cd10 Mg4 3.123108 1_545
Cd10 Mg4 3.123108 1_655
Cd10 Mg5 3.123108 1_655
Cd10 Mg5 3.123113 1_665
Cd10 Mg5 3.123113 1_555
Cd10 Mg4 3.123118 1_555
Cd11 Mg5 3.089972 1_665
Cd11 Mg2 3.089988 1_555
Cd11 Cd6 3.095158 1_665
Cd11 Mg4 3.100209 1_555
Cd11 Mg3 3.100222 1_555
Cd11 Cd8 3.122873 1_555
Cd11 Cd9 3.122873 1_555
Cd11 Cd8 3.123218 1_665
Cd11 Cd9 3.123219 1_655
Cd11 Cd9 3.123223 1_545
Cd11 Cd8 3.123223 1_655
