# generated using pymatgen
data_Nd2Mn3Sb3O14
_symmetry_space_group_name_H-M   'P 1'
_cell_length_a   7.27332509
_cell_length_b   7.27332509
_cell_length_c   7.37328803
_cell_angle_alpha   60.99042634
_cell_angle_beta   60.99042634
_cell_angle_gamma   61.46684252
_symmetry_Int_Tables_number   1
_chemical_formula_structural   Nd2Mn3Sb3O14
_chemical_formula_sum   'Nd2 Mn3 Sb3 O14'
_cell_volume   282.93124174
_cell_formula_units_Z   1
loop_
 _symmetry_equiv_pos_site_id
 _symmetry_equiv_pos_as_xyz
  1  'x, y, z'
loop_
 _atom_site_type_symbol
 _atom_site_label
 _atom_site_symmetry_multiplicity
 _atom_site_fract_x
 _atom_site_fract_y
 _atom_site_fract_z
 _atom_site_occupancy
  Nd  Nd0  1  0.50000000  0.00000000  0.00000000  1
  Nd  Nd1  1  0.00000000  0.50000000  0.00000000  1
  Mn  Mn0  1  0.50000000  0.50000000  0.50000000  1
  Mn  Mn1  1  0.00000000  0.00000000  0.00000000  1
  Mn  Mn2  1  0.00000000  0.00000000  0.50000000  1
  Sb  Sb0  1  0.50000000  0.50000000  0.00000000  1
  Sb  Sb1  1  0.00000000  0.50000000  0.50000000  1
  Sb  Sb2  1  0.50000000  0.00000000  0.50000000  1
  O  O0  1  0.89185400  0.89185400  0.86066300  1
  O  O1  1  0.10814600  0.10814600  0.13933700  1
  O  O2  1  0.58852500  0.58852500  0.15001800  1
  O  O3  1  0.17404700  0.17404700  0.57026200  1
  O  O4  1  0.17498000  0.57219600  0.58208100  1
  O  O5  1  0.57876700  0.17292100  0.17658800  1
  O  O6  1  0.17292100  0.57876700  0.17658800  1
  O  O7  1  0.57219600  0.17498000  0.58208100  1
  O  O8  1  0.41147500  0.41147500  0.84998200  1
  O  O9  1  0.82595300  0.82595300  0.42973800  1
  O  O10  1  0.82502000  0.42780400  0.41791900  1
  O  O11  1  0.42123300  0.82707900  0.82341200  1
  O  O12  1  0.82707900  0.42123300  0.82341200  1
  O  O13  1  0.42780400  0.82502000  0.41791900  1
loop_
_geom_bond_atom_site_label_1
_geom_bond_atom_site_label_2
_geom_bond_distance
_geom_bond_site_symmetry_2
Nd0 O1 2.366281 1_555
Nd0 O0 2.366281 1_544
Nd0 O8 2.496789 1_554
Nd0 O2 2.496789 1_545
Nd0 O5 2.570116 1_555
Nd0 O11 2.570116 1_544
Nd0 O13 2.579936 1_545
Nd0 O7 2.579936 1_554
Nd1 O1 2.366281 1_555
Nd1 O0 2.366281 1_454
Nd1 O8 2.496789 1_554
Nd1 O2 2.496789 1_455
Nd1 O12 2.570116 1_454
Nd1 O6 2.570116 1_555
Nd1 O10 2.579936 1_455
Nd1 O4 2.579936 1_554
Mn0 O7 1.991254 1_555
Mn0 O4 1.991254 1_555
Mn0 O13 1.991254 1_555
Mn0 O10 1.991254 1_555
Mn0 O2 2.158984 1_555
Mn0 O8 2.158984 1_555
Mn1 O0 2.109877 1_444
Mn1 O1 2.109877 1_555
Mn1 O5 2.588779 1_455
Mn1 O6 2.588779 1_545
Mn1 O11 2.588779 1_544
Mn1 O12 2.588779 1_454
Mn1 O3 2.644807 1_554
Mn1 O9 2.644807 1_445
Mn2 O0 2.200598 1_445
Mn2 O1 2.200598 1_555
Mn2 O9 2.505292 1_445
Mn2 O3 2.505292 1_555
Mn2 O4 2.608683 1_545
Mn2 O13 2.608683 1_545
Mn2 O10 2.608683 1_455
Mn2 O7 2.608683 1_455
O2 Sb0 1.957104 1_555
O3 Sb1 2.017211 1_555
O3 Sb2 2.017211 1_555
O4 Sb1 1.988840 1_555
O5 Sb2 2.012666 1_555
O5 Sb0 2.024872 1_555
O6 Sb1 2.012666 1_555
O6 Sb0 2.024872 1_555
O7 Sb2 1.988840 1_555
O8 Sb0 1.957104 1_556
O9 Sb2 2.017211 1_565
O9 Sb1 2.017211 1_655
O10 Sb1 1.988840 1_655
O11 Sb2 2.012666 1_565
O11 Sb0 2.024872 1_556
O12 Sb1 2.012666 1_655
O12 Sb0 2.024872 1_556
O13 Sb2 1.988840 1_565
