# generated using pymatgen
data_NaPr9(Ge3O13)2
_symmetry_space_group_name_H-M   'P 1'
_cell_length_a   9.90787573
_cell_length_b   9.90787573
_cell_length_c   7.24670700
_cell_angle_alpha   90.00000000
_cell_angle_beta   90.00000000
_cell_angle_gamma   119.99999819
_symmetry_Int_Tables_number   1
_chemical_formula_structural   NaPr9(Ge3O13)2
_chemical_formula_sum   'Na1 Pr9 Ge6 O26'
_cell_volume   616.07337940
_cell_formula_units_Z   1
loop_
 _symmetry_equiv_pos_site_id
 _symmetry_equiv_pos_as_xyz
  1  'x, y, z'
loop_
 _atom_site_type_symbol
 _atom_site_label
 _atom_site_symmetry_multiplicity
 _atom_site_fract_x
 _atom_site_fract_y
 _atom_site_fract_z
 _atom_site_occupancy
  Na  Na0  1  0.66666700  0.33333300  0.50786500  1
  Pr  Pr0  1  0.33333300  0.66666700  0.00107400  1
  Pr  Pr1  1  0.33333300  0.66666700  0.50066800  1
  Pr  Pr2  1  0.66666700  0.33333300  0.00023800  1
  Pr  Pr3  1  0.76701100  0.00717600  0.74998900  1
  Pr  Pr4  1  0.99282400  0.75983500  0.74998900  1
  Pr  Pr5  1  0.24016500  0.23298900  0.74998900  1
  Pr  Pr6  1  0.23035800  0.99287700  0.25174000  1
  Pr  Pr7  1  0.00712300  0.23748100  0.25174000  1
  Pr  Pr8  1  0.76251900  0.76964200  0.25174000  1
  Ge  Ge0  1  0.60211600  0.62731900  0.75190100  1
  Ge  Ge1  1  0.37268100  0.97479800  0.75190100  1
  Ge  Ge2  1  0.02520200  0.39788400  0.75190100  1
  Ge  Ge3  1  0.40266000  0.37208900  0.25227500  1
  Ge  Ge4  1  0.62791100  0.03057100  0.25227500  1
  Ge  Ge5  1  0.96942900  0.59734000  0.25227500  1
  O  O0  1  0.69568200  0.51858300  0.75789300  1
  O  O1  1  0.48141700  0.17709900  0.75789300  1
  O  O2  1  0.82290100  0.30431800  0.75789300  1
  O  O3  1  0.31811300  0.49370600  0.25125400  1
  O  O4  1  0.50629400  0.82440700  0.25125400  1
  O  O5  1  0.17559300  0.68188700  0.25125400  1
  O  O6  1  0.00000000  0.00000000  0.74972500  1
  O  O7  1  0.00000000  0.00000000  0.24141000  1
  O  O8  1  0.65182800  0.75219200  0.55639500  1
  O  O9  1  0.24780800  0.89963600  0.55639500  1
  O  O10  1  0.10036400  0.34817200  0.55639500  1
  O  O11  1  0.34057500  0.24558600  0.05727400  1
  O  O12  1  0.75441400  0.09498900  0.05727400  1
  O  O13  1  0.90501100  0.65942500  0.05727400  1
  O  O14  1  0.32030300  0.23822200  0.43671900  1
  O  O15  1  0.76177800  0.08208100  0.43671900  1
  O  O16  1  0.91791900  0.67969700  0.43671900  1
  O  O17  1  0.65166500  0.75654400  0.94429800  1
  O  O18  1  0.24345600  0.89512100  0.94429800  1
  O  O19  1  0.10487900  0.34833500  0.94429800  1
  O  O20  1  0.39392700  0.52579600  0.75017800  1
  O  O21  1  0.47420400  0.86813100  0.75017800  1
  O  O22  1  0.13186900  0.60607300  0.75017800  1
  O  O23  1  0.60687600  0.47963600  0.23974500  1
  O  O24  1  0.52036400  0.12724000  0.23974500  1
  O  O25  1  0.87276000  0.39312400  0.23974500  1
loop_
_geom_bond_atom_site_label_1
_geom_bond_atom_site_label_2
_geom_bond_distance
_geom_bond_site_symmetry_2
Na0 O2 2.491323 1_555
Na0 O1 2.491327 1_555
Na0 O0 2.491330 1_555
Na0 O25 2.661958 1_555
Na0 O24 2.661960 1_555
Na0 O23 2.661965 1_555
Ge0 O0 1.738015 1_555
Ge0 O8 1.780784 1_555
Ge0 O20 1.786585 1_555
Ge0 O17 1.787640 1_555
Ge1 O1 1.738007 1_565
Ge1 O9 1.780785 1_555
Ge1 O21 1.786594 1_555
Ge1 O18 1.787641 1_555
Ge2 O2 1.738006 1_455
Ge2 O10 1.780789 1_555
Ge2 O22 1.786585 1_555
Ge2 O19 1.787646 1_555
Ge3 O23 1.755448 1_555
Ge3 O14 1.768972 1_555
Ge3 O3 1.778506 1_555
Ge3 O11 1.781921 1_555
Ge4 O24 1.755448 1_555
Ge4 O15 1.768972 1_555
Ge4 O4 1.778507 1_545
Ge4 O12 1.781921 1_555
Ge5 O25 1.755448 1_555
Ge5 O16 1.768972 1_555
Ge5 O5 1.778506 1_655
Ge5 O13 1.781921 1_555
O0 Pr2 2.451136 1_556
O0 Pr4 2.710546 1_555
O1 Pr2 2.451133 1_556
O1 Pr5 2.710546 1_555
O2 Pr2 2.451129 1_556
O2 Pr3 2.710546 1_555
O3 Pr1 2.442910 1_555
O3 Pr0 2.447020 1_555
O3 Pr7 2.848971 1_555
O4 Pr1 2.442908 1_555
O4 Pr0 2.447017 1_555
O4 Pr8 2.848971 1_555
O5 Pr1 2.442904 1_555
O5 Pr0 2.447014 1_555
O5 Pr6 2.848971 1_555
O6 Pr3 2.344785 1_455
O6 Pr4 2.344785 1_445
O6 Pr5 2.344785 1_555
O7 Pr6 2.319659 1_545
O7 Pr7 2.319659 1_555
O7 Pr8 2.319659 1_445
O8 Pr8 2.432529 1_555
O8 Pr3 2.601901 1_565
O8 Pr1 2.857450 1_555
O9 Pr6 2.432529 1_555
O9 Pr4 2.601901 1_455
O9 Pr1 2.857440 1_555
O10 Pr7 2.432529 1_555
O10 Pr5 2.601901 1_555
O10 Pr1 2.857447 1_555
O11 Pr5 2.416567 1_554
O11 Pr6 2.591006 1_545
O11 Pr2 2.925127 1_555
O12 Pr3 2.416567 1_554
O12 Pr7 2.591006 1_655
O12 Pr2 2.925117 1_555
O13 Pr4 2.416567 1_554
O13 Pr8 2.591006 1_555
O13 Pr2 2.925124 1_555
O14 Pr5 2.397009 1_555
O14 Pr6 2.516708 1_545
O15 Pr3 2.397009 1_555
O15 Pr7 2.516708 1_655
O16 Pr4 2.397009 1_555
O16 Pr8 2.516708 1_555
O17 Pr8 2.458527 1_556
O17 Pr3 2.572417 1_565
O17 Pr0 2.846284 1_556
O18 Pr6 2.458527 1_556
O18 Pr4 2.572417 1_455
O18 Pr0 2.846274 1_556
O19 Pr7 2.458527 1_556
O19 Pr5 2.572417 1_555
O19 Pr0 2.846282 1_556
O20 Pr5 2.513480 1_555
O20 Pr1 2.532934 1_555
O20 Pr0 2.540114 1_556
O21 Pr3 2.513480 1_565
O21 Pr1 2.532929 1_555
O21 Pr0 2.540109 1_556
O22 Pr4 2.513480 1_455
O22 Pr1 2.532928 1_555
O22 Pr0 2.540107 1_556
O23 Pr8 2.492137 1_555
O23 Pr2 2.514616 1_555
O24 Pr6 2.492137 1_545
O24 Pr2 2.514611 1_555
O25 Pr7 2.492137 1_655
O25 Pr2 2.514609 1_555
