# generated using pymatgen
data_Mg3Ti
_symmetry_space_group_name_H-M   'P 1'
_cell_length_a   6.13480800
_cell_length_b   10.09914800
_cell_length_c   10.94927400
_cell_angle_alpha   90.00000000
_cell_angle_beta   90.00000000
_cell_angle_gamma   90.00000000
_symmetry_Int_Tables_number   1
_chemical_formula_structural   Mg3Ti
_chemical_formula_sum   'Mg24 Ti8'
_cell_volume   678.37687638
_cell_formula_units_Z   8
loop_
 _symmetry_equiv_pos_site_id
 _symmetry_equiv_pos_as_xyz
  1  'x, y, z'
loop_
 _atom_site_type_symbol
 _atom_site_label
 _atom_site_symmetry_multiplicity
 _atom_site_fract_x
 _atom_site_fract_y
 _atom_site_fract_z
 _atom_site_occupancy
  Mg  Mg0_0  1  0.00000000  0.00000000  0.33187250  1
  Mg  Mg0_1  1  0.00000000  0.00000000  0.83187250  1
  Mg  Mg0_2  1  0.00000000  0.50000000  0.33187250  1
  Mg  Mg0_3  1  0.00000000  0.50000000  0.83187250  1
  Mg  Mg0_4  1  0.50000000  0.00000000  0.33187250  1
  Mg  Mg0_5  1  0.50000000  0.00000000  0.83187250  1
  Mg  Mg0_6  1  0.50000000  0.50000000  0.33187250  1
  Mg  Mg0_7  1  0.50000000  0.50000000  0.83187250  1
  Mg  Mg1_0  1  0.00000000  0.25000000  0.16150150  1
  Mg  Mg1_1  1  0.00000000  0.25000000  0.66150150  1
  Mg  Mg1_2  1  0.00000000  0.75000000  0.16150150  1
  Mg  Mg1_3  1  0.00000000  0.75000000  0.66150150  1
  Mg  Mg1_4  1  0.50000000  0.25000000  0.16150150  1
  Mg  Mg1_5  1  0.50000000  0.25000000  0.66150150  1
  Mg  Mg1_6  1  0.50000000  0.75000000  0.16150150  1
  Mg  Mg1_7  1  0.50000000  0.75000000  0.66150150  1
  Mg  Mg2_0  1  0.25000000  0.25000000  0.42297850  1
  Mg  Mg2_1  1  0.25000000  0.25000000  0.92297850  1
  Mg  Mg2_2  1  0.25000000  0.75000000  0.42297850  1
  Mg  Mg2_3  1  0.25000000  0.75000000  0.92297850  1
  Mg  Mg2_4  1  0.75000000  0.25000000  0.42297850  1
  Mg  Mg2_5  1  0.75000000  0.25000000  0.92297850  1
  Mg  Mg2_6  1  0.75000000  0.75000000  0.42297850  1
  Mg  Mg2_7  1  0.75000000  0.75000000  0.92297850  1
  Ti  Ti0_0  1  0.25000000  0.00000000  0.08364750  1
  Ti  Ti0_1  1  0.25000000  0.00000000  0.58364750  1
  Ti  Ti0_2  1  0.25000000  0.50000000  0.08364750  1
  Ti  Ti0_3  1  0.25000000  0.50000000  0.58364750  1
  Ti  Ti0_4  1  0.75000000  0.00000000  0.08364750  1
  Ti  Ti0_5  1  0.75000000  0.00000000  0.58364750  1
  Ti  Ti0_6  1  0.75000000  0.50000000  0.08364750  1
  Ti  Ti0_7  1  0.75000000  0.50000000  0.58364750  1
loop_
_geom_bond_atom_site_label_1
_geom_bond_atom_site_label_2
_geom_bond_distance
_geom_bond_site_symmetry_2
Mg0_0 Mg0_4 3.067404 1_455
Mg0_0 Mg0_4 3.067404 1_555
Mg0_0 Mg2_2 3.117994 1_545
Mg0_0 Mg2_6 3.117994 1_445
Mg0_0 Mg2_0 3.117994 1_555
Mg0_0 Mg2_4 3.117994 1_455
Mg0_0 Ti0_0 3.120758 1_555
Mg0_0 Ti0_4 3.120758 1_455
Mg0_0 Mg1_0 3.139174 1_555
Mg0_0 Mg1_2 3.139174 1_545
Mg0_0 Ti0_1 3.154668 1_555
Mg0_0 Ti0_5 3.154668 1_455
Mg0_1 Mg0_5 3.067404 1_555
Mg0_1 Mg0_5 3.067404 1_455
Mg0_1 Mg2_1 3.117994 1_555
Mg0_1 Mg2_5 3.117994 1_455
Mg0_1 Mg2_3 3.117994 1_545
Mg0_1 Mg2_7 3.117994 1_445
Mg0_1 Ti0_5 3.120758 1_455
Mg0_1 Ti0_1 3.120758 1_555
Mg0_1 Mg1_3 3.139174 1_545
Mg0_1 Mg1_1 3.139174 1_555
Mg0_1 Ti0_0 3.154668 1_556
Mg0_1 Ti0_4 3.154668 1_456
Mg0_2 Mg0_6 3.067404 1_555
Mg0_2 Mg0_6 3.067404 1_455
Mg0_2 Mg2_2 3.117994 1_555
Mg0_2 Mg2_6 3.117994 1_455
Mg0_2 Mg2_0 3.117994 1_555
Mg0_2 Mg2_4 3.117994 1_455
Mg0_2 Ti0_2 3.120758 1_555
Mg0_2 Ti0_6 3.120758 1_455
Mg0_2 Mg1_0 3.139174 1_555
Mg0_2 Mg1_2 3.139174 1_555
Mg0_2 Ti0_7 3.154668 1_455
Mg0_2 Ti0_3 3.154668 1_555
Mg0_3 Mg0_7 3.067404 1_455
Mg0_3 Mg0_7 3.067404 1_555
Mg0_3 Mg2_1 3.117994 1_555
Mg0_3 Mg2_3 3.117994 1_555
Mg0_3 Mg2_7 3.117994 1_455
Mg0_3 Mg2_5 3.117994 1_455
Mg0_3 Ti0_7 3.120758 1_455
Mg0_3 Ti0_3 3.120758 1_555
Mg0_3 Mg1_3 3.139174 1_555
Mg0_3 Mg1_1 3.139174 1_555
Mg0_3 Ti0_2 3.154668 1_556
Mg0_3 Ti0_6 3.154668 1_456
Mg0_4 Mg2_4 3.117994 1_555
Mg0_4 Mg2_2 3.117994 1_545
Mg0_4 Mg2_0 3.117994 1_555
Mg0_4 Mg2_6 3.117994 1_545
Mg0_4 Ti0_4 3.120758 1_555
Mg0_4 Ti0_0 3.120758 1_555
Mg0_4 Mg1_6 3.139174 1_545
Mg0_4 Mg1_4 3.139174 1_555
Mg0_4 Ti0_1 3.154668 1_555
Mg0_4 Ti0_5 3.154668 1_555
Mg0_5 Mg2_1 3.117994 1_555
Mg0_5 Mg2_7 3.117994 1_545
Mg0_5 Mg2_5 3.117994 1_555
Mg0_5 Mg2_3 3.117994 1_545
Mg0_5 Ti0_5 3.120758 1_555
Mg0_5 Ti0_1 3.120758 1_555
Mg0_5 Mg1_7 3.139174 1_545
Mg0_5 Mg1_5 3.139174 1_555
Mg0_5 Ti0_4 3.154668 1_556
Mg0_5 Ti0_0 3.154668 1_556
Mg0_6 Mg2_4 3.117994 1_555
Mg0_6 Mg2_2 3.117994 1_555
Mg0_6 Mg2_0 3.117994 1_555
Mg0_6 Mg2_6 3.117994 1_555
Mg0_6 Ti0_6 3.120758 1_555
Mg0_6 Ti0_2 3.120758 1_555
Mg0_6 Mg1_6 3.139174 1_555
Mg0_6 Mg1_4 3.139174 1_555
Mg0_6 Ti0_7 3.154668 1_555
Mg0_6 Ti0_3 3.154668 1_555
Mg0_7 Mg2_7 3.117994 1_555
Mg0_7 Mg2_1 3.117994 1_555
Mg0_7 Mg2_3 3.117994 1_555
Mg0_7 Mg2_5 3.117994 1_555
Mg0_7 Ti0_3 3.120758 1_555
Mg0_7 Ti0_7 3.120758 1_555
Mg0_7 Mg1_7 3.139174 1_555
Mg0_7 Mg1_5 3.139174 1_555
Mg0_7 Ti0_2 3.154668 1_556
Mg0_7 Ti0_6 3.154668 1_556
Mg1_0 Mg2_5 3.028692 1_454
Mg1_0 Mg2_1 3.028692 1_554
Mg1_0 Mg1_4 3.067404 1_555
Mg1_0 Mg1_4 3.067404 1_455
Mg1_0 Ti0_0 3.074647 1_555
Mg1_0 Ti0_6 3.074647 1_455
Mg1_0 Ti0_2 3.074647 1_555
Mg1_0 Ti0_4 3.074647 1_455
Mg1_0 Mg2_0 3.247909 1_555
Mg1_0 Mg2_4 3.247909 1_455
Mg1_1 Mg2_0 3.028692 1_555
Mg1_1 Mg2_4 3.028692 1_455
Mg1_1 Mg1_5 3.067404 1_455
Mg1_1 Mg1_5 3.067404 1_555
Mg1_1 Ti0_3 3.074647 1_555
Mg1_1 Ti0_1 3.074647 1_555
Mg1_1 Ti0_5 3.074647 1_455
Mg1_1 Ti0_7 3.074647 1_455
Mg1_1 Mg2_5 3.247909 1_455
Mg1_1 Mg2_1 3.247909 1_555
Mg1_2 Mg2_3 3.028692 1_554
Mg1_2 Mg2_7 3.028692 1_454
Mg1_2 Mg1_6 3.067404 1_455
Mg1_2 Mg1_6 3.067404 1_555
Mg1_2 Ti0_0 3.074647 1_565
Mg1_2 Ti0_4 3.074647 1_465
Mg1_2 Ti0_6 3.074647 1_455
Mg1_2 Ti0_2 3.074647 1_555
Mg1_2 Mg2_6 3.247909 1_455
Mg1_2 Mg2_2 3.247909 1_555
Mg1_3 Mg2_2 3.028692 1_555
Mg1_3 Mg2_6 3.028692 1_455
Mg1_3 Mg1_7 3.067404 1_455
Mg1_3 Mg1_7 3.067404 1_555
Mg1_3 Ti0_1 3.074647 1_565
Mg1_3 Ti0_3 3.074647 1_555
Mg1_3 Ti0_5 3.074647 1_465
Mg1_3 Ti0_7 3.074647 1_455
Mg1_3 Mg2_7 3.247909 1_455
Mg1_3 Mg2_3 3.247909 1_555
Mg1_4 Mg2_5 3.028692 1_554
Mg1_4 Mg2_1 3.028692 1_554
Mg1_4 Ti0_6 3.074647 1_555
Mg1_4 Ti0_0 3.074647 1_555
Mg1_4 Ti0_4 3.074647 1_555
Mg1_4 Ti0_2 3.074647 1_555
Mg1_4 Mg2_0 3.247909 1_555
Mg1_4 Mg2_4 3.247909 1_555
Mg1_5 Mg2_0 3.028692 1_555
Mg1_5 Mg2_4 3.028692 1_555
Mg1_5 Ti0_3 3.074647 1_555
Mg1_5 Ti0_7 3.074647 1_555
Mg1_5 Ti0_1 3.074647 1_555
Mg1_5 Ti0_5 3.074647 1_555
Mg1_5 Mg2_1 3.247909 1_555
Mg1_5 Mg2_5 3.247909 1_555
Mg1_6 Mg2_7 3.028692 1_554
Mg1_6 Mg2_3 3.028692 1_554
Mg1_6 Ti0_6 3.074647 1_555
Mg1_6 Ti0_0 3.074647 1_565
Mg1_6 Ti0_4 3.074647 1_565
Mg1_6 Ti0_2 3.074647 1_555
Mg1_6 Mg2_6 3.247909 1_555
Mg1_6 Mg2_2 3.247909 1_555
Mg1_7 Mg2_2 3.028692 1_555
Mg1_7 Mg2_6 3.028692 1_555
Mg1_7 Ti0_1 3.074647 1_565
Mg1_7 Ti0_3 3.074647 1_555
Mg1_7 Ti0_7 3.074647 1_555
Mg1_7 Ti0_5 3.074647 1_565
Mg1_7 Mg2_7 3.247909 1_555
Mg1_7 Mg2_3 3.247909 1_555
Mg2_0 Mg2_4 3.067404 1_555
Mg2_0 Mg2_4 3.067404 1_455
Mg2_0 Ti0_3 3.077233 1_555
Mg2_0 Ti0_1 3.077233 1_555
Mg2_1 Mg2_5 3.067404 1_455
Mg2_1 Mg2_5 3.067404 1_555
Mg2_1 Ti0_2 3.077233 1_556
Mg2_1 Ti0_0 3.077233 1_556
Mg2_2 Mg2_6 3.067404 1_555
Mg2_2 Mg2_6 3.067404 1_455
Mg2_2 Ti0_3 3.077233 1_555
Mg2_2 Ti0_1 3.077233 1_565
Mg2_3 Mg2_7 3.067404 1_455
Mg2_3 Mg2_7 3.067404 1_555
Mg2_3 Ti0_2 3.077233 1_556
Mg2_3 Ti0_0 3.077233 1_566
Mg2_4 Ti0_5 3.077233 1_555
Mg2_4 Ti0_7 3.077233 1_555
Mg2_5 Ti0_6 3.077233 1_556
Mg2_5 Ti0_4 3.077233 1_556
Mg2_6 Ti0_5 3.077233 1_565
Mg2_6 Ti0_7 3.077233 1_555
Mg2_7 Ti0_6 3.077233 1_556
Mg2_7 Ti0_4 3.077233 1_566
Ti0_0 Ti0_4 3.067404 1_555
Ti0_0 Ti0_4 3.067404 1_455
Ti0_1 Ti0_5 3.067404 1_455
Ti0_1 Ti0_5 3.067404 1_555
Ti0_2 Ti0_6 3.067404 1_455
Ti0_2 Ti0_6 3.067404 1_555
Ti0_3 Ti0_7 3.067404 1_555
Ti0_3 Ti0_7 3.067404 1_455
