# generated using pymatgen
data_Hf3AgHg3F20
_symmetry_space_group_name_H-M   'P 1'
_cell_length_a   10.77755439
_cell_length_b   10.77755439
_cell_length_c   8.63257400
_cell_angle_alpha   90.00000000
_cell_angle_beta   90.00000000
_cell_angle_gamma   120.00000237
_symmetry_Int_Tables_number   1
_chemical_formula_structural   Hf3AgHg3F20
_chemical_formula_sum   'Hf6 Ag2 Hg6 F40'
_cell_volume   868.38312899
_cell_formula_units_Z   2
loop_
 _symmetry_equiv_pos_site_id
 _symmetry_equiv_pos_as_xyz
  1  'x, y, z'
loop_
 _atom_site_type_symbol
 _atom_site_label
 _atom_site_symmetry_multiplicity
 _atom_site_fract_x
 _atom_site_fract_y
 _atom_site_fract_z
 _atom_site_occupancy
  Hf  Hf0  1  0.41826300  0.14006100  0.25000000  1
  Hf  Hf1  1  0.58173700  0.85993900  0.75000000  1
  Hf  Hf2  1  0.85993900  0.27820200  0.25000000  1
  Hf  Hf3  1  0.14006100  0.72179800  0.75000000  1
  Hf  Hf4  1  0.72179800  0.58173700  0.25000000  1
  Hf  Hf5  1  0.27820200  0.41826300  0.75000000  1
  Ag  Ag0  1  0.00000000  0.00000000  0.25000000  1
  Ag  Ag1  1  0.00000000  0.00000000  0.75000000  1
  Hg  Hg0  1  0.27071900  0.43053900  0.25000000  1
  Hg  Hg1  1  0.72928100  0.56946100  0.75000000  1
  Hg  Hg2  1  0.56946100  0.84018100  0.25000000  1
  Hg  Hg3  1  0.43053900  0.15981900  0.75000000  1
  Hg  Hg4  1  0.15981900  0.72928100  0.25000000  1
  Hg  Hg5  1  0.84018100  0.27071900  0.75000000  1
  F  F0  1  0.42506800  0.14516200  0.02002600  1
  F  F1  1  0.57493200  0.85483800  0.97997400  1
  F  F2  1  0.85483800  0.27990600  0.02002600  1
  F  F3  1  0.57493200  0.85483800  0.52002600  1
  F  F4  1  0.14516200  0.72009400  0.97997400  1
  F  F5  1  0.42506800  0.14516200  0.47997400  1
  F  F6  1  0.72009400  0.57493200  0.02002600  1
  F  F7  1  0.14516200  0.72009400  0.52002600  1
  F  F8  1  0.27990600  0.42506800  0.97997400  1
  F  F9  1  0.85483800  0.27990600  0.47997400  1
  F  F10  1  0.27990600  0.42506800  0.52002600  1
  F  F11  1  0.72009400  0.57493200  0.47997400  1
  F  F12  1  0.28273100  0.22208500  0.25000000  1
  F  F13  1  0.71726900  0.77791500  0.75000000  1
  F  F14  1  0.77791500  0.06064700  0.25000000  1
  F  F15  1  0.22208500  0.93935300  0.75000000  1
  F  F16  1  0.93935300  0.71726900  0.25000000  1
  F  F17  1  0.06064700  0.28273100  0.75000000  1
  F  F18  1  0.02969200  0.23311500  0.25000000  1
  F  F19  1  0.97030800  0.76688500  0.75000000  1
  F  F20  1  0.76688500  0.79657800  0.25000000  1
  F  F21  1  0.23311500  0.20342200  0.75000000  1
  F  F22  1  0.20342200  0.97030800  0.25000000  1
  F  F23  1  0.79657800  0.02969200  0.75000000  1
  F  F24  1  0.33333300  0.66666700  0.25000000  1
  F  F25  1  0.66666700  0.33333300  0.75000000  1
  F  F26  1  0.63421000  0.18547600  0.25000000  1
  F  F27  1  0.36579000  0.81452400  0.75000000  1
  F  F28  1  0.81452400  0.44873400  0.25000000  1
  F  F29  1  0.18547600  0.55126600  0.75000000  1
  F  F30  1  0.55126600  0.36579000  0.25000000  1
  F  F31  1  0.44873400  0.63421000  0.75000000  1
  F  F32  1  0.05330300  0.46755200  0.25000000  1
  F  F33  1  0.94669700  0.53244800  0.75000000  1
  F  F34  1  0.53244800  0.58575100  0.25000000  1
  F  F35  1  0.46755200  0.41424900  0.75000000  1
  F  F36  1  0.41424900  0.94669700  0.25000000  1
  F  F37  1  0.58575100  0.05330300  0.75000000  1
  F  F38  1  0.00000000  0.00000000  0.00000000  1
  F  F39  1  0.00000000  0.00000000  0.50000000  1
loop_
_geom_bond_atom_site_label_1
_geom_bond_atom_site_label_2
_geom_bond_distance
_geom_bond_site_symmetry_2
Ag0 F39 2.158143 1_555
Ag0 F38 2.158143 1_555
Ag0 F22 2.368664 1_545
Ag0 F20 2.368670 1_445
Ag0 F18 2.368674 1_555
Ag1 F39 2.158143 1_555
Ag1 F38 2.158143 1_556
Ag1 F23 2.368664 1_455
Ag1 F21 2.368670 1_555
Ag1 F19 2.368674 1_445
F0 Hf0 1.986368 1_555
F0 Hg3 2.335116 1_554
F1 Hf1 1.986368 1_555
F1 Hg2 2.335116 1_556
F2 Hf2 1.986368 1_555
F2 Hg5 2.335116 1_554
F3 Hf1 1.986368 1_555
F3 Hg2 2.335116 1_555
F4 Hf3 1.986368 1_555
F4 Hg4 2.335116 1_556
F5 Hf0 1.986368 1_555
F5 Hg3 2.335116 1_555
F6 Hf4 1.986368 1_555
F6 Hg1 2.335117 1_554
F7 Hf3 1.986368 1_555
F7 Hg4 2.335116 1_555
F8 Hf5 1.986368 1_555
F8 Hg0 2.335117 1_556
F9 Hf2 1.986368 1_555
F9 Hg5 2.335116 1_555
F10 Hf5 1.986368 1_555
F10 Hg0 2.335117 1_555
F11 Hf4 1.986368 1_555
F11 Hg1 2.335117 1_555
F12 Hf0 2.050959 1_555
F12 Hg0 2.314072 1_555
F13 Hf1 2.050959 1_555
F13 Hg1 2.314072 1_555
F14 Hf2 2.050949 1_555
F14 Hg2 2.314072 1_545
F15 Hf3 2.050949 1_555
F15 Hg3 2.314072 1_565
F16 Hf4 2.050950 1_555
F16 Hg4 2.314072 1_655
F17 Hf5 2.050950 1_555
F17 Hg5 2.314072 1_455
F18 Hf2 2.114780 1_455
F18 Hg0 2.397509 1_555
F19 Hf3 2.114780 1_655
F19 Hg1 2.397509 1_555
F20 Hf4 2.114790 1_555
F20 Hg2 2.397509 1_555
F21 Hf5 2.114790 1_555
F21 Hg3 2.397509 1_555
F22 Hf0 2.114787 1_565
F22 Hg4 2.397509 1_555
F23 Hf1 2.114787 1_545
F23 Hg5 2.397509 1_555
F24 Hg2 2.283520 1_555
F24 Hg0 2.283520 1_555
F24 Hg4 2.283520 1_555
F25 Hg3 2.283520 1_555
F25 Hg1 2.283520 1_555
F25 Hg5 2.283520 1_555
F26 Hf2 2.118022 1_555
F26 Hf0 2.125349 1_555
F27 Hf3 2.118022 1_555
F27 Hf1 2.125349 1_555
F28 Hf4 2.118022 1_555
F28 Hf2 2.125349 1_555
F29 Hf5 2.118022 1_555
F29 Hf3 2.125349 1_555
F30 Hf0 2.118022 1_555
F30 Hf4 2.125349 1_555
F31 Hf1 2.118022 1_555
F31 Hf5 2.125349 1_555
F32 Hf2 2.062701 1_455
F32 Hg4 2.456937 1_555
F32 Hg0 2.566029 1_555
F33 Hf3 2.062701 1_655
F33 Hg5 2.456937 1_555
F33 Hg1 2.566029 1_555
F34 Hf4 2.062701 1_555
F34 Hg0 2.456936 1_555
F34 Hg2 2.566040 1_555
F35 Hf5 2.062701 1_555
F35 Hg1 2.456936 1_555
F35 Hg3 2.566040 1_555
F36 Hf0 2.062701 1_565
F36 Hg2 2.456928 1_555
F36 Hg4 2.566036 1_555
F37 Hf1 2.062701 1_545
F37 Hg3 2.456928 1_555
F37 Hg5 2.566036 1_555
