# generated using pymatgen
data_TlV5S8
_symmetry_space_group_name_H-M   'P 1'
_cell_length_a   9.15452011
_cell_length_b   9.15452011
_cell_length_c   8.56776544
_cell_angle_alpha   74.94254858
_cell_angle_beta   74.94254858
_cell_angle_gamma   21.78261838
_symmetry_Int_Tables_number   1
_chemical_formula_structural   TlV5S8
_chemical_formula_sum   'Tl1 V5 S8'
_cell_volume   256.95538008
_cell_formula_units_Z   1
loop_
 _symmetry_equiv_pos_site_id
 _symmetry_equiv_pos_as_xyz
  1  'x, y, z'
loop_
 _atom_site_type_symbol
 _atom_site_label
 _atom_site_symmetry_multiplicity
 _atom_site_fract_x
 _atom_site_fract_y
 _atom_site_fract_z
 _atom_site_occupancy
  Tl  Tl0  1  0.97099130  0.02900870  -0.00000000  1
  V  V0  1  0.81046607  0.88118683  0.47705404  1
  V  V1  1  0.11881317  0.18953393  0.52294596  1
  V  V2  1  0.46434703  0.53565297  0.50000000  1
  V  V3  1  0.17527210  0.24657417  0.15058135  1
  V  V4  1  0.75342583  0.82472790  0.84941865  1
  S  S0  1  0.04072088  0.11202624  0.33669722  1
  S  S1  1  0.88797376  0.95927912  0.66330278  1
  S  S2  1  0.38149501  0.45212771  0.31642003  1
  S  S3  1  0.54787229  0.61850499  0.68357997  1
  S  S4  1  0.70263681  0.77382635  0.34232966  1
  S  S5  1  0.22617365  0.29736319  0.65767034  1
  S  S6  1  0.62859316  0.69978207  0.00931866  1
  S  S7  1  0.30021793  0.37140684  -0.00931866  1
loop_
_geom_bond_atom_site_label_1
_geom_bond_atom_site_label_2
_geom_bond_distance
_geom_bond_site_symmetry_2
S0 V1 2.384111 1_555
S0 V2 2.412154 1_545
S0 V2 2.412156 1_455
S0 V3 2.520668 1_555
S1 V0 2.384111 1_555
S1 V2 2.412154 1_655
S1 V2 2.412156 1_565
S1 V4 2.520668 1_555
S2 V0 2.363257 1_545
S2 V0 2.363480 1_455
S2 V2 2.440423 1_555
S2 Tl0 3.218402 1_465
S2 Tl0 3.241772 1_555
S3 V1 2.363257 1_655
S3 V1 2.363480 1_565
S3 V2 2.440423 1_555
S3 Tl0 3.218402 1_466
S3 Tl0 3.241772 1_556
S4 V0 2.501206 1_555
S4 V3 2.521520 1_655
S4 V3 2.521787 1_565
S4 V1 2.535824 1_565
S4 V1 2.536930 1_655
S5 V1 2.501206 1_555
S5 V4 2.521520 1_545
S5 V4 2.521787 1_455
S5 V0 2.535824 1_455
S5 V0 2.536930 1_545
S6 V4 2.300244 1_554
S6 V3 2.387513 1_655
S6 V3 2.387797 1_565
S7 V3 2.300244 1_555
S7 V4 2.387513 1_544
S7 V4 2.387797 1_454
