# generated using pymatgen
data_Mg6CoW
_symmetry_space_group_name_H-M   'P 1'
_cell_length_a   4.65146000
_cell_length_b   5.86405200
_cell_length_c   10.94449100
_cell_angle_alpha   90.00000000
_cell_angle_beta   90.00000000
_cell_angle_gamma   90.00000000
_symmetry_Int_Tables_number   1
_chemical_formula_structural   Mg6CoW
_chemical_formula_sum   'Mg12 Co2 W2'
_cell_volume   298.52635060
_cell_formula_units_Z   2
loop_
 _symmetry_equiv_pos_site_id
 _symmetry_equiv_pos_as_xyz
  1  'x, y, z'
loop_
 _atom_site_type_symbol
 _atom_site_label
 _atom_site_symmetry_multiplicity
 _atom_site_fract_x
 _atom_site_fract_y
 _atom_site_fract_z
 _atom_site_occupancy
  Mg  Mg0  1  0.00000000  0.73749500  0.08379000  1
  Mg  Mg1  1  0.00000000  0.26250500  0.08379000  1
  Mg  Mg2  1  0.00000000  0.00000000  0.32740700  1
  Mg  Mg3  1  0.50000000  0.25666800  0.42228700  1
  Mg  Mg4  1  0.50000000  0.74333200  0.42228700  1
  Mg  Mg5  1  0.50000000  0.00000000  0.17008200  1
  Mg  Mg6  1  0.00000000  0.23749500  0.58379000  1
  Mg  Mg7  1  0.00000000  0.76250500  0.58379000  1
  Mg  Mg8  1  0.00000000  0.50000000  0.82740700  1
  Mg  Mg9  1  0.50000000  0.75666800  0.92228700  1
  Mg  Mg10  1  0.50000000  0.24333200  0.92228700  1
  Mg  Mg11  1  0.50000000  0.50000000  0.67008200  1
  Co  Co0  1  0.00000000  0.50000000  0.29614200  1
  Co  Co1  1  0.00000000  0.00000000  0.79614200  1
  W  W0  1  0.50000000  0.50000000  0.19421500  1
  W  W1  1  0.50000000  0.00000000  0.69421500  1
loop_
_geom_bond_atom_site_label_1
_geom_bond_atom_site_label_2
_geom_bond_distance
_geom_bond_site_symmetry_2
Mg0 Mg1 2.785366 1_555
Mg0 Mg9 2.923347 1_454
Mg0 Mg9 2.923347 1_554
Mg0 Mg5 2.944576 1_565
Mg0 Mg5 2.944576 1_465
Mg0 W0 2.968024 1_455
Mg0 W0 2.968024 1_555
Mg0 Mg1 3.078686 1_565
Mg0 Mg2 3.078724 1_565
Mg0 Mg8 3.132586 1_554
Mg1 Mg10 2.923347 1_454
Mg1 Mg10 2.923347 1_554
Mg1 Mg5 2.944576 1_455
Mg1 Mg5 2.944576 1_555
Mg1 W0 2.968024 1_455
Mg1 W0 2.968024 1_555
Mg1 Mg2 3.078724 1_555
Mg1 Mg8 3.132586 1_554
Mg2 Mg5 2.893745 1_455
Mg2 Mg5 2.893745 1_555
Mg2 Mg3 2.958495 1_555
Mg2 Mg4 2.958495 1_445
Mg2 Mg4 2.958495 1_545
Mg2 Mg3 2.958495 1_455
Mg2 Mg6 3.132586 1_555
Mg2 Mg7 3.132586 1_545
Mg3 Mg4 2.853823 1_555
Mg3 W0 2.875196 1_555
Mg3 Mg6 2.923347 1_655
Mg3 Mg6 2.923347 1_555
Mg3 Mg4 3.010229 1_545
Mg3 Mg5 3.143943 1_555
Mg3 W1 3.335059 1_555
Mg4 W0 2.875196 1_555
Mg4 Mg7 2.923347 1_555
Mg4 Mg7 2.923347 1_655
Mg4 Mg5 3.143943 1_565
Mg4 W1 3.335059 1_565
Mg5 W0 2.943898 1_555
Mg5 W0 2.943898 1_545
Mg5 Mg9 3.064468 1_544
Mg6 Mg7 2.785366 1_545
Mg6 W1 2.968024 1_455
Mg6 W1 2.968024 1_555
Mg6 Mg7 3.078686 1_555
Mg6 Mg8 3.078724 1_555
Mg7 W1 2.968024 1_565
Mg7 W1 2.968024 1_465
Mg7 Mg8 3.078724 1_555
Mg8 Mg9 2.958495 1_555
Mg8 Mg9 2.958495 1_455
Mg9 W1 2.875196 1_565
Mg9 W0 3.335059 1_556
Mg10 Mg9 2.853823 1_545
Mg10 W1 2.875196 1_555
Mg10 Mg8 2.958495 1_555
Mg10 Mg8 2.958495 1_655
Mg10 Mg9 3.010229 1_555
Mg10 Mg5 3.064468 1_556
Mg10 Mg11 3.143943 1_555
Mg10 W0 3.335059 1_556
Mg11 Mg8 2.893745 1_655
Mg11 Mg8 2.893745 1_555
Mg11 W1 2.943898 1_565
Mg11 W1 2.943898 1_555
Mg11 Mg7 2.944576 1_555
Mg11 Mg7 2.944576 1_655
Mg11 Mg6 2.944576 1_655
Mg11 Mg6 2.944576 1_555
Mg11 Mg4 3.064468 1_555
Mg11 Mg3 3.064468 1_555
Mg11 Mg9 3.143943 1_555
Co0 W0 2.579428 1_455
Co0 W0 2.579428 1_555
Co0 Mg1 2.709416 1_555
Co0 Mg0 2.709416 1_555
Co0 Mg2 2.951925 1_565
Co0 Mg2 2.951925 1_555
Co0 Mg3 3.057962 1_455
Co0 Mg4 3.057962 1_555
Co0 Mg3 3.057962 1_555
Co0 Mg4 3.057962 1_455
Co1 W1 2.579428 1_555
Co1 W1 2.579428 1_455
Co1 Mg6 2.709416 1_555
Co1 Mg7 2.709416 1_545
Co1 Mg8 2.951925 1_555
Co1 Mg8 2.951925 1_545
Co1 Mg10 3.057962 1_455
Co1 Mg9 3.057962 1_545
Co1 Mg10 3.057962 1_555
Co1 Mg9 3.057962 1_445
