# generated using pymatgen
data_CsNa2Bi
_symmetry_space_group_name_H-M   'P 1'
_cell_length_a   14.32315377
_cell_length_b   14.46567690
_cell_length_c   14.46567691
_cell_angle_alpha   60.72927536
_cell_angle_beta   60.32538602
_cell_angle_gamma   60.32538877
_symmetry_Int_Tables_number   1
_chemical_formula_structural   CsNa2Bi
_chemical_formula_sum   'Cs1 Na2 Bi1'
_cell_volume   2141.31162555
_cell_formula_units_Z   1
loop_
 _symmetry_equiv_pos_site_id
 _symmetry_equiv_pos_as_xyz
  1  'x, y, z'
loop_
 _atom_site_type_symbol
 _atom_site_label
 _atom_site_symmetry_multiplicity
 _atom_site_fract_x
 _atom_site_fract_y
 _atom_site_fract_z
 _atom_site_occupancy
  Cs  Cs0  1  0.00000000  0.00000000  0.00000000  1
  Na  Na0  1  0.71403351  0.00000000  1.00000000  1
  Na  Na1  1  0.28596649  1.00000000  0.00000000  1
  Bi  Bi0  1  0.50000000  0.00000000  0.00000000  1
loop_
_geom_bond_atom_site_label_1
_geom_bond_atom_site_label_2
_geom_bond_distance
_geom_bond_site_symmetry_2
Cs0 Na0 4.095942 1_454
Cs0 Na1 4.095942 1_545
Bi0 Na1 3.065635 1_545
Bi0 Na0 3.065635 1_554
