# generated using pymatgen
data_K2Na2Mo3WO12
_symmetry_space_group_name_H-M   'P 1'
_cell_length_a   8.02311800
_cell_length_b   8.02311800
_cell_length_c   7.91262900
_cell_angle_alpha   90.00000000
_cell_angle_beta   90.00000000
_cell_angle_gamma   90.00000000
_symmetry_Int_Tables_number   1
_chemical_formula_structural   K2Na2Mo3WO12
_chemical_formula_sum   'K4 Na4 Mo6 W2 O24'
_cell_volume   509.33927136
_cell_formula_units_Z   2
loop_
 _symmetry_equiv_pos_site_id
 _symmetry_equiv_pos_as_xyz
  1  'x, y, z'
loop_
 _atom_site_type_symbol
 _atom_site_label
 _atom_site_symmetry_multiplicity
 _atom_site_fract_x
 _atom_site_fract_y
 _atom_site_fract_z
 _atom_site_occupancy
  K  K0  1  0.25228300  0.25228300  0.00000000  1
  K  K1  1  0.74771700  0.25228300  0.00000000  1
  K  K2  1  0.25228300  0.74771700  0.00000000  1
  K  K3  1  0.74771700  0.74771700  0.00000000  1
  Na  Na0  1  0.25230100  0.25230100  0.50000000  1
  Na  Na1  1  0.74769900  0.25230100  0.50000000  1
  Na  Na2  1  0.25230100  0.74769900  0.50000000  1
  Na  Na3  1  0.74769900  0.74769900  0.50000000  1
  Mo  Mo0  1  0.50000000  0.00000000  0.74810200  1
  Mo  Mo1  1  0.50000000  0.00000000  0.25189800  1
  Mo  Mo2  1  0.00000000  0.50000000  0.74810200  1
  Mo  Mo3  1  0.00000000  0.50000000  0.25189800  1
  Mo  Mo4  1  0.50000000  0.50000000  0.74724500  1
  Mo  Mo5  1  0.50000000  0.50000000  0.25275500  1
  W  W0  1  0.00000000  0.00000000  0.74744700  1
  W  W1  1  0.00000000  0.00000000  0.25255300  1
  O  O0  1  0.00000000  0.24064800  0.74506200  1
  O  O1  1  0.00000000  0.24064800  0.25493800  1
  O  O2  1  0.50000000  0.25609200  0.74481600  1
  O  O3  1  0.50000000  0.25609200  0.25518400  1
  O  O4  1  0.00000000  0.75935200  0.74506200  1
  O  O5  1  0.00000000  0.75935200  0.25493800  1
  O  O6  1  0.50000000  0.74390800  0.74481600  1
  O  O7  1  0.50000000  0.74390800  0.25518400  1
  O  O8  1  0.24064800  0.00000000  0.74506200  1
  O  O9  1  0.24064800  0.00000000  0.25493800  1
  O  O10  1  0.75935200  0.00000000  0.74506200  1
  O  O11  1  0.75935200  0.00000000  0.25493800  1
  O  O12  1  0.25609200  0.50000000  0.74481600  1
  O  O13  1  0.25609200  0.50000000  0.25518400  1
  O  O14  1  0.74390800  0.50000000  0.74481600  1
  O  O15  1  0.74390800  0.50000000  0.25518400  1
  O  O16  1  0.00000000  0.00000000  0.00000000  1
  O  O17  1  0.00000000  0.00000000  0.50000000  1
  O  O18  1  0.50000000  0.00000000  0.00000000  1
  O  O19  1  0.50000000  0.00000000  0.50000000  1
  O  O20  1  0.00000000  0.50000000  0.00000000  1
  O  O21  1  0.00000000  0.50000000  0.50000000  1
  O  O22  1  0.50000000  0.50000000  0.00000000  1
  O  O23  1  0.50000000  0.50000000  0.50000000  1
loop_
_geom_bond_atom_site_label_1
_geom_bond_atom_site_label_2
_geom_bond_distance
_geom_bond_site_symmetry_2
K0 O22 2.810697 1_555
K0 O13 2.833375 1_555
K0 O3 2.833375 1_555
K0 O2 2.833375 1_554
K0 O12 2.833375 1_554
K0 O20 2.836719 1_555
K0 O18 2.836719 1_555
K0 O0 2.859177 1_554
K0 O9 2.859177 1_555
K0 O8 2.859177 1_554
K0 O1 2.859177 1_555
K0 O16 2.862504 1_555
K1 O22 2.810697 1_555
K1 O3 2.833375 1_555
K1 O15 2.833375 1_555
K1 O2 2.833375 1_554
K1 O14 2.833375 1_554
K1 O18 2.836719 1_555
K1 O20 2.836719 1_655
K1 O10 2.859177 1_554
K1 O11 2.859177 1_555
K1 O1 2.859177 1_655
K1 O0 2.859177 1_654
K1 O16 2.862504 1_655
K2 O22 2.810697 1_555
K2 O13 2.833375 1_555
K2 O7 2.833375 1_555
K2 O6 2.833375 1_554
K2 O12 2.833375 1_554
K2 O20 2.836719 1_555
K2 O18 2.836719 1_565
K2 O4 2.859177 1_554
K2 O5 2.859177 1_555
K2 O8 2.859177 1_564
K2 O9 2.859177 1_565
K2 O16 2.862504 1_565
K3 O22 2.810697 1_555
K3 O15 2.833375 1_555
K3 O7 2.833375 1_555
K3 O6 2.833375 1_554
K3 O14 2.833375 1_554
K3 O18 2.836719 1_565
K3 O20 2.836719 1_655
K3 O5 2.859177 1_655
K3 O4 2.859177 1_654
K3 O11 2.859177 1_565
K3 O10 2.859177 1_564
K3 O16 2.862504 1_665
Na0 O12 2.775403 1_555
Na0 O2 2.775403 1_555
Na0 O13 2.775403 1_555
Na0 O3 2.775403 1_555
Na0 O1 2.804700 1_555
Na0 O8 2.804700 1_555
Na0 O0 2.804700 1_555
Na0 O9 2.804700 1_555
Na0 O23 2.810493 1_555
Na0 O21 2.836721 1_555
Na0 O19 2.836721 1_555
Na0 O17 2.862709 1_555
Na1 O2 2.775403 1_555
Na1 O14 2.775403 1_555
Na1 O15 2.775403 1_555
Na1 O3 2.775403 1_555
Na1 O10 2.804700 1_555
Na1 O11 2.804700 1_555
Na1 O0 2.804700 1_655
Na1 O1 2.804700 1_655
Na1 O23 2.810493 1_555
Na1 O21 2.836721 1_655
Na1 O19 2.836721 1_555
Na1 O17 2.862709 1_655
Na2 O12 2.775403 1_555
Na2 O6 2.775403 1_555
Na2 O7 2.775403 1_555
Na2 O13 2.775403 1_555
Na2 O5 2.804700 1_555
Na2 O8 2.804700 1_565
Na2 O9 2.804700 1_565
Na2 O4 2.804700 1_555
Na2 O23 2.810493 1_555
Na2 O19 2.836721 1_565
Na2 O21 2.836721 1_555
Na2 O17 2.862709 1_565
Na3 O14 2.775403 1_555
Na3 O6 2.775403 1_555
Na3 O15 2.775403 1_555
Na3 O7 2.775403 1_555
Na3 O11 2.804700 1_565
Na3 O10 2.804700 1_565
Na3 O4 2.804700 1_655
Na3 O5 2.804700 1_655
Na3 O23 2.810493 1_555
Na3 O21 2.836721 1_655
Na3 O19 2.836721 1_565
Na3 O17 2.862709 1_665
Mo0 O19 1.963139 1_555
Mo0 O18 1.993175 1_556
Mo0 O2 2.054821 1_555
Mo0 O6 2.054821 1_545
Mo0 O10 2.080951 1_555
Mo0 O8 2.080951 1_555
Mo1 O19 1.963139 1_555
Mo1 O18 1.993175 1_555
Mo1 O7 2.054821 1_545
Mo1 O3 2.054821 1_555
Mo1 O11 2.080951 1_555
Mo1 O9 2.080951 1_555
Mo2 O21 1.963139 1_555
Mo2 O20 1.993175 1_556
Mo2 O12 2.054821 1_555
Mo2 O14 2.054821 1_455
Mo2 O4 2.080951 1_555
Mo2 O0 2.080951 1_555
Mo3 O21 1.963139 1_555
Mo3 O20 1.993175 1_555
Mo3 O13 2.054821 1_555
Mo3 O15 2.054821 1_455
Mo3 O5 2.080951 1_555
Mo3 O1 2.080951 1_555
Mo4 O23 1.956358 1_555
Mo4 O2 1.956997 1_555
Mo4 O14 1.956997 1_555
Mo4 O6 1.956997 1_555
Mo4 O12 1.956997 1_555
Mo4 O22 1.999957 1_556
Mo5 O23 1.956358 1_555
Mo5 O13 1.956997 1_555
Mo5 O3 1.956997 1_555
Mo5 O15 1.956997 1_555
Mo5 O7 1.956997 1_555
Mo5 O22 1.999957 1_555
O0 W0 1.930840 1_555
O1 W1 1.930840 1_555
O4 W0 1.930840 1_565
O5 W1 1.930840 1_565
O8 W0 1.930840 1_555
O9 W1 1.930840 1_555
O10 W0 1.930840 1_655
O11 W1 1.930840 1_655
O16 W1 1.998358 1_555
O16 W0 1.998358 1_554
O17 W0 1.957956 1_555
O17 W1 1.957956 1_555
