# generated using pymatgen
data_Na2Al3Si3NO13
_symmetry_space_group_name_H-M   'P 1'
_cell_length_a   5.28820384
_cell_length_b   15.39972098
_cell_length_c   16.49417115
_cell_angle_alpha   90.00000000
_cell_angle_beta   90.00000000
_cell_angle_gamma   90.00000000
_symmetry_Int_Tables_number   1
_chemical_formula_structural   Na2Al3Si3NO13
_chemical_formula_sum   'Na8 Al12 Si12 N4 O52'
_cell_volume   1343.23356649
_cell_formula_units_Z   4
loop_
 _symmetry_equiv_pos_site_id
 _symmetry_equiv_pos_as_xyz
  1  'x, y, z'
loop_
 _atom_site_type_symbol
 _atom_site_label
 _atom_site_symmetry_multiplicity
 _atom_site_fract_x
 _atom_site_fract_y
 _atom_site_fract_z
 _atom_site_occupancy
  Na  Na0  1  0.47032736  0.25128001  0.58843553  1
  Na  Na1  1  0.97032736  0.74871999  0.41156447  1
  Na  Na2  1  0.97032736  0.75128001  0.91156447  1
  Na  Na3  1  0.47032736  0.24871999  0.08843553  1
  Na  Na4  1  0.97014140  0.25298873  0.91671179  1
  Na  Na5  1  0.47014140  0.74701127  0.08328821  1
  Na  Na6  1  0.47014140  0.75298873  0.58328821  1
  Na  Na7  1  0.97014140  0.24701127  0.41671179  1
  Al  Al0  1  0.99247558  0.24755025  0.70108220  1
  Al  Al1  1  0.49247558  0.75244975  0.29891780  1
  Al  Al2  1  0.49247558  0.74755025  0.79891780  1
  Al  Al3  1  0.99247558  0.25244975  0.20108220  1
  Al  Al4  1  0.50923926  0.39341382  0.95025839  1
  Al  Al5  1  0.00923926  0.60658618  0.04974161  1
  Al  Al6  1  0.00923926  0.89341382  0.54974161  1
  Al  Al7  1  0.50923926  0.10658618  0.45025839  1
  Al  Al8  1  0.50700244  0.10097768  0.94742378  1
  Al  Al9  1  0.00700244  0.89902232  0.05257622  1
  Al  Al10  1  0.00700244  0.60097768  0.55257622  1
  Al  Al11  1  0.50700244  0.39902232  0.44742378  1
  Si  Si0  1  0.01037880  0.38842225  0.55316800  1
  Si  Si1  1  0.51037880  0.61157775  0.44683200  1
  Si  Si2  1  0.51037880  0.88842225  0.94683200  1
  Si  Si3  1  0.01037880  0.11157775  0.05316800  1
  Si  Si4  1  0.00728688  0.10626561  0.55773062  1
  Si  Si5  1  0.50728688  0.89373439  0.44226938  1
  Si  Si6  1  0.50728688  0.60626561  0.94226938  1
  Si  Si7  1  0.00728688  0.39373439  0.05773062  1
  Si  Si8  1  0.49072375  0.24945909  0.80582538  1
  Si  Si9  1  0.99072375  0.75054091  0.19417462  1
  Si  Si10  1  0.99072375  0.74945909  0.69417462  1
  Si  Si11  1  0.49072375  0.25054091  0.30582538  1
  N  N0  1  0.28793247  0.97015314  0.75072557  1
  N  N1  1  0.78793247  0.02984686  0.24927443  1
  N  N2  1  0.78793247  0.47015314  0.74927443  1
  N  N3  1  0.28793247  0.52984686  0.25072557  1
  O  O0  1  0.73289835  0.35835483  0.51780127  1
  O  O1  1  0.23289835  0.64164517  0.48219873  1
  O  O2  1  0.23289835  0.85835483  0.98219873  1
  O  O3  1  0.73289835  0.14164517  0.01780127  1
  O  O4  1  0.21856447  0.35847310  0.48416700  1
  O  O5  1  0.71856447  0.64152690  0.51583300  1
  O  O6  1  0.71856447  0.85847310  0.01583300  1
  O  O7  1  0.21856447  0.14152690  0.98416700  1
  O  O8  1  0.73158678  0.13967157  0.52442356  1
  O  O9  1  0.23158678  0.86032843  0.47557644  1
  O  O10  1  0.23158678  0.63967157  0.97557644  1
  O  O11  1  0.73158678  0.36032843  0.02442356  1
  O  O12  1  0.21595182  0.14113646  0.49081265  1
  O  O13  1  0.71595182  0.85886354  0.50918735  1
  O  O14  1  0.71595182  0.64113646  0.00918735  1
  O  O15  1  0.21595182  0.35886354  0.99081265  1
  O  O16  1  0.02607360  0.49126330  0.57042797  1
  O  O17  1  0.52607360  0.50873670  0.42957203  1
  O  O18  1  0.52607360  0.99126330  0.92957203  1
  O  O19  1  0.02607360  0.00873670  0.07042797  1
  O  O20  1  0.02029145  0.00294466  0.57090475  1
  O  O21  1  0.52029145  0.99705534  0.42909525  1
  O  O22  1  0.52029145  0.50294466  0.92909525  1
  O  O23  1  0.02029145  0.49705534  0.07090475  1
  O  O24  1  0.07670584  0.15635159  0.64275992  1
  O  O25  1  0.57670584  0.84364841  0.35724008  1
  O  O26  1  0.57670584  0.65635159  0.85724008  1
  O  O27  1  0.07670584  0.34364841  0.14275992  1
  O  O28  1  0.07432590  0.33223195  0.63470620  1
  O  O29  1  0.57432590  0.66776805  0.36529380  1
  O  O30  1  0.57432590  0.83223195  0.86529380  1
  O  O31  1  0.07432590  0.16776805  0.13470620  1
  O  O32  1  0.66305839  0.24790455  0.72254438  1
  O  O33  1  0.16305839  0.75209545  0.27745562  1
  O  O34  1  0.16305839  0.74790455  0.77745562  1
  O  O35  1  0.66305839  0.25209545  0.22254438  1
  O  O36  1  0.18771754  0.25198302  0.78799670  1
  O  O37  1  0.68771754  0.74801698  0.21200330  1
  O  O38  1  0.68771754  0.75198302  0.71200330  1
  O  O39  1  0.18771754  0.24801698  0.28799670  1
  O  O40  1  0.57801134  0.32803050  0.86529558  1
  O  O41  1  0.07801134  0.67196950  0.13470442  1
  O  O42  1  0.07801134  0.82803050  0.63470442  1
  O  O43  1  0.57801134  0.17196950  0.36529558  1
  O  O44  1  0.56843736  0.15982835  0.85625813  1
  O  O45  1  0.06843736  0.84017165  0.14374187  1
  O  O46  1  0.06843736  0.65982835  0.64374187  1
  O  O47  1  0.56843736  0.34017165  0.35625813  1
  O  O48  1  0.75316924  0.09285980  0.75877971  1
  O  O49  1  0.25316924  0.90714020  0.24122029  1
  O  O50  1  0.25316924  0.59285980  0.74122029  1
  O  O51  1  0.75316924  0.40714020  0.25877971  1
loop_
_geom_bond_atom_site_label_1
_geom_bond_atom_site_label_2
_geom_bond_distance
_geom_bond_site_symmetry_2
Na0 O32 2.436079 1_555
Na0 O8 2.444919 1_555
Na0 O0 2.450369 1_555
Na0 O28 2.553817 1_555
Na0 O24 2.696813 1_555
Na0 O12 2.698024 1_555
Na0 O4 2.730440 1_555
Na1 O33 2.436079 1_655
Na1 O9 2.444919 1_655
Na1 O1 2.450369 1_655
Na1 O29 2.553817 1_555
Na1 O25 2.696813 1_555
Na1 O13 2.698024 1_555
Na1 O5 2.730440 1_555
Na2 O34 2.436079 1_655
Na2 O10 2.444919 1_655
Na2 O2 2.450369 1_655
Na2 O30 2.553817 1_555
Na2 O26 2.696813 1_555
Na2 O14 2.698024 1_556
Na2 O6 2.730440 1_556
Na3 O35 2.436079 1_555
Na3 O11 2.444919 1_555
Na3 O3 2.450369 1_555
Na3 O31 2.553817 1_555
Na3 O27 2.696813 1_555
Na3 O15 2.698024 1_554
Na3 O7 2.730440 1_554
Na4 O36 2.414835 1_655
Na4 O15 2.417007 1_655
Na4 O7 2.431062 1_655
Na4 O40 2.520866 1_555
Na4 O3 2.700784 1_556
Na4 O11 2.735000 1_556
Na4 O44 2.750472 1_555
Na5 O37 2.414835 1_555
Na5 O14 2.417007 1_555
Na5 O6 2.431062 1_555
Na5 O41 2.520866 1_555
Na5 O2 2.700784 1_554
Na5 O10 2.735000 1_554
Na5 O45 2.750472 1_555
Na6 O38 2.414835 1_555
Na6 O13 2.417007 1_555
Na6 O5 2.431062 1_555
Na6 O42 2.520866 1_555
Na6 O1 2.700784 1_555
Na6 O9 2.735000 1_555
Na6 O46 2.750472 1_555
Na7 O39 2.414835 1_655
Na7 O12 2.417007 1_655
Na7 O4 2.431062 1_655
Na7 O43 2.520866 1_555
Na7 O0 2.700784 1_555
Na7 O8 2.735000 1_555
Na7 O47 2.750472 1_555
Al0 O28 1.756868 1_655
Al0 O24 1.759614 1_655
Al0 O36 1.768002 1_655
Al0 O32 1.777638 1_555
Al1 O29 1.756868 1_555
Al1 O25 1.759614 1_555
Al1 O37 1.768002 1_555
Al1 O33 1.777638 1_555
Al2 O30 1.756868 1_555
Al2 O26 1.759614 1_555
Al2 O38 1.768002 1_555
Al2 O34 1.777638 1_555
Al3 O31 1.756868 1_655
Al3 O27 1.759614 1_655
Al3 O39 1.768002 1_655
Al3 O35 1.777638 1_555
Al4 O22 1.723477 1_555
Al4 O40 1.763513 1_555
Al4 O15 1.770881 1_555
Al4 O11 1.771607 1_556
Al5 O23 1.723477 1_555
Al5 O41 1.763513 1_555
Al5 O14 1.770881 1_455
Al5 O10 1.771607 1_554
Al6 O20 1.723477 1_565
Al6 O42 1.763513 1_555
Al6 O13 1.770881 1_455
Al6 O9 1.771607 1_555
Al7 O21 1.723477 1_545
Al7 O43 1.763513 1_555
Al7 O12 1.770881 1_555
Al7 O8 1.771607 1_555
Al8 O18 1.717999 1_545
Al8 O7 1.756083 1_555
Al8 O3 1.779534 1_556
Al8 O44 1.785502 1_555
Al9 O19 1.717999 1_565
Al9 O6 1.756083 1_455
Al9 O2 1.779534 1_554
Al9 O45 1.785502 1_555
Al10 O16 1.717999 1_555
Al10 O5 1.756083 1_455
Al10 O1 1.779534 1_555
Al10 O46 1.785502 1_555
Al11 O17 1.717999 1_555
Al11 O4 1.756083 1_555
Al11 O0 1.779534 1_555
Al11 O47 1.785502 1_555
O0 Si0 1.645561 1_655
O1 Si1 1.645561 1_555
O2 Si2 1.645561 1_555
O3 Si3 1.645561 1_655
O4 Si0 1.649261 1_555
O5 Si1 1.649261 1_555
O6 Si2 1.649261 1_554
O7 Si3 1.649261 1_556
O8 Si4 1.640763 1_655
O9 Si5 1.640763 1_555
O10 Si6 1.640763 1_555
O11 Si7 1.640763 1_655
O12 Si4 1.650539 1_555
O13 Si5 1.650539 1_555
O14 Si6 1.650539 1_554
O15 Si7 1.650539 1_556
O16 Si0 1.611247 1_555
O17 Si1 1.611247 1_555
O18 Si2 1.611247 1_555
O19 Si3 1.611247 1_555
O20 Si4 1.607355 1_555
O21 Si5 1.607355 1_555
O22 Si6 1.607355 1_555
O23 Si7 1.607355 1_555
O24 Si4 1.642150 1_555
O25 Si5 1.642150 1_555
O26 Si6 1.642150 1_555
O27 Si7 1.642150 1_555
O28 Si0 1.634593 1_555
O29 Si1 1.634593 1_555
O30 Si2 1.634593 1_555
O31 Si3 1.634593 1_555
O32 Si8 1.648646 1_555
O33 Si9 1.648646 1_455
O34 Si10 1.648646 1_455
O35 Si11 1.648646 1_555
O36 Si8 1.629583 1_555
O37 Si9 1.629583 1_555
O38 Si10 1.629583 1_555
O39 Si11 1.629583 1_555
O40 Si8 1.624593 1_555
O41 Si9 1.624593 1_455
O42 Si10 1.624593 1_455
O43 Si11 1.624593 1_555
O44 Si8 1.663147 1_555
O45 Si9 1.663147 1_455
O46 Si10 1.663147 1_455
O47 Si11 1.663147 1_555
