# generated using pymatgen
data_HfBeO3
_symmetry_space_group_name_H-M   'P 1'
_cell_length_a   3.43833500
_cell_length_b   3.43833500
_cell_length_c   3.43833500
_cell_angle_alpha   90.00000000
_cell_angle_beta   90.00000000
_cell_angle_gamma   90.00000000
_symmetry_Int_Tables_number   1
_chemical_formula_structural   HfBeO3
_chemical_formula_sum   'Hf1 Be1 O3'
_cell_volume   40.64850377
_cell_formula_units_Z   1
loop_
 _symmetry_equiv_pos_site_id
 _symmetry_equiv_pos_as_xyz
  1  'x, y, z'
loop_
 _atom_site_type_symbol
 _atom_site_label
 _atom_site_symmetry_multiplicity
 _atom_site_fract_x
 _atom_site_fract_y
 _atom_site_fract_z
 _atom_site_occupancy
  Hf  Hf0  1  0.00000000  0.00000000  0.00000000  1
  Be  Be0  1  0.50000000  0.50000000  0.50000000  1
  O  O0  1  0.50000000  0.50000000  0.00000000  1
  O  O1  1  0.50000000  0.00000000  0.50000000  1
  O  O2  1  0.00000000  0.50000000  0.50000000  1
loop_
_geom_bond_atom_site_label_1
_geom_bond_atom_site_label_2
_geom_bond_distance
_geom_bond_site_symmetry_2
Hf0 O2 2.431270 1_545
Hf0 O1 2.431270 1_455
Hf0 O1 2.431270 1_454
Hf0 O1 2.431270 1_555
Hf0 O1 2.431270 1_554
Hf0 O0 2.431270 1_545
Hf0 O0 2.431270 1_555
Hf0 O0 2.431270 1_445
Hf0 O2 2.431270 1_555
Hf0 O0 2.431270 1_455
Hf0 O2 2.431270 1_554
Hf0 O2 2.431270 1_544
Be0 O1 1.719167 1_555
Be0 O0 1.719167 1_555
Be0 O2 1.719167 1_555
Be0 O1 1.719167 1_565
Be0 O2 1.719167 1_655
Be0 O0 1.719167 1_556
