# generated using pymatgen
data_TmCo5P3
_symmetry_space_group_name_H-M   'P 1'
_cell_length_a   3.61681705
_cell_length_b   10.14433225
_cell_length_c   11.60616598
_cell_angle_alpha   90.00000000
_cell_angle_beta   90.00000000
_cell_angle_gamma   90.00000000
_symmetry_Int_Tables_number   1
_chemical_formula_structural   TmCo5P3
_chemical_formula_sum   'Tm4 Co20 P12'
_cell_volume   425.83247958
_cell_formula_units_Z   4
loop_
 _symmetry_equiv_pos_site_id
 _symmetry_equiv_pos_as_xyz
  1  'x, y, z'
loop_
 _atom_site_type_symbol
 _atom_site_label
 _atom_site_symmetry_multiplicity
 _atom_site_fract_x
 _atom_site_fract_y
 _atom_site_fract_z
 _atom_site_occupancy
  Tm  Tm0  1  0.25000000  0.58131531  0.70172234  1
  Tm  Tm1  1  0.25000000  0.91868469  0.20172234  1
  Tm  Tm2  1  0.75000000  0.41868469  0.29827766  1
  Tm  Tm3  1  0.75000000  0.08131531  0.79827766  1
  Co  Co0  1  0.25000000  0.71209010  0.98958010  1
  Co  Co1  1  0.25000000  0.78790990  0.48958010  1
  Co  Co2  1  0.75000000  0.28790990  0.01041990  1
  Co  Co3  1  0.75000000  0.21209010  0.51041990  1
  Co  Co4  1  0.25000000  0.40575568  0.48671866  1
  Co  Co5  1  0.25000000  0.09424432  0.98671866  1
  Co  Co6  1  0.75000000  0.59424432  0.51328134  1
  Co  Co7  1  0.75000000  0.90575568  0.01328134  1
  Co  Co8  1  0.25000000  0.22208262  0.17527716  1
  Co  Co9  1  0.25000000  0.27791738  0.67527716  1
  Co  Co10  1  0.75000000  0.77791738  0.82472284  1
  Co  Co11  1  0.75000000  0.72208262  0.32472284  1
  Co  Co12  1  0.25000000  0.88236811  0.69910101  1
  Co  Co13  1  0.25000000  0.61763189  0.19910101  1
  Co  Co14  1  0.75000000  0.11763189  0.30089899  1
  Co  Co15  1  0.75000000  0.38236811  0.80089899  1
  Co  Co16  1  0.25000000  0.46608451  0.93285069  1
  Co  Co17  1  0.25000000  0.03391549  0.43285069  1
  Co  Co18  1  0.75000000  0.53391549  0.06714931  1
  Co  Co19  1  0.75000000  0.96608451  0.56714931  1
  P  P0  1  0.25000000  0.42041617  0.11436023  1
  P  P1  1  0.25000000  0.07958383  0.61436023  1
  P  P2  1  0.75000000  0.57958383  0.88563977  1
  P  P3  1  0.75000000  0.92041617  0.38563977  1
  P  P4  1  0.25000000  0.26911060  0.86660920  1
  P  P5  1  0.25000000  0.23088940  0.36660920  1
  P  P6  1  0.75000000  0.73088940  0.13339080  1
  P  P7  1  0.75000000  0.76911060  0.63339080  1
  P  P8  1  0.25000000  0.60104216  0.39200879  1
  P  P9  1  0.25000000  0.89895784  0.89200879  1
  P  P10  1  0.75000000  0.39895784  0.60799121  1
  P  P11  1  0.75000000  0.10104216  0.10799121  1
loop_
_geom_bond_atom_site_label_1
_geom_bond_atom_site_label_2
_geom_bond_distance
_geom_bond_site_symmetry_2
Co0 P9 2.208139 1_555
Co0 P6 2.468314 1_456
Co0 P6 2.468314 1_556
Co0 P2 2.555868 1_555
Co0 P2 2.555868 1_455
Co0 Tm1 3.233334 1_556
Co1 P8 2.208139 1_555
Co1 P7 2.468314 1_455
Co1 P7 2.468314 1_555
Co1 P3 2.555868 1_555
Co1 P3 2.555868 1_455
Co1 Tm0 3.233334 1_555
Co2 P11 2.208139 1_555
Co2 P4 2.468314 1_654
Co2 P4 2.468314 1_554
Co2 P0 2.555868 1_555
Co2 P0 2.555868 1_655
Co2 Tm3 3.233334 1_554
Co3 P10 2.208139 1_555
Co3 P5 2.468314 1_655
Co3 P5 2.468314 1_555
Co3 P1 2.555868 1_655
Co3 P1 2.555868 1_555
Co3 Tm2 3.233334 1_555
Co4 P5 2.256101 1_555
Co4 P8 2.265578 1_555
Co4 P10 2.292636 1_555
Co4 P10 2.292636 1_455
Co4 Tm2 2.840924 1_555
Co4 Tm2 2.840924 1_455
Co4 Tm0 3.065713 1_555
Co5 P4 2.256101 1_555
Co5 P9 2.265578 1_545
Co5 P11 2.292636 1_456
Co5 P11 2.292636 1_556
Co5 Tm3 2.840924 1_555
Co5 Tm3 2.840924 1_455
Co5 Tm1 3.065713 1_546
Co6 P7 2.256101 1_555
Co6 P10 2.265578 1_555
Co6 P8 2.292636 1_655
Co6 P8 2.292636 1_555
Co6 Tm0 2.840924 1_655
Co6 Tm0 2.840924 1_555
Co6 Tm2 3.065713 1_555
Co7 P6 2.256101 1_555
Co7 P11 2.265578 1_565
Co7 P9 2.292636 1_554
Co7 P9 2.292636 1_654
Co7 Tm1 2.840924 1_655
Co7 Tm1 2.840924 1_555
Co7 Tm3 3.065713 1_564
Co8 P0 2.132570 1_555
Co8 P5 2.222428 1_555
Co8 P11 2.321179 1_455
Co8 P11 2.321179 1_555
Co8 Tm2 3.047277 1_455
Co8 Tm2 3.047277 1_555
Co8 Tm1 3.093036 1_545
Co9 P1 2.132570 1_555
Co9 P4 2.222428 1_555
Co9 P10 2.321179 1_555
Co9 P10 2.321179 1_455
Co9 Tm3 3.047277 1_455
Co9 Tm3 3.047277 1_555
Co9 Tm0 3.093036 1_555
Co10 P2 2.132570 1_555
Co10 P7 2.222428 1_555
Co10 P9 2.321179 1_555
Co10 P9 2.321179 1_655
Co10 Tm0 3.047277 1_555
Co10 Tm0 3.047277 1_655
Co10 Tm3 3.093036 1_565
Co11 P3 2.132570 1_555
Co11 P6 2.222428 1_555
Co11 P8 2.321179 1_655
Co11 P8 2.321179 1_555
Co11 Tm1 3.047277 1_655
Co11 Tm1 3.047277 1_555
Co11 Tm2 3.093036 1_555
Co12 P1 2.229303 1_565
Co12 P9 2.245236 1_555
Co12 P7 2.274201 1_555
Co12 P7 2.274201 1_455
Co12 Tm3 2.944208 1_565
Co12 Tm3 2.944208 1_465
Co12 Tm0 3.054131 1_555
Co13 P0 2.229303 1_555
Co13 P8 2.245236 1_555
Co13 P6 2.274201 1_455
Co13 P6 2.274201 1_555
Co13 Tm2 2.944208 1_455
Co13 Tm2 2.944208 1_555
Co13 Tm1 3.054131 1_555
Co14 P3 2.229303 1_545
Co14 P11 2.245236 1_555
Co14 P5 2.274201 1_555
Co14 P5 2.274201 1_655
Co14 Tm1 2.944208 1_545
Co14 Tm1 2.944208 1_645
Co14 Tm2 3.054131 1_555
Co15 P2 2.229303 1_555
Co15 P10 2.245236 1_555
Co15 P4 2.274201 1_655
Co15 P4 2.274201 1_555
Co15 Tm0 2.944208 1_555
Co15 Tm0 2.944208 1_655
Co15 Tm3 3.054131 1_555
Co16 P4 2.140969 1_555
Co16 P0 2.156968 1_556
Co16 P2 2.212745 1_555
Co16 P2 2.212745 1_455
Co16 Tm0 2.926141 1_555
Co17 P5 2.140969 1_555
Co17 P1 2.156968 1_555
Co17 P3 2.212745 1_545
Co17 P3 2.212745 1_445
Co17 Tm1 2.926141 1_545
Co18 P6 2.140969 1_555
Co18 P2 2.156968 1_554
Co18 P0 2.212745 1_555
Co18 P0 2.212745 1_655
Co18 Tm2 2.926141 1_555
Co19 P7 2.140969 1_555
Co19 P3 2.156968 1_555
Co19 P1 2.212745 1_565
Co19 P1 2.212745 1_665
Co19 Tm3 2.926141 1_565
P0 Tm2 2.797689 1_455
P0 Tm2 2.797689 1_555
P1 Tm3 2.797689 1_555
P1 Tm3 2.797689 1_455
P2 Tm0 2.797689 1_655
P2 Tm0 2.797689 1_555
P3 Tm1 2.797689 1_655
P3 Tm1 2.797689 1_555
P4 Tm3 2.743819 1_455
P4 Tm3 2.743819 1_555
P5 Tm2 2.743819 1_455
P5 Tm2 2.743819 1_555
P6 Tm1 2.743819 1_655
P6 Tm1 2.743819 1_555
P7 Tm0 2.743819 1_655
P7 Tm0 2.743819 1_555
P8 Tm2 2.806401 1_555
P8 Tm2 2.806401 1_455
P9 Tm3 2.806401 1_465
P9 Tm3 2.806401 1_565
P10 Tm0 2.806401 1_555
P10 Tm0 2.806401 1_655
P11 Tm1 2.806401 1_645
P11 Tm1 2.806401 1_545
