# generated using pymatgen
data_Mg2TaSbO6
_symmetry_space_group_name_H-M   'P 1'
_cell_length_a   7.87608900
_cell_length_b   5.52979300
_cell_length_c   5.56231619
_cell_angle_alpha   86.97135672
_cell_angle_beta   90.00000000
_cell_angle_gamma   90.00000000
_symmetry_Int_Tables_number   1
_chemical_formula_structural   Mg2TaSbO6
_chemical_formula_sum   'Mg4 Ta2 Sb2 O12'
_cell_volume   241.91797323
_cell_formula_units_Z   2
loop_
 _symmetry_equiv_pos_site_id
 _symmetry_equiv_pos_as_xyz
  1  'x, y, z'
loop_
 _atom_site_type_symbol
 _atom_site_label
 _atom_site_symmetry_multiplicity
 _atom_site_fract_x
 _atom_site_fract_y
 _atom_site_fract_z
 _atom_site_occupancy
  Mg  Mg0  1  0.75000000  0.50999900  0.53523800  1
  Mg  Mg1  1  0.25000000  0.49000100  0.46476200  1
  Mg  Mg2  1  0.75000000  0.98424200  0.03478100  1
  Mg  Mg3  1  0.25000000  0.01575800  0.96521900  1
  Ta  Ta0  1  0.50000000  0.50000000  0.00000000  1
  Ta  Ta1  1  0.00000000  0.50000000  0.00000000  1
  Sb  Sb0  1  0.50000000  0.00000000  0.50000000  1
  Sb  Sb1  1  0.00000000  0.00000000  0.50000000  1
  O  O0  1  0.42973000  0.63649300  0.68087000  1
  O  O1  1  0.07252700  0.80512100  0.14437200  1
  O  O2  1  0.92973000  0.36350700  0.31913000  1
  O  O3  1  0.57252700  0.19487900  0.85562800  1
  O  O4  1  0.42747300  0.80512100  0.14437200  1
  O  O5  1  0.92747300  0.19487900  0.85562800  1
  O  O6  1  0.25000000  0.14340200  0.61007700  1
  O  O7  1  0.07027000  0.63649300  0.68087000  1
  O  O8  1  0.75000000  0.63122100  0.91764700  1
  O  O9  1  0.57027000  0.36350700  0.31913000  1
  O  O10  1  0.75000000  0.85659800  0.38992300  1
  O  O11  1  0.25000000  0.36877900  0.08235300  1
loop_
_geom_bond_atom_site_label_1
_geom_bond_atom_site_label_2
_geom_bond_distance
_geom_bond_site_symmetry_2
Mg0 O10 2.040358 1_555
Mg0 O9 2.051316 1_555
Mg0 O2 2.051316 1_555
Mg0 O8 2.263732 1_555
Mg1 O6 2.040358 1_555
Mg1 O7 2.051316 1_555
Mg1 O0 2.051316 1_555
Mg1 O11 2.263732 1_555
Mg2 O3 2.044727 1_564
Mg2 O5 2.044727 1_564
Mg2 O10 2.062312 1_555
Mg2 O8 2.090388 1_554
Mg3 O1 2.044727 1_546
Mg3 O4 2.044727 1_546
Mg3 O6 2.062312 1_555
Mg3 O11 2.090388 1_556
O0 Ta0 1.971144 1_556
O0 Sb0 2.268334 1_565
O1 Ta1 1.990274 1_555
O1 Sb1 2.371879 1_565
O2 Ta1 1.971144 1_655
O2 Sb1 2.268334 1_655
O3 Ta0 1.990274 1_556
O3 Sb0 2.371879 1_555
O4 Ta0 1.990274 1_555
O4 Sb0 2.371879 1_565
O5 Ta1 1.990274 1_656
O5 Sb1 2.371879 1_655
O6 Sb0 2.220826 1_555
O6 Sb1 2.220826 1_555
O7 Ta1 1.971144 1_556
O7 Sb1 2.268334 1_565
O8 Ta0 2.139693 1_556
O8 Ta1 2.139693 1_656
O9 Ta0 1.971144 1_555
O9 Sb0 2.268334 1_555
O10 Sb0 2.220826 1_565
O10 Sb1 2.220826 1_665
O11 Ta1 2.139693 1_555
O11 Ta0 2.139693 1_555
