# generated using pymatgen
data_LiFe2(PO4)3
_symmetry_space_group_name_H-M   'P 1'
_cell_length_a   8.68198800
_cell_length_b   8.64506400
_cell_length_c   12.30022900
_cell_angle_alpha   89.85946012
_cell_angle_beta   90.00000000
_cell_angle_gamma   90.00000000
_symmetry_Int_Tables_number   1
_chemical_formula_structural   LiFe2(PO4)3
_chemical_formula_sum   'Li4 Fe8 P12 O48'
_cell_volume   923.20741628
_cell_formula_units_Z   4
loop_
 _symmetry_equiv_pos_site_id
 _symmetry_equiv_pos_as_xyz
  1  'x, y, z'
loop_
 _atom_site_type_symbol
 _atom_site_label
 _atom_site_symmetry_multiplicity
 _atom_site_fract_x
 _atom_site_fract_y
 _atom_site_fract_z
 _atom_site_occupancy
  Li  Li0  1  0.00000000  0.00000000  0.50000000  1
  Li  Li1  1  0.50000000  0.50000000  0.50000000  1
  Li  Li2  1  0.50000000  0.50000000  0.00000000  1
  Li  Li3  1  0.00000000  0.00000000  0.00000000  1
  Fe  Fe0  1  0.49804500  0.78457700  0.85408200  1
  Fe  Fe1  1  0.00166700  0.28441400  0.35829000  1
  Fe  Fe2  1  0.99833300  0.28441400  0.85829000  1
  Fe  Fe3  1  0.00166700  0.71558600  0.14171000  1
  Fe  Fe4  1  0.50195500  0.21542300  0.14591800  1
  Fe  Fe5  1  0.49804500  0.21542300  0.64591800  1
  Fe  Fe6  1  0.50195500  0.78457700  0.35408200  1
  Fe  Fe7  1  0.99833300  0.71558600  0.64171000  1
  P  P0  1  0.20369800  0.00000000  0.75000000  1
  P  P1  1  0.79630200  0.00000000  0.25000000  1
  P  P2  1  0.85476000  0.35210600  0.60360900  1
  P  P3  1  0.29148100  0.50000000  0.75000000  1
  P  P4  1  0.64271000  0.84855600  0.60532300  1
  P  P5  1  0.35729000  0.84855600  0.10532300  1
  P  P6  1  0.14524000  0.35210600  0.10360900  1
  P  P7  1  0.14524000  0.64789400  0.39639100  1
  P  P8  1  0.70851900  0.50000000  0.25000000  1
  P  P9  1  0.35729000  0.15144400  0.39467700  1
  P  P10  1  0.64271000  0.15144400  0.89467700  1
  P  P11  1  0.85476000  0.64789400  0.89639100  1
  O  O0  1  0.82067600  0.85531100  0.58973800  1
  O  O1  1  0.30231700  0.12453000  0.69443600  1
  O  O2  1  0.80805200  0.61802700  0.18807100  1
  O  O3  1  0.09406800  0.71614100  0.28701900  1
  O  O4  1  0.06979600  0.24904800  0.01474400  1
  O  O5  1  0.17932400  0.14468900  0.41026200  1
  O  O6  1  0.39730200  0.57257300  0.83810900  1
  O  O7  1  0.42314200  0.25098900  0.48929700  1
  O  O8  1  0.17932400  0.85531100  0.08973800  1
  O  O9  1  0.30231700  0.87547000  0.80556400  1
  O  O10  1  0.90144700  0.07040600  0.33971400  1
  O  O11  1  0.58451000  0.01575700  0.60363800  1
  O  O12  1  0.67712000  0.65513400  0.91360000  1
  O  O13  1  0.09855300  0.07040600  0.83971400  1
  O  O14  1  0.41549000  0.01575700  0.10363800  1
  O  O15  1  0.82067600  0.14468900  0.91026200  1
  O  O16  1  0.32288000  0.65513400  0.41360000  1
  O  O17  1  0.90593200  0.28385900  0.71298100  1
  O  O18  1  0.58451000  0.98424300  0.89636200  1
  O  O19  1  0.41549000  0.98424300  0.39636200  1
  O  O20  1  0.40569800  0.76408400  0.21016100  1
  O  O21  1  0.10302300  0.47591000  0.40716400  1
  O  O22  1  0.67712000  0.34486600  0.58640000  1
  O  O23  1  0.89697700  0.52409000  0.59283600  1
  O  O24  1  0.60269800  0.57257300  0.33810900  1
  O  O25  1  0.57685800  0.74901100  0.51070300  1
  O  O26  1  0.06979600  0.75095200  0.48525600  1
  O  O27  1  0.93020400  0.24904800  0.51474400  1
  O  O28  1  0.09406800  0.28385900  0.21298100  1
  O  O29  1  0.32288000  0.34486600  0.08640000  1
  O  O30  1  0.69768300  0.87547000  0.30556400  1
  O  O31  1  0.40569800  0.23591600  0.28983900  1
  O  O32  1  0.59430200  0.23591600  0.78983900  1
  O  O33  1  0.09855300  0.92959400  0.66028600  1
  O  O34  1  0.42314200  0.74901100  0.01070300  1
  O  O35  1  0.10302300  0.52409000  0.09283600  1
  O  O36  1  0.93020400  0.75095200  0.98525600  1
  O  O37  1  0.90593200  0.71614100  0.78701900  1
  O  O38  1  0.89697700  0.47591000  0.90716400  1
  O  O39  1  0.57685800  0.25098900  0.98929700  1
  O  O40  1  0.60269800  0.42742700  0.16189100  1
  O  O41  1  0.39730200  0.42742700  0.66189100  1
  O  O42  1  0.59430200  0.76408400  0.71016100  1
  O  O43  1  0.69768300  0.12453000  0.19443600  1
  O  O44  1  0.80805200  0.38197300  0.31192900  1
  O  O45  1  0.19194800  0.61802700  0.68807100  1
  O  O46  1  0.19194800  0.38197300  0.81192900  1
  O  O47  1  0.90144700  0.92959400  0.16028600  1
loop_
_geom_bond_atom_site_label_1
_geom_bond_atom_site_label_2
_geom_bond_distance
_geom_bond_site_symmetry_2
Li0 O10 2.232426 1_455
Li0 O33 2.232426 1_545
Li0 O27 2.244452 1_455
Li0 O26 2.244452 1_545
Li0 O0 2.280376 1_445
Li0 O5 2.280376 1_555
Li1 O25 2.257913 1_555
Li1 O7 2.257913 1_555
Li1 O24 2.268866 1_555
Li1 O41 2.268866 1_555
Li1 O16 2.299081 1_555
Li1 O22 2.299081 1_555
Li2 O34 2.257913 1_555
Li2 O39 2.257913 1_554
Li2 O40 2.268866 1_555
Li2 O6 2.268866 1_554
Li2 O29 2.299081 1_555
Li2 O12 2.299081 1_554
Li3 O13 2.232426 1_554
Li3 O47 2.232426 1_445
Li3 O4 2.244452 1_555
Li3 O36 2.244452 1_444
Li3 O8 2.280376 1_545
Li3 O15 2.280376 1_454
Fe0 O18 1.953945 1_555
Fe0 O9 1.964419 1_555
Fe0 O42 1.965998 1_555
Fe0 O6 2.040709 1_555
Fe0 O12 2.049723 1_555
Fe0 O34 2.055683 1_556
Fe1 O28 1.959130 1_555
Fe1 O44 1.964636 1_455
Fe1 O21 1.970099 1_555
Fe1 O27 2.044243 1_455
Fe1 O10 2.057739 1_455
Fe1 O5 2.059859 1_555
Fe2 O17 1.959130 1_555
Fe2 O46 1.964636 1_655
Fe2 O38 1.970099 1_555
Fe2 O4 2.044243 1_656
Fe2 O13 2.057739 1_655
Fe2 O15 2.059859 1_555
Fe3 O3 1.959130 1_555
Fe3 O2 1.964636 1_455
Fe3 O35 1.970099 1_555
Fe3 O36 2.044243 1_454
Fe3 O47 2.057739 1_455
Fe3 O8 2.059859 1_555
Fe4 O14 1.953945 1_555
Fe4 O43 1.964419 1_555
Fe4 O31 1.965998 1_555
Fe4 O40 2.040709 1_555
Fe4 O29 2.049723 1_555
Fe4 O39 2.055683 1_554
Fe5 O11 1.953945 1_555
Fe5 O1 1.964419 1_555
Fe5 O32 1.965998 1_555
Fe5 O41 2.040709 1_555
Fe5 O22 2.049723 1_555
Fe5 O7 2.055683 1_555
Fe6 O19 1.953945 1_555
Fe6 O30 1.964419 1_555
Fe6 O20 1.965998 1_555
Fe6 O24 2.040709 1_555
Fe6 O16 2.049723 1_555
Fe6 O25 2.055683 1_555
Fe7 O37 1.959130 1_555
Fe7 O45 1.964636 1_655
Fe7 O23 1.970099 1_555
Fe7 O26 2.044243 1_655
Fe7 O33 2.057739 1_655
Fe7 O0 2.059859 1_555
O0 P4 1.558022 1_555
O1 P0 1.534793 1_555
O2 P8 1.537627 1_555
O3 P7 1.533434 1_555
O4 P6 1.556395 1_555
O5 P9 1.558022 1_555
O6 P3 1.554213 1_555
O7 P9 1.557855 1_555
O8 P5 1.558022 1_555
O9 P0 1.534793 1_565
O10 P1 1.557181 1_555
O11 P4 1.531328 1_545
O12 P11 1.558005 1_555
O13 P0 1.557181 1_555
O14 P5 1.531328 1_545
O15 P10 1.558022 1_555
O16 P7 1.558005 1_555
O17 P2 1.533434 1_555
O18 P10 1.531328 1_565
O19 P9 1.531328 1_565
O20 P5 1.538893 1_555
O21 P7 1.536733 1_555
O22 P2 1.558005 1_555
O23 P2 1.536733 1_555
O24 P8 1.554213 1_555
O25 P4 1.557855 1_555
O26 P7 1.556395 1_555
O27 P2 1.556395 1_555
O28 P6 1.533434 1_555
O29 P6 1.558005 1_555
O30 P1 1.534793 1_565
O31 P9 1.538893 1_555
O32 P10 1.538893 1_555
O33 P0 1.557181 1_565
O34 P5 1.557855 1_555
O35 P6 1.536733 1_555
O36 P11 1.556395 1_555
O37 P11 1.533434 1_555
O38 P11 1.536733 1_555
O39 P10 1.557855 1_555
O40 P8 1.554213 1_555
O41 P3 1.554213 1_555
O42 P4 1.538893 1_555
O43 P1 1.534793 1_555
O44 P8 1.537627 1_555
O45 P3 1.537627 1_555
O46 P3 1.537627 1_555
O47 P1 1.557181 1_565
