# generated using pymatgen
data_ErIO9
_symmetry_space_group_name_H-M   'P 1'
_cell_length_a   11.10029900
_cell_length_b   6.49236900
_cell_length_c   10.59969611
_cell_angle_alpha   55.45687664
_cell_angle_beta   90.00000000
_cell_angle_gamma   90.00000000
_symmetry_Int_Tables_number   1
_chemical_formula_structural   ErIO9
_chemical_formula_sum   'Er4 I4 O36'
_cell_volume   629.21659699
_cell_formula_units_Z   4
loop_
 _symmetry_equiv_pos_site_id
 _symmetry_equiv_pos_as_xyz
  1  'x, y, z'
loop_
 _atom_site_type_symbol
 _atom_site_label
 _atom_site_symmetry_multiplicity
 _atom_site_fract_x
 _atom_site_fract_y
 _atom_site_fract_z
 _atom_site_occupancy
  Er  Er0  1  0.58317100  0.77061100  0.19299100  1
  Er  Er1  1  0.41682900  0.22938900  0.80700900  1
  Er  Er2  1  0.08317100  0.22938900  0.30700900  1
  Er  Er3  1  0.91682900  0.77061100  0.69299100  1
  I  I0  1  0.82711600  0.97818100  0.26294800  1
  I  I1  1  0.17288400  0.02181900  0.73705200  1
  I  I2  1  0.32711600  0.02181900  0.23705200  1
  I  I3  1  0.67288400  0.97818100  0.76294800  1
  O  O0  1  0.92662800  0.92186400  0.43119400  1
  O  O1  1  0.07337200  0.07813600  0.56880600  1
  O  O2  1  0.42662800  0.07813600  0.06880600  1
  O  O3  1  0.57337200  0.92186400  0.93119400  1
  O  O4  1  0.23813300  0.95215000  0.40745000  1
  O  O5  1  0.76186700  0.04785000  0.59255000  1
  O  O6  1  0.73813300  0.04785000  0.09255000  1
  O  O7  1  0.26186700  0.95215000  0.90745000  1
  O  O8  1  0.72858200  0.47141700  0.19498000  1
  O  O9  1  0.27141800  0.52858300  0.80502000  1
  O  O10  1  0.22858200  0.52858300  0.30502000  1
  O  O11  1  0.77141800  0.47141700  0.69498000  1
  O  O12  1  0.71683500  0.72694200  0.38422000  1
  O  O13  1  0.28316500  0.27305800  0.61578000  1
  O  O14  1  0.21683500  0.27305800  0.11578000  1
  O  O15  1  0.78316500  0.72694200  0.88422000  1
  O  O16  1  0.57809300  0.35755500  0.41320100  1
  O  O17  1  0.42190700  0.64244500  0.58679900  1
  O  O18  1  0.07809300  0.64244500  0.08679900  1
  O  O19  1  0.92190700  0.35755500  0.91320100  1
  O  O20  1  0.43534500  0.51797800  0.15059000  1
  O  O21  1  0.56465500  0.48202200  0.84941000  1
  O  O22  1  0.93534500  0.48202200  0.34941000  1
  O  O23  1  0.06465500  0.51797800  0.65059000  1
  O  O24  1  0.19661600  0.76046600  0.23696800  1
  O  O25  1  0.80338400  0.23953400  0.76303200  1
  O  O26  1  0.69661600  0.23953400  0.26303200  1
  O  O27  1  0.30338400  0.76046600  0.73696800  1
  O  O28  1  0.44273600  0.76600000  0.35273100  1
  O  O29  1  0.55726400  0.23400000  0.64726900  1
  O  O30  1  0.94273600  0.23400000  0.14726900  1
  O  O31  1  0.05726400  0.76600000  0.85273100  1
  O  O32  1  0.94135300  0.71540700  0.23541800  1
  O  O33  1  0.05864700  0.28459300  0.76458200  1
  O  O34  1  0.44135300  0.28459300  0.26458200  1
  O  O35  1  0.55864700  0.71540700  0.73541800  1
loop_
_geom_bond_atom_site_label_1
_geom_bond_atom_site_label_2
_geom_bond_distance
_geom_bond_site_symmetry_2
Er0 O6 2.271320 1_565
Er0 O28 2.289192 1_555
Er0 O16 2.354656 1_555
Er0 O3 2.363536 1_554
Er0 O12 2.395552 1_555
Er0 O2 2.399596 1_565
Er0 O8 2.516458 1_555
Er0 O20 2.533926 1_555
Er1 O7 2.271320 1_545
Er1 O29 2.289192 1_555
Er1 O17 2.354656 1_555
Er1 O2 2.363536 1_556
Er1 O13 2.395552 1_555
Er1 O3 2.399596 1_545
Er1 O9 2.516458 1_555
Er1 O21 2.533926 1_555
Er2 O4 2.271320 1_545
Er2 O30 2.289192 1_455
Er2 O18 2.354656 1_555
Er2 O1 2.363536 1_555
Er2 O14 2.395552 1_555
Er2 O0 2.399596 1_445
Er2 O10 2.516458 1_555
Er2 O22 2.533926 1_455
Er3 O5 2.271320 1_565
Er3 O31 2.289192 1_655
Er3 O19 2.354656 1_555
Er3 O0 2.363536 1_555
Er3 O15 2.395552 1_555
Er3 O1 2.399596 1_665
Er3 O11 2.516458 1_555
Er3 O23 2.533926 1_655
I0 O12 1.853028 1_555
I0 O6 1.875095 1_565
I0 O30 1.897269 1_565
I0 O0 1.948014 1_555
I0 O26 2.231424 1_565
I0 O32 2.273375 1_555
I1 O13 1.853028 1_555
I1 O7 1.875095 1_545
I1 O31 1.897269 1_545
I1 O1 1.948014 1_555
I1 O27 2.231424 1_545
I1 O33 2.273375 1_555
I2 O14 1.853028 1_555
I2 O4 1.875095 1_545
I2 O28 1.897269 1_545
I2 O2 1.948014 1_555
I2 O24 2.231424 1_545
I2 O34 2.273375 1_555
I3 O15 1.853028 1_555
I3 O5 1.875095 1_565
I3 O29 1.897269 1_565
I3 O3 1.948014 1_555
I3 O25 2.231424 1_565
I3 O35 2.273375 1_555
O10 O24 1.296591 1_555
O11 O25 1.296591 1_555
O20 O34 1.297709 1_555
O21 O35 1.297709 1_555
O22 O32 1.297709 1_555
O23 O33 1.297709 1_555
O26 O8 1.296591 1_555
O27 O9 1.296591 1_555
