# generated using pymatgen
data_CaZn2(FeO2)4
_symmetry_space_group_name_H-M   'P 1'
_cell_length_a   6.51082590
_cell_length_b   6.51082612
_cell_length_c   6.40817105
_cell_angle_alpha   56.69787862
_cell_angle_beta   56.69788038
_cell_angle_gamma   54.80522855
_symmetry_Int_Tables_number   1
_chemical_formula_structural   CaZn2(FeO2)4
_chemical_formula_sum   'Ca1 Zn2 Fe4 O8'
_cell_volume   174.44558915
_cell_formula_units_Z   1
loop_
 _symmetry_equiv_pos_site_id
 _symmetry_equiv_pos_as_xyz
  1  'x, y, z'
loop_
 _atom_site_type_symbol
 _atom_site_label
 _atom_site_symmetry_multiplicity
 _atom_site_fract_x
 _atom_site_fract_y
 _atom_site_fract_z
 _atom_site_occupancy
  Ca  Ca0  1  0.12500000  0.12500000  0.12500000  1
  Zn  Zn0  1  0.12500000  0.62500000  0.62500000  1
  Zn  Zn1  1  0.62500000  0.12500000  0.62500000  1
  Fe  Fe0  1  0.96653400  0.96653300  0.97222100  1
  Fe  Fe1  1  0.28346600  0.28346700  0.27777900  1
  Fe  Fe2  1  0.62500000  0.62500000  0.12500000  1
  Fe  Fe3  1  0.62500000  0.62500000  0.62500000  1
  O  O0  1  0.39489500  0.39489500  0.40866600  1
  O  O1  1  0.37594300  0.37594300  0.89532800  1
  O  O2  1  0.39230100  0.89329400  0.36796000  1
  O  O3  1  0.89329300  0.39230400  0.36795900  1
  O  O4  1  0.35670700  0.85769600  0.88204100  1
  O  O5  1  0.85769900  0.35670600  0.88204000  1
  O  O6  1  0.87405700  0.87405700  0.35467200  1
  O  O7  1  0.85510500  0.85510500  0.84133400  1
loop_
_geom_bond_atom_site_label_1
_geom_bond_atom_site_label_2
_geom_bond_distance
_geom_bond_site_symmetry_2
Ca0 O5 2.257985 1_454
Ca0 O2 2.257985 1_545
Ca0 O4 2.257994 1_544
Ca0 O3 2.257994 1_455
Ca0 O6 2.302392 1_445
Ca0 O1 2.302392 1_554
Fe0 O7 1.923355 1_555
Fe0 O6 1.977020 1_556
Fe0 O4 2.012966 1_655
Fe0 O5 2.012968 1_565
Fe1 O0 1.923355 1_555
Fe1 O1 1.977020 1_554
Fe1 O3 2.012966 1_455
Fe1 O2 2.012968 1_545
Fe2 O7 2.097524 1_554
Fe2 O0 2.097524 1_555
Fe2 O4 2.261923 1_554
Fe2 O3 2.261923 1_555
Fe2 O5 2.261930 1_554
Fe2 O2 2.261930 1_555
Fe3 O4 2.142424 1_555
Fe3 O3 2.142424 1_555
Fe3 O2 2.142433 1_555
Fe3 O5 2.142433 1_555
Fe3 O1 2.263096 1_555
Fe3 O6 2.263096 1_555
O0 Zn1 1.955807 1_555
O0 Zn0 1.955807 1_555
O1 Zn0 2.295471 1_555
O1 Zn1 2.295471 1_555
O2 Zn0 2.447492 1_555
O3 Zn1 2.447501 1_555
O4 Zn1 2.447501 1_565
O5 Zn0 2.447492 1_655
O6 Zn0 2.295471 1_655
O6 Zn1 2.295471 1_565
O7 Zn1 1.955807 1_565
O7 Zn0 1.955807 1_655
