# generated using pymatgen
data_CoB10H23C13
_symmetry_space_group_name_H-M   'P 1'
_cell_length_a   10.68481392
_cell_length_b   10.61011153
_cell_length_c   17.67425806
_cell_angle_alpha   90.00000000
_cell_angle_beta   101.46024951
_cell_angle_gamma   90.00000000
_symmetry_Int_Tables_number   1
_chemical_formula_structural   CoB10H23C13
_chemical_formula_sum   'Co4 B40 H92 C52'
_cell_volume   1963.73103075
_cell_formula_units_Z   4
loop_
 _symmetry_equiv_pos_site_id
 _symmetry_equiv_pos_as_xyz
  1  'x, y, z'
loop_
 _atom_site_type_symbol
 _atom_site_label
 _atom_site_symmetry_multiplicity
 _atom_site_fract_x
 _atom_site_fract_y
 _atom_site_fract_z
 _atom_site_occupancy
  Co  Co0  1  0.77241165  0.16519597  0.59151405  1
  Co  Co1  1  0.22758835  0.66519597  0.90848595  1
  Co  Co2  1  0.22758835  0.83480403  0.40848595  1
  Co  Co3  1  0.77241165  0.33480403  0.09151405  1
  B  B0  1  0.83099170  0.21140173  0.71523605  1
  B  B1  1  0.16900830  0.71140173  0.78476395  1
  B  B2  1  0.16900830  0.78859827  0.28476395  1
  B  B3  1  0.83099170  0.28859827  0.21523605  1
  B  B4  1  0.60913764  0.10081149  0.64192198  1
  B  B5  1  0.39086236  0.60081149  0.85807802  1
  B  B6  1  0.39086236  0.89918851  0.35807802  1
  B  B7  1  0.60913764  0.39918851  0.14192198  1
  B  B8  1  0.65717029  0.20947225  0.73707731  1
  B  B9  1  0.34282971  0.70947225  0.76292269  1
  B  B10  1  0.34282971  0.79052775  0.26292269  1
  B  B11  1  0.65717029  0.29052775  0.23707731  1
  B  B12  1  0.81615695  0.34106983  0.64865589  1
  B  B13  1  0.18384305  0.84106983  0.85134411  1
  B  B14  1  0.18384305  0.65893017  0.35134411  1
  B  B15  1  0.81615695  0.15893017  0.14865589  1
  B  B16  1  0.57228672  0.22298206  0.56965482  1
  B  B17  1  0.42771328  0.72298206  0.93034518  1
  B  B18  1  0.42771328  0.77701794  0.43034518  1
  B  B19  1  0.57228672  0.27701794  0.06965482  1
  B  B20  1  0.51476244  0.23469468  0.65669020  1
  B  B21  1  0.48523756  0.73469468  0.84330980  1
  B  B22  1  0.48523756  0.76530532  0.34330980  1
  B  B23  1  0.51476244  0.26530532  0.15669020  1
  B  B24  1  0.75641662  0.35417437  0.73423805  1
  B  B25  1  0.24358338  0.85417437  0.76576195  1
  B  B26  1  0.24358338  0.64582563  0.26576195  1
  B  B27  1  0.75641662  0.14582563  0.23423805  1
  B  B28  1  0.68378027  0.34527131  0.56986603  1
  B  B29  1  0.31621973  0.84527131  0.93013397  1
  B  B30  1  0.31621973  0.65472869  0.43013397  1
  B  B31  1  0.68378027  0.15472869  0.06986603  1
  B  B32  1  0.59035989  0.36046139  0.70947485  1
  B  B33  1  0.40964011  0.86046139  0.79052515  1
  B  B34  1  0.40964011  0.63953861  0.29052515  1
  B  B35  1  0.59035989  0.13953861  0.20947485  1
  B  B36  1  0.54351774  0.37027961  0.60722206  1
  B  B37  1  0.45648226  0.87027961  0.89277794  1
  B  B38  1  0.45648226  0.62972039  0.39277794  1
  B  B39  1  0.54351774  0.12972039  0.10722206  1
  H  H0  1  0.93314381  0.19564928  0.75707944  1
  H  H1  1  0.06685619  0.69564928  0.74292056  1
  H  H2  1  0.06685619  0.80435072  0.24292056  1
  H  H3  1  0.93314381  0.30435072  0.25707944  1
  H  H4  1  0.55078438  0.00368018  0.62919006  1
  H  H5  1  0.44921562  0.50368018  0.87080994  1
  H  H6  1  0.44921562  0.99631982  0.37080994  1
  H  H7  1  0.55078438  0.49631982  0.12919006  1
  H  H8  1  0.64069728  0.17338540  0.79844384  1
  H  H9  1  0.35930272  0.67338540  0.70155616  1
  H  H10  1  0.35930272  0.82661460  0.20155616  1
  H  H11  1  0.64069728  0.32661460  0.29844384  1
  H  H12  1  0.91302961  0.39439187  0.64359002  1
  H  H13  1  0.08697039  0.89439187  0.85640998  1
  H  H14  1  0.08697039  0.60560813  0.35640998  1
  H  H15  1  0.91302961  0.10560813  0.14359002  1
  H  H16  1  0.50274210  0.18849818  0.51163080  1
  H  H17  1  0.49725790  0.68849818  0.98836920  1
  H  H18  1  0.49725790  0.81150182  0.48836920  1
  H  H19  1  0.50274210  0.31150182  0.01163080  1
  H  H20  1  0.40796272  0.20755511  0.66173316  1
  H  H21  1  0.59203728  0.70755511  0.83826684  1
  H  H22  1  0.59203728  0.79244489  0.33826684  1
  H  H23  1  0.40796272  0.29244489  0.16173316  1
  H  H24  1  0.81078241  0.41470063  0.78788065  1
  H  H25  1  0.18921759  0.91470063  0.71211935  1
  H  H26  1  0.18921759  0.58529937  0.21211935  1
  H  H27  1  0.81078241  0.08529937  0.28788065  1
  H  H28  1  0.69548286  0.40399810  0.51396990  1
  H  H29  1  0.30451714  0.90399810  0.98603010  1
  H  H30  1  0.30451714  0.59600190  0.48603010  1
  H  H31  1  0.69548286  0.09600190  0.01396990  1
  H  H32  1  0.75657395  0.89110042  0.69564243  1
  H  H33  1  0.24342605  0.39110042  0.80435757  1
  H  H34  1  0.24342605  0.10889958  0.30435757  1
  H  H35  1  0.75657395  0.60889958  0.19564243  1
  H  H36  1  0.88605121  0.96786771  0.75971225  1
  H  H37  1  0.11394879  0.46786771  0.74028775  1
  H  H38  1  0.11394879  0.03213229  0.24028775  1
  H  H39  1  0.88605121  0.53213229  0.25971225  1
  H  H40  1  0.73106689  0.95891373  0.78232500  1
  H  H41  1  0.26893311  0.45891373  0.71767500  1
  H  H42  1  0.26893311  0.04108627  0.21767500  1
  H  H43  1  0.73106689  0.54108627  0.28232500  1
  H  H44  1  0.53996066  0.42388570  0.75060054  1
  H  H45  1  0.46003934  0.92388570  0.74939946  1
  H  H46  1  0.46003934  0.57611430  0.24939946  1
  H  H47  1  0.53996066  0.07611430  0.25060054  1
  H  H48  1  0.46335569  0.44308917  0.57781365  1
  H  H49  1  0.53664431  0.94308917  0.92218635  1
  H  H50  1  0.53664431  0.55691083  0.42218635  1
  H  H51  1  0.46335569  0.05691083  0.07781365  1
  H  H52  1  0.93452536  0.95107857  0.62718938  1
  H  H53  1  0.06547464  0.45107857  0.87281062  1
  H  H54  1  0.06547464  0.04892143  0.37281062  1
  H  H55  1  0.93452536  0.54892143  0.12718938  1
  H  H56  1  0.70883841  0.92609020  0.52403361  1
  H  H57  1  0.29116159  0.42609020  0.97596639  1
  H  H58  1  0.29116159  0.07390980  0.47596639  1
  H  H59  1  0.70883841  0.57390980  0.02403361  1
  H  H60  1  0.68136385  0.12983159  0.43052103  1
  H  H61  1  0.31863615  0.62983159  0.06947897  1
  H  H62  1  0.31863615  0.87016841  0.56947897  1
  H  H63  1  0.68136385  0.37016841  0.93052103  1
  H  H64  1  0.85704690  0.33399337  0.40891536  1
  H  H65  1  0.14295310  0.83399337  0.09108464  1
  H  H66  1  0.14295310  0.66600663  0.59108464  1
  H  H67  1  0.85704690  0.16600663  0.90891536  1
  H  H68  1  0.07505037  0.41887228  0.46073897  1
  H  H69  1  0.92494963  0.91887228  0.03926103  1
  H  H70  1  0.92494963  0.58112772  0.53926103  1
  H  H71  1  0.07505037  0.08112772  0.96073897  1
  H  H72  1  0.21351382  0.32377916  0.57569052  1
  H  H73  1  0.78648618  0.82377916  0.92430948  1
  H  H74  1  0.78648618  0.67622084  0.42430948  1
  H  H75  1  0.21351382  0.17622084  0.07569052  1
  H  H76  1  0.14301983  0.13666264  0.64121388  1
  H  H77  1  0.85698017  0.63666264  0.85878612  1
  H  H78  1  0.85698017  0.86333736  0.35878612  1
  H  H79  1  0.14301983  0.36333736  0.14121388  1
  H  H80  1  0.79855190  0.60318534  0.67147340  1
  H  H81  1  0.20144810  0.10318534  0.82852660  1
  H  H82  1  0.20144810  0.39681466  0.32852660  1
  H  H83  1  0.79855190  0.89681466  0.17147340  1
  H  H84  1  0.66290155  0.61023572  0.59424760  1
  H  H85  1  0.33709845  0.11023572  0.90575240  1
  H  H86  1  0.33709845  0.38976428  0.40575240  1
  H  H87  1  0.66290155  0.88976428  0.09424760  1
  H  H88  1  0.64202758  0.61617690  0.69133993  1
  H  H89  1  0.35797242  0.11617690  0.80866007  1
  H  H90  1  0.35797242  0.38382310  0.30866007  1
  H  H91  1  0.64202758  0.88382310  0.19133993  1
  C  C0  1  0.74261015  0.09532711  0.69538334  1
  C  C1  1  0.25738985  0.59532711  0.80461666  1
  C  C2  1  0.25738985  0.90467289  0.30461666  1
  C  C3  1  0.74261015  0.40467289  0.19538334  1
  C  C4  1  0.78327740  0.97117792  0.73500092  1
  C  C5  1  0.21672260  0.47117792  0.76499908  1
  C  C6  1  0.21672260  0.02882208  0.26499908  1
  C  C7  1  0.78327740  0.52882208  0.23500092  1
  C  C8  1  0.68675670  0.43051254  0.65344648  1
  C  C9  1  0.31324330  0.93051254  0.84655352  1
  C  C10  1  0.31324330  0.56948746  0.34655352  1
  C  C11  1  0.68675670  0.06948746  0.15344648  1
  C  C12  1  0.95804253  0.12866817  0.56240941  1
  C  C13  1  0.04195747  0.62866817  0.93759059  1
  C  C14  1  0.04195747  0.87133183  0.43759059  1
  C  C15  1  0.95804253  0.37133183  0.06240941  1
  C  C16  1  0.89458984  0.01703523  0.58149751  1
  C  C17  1  0.10541016  0.51703523  0.91850249  1
  C  C18  1  0.10541016  0.98296477  0.41850249  1
  C  C19  1  0.89458984  0.48296477  0.08149751  1
  C  C20  1  0.77656151  0.00360128  0.52724867  1
  C  C21  1  0.22343849  0.50360128  0.97275133  1
  C  C22  1  0.22343849  0.99639872  0.47275133  1
  C  C23  1  0.77656151  0.49639872  0.02724867  1
  C  C24  1  0.76076717  0.11157015  0.47816468  1
  C  C25  1  0.23923283  0.61157015  0.02183532  1
  C  C26  1  0.23923283  0.88842985  0.52183532  1
  C  C27  1  0.76076717  0.38842985  0.97816468  1
  C  C28  1  0.87508665  0.18716616  0.49691099  1
  C  C29  1  0.12491335  0.68716616  0.00308901  1
  C  C30  1  0.12491335  0.81283384  0.50308901  1
  C  C31  1  0.87508665  0.31283384  0.99691099  1
  C  C32  1  0.91733090  0.29411137  0.46045271  1
  C  C33  1  0.08266910  0.79411137  0.03954729  1
  C  C34  1  0.08266910  0.70588863  0.53954729  1
  C  C35  1  0.91733090  0.20588863  0.96045271  1
  C  C36  1  0.03823748  0.33950568  0.48911300  1
  C  C37  1  0.96176252  0.83950568  0.01088700  1
  C  C38  1  0.96176252  0.66049432  0.51088700  1
  C  C39  1  0.03823748  0.16049432  0.98911300  1
  C  C40  1  0.11848792  0.28436464  0.55531278  1
  C  C41  1  0.88151208  0.78436464  0.94468722  1
  C  C42  1  0.88151208  0.71563536  0.44468722  1
  C  C43  1  0.11848792  0.21563536  0.05531278  1
  C  C44  1  0.08034598  0.18127804  0.59226808  1
  C  C45  1  0.91965402  0.68127804  0.90773192  1
  C  C46  1  0.91965402  0.81872196  0.40773192  1
  C  C47  1  0.08034598  0.31872196  0.09226808  1
  C  C48  1  0.69880606  0.57357156  0.65256417  1
  C  C49  1  0.30119394  0.07357156  0.84743583  1
  C  C50  1  0.30119394  0.42642844  0.34743583  1
  C  C51  1  0.69880606  0.92642844  0.15256417  1
loop_
_geom_bond_atom_site_label_1
_geom_bond_atom_site_label_2
_geom_bond_distance
_geom_bond_site_symmetry_2
B0 H0 1.202259 1_555
B0 C0 1.549186 1_555
B0 Co0 2.206777 1_555
B1 H1 1.202259 1_555
B1 C1 1.549186 1_555
B1 Co1 2.206777 1_555
B2 H2 1.202259 1_555
B2 C2 1.549186 1_555
B2 Co2 2.206777 1_555
B3 H3 1.202259 1_555
B3 C3 1.549186 1_555
B3 Co3 2.206777 1_555
B4 H4 1.202377 1_555
B4 C0 1.547439 1_555
B4 Co0 2.218444 1_555
B5 H5 1.202377 1_555
B5 C1 1.547439 1_555
B5 Co1 2.218444 1_555
B6 H6 1.202377 1_555
B6 C2 1.547439 1_555
B6 Co2 2.218444 1_555
B7 H7 1.202377 1_555
B7 C3 1.547439 1_555
B7 Co3 2.218444 1_555
B8 H8 1.195749 1_555
B8 C0 1.763664 1_555
B9 H9 1.195749 1_555
B9 C1 1.763664 1_555
B10 H10 1.195749 1_555
B10 C2 1.763664 1_555
B11 H11 1.195749 1_555
B11 C3 1.763664 1_555
B12 H12 1.198450 1_555
B12 C8 1.692901 1_555
B12 Co0 2.129079 1_555
B13 H13 1.198450 1_555
B13 C9 1.692901 1_555
B13 Co1 2.129079 1_555
B14 H14 1.198450 1_555
B14 C10 1.692901 1_555
B14 Co2 2.129079 1_555
B15 H15 1.198450 1_555
B15 C11 1.692901 1_555
B15 Co3 2.129079 1_555
B16 H16 1.197881 1_555
B16 Co0 2.183852 1_555
B17 H17 1.197881 1_555
B17 Co1 2.183852 1_555
B18 H18 1.197881 1_555
B18 Co2 2.183852 1_555
B19 H19 1.197881 1_555
B19 Co3 2.183852 1_555
B20 H20 1.197275 1_555
B21 H21 1.197275 1_555
B22 H22 1.197275 1_555
B23 H23 1.197275 1_555
B24 H24 1.195772 1_555
B24 C8 1.681270 1_555
B25 H25 1.195772 1_555
B25 C9 1.681270 1_555
B26 H26 1.195772 1_555
B26 C10 1.681270 1_555
B27 H27 1.195772 1_555
B27 C11 1.681270 1_555
B28 H28 1.195393 1_555
B28 C8 1.726992 1_555
B28 Co0 2.133003 1_555
B29 H29 1.195393 1_555
B29 C9 1.726992 1_555
B29 Co1 2.133003 1_555
B30 H30 1.195393 1_555
B30 C10 1.726992 1_555
B30 Co2 2.133003 1_555
B31 H31 1.195393 1_555
B31 C11 1.726992 1_555
B31 Co3 2.133003 1_555
B32 H44 1.194451 1_555
B32 C8 1.731821 1_555
B33 H45 1.194451 1_555
B33 C9 1.731821 1_555
B34 H46 1.194451 1_555
B34 C10 1.731821 1_555
B35 H47 1.194451 1_555
B35 C11 1.731821 1_555
B36 H48 1.193171 1_555
B36 C8 1.709206 1_555
B37 H49 1.193171 1_555
B37 C9 1.709206 1_555
B38 H50 1.193171 1_555
B38 C10 1.709206 1_555
B39 H51 1.193171 1_555
B39 C11 1.709206 1_555
C0 C4 1.514369 1_545
C0 Co0 2.062388 1_555
C1 C5 1.514369 1_555
C1 Co1 2.062388 1_555
C2 C6 1.514369 1_565
C2 Co2 2.062388 1_555
C3 C7 1.514369 1_555
C3 Co3 2.062388 1_555
C4 H36 1.098758 1_555
C4 H32 1.099234 1_555
C4 H40 1.101432 1_555
C5 H37 1.098758 1_555
C5 H33 1.099234 1_555
C5 H41 1.101432 1_555
C6 H38 1.098758 1_555
C6 H34 1.099234 1_555
C6 H42 1.101432 1_555
C7 H39 1.098758 1_555
C7 H35 1.099234 1_555
C7 H43 1.101432 1_555
C10 C50 1.523664 1_555
C11 C51 1.523664 1_545
C12 C44 1.422581 1_655
C12 C16 1.437797 1_555
C12 C28 1.450261 1_555
C12 Co0 2.180425 1_555
C13 C45 1.422581 1_455
C13 C17 1.437797 1_555
C13 C29 1.450261 1_556
C13 Co1 2.180425 1_555
C14 C46 1.422581 1_455
C14 C18 1.437797 1_555
C14 C30 1.450261 1_555
C14 Co2 2.180425 1_555
C15 C47 1.422581 1_655
C15 C19 1.437797 1_555
C15 C31 1.450261 1_554
C15 Co3 2.180425 1_555
C16 H52 1.089515 1_545
C16 Co0 2.073300 1_555
C17 H53 1.089515 1_555
C17 Co1 2.073300 1_555
C18 H54 1.089515 1_565
C18 Co2 2.073300 1_555
C19 H55 1.089515 1_555
C19 Co3 2.073300 1_555
C20 H56 1.089423 1_545
C20 Co0 2.061979 1_555
C21 H57 1.089423 1_555
C21 Co1 2.061979 1_555
C22 H58 1.089423 1_565
C22 Co2 2.061979 1_555
C23 H59 1.089423 1_555
C23 Co3 2.061979 1_555
C24 H60 1.087439 1_555
C24 C28 1.443714 1_555
C24 Co0 2.062436 1_555
C25 H61 1.087439 1_555
C25 C29 1.443714 1_555
C25 Co1 2.062436 1_554
C26 H62 1.087439 1_555
C26 C30 1.443714 1_555
C26 Co2 2.062436 1_555
C27 H63 1.087439 1_555
C27 C31 1.443714 1_555
C27 Co3 2.062436 1_556
C28 C32 1.421997 1_555
C28 Co0 2.186897 1_555
C29 C33 1.421997 1_555
C29 Co1 2.186897 1_554
C30 C34 1.421997 1_555
C30 Co2 2.186897 1_555
C31 C35 1.421997 1_555
C31 Co3 2.186897 1_556
C32 H64 1.091107 1_555
C32 C36 1.377476 1_655
C33 H65 1.091107 1_555
C33 C37 1.377476 1_455
C34 H66 1.091107 1_555
C34 C38 1.377476 1_455
C35 H67 1.091107 1_555
C35 C39 1.377476 1_655
C36 H68 1.092568 1_555
C36 C40 1.431024 1_555
C37 H69 1.092568 1_555
C37 C41 1.431024 1_554
C38 H70 1.092568 1_555
C38 C42 1.431024 1_555
C39 H71 1.092568 1_555
C39 C43 1.431024 1_556
C40 H72 1.090958 1_555
C40 C44 1.376514 1_555
C41 H73 1.090958 1_555
C41 C45 1.376514 1_555
C42 H74 1.090958 1_555
C42 C46 1.376514 1_555
C43 H75 1.090958 1_555
C43 C47 1.376514 1_555
C44 H76 1.091186 1_555
C45 H77 1.091186 1_555
C46 H78 1.091186 1_555
C47 H79 1.091186 1_555
C48 H84 1.097143 1_555
C48 H80 1.097605 1_555
C48 H88 1.098768 1_555
C48 C8 1.523664 1_555
C49 H85 1.097143 1_555
C49 H81 1.097605 1_555
C49 H89 1.098768 1_555
C49 C9 1.523664 1_545
C50 H86 1.097143 1_555
C50 H82 1.097605 1_555
C50 H90 1.098768 1_555
C51 H87 1.097143 1_555
C51 H83 1.097605 1_555
C51 H91 1.098768 1_555
