# generated using pymatgen
data_Li5Mn4(P2O7)4
_symmetry_space_group_name_H-M   'P 1'
_cell_length_a   9.78388600
_cell_length_b   9.80217522
_cell_length_c   11.27133871
_cell_angle_alpha   76.68019844
_cell_angle_beta   89.70785546
_cell_angle_gamma   89.55156839
_symmetry_Int_Tables_number   1
_chemical_formula_structural   Li5Mn4(P2O7)4
_chemical_formula_sum   'Li10 Mn8 P16 O56'
_cell_volume   1051.84250690
_cell_formula_units_Z   2
loop_
 _symmetry_equiv_pos_site_id
 _symmetry_equiv_pos_as_xyz
  1  'x, y, z'
loop_
 _atom_site_type_symbol
 _atom_site_label
 _atom_site_symmetry_multiplicity
 _atom_site_fract_x
 _atom_site_fract_y
 _atom_site_fract_z
 _atom_site_occupancy
  Li  Li0  1  0.42793600  0.84124700  0.53243700  1
  Li  Li1  1  0.11257500  0.91328000  0.02306600  1
  Li  Li2  1  0.92052300  0.66322300  0.46033200  1
  Li  Li3  1  0.04131000  0.37924700  0.50550300  1
  Li  Li4  1  0.41059300  0.41627400  0.02613100  1
  Li  Li5  1  0.58865500  0.14350700  0.95721100  1
  Li  Li6  1  0.09947800  0.35932100  0.04557900  1
  Li  Li7  1  0.89574700  0.08728700  0.96634300  1
  Li  Li8  1  0.59189200  0.16411000  0.45797500  1
  Li  Li9  1  0.27824600  0.11566200  0.54762400  1
  Mn  Mn0  1  0.92797000  0.80083600  0.67602800  1
  Mn  Mn1  1  0.22954100  0.73195400  0.83117200  1
  Mn  Mn2  1  0.71353300  0.76091300  0.17203900  1
  Mn  Mn3  1  0.42668500  0.69655800  0.32875500  1
  Mn  Mn4  1  0.57554000  0.29614100  0.67517900  1
  Mn  Mn5  1  0.27873500  0.24473200  0.82789100  1
  Mn  Mn6  1  0.77292500  0.26978900  0.16563400  1
  Mn  Mn7  1  0.07053900  0.19931800  0.32453800  1
  P  P0  1  0.45553400  0.97744800  0.75228800  1
  P  P1  1  0.71193700  0.87593700  0.88784800  1
  P  P2  1  0.92621400  0.93818000  0.24000000  1
  P  P3  1  0.14488800  0.87479200  0.43153400  1
  P  P4  1  0.64412100  0.61791400  0.57842300  1
  P  P5  1  0.41991900  0.57038200  0.75204600  1
  P  P6  1  0.04449100  0.48077600  0.75725600  1
  P  P7  1  0.21728600  0.61940700  0.11553700  1
  P  P8  1  0.78300900  0.39012600  0.89055200  1
  P  P9  1  0.94877300  0.52741800  0.24229400  1
  P  P10  1  0.57731100  0.42737800  0.24440000  1
  P  P11  1  0.35304400  0.37694000  0.42079600  1
  P  P12  1  0.85272100  0.12102600  0.58349600  1
  P  P13  1  0.07795800  0.06379800  0.75704300  1
  P  P14  1  0.29461900  0.11501300  0.11006900  1
  P  P15  1  0.54819000  0.01757900  0.24859100  1
  O  O0  1  0.42914900  0.98707700  0.61843700  1
  O  O1  1  0.84532500  0.96565200  0.57641400  1
  O  O2  1  0.09120700  0.91362900  0.73685100  1
  O  O3  1  0.34711600  0.90139600  0.83986800  1
  O  O4  1  0.59427800  0.89102500  0.78379800  1
  O  O5  1  0.83207100  0.81449500  0.82922300  1
  O  O6  1  0.65623000  0.77588100  0.00436300  1
  O  O7  1  0.26874800  0.97702000  0.08054700  1
  O  O8  1  0.07023800  0.88128000  0.30139200  1
  O  O9  1  0.93764900  0.93655200  0.10622500  1
  O  O10  1  0.54225500  0.86213200  0.22513300  1
  O  O11  1  0.28520700  0.81092900  0.41751300  1
  O  O12  1  0.81889800  0.82532600  0.30060100  1
  O  O13  1  0.04923500  0.78404500  0.52640300  1
  O  O14  1  0.55247300  0.70417400  0.47717200  1
  O  O15  1  0.31577600  0.68469300  0.68457800  1
  O  O16  1  0.78551900  0.67636100  0.58598400  1
  O  O17  1  0.03684900  0.63579800  0.77691000  1
  O  O18  1  0.56833000  0.62704100  0.70581700  1
  O  O19  1  0.39762600  0.57716900  0.88473900  1
  O  O20  1  0.75891700  0.52478600  0.92562900  1
  O  O21  1  0.16640000  0.72610700  0.99722500  1
  O  O22  1  0.33181000  0.68179000  0.17710300  1
  O  O23  1  0.09140500  0.60812100  0.20921800  1
  O  O24  1  0.59009800  0.57420600  0.26809100  1
  O  O25  1  0.84247300  0.61686200  0.15877900  1
  O  O26  1  0.07754400  0.47399500  0.62920700  1
  O  O27  1  0.34629800  0.53115100  0.42771500  1
  O  O28  1  0.65218200  0.46135500  0.57559200  1
  O  O29  1  0.93497100  0.51351500  0.37755800  1
  O  O30  1  0.13749900  0.39910500  0.85970300  1
  O  O31  1  0.40903900  0.42259800  0.72793200  1
  O  O32  1  0.89582000  0.40816200  0.78302200  1
  O  O33  1  0.66343200  0.31731600  0.84032500  1
  O  O34  1  0.84739300  0.27406500  0.00144300  1
  O  O35  1  0.24214700  0.47667000  0.09124100  1
  O  O36  1  0.58618900  0.41095500  0.11377300  1
  O  O37  1  0.42891500  0.36977300  0.29405100  1
  O  O38  1  0.95732200  0.38306100  0.20343900  1
  O  O39  1  0.21054500  0.31708400  0.41430900  1
  O  O40  1  0.68546000  0.31865200  0.31267500  1
  O  O41  1  0.43933000  0.28151900  0.52057100  1
  O  O42  1  0.93505300  0.21239400  0.48163900  1
  O  O43  1  0.18607600  0.16338400  0.68591600  1
  O  O44  1  0.70653100  0.17431700  0.59768600  1
  O  O45  1  0.47561200  0.12953300  0.77828300  1
  O  O46  1  0.07695100  0.07539100  0.88939200  1
  O  O47  1  0.92845900  0.12373000  0.70974500  1
  O  O48  1  0.73202800  0.02128200  0.91002100  1
  O  O49  1  0.37096400  0.21980400  0.00385000  1
  O  O50  1  0.17242600  0.18907500  0.15525000  1
  O  O51  1  0.39885800  0.08561300  0.22609800  1
  O  O52  1  0.64182700  0.10317100  0.14769700  1
  O  O53  1  0.90163500  0.08472100  0.26509500  1
  O  O54  1  0.15952800  0.02505600  0.44662700  1
  O  O55  1  0.57902400  0.01652000  0.37852100  1
loop_
_geom_bond_atom_site_label_1
_geom_bond_atom_site_label_2
_geom_bond_distance
_geom_bond_site_symmetry_2
Li0 O0 1.903134 1_555
Li0 O11 1.979550 1_555
Li0 O14 2.007543 1_555
Li0 O15 2.300954 1_555
Li0 O55 2.605147 1_565
Li1 O7 1.832047 1_555
Li1 O46 1.951959 1_564
Li1 O9 1.983866 1_455
Li1 O21 1.989430 1_554
Li2 O29 1.915757 1_555
Li2 O16 1.956879 1_555
Li2 O13 1.995581 1_655
Li2 O12 2.330270 1_555
Li3 O26 1.881275 1_555
Li3 O29 2.003404 1_455
Li3 O42 2.015002 1_455
Li3 O39 2.103534 1_555
Li4 O35 1.943637 1_555
Li4 O19 1.970794 1_554
Li4 O36 1.980477 1_555
Li4 O49 2.039060 1_555
Li5 O48 1.986376 1_555
Li5 O33 2.036914 1_555
Li5 O52 2.157252 1_556
Li5 O45 2.337031 1_555
Li5 O49 2.348783 1_556
Li6 O35 1.960021 1_555
Li6 O50 1.965225 1_555
Li6 O30 2.073076 1_554
Li6 O38 2.305417 1_455
Li7 O48 1.898219 1_555
Li7 O9 1.939260 1_546
Li7 O46 1.984102 1_655
Li7 O34 2.012599 1_556
Li8 O55 1.873978 1_555
Li8 O44 1.959635 1_555
Li8 O41 2.094466 1_555
Li8 O40 2.162928 1_555
Li9 O43 1.943378 1_555
Li9 O0 1.981124 1_545
Li9 O54 1.982245 1_555
Li9 O41 2.242035 1_555
Li9 O39 2.284183 1_555
Mn0 O1 1.917677 1_555
Mn0 O5 1.991944 1_555
Mn0 O17 2.045133 1_655
Mn0 O13 2.093649 1_655
Mn0 O2 2.152007 1_655
Mn0 O16 2.252301 1_555
Mn1 O21 1.956346 1_555
Mn1 O15 1.997237 1_555
Mn1 O3 2.048792 1_555
Mn1 O19 2.218099 1_555
Mn1 O17 2.263161 1_555
Mn1 O2 2.288653 1_555
Mn2 O25 1.917035 1_555
Mn2 O6 1.946650 1_555
Mn2 O12 2.002036 1_555
Mn2 O10 2.094766 1_555
Mn2 O24 2.255720 1_555
Mn3 O27 1.915519 1_555
Mn3 O22 1.984105 1_555
Mn3 O14 2.097288 1_555
Mn3 O10 2.102040 1_555
Mn3 O11 2.156865 1_555
Mn3 O24 2.190615 1_555
Mn4 O28 1.902029 1_555
Mn4 O45 2.027902 1_555
Mn4 O44 2.067997 1_555
Mn4 O33 2.108214 1_555
Mn4 O31 2.200429 1_555
Mn4 O41 2.230490 1_555
Mn5 O30 2.130730 1_555
Mn5 O49 2.144507 1_556
Mn5 O43 2.152335 1_555
Mn5 O31 2.247097 1_555
Mn5 O45 2.354564 1_555
Mn5 O46 2.576930 1_555
Mn6 O34 1.976992 1_555
Mn6 O40 2.013306 1_555
Mn6 O52 2.130972 1_555
Mn6 O38 2.219551 1_555
Mn6 O53 2.274861 1_555
Mn6 O36 2.278810 1_555
Mn7 O54 2.115498 1_555
Mn7 O50 2.170705 1_555
Mn7 O39 2.193129 1_555
Mn7 O53 2.197434 1_455
Mn7 O42 2.233178 1_455
Mn7 O38 2.277151 1_455
O0 P0 1.513156 1_555
O1 P12 1.545622 1_565
O2 P13 1.544801 1_565
O3 P0 1.522497 1_555
O4 P0 1.592088 1_555
O4 P1 1.629003 1_555
O5 P1 1.531417 1_555
O6 P1 1.546367 1_554
O7 P14 1.489300 1_565
O8 P2 1.610998 1_455
O8 P3 1.629851 1_555
O9 P2 1.515137 1_555
O10 P15 1.606915 1_565
O11 P3 1.526933 1_555
O12 P2 1.566975 1_555
O13 P3 1.541114 1_555
O14 P4 1.541205 1_555
O15 P5 1.571439 1_555
O16 P4 1.511770 1_555
O17 P6 1.586463 1_555
O18 P5 1.599978 1_555
O18 P4 1.633088 1_555
O19 P5 1.526825 1_555
O20 P8 1.479463 1_555
O21 P7 1.573543 1_556
O22 P7 1.524838 1_555
O23 P7 1.605953 1_555
O23 P9 1.608808 1_455
O24 P10 1.529246 1_555
O25 P9 1.533580 1_555
O26 P6 1.493711 1_555
O27 P11 1.532347 1_555
O28 P4 1.543676 1_555
O29 P9 1.504555 1_555
O30 P6 1.541326 1_555
O31 P5 1.538762 1_555
O32 P8 1.615276 1_555
O32 P6 1.619698 1_655
O33 P8 1.550673 1_555
O34 P8 1.610870 1_554
O35 P7 1.504084 1_555
O36 P10 1.519519 1_555
O37 P10 1.612126 1_555
O37 P11 1.622170 1_555
O38 P9 1.576188 1_555
O39 P11 1.525442 1_555
O40 P10 1.568565 1_555
O41 P11 1.537827 1_555
O42 P12 1.515627 1_555
O43 P13 1.536717 1_555
O44 P12 1.539056 1_555
O45 P0 1.597888 1_545
O46 P13 1.521930 1_555
O47 P12 1.613430 1_555
O47 P13 1.618318 1_655
O48 P1 1.516512 1_545
O49 P14 1.575640 1_555
O50 P14 1.538244 1_555
O51 P15 1.598214 1_555
O51 P14 1.633664 1_555
O52 P15 1.548622 1_555
O53 P2 1.543454 1_545
O54 P3 1.529032 1_545
O55 P15 1.494418 1_555
