# generated using pymatgen
data_Er12(MnC3)5
_symmetry_space_group_name_H-M   'P 1'
_cell_length_a   4.97403070
_cell_length_b   10.38434782
_cell_length_c   10.37237366
_cell_angle_alpha   120.03832258
_cell_angle_beta   90.00000229
_cell_angle_gamma   89.99999557
_symmetry_Int_Tables_number   1
_chemical_formula_structural   Er12(MnC3)5
_chemical_formula_sum   'Er12 Mn5 C15'
_cell_volume   463.79774693
_cell_formula_units_Z   1
loop_
 _symmetry_equiv_pos_site_id
 _symmetry_equiv_pos_as_xyz
  1  'x, y, z'
loop_
 _atom_site_type_symbol
 _atom_site_label
 _atom_site_symmetry_multiplicity
 _atom_site_fract_x
 _atom_site_fract_y
 _atom_site_fract_z
 _atom_site_occupancy
  Er  Er0  1  0.50000014  0.20751089  0.20645551  1
  Er  Er1  1  0.49999980  0.00105411  0.79354448  1
  Er  Er2  1  0.49999965  0.78984538  0.00000104  1
  Er  Er3  1  -0.00000006  0.73041779  0.18530164  1
  Er  Er4  1  0.00000033  0.45415814  0.26813205  1
  Er  Er5  1  -0.00000009  0.54511616  0.81469639  1
  Er  Er6  1  -0.00000006  0.81445306  0.54522538  1
  Er  Er7  1  -0.00000008  0.18602728  0.73186738  1
  Er  Er8  1  0.00000037  0.26922763  0.45477370  1
  Er  Er9  1  0.50000010  0.57029767  0.57106544  1
  Er  Er10  1  0.49999985  0.99923274  0.42893277  1
  Er  Er11  1  0.49999998  0.43244220  0.00000190  1
  Mn  Mn0  1  -0.00000016  0.84642254  0.84579429  1
  Mn  Mn1  1  -0.00000003  0.00062835  0.15420607  1
  Mn  Mn2  1  -0.00000023  0.15395130  0.00000012  1
  Mn  Mn3  1  0.50000007  0.66713580  0.33432978  1
  Mn  Mn4  1  0.50000025  0.33280917  0.66567483  1
  C  C0  1  -0.00000000  0.67133021  0.67177505  1
  C  C1  1  -0.00000005  -0.00044546  0.32822435  1
  C  C2  1  0.00000033  0.32764773  -0.00000032  1
  C  C3  1  0.00000016  0.20854309  0.20880646  1
  C  C4  1  -0.00000040  0.99973779  0.79119377  1
  C  C5  1  -0.00000040  0.79307489  0.00000010  1
  C  C6  1  0.00000010  0.54135290  0.54190450  1
  C  C7  1  -0.00000013  -0.00055004  0.45809592  1
  C  C8  1  0.00000019  0.45794539  -0.00000150  1
  C  C9  1  0.49999989  0.71914172  0.19546988  1
  C  C10  1  0.50000034  0.47725351  0.28095063  1
  C  C11  1  0.50000015  0.52367252  0.80452959  1
  C  C12  1  0.49999986  0.80429293  0.52432463  1
  C  C13  1  0.49999995  0.19630331  0.71904828  1
  C  C14  1  0.50000020  0.27997032  0.47567689  1
loop_
_geom_bond_atom_site_label_1
_geom_bond_atom_site_label_2
_geom_bond_distance
_geom_bond_site_symmetry_2
C0 C6 1.347619 1_555
C0 Mn0 1.810593 1_555
C0 Er5 2.420871 1_555
C0 Er6 2.425902 1_555
C0 Er9 2.698137 1_455
C0 Er9 2.698138 1_555
C1 C7 1.347620 1_555
C1 Mn1 1.810590 1_555
C1 Er3 2.420879 1_545
C1 Er8 2.425903 1_555
C1 Er10 2.698130 1_545
C1 Er10 2.698131 1_445
C2 C8 1.353062 1_555
C2 Mn2 1.803726 1_555
C2 Er7 2.408909 1_554
C2 Er4 2.408911 1_555
C2 Er11 2.714671 1_555
C2 Er11 2.714674 1_455
C3 Mn1 1.938583 1_555
C3 Mn2 1.944972 1_555
C3 Er8 2.301406 1_555
C3 Er4 2.304924 1_555
C3 Er0 2.487105 1_555
C3 Er0 2.487105 1_455
C4 Mn0 1.938595 1_555
C4 Mn2 1.944967 1_566
C4 Er6 2.301418 1_555
C4 Er7 2.304932 1_565
C4 Er1 2.487104 1_465
C4 Er1 2.487106 1_565
C5 Mn1 1.937092 1_565
C5 Mn0 1.937095 1_554
C5 Er3 2.317221 1_555
C5 Er5 2.317223 1_554
C5 Er2 2.487241 1_455
C5 Er2 2.487242 1_555
C6 Er8 2.499067 1_555
C6 Er9 2.505206 1_455
C6 Er9 2.505206 1_555
C6 Er4 2.511851 1_555
C7 Er6 2.499084 1_545
C7 Er10 2.505208 1_545
C7 Er10 2.505208 1_445
C7 Er7 2.511841 1_555
C8 Er11 2.501077 1_555
C8 Er3 2.501079 1_555
C8 Er11 2.501079 1_455
C8 Er5 2.501086 1_554
C9 Mn3 1.773378 1_555
C9 Er2 2.477911 1_555
C9 Er3 2.494483 1_555
C9 Er3 2.494483 1_655
C9 Er11 2.632703 1_555
C9 Er10 2.696717 1_555
C10 Mn3 1.761127 1_555
C10 Er4 2.495700 1_655
C10 Er4 2.495700 1_555
C10 Er0 2.505260 1_555
C10 Er9 2.660425 1_555
C10 Er11 2.711261 1_555
C11 Mn4 1.773343 1_555
C11 Er2 2.477916 1_556
C11 Er5 2.494481 1_655
C11 Er5 2.494483 1_555
C11 Er11 2.632742 1_556
C11 Er9 2.696716 1_555
C12 Mn3 1.761293 1_555
C12 Er6 2.494088 1_555
C12 Er6 2.494089 1_655
C12 Er1 2.502068 1_565
C12 Er10 2.661229 1_555
C12 Er9 2.705329 1_555
C13 Mn4 1.761114 1_555
C13 Er7 2.495700 1_655
C13 Er7 2.495700 1_555
C13 Er1 2.505288 1_555
C13 Er10 2.660428 1_545
C13 Er11 2.711294 1_556
C14 Mn4 1.761323 1_555
C14 Er8 2.494089 1_555
C14 Er8 2.494091 1_655
C14 Er0 2.502084 1_555
C14 Er9 2.661190 1_555
C14 Er10 2.705331 1_545
