# generated using pymatgen
data_Li3AuN2
_symmetry_space_group_name_H-M   'P 1'
_cell_length_a   8.16101537
_cell_length_b   7.42154427
_cell_length_c   12.50000205
_cell_angle_alpha   90.00000064
_cell_angle_beta   139.98143769
_cell_angle_gamma   117.04530769
_symmetry_Int_Tables_number   1
_chemical_formula_structural   Li3AuN2
_chemical_formula_sum   'Li12 Au4 N8'
_cell_volume   344.24582520
_cell_formula_units_Z   4
loop_
 _symmetry_equiv_pos_site_id
 _symmetry_equiv_pos_as_xyz
  1  'x, y, z'
loop_
 _atom_site_type_symbol
 _atom_site_label
 _atom_site_symmetry_multiplicity
 _atom_site_fract_x
 _atom_site_fract_y
 _atom_site_fract_z
 _atom_site_occupancy
  Li  Li0  1  0.00000000  0.50000000  0.40553900  1
  Li  Li1  1  0.00000000  0.00000000  0.84446100  1
  Li  Li2  1  0.00000000  0.50000000  0.09446100  1
  Li  Li3  1  0.00000000  0.00000000  0.15553900  1
  Li  Li4  1  0.58138800  0.50000000  0.54069300  1
  Li  Li5  1  0.41861200  0.50000000  0.95930700  1
  Li  Li6  1  0.58138800  0.00000000  0.29069300  1
  Li  Li7  1  0.41861200  0.00000000  0.70930700  1
  Li  Li8  1  0.41861200  0.91861200  0.95930700  1
  Li  Li9  1  0.58138800  0.08138800  0.54069300  1
  Li  Li10  1  0.41861200  0.41861200  0.70930700  1
  Li  Li11  1  0.58138800  0.58138800  0.29069300  1
  Au  Au0  1  0.00000000  0.50000000  0.62507100  1
  Au  Au1  1  0.00000000  0.00000000  0.62492900  1
  Au  Au2  1  0.00000000  0.50000000  0.87492900  1
  Au  Au3  1  0.00000000  0.00000000  0.37507100  1
  N  N0  1  0.26588000  0.13294000  0.13264500  1
  N  N1  1  0.73412000  0.86706000  0.86676500  1
  N  N2  1  0.26588000  0.63294000  0.38323500  1
  N  N3  1  0.73412000  0.36706000  0.11735500  1
  N  N4  1  0.00000000  0.86706000  0.00029500  1
  N  N5  1  0.00000000  0.13294000  0.00029500  1
  N  N6  1  0.00000000  0.36706000  0.24970500  1
  N  N7  1  0.00000000  0.63294000  0.24970500  1
loop_
_geom_bond_atom_site_label_1
_geom_bond_atom_site_label_2
_geom_bond_distance
_geom_bond_site_symmetry_2
Li0 N2 2.176960 1_555
Li0 N3 2.176960 1_455
Li0 N6 2.183537 1_555
Li0 N7 2.183537 1_555
Li1 N1 2.176960 1_445
Li1 N0 2.176960 1_556
Li1 N5 2.183537 1_556
Li1 N4 2.183537 1_546
Li2 N7 2.176960 1_555
Li2 N6 2.176960 1_555
Li2 N3 2.183537 1_455
Li2 N2 2.183537 1_555
Li3 N4 2.176960 1_545
Li3 N5 2.176960 1_555
Li3 N0 2.183537 1_555
Li3 N1 2.183537 1_444
Li4 N2 2.454609 1_555
Li4 N6 2.454609 1_555
Li5 N3 2.454609 1_556
Li5 N7 2.454609 1_656
Li6 N0 2.454609 1_555
Li6 N4 2.454609 1_545
Li7 N1 2.454609 1_545
Li7 N5 2.454609 1_656
Li8 N3 2.454609 1_566
Li8 N6 2.454609 1_666
Li9 N2 2.454609 1_545
Li9 N7 2.454609 1_545
Li10 N1 2.454609 1_555
Li10 N4 2.454609 1_656
Li11 N0 2.454609 1_555
Li11 N5 2.454609 1_555
Au0 Li9 2.695280 1_455
Au0 Li4 2.695280 1_455
Au0 Li8 2.695295 1_555
Au0 Li5 2.695295 1_555
Au0 Li0 2.744150 1_555
Au0 Li7 3.084069 1_565
Au0 Li10 3.084069 1_555
Au0 Li6 3.084081 1_455
Au0 Li11 3.084082 1_455
Au1 Li10 2.695280 1_555
Au1 Li7 2.695280 1_555
Au1 Li11 2.695295 1_445
Au1 Li6 2.695295 1_455
Au1 Li1 2.744150 1_555
Au1 Li4 3.084069 1_445
Au1 Li9 3.084069 1_455
Au1 Li5 3.084081 1_555
Au1 Li8 3.084082 1_545
Au2 Li8 2.695280 1_555
Au2 Li5 2.695280 1_555
Au2 Li9 2.695295 1_455
Au2 Li4 2.695295 1_455
Au2 Li2 2.744150 1_556
Au2 Li6 3.084069 1_566
Au2 Li11 3.084069 1_556
Au2 Li7 3.084081 1_455
Au2 Li10 3.084081 1_455
Au3 Li11 2.695280 1_445
Au3 Li6 2.695280 1_455
Au3 Li10 2.695295 1_555
Au3 Li7 2.695295 1_555
Au3 Li3 2.744150 1_555
Au3 Li5 3.084069 1_444
Au3 Li8 3.084069 1_444
Au3 Li4 3.084081 1_555
Au3 Li9 3.084081 1_555
N0 N4 1.395311 1_545
N0 N5 1.395311 1_555
N1 N5 1.395311 1_666
N1 N4 1.395311 1_656
N2 N6 1.395311 1_555
N2 N7 1.395311 1_555
N3 N7 1.395311 1_655
N3 N6 1.395311 1_655
