# generated using pymatgen
data_Nb2Zn2BiO8
_symmetry_space_group_name_H-M   'P 1'
_cell_length_a   10.82245147
_cell_length_b   10.82245147
_cell_length_c   5.45280347
_cell_angle_alpha   88.22202559
_cell_angle_beta   88.22202559
_cell_angle_gamma   32.16645070
_symmetry_Int_Tables_number   1
_chemical_formula_structural   Nb2Zn2BiO8
_chemical_formula_sum   'Nb4 Zn4 Bi2 O16'
_cell_volume   339.83406592
_cell_formula_units_Z   2
loop_
 _symmetry_equiv_pos_site_id
 _symmetry_equiv_pos_as_xyz
  1  'x, y, z'
loop_
 _atom_site_type_symbol
 _atom_site_label
 _atom_site_symmetry_multiplicity
 _atom_site_fract_x
 _atom_site_fract_y
 _atom_site_fract_z
 _atom_site_occupancy
  Nb  Nb0  1  0.03570600  0.71642200  0.22663200  1
  Nb  Nb1  1  0.28357800  0.96429400  0.27336800  1
  Nb  Nb2  1  0.96429400  0.28357800  0.77336800  1
  Nb  Nb3  1  0.71642200  0.03570600  0.72663200  1
  Zn  Zn0  1  0.87756400  0.56286800  0.27310700  1
  Zn  Zn1  1  0.43713200  0.12243600  0.22689300  1
  Zn  Zn2  1  0.12243600  0.43713200  0.72689300  1
  Zn  Zn3  1  0.56286800  0.87756400  0.77310700  1
  Bi  Bi0  1  0.69133300  0.30866700  0.25000000  1
  Bi  Bi1  1  0.30866700  0.69133300  0.75000000  1
  O  O0  1  0.01386400  0.83508900  0.53725300  1
  O  O1  1  0.16491100  0.98613600  0.96274700  1
  O  O2  1  0.98613600  0.16491100  0.46274700  1
  O  O3  1  0.83508900  0.01386400  0.03725300  1
  O  O4  1  0.32097100  0.55419500  0.11576600  1
  O  O5  1  0.44580500  0.67902900  0.38423400  1
  O  O6  1  0.67902900  0.44580500  0.88423400  1
  O  O7  1  0.55419500  0.32097100  0.61576600  1
  O  O8  1  0.93139100  0.71177500  0.92355600  1
  O  O9  1  0.28822500  0.06860900  0.57644400  1
  O  O10  1  0.44601400  0.15588100  0.86072100  1
  O  O11  1  0.84411900  0.55398600  0.63927900  1
  O  O12  1  0.55398600  0.84411900  0.13927900  1
  O  O13  1  0.15588100  0.44601400  0.36072100  1
  O  O14  1  0.71177500  0.93139100  0.42355600  1
  O  O15  1  0.06860900  0.28822500  0.07644400  1
loop_
_geom_bond_atom_site_label_1
_geom_bond_atom_site_label_2
_geom_bond_distance
_geom_bond_site_symmetry_2
Nb0 O4 1.937155 1_555
Nb0 O0 2.042107 1_555
Nb0 O8 2.055537 1_454
Nb0 O3 2.059819 1_465
Nb0 O13 2.067073 1_555
Nb0 O14 2.229096 1_455
Nb1 O5 1.937155 1_555
Nb1 O1 2.042107 1_554
Nb1 O9 2.055537 1_565
Nb1 O2 2.059819 1_465
Nb1 O12 2.067073 1_555
Nb1 O15 2.229096 1_565
Nb2 O6 1.937155 1_555
Nb2 O2 2.042107 1_555
Nb2 O15 2.055537 1_656
Nb2 O1 2.059819 1_645
Nb2 O11 2.067073 1_555
Nb2 O9 2.229096 1_655
Nb3 O7 1.937155 1_555
Nb3 O3 2.042107 1_556
Nb3 O14 2.055537 1_545
Nb3 O0 2.059819 1_645
Nb3 O10 2.067073 1_555
Nb3 O8 2.229096 1_545
Bi0 O3 2.378968 1_555
Bi0 O2 2.378968 1_555
Bi0 O4 2.385792 1_555
Bi0 O5 2.385792 1_555
Bi0 O7 2.386740 1_555
Bi0 O6 2.386740 1_554
Bi1 O1 2.378968 1_555
Bi1 O0 2.378968 1_555
Bi1 O6 2.385792 1_555
Bi1 O7 2.385792 1_555
Bi1 O5 2.386740 1_555
Bi1 O4 2.386740 1_556
O8 Zn2 1.978716 1_655
O9 Zn3 1.978716 1_545
O10 Zn2 2.008822 1_555
O10 Zn1 2.032011 1_556
O10 Zn3 2.122010 1_545
O11 Zn3 2.008822 1_555
O11 Zn0 2.032011 1_555
O11 Zn2 2.122010 1_655
O12 Zn0 2.008822 1_555
O12 Zn3 2.032011 1_554
O12 Zn1 2.122010 1_565
O13 Zn1 2.008822 1_555
O13 Zn2 2.032011 1_555
O13 Zn0 2.122010 1_455
O14 Zn1 1.978716 1_565
O15 Zn0 1.978716 1_455
