# generated using pymatgen
data_Co20(As4O19)3
_symmetry_space_group_name_H-M   'P 1'
_cell_length_a   13.73332693
_cell_length_b   13.85899594
_cell_length_c   13.73332693
_cell_angle_alpha   107.12385953
_cell_angle_beta   72.07189915
_cell_angle_gamma   72.87614047
_symmetry_Int_Tables_number   1
_chemical_formula_structural   Co20(As4O19)3
_chemical_formula_sum   'Co40 As24 O114'
_cell_volume   2153.04516663
_cell_formula_units_Z   2
loop_
 _symmetry_equiv_pos_site_id
 _symmetry_equiv_pos_as_xyz
  1  'x, y, z'
loop_
 _atom_site_type_symbol
 _atom_site_label
 _atom_site_symmetry_multiplicity
 _atom_site_fract_x
 _atom_site_fract_y
 _atom_site_fract_z
 _atom_site_occupancy
  Co  Co0  1  0.20520313  0.79409632  0.79466047  1
  Co  Co1  1  0.89384291  0.10699200  0.10560254  1
  Co  Co2  1  0.70533953  0.29409632  0.29479687  1
  Co  Co3  1  0.39439746  0.60699200  0.60615709  1
  Co  Co4  1  0.47994798  0.08780554  0.44758553  1
  Co  Co5  1  0.15077278  0.41396027  0.77087716  1
  Co  Co6  1  0.81742270  0.75342160  0.10525306  1
  Co  Co7  1  0.24897895  0.09656455  0.17959882  1
  Co  Co8  1  0.91469197  0.43498790  0.51669989  1
  Co  Co9  1  0.58514823  0.76670564  0.84693237  1
  Co  Co10  1  0.23111000  0.84865832  0.41381304  1
  Co  Co11  1  0.90369733  0.17854843  0.75082137  1
  Co  Co12  1  0.56624636  0.51406283  0.08351625  1
  Co  Co13  1  0.38796918  0.17860106  0.25362331  1
  Co  Co14  1  0.05795874  0.50913386  0.58534769  1
  Co  Co15  1  0.72264933  0.84563166  0.91993196  1
  Co  Co16  1  0.41864793  0.93288726  0.50160444  1
  Co  Co17  1  0.08190546  0.26673721  0.83880158  1
  Co  Co18  1  0.75181906  0.60174022  0.16965197  1
  Co  Co19  1  0.15661933  0.91935978  0.27298184  1
  Co  Co20  1  0.82337527  0.25004778  0.61199792  1
  Co  Co21  1  0.48903627  0.58634668  0.94477003  1
  Co  Co22  1  0.33034803  0.10174022  0.74818094  1
  Co  Co23  1  0.99839556  0.43288726  0.08135207  1
  Co  Co24  1  0.66119842  0.76673721  0.41809454  1
  Co  Co25  1  0.55522997  0.08634668  0.01096373  1
  Co  Co26  1  0.22701816  0.41935978  0.34338067  1
  Co  Co27  1  0.88800208  0.75004778  0.67662473  1
  Co  Co28  1  0.58006804  0.34563166  0.77735067  1
  Co  Co29  1  0.24637669  0.67860106  0.11203082  1
  Co  Co30  1  0.91465231  0.00913386  0.44204126  1
  Co  Co31  1  0.41648375  0.01406283  0.93375364  1
  Co  Co32  1  0.08618696  0.34865832  0.26889000  1
  Co  Co33  1  0.74917863  0.67854843  0.59630267  1
  Co  Co34  1  0.39474694  0.25342160  0.68257730  1
  Co  Co35  1  0.05241447  0.58780554  0.02005202  1
  Co  Co36  1  0.72912284  0.91396027  0.34922722  1
  Co  Co37  1  0.65306763  0.26670564  0.91485177  1
  Co  Co38  1  0.32040118  0.59656455  0.25102105  1
  Co  Co39  1  0.98330011  0.93498790  0.58530803  1
  As  As0  1  0.56440949  0.76964695  0.10356865  1
  As  As1  1  0.22784220  0.10444561  0.43764813  1
  As  As2  1  0.89573158  0.43582404  0.77231916  1
  As  As3  1  0.72768084  0.93582404  0.60426842  1
  As  As4  1  0.39643135  0.26964695  0.93559051  1
  As  As5  1  0.06235187  0.60444561  0.27215780  1
  As  As6  1  0.97413994  0.87732393  0.17433104  1
  As  As7  1  0.64635803  0.20451526  0.49912254  1
  As  As8  1  0.30589644  0.54592066  0.84042183  1
  As  As9  1  0.79798522  0.49524210  0.34903714  1
  As  As10  1  0.45590862  0.83567737  0.69105297  1
  As  As11  1  0.12685068  0.17309085  0.02290734  1
  As  As12  1  0.16218984  0.69130411  0.54439004  1
  As  As13  1  0.82475172  0.02377641  0.87539593  1
  As  As14  1  0.50265675  0.35154005  0.20594859  1
  As  As15  1  0.47709266  0.67309085  0.37314932  1
  As  As16  1  0.15096286  0.99524210  0.70201478  1
  As  As17  1  0.80894703  0.33567737  0.04409138  1
  As  As18  1  0.65957817  0.04592066  0.19410356  1
  As  As19  1  0.32566896  0.37732393  0.52586006  1
  As  As20  1  0.00087746  0.70451526  0.85364197  1
  As  As21  1  0.29405141  0.85154005  0.99734325  1
  As  As22  1  0.95560996  0.19130411  0.33781016  1
  As  As23  1  0.62460407  0.52377641  0.67524828  1
  O  O0  1  0.55158456  0.92043484  0.40306936  1
  O  O1  1  0.23227985  0.26579779  0.72830541  1
  O  O2  1  0.89971425  0.59670920  0.06050019  1
  O  O3  1  0.41835341  0.07484777  0.11609401  1
  O  O4  1  0.08529067  0.40864325  0.44960376  1
  O  O5  1  0.75159044  0.74136237  0.78029590  1
  O  O6  1  0.25899435  0.78400511  0.24636962  1
  O  O7  1  0.92619482  0.11477827  0.58200408  1
  O  O8  1  0.59202879  0.44787656  0.91226945  1
  O  O9  1  0.77169459  0.76579779  0.26772015  1
  O  O10  1  0.43949981  0.09670920  0.60028575  1
  O  O11  1  0.09693064  0.42043484  0.94841544  1
  O  O12  1  0.91799592  0.61477827  0.57380518  1
  O  O13  1  0.58773055  0.94787656  0.90797121  1
  O  O14  1  0.25363038  0.28400511  0.24100565  1
  O  O15  1  0.05039624  0.90864325  0.41470933  1
  O  O16  1  0.71970410  0.24136237  0.74840956  1
  O  O17  1  0.38390599  0.57484777  0.08164659  1
  O  O18  1  0.63317894  0.08457933  0.42846596  1
  O  O19  1  0.29825296  0.42757488  0.76333282  1
  O  O20  1  0.96439230  0.75908389  0.09816647  1
  O  O21  1  0.57559039  0.76152773  0.70031585  1
  O  O22  1  0.24445585  0.09952353  0.03498476  1
  O  O23  1  0.91526089  0.42664537  0.36560540  1
  O  O24  1  0.89972492  0.03496277  0.75604768  1
  O  O25  1  0.57091691  0.36588721  0.08550660  1
  O  O26  1  0.23715981  0.70142411  0.42417691  1
  O  O27  1  0.83110581  0.89023906  0.82546368  1
  O  O28  1  0.50348601  0.22009258  0.15879990  1
  O  O29  1  0.17127246  0.55691482  0.49558419  1
  O  O30  1  0.50363234  0.82885336  0.55644427  1
  O  O31  1  0.17625984  0.16765456  0.88919671  1
  O  O32  1  0.84980588  0.49784805  0.21703193  1
  O  O33  1  0.77765189  0.15534350  0.49961138  1
  O  O34  1  0.43946635  0.49672676  0.83478989  1
  O  O35  1  0.10827793  0.82561335  0.16774332  1
  O  O36  1  0.61080329  0.66765456  0.32374016  1
  O  O37  1  0.28296807  0.99784805  0.65019412  1
  O  O38  1  0.94355573  0.32885336  0.99636766  1
  O  O39  1  0.66521011  0.99672676  0.06053365  1
  O  O40  1  0.33225668  0.32561335  0.39172207  1
  O  O41  1  0.00038862  0.65534350  0.72234811  1
  O  O42  1  0.34120010  0.72009258  0.99651399  1
  O  O43  1  0.00441581  0.05691482  0.32872754  1
  O  O44  1  0.67453632  0.39023906  0.66889419  1
  O  O45  1  0.41449340  0.86588721  0.92908309  1
  O  O46  1  0.07582309  0.20142411  0.26284019  1
  O  O47  1  0.74395232  0.53496277  0.60027508  1
  O  O48  1  0.73666718  0.92757488  0.20174704  1
  O  O49  1  0.40183353  0.25908389  0.53560770  1
  O  O50  1  0.07153404  0.58457933  0.86682106  1
  O  O51  1  0.46501524  0.59952353  0.25554415  1
  O  O52  1  0.13439460  0.92664537  0.58473911  1
  O  O53  1  0.79968415  0.26152773  0.92440961  1
  O  O54  1  0.95830425  0.96717452  0.11489319  1
  O  O55  1  0.62845680  0.29900801  0.44292195  1
  O  O56  1  0.29203429  0.63748925  0.77613885  1
  O  O57  1  0.70144242  0.43987661  0.36730858  1
  O  O58  1  0.36295362  0.77214762  0.70647703  1
  O  O59  1  0.03057579  0.11873624  0.04535344  1
  O  O60  1  0.22498458  0.70535763  0.63784432  1
  O  O61  1  0.87996430  0.04038705  0.97009080  1
  O  O62  1  0.55881648  0.37050574  0.30127949  1
  O  O63  1  0.45464656  0.61873624  0.46942421  1
  O  O64  1  0.13269142  0.93987661  0.79855758  1
  O  O65  1  0.79352297  0.27214762  0.13704638  1
  O  O66  1  0.72386115  0.13748925  0.20796571  1
  O  O67  1  0.38510681  0.46717452  0.54169575  1
  O  O68  1  0.05707805  0.79900801  0.87154320  1
  O  O69  1  0.19872051  0.87050574  0.94118352  1
  O  O70  1  0.86215568  0.20535763  0.27501542  1
  O  O71  1  0.52990920  0.54038705  0.62003570  1
  O  O72  1  0.68649738  0.71951843  0.12169705  1
  O  O73  1  0.34937037  0.05446023  0.45694128  1
  O  O74  1  0.01411898  0.38894900  0.79679577  1
  O  O75  1  0.61479053  0.79159516  0.98291820  1
  O  O76  1  0.27401959  0.12942063  0.31877694  1
  O  O77  1  0.94127936  0.46233028  0.65452115  1
  O  O78  1  0.54093725  0.65153025  0.05562888  1
  O  O79  1  0.20400353  0.98725925  0.38787914  1
  O  O80  1  0.87548888  0.31601471  0.72297584  1
  O  O81  1  0.70320423  0.88894900  0.48588102  1
  O  O82  1  0.37830295  0.21951843  0.81350262  1
  O  O83  1  0.04305872  0.55446023  0.15062963  1
  O  O84  1  0.77702416  0.81601471  0.62451112  1
  O  O85  1  0.44437112  0.15153025  0.95906275  1
  O  O86  1  0.11212086  0.48725925  0.29599647  1
  O  O87  1  0.84547885  0.96233028  0.55872064  1
  O  O88  1  0.51708180  0.29159516  0.88520947  1
  O  O89  1  0.18122306  0.62942063  0.22598041  1
  O  O90  1  0.95098217  0.71168224  0.38084479  1
  O  O91  1  0.61708984  0.04242960  0.71403166  1
  O  O92  1  0.28840938  0.37902309  0.04514909  1
  O  O93  1  0.45485091  0.87902309  0.21159062  1
  O  O94  1  0.11915521  0.21168224  0.54901783  1
  O  O95  1  0.78596834  0.54242960  0.88291016  1
  O  O96  1  0.87844528  0.92774923  0.31564408  1
  O  O97  1  0.54669722  0.26333365  0.64065389  1
  O  O98  1  0.20598307  0.60085236  0.98024841  1
  O  O99  1  0.73827043  0.63390920  0.44671213  1
  O  O100  1  0.39901326  0.97374126  0.78624649  1
  O  O101  1  0.07464095  0.31238570  0.11825497  1
  O  O102  1  0.02193903  0.78545860  0.60069570  1
  O  O103  1  0.68442332  0.11834860  0.92759983  1
  O  O104  1  0.36212441  0.44851258  0.26469181  1
  O  O105  1  0.38174503  0.81238570  0.42535905  1
  O  O106  1  0.05328787  0.13390920  0.76172957  1
  O  O107  1  0.71375351  0.47374126  0.10098674  1
  O  O108  1  0.51975159  0.10085236  0.29401693  1
  O  O109  1  0.18435592  0.42774923  0.62155472  1
  O  O110  1  0.85934611  0.76333365  0.95330278  1
  O  O111  1  0.23530819  0.94851258  0.13787559  1
  O  O112  1  0.89930430  0.28545860  0.47806097  1
  O  O113  1  0.57240017  0.61834860  0.81557668  1
loop_
_geom_bond_atom_site_label_1
_geom_bond_atom_site_label_2
_geom_bond_distance
_geom_bond_site_symmetry_2
Co0 O69 1.938511 1_555
Co0 O64 1.948115 1_555
Co0 O68 1.952291 1_555
Co0 O58 2.008078 1_555
Co0 O60 2.026744 1_555
Co0 O56 2.039965 1_555
Co1 O59 1.881484 1_655
Co1 O61 1.913685 1_554
Co1 O54 1.939006 1_545
Co1 O65 2.125630 1_555
Co1 O70 2.149527 1_555
Co1 O66 2.157103 1_555
Co2 O62 1.938511 1_555
Co2 O57 1.948115 1_555
Co2 O55 1.952291 1_555
Co2 O65 2.008078 1_555
Co2 O70 2.026744 1_555
Co2 O66 2.039965 1_555
Co3 O63 1.881484 1_555
Co3 O71 1.913685 1_555
Co3 O67 1.939006 1_555
Co3 O58 2.125630 1_555
Co3 O60 2.149527 1_555
Co3 O56 2.157103 1_555
Co4 O10 1.952339 1_555
Co4 O73 1.956274 1_555
Co4 O18 2.024061 1_555
Co4 O0 2.042775 1_545
Co4 O49 2.063756 1_555
Co4 O108 2.086249 1_555
Co5 O1 1.829698 1_555
Co5 O74 1.952787 1_555
Co5 O109 2.038376 1_555
Co5 O19 2.062988 1_555
Co5 O50 2.068558 1_555
Co5 O11 2.285114 1_555
Co6 O2 1.926891 1_555
Co6 O72 1.953132 1_555
Co6 O20 2.016514 1_555
Co6 O110 2.044683 1_554
Co6 O9 2.061717 1_555
Co6 O48 2.108771 1_555
Co7 O76 1.990811 1_555
Co7 O22 2.017988 1_555
Co7 O111 2.043136 1_545
Co7 O46 2.094445 1_555
Co7 O3 2.108568 1_555
Co7 O14 2.510843 1_555
Co8 O77 1.985948 1_555
Co8 O23 2.041418 1_555
Co8 O47 2.056393 1_555
Co8 O112 2.073676 1_555
Co8 O4 2.107263 1_655
Co8 O12 2.400727 1_555
Co9 O75 1.985898 1_555
Co9 O21 2.039575 1_555
Co9 O113 2.044640 1_555
Co9 O45 2.053499 1_555
Co9 O5 2.058121 1_555
Co9 O13 2.416526 1_555
Co10 O79 2.004639 1_555
Co10 O52 2.045398 1_555
Co10 O105 2.047912 1_555
Co10 O26 2.066240 1_555
Co10 O6 2.068793 1_555
Co10 O15 2.368712 1_555
Co11 O80 2.002874 1_555
Co11 O24 2.028218 1_555
Co11 O106 2.030086 1_655
Co11 O53 2.089948 1_555
Co11 O7 2.107897 1_555
Co11 O16 2.432488 1_555
Co12 O78 2.004695 1_555
Co12 O25 2.044152 1_555
Co12 O107 2.045756 1_555
Co12 O51 2.068227 1_555
Co12 O8 2.126830 1_554
Co12 O17 2.406473 1_555
Co13 O3 1.836085 1_555
Co13 O76 1.959419 1_555
Co13 O40 2.060743 1_555
Co13 O28 2.061443 1_555
Co13 O14 2.080024 1_555
Co13 O108 2.136800 1_555
Co14 O4 1.813359 1_555
Co14 O77 1.982086 1_455
Co14 O41 2.041251 1_555
Co14 O109 2.059447 1_555
Co14 O29 2.070353 1_555
Co14 O12 2.128489 1_455
Co15 O5 1.866630 1_555
Co15 O75 1.936259 1_555
Co15 O27 2.027003 1_555
Co15 O13 2.060678 1_555
Co15 O39 2.108115 1_556
Co15 O110 2.147505 1_555
Co16 O0 1.830298 1_555
Co16 O105 1.984344 1_555
Co16 O37 2.008997 1_555
Co16 O73 2.035708 1_565
Co16 O30 2.048862 1_555
Co16 O10 2.425543 1_565
Co17 O74 2.011380 1_555
Co17 O31 2.026739 1_555
Co17 O106 2.048976 1_555
Co17 O38 2.107660 1_455
Co17 O1 2.147309 1_555
Co17 O11 2.325467 1_555
Co18 O72 2.009309 1_555
Co18 O107 2.043011 1_555
Co18 O32 2.063295 1_555
Co18 O2 2.087555 1_555
Co18 O36 2.088030 1_555
Co18 O9 2.417956 1_555
Co19 O6 1.831945 1_555
Co19 O79 1.979189 1_555
Co19 O35 2.051939 1_555
Co19 O111 2.058620 1_555
Co19 O43 2.097225 1_565
Co19 O15 2.118570 1_555
Co20 O7 1.818345 1_555
Co20 O80 1.976671 1_555
Co20 O16 2.035379 1_555
Co20 O44 2.085099 1_555
Co20 O112 2.088941 1_555
Co20 O33 2.094817 1_555
Co21 O8 1.841496 1_555
Co21 O78 1.969612 1_556
Co21 O113 2.041384 1_555
Co21 O42 2.045187 1_555
Co21 O17 2.069903 1_556
Co21 O34 2.076922 1_555
Co22 O82 2.009309 1_555
Co22 O100 2.043011 1_545
Co22 O37 2.063295 1_545
Co22 O10 2.087555 1_555
Co22 O31 2.088030 1_555
Co22 O1 2.417956 1_555
Co23 O11 1.830298 1_654
Co23 O101 1.984344 1_655
Co23 O32 2.008997 1_555
Co23 O83 2.035708 1_655
Co23 O38 2.048862 1_554
Co23 O2 2.425543 1_555
Co24 O81 2.011380 1_555
Co24 O36 2.026739 1_555
Co24 O99 2.048976 1_555
Co24 O30 2.107660 1_555
Co24 O9 2.147309 1_555
Co24 O0 2.325467 1_555
Co25 O13 1.841496 1_544
Co25 O85 1.969612 1_554
Co25 O103 2.041384 1_554
Co25 O28 2.045187 1_555
Co25 O3 2.069903 1_555
Co25 O39 2.076922 1_545
Co26 O14 1.831945 1_555
Co26 O86 1.979189 1_555
Co26 O40 2.051939 1_555
Co26 O104 2.058620 1_555
Co26 O29 2.097225 1_555
Co26 O4 2.118570 1_555
Co27 O12 1.818345 1_555
Co27 O84 1.976671 1_555
Co27 O5 2.035379 1_555
Co27 O27 2.085099 1_555
Co27 O102 2.088941 1_655
Co27 O41 2.094817 1_655
Co28 O16 1.866630 1_555
Co28 O88 1.936259 1_555
Co28 O44 2.027003 1_555
Co28 O8 2.060678 1_555
Co28 O34 2.108115 1_555
Co28 O97 2.147505 1_555
Co29 O17 1.836085 1_555
Co29 O89 1.959419 1_555
Co29 O35 2.060743 1_555
Co29 O42 2.061443 1_554
Co29 O6 2.080024 1_555
Co29 O98 2.136800 1_554
Co30 O15 1.813359 1_645
Co30 O87 1.982086 1_545
Co30 O33 2.041251 1_555
Co30 O96 2.059447 1_545
Co30 O43 2.070353 1_655
Co30 O7 2.128489 1_555
Co31 O85 2.004695 1_555
Co31 O45 2.044152 1_545
Co31 O100 2.045756 1_545
Co31 O22 2.068227 1_556
Co31 O13 2.126830 1_545
Co31 O3 2.406473 1_556
Co32 O86 2.004639 1_555
Co32 O23 2.045398 1_455
Co32 O101 2.047912 1_555
Co32 O46 2.066240 1_555
Co32 O14 2.068793 1_555
Co32 O4 2.368712 1_555
Co33 O84 2.002874 1_555
Co33 O47 2.028218 1_555
Co33 O99 2.030086 1_555
Co33 O21 2.089948 1_555
Co33 O12 2.107897 1_555
Co33 O5 2.432488 1_555
Co34 O10 1.926891 1_555
Co34 O82 1.953132 1_555
Co34 O49 2.016514 1_555
Co34 O97 2.044683 1_555
Co34 O1 2.061717 1_555
Co34 O19 2.108771 1_555
Co35 O2 1.952339 1_455
Co35 O83 1.956274 1_555
Co35 O50 2.024061 1_554
Co35 O11 2.042775 1_554
Co35 O20 2.063756 1_455
Co35 O98 2.086249 1_554
Co36 O9 1.829698 1_555
Co36 O81 1.952787 1_555
Co36 O96 2.038376 1_555
Co36 O48 2.062988 1_555
Co36 O18 2.068558 1_565
Co36 O0 2.285114 1_555
Co37 O88 1.985898 1_555
Co37 O53 2.039575 1_555
Co37 O103 2.044640 1_555
Co37 O25 2.053499 1_556
Co37 O16 2.058121 1_555
Co37 O8 2.416526 1_555
Co38 O89 1.990811 1_555
Co38 O51 2.017988 1_555
Co38 O104 2.043136 1_555
Co38 O26 2.094445 1_555
Co38 O17 2.108568 1_555
Co38 O6 2.510843 1_555
Co39 O87 1.985948 1_555
Co39 O52 2.041418 1_655
Co39 O24 2.056393 1_565
Co39 O102 2.073676 1_655
Co39 O15 2.107263 1_655
Co39 O7 2.400727 1_565
As0 O93 1.649515 1_555
As0 O78 1.738909 1_555
As0 O72 1.740334 1_555
As0 O75 1.741152 1_554
As1 O94 1.650948 1_555
As1 O79 1.734699 1_545
As1 O76 1.735415 1_555
As1 O73 1.742154 1_555
As2 O95 1.649082 1_555
As2 O77 1.733679 1_555
As2 O80 1.737454 1_555
As2 O74 1.738247 1_655
As3 O91 1.649082 1_565
As3 O87 1.733679 1_555
As3 O84 1.737454 1_555
As3 O81 1.738247 1_555
As4 O92 1.649515 1_556
As4 O85 1.738909 1_555
As4 O82 1.740334 1_555
As4 O88 1.741152 1_555
As5 O90 1.650948 1_455
As5 O86 1.734699 1_555
As5 O89 1.735415 1_555
As5 O83 1.742154 1_555
As6 O54 1.677086 1_555
As6 O35 1.731219 1_655
As6 O20 1.733014 1_555
As6 O96 1.752751 1_555
As7 O55 1.701050 1_555
As7 O33 1.732680 1_555
As7 O18 1.752912 1_555
As7 O97 1.757236 1_555
As8 O19 1.723141 1_555
As8 O34 1.726503 1_555
As8 O56 1.745577 1_555
As8 O98 1.746895 1_555
As9 O57 1.708001 1_555
As9 O23 1.732308 1_555
As9 O99 1.744067 1_555
As9 O32 1.747479 1_555
As10 O30 1.723527 1_555
As10 O21 1.727657 1_555
As10 O100 1.731610 1_555
As10 O58 1.747847 1_555
As11 O59 1.697932 1_555
As11 O31 1.720289 1_554
As11 O22 1.723487 1_555
As11 O101 1.753222 1_555
As12 O26 1.726328 1_555
As12 O29 1.735024 1_555
As12 O102 1.737637 1_555
As12 O60 1.749846 1_555
As13 O61 1.689010 1_555
As13 O24 1.724911 1_555
As13 O27 1.738861 1_545
As13 O103 1.747703 1_555
As14 O62 1.707729 1_555
As14 O25 1.732945 1_555
As14 O28 1.739744 1_555
As14 O104 1.748537 1_555
As15 O63 1.697932 1_555
As15 O36 1.720289 1_555
As15 O51 1.723487 1_555
As15 O105 1.753222 1_555
As16 O64 1.708001 1_555
As16 O52 1.732308 1_555
As16 O106 1.744067 1_565
As16 O37 1.747479 1_555
As17 O38 1.723527 1_554
As17 O53 1.727657 1_554
As17 O107 1.731610 1_555
As17 O65 1.747847 1_555
As18 O48 1.723141 1_545
As18 O39 1.726503 1_545
As18 O66 1.745577 1_555
As18 O108 1.746895 1_555
As19 O67 1.677086 1_555
As19 O40 1.731219 1_555
As19 O49 1.733014 1_555
As19 O109 1.752751 1_555
As20 O68 1.701050 1_555
As20 O41 1.732680 1_555
As20 O50 1.752912 1_555
As20 O110 1.757236 1_455
As21 O69 1.707729 1_555
As21 O45 1.732945 1_555
As21 O42 1.739744 1_555
As21 O111 1.748537 1_556
As22 O46 1.726328 1_655
As22 O43 1.735024 1_655
As22 O112 1.737637 1_555
As22 O70 1.749846 1_555
As23 O71 1.689010 1_555
As23 O47 1.724911 1_555
As23 O44 1.738861 1_555
As23 O113 1.747703 1_555
