# generated using pymatgen
data_MgCr(SiO3)2
_symmetry_space_group_name_H-M   'P 1'
_cell_length_a   5.31467715
_cell_length_b   6.89787585
_cell_length_c   6.89921870
_cell_angle_alpha   87.28592318
_cell_angle_beta   75.68080857
_cell_angle_gamma   75.69011723
_symmetry_Int_Tables_number   1
_chemical_formula_structural   MgCr(SiO3)2
_chemical_formula_sum   'Mg2 Cr2 Si4 O12'
_cell_volume   237.43834204
_cell_formula_units_Z   2
loop_
 _symmetry_equiv_pos_site_id
 _symmetry_equiv_pos_as_xyz
  1  'x, y, z'
loop_
 _atom_site_type_symbol
 _atom_site_label
 _atom_site_symmetry_multiplicity
 _atom_site_fract_x
 _atom_site_fract_y
 _atom_site_fract_z
 _atom_site_occupancy
  Mg  Mg0  1  0.75001000  0.24385700  0.75614600  1
  Mg  Mg1  1  0.25001200  0.75610300  0.24386200  1
  Cr  Cr0  1  0.74988400  0.89794000  0.10219800  1
  Cr  Cr1  1  0.25014900  0.10203300  0.89782000  1
  Si  Si0  1  0.24055300  0.20978700  0.38382300  1
  Si  Si1  1  0.25942400  0.61619700  0.79021100  1
  Si  Si2  1  0.74057600  0.38383200  0.20977600  1
  Si  Si3  1  0.75941800  0.79025600  0.61616300  1
  O  O0  1  0.49250900  0.31427300  0.37346700  1
  O  O1  1  0.00738900  0.62653400  0.68581200  1
  O  O2  1  0.50738100  0.68578600  0.62651500  1
  O  O3  1  0.99253700  0.37346500  0.31425000  1
  O  O4  1  0.12461700  0.14862000  0.61070200  1
  O  O5  1  0.37535600  0.38930800  0.85136500  1
  O  O6  1  0.87539500  0.85138500  0.38931400  1
  O  O7  1  0.62464000  0.61068400  0.14860100  1
  O  O8  1  0.84993100  0.21929200  0.02272600  1
  O  O9  1  0.65004900  0.97728300  0.78063700  1
  O  O10  1  0.34996700  0.02267600  0.21938700  1
  O  O11  1  0.15019900  0.78069100  0.97722500  1
loop_
_geom_bond_atom_site_label_1
_geom_bond_atom_site_label_2
_geom_bond_distance
_geom_bond_site_symmetry_2
Mg0 O4 1.957016 1_655
Mg0 O5 1.957233 1_555
Mg0 O9 2.025100 1_545
Mg0 O8 2.025459 1_556
Mg1 O7 1.957091 1_555
Mg1 O6 1.957108 1_455
Mg1 O10 2.025081 1_565
Mg1 O11 2.025569 1_554
Cr0 O10 2.055069 1_565
Cr0 O11 2.057191 1_654
Cr0 O7 2.226708 1_555
Cr0 O6 2.226975 1_555
Cr0 O8 2.412508 1_565
Cr0 O9 2.413838 1_554
Cr1 O9 2.055004 1_545
Cr1 O8 2.056688 1_456
Cr1 O5 2.226748 1_555
Cr1 O4 2.227048 1_555
Cr1 O11 2.412181 1_545
Cr1 O10 2.413855 1_556
O0 Si0 1.656060 1_555
O0 Si2 1.663939 1_555
O1 Si1 1.656276 1_555
O1 Si3 1.664105 1_455
O2 Si3 1.656385 1_555
O2 Si1 1.663642 1_555
O3 Si2 1.656210 1_555
O3 Si0 1.663892 1_655
O4 Si0 1.611426 1_555
O5 Si1 1.611336 1_555
O6 Si3 1.611211 1_555
O7 Si2 1.611164 1_555
O8 Si2 1.653171 1_555
O9 Si3 1.652732 1_555
O10 Si0 1.652983 1_555
O11 Si1 1.652797 1_555
