# generated using pymatgen
data_Mg149Mo
_symmetry_space_group_name_H-M   'P 1'
_cell_length_a   15.89350016
_cell_length_b   15.89350467
_cell_length_c   15.62147027
_cell_angle_alpha   90.00000000
_cell_angle_beta   90.00000000
_cell_angle_gamma   120.00000936
_symmetry_Int_Tables_number   1
_chemical_formula_structural   Mg149Mo
_chemical_formula_sum   'Mg149 Mo1'
_cell_volume   3417.36779211
_cell_formula_units_Z   1
loop_
 _symmetry_equiv_pos_site_id
 _symmetry_equiv_pos_as_xyz
  1  'x, y, z'
loop_
 _atom_site_type_symbol
 _atom_site_label
 _atom_site_symmetry_multiplicity
 _atom_site_fract_x
 _atom_site_fract_y
 _atom_site_fract_z
 _atom_site_occupancy
  Mg  Mg0  1  0.39733526  0.00049166  -0.00000000  1
  Mg  Mg1  1  0.60315640  0.00049166  -0.00000000  1
  Mg  Mg2  1  0.19131705  0.00077355  -0.00000000  1
  Mg  Mg3  1  0.80945750  0.00077455  -0.00000000  1
  Mg  Mg4  1  0.99922545  0.19054350  -0.00000000  1
  Mg  Mg5  1  0.19131705  0.19054250  -0.00000000  1
  Mg  Mg6  1  0.59974497  0.19948993  -0.00000000  1
  Mg  Mg7  1  0.80047192  0.19952808  -0.00000000  1
  Mg  Mg8  1  0.39905716  0.19952908  -0.00000000  1
  Mg  Mg9  1  0.39733526  0.39684360  -0.00000000  1
  Mg  Mg10  1  0.99950834  0.39684360  -0.00000000  1
  Mg  Mg11  1  0.19890276  0.39780651  -0.00000000  1
  Mg  Mg12  1  0.59974497  0.40025503  -0.00000000  1
  Mg  Mg13  1  0.80051007  0.40025503  -0.00000000  1
  Mg  Mg14  1  0.40018171  0.59981829  -0.00000000  1
  Mg  Mg15  1  0.19963559  0.59981829  -0.00000000  1
  Mg  Mg16  1  0.80047192  0.60094284  -0.00000000  1
  Mg  Mg17  1  0.99950834  0.60266474  -0.00000000  1
  Mg  Mg18  1  0.60315640  0.60266474  -0.00000000  1
  Mg  Mg19  1  0.40018171  0.80036441  -0.00000000  1
  Mg  Mg20  1  0.19890276  0.80109624  -0.00000000  1
  Mg  Mg21  1  0.60219349  0.80109724  -0.00000000  1
  Mg  Mg22  1  0.99922545  0.80868295  -0.00000000  1
  Mg  Mg23  1  0.80945750  0.80868295  -0.00000000  1
  Mg  Mg24  1  0.06377037  0.12754073  0.15802938  1
  Mg  Mg25  1  0.06377037  0.93622863  0.15802938  1
  Mg  Mg26  1  0.87245927  0.93622963  0.15802938  1
  Mg  Mg27  1  0.26536555  0.33204586  0.16590526  1
  Mg  Mg28  1  0.06668031  0.33204586  0.16590526  1
  Mg  Mg29  1  0.66795314  0.73463445  0.16590526  1
  Mg  Mg30  1  0.06668031  0.73463445  0.16590526  1
  Mg  Mg31  1  0.66795314  0.93331869  0.16590526  1
  Mg  Mg32  1  0.26536555  0.93331969  0.16590526  1
  Mg  Mg33  1  0.46664819  0.53335081  0.16613188  1
  Mg  Mg34  1  0.06670261  0.53335181  0.16613188  1
  Mg  Mg35  1  0.46664819  0.93329739  0.16613188  1
  Mg  Mg36  1  0.26660579  0.53321157  0.16643279  1
  Mg  Mg37  1  0.26660579  0.73339421  0.16643279  1
  Mg  Mg38  1  0.46678743  0.73339421  0.16643279  1
  Mg  Mg39  1  0.86589833  0.13410067  0.16636416  1
  Mg  Mg40  1  0.26820234  0.13410067  0.16636416  1
  Mg  Mg41  1  0.86589833  0.73179766  0.16636416  1
  Mg  Mg42  1  0.46678721  0.13355091  0.16678091  1
  Mg  Mg43  1  0.66676370  0.13355091  0.16678091  1
  Mg  Mg44  1  0.46678721  0.33323630  0.16678091  1
  Mg  Mg45  1  0.86644809  0.33323630  0.16678091  1
  Mg  Mg46  1  0.86644809  0.53321179  0.16678091  1
  Mg  Mg47  1  0.66676370  0.53321279  0.16678091  1
  Mg  Mg48  1  0.66666700  0.33333300  0.16649293  1
  Mg  Mg49  1  0.80079883  0.99964685  0.33089545  1
  Mg  Mg50  1  0.19884802  0.99964785  0.33089545  1
  Mg  Mg51  1  0.19884802  0.19920117  0.33089545  1
  Mg  Mg52  1  0.00035315  0.19920117  0.33089545  1
  Mg  Mg53  1  0.00035315  0.80115198  0.33089545  1
  Mg  Mg54  1  0.80079883  0.80115198  0.33089545  1
  Mg  Mg55  1  -0.00000000  -0.00000000  0.33286253  1
  Mg  Mg56  1  0.39939882  0.99986984  0.33273505  1
  Mg  Mg57  1  0.60047202  0.99986984  0.33273505  1
  Mg  Mg58  1  0.00013016  0.39952798  0.33273505  1
  Mg  Mg59  1  0.39939882  0.39952798  0.33273505  1
  Mg  Mg60  1  0.60047202  0.60060118  0.33273505  1
  Mg  Mg61  1  0.00013016  0.60060218  0.33273505  1
  Mg  Mg62  1  0.20012650  0.40025299  0.33338202  1
  Mg  Mg63  1  0.20012650  0.79987350  0.33338202  1
  Mg  Mg64  1  0.59974701  0.79987350  0.33338202  1
  Mg  Mg65  1  0.59985393  0.19970786  0.33342012  1
  Mg  Mg66  1  0.80029214  0.40014607  0.33342012  1
  Mg  Mg67  1  0.59985393  0.40014607  0.33342012  1
  Mg  Mg68  1  0.40000263  0.20000181  0.33364102  1
  Mg  Mg69  1  0.79999919  0.20000181  0.33364102  1
  Mg  Mg70  1  0.79999919  0.59999737  0.33364102  1
  Mg  Mg71  1  0.40001399  0.59998501  0.33344937  1
  Mg  Mg72  1  0.19997102  0.59998601  0.33344937  1
  Mg  Mg73  1  0.40001399  0.80002998  0.33344937  1
  Mg  Mg74  1  0.26608332  0.13304166  0.50000000  1
  Mg  Mg75  1  0.86695834  0.13304166  0.50000000  1
  Mg  Mg76  1  0.06658156  0.13316213  0.50000000  1
  Mg  Mg77  1  0.66702591  0.13383269  0.50000000  1
  Mg  Mg78  1  0.46680678  0.13383269  0.50000000  1
  Mg  Mg79  1  0.06631782  0.33268873  0.50000000  1
  Mg  Mg80  1  0.26637091  0.33268873  0.50000000  1
  Mg  Mg81  1  0.46680678  0.33297409  0.50000000  1
  Mg  Mg82  1  0.86616731  0.33297409  0.50000000  1
  Mg  Mg83  1  0.66666700  0.33333300  0.50000000  1
  Mg  Mg84  1  0.26635494  0.53271088  0.50000000  1
  Mg  Mg85  1  0.46718543  0.53281557  0.50000000  1
  Mg  Mg86  1  0.06563015  0.53281557  0.50000000  1
  Mg  Mg87  1  0.66702591  0.53319222  0.50000000  1
  Mg  Mg88  1  0.86616731  0.53319222  0.50000000  1
  Mg  Mg89  1  0.26635494  0.73364506  0.50000000  1
  Mg  Mg90  1  0.46728912  0.73364506  0.50000000  1
  Mg  Mg91  1  0.66731127  0.73362909  0.50000000  1
  Mg  Mg92  1  0.06631782  0.73362909  0.50000000  1
  Mg  Mg93  1  0.86695834  0.73391668  0.50000000  1
  Mg  Mg94  1  0.86683787  0.93341944  0.50000000  1
  Mg  Mg95  1  0.06658156  0.93341944  0.50000000  1
  Mg  Mg96  1  0.26637091  0.93368218  0.50000000  1
  Mg  Mg97  1  0.66731127  0.93368218  0.50000000  1
  Mg  Mg98  1  0.46718543  0.93436985  0.50000000  1
  Mg  Mg99  1  0.40000263  0.20000181  0.66635798  1
  Mg  Mg100  1  0.79999919  0.20000181  0.66635798  1
  Mg  Mg101  1  0.79999919  0.59999737  0.66635798  1
  Mg  Mg102  1  0.40001399  0.59998501  0.66655063  1
  Mg  Mg103  1  0.19997102  0.59998601  0.66655063  1
  Mg  Mg104  1  0.40001399  0.80002998  0.66655063  1
  Mg  Mg105  1  0.59985393  0.19970786  0.66657988  1
  Mg  Mg106  1  0.80029214  0.40014607  0.66657988  1
  Mg  Mg107  1  0.59985393  0.40014607  0.66657988  1
  Mg  Mg108  1  0.20012650  0.40025299  0.66661698  1
  Mg  Mg109  1  0.20012650  0.79987350  0.66661698  1
  Mg  Mg110  1  0.59974701  0.79987350  0.66661698  1
  Mg  Mg111  1  0.39939882  0.99986984  0.66726495  1
  Mg  Mg112  1  0.60047202  0.99986984  0.66726495  1
  Mg  Mg113  1  0.00013016  0.39952798  0.66726495  1
  Mg  Mg114  1  0.39939882  0.39952798  0.66726495  1
  Mg  Mg115  1  0.60047202  0.60060118  0.66726495  1
  Mg  Mg116  1  0.00013016  0.60060218  0.66726495  1
  Mg  Mg117  1  -0.00000000  -0.00000000  0.66713747  1
  Mg  Mg118  1  0.80079883  0.99964685  0.66910455  1
  Mg  Mg119  1  0.19884802  0.99964785  0.66910455  1
  Mg  Mg120  1  0.19884802  0.19920117  0.66910455  1
  Mg  Mg121  1  0.00035315  0.19920117  0.66910455  1
  Mg  Mg122  1  0.00035315  0.80115198  0.66910455  1
  Mg  Mg123  1  0.80079883  0.80115198  0.66910455  1
  Mg  Mg124  1  0.66666700  0.33333300  0.83350707  1
  Mg  Mg125  1  0.46678721  0.13355091  0.83321909  1
  Mg  Mg126  1  0.66676370  0.13355091  0.83321909  1
  Mg  Mg127  1  0.46678721  0.33323630  0.83321909  1
  Mg  Mg128  1  0.86644809  0.33323630  0.83321909  1
  Mg  Mg129  1  0.86644809  0.53321179  0.83321909  1
  Mg  Mg130  1  0.66676370  0.53321279  0.83321909  1
  Mg  Mg131  1  0.86589833  0.13410067  0.83363584  1
  Mg  Mg132  1  0.26820234  0.13410067  0.83363584  1
  Mg  Mg133  1  0.86589833  0.73179766  0.83363584  1
  Mg  Mg134  1  0.26660579  0.53321157  0.83356821  1
  Mg  Mg135  1  0.26660579  0.73339421  0.83356821  1
  Mg  Mg136  1  0.46678743  0.73339421  0.83356821  1
  Mg  Mg137  1  0.46664819  0.53335081  0.83386712  1
  Mg  Mg138  1  0.06670261  0.53335181  0.83386712  1
  Mg  Mg139  1  0.46664819  0.93329739  0.83386712  1
  Mg  Mg140  1  0.26536555  0.33204586  0.83409474  1
  Mg  Mg141  1  0.06668031  0.33204586  0.83409474  1
  Mg  Mg142  1  0.66795314  0.73463445  0.83409474  1
  Mg  Mg143  1  0.06668031  0.73463445  0.83409474  1
  Mg  Mg144  1  0.66795314  0.93331869  0.83409474  1
  Mg  Mg145  1  0.26536555  0.93331969  0.83409474  1
  Mg  Mg146  1  0.06377037  0.12754073  0.84197062  1
  Mg  Mg147  1  0.06377037  0.93622863  0.84197062  1
  Mg  Mg148  1  0.87245927  0.93622963  0.84197062  1
  Mo  Mo0  1  0.00000000  -0.00000000  -0.00000000  1
loop_
_geom_bond_atom_site_label_1
_geom_bond_atom_site_label_2
_geom_bond_distance
_geom_bond_site_symmetry_2
Mg0 Mg8 3.149808 1_555
Mg0 Mg20 3.161467 1_545
Mg0 Mg32 3.164915 1_545
Mg0 Mg145 3.164915 1_544
Mg0 Mg125 3.185010 1_554
Mg0 Mg42 3.185010 1_555
Mg0 Mg6 3.190234 1_555
Mg0 Mg19 3.203583 1_545
Mg0 Mg35 3.204024 1_545
Mg0 Mg139 3.204037 1_544
Mg0 Mg1 3.271218 1_555
Mg0 Mg2 3.276593 1_555
Mg1 Mg7 3.149799 1_555
Mg1 Mg21 3.161452 1_545
Mg1 Mg31 3.164915 1_545
Mg1 Mg144 3.164915 1_544
Mg1 Mg126 3.185010 1_554
Mg1 Mg43 3.185010 1_555
Mg1 Mg6 3.190235 1_555
Mg1 Mg19 3.203590 1_545
Mg1 Mg35 3.204032 1_545
Mg1 Mg139 3.204045 1_544
Mg1 Mg3 3.276601 1_555
Mg2 Mo0 3.034569 1_555
Mg2 Mg40 3.185618 1_555
Mg2 Mg8 3.232685 1_555
Mg2 Mg20 3.235539 1_545
Mg2 Mg32 3.242370 1_545
Mg3 Mo0 3.034561 1_655
Mg3 Mg39 3.185610 1_555
Mg3 Mg7 3.232663 1_555
Mg3 Mg31 3.242386 1_545
Mg4 Mo0 3.034578 1_655
Mg4 Mg7 3.232654 1_555
Mg5 Mo0 3.034561 1_555
Mg5 Mg8 3.232671 1_555
Mg5 Mg9 3.276601 1_555
Mg6 Mg8 3.189943 1_555
Mg6 Mg7 3.189951 1_555
Mg8 Mg9 3.149792 1_555
Mg10 Mg7 3.149799 1_555
Mg10 Mg11 3.161451 1_655
Mg10 Mg28 3.164915 1_655
Mg10 Mg141 3.164915 1_654
Mg10 Mg128 3.185017 1_554
Mg10 Mg45 3.185017 1_555
Mg10 Mg13 3.190234 1_555
Mg10 Mg15 3.203590 1_655
Mg10 Mg34 3.204033 1_655
Mg10 Mg138 3.204045 1_654
Mg10 Mg17 3.271219 1_555
Mg10 Mg4 3.276586 1_555
Mg11 Mg9 3.161467 1_555
Mg11 Mg28 3.166862 1_555
Mg11 Mg141 3.166862 1_554
Mg11 Mg27 3.166870 1_555
Mg11 Mg140 3.166870 1_554
Mg11 Mg134 3.198914 1_554
Mg11 Mg36 3.198927 1_555
Mg11 Mg14 3.204867 1_555
Mg11 Mg15 3.204867 1_555
Mg11 Mg4 3.235538 1_455
Mg11 Mg5 3.235555 1_555
Mg12 Mg127 3.183879 1_554
Mg12 Mg44 3.183879 1_555
Mg12 Mg130 3.183879 1_554
Mg12 Mg47 3.183879 1_555
Mg12 Mg124 3.187223 1_554
Mg12 Mg48 3.187223 1_555
Mg12 Mg8 3.189935 1_555
Mg12 Mg16 3.189943 1_555
Mg12 Mg9 3.190235 1_555
Mg12 Mg18 3.190235 1_555
Mg12 Mg13 3.190860 1_555
Mg12 Mg6 3.190861 1_555
Mg13 Mg45 3.183872 1_555
Mg13 Mg46 3.183872 1_555
Mg13 Mg48 3.187215 1_555
Mg13 Mg16 3.189936 1_555
Mg13 Mg7 3.189952 1_555
Mg13 Mg17 3.190234 1_555
Mg13 Mg6 3.190860 1_555
Mg14 Mg33 3.175388 1_555
Mg14 Mg36 3.184325 1_555
Mg14 Mg38 3.184326 1_555
Mg14 Mg15 3.187380 1_555
Mg14 Mg19 3.187381 1_555
Mg14 Mg18 3.203598 1_555
Mg14 Mg9 3.203599 1_555
Mg14 Mg21 3.204867 1_555
Mg15 Mg34 3.175380 1_555
Mg15 Mg37 3.184326 1_555
Mg15 Mg36 3.184334 1_555
Mg15 Mg19 3.187380 1_555
Mg15 Mg17 3.203582 1_455
Mg15 Mg20 3.204852 1_555
Mg16 Mg17 3.149791 1_555
Mg16 Mg18 3.149807 1_555
Mg16 Mg41 3.161966 1_555
Mg16 Mg46 3.189839 1_555
Mg16 Mg47 3.189846 1_555
Mg16 Mg22 3.232671 1_555
Mg16 Mg23 3.232679 1_555
Mg17 Mg20 3.161451 1_655
Mg17 Mg30 3.164915 1_655
Mg17 Mg46 3.185017 1_555
Mg17 Mg34 3.204024 1_655
Mg17 Mg22 3.276602 1_555
Mg18 Mg21 3.161468 1_555
Mg18 Mg29 3.164915 1_555
Mg18 Mg47 3.185010 1_555
Mg18 Mg33 3.204032 1_555
Mg18 Mg9 3.271218 1_555
Mg18 Mg23 3.276601 1_555
Mg19 Mg35 3.175380 1_555
Mg19 Mg37 3.184325 1_555
Mg19 Mg38 3.184326 1_555
Mg19 Mg20 3.204859 1_555
Mg19 Mg21 3.204867 1_555
Mg20 Mg30 3.166862 1_555
Mg20 Mg32 3.166870 1_555
Mg20 Mg37 3.198927 1_555
Mg20 Mg22 3.235547 1_455
Mg21 Mg31 3.166854 1_555
Mg21 Mg29 3.166862 1_555
Mg21 Mg38 3.198935 1_555
Mg21 Mg3 3.235546 1_565
Mg21 Mg23 3.235554 1_555
Mg22 Mo0 3.034562 1_665
Mg22 Mg41 3.185617 1_555
Mg22 Mg30 3.242379 1_655
Mg23 Mo0 3.034561 1_665
Mg23 Mg41 3.185610 1_555
Mg23 Mg29 3.242386 1_555
Mg24 Mo0 3.029191 1_555
Mg24 Mg40 3.200933 1_555
Mg24 Mg39 3.200933 1_455
Mg24 Mg27 3.229770 1_555
Mg24 Mg28 3.229771 1_555
Mg24 Mg55 3.246682 1_555
Mg24 Mg51 3.279225 1_555
Mg24 Mg52 3.279225 1_555
Mg25 Mo0 3.029199 1_565
Mg25 Mg41 3.200925 1_455
Mg25 Mg40 3.200933 1_565
Mg25 Mg30 3.229755 1_555
Mg25 Mg32 3.229762 1_555
Mg25 Mg55 3.246689 1_565
Mg25 Mg53 3.279217 1_555
Mg25 Mg50 3.279224 1_555
Mg26 Mo0 3.029190 1_665
Mg26 Mg41 3.200927 1_555
Mg26 Mg39 3.200927 1_565
Mg26 Mg29 3.229779 1_555
Mg26 Mg31 3.229779 1_555
Mg26 Mg55 3.246681 1_665
Mg26 Mg54 3.279225 1_555
Mg26 Mg49 3.279225 1_555
Mg27 Mg28 3.157804 1_555
Mg27 Mg51 3.160118 1_555
Mg27 Mg9 3.164915 1_555
Mg27 Mg40 3.168835 1_555
Mg27 Mg36 3.187429 1_555
Mg27 Mg44 3.191906 1_555
Mg27 Mg59 3.193031 1_555
Mg27 Mg62 3.196714 1_555
Mg27 Mg33 3.199265 1_555
Mg27 Mg5 3.242379 1_555
Mg28 Mg52 3.160118 1_555
Mg28 Mg39 3.168834 1_455
Mg28 Mg36 3.187428 1_555
Mg28 Mg45 3.191922 1_455
Mg28 Mg58 3.193024 1_555
Mg28 Mg62 3.196714 1_555
Mg28 Mg34 3.199282 1_555
Mg28 Mg4 3.242370 1_455
Mg29 Mg31 3.157789 1_555
Mg29 Mg54 3.160125 1_555
Mg29 Mg41 3.168834 1_555
Mg29 Mg38 3.187428 1_555
Mg29 Mg47 3.191915 1_555
Mg29 Mg60 3.193032 1_555
Mg29 Mg64 3.196706 1_555
Mg29 Mg33 3.199273 1_555
Mg30 Mg32 3.157804 1_555
Mg30 Mg53 3.160118 1_555
Mg30 Mg41 3.168834 1_455
Mg30 Mg37 3.187428 1_555
Mg30 Mg46 3.191922 1_455
Mg30 Mg61 3.193024 1_555
Mg30 Mg63 3.196714 1_555
Mg30 Mg34 3.199266 1_555
Mg31 Mg49 3.160125 1_555
Mg31 Mg39 3.168834 1_565
Mg31 Mg38 3.187420 1_555
Mg31 Mg43 3.191915 1_565
Mg31 Mg57 3.193024 1_555
Mg31 Mg64 3.196706 1_555
Mg31 Mg35 3.199273 1_555
Mg32 Mg50 3.160125 1_555
Mg32 Mg40 3.168819 1_565
Mg32 Mg37 3.187429 1_555
Mg32 Mg42 3.191906 1_565
Mg32 Mg56 3.193031 1_555
Mg32 Mg63 3.196714 1_555
Mg32 Mg35 3.199265 1_555
Mg33 Mg36 3.178271 1_555
Mg33 Mg38 3.178288 1_555
Mg33 Mg44 3.181642 1_555
Mg33 Mg47 3.181649 1_555
Mg33 Mg59 3.188465 1_555
Mg33 Mg60 3.188472 1_555
Mg33 Mg71 3.193185 1_555
Mg33 Mg9 3.204025 1_555
Mg34 Mg37 3.178272 1_555
Mg34 Mg36 3.178280 1_555
Mg34 Mg46 3.181649 1_455
Mg34 Mg45 3.181657 1_455
Mg34 Mg61 3.188464 1_555
Mg34 Mg58 3.188473 1_555
Mg34 Mg72 3.193185 1_555
Mg35 Mg37 3.178272 1_555
Mg35 Mg38 3.178273 1_555
Mg35 Mg42 3.181642 1_565
Mg35 Mg43 3.181649 1_565
Mg35 Mg56 3.188457 1_555
Mg35 Mg57 3.188472 1_555
Mg35 Mg73 3.193177 1_555
Mg36 Mg38 3.181595 1_555
Mg36 Mg37 3.181604 1_555
Mg36 Mg62 3.186026 1_555
Mg36 Mg71 3.190445 1_555
Mg36 Mg72 3.190454 1_555
Mg37 Mg38 3.181587 1_555
Mg37 Mg63 3.186026 1_555
Mg37 Mg73 3.190445 1_555
Mg37 Mg72 3.190446 1_555
Mg38 Mg64 3.186034 1_555
Mg38 Mg71 3.190454 1_555
Mg38 Mg73 3.190454 1_555
Mg39 Mg43 3.160593 1_555
Mg39 Mg45 3.160610 1_555
Mg39 Mg7 3.161958 1_555
Mg39 Mg49 3.167344 1_545
Mg39 Mg52 3.167352 1_655
Mg39 Mg69 3.181098 1_555
Mg39 Mg4 3.185617 1_555
Mg40 Mg42 3.160593 1_555
Mg40 Mg44 3.160601 1_555
Mg40 Mg8 3.161966 1_555
Mg40 Mg50 3.167336 1_545
Mg40 Mg51 3.167352 1_555
Mg40 Mg68 3.181098 1_555
Mg40 Mg5 3.185618 1_555
Mg41 Mg47 3.160593 1_555
Mg41 Mg46 3.160610 1_555
Mg41 Mg54 3.167344 1_555
Mg41 Mg53 3.167352 1_655
Mg41 Mg70 3.181098 1_555
Mg42 Mg44 3.173701 1_555
Mg42 Mg48 3.176017 1_555
Mg42 Mg43 3.178326 1_555
Mg42 Mg56 3.179072 1_545
Mg42 Mg65 3.182925 1_555
Mg42 Mg6 3.183879 1_555
Mg42 Mg68 3.187080 1_555
Mg42 Mg8 3.189847 1_555
Mg43 Mg45 3.173692 1_555
Mg43 Mg48 3.176009 1_555
Mg43 Mg57 3.179072 1_545
Mg43 Mg65 3.182925 1_555
Mg43 Mg6 3.183879 1_555
Mg43 Mg69 3.187079 1_555
Mg43 Mg7 3.189847 1_555
Mg44 Mg48 3.176024 1_555
Mg44 Mg47 3.178326 1_555
Mg44 Mg59 3.179064 1_555
Mg44 Mg67 3.182925 1_555
Mg44 Mg9 3.185010 1_555
Mg44 Mg68 3.187072 1_555
Mg44 Mg8 3.189839 1_555
Mg45 Mg48 3.175993 1_555
Mg45 Mg46 3.178311 1_555
Mg45 Mg58 3.179080 1_655
Mg45 Mg66 3.182917 1_555
Mg45 Mg69 3.187072 1_555
Mg45 Mg7 3.189847 1_555
Mg46 Mg47 3.173692 1_555
Mg46 Mg48 3.176001 1_555
Mg46 Mg61 3.179080 1_655
Mg46 Mg66 3.182917 1_555
Mg46 Mg70 3.187072 1_555
Mg47 Mg48 3.176025 1_555
Mg47 Mg60 3.179064 1_555
Mg47 Mg67 3.182925 1_555
Mg47 Mg70 3.187079 1_555
Mg48 Mg6 3.187216 1_555
Mg48 Mg66 3.191024 1_555
Mg48 Mg65 3.191024 1_555
Mg48 Mg67 3.191032 1_555
Mg49 Mg54 3.154779 1_555
Mg49 Mg55 3.163350 1_665
Mg49 Mg52 3.171617 1_665
Mg49 Mg64 3.185543 1_555
Mg49 Mg57 3.185797 1_555
Mg49 Mg69 3.191004 1_565
Mg49 Mg94 3.208230 1_555
Mg49 Mg75 3.217080 1_565
Mg49 Mg97 3.217821 1_555
Mg50 Mg53 3.154786 1_555
Mg50 Mg55 3.163342 1_565
Mg50 Mg51 3.171602 1_565
Mg50 Mg63 3.185560 1_555
Mg50 Mg56 3.185821 1_555
Mg50 Mg68 3.190996 1_565
Mg50 Mg95 3.208230 1_555
Mg50 Mg74 3.217072 1_565
Mg50 Mg96 3.217829 1_555
Mg51 Mg52 3.154778 1_555
Mg51 Mg55 3.163350 1_555
Mg51 Mg62 3.185544 1_555
Mg51 Mg59 3.185805 1_555
Mg51 Mg68 3.190996 1_555
Mg51 Mg76 3.208230 1_555
Mg51 Mg74 3.217080 1_555
Mg51 Mg80 3.217821 1_555
Mg52 Mg55 3.163351 1_555
Mg52 Mg62 3.185543 1_555
Mg52 Mg58 3.185798 1_555
Mg52 Mg69 3.190995 1_455
Mg52 Mg76 3.208238 1_555
Mg52 Mg75 3.217079 1_455
Mg52 Mg79 3.217821 1_555
Mg53 Mg55 3.163351 1_565
Mg53 Mg54 3.171617 1_455
Mg53 Mg63 3.185543 1_555
Mg53 Mg61 3.185798 1_555
Mg53 Mg70 3.190996 1_455
Mg53 Mg95 3.208238 1_555
Mg53 Mg93 3.217079 1_455
Mg53 Mg92 3.217821 1_555
Mg54 Mg55 3.163350 1_665
Mg54 Mg64 3.185543 1_555
Mg54 Mg60 3.185805 1_555
Mg54 Mg70 3.191004 1_555
Mg54 Mg94 3.208238 1_555
Mg54 Mg93 3.217080 1_555
Mg54 Mg91 3.217821 1_555
Mg55 Mg94 3.190043 1_445
Mg55 Mg95 3.190043 1_545
Mg55 Mg76 3.190043 1_555
Mg56 Mg63 3.172920 1_555
Mg56 Mg68 3.176042 1_565
Mg56 Mg65 3.181059 1_565
Mg56 Mg73 3.181075 1_555
Mg56 Mg96 3.190616 1_555
Mg56 Mg98 3.192709 1_555
Mg56 Mg57 3.195757 1_555
Mg56 Mg78 3.198022 1_565
Mg57 Mg64 3.172913 1_555
Mg57 Mg69 3.176034 1_565
Mg57 Mg65 3.181068 1_565
Mg57 Mg73 3.181098 1_555
Mg57 Mg97 3.190609 1_555
Mg57 Mg98 3.192708 1_555
Mg57 Mg77 3.198022 1_565
Mg58 Mg62 3.172912 1_555
Mg58 Mg69 3.176018 1_455
Mg58 Mg66 3.181067 1_455
Mg58 Mg72 3.181106 1_555
Mg58 Mg79 3.190609 1_555
Mg58 Mg86 3.192717 1_555
Mg58 Mg61 3.195774 1_555
Mg58 Mg82 3.198022 1_455
Mg59 Mg62 3.172928 1_555
Mg59 Mg68 3.176011 1_555
Mg59 Mg67 3.181051 1_555
Mg59 Mg71 3.181107 1_555
Mg59 Mg80 3.190616 1_555
Mg59 Mg85 3.192717 1_555
Mg59 Mg60 3.195757 1_555
Mg59 Mg81 3.198014 1_555
Mg60 Mg64 3.172929 1_555
Mg60 Mg70 3.176026 1_555
Mg60 Mg67 3.181052 1_555
Mg60 Mg71 3.181114 1_555
Mg60 Mg91 3.190617 1_555
Mg60 Mg85 3.192708 1_555
Mg60 Mg87 3.198022 1_555
Mg61 Mg63 3.172912 1_555
Mg61 Mg70 3.176018 1_455
Mg61 Mg66 3.181067 1_455
Mg61 Mg72 3.181098 1_555
Mg61 Mg92 3.190609 1_555
Mg61 Mg86 3.192709 1_555
Mg61 Mg88 3.198022 1_455
Mg62 Mg71 3.175677 1_555
Mg62 Mg72 3.175694 1_555
Mg62 Mg84 3.177833 1_555
Mg62 Mg79 3.188553 1_555
Mg62 Mg80 3.188554 1_555
Mg63 Mg73 3.175669 1_555
Mg63 Mg72 3.175678 1_555
Mg63 Mg89 3.177825 1_555
Mg63 Mg92 3.188553 1_555
Mg63 Mg96 3.188554 1_555
Mg64 Mg71 3.175693 1_555
Mg64 Mg73 3.175701 1_555
Mg64 Mg90 3.177833 1_555
Mg64 Mg91 3.188554 1_555
Mg64 Mg97 3.188554 1_555
Mg65 Mg68 3.178677 1_555
Mg65 Mg69 3.178677 1_555
Mg65 Mg78 3.182023 1_555
Mg65 Mg77 3.182023 1_555
Mg65 Mg66 3.185665 1_555
Mg65 Mg67 3.185666 1_555
Mg65 Mg83 3.186592 1_555
Mg66 Mg70 3.178670 1_555
Mg66 Mg69 3.178670 1_555
Mg66 Mg88 3.182015 1_555
Mg66 Mg82 3.182023 1_555
Mg66 Mg67 3.185665 1_555
Mg66 Mg83 3.186591 1_555
Mg67 Mg68 3.178669 1_555
Mg67 Mg70 3.178677 1_555
Mg67 Mg87 3.182015 1_555
Mg67 Mg81 3.182023 1_555
Mg67 Mg83 3.186600 1_555
Mg68 Mg81 3.178596 1_555
Mg68 Mg78 3.178604 1_555
Mg68 Mg74 3.186115 1_555
Mg69 Mg82 3.178596 1_555
Mg69 Mg77 3.178603 1_555
Mg69 Mg75 3.186115 1_555
Mg70 Mg87 3.178603 1_555
Mg70 Mg88 3.178604 1_555
Mg70 Mg93 3.186115 1_555
Mg71 Mg72 3.179391 1_555
Mg71 Mg73 3.179416 1_555
Mg71 Mg84 3.186496 1_555
Mg71 Mg90 3.186504 1_555
Mg71 Mg85 3.191916 1_555
Mg72 Mg73 3.179391 1_555
Mg72 Mg84 3.186496 1_555
Mg72 Mg89 3.186496 1_555
Mg72 Mg86 3.191915 1_555
Mg73 Mg89 3.186496 1_555
Mg73 Mg90 3.186504 1_555
Mg73 Mg98 3.191908 1_555
Mg74 Mg96 3.170809 1_545
Mg74 Mg80 3.170809 1_555
Mg74 Mg95 3.171739 1_545
Mg74 Mg76 3.171739 1_555
Mg74 Mg78 3.183931 1_555
Mg74 Mg81 3.183931 1_555
Mg74 Mg99 3.186102 1_555
Mg75 Mg97 3.170808 1_545
Mg75 Mg79 3.170808 1_655
Mg75 Mg94 3.171740 1_545
Mg75 Mg76 3.171755 1_655
Mg75 Mg77 3.183931 1_555
Mg75 Mg82 3.183932 1_555
Mg76 Mg80 3.173266 1_555
Mg76 Mg79 3.173275 1_555
Mg76 Mg95 3.174611 1_545
Mg76 Mg94 3.174618 1_445
Mg77 Mg82 3.165054 1_555
Mg77 Mg98 3.173168 1_545
Mg77 Mg83 3.173615 1_555
Mg77 Mg78 3.182183 1_555
Mg77 Mg97 3.183363 1_545
Mg78 Mg81 3.165055 1_555
Mg78 Mg98 3.173177 1_545
Mg78 Mg83 3.173622 1_555
Mg78 Mg99 3.178591 1_555
Mg78 Mg96 3.183362 1_545
Mg79 Mg84 3.179171 1_555
Mg79 Mg80 3.179544 1_555
Mg79 Mg82 3.183362 1_455
Mg79 Mg86 3.186196 1_555
Mg80 Mg84 3.179180 1_555
Mg80 Mg81 3.183362 1_555
Mg80 Mg85 3.186195 1_555
Mg81 Mg85 3.173177 1_555
Mg81 Mg83 3.173630 1_555
Mg81 Mg99 3.178583 1_555
Mg81 Mg87 3.182175 1_555
Mg82 Mg86 3.173176 1_655
Mg82 Mg83 3.173614 1_555
Mg82 Mg88 3.182168 1_555
Mg83 Mg88 3.173614 1_555
Mg83 Mg87 3.173615 1_555
Mg84 Mg86 3.191052 1_555
Mg84 Mg85 3.191068 1_555
Mg84 Mg90 3.193547 1_555
Mg84 Mg89 3.193548 1_555
Mg85 Mg87 3.173176 1_555
Mg85 Mg91 3.186179 1_555
Mg85 Mg90 3.191061 1_555
Mg86 Mg88 3.173160 1_455
Mg86 Mg92 3.186180 1_555
Mg86 Mg89 3.191052 1_555
Mg87 Mg88 3.165054 1_555
Mg87 Mg91 3.183379 1_555
Mg87 Mg93 3.183939 1_555
Mg88 Mg92 3.183370 1_655
Mg88 Mg93 3.183948 1_555
Mg89 Mg92 3.179163 1_555
Mg89 Mg96 3.179164 1_555
Mg89 Mg98 3.191060 1_555
Mg89 Mg90 3.193547 1_555
Mg90 Mg97 3.179171 1_555
Mg90 Mg91 3.179179 1_555
Mg90 Mg98 3.191045 1_555
Mg91 Mg93 3.170808 1_555
Mg91 Mg94 3.173274 1_555
Mg91 Mg97 3.179545 1_555
Mg92 Mg93 3.170808 1_455
Mg92 Mg95 3.173275 1_555
Mg92 Mg96 3.179544 1_555
Mg93 Mg95 3.171755 1_655
Mg93 Mg94 3.171756 1_555
Mg94 Mg97 3.173266 1_555
Mg94 Mg95 3.174626 1_655
Mg95 Mg96 3.173266 1_555
Mg96 Mg98 3.186195 1_555
Mg97 Mg98 3.186179 1_555
Mg100 Mg113 3.176018 1_655
Mg100 Mg112 3.176034 1_545
Mg100 Mg82 3.178583 1_555
Mg100 Mg77 3.178591 1_555
Mg100 Mg106 3.178670 1_555
Mg100 Mg105 3.178677 1_555
Mg100 Mg131 3.181111 1_555
Mg100 Mg75 3.186102 1_555
Mg100 Mg128 3.187084 1_555
Mg100 Mg126 3.187092 1_555
Mg100 Mg121 3.190996 1_655
Mg100 Mg118 3.191004 1_545
Mg101 Mg116 3.176018 1_655
Mg101 Mg115 3.176026 1_555
Mg101 Mg87 3.178591 1_555
Mg101 Mg88 3.178591 1_555
Mg101 Mg106 3.178670 1_555
Mg101 Mg107 3.178677 1_555
Mg101 Mg133 3.181111 1_555
Mg101 Mg93 3.186102 1_555
Mg101 Mg129 3.187084 1_555
Mg101 Mg130 3.187092 1_555
Mg101 Mg122 3.190996 1_655
Mg101 Mg123 3.191005 1_555
Mg102 Mg108 3.175677 1_555
Mg102 Mg110 3.175693 1_555
Mg102 Mg103 3.179391 1_555
Mg102 Mg104 3.179416 1_555
Mg102 Mg114 3.181107 1_555
Mg102 Mg115 3.181114 1_555
Mg102 Mg84 3.186496 1_555
Mg102 Mg90 3.186504 1_555
Mg102 Mg134 3.190458 1_555
Mg102 Mg136 3.190466 1_555
Mg102 Mg85 3.191916 1_555
Mg102 Mg137 3.193172 1_555
Mg103 Mg109 3.175678 1_555
Mg103 Mg108 3.175694 1_555
Mg103 Mg104 3.179391 1_555
Mg103 Mg116 3.181098 1_555
Mg103 Mg113 3.181106 1_555
Mg103 Mg84 3.186496 1_555
Mg103 Mg89 3.186496 1_555
Mg103 Mg135 3.190458 1_555
Mg103 Mg134 3.190467 1_555
Mg103 Mg86 3.191915 1_555
Mg103 Mg138 3.193172 1_555
Mg104 Mg109 3.175669 1_555
Mg104 Mg110 3.175701 1_555
Mg104 Mg111 3.181075 1_555
Mg104 Mg112 3.181098 1_555
Mg104 Mg89 3.186496 1_555
Mg104 Mg90 3.186504 1_555
Mg104 Mg135 3.190458 1_555
Mg104 Mg136 3.190466 1_555
Mg104 Mg98 3.191908 1_555
Mg104 Mg139 3.193164 1_555
Mg105 Mg99 3.178677 1_555
Mg105 Mg111 3.181059 1_545
Mg105 Mg112 3.181068 1_545
Mg105 Mg78 3.182023 1_555
Mg105 Mg77 3.182023 1_555
Mg105 Mg125 3.182925 1_555
Mg105 Mg126 3.182925 1_555
Mg105 Mg106 3.185665 1_555
Mg105 Mg107 3.185666 1_555
Mg105 Mg83 3.186592 1_555
Mg105 Mg124 3.191024 1_555
Mg106 Mg113 3.181067 1_655
Mg106 Mg116 3.181067 1_655
Mg106 Mg88 3.182015 1_555
Mg106 Mg82 3.182023 1_555
Mg106 Mg128 3.182917 1_555
Mg106 Mg129 3.182917 1_555
Mg106 Mg107 3.185665 1_555
Mg106 Mg83 3.186591 1_555
Mg106 Mg124 3.191024 1_555
Mg107 Mg99 3.178669 1_555
Mg107 Mg114 3.181051 1_555
Mg107 Mg115 3.181052 1_555
Mg107 Mg87 3.182015 1_555
Mg107 Mg81 3.182023 1_555
Mg107 Mg127 3.182925 1_555
Mg107 Mg130 3.182925 1_555
Mg107 Mg83 3.186600 1_555
Mg107 Mg124 3.191032 1_555
Mg108 Mg113 3.172912 1_555
Mg108 Mg114 3.172928 1_555
Mg108 Mg84 3.177820 1_555
Mg108 Mg121 3.185543 1_555
Mg108 Mg120 3.185544 1_555
Mg108 Mg134 3.186052 1_555
Mg108 Mg79 3.188541 1_555
Mg108 Mg80 3.188541 1_555
Mg108 Mg141 3.196727 1_555
Mg108 Mg140 3.196727 1_555
Mg109 Mg116 3.172912 1_555
Mg109 Mg111 3.172920 1_555
Mg109 Mg89 3.177812 1_555
Mg109 Mg122 3.185543 1_555
Mg109 Mg119 3.185560 1_555
Mg109 Mg135 3.186052 1_555
Mg109 Mg92 3.188541 1_555
Mg109 Mg96 3.188541 1_555
Mg109 Mg143 3.196727 1_555
Mg109 Mg145 3.196727 1_555
Mg110 Mg112 3.172913 1_555
Mg110 Mg115 3.172929 1_555
Mg110 Mg90 3.177820 1_555
Mg110 Mg123 3.185543 1_555
Mg110 Mg118 3.185543 1_555
Mg110 Mg136 3.186060 1_555
Mg110 Mg91 3.188541 1_555
Mg110 Mg97 3.188541 1_555
Mg110 Mg142 3.196719 1_555
Mg110 Mg144 3.196719 1_555
Mg111 Mg99 3.176043 1_565
Mg111 Mg125 3.179072 1_565
Mg111 Mg119 3.185821 1_555
Mg111 Mg139 3.188444 1_555
Mg111 Mg96 3.190616 1_555
Mg111 Mg98 3.192709 1_555
Mg111 Mg145 3.193031 1_555
Mg111 Mg112 3.195757 1_555
Mg111 Mg78 3.198022 1_565
Mg112 Mg126 3.179072 1_565
Mg112 Mg118 3.185797 1_555
Mg112 Mg139 3.188459 1_555
Mg112 Mg97 3.190609 1_555
Mg112 Mg98 3.192708 1_555
Mg112 Mg144 3.193024 1_555
Mg112 Mg77 3.198022 1_565
Mg113 Mg128 3.179080 1_455
Mg113 Mg121 3.185798 1_555
Mg113 Mg138 3.188460 1_555
Mg113 Mg79 3.190609 1_555
Mg113 Mg86 3.192717 1_555
Mg113 Mg141 3.193024 1_555
Mg113 Mg116 3.195774 1_555
Mg113 Mg82 3.198022 1_455
Mg114 Mg99 3.176011 1_555
Mg114 Mg127 3.179064 1_555
Mg114 Mg120 3.185805 1_555
Mg114 Mg137 3.188452 1_555
Mg114 Mg80 3.190616 1_555
Mg114 Mg85 3.192717 1_555
Mg114 Mg140 3.193031 1_555
Mg114 Mg115 3.195757 1_555
Mg114 Mg81 3.198014 1_555
Mg115 Mg130 3.179064 1_555
Mg115 Mg123 3.185805 1_555
Mg115 Mg137 3.188459 1_555
Mg115 Mg91 3.190617 1_555
Mg115 Mg85 3.192708 1_555
Mg115 Mg142 3.193032 1_555
Mg115 Mg87 3.198022 1_555
Mg116 Mg129 3.179080 1_455
Mg116 Mg122 3.185798 1_555
Mg116 Mg138 3.188452 1_555
Mg116 Mg92 3.190609 1_555
Mg116 Mg86 3.192709 1_555
Mg116 Mg143 3.193024 1_555
Mg116 Mg88 3.198022 1_455
Mg117 Mg119 3.163342 1_545
Mg117 Mg118 3.163350 1_445
Mg117 Mg123 3.163350 1_445
Mg117 Mg120 3.163350 1_555
Mg117 Mg122 3.163351 1_545
Mg117 Mg121 3.163351 1_555
Mg117 Mg94 3.190043 1_445
Mg117 Mg95 3.190043 1_545
Mg117 Mg76 3.190043 1_555
Mg117 Mg148 3.246681 1_445
Mg117 Mg146 3.246682 1_555
Mg117 Mg147 3.246689 1_545
Mg118 Mg123 3.154779 1_555
Mg118 Mg144 3.160125 1_555
Mg118 Mg131 3.167344 1_565
Mg118 Mg121 3.171617 1_665
Mg118 Mg94 3.208230 1_555
Mg118 Mg75 3.217080 1_565
Mg118 Mg97 3.217821 1_555
Mg118 Mg148 3.279225 1_555
Mg119 Mg122 3.154786 1_555
Mg119 Mg145 3.160125 1_555
Mg119 Mg132 3.167336 1_565
Mg119 Mg120 3.171602 1_565
Mg119 Mg99 3.190996 1_565
Mg119 Mg95 3.208230 1_555
Mg119 Mg74 3.217072 1_565
Mg119 Mg96 3.217829 1_555
Mg119 Mg147 3.279224 1_555
Mg120 Mg121 3.154778 1_555
Mg120 Mg140 3.160118 1_555
Mg120 Mg132 3.167352 1_555
Mg120 Mg99 3.190996 1_555
Mg120 Mg76 3.208230 1_555
Mg120 Mg74 3.217080 1_555
Mg120 Mg80 3.217821 1_555
Mg120 Mg146 3.279225 1_555
Mg121 Mg141 3.160118 1_555
Mg121 Mg131 3.167352 1_455
Mg121 Mg76 3.208238 1_555
Mg121 Mg75 3.217079 1_455
Mg121 Mg79 3.217821 1_555
Mg121 Mg146 3.279225 1_555
Mg122 Mg143 3.160118 1_555
Mg122 Mg133 3.167352 1_455
Mg122 Mg123 3.171617 1_455
Mg122 Mg95 3.208238 1_555
Mg122 Mg93 3.217079 1_455
Mg122 Mg92 3.217821 1_555
Mg122 Mg147 3.279217 1_555
Mg123 Mg142 3.160125 1_555
Mg123 Mg133 3.167344 1_555
Mg123 Mg94 3.208238 1_555
Mg123 Mg93 3.217080 1_555
Mg123 Mg91 3.217821 1_555
Mg123 Mg148 3.279225 1_555
Mg124 Mg128 3.175993 1_555
Mg124 Mg129 3.176001 1_555
Mg124 Mg126 3.176009 1_555
Mg124 Mg125 3.176017 1_555
Mg124 Mg127 3.176024 1_555
Mg124 Mg130 3.176025 1_555
Mg124 Mg13 3.187215 1_556
Mg124 Mg6 3.187216 1_556
Mg125 Mg132 3.160593 1_555
Mg125 Mg127 3.173701 1_555
Mg125 Mg126 3.178326 1_555
Mg125 Mg139 3.181642 1_545
Mg125 Mg6 3.183879 1_556
Mg125 Mg99 3.187092 1_555
Mg125 Mg8 3.189847 1_556
Mg125 Mg145 3.191906 1_545
Mg126 Mg131 3.160593 1_555
Mg126 Mg128 3.173692 1_555
Mg126 Mg139 3.181649 1_545
Mg126 Mg6 3.183879 1_556
Mg126 Mg7 3.189847 1_556
Mg126 Mg144 3.191915 1_545
Mg127 Mg132 3.160601 1_555
Mg127 Mg130 3.178326 1_555
Mg127 Mg137 3.181642 1_555
Mg127 Mg9 3.185010 1_556
Mg127 Mg99 3.187084 1_555
Mg127 Mg8 3.189839 1_556
Mg127 Mg140 3.191906 1_555
Mg128 Mg131 3.160610 1_555
Mg128 Mg129 3.178311 1_555
Mg128 Mg138 3.181657 1_655
Mg128 Mg13 3.183872 1_556
Mg128 Mg7 3.189847 1_556
Mg128 Mg141 3.191922 1_655
Mg129 Mg133 3.160610 1_555
Mg129 Mg130 3.173692 1_555
Mg129 Mg138 3.181649 1_655
Mg129 Mg13 3.183872 1_556
Mg129 Mg17 3.185017 1_556
Mg129 Mg16 3.189839 1_556
Mg129 Mg143 3.191922 1_655
Mg130 Mg133 3.160593 1_555
Mg130 Mg137 3.181649 1_555
Mg130 Mg18 3.185010 1_556
Mg130 Mg16 3.189846 1_556
Mg130 Mg142 3.191915 1_555
Mg131 Mg7 3.161958 1_556
Mg131 Mg141 3.168834 1_655
Mg131 Mg144 3.168834 1_545
Mg131 Mg3 3.185610 1_556
Mg131 Mg4 3.185617 1_556
Mg131 Mg148 3.200927 1_545
Mg131 Mg146 3.200933 1_655
Mg132 Mg8 3.161966 1_556
Mg132 Mg145 3.168819 1_545
Mg132 Mg140 3.168835 1_555
Mg132 Mg99 3.181111 1_555
Mg132 Mg5 3.185618 1_556
Mg132 Mg2 3.185618 1_556
Mg132 Mg146 3.200933 1_555
Mg132 Mg147 3.200933 1_545
Mg133 Mg16 3.161966 1_556
Mg133 Mg143 3.168834 1_655
Mg133 Mg142 3.168834 1_555
Mg133 Mg23 3.185610 1_556
Mg133 Mg22 3.185617 1_556
Mg133 Mg147 3.200925 1_655
Mg133 Mg148 3.200927 1_555
Mg134 Mg137 3.178271 1_555
Mg134 Mg138 3.178280 1_555
Mg134 Mg136 3.181595 1_555
Mg134 Mg135 3.181604 1_555
Mg134 Mg14 3.184313 1_556
Mg134 Mg15 3.184321 1_556
Mg134 Mg141 3.187428 1_555
Mg134 Mg140 3.187429 1_555
Mg135 Mg139 3.178272 1_555
Mg135 Mg138 3.178272 1_555
Mg135 Mg136 3.181587 1_555
Mg135 Mg19 3.184313 1_556
Mg135 Mg15 3.184313 1_556
Mg135 Mg143 3.187428 1_555
Mg135 Mg145 3.187429 1_555
Mg135 Mg20 3.198914 1_556
Mg136 Mg139 3.178273 1_555
Mg136 Mg137 3.178288 1_555
Mg136 Mg19 3.184313 1_556
Mg136 Mg14 3.184313 1_556
Mg136 Mg144 3.187420 1_555
Mg136 Mg142 3.187428 1_555
Mg136 Mg21 3.198922 1_556
Mg137 Mg14 3.175401 1_556
Mg137 Mg140 3.199265 1_555
Mg137 Mg142 3.199273 1_555
Mg137 Mg9 3.204037 1_556
Mg137 Mg18 3.204045 1_556
Mg138 Mg15 3.175393 1_556
Mg138 Mg143 3.199266 1_555
Mg138 Mg141 3.199282 1_555
Mg138 Mg17 3.204037 1_456
Mg139 Mg19 3.175393 1_556
Mg139 Mg145 3.199265 1_555
Mg139 Mg144 3.199273 1_555
Mg140 Mg141 3.157804 1_555
Mg140 Mg9 3.164915 1_556
Mg140 Mg146 3.229770 1_555
Mg140 Mg5 3.242379 1_556
Mg141 Mg146 3.229771 1_555
Mg141 Mg4 3.242370 1_456
Mg142 Mg144 3.157789 1_555
Mg142 Mg18 3.164915 1_556
Mg142 Mg21 3.166862 1_556
Mg142 Mg148 3.229779 1_555
Mg142 Mg23 3.242386 1_556
Mg143 Mg145 3.157804 1_555
Mg143 Mg17 3.164915 1_456
Mg143 Mg20 3.166862 1_556
Mg143 Mg147 3.229755 1_555
Mg143 Mg22 3.242379 1_456
Mg144 Mg21 3.166854 1_556
Mg144 Mg148 3.229779 1_555
Mg144 Mg3 3.242386 1_566
Mg145 Mg20 3.166870 1_556
Mg145 Mg147 3.229762 1_555
Mg145 Mg2 3.242370 1_566
Mg146 Mo0 3.029191 1_556
Mg147 Mo0 3.029199 1_566
Mg148 Mo0 3.029190 1_666
