# generated using pymatgen
data_K3Sb7(SeO4)3
_symmetry_space_group_name_H-M   'P 1'
_cell_length_a   5.64919500
_cell_length_b   14.81912700
_cell_length_c   15.06580256
_cell_angle_alpha   61.12791079
_cell_angle_beta   90.00000000
_cell_angle_gamma   90.00000000
_symmetry_Int_Tables_number   1
_chemical_formula_structural   K3Sb7(SeO4)3
_chemical_formula_sum   'K6 Sb14 Se6 O24'
_cell_volume   1104.47714030
_cell_formula_units_Z   2
loop_
 _symmetry_equiv_pos_site_id
 _symmetry_equiv_pos_as_xyz
  1  'x, y, z'
loop_
 _atom_site_type_symbol
 _atom_site_label
 _atom_site_symmetry_multiplicity
 _atom_site_fract_x
 _atom_site_fract_y
 _atom_site_fract_z
 _atom_site_occupancy
  K  K0  1  0.25710500  0.82585900  0.27732100  1
  K  K1  1  0.25244900  0.91761400  0.84097300  1
  K  K2  1  0.26916500  0.25824600  0.90521500  1
  K  K3  1  0.75710500  0.17414100  0.72267900  1
  K  K4  1  0.75244900  0.08238600  0.15902700  1
  K  K5  1  0.76916500  0.74175400  0.09478500  1
  Sb  Sb0  1  0.25674000  0.60951400  0.01887700  1
  Sb  Sb1  1  0.25548000  0.37370100  0.60693300  1
  Sb  Sb2  1  0.25038000  0.02650700  0.37035800  1
  Sb  Sb3  1  0.75674000  0.39048600  0.98112300  1
  Sb  Sb4  1  0.75548000  0.62629900  0.39306700  1
  Sb  Sb5  1  0.75038000  0.97349300  0.62964200  1
  Sb  Sb6  1  0.26091900  0.56627300  0.27470200  1
  Sb  Sb7  1  0.25598400  0.15089200  0.56662100  1
  Sb  Sb8  1  0.26045400  0.27963400  0.15277400  1
  Sb  Sb9  1  0.76091900  0.43372700  0.72529800  1
  Sb  Sb10  1  0.75598400  0.84910800  0.43337900  1
  Sb  Sb11  1  0.76045400  0.72036600  0.84722600  1
  Sb  Sb12  1  0.37806800  0.66733100  0.66654800  1
  Sb  Sb13  1  0.87806800  0.33266900  0.33345200  1
  Se  Se0  1  0.21039300  0.62144500  0.53535100  1
  Se  Se1  1  0.21348100  0.84537200  0.62228000  1
  Se  Se2  1  0.21040600  0.53597300  0.83984400  1
  Se  Se3  1  0.71039300  0.37855500  0.46464900  1
  Se  Se4  1  0.71348100  0.15462800  0.37772000  1
  Se  Se5  1  0.71040600  0.46402700  0.16015600  1
  O  O0  1  0.24659500  0.65649200  0.12456300  1
  O  O1  1  0.24714400  0.22092400  0.65078600  1
  O  O2  1  0.24410800  0.12678000  0.22044100  1
  O  O3  1  0.74659500  0.34350800  0.87543700  1
  O  O4  1  0.74714400  0.77907600  0.34921400  1
  O  O5  1  0.74410800  0.87322000  0.77955900  1
  O  O6  1  0.38532200  0.91454800  0.07965200  1
  O  O7  1  0.11941400  0.08825000  0.90137700  1
  O  O8  1  0.27166900  0.99791800  0.07104300  1
  O  O9  1  0.88532200  0.08545200  0.92034800  1
  O  O10  1  0.61941400  0.91175000  0.09862300  1
  O  O11  1  0.77166900  0.00208200  0.92895700  1
  O  O12  1  0.50462700  0.94649400  0.34523100  1
  O  O13  1  0.51341300  0.71251600  0.94635900  1
  O  O14  1  0.51115600  0.34616200  0.70950000  1
  O  O15  1  0.00462700  0.05350600  0.65476900  1
  O  O16  1  0.01341300  0.28748400  0.05364100  1
  O  O17  1  0.01115600  0.65383800  0.29050000  1
  O  O18  1  0.50555900  0.05623000  0.65695300  1
  O  O19  1  0.51441100  0.28069400  0.06019200  1
  O  O20  1  0.51185800  0.65471100  0.28510300  1
  O  O21  1  0.00555900  0.94377000  0.34304700  1
  O  O22  1  0.01441100  0.71930600  0.93980800  1
  O  O23  1  0.01185800  0.34528900  0.71489700  1
loop_
_geom_bond_atom_site_label_1
_geom_bond_atom_site_label_2
_geom_bond_distance
_geom_bond_site_symmetry_2
K0 O6 2.709415 1_555
K0 O21 2.779202 1_555
K0 O12 2.822096 1_555
K0 O17 2.824805 1_555
K0 O20 2.868862 1_555
K0 O8 2.917846 1_555
K0 O4 2.931257 1_555
K0 O4 3.037770 1_455
K0 O10 3.122202 1_555
K0 Se0 3.603588 1_555
K1 O15 2.903364 1_565
K1 O22 2.904463 1_555
K1 O18 2.907001 1_565
K1 O13 3.044965 1_555
K1 O5 3.096952 1_555
K1 O7 3.163773 1_565
K1 O5 3.181743 1_455
K2 O7 2.684402 1_555
K2 O16 2.865523 1_556
K2 O19 2.869099 1_556
K2 O23 2.902825 1_555
K2 O3 2.919697 1_555
K2 O14 2.924150 1_555
K2 O3 3.156771 1_455
K3 O9 2.709415 1_555
K3 O18 2.779202 1_555
K3 O15 2.822096 1_655
K3 O14 2.824805 1_555
K3 O23 2.868862 1_655
K3 O11 2.917846 1_555
K3 O1 2.931257 1_655
K3 O1 3.037770 1_555
K3 O7 3.122202 1_655
K3 Se3 3.603588 1_555
K4 O12 2.903364 1_545
K4 O19 2.904463 1_555
K4 O21 2.907001 1_645
K4 O16 3.044965 1_655
K4 O2 3.096952 1_655
K4 O10 3.163773 1_545
K4 O2 3.181743 1_555
K5 O10 2.684402 1_555
K5 O13 2.865523 1_554
K5 O22 2.869099 1_654
K5 O20 2.902825 1_555
K5 O0 2.919697 1_655
K5 O17 2.924150 1_655
K5 O0 3.156771 1_555
Sb12 Se0 2.562129 1_555
Sb12 Se1 2.563437 1_555
Sb12 Se2 2.568047 1_555
Sb13 Se3 2.562129 1_555
Sb13 Se4 2.563437 1_555
Sb13 Se5 2.568047 1_555
O0 Sb6 1.997507 1_555
O0 Sb0 2.023278 1_555
O1 Sb7 1.989534 1_555
O1 Sb1 2.029779 1_555
O2 Sb8 1.987140 1_555
O2 Sb2 2.017314 1_555
O3 Sb9 1.997507 1_555
O3 Sb3 2.023278 1_555
O4 Sb10 1.989534 1_555
O4 Sb4 2.029779 1_555
O5 Sb11 1.987140 1_555
O5 Sb5 2.017314 1_555
O6 O8 1.341897 1_555
O7 O9 1.349366 1_455
O10 O6 1.349366 1_555
O11 O9 1.341897 1_555
O12 Sb10 2.002958 1_555
O12 Sb2 2.011380 1_565
O13 Sb0 2.003886 1_556
O13 Sb11 2.005990 1_555
O14 Sb9 2.007381 1_555
O14 Sb1 2.007871 1_555
O15 Sb7 2.002958 1_555
O15 Sb5 2.011380 1_445
O16 Sb3 2.003886 1_454
O16 Sb8 2.005990 1_555
O17 Sb6 2.007381 1_555
O17 Sb4 2.007871 1_455
O18 Sb7 1.991015 1_555
O18 Sb5 2.018067 1_545
O19 Sb8 1.995707 1_555
O19 Sb3 2.017076 1_554
O20 Sb6 1.987481 1_555
O20 Sb4 2.013885 1_555
O21 Sb10 1.991015 1_455
O21 Sb2 2.018067 1_565
O22 Sb11 1.995707 1_455
O22 Sb0 2.017076 1_556
O23 Sb9 1.987481 1_455
O23 Sb1 2.013885 1_555
