# generated using pymatgen
data_Nd2(PRh)3
_symmetry_space_group_name_H-M   'P 1'
_cell_length_a   2.90272700
_cell_length_b   2.90272700
_cell_length_c   19.78150900
_cell_angle_alpha   90.00000000
_cell_angle_beta   90.00000000
_cell_angle_gamma   90.00000000
_symmetry_Int_Tables_number   1
_chemical_formula_structural   Nd2(PRh)3
_chemical_formula_sum   'Nd2 P3 Rh3'
_cell_volume   166.67551401
_cell_formula_units_Z   1
loop_
 _symmetry_equiv_pos_site_id
 _symmetry_equiv_pos_as_xyz
  1  'x, y, z'
loop_
 _atom_site_type_symbol
 _atom_site_label
 _atom_site_symmetry_multiplicity
 _atom_site_fract_x
 _atom_site_fract_y
 _atom_site_fract_z
 _atom_site_occupancy
  Nd  Nd0  1  0.50000000  0.50000000  0.75378700  1
  Nd  Nd1  1  0.50000000  0.50000000  0.24621300  1
  P  P0  1  0.50000000  0.50000000  0.38761900  1
  P  P1  1  0.50000000  0.50000000  0.61238100  1
  P  P2  1  0.50000000  0.50000000  0.00000000  1
  Rh  Rh0  1  0.50000000  0.50000000  0.10725900  1
  Rh  Rh1  1  0.50000000  0.50000000  0.89274100  1
  Rh  Rh2  1  0.50000000  0.50000000  0.50000000  1
loop_
_geom_bond_atom_site_label_1
_geom_bond_atom_site_label_2
_geom_bond_distance
_geom_bond_site_symmetry_2
Nd0 Rh1 2.748720 1_555
Nd0 P1 2.797224 1_555
Nd1 Rh0 2.748720 1_555
Nd1 P0 2.797224 1_555
P0 Rh2 2.223066 1_555
P1 Rh2 2.223066 1_555
P2 Rh1 2.121745 1_554
P2 Rh0 2.121745 1_555
