# generated using pymatgen
data_Zn11(B4Rh9)2
_symmetry_space_group_name_H-M   'P 1'
_cell_length_a   17.89961900
_cell_length_b   17.89961900
_cell_length_c   2.88206800
_cell_angle_alpha   90.00000000
_cell_angle_beta   90.00000000
_cell_angle_gamma   90.00000000
_symmetry_Int_Tables_number   1
_chemical_formula_structural   Zn11(B4Rh9)2
_chemical_formula_sum   'Zn22 B16 Rh36'
_cell_volume   923.40409747
_cell_formula_units_Z   2
loop_
 _symmetry_equiv_pos_site_id
 _symmetry_equiv_pos_as_xyz
  1  'x, y, z'
loop_
 _atom_site_type_symbol
 _atom_site_label
 _atom_site_symmetry_multiplicity
 _atom_site_fract_x
 _atom_site_fract_y
 _atom_site_fract_z
 _atom_site_occupancy
  Zn  Zn0  1  0.03227000  0.18757400  0.00000000  1
  Zn  Zn1  1  0.96773000  0.81242600  0.00000000  1
  Zn  Zn2  1  0.18757400  0.96773000  0.00000000  1
  Zn  Zn3  1  0.53227000  0.31242600  0.00000000  1
  Zn  Zn4  1  0.81242600  0.03227000  0.00000000  1
  Zn  Zn5  1  0.46773000  0.68757400  0.00000000  1
  Zn  Zn6  1  0.68757400  0.53227000  0.00000000  1
  Zn  Zn7  1  0.31242600  0.46773000  0.00000000  1
  Zn  Zn8  1  0.20892400  0.70892400  0.00000000  1
  Zn  Zn9  1  0.79107600  0.29107600  0.00000000  1
  Zn  Zn10  1  0.70892400  0.79107600  0.00000000  1
  Zn  Zn11  1  0.29107600  0.20892400  0.00000000  1
  Zn  Zn12  1  0.66859100  0.16859100  0.00000000  1
  Zn  Zn13  1  0.33140900  0.83140900  0.00000000  1
  Zn  Zn14  1  0.16859100  0.33140900  0.00000000  1
  Zn  Zn15  1  0.83140900  0.66859100  0.00000000  1
  Zn  Zn16  1  0.55049900  0.05049900  0.00000000  1
  Zn  Zn17  1  0.44950100  0.94950100  0.00000000  1
  Zn  Zn18  1  0.05049900  0.44950100  0.00000000  1
  Zn  Zn19  1  0.94950100  0.55049900  0.00000000  1
  Zn  Zn20  1  0.00000000  0.00000000  0.00000000  1
  Zn  Zn21  1  0.50000000  0.50000000  0.00000000  1
  B  B0  1  0.16650600  0.12380600  0.00000000  1
  B  B1  1  0.83349400  0.87619400  0.00000000  1
  B  B2  1  0.12380600  0.83349400  0.00000000  1
  B  B3  1  0.66650600  0.37619400  0.00000000  1
  B  B4  1  0.87619400  0.16650600  0.00000000  1
  B  B5  1  0.33349400  0.62380600  0.00000000  1
  B  B6  1  0.62380600  0.66650600  0.00000000  1
  B  B7  1  0.37619400  0.33349400  0.00000000  1
  B  B8  1  0.33438600  0.03893200  0.00000000  1
  B  B9  1  0.66561400  0.96106800  0.00000000  1
  B  B10  1  0.03893200  0.66561400  0.00000000  1
  B  B11  1  0.83438600  0.46106800  0.00000000  1
  B  B12  1  0.96106800  0.33438600  0.00000000  1
  B  B13  1  0.16561400  0.53893200  0.00000000  1
  B  B14  1  0.53893200  0.83438600  0.00000000  1
  B  B15  1  0.46106800  0.16561400  0.00000000  1
  Rh  Rh0  1  0.25588300  0.08770300  0.50000000  1
  Rh  Rh1  1  0.74411700  0.91229700  0.50000000  1
  Rh  Rh2  1  0.08770300  0.74411700  0.50000000  1
  Rh  Rh3  1  0.75588300  0.41229700  0.50000000  1
  Rh  Rh4  1  0.91229700  0.25588300  0.50000000  1
  Rh  Rh5  1  0.24411700  0.58770300  0.50000000  1
  Rh  Rh6  1  0.58770300  0.75588300  0.50000000  1
  Rh  Rh7  1  0.41229700  0.24411700  0.50000000  1
  Rh  Rh8  1  0.04763200  0.32549400  0.50000000  1
  Rh  Rh9  1  0.95236800  0.67450600  0.50000000  1
  Rh  Rh10  1  0.32549400  0.95236800  0.50000000  1
  Rh  Rh11  1  0.54763200  0.17450600  0.50000000  1
  Rh  Rh12  1  0.67450600  0.04763200  0.50000000  1
  Rh  Rh13  1  0.45236800  0.82549400  0.50000000  1
  Rh  Rh14  1  0.82549400  0.54763200  0.50000000  1
  Rh  Rh15  1  0.17450600  0.45236800  0.50000000  1
  Rh  Rh16  1  0.09946900  0.06780100  0.50000000  1
  Rh  Rh17  1  0.90053100  0.93219900  0.50000000  1
  Rh  Rh18  1  0.06780100  0.90053100  0.50000000  1
  Rh  Rh19  1  0.59946900  0.43219900  0.50000000  1
  Rh  Rh20  1  0.93219900  0.09946900  0.50000000  1
  Rh  Rh21  1  0.40053100  0.56780100  0.50000000  1
  Rh  Rh22  1  0.56780100  0.59946900  0.50000000  1
  Rh  Rh23  1  0.43219900  0.40053100  0.50000000  1
  Rh  Rh24  1  0.08213100  0.58213100  0.50000000  1
  Rh  Rh25  1  0.91786900  0.41786900  0.50000000  1
  Rh  Rh26  1  0.58213100  0.91786900  0.50000000  1
  Rh  Rh27  1  0.41786900  0.08213100  0.50000000  1
  Rh  Rh28  1  0.16108900  0.21125200  0.50000000  1
  Rh  Rh29  1  0.83891100  0.78874800  0.50000000  1
  Rh  Rh30  1  0.21125200  0.83891100  0.50000000  1
  Rh  Rh31  1  0.66108900  0.28874800  0.50000000  1
  Rh  Rh32  1  0.78874800  0.16108900  0.50000000  1
  Rh  Rh33  1  0.33891100  0.71125200  0.50000000  1
  Rh  Rh34  1  0.71125200  0.66108900  0.50000000  1
  Rh  Rh35  1  0.28874800  0.33891100  0.50000000  1
loop_
_geom_bond_atom_site_label_1
_geom_bond_atom_site_label_2
_geom_bond_distance
_geom_bond_site_symmetry_2
Zn16 Zn17 2.556652 1_545
Zn18 Zn19 2.556652 1_455
B0 Rh16 2.126351 1_555
B0 Rh16 2.126351 1_554
B0 Rh28 2.129786 1_555
B0 Rh28 2.129786 1_554
B0 Rh0 2.248021 1_554
B0 Rh0 2.248021 1_555
B0 Zn0 2.660106 1_555
B1 Rh17 2.126351 1_554
B1 Rh17 2.126351 1_555
B1 Rh29 2.129786 1_554
B1 Rh29 2.129786 1_555
B1 Rh1 2.248021 1_554
B1 Rh1 2.248021 1_555
B1 Zn1 2.660106 1_555
B2 Rh18 2.126351 1_554
B2 Rh18 2.126351 1_555
B2 Rh30 2.129786 1_555
B2 Rh30 2.129786 1_554
B2 Rh2 2.248021 1_555
B2 Rh2 2.248021 1_554
B2 Zn2 2.660106 1_555
B3 Rh19 2.126351 1_555
B3 Rh19 2.126351 1_554
B3 Rh31 2.129786 1_554
B3 Rh31 2.129786 1_555
B3 Rh3 2.248021 1_555
B3 Rh3 2.248021 1_554
B3 Zn3 2.660106 1_555
B4 Rh20 2.126351 1_555
B4 Rh20 2.126351 1_554
B4 Rh32 2.129786 1_555
B4 Rh32 2.129786 1_554
B4 Rh4 2.248021 1_554
B4 Rh4 2.248021 1_555
B4 Zn4 2.660106 1_555
B5 Rh21 2.126351 1_555
B5 Rh21 2.126351 1_554
B5 Rh33 2.129786 1_554
B5 Rh33 2.129786 1_555
B5 Rh5 2.248021 1_555
B5 Rh5 2.248021 1_554
B5 Zn5 2.660106 1_555
B6 Rh22 2.126351 1_554
B6 Rh22 2.126351 1_555
B6 Rh34 2.129786 1_554
B6 Rh34 2.129786 1_555
B6 Rh6 2.248021 1_555
B6 Rh6 2.248021 1_554
B6 Zn6 2.660106 1_555
B7 Rh23 2.126351 1_555
B7 Rh23 2.126351 1_554
B7 Rh35 2.129786 1_554
B7 Rh35 2.129786 1_555
B7 Rh7 2.248021 1_555
B7 Rh7 2.248021 1_554
B7 Zn7 2.660106 1_555
B8 Rh10 2.121968 1_544
B8 Rh10 2.121968 1_545
B8 Rh0 2.193898 1_554
B8 Rh0 2.193898 1_555
B8 Rh27 2.215279 1_555
B8 Rh27 2.215279 1_554
B8 Zn17 2.609257 1_545
B9 Rh12 2.121968 1_565
B9 Rh12 2.121968 1_564
B9 Rh1 2.193898 1_555
B9 Rh1 2.193898 1_554
B9 Rh26 2.215279 1_554
B9 Rh26 2.215279 1_555
B9 Zn16 2.609257 1_565
B10 Rh9 2.121968 1_455
B10 Rh9 2.121968 1_454
B10 Rh2 2.193898 1_554
B10 Rh2 2.193898 1_555
B10 Rh24 2.215279 1_554
B10 Rh24 2.215279 1_555
B10 Zn19 2.609257 1_455
B11 Rh14 2.121968 1_555
B11 Rh14 2.121968 1_554
B11 Rh3 2.193898 1_555
B11 Rh3 2.193898 1_554
B11 Rh25 2.215279 1_555
B11 Rh25 2.215279 1_554
B11 Zn19 2.609257 1_555
B12 Rh8 2.121968 1_655
B12 Rh8 2.121968 1_654
B12 Rh4 2.193898 1_555
B12 Rh4 2.193898 1_554
B12 Rh25 2.215279 1_555
B12 Rh25 2.215279 1_554
B12 Zn18 2.609257 1_655
B13 Rh15 2.121968 1_554
B13 Rh15 2.121968 1_555
B13 Rh5 2.193898 1_555
B13 Rh5 2.193898 1_554
B13 Rh24 2.215279 1_555
B13 Rh24 2.215279 1_554
B13 Zn18 2.609257 1_555
B14 Rh13 2.121968 1_555
B14 Rh13 2.121968 1_554
B14 Rh6 2.193898 1_555
B14 Rh6 2.193898 1_554
B14 Rh26 2.215279 1_554
B14 Rh26 2.215279 1_555
B14 Zn17 2.609257 1_555
B15 Rh11 2.121968 1_555
B15 Rh11 2.121968 1_554
B15 Rh7 2.193898 1_554
B15 Rh7 2.193898 1_555
B15 Rh27 2.215279 1_555
B15 Rh27 2.215279 1_554
B15 Zn16 2.609257 1_555
Rh0 Zn11 2.679828 1_556
Rh0 Zn11 2.679828 1_555
Rh0 Zn2 2.860633 1_545
Rh0 Zn2 2.860633 1_546
Rh1 Zn10 2.679828 1_555
Rh1 Zn10 2.679828 1_556
Rh1 Zn4 2.860633 1_566
Rh1 Zn4 2.860633 1_565
Rh2 Zn8 2.679828 1_556
Rh2 Zn8 2.679828 1_555
Rh2 Zn1 2.860633 1_456
Rh2 Zn1 2.860633 1_455
Rh3 Zn9 2.679828 1_555
Rh3 Zn9 2.679828 1_556
Rh3 Zn6 2.860633 1_555
Rh3 Zn6 2.860633 1_556
Rh4 Zn9 2.679828 1_556
Rh4 Zn9 2.679828 1_555
Rh4 Zn0 2.860633 1_656
Rh4 Zn0 2.860633 1_655
Rh5 Zn8 2.679828 1_555
Rh5 Zn8 2.679828 1_556
Rh5 Zn7 2.860633 1_556
Rh5 Zn7 2.860633 1_555
Rh6 Zn10 2.679828 1_555
Rh6 Zn10 2.679828 1_556
Rh6 Zn5 2.860633 1_555
Rh6 Zn5 2.860633 1_556
Rh7 Zn11 2.679828 1_556
Rh7 Zn11 2.679828 1_555
Rh7 Zn3 2.860633 1_555
Rh7 Zn3 2.860633 1_556
Rh8 Zn14 2.602985 1_556
Rh8 Zn14 2.602985 1_555
Rh8 Zn18 2.646920 1_556
Rh8 Zn18 2.646920 1_555
Rh8 Zn0 2.871715 1_555
Rh8 Zn0 2.871715 1_556
Rh9 Zn15 2.602985 1_555
Rh9 Zn15 2.602985 1_556
Rh9 Zn19 2.646920 1_556
Rh9 Zn19 2.646920 1_555
Rh9 Zn1 2.871715 1_556
Rh9 Zn1 2.871715 1_555
Rh10 Zn13 2.602985 1_556
Rh10 Zn13 2.602985 1_555
Rh10 Zn17 2.646920 1_556
Rh10 Zn17 2.646920 1_555
Rh10 Zn2 2.871715 1_555
Rh10 Zn2 2.871715 1_556
Rh11 Zn12 2.602985 1_556
Rh11 Zn12 2.602985 1_555
Rh11 Zn16 2.646920 1_555
Rh11 Zn16 2.646920 1_556
Rh11 Zn3 2.871715 1_555
Rh11 Zn3 2.871715 1_556
Rh12 Zn12 2.602985 1_555
Rh12 Zn12 2.602985 1_556
Rh12 Zn16 2.646920 1_556
Rh12 Zn16 2.646920 1_555
Rh12 Zn4 2.871715 1_556
Rh12 Zn4 2.871715 1_555
Rh13 Zn13 2.602985 1_555
Rh13 Zn13 2.602985 1_556
Rh13 Zn17 2.646920 1_556
Rh13 Zn17 2.646920 1_555
Rh13 Zn5 2.871715 1_555
Rh13 Zn5 2.871715 1_556
Rh14 Zn15 2.602985 1_555
Rh14 Zn15 2.602985 1_556
Rh14 Zn19 2.646920 1_556
Rh14 Zn19 2.646920 1_555
Rh14 Zn6 2.871715 1_555
Rh14 Zn6 2.871715 1_556
Rh15 Zn14 2.602985 1_556
Rh15 Zn14 2.602985 1_555
Rh15 Zn18 2.646920 1_555
Rh15 Zn18 2.646920 1_556
Rh15 Zn7 2.871715 1_556
Rh15 Zn7 2.871715 1_555
Rh16 Zn20 2.592192 1_555
Rh16 Zn20 2.592192 1_556
Rh16 Zn2 2.787861 1_546
Rh16 Zn2 2.787861 1_545
Rh16 Zn0 2.849502 1_555
Rh16 Zn0 2.849502 1_556
Rh17 Zn20 2.592192 1_665
Rh17 Zn20 2.592192 1_666
Rh17 Zn4 2.787861 1_566
Rh17 Zn4 2.787861 1_565
Rh17 Zn1 2.849502 1_555
Rh17 Zn1 2.849502 1_556
Rh18 Zn20 2.592192 1_565
Rh18 Zn20 2.592192 1_566
Rh18 Zn1 2.787861 1_456
Rh18 Zn1 2.787861 1_455
Rh18 Zn2 2.849502 1_555
Rh18 Zn2 2.849502 1_556
Rh19 Zn21 2.592192 1_555
Rh19 Zn21 2.592192 1_556
Rh19 Zn6 2.787861 1_555
Rh19 Zn6 2.787861 1_556
Rh19 Zn3 2.849502 1_555
Rh19 Zn3 2.849502 1_556
Rh20 Zn20 2.592192 1_656
Rh20 Zn20 2.592192 1_655
Rh20 Zn0 2.787861 1_656
Rh20 Zn0 2.787861 1_655
Rh20 Zn4 2.849502 1_556
Rh20 Zn4 2.849502 1_555
Rh21 Zn21 2.592192 1_555
Rh21 Zn21 2.592192 1_556
Rh21 Zn7 2.787861 1_555
Rh21 Zn7 2.787861 1_556
Rh21 Zn5 2.849502 1_555
Rh21 Zn5 2.849502 1_556
Rh22 Zn21 2.592192 1_555
Rh22 Zn21 2.592192 1_556
Rh22 Zn5 2.787861 1_555
Rh22 Zn5 2.787861 1_556
Rh22 Zn6 2.849502 1_555
Rh22 Zn6 2.849502 1_556
Rh23 Zn21 2.592192 1_555
Rh23 Zn21 2.592192 1_556
Rh23 Zn3 2.787861 1_555
Rh23 Zn3 2.787861 1_556
Rh23 Zn7 2.849502 1_556
Rh23 Zn7 2.849502 1_555
Rh24 Zn18 2.834284 1_555
Rh24 Zn18 2.834284 1_556
Rh24 Zn19 2.834284 1_456
Rh24 Zn19 2.834284 1_455
Rh25 Zn18 2.834284 1_656
Rh25 Zn18 2.834284 1_655
Rh25 Zn19 2.834284 1_556
Rh25 Zn19 2.834284 1_555
Rh26 Zn16 2.834284 1_566
Rh26 Zn16 2.834284 1_565
Rh26 Zn17 2.834284 1_556
Rh26 Zn17 2.834284 1_555
Rh27 Zn16 2.834284 1_555
Rh27 Zn16 2.834284 1_556
Rh27 Zn17 2.834284 1_545
Rh27 Zn17 2.834284 1_546
Rh28 Zn14 2.592373 1_556
Rh28 Zn14 2.592373 1_555
Rh28 Zn11 2.737139 1_556
Rh28 Zn11 2.737139 1_555
Rh28 Zn0 2.751904 1_556
Rh28 Zn0 2.751904 1_555
Rh29 Zn15 2.592373 1_556
Rh29 Zn15 2.592373 1_555
Rh29 Zn10 2.737139 1_555
Rh29 Zn10 2.737139 1_556
Rh29 Zn1 2.751904 1_555
Rh29 Zn1 2.751904 1_556
Rh30 Zn13 2.592373 1_555
Rh30 Zn13 2.592373 1_556
Rh30 Zn8 2.737139 1_555
Rh30 Zn8 2.737139 1_556
Rh30 Zn2 2.751904 1_555
Rh30 Zn2 2.751904 1_556
Rh31 Zn12 2.592373 1_555
Rh31 Zn12 2.592373 1_556
Rh31 Zn9 2.737139 1_556
Rh31 Zn9 2.737139 1_555
Rh31 Zn3 2.751904 1_555
Rh31 Zn3 2.751904 1_556
Rh32 Zn12 2.592373 1_556
Rh32 Zn12 2.592373 1_555
Rh32 Zn9 2.737139 1_556
Rh32 Zn9 2.737139 1_555
Rh32 Zn4 2.751904 1_555
Rh32 Zn4 2.751904 1_556
Rh33 Zn13 2.592373 1_556
Rh33 Zn13 2.592373 1_555
Rh33 Zn8 2.737139 1_555
Rh33 Zn8 2.737139 1_556
Rh33 Zn5 2.751904 1_555
Rh33 Zn5 2.751904 1_556
Rh34 Zn15 2.592373 1_556
Rh34 Zn15 2.592373 1_555
Rh34 Zn10 2.737139 1_555
Rh34 Zn10 2.737139 1_556
Rh34 Zn6 2.751904 1_555
Rh34 Zn6 2.751904 1_556
Rh35 Zn14 2.592373 1_556
Rh35 Zn14 2.592373 1_555
Rh35 Zn11 2.737139 1_556
Rh35 Zn11 2.737139 1_555
Rh35 Zn7 2.751904 1_555
Rh35 Zn7 2.751904 1_556
