# generated using pymatgen
data_DyTa5Ag2O15
_symmetry_space_group_name_H-M   'P 1'
_cell_length_a   12.59470000
_cell_length_b   12.59470000
_cell_length_c   3.91669800
_cell_angle_alpha   90.00000000
_cell_angle_beta   90.00000000
_cell_angle_gamma   90.00000000
_symmetry_Int_Tables_number   1
_chemical_formula_structural   DyTa5Ag2O15
_chemical_formula_sum   'Dy2 Ta10 Ag4 O30'
_cell_volume   621.29197032
_cell_formula_units_Z   2
loop_
 _symmetry_equiv_pos_site_id
 _symmetry_equiv_pos_as_xyz
  1  'x, y, z'
loop_
 _atom_site_type_symbol
 _atom_site_label
 _atom_site_symmetry_multiplicity
 _atom_site_fract_x
 _atom_site_fract_y
 _atom_site_fract_z
 _atom_site_occupancy
  Dy  Dy0  1  0.00000000  0.00000000  0.50000000  1
  Dy  Dy1  1  0.50000000  0.50000000  0.50000000  1
  Ta  Ta0  1  0.50000000  0.00000000  0.00000000  1
  Ta  Ta1  1  0.00000000  0.50000000  0.00000000  1
  Ta  Ta2  1  0.21105000  0.07856600  0.00000000  1
  Ta  Ta3  1  0.78895000  0.92143400  0.00000000  1
  Ta  Ta4  1  0.07856600  0.78895000  0.00000000  1
  Ta  Ta5  1  0.71105000  0.42143400  0.00000000  1
  Ta  Ta6  1  0.92143400  0.21105000  0.00000000  1
  Ta  Ta7  1  0.28895000  0.57856600  0.00000000  1
  Ta  Ta8  1  0.57856600  0.71105000  0.00000000  1
  Ta  Ta9  1  0.42143400  0.28895000  0.00000000  1
  Ag  Ag0  1  0.67182200  0.17182200  0.50000000  1
  Ag  Ag1  1  0.32817800  0.82817800  0.50000000  1
  Ag  Ag2  1  0.17182200  0.32817800  0.50000000  1
  Ag  Ag3  1  0.82817800  0.67182200  0.50000000  1
  O  O0  1  0.18918100  0.07973300  0.50000000  1
  O  O1  1  0.81081900  0.92026700  0.50000000  1
  O  O2  1  0.07973300  0.81081900  0.50000000  1
  O  O3  1  0.68918100  0.42026700  0.50000000  1
  O  O4  1  0.92026700  0.18918100  0.50000000  1
  O  O5  1  0.31081900  0.57973300  0.50000000  1
  O  O6  1  0.57973300  0.68918100  0.50000000  1
  O  O7  1  0.42026700  0.31081900  0.50000000  1
  O  O8  1  0.22437300  0.72437300  0.00000000  1
  O  O9  1  0.77562700  0.27562700  0.00000000  1
  O  O10  1  0.72437300  0.77562700  0.00000000  1
  O  O11  1  0.27562700  0.22437300  0.00000000  1
  O  O12  1  0.50000000  0.00000000  0.50000000  1
  O  O13  1  0.00000000  0.50000000  0.50000000  1
  O  O14  1  0.05677800  0.13006300  0.00000000  1
  O  O15  1  0.94322200  0.86993700  0.00000000  1
  O  O16  1  0.13006300  0.94322200  0.00000000  1
  O  O17  1  0.55677800  0.36993700  0.00000000  1
  O  O18  1  0.86993700  0.05677800  0.00000000  1
  O  O19  1  0.44322200  0.63006300  0.00000000  1
  O  O20  1  0.63006300  0.55677800  0.00000000  1
  O  O21  1  0.36993700  0.44322200  0.00000000  1
  O  O22  1  0.34104000  0.99909900  0.00000000  1
  O  O23  1  0.65896000  0.00090100  0.00000000  1
  O  O24  1  0.99909900  0.65896000  0.00000000  1
  O  O25  1  0.84104000  0.50090100  0.00000000  1
  O  O26  1  0.00090100  0.34104000  0.00000000  1
  O  O27  1  0.15896000  0.49909900  0.00000000  1
  O  O28  1  0.49909900  0.84104000  0.00000000  1
  O  O29  1  0.50090100  0.15896000  0.00000000  1
loop_
_geom_bond_atom_site_label_1
_geom_bond_atom_site_label_2
_geom_bond_distance
_geom_bond_site_symmetry_2
Dy0 O0 2.585652 1_555
Dy0 O4 2.585652 1_455
Dy0 O2 2.585652 1_545
Dy0 O1 2.585652 1_445
Dy0 O16 2.651394 1_546
Dy0 O14 2.651394 1_556
Dy0 O16 2.651394 1_545
Dy0 O14 2.651394 1_555
Dy0 O15 2.651394 1_445
Dy0 O18 2.651394 1_456
Dy0 O18 2.651394 1_455
Dy0 O15 2.651394 1_446
Dy1 O5 2.585652 1_555
Dy1 O7 2.585652 1_555
Dy1 O3 2.585652 1_555
Dy1 O6 2.585652 1_555
Dy1 O17 2.651394 1_555
Dy1 O17 2.651394 1_556
Dy1 O21 2.651394 1_555
Dy1 O21 2.651394 1_556
Dy1 O19 2.651394 1_556
Dy1 O19 2.651394 1_555
Dy1 O20 2.651394 1_555
Dy1 O20 2.651394 1_556
Ag0 O9 2.693266 1_555
Ag0 O9 2.693266 1_556
Ag1 O8 2.693266 1_555
Ag1 O8 2.693266 1_556
Ag2 O11 2.693266 1_556
Ag2 O11 2.693266 1_555
Ag3 O10 2.693266 1_555
Ag3 O10 2.693266 1_556
O0 Ta2 1.977678 1_555
O0 Ta2 1.977678 1_556
O1 Ta3 1.977678 1_556
O1 Ta3 1.977678 1_555
O2 Ta4 1.977678 1_555
O2 Ta4 1.977678 1_556
O3 Ta5 1.977678 1_556
O3 Ta5 1.977678 1_555
O4 Ta6 1.977678 1_556
O4 Ta6 1.977678 1_555
O5 Ta7 1.977678 1_555
O5 Ta7 1.977678 1_556
O6 Ta8 1.977678 1_556
O6 Ta8 1.977678 1_555
O7 Ta9 1.977678 1_556
O7 Ta9 1.977678 1_555
O8 Ta4 2.008445 1_555
O8 Ta7 2.008445 1_555
O9 Ta5 2.008445 1_555
O9 Ta6 2.008445 1_555
O10 Ta3 2.008445 1_555
O10 Ta8 2.008445 1_555
O11 Ta9 2.008445 1_555
O11 Ta2 2.008445 1_555
O12 Ta0 1.958349 1_556
O12 Ta0 1.958349 1_555
O13 Ta1 1.958349 1_556
O13 Ta1 1.958349 1_555
O14 Ta6 1.986488 1_455
O14 Ta2 2.048403 1_555
O15 Ta4 1.986488 1_655
O15 Ta3 2.048403 1_555
O16 Ta2 1.986488 1_565
O16 Ta4 2.048403 1_555
O17 Ta9 1.986488 1_555
O17 Ta5 2.048403 1_555
O18 Ta3 1.986488 1_545
O18 Ta6 2.048403 1_555
O19 Ta8 1.986488 1_555
O19 Ta7 2.048403 1_555
O20 Ta5 1.986488 1_555
O20 Ta8 2.048403 1_555
O21 Ta7 1.986488 1_555
O21 Ta9 2.048403 1_555
O22 Ta2 1.918880 1_565
O22 Ta0 2.002086 1_565
O23 Ta3 1.918880 1_545
O23 Ta0 2.002086 1_555
O24 Ta4 1.918880 1_655
O24 Ta1 2.002086 1_655
O25 Ta5 1.918880 1_555
O25 Ta1 2.002086 1_655
O26 Ta6 1.918880 1_455
O26 Ta1 2.002086 1_555
O27 Ta7 1.918880 1_555
O27 Ta1 2.002086 1_555
O28 Ta8 1.918880 1_555
O28 Ta0 2.002086 1_565
O29 Ta9 1.918880 1_555
O29 Ta0 2.002086 1_555
