# generated using pymatgen
data_PrSCl
_symmetry_space_group_name_H-M   'P 1'
_cell_length_a   6.91340800
_cell_length_b   7.01902300
_cell_length_c   41.53519200
_cell_angle_alpha   90.00000000
_cell_angle_beta   90.00000000
_cell_angle_gamma   90.00000000
_symmetry_Int_Tables_number   1
_chemical_formula_structural   PrSCl
_chemical_formula_sum   'Pr24 S24 Cl24'
_cell_volume   2015.51054987
_cell_formula_units_Z   24
loop_
 _symmetry_equiv_pos_site_id
 _symmetry_equiv_pos_as_xyz
  1  'x, y, z'
loop_
 _atom_site_type_symbol
 _atom_site_label
 _atom_site_symmetry_multiplicity
 _atom_site_fract_x
 _atom_site_fract_y
 _atom_site_fract_z
 _atom_site_occupancy
  Pr  Pr0  1  0.19953700  0.72947700  0.16687900  1
  Pr  Pr1  1  0.80046300  0.27052300  0.83312100  1
  Pr  Pr2  1  0.80046300  0.27052300  0.66687900  1
  Pr  Pr3  1  0.80046300  0.22947700  0.33312100  1
  Pr  Pr4  1  0.19953700  0.72947700  0.33312100  1
  Pr  Pr5  1  0.19953700  0.77052300  0.66687900  1
  Pr  Pr6  1  0.19953700  0.77052300  0.83312100  1
  Pr  Pr7  1  0.80046300  0.22947700  0.16687900  1
  Pr  Pr8  1  0.78769300  0.25000000  0.00000000  1
  Pr  Pr9  1  0.21230700  0.75000000  0.00000000  1
  Pr  Pr10  1  0.21230700  0.75000000  0.50000000  1
  Pr  Pr11  1  0.78769300  0.25000000  0.50000000  1
  Pr  Pr12  1  0.19633000  0.30145300  0.08386200  1
  Pr  Pr13  1  0.80367000  0.69854700  0.91613800  1
  Pr  Pr14  1  0.80367000  0.69854700  0.58386200  1
  Pr  Pr15  1  0.80367000  0.80145300  0.41613800  1
  Pr  Pr16  1  0.19633000  0.30145300  0.41613800  1
  Pr  Pr17  1  0.19633000  0.19854700  0.58386200  1
  Pr  Pr18  1  0.19633000  0.19854700  0.91613800  1
  Pr  Pr19  1  0.80367000  0.80145300  0.08386200  1
  Pr  Pr20  1  0.19269400  0.28702900  0.25000000  1
  Pr  Pr21  1  0.80730600  0.71297100  0.75000000  1
  Pr  Pr22  1  0.80730600  0.78702900  0.25000000  1
  Pr  Pr23  1  0.19269400  0.21297100  0.75000000  1
  S  S0  1  0.03022700  0.03655100  0.04183300  1
  S  S1  1  0.96977300  0.96344900  0.95816700  1
  S  S2  1  0.96977300  0.96344900  0.54183300  1
  S  S3  1  0.96977300  0.53655100  0.45816700  1
  S  S4  1  0.03022700  0.03655100  0.45816700  1
  S  S5  1  0.03022700  0.46344900  0.54183300  1
  S  S6  1  0.03022700  0.46344900  0.95816700  1
  S  S7  1  0.96977300  0.53655100  0.04183300  1
  S  S8  1  0.04381800  0.01084300  0.12683700  1
  S  S9  1  0.95618200  0.98915700  0.87316300  1
  S  S10  1  0.95618200  0.98915700  0.62683700  1
  S  S11  1  0.95618200  0.51084300  0.37316300  1
  S  S12  1  0.04381800  0.01084300  0.37316300  1
  S  S13  1  0.04381800  0.48915700  0.62683700  1
  S  S14  1  0.04381800  0.48915700  0.87316300  1
  S  S15  1  0.95618200  0.51084300  0.12683700  1
  S  S16  1  0.03428300  0.01106000  0.20914100  1
  S  S17  1  0.96571700  0.98894000  0.79085900  1
  S  S18  1  0.96571700  0.98894000  0.70914100  1
  S  S19  1  0.96571700  0.51106000  0.29085900  1
  S  S20  1  0.03428300  0.01106000  0.29085900  1
  S  S21  1  0.03428300  0.48894000  0.70914100  1
  S  S22  1  0.03428300  0.48894000  0.79085900  1
  S  S23  1  0.96571700  0.51106000  0.20914100  1
  Cl  Cl0  1  0.55364600  0.12861500  0.11442700  1
  Cl  Cl1  1  0.44635400  0.87138500  0.88557300  1
  Cl  Cl2  1  0.44635400  0.87138500  0.61442700  1
  Cl  Cl3  1  0.44635400  0.62861500  0.38557300  1
  Cl  Cl4  1  0.55364600  0.12861500  0.38557300  1
  Cl  Cl5  1  0.55364600  0.37138500  0.61442700  1
  Cl  Cl6  1  0.55364600  0.37138500  0.88557300  1
  Cl  Cl7  1  0.44635400  0.62861500  0.11442700  1
  Cl  Cl8  1  0.45827500  0.41523300  0.20003800  1
  Cl  Cl9  1  0.54172500  0.58476700  0.79996200  1
  Cl  Cl10  1  0.54172500  0.58476700  0.70003800  1
  Cl  Cl11  1  0.54172500  0.91523300  0.29996200  1
  Cl  Cl12  1  0.45827500  0.41523300  0.29996200  1
  Cl  Cl13  1  0.45827500  0.08476700  0.70003800  1
  Cl  Cl14  1  0.45827500  0.08476700  0.79996200  1
  Cl  Cl15  1  0.54172500  0.91523300  0.20003800  1
  Cl  Cl16  1  0.46074500  0.41410900  0.03611000  1
  Cl  Cl17  1  0.53925500  0.58589100  0.96389000  1
  Cl  Cl18  1  0.53925500  0.58589100  0.53611000  1
  Cl  Cl19  1  0.53925500  0.91410900  0.46389000  1
  Cl  Cl20  1  0.46074500  0.41410900  0.46389000  1
  Cl  Cl21  1  0.46074500  0.08589100  0.53611000  1
  Cl  Cl22  1  0.46074500  0.08589100  0.96389000  1
  Cl  Cl23  1  0.53925500  0.91410900  0.03611000  1
loop_
_geom_bond_atom_site_label_1
_geom_bond_atom_site_label_2
_geom_bond_distance
_geom_bond_site_symmetry_2
Pr0 S8 2.797377 1_565
Pr0 S15 2.819854 1_455
Pr0 S23 2.836310 1_455
Pr0 S16 2.879727 1_565
Pr1 S9 2.797377 1_545
Pr1 S14 2.819854 1_655
Pr1 S22 2.836310 1_655
Pr1 S17 2.879727 1_545
Pr2 S10 2.797377 1_545
Pr2 S13 2.819854 1_655
Pr2 S21 2.836310 1_655
Pr2 S18 2.879727 1_545
Pr3 S11 2.797377 1_555
Pr3 S12 2.819854 1_655
Pr3 S20 2.836310 1_655
Pr3 S19 2.879727 1_555
Pr4 S12 2.797377 1_565
Pr4 S11 2.819854 1_455
Pr4 S19 2.836310 1_455
Pr4 S20 2.879727 1_565
Pr5 S13 2.797377 1_555
Pr5 S10 2.819854 1_455
Pr5 S18 2.836310 1_455
Pr5 S21 2.879727 1_555
Pr6 S14 2.797377 1_555
Pr6 S9 2.819854 1_455
Pr6 S17 2.836310 1_455
Pr6 S22 2.879727 1_555
Pr7 S15 2.797377 1_555
Pr7 S8 2.819854 1_655
Pr7 S16 2.836310 1_655
Pr7 S23 2.879727 1_555
Pr8 S0 2.841674 1_655
Pr8 S6 2.841674 1_654
Pr8 S7 2.940913 1_555
Pr8 S1 2.940913 1_544
Pr9 S7 2.841674 1_455
Pr9 S1 2.841674 1_454
Pr9 S0 2.940913 1_565
Pr9 S6 2.940913 1_554
Pr10 S3 2.841674 1_455
Pr10 S2 2.841674 1_455
Pr10 S4 2.940913 1_565
Pr10 S5 2.940913 1_555
Pr11 S4 2.841674 1_655
Pr11 S5 2.841674 1_655
Pr11 S3 2.940913 1_555
Pr11 S2 2.940913 1_545
Pr12 S0 2.797013 1_555
Pr12 S15 2.846505 1_455
Pr12 S7 2.867694 1_455
Pr12 S8 2.908371 1_555
Pr13 S1 2.797013 1_555
Pr13 S14 2.846505 1_655
Pr13 S6 2.867694 1_655
Pr13 S9 2.908371 1_555
Pr14 S2 2.797013 1_555
Pr14 S13 2.846505 1_655
Pr14 S5 2.867694 1_655
Pr14 S10 2.908371 1_555
Pr15 S3 2.797013 1_555
Pr15 S12 2.846505 1_665
Pr15 S4 2.867694 1_665
Pr15 S11 2.908371 1_555
Pr16 S4 2.797013 1_555
Pr16 S11 2.846505 1_455
Pr16 S3 2.867694 1_455
Pr16 S12 2.908371 1_555
Pr17 S5 2.797013 1_555
Pr17 S10 2.846505 1_445
Pr17 S2 2.867694 1_445
Pr17 S13 2.908371 1_555
Pr18 S6 2.797013 1_555
Pr18 S9 2.846505 1_445
Pr18 S1 2.867694 1_445
Pr18 S14 2.908371 1_555
Pr19 S7 2.797013 1_555
Pr19 S8 2.846505 1_665
Pr19 S0 2.867694 1_665
Pr19 S15 2.908371 1_555
Pr20 S19 2.795556 1_455
Pr20 S23 2.795556 1_455
Pr20 S20 2.798495 1_555
Pr20 S16 2.798495 1_555
Pr21 S22 2.795556 1_655
Pr21 S21 2.795556 1_655
Pr21 S17 2.798495 1_555
Pr21 S18 2.798495 1_555
Pr22 S20 2.795556 1_665
Pr22 S16 2.795556 1_665
Pr22 S19 2.798495 1_555
Pr22 S23 2.798495 1_555
Pr23 S17 2.795556 1_445
Pr23 S18 2.795556 1_445
Pr23 S22 2.798495 1_555
Pr23 S21 2.798495 1_555
Cl0 Pr7 2.856419 1_555
Cl0 Pr12 3.030787 1_555
Cl0 Pr19 3.142089 1_545
Cl1 Pr6 2.856419 1_555
Cl1 Pr13 3.030787 1_555
Cl1 Pr18 3.142089 1_565
Cl2 Pr5 2.856419 1_555
Cl2 Pr14 3.030787 1_555
Cl2 Pr17 3.142089 1_565
Cl3 Pr4 2.856419 1_555
Cl3 Pr15 3.030787 1_555
Cl3 Pr16 3.142089 1_555
Cl4 Pr3 2.856419 1_555
Cl4 Pr16 3.030787 1_555
Cl4 Pr15 3.142089 1_545
Cl5 Pr2 2.856419 1_555
Cl5 Pr17 3.030787 1_555
Cl5 Pr14 3.142089 1_555
Cl6 Pr1 2.856419 1_555
Cl6 Pr18 3.030787 1_555
Cl6 Pr13 3.142089 1_555
Cl7 Pr0 2.856419 1_555
Cl7 Pr19 3.030787 1_555
Cl7 Pr12 3.142089 1_555
Cl8 Pr20 2.913295 1_555
Cl8 Pr7 3.032044 1_555
Cl8 Pr0 3.156197 1_555
Cl9 Pr21 2.913295 1_555
Cl9 Pr6 3.032044 1_555
Cl9 Pr1 3.156197 1_555
Cl10 Pr21 2.913295 1_555
Cl10 Pr5 3.032044 1_555
Cl10 Pr2 3.156197 1_555
Cl11 Pr22 2.913295 1_555
Cl11 Pr4 3.032044 1_555
Cl11 Pr3 3.156197 1_565
Cl12 Pr20 2.913295 1_555
Cl12 Pr3 3.032044 1_555
Cl12 Pr4 3.156197 1_555
Cl13 Pr23 2.913295 1_555
Cl13 Pr2 3.032044 1_555
Cl13 Pr5 3.156197 1_545
Cl14 Pr23 2.913295 1_555
Cl14 Pr1 3.032044 1_555
Cl14 Pr6 3.156197 1_545
Cl15 Pr22 2.913295 1_555
Cl15 Pr0 3.032044 1_555
Cl15 Pr7 3.156197 1_565
Cl16 Pr12 2.810820 1_555
Cl16 Pr8 2.947103 1_555
Cl16 Pr9 3.279924 1_555
Cl17 Pr13 2.810820 1_555
Cl17 Pr9 2.947103 1_556
Cl17 Pr8 3.279924 1_556
Cl18 Pr14 2.810820 1_555
Cl18 Pr10 2.947103 1_555
Cl18 Pr11 3.279924 1_555
Cl19 Pr15 2.810820 1_555
Cl19 Pr10 2.947103 1_555
Cl19 Pr11 3.279924 1_565
Cl20 Pr16 2.810820 1_555
Cl20 Pr11 2.947103 1_555
Cl20 Pr10 3.279924 1_555
Cl21 Pr17 2.810820 1_555
Cl21 Pr11 2.947103 1_555
Cl21 Pr10 3.279924 1_545
Cl22 Pr18 2.810820 1_555
Cl22 Pr8 2.947103 1_556
Cl22 Pr9 3.279924 1_546
Cl23 Pr19 2.810820 1_555
Cl23 Pr9 2.947103 1_555
Cl23 Pr8 3.279924 1_565
