# generated using pymatgen
data_CsMg6Cu
_symmetry_space_group_name_H-M   'P 1'
_cell_length_a   4.96672200
_cell_length_b   6.20631900
_cell_length_c   15.84344100
_cell_angle_alpha   90.00000000
_cell_angle_beta   90.00000000
_cell_angle_gamma   90.00000000
_symmetry_Int_Tables_number   1
_chemical_formula_structural   CsMg6Cu
_chemical_formula_sum   'Cs2 Mg12 Cu2'
_cell_volume   488.37503712
_cell_formula_units_Z   2
loop_
 _symmetry_equiv_pos_site_id
 _symmetry_equiv_pos_as_xyz
  1  'x, y, z'
loop_
 _atom_site_type_symbol
 _atom_site_label
 _atom_site_symmetry_multiplicity
 _atom_site_fract_x
 _atom_site_fract_y
 _atom_site_fract_z
 _atom_site_occupancy
  Cs  Cs0  1  0.50000000  0.50000000  0.20713800  1
  Cs  Cs1  1  0.50000000  0.00000000  0.70713800  1
  Mg  Mg0  1  0.50000000  0.24155900  0.43512000  1
  Mg  Mg1  1  0.50000000  0.75844100  0.43512000  1
  Mg  Mg2  1  0.00000000  0.75742100  0.05327500  1
  Mg  Mg3  1  0.00000000  0.24257900  0.05327500  1
  Mg  Mg4  1  0.00000000  0.00000000  0.36583000  1
  Mg  Mg5  1  0.00000000  0.50000000  0.38655100  1
  Mg  Mg6  1  0.50000000  0.74155900  0.93512000  1
  Mg  Mg7  1  0.50000000  0.25844100  0.93512000  1
  Mg  Mg8  1  0.00000000  0.25742100  0.55327500  1
  Mg  Mg9  1  0.00000000  0.74257900  0.55327500  1
  Mg  Mg10  1  0.00000000  0.50000000  0.86583000  1
  Mg  Mg11  1  0.00000000  0.00000000  0.88655100  1
  Cu  Cu0  1  0.50000000  0.00000000  0.06368800  1
  Cu  Cu1  1  0.50000000  0.50000000  0.56368800  1
loop_
_geom_bond_atom_site_label_1
_geom_bond_atom_site_label_2
_geom_bond_distance
_geom_bond_site_symmetry_2
Cs0 Mg5 3.774520 1_555
Cs0 Mg5 3.774520 1_655
Cs0 Mg2 3.829099 1_555
Cs0 Mg3 3.829099 1_655
Cs0 Mg2 3.829099 1_655
Cs0 Mg3 3.829099 1_555
Cs0 Cu0 3.846421 1_555
Cs0 Cu0 3.846421 1_565
Cs0 Mg1 3.952138 1_555
Cs0 Mg0 3.952138 1_555
Cs1 Mg11 3.774520 1_555
Cs1 Mg11 3.774520 1_655
Cs1 Mg9 3.829099 1_645
Cs1 Mg8 3.829099 1_555
Cs1 Mg8 3.829099 1_655
Cs1 Mg9 3.829099 1_545
Cs1 Cu1 3.846421 1_545
Cs1 Cu1 3.846421 1_555
Cs1 Mg7 3.952138 1_555
Cs1 Mg6 3.952138 1_545
Mg0 Mg5 3.054820 1_655
Mg0 Mg5 3.054820 1_555
Mg0 Mg4 3.101581 1_655
Mg0 Mg4 3.101581 1_555
Mg1 Mg5 3.054820 1_655
Mg1 Mg5 3.054820 1_555
Mg1 Mg4 3.101581 1_665
Mg1 Mg4 3.101581 1_565
Mg4 Mg5 3.120477 1_555
Mg4 Mg5 3.120477 1_545
Mg4 Mg8 3.372240 1_555
Mg4 Mg9 3.372240 1_545
Mg5 Mg8 3.040399 1_555
Mg5 Mg9 3.040399 1_555
Mg10 Mg7 3.101581 1_555
Mg10 Mg7 3.101581 1_455
Mg10 Mg6 3.101581 1_455
Mg10 Mg6 3.101581 1_555
Mg10 Mg11 3.120477 1_555
Mg10 Mg11 3.120477 1_565
Mg10 Mg2 3.372240 1_556
Mg10 Mg3 3.372240 1_556
Mg11 Mg3 3.040399 1_556
Mg11 Mg2 3.040399 1_546
Mg11 Mg7 3.054820 1_555
Mg11 Mg7 3.054820 1_455
Mg11 Mg6 3.054820 1_445
Mg11 Mg6 3.054820 1_545
Cu0 Mg6 2.592666 1_544
Cu0 Mg7 2.592666 1_554
Cu0 Mg3 2.908762 1_555
Cu0 Mg2 2.908762 1_645
Cu0 Mg2 2.908762 1_545
Cu0 Mg3 2.908762 1_655
Cu1 Mg1 2.592666 1_555
Cu1 Mg0 2.592666 1_555
Cu1 Mg9 2.908762 1_655
Cu1 Mg8 2.908762 1_555
Cu1 Mg8 2.908762 1_655
Cu1 Mg9 2.908762 1_555
