# generated using pymatgen
data_Cd(C4N3)2
_symmetry_space_group_name_H-M   'P 1'
_cell_length_a   5.56053100
_cell_length_b   7.90314800
_cell_length_c   10.96492400
_cell_angle_alpha   90.00000000
_cell_angle_beta   90.00000000
_cell_angle_gamma   90.00000000
_symmetry_Int_Tables_number   1
_chemical_formula_structural   Cd(C4N3)2
_chemical_formula_sum   'Cd2 C16 N12'
_cell_volume   481.86125461
_cell_formula_units_Z   2
loop_
 _symmetry_equiv_pos_site_id
 _symmetry_equiv_pos_as_xyz
  1  'x, y, z'
loop_
 _atom_site_type_symbol
 _atom_site_label
 _atom_site_symmetry_multiplicity
 _atom_site_fract_x
 _atom_site_fract_y
 _atom_site_fract_z
 _atom_site_occupancy
  Cd  Cd0  1  0.00000000  0.50000000  0.50000000  1
  Cd  Cd1  1  0.00000000  0.00000000  0.00000000  1
  C  C0  1  0.39865300  0.00000000  0.74549400  1
  C  C1  1  0.39865300  0.50000000  0.75450600  1
  C  C2  1  0.60134700  0.00000000  0.25450600  1
  C  C3  1  0.60134700  0.50000000  0.24549400  1
  C  C4  1  0.58706400  0.00000000  0.66004000  1
  C  C5  1  0.58706400  0.50000000  0.83996000  1
  C  C6  1  0.41293600  0.00000000  0.33996000  1
  C  C7  1  0.41293600  0.50000000  0.16004000  1
  C  C8  1  0.68758000  0.15200700  0.61827000  1
  C  C9  1  0.68758000  0.34799300  0.88173000  1
  C  C10  1  0.31242000  0.15200700  0.38173000  1
  C  C11  1  0.68758000  0.65200700  0.88173000  1
  C  C12  1  0.31242000  0.84799300  0.38173000  1
  C  C13  1  0.31242000  0.65200700  0.11827000  1
  C  C14  1  0.68758000  0.84799300  0.61827000  1
  C  C15  1  0.31242000  0.34799300  0.11827000  1
  N  N0  1  0.77298100  0.27749800  0.58188200  1
  N  N1  1  0.77298100  0.22250200  0.91811800  1
  N  N2  1  0.22701900  0.27749800  0.41811800  1
  N  N3  1  0.77298100  0.77749800  0.91811800  1
  N  N4  1  0.22701900  0.72250200  0.41811800  1
  N  N5  1  0.22701900  0.77749800  0.08188200  1
  N  N6  1  0.77298100  0.72250200  0.58188200  1
  N  N7  1  0.22701900  0.22250200  0.08188200  1
  N  N8  1  0.24196200  0.00000000  0.81686800  1
  N  N9  1  0.24196200  0.50000000  0.68313200  1
  N  N10  1  0.75803800  0.00000000  0.18313200  1
  N  N11  1  0.75803800  0.50000000  0.31686800  1
loop_
_geom_bond_atom_site_label_1
_geom_bond_atom_site_label_2
_geom_bond_distance
_geom_bond_site_symmetry_2
Cd0 N0 2.343463 1_455
Cd0 N6 2.343463 1_455
Cd0 N4 2.343463 1_555
Cd0 N2 2.343463 1_555
Cd0 N9 2.417101 1_555
Cd0 N11 2.417101 1_455
Cd1 N3 2.343463 1_444
Cd1 N1 2.343463 1_454
Cd1 N7 2.343463 1_555
Cd1 N5 2.343463 1_545
Cd1 N8 2.417101 1_554
Cd1 N10 2.417101 1_455
C0 N8 1.171161 1_555
C0 C4 1.405548 1_555
C1 N9 1.171161 1_555
C1 C5 1.405548 1_555
C2 N10 1.171161 1_555
C2 C6 1.405548 1_555
C3 N11 1.171161 1_555
C3 C7 1.405548 1_555
C4 C8 1.401915 1_555
C5 C9 1.401915 1_555
C8 N0 1.169750 1_555
C9 N1 1.169750 1_555
C10 N2 1.169750 1_555
C10 C6 1.401915 1_555
C11 N3 1.169750 1_555
C11 C5 1.401915 1_555
C12 N4 1.169750 1_555
C12 C6 1.401915 1_565
C13 N5 1.169750 1_555
C13 C7 1.401915 1_555
C14 N6 1.169750 1_555
C14 C4 1.401915 1_565
C15 N7 1.169750 1_555
C15 C7 1.401915 1_555
