# generated using pymatgen
data_Li4Ni3SbO8
_symmetry_space_group_name_H-M   'P 1'
_cell_length_a   5.99302451
_cell_length_b   10.36430725
_cell_length_c   5.99699780
_cell_angle_alpha   73.04048187
_cell_angle_beta   59.92177016
_cell_angle_gamma   73.03933715
_symmetry_Int_Tables_number   1
_chemical_formula_structural   Li4Ni3SbO8
_chemical_formula_sum   'Li8 Ni6 Sb2 O16'
_cell_volume   303.51485628
_cell_formula_units_Z   2
loop_
 _symmetry_equiv_pos_site_id
 _symmetry_equiv_pos_as_xyz
  1  'x, y, z'
loop_
 _atom_site_type_symbol
 _atom_site_label
 _atom_site_symmetry_multiplicity
 _atom_site_fract_x
 _atom_site_fract_y
 _atom_site_fract_z
 _atom_site_occupancy
  Li  Li0  1  0.25018700  0.24947400  0.25271800  1
  Li  Li1  1  0.74914800  0.75053700  0.74744600  1
  Li  Li2  1  0.74562900  0.24394000  0.74589400  1
  Li  Li3  1  0.25427500  0.75605500  0.25412400  1
  Li  Li4  1  0.75167300  0.75017800  0.25001200  1
  Li  Li5  1  0.24802000  0.24991300  0.74994800  1
  Li  Li6  1  0.24773800  0.74572600  0.76129900  1
  Li  Li7  1  0.75203900  0.25425500  0.23874700  1
  Ni  Ni0  1  0.49986400  0.00000700  0.50020100  1
  Ni  Ni1  1  0.00024900  0.49993500  0.99979800  1
  Ni  Ni2  1  0.50028500  0.49993100  0.99984800  1
  Ni  Ni3  1  0.99986500  0.00002300  0.50026300  1
  Ni  Ni4  1  0.49981400  0.00006000  0.00028600  1
  Ni  Ni5  1  0.00022800  0.50004400  0.49968300  1
  Sb  Sb0  1  0.50018000  0.50001500  0.49978100  1
  Sb  Sb1  1  0.00000600  0.99999300  0.00024000  1
  O  O0  1  0.37458000  0.89228600  0.35516600  1
  O  O1  1  0.87283900  0.39290200  0.87523400  1
  O  O2  1  0.12770200  0.60701400  0.12425400  1
  O  O3  1  0.62514600  0.10771500  0.64528300  1
  O  O4  1  0.87624500  0.88317100  0.88032400  1
  O  O5  1  0.38006600  0.38261800  0.37925200  1
  O  O6  1  0.62034500  0.61738300  0.62033400  1
  O  O7  1  0.12348600  0.11683900  0.12004800  1
  O  O8  1  0.85960900  0.38197500  0.37887000  1
  O  O9  1  0.35943000  0.88218100  0.88092800  1
  O  O10  1  0.37738900  0.38317000  0.86041000  1
  O  O11  1  0.88073200  0.88244900  0.35841200  1
  O  O12  1  0.64035400  0.11786100  0.11944100  1
  O  O13  1  0.14074800  0.61799100  0.62072800  1
  O  O14  1  0.11905500  0.11756500  0.64193300  1
  O  O15  1  0.62307000  0.61679800  0.13909100  1
loop_
_geom_bond_atom_site_label_1
_geom_bond_atom_site_label_2
_geom_bond_distance
_geom_bond_site_symmetry_2
Li0 O14 2.204843 1_555
Li0 O12 2.206560 1_555
Li0 O8 2.212003 1_455
Li0 O5 2.217096 1_555
Li0 O7 2.225292 1_555
Li0 O10 2.225524 1_554
Li1 O11 2.204118 1_555
Li1 O9 2.204832 1_555
Li1 O6 2.215073 1_555
Li1 O13 2.216494 1_655
Li1 O15 2.222954 1_556
Li1 O4 2.227831 1_555
Li2 O3 2.099349 1_555
Li2 O14 2.116679 1_655
Li2 O12 2.116709 1_556
Li2 O8 2.141023 1_555
Li2 O10 2.150636 1_555
Li2 O1 2.354677 1_555
Li3 O0 2.100369 1_555
Li3 O9 2.115405 1_554
Li3 O11 2.117161 1_455
Li3 O13 2.139470 1_555
Li3 O15 2.153000 1_555
Li3 O2 2.354946 1_555
Li4 O4 2.128613 1_554
Li4 O6 2.131327 1_555
Li4 O11 2.131364 1_555
Li4 O15 2.149293 1_555
Li4 O0 2.201275 1_555
Li4 O2 2.201657 1_655
Li5 O14 2.130081 1_555
Li5 O7 2.130657 1_556
Li5 O5 2.132562 1_555
Li5 O10 2.149585 1_555
Li5 O1 2.197391 1_455
Li5 O3 2.201932 1_555
Li6 O6 2.121636 1_555
Li6 O2 2.128473 1_556
Li6 O13 2.136026 1_555
Li6 O9 2.142070 1_555
Li6 O4 2.155319 1_455
Li6 O0 2.340248 1_555
Li7 O5 2.119034 1_555
Li7 O1 2.130455 1_554
Li7 O8 2.136309 1_555
Li7 O12 2.140180 1_555
Li7 O7 2.154984 1_655
Li7 O3 2.341819 1_555
Ni0 O0 2.068067 1_545
Ni0 O3 2.068168 1_555
Ni0 O14 2.110180 1_555
Ni0 O11 2.110441 1_545
Ni0 O9 2.111768 1_545
Ni0 O12 2.112027 1_555
Ni1 O1 1.980162 1_455
Ni1 O2 1.980250 1_556
Ni1 O10 2.091021 1_555
Ni1 O15 2.091558 1_456
Ni1 O8 2.105270 1_456
Ni1 O13 2.105619 1_555
Ni2 O1 2.034744 1_555
Ni2 O2 2.035091 1_556
Ni2 O5 2.104363 1_556
Ni2 O15 2.105204 1_556
Ni2 O6 2.105404 1_555
Ni2 O10 2.105675 1_555
Ni3 O3 2.047329 1_555
Ni3 O0 2.047490 1_645
Ni3 O4 2.104998 1_545
Ni3 O7 2.105546 1_655
Ni3 O14 2.106178 1_655
Ni3 O11 2.107005 1_545
Ni4 O0 1.959971 1_545
Ni4 O3 1.960061 1_554
Ni4 O7 2.087629 1_555
Ni4 O4 2.088467 1_544
Ni4 O12 2.103067 1_555
Ni4 O9 2.103883 1_544
Ni5 O2 2.048331 1_555
Ni5 O1 2.049480 1_455
Ni5 O6 2.105344 1_455
Ni5 O5 2.105511 1_555
Ni5 O13 2.112242 1_555
Ni5 O8 2.112696 1_455
O4 Sb1 2.024802 1_656
O5 Sb0 2.016610 1_555
O6 Sb0 2.016686 1_555
O7 Sb1 2.023331 1_545
O8 Sb0 2.019132 1_555
O9 Sb1 2.018183 1_556
O10 Sb0 2.020413 1_555
O11 Sb1 2.012780 1_655
O12 Sb1 2.019391 1_645
O13 Sb0 2.018880 1_555
O14 Sb1 2.013478 1_546
O15 Sb0 2.020423 1_555
