# generated using pymatgen
data_RbSO4
_symmetry_space_group_name_H-M   'P 1'
_cell_length_a   4.82064500
_cell_length_b   14.58080600
_cell_length_c   15.06732235
_cell_angle_alpha   58.94944692
_cell_angle_beta   90.00000000
_cell_angle_gamma   90.00000000
_symmetry_Int_Tables_number   1
_chemical_formula_structural   RbSO4
_chemical_formula_sum   'Rb8 S8 O32'
_cell_volume   907.31457134
_cell_formula_units_Z   8
loop_
 _symmetry_equiv_pos_site_id
 _symmetry_equiv_pos_as_xyz
  1  'x, y, z'
loop_
 _atom_site_type_symbol
 _atom_site_label
 _atom_site_symmetry_multiplicity
 _atom_site_fract_x
 _atom_site_fract_y
 _atom_site_fract_z
 _atom_site_occupancy
  Rb  Rb0  1  0.64374300  0.87580800  0.91933300  1
  Rb  Rb1  1  0.14374300  0.12419200  0.58066700  1
  Rb  Rb2  1  0.35625700  0.12419200  0.08066700  1
  Rb  Rb3  1  0.85625700  0.87580800  0.41933300  1
  Rb  Rb4  1  0.20441800  0.62381900  0.83200900  1
  Rb  Rb5  1  0.70441800  0.37618100  0.66799100  1
  Rb  Rb6  1  0.79558200  0.37618100  0.16799100  1
  Rb  Rb7  1  0.29558200  0.62381900  0.33200900  1
  S  S0  1  0.70069400  0.87563700  0.67432100  1
  S  S1  1  0.20069400  0.12436300  0.82567900  1
  S  S2  1  0.29930600  0.12436300  0.32567900  1
  S  S3  1  0.79930600  0.87563700  0.17432100  1
  S  S4  1  0.27225500  0.62548400  0.58129100  1
  S  S5  1  0.77225500  0.37451600  0.91870900  1
  S  S6  1  0.72774500  0.37451600  0.41870900  1
  S  S7  1  0.22774500  0.62548400  0.08129100  1
  O  O0  1  0.61251400  0.96925500  0.68009500  1
  O  O1  1  0.11251400  0.03074500  0.81990500  1
  O  O2  1  0.38748600  0.03074500  0.31990500  1
  O  O3  1  0.88748600  0.96925500  0.18009500  1
  O  O4  1  0.53225200  0.86225400  0.59761000  1
  O  O5  1  0.03225200  0.13774600  0.90239000  1
  O  O6  1  0.46774800  0.13774600  0.40239000  1
  O  O7  1  0.96774800  0.86225400  0.09761000  1
  O  O8  1  0.70140700  0.77704300  0.77720700  1
  O  O9  1  0.20140700  0.22295700  0.72279300  1
  O  O10  1  0.29859300  0.22295700  0.22279300  1
  O  O11  1  0.79859300  0.77704300  0.27720700  1
  O  O12  1  0.97966600  0.89663700  0.62213200  1
  O  O13  1  0.47966600  0.10336300  0.87786800  1
  O  O14  1  0.02033400  0.10336300  0.37786800  1
  O  O15  1  0.52033400  0.89663700  0.12213200  1
  O  O16  1  0.19579100  0.53376400  0.56976300  1
  O  O17  1  0.69579100  0.46623600  0.93023700  1
  O  O18  1  0.80420900  0.46623600  0.43023700  1
  O  O19  1  0.30420900  0.53376400  0.06976300  1
  O  O20  1  0.49063100  0.59290500  0.66305300  1
  O  O21  1  0.99063100  0.40709500  0.83694700  1
  O  O22  1  0.50936900  0.40709500  0.33694700  1
  O  O23  1  0.00936900  0.59290500  0.16305300  1
  O  O24  1  0.37573400  0.71599400  0.48137800  1
  O  O25  1  0.87573400  0.28400600  0.01862200  1
  O  O26  1  0.62426600  0.28400600  0.51862200  1
  O  O27  1  0.12426600  0.71599400  0.98137800  1
  O  O28  1  0.02473900  0.66202900  0.61477500  1
  O  O29  1  0.52473900  0.33797100  0.88522500  1
  O  O30  1  0.97526100  0.33797100  0.38522500  1
  O  O31  1  0.47526100  0.66202900  0.11477500  1
loop_
_geom_bond_atom_site_label_1
_geom_bond_atom_site_label_2
_geom_bond_distance
_geom_bond_site_symmetry_2
O0 S0 1.474472 1_555
O0 Rb1 2.993860 1_565
O0 Rb0 3.131487 1_555
O0 Rb1 3.227172 1_665
O1 S1 1.474472 1_555
O1 Rb0 2.993860 1_445
O1 Rb1 3.131487 1_555
O1 Rb0 3.227172 1_545
O2 S2 1.474472 1_555
O2 Rb3 2.993860 1_545
O2 Rb2 3.131487 1_555
O2 Rb3 3.227172 1_445
O3 S3 1.474472 1_555
O3 Rb2 2.993860 1_665
O3 Rb3 3.131487 1_555
O3 Rb2 3.227172 1_565
O4 S0 1.505333 1_555
O4 Rb3 3.024308 1_555
O5 S1 1.505333 1_555
O5 Rb2 3.024308 1_556
O6 S2 1.505333 1_555
O6 Rb1 3.024308 1_555
O7 S3 1.505333 1_555
O7 Rb0 3.024308 1_554
O8 S0 1.473385 1_555
O8 Rb4 3.083829 1_555
O8 Rb4 3.106436 1_655
O8 Rb0 3.149317 1_555
O9 S1 1.473385 1_555
O9 Rb5 3.083829 1_455
O9 Rb5 3.106436 1_555
O9 Rb1 3.149317 1_555
O10 S2 1.473385 1_555
O10 Rb6 3.083829 1_555
O10 Rb6 3.106436 1_455
O10 Rb2 3.149317 1_555
O11 S3 1.473385 1_555
O11 Rb7 3.083829 1_655
O11 Rb7 3.106436 1_555
O11 Rb3 3.149317 1_555
O12 S0 1.507406 1_555
O12 Rb1 3.144237 1_665
O12 Rb3 3.277255 1_555
O13 S1 1.507406 1_555
O13 Rb0 3.144237 1_545
O13 Rb2 3.277255 1_556
O14 S2 1.507406 1_555
O14 Rb3 3.144237 1_445
O14 Rb1 3.277255 1_555
O15 S3 1.507406 1_555
O15 Rb2 3.144237 1_565
O15 Rb0 3.277255 1_554
O16 S4 1.481277 1_555
O16 Rb5 3.093977 1_455
O16 Rb7 3.152164 1_555
O16 Rb5 3.158109 1_555
O17 S5 1.481277 1_555
O17 Rb4 3.093977 1_555
O17 Rb6 3.152164 1_556
O17 Rb4 3.158109 1_655
O18 S6 1.481277 1_555
O18 Rb7 3.093977 1_655
O18 Rb5 3.152164 1_555
O18 Rb7 3.158109 1_555
O19 S7 1.481277 1_555
O19 Rb6 3.093977 1_555
O19 Rb4 3.152164 1_554
O19 Rb6 3.158109 1_455
O20 S4 1.499277 1_555
O20 Rb4 3.125896 1_555
O20 Rb5 3.287975 1_555
O21 S5 1.499277 1_555
O21 Rb5 3.125896 1_555
O21 Rb4 3.287975 1_655
O22 S6 1.499277 1_555
O22 Rb6 3.125896 1_555
O22 Rb7 3.287975 1_555
O23 S7 1.499277 1_555
O23 Rb7 3.125896 1_555
O23 Rb6 3.287975 1_455
O24 S4 1.485694 1_555
O24 Rb3 3.069608 1_555
O24 Rb7 3.184503 1_555
O24 Rb3 3.213678 1_455
O25 S5 1.485694 1_554
O25 Rb2 3.069608 1_655
O25 Rb6 3.184503 1_555
O25 Rb2 3.213678 1_555
O26 S6 1.485694 1_555
O26 Rb1 3.069608 1_555
O26 Rb5 3.184503 1_555
O26 Rb1 3.213678 1_655
O27 S7 1.485694 1_556
O27 Rb0 3.069608 1_455
O27 Rb4 3.184503 1_555
O27 Rb0 3.213678 1_555
O28 S4 1.496492 1_555
O28 Rb3 3.094914 1_455
O28 Rb4 3.145295 1_555
O29 S5 1.496492 1_555
O29 Rb2 3.094914 1_556
O29 Rb5 3.145295 1_555
O30 S6 1.496492 1_555
O30 Rb1 3.094914 1_655
O30 Rb6 3.145295 1_555
O31 S7 1.496492 1_555
O31 Rb0 3.094914 1_554
O31 Rb7 3.145295 1_555
