# generated using pymatgen
data_Li2Fe(CoO3)2
_symmetry_space_group_name_H-M   'P 1'
_cell_length_a   5.14207811
_cell_length_b   10.13074423
_cell_length_c   5.03184996
_cell_angle_alpha   90.07583911
_cell_angle_beta   59.12826318
_cell_angle_gamma   89.96293263
_symmetry_Int_Tables_number   1
_chemical_formula_structural   Li2Fe(CoO3)2
_chemical_formula_sum   'Li4 Fe2 Co4 O12'
_cell_volume   224.98578916
_cell_formula_units_Z   2
loop_
 _symmetry_equiv_pos_site_id
 _symmetry_equiv_pos_as_xyz
  1  'x, y, z'
loop_
 _atom_site_type_symbol
 _atom_site_label
 _atom_site_symmetry_multiplicity
 _atom_site_fract_x
 _atom_site_fract_y
 _atom_site_fract_z
 _atom_site_occupancy
  Li  Li0  1  0.14977400  0.74938500  0.49325600  1
  Li  Li1  1  0.35592600  0.25115500  0.49511100  1
  Li  Li2  1  0.65029900  0.75032000  0.49152200  1
  Li  Li3  1  0.85721500  0.24871500  0.49307200  1
  Fe  Fe0  1  0.00152300  0.99988000  0.99657800  1
  Fe  Fe1  1  0.50032100  0.50034300  0.99589100  1
  Co  Co0  1  0.33281700  0.00009600  0.33452700  1
  Co  Co1  1  0.83382300  0.49974600  0.33430900  1
  Co  Co2  1  0.16050500  0.49968800  0.67792900  1
  Co  Co3  1  0.66078200  0.00002200  0.67820500  1
  O  O0  1  0.15035400  0.59685500  0.00959700  1
  O  O1  1  0.34150800  0.09627700  0.00894600  1
  O  O2  1  0.65006000  0.90366600  0.00812400  1
  O  O3  1  0.84356400  0.40449600  0.00690900  1
  O  O4  1  0.99649500  0.90004100  0.35324600  1
  O  O5  1  0.14903000  0.39960500  0.35339100  1
  O  O6  1  0.49496400  0.59971800  0.35388900  1
  O  O7  1  0.64963100  0.10017000  0.35405500  1
  O  O8  1  0.03583800  0.11006800  0.64141600  1
  O  O9  1  0.32370400  0.89004800  0.63979400  1
  O  O10  1  0.53678700  0.38994100  0.64095600  1
  O  O11  1  0.82508100  0.60976400  0.63927700  1
loop_
_geom_bond_atom_site_label_1
_geom_bond_atom_site_label_2
_geom_bond_distance
_geom_bond_site_symmetry_2
Li0 O4 2.004531 1_455
Li0 O9 2.012435 1_555
Li0 O11 2.018664 1_455
Li0 O6 2.158160 1_555
Li1 O7 2.004587 1_555
Li1 O8 2.014025 1_555
Li1 O10 2.019823 1_555
Li1 O5 2.163664 1_555
Li2 O6 2.002965 1_555
Li2 O11 2.018657 1_555
Li2 O9 2.022134 1_555
Li2 O4 2.165393 1_555
Li3 O5 2.001449 1_655
Li3 O10 2.012807 1_555
Li3 O8 2.019505 1_655
Li3 O7 2.158443 1_555
Fe0 O2 2.028370 1_456
Fe0 O1 2.031644 1_566
Fe0 O9 2.036117 1_555
Fe0 O8 2.037881 1_565
Fe0 O7 2.048068 1_466
Fe0 O4 2.049843 1_456
Fe1 O0 2.017255 1_556
Fe1 O10 2.031400 1_555
Fe1 O3 2.039467 1_556
Fe1 O11 2.042043 1_555
Fe1 O6 2.050255 1_556
Fe1 O5 2.052564 1_556
Co0 O8 1.879107 1_555
Co0 O9 1.880248 1_545
Co0 O2 1.886032 1_545
Co0 O1 1.887992 1_555
Co0 O7 1.964066 1_555
Co0 O4 1.965319 1_445
Co1 O11 1.877164 1_555
Co1 O10 1.881318 1_555
Co1 O3 1.886454 1_555
Co1 O0 1.887807 1_655
Co1 O5 1.955334 1_655
Co1 O6 1.973024 1_555
Co2 O3 1.887847 1_456
Co2 O0 1.913934 1_556
Co2 O6 1.942205 1_555
Co2 O5 1.947527 1_555
Co2 O11 2.144431 1_455
Co2 O10 2.154469 1_555
Co3 O1 1.898836 1_556
Co3 O2 1.903233 1_546
Co3 O4 1.943250 1_545
Co3 O7 1.947648 1_555
Co3 O9 2.151419 1_545
Co3 O8 2.152551 1_655
