# generated using pymatgen
data_LaV2IO9
_symmetry_space_group_name_H-M   'P 1'
_cell_length_a   7.17842500
_cell_length_b   7.36772400
_cell_length_c   14.87552900
_cell_angle_alpha   90.00000000
_cell_angle_beta   90.00000000
_cell_angle_gamma   90.00000000
_symmetry_Int_Tables_number   1
_chemical_formula_structural   LaV2IO9
_chemical_formula_sum   'La4 V8 I4 O36'
_cell_volume   786.74670865
_cell_formula_units_Z   4
loop_
 _symmetry_equiv_pos_site_id
 _symmetry_equiv_pos_as_xyz
  1  'x, y, z'
loop_
 _atom_site_type_symbol
 _atom_site_label
 _atom_site_symmetry_multiplicity
 _atom_site_fract_x
 _atom_site_fract_y
 _atom_site_fract_z
 _atom_site_occupancy
  La  La0  1  0.15180600  0.25000000  0.04986900  1
  La  La1  1  0.84819400  0.75000000  0.95013100  1
  La  La2  1  0.15180600  0.75000000  0.45013100  1
  La  La3  1  0.84819400  0.25000000  0.54986900  1
  V  V0  1  0.46817400  0.00000000  0.25000000  1
  V  V1  1  0.53182600  0.50000000  0.75000000  1
  V  V2  1  0.53182600  0.00000000  0.75000000  1
  V  V3  1  0.46817400  0.50000000  0.25000000  1
  V  V4  1  0.81790400  0.25000000  0.27095200  1
  V  V5  1  0.18209600  0.75000000  0.72904800  1
  V  V6  1  0.81790400  0.75000000  0.22904800  1
  V  V7  1  0.18209600  0.25000000  0.77095200  1
  I  I0  1  0.70175400  0.25000000  0.94258600  1
  I  I1  1  0.29824600  0.75000000  0.05741400  1
  I  I2  1  0.70175400  0.75000000  0.55741400  1
  I  I3  1  0.29824600  0.25000000  0.44258600  1
  O  O0  1  0.82560600  0.07111800  0.00632900  1
  O  O1  1  0.17439400  0.57111800  0.99367100  1
  O  O2  1  0.82560600  0.92888200  0.49367100  1
  O  O3  1  0.17439400  0.42888200  0.50632900  1
  O  O4  1  0.17439400  0.92888200  0.99367100  1
  O  O5  1  0.82560600  0.42888200  0.00632900  1
  O  O6  1  0.17439400  0.07111800  0.50632900  1
  O  O7  1  0.82560600  0.57111800  0.49367100  1
  O  O8  1  0.47718800  0.25000000  0.99802200  1
  O  O9  1  0.52281200  0.75000000  0.00197800  1
  O  O10  1  0.47718800  0.75000000  0.50197800  1
  O  O11  1  0.52281200  0.25000000  0.49802200  1
  O  O12  1  0.33509900  0.04274000  0.15837400  1
  O  O13  1  0.66490100  0.54274000  0.84162600  1
  O  O14  1  0.33509900  0.95726000  0.34162600  1
  O  O15  1  0.66490100  0.45726000  0.65837400  1
  O  O16  1  0.66490100  0.95726000  0.84162600  1
  O  O17  1  0.33509900  0.45726000  0.15837400  1
  O  O18  1  0.66490100  0.04274000  0.65837400  1
  O  O19  1  0.33509900  0.54274000  0.34162600  1
  O  O20  1  0.53339500  0.25000000  0.27810900  1
  O  O21  1  0.46660500  0.75000000  0.72189100  1
  O  O22  1  0.53339500  0.75000000  0.22189100  1
  O  O23  1  0.46660500  0.25000000  0.77810900  1
  O  O24  1  0.74003500  0.00000000  0.25000000  1
  O  O25  1  0.25996500  0.50000000  0.75000000  1
  O  O26  1  0.25996500  0.00000000  0.75000000  1
  O  O27  1  0.74003500  0.50000000  0.25000000  1
  O  O28  1  0.98730200  0.25000000  0.19323300  1
  O  O29  1  0.01269800  0.75000000  0.80676700  1
  O  O30  1  0.98730200  0.75000000  0.30676700  1
  O  O31  1  0.01269800  0.25000000  0.69323300  1
  O  O32  1  0.08672900  0.25000000  0.87392800  1
  O  O33  1  0.91327100  0.75000000  0.12607200  1
  O  O34  1  0.08672900  0.75000000  0.62607200  1
  O  O35  1  0.91327100  0.25000000  0.37392800  1
loop_
_geom_bond_atom_site_label_1
_geom_bond_atom_site_label_2
_geom_bond_distance
_geom_bond_site_symmetry_2
La0 O28 2.437729 1_455
La0 O8 2.459769 1_554
La0 O1 2.514492 1_554
La0 O4 2.514492 1_544
La0 O12 2.582298 1_555
La0 O17 2.582298 1_555
La0 O32 2.658580 1_554
La0 O5 2.763981 1_455
La0 O0 2.763981 1_455
La1 O29 2.437729 1_655
La1 O9 2.459769 1_556
La1 O5 2.514492 1_556
La1 O0 2.514492 1_566
La1 O13 2.582298 1_555
La1 O16 2.582298 1_555
La1 O33 2.658580 1_556
La1 O1 2.763981 1_655
La1 O4 2.763981 1_655
La2 O30 2.437729 1_455
La2 O10 2.459769 1_555
La2 O3 2.514492 1_555
La2 O6 2.514492 1_565
La2 O19 2.582298 1_555
La2 O14 2.582298 1_555
La2 O34 2.658580 1_555
La2 O7 2.763981 1_455
La2 O2 2.763981 1_455
La3 O31 2.437729 1_655
La3 O11 2.459769 1_555
La3 O2 2.514492 1_545
La3 O7 2.514492 1_555
La3 O18 2.582298 1_555
La3 O15 2.582298 1_555
La3 O35 2.658580 1_555
La3 O3 2.763981 1_655
La3 O6 2.763981 1_655
I0 O8 1.810710 1_555
I0 O5 1.851091 1_556
I0 O0 1.851091 1_556
I1 O9 1.810710 1_555
I1 O1 1.851091 1_554
I1 O4 1.851091 1_554
I2 O10 1.810710 1_555
I2 O7 1.851091 1_555
I2 O2 1.851091 1_555
I3 O11 1.810710 1_555
I3 O6 1.851091 1_555
I3 O3 1.851091 1_555
O12 V0 1.693938 1_555
O13 V1 1.693938 1_555
O14 V0 1.693938 1_565
O15 V1 1.693938 1_555
O16 V2 1.693938 1_565
O17 V3 1.693938 1_555
O18 V2 1.693938 1_555
O19 V3 1.693938 1_555
O20 V0 1.945956 1_555
O20 V3 1.945956 1_555
O20 V4 2.045100 1_555
O21 V2 1.945956 1_565
O21 V1 1.945956 1_555
O21 V5 2.045100 1_555
O22 V3 1.945956 1_555
O22 V0 1.945956 1_565
O22 V6 2.045100 1_555
O23 V1 1.945956 1_555
O23 V2 1.945956 1_555
O23 V7 2.045100 1_555
O24 V4 1.949950 1_555
O24 V6 1.949950 1_545
O24 V0 1.951534 1_555
O25 V7 1.949950 1_555
O25 V5 1.949950 1_555
O25 V1 1.951534 1_555
O26 V7 1.949950 1_555
O26 V5 1.949950 1_545
O26 V2 1.951534 1_555
O27 V4 1.949950 1_555
O27 V6 1.949950 1_555
O27 V3 1.951534 1_555
O28 V4 1.677878 1_555
O29 V5 1.677878 1_555
O30 V6 1.677878 1_555
O31 V7 1.677878 1_555
O32 V7 1.677837 1_555
O33 V6 1.677837 1_555
O34 V5 1.677837 1_555
O35 V4 1.677837 1_555
