# generated using pymatgen
data_TbH2C2SNO9
_symmetry_space_group_name_H-M   'P 1'
_cell_length_a   8.72631100
_cell_length_b   6.64205500
_cell_length_c   15.48223401
_cell_angle_alpha   66.69498752
_cell_angle_beta   90.00000000
_cell_angle_gamma   90.00000000
_symmetry_Int_Tables_number   1
_chemical_formula_structural   TbH2C2SNO9
_chemical_formula_sum   'Tb4 H8 C8 S4 N4 O36'
_cell_volume   824.14613157
_cell_formula_units_Z   4
loop_
 _symmetry_equiv_pos_site_id
 _symmetry_equiv_pos_as_xyz
  1  'x, y, z'
loop_
 _atom_site_type_symbol
 _atom_site_label
 _atom_site_symmetry_multiplicity
 _atom_site_fract_x
 _atom_site_fract_y
 _atom_site_fract_z
 _atom_site_occupancy
  Tb  Tb0  1  0.73459700  0.33121400  0.41674800  1
  Tb  Tb1  1  0.76540300  0.33121400  0.91674800  1
  Tb  Tb2  1  0.26540300  0.66878600  0.58325200  1
  Tb  Tb3  1  0.23459700  0.66878600  0.08325200  1
  H  H0  1  0.89477100  0.19566700  0.59650400  1
  H  H1  1  0.60522900  0.19566700  0.09650400  1
  H  H2  1  0.10522900  0.80433300  0.40349600  1
  H  H3  1  0.39477100  0.80433300  0.90349600  1
  H  H4  1  0.03733400  0.24888900  0.53112300  1
  H  H5  1  0.46266600  0.24888900  0.03112300  1
  H  H6  1  0.96266600  0.75111100  0.46887700  1
  H  H7  1  0.53733400  0.75111100  0.96887700  1
  C  C0  1  0.02513800  0.61379000  0.27297300  1
  C  C1  1  0.47486200  0.61379000  0.77297300  1
  C  C2  1  0.97486200  0.38621000  0.72702700  1
  C  C3  1  0.52513800  0.38621000  0.22702700  1
  C  C4  1  0.02004900  0.33872400  0.26397400  1
  C  C5  1  0.47995100  0.33872400  0.76397400  1
  C  C6  1  0.97995100  0.66127600  0.73602600  1
  C  C7  1  0.52004900  0.66127600  0.23602600  1
  S  S0  1  0.33407300  0.26769100  0.47292800  1
  S  S1  1  0.16592700  0.26769100  0.97292800  1
  S  S2  1  0.66592700  0.73230900  0.52707200  1
  S  S3  1  0.83407300  0.73230900  0.02707200  1
  N  N0  1  0.82985100  0.05155300  0.18118300  1
  N  N1  1  0.67014900  0.05155300  0.68118300  1
  N  N2  1  0.17014900  0.94844700  0.81881700  1
  N  N3  1  0.32985100  0.94844700  0.31881700  1
  O  O0  1  0.50438000  0.27673100  0.48331600  1
  O  O1  1  0.99562000  0.27673100  0.98331600  1
  O  O2  1  0.49562000  0.72326900  0.51668400  1
  O  O3  1  0.00438000  0.72326900  0.01668400  1
  O  O4  1  0.25940400  0.41489500  0.51325700  1
  O  O5  1  0.24059600  0.41489500  0.01325700  1
  O  O6  1  0.74059600  0.58510500  0.48674300  1
  O  O7  1  0.75940400  0.58510500  0.98674300  1
  O  O8  1  0.29139800  0.33551800  0.37415900  1
  O  O9  1  0.20860200  0.33551800  0.87415900  1
  O  O10  1  0.70860200  0.66448200  0.62584100  1
  O  O11  1  0.79139800  0.66448200  0.12584100  1
  O  O12  1  0.28005800  0.04115600  0.53088800  1
  O  O13  1  0.21994200  0.04115600  0.03088800  1
  O  O14  1  0.71994200  0.95884400  0.46911200  1
  O  O15  1  0.78005800  0.95884400  0.96911200  1
  O  O16  1  0.93930200  0.61085200  0.33644600  1
  O  O17  1  0.56069800  0.61085200  0.83644600  1
  O  O18  1  0.06069800  0.38914800  0.66355400  1
  O  O19  1  0.43930200  0.38914800  0.16355400  1
  O  O20  1  0.93296000  0.21879900  0.32415900  1
  O  O21  1  0.56704000  0.21879900  0.82415900  1
  O  O22  1  0.06704000  0.78120100  0.67584100  1
  O  O23  1  0.43296000  0.78120100  0.17584100  1
  O  O24  1  0.10470000  0.34347400  0.20010300  1
  O  O25  1  0.39530000  0.34347400  0.70010300  1
  O  O26  1  0.89530000  0.65652600  0.79989700  1
  O  O27  1  0.60470000  0.65652600  0.29989700  1
  O  O28  1  0.11409000  0.73538200  0.21476500  1
  O  O29  1  0.38591000  0.73538200  0.71476500  1
  O  O30  1  0.88591000  0.26461800  0.78523500  1
  O  O31  1  0.61409000  0.26461800  0.28523500  1
  O  O32  1  0.92818200  0.21068600  0.53417800  1
  O  O33  1  0.57181800  0.21068600  0.03417800  1
  O  O34  1  0.07181800  0.78931400  0.46582200  1
  O  O35  1  0.42818200  0.78931400  0.96582200  1
loop_
_geom_bond_atom_site_label_1
_geom_bond_atom_site_label_2
_geom_bond_distance
_geom_bond_site_symmetry_2
H0 O32 0.974633 1_555
H1 O33 0.974633 1_555
H2 O34 0.974633 1_555
H3 O35 0.974633 1_555
H4 O32 0.982025 1_455
H5 O33 0.982025 1_555
H6 O34 0.982025 1_655
H7 O35 0.982025 1_555
C0 O28 1.221076 1_555
C0 O16 1.229619 1_455
C1 O29 1.221076 1_555
C1 O17 1.229619 1_555
C2 O30 1.221076 1_555
C2 O18 1.229619 1_655
C3 O31 1.221076 1_555
C3 O19 1.229619 1_555
C4 O20 1.221884 1_455
C4 O24 1.224675 1_555
C5 O21 1.221884 1_555
C5 O25 1.224675 1_555
C6 O22 1.221884 1_655
C6 O26 1.224675 1_555
C7 O23 1.221884 1_555
C7 O27 1.224675 1_555
O0 S0 1.498586 1_555
O0 Tb0 2.221237 1_555
O1 S1 1.498586 1_655
O1 Tb1 2.221237 1_555
O2 S2 1.498586 1_555
O2 Tb2 2.221237 1_555
O3 S3 1.498586 1_455
O3 Tb3 2.221237 1_555
O4 S0 1.501144 1_555
O4 Tb2 2.338139 1_555
O5 S1 1.501144 1_554
O5 Tb3 2.338139 1_555
O6 S2 1.501144 1_555
O6 Tb0 2.338139 1_555
O7 S3 1.501144 1_556
O7 Tb1 2.338139 1_555
O8 S0 1.461125 1_555
O9 S1 1.461125 1_555
O10 S2 1.461125 1_555
O11 S3 1.461125 1_555
O12 S0 1.490991 1_555
O12 Tb2 2.281286 1_545
O13 S1 1.490991 1_554
O13 Tb3 2.281286 1_545
O14 S2 1.490991 1_555
O14 Tb0 2.281286 1_565
O15 S3 1.490991 1_556
O15 Tb1 2.281286 1_565
O16 Tb0 2.521765 1_555
O17 Tb1 2.521765 1_555
O18 Tb2 2.521765 1_555
O19 Tb3 2.521765 1_555
O20 Tb0 2.540782 1_555
O21 Tb1 2.540782 1_555
O22 Tb2 2.540782 1_555
O23 Tb3 2.540782 1_555
O24 Tb3 2.476599 1_555
O25 Tb2 2.476599 1_555
O26 Tb1 2.476599 1_555
O27 Tb0 2.476599 1_555
O28 Tb3 2.481911 1_555
O29 Tb2 2.481911 1_555
O30 Tb1 2.481911 1_555
O31 Tb0 2.481911 1_555
O32 Tb0 2.376622 1_555
O33 Tb1 2.376622 1_554
O34 Tb2 2.376622 1_555
O35 Tb3 2.376622 1_556
