# generated using pymatgen
data_CrSe2
_symmetry_space_group_name_H-M   'P 1'
_cell_length_a   7.15031234
_cell_length_b   7.13765511
_cell_length_c   7.17995017
_cell_angle_alpha   59.66441788
_cell_angle_beta   59.72182684
_cell_angle_gamma   59.90728791
_symmetry_Int_Tables_number   1
_chemical_formula_structural   CrSe2
_chemical_formula_sum   'Cr4 Se8'
_cell_volume   257.72367258
_cell_formula_units_Z   4
loop_
 _symmetry_equiv_pos_site_id
 _symmetry_equiv_pos_as_xyz
  1  'x, y, z'
loop_
 _atom_site_type_symbol
 _atom_site_label
 _atom_site_symmetry_multiplicity
 _atom_site_fract_x
 _atom_site_fract_y
 _atom_site_fract_z
 _atom_site_occupancy
  Cr  Cr0  1  0.49748600  0.00578000  0.49841000  1
  Cr  Cr1  1  0.00435100  0.49760300  0.49900400  1
  Cr  Cr2  1  0.49938300  0.49868100  0.49911800  1
  Cr  Cr3  1  0.49921800  0.49861700  0.00318100  1
  Se  Se0  1  0.24997000  0.25151400  0.25238100  1
  Se  Se1  1  0.74816900  0.74770300  0.25956000  1
  Se  Se2  1  0.25685900  0.74575200  0.74873500  1
  Se  Se3  1  0.74687900  0.25555900  0.74881600  1
  Se  Se4  1  0.74653100  0.25382800  0.24971100  1
  Se  Se5  1  0.25298200  0.74554700  0.25076300  1
  Se  Se6  1  0.25002600  0.25162900  0.74570500  1
  Se  Se7  1  0.74814900  0.74778800  0.74461700  1
loop_
_geom_bond_atom_site_label_1
_geom_bond_atom_site_label_2
_geom_bond_distance
_geom_bond_site_symmetry_2
Cr0 Se6 2.495654 1_555
Cr0 Se0 2.497812 1_555
Cr0 Se4 2.501172 1_555
Cr0 Se7 2.515030 1_545
Cr0 Se1 2.515408 1_545
Cr0 Se2 2.519863 1_545
Cr1 Se6 2.491856 1_555
Cr1 Se0 2.493503 1_555
Cr1 Se5 2.498565 1_555
Cr1 Se1 2.508821 1_455
Cr1 Se7 2.509482 1_455
Cr1 Se3 2.514093 1_455
Cr2 Se6 2.497818 1_555
Cr2 Se4 2.501419 1_555
Cr2 Se5 2.503932 1_555
Cr2 Se1 2.505859 1_555
Cr2 Se2 2.514185 1_555
Cr2 Se3 2.516834 1_555
Cr3 Se0 2.497449 1_555
Cr3 Se4 2.499413 1_555
Cr3 Se5 2.502629 1_555
Cr3 Se7 2.506964 1_554
Cr3 Se2 2.514781 1_554
Cr3 Se3 2.517847 1_554
