# generated using pymatgen
data_Zn3In
_symmetry_space_group_name_H-M   'P 1'
_cell_length_a   7.00076023
_cell_length_b   7.00076023
_cell_length_c   4.53184000
_cell_angle_alpha   90.00000000
_cell_angle_beta   90.00000000
_cell_angle_gamma   136.99592223
_symmetry_Int_Tables_number   1
_chemical_formula_structural   Zn3In
_chemical_formula_sum   'Zn6 In2'
_cell_volume   151.48912239
_cell_formula_units_Z   2
loop_
 _symmetry_equiv_pos_site_id
 _symmetry_equiv_pos_as_xyz
  1  'x, y, z'
loop_
 _atom_site_type_symbol
 _atom_site_label
 _atom_site_symmetry_multiplicity
 _atom_site_fract_x
 _atom_site_fract_y
 _atom_site_fract_z
 _atom_site_occupancy
  Zn  Zn0  1  0.88460100  0.11539900  0.75000000  1
  Zn  Zn1  1  0.32892100  0.18452200  0.75000000  1
  Zn  Zn2  1  0.81547800  0.67107900  0.75000000  1
  Zn  Zn3  1  0.11539900  0.88460100  0.25000000  1
  Zn  Zn4  1  0.67107900  0.81547800  0.25000000  1
  Zn  Zn5  1  0.18452200  0.32892100  0.25000000  1
  In  In0  1  0.70532400  0.29467600  0.25000000  1
  In  In1  1  0.29467600  0.70532400  0.75000000  1
loop_
_geom_bond_atom_site_label_1
_geom_bond_atom_site_label_2
_geom_bond_distance
_geom_bond_site_symmetry_2
Zn0 Zn4 2.680842 1_546
Zn0 Zn4 2.680842 1_545
Zn0 Zn5 2.680842 1_656
Zn0 Zn5 2.680842 1_655
Zn0 Zn1 2.776377 1_655
Zn0 Zn2 2.776377 1_545
Zn1 Zn2 2.497029 1_555
Zn1 Zn2 2.635009 1_445
Zn1 Zn3 2.680842 1_546
Zn1 Zn3 2.680842 1_545
Zn1 Zn5 2.944982 1_555
Zn1 Zn5 2.944982 1_556
Zn2 Zn3 2.680842 1_656
Zn2 Zn3 2.680842 1_655
Zn2 Zn4 2.944982 1_556
Zn2 Zn4 2.944982 1_555
Zn3 Zn4 2.776377 1_455
Zn3 Zn5 2.776377 1_565
Zn4 Zn5 2.497029 1_555
Zn4 Zn5 2.635009 1_665
In0 Zn3 2.820775 1_545
In0 Zn3 2.820775 1_655
In0 Zn1 3.114597 1_555
In0 Zn2 3.114597 1_555
In0 Zn2 3.114597 1_554
In0 Zn1 3.114597 1_554
In0 Zn4 3.183628 1_545
In0 Zn5 3.183628 1_655
In0 Zn0 3.254035 1_554
In0 Zn0 3.254035 1_555
In1 Zn0 2.820775 1_455
In1 Zn0 2.820775 1_565
In1 Zn4 3.114597 1_555
In1 Zn5 3.114597 1_555
In1 Zn4 3.114597 1_556
In1 Zn5 3.114597 1_556
In1 Zn2 3.183628 1_455
In1 Zn1 3.183628 1_565
In1 Zn3 3.254035 1_555
In1 Zn3 3.254035 1_556
