# generated using pymatgen
data_OsRu
_symmetry_space_group_name_H-M   'P 1'
_cell_length_a   5.45402092
_cell_length_b   5.45402092
_cell_length_c   8.60064012
_cell_angle_alpha   90.00000000
_cell_angle_beta   90.00000000
_cell_angle_gamma   119.99934834
_symmetry_Int_Tables_number   1
_chemical_formula_structural   OsRu
_chemical_formula_sum   'Os8 Ru8'
_cell_volume   221.56331675
_cell_formula_units_Z   8
loop_
 _symmetry_equiv_pos_site_id
 _symmetry_equiv_pos_as_xyz
  1  'x, y, z'
loop_
 _atom_site_type_symbol
 _atom_site_label
 _atom_site_symmetry_multiplicity
 _atom_site_fract_x
 _atom_site_fract_y
 _atom_site_fract_z
 _atom_site_occupancy
  Os  Os0_0  1  0.33334089  0.16665911  0.37500000  1
  Os  Os0_1  1  0.33334089  0.16665911  0.87500000  1
  Os  Os0_2  1  0.33334089  0.66665911  0.37500000  1
  Os  Os0_3  1  0.33334089  0.66665911  0.87500000  1
  Os  Os0_4  1  0.83334089  0.16665911  0.37500000  1
  Os  Os0_5  1  0.83334089  0.16665911  0.87500000  1
  Os  Os0_6  1  0.83334089  0.66665911  0.37500000  1
  Os  Os0_7  1  0.83334089  0.66665911  0.87500000  1
  Ru  Ru0_0  1  0.16665911  0.33334089  0.12500000  1
  Ru  Ru0_1  1  0.16665911  0.33334089  0.62500000  1
  Ru  Ru0_2  1  0.16665911  0.83334089  0.12500000  1
  Ru  Ru0_3  1  0.16665911  0.83334089  0.62500000  1
  Ru  Ru0_4  1  0.66665911  0.33334089  0.12500000  1
  Ru  Ru0_5  1  0.66665911  0.33334089  0.62500000  1
  Ru  Ru0_6  1  0.66665911  0.83334089  0.12500000  1
  Ru  Ru0_7  1  0.66665911  0.83334089  0.62500000  1
loop_
_geom_bond_atom_site_label_1
_geom_bond_atom_site_label_2
_geom_bond_distance
_geom_bond_site_symmetry_2
Os0_0 Ru0_3 2.664931 1_545
Os0_0 Ru0_4 2.664931 1_555
Os0_0 Ru0_2 2.664931 1_545
Os0_0 Ru0_5 2.664931 1_555
Os0_0 Ru0_0 2.665048 1_555
Os0_0 Ru0_1 2.665048 1_555
Os0_0 Os0_4 2.727010 1_555
Os0_0 Os0_2 2.727010 1_545
Os0_0 Os0_2 2.727010 1_555
Os0_0 Os0_4 2.727010 1_455
Os0_0 Os0_6 2.727037 1_555
Os0_0 Os0_6 2.727037 1_445
Os0_1 Ru0_3 2.664931 1_545
Os0_1 Ru0_4 2.664931 1_556
Os0_1 Ru0_5 2.664931 1_555
Os0_1 Ru0_2 2.664931 1_546
Os0_1 Ru0_0 2.665048 1_556
Os0_1 Ru0_1 2.665048 1_555
Os0_1 Os0_3 2.727010 1_545
Os0_1 Os0_5 2.727010 1_455
Os0_1 Os0_3 2.727010 1_555
Os0_1 Os0_5 2.727010 1_555
Os0_1 Os0_7 2.727037 1_555
Os0_1 Os0_7 2.727037 1_445
Os0_2 Ru0_6 2.664931 1_555
Os0_2 Ru0_0 2.664931 1_555
Os0_2 Ru0_7 2.664931 1_555
Os0_2 Ru0_1 2.664931 1_555
Os0_2 Ru0_2 2.665048 1_555
Os0_2 Ru0_3 2.665048 1_555
Os0_2 Os0_6 2.727010 1_455
Os0_2 Os0_6 2.727010 1_555
Os0_2 Os0_4 2.727037 1_565
Os0_2 Os0_4 2.727037 1_455
Os0_3 Ru0_0 2.664931 1_556
Os0_3 Ru0_1 2.664931 1_555
Os0_3 Ru0_7 2.664931 1_555
Os0_3 Ru0_6 2.664931 1_556
Os0_3 Ru0_3 2.665048 1_555
Os0_3 Ru0_2 2.665048 1_556
Os0_3 Os0_7 2.727010 1_555
Os0_3 Os0_7 2.727010 1_455
Os0_3 Os0_5 2.727037 1_565
Os0_3 Os0_5 2.727037 1_455
Os0_4 Ru0_1 2.664931 1_655
Os0_4 Ru0_0 2.664931 1_655
Os0_4 Ru0_6 2.664931 1_545
Os0_4 Ru0_7 2.664931 1_545
Os0_4 Ru0_4 2.665048 1_555
Os0_4 Ru0_5 2.665048 1_555
Os0_4 Os0_6 2.727010 1_545
Os0_4 Os0_6 2.727010 1_555
Os0_5 Ru0_1 2.664931 1_655
Os0_5 Ru0_0 2.664931 1_656
Os0_5 Ru0_6 2.664931 1_546
Os0_5 Ru0_7 2.664931 1_545
Os0_5 Ru0_4 2.665048 1_556
Os0_5 Ru0_5 2.665048 1_555
Os0_5 Os0_7 2.727010 1_555
Os0_5 Os0_7 2.727010 1_545
Os0_6 Ru0_2 2.664931 1_655
Os0_6 Ru0_3 2.664931 1_655
Os0_6 Ru0_4 2.664931 1_555
Os0_6 Ru0_5 2.664931 1_555
Os0_6 Ru0_6 2.665048 1_555
Os0_6 Ru0_7 2.665048 1_555
Os0_7 Ru0_2 2.664931 1_656
Os0_7 Ru0_3 2.664931 1_655
Os0_7 Ru0_4 2.664931 1_556
Os0_7 Ru0_5 2.664931 1_555
Os0_7 Ru0_6 2.665048 1_556
Os0_7 Ru0_7 2.665048 1_555
Ru0_0 Ru0_2 2.727010 1_545
Ru0_0 Ru0_2 2.727010 1_555
Ru0_0 Ru0_4 2.727010 1_555
Ru0_0 Ru0_4 2.727010 1_455
Ru0_0 Ru0_6 2.727037 1_555
Ru0_0 Ru0_6 2.727037 1_445
Ru0_1 Ru0_5 2.727010 1_455
Ru0_1 Ru0_5 2.727010 1_555
Ru0_1 Ru0_3 2.727010 1_555
Ru0_1 Ru0_3 2.727010 1_545
Ru0_1 Ru0_7 2.727037 1_445
Ru0_1 Ru0_7 2.727037 1_555
Ru0_2 Ru0_6 2.727010 1_455
Ru0_2 Ru0_6 2.727010 1_555
Ru0_2 Ru0_4 2.727037 1_455
Ru0_2 Ru0_4 2.727037 1_565
Ru0_3 Ru0_7 2.727010 1_455
Ru0_3 Ru0_7 2.727010 1_555
Ru0_3 Ru0_5 2.727037 1_455
Ru0_3 Ru0_5 2.727037 1_565
Ru0_4 Ru0_6 2.727010 1_545
Ru0_4 Ru0_6 2.727010 1_555
Ru0_5 Ru0_7 2.727010 1_555
Ru0_5 Ru0_7 2.727010 1_545
