# generated using pymatgen
data_Mn2GaNi
_symmetry_space_group_name_H-M   'P 1'
_cell_length_a   3.92044577
_cell_length_b   3.92044577
_cell_length_c   4.47130497
_cell_angle_alpha   63.99810479
_cell_angle_beta   63.99810479
_cell_angle_gamma   90.00000000
_symmetry_Int_Tables_number   1
_chemical_formula_structural   Mn2GaNi
_chemical_formula_sum   'Mn2 Ga1 Ni1'
_cell_volume   53.92098223
_cell_formula_units_Z   1
loop_
 _symmetry_equiv_pos_site_id
 _symmetry_equiv_pos_as_xyz
  1  'x, y, z'
loop_
 _atom_site_type_symbol
 _atom_site_label
 _atom_site_symmetry_multiplicity
 _atom_site_fract_x
 _atom_site_fract_y
 _atom_site_fract_z
 _atom_site_occupancy
  Mn  Mn0  1  0.50000000  0.50000000  0.00000000  1
  Mn  Mn1  1  0.75000000  0.25000000  0.50000000  1
  Ga  Ga0  1  0.00000000  0.00000000  -0.00000000  1
  Ni  Ni0  1  0.25000000  0.75000000  0.50000000  1
loop_
_geom_bond_atom_site_label_1
_geom_bond_atom_site_label_2
_geom_bond_distance
_geom_bond_site_symmetry_2
Mn0 Mn1 2.630470 1_564
Mn0 Mn1 2.630470 1_455
Mn0 Ni0 2.630470 1_545
Mn0 Ni0 2.630470 1_654
Mn0 Ni0 2.630471 1_554
Mn0 Mn1 2.630471 1_555
Mn0 Mn1 2.630471 1_554
Mn0 Ni0 2.630471 1_555
Mn1 Ni0 2.772174 1_645
Mn1 Ni0 2.772174 1_545
Mn1 Ni0 2.772174 1_555
Mn1 Ni0 2.772174 1_655
Ga0 Mn1 2.630470 1_445
Ga0 Mn1 2.630470 1_554
Ga0 Ni0 2.630470 1_445
Ga0 Ni0 2.630470 1_554
Ga0 Ni0 2.630471 1_544
Ga0 Ni0 2.630471 1_545
Ga0 Mn1 2.630471 1_455
Ga0 Mn1 2.630471 1_454
Ga0 Mn0 2.772174 1_555
Ga0 Mn0 2.772174 1_445
Ga0 Mn0 2.772174 1_545
Ga0 Mn0 2.772174 1_455
