# generated using pymatgen
data_ZrW2O11
_symmetry_space_group_name_H-M   'P 1'
_cell_length_a   10.39749559
_cell_length_b   10.39749559
_cell_length_c   10.39749559
_cell_angle_alpha   111.85269042
_cell_angle_beta   111.85269042
_cell_angle_gamma   104.80658852
_symmetry_Int_Tables_number   1
_chemical_formula_structural   ZrW2O11
_chemical_formula_sum   'Zr4 W8 O44'
_cell_volume   861.04012786
_cell_formula_units_Z   4
loop_
 _symmetry_equiv_pos_site_id
 _symmetry_equiv_pos_as_xyz
  1  'x, y, z'
loop_
 _atom_site_type_symbol
 _atom_site_label
 _atom_site_symmetry_multiplicity
 _atom_site_fract_x
 _atom_site_fract_y
 _atom_site_fract_z
 _atom_site_occupancy
  Zr  Zr0  1  0.50624600  0.00624600  0.50000000  1
  Zr  Zr1  1  0.75624600  0.75624600  0.00000000  1
  Zr  Zr2  1  0.00624600  0.50624600  0.50000000  1
  Zr  Zr3  1  0.25624600  0.25624600  0.00000000  1
  W  W0  1  0.14574100  0.01263600  0.20144300  1
  W  W1  1  0.81119300  0.94429800  0.79855700  1
  W  W2  1  0.69429800  0.39574100  0.63310600  1
  W  W3  1  0.31119300  0.51263600  0.86689400  1
  W  W4  1  0.76263600  0.06119300  0.36689400  1
  W  W5  1  0.64574100  0.44429800  0.13310600  1
  W  W6  1  0.26263600  0.89574100  0.70144300  1
  W  W7  1  0.19429800  0.56119300  0.29855700  1
  O  O0  1  0.36588300  0.96808400  0.60176000  1
  O  O1  1  0.36632400  0.76412300  0.39824000  1
  O  O2  1  0.51412300  0.61588300  0.89779900  1
  O  O3  1  0.86632400  0.46808400  0.60220100  1
  O  O4  1  0.71808400  0.61632400  0.10220100  1
  O  O5  1  0.86588300  0.26412300  0.39779900  1
  O  O6  1  0.21808400  0.11588300  0.10176000  1
  O  O7  1  0.01412300  0.11632400  0.89824000  1
  O  O8  1  0.99971400  0.83340000  0.18037800  1
  O  O9  1  0.65302200  0.81933500  0.81962200  1
  O  O10  1  0.56933500  0.24971400  0.66631300  1
  O  O11  1  0.15302200  0.33340000  0.83368700  1
  O  O12  1  0.58340000  0.90302200  0.33368700  1
  O  O13  1  0.49971400  0.31933500  0.16631300  1
  O  O14  1  0.08340000  0.74971400  0.68037800  1
  O  O15  1  0.06933500  0.40302200  0.31962200  1
  O  O16  1  0.25981200  0.07992900  0.81908200  1
  O  O17  1  0.26084700  0.44073000  0.18091800  1
  O  O18  1  0.19073000  0.50981200  0.67988300  1
  O  O19  1  0.76084700  0.57992900  0.82011700  1
  O  O20  1  0.82992900  0.51084700  0.32011700  1
  O  O21  1  0.75981200  0.94073000  0.17988300  1
  O  O22  1  0.32992900  0.00981200  0.31908200  1
  O  O23  1  0.69073000  0.01084700  0.68091800  1
  O  O24  1  0.18203000  0.68203000  0.50000000  1
  O  O25  1  0.43203000  0.43203000  0.00000000  1
  O  O26  1  0.68203000  0.18203000  0.50000000  1
  O  O27  1  0.93203000  0.93203000  0.00000000  1
  O  O28  1  0.28285700  0.28953900  0.69299900  1
  O  O29  1  0.59654000  0.58985800  0.30700100  1
  O  O30  1  0.33985800  0.53285700  0.49331800  1
  O  O31  1  0.09654000  0.78953900  0.00668200  1
  O  O32  1  0.03953900  0.84654000  0.50668200  1
  O  O33  1  0.78285700  0.08985800  0.99331800  1
  O  O34  1  0.53953900  0.03285700  0.19299900  1
  O  O35  1  0.83985800  0.34654000  0.80700100  1
  O  O36  1  0.14468100  0.16099400  0.35421400  1
  O  O37  1  0.80678000  0.79046600  0.64578600  1
  O  O38  1  0.54046600  0.39468100  0.48368700  1
  O  O39  1  0.30678000  0.66099400  0.01631300  1
  O  O40  1  0.91099400  0.05678000  0.51631300  1
  O  O41  1  0.64468100  0.29046600  0.98368700  1
  O  O42  1  0.41099400  0.89468100  0.85421400  1
  O  O43  1  0.04046600  0.55678000  0.14578600  1
loop_
_geom_bond_atom_site_label_1
_geom_bond_atom_site_label_2
_geom_bond_distance
_geom_bond_site_symmetry_2
O0 W6 1.946382 1_555
O0 Zr0 2.138436 1_565
O1 W7 1.946382 1_555
O1 Zr0 2.138436 1_565
O2 W3 1.946377 1_555
O2 Zr1 2.138436 1_556
O3 W2 1.946389 1_555
O3 Zr2 2.138436 1_655
O4 W5 1.946389 1_555
O4 Zr1 2.138436 1_555
O5 W4 1.946377 1_555
O5 Zr2 2.138436 1_655
O6 W0 1.946382 1_555
O6 Zr3 2.138436 1_555
O7 W1 1.946382 1_445
O7 Zr3 2.138436 1_556
O8 W0 1.956690 1_665
O8 Zr1 2.208363 1_555
O9 W1 1.956695 1_555
O9 Zr1 2.208355 1_556
O10 W2 1.956681 1_555
O10 Zr0 2.208363 1_555
O11 W3 1.956700 1_555
O11 Zr3 2.208355 1_556
O12 W4 1.956700 1_565
O12 Zr0 2.208355 1_565
O13 W5 1.956681 1_555
O13 Zr3 2.208363 1_555
O14 W6 1.956690 1_555
O14 Zr2 2.208363 1_555
O15 W7 1.956695 1_555
O15 Zr2 2.208355 1_555
O16 W6 1.864458 1_545
O16 Zr3 2.102415 1_556
O17 W7 1.864458 1_555
O17 Zr3 2.102415 1_555
O18 W3 1.864450 1_555
O18 Zr2 2.102415 1_555
O19 W2 1.864452 1_555
O19 Zr1 2.102415 1_556
O20 W5 1.864452 1_555
O20 Zr2 2.102415 1_655
O21 W4 1.864450 1_565
O21 Zr1 2.102415 1_555
O22 W0 1.864458 1_555
O22 Zr0 2.102415 1_555
O23 W1 1.864458 1_545
O23 Zr0 2.102415 1_555
O24 W6 2.074496 1_555
O24 W7 2.074496 1_555
O24 Zr2 2.230174 1_555
O25 W5 2.074498 1_555
O25 W3 2.074502 1_554
O25 Zr3 2.230174 1_555
O26 W2 2.074498 1_555
O26 W4 2.074502 1_555
O26 Zr0 2.230174 1_555
O27 W1 2.074496 1_554
O27 W0 2.074496 1_665
O27 Zr1 2.230174 1_555
O28 W3 2.206483 1_555
O29 W5 2.206480 1_555
O30 W7 2.206487 1_555
O31 W0 2.206487 1_565
O32 W6 2.206487 1_555
O33 W1 2.206487 1_545
O34 W4 2.206483 1_555
O35 W2 2.206480 1_555
O36 W0 1.760787 1_555
O37 W1 1.760793 1_555
O38 W2 1.760798 1_555
O39 W3 1.760793 1_554
O40 W4 1.760793 1_555
O41 W5 1.760798 1_556
O42 W6 1.760787 1_555
O43 W7 1.760793 1_555
