# generated using pymatgen
data_RbCeMg14
_symmetry_space_group_name_H-M   'P 1'
_cell_length_a   6.69135969
_cell_length_b   6.64400662
_cell_length_c   10.75335284
_cell_angle_alpha   90.00000000
_cell_angle_beta   90.00000000
_cell_angle_gamma   119.76618354
_symmetry_Int_Tables_number   1
_chemical_formula_structural   RbCeMg14
_chemical_formula_sum   'Rb1 Ce1 Mg14'
_cell_volume   414.98976212
_cell_formula_units_Z   1
loop_
 _symmetry_equiv_pos_site_id
 _symmetry_equiv_pos_as_xyz
  1  'x, y, z'
loop_
 _atom_site_type_symbol
 _atom_site_label
 _atom_site_symmetry_multiplicity
 _atom_site_fract_x
 _atom_site_fract_y
 _atom_site_fract_z
 _atom_site_occupancy
  Rb  Rb0  1  0.16883826  0.83441863  0.12500000  1
  Ce  Ce0  1  0.17860250  0.33930075  0.12500000  1
  Mg  Mg0  1  0.16038474  0.33019187  0.62500000  1
  Mg  Mg1  1  0.16341464  0.83170682  0.62500000  1
  Mg  Mg2  1  0.66795427  0.32933509  0.12500000  1
  Mg  Mg3  1  0.66882041  0.33275471  0.62500000  1
  Mg  Mg4  1  0.66795427  0.83861818  0.12500000  1
  Mg  Mg5  1  0.66882041  0.83606470  0.62500000  1
  Mg  Mg6  1  0.33806508  0.17547852  0.39365555  1
  Mg  Mg7  1  0.33806508  0.17547852  0.85634445  1
  Mg  Mg8  1  0.33806508  0.66258756  0.39365555  1
  Mg  Mg9  1  0.33806508  0.66258756  0.85634445  1
  Mg  Mg10  1  0.83179362  0.16589731  0.37745936  1
  Mg  Mg11  1  0.83179362  0.16589731  0.87254064  1
  Mg  Mg12  1  0.81968147  0.65984123  0.38534394  1
  Mg  Mg13  1  0.81968147  0.65984123  0.86465606  1
loop_
_geom_bond_atom_site_label_1
_geom_bond_atom_site_label_2
_geom_bond_distance
_geom_bond_site_symmetry_2
Ce0 Mg4 3.307799 1_555
Ce0 Mg2 3.307800 1_555
Ce0 Rb0 3.322487 1_545
Ce0 Rb0 3.322487 1_555
Ce0 Mg10 3.380534 1_455
Ce0 Mg11 3.380534 1_454
Ce0 Mg4 3.384547 1_445
Ce0 Mg2 3.384547 1_455
Ce0 Mg7 3.438374 1_554
Ce0 Mg6 3.438374 1_555
Ce0 Mg9 3.438380 1_554
Ce0 Mg8 3.438380 1_555
Mg0 Mg7 3.142039 1_555
Mg0 Mg6 3.142039 1_555
Mg0 Mg8 3.142046 1_555
Mg0 Mg9 3.142046 1_555
Mg0 Mg10 3.275438 1_455
Mg0 Mg11 3.275438 1_455
Mg0 Mg5 3.297720 1_445
Mg0 Mg3 3.297720 1_455
Mg0 Mg1 3.322050 1_555
Mg0 Mg1 3.322050 1_545
Mg0 Mg5 3.393704 1_555
Mg0 Mg3 3.393705 1_555
Mg1 Mg8 3.181338 1_555
Mg1 Mg9 3.181338 1_555
Mg1 Mg6 3.181345 1_565
Mg1 Mg7 3.181345 1_565
Mg1 Mg12 3.260027 1_455
Mg1 Mg13 3.260027 1_455
Mg1 Mg3 3.323977 1_455
Mg1 Mg5 3.323977 1_455
Mg1 Mg3 3.367571 1_565
Mg1 Mg5 3.367571 1_555
Mg2 Mg4 3.260326 1_545
Mg2 Rb0 3.326000 1_545
Mg2 Rb0 3.365534 1_655
Mg2 Mg4 3.383680 1_555
Mg2 Mg7 3.467436 1_554
Mg2 Mg6 3.467436 1_555
Mg3 Mg6 3.143670 1_555
Mg3 Mg7 3.143670 1_555
Mg3 Mg5 3.300012 1_545
Mg3 Mg5 3.343995 1_555
Mg4 Rb0 3.326001 1_555
Mg4 Rb0 3.365534 1_655
Mg4 Mg9 3.467436 1_554
Mg4 Mg8 3.467436 1_555
Mg5 Mg8 3.143670 1_555
Mg5 Mg9 3.143670 1_555
Mg6 Mg8 3.236356 1_555
Mg6 Mg8 3.407651 1_545
Mg6 Rb0 3.495034 1_545
Mg7 Mg9 3.236356 1_555
Mg7 Mg9 3.407651 1_545
Mg7 Rb0 3.495034 1_546
Mg8 Rb0 3.495027 1_555
Mg9 Rb0 3.495027 1_556
Mg10 Mg3 3.271738 1_555
Mg10 Mg5 3.271745 1_545
Mg10 Mg2 3.306527 1_555
Mg10 Mg4 3.306534 1_545
Mg10 Mg12 3.323830 1_555
Mg10 Mg12 3.323830 1_545
Mg10 Mg8 3.340320 1_545
Mg10 Mg6 3.340320 1_555
Mg10 Mg8 3.361011 1_655
Mg10 Mg6 3.361011 1_655
Mg11 Mg3 3.271738 1_555
Mg11 Mg5 3.271745 1_545
Mg11 Mg2 3.306527 1_556
Mg11 Mg4 3.306534 1_546
Mg11 Mg13 3.323830 1_555
Mg11 Mg13 3.323830 1_545
Mg11 Mg9 3.340320 1_545
Mg11 Mg7 3.340320 1_555
Mg11 Mg9 3.361011 1_655
Mg11 Mg7 3.361011 1_655
Mg12 Mg5 3.194509 1_555
Mg12 Mg3 3.194516 1_555
Mg12 Mg6 3.233001 1_555
Mg12 Mg8 3.233002 1_555
Mg12 Mg4 3.387712 1_555
Mg12 Mg2 3.387719 1_555
Mg12 Rb0 3.456976 1_655
Mg12 Mg6 3.460823 1_665
Mg12 Mg8 3.460823 1_655
Mg13 Mg5 3.194509 1_555
Mg13 Mg3 3.194516 1_555
Mg13 Mg7 3.233001 1_555
Mg13 Mg9 3.233002 1_555
Mg13 Mg4 3.387712 1_556
Mg13 Mg2 3.387719 1_556
Mg13 Rb0 3.456976 1_656
Mg13 Mg7 3.460823 1_665
Mg13 Mg9 3.460823 1_655
