# generated using pymatgen
data_Li2VPb2
_symmetry_space_group_name_H-M   'P 1'
_cell_length_a   3.60831900
_cell_length_b   7.52534900
_cell_length_c   7.52534900
_cell_angle_alpha   90.00000000
_cell_angle_beta   90.00000000
_cell_angle_gamma   90.00000000
_symmetry_Int_Tables_number   1
_chemical_formula_structural   Li2VPb2
_chemical_formula_sum   'Li4 V2 Pb4'
_cell_volume   204.34227153
_cell_formula_units_Z   2
loop_
 _symmetry_equiv_pos_site_id
 _symmetry_equiv_pos_as_xyz
  1  'x, y, z'
loop_
 _atom_site_type_symbol
 _atom_site_label
 _atom_site_symmetry_multiplicity
 _atom_site_fract_x
 _atom_site_fract_y
 _atom_site_fract_z
 _atom_site_occupancy
  Li  Li0  1  0.00000000  0.62779900  0.12779900  1
  Li  Li1  1  0.00000000  0.37220100  0.87220100  1
  Li  Li2  1  0.00000000  0.87220100  0.62779900  1
  Li  Li3  1  0.00000000  0.12779900  0.37220100  1
  V  V0  1  0.00000000  0.00000000  0.00000000  1
  V  V1  1  0.00000000  0.50000000  0.50000000  1
  Pb  Pb0  1  0.50000000  0.17120600  0.67120600  1
  Pb  Pb1  1  0.50000000  0.82879400  0.32879400  1
  Pb  Pb2  1  0.50000000  0.32879400  0.17120600  1
  Pb  Pb3  1  0.50000000  0.67120600  0.82879400  1
loop_
_geom_bond_atom_site_label_1
_geom_bond_atom_site_label_2
_geom_bond_distance
_geom_bond_site_symmetry_2
Li0 Li1 2.720189 1_554
Li0 Pb1 2.798330 1_555
Li0 Pb1 2.798330 1_455
Li0 Pb2 2.902537 1_455
Li0 Pb2 2.902537 1_555
Li0 Pb3 2.902537 1_554
Li0 Pb3 2.902537 1_454
Li0 V0 2.961454 1_565
Li0 V1 2.961454 1_555
Li1 Pb0 2.798330 1_555
Li1 Pb0 2.798330 1_455
Li1 Pb2 2.902537 1_456
Li1 Pb2 2.902537 1_556
Li1 Pb3 2.902537 1_555
Li1 Pb3 2.902537 1_455
Li1 V1 2.961454 1_555
Li1 V0 2.961454 1_556
Li2 Li3 2.720189 1_565
Li2 Pb3 2.798330 1_455
Li2 Pb3 2.798330 1_555
Li2 Pb0 2.902537 1_465
Li2 Pb0 2.902537 1_565
Li2 Pb1 2.902537 1_555
Li2 Pb1 2.902537 1_455
Li2 V1 2.961454 1_555
Li2 V0 2.961454 1_566
Li3 Pb2 2.798330 1_555
Li3 Pb2 2.798330 1_455
Li3 Pb0 2.902537 1_555
Li3 Pb0 2.902537 1_455
Li3 Pb1 2.902537 1_445
Li3 Pb1 2.902537 1_545
Li3 V0 2.961454 1_555
Li3 V1 2.961454 1_555
Pb0 V0 3.322204 1_556
Pb0 V0 3.322204 1_656
Pb0 V1 3.322204 1_655
Pb0 V1 3.322204 1_555
Pb1 V1 3.322204 1_655
Pb1 V1 3.322204 1_555
Pb1 V0 3.322204 1_565
Pb1 V0 3.322204 1_665
Pb2 V0 3.322204 1_555
Pb2 V0 3.322204 1_655
Pb2 V1 3.322204 1_555
Pb2 V1 3.322204 1_655
Pb3 V1 3.322204 1_655
Pb3 V1 3.322204 1_555
Pb3 V0 3.322204 1_566
Pb3 V0 3.322204 1_666
