# generated using pymatgen
data_Li9Co7O16
_symmetry_space_group_name_H-M   'P 1'
_cell_length_a   2.94882300
_cell_length_b   9.77995313
_cell_length_c   10.12124620
_cell_angle_alpha   85.50390776
_cell_angle_beta   87.91565726
_cell_angle_gamma   83.20900484
_symmetry_Int_Tables_number   1
_chemical_formula_structural   Li9Co7O16
_chemical_formula_sum   'Li9 Co7 O16'
_cell_volume   288.84205857
_cell_formula_units_Z   1
loop_
 _symmetry_equiv_pos_site_id
 _symmetry_equiv_pos_as_xyz
  1  'x, y, z'
loop_
 _atom_site_type_symbol
 _atom_site_label
 _atom_site_symmetry_multiplicity
 _atom_site_fract_x
 _atom_site_fract_y
 _atom_site_fract_z
 _atom_site_occupancy
  Li  Li0  1  0.87803700  0.24414200  0.56185500  1
  Li  Li1  1  0.12196300  0.75585800  0.43814500  1
  Li  Li2  1  0.37854500  0.24776900  0.30867300  1
  Li  Li3  1  0.63394700  0.75115800  0.19084500  1
  Li  Li4  1  0.87271800  0.24950700  0.06176100  1
  Li  Li5  1  0.12728200  0.75049300  0.93823900  1
  Li  Li6  1  0.36605300  0.24884200  0.80915500  1
  Li  Li7  1  0.62145500  0.75223100  0.69132700  1
  Li  Li8  1  0.50000000  0.00000000  0.50000000  1
  Co  Co0  1  0.99816300  0.99997100  0.74257700  1
  Co  Co1  1  0.00183700  0.00002900  0.25742300  1
  Co  Co2  1  0.25053900  0.50033800  0.62492900  1
  Co  Co3  1  0.74946100  0.49966200  0.37507100  1
  Co  Co4  1  0.24931400  0.50036700  0.12473600  1
  Co  Co5  1  0.50000000  0.00000000  0.00000000  1
  Co  Co6  1  0.75068600  0.49963300  0.87526400  1
  O  O0  1  0.41603000  0.11533100  0.66377000  1
  O  O1  1  0.68088600  0.61694000  0.53711800  1
  O  O2  1  0.94085300  0.11382700  0.38354500  1
  O  O3  1  0.18335900  0.61441700  0.28758400  1
  O  O4  1  0.41180500  0.11457200  0.14948500  1
  O  O5  1  0.68191300  0.61648600  0.03704300  1
  O  O6  1  0.95019400  0.10985600  0.89669000  1
  O  O7  1  0.18673600  0.61431900  0.78838100  1
  O  O8  1  0.31911400  0.38306000  0.46288200  1
  O  O9  1  0.58397000  0.88466900  0.33623000  1
  O  O10  1  0.81326400  0.38568100  0.21161900  1
  O  O11  1  0.04980600  0.89014400  0.10331000  1
  O  O12  1  0.31808700  0.38351400  0.96295700  1
  O  O13  1  0.58819500  0.88542800  0.85051500  1
  O  O14  1  0.81664100  0.38558300  0.71241600  1
  O  O15  1  0.05914700  0.88617300  0.61645500  1
loop_
_geom_bond_atom_site_label_1
_geom_bond_atom_site_label_2
_geom_bond_distance
_geom_bond_site_symmetry_2
Li0 O14 2.125939 1_555
Li0 O0 2.146398 1_555
Li0 O0 2.147203 1_655
Li0 O8 2.156562 1_655
Li0 O8 2.223262 1_555
Li0 O2 2.279489 1_555
Li1 O3 2.125939 1_555
Li1 O9 2.146398 1_555
Li1 O9 2.147203 1_455
Li1 O1 2.156562 1_455
Li1 O1 2.223262 1_555
Li1 O15 2.279489 1_555
Li2 O2 2.032026 1_455
Li2 O2 2.112285 1_555
Li2 O8 2.113412 1_555
Li2 O10 2.130021 1_555
Li2 O4 2.142381 1_555
Li2 O10 2.223149 1_455
Li3 O9 2.032695 1_555
Li3 O11 2.064639 1_655
Li3 O5 2.106966 1_555
Li3 O3 2.152409 1_555
Li3 O3 2.183939 1_655
Li3 O11 2.228933 1_555
Li4 O10 2.084952 1_555
Li4 O4 2.116535 1_655
Li4 O4 2.128336 1_555
Li4 O12 2.132722 1_654
Li4 O12 2.190690 1_554
Li4 O6 2.228242 1_554
Li5 O7 2.084952 1_555
Li5 O13 2.116535 1_455
Li5 O13 2.128336 1_555
Li5 O5 2.132722 1_456
Li5 O5 2.190690 1_556
Li5 O11 2.228242 1_556
Li6 O0 2.032695 1_555
Li6 O6 2.064639 1_455
Li6 O12 2.106966 1_555
Li6 O14 2.152409 1_555
Li6 O14 2.183939 1_455
Li6 O6 2.228933 1_555
Li7 O15 2.032026 1_655
Li7 O15 2.112285 1_555
Li7 O1 2.113412 1_555
Li7 O7 2.130021 1_555
Li7 O13 2.142381 1_555
Li7 O7 2.223149 1_655
Li8 O0 2.068393 1_555
Li8 O9 2.068393 1_545
Li8 O15 2.084130 1_545
Li8 O2 2.084130 1_555
Li8 O15 2.201979 1_645
Li8 O2 2.201979 1_455
Co0 O15 1.749046 1_655
Co0 O0 1.882453 1_665
Co0 O6 1.954165 1_565
Co0 O13 1.985503 1_555
Co0 O0 2.087176 1_565
Co0 O13 2.227349 1_655
Co1 O2 1.749046 1_455
Co1 O9 1.882453 1_445
Co1 O11 1.954165 1_545
Co1 O4 1.985503 1_555
Co1 O9 2.087176 1_545
Co1 O4 2.227349 1_455
Co2 O14 1.944761 1_455
Co2 O1 1.949877 1_555
Co2 O7 2.057119 1_555
Co2 O8 2.064554 1_555
Co2 O14 2.083014 1_555
Co2 O1 2.099698 1_455
Co3 O3 1.944761 1_655
Co3 O8 1.949877 1_555
Co3 O10 2.057119 1_555
Co3 O1 2.064554 1_555
Co3 O3 2.083014 1_555
Co3 O8 2.099698 1_655
Co4 O10 1.946506 1_455
Co4 O5 1.951144 1_555
Co4 O3 2.052366 1_555
Co4 O12 2.059774 1_554
Co4 O10 2.075444 1_555
Co4 O5 2.092260 1_455
Co5 O4 1.944356 1_555
Co5 O13 1.944356 1_544
Co5 O6 2.017478 1_554
Co5 O11 2.017478 1_545
Co5 O6 2.100340 1_454
Co5 O11 2.100340 1_645
Co6 O7 1.946506 1_655
Co6 O12 1.951144 1_555
Co6 O14 2.052366 1_555
Co6 O5 2.059774 1_556
Co6 O7 2.075444 1_555
Co6 O12 2.092260 1_655
