# generated using pymatgen
data_BaMg6Cu
_symmetry_space_group_name_H-M   'P 1'
_cell_length_a   4.98936000
_cell_length_b   6.08331400
_cell_length_c   14.01878300
_cell_angle_alpha   90.00000000
_cell_angle_beta   90.00000000
_cell_angle_gamma   90.00000000
_symmetry_Int_Tables_number   1
_chemical_formula_structural   BaMg6Cu
_chemical_formula_sum   'Ba2 Mg12 Cu2'
_cell_volume   425.49590822
_cell_formula_units_Z   2
loop_
 _symmetry_equiv_pos_site_id
 _symmetry_equiv_pos_as_xyz
  1  'x, y, z'
loop_
 _atom_site_type_symbol
 _atom_site_label
 _atom_site_symmetry_multiplicity
 _atom_site_fract_x
 _atom_site_fract_y
 _atom_site_fract_z
 _atom_site_occupancy
  Ba  Ba0  1  0.50000000  0.50000000  0.20659300  1
  Ba  Ba1  1  0.50000000  0.00000000  0.70659300  1
  Mg  Mg0  1  0.50000000  0.24334200  0.44237200  1
  Mg  Mg1  1  0.50000000  0.75665800  0.44237200  1
  Mg  Mg2  1  0.00000000  0.75926200  0.07367900  1
  Mg  Mg3  1  0.00000000  0.24073800  0.07367900  1
  Mg  Mg4  1  0.00000000  0.00000000  0.28974900  1
  Mg  Mg5  1  0.00000000  0.50000000  0.37370600  1
  Mg  Mg6  1  0.50000000  0.74334200  0.94237200  1
  Mg  Mg7  1  0.50000000  0.25665800  0.94237200  1
  Mg  Mg8  1  0.00000000  0.25926200  0.57367900  1
  Mg  Mg9  1  0.00000000  0.74073800  0.57367900  1
  Mg  Mg10  1  0.00000000  0.50000000  0.78974900  1
  Mg  Mg11  1  0.00000000  0.00000000  0.87370600  1
  Cu  Cu0  1  0.50000000  0.00000000  0.09784700  1
  Cu  Cu1  1  0.50000000  0.50000000  0.59784700  1
loop_
_geom_bond_atom_site_label_1
_geom_bond_atom_site_label_2
_geom_bond_distance
_geom_bond_site_symmetry_2
Ba0 Cu0 3.402313 1_565
Ba0 Cu0 3.402313 1_555
Ba0 Mg5 3.422246 1_555
Ba0 Mg5 3.422246 1_655
Ba0 Mg2 3.490381 1_655
Ba0 Mg2 3.490381 1_555
Ba0 Mg3 3.490381 1_655
Ba0 Mg3 3.490381 1_555
Ba0 Mg1 3.655543 1_555
Ba0 Mg0 3.655543 1_555
Ba1 Cu1 3.402313 1_545
Ba1 Cu1 3.402313 1_555
Ba1 Mg11 3.422246 1_655
Ba1 Mg11 3.422246 1_555
Ba1 Mg8 3.490381 1_555
Ba1 Mg8 3.490381 1_655
Ba1 Mg9 3.490381 1_645
Ba1 Mg9 3.490381 1_545
Ba1 Mg6 3.655543 1_545
Ba1 Mg7 3.655543 1_555
Mg0 Mg5 3.096419 1_555
Mg0 Mg5 3.096419 1_655
Mg0 Mg8 3.101809 1_655
Mg0 Mg8 3.101809 1_555
Mg1 Mg5 3.096419 1_655
Mg1 Mg5 3.096419 1_555
Mg1 Mg9 3.101809 1_555
Mg1 Mg9 3.101809 1_655
Mg2 Mg3 2.928970 1_565
Mg2 Mg6 3.101809 1_554
Mg2 Mg6 3.101809 1_454
Mg2 Mg3 3.154344 1_555
Mg2 Mg4 3.364490 1_565
Mg3 Mg7 3.101809 1_554
Mg3 Mg7 3.101809 1_454
Mg3 Mg4 3.364490 1_555
Mg4 Mg5 3.261433 1_555
Mg4 Mg5 3.261433 1_545
Mg5 Mg8 3.162854 1_555
Mg5 Mg9 3.162854 1_555
Mg8 Mg9 2.928970 1_555
Mg8 Mg9 3.154344 1_545
Mg10 Mg11 3.261433 1_555
Mg10 Mg11 3.261433 1_565
Mg10 Mg8 3.364490 1_555
Mg10 Mg9 3.364490 1_555
Mg11 Mg6 3.096419 1_445
Mg11 Mg6 3.096419 1_545
Mg11 Mg7 3.096419 1_555
Mg11 Mg7 3.096419 1_455
Mg11 Mg3 3.162854 1_556
Mg11 Mg2 3.162854 1_546
Cu0 Mg7 2.681097 1_554
Cu0 Mg6 2.681097 1_544
Cu0 Mg3 2.912548 1_655
Cu0 Mg3 2.912548 1_555
Cu0 Mg2 2.912548 1_645
Cu0 Mg2 2.912548 1_545
Cu1 Mg1 2.681097 1_555
Cu1 Mg0 2.681097 1_555
Cu1 Mg8 2.912548 1_555
Cu1 Mg8 2.912548 1_655
Cu1 Mg9 2.912548 1_555
Cu1 Mg9 2.912548 1_655
