# generated using pymatgen
data_TaCo6Mo
_symmetry_space_group_name_H-M   'P 1'
_cell_length_a   5.09863352
_cell_length_b   5.09862733
_cell_length_c   4.09886206
_cell_angle_alpha   90.00000000
_cell_angle_beta   90.00000000
_cell_angle_gamma   119.99999293
_symmetry_Int_Tables_number   1
_chemical_formula_structural   TaCo6Mo
_chemical_formula_sum   'Ta1 Co6 Mo1'
_cell_volume   92.27860747
_cell_formula_units_Z   1
loop_
 _symmetry_equiv_pos_site_id
 _symmetry_equiv_pos_as_xyz
  1  'x, y, z'
loop_
 _atom_site_type_symbol
 _atom_site_label
 _atom_site_symmetry_multiplicity
 _atom_site_fract_x
 _atom_site_fract_y
 _atom_site_fract_z
 _atom_site_occupancy
  Ta  Ta0  1  0.66667314  0.33334589  0.50000000  1
  Co  Co0  1  0.84131795  0.15869544  -0.00000000  1
  Co  Co1  1  0.84130629  0.68261186  0.00000000  1
  Co  Co2  1  0.31737442  0.15869366  0.00000000  1
  Co  Co3  1  0.16226405  0.83774168  0.50000000  1
  Co  Co4  1  0.16225460  0.32450967  0.50000000  1
  Co  Co5  1  0.67547732  0.83774134  0.50000000  1
  Mo  Mo0  1  0.33333223  0.66665847  -0.00000000  1
loop_
_geom_bond_atom_site_label_1
_geom_bond_atom_site_label_2
_geom_bond_distance
_geom_bond_site_symmetry_2
Co0 Co2 2.427242 1_655
Co0 Co1 2.427343 1_545
Co0 Co4 2.491809 1_655
Co0 Co4 2.491809 1_654
Co0 Co5 2.491853 1_545
Co0 Co5 2.491853 1_544
Co0 Mo0 2.550230 1_655
Co0 Mo0 2.550346 1_545
Co0 Ta0 2.564945 1_555
Co0 Ta0 2.564945 1_554
Co0 Co1 2.671284 1_555
Co0 Co2 2.671392 1_555
Co1 Co2 2.427331 1_665
Co1 Co3 2.491862 1_655
Co1 Co3 2.491862 1_654
Co1 Co5 2.491864 1_554
Co1 Co5 2.491864 1_555
Co1 Mo0 2.550276 1_555
Co1 Mo0 2.550303 1_655
Co1 Ta0 2.564867 1_555
Co1 Ta0 2.564867 1_554
Co1 Co2 2.671300 1_555
Co2 Co4 2.491807 1_554
Co2 Co4 2.491807 1_555
Co2 Co3 2.491848 1_545
Co2 Co3 2.491848 1_544
Co2 Mo0 2.550215 1_555
Co2 Mo0 2.550359 1_545
Co2 Ta0 2.564955 1_555
Co2 Ta0 2.564955 1_554
Co3 Co4 2.481873 1_565
Co3 Co5 2.481946 1_455
Co3 Mo0 2.546102 1_555
Co3 Mo0 2.546102 1_556
Co3 Ta0 2.549578 1_455
Co3 Ta0 2.549646 1_565
Co3 Co5 2.616687 1_555
Co3 Co4 2.616755 1_555
Co4 Co5 2.481875 1_445
Co4 Mo0 2.546095 1_555
Co4 Mo0 2.546095 1_556
Co4 Ta0 2.549613 1_455
Co4 Ta0 2.549618 1_555
Co4 Co5 2.616756 1_555
Co5 Mo0 2.546086 1_556
Co5 Mo0 2.546086 1_555
Co5 Ta0 2.549576 1_555
Co5 Ta0 2.549644 1_565
