# generated using pymatgen
data_Dy2Ga3(Fe7C)2
_symmetry_space_group_name_H-M   'P 1'
_cell_length_a   6.47357285
_cell_length_b   6.47357285
_cell_length_c   6.49180716
_cell_angle_alpha   83.55365592
_cell_angle_beta   83.55365592
_cell_angle_gamma   82.72638106
_symmetry_Int_Tables_number   1
_chemical_formula_structural   Dy2Ga3(Fe7C)2
_chemical_formula_sum   'Dy2 Ga3 Fe14 C2'
_cell_volume   266.82737198
_cell_formula_units_Z   1
loop_
 _symmetry_equiv_pos_site_id
 _symmetry_equiv_pos_as_xyz
  1  'x, y, z'
loop_
 _atom_site_type_symbol
 _atom_site_label
 _atom_site_symmetry_multiplicity
 _atom_site_fract_x
 _atom_site_fract_y
 _atom_site_fract_z
 _atom_site_occupancy
  Dy  Dy0  1  0.34790400  0.34790400  0.33829500  1
  Dy  Dy1  1  0.65209600  0.65209600  0.66170500  1
  Ga  Ga0  1  0.00000000  0.00000000  0.50000000  1
  Ga  Ga1  1  0.00000000  0.50000000  0.00000000  1
  Ga  Ga2  1  0.50000000  0.00000000  0.00000000  1
  Fe  Fe0  1  0.09257100  0.09257100  0.09576000  1
  Fe  Fe1  1  0.90742900  0.90742900  0.90424000  1
  Fe  Fe2  1  0.65344600  0.65344600  0.15160200  1
  Fe  Fe3  1  0.65304700  0.15097200  0.65581000  1
  Fe  Fe4  1  0.15097200  0.65304700  0.65581000  1
  Fe  Fe5  1  0.34655400  0.34655400  0.84839800  1
  Fe  Fe6  1  0.34695300  0.84902800  0.34419000  1
  Fe  Fe7  1  0.84902800  0.34695300  0.34419000  1
  Fe  Fe8  1  0.70780500  0.29219500  0.00000000  1
  Fe  Fe9  1  0.28677300  0.99954300  0.71371000  1
  Fe  Fe10  1  0.00045700  0.71322700  0.28629000  1
  Fe  Fe11  1  0.71322700  0.00045700  0.28629000  1
  Fe  Fe12  1  0.99954300  0.28677300  0.71371000  1
  Fe  Fe13  1  0.29219500  0.70780500  0.00000000  1
  C  C0  1  0.50000000  0.00000000  0.50000000  1
  C  C1  1  0.00000000  0.50000000  0.50000000  1
loop_
_geom_bond_atom_site_label_1
_geom_bond_atom_site_label_2
_geom_bond_distance
_geom_bond_site_symmetry_2
Dy0 Fe8 3.032730 1_555
Dy0 Fe13 3.032730 1_555
Dy0 Fe2 3.034390 1_555
Dy0 Fe0 3.131113 1_555
Dy0 Fe5 3.182306 1_554
Dy0 Ga1 3.305814 1_555
Dy0 Ga2 3.305814 1_555
Dy0 Fe5 3.309553 1_555
Dy0 Ga0 3.386631 1_555
Dy1 Fe8 3.032730 1_556
Dy1 Fe13 3.032730 1_556
Dy1 Fe5 3.034390 1_555
Dy1 Fe1 3.131113 1_555
Dy1 Fe2 3.182306 1_556
Dy1 Ga1 3.305814 1_656
Dy1 Ga2 3.305814 1_566
Dy1 Fe2 3.309553 1_555
Dy1 Ga0 3.386631 1_665
Fe0 Fe1 2.334892 1_444
Fe0 Ga0 2.643785 1_555
Fe0 Ga1 2.649027 1_555
Fe0 Ga2 2.649027 1_555
Fe0 Fe6 2.677023 1_545
Fe0 Fe7 2.677023 1_455
Fe0 Fe11 2.727475 1_455
Fe0 Fe10 2.727475 1_545
Fe0 Fe5 2.735712 1_554
Fe0 Fe12 2.745556 1_454
Fe0 Fe9 2.745556 1_544
Fe0 Fe13 2.759135 1_545
Fe0 Fe8 2.759135 1_455
Fe1 Ga0 2.643785 1_665
Fe1 Ga2 2.649027 1_566
Fe1 Ga1 2.649027 1_656
Fe1 Fe4 2.677023 1_655
Fe1 Fe3 2.677023 1_565
Fe1 Fe9 2.727475 1_655
Fe1 Fe12 2.727475 1_565
Fe1 Fe2 2.735712 1_556
Fe1 Fe10 2.745556 1_656
Fe1 Fe11 2.745556 1_566
Fe1 Fe13 2.759135 1_656
Fe1 Fe8 2.759135 1_566
Fe2 Ga2 2.479477 1_565
Fe2 Ga1 2.479477 1_655
Fe2 Fe7 2.503030 1_555
Fe2 Fe6 2.503030 1_555
Fe2 Fe8 2.606158 1_555
Fe3 Ga0 2.485744 1_655
Fe3 Ga2 2.487395 1_556
Fe3 Fe5 2.503030 1_555
Fe3 Fe8 2.583149 1_556
Fe4 Ga0 2.485744 1_565
Fe4 Ga1 2.487395 1_556
Fe4 Fe5 2.503030 1_555
Fe5 Ga2 2.479477 1_556
Fe5 Ga1 2.479477 1_556
Fe5 Fe9 2.588004 1_545
Fe5 Fe8 2.606158 1_556
Fe6 Ga0 2.485744 1_565
Fe6 Ga2 2.487395 1_565
Fe7 Ga0 2.485744 1_655
Fe7 Ga1 2.487395 1_655
Fe7 Fe8 2.583149 1_555
Fe8 Ga1 2.456002 1_655
Fe8 Ga2 2.456002 1_555
Fe9 Ga2 2.436768 1_566
Fe9 Ga0 2.438688 1_565
Fe10 Ga1 2.436768 1_555
Fe10 Ga0 2.438688 1_565
Fe10 Fe13 2.496371 1_555
Fe10 Fe2 2.588004 1_455
Fe11 Ga2 2.436768 1_555
Fe11 Ga0 2.438688 1_655
Fe11 Fe8 2.496371 1_555
Fe11 Fe2 2.588004 1_545
Fe12 Ga1 2.436768 1_656
Fe12 Ga0 2.438688 1_655
Fe12 Fe8 2.496371 1_556
Fe12 Fe5 2.588004 1_655
Fe13 Ga2 2.456002 1_565
Fe13 Ga1 2.456002 1_555
Fe13 Fe9 2.496371 1_554
Fe13 Fe6 2.583149 1_555
Fe13 Fe4 2.583149 1_554
Fe13 Fe2 2.606158 1_555
Fe13 Fe5 2.606158 1_554
C0 Fe9 1.843971 1_545
C0 Fe11 1.843971 1_555
C0 Fe6 1.911041 1_545
C0 Fe3 1.911041 1_555
C0 Dy1 2.506683 1_545
C0 Dy0 2.506683 1_555
C1 Fe12 1.843971 1_455
C1 Fe10 1.843971 1_555
C1 Fe7 1.911041 1_455
C1 Fe4 1.911041 1_555
C1 Dy0 2.506683 1_555
C1 Dy1 2.506683 1_455
