# generated using pymatgen
data_TlGa(SO4)2
_symmetry_space_group_name_H-M   'P 1'
_cell_length_a   4.87420804
_cell_length_b   4.87420804
_cell_length_c   8.65623400
_cell_angle_alpha   90.00000000
_cell_angle_beta   90.00000000
_cell_angle_gamma   120.00000057
_symmetry_Int_Tables_number   1
_chemical_formula_structural   TlGa(SO4)2
_chemical_formula_sum   'Tl1 Ga1 S2 O8'
_cell_volume   178.10156719
_cell_formula_units_Z   1
loop_
 _symmetry_equiv_pos_site_id
 _symmetry_equiv_pos_as_xyz
  1  'x, y, z'
loop_
 _atom_site_type_symbol
 _atom_site_label
 _atom_site_symmetry_multiplicity
 _atom_site_fract_x
 _atom_site_fract_y
 _atom_site_fract_z
 _atom_site_occupancy
  Tl  Tl0  1  0.00000000  0.00000000  0.50000000  1
  Ga  Ga0  1  0.00000000  0.00000000  0.00000000  1
  S  S0  1  0.66666700  0.33333300  0.79594000  1
  S  S1  1  0.33333300  0.66666700  0.20406000  1
  O  O0  1  0.91555700  0.26482800  0.85304700  1
  O  O1  1  0.34927100  0.08444300  0.85304700  1
  O  O2  1  0.65072900  0.73517200  0.14695300  1
  O  O3  1  0.73517200  0.65072900  0.85304700  1
  O  O4  1  0.26482800  0.91555700  0.14695300  1
  O  O5  1  0.08444300  0.34927100  0.14695300  1
  O  O6  1  0.66666700  0.33333300  0.62671800  1
  O  O7  1  0.33333300  0.66666700  0.37328200  1
loop_
_geom_bond_atom_site_label_1
_geom_bond_atom_site_label_2
_geom_bond_distance
_geom_bond_site_symmetry_2
Ga0 O2 1.996265 1_445
Ga0 O3 1.996265 1_444
Ga0 O5 1.996265 1_555
Ga0 O1 1.996265 1_554
Ga0 O0 1.996265 1_454
Ga0 O4 1.996265 1_545
O0 S0 1.494205 1_555
O1 S0 1.494208 1_555
O2 S1 1.494209 1_555
O3 S0 1.494209 1_555
O4 S1 1.494205 1_555
O5 S1 1.494208 1_555
O6 S0 1.464825 1_555
O7 S1 1.464825 1_555
