# generated using pymatgen
data_Ca3ZnGe5O14
_symmetry_space_group_name_H-M   'P 1'
_cell_length_a   8.12582061
_cell_length_b   8.12582061
_cell_length_c   5.14415820
_cell_angle_alpha   89.64740482
_cell_angle_beta   89.64740482
_cell_angle_gamma   59.48089437
_symmetry_Int_Tables_number   1
_chemical_formula_structural   Ca3ZnGe5O14
_chemical_formula_sum   'Ca3 Zn1 Ge5 O14'
_cell_volume   292.59905619
_cell_formula_units_Z   1
loop_
 _symmetry_equiv_pos_site_id
 _symmetry_equiv_pos_as_xyz
  1  'x, y, z'
loop_
 _atom_site_type_symbol
 _atom_site_label
 _atom_site_symmetry_multiplicity
 _atom_site_fract_x
 _atom_site_fract_y
 _atom_site_fract_z
 _atom_site_occupancy
  Ca  Ca0  1  0.73176400  0.26823600  0.00000000  1
  Ca  Ca1  1  0.90184100  0.68644600  0.00008000  1
  Ca  Ca2  1  0.31355400  0.09815900  0.99992000  1
  Zn  Zn0  1  0.31652400  0.68347600  0.00000000  1
  Ge  Ge0  1  0.55418900  0.68841900  0.50593200  1
  Ge  Ge1  1  0.31158100  0.44581100  0.49406800  1
  Ge  Ge2  1  0.64753600  0.01987000  0.52201700  1
  Ge  Ge3  1  0.98013000  0.35246400  0.47798300  1
  Ge  Ge4  1  0.07846100  0.92153900  0.50000000  1
  O  O0  1  0.39256100  0.83458600  0.26754500  1
  O  O1  1  0.16541400  0.60743900  0.73245500  1
  O  O2  1  0.77713600  0.54609700  0.31678100  1
  O  O3  1  0.45390300  0.22286400  0.68321900  1
  O  O4  1  0.84993600  0.00635700  0.68292900  1
  O  O5  1  0.99364300  0.15006400  0.31707100  1
  O  O6  1  0.08135800  0.77253500  0.25286000  1
  O  O7  1  0.22746500  0.91864200  0.74714000  1
  O  O8  1  0.64711800  0.01641700  0.18719400  1
  O  O9  1  0.98358300  0.35288200  0.81280600  1
  O  O10  1  0.55001500  0.53707600  0.74452600  1
  O  O11  1  0.46292400  0.44998500  0.25547400  1
  O  O12  1  0.63294600  0.83169300  0.68949600  1
  O  O13  1  0.16830700  0.36705400  0.31050400  1
loop_
_geom_bond_atom_site_label_1
_geom_bond_atom_site_label_2
_geom_bond_distance
_geom_bond_site_symmetry_2
Ca0 O11 2.322125 1_555
Ca0 O10 2.322125 1_554
Ca0 O5 2.461467 1_555
Ca0 O4 2.461467 1_554
Ca0 O9 2.642825 1_554
Ca0 O8 2.642825 1_555
Ca0 O2 2.964364 1_555
Ca0 O3 2.964364 1_554
Ca1 O6 2.319283 1_655
Ca1 O1 2.339365 1_654
Ca1 O2 2.472283 1_555
Ca1 O12 2.473937 1_554
Ca1 O8 2.602030 1_565
Ca1 O9 2.629011 1_554
Ca1 O13 2.873688 1_655
Ca1 O4 2.905152 1_564
Ca2 O7 2.319283 1_545
Ca2 O0 2.339365 1_546
Ca2 O3 2.472283 1_555
Ca2 O13 2.473937 1_556
Ca2 O9 2.602030 1_455
Ca2 O8 2.629011 1_556
Ca2 O12 2.873688 1_545
Ca2 O5 2.905152 1_456
Ge0 O10 1.744484 1_555
Ge0 O0 1.748425 1_555
Ge0 O2 1.852152 1_555
Ge0 O12 1.853192 1_555
Ge1 O11 1.744484 1_555
Ge1 O1 1.748425 1_555
Ge1 O3 1.852152 1_555
Ge1 O13 1.853192 1_555
Ge2 O8 1.722836 1_555
Ge2 O4 1.798439 1_555
Ge2 O3 1.802485 1_555
Ge2 O12 1.805845 1_545
Ge3 O9 1.722836 1_555
Ge3 O5 1.798439 1_555
Ge3 O2 1.802485 1_555
Ge3 O13 1.805845 1_655
Ge4 O7 1.752839 1_555
Ge4 O6 1.752839 1_555
Ge4 O5 1.869601 1_465
Ge4 O4 1.869601 1_465
O0 Zn0 2.141371 1_555
O1 Zn0 2.141371 1_556
O6 Zn0 2.108015 1_555
O7 Zn0 2.108015 1_556
O10 Zn0 2.106713 1_556
O11 Zn0 2.106713 1_555
