# generated using pymatgen
data_Na5H4BrO4
_symmetry_space_group_name_H-M   'P 1'
_cell_length_a   6.58904912
_cell_length_b   11.82613547
_cell_length_c   18.90535092
_cell_angle_alpha   90.00000000
_cell_angle_beta   90.00000000
_cell_angle_gamma   90.00000000
_symmetry_Int_Tables_number   1
_chemical_formula_structural   Na5H4BrO4
_chemical_formula_sum   'Na40 H32 Br8 O32'
_cell_volume   1473.16142364
_cell_formula_units_Z   8
loop_
 _symmetry_equiv_pos_site_id
 _symmetry_equiv_pos_as_xyz
  1  'x, y, z'
loop_
 _atom_site_type_symbol
 _atom_site_label
 _atom_site_symmetry_multiplicity
 _atom_site_fract_x
 _atom_site_fract_y
 _atom_site_fract_z
 _atom_site_occupancy
  Na  Na0  1  -0.00000000  0.50000000  0.00000000  1
  Na  Na1  1  0.50000000  -0.00000000  0.50000000  1
  Na  Na2  1  -0.00000000  0.50000000  0.50000000  1
  Na  Na3  1  0.50000000  -0.00000000  0.00000000  1
  Na  Na4  1  0.64880715  0.98232887  0.25000000  1
  Na  Na5  1  0.85119285  0.48232887  0.25000000  1
  Na  Na6  1  0.35119285  0.01767113  0.75000000  1
  Na  Na7  1  0.14880715  0.51767113  0.75000000  1
  Na  Na8  1  0.10792159  0.94866009  0.25000000  1
  Na  Na9  1  0.39207841  0.44866009  0.25000000  1
  Na  Na10  1  0.89207841  0.05133991  0.75000000  1
  Na  Na11  1  0.60792159  0.55133991  0.75000000  1
  Na  Na12  1  0.54233193  0.68746347  0.25000000  1
  Na  Na13  1  0.95766807  0.18746347  0.25000000  1
  Na  Na14  1  0.45766807  0.31253653  0.75000000  1
  Na  Na15  1  0.04233193  0.81253653  0.75000000  1
  Na  Na16  1  0.86641379  0.84582867  0.12478645  1
  Na  Na17  1  0.63358621  0.34582867  0.37521355  1
  Na  Na18  1  0.13358621  0.15417133  0.62478645  1
  Na  Na19  1  0.36641379  0.65417133  0.87521355  1
  Na  Na20  1  0.13358621  0.15417133  0.87521355  1
  Na  Na21  1  0.36641379  0.65417133  0.62478645  1
  Na  Na22  1  0.86641379  0.84582867  0.37521355  1
  Na  Na23  1  0.63358621  0.34582867  0.12478645  1
  Na  Na24  1  0.62380610  0.73441372  0.00457982  1
  Na  Na25  1  0.87619390  0.23441372  0.49542018  1
  Na  Na26  1  0.37619390  0.26558628  0.50457982  1
  Na  Na27  1  0.12380610  0.76558628  0.99542018  1
  Na  Na28  1  0.37619390  0.26558628  0.99542018  1
  Na  Na29  1  0.12380610  0.76558628  0.50457982  1
  Na  Na30  1  0.62380610  0.73441372  0.49542018  1
  Na  Na31  1  0.87619390  0.23441372  0.00457982  1
  Na  Na32  1  0.25492397  0.60321295  0.12430921  1
  Na  Na33  1  0.24507603  0.10321295  0.37569079  1
  Na  Na34  1  0.74507603  0.39678705  0.62430921  1
  Na  Na35  1  0.75492397  0.89678705  0.87569079  1
  Na  Na36  1  0.74507603  0.39678705  0.87569079  1
  Na  Na37  1  0.75492397  0.89678705  0.62430921  1
  Na  Na38  1  0.25492397  0.60321295  0.37569079  1
  Na  Na39  1  0.24507603  0.10321295  0.12430921  1
  H  H0  1  0.13197168  0.68011890  0.25000000  1
  H  H1  1  0.36802832  0.18011890  0.25000000  1
  H  H2  1  0.86802832  0.31988110  0.75000000  1
  H  H3  1  0.63197168  0.81988110  0.75000000  1
  H  H4  1  0.89461701  0.73125354  0.25000000  1
  H  H5  1  0.60538299  0.23125354  0.25000000  1
  H  H6  1  0.10538299  0.26874646  0.75000000  1
  H  H7  1  0.39461701  0.76874646  0.75000000  1
  H  H8  1  0.87122923  0.62152543  0.11561452  1
  H  H9  1  0.62877077  0.12152543  0.38438548  1
  H  H10  1  0.12877077  0.37847457  0.61561452  1
  H  H11  1  0.37122923  0.87847457  0.88438548  1
  H  H12  1  0.12877077  0.37847457  0.88438548  1
  H  H13  1  0.37122923  0.87847457  0.61561452  1
  H  H14  1  0.87122923  0.62152543  0.38438548  1
  H  H15  1  0.62877077  0.12152543  0.11561452  1
  H  H16  1  0.62931013  0.56891132  0.12045952  1
  H  H17  1  0.87068987  0.06891132  0.37954048  1
  H  H18  1  0.37068987  0.43108868  0.62045952  1
  H  H19  1  0.12931013  0.93108868  0.87954048  1
  H  H20  1  0.37068987  0.43108868  0.87954048  1
  H  H21  1  0.12931013  0.93108868  0.62045952  1
  H  H22  1  0.62931013  0.56891132  0.37954048  1
  H  H23  1  0.87068987  0.06891132  0.12045952  1
  H  H24  1  0.88031226  0.97303420  0.00319286  1
  H  H25  1  0.61968774  0.47303420  0.49680714  1
  H  H26  1  0.11968774  0.02696580  0.50319286  1
  H  H27  1  0.38031226  0.52696580  0.99680714  1
  H  H28  1  0.11968774  0.02696580  0.99680714  1
  H  H29  1  0.38031226  0.52696580  0.50319286  1
  H  H30  1  0.88031226  0.97303420  0.49680714  1
  H  H31  1  0.61968774  0.47303420  0.00319286  1
  Br  Br0  1  0.37565897  0.85032631  0.13092999  1
  Br  Br1  1  0.12434103  0.35032631  0.36907001  1
  Br  Br2  1  0.62434103  0.14967369  0.63092999  1
  Br  Br3  1  0.87565897  0.64967369  0.86907001  1
  Br  Br4  1  0.62434103  0.14967369  0.86907001  1
  Br  Br5  1  0.87565897  0.64967369  0.63092999  1
  Br  Br6  1  0.37565897  0.85032631  0.36907001  1
  Br  Br7  1  0.12434103  0.35032631  0.13092999  1
  O  O0  1  0.15640372  0.59878669  0.25000000  1
  O  O1  1  0.34359628  0.09878669  0.25000000  1
  O  O2  1  0.84359628  0.40121331  0.75000000  1
  O  O3  1  0.65640372  0.90121331  0.75000000  1
  O  O4  1  0.83958756  0.80766172  0.25000000  1
  O  O5  1  0.66041244  0.30766172  0.25000000  1
  O  O6  1  0.16041244  0.19233828  0.75000000  1
  O  O7  1  0.33958756  0.69233828  0.75000000  1
  O  O8  1  0.91011213  0.65930119  0.07181529  1
  O  O9  1  0.58988787  0.15930119  0.42818471  1
  O  O10  1  0.08988787  0.34069881  0.57181529  1
  O  O11  1  0.41011213  0.84069881  0.92818471  1
  O  O12  1  0.08988787  0.34069881  0.92818471  1
  O  O13  1  0.41011213  0.84069881  0.57181529  1
  O  O14  1  0.91011213  0.65930119  0.42818471  1
  O  O15  1  0.58988787  0.15930119  0.07181529  1
  O  O16  1  0.59202741  0.53979444  0.16682652  1
  O  O17  1  0.90797259  0.03979444  0.33317348  1
  O  O18  1  0.40797259  0.46020556  0.66682652  1
  O  O19  1  0.09202741  0.96020556  0.83317348  1
  O  O20  1  0.40797259  0.46020556  0.83317348  1
  O  O21  1  0.09202741  0.96020556  0.66682652  1
  O  O22  1  0.59202741  0.53979444  0.33317348  1
  O  O23  1  0.90797259  0.03979444  0.16682652  1
  O  O24  1  0.84159191  0.89372108  -0.00015763  1
  O  O25  1  0.65840809  0.39372108  0.50015763  1
  O  O26  1  0.15840809  0.10627892  0.49984237  1
  O  O27  1  0.34159191  0.60627892  0.00015763  1
  O  O28  1  0.15840809  0.10627892  0.00015763  1
  O  O29  1  0.34159191  0.60627892  0.49984237  1
  O  O30  1  0.84159191  0.89372108  0.50015763  1
  O  O31  1  0.65840809  0.39372108  -0.00015763  1
loop_
_geom_bond_atom_site_label_1
_geom_bond_atom_site_label_2
_geom_bond_distance
_geom_bond_site_symmetry_2
Na0 O12 2.396511 1_554
Na0 O8 2.396511 1_455
Na0 O31 2.577921 1_455
Na0 O27 2.577921 1_555
Na1 O13 2.396511 1_545
Na1 O9 2.396511 1_555
Na1 O30 2.577921 1_545
Na1 O26 2.577921 1_555
Na2 O10 2.396511 1_555
Na2 O14 2.396511 1_455
Na2 O25 2.577921 1_455
Na2 O29 2.577921 1_555
Na3 O11 2.396511 1_544
Na3 O15 2.396511 1_555
Na3 O24 2.577921 1_545
Na3 O28 2.577921 1_555
Na4 O4 2.418070 1_555
Na4 O23 2.418770 1_565
Na4 O17 2.418770 1_565
Na4 O1 2.437443 1_565
Na5 O5 2.418070 1_555
Na5 O16 2.418770 1_555
Na5 O22 2.418770 1_555
Na5 O0 2.437443 1_655
Na6 O6 2.418070 1_555
Na6 O21 2.418770 1_545
Na6 O19 2.418770 1_545
Na6 O3 2.437443 1_545
Na7 O7 2.418070 1_555
Na7 O20 2.418770 1_555
Na7 O18 2.418770 1_555
Na7 O2 2.437443 1_455
Na8 O23 2.317291 1_465
Na8 O17 2.317291 1_465
Na8 O1 2.358711 1_565
Na8 O4 2.430329 1_455
Na9 O16 2.317291 1_555
Na9 O22 2.317291 1_555
Na9 O0 2.358711 1_555
Na9 O5 2.430329 1_555
Na10 O21 2.317291 1_645
Na10 O19 2.317291 1_645
Na10 O3 2.358711 1_545
Na10 O6 2.430329 1_655
Na11 O20 2.317291 1_555
Na11 O18 2.317291 1_555
Na11 O2 2.358711 1_555
Na11 O7 2.430329 1_555
Na12 O16 2.372655 1_555
Na12 O22 2.372655 1_555
Na12 O4 2.420092 1_555
Na12 O0 2.750658 1_555
Na13 O17 2.372655 1_555
Na13 O23 2.372655 1_555
Na13 O5 2.420092 1_555
Na13 O1 2.750658 1_655
Na14 O20 2.372655 1_555
Na14 O18 2.372655 1_555
Na14 O6 2.420092 1_555
Na14 O2 2.750658 1_555
Na15 O21 2.372655 1_555
Na15 O19 2.372655 1_555
Na15 O7 2.420092 1_555
Na15 O3 2.750658 1_455
Na16 O4 2.416328 1_555
Na16 O24 2.434566 1_555
Na16 O8 2.439626 1_555
Na16 O23 2.443048 1_565
Na17 O5 2.416328 1_555
Na17 O25 2.434566 1_555
Na17 O9 2.439626 1_555
Na17 O22 2.443048 1_555
Na18 O6 2.416328 1_555
Na18 O26 2.434566 1_555
Na18 O10 2.439626 1_555
Na18 O21 2.443048 1_545
Na19 O7 2.416328 1_555
Na19 O27 2.434566 1_556
Na19 O11 2.439626 1_555
Na19 O20 2.443048 1_555
Na20 O6 2.416328 1_555
Na20 O28 2.434566 1_556
Na20 O12 2.439626 1_555
Na20 O19 2.443048 1_545
Na21 O7 2.416328 1_555
Na21 O29 2.434566 1_555
Na21 O13 2.439626 1_555
Na21 O18 2.443048 1_555
Na22 O4 2.416328 1_555
Na22 O30 2.434566 1_555
Na22 O14 2.439626 1_555
Na22 O17 2.443048 1_565
Na23 O5 2.416328 1_555
Na23 O31 2.434566 1_555
Na23 O15 2.439626 1_555
Na23 O16 2.443048 1_555
Na24 O24 2.369952 1_555
Na24 O11 2.376639 1_554
Na24 O27 2.400223 1_555
Na24 O8 2.442049 1_555
Na25 O25 2.369952 1_555
Na25 O10 2.376639 1_655
Na25 O26 2.400223 1_655
Na25 O9 2.442049 1_555
Na26 O26 2.369952 1_555
Na26 O9 2.376639 1_555
Na26 O25 2.400223 1_555
Na26 O10 2.442049 1_555
Na27 O27 2.369952 1_556
Na27 O8 2.376639 1_456
Na27 O24 2.400223 1_456
Na27 O11 2.442049 1_555
Na28 O28 2.369952 1_556
Na28 O15 2.376639 1_556
Na28 O31 2.400223 1_556
Na28 O12 2.442049 1_555
Na29 O29 2.369952 1_555
Na29 O14 2.376639 1_455
Na29 O30 2.400223 1_455
Na29 O13 2.442049 1_555
Na30 O30 2.369952 1_555
Na30 O13 2.376639 1_555
Na30 O29 2.400223 1_555
Na30 O14 2.442049 1_555
Na31 O31 2.369952 1_555
Na31 O12 2.376639 1_654
Na31 O28 2.400223 1_655
Na31 O15 2.442049 1_555
Na32 O27 2.415872 1_555
Na32 O0 2.463860 1_555
Na32 O16 2.478364 1_555
Na32 O8 2.566470 1_455
Na33 O26 2.415872 1_555
Na33 O1 2.463860 1_555
Na33 O17 2.478364 1_455
Na33 O9 2.566470 1_555
Na34 O25 2.415872 1_555
Na34 O2 2.463860 1_555
Na34 O18 2.478364 1_555
Na34 O10 2.566470 1_655
Na35 O24 2.415872 1_556
Na35 O3 2.463860 1_555
Na35 O19 2.478364 1_655
Na35 O11 2.566470 1_555
Na36 O31 2.415872 1_556
Na36 O2 2.463860 1_555
Na36 O20 2.478364 1_555
Na36 O12 2.566470 1_655
Na37 O30 2.415872 1_555
Na37 O3 2.463860 1_555
Na37 O21 2.478364 1_655
Na37 O13 2.566470 1_555
Na38 O29 2.415872 1_555
Na38 O0 2.463860 1_555
Na38 O22 2.478364 1_555
Na38 O14 2.566470 1_455
Na39 O28 2.415872 1_555
Na39 O1 2.463860 1_555
Na39 O23 2.478364 1_455
Na39 O15 2.566470 1_555
H0 O0 0.975225 1_555
H0 Na12 2.705279 1_555
H1 O1 0.975225 1_555
H1 Na13 2.705279 1_455
H2 O2 0.975225 1_555
H2 Na14 2.705279 1_555
H3 O3 0.975225 1_555
H3 Na15 2.705279 1_655
H4 O4 0.973648 1_555
H4 Na12 2.378291 1_555
H5 O5 0.973648 1_555
H5 Na13 2.378291 1_555
H6 O6 0.973648 1_555
H6 Na14 2.378291 1_555
H7 O7 0.973648 1_555
H7 Na15 2.378291 1_555
H8 O8 0.975124 1_555
H8 Na32 2.542761 1_655
H9 O9 0.975124 1_555
H9 Na33 2.542761 1_555
H10 O10 0.975124 1_555
H10 Na34 2.542761 1_455
H11 O11 0.975124 1_555
H11 Na35 2.542761 1_555
H12 O12 0.975124 1_555
H12 Na36 2.542761 1_455
H13 O13 0.975124 1_555
H13 Na37 2.542761 1_555
H14 O14 0.975124 1_555
H14 Na38 2.542761 1_655
H15 O15 0.975124 1_555
H15 Na39 2.542761 1_555
H16 O16 0.973303 1_555
H16 Na32 2.501039 1_555
H17 O17 0.973303 1_555
H17 Na33 2.501039 1_655
H18 O18 0.973303 1_555
H18 Na34 2.501039 1_555
H19 O19 0.973303 1_555
H19 Na35 2.501039 1_455
H20 O20 0.973303 1_555
H20 Na36 2.501039 1_555
H21 O21 0.973303 1_555
H21 Na37 2.501039 1_455
H22 O22 0.973303 1_555
H22 Na38 2.501039 1_555
H23 O23 0.973303 1_555
H23 Na39 2.501039 1_655
H24 O24 0.974108 1_555
H24 Na3 2.526827 1_565
H25 O25 0.974108 1_555
H25 Na2 2.526827 1_655
H26 O26 0.974108 1_555
H26 Na1 2.526827 1_555
H27 O27 0.974108 1_556
H27 Na0 2.526827 1_556
H28 O28 0.974108 1_556
H28 Na3 2.526827 1_556
H29 O29 0.974108 1_555
H29 Na2 2.526827 1_555
H30 O30 0.974108 1_555
H30 Na1 2.526827 1_565
H31 O31 0.974108 1_555
H31 Na0 2.526827 1_655
Br0 Na32 3.031325 1_555
Br0 Na8 3.087361 1_555
Br0 Na39 3.114499 1_565
Br0 Na3 3.151404 1_565
Br0 Na12 3.159584 1_555
Br0 Na24 3.202866 1_555
Br0 Na27 3.212674 1_554
Br0 Na16 3.236130 1_555
Br0 Na4 3.277724 1_555
Br0 Na16 3.357872 1_455
Br1 Na33 3.031325 1_555
Br1 Na9 3.087361 1_555
Br1 Na38 3.114499 1_555
Br1 Na2 3.151404 1_555
Br1 Na13 3.159584 1_455
Br1 Na25 3.202866 1_455
Br1 Na26 3.212674 1_555
Br1 Na17 3.236130 1_455
Br1 Na5 3.277724 1_455
Br1 Na17 3.357872 1_555
Br2 Na34 3.031325 1_555
Br2 Na10 3.087361 1_555
Br2 Na37 3.114499 1_545
Br2 Na1 3.151404 1_555
Br2 Na14 3.159584 1_555
Br2 Na26 3.202866 1_555
Br2 Na25 3.212674 1_555
Br2 Na18 3.236130 1_555
Br2 Na6 3.277724 1_555
Br2 Na18 3.357872 1_655
Br3 Na35 3.031325 1_555
Br3 Na11 3.087361 1_555
Br3 Na36 3.114499 1_555
Br3 Na0 3.151404 1_656
Br3 Na15 3.159584 1_655
Br3 Na27 3.202866 1_655
Br3 Na24 3.212674 1_556
Br3 Na19 3.236130 1_655
Br3 Na7 3.277724 1_655
Br3 Na19 3.357872 1_555
Br4 Na36 3.031325 1_555
Br4 Na10 3.087361 1_555
Br4 Na35 3.114499 1_545
Br4 Na3 3.151404 1_556
Br4 Na14 3.159584 1_555
Br4 Na28 3.202866 1_555
Br4 Na31 3.212674 1_556
Br4 Na20 3.236130 1_555
Br4 Na6 3.277724 1_555
Br4 Na20 3.357872 1_655
Br5 Na37 3.031325 1_555
Br5 Na11 3.087361 1_555
Br5 Na34 3.114499 1_555
Br5 Na2 3.151404 1_655
Br5 Na15 3.159584 1_655
Br5 Na29 3.202866 1_655
Br5 Na30 3.212674 1_555
Br5 Na21 3.236130 1_655
Br5 Na7 3.277724 1_655
Br5 Na21 3.357872 1_555
Br6 Na38 3.031325 1_555
Br6 Na8 3.087361 1_555
Br6 Na33 3.114499 1_565
Br6 Na1 3.151404 1_565
Br6 Na12 3.159584 1_555
Br6 Na30 3.202866 1_555
Br6 Na29 3.212674 1_555
Br6 Na22 3.236130 1_555
Br6 Na4 3.277724 1_555
Br6 Na22 3.357872 1_455
Br7 Na39 3.031325 1_555
Br7 Na9 3.087361 1_555
Br7 Na32 3.114499 1_555
Br7 Na0 3.151404 1_555
Br7 Na13 3.159584 1_455
Br7 Na31 3.202866 1_455
Br7 Na28 3.212674 1_554
Br7 Na23 3.236130 1_455
Br7 Na5 3.277724 1_455
Br7 Na23 3.357872 1_555
