# generated using pymatgen
data_NbSBr
_symmetry_space_group_name_H-M   'P 1'
_cell_length_a   7.34942747
_cell_length_b   7.34942747
_cell_length_c   7.34942747
_cell_angle_alpha   60.00000000
_cell_angle_beta   60.00000000
_cell_angle_gamma   60.00000000
_symmetry_Int_Tables_number   1
_chemical_formula_structural   NbSBr
_chemical_formula_sum   'Nb4 S4 Br4'
_cell_volume   280.70201266
_cell_formula_units_Z   4
loop_
 _symmetry_equiv_pos_site_id
 _symmetry_equiv_pos_as_xyz
  1  'x, y, z'
loop_
 _atom_site_type_symbol
 _atom_site_label
 _atom_site_symmetry_multiplicity
 _atom_site_fract_x
 _atom_site_fract_y
 _atom_site_fract_z
 _atom_site_occupancy
  Nb  Nb0  1  0.35102800  0.35102800  0.35102800  1
  Nb  Nb1  1  0.35102800  0.35102800  0.94691700  1
  Nb  Nb2  1  0.35102800  0.94691700  0.35102800  1
  Nb  Nb3  1  0.94691700  0.35102800  0.35102800  1
  S  S0  1  0.12116500  0.12116500  0.12116500  1
  S  S1  1  0.12116500  0.12116500  0.63650600  1
  S  S2  1  0.12116500  0.63650600  0.12116500  1
  S  S3  1  0.63650600  0.12116500  0.12116500  1
  Br  Br0  1  0.62188200  0.62188200  0.62188200  1
  Br  Br1  1  0.62188200  0.62188200  0.13435500  1
  Br  Br2  1  0.62188200  0.13435500  0.62188200  1
  Br  Br3  1  0.13435500  0.62188200  0.62188200  1
loop_
_geom_bond_atom_site_label_1
_geom_bond_atom_site_label_2
_geom_bond_distance
_geom_bond_site_symmetry_2
Nb0 S2 2.423830 1_555
Nb0 S3 2.423830 1_555
Nb0 S1 2.423830 1_555
Nb1 S2 2.423830 1_556
Nb1 S3 2.423830 1_556
Nb1 S0 2.423830 1_556
Nb2 S0 2.423830 1_565
Nb2 S1 2.423830 1_565
Nb2 S3 2.423830 1_565
Nb3 S0 2.423830 1_655
Nb3 S1 2.423830 1_655
Nb3 S2 2.423830 1_655
Br0 Nb1 2.843187 1_555
Br0 Nb2 2.843187 1_555
Br0 Nb3 2.843187 1_555
Br1 Nb0 2.843187 1_555
Br1 Nb2 2.843187 1_555
Br1 Nb3 2.843187 1_555
Br2 Nb0 2.843187 1_555
Br2 Nb1 2.843187 1_555
Br2 Nb3 2.843187 1_555
Br3 Nb0 2.843187 1_555
Br3 Nb1 2.843187 1_555
Br3 Nb2 2.843187 1_555
