# generated using pymatgen
data_Cs3SiF7
_symmetry_space_group_name_H-M   'P 1'
_cell_length_a   8.25421808
_cell_length_b   8.25421808
_cell_length_c   6.14923383
_cell_angle_alpha   90.00000000
_cell_angle_beta   90.00000000
_cell_angle_gamma   90.00000000
_symmetry_Int_Tables_number   1
_chemical_formula_structural   Cs3SiF7
_chemical_formula_sum   'Cs6 Si2 F14'
_cell_volume   418.96031331
_cell_formula_units_Z   2
loop_
 _symmetry_equiv_pos_site_id
 _symmetry_equiv_pos_as_xyz
  1  'x, y, z'
loop_
 _atom_site_type_symbol
 _atom_site_label
 _atom_site_symmetry_multiplicity
 _atom_site_fract_x
 _atom_site_fract_y
 _atom_site_fract_z
 _atom_site_occupancy
  Cs  Cs0  1  0.19436141  0.69436141  0.50000000  1
  Cs  Cs1  1  0.69436141  0.80563859  0.50000000  1
  Cs  Cs2  1  0.30563859  0.19436141  0.50000000  1
  Cs  Cs3  1  0.80563859  0.30563859  0.50000000  1
  Cs  Cs4  1  0.50000000  0.50000000  -0.00000000  1
  Cs  Cs5  1  -0.00000000  0.00000000  -0.00000000  1
  Si  Si0  1  -0.00000000  0.50000000  -0.00000000  1
  Si  Si1  1  0.50000000  0.00000000  -0.00000000  1
  F  F0  1  0.39701748  0.89701748  0.80373534  1
  F  F1  1  0.60298252  0.10298252  0.80373534  1
  F  F2  1  0.10298252  0.39701748  0.80373534  1
  F  F3  1  0.89701748  0.60298252  0.80373534  1
  F  F4  1  0.39701748  0.89701748  0.19626466  1
  F  F5  1  0.89701748  0.60298252  0.19626466  1
  F  F6  1  0.10298252  0.39701748  0.19626466  1
  F  F7  1  0.60298252  0.10298252  0.19626466  1
  F  F8  1  -0.00000000  0.00000000  0.50000000  1
  F  F9  1  0.50000000  0.50000000  0.50000000  1
  F  F10  1  0.85429920  0.35429920  -0.00000000  1
  F  F11  1  0.35429920  0.14570080  -0.00000000  1
  F  F12  1  0.64570080  0.85429920  -0.00000000  1
  F  F13  1  0.14570080  0.64570080  -0.00000000  1
loop_
_geom_bond_atom_site_label_1
_geom_bond_atom_site_label_2
_geom_bond_distance
_geom_bond_site_symmetry_2
Cs0 F8 2.989706 1_565
Cs0 F9 2.989706 1_555
Cs0 F0 3.014092 1_555
Cs0 F4 3.014092 1_555
Cs0 F13 3.126647 1_556
Cs0 F13 3.126647 1_555
Cs0 F3 3.175083 1_455
Cs0 F6 3.175083 1_555
Cs0 F5 3.175083 1_455
Cs0 F2 3.175083 1_555
Cs1 F8 2.989706 1_665
Cs1 F9 2.989706 1_555
Cs1 F5 3.014092 1_555
Cs1 F3 3.014092 1_555
Cs1 F12 3.126647 1_556
Cs1 F12 3.126647 1_555
Cs1 F0 3.175083 1_555
Cs1 F4 3.175083 1_555
Cs1 F7 3.175083 1_565
Cs1 F1 3.175083 1_565
Cs2 F9 2.989706 1_555
Cs2 F8 2.989706 1_555
Cs2 F2 3.014092 1_555
Cs2 F6 3.014092 1_555
Cs2 F11 3.126647 1_555
Cs2 F11 3.126647 1_556
Cs2 F7 3.175083 1_555
Cs2 F0 3.175083 1_545
Cs2 F1 3.175083 1_555
Cs2 F4 3.175083 1_545
Cs3 F8 2.989706 1_655
Cs3 F9 2.989706 1_555
Cs3 F7 3.014092 1_555
Cs3 F1 3.014092 1_555
Cs3 F10 3.126647 1_556
Cs3 F10 3.126647 1_555
Cs3 F2 3.175083 1_655
Cs3 F6 3.175083 1_655
Cs3 F3 3.175083 1_555
Cs3 F5 3.175083 1_555
Cs4 F9 3.074617 1_554
Cs4 F9 3.074617 1_555
Cs4 F10 3.162094 1_555
Cs4 F12 3.162094 1_555
Cs4 F13 3.162094 1_555
Cs4 F11 3.162094 1_555
Cs5 F8 3.074617 1_554
Cs5 F8 3.074617 1_555
Cs5 F11 3.162094 1_555
Cs5 F13 3.162094 1_545
Cs5 F10 3.162094 1_455
Cs5 F12 3.162094 1_445
F0 Si1 1.703435 1_566
F1 Si1 1.703435 1_556
F2 Si0 1.703435 1_556
F3 Si0 1.703435 1_656
F4 Si1 1.703435 1_565
F5 Si0 1.703435 1_655
F6 Si0 1.703435 1_555
F7 Si1 1.703435 1_555
F10 Si0 1.700799 1_655
F11 Si1 1.700799 1_555
F12 Si1 1.700799 1_565
F13 Si0 1.700799 1_555
