# generated using pymatgen
data_LiYb4Ti2O10
_symmetry_space_group_name_H-M   'P 1'
_cell_length_a   5.10907433
_cell_length_b   6.18901851
_cell_length_c   8.25071394
_cell_angle_alpha   68.52948189
_cell_angle_beta   100.20504472
_cell_angle_gamma   72.45377789
_symmetry_Int_Tables_number   1
_chemical_formula_structural   LiYb4Ti2O10
_chemical_formula_sum   'Li1 Yb4 Ti2 O10'
_cell_volume   218.99908253
_cell_formula_units_Z   1
loop_
 _symmetry_equiv_pos_site_id
 _symmetry_equiv_pos_as_xyz
  1  'x, y, z'
loop_
 _atom_site_type_symbol
 _atom_site_label
 _atom_site_symmetry_multiplicity
 _atom_site_fract_x
 _atom_site_fract_y
 _atom_site_fract_z
 _atom_site_occupancy
  Li  Li0  1  0.56822500  0.26685500  0.01530600  1
  Yb  Yb0  1  0.73279100  0.65803200  0.77182000  1
  Yb  Yb1  1  0.68873400  0.75001900  0.28919400  1
  Yb  Yb2  1  0.29572400  0.27604200  0.68491400  1
  Yb  Yb3  1  0.20435800  0.32649200  0.22946800  1
  Ti  Ti0  1  0.96354800  0.01400100  0.48911000  1
  Ti  Ti1  1  0.06065700  0.97870700  0.95860100  1
  O  O0  1  0.84941300  0.73912600  0.02753100  1
  O  O1  1  0.41103800  0.92223500  0.47474400  1
  O  O2  1  0.00841500  0.67471000  0.58658100  1
  O  O3  1  0.71468400  0.27922000  0.82582500  1
  O  O4  1  0.28267200  0.68002000  0.19318300  1
  O  O5  1  0.96220000  0.33635300  0.43588400  1
  O  O6  1  0.55389200  0.07715800  0.52984800  1
  O  O7  1  0.19710600  0.91528400  0.78313300  1
  O  O8  1  0.26231400  0.17103400  0.00907000  1
  O  O9  1  0.81298000  0.09471300  0.24935800  1
loop_
_geom_bond_atom_site_label_1
_geom_bond_atom_site_label_2
_geom_bond_distance
_geom_bond_site_symmetry_2
Li0 O9 1.806335 1_555
Li0 O8 1.830237 1_555
Li0 O3 1.836109 1_554
O0 Ti1 2.062022 1_654
O0 Yb0 2.359700 1_554
O0 Yb3 2.368256 1_655
O0 Yb1 2.457745 1_555
O1 O6 1.510697 1_565
O1 Ti0 2.219456 1_465
O1 Yb0 2.324098 1_555
O1 Yb3 2.326696 1_565
O1 Yb1 2.558323 1_555
O2 Ti0 1.875366 1_465
O2 Yb2 2.197640 1_555
O2 Yb0 2.250394 1_455
O2 Yb1 2.487779 1_455
O3 Ti1 1.903624 1_645
O3 Yb0 2.254841 1_555
O3 Yb2 2.257013 1_555
O4 Ti1 1.946417 1_554
O4 Yb3 2.264465 1_555
O4 Yb1 2.308674 1_555
O5 Ti0 1.876799 1_555
O5 Yb1 2.224228 1_555
O5 Yb2 2.253681 1_655
O5 Yb3 2.282993 1_655
O6 Ti0 2.120951 1_555
O6 Yb2 2.379837 1_555
O6 Yb0 2.383845 1_545
O6 Yb3 2.383919 1_555
O7 Ti1 1.828835 1_555
O7 Ti0 2.265359 1_465
O7 Yb2 2.322527 1_565
O7 Yb0 2.757893 1_555
O8 Ti1 1.897888 1_544
O8 Yb3 2.370631 1_555
O8 Yb2 2.561405 1_554
O8 Yb1 2.694816 1_545
O8 Yb0 3.020461 1_454
O9 Ti0 1.805553 1_555
O9 Yb1 2.332203 1_545
O9 Yb3 2.785035 1_655
O9 Yb3 2.951443 1_555
