# generated using pymatgen
data_YU3
_symmetry_space_group_name_H-M   'P 1'
_cell_length_a   5.69526776
_cell_length_b   5.69526776
_cell_length_c   5.69526776
_cell_angle_alpha   134.50889005
_cell_angle_beta   134.50889005
_cell_angle_gamma   66.29423865
_symmetry_Int_Tables_number   1
_chemical_formula_structural   YU3
_chemical_formula_sum   'Y1 U3'
_cell_volume   92.48682385
_cell_formula_units_Z   1
loop_
 _symmetry_equiv_pos_site_id
 _symmetry_equiv_pos_as_xyz
  1  'x, y, z'
loop_
 _atom_site_type_symbol
 _atom_site_label
 _atom_site_symmetry_multiplicity
 _atom_site_fract_x
 _atom_site_fract_y
 _atom_site_fract_z
 _atom_site_occupancy
  Y  Y0  1  0.00000000  0.00000000  0.00000000  1
  U  U0  1  0.75000000  0.25000000  0.50000000  1
  U  U1  1  0.25000000  0.75000000  0.50000000  1
  U  U2  1  0.50000000  0.50000000  0.00000000  1
loop_
_geom_bond_atom_site_label_1
_geom_bond_atom_site_label_2
_geom_bond_distance
_geom_bond_site_symmetry_2
U0 U1 3.114119 1_656
U0 U1 3.114119 1_555
U0 U1 3.114119 1_544
U0 U1 3.114119 1_645
U0 Y0 3.245528 1_656
U0 U2 3.245528 1_555
U0 U2 3.245528 1_556
U0 Y0 3.245528 1_666
U0 Y0 3.245528 1_655
U0 U2 3.245528 1_545
U0 U2 3.245528 1_656
U0 Y0 3.245528 1_555
U1 Y0 3.245528 1_566
U1 Y0 3.245528 1_555
U1 U2 3.245528 1_555
U1 Y0 3.245528 1_565
U1 U2 3.245528 1_556
U1 U2 3.245528 1_566
U1 Y0 3.245528 1_666
U1 U2 3.245528 1_455
U2 Y0 3.114119 1_565
U2 Y0 3.114119 1_655
U2 Y0 3.114119 1_666
U2 Y0 3.114119 1_554
