# generated using pymatgen
data_Cr5InSe8
_symmetry_space_group_name_H-M   'P 1'
_cell_length_a   9.62145274
_cell_length_b   9.62145274
_cell_length_c   9.04564685
_cell_angle_alpha   75.71052704
_cell_angle_beta   75.71052704
_cell_angle_gamma   22.03670649
_symmetry_Int_Tables_number   1
_chemical_formula_structural   Cr5InSe8
_chemical_formula_sum   'Cr5 In1 Se8'
_cell_volume   304.08904888
_cell_formula_units_Z   1
loop_
 _symmetry_equiv_pos_site_id
 _symmetry_equiv_pos_as_xyz
  1  'x, y, z'
loop_
 _atom_site_type_symbol
 _atom_site_label
 _atom_site_symmetry_multiplicity
 _atom_site_fract_x
 _atom_site_fract_y
 _atom_site_fract_z
 _atom_site_occupancy
  Cr  Cr0  1  0.00000000  0.00000000  0.50000000  1
  Cr  Cr1  1  0.29551600  0.29551600  0.83499200  1
  Cr  Cr2  1  0.70448400  0.70448400  0.16500800  1
  Cr  Cr3  1  0.34187600  0.34187600  0.47995300  1
  Cr  Cr4  1  0.65812400  0.65812400  0.52004700  1
  In  In0  1  0.50000000  0.50000000  0.00000000  1
  Se  Se0  1  0.16954100  0.16954100  0.00875500  1
  Se  Se1  1  0.83045900  0.83045900  0.99124500  1
  Se  Se2  1  0.23925500  0.23925500  0.34194400  1
  Se  Se3  1  0.76074500  0.76074500  0.65805600  1
  Se  Se4  1  0.08620200  0.08620200  0.67375300  1
  Se  Se5  1  0.91379800  0.91379800  0.32624700  1
  Se  Se6  1  0.42588000  0.42588000  0.65906200  1
  Se  Se7  1  0.57412000  0.57412000  0.34093800  1
loop_
_geom_bond_atom_site_label_1
_geom_bond_atom_site_label_2
_geom_bond_distance
_geom_bond_site_symmetry_2
Cr0 Se6 2.529553 1_545
Cr0 Se7 2.529553 1_545
Cr0 Se6 2.529553 1_455
Cr0 Se7 2.529553 1_455
Cr0 Se4 2.531458 1_555
Cr0 Se5 2.531458 1_445
Cr1 Se0 2.500277 1_556
Cr1 Se1 2.506788 1_545
Cr1 Se1 2.506788 1_455
Cr1 Se6 2.573902 1_555
Cr1 Se3 2.627369 1_545
Cr1 Se3 2.627369 1_455
Cr2 Se1 2.500277 1_554
Cr2 Se0 2.506788 1_655
Cr2 Se0 2.506788 1_565
Cr2 Se7 2.573902 1_555
Cr2 Se2 2.627369 1_565
Cr2 Se2 2.627369 1_655
Cr3 Se5 2.492025 1_455
Cr3 Se5 2.492025 1_545
Cr3 Se6 2.536788 1_555
Cr3 Se2 2.555873 1_555
Cr3 Se3 2.661524 1_545
Cr3 Se3 2.661524 1_455
Cr4 Se4 2.492025 1_655
Cr4 Se4 2.492025 1_565
Cr4 Se7 2.536788 1_555
Cr4 Se3 2.555873 1_555
Cr4 Se2 2.661524 1_565
Cr4 Se2 2.661524 1_655
