# generated using pymatgen
data_KLa7(CuO4)4
_symmetry_space_group_name_H-M   'P 1'
_cell_length_a   13.65327428
_cell_length_b   13.65327428
_cell_length_c   13.65327428
_cell_angle_alpha   157.12581394
_cell_angle_beta   157.12581394
_cell_angle_gamma   32.57139708
_symmetry_Int_Tables_number   1
_chemical_formula_structural   KLa7(CuO4)4
_chemical_formula_sum   'K1 La7 Cu4 O16'
_cell_volume   384.23356977
_cell_formula_units_Z   1
loop_
 _symmetry_equiv_pos_site_id
 _symmetry_equiv_pos_as_xyz
  1  'x, y, z'
loop_
 _atom_site_type_symbol
 _atom_site_label
 _atom_site_symmetry_multiplicity
 _atom_site_fract_x
 _atom_site_fract_y
 _atom_site_fract_z
 _atom_site_occupancy
  K  K0  1  0.19699500  0.19699500  0.00000000  1
  La  La0  1  0.55468600  0.55468600  0.00000000  1
  La  La1  1  0.05758000  0.05758000  0.00000000  1
  La  La2  1  0.44444200  0.94444200  0.50000000  1
  La  La3  1  0.94444200  0.44444200  0.50000000  1
  La  La4  1  0.69468300  0.69468300  0.00000000  1
  La  La5  1  0.80265800  0.30265800  0.50000000  1
  La  La6  1  0.30265800  0.80265800  0.50000000  1
  Cu  Cu0  1  0.12788700  0.62788700  0.50000000  1
  Cu  Cu1  1  0.62788700  0.12788700  0.50000000  1
  Cu  Cu2  1  0.87605900  0.87605900  0.00000000  1
  Cu  Cu3  1  0.37460700  0.37460700  0.00000000  1
  O  O0  1  0.37839200  0.86245500  0.00000000  1
  O  O1  1  0.86245500  0.37839200  0.00000000  1
  O  O2  1  0.37839200  0.37839200  0.51593700  1
  O  O3  1  0.86245500  0.86245500  0.48406300  1
  O  O4  1  0.63051700  0.63051700  0.50856800  1
  O  O5  1  0.12194900  0.12194900  0.49143200  1
  O  O6  1  0.63051700  0.12194900  0.00000000  1
  O  O7  1  0.12194900  0.63051700  0.00000000  1
  O  O8  1  0.96721200  0.96721200  0.00000000  1
  O  O9  1  0.46053500  0.46053500  0.00000000  1
  O  O10  1  0.03238600  0.53238600  0.50000000  1
  O  O11  1  0.53238600  0.03238600  0.50000000  1
  O  O12  1  0.78352500  0.78352500  0.00000000  1
  O  O13  1  0.29788900  0.29788900  0.00000000  1
  O  O14  1  0.21742800  0.71742800  0.50000000  1
  O  O15  1  0.71742800  0.21742800  0.50000000  1
loop_
_geom_bond_atom_site_label_1
_geom_bond_atom_site_label_2
_geom_bond_distance
_geom_bond_site_symmetry_2
K0 O13 2.644521 1_555
K0 O14 2.759799 1_555
K0 O15 2.759799 1_555
K0 O15 2.759799 1_454
K0 O14 2.759799 1_544
K0 O2 2.816070 1_555
K0 O0 2.816070 1_545
K0 O1 2.816070 1_455
K0 O3 2.816070 1_444
La0 O9 2.467781 1_555
La0 O3 2.530570 1_555
La0 O0 2.530570 1_555
La0 O1 2.530570 1_555
La0 O2 2.530570 1_554
La0 O10 2.769711 1_655
La0 O10 2.769711 1_554
La0 O11 2.769711 1_554
La0 O11 2.769711 1_565
La1 O8 2.368625 1_445
La1 O3 2.572040 1_444
La1 O1 2.572040 1_455
La1 O0 2.572040 1_545
La1 O2 2.572040 1_555
La1 O10 2.786706 1_544
La1 O11 2.786706 1_454
La1 O11 2.786706 1_555
La1 O10 2.786706 1_555
La2 O11 2.305090 1_565
La2 O6 2.619580 1_566
La2 O5 2.619580 1_565
La2 O4 2.619580 1_555
La2 O7 2.619580 1_555
La2 O9 2.739997 1_555
La2 O9 2.739997 1_566
La2 O8 2.772337 1_455
La2 O8 2.772337 1_556
La3 O10 2.305090 1_655
La3 O7 2.619580 1_656
La3 O5 2.619580 1_655
La3 O6 2.619580 1_555
La3 O4 2.619580 1_555
La3 O9 2.739997 1_555
La3 O9 2.739997 1_656
La3 O8 2.772337 1_545
La3 O8 2.772337 1_556
La4 O12 2.328627 1_555
La4 O2 2.687643 1_554
La4 O1 2.687643 1_555
La4 O0 2.687643 1_555
La4 O3 2.687643 1_555
La4 O14 2.772196 1_554
La4 O15 2.772196 1_554
La4 O15 2.772196 1_565
La4 O14 2.772196 1_655
La5 O15 2.233953 1_555
La5 O13 2.710218 1_555
La5 O13 2.710218 1_656
La5 O4 2.717514 1_555
La5 O6 2.717514 1_555
La5 O7 2.717514 1_656
La5 O5 2.717514 1_655
La5 O12 2.753389 1_545
La5 O12 2.753389 1_556
La6 O14 2.233953 1_555
La6 O13 2.710218 1_555
La6 O13 2.710218 1_566
La6 O4 2.717514 1_555
La6 O7 2.717514 1_555
La6 O5 2.717514 1_565
La6 O6 2.717514 1_566
La6 O12 2.753389 1_455
La6 O12 2.753389 1_556
Cu0 O2 1.925311 1_555
Cu0 O3 1.925311 1_455
Cu0 O1 1.925311 1_455
Cu0 O0 1.925311 1_556
Cu0 O14 2.346949 1_555
Cu0 O10 2.503165 1_555
Cu1 O2 1.925311 1_555
Cu1 O3 1.925311 1_545
Cu1 O0 1.925311 1_545
Cu1 O1 1.925311 1_556
Cu1 O15 2.346949 1_555
Cu1 O11 2.503165 1_555
Cu2 O5 1.881575 1_665
Cu2 O4 1.881575 1_554
Cu2 O6 1.881575 1_565
Cu2 O7 1.881575 1_655
Cu2 O8 2.389201 1_555
Cu2 O12 2.425398 1_555
Cu3 O5 1.947645 1_554
Cu3 O4 1.947645 1_555
Cu3 O6 1.947645 1_555
Cu3 O7 1.947645 1_555
Cu3 O13 2.010846 1_555
Cu3 O9 2.252249 1_555
