# generated using pymatgen
data_Cr4CoCuS8
_symmetry_space_group_name_H-M   'P 1'
_cell_length_a   6.94022619
_cell_length_b   6.94022619
_cell_length_c   6.94022619
_cell_angle_alpha   60.00000000
_cell_angle_beta   60.00000000
_cell_angle_gamma   60.00000000
_symmetry_Int_Tables_number   1
_chemical_formula_structural   Cr4CoCuS8
_chemical_formula_sum   'Cr4 Co1 Cu1 S8'
_cell_volume   236.37735908
_cell_formula_units_Z   1
loop_
 _symmetry_equiv_pos_site_id
 _symmetry_equiv_pos_as_xyz
  1  'x, y, z'
loop_
 _atom_site_type_symbol
 _atom_site_label
 _atom_site_symmetry_multiplicity
 _atom_site_fract_x
 _atom_site_fract_y
 _atom_site_fract_z
 _atom_site_occupancy
  Cr  Cr0  1  0.62170700  0.12609800  0.12609800  1
  Cr  Cr1  1  0.12609800  0.62170700  0.12609800  1
  Cr  Cr2  1  0.12609800  0.12609800  0.62170700  1
  Cr  Cr3  1  0.12609800  0.12609800  0.12609800  1
  Co  Co0  1  0.75000000  0.75000000  0.75000000  1
  Cu  Cu0  1  0.50000000  0.50000000  0.50000000  1
  S  S0  1  0.35885800  0.88038100  0.88038100  1
  S  S1  1  0.88038100  0.35885800  0.88038100  1
  S  S2  1  0.88038100  0.88038100  0.35885800  1
  S  S3  1  0.88038100  0.88038100  0.88038100  1
  S  S4  1  0.89808500  0.36730500  0.36730500  1
  S  S5  1  0.36730500  0.89808500  0.36730500  1
  S  S6  1  0.36730500  0.36730500  0.89808500  1
  S  S7  1  0.36730500  0.36730500  0.36730500  1
loop_
_geom_bond_atom_site_label_1
_geom_bond_atom_site_label_2
_geom_bond_distance
_geom_bond_site_symmetry_2
Cr0 S7 2.369208 1_555
Cr0 S6 2.369213 1_554
Cr0 S5 2.369213 1_545
Cr0 S2 2.413379 1_545
Cr0 S1 2.413379 1_554
Cr0 S3 2.413379 1_544
Cr1 S7 2.369208 1_555
Cr1 S6 2.369213 1_554
Cr1 S4 2.369213 1_455
Cr1 S2 2.413379 1_455
Cr1 S0 2.413379 1_554
Cr1 S3 2.413379 1_454
Cr2 S7 2.369208 1_555
Cr2 S5 2.369213 1_545
Cr2 S4 2.369213 1_455
Cr2 S1 2.413379 1_455
Cr2 S0 2.413379 1_545
Cr2 S3 2.413379 1_445
Cr3 S4 2.369208 1_455
Cr3 S6 2.369208 1_554
Cr3 S5 2.369208 1_545
Cr3 S1 2.413379 1_454
Cr3 S0 2.413379 1_544
Cr3 S2 2.413379 1_445
Co0 S2 2.216473 1_555
Co0 S1 2.216473 1_555
Co0 S0 2.216473 1_555
Co0 S3 2.216479 1_555
Cu0 S6 2.255817 1_555
Cu0 S7 2.255817 1_555
Cu0 S5 2.255817 1_555
Cu0 S4 2.255817 1_555
