# generated using pymatgen
data_Sr2Co(ClO)2
_symmetry_space_group_name_H-M   'P 1'
_cell_length_a   5.79487157
_cell_length_b   10.04278181
_cell_length_c   10.04220573
_cell_angle_alpha   79.65979463
_cell_angle_beta   106.15401365
_cell_angle_gamma   73.84119015
_symmetry_Int_Tables_number   1
_chemical_formula_structural   Sr2Co(ClO)2
_chemical_formula_sum   'Sr8 Co4 Cl8 O8'
_cell_volume   517.84216837
_cell_formula_units_Z   4
loop_
 _symmetry_equiv_pos_site_id
 _symmetry_equiv_pos_as_xyz
  1  'x, y, z'
loop_
 _atom_site_type_symbol
 _atom_site_label
 _atom_site_symmetry_multiplicity
 _atom_site_fract_x
 _atom_site_fract_y
 _atom_site_fract_z
 _atom_site_occupancy
  Sr  Sr0  1  0.00429700  0.39231400  0.39463400  1
  Sr  Sr1  1  0.24960000  0.64421900  0.14332300  1
  Sr  Sr2  1  0.49655500  0.89359200  0.89315100  1
  Sr  Sr3  1  0.74928100  0.14390600  0.64283500  1
  Sr  Sr4  1  0.74930300  0.35715300  0.85610600  1
  Sr  Sr5  1  0.00437500  0.60534000  0.60774100  1
  Sr  Sr6  1  0.24975600  0.85665800  0.35579800  1
  Sr  Sr7  1  0.49659100  0.10680300  0.10642100  1
  Co  Co0  1  0.25079200  0.24908800  0.75091000  1
  Co  Co1  1  0.50193900  0.50082300  0.49917400  1
  Co  Co2  1  0.75061500  0.74975400  0.25026600  1
  Co  Co3  1  0.99684900  0.00033900  0.99966300  1
  Cl  Cl0  1  0.75005200  0.57238700  0.07260900  1
  Cl  Cl1  1  0.99862200  0.82093400  0.82059300  1
  Cl  Cl2  1  0.25008700  0.07010500  0.57049400  1
  Cl  Cl3  1  0.50110200  0.32066500  0.32042200  1
  Cl  Cl4  1  0.99866500  0.17938800  0.17907900  1
  Cl  Cl5  1  0.25012200  0.42948800  0.92991200  1
  Cl  Cl6  1  0.50113300  0.67956500  0.67935400  1
  Cl  Cl7  1  0.75002600  0.92740700  0.42759300  1
  O  O0  1  0.37750800  0.37352800  0.62648200  1
  O  O1  1  0.62974600  0.62685900  0.37315000  1
  O  O2  1  0.87026900  0.87345700  0.12653100  1
  O  O3  1  0.12252800  0.12627200  0.87373300  1
  O  O4  1  0.62490000  0.12426200  0.87571800  1
  O  O5  1  0.87526700  0.37548900  0.62452300  1
  O  O6  1  0.13623500  0.62186100  0.37812700  1
  O  O7  1  0.36378900  0.87834000  0.12165900  1
loop_
_geom_bond_atom_site_label_1
_geom_bond_atom_site_label_2
_geom_bond_distance
_geom_bond_site_symmetry_2
Co0 O3 2.017262 1_555
Co0 O0 2.030540 1_555
Co0 O4 2.062422 1_555
Co0 O5 2.074850 1_455
Co1 O6 2.012107 1_555
Co1 O1 2.054405 1_555
Co1 O0 2.056206 1_555
Co1 O5 2.061394 1_555
Co2 O1 1.987974 1_555
Co2 O2 1.993199 1_555
Co2 O6 2.122674 1_655
Co2 O7 2.130622 1_555
Co3 O7 2.021140 1_646
Co3 O3 2.044550 1_655
Co3 O4 2.049847 1_555
Co3 O2 2.059703 1_546
Cl0 Co2 2.737992 1_555
Cl0 Sr1 3.098449 1_555
Cl0 Sr1 3.099522 1_655
Cl0 Sr2 3.100625 1_554
Cl0 Sr0 3.108900 1_655
Cl0 Sr4 3.329619 1_554
Cl1 Co3 2.764621 1_565
Cl1 Sr2 3.095499 1_655
Cl1 Sr1 3.105506 1_656
Cl1 Sr3 3.110065 1_565
Cl1 Sr2 3.117192 1_555
Cl1 Sr5 3.304367 1_655
Cl2 Co0 2.771743 1_555
Cl2 Sr0 3.098701 1_555
Cl2 Sr2 3.104006 1_545
Cl2 Sr3 3.108451 1_555
Cl2 Sr3 3.109421 1_455
Cl2 Sr6 3.301901 1_545
Cl3 Co1 2.767986 1_555
Cl3 Sr0 3.097529 1_555
Cl3 Sr3 3.102769 1_555
Cl3 Sr1 3.113321 1_555
Cl3 Sr0 3.118826 1_655
Cl3 Sr7 3.299836 1_555
Cl4 Co3 2.764545 1_554
Cl4 Sr7 3.095335 1_655
Cl4 Sr6 3.105599 1_645
Cl4 Sr4 3.110023 1_554
Cl4 Sr7 3.117506 1_555
Cl4 Sr0 3.304633 1_655
Cl5 Co0 2.771766 1_555
Cl5 Sr5 3.098297 1_555
Cl5 Sr7 3.104295 1_556
Cl5 Sr4 3.108275 1_555
Cl5 Sr4 3.109591 1_455
Cl5 Sr1 3.301895 1_556
Cl6 Co1 2.768077 1_555
Cl6 Sr5 3.097472 1_555
Cl6 Sr4 3.102813 1_555
Cl6 Sr6 3.113239 1_555
Cl6 Sr5 3.118758 1_655
Cl6 Sr2 3.299533 1_555
Cl7 Co2 2.737653 1_555
Cl7 Sr6 3.097773 1_555
Cl7 Sr7 3.100119 1_565
Cl7 Sr6 3.100184 1_655
Cl7 Sr5 3.109519 1_655
Cl7 Sr3 3.329650 1_565
O0 Sr3 2.624517 1_555
O0 Sr4 2.624583 1_555
O0 Sr5 2.635334 1_555
O0 Sr0 2.635726 1_555
O1 Sr0 2.648996 1_655
O1 Sr6 2.649295 1_555
O1 Sr5 2.649485 1_655
O1 Sr1 2.650018 1_555
O2 Sr7 2.642692 1_565
O2 Sr2 2.643000 1_554
O2 Sr1 2.645394 1_655
O2 Sr6 2.646127 1_655
O3 Sr4 2.633187 1_455
O3 Sr3 2.633398 1_455
O3 Sr2 2.641670 1_545
O3 Sr7 2.641728 1_556
O4 Sr2 2.614601 1_545
O4 Sr7 2.614623 1_556
O4 Sr3 2.622830 1_555
O4 Sr4 2.623154 1_555
O5 Sr0 2.609218 1_655
O5 Sr5 2.609285 1_655
O5 Sr4 2.615500 1_555
O5 Sr3 2.615748 1_555
O6 Sr1 2.606892 1_555
O6 Sr6 2.607477 1_555
O6 Sr0 2.615487 1_555
O6 Sr5 2.615698 1_555
O7 Sr6 2.602579 1_555
O7 Sr1 2.603058 1_555
O7 Sr7 2.608108 1_565
O7 Sr2 2.608243 1_554
