# generated using pymatgen
data_Ho2MgS4
_symmetry_space_group_name_H-M   'P 1'
_cell_length_a   7.16272647
_cell_length_b   7.16272647
_cell_length_c   7.16272647
_cell_angle_alpha   110.48753612
_cell_angle_beta   110.48753612
_cell_angle_gamma   107.45716908
_symmetry_Int_Tables_number   1
_chemical_formula_structural   Ho2MgS4
_chemical_formula_sum   'Ho4 Mg2 S8'
_cell_volume   282.62612376
_cell_formula_units_Z   2
loop_
 _symmetry_equiv_pos_site_id
 _symmetry_equiv_pos_as_xyz
  1  'x, y, z'
loop_
 _atom_site_type_symbol
 _atom_site_label
 _atom_site_symmetry_multiplicity
 _atom_site_fract_x
 _atom_site_fract_y
 _atom_site_fract_z
 _atom_site_occupancy
  Ho  Ho0  1  0.87500000  0.75748700  0.38248700  1
  Ho  Ho1  1  0.50748700  0.12500000  0.88248700  1
  Ho  Ho2  1  0.37500000  0.49251300  0.61751300  1
  Ho  Ho3  1  0.24251300  0.62500000  0.11751300  1
  Mg  Mg0  1  0.00000000  0.00000000  0.00000000  1
  Mg  Mg1  1  0.75000000  0.25000000  0.50000000  1
  S  S0  1  0.50715000  0.37910800  0.26175700  1
  S  S1  1  0.75460700  0.49285000  0.87195800  1
  S  S2  1  0.11735000  0.24539300  0.73824300  1
  S  S3  1  0.62089200  0.88265000  0.12804200  1
  S  S4  1  0.24285000  0.00460700  0.37195800  1
  S  S5  1  0.99539300  0.36735000  0.23824300  1
  S  S6  1  0.63265000  0.87089200  0.62804200  1
  S  S7  1  0.12910800  0.75715000  0.76175700  1
loop_
_geom_bond_atom_site_label_1
_geom_bond_atom_site_label_2
_geom_bond_distance
_geom_bond_site_symmetry_2
Ho0 S7 2.690498 1_655
Ho0 S3 2.690503 1_555
Ho0 S0 2.741414 1_555
Ho0 S4 2.741414 1_665
Ho0 S6 2.958004 1_555
Ho0 S2 2.958011 1_665
Ho0 S1 3.109412 1_554
Ho0 S5 3.109418 1_555
Ho1 S0 2.690498 1_556
Ho1 S6 2.690503 1_545
Ho1 S7 2.741414 1_545
Ho1 S1 2.741414 1_555
Ho1 S3 2.958004 1_546
Ho1 S5 2.958011 1_556
Ho1 S4 3.109412 1_555
Ho1 S2 3.109418 1_555
Ho2 S5 2.690495 1_455
Ho2 S1 2.690498 1_555
Ho2 S6 2.741417 1_555
Ho2 S2 2.741418 1_555
Ho2 S4 2.958010 1_555
Ho2 S0 2.958010 1_555
Ho2 S7 3.109412 1_555
Ho2 S3 3.109414 1_556
Ho3 S2 2.690495 1_554
Ho3 S4 2.690498 1_565
Ho3 S3 2.741417 1_555
Ho3 S5 2.741418 1_455
Ho3 S1 2.958010 1_454
Ho3 S7 2.958010 1_554
Ho3 S0 3.109412 1_555
Ho3 S6 3.109414 1_555
Mg0 S5 2.604782 1_455
Mg0 S6 2.604784 1_444
Mg0 S7 2.604788 1_544
Mg0 S4 2.604788 1_555
Mg0 S2 3.136046 1_554
Mg0 S3 3.136047 1_445
Mg0 S1 3.136048 1_444
Mg0 S0 3.136048 1_555
Mg1 S2 2.604782 1_655
Mg1 S3 2.604784 1_545
Mg1 S1 2.604788 1_555
Mg1 S0 2.604788 1_555
Mg1 S5 3.136046 1_555
Mg1 S6 3.136047 1_545
Mg1 S4 3.136048 1_555
Mg1 S7 3.136048 1_655
