# generated using pymatgen
data_Te2MoWSe2
_symmetry_space_group_name_H-M   'P 1'
_cell_length_a   3.43614041
_cell_length_b   3.43614041
_cell_length_c   39.14672100
_cell_angle_alpha   90.00000000
_cell_angle_beta   90.00000000
_cell_angle_gamma   120.00000782
_symmetry_Int_Tables_number   1
_chemical_formula_structural   Te2MoWSe2
_chemical_formula_sum   'Te4 Mo2 W2 Se4'
_cell_volume   400.28359453
_cell_formula_units_Z   2
loop_
 _symmetry_equiv_pos_site_id
 _symmetry_equiv_pos_as_xyz
  1  'x, y, z'
loop_
 _atom_site_type_symbol
 _atom_site_label
 _atom_site_symmetry_multiplicity
 _atom_site_fract_x
 _atom_site_fract_y
 _atom_site_fract_z
 _atom_site_occupancy
  Te  Te0  1  0.00000000  0.00000000  0.32925500  1
  Te  Te1  1  0.33333300  0.66666700  0.04646600  1
  Te  Te2  1  0.33333300  0.66666700  0.14135900  1
  Te  Te3  1  0.00000000  0.00000000  0.23435600  1
  Mo  Mo0  1  0.00000000  0.00000000  0.09389500  1
  Mo  Mo1  1  0.33333300  0.66666700  0.28182100  1
  W  W0  1  0.00000000  0.00000000  0.46967600  1
  W  W1  1  0.33333300  0.66666700  0.65753500  1
  Se  Se0  1  0.00000000  0.00000000  0.69953800  1
  Se  Se1  1  0.33333300  0.66666700  0.42764600  1
  Se  Se2  1  0.33333300  0.66666700  0.51167400  1
  Se  Se3  1  0.00000000  0.00000000  0.61552700  1
loop_
_geom_bond_atom_site_label_1
_geom_bond_atom_site_label_2
_geom_bond_distance
_geom_bond_site_symmetry_2
Mo0 Te1 2.717163 1_545
Mo0 Te1 2.717165 1_445
Mo0 Te1 2.717165 1_555
Mo0 Te2 2.718100 1_545
Mo0 Te2 2.718102 1_555
Mo0 Te2 2.718102 1_445
Mo1 Te0 2.717297 1_565
Mo1 Te0 2.717299 1_665
Mo1 Te0 2.717299 1_555
Mo1 Te3 2.718127 1_565
Mo1 Te3 2.718129 1_665
Mo1 Te3 2.718129 1_555
Se0 W1 2.576691 1_545
Se0 W1 2.576693 1_445
Se0 W1 2.576693 1_555
Se1 W0 2.577365 1_565
Se1 W0 2.577367 1_665
Se1 W0 2.577367 1_555
Se2 W0 2.576566 1_565
Se2 W0 2.576568 1_665
Se2 W0 2.576568 1_555
Se3 W1 2.576816 1_545
Se3 W1 2.576818 1_445
Se3 W1 2.576818 1_555
