# generated using pymatgen
data_Al12Fe7
_symmetry_space_group_name_H-M   'P 1'
_cell_length_a   4.84512472
_cell_length_b   6.34094237
_cell_length_c   8.75763270
_cell_angle_alpha   87.55747048
_cell_angle_beta   73.93996839
_cell_angle_gamma   82.84489245
_symmetry_Int_Tables_number   1
_chemical_formula_structural   Al12Fe7
_chemical_formula_sum   'Al12 Fe7'
_cell_volume   256.53417479
_cell_formula_units_Z   1
loop_
 _symmetry_equiv_pos_site_id
 _symmetry_equiv_pos_as_xyz
  1  'x, y, z'
loop_
 _atom_site_type_symbol
 _atom_site_label
 _atom_site_symmetry_multiplicity
 _atom_site_fract_x
 _atom_site_fract_y
 _atom_site_fract_z
 _atom_site_occupancy
  Al  Al0  1  0.40488835  0.45904068  0.29711769  1
  Al  Al1  1  0.59511165  0.54095932  0.70288231  1
  Al  Al2  1  0.03797171  0.11402410  0.70963148  1
  Al  Al3  1  0.96202829  0.88597590  0.29036852  1
  Al  Al4  1  0.59701323  0.18214201  0.52673098  1
  Al  Al5  1  0.40298677  0.81785799  0.47326902  1
  Al  Al6  1  0.31297025  0.66386461  0.03258704  1
  Al  Al7  1  0.68702975  0.33613539  0.96741296  1
  Al  Al8  1  0.01153439  0.29648235  0.17189236  1
  Al  Al9  1  0.98846561  0.70351765  0.82810764  1
  Al  Al10  1  0.48790934  0.01951361  0.16744846  1
  Al  Al11  1  0.51209066  0.98048639  0.83255154  1
  Fe  Fe0  1  0.22082472  0.34067002  0.87599334  1
  Fe  Fe1  1  0.77917528  0.65932998  0.12400666  1
  Fe  Fe2  1  0.13033742  0.17187480  0.42350334  1
  Fe  Fe3  1  0.86966258  0.82812520  0.57649666  1
  Fe  Fe4  1  -0.00000000  0.00000000  0.00000000  1
  Fe  Fe5  1  0.18200092  0.47322112  0.59006934  1
  Fe  Fe6  1  0.81799908  0.52677888  0.40993066  1
loop_
_geom_bond_atom_site_label_1
_geom_bond_atom_site_label_2
_geom_bond_distance
_geom_bond_site_symmetry_2
Al0 Fe2 2.434601 1_555
Al0 Fe1 2.467485 1_555
Al0 Fe5 2.493783 1_555
Al0 Fe6 2.551734 1_555
Al0 Al6 2.724406 1_555
Al0 Fe6 2.724683 1_455
Al0 Al8 2.763985 1_555
Al0 Al5 2.800484 1_555
Al0 Al4 2.884532 1_555
Al0 Al8 2.909064 1_655
Al0 Al7 2.925037 1_554
Al0 Al10 2.992756 1_555
Al1 Fe3 2.434601 1_555
Al1 Fe0 2.467485 1_555
Al1 Fe6 2.493783 1_555
Al1 Fe5 2.551734 1_555
Al1 Al7 2.724406 1_555
Al1 Fe5 2.724683 1_655
Al1 Al9 2.763985 1_555
Al1 Al4 2.800484 1_555
Al1 Al5 2.884532 1_555
Al1 Al9 2.909064 1_455
Al1 Al6 2.925037 1_556
Al1 Al11 2.992756 1_555
Al2 Fe2 2.440489 1_555
Al2 Fe0 2.486518 1_555
Al2 Fe3 2.526941 1_445
Al2 Fe5 2.561137 1_555
Al2 Fe4 2.576961 1_556
Al2 Al7 2.742609 1_455
Al2 Al9 2.774404 1_445
Al2 Al4 2.814405 1_555
Al2 Al5 2.901343 1_545
Al2 Al4 2.986885 1_455
Al3 Fe3 2.440489 1_555
Al3 Fe1 2.486518 1_555
Al3 Fe2 2.526941 1_665
Al3 Fe6 2.561137 1_555
Al3 Fe4 2.576961 1_665
Al3 Al6 2.742609 1_655
Al3 Al8 2.774404 1_665
Al3 Al5 2.814405 1_555
Al3 Al4 2.901343 1_565
Al3 Al5 2.986885 1_655
Al4 Fe2 2.483805 1_655
Al4 Fe5 2.510621 1_555
Al4 Fe3 2.543739 1_545
Al4 Fe6 2.598987 1_555
Al4 Fe2 2.665851 1_555
Al4 Al5 2.704677 1_545
Al5 Fe3 2.483805 1_455
Al5 Fe6 2.510621 1_555
Al5 Fe2 2.543739 1_565
Al5 Fe5 2.598987 1_555
Al5 Fe3 2.665851 1_555
Al6 Fe1 2.490318 1_455
Al6 Fe4 2.511222 1_565
Al6 Al7 2.553335 1_554
Al6 Fe1 2.593559 1_555
Al6 Fe0 2.661980 1_554
Al6 Al9 2.676377 1_454
Al6 Al8 2.944093 1_555
Al7 Fe0 2.490318 1_655
Al7 Fe4 2.511222 1_656
Al7 Fe0 2.593559 1_555
Al7 Fe1 2.661980 1_556
Al7 Al8 2.676377 1_656
Al7 Al9 2.944093 1_555
Al8 Fe4 2.473361 1_555
Al8 Fe6 2.488840 1_455
Al8 Fe2 2.500241 1_555
Al8 Fe1 2.504135 1_455
Al8 Fe0 2.525270 1_554
Al9 Fe4 2.473361 1_666
Al9 Fe5 2.488840 1_655
Al9 Fe3 2.500241 1_555
Al9 Fe0 2.504135 1_655
Al9 Fe1 2.525270 1_556
Al10 Fe4 2.499544 1_655
Al10 Fe1 2.515272 1_545
Al10 Fe2 2.565456 1_555
Al10 Al7 2.697795 1_554
Al10 Al3 2.703719 1_445
Al10 Al8 2.712848 1_555
Al10 Al3 2.821126 1_545
Al10 Al5 2.864765 1_545
Al10 Al6 2.907941 1_545
Al10 Al11 2.922570 1_544
Al10 Fe4 3.124196 1_555
Al11 Fe4 2.499544 1_566
Al11 Fe0 2.515272 1_565
Al11 Fe3 2.565456 1_555
Al11 Al6 2.697795 1_556
Al11 Al2 2.703719 1_665
Al11 Al9 2.712848 1_555
Al11 Al2 2.821126 1_565
Al11 Al4 2.864765 1_565
Al11 Al7 2.907941 1_565
Al11 Fe4 3.124196 1_666
Fe0 Fe4 2.592948 1_556
Fe0 Fe5 2.655892 1_555
Fe1 Fe4 2.592948 1_665
Fe1 Fe6 2.655892 1_555
Fe2 Fe5 2.529926 1_555
Fe2 Fe6 2.568468 1_455
Fe2 Fe3 2.764424 1_445
Fe3 Fe6 2.529926 1_555
Fe3 Fe5 2.568468 1_655
Fe5 Fe6 2.656890 1_455
