# generated using pymatgen
data_NaCu2H3(SO5)2
_symmetry_space_group_name_H-M   'P 1'
_cell_length_a   5.45254531
_cell_length_b   5.45254531
_cell_length_c   7.66830387
_cell_angle_alpha   66.02704932
_cell_angle_beta   66.02704932
_cell_angle_gamma   70.52130223
_symmetry_Int_Tables_number   1
_chemical_formula_structural   NaCu2H3(SO5)2
_chemical_formula_sum   'Na1 Cu2 H3 S2 O10'
_cell_volume   186.43397408
_cell_formula_units_Z   1
loop_
 _symmetry_equiv_pos_site_id
 _symmetry_equiv_pos_as_xyz
  1  'x, y, z'
loop_
 _atom_site_type_symbol
 _atom_site_label
 _atom_site_symmetry_multiplicity
 _atom_site_fract_x
 _atom_site_fract_y
 _atom_site_fract_z
 _atom_site_occupancy
  Na  Na0  1  0.00000000  0.00000000  0.00000000  1
  Cu  Cu0  1  0.50000000  0.00000000  0.50000000  1
  Cu  Cu1  1  0.00000000  0.50000000  0.50000000  1
  H  H0  1  0.79225200  0.79225200  0.72161600  1
  H  H1  1  0.20774800  0.20774800  0.27838400  1
  H  H2  1  0.00000000  0.00000000  0.50000000  1
  S  S0  1  0.59080800  0.59080800  0.19942700  1
  S  S1  1  0.40919200  0.40919200  0.80057300  1
  O  O0  1  0.29065600  0.29065600  0.01767200  1
  O  O1  1  0.70934400  0.70934400  0.98232800  1
  O  O2  1  0.69235800  0.69235800  0.30588100  1
  O  O3  1  0.30764200  0.30764200  0.69411900  1
  O  O4  1  0.67478900  0.28154600  0.25614000  1
  O  O5  1  0.32521100  0.71845400  0.74386000  1
  O  O6  1  0.71845400  0.32521100  0.74386000  1
  O  O7  1  0.28154600  0.67478900  0.25614000  1
  O  O8  1  0.84446800  0.84446800  0.57290000  1
  O  O9  1  0.15553200  0.15553200  0.42710000  1
loop_
_geom_bond_atom_site_label_1
_geom_bond_atom_site_label_2
_geom_bond_distance
_geom_bond_site_symmetry_2
Na0 O3 2.571254 1_554
Na0 O2 2.571254 1_445
Na0 O1 2.658143 1_444
Na0 O0 2.658143 1_555
Na0 O7 2.676466 1_545
Na0 O6 2.676466 1_454
Na0 O5 2.676466 1_544
Na0 O4 2.676466 1_455
Cu0 O5 1.989114 1_545
Cu0 O4 1.989114 1_555
Cu0 O8 1.991262 1_545
Cu0 O9 1.991262 1_555
Cu0 O2 2.390959 1_545
Cu0 O3 2.390959 1_555
Cu1 O6 1.989114 1_455
Cu1 O7 1.989114 1_555
Cu1 O8 1.991262 1_455
Cu1 O9 1.991262 1_555
Cu1 O2 2.390959 1_455
Cu1 O3 2.390959 1_555
H0 O8 0.994489 1_555
H1 O9 0.994489 1_555
H2 O9 1.208313 1_555
H2 O8 1.208313 1_445
O0 S1 1.461793 1_554
O1 S0 1.461793 1_556
O2 S0 1.489508 1_555
O3 S1 1.489508 1_555
O4 S0 1.514346 1_555
O5 S1 1.514346 1_555
O6 S1 1.514346 1_555
O7 S0 1.514346 1_555
