# generated using pymatgen
data_Sr4LiMn2Ga2O11
_symmetry_space_group_name_H-M   'P 1'
_cell_length_a   5.89359703
_cell_length_b   5.75123337
_cell_length_c   8.95957304
_cell_angle_alpha   68.52380788
_cell_angle_beta   68.61352407
_cell_angle_gamma   84.95076486
_symmetry_Int_Tables_number   1
_chemical_formula_structural   Sr4LiMn2Ga2O11
_chemical_formula_sum   'Sr4 Li1 Mn2 Ga2 O11'
_cell_volume   262.78110173
_cell_formula_units_Z   1
loop_
 _symmetry_equiv_pos_site_id
 _symmetry_equiv_pos_as_xyz
  1  'x, y, z'
loop_
 _atom_site_type_symbol
 _atom_site_label
 _atom_site_symmetry_multiplicity
 _atom_site_fract_x
 _atom_site_fract_y
 _atom_site_fract_z
 _atom_site_occupancy
  Sr  Sr0  1  0.20402300  0.62791100  0.73767400  1
  Sr  Sr1  1  0.61351800  0.08436100  0.70956100  1
  Sr  Sr2  1  0.34141000  0.85092500  0.27906100  1
  Sr  Sr3  1  0.88350200  0.35557500  0.25788900  1
  Li  Li0  1  0.81883500  0.40798800  0.76896200  1
  Mn  Mn0  1  0.24778700  0.23653300  0.50597200  1
  Mn  Mn1  1  0.75883600  0.73991500  0.48866900  1
  Ga  Ga0  1  0.51057100  0.49676500  0.03049100  1
  Ga  Ga1  1  0.91364400  0.98556700  0.00345100  1
  O  O0  1  0.14925600  0.05701700  0.77825700  1
  O  O1  1  0.61617300  0.65302500  0.73020400  1
  O  O2  1  0.35042700  0.41021100  0.27128400  1
  O  O3  1  0.94122700  0.82597000  0.21714500  1
  O  O4  1  0.51338500  0.99752800  0.46922000  1
  O  O5  1  0.98925300  0.46875900  0.54320300  1
  O  O6  1  0.98435500  0.98624000  0.48468600  1
  O  O7  1  0.52761700  0.49956600  0.50020100  1
  O  O8  1  0.79040000  0.30303900  0.99424500  1
  O  O9  1  0.65065200  0.81211000  0.99713700  1
  O  O10  1  0.25465400  0.37956700  0.00612500  1
loop_
_geom_bond_atom_site_label_1
_geom_bond_atom_site_label_2
_geom_bond_distance
_geom_bond_site_symmetry_2
Li0 O1 1.783562 1_555
Li0 O5 1.812390 1_555
Li0 O8 1.829079 1_555
Li0 Sr0 2.571692 1_655
Li0 Sr1 2.608294 1_555
Mn0 O2 1.850893 1_555
Mn0 O5 1.952955 1_455
Mn0 O4 2.006215 1_545
Mn0 O0 2.140717 1_555
Mn0 O6 2.308533 1_445
Mn0 O7 2.308830 1_555
Mn1 O1 1.896016 1_555
Mn1 O7 1.975532 1_555
Mn1 O4 1.983844 1_555
Mn1 O6 2.008636 1_555
Mn1 O5 2.016938 1_555
Mn1 O3 2.150233 1_555
Ga0 O10 1.817608 1_555
Ga0 O2 1.898495 1_555
Ga0 O8 1.901993 1_554
Ga0 O9 1.935688 1_554
Ga0 O1 2.353781 1_554
Ga1 O3 1.857034 1_555
Ga1 O8 1.888945 1_564
Ga1 O0 1.902100 1_664
Ga1 O9 1.943769 1_554
O0 Sr1 2.582023 1_555
O0 Sr0 2.599638 1_545
O0 Sr0 3.200551 1_555
O1 Sr1 2.418205 1_565
O1 Sr0 2.421099 1_555
O2 Sr2 2.556371 1_555
O2 Sr3 2.847210 1_455
O2 Sr3 3.092322 1_555
O3 Sr3 2.629871 1_555
O3 Sr2 2.638756 1_655
O3 Sr3 3.172946 1_565
O4 Sr1 2.645883 1_565
O4 Sr2 2.665072 1_555
O4 Sr0 2.714466 1_555
O4 Sr3 2.739912 1_565
O5 Sr1 2.838049 1_555
O5 Sr2 2.855031 1_655
O5 Sr0 2.907927 1_655
O5 Sr3 3.130274 1_555
O6 Sr2 2.522323 1_655
O6 Sr3 2.548022 1_565
O6 Sr1 2.560944 1_565
O6 Sr0 3.051396 1_655
O7 Sr0 2.579100 1_555
O7 Sr1 2.584000 1_555
O7 Sr2 2.734442 1_555
O7 Sr3 2.736435 1_555
O8 Sr3 2.732970 1_556
O8 Sr0 2.878833 1_655
O9 Sr1 2.556384 1_565
O9 Sr2 2.595298 1_556
O10 Sr0 2.418063 1_554
O10 Sr3 2.473599 1_455
