# generated using pymatgen
data_Ba2Mg(PO4)2
_symmetry_space_group_name_H-M   'P 1'
_cell_length_a   8.86387453
_cell_length_b   5.32087161
_cell_length_c   17.01262203
_cell_angle_alpha   72.43610205
_cell_angle_beta   90.00000000
_cell_angle_gamma   90.00000000
_symmetry_Int_Tables_number   1
_chemical_formula_structural   Ba2Mg(PO4)2
_chemical_formula_sum   'Ba8 Mg4 P8 O32'
_cell_volume   764.96951206
_cell_formula_units_Z   4
loop_
 _symmetry_equiv_pos_site_id
 _symmetry_equiv_pos_as_xyz
  1  'x, y, z'
loop_
 _atom_site_type_symbol
 _atom_site_label
 _atom_site_symmetry_multiplicity
 _atom_site_fract_x
 _atom_site_fract_y
 _atom_site_fract_z
 _atom_site_occupancy
  Ba  Ba0  1  0.65688182  0.52453234  0.22860326  1
  Ba  Ba1  1  0.15688182  0.47546766  0.27139674  1
  Ba  Ba2  1  0.34311818  0.47546766  0.77139674  1
  Ba  Ba3  1  0.84311818  0.52453234  0.72860326  1
  Ba  Ba4  1  0.20373859  0.68148903  0.51982463  1
  Ba  Ba5  1  0.70373859  0.31851097  0.98017537  1
  Ba  Ba6  1  0.79626141  0.31851097  0.48017537  1
  Ba  Ba7  1  0.29626141  0.68148903  0.01982463  1
  Mg  Mg0  1  0.98537835  0.90689456  0.86647052  1
  Mg  Mg1  1  0.48537835  0.09310544  0.63352948  1
  Mg  Mg2  1  0.51462165  0.90689456  0.36647052  1
  Mg  Mg3  1  0.01462165  0.09310544  0.13352948  1
  P  P0  1  0.41288511  0.31284221  0.42234731  1
  P  P1  1  0.89032711  0.91942003  0.33296504  1
  P  P2  1  0.08711489  0.31284221  0.92234731  1
  P  P3  1  0.58711489  0.68715779  0.57765269  1
  P  P4  1  0.60967289  0.91942003  0.83296504  1
  P  P5  1  0.10967289  0.08057997  0.66703496  1
  P  P6  1  0.39032711  0.08057997  0.16703496  1
  P  P7  1  0.91288511  0.68715779  0.07765269  1
  O  O0  1  0.88978180  0.20806068  0.33430243  1
  O  O1  1  0.38978180  0.79193932  0.16569757  1
  O  O2  1  0.11021820  0.79193932  0.66569757  1
  O  O3  1  0.61021820  0.20806068  0.83430243  1
  O  O4  1  0.72690443  0.81569219  0.33318883  1
  O  O5  1  0.22690443  0.18430781  0.16681117  1
  O  O6  1  0.27309557  0.18430781  0.66681117  1
  O  O7  1  0.77309557  0.81569219  0.83318883  1
  O  O8  1  0.97435735  0.74149268  0.40889780  1
  O  O9  1  0.47435735  0.25850732  0.09110220  1
  O  O10  1  0.02564265  0.25850732  0.59110220  1
  O  O11  1  0.52564265  0.74149268  0.90889780  1
  O  O12  1  0.96966339  0.90073901  0.25420996  1
  O  O13  1  0.46966339  0.09926099  0.24579004  1
  O  O14  1  0.03033661  0.09926099  0.74579004  1
  O  O15  1  0.53033661  0.90073901  0.75420996  1
  O  O16  1  0.86431198  0.40042603  0.12271040  1
  O  O17  1  0.36431198  0.59957397  0.37728960  1
  O  O18  1  0.13568802  0.59957397  0.87728960  1
  O  O19  1  0.63568802  0.40042603  0.62271040  1
  O  O20  1  0.58299643  0.73127383  0.48530782  1
  O  O21  1  0.08299643  0.26872617  0.01469218  1
  O  O22  1  0.41700357  0.26872617  0.51469218  1
  O  O23  1  0.91700357  0.73127383  0.98530782  1
  O  O24  1  0.69707577  0.88079455  0.59903437  1
  O  O25  1  0.19707577  0.11920545  0.90096563  1
  O  O26  1  0.30292423  0.11920545  0.40096563  1
  O  O27  1  0.80292423  0.88079455  0.09903437  1
  O  O28  1  0.43353696  0.73626796  0.61326805  1
  O  O29  1  0.93353696  0.26373204  0.88673195  1
  O  O30  1  0.56646304  0.26373204  0.38673195  1
  O  O31  1  0.06646304  0.73626796  0.11326805  1
loop_
_geom_bond_atom_site_label_1
_geom_bond_atom_site_label_2
_geom_bond_distance
_geom_bond_site_symmetry_2
Ba0 O30 2.748092 1_555
Ba0 O13 2.749614 1_555
Ba0 O27 2.757932 1_555
Ba0 O4 2.759492 1_555
Ba0 O16 2.789282 1_555
Ba0 O1 2.802858 1_555
Ba0 O0 2.916047 1_555
Ba1 O31 2.748092 1_555
Ba1 O12 2.749614 1_455
Ba1 O26 2.757932 1_555
Ba1 O5 2.759492 1_555
Ba1 O17 2.789282 1_555
Ba1 O0 2.802858 1_455
Ba1 O1 2.916047 1_555
Ba2 O28 2.748092 1_555
Ba2 O15 2.749614 1_555
Ba2 O25 2.757932 1_555
Ba2 O6 2.759492 1_555
Ba2 O18 2.789282 1_555
Ba2 O3 2.802858 1_555
Ba2 O2 2.916047 1_555
Ba3 O29 2.748092 1_555
Ba3 O14 2.749614 1_655
Ba3 O24 2.757932 1_555
Ba3 O7 2.759492 1_555
Ba3 O19 2.789282 1_555
Ba3 O2 2.802858 1_655
Ba3 O3 2.916047 1_555
Ba4 O28 2.653449 1_555
Ba4 O10 2.716740 1_555
Ba4 O8 2.726459 1_455
Ba4 O26 2.728341 1_565
Ba4 O2 2.841043 1_555
Ba4 O22 2.918964 1_555
Ba4 O17 2.955294 1_555
Ba4 O6 3.104329 1_555
Ba5 O29 2.653449 1_555
Ba5 O11 2.716740 1_555
Ba5 O9 2.726459 1_556
Ba5 O27 2.728341 1_546
Ba5 O3 2.841043 1_555
Ba5 O23 2.918964 1_555
Ba5 O16 2.955294 1_556
Ba5 O7 3.104329 1_555
Ba6 O30 2.653449 1_555
Ba6 O8 2.716740 1_555
Ba6 O10 2.726459 1_655
Ba6 O24 2.728341 1_545
Ba6 O0 2.841043 1_555
Ba6 O20 2.918964 1_555
Ba6 O19 2.955294 1_555
Ba6 O4 3.104329 1_555
Ba7 O31 2.653449 1_555
Ba7 O9 2.716740 1_555
Ba7 O11 2.726459 1_554
Ba7 O25 2.728341 1_564
Ba7 O1 2.841043 1_555
Ba7 O21 2.918964 1_555
Ba7 O18 2.955294 1_554
Ba7 O5 3.104329 1_555
Mg0 O14 2.037977 1_665
Mg0 O23 2.046390 1_555
Mg0 O7 2.064586 1_555
Mg0 O18 2.073944 1_655
Mg0 O29 2.080862 1_565
Mg0 O25 2.354100 1_665
Mg1 O15 2.037977 1_545
Mg1 O22 2.046390 1_555
Mg1 O6 2.064586 1_555
Mg1 O19 2.073944 1_555
Mg1 O28 2.080862 1_545
Mg1 O24 2.354100 1_545
Mg2 O13 2.037977 1_565
Mg2 O20 2.046390 1_555
Mg2 O4 2.064586 1_555
Mg2 O17 2.073944 1_555
Mg2 O30 2.080862 1_565
Mg2 O26 2.354100 1_565
Mg3 O12 2.037977 1_445
Mg3 O21 2.046390 1_555
Mg3 O5 2.064586 1_555
Mg3 O16 2.073944 1_455
Mg3 O31 2.080862 1_545
Mg3 O27 2.354100 1_445
O0 P1 1.542846 1_545
O1 P6 1.542846 1_565
O2 P5 1.542846 1_565
O3 P4 1.542846 1_545
O4 P1 1.549737 1_555
O5 P6 1.549737 1_555
O6 P5 1.549737 1_555
O7 P4 1.549737 1_555
O8 P1 1.543286 1_555
O9 P6 1.543286 1_555
O10 P5 1.543286 1_555
O11 P4 1.543286 1_555
O12 P1 1.542703 1_555
O13 P6 1.542703 1_555
O14 P5 1.542703 1_555
O15 P4 1.542703 1_555
O16 P7 1.547508 1_555
O17 P0 1.547508 1_555
O18 P2 1.547508 1_555
O19 P3 1.547508 1_555
O20 P3 1.517232 1_555
O21 P2 1.517232 1_554
O22 P0 1.517232 1_555
O23 P7 1.517232 1_556
O24 P3 1.539503 1_555
O25 P2 1.539503 1_555
O26 P0 1.539503 1_555
O27 P7 1.539503 1_555
O28 P3 1.544051 1_555
O29 P2 1.544051 1_655
O30 P0 1.544051 1_555
O31 P7 1.544051 1_455
