# generated using pymatgen
data_MgHg3
_symmetry_space_group_name_H-M   'P 1'
_cell_length_a   4.93412842
_cell_length_b   4.93412842
_cell_length_c   8.96839011
_cell_angle_alpha   90.00000000
_cell_angle_beta   90.00000000
_cell_angle_gamma   119.99998609
_symmetry_Int_Tables_number   1
_chemical_formula_structural   MgHg3
_chemical_formula_sum   'Mg2 Hg6'
_cell_volume   189.08892002
_cell_formula_units_Z   2
loop_
 _symmetry_equiv_pos_site_id
 _symmetry_equiv_pos_as_xyz
  1  'x, y, z'
loop_
 _atom_site_type_symbol
 _atom_site_label
 _atom_site_symmetry_multiplicity
 _atom_site_fract_x
 _atom_site_fract_y
 _atom_site_fract_z
 _atom_site_occupancy
  Mg  Mg0  1  0.33333300  0.66666700  0.25000000  1
  Mg  Mg1  1  0.66666700  0.33333300  0.75000000  1
  Hg  Hg0  1  0.33333300  0.66666700  0.57396256  1
  Hg  Hg1  1  0.66666700  0.33333300  0.42603744  1
  Hg  Hg2  1  0.66666700  0.33333300  0.07396256  1
  Hg  Hg3  1  0.33333300  0.66666700  0.92603744  1
  Hg  Hg4  1  -0.00000000  0.00000000  0.25000000  1
  Hg  Hg5  1  -0.00000000  0.00000000  0.75000000  1
loop_
_geom_bond_atom_site_label_1
_geom_bond_atom_site_label_2
_geom_bond_distance
_geom_bond_site_symmetry_2
Hg0 Mg0 2.905423 1_555
Hg0 Mg1 3.256949 1_455
Hg0 Mg1 3.256949 1_565
Hg0 Mg1 3.256956 1_555
Hg1 Mg1 2.905423 1_555
Hg1 Mg0 3.256949 1_545
Hg1 Mg0 3.256949 1_655
Hg1 Mg0 3.256956 1_555
Hg2 Mg1 2.905423 1_554
Hg2 Mg0 3.256949 1_545
Hg2 Mg0 3.256949 1_655
Hg2 Mg0 3.256956 1_555
Hg3 Mg0 2.905423 1_556
Hg3 Mg1 3.256949 1_455
Hg3 Mg1 3.256949 1_565
Hg3 Mg1 3.256956 1_555
Hg4 Mg0 2.848717 1_545
Hg4 Mg0 2.848722 1_445
Hg4 Mg0 2.848722 1_555
Hg5 Mg1 2.848717 1_455
Hg5 Mg1 2.848722 1_445
Hg5 Mg1 2.848722 1_555
