# generated using pymatgen
data_Ca6Al43W4
_symmetry_space_group_name_H-M   'P 1'
_cell_length_a   11.00053094
_cell_length_b   11.00053120
_cell_length_c   17.73219221
_cell_angle_alpha   89.99997702
_cell_angle_beta   89.99997350
_cell_angle_gamma   120.00004818
_symmetry_Int_Tables_number   1
_chemical_formula_structural   Ca6Al43W4
_chemical_formula_sum   'Ca12 Al86 W8'
_cell_volume   1858.31852021
_cell_formula_units_Z   2
loop_
 _symmetry_equiv_pos_site_id
 _symmetry_equiv_pos_as_xyz
  1  'x, y, z'
loop_
 _atom_site_type_symbol
 _atom_site_label
 _atom_site_symmetry_multiplicity
 _atom_site_fract_x
 _atom_site_fract_y
 _atom_site_fract_z
 _atom_site_occupancy
  Ca  Ca0  1  0.53326322  -0.00000027  0.59477740  1
  Ca  Ca1  1  0.46673634  0.00000003  0.40523851  1
  Ca  Ca2  1  -0.00000046  0.53326367  0.59477744  1
  Ca  Ca3  1  0.46673685  -0.00000016  0.09475679  1
  Ca  Ca4  1  0.00000011  0.53326319  0.90522844  1
  Ca  Ca5  1  -0.00000022  0.46673652  0.40523871  1
  Ca  Ca6  1  0.53326301  -0.00000011  0.90522853  1
  Ca  Ca7  1  0.00000009  0.46673690  0.09475673  1
  Ca  Ca8  1  0.46673715  0.46673715  0.59477753  1
  Ca  Ca9  1  0.53326246  0.53326250  0.40523857  1
  Ca  Ca10  1  0.53326289  0.53326273  0.09475675  1
  Ca  Ca11  1  0.46673690  0.46673682  0.90522842  1
  Al  Al0  1  0.15576976  0.39253502  0.66504514  1
  Al  Al1  1  0.84423232  0.60746217  0.33495699  1
  Al  Al2  1  0.60746434  0.76323106  0.66504913  1
  Al  Al3  1  0.84423371  0.60746452  0.16503838  1
  Al  Al4  1  0.39253366  0.15576291  0.83495638  1
  Al  Al5  1  0.39253811  0.23677004  0.33495697  1
  Al  Al6  1  0.15576297  0.39253362  0.83495639  1
  Al  Al7  1  0.60746457  0.84423365  0.16503839  1
  Al  Al8  1  0.23676887  0.84423416  0.66504919  1
  Al  Al9  1  0.39253581  0.23676899  0.16503832  1
  Al  Al10  1  0.76322940  0.60746587  0.83495658  1
  Al  Al11  1  0.76322972  0.15576711  0.33495695  1
  Al  Al12  1  0.60746590  0.76322951  0.83495658  1
  Al  Al13  1  0.23676900  0.39253580  0.16503834  1
  Al  Al14  1  0.60746220  0.84423229  0.33495698  1
  Al  Al15  1  0.39253497  0.15576977  0.66504519  1
  Al  Al16  1  0.76323081  0.15576586  0.16503838  1
  Al  Al17  1  0.23676994  0.39253805  0.33495697  1
  Al  Al18  1  0.23677049  0.84423728  0.83495658  1
  Al  Al19  1  0.76323094  0.60746436  0.66504915  1
  Al  Al20  1  0.84423717  0.23677031  0.83495659  1
  Al  Al21  1  0.15576587  0.76323071  0.16503836  1
  Al  Al22  1  0.15576711  0.76322963  0.33495697  1
  Al  Al23  1  0.84423409  0.23676884  0.66504914  1
  Al  Al24  1  0.25138871  0.00000009  0.53224721  1
  Al  Al25  1  0.74862493  -0.00000037  0.46775309  1
  Al  Al26  1  0.00000012  0.25138881  0.53224722  1
  Al  Al27  1  0.74862436  -0.00000039  0.03224632  1
  Al  Al28  1  0.00000015  0.25138672  0.96775015  1
  Al  Al29  1  -0.00000038  0.74862501  0.46775309  1
  Al  Al30  1  0.25138675  0.00000017  0.96775016  1
  Al  Al31  1  -0.00000038  0.74862431  0.03224633  1
  Al  Al32  1  0.74861084  0.74861090  0.53224749  1
  Al  Al33  1  0.25137477  0.25137482  0.46775288  1
  Al  Al34  1  0.25137552  0.25137551  0.03224660  1
  Al  Al35  1  0.74861305  0.74861308  0.96774989  1
  Al  Al36  1  0.15868197  0.00000004  0.11512533  1
  Al  Al37  1  0.84130627  -0.00000030  0.88487270  1
  Al  Al38  1  0.00000009  0.15868198  0.11512531  1
  Al  Al39  1  0.84130478  -0.00000028  0.61513407  1
  Al  Al40  1  0.00000005  0.15868395  0.38486903  1
  Al  Al41  1  -0.00000027  0.84130631  0.88487273  1
  Al  Al42  1  0.15868391  0.00000006  0.38486905  1
  Al  Al43  1  -0.00000033  0.84130491  0.61513406  1
  Al  Al44  1  0.84131828  0.84131825  0.11512534  1
  Al  Al45  1  0.15869324  0.15869327  0.88487271  1
  Al  Al46  1  0.15869446  0.15869453  0.61513403  1
  Al  Al47  1  0.84131617  0.84131619  0.38486902  1
  Al  Al48  1  0.15067266  0.60051657  0.75000153  1
  Al  Al49  1  0.84932994  0.39948443  0.24999664  1
  Al  Al50  1  0.39948214  0.55015491  0.75000401  1
  Al  Al51  1  0.60051652  0.15067246  0.75000153  1
  Al  Al52  1  0.60051530  0.44984505  0.24999664  1
  Al  Al53  1  0.39948447  0.84932985  0.24999666  1
  Al  Al54  1  0.44984488  0.84932764  0.75000398  1
  Al  Al55  1  0.55015491  0.39948213  0.75000401  1
  Al  Al56  1  0.55015486  0.15066971  0.24999663  1
  Al  Al57  1  0.44984508  0.60051531  0.24999664  1
  Al  Al58  1  0.84932756  0.44984477  0.75000399  1
  Al  Al59  1  0.15066975  0.55015475  0.24999662  1
  Al  Al60  1  0.24693329  0.49386458  0.49999660  1
  Al  Al61  1  0.75306852  0.50613529  0.49999653  1
  Al  Al62  1  0.50613529  0.75306861  0.49999658  1
  Al  Al63  1  0.75307034  0.50613879  0.00000407  1
  Al  Al64  1  0.49386102  0.24693135  0.00000410  1
  Al  Al65  1  0.49386454  0.24693330  0.49999659  1
  Al  Al66  1  0.24693140  0.49386097  0.00000407  1
  Al  Al67  1  0.50613881  0.75307021  0.00000409  1
  Al  Al68  1  0.24693094  0.75306678  0.49999656  1
  Al  Al69  1  0.75306676  0.24693091  0.49999660  1
  Al  Al70  1  0.75306863  0.24692927  0.00000412  1
  Al  Al71  1  0.24692934  0.75306859  0.00000414  1
  Al  Al72  1  0.33333295  0.66666696  0.62555749  1
  Al  Al73  1  0.66666695  0.33333307  0.37443946  1
  Al  Al74  1  0.66666696  0.33333305  0.12555745  1
  Al  Al75  1  0.66666685  0.33333287  0.87444710  1
  Al  Al76  1  0.33333299  0.66666686  0.87444710  1
  Al  Al77  1  0.33333310  0.66666690  0.12555742  1
  Al  Al78  1  0.33333300  0.66666689  0.37443947  1
  Al  Al79  1  0.66666695  0.33333300  0.62555749  1
  Al  Al80  1  0.14726539  0.00000024  0.74999685  1
  Al  Al81  1  0.85273832  -0.00000002  0.25000451  1
  Al  Al82  1  0.00000012  0.14726538  0.74999685  1
  Al  Al83  1  -0.00000007  0.85273825  0.25000450  1
  Al  Al84  1  0.85274172  0.85274187  0.74999600  1
  Al  Al85  1  0.14726207  0.14726213  0.25000448  1
  W  W0  1  0.72991929  0.00000004  0.75000744  1
  W  W1  1  0.27007741  0.00000009  0.24999286  1
  W  W2  1  0.00000002  0.72991923  0.75000743  1
  W  W3  1  -0.00000001  0.27007734  0.24999296  1
  W  W4  1  0.27008058  0.27008075  0.75000737  1
  W  W5  1  0.72992240  0.72992249  0.24999288  1
  W  W6  1  -0.00000005  0.00000015  0.50000323  1
  W  W7  1  -0.00000004  0.00000012  -0.00000290  1
loop_
_geom_bond_atom_site_label_1
_geom_bond_atom_site_label_2
_geom_bond_distance
_geom_bond_site_symmetry_2
Ca0 Ca1 3.439695 1_555
Ca0 W0 3.500942 1_555
Ca1 W1 3.501180 1_555
Ca2 Ca5 3.439692 1_555
Ca2 W2 3.500937 1_555
Ca3 Ca6 3.439508 1_554
Ca3 W1 3.501049 1_555
Ca4 Ca7 3.439509 1_556
Ca4 W2 3.500815 1_555
Ca5 W3 3.501183 1_555
Ca6 W0 3.500817 1_555
Ca7 W3 3.501051 1_555
Ca8 Ca9 3.439691 1_555
Ca8 W4 3.500939 1_555
Ca9 W5 3.501184 1_555
Ca10 Ca11 3.439509 1_554
Ca10 W5 3.501052 1_555
Ca11 W4 3.500818 1_555
Al0 W4 2.712836 1_555
Al0 Al46 2.735721 1_555
Al0 Al72 2.740274 1_555
Al0 Al48 2.763220 1_555
Al0 Al50 2.795536 1_555
Al0 Al82 2.803894 1_555
Al0 Al26 2.869068 1_555
Al0 Al23 2.967918 1_455
Al0 Al6 3.012899 1_555
Al0 Ca2 3.088383 1_555
Al0 Al60 3.113802 1_555
Al0 Ca8 3.335930 1_555
Al1 W5 2.712896 1_555
Al1 Al47 2.735822 1_555
Al1 Al73 2.740231 1_555
Al1 Al49 2.763225 1_555
Al1 Al52 2.795579 1_555
Al1 Al83 2.803945 1_655
Al1 Al29 2.869078 1_655
Al1 Al22 2.967909 1_655
Al1 Al3 3.013029 1_555
Al1 Ca5 3.088434 1_655
Al1 Al61 3.113647 1_555
Al1 Ca9 3.336054 1_555
Al2 W0 2.712828 1_565
Al2 Al39 2.735759 1_565
Al2 Al72 2.740297 1_555
Al2 Al50 2.763193 1_555
Al2 Al54 2.795524 1_555
Al2 Al84 2.803902 1_555
Al2 Al32 2.869112 1_555
Al2 Ca8 3.088367 1_555
Al2 Al62 3.113874 1_555
Al2 Ca0 3.335986 1_565
Al3 W5 2.712793 1_555
Al3 Al44 2.735820 1_555
Al3 Al74 2.740247 1_555
Al3 Al49 2.763219 1_555
Al3 Al52 2.795571 1_555
Al3 Al83 2.804058 1_655
Al3 Al31 2.869004 1_655
Al3 Ca7 3.088440 1_655
Al3 Al63 3.113558 1_555
Al3 Ca10 3.336059 1_555
Al4 W4 2.712751 1_555
Al4 Al45 2.735779 1_555
Al4 Al75 2.740312 1_555
Al4 Al51 2.763184 1_555
Al4 Al55 2.795523 1_555
Al4 Al80 2.803951 1_555
Al4 Ca6 3.088357 1_555
Al4 Al64 3.113793 1_556
Al4 Ca11 3.336022 1_555
Al5 W1 2.712893 1_555
Al5 Al73 2.740232 1_555
Al5 Al52 2.763218 1_555
Al5 Al56 2.795580 1_555
Al5 Al85 2.803948 1_555
Al5 Al9 3.013030 1_555
Al5 Ca9 3.088426 1_555
Al5 Al65 3.113648 1_555
Al5 Ca1 3.336044 1_555
Al6 W4 2.712748 1_555
Al6 Al76 2.740312 1_555
Al6 Al82 2.803951 1_555
Al6 Ca4 3.088357 1_555
Al6 Al66 3.113792 1_556
Al6 Ca11 3.336022 1_555
Al7 W5 2.712791 1_555
Al7 Al77 2.740248 1_555
Al7 Al81 2.804058 1_565
Al7 Ca3 3.088439 1_565
Al7 Ca10 3.336061 1_555
Al8 W2 2.712824 1_555
Al8 Al80 2.803853 1_565
Al8 Ca0 3.088370 1_565
Al8 Ca2 3.335991 1_555
Al9 W1 2.712789 1_555
Al9 Ca10 3.088435 1_555
Al9 Ca3 3.336055 1_555
Al10 W2 2.712748 1_655
Al10 Al41 2.735775 1_655
Al10 Al75 2.740310 1_555
Al10 Al55 2.763172 1_555
Al10 Al58 2.795528 1_555
Al10 Al84 2.804017 1_555
Al10 Al35 2.868982 1_555
Al10 Al12 2.967839 1_555
Al10 Al19 3.012831 1_555
Al10 Ca11 3.088354 1_555
Al10 Al63 3.113787 1_556
Al10 Ca4 3.336018 1_655
Al11 W3 2.712893 1_655
Al11 Al40 2.735820 1_655
Al11 Al73 2.740232 1_555
Al11 Al56 2.763221 1_555
Al11 Al49 2.795580 1_555
Al11 Al81 2.803944 1_555
Al11 Al25 2.869078 1_555
Al11 Al14 2.967910 1_545
Al11 Al16 3.013029 1_555
Al11 Ca1 3.088432 1_555
Al11 Al69 3.113650 1_555
Al11 Ca5 3.336052 1_655
Al12 W0 2.712747 1_565
Al12 Al37 2.735774 1_565
Al12 Al76 2.740309 1_555
Al12 Al50 2.763172 1_555
Al12 Al54 2.795527 1_555
Al12 Al84 2.804015 1_555
Al12 Al35 2.868982 1_555
Al12 Al2 3.012832 1_555
Al12 Ca11 3.088356 1_555
Al12 Al67 3.113787 1_556
Al12 Ca6 3.336017 1_565
Al13 W3 2.712790 1_555
Al13 Al38 2.735818 1_555
Al13 Al77 2.740245 1_555
Al13 Al57 2.763216 1_555
Al13 Al59 2.795572 1_555
Al13 Al85 2.804057 1_555
Al13 Al34 2.869006 1_555
Al13 Al9 2.967900 1_555
Al13 Al17 3.013030 1_555
Al13 Ca10 3.088436 1_555
Al13 Al66 3.113554 1_555
Al13 Ca7 3.336054 1_555
Al14 W5 2.712894 1_555
Al14 Al47 2.735821 1_555
Al14 Al78 2.740232 1_555
Al14 Al53 2.763225 1_555
Al14 Al57 2.795579 1_555
Al14 Al81 2.803945 1_565
Al14 Al25 2.869078 1_565
Al14 Al7 3.013029 1_555
Al14 Ca1 3.088436 1_565
Al14 Al62 3.113648 1_555
Al14 Ca9 3.336054 1_555
Al15 W4 2.712838 1_555
Al15 Al46 2.735722 1_555
Al15 Al79 2.740275 1_555
Al15 Al51 2.763220 1_555
Al15 Al55 2.795536 1_555
Al15 Al80 2.803893 1_555
Al15 Al24 2.869070 1_555
Al15 Al8 2.967917 1_545
Al15 Al4 3.012898 1_555
Al15 Ca0 3.088379 1_555
Al15 Al65 3.113803 1_555
Al15 Ca8 3.335930 1_555
Al16 W3 2.712793 1_655
Al16 Al38 2.735818 1_655
Al16 Al74 2.740246 1_555
Al16 Al56 2.763216 1_555
Al16 Al49 2.795574 1_555
Al16 Al81 2.804056 1_555
Al16 Al27 2.869007 1_555
Al16 Al7 2.967885 1_545
Al16 Ca3 3.088438 1_555
Al16 Al70 3.113556 1_555
Al16 Ca7 3.336059 1_655
Al17 W3 2.712892 1_555
Al17 Al40 2.735818 1_555
Al17 Al78 2.740232 1_555
Al17 Al57 2.763219 1_555
Al17 Al59 2.795578 1_555
Al17 Al85 2.803947 1_555
Al17 Al33 2.869078 1_555
Al17 Al5 2.967925 1_555
Al17 Ca9 3.088427 1_555
Al17 Al60 3.113648 1_555
Al17 Ca5 3.336048 1_555
Al18 W2 2.712749 1_555
Al18 Al41 2.735775 1_555
Al18 Al76 2.740311 1_555
Al18 Al54 2.763173 1_555
Al18 Al48 2.795564 1_555
Al18 Al80 2.803952 1_565
Al18 Al30 2.868982 1_565
Al18 Al4 2.967822 1_565
Al18 Al8 3.012830 1_555
Al18 Ca6 3.088356 1_565
Al18 Al71 3.113790 1_556
Al18 Ca4 3.336018 1_555
Al19 W2 2.712828 1_655
Al19 Al43 2.735760 1_655
Al19 Al79 2.740297 1_555
Al19 Al55 2.763192 1_555
Al19 Al58 2.795525 1_555
Al19 Al84 2.803903 1_555
Al19 Al32 2.869112 1_555
Al19 Al2 2.967897 1_555
Al19 Ca8 3.088366 1_555
Al19 Al61 3.113876 1_555
Al19 Ca2 3.335982 1_655
Al20 W0 2.712747 1_555
Al20 Al37 2.735773 1_555
Al20 Al75 2.740310 1_555
Al20 Al58 2.763173 1_555
Al20 Al51 2.795564 1_555
Al20 Al82 2.803951 1_655
Al20 Al28 2.868982 1_655
Al20 Al6 2.967824 1_655
Al20 Al23 3.012832 1_555
Al20 Ca4 3.088359 1_655
Al20 Al70 3.113789 1_556
Al20 Ca6 3.336020 1_555
Al21 W1 2.712794 1_565
Al21 Al36 2.735818 1_565
Al21 Al77 2.740246 1_555
Al21 Al59 2.763216 1_555
Al21 Al53 2.795575 1_555
Al21 Al83 2.804056 1_555
Al21 Al31 2.869007 1_555
Al21 Al3 2.967884 1_455
Al21 Al22 3.013029 1_555
Al21 Ca7 3.088437 1_555
Al21 Al71 3.113556 1_555
Al21 Ca3 3.336057 1_565
Al22 W1 2.712896 1_565
Al22 Al42 2.735821 1_565
Al22 Al78 2.740231 1_555
Al22 Al59 2.763222 1_555
Al22 Al53 2.795580 1_555
Al22 Al83 2.803945 1_555
Al22 Al29 2.869078 1_555
Al22 Ca5 3.088431 1_555
Al22 Al68 3.113649 1_555
Al22 Ca1 3.336051 1_565
Al23 W0 2.712824 1_555
Al23 Al39 2.735761 1_555
Al23 Al79 2.740297 1_555
Al23 Al58 2.763196 1_555
Al23 Al51 2.795512 1_555
Al23 Al82 2.803853 1_655
Al23 Al26 2.869112 1_655
Al23 Ca2 3.088373 1_655
Al23 Al69 3.113876 1_555
Al23 Ca0 3.335993 1_555
Al24 Al65 2.752280 1_555
Al24 Al68 2.752282 1_545
Al24 Al42 2.805269 1_555
Al24 W6 2.823898 1_555
Al24 Al46 2.833304 1_555
Al24 Al43 2.833305 1_545
Al24 Al8 2.869113 1_545
Al24 Al33 2.992481 1_555
Al24 Al29 2.992483 1_545
Al24 Ca1 3.268641 1_555
Al24 Ca0 3.293056 1_555
Al25 Al62 2.752314 1_545
Al25 Al69 2.752317 1_555
Al25 Al39 2.805216 1_555
Al25 W6 2.823769 1_655
Al25 Al47 2.833160 1_545
Al25 Al40 2.833162 1_655
Al25 Al32 2.992481 1_545
Al25 Al26 2.992484 1_655
Al25 Ca0 3.268944 1_555
Al25 Ca1 3.293109 1_555
Al26 Al60 2.752280 1_555
Al26 Al69 2.752282 1_455
Al26 Al40 2.805269 1_555
Al26 W6 2.823896 1_555
Al26 Al46 2.833303 1_555
Al26 Al39 2.833306 1_455
Al26 Al33 2.992480 1_555
Al26 Ca5 3.268640 1_555
Al26 Ca2 3.293061 1_555
Al27 Al67 2.752280 1_545
Al27 Al70 2.752282 1_555
Al27 Al37 2.805101 1_554
Al27 W7 2.823772 1_655
Al27 Al44 2.833115 1_545
Al27 Al38 2.833119 1_655
Al27 Al7 2.869004 1_545
Al27 Al35 2.992487 1_544
Al27 Al28 2.992488 1_654
Al27 Ca6 3.268863 1_554
Al27 Ca3 3.293071 1_555
Al28 Al66 2.752274 1_556
Al28 Al70 2.752276 1_456
Al28 Al38 2.805218 1_556
Al28 W7 2.823884 1_556
Al28 Al45 2.833200 1_555
Al28 Al37 2.833204 1_455
Al28 Al6 2.868983 1_555
Al28 Al34 2.992488 1_556
Al28 Ca7 3.268637 1_556
Al28 Ca4 3.293023 1_555
Al29 Al61 2.752315 1_455
Al29 Al68 2.752318 1_555
Al29 Al43 2.805216 1_555
Al29 W6 2.823771 1_565
Al29 Al47 2.833160 1_455
Al29 Al42 2.833161 1_565
Al29 Al32 2.992481 1_455
Al29 Ca2 3.268941 1_555
Al29 Ca5 3.293105 1_555
Al30 Al64 2.752274 1_556
Al30 Al71 2.752277 1_546
Al30 Al36 2.805218 1_556
Al30 W7 2.823886 1_556
Al30 Al45 2.833200 1_555
Al30 Al41 2.833204 1_545
Al30 Al4 2.868983 1_555
Al30 Al34 2.992488 1_556
Al30 Al31 2.992489 1_546
Al30 Ca3 3.268638 1_556
Al30 Ca6 3.293022 1_555
Al31 Al63 2.752279 1_455
Al31 Al71 2.752282 1_555
Al31 Al41 2.805101 1_554
Al31 W7 2.823775 1_565
Al31 Al44 2.833115 1_455
Al31 Al36 2.833119 1_565
Al31 Al35 2.992488 1_454
Al31 Ca4 3.268864 1_554
Al31 Ca7 3.293071 1_555
Al32 Al62 2.752283 1_555
Al32 Al61 2.752283 1_555
Al32 Al47 2.805274 1_555
Al32 W6 2.823901 1_665
Al32 Al43 2.833303 1_655
Al32 Al39 2.833303 1_565
Al32 Ca9 3.268650 1_555
Al32 Ca8 3.293041 1_555
Al33 Al60 2.752319 1_555
Al33 Al65 2.752320 1_555
Al33 Al46 2.805219 1_555
Al33 W6 2.823767 1_555
Al33 Al40 2.833158 1_555
Al33 Al42 2.833159 1_555
Al33 Al5 2.869078 1_555
Al33 Ca8 3.268954 1_555
Al33 Ca9 3.293092 1_555
Al34 Al66 2.752283 1_555
Al34 Al64 2.752283 1_555
Al34 Al45 2.805108 1_554
Al34 W7 2.823773 1_555
Al34 Al38 2.833112 1_555
Al34 Al36 2.833113 1_555
Al34 Al9 2.869006 1_555
Al34 Ca11 3.268864 1_554
Al34 Ca10 3.293065 1_555
Al35 Al67 2.752277 1_556
Al35 Al63 2.752278 1_556
Al35 Al44 2.805226 1_556
Al35 W7 2.823888 1_666
Al35 Al37 2.833196 1_565
Al35 Al41 2.833197 1_655
Al35 Ca10 3.268637 1_556
Al35 Ca11 3.293018 1_555
Al36 W7 2.686019 1_555
Al36 W1 2.687171 1_555
Al36 Al9 2.735818 1_555
Al36 Al83 2.926396 1_545
Al36 Al85 2.926399 1_555
Al36 Al44 3.023440 1_445
Al36 Al38 3.023443 1_555
Al36 Ca3 3.407961 1_555
Al37 W7 2.686050 1_656
Al37 W0 2.687094 1_555
Al37 Al84 2.926391 1_545
Al37 Al82 2.926400 1_655
Al37 Al45 3.023661 1_655
Al37 Al41 3.023663 1_645
Al37 Ca6 3.407810 1_555
Al38 W7 2.686017 1_555
Al38 W3 2.687173 1_555
Al38 Al81 2.926396 1_455
Al38 Al85 2.926398 1_555
Al38 Al44 3.023440 1_445
Al38 Ca7 3.407961 1_555
Al39 W6 2.686146 1_655
Al39 W0 2.687213 1_555
Al39 Al84 2.926181 1_545
Al39 Al82 2.926218 1_655
Al39 Al46 3.023687 1_655
Al39 Al43 3.023690 1_645
Al39 Ca0 3.407793 1_555
Al40 W6 2.686111 1_555
Al40 W3 2.687295 1_555
Al40 Al85 2.926192 1_555
Al40 Al81 2.926193 1_455
Al40 Al47 3.023478 1_445
Al40 Al42 3.023481 1_555
Al40 Ca5 3.407939 1_555
Al41 W7 2.686051 1_566
Al41 W2 2.687094 1_555
Al41 Al84 2.926393 1_455
Al41 Al80 2.926401 1_565
Al41 Al45 3.023661 1_565
Al41 Ca4 3.407810 1_555
Al42 W6 2.686112 1_555
Al42 W1 2.687297 1_555
Al42 Al5 2.735819 1_555
Al42 Al85 2.926193 1_555
Al42 Al83 2.926193 1_545
Al42 Al47 3.023478 1_445
Al42 Ca1 3.407936 1_555
Al43 W6 2.686147 1_565
Al43 W2 2.687214 1_555
Al43 Al8 2.735762 1_555
Al43 Al84 2.926182 1_455
Al43 Al80 2.926219 1_565
Al43 Al46 3.023687 1_565
Al43 Ca2 3.407788 1_555
Al44 W7 2.686015 1_665
Al44 W5 2.687171 1_555
Al44 Al7 2.735819 1_555
Al44 Al83 2.926397 1_655
Al44 Al81 2.926397 1_565
Al44 Ca10 3.407965 1_555
Al45 W7 2.686045 1_556
Al45 W4 2.687094 1_555
Al45 Al6 2.735778 1_555
Al45 Al80 2.926399 1_555
Al45 Al82 2.926399 1_555
Al45 Ca11 3.407811 1_555
Al46 W6 2.686142 1_555
Al46 W4 2.687216 1_555
Al46 Al82 2.926213 1_555
Al46 Al80 2.926213 1_555
Al46 Ca8 3.407801 1_555
Al47 W6 2.686113 1_665
Al47 W5 2.687298 1_555
Al47 Al81 2.926191 1_565
Al47 Al83 2.926191 1_655
Al47 Ca9 3.407947 1_555
Al48 W2 2.670769 1_555
Al48 Al6 2.763184 1_555
Al48 Al8 2.795512 1_555
Al48 Al72 2.823869 1_555
Al48 Al76 2.823892 1_555
Al48 Al58 2.870835 1_455
Al48 Al50 3.051987 1_555
Al48 Al54 3.051998 1_555
Al48 Ca2 3.105545 1_555
Al48 Ca4 3.105584 1_555
Al49 W3 2.670784 1_655
Al49 Al74 2.823820 1_555
Al49 Al73 2.823868 1_555
Al49 Al59 2.870784 1_655
Al49 Al56 3.052032 1_555
Al49 Al52 3.052036 1_555
Al49 Ca7 3.105778 1_655
Al49 Ca5 3.105812 1_655
Al50 W4 2.670756 1_555
Al50 Al6 2.795523 1_555
Al50 Al76 2.823864 1_555
Al50 Al72 2.823912 1_555
Al50 Al55 2.870841 1_555
Al50 Al54 3.051999 1_555
Al50 Ca11 3.105547 1_555
Al50 Ca8 3.105579 1_555
Al51 W0 2.670767 1_555
Al51 Al79 2.823871 1_555
Al51 Al75 2.823893 1_555
Al51 Al54 2.870832 1_545
Al51 Al55 3.051989 1_555
Al51 Al58 3.051999 1_555
Al51 Ca0 3.105543 1_555
Al51 Ca6 3.105586 1_555
Al52 W5 2.670786 1_555
Al52 Al9 2.763216 1_555
Al52 Al74 2.823824 1_555
Al52 Al73 2.823874 1_555
Al52 Al57 2.870793 1_555
Al52 Al56 3.052037 1_555
Al52 Ca10 3.105779 1_555
Al52 Ca9 3.105812 1_555
Al53 W1 2.670786 1_565
Al53 Al7 2.763219 1_555
Al53 Al77 2.823820 1_555
Al53 Al78 2.823868 1_555
Al53 Al56 2.870785 1_565
Al53 Al59 3.052032 1_555
Al53 Al57 3.052035 1_555
Al53 Ca3 3.105777 1_565
Al53 Ca1 3.105811 1_565
Al54 W0 2.670758 1_565
Al54 Al8 2.763196 1_555
Al54 Al76 2.823861 1_555
Al54 Al72 2.823909 1_555
Al54 Ca6 3.105547 1_565
Al54 Ca0 3.105577 1_565
Al55 W4 2.670758 1_555
Al55 Al75 2.823865 1_555
Al55 Al79 2.823912 1_555
Al55 Al58 3.051999 1_555
Al55 Ca11 3.105547 1_555
Al55 Ca8 3.105580 1_555
Al56 W1 2.670785 1_555
Al56 Al9 2.795573 1_555
Al56 Al74 2.823820 1_555
Al56 Al73 2.823873 1_555
Al56 Ca3 3.105778 1_555
Al56 Ca1 3.105807 1_555
Al57 W5 2.670784 1_555
Al57 Al7 2.795570 1_555
Al57 Al77 2.823824 1_555
Al57 Al78 2.823874 1_555
Al57 Al59 3.052036 1_555
Al57 Ca10 3.105780 1_555
Al57 Ca9 3.105811 1_555
Al58 W2 2.670759 1_655
Al58 Al75 2.823860 1_555
Al58 Al79 2.823909 1_555
Al58 Ca4 3.105547 1_655
Al58 Ca2 3.105576 1_655
Al59 W3 2.670785 1_555
Al59 Al77 2.823820 1_555
Al59 Al78 2.823872 1_555
Al59 Ca7 3.105777 1_555
Al59 Ca5 3.105811 1_555
Al60 Al78 2.768931 1_555
Al60 Al72 2.768987 1_555
Al60 Al62 2.851369 1_555
Al60 Al68 2.851375 1_555
Al60 Ca5 3.079049 1_555
Al60 Ca8 3.079254 1_555
Al60 Ca9 3.401042 1_555
Al60 Ca2 3.401274 1_555
Al61 Al73 2.768931 1_555
Al61 Al79 2.768985 1_555
Al61 Al65 2.851368 1_555
Al61 Al69 2.851376 1_555
Al61 Ca9 3.079051 1_555
Al61 Ca2 3.079248 1_655
Al61 Ca5 3.401046 1_655
Al61 Ca8 3.401264 1_555
Al62 Al78 2.768932 1_555
Al62 Al72 2.768985 1_555
Al62 Al68 2.851375 1_555
Al62 Ca9 3.079051 1_555
Al62 Ca0 3.079249 1_565
Al62 Ca1 3.401051 1_565
Al62 Ca8 3.401264 1_555
Al63 Al74 2.768897 1_555
Al63 Al75 2.768951 1_554
Al63 Al64 2.851428 1_555
Al63 Al70 2.851433 1_555
Al63 Ca10 3.078994 1_555
Al63 Ca4 3.079199 1_654
Al63 Ca7 3.401006 1_655
Al63 Ca11 3.401224 1_554
Al64 Al74 2.768899 1_555
Al64 Al75 2.768949 1_554
Al64 Al70 2.851433 1_555
Al64 Ca3 3.078994 1_555
Al64 Ca11 3.079199 1_554
Al64 Al9 3.113554 1_555
Al64 Ca10 3.401003 1_555
Al64 Ca6 3.401224 1_554
Al65 Al73 2.768931 1_555
Al65 Al79 2.768987 1_555
Al65 Al69 2.851375 1_555
Al65 Ca1 3.079048 1_555
Al65 Ca8 3.079254 1_555
Al65 Ca9 3.401043 1_555
Al65 Ca0 3.401269 1_555
Al66 Al77 2.768899 1_555
Al66 Al76 2.768949 1_554
Al66 Al67 2.851427 1_555
Al66 Al71 2.851433 1_555
Al66 Ca7 3.078992 1_555
Al66 Ca11 3.079199 1_554
Al66 Ca10 3.401005 1_555
Al66 Ca4 3.401224 1_554
Al67 Al77 2.768896 1_555
Al67 Al76 2.768951 1_554
Al67 Al71 2.851433 1_555
Al67 Ca10 3.078995 1_555
Al67 Ca6 3.079198 1_564
Al67 Al7 3.113558 1_555
Al67 Ca3 3.401006 1_565
Al67 Ca11 3.401224 1_554
Al68 Al78 2.768930 1_555
Al68 Al72 2.768984 1_555
Al68 Ca1 3.079046 1_565
Al68 Ca2 3.079248 1_555
Al68 Al8 3.113878 1_555
Al68 Ca5 3.401047 1_555
Al68 Ca0 3.401267 1_565
Al69 Al73 2.768931 1_555
Al69 Al79 2.768984 1_555
Al69 Ca5 3.079043 1_655
Al69 Ca0 3.079247 1_555
Al69 Ca1 3.401049 1_555
Al69 Ca2 3.401269 1_655
Al70 Al74 2.768896 1_555
Al70 Al75 2.768948 1_554
Al70 Ca7 3.078994 1_655
Al70 Ca6 3.079198 1_554
Al70 Ca3 3.401002 1_555
Al70 Ca4 3.401223 1_654
Al71 Al77 2.768895 1_555
Al71 Al76 2.768949 1_554
Al71 Ca3 3.078993 1_565
Al71 Ca4 3.079197 1_554
Al71 Ca7 3.401000 1_555
Al71 Ca6 3.401221 1_564
Al72 Al8 2.740297 1_555
Al72 Ca0 3.242846 1_565
Al72 Ca2 3.242853 1_555
Al72 Ca8 3.242859 1_555
Al73 Ca5 3.242904 1_655
Al73 Ca1 3.242906 1_555
Al73 Ca9 3.242915 1_555
Al74 Al9 2.740245 1_555
Al74 Ca7 3.242910 1_655
Al74 Ca3 3.242912 1_555
Al74 Ca10 3.242919 1_555
Al75 Ca6 3.242851 1_555
Al75 Ca4 3.242855 1_655
Al75 Ca11 3.242862 1_555
Al76 Ca4 3.242850 1_555
Al76 Ca6 3.242853 1_565
Al76 Ca11 3.242863 1_555
Al77 Ca3 3.242908 1_565
Al77 Ca7 3.242910 1_555
Al77 Ca10 3.242920 1_555
Al78 Ca1 3.242907 1_565
Al78 Ca5 3.242907 1_555
Al78 Ca9 3.242914 1_555
Al79 Ca2 3.242845 1_655
Al79 Ca0 3.242851 1_555
Al79 Ca8 3.242859 1_555
Al80 W4 2.576498 1_555
Al80 W2 2.576502 1_545
Al80 Al84 2.805849 1_445
Al80 Al82 2.805915 1_555
Al81 W3 2.576466 1_655
Al81 W5 2.576468 1_545
Al81 Al83 2.805848 1_645
Al81 Al85 2.805850 1_655
Al82 W4 2.576497 1_555
Al82 W0 2.576500 1_455
Al82 Al84 2.805847 1_445
Al83 W1 2.576467 1_565
Al83 W5 2.576468 1_455
Al83 Al85 2.805851 1_565
Al84 W0 2.576496 1_565
Al84 W2 2.576499 1_655
Al85 W3 2.576468 1_555
Al85 W1 2.576469 1_555
Al85 Al9 2.804058 1_555
