# generated using pymatgen
data_MgNi3
_symmetry_space_group_name_H-M   'P 1'
_cell_length_a   5.20380447
_cell_length_b   5.20380447
_cell_length_c   4.16153400
_cell_angle_alpha   90.00000000
_cell_angle_beta   90.00000000
_cell_angle_gamma   120.00000594
_symmetry_Int_Tables_number   1
_chemical_formula_structural   MgNi3
_chemical_formula_sum   'Mg2 Ni6'
_cell_volume   97.59464577
_cell_formula_units_Z   2
loop_
 _symmetry_equiv_pos_site_id
 _symmetry_equiv_pos_as_xyz
  1  'x, y, z'
loop_
 _atom_site_type_symbol
 _atom_site_label
 _atom_site_symmetry_multiplicity
 _atom_site_fract_x
 _atom_site_fract_y
 _atom_site_fract_z
 _atom_site_occupancy
  Mg  Mg0  1  0.66666700  0.33333300  0.25000000  1
  Mg  Mg1  1  0.33333300  0.66666700  0.75000000  1
  Ni  Ni0  1  0.15973100  0.31946200  0.25000000  1
  Ni  Ni1  1  0.15973100  0.84026900  0.25000000  1
  Ni  Ni2  1  0.68053800  0.84026900  0.25000000  1
  Ni  Ni3  1  0.31946200  0.15973100  0.75000000  1
  Ni  Ni4  1  0.84026900  0.15973100  0.75000000  1
  Ni  Ni5  1  0.84026900  0.68053800  0.75000000  1
loop_
_geom_bond_atom_site_label_1
_geom_bond_atom_site_label_2
_geom_bond_distance
_geom_bond_site_symmetry_2
Mg0 Ni2 2.602650 1_545
Mg0 Ni0 2.602650 1_655
Mg0 Ni1 2.602653 1_545
Mg0 Ni1 2.602653 1_655
Mg0 Ni2 2.602656 1_555
Mg0 Ni0 2.602656 1_555
Mg0 Ni4 2.603447 1_554
Mg0 Ni4 2.603447 1_555
Mg0 Ni5 2.603450 1_554
Mg0 Ni3 2.603450 1_555
Mg0 Ni5 2.603450 1_555
Mg0 Ni3 2.603450 1_554
Mg1 Ni5 2.602650 1_455
Mg1 Ni3 2.602650 1_565
Mg1 Ni4 2.602653 1_455
Mg1 Ni4 2.602653 1_565
Mg1 Ni3 2.602656 1_555
Mg1 Ni5 2.602656 1_555
Mg1 Ni1 2.603447 1_556
Mg1 Ni1 2.603447 1_555
Mg1 Ni2 2.603450 1_555
Mg1 Ni2 2.603450 1_556
Mg1 Ni0 2.603450 1_556
Mg1 Ni0 2.603450 1_555
Ni0 Ni2 2.493626 1_445
Ni0 Ni1 2.493627 1_545
Ni0 Ni4 2.530280 1_455
Ni0 Ni4 2.530280 1_454
Ni0 Ni3 2.530280 1_554
Ni0 Ni3 2.530280 1_555
Ni0 Ni2 2.710178 1_555
Ni0 Ni1 2.710178 1_555
Ni1 Ni2 2.493627 1_455
Ni1 Ni5 2.530280 1_455
Ni1 Ni5 2.530280 1_454
Ni1 Ni3 2.530280 1_565
Ni1 Ni3 2.530280 1_564
Ni1 Ni2 2.710178 1_555
Ni2 Ni4 2.530280 1_564
Ni2 Ni4 2.530280 1_565
Ni2 Ni5 2.530280 1_555
Ni2 Ni5 2.530280 1_554
Ni3 Ni5 2.493626 1_445
Ni3 Ni4 2.493627 1_455
Ni3 Ni5 2.710178 1_555
Ni3 Ni4 2.710178 1_555
Ni4 Ni5 2.493627 1_545
Ni4 Ni5 2.710178 1_555
