# generated using pymatgen
data_Li9Mn2Co5O16
_symmetry_space_group_name_H-M   'P 1'
_cell_length_a   2.88578100
_cell_length_b   5.86546900
_cell_length_c   17.31525607
_cell_angle_alpha   89.63827681
_cell_angle_beta   90.00000000
_cell_angle_gamma   90.00000000
_symmetry_Int_Tables_number   1
_chemical_formula_structural   Li9Mn2Co5O16
_chemical_formula_sum   'Li9 Mn2 Co5 O16'
_cell_volume   293.08013107
_cell_formula_units_Z   1
loop_
 _symmetry_equiv_pos_site_id
 _symmetry_equiv_pos_as_xyz
  1  'x, y, z'
loop_
 _atom_site_type_symbol
 _atom_site_label
 _atom_site_symmetry_multiplicity
 _atom_site_fract_x
 _atom_site_fract_y
 _atom_site_fract_z
 _atom_site_occupancy
  Li  Li0  1  0.50000000  0.74657200  0.86531900  1
  Li  Li1  1  0.50000000  0.25086700  0.62299300  1
  Li  Li2  1  0.50000000  0.75159900  0.38249800  1
  Li  Li3  1  0.00000000  0.99511400  0.73443400  1
  Li  Li4  1  0.00000000  0.50366800  0.50910900  1
  Li  Li5  1  0.00000000  0.99563800  0.26209200  1
  Li  Li6  1  0.50000000  0.25184000  0.13019200  1
  Li  Li7  1  0.00000000  0.50139600  0.99425400  1
  Li  Li8  1  0.50000000  0.75032900  0.62410400  1
  Mn  Mn0  1  0.00000000  0.00241900  0.99627300  1
  Mn  Mn1  1  0.50000000  0.74366600  0.12660600  1
  Co  Co0  1  0.00000000  0.50891600  0.73358900  1
  Co  Co1  1  0.00000000  0.99219100  0.51379500  1
  Co  Co2  1  0.00000000  0.49787100  0.25825300  1
  Co  Co3  1  0.50000000  0.23958700  0.38035000  1
  Co  Co4  1  0.50000000  0.26389900  0.86714300  1
  O  O0  1  0.50000000  0.78133500  0.99504600  1
  O  O1  1  0.50000000  0.26695300  0.75471000  1
  O  O2  1  0.50000000  0.77369400  0.50035300  1
  O  O3  1  0.00000000  0.02172300  0.88510900  1
  O  O4  1  0.00000000  0.49687900  0.63012400  1
  O  O5  1  0.00000000  0.01732600  0.37699700  1
  O  O6  1  0.50000000  0.26547200  0.25137200  1
  O  O7  1  0.00000000  0.51837100  0.12404000  1
  O  O8  1  0.50000000  0.73118100  0.74963200  1
  O  O9  1  0.50000000  0.22673200  0.49719500  1
  O  O10  1  0.50000000  0.73311300  0.25073600  1
  O  O11  1  0.00000000  0.00311200  0.61777300  1
  O  O12  1  0.00000000  0.48231100  0.37357000  1
  O  O13  1  0.00000000  0.97503100  0.11342700  1
  O  O14  1  0.50000000  0.22415900  0.00122900  1
  O  O15  1  0.00000000  0.48703700  0.87768100  1
loop_
_geom_bond_atom_site_label_1
_geom_bond_atom_site_label_2
_geom_bond_distance
_geom_bond_site_symmetry_2
Li0 O8 2.005752 1_555
Li0 O15 2.107372 1_555
Li0 O15 2.107372 1_655
Li0 O3 2.193394 1_565
Li0 O3 2.193394 1_665
Li0 O0 2.256773 1_555
Li1 O4 2.044898 1_655
Li1 O4 2.044898 1_555
Li1 O11 2.050256 1_655
Li1 O11 2.050256 1_555
Li1 O9 2.183711 1_555
Li1 O1 2.283259 1_555
Li2 O2 2.045617 1_555
Li2 O5 2.125655 1_565
Li2 O5 2.125655 1_665
Li2 O12 2.145632 1_655
Li2 O12 2.145632 1_555
Li2 O10 2.284752 1_555
Li3 O11 2.020264 1_565
Li3 O8 2.131344 1_555
Li3 O8 2.131344 1_455
Li3 O1 2.180499 1_565
Li3 O1 2.180499 1_465
Li4 O4 2.095533 1_555
Li4 O2 2.147185 1_555
Li4 O2 2.147185 1_455
Li4 O9 2.183407 1_555
Li4 O9 2.183407 1_455
Li4 O12 2.351023 1_555
Li5 O5 1.994473 1_565
Li5 O10 2.120260 1_555
Li5 O10 2.120260 1_455
Li5 O6 2.148866 1_565
Li5 O6 2.148866 1_465
Li5 O13 2.577771 1_555
Li6 O6 2.100290 1_555
Li6 O7 2.129595 1_555
Li6 O7 2.129595 1_655
Li6 O13 2.192778 1_545
Li6 O13 2.192778 1_645
Li6 O14 2.239944 1_555
Li7 O15 2.020779 1_555
Li7 O14 2.176769 1_456
Li7 O14 2.176769 1_556
Li7 O0 2.185974 1_455
Li7 O0 2.185974 1_555
Li7 O7 2.250110 1_556
Li8 O11 2.071297 1_565
Li8 O11 2.071297 1_665
Li8 O4 2.073844 1_555
Li8 O4 2.073844 1_655
Li8 O2 2.146295 1_555
Li8 O8 2.175741 1_555
Mn0 O3 1.927447 1_555
Mn0 O0 1.940186 1_445
Mn0 O0 1.940186 1_545
Mn0 O14 1.944811 1_456
Mn0 O14 1.944811 1_556
Mn0 O13 2.033891 1_546
Mn1 O7 1.957270 1_655
Mn1 O7 1.957270 1_555
Mn1 O13 1.992918 1_655
Mn1 O13 1.992918 1_555
Mn1 O10 2.149843 1_555
Mn1 O0 2.287296 1_554
Co0 O4 1.793359 1_555
Co0 O8 1.965522 1_555
Co0 O8 1.965522 1_455
Co0 O1 2.055074 1_555
Co0 O1 2.055074 1_455
Co0 O15 2.497479 1_555
Co1 O11 1.801949 1_565
Co1 O2 1.944824 1_455
Co1 O2 1.944824 1_555
Co1 O9 2.012980 1_565
Co1 O9 2.012980 1_465
Co1 O5 2.372347 1_565
Co2 O6 1.989045 1_455
Co2 O6 1.989045 1_555
Co2 O12 1.998252 1_555
Co2 O10 2.000117 1_455
Co2 O10 2.000117 1_555
Co2 O7 2.326283 1_555
Co3 O5 1.945714 1_555
Co3 O5 1.945714 1_655
Co3 O9 2.024130 1_555
Co3 O12 2.029901 1_655
Co3 O12 2.029901 1_555
Co3 O6 2.237486 1_555
Co4 O1 1.946776 1_555
Co4 O15 1.957351 1_555
Co4 O15 1.957351 1_655
Co4 O3 2.047164 1_655
Co4 O3 2.047164 1_555
Co4 O14 2.331940 1_556
