# generated using pymatgen
data_Ti17CuP12
_symmetry_space_group_name_H-M   'P 1'
_cell_length_a   3.43781323
_cell_length_b   9.41592705
_cell_length_c   55.82141816
_cell_angle_alpha   89.84057532
_cell_angle_beta   90.00000000
_cell_angle_gamma   90.00000000
_symmetry_Int_Tables_number   1
_chemical_formula_structural   Ti17CuP12
_chemical_formula_sum   'Ti68 Cu4 P48'
_cell_volume   1806.94339544
_cell_formula_units_Z   4
loop_
 _symmetry_equiv_pos_site_id
 _symmetry_equiv_pos_as_xyz
  1  'x, y, z'
loop_
 _atom_site_type_symbol
 _atom_site_label
 _atom_site_symmetry_multiplicity
 _atom_site_fract_x
 _atom_site_fract_y
 _atom_site_fract_z
 _atom_site_occupancy
  Ti  Ti0  1  0.50000000  0.85542768  0.02926267  1
  Ti  Ti1  1  0.50000000  0.85315249  0.36331532  1
  Ti  Ti2  1  0.50000000  0.85312768  0.69663754  1
  Ti  Ti3  1  0.50000000  0.14687232  0.30336246  1
  Ti  Ti4  1  0.50000000  0.14684751  0.63668468  1
  Ti  Ti5  1  0.50000000  0.14457232  0.97073733  1
  Ti  Ti6  1  0.50000000  0.64427017  0.19590853  1
  Ti  Ti7  1  0.50000000  0.64431013  0.52924658  1
  Ti  Ti8  1  0.50000000  0.64489213  0.86264173  1
  Ti  Ti9  1  0.50000000  0.35510787  0.13735827  1
  Ti  Ti10  1  0.50000000  0.35568987  0.47075342  1
  Ti  Ti11  1  0.50000000  0.35572983  0.80409147  1
  Ti  Ti12  1  0.00000000  0.60249300  0.04801500  1
  Ti  Ti13  1  -0.00000000  0.60230751  0.38152158  1
  Ti  Ti14  1  -0.00000000  0.60228928  0.71485546  1
  Ti  Ti15  1  0.00000000  0.39771072  0.28514454  1
  Ti  Ti16  1  0.00000000  0.39769249  0.61847842  1
  Ti  Ti17  1  0.00000000  0.39750700  0.95198500  1
  Ti  Ti18  1  0.00000000  0.89727440  0.21459691  1
  Ti  Ti19  1  -0.00000000  0.89702488  0.54796233  1
  Ti  Ti20  1  0.00000000  0.89734464  0.88129256  1
  Ti  Ti21  1  -0.00000000  0.10265536  0.11870744  1
  Ti  Ti22  1  -0.00000000  0.10297512  0.45203767  1
  Ti  Ti23  1  -0.00000000  0.10272560  0.78540309  1
  Ti  Ti24  1  -0.00000000  0.72716132  0.26702010  1
  Ti  Ti25  1  -0.00000000  0.72712166  0.60036024  1
  Ti  Ti26  1  0.00000000  0.72955446  0.93413813  1
  Ti  Ti27  1  0.00000000  0.27044554  0.06586187  1
  Ti  Ti28  1  -0.00000000  0.27287834  0.39963976  1
  Ti  Ti29  1  -0.00000000  0.27283868  0.73297990  1
  Ti  Ti30  1  0.00000000  0.77100925  0.10076158  1
  Ti  Ti31  1  0.00000000  0.77065962  0.43424033  1
  Ti  Ti32  1  0.00000000  0.77064426  0.76758687  1
  Ti  Ti33  1  -0.00000000  0.22935574  0.23241313  1
  Ti  Ti34  1  -0.00000000  0.22934038  0.56575967  1
  Ti  Ti35  1  0.00000000  0.22899075  0.89923842  1
  Ti  Ti36  1  0.50000000  0.99965972  0.16670674  1
  Ti  Ti37  1  0.50000000  -0.00000000  0.50000000  1
  Ti  Ti38  1  0.50000000  0.00034028  0.83329326  1
  Ti  Ti39  1  0.50000000  0.50000000  -0.00000000  1
  Ti  Ti40  1  0.50000000  0.49993830  0.33332894  1
  Ti  Ti41  1  0.50000000  0.50006170  0.66667106  1
  Ti  Ti42  1  0.50000000  0.00907719  0.07646590  1
  Ti  Ti43  1  0.50000000  0.00945705  0.41044870  1
  Ti  Ti44  1  0.50000000  0.00943104  0.74377482  1
  Ti  Ti45  1  0.50000000  0.99056896  0.25622518  1
  Ti  Ti46  1  0.50000000  0.99054295  0.58955130  1
  Ti  Ti47  1  0.50000000  0.99092281  0.92353410  1
  Ti  Ti48  1  0.50000000  0.49061332  0.24306675  1
  Ti  Ti49  1  0.50000000  0.49056118  0.57641074  1
  Ti  Ti50  1  0.50000000  0.49120215  0.90980134  1
  Ti  Ti51  1  0.50000000  0.50879785  0.09019866  1
  Ti  Ti52  1  0.50000000  0.50943882  0.42358926  1
  Ti  Ti53  1  0.50000000  0.50938668  0.75693325  1
  Ti  Ti54  1  -0.00000000  0.99991850  0.33333330  1
  Ti  Ti55  1  -0.00000000  0.00008150  0.66666670  1
  Ti  Ti56  1  0.50000000  0.80931962  0.30920202  1
  Ti  Ti57  1  0.50000000  0.80931875  0.64254831  1
  Ti  Ti58  1  0.50000000  0.81170532  0.97717044  1
  Ti  Ti59  1  0.50000000  0.18829468  0.02282956  1
  Ti  Ti60  1  0.50000000  0.19068125  0.35745169  1
  Ti  Ti61  1  0.50000000  0.19068038  0.69079798  1
  Ti  Ti62  1  0.50000000  0.68813562  0.14387132  1
  Ti  Ti63  1  0.50000000  0.68834850  0.47727522  1
  Ti  Ti64  1  0.50000000  0.68796510  0.81059728  1
  Ti  Ti65  1  0.50000000  0.31203490  0.18940272  1
  Ti  Ti66  1  0.50000000  0.31165150  0.52272478  1
  Ti  Ti67  1  0.50000000  0.31186438  0.85612868  1
  Cu  Cu0  1  -0.00000000  0.49999159  0.16663390  1
  Cu  Cu1  1  -0.00000000  0.50000000  0.50000000  1
  Cu  Cu2  1  0.00000000  0.50000841  0.83336610  1
  Cu  Cu3  1  0.00000000  -0.00000000  -0.00000000  1
  P  P0  1  0.50000000  0.74764513  0.06894164  1
  P  P1  1  0.50000000  0.74697422  0.40263309  1
  P  P2  1  0.50000000  0.74695857  0.73596837  1
  P  P3  1  0.50000000  0.25304143  0.26403163  1
  P  P4  1  0.50000000  0.25302578  0.59736691  1
  P  P5  1  0.50000000  0.25235487  0.93105836  1
  P  P6  1  0.50000000  0.75163227  0.23543083  1
  P  P7  1  0.50000000  0.75151088  0.56878044  1
  P  P8  1  0.50000000  0.75224301  0.90229974  1
  P  P9  1  0.50000000  0.24775699  0.09770026  1
  P  P10  1  0.50000000  0.24848912  0.43121956  1
  P  P11  1  0.50000000  0.24836773  0.76456917  1
  P  P12  1  0.00000000  0.70705208  0.00649242  1
  P  P13  1  -0.00000000  0.71225576  0.33990496  1
  P  P14  1  -0.00000000  0.71226227  0.67324680  1
  P  P15  1  0.00000000  0.28773773  0.32675320  1
  P  P16  1  0.00000000  0.28774424  0.66009504  1
  P  P17  1  -0.00000000  0.29294792  0.99350758  1
  P  P18  1  -0.00000000  0.79303608  0.17314037  1
  P  P19  1  0.00000000  0.79278654  0.50653497  1
  P  P20  1  0.00000000  0.79291195  0.83980441  1
  P  P21  1  -0.00000000  0.20708805  0.16019559  1
  P  P22  1  0.00000000  0.20721346  0.49346503  1
  P  P23  1  -0.00000000  0.20696392  0.82685963  1
  P  P24  1  0.50000000  0.58225461  0.28895460  1
  P  P25  1  0.50000000  0.58230189  0.62227586  1
  P  P26  1  0.50000000  0.58408638  0.95598626  1
  P  P27  1  0.50000000  0.41591362  0.04401374  1
  P  P28  1  0.50000000  0.41769811  0.37772414  1
  P  P29  1  0.50000000  0.41774539  0.71104540  1
  P  P30  1  0.50000000  0.91594236  0.12260650  1
  P  P31  1  0.50000000  0.91590925  0.45604296  1
  P  P32  1  0.50000000  0.91577057  0.78940127  1
  P  P33  1  0.50000000  0.08422943  0.21059873  1
  P  P34  1  0.50000000  0.08409075  0.54395704  1
  P  P35  1  0.50000000  0.08405764  0.87739350  1
  P  P36  1  -0.00000000  0.96109855  0.28857609  1
  P  P37  1  0.00000000  0.96108747  0.62192231  1
  P  P38  1  -0.00000000  0.96071427  0.95605549  1
  P  P39  1  -0.00000000  0.03928573  0.04394451  1
  P  P40  1  -0.00000000  0.03891253  0.37807769  1
  P  P41  1  0.00000000  0.03890145  0.71142391  1
  P  P42  1  0.00000000  0.53947388  0.12278481  1
  P  P43  1  -0.00000000  0.53925504  0.45613354  1
  P  P44  1  -0.00000000  0.53919993  0.78944088  1
  P  P45  1  0.00000000  0.46080007  0.21055912  1
  P  P46  1  0.00000000  0.46074496  0.54386646  1
  P  P47  1  0.00000000  0.46052612  0.87721519  1
loop_
_geom_bond_atom_site_label_1
_geom_bond_atom_site_label_2
_geom_bond_distance
_geom_bond_site_symmetry_2
Cu0 P42 2.474766 1_555
Cu0 P45 2.478566 1_555
Cu0 Ti6 2.735510 1_455
Cu0 Ti6 2.735510 1_555
Cu0 Ti9 2.738387 1_555
Cu0 Ti9 2.738387 1_455
Cu0 Ti65 2.773027 1_555
Cu0 Ti65 2.773027 1_455
Cu0 Ti62 2.773992 1_555
Cu0 Ti62 2.773992 1_455
Cu0 P21 2.782268 1_555
Cu0 P18 2.784088 1_555
Cu1 P43 2.475410 1_555
Cu1 P46 2.475410 1_555
Cu1 Ti10 2.734720 1_455
Cu1 Ti10 2.734720 1_555
Cu1 Ti7 2.734720 1_455
Cu1 Ti7 2.734720 1_555
Cu1 Ti63 2.774257 1_555
Cu1 Ti66 2.774257 1_455
Cu1 Ti63 2.774257 1_455
Cu1 Ti66 2.774257 1_555
Cu1 P22 2.781893 1_555
Cu1 P19 2.781893 1_555
Cu2 P47 2.474766 1_555
Cu2 P44 2.478566 1_555
Cu2 Ti11 2.735510 1_455
Cu2 Ti11 2.735510 1_555
Cu2 Ti8 2.738387 1_555
Cu2 Ti8 2.738387 1_455
Cu2 Ti64 2.773027 1_555
Cu2 Ti64 2.773027 1_455
Cu2 Ti67 2.773992 1_555
Cu2 Ti67 2.773992 1_455
Cu2 P20 2.782268 1_555
Cu2 P23 2.784088 1_555
Cu3 P38 2.481796 1_544
Cu3 P39 2.481796 1_555
Cu3 Ti0 2.731963 1_545
Cu3 Ti0 2.731963 1_445
Cu3 Ti5 2.731963 1_454
Cu3 Ti5 2.731963 1_554
Cu3 P17 2.781083 1_554
Cu3 P12 2.781083 1_545
Cu3 Ti59 2.781128 1_455
Cu3 Ti59 2.781128 1_555
Cu3 Ti58 2.781128 1_444
Cu3 Ti58 2.781128 1_544
P0 Ti0 2.433804 1_555
P0 Ti30 2.481979 1_555
P0 Ti30 2.481979 1_655
P0 Ti12 2.489195 1_555
P0 Ti12 2.489195 1_655
P0 Ti42 2.498352 1_565
P0 Ti51 2.539886 1_555
P1 Ti1 2.409223 1_555
P1 Ti31 2.473770 1_555
P1 Ti31 2.473770 1_655
P1 Ti13 2.491563 1_655
P1 Ti13 2.491563 1_555
P1 Ti43 2.510925 1_565
P1 Ti52 2.521176 1_555
P2 Ti2 2.409851 1_555
P2 Ti32 2.474219 1_555
P2 Ti32 2.474219 1_655
P2 Ti14 2.491613 1_555
P2 Ti14 2.491613 1_655
P2 Ti44 2.510739 1_565
P2 Ti53 2.521705 1_555
P3 Ti3 2.409851 1_555
P3 Ti33 2.474219 1_655
P3 Ti33 2.474219 1_555
P3 Ti15 2.491613 1_555
P3 Ti15 2.491613 1_655
P3 Ti45 2.510739 1_545
P3 Ti48 2.521705 1_555
P4 Ti4 2.409223 1_555
P4 Ti34 2.473770 1_555
P4 Ti34 2.473770 1_655
P4 Ti16 2.491563 1_555
P4 Ti16 2.491563 1_655
P4 Ti46 2.510925 1_545
P4 Ti49 2.521176 1_555
P5 Ti5 2.433804 1_555
P5 Ti35 2.481979 1_555
P5 Ti35 2.481979 1_655
P5 Ti17 2.489195 1_655
P5 Ti17 2.489195 1_555
P5 Ti47 2.498352 1_545
P5 Ti50 2.539886 1_555
P6 Ti6 2.429328 1_555
P6 Ti24 2.472833 1_655
P6 Ti24 2.472833 1_555
P6 Ti18 2.485740 1_655
P6 Ti18 2.485740 1_555
P6 Ti48 2.493255 1_555
P6 Ti45 2.534476 1_555
P7 Ti7 2.429280 1_555
P7 Ti25 2.472386 1_555
P7 Ti25 2.472386 1_655
P7 Ti19 2.484664 1_655
P7 Ti19 2.484664 1_555
P7 Ti49 2.492560 1_555
P7 Ti46 2.534671 1_555
P8 Ti8 2.436175 1_555
P8 Ti26 2.481297 1_655
P8 Ti26 2.481297 1_555
P8 Ti20 2.487472 1_655
P8 Ti20 2.487472 1_555
P8 Ti50 2.492208 1_555
P8 Ti47 2.543739 1_555
P9 Ti9 2.436175 1_555
P9 Ti27 2.481297 1_555
P9 Ti27 2.481297 1_655
P9 Ti21 2.487472 1_555
P9 Ti21 2.487472 1_655
P9 Ti51 2.492208 1_555
P9 Ti42 2.543739 1_555
P10 Ti10 2.429280 1_555
P10 Ti28 2.472386 1_555
P10 Ti28 2.472386 1_655
P10 Ti22 2.484664 1_555
P10 Ti22 2.484664 1_655
P10 Ti52 2.492560 1_555
P10 Ti43 2.534671 1_555
P11 Ti11 2.429328 1_555
P11 Ti29 2.472833 1_655
P11 Ti29 2.472833 1_555
P11 Ti23 2.485740 1_555
P11 Ti23 2.485740 1_655
P11 Ti53 2.493255 1_555
P11 Ti44 2.534476 1_555
P12 Ti12 2.515752 1_555
P12 Ti0 2.555779 1_555
P12 Ti0 2.555779 1_455
P12 Ti58 2.568227 1_454
P12 Ti58 2.568227 1_554
P12 Ti39 2.625035 1_555
P12 Ti39 2.625035 1_455
P13 Ti1 2.536154 1_455
P13 Ti1 2.536154 1_555
P13 Ti13 2.540704 1_555
P13 Ti56 2.592028 1_555
P13 Ti56 2.592028 1_455
P13 Ti40 2.662731 1_455
P13 Ti40 2.662731 1_555
P13 Ti54 2.732328 1_555
P14 Ti2 2.535433 1_455
P14 Ti2 2.535433 1_555
P14 Ti14 2.540393 1_555
P14 Ti57 2.591840 1_455
P14 Ti57 2.591840 1_555
P14 Ti41 2.661902 1_455
P14 Ti41 2.661902 1_555
P14 Ti55 2.733850 1_565
P15 Ti3 2.535433 1_555
P15 Ti3 2.535433 1_455
P15 Ti15 2.540393 1_555
P15 Ti60 2.591840 1_555
P15 Ti60 2.591840 1_455
P15 Ti40 2.661902 1_555
P15 Ti40 2.661902 1_455
P15 Ti54 2.733850 1_545
P16 Ti4 2.536154 1_455
P16 Ti4 2.536154 1_555
P16 Ti16 2.540704 1_555
P16 Ti61 2.592028 1_455
P16 Ti61 2.592028 1_555
P16 Ti41 2.662731 1_455
P16 Ti41 2.662731 1_555
P16 Ti55 2.732328 1_555
P17 Ti17 2.515752 1_555
P17 Ti5 2.555779 1_455
P17 Ti5 2.555779 1_555
P17 Ti59 2.568227 1_556
P17 Ti59 2.568227 1_456
P17 Ti39 2.625035 1_456
P17 Ti39 2.625035 1_556
P18 Ti18 2.516214 1_555
P18 Ti6 2.553860 1_455
P18 Ti6 2.553860 1_555
P18 Ti62 2.570734 1_455
P18 Ti62 2.570734 1_555
P18 Ti36 2.620097 1_555
P18 Ti36 2.620097 1_455
P19 Ti19 2.514714 1_555
P19 Ti7 2.550804 1_455
P19 Ti7 2.550804 1_555
P19 Ti63 2.568726 1_555
P19 Ti63 2.568726 1_455
P19 Ti37 2.624989 1_565
P19 Ti37 2.624989 1_465
P20 Ti20 2.518557 1_555
P20 Ti8 2.551944 1_555
P20 Ti8 2.551944 1_455
P20 Ti64 2.568704 1_555
P20 Ti64 2.568704 1_455
P20 Ti38 2.626311 1_565
P20 Ti38 2.626311 1_465
P21 Ti21 2.518557 1_555
P21 Ti9 2.551944 1_455
P21 Ti9 2.551944 1_555
P21 Ti65 2.568704 1_455
P21 Ti65 2.568704 1_555
P21 Ti36 2.626311 1_445
P21 Ti36 2.626311 1_545
P22 Ti22 2.514714 1_555
P22 Ti10 2.550804 1_455
P22 Ti10 2.550804 1_555
P22 Ti66 2.568726 1_555
P22 Ti66 2.568726 1_455
P22 Ti37 2.624989 1_455
P22 Ti37 2.624989 1_555
P23 Ti23 2.516214 1_555
P23 Ti11 2.553860 1_455
P23 Ti11 2.553860 1_555
P23 Ti67 2.570734 1_555
P23 Ti67 2.570734 1_455
P23 Ti38 2.620097 1_455
P23 Ti38 2.620097 1_555
P24 Ti56 2.421167 1_555
P24 Ti15 2.453847 1_555
P24 Ti15 2.453847 1_655
P24 Ti24 2.511216 1_555
P24 Ti24 2.511216 1_655
P24 Ti40 2.593413 1_555
P24 Ti48 2.705233 1_555
P25 Ti57 2.421423 1_555
P25 Ti16 2.454222 1_555
P25 Ti16 2.454222 1_655
P25 Ti25 2.510260 1_655
P25 Ti25 2.510260 1_555
P25 Ti41 2.594312 1_555
P25 Ti49 2.704332 1_555
P26 Ti58 2.450709 1_555
P26 Ti17 2.468425 1_655
P26 Ti17 2.468425 1_555
P26 Ti26 2.511748 1_555
P26 Ti26 2.511748 1_655
P26 Ti39 2.579234 1_556
P26 Ti50 2.724720 1_555
P27 Ti59 2.450709 1_555
P27 Ti12 2.468425 1_555
P27 Ti12 2.468425 1_655
P27 Ti27 2.511748 1_655
P27 Ti27 2.511748 1_555
P27 Ti39 2.579234 1_555
P27 Ti51 2.724720 1_555
P28 Ti60 2.421423 1_555
P28 Ti13 2.454222 1_655
P28 Ti13 2.454222 1_555
P28 Ti28 2.510260 1_655
P28 Ti28 2.510260 1_555
P28 Ti40 2.594312 1_555
P28 Ti52 2.704332 1_555
P29 Ti61 2.421167 1_555
P29 Ti14 2.453847 1_655
P29 Ti14 2.453847 1_555
P29 Ti29 2.511216 1_555
P29 Ti29 2.511216 1_655
P29 Ti41 2.593413 1_555
P29 Ti53 2.705233 1_555
P30 Ti62 2.448663 1_555
P30 Ti21 2.467937 1_565
P30 Ti21 2.467937 1_665
P30 Ti30 2.512613 1_555
P30 Ti30 2.512613 1_655
P30 Ti36 2.586954 1_555
P30 Ti42 2.718522 1_565
P31 Ti63 2.445761 1_555
P31 Ti22 2.470822 1_665
P31 Ti22 2.470822 1_565
P31 Ti31 2.513089 1_555
P31 Ti31 2.513089 1_655
P31 Ti37 2.580428 1_565
P31 Ti43 2.690933 1_565
P32 Ti64 2.446802 1_555
P32 Ti23 2.470043 1_665
P32 Ti23 2.470043 1_565
P32 Ti32 2.512775 1_655
P32 Ti32 2.512775 1_555
P32 Ti38 2.578373 1_565
P32 Ti44 2.692975 1_565
P33 Ti65 2.446802 1_555
P33 Ti18 2.470043 1_545
P33 Ti18 2.470043 1_645
P33 Ti33 2.512775 1_555
P33 Ti33 2.512775 1_655
P33 Ti36 2.578373 1_545
P33 Ti45 2.692975 1_545
P34 Ti66 2.445761 1_555
P34 Ti19 2.470822 1_645
P34 Ti19 2.470822 1_545
P34 Ti34 2.513089 1_655
P34 Ti34 2.513089 1_555
P34 Ti37 2.580428 1_555
P34 Ti46 2.690933 1_545
P35 Ti67 2.448663 1_555
P35 Ti20 2.467937 1_645
P35 Ti20 2.467937 1_545
P35 Ti35 2.512613 1_655
P35 Ti35 2.512613 1_555
P35 Ti38 2.586954 1_555
P35 Ti47 2.718522 1_545
P36 Ti45 2.507994 1_455
P36 Ti45 2.507994 1_555
P36 Ti56 2.512682 1_555
P36 Ti56 2.512682 1_455
P36 Ti24 2.512905 1_555
P36 Ti54 2.526014 1_555
P36 Ti3 2.589163 1_465
P36 Ti3 2.589163 1_565
P37 Ti46 2.508786 1_455
P37 Ti46 2.508786 1_555
P37 Ti57 2.512629 1_555
P37 Ti57 2.512629 1_455
P37 Ti25 2.513305 1_555
P37 Ti55 2.525549 1_565
P37 Ti4 2.588647 1_565
P37 Ti4 2.588647 1_465
P38 Ti26 2.499837 1_555
P38 Ti58 2.510630 1_455
P38 Ti58 2.510630 1_555
P38 Ti47 2.515614 1_455
P38 Ti47 2.515614 1_555
P38 Ti5 2.575121 1_465
P38 Ti5 2.575121 1_565
P39 Ti27 2.499837 1_555
P39 Ti59 2.510630 1_555
P39 Ti59 2.510630 1_455
P39 Ti42 2.515614 1_555
P39 Ti42 2.515614 1_455
P39 Ti0 2.575121 1_545
P39 Ti0 2.575121 1_445
P40 Ti43 2.508786 1_455
P40 Ti43 2.508786 1_555
P40 Ti60 2.512629 1_455
P40 Ti60 2.512629 1_555
P40 Ti28 2.513305 1_555
P40 Ti54 2.525549 1_545
P40 Ti1 2.588647 1_545
P40 Ti1 2.588647 1_445
P41 Ti44 2.507994 1_555
P41 Ti44 2.507994 1_455
P41 Ti61 2.512682 1_455
P41 Ti61 2.512682 1_555
P41 Ti29 2.512905 1_555
P41 Ti55 2.526014 1_555
P41 Ti2 2.589163 1_545
P41 Ti2 2.589163 1_445
P42 Ti30 2.499871 1_555
P42 Ti62 2.511719 1_455
P42 Ti62 2.511719 1_555
P42 Ti51 2.519876 1_455
P42 Ti51 2.519876 1_555
P42 Ti9 2.573363 1_455
P42 Ti9 2.573363 1_555
P43 Ti31 2.495253 1_555
P43 Ti63 2.515440 1_455
P43 Ti63 2.515440 1_555
P43 Ti52 2.517256 1_455
P43 Ti52 2.517256 1_555
P43 Ti10 2.569106 1_455
P43 Ti10 2.569106 1_555
P44 Ti32 2.494514 1_555
P44 Ti64 2.514099 1_455
P44 Ti64 2.514099 1_555
P44 Ti53 2.515776 1_555
P44 Ti53 2.515776 1_455
P44 Ti11 2.569047 1_455
P44 Ti11 2.569047 1_555
P45 Ti33 2.494514 1_555
P45 Ti65 2.514099 1_455
P45 Ti65 2.514099 1_555
P45 Ti48 2.515776 1_555
P45 Ti48 2.515776 1_455
P45 Ti6 2.569047 1_555
P45 Ti6 2.569047 1_455
P46 Ti34 2.495253 1_555
P46 Ti66 2.515440 1_555
P46 Ti66 2.515440 1_455
P46 Ti49 2.517256 1_455
P46 Ti49 2.517256 1_555
P46 Ti7 2.569106 1_455
P46 Ti7 2.569106 1_555
P47 Ti35 2.499871 1_555
P47 Ti67 2.511719 1_455
P47 Ti67 2.511719 1_555
P47 Ti50 2.519876 1_455
P47 Ti50 2.519876 1_555
P47 Ti8 2.573363 1_455
P47 Ti8 2.573363 1_555
