# generated using pymatgen
data_Li3MnCoO5
_symmetry_space_group_name_H-M   'P 1'
_cell_length_a   5.11287026
_cell_length_b   5.11287026
_cell_length_c   12.75085741
_cell_angle_alpha   79.01208465
_cell_angle_beta   79.01208465
_cell_angle_gamma   33.18155839
_symmetry_Int_Tables_number   1
_chemical_formula_structural   Li3MnCoO5
_chemical_formula_sum   'Li6 Mn2 Co2 O10'
_cell_volume   178.78291325
_cell_formula_units_Z   2
loop_
 _symmetry_equiv_pos_site_id
 _symmetry_equiv_pos_as_xyz
  1  'x, y, z'
loop_
 _atom_site_type_symbol
 _atom_site_label
 _atom_site_symmetry_multiplicity
 _atom_site_fract_x
 _atom_site_fract_y
 _atom_site_fract_z
 _atom_site_occupancy
  Li  Li0  1  0.79787100  0.79787100  0.91171100  1
  Li  Li1  1  0.20212900  0.20212900  0.08828900  1
  Li  Li2  1  0.59742000  0.59742000  0.30176800  1
  Li  Li3  1  0.00000000  0.00000000  0.50000000  1
  Li  Li4  1  0.40258000  0.40258000  0.69823200  1
  Li  Li5  1  0.50000000  0.50000000  0.00000000  1
  Mn  Mn0  1  0.10128300  0.10128300  0.80526000  1
  Mn  Mn1  1  0.89871700  0.89871700  0.19474000  1
  Co  Co0  1  0.30225800  0.30225800  0.40166900  1
  Co  Co1  1  0.69774200  0.69774200  0.59833100  1
  O  O0  1  0.15170800  0.15170800  0.93551000  1
  O  O1  1  0.52929000  0.52929000  0.15919300  1
  O  O2  1  0.93899200  0.93899200  0.34822000  1
  O  O3  1  0.34100000  0.34100000  0.54916800  1
  O  O4  1  0.73488400  0.73488400  0.74842800  1
  O  O5  1  0.47071000  0.47071000  0.84080700  1
  O  O6  1  0.84829200  0.84829200  0.06449000  1
  O  O7  1  0.26511600  0.26511600  0.25157200  1
  O  O8  1  0.65900000  0.65900000  0.45083200  1
  O  O9  1  0.06100800  0.06100800  0.65178000  1
loop_
_geom_bond_atom_site_label_1
_geom_bond_atom_site_label_2
_geom_bond_distance
_geom_bond_site_symmetry_2
Li0 O0 2.025406 1_655
Li0 O0 2.025406 1_565
Li0 O6 2.102854 1_556
Li0 O5 2.282237 1_655
Li0 O5 2.282237 1_565
Li0 O4 2.286249 1_555
Li1 O6 2.025406 1_545
Li1 O6 2.025406 1_455
Li1 O0 2.102854 1_554
Li1 O1 2.282237 1_455
Li1 O1 2.282237 1_545
Li1 O7 2.286249 1_555
Li2 O1 2.057560 1_555
Li2 O8 2.105489 1_555
Li2 O2 2.127652 1_455
Li2 O2 2.127652 1_545
Li2 O7 2.196227 1_655
Li2 O7 2.196227 1_565
Li3 O9 2.136163 1_555
Li3 O2 2.136163 1_445
Li3 O3 2.136301 1_545
Li3 O3 2.136301 1_455
Li3 O8 2.136301 1_455
Li3 O8 2.136301 1_545
Li4 O5 2.057560 1_555
Li4 O3 2.105489 1_555
Li4 O9 2.127652 1_655
Li4 O9 2.127652 1_565
Li4 O4 2.196227 1_545
Li4 O4 2.196227 1_455
Li5 O1 2.105809 1_555
Li5 O5 2.105809 1_554
Li5 O0 2.128756 1_654
Li5 O0 2.128756 1_564
Li5 O6 2.128756 1_455
Li5 O6 2.128756 1_545
Mn0 O0 1.824528 1_555
Mn0 O5 1.934805 1_455
Mn0 O5 1.934805 1_545
Mn0 O4 1.998321 1_455
Mn0 O4 1.998321 1_545
Mn0 O9 2.071927 1_555
Mn1 O6 1.824528 1_555
Mn1 O1 1.934805 1_565
Mn1 O1 1.934805 1_655
Mn1 O7 1.998321 1_565
Mn1 O7 1.998321 1_655
Mn1 O2 2.071927 1_555
Co0 O3 1.991321 1_555
Co0 O2 2.007017 1_455
Co0 O2 2.007017 1_545
Co0 O7 2.018035 1_555
Co0 O8 2.035984 1_455
Co0 O8 2.035984 1_545
Co1 O8 1.991321 1_555
Co1 O9 2.007017 1_565
Co1 O9 2.007017 1_655
Co1 O4 2.018035 1_555
Co1 O3 2.035984 1_565
Co1 O3 2.035984 1_655
