# generated using pymatgen
data_Mg(MnSn)6
_symmetry_space_group_name_H-M   'P 1'
_cell_length_a   5.44570040
_cell_length_b   5.44570040
_cell_length_c   8.99373400
_cell_angle_alpha   90.00000000
_cell_angle_beta   90.00000000
_cell_angle_gamma   120.00000483
_symmetry_Int_Tables_number   1
_chemical_formula_structural   Mg(MnSn)6
_chemical_formula_sum   'Mg1 Mn6 Sn6'
_cell_volume   230.98200026
_cell_formula_units_Z   1
loop_
 _symmetry_equiv_pos_site_id
 _symmetry_equiv_pos_as_xyz
  1  'x, y, z'
loop_
 _atom_site_type_symbol
 _atom_site_label
 _atom_site_symmetry_multiplicity
 _atom_site_fract_x
 _atom_site_fract_y
 _atom_site_fract_z
 _atom_site_occupancy
  Mg  Mg0  1  0.00000000  0.00000000  0.00000000  1
  Mn  Mn0  1  0.50000000  0.00000000  0.24908900  1
  Mn  Mn1  1  0.50000000  0.00000000  0.75091100  1
  Mn  Mn2  1  0.00000000  0.50000000  0.24908900  1
  Mn  Mn3  1  0.00000000  0.50000000  0.75091100  1
  Mn  Mn4  1  0.50000000  0.50000000  0.24908900  1
  Mn  Mn5  1  0.50000000  0.50000000  0.75091100  1
  Sn  Sn0  1  0.00000000  0.00000000  0.32575600  1
  Sn  Sn1  1  0.00000000  0.00000000  0.67424400  1
  Sn  Sn2  1  0.33333300  0.66666700  0.00000000  1
  Sn  Sn3  1  0.66666700  0.33333300  0.00000000  1
  Sn  Sn4  1  0.33333300  0.66666700  0.50000000  1
  Sn  Sn5  1  0.66666700  0.33333300  0.50000000  1
loop_
_geom_bond_atom_site_label_1
_geom_bond_atom_site_label_2
_geom_bond_distance
_geom_bond_site_symmetry_2
Mg0 Sn0 2.929763 1_555
Mg0 Sn1 2.929763 1_554
Mg0 Sn3 3.144074 1_455
Mg0 Sn2 3.144074 1_545
Mg0 Sn2 3.144078 1_445
Mg0 Sn2 3.144078 1_555
Mg0 Sn3 3.144078 1_445
Mg0 Sn3 3.144078 1_555
Mn0 Sn3 2.736782 1_555
Mn0 Sn2 2.736782 1_545
Mn0 Sn4 2.750212 1_545
Mn0 Sn5 2.750212 1_555
Mn0 Sn0 2.808799 1_555
Mn0 Sn0 2.808799 1_655
Mn1 Sn2 2.736782 1_546
Mn1 Sn3 2.736782 1_556
Mn1 Sn4 2.750212 1_545
Mn1 Sn5 2.750212 1_555
Mn1 Sn1 2.808799 1_555
Mn1 Sn1 2.808799 1_655
Mn2 Sn2 2.736782 1_555
Mn2 Sn3 2.736782 1_455
Mn2 Sn5 2.750212 1_455
Mn2 Sn4 2.750212 1_555
Mn2 Sn0 2.808799 1_555
Mn2 Sn0 2.808799 1_565
Mn3 Sn3 2.736782 1_456
Mn3 Sn2 2.736782 1_556
Mn3 Sn5 2.750212 1_455
Mn3 Sn4 2.750212 1_555
Mn3 Sn1 2.808799 1_555
Mn3 Sn1 2.808799 1_565
Mn4 Sn3 2.736785 1_555
Mn4 Sn2 2.736785 1_555
Mn4 Sn4 2.750214 1_555
Mn4 Sn5 2.750214 1_555
Mn4 Sn0 2.808799 1_555
Mn4 Sn0 2.808799 1_665
Mn5 Sn3 2.736785 1_556
Mn5 Sn2 2.736785 1_556
Mn5 Sn4 2.750214 1_555
Mn5 Sn5 2.750214 1_555
Mn5 Sn1 2.808799 1_665
Mn5 Sn1 2.808799 1_555
