# generated using pymatgen
data_Sr4CaLaTl2(Cu2O7)2
_symmetry_space_group_name_H-M   'P 1'
_cell_length_a   12.90053455
_cell_length_b   12.90053455
_cell_length_c   12.90053455
_cell_angle_alpha   155.72209008
_cell_angle_beta   155.72209008
_cell_angle_gamma   34.60127501
_symmetry_Int_Tables_number   1
_chemical_formula_structural   Sr4CaLaTl2(Cu2O7)2
_chemical_formula_sum   'Sr4 Ca1 La1 Tl2 Cu4 O14'
_cell_volume   362.56490161
_cell_formula_units_Z   1
loop_
 _symmetry_equiv_pos_site_id
 _symmetry_equiv_pos_as_xyz
  1  'x, y, z'
loop_
 _atom_site_type_symbol
 _atom_site_label
 _atom_site_symmetry_multiplicity
 _atom_site_fract_x
 _atom_site_fract_y
 _atom_site_fract_z
 _atom_site_occupancy
  Sr  Sr0  1  0.14834200  0.14834200  0.00000000  1
  Sr  Sr1  1  0.64632000  0.64632000  0.00000000  1
  Sr  Sr2  1  0.85165800  0.85165800  0.00000000  1
  Sr  Sr3  1  0.35368000  0.35368000  0.00000000  1
  Ca  Ca0  1  0.50000000  0.50000000  0.00000000  1
  La  La0  1  0.00000000  0.00000000  0.00000000  1
  Tl  Tl0  1  0.25000000  0.75000000  0.50000000  1
  Tl  Tl1  1  0.75000000  0.25000000  0.50000000  1
  Cu  Cu0  1  0.57154000  0.07154000  0.50000000  1
  Cu  Cu1  1  0.07154000  0.57154000  0.50000000  1
  Cu  Cu2  1  0.42846000  0.92846000  0.50000000  1
  Cu  Cu3  1  0.92846000  0.42846000  0.50000000  1
  O  O0  1  0.66394700  0.16394700  0.50000000  1
  O  O1  1  0.16394700  0.66394700  0.50000000  1
  O  O2  1  0.33605300  0.83605300  0.50000000  1
  O  O3  1  0.83605300  0.33605300  0.50000000  1
  O  O4  1  0.81299200  0.81299200  0.49707900  1
  O  O5  1  0.31591300  0.31591300  0.50292100  1
  O  O6  1  0.81299200  0.31591300  0.00000000  1
  O  O7  1  0.31591300  0.81299200  0.00000000  1
  O  O8  1  0.68408700  0.68408700  0.49707900  1
  O  O9  1  0.18700800  0.18700800  0.50292100  1
  O  O10  1  0.68408700  0.18700800  0.00000000  1
  O  O11  1  0.18700800  0.68408700  0.00000000  1
  O  O12  1  0.74978300  0.74978300  0.00000000  1
  O  O13  1  0.25021700  0.25021700  0.00000000  1
loop_
_geom_bond_atom_site_label_1
_geom_bond_atom_site_label_2
_geom_bond_distance
_geom_bond_site_symmetry_2
Ca0 O4 2.481431 1_555
Ca0 O6 2.481431 1_555
Ca0 O7 2.481431 1_555
Ca0 O8 2.481431 1_555
Ca0 O5 2.481431 1_554
Ca0 O11 2.481431 1_555
Ca0 O10 2.481431 1_555
Ca0 O9 2.481431 1_554
La0 O4 2.498697 1_444
La0 O7 2.498697 1_545
La0 O6 2.498697 1_455
La0 O5 2.498697 1_555
La0 O8 2.498697 1_444
La0 O10 2.498697 1_455
La0 O11 2.498697 1_545
La0 O9 2.498697 1_555
Cu0 O5 1.926178 1_555
Cu0 O7 1.926178 1_545
Cu0 O6 1.926178 1_556
Cu0 O4 1.926178 1_545
Cu0 O0 2.276332 1_555
Cu1 O5 1.926178 1_555
Cu1 O7 1.926178 1_556
Cu1 O6 1.926178 1_455
Cu1 O4 1.926178 1_455
Cu1 O1 2.276332 1_555
Cu2 O9 1.926178 1_565
Cu2 O10 1.926178 1_566
Cu2 O11 1.926178 1_555
Cu2 O8 1.926178 1_555
Cu2 O2 2.276332 1_555
Cu3 O9 1.926178 1_655
Cu3 O10 1.926178 1_555
Cu3 O11 1.926178 1_656
Cu3 O8 1.926178 1_555
Cu3 O3 2.276332 1_555
O0 Tl1 2.119809 1_555
O0 Sr0 2.739868 1_656
O0 Sr0 2.739868 1_555
O0 Sr1 2.747299 1_545
O0 Sr1 2.747299 1_556
O1 Tl0 2.119809 1_555
O1 Sr0 2.739868 1_566
O1 Sr0 2.739868 1_555
O1 Sr1 2.747299 1_455
O1 Sr1 2.747299 1_556
O2 Tl0 2.119809 1_555
O2 Sr2 2.739868 1_556
O2 Sr2 2.739868 1_455
O2 Sr3 2.747299 1_555
O2 Sr3 2.747299 1_566
O3 Tl1 2.119809 1_555
O3 Sr2 2.739868 1_556
O3 Sr2 2.739868 1_545
O3 Sr3 2.747299 1_555
O3 Sr3 2.747299 1_656
O4 Sr1 2.775569 1_555
O4 Sr0 2.827216 1_666
O5 Sr1 2.775569 1_556
O5 Sr0 2.827216 1_555
O6 Sr1 2.775569 1_555
O6 Sr0 2.827216 1_655
O7 Sr1 2.775569 1_555
O7 Sr0 2.827216 1_565
O8 Sr3 2.775569 1_555
O8 Sr2 2.827216 1_556
O9 Sr3 2.775569 1_556
O9 Sr2 2.827216 1_445
O10 Sr3 2.775569 1_555
O10 Sr2 2.827216 1_545
O11 Sr3 2.775569 1_555
O11 Sr2 2.827216 1_455
O12 Sr2 2.509565 1_555
O12 Sr1 2.548683 1_555
O12 Tl0 2.712772 1_655
O12 Tl1 2.712772 1_565
O12 Tl0 2.712772 1_554
O12 Tl1 2.712772 1_554
O13 Sr0 2.509565 1_555
O13 Sr3 2.548683 1_555
O13 Tl0 2.712772 1_555
O13 Tl1 2.712772 1_454
O13 Tl1 2.712772 1_555
O13 Tl0 2.712772 1_544
