# generated using pymatgen
data_Dy2Fe2Si2C
_symmetry_space_group_name_H-M   'P 1'
_cell_length_a   5.62642196
_cell_length_b   5.62642196
_cell_length_c   6.72257532
_cell_angle_alpha   53.47164392
_cell_angle_beta   53.47164392
_cell_angle_gamma   40.80175094
_symmetry_Int_Tables_number   1
_chemical_formula_structural   Dy2Fe2Si2C
_chemical_formula_sum   'Dy2 Fe2 Si2 C1'
_cell_volume   107.42100168
_cell_formula_units_Z   1
loop_
 _symmetry_equiv_pos_site_id
 _symmetry_equiv_pos_as_xyz
  1  'x, y, z'
loop_
 _atom_site_type_symbol
 _atom_site_label
 _atom_site_symmetry_multiplicity
 _atom_site_fract_x
 _atom_site_fract_y
 _atom_site_fract_z
 _atom_site_occupancy
  Dy  Dy0  1  0.94094600  0.94094600  0.79362300  1
  Dy  Dy1  1  0.05905400  0.05905400  0.20637700  1
  Fe  Fe0  1  0.70108300  0.70108300  0.40454300  1
  Fe  Fe1  1  0.29891700  0.29891700  0.59545700  1
  Si  Si0  1  0.33785700  0.33785700  0.21690400  1
  Si  Si1  1  0.66214300  0.66214300  0.78309600  1
  C  C0  1  0.50000000  0.50000000  0.50000000  1
loop_
_geom_bond_atom_site_label_1
_geom_bond_atom_site_label_2
_geom_bond_distance
_geom_bond_site_symmetry_2
Dy0 Si1 2.985985 1_555
Dy0 Si1 3.014090 1_655
Dy0 Si1 3.014090 1_565
Dy0 Si0 3.032550 1_656
Dy0 Si0 3.032550 1_566
Dy1 Si0 2.985985 1_555
Dy1 Si0 3.014090 1_545
Dy1 Si0 3.014090 1_455
Dy1 Si1 3.032550 1_454
Dy1 Si1 3.032550 1_544
Fe0 Si0 2.282028 1_655
Fe0 Si0 2.282028 1_565
Fe0 Si1 2.305962 1_555
Fe1 Si1 2.282028 1_545
Fe1 Si1 2.282028 1_455
Fe1 Si0 2.305962 1_555
Si0 Si1 2.744867 1_554
C0 Fe0 1.783573 1_555
C0 Fe1 1.783573 1_555
C0 Dy0 2.563082 1_545
C0 Dy0 2.563082 1_455
C0 Dy1 2.563082 1_655
C0 Dy1 2.563082 1_565
