# generated using pymatgen
data_Y(Mo3Se4)2
_symmetry_space_group_name_H-M   'P 1'
_cell_length_a   6.78437199
_cell_length_b   6.78437199
_cell_length_c   6.78437188
_cell_angle_alpha   89.23844779
_cell_angle_beta   89.23844779
_cell_angle_gamma   89.23844738
_symmetry_Int_Tables_number   1
_chemical_formula_structural   Y(Mo3Se4)2
_chemical_formula_sum   'Y1 Mo6 Se8'
_cell_volume   312.18703206
_cell_formula_units_Z   1
loop_
 _symmetry_equiv_pos_site_id
 _symmetry_equiv_pos_as_xyz
  1  'x, y, z'
loop_
 _atom_site_type_symbol
 _atom_site_label
 _atom_site_symmetry_multiplicity
 _atom_site_fract_x
 _atom_site_fract_y
 _atom_site_fract_z
 _atom_site_occupancy
  Y  Y0  1  0.00000000  0.00000000  0.00000000  1
  Mo  Mo0  1  0.76596200  0.57731400  0.44089900  1
  Mo  Mo1  1  0.44089900  0.76596200  0.57731400  1
  Mo  Mo2  1  0.57731400  0.44089900  0.76596200  1
  Mo  Mo3  1  0.23403800  0.42268600  0.55910100  1
  Mo  Mo4  1  0.55910100  0.23403800  0.42268600  1
  Mo  Mo5  1  0.42268600  0.55910100  0.23403800  1
  Se  Se0  1  0.76309200  0.76309200  0.76309200  1
  Se  Se1  1  0.23690800  0.23690800  0.23690800  1
  Se  Se2  1  0.24440200  0.62818800  0.87762100  1
  Se  Se3  1  0.87762100  0.24440200  0.62818800  1
  Se  Se4  1  0.62818800  0.87762100  0.24440200  1
  Se  Se5  1  0.75559800  0.37181200  0.12237900  1
  Se  Se6  1  0.12237900  0.75559800  0.37181200  1
  Se  Se7  1  0.37181200  0.12237900  0.75559800  1
loop_
_geom_bond_atom_site_label_1
_geom_bond_atom_site_label_2
_geom_bond_distance
_geom_bond_site_symmetry_2
Mo0 Se0 2.537413 1_555
Mo0 Se5 2.589443 1_555
Mo0 Se4 2.590780 1_555
Mo0 Se3 2.682064 1_555
Mo0 Se6 2.749960 1_655
Mo1 Se0 2.537413 1_555
Mo1 Se6 2.589443 1_555
Mo1 Se2 2.590780 1_555
Mo1 Se4 2.682064 1_555
Mo1 Se7 2.749960 1_565
Mo2 Se0 2.537413 1_555
Mo2 Se7 2.589443 1_555
Mo2 Se3 2.590780 1_555
Mo2 Se2 2.682064 1_555
Mo2 Se5 2.749960 1_556
Mo3 Se1 2.537413 1_555
Mo3 Se2 2.589443 1_555
Mo3 Se7 2.590780 1_555
Mo3 Se6 2.682064 1_555
Mo3 Se3 2.749960 1_455
Mo4 Se1 2.537413 1_555
Mo4 Se3 2.589443 1_555
Mo4 Se5 2.590780 1_555
Mo4 Se7 2.682064 1_555
Mo4 Se4 2.749960 1_545
Mo5 Se1 2.537413 1_555
Mo5 Se4 2.589443 1_555
Mo5 Se6 2.590780 1_555
Mo5 Se5 2.682064 1_555
Mo5 Se2 2.749960 1_554
Se0 Y0 2.820635 1_666
Se1 Y0 2.820635 1_555
Se2 Y0 3.116029 1_566
Se3 Y0 3.116029 1_656
Se4 Y0 3.116029 1_665
Se5 Y0 3.116029 1_655
Se6 Y0 3.116029 1_565
Se7 Y0 3.116029 1_556
