# generated using pymatgen
data_Hf3(VGa2)2
_symmetry_space_group_name_H-M   'P 1'
_cell_length_a   5.38018300
_cell_length_b   13.64395800
_cell_length_c   16.76992800
_cell_angle_alpha   90.00000000
_cell_angle_beta   90.00000000
_cell_angle_gamma   90.00000000
_symmetry_Int_Tables_number   1
_chemical_formula_structural   Hf3(VGa2)2
_chemical_formula_sum   'Hf24 V16 Ga32'
_cell_volume   1231.02995183
_cell_formula_units_Z   8
loop_
 _symmetry_equiv_pos_site_id
 _symmetry_equiv_pos_as_xyz
  1  'x, y, z'
loop_
 _atom_site_type_symbol
 _atom_site_label
 _atom_site_symmetry_multiplicity
 _atom_site_fract_x
 _atom_site_fract_y
 _atom_site_fract_z
 _atom_site_occupancy
  Hf  Hf0  1  0.25000000  0.35405600  0.46379000  1
  Hf  Hf1  1  0.25000000  0.14594400  0.96379000  1
  Hf  Hf2  1  0.75000000  0.64594400  0.53621000  1
  Hf  Hf3  1  0.75000000  0.85405600  0.03621000  1
  Hf  Hf4  1  0.25000000  0.96870900  0.43434400  1
  Hf  Hf5  1  0.25000000  0.53129100  0.93434400  1
  Hf  Hf6  1  0.75000000  0.03129100  0.56565600  1
  Hf  Hf7  1  0.75000000  0.46870900  0.06565600  1
  Hf  Hf8  1  0.25000000  0.72968100  0.44288300  1
  Hf  Hf9  1  0.25000000  0.77031900  0.94288300  1
  Hf  Hf10  1  0.75000000  0.27031900  0.55711700  1
  Hf  Hf11  1  0.75000000  0.22968100  0.05711700  1
  Hf  Hf12  1  0.25000000  0.97350700  0.67332900  1
  Hf  Hf13  1  0.25000000  0.52649300  0.17332900  1
  Hf  Hf14  1  0.75000000  0.02649300  0.32667100  1
  Hf  Hf15  1  0.75000000  0.47350700  0.82667100  1
  Hf  Hf16  1  0.25000000  0.82069700  0.15162800  1
  Hf  Hf17  1  0.25000000  0.67930300  0.65162800  1
  Hf  Hf18  1  0.75000000  0.17930300  0.84837200  1
  Hf  Hf19  1  0.75000000  0.32069700  0.34837200  1
  Hf  Hf20  1  0.25000000  0.18655900  0.28684500  1
  Hf  Hf21  1  0.25000000  0.31344100  0.78684500  1
  Hf  Hf22  1  0.75000000  0.81344100  0.71315500  1
  Hf  Hf23  1  0.75000000  0.68655900  0.21315500  1
  V  V0  1  0.00934800  0.95994700  0.86938000  1
  V  V1  1  0.49065200  0.54005300  0.36938000  1
  V  V2  1  0.50934800  0.04005300  0.13062000  1
  V  V3  1  0.99065200  0.45994700  0.63062000  1
  V  V4  1  0.99065200  0.04005300  0.13062000  1
  V  V5  1  0.50934800  0.45994700  0.63062000  1
  V  V6  1  0.49065200  0.95994700  0.86938000  1
  V  V7  1  0.00934800  0.54005300  0.36938000  1
  V  V8  1  0.01514700  0.83777500  0.31438900  1
  V  V9  1  0.48485300  0.66222500  0.81438900  1
  V  V10  1  0.51514700  0.16222500  0.68561100  1
  V  V11  1  0.98485300  0.33777500  0.18561100  1
  V  V12  1  0.98485300  0.16222500  0.68561100  1
  V  V13  1  0.51514700  0.33777500  0.18561100  1
  V  V14  1  0.48485300  0.83777500  0.31438900  1
  V  V15  1  0.01514700  0.66222500  0.81438900  1
  Ga  Ga0  1  0.25000000  0.12313800  0.55832000  1
  Ga  Ga1  1  0.25000000  0.37686200  0.05832000  1
  Ga  Ga2  1  0.75000000  0.87686200  0.44168000  1
  Ga  Ga3  1  0.75000000  0.62313800  0.94168000  1
  Ga  Ga4  1  0.25000000  0.94970700  0.01626900  1
  Ga  Ga5  1  0.25000000  0.55029300  0.51626900  1
  Ga  Ga6  1  0.75000000  0.05029300  0.98373100  1
  Ga  Ga7  1  0.75000000  0.44970700  0.48373100  1
  Ga  Ga8  1  0.25000000  0.10920900  0.80594000  1
  Ga  Ga9  1  0.25000000  0.39079100  0.30594000  1
  Ga  Ga10  1  0.75000000  0.89079100  0.19406000  1
  Ga  Ga11  1  0.75000000  0.60920900  0.69406000  1
  Ga  Ga12  1  0.25000000  0.19915200  0.12073400  1
  Ga  Ga13  1  0.25000000  0.30084800  0.62073400  1
  Ga  Ga14  1  0.75000000  0.80084800  0.87926600  1
  Ga  Ga15  1  0.75000000  0.69915200  0.37926600  1
  Ga  Ga16  1  0.25000000  0.82413700  0.78108900  1
  Ga  Ga17  1  0.25000000  0.67586300  0.28108900  1
  Ga  Ga18  1  0.75000000  0.17586300  0.21891100  1
  Ga  Ga19  1  0.75000000  0.32413700  0.71891100  1
  Ga  Ga20  1  0.25000000  0.98818300  0.26094100  1
  Ga  Ga21  1  0.25000000  0.51181700  0.76094100  1
  Ga  Ga22  1  0.75000000  0.01181700  0.73905900  1
  Ga  Ga23  1  0.75000000  0.48818300  0.23905900  1
  Ga  Ga24  1  0.99303800  0.16044800  0.43109000  1
  Ga  Ga25  1  0.50696200  0.33955200  0.93109000  1
  Ga  Ga26  1  0.49303800  0.83955200  0.56891000  1
  Ga  Ga27  1  0.00696200  0.66044800  0.06891000  1
  Ga  Ga28  1  0.00696200  0.83955200  0.56891000  1
  Ga  Ga29  1  0.49303800  0.66044800  0.06891000  1
  Ga  Ga30  1  0.50696200  0.16044800  0.43109000  1
  Ga  Ga31  1  0.99303800  0.33955200  0.93109000  1
loop_
_geom_bond_atom_site_label_1
_geom_bond_atom_site_label_2
_geom_bond_distance
_geom_bond_site_symmetry_2
Hf4 V14 2.972319 1_555
Hf4 V8 2.972319 1_555
Hf5 V9 2.972319 1_555
Hf5 V15 2.972319 1_555
Hf6 V10 2.972319 1_555
Hf6 V12 2.972319 1_555
Hf7 V11 2.972319 1_555
Hf7 V13 2.972319 1_555
Hf8 V14 2.900862 1_555
Hf8 V8 2.900862 1_555
Hf9 V9 2.900862 1_555
Hf9 V15 2.900862 1_555
Hf10 V10 2.900862 1_555
Hf10 V12 2.900862 1_555
Hf11 V11 2.900862 1_555
Hf11 V13 2.900862 1_555
Hf12 V12 2.950821 1_465
Hf12 V10 2.950821 1_565
Hf13 V13 2.950821 1_555
Hf13 V11 2.950821 1_455
Hf14 V8 2.950821 1_645
Hf14 V14 2.950821 1_545
Hf15 V15 2.950821 1_655
Hf15 V9 2.950821 1_555
Hf16 V14 3.016782 1_555
Hf16 V8 3.016782 1_555
Hf17 V9 3.016782 1_555
Hf17 V15 3.016782 1_555
Hf18 V12 3.016782 1_555
Hf18 V10 3.016782 1_555
Hf19 V11 3.016782 1_555
Hf19 V13 3.016782 1_555
Hf20 V11 3.028842 1_455
Hf20 V13 3.028842 1_555
Hf21 V12 3.028842 1_455
Hf21 V10 3.028842 1_555
Hf22 V15 3.028842 1_655
Hf22 V9 3.028842 1_555
Hf23 V8 3.028842 1_655
Hf23 V14 3.028842 1_555
V10 V12 2.527104 1_555
V10 V12 2.853079 1_455
V11 V13 2.527104 1_555
V11 V13 2.853079 1_655
V14 V8 2.527104 1_555
V14 V8 2.853079 1_655
V15 V9 2.527104 1_555
V15 V9 2.853079 1_455
Ga0 Ga24 2.592848 1_455
Ga0 Ga30 2.592848 1_555
Ga0 V12 2.622251 1_455
Ga0 V10 2.622251 1_555
Ga0 Ga13 2.640937 1_555
Ga0 Hf12 2.808526 1_545
Ga0 Hf4 2.960080 1_545
Ga0 Hf6 2.970207 1_455
Ga0 Hf6 2.970207 1_555
Ga1 Ga31 2.592848 1_454
Ga1 Ga25 2.592848 1_554
Ga1 V11 2.622251 1_455
Ga1 V13 2.622251 1_555
Ga1 Ga12 2.640937 1_555
Ga1 Hf13 2.808526 1_555
Ga1 Hf5 2.960080 1_554
Ga1 Hf7 2.970207 1_455
Ga1 Hf7 2.970207 1_555
Ga2 Ga28 2.592848 1_655
Ga2 Ga26 2.592848 1_555
Ga2 V8 2.622251 1_655
Ga2 V14 2.622251 1_555
Ga2 Hf14 2.808526 1_565
Ga2 Hf6 2.960080 1_565
Ga2 Hf4 2.970207 1_655
Ga2 Hf4 2.970207 1_555
Ga3 V15 2.622251 1_655
Ga3 V9 2.622251 1_555
Ga3 Hf15 2.808526 1_555
Ga3 Hf7 2.960080 1_556
Ga3 Hf5 2.970207 1_555
Ga3 Hf5 2.970207 1_655
Ga4 V4 2.672803 1_465
Ga4 V2 2.672803 1_565
Ga4 Hf9 2.739549 1_554
Ga4 V6 2.786366 1_554
Ga4 V0 2.786366 1_554
Ga4 Hf1 2.818378 1_564
Ga4 Hf16 2.872464 1_555
Ga4 Hf3 3.008587 1_455
Ga4 Hf3 3.008587 1_555
Ga5 V3 2.672803 1_455
Ga5 V5 2.672803 1_555
Ga5 Hf8 2.739549 1_555
Ga5 V7 2.786366 1_555
Ga5 V1 2.786366 1_555
Ga5 Hf0 2.818378 1_555
Ga5 Hf17 2.872464 1_555
Ga5 Hf2 3.008587 1_555
Ga5 Hf2 3.008587 1_455
Ga6 V0 2.672803 1_645
Ga6 V6 2.672803 1_545
Ga6 Hf11 2.739549 1_556
Ga6 V4 2.786366 1_556
Ga6 V2 2.786366 1_556
Ga6 Hf3 2.818378 1_546
Ga6 Hf18 2.872464 1_555
Ga6 Hf1 3.008587 1_655
Ga6 Hf1 3.008587 1_555
Ga7 V7 2.672803 1_655
Ga7 V1 2.672803 1_555
Ga7 Hf10 2.739549 1_555
Ga7 V3 2.786366 1_555
Ga7 V5 2.786366 1_555
Ga7 Hf2 2.818378 1_555
Ga7 Hf19 2.872464 1_555
Ga7 Hf0 3.008587 1_555
Ga7 Hf0 3.008587 1_655
Ga8 V12 2.574918 1_455
Ga8 V10 2.574918 1_555
Ga8 V0 2.637359 1_545
Ga8 V6 2.637359 1_545
Ga8 Hf1 2.694165 1_555
Ga8 Hf21 2.804872 1_555
Ga8 Hf12 2.893739 1_545
Ga8 Hf18 2.942374 1_555
Ga8 Hf18 2.942374 1_455
Ga9 V13 2.574918 1_555
Ga9 V11 2.574918 1_455
Ga9 V7 2.637359 1_555
Ga9 V1 2.637359 1_555
Ga9 Hf0 2.694165 1_555
Ga9 Hf20 2.804872 1_555
Ga9 Hf13 2.893739 1_555
Ga9 Hf19 2.942374 1_555
Ga9 Hf19 2.942374 1_455
Ga10 V8 2.574918 1_655
Ga10 V14 2.574918 1_555
Ga10 V4 2.637359 1_565
Ga10 V2 2.637359 1_565
Ga10 Hf3 2.694165 1_555
Ga10 Hf23 2.804872 1_555
Ga10 Hf14 2.893739 1_565
Ga10 Hf16 2.942374 1_555
Ga10 Hf16 2.942374 1_655
Ga11 V15 2.574918 1_655
Ga11 V9 2.574918 1_555
Ga11 V3 2.637359 1_555
Ga11 V5 2.637359 1_555
Ga11 Hf2 2.694165 1_555
Ga11 Hf22 2.804872 1_555
Ga11 Hf15 2.893739 1_555
Ga11 Hf17 2.942374 1_655
Ga11 Hf17 2.942374 1_555
Ga12 V4 2.585840 1_455
Ga12 V2 2.585840 1_555
Ga12 V13 2.606912 1_555
Ga12 V11 2.606912 1_455
Ga12 Hf1 2.730226 1_554
Ga12 Hf20 2.790963 1_555
Ga12 Hf11 2.923742 1_455
Ga12 Hf11 2.923742 1_555
Ga13 V5 2.585840 1_555
Ga13 V3 2.585840 1_455
Ga13 V12 2.606912 1_455
Ga13 V10 2.606912 1_555
Ga13 Hf0 2.730226 1_555
Ga13 Hf21 2.790963 1_555
Ga13 Hf10 2.923742 1_555
Ga13 Hf10 2.923742 1_455
Ga14 V0 2.585840 1_655
Ga14 V6 2.585840 1_555
Ga14 V15 2.606912 1_655
Ga14 V9 2.606912 1_555
Ga14 Ga3 2.640937 1_555
Ga14 Hf3 2.730226 1_556
Ga14 Hf22 2.790963 1_555
Ga14 Hf9 2.923742 1_655
Ga14 Hf9 2.923742 1_555
Ga15 V1 2.585840 1_555
Ga15 V7 2.585840 1_655
Ga15 V8 2.606912 1_655
Ga15 V14 2.606912 1_555
Ga15 Ga2 2.640937 1_555
Ga15 Hf2 2.730226 1_555
Ga15 Hf23 2.790963 1_555
Ga15 Hf8 2.923742 1_555
Ga15 Hf8 2.923742 1_655
Ga16 V9 2.605500 1_555
Ga16 V15 2.605500 1_555
Ga16 V0 2.702261 1_555
Ga16 V6 2.702261 1_555
Ga16 Hf12 2.723811 1_555
Ga16 Hf9 2.810878 1_555
Ga16 Hf22 2.925026 1_455
Ga16 Hf22 2.925026 1_555
Ga16 Hf17 2.935723 1_555
Ga17 V14 2.605500 1_555
Ga17 V8 2.605500 1_555
Ga17 V7 2.702261 1_555
Ga17 V1 2.702261 1_555
Ga17 Hf13 2.723811 1_555
Ga17 Hf8 2.810878 1_555
Ga17 Hf23 2.925026 1_455
Ga17 Hf23 2.925026 1_555
Ga17 Hf16 2.935723 1_555
Ga18 V11 2.605500 1_555
Ga18 V13 2.605500 1_555
Ga18 V2 2.702261 1_555
Ga18 V4 2.702261 1_555
Ga18 Hf14 2.723811 1_555
Ga18 Hf11 2.810878 1_555
Ga18 Hf20 2.925026 1_555
Ga18 Hf20 2.925026 1_655
Ga18 Hf19 2.935723 1_555
Ga19 V12 2.605500 1_555
Ga19 V10 2.605500 1_555
Ga19 V5 2.702261 1_555
Ga19 V3 2.702261 1_555
Ga19 Hf15 2.723811 1_555
Ga19 Hf10 2.810878 1_555
Ga19 Hf21 2.925026 1_555
Ga19 Hf21 2.925026 1_655
Ga19 Hf18 2.935723 1_555
Ga20 V14 2.571248 1_555
Ga20 V8 2.571248 1_555
Ga20 V4 2.687773 1_465
Ga20 V2 2.687773 1_565
Ga20 Hf20 2.741273 1_565
Ga20 Hf4 2.920069 1_555
Ga20 Hf16 2.929595 1_555
Ga20 Hf14 2.953785 1_465
Ga20 Hf14 2.953785 1_565
Ga21 V9 2.571248 1_555
Ga21 V15 2.571248 1_555
Ga21 V5 2.687773 1_555
Ga21 V3 2.687773 1_455
Ga21 Hf21 2.741273 1_555
Ga21 Hf5 2.920069 1_555
Ga21 Hf17 2.929595 1_555
Ga21 Hf15 2.953785 1_455
Ga21 Hf15 2.953785 1_555
Ga22 V12 2.571248 1_555
Ga22 V10 2.571248 1_555
Ga22 V6 2.687773 1_545
Ga22 V0 2.687773 1_645
Ga22 Hf22 2.741273 1_545
Ga22 Hf6 2.920069 1_555
Ga22 Hf18 2.929595 1_555
Ga22 Hf12 2.953785 1_545
Ga22 Hf12 2.953785 1_645
Ga23 V11 2.571248 1_555
Ga23 V13 2.571248 1_555
Ga23 V1 2.687773 1_555
Ga23 V7 2.687773 1_655
Ga23 Hf23 2.741273 1_555
Ga23 Hf7 2.920069 1_555
Ga23 Hf19 2.929595 1_555
Ga23 Hf13 2.953785 1_555
Ga23 Hf13 2.953785 1_655
Ga24 Ga30 2.615178 1_555
Ga24 Ga30 2.765005 1_655
Ga24 Hf20 2.808859 1_655
Ga24 Hf14 2.848954 1_555
Ga24 Hf19 2.900780 1_555
Ga24 Hf10 2.902369 1_555
Ga24 Hf4 2.959419 1_645
Ga24 Hf0 3.031497 1_655
Ga24 Hf6 3.147651 1_555
Ga25 Ga31 2.615178 1_555
Ga25 Ga31 2.765005 1_455
Ga25 Hf21 2.808859 1_555
Ga25 Hf15 2.848954 1_555
Ga25 Hf18 2.900780 1_555
Ga25 Hf11 2.902369 1_556
Ga25 Hf5 2.959419 1_555
Ga25 Hf1 3.031497 1_555
Ga25 Hf7 3.147651 1_556
Ga26 Ga28 2.615178 1_555
Ga26 Ga28 2.765005 1_655
Ga26 Hf22 2.808859 1_555
Ga26 Hf12 2.848954 1_555
Ga26 Hf17 2.900780 1_555
Ga26 Hf8 2.902369 1_555
Ga26 Hf6 2.959419 1_565
Ga26 Hf2 3.031497 1_555
Ga26 Hf4 3.147651 1_555
Ga27 Ga3 2.592848 1_454
Ga27 Ga29 2.615178 1_555
Ga27 Ga29 2.765005 1_455
Ga27 Hf23 2.808859 1_455
Ga27 Hf13 2.848954 1_555
Ga27 Hf16 2.900780 1_555
Ga27 Hf9 2.902369 1_554
Ga27 Hf7 2.959419 1_455
Ga27 Hf3 3.031497 1_455
Ga27 Hf5 3.147651 1_554
Ga28 Hf22 2.808859 1_455
Ga28 Hf12 2.848954 1_555
Ga28 Hf17 2.900780 1_555
Ga28 Hf8 2.902369 1_555
Ga28 Hf6 2.959419 1_465
Ga28 Hf2 3.031497 1_455
Ga28 Hf4 3.147651 1_555
Ga29 Ga3 2.592848 1_554
Ga29 Hf23 2.808859 1_555
Ga29 Hf13 2.848954 1_555
Ga29 Hf16 2.900780 1_555
Ga29 Hf9 2.902369 1_554
Ga29 Hf7 2.959419 1_555
Ga29 Hf3 3.031497 1_555
Ga29 Hf5 3.147651 1_554
Ga30 Hf20 2.808859 1_555
Ga30 Hf14 2.848954 1_555
Ga30 Hf19 2.900780 1_555
Ga30 Hf10 2.902369 1_555
Ga30 Hf4 2.959419 1_545
Ga30 Hf0 3.031497 1_555
Ga30 Hf6 3.147651 1_555
Ga31 Hf21 2.808859 1_655
Ga31 Hf15 2.848954 1_555
Ga31 Hf18 2.900780 1_555
Ga31 Hf11 2.902369 1_556
Ga31 Hf5 2.959419 1_655
Ga31 Hf1 3.031497 1_655
Ga31 Hf7 3.147651 1_556
