# generated using pymatgen
data_Li9Mn2Co5O16
_symmetry_space_group_name_H-M   'P 1'
_cell_length_a   3.02804900
_cell_length_b   7.83804916
_cell_length_c   12.47343121
_cell_angle_alpha   89.67566780
_cell_angle_beta   89.79883051
_cell_angle_gamma   81.42177476
_symmetry_Int_Tables_number   1
_chemical_formula_structural   Li9Mn2Co5O16
_chemical_formula_sum   'Li9 Mn2 Co5 O16'
_cell_volume   292.72681616
_cell_formula_units_Z   1
loop_
 _symmetry_equiv_pos_site_id
 _symmetry_equiv_pos_as_xyz
  1  'x, y, z'
loop_
 _atom_site_type_symbol
 _atom_site_label
 _atom_site_symmetry_multiplicity
 _atom_site_fract_x
 _atom_site_fract_y
 _atom_site_fract_z
 _atom_site_occupancy
  Li  Li0  1  0.18999200  0.62453100  0.06478800  1
  Li  Li1  1  0.93671800  0.12333700  0.31396800  1
  Li  Li2  1  0.68876300  0.62478300  0.56480800  1
  Li  Li3  1  0.81467500  0.37521400  0.93614900  1
  Li  Li4  1  0.56479800  0.87543800  0.18860800  1
  Li  Li5  1  0.31420200  0.36973200  0.44132300  1
  Li  Li6  1  0.43261600  0.13057400  0.80713400  1
  Li  Li7  1  0.06019300  0.87565800  0.68349500  1
  Li  Li8  1  0.87490400  0.24872300  0.62426200  1
  Mn  Mn0  1  0.99383000  0.00118300  0.00016200  1
  Mn  Mn1  1  0.62929900  0.74697400  0.87189800  1
  Co  Co0  1  0.74979000  0.50194000  0.25223800  1
  Co  Co1  1  0.49174600  0.01106300  0.50327500  1
  Co  Co2  1  0.26332400  0.48640500  0.74419400  1
  Co  Co3  1  0.36853000  0.25306600  0.12731100  1
  Co  Co4  1  0.12450300  0.75158200  0.37732100  1
  O  O0  1  0.62891800  0.81381800  0.02315000  1
  O  O1  1  0.32594900  0.32046100  0.27458800  1
  O  O2  1  0.11831500  0.82008600  0.52233200  1
  O  O3  1  0.24667200  0.56339000  0.89225900  1
  O  O4  1  0.95379900  0.06785400  0.15064300  1
  O  O5  1  0.71941900  0.56455300  0.40103200  1
  O  O6  1  0.86714000  0.32625400  0.77737600  1
  O  O7  1  0.47690400  0.05112000  0.64063800  1
  O  O8  1  0.78392600  0.43716500  0.10222900  1
  O  O9  1  0.54143800  0.93428900  0.35650700  1
  O  O10  1  0.27225600  0.44602100  0.60722300  1
  O  O11  1  0.37055800  0.18618800  0.97803500  1
  O  O12  1  0.17428500  0.68474700  0.22844900  1
  O  O13  1  0.88565400  0.17169700  0.47114400  1
  O  O14  1  0.00100800  0.93507700  0.84867400  1
  O  O15  1  0.63587800  0.67707500  0.72478400  1
loop_
_geom_bond_atom_site_label_1
_geom_bond_atom_site_label_2
_geom_bond_distance
_geom_bond_site_symmetry_2
Li0 O12 2.096646 1_555
Li0 O8 2.100863 1_455
Li0 O0 2.145440 1_455
Li0 O0 2.193649 1_555
Li0 O8 2.195341 1_555
Li0 O3 2.207915 1_554
Li1 O13 2.000010 1_555
Li1 O4 2.084383 1_555
Li1 O9 2.103697 1_545
Li1 O1 2.132658 1_655
Li1 O9 2.240241 1_645
Li1 O1 2.279095 1_555
Li2 O15 2.040316 1_555
Li2 O10 2.085147 1_555
Li2 O5 2.097910 1_555
Li2 O10 2.150467 1_655
Li2 O2 2.194581 1_555
Li2 O2 2.212655 1_655
Li3 O6 2.020611 1_555
Li3 O8 2.128961 1_556
Li3 O11 2.134205 1_655
Li3 O3 2.161950 1_555
Li3 O3 2.178918 1_655
Li3 O11 2.203926 1_555
Li4 O12 2.096171 1_555
Li4 O4 2.098632 1_565
Li4 O0 2.123877 1_555
Li4 O9 2.145679 1_555
Li4 O12 2.249920 1_655
Li4 O4 2.255544 1_465
Li5 O1 2.116666 1_555
Li5 O5 2.153104 1_555
Li5 O10 2.155312 1_555
Li5 O13 2.176848 1_555
Li5 O13 2.196043 1_455
Li5 O5 2.237252 1_455
Li6 O6 2.153292 1_455
Li6 O7 2.169468 1_555
Li6 O11 2.180100 1_555
Li6 O14 2.188432 1_645
Li6 O6 2.193977 1_555
Li6 O14 2.215448 1_545
Li7 O2 2.060677 1_555
Li7 O7 2.067362 1_565
Li7 O14 2.115994 1_555
Li7 O7 2.137849 1_465
Li7 O15 2.216867 1_555
Li7 O15 2.218479 1_455
Li8 O13 2.005007 1_555
Li8 O6 2.006479 1_555
Li8 O10 2.105676 1_655
Li8 O7 2.108203 1_555
Li8 O7 2.218167 1_655
Li8 O10 2.218972 1_555
Mn0 O4 1.949761 1_555
Mn0 O14 1.961345 1_644
Mn0 O0 1.984187 1_545
Mn0 O11 1.991719 1_654
Mn0 O11 2.218897 1_554
Mn0 O0 2.256936 1_645
Mn1 O15 1.917215 1_555
Mn1 O0 1.960835 1_556
Mn1 O3 1.992130 1_555
Mn1 O14 2.003111 1_655
Mn1 O3 2.196943 1_655
Mn1 O14 2.244862 1_555
Co0 O5 1.920830 1_555
Co0 O8 1.939925 1_555
Co0 O1 2.070219 1_555
Co0 O12 2.082135 1_655
Co0 O1 2.098433 1_655
Co0 O12 2.105205 1_555
Co1 O7 1.742881 1_555
Co1 O13 1.899341 1_555
Co1 O9 1.928664 1_545
Co1 O2 2.018623 1_545
Co1 O13 2.103381 1_455
Co1 O2 2.246945 1_645
Co2 O10 1.738716 1_555
Co2 O6 1.904227 1_455
Co2 O3 1.944350 1_555
Co2 O15 2.015356 1_555
Co2 O6 2.098752 1_555
Co2 O15 2.248095 1_455
Co3 O1 1.912962 1_555
Co3 O11 1.936959 1_554
Co3 O8 2.072633 1_555
Co3 O4 2.075028 1_455
Co3 O8 2.133182 1_455
Co3 O4 2.136411 1_555
Co4 O2 1.888945 1_555
Co4 O12 1.931549 1_555
Co4 O9 2.060332 1_555
Co4 O5 2.066400 1_455
Co4 O9 2.116631 1_455
Co4 O5 2.166255 1_555
