# generated using pymatgen
data_SrTiFe4Bi4O15
_symmetry_space_group_name_H-M   'P 1'
_cell_length_a   14.44011881
_cell_length_b   14.44011881
_cell_length_c   4.07140523
_cell_angle_alpha   89.67762992
_cell_angle_beta   89.67762992
_cell_angle_gamma   156.98280449
_symmetry_Int_Tables_number   1
_chemical_formula_structural   SrTiFe4Bi4O15
_chemical_formula_sum   'Sr1 Ti1 Fe4 Bi4 O15'
_cell_volume   331.81655618
_cell_formula_units_Z   1
loop_
 _symmetry_equiv_pos_site_id
 _symmetry_equiv_pos_as_xyz
  1  'x, y, z'
loop_
 _atom_site_type_symbol
 _atom_site_label
 _atom_site_symmetry_multiplicity
 _atom_site_fract_x
 _atom_site_fract_y
 _atom_site_fract_z
 _atom_site_occupancy
  Sr  Sr0  1  0.53141500  0.53141500  0.51912400  1
  Ti  Ti0  1  0.05899100  0.05899100  0.01577300  1
  Fe  Fe0  1  0.43185900  0.62752800  0.03852200  1
  Fe  Fe1  1  0.83629200  0.23611900  0.03524900  1
  Fe  Fe2  1  0.23611900  0.83629200  0.03524900  1
  Fe  Fe3  1  0.62752800  0.43185900  0.03852200  1
  Bi  Bi0  1  0.86680700  0.06646500  0.45466000  1
  Bi  Bi1  1  0.26554000  0.66406800  0.46325900  1
  Bi  Bi2  1  0.66406800  0.26554000  0.46325900  1
  Bi  Bi3  1  0.06646500  0.86680700  0.45466000  1
  O  O0  1  0.96994800  0.67794600  0.07669500  1
  O  O1  1  0.17138000  0.47684700  0.08335300  1
  O  O2  1  0.56641100  0.07167700  0.08770700  1
  O  O3  1  0.34876700  0.25351200  0.06626800  1
  O  O4  1  0.76265200  0.86212000  0.09052300  1
  O  O5  1  0.86212000  0.76265200  0.09052300  1
  O  O6  1  0.07167700  0.56641100  0.08770700  1
  O  O7  1  0.47684700  0.17138000  0.08335300  1
  O  O8  1  0.25351200  0.34876700  0.06626800  1
  O  O9  1  0.67794600  0.96994800  0.07669500  1
  O  O10  1  0.68374300  0.48657000  0.55785900  1
  O  O11  1  0.88575900  0.28313600  0.55676500  1
  O  O12  1  0.28313600  0.88575900  0.55676500  1
  O  O13  1  0.04244700  0.04244700  0.57138400  1
  O  O14  1  0.48657000  0.68374300  0.55785900  1
loop_
_geom_bond_atom_site_label_1
_geom_bond_atom_site_label_2
_geom_bond_distance
_geom_bond_site_symmetry_2
Fe0 O8 1.938421 1_555
Fe0 O1 1.959091 1_555
Fe0 O14 1.974097 1_554
Fe0 O4 2.137867 1_555
Fe0 O14 2.147444 1_555
Fe0 O9 2.184436 1_555
Fe1 O2 1.955035 1_555
Fe1 O9 1.959702 1_545
Fe1 O11 1.960365 1_554
Fe1 O6 2.127129 1_655
Fe1 O1 2.142766 1_655
Fe1 O11 2.149459 1_555
Fe2 O6 1.955035 1_555
Fe2 O0 1.959702 1_455
Fe2 O12 1.960365 1_554
Fe2 O2 2.127129 1_565
Fe2 O7 2.142766 1_565
Fe2 O12 2.149459 1_555
Fe3 O3 1.938421 1_555
Fe3 O7 1.959091 1_555
Fe3 O10 1.974097 1_554
Fe3 O5 2.137867 1_555
Fe3 O10 2.147444 1_555
Fe3 O0 2.184436 1_555
Bi0 O9 2.196070 1_545
Bi0 O14 2.226506 1_545
Bi0 O4 2.252112 1_545
Bi1 O1 2.203244 1_555
Bi1 O11 2.213906 1_455
Bi1 O6 2.229094 1_555
Bi2 O7 2.203244 1_555
Bi2 O12 2.213906 1_545
Bi2 O2 2.229094 1_555
Bi3 O0 2.196070 1_455
Bi3 O10 2.226506 1_455
Bi3 O5 2.252112 1_455
O3 Ti0 1.954965 1_555
O3 Sr0 2.667330 1_555
O3 Sr0 2.893599 1_554
O4 Ti0 2.016989 1_665
O4 Sr0 2.736364 1_555
O4 Sr0 3.197893 1_554
O5 Ti0 2.016989 1_665
O5 Sr0 2.736364 1_555
O5 Sr0 3.197893 1_554
O8 Ti0 1.954965 1_555
O8 Sr0 2.667330 1_555
O8 Sr0 2.893599 1_554
O10 Sr0 2.812006 1_555
O13 Ti0 1.814480 1_556
O13 Ti0 2.261438 1_555
O13 Sr0 2.819486 1_555
O13 Sr0 2.958243 1_445
O14 Sr0 2.812006 1_555
