# generated using pymatgen
data_Mg3BH2O5F
_symmetry_space_group_name_H-M   'P 1'
_cell_length_a   3.16241800
_cell_length_b   9.02527400
_cell_length_c   9.04841440
_cell_angle_alpha   60.35600163
_cell_angle_beta   90.00000000
_cell_angle_gamma   90.00000000
_symmetry_Int_Tables_number   1
_chemical_formula_structural   Mg3BH2O5F
_chemical_formula_sum   'Mg6 B2 H4 O10 F2'
_cell_volume   224.45515276
_cell_formula_units_Z   2
loop_
 _symmetry_equiv_pos_site_id
 _symmetry_equiv_pos_as_xyz
  1  'x, y, z'
loop_
 _atom_site_type_symbol
 _atom_site_label
 _atom_site_symmetry_multiplicity
 _atom_site_fract_x
 _atom_site_fract_y
 _atom_site_fract_z
 _atom_site_occupancy
  Mg  Mg0  1  0.00000000  0.37259500  0.97112600  1
  Mg  Mg1  1  0.00000000  0.96321500  0.66240600  1
  Mg  Mg2  1  0.00000000  0.65619500  0.38018100  1
  Mg  Mg3  1  0.50000000  0.62827700  0.03532600  1
  Mg  Mg4  1  0.50000000  0.03062200  0.34256900  1
  Mg  Mg5  1  0.50000000  0.34063100  0.62675700  1
  B  B0  1  0.00000000  0.33239100  0.33585000  1
  B  B1  1  0.50000000  0.66570100  0.67044900  1
  H  H0  1  0.00000000  0.86744300  0.97313600  1
  H  H1  1  0.00000000  0.95992000  0.17565800  1
  H  H2  1  0.00000000  0.15987100  0.85268400  1
  H  H3  1  0.50000000  0.14928300  0.02124600  1
  O  O0  1  0.00000000  0.44472200  0.16021200  1
  O  O1  1  0.00000000  0.15582100  0.40210000  1
  O  O2  1  0.00000000  0.39810400  0.44771900  1
  O  O3  1  0.50000000  0.55635600  0.84613500  1
  O  O4  1  0.50000000  0.84263300  0.60461600  1
  O  O5  1  0.50000000  0.59849200  0.56013600  1
  O  O6  1  0.00000000  0.79777800  0.91918800  1
  O  O7  1  0.00000000  0.90689800  0.29855300  1
  O  O8  1  0.00000000  0.28331500  0.79724500  1
  O  O9  1  0.50000000  0.20542100  0.08901600  1
  F  F0  1  0.50000000  0.08880000  0.70049400  1
  F  F1  1  0.50000000  0.69551500  0.21719800  1
loop_
_geom_bond_atom_site_label_1
_geom_bond_atom_site_label_2
_geom_bond_distance
_geom_bond_site_symmetry_2
Mg0 O9 2.079052 1_456
Mg0 O9 2.079052 1_556
Mg0 O8 2.092557 1_555
Mg0 O0 2.110161 1_556
Mg0 O3 2.162043 1_455
Mg0 O3 2.162043 1_555
Mg1 O6 2.048438 1_555
Mg1 O1 2.125851 1_565
Mg1 O4 2.126254 1_455
Mg1 O4 2.126254 1_555
Mg2 O7 2.002994 1_555
Mg2 O2 2.095507 1_555
Mg2 O5 2.141020 1_555
Mg2 O5 2.141020 1_455
Mg3 O6 2.086751 1_654
Mg3 O6 2.086751 1_554
Mg3 O3 2.109758 1_554
Mg3 O0 2.160962 1_655
Mg3 O0 2.160962 1_555
Mg4 O9 2.042556 1_555
Mg4 O7 2.084628 1_645
Mg4 O7 2.084628 1_545
Mg4 O4 2.126315 1_545
Mg4 O1 2.160851 1_655
Mg4 O1 2.160851 1_555
Mg5 O8 2.087624 1_555
Mg5 O8 2.087624 1_655
Mg5 O5 2.095655 1_555
Mg5 O2 2.135991 1_655
Mg5 O2 2.135991 1_555
B0 O1 1.397818 1_555
B0 O0 1.399890 1_555
B0 O2 1.403648 1_555
B1 O3 1.396102 1_555
B1 O5 1.401140 1_555
B1 O4 1.401368 1_555
H0 O6 0.968099 1_555
H1 O7 0.969100 1_555
H2 O8 0.969555 1_555
H3 O9 0.969574 1_555
F0 Mg5 2.027530 1_555
F0 Mg1 2.071254 1_545
F0 Mg1 2.071254 1_645
F1 Mg3 2.016015 1_555
F1 Mg2 2.069615 1_555
F1 Mg2 2.069615 1_655
