# generated using pymatgen
data_Li6Tm(BO3)3
_symmetry_space_group_name_H-M   'P 1'
_cell_length_a   16.46685800
_cell_length_b   6.65173200
_cell_length_c   7.21130596
_cell_angle_alpha   74.48582360
_cell_angle_beta   90.00000000
_cell_angle_gamma   90.00000000
_symmetry_Int_Tables_number   1
_chemical_formula_structural   Li6Tm(BO3)3
_chemical_formula_sum   'Li24 Tm4 B12 O36'
_cell_volume   761.09717147
_cell_formula_units_Z   4
loop_
 _symmetry_equiv_pos_site_id
 _symmetry_equiv_pos_as_xyz
  1  'x, y, z'
loop_
 _atom_site_type_symbol
 _atom_site_label
 _atom_site_symmetry_multiplicity
 _atom_site_fract_x
 _atom_site_fract_y
 _atom_site_fract_z
 _atom_site_occupancy
  Li  Li0  1  0.96695400  0.94568600  0.19342500  1
  Li  Li1  1  0.03304600  0.05431400  0.80657500  1
  Li  Li2  1  0.46695400  0.55431400  0.80657500  1
  Li  Li3  1  0.53304600  0.44568600  0.19342500  1
  Li  Li4  1  0.55555200  0.90256400  0.63457700  1
  Li  Li5  1  0.44444800  0.09743600  0.36542300  1
  Li  Li6  1  0.05555200  0.59743600  0.36542300  1
  Li  Li7  1  0.94444800  0.40256400  0.63457700  1
  Li  Li8  1  0.47359900  0.82759300  0.04372600  1
  Li  Li9  1  0.52640100  0.17240700  0.95627400  1
  Li  Li10  1  0.97359900  0.67240700  0.95627400  1
  Li  Li11  1  0.02640100  0.32759300  0.04372600  1
  Li  Li12  1  0.70742900  0.86413000  0.78730400  1
  Li  Li13  1  0.29257100  0.13587000  0.21269600  1
  Li  Li14  1  0.20742900  0.63587000  0.21269600  1
  Li  Li15  1  0.79257100  0.36413000  0.78730400  1
  Li  Li16  1  0.79631300  0.95853400  0.07114100  1
  Li  Li17  1  0.20368700  0.04146600  0.92885900  1
  Li  Li18  1  0.29631300  0.54146600  0.92885900  1
  Li  Li19  1  0.70368700  0.45853400  0.07114100  1
  Li  Li20  1  0.99427900  0.82149700  0.57405200  1
  Li  Li21  1  0.00572100  0.17850300  0.42594800  1
  Li  Li22  1  0.49427900  0.67850300  0.42594800  1
  Li  Li23  1  0.50572100  0.32149700  0.57405200  1
  Tm  Tm0  1  0.69042800  0.65370300  0.42299400  1
  Tm  Tm1  1  0.30957200  0.34629700  0.57700600  1
  Tm  Tm2  1  0.19042800  0.84629700  0.57700600  1
  Tm  Tm3  1  0.80957200  0.15370300  0.42299400  1
  B  B0  1  0.87900000  0.00183500  0.78624600  1
  B  B1  1  0.12100000  0.99816500  0.21375400  1
  B  B2  1  0.37900000  0.49816500  0.21375400  1
  B  B3  1  0.62100000  0.50183500  0.78624600  1
  B  B4  1  0.61764000  0.81247800  0.06268500  1
  B  B5  1  0.38236000  0.18752200  0.93731500  1
  B  B6  1  0.11764000  0.68752200  0.93731500  1
  B  B7  1  0.88236000  0.31247800  0.06268500  1
  B  B8  1  0.86414300  0.66192500  0.41697000  1
  B  B9  1  0.13585700  0.33807500  0.58303000  1
  B  B10  1  0.36414300  0.83807500  0.58303000  1
  B  B11  1  0.63585700  0.16192500  0.41697000  1
  O  O0  1  0.94662700  0.67583600  0.40959900  1
  O  O1  1  0.05337300  0.32416400  0.59040100  1
  O  O2  1  0.44662700  0.82416400  0.59040100  1
  O  O3  1  0.55337300  0.17583600  0.40959900  1
  O  O4  1  0.70084600  0.77165400  0.08448000  1
  O  O5  1  0.29915400  0.22834600  0.91552000  1
  O  O6  1  0.20084600  0.72834600  0.91552000  1
  O  O7  1  0.79915400  0.27165400  0.08448000  1
  O  O8  1  0.81354200  0.83606600  0.36320500  1
  O  O9  1  0.18645800  0.16393400  0.63679500  1
  O  O10  1  0.31354200  0.66393400  0.63679500  1
  O  O11  1  0.68645800  0.33606600  0.36320500  1
  O  O12  1  0.57078100  0.72809100  0.22618500  1
  O  O13  1  0.42921900  0.27190900  0.77381500  1
  O  O14  1  0.07078100  0.77190900  0.77381500  1
  O  O15  1  0.92921900  0.22809100  0.22618500  1
  O  O16  1  0.41295800  0.58496800  0.03707400  1
  O  O17  1  0.58704200  0.41503200  0.96292600  1
  O  O18  1  0.91295800  0.91503200  0.96292600  1
  O  O19  1  0.08704200  0.08496800  0.03707400  1
  O  O20  1  0.58143400  0.92434100  0.89455200  1
  O  O21  1  0.41856600  0.07565900  0.10544800  1
  O  O22  1  0.08143400  0.57565900  0.10544800  1
  O  O23  1  0.91856600  0.42434100  0.89455200  1
  O  O24  1  0.42538000  0.45316900  0.38172900  1
  O  O25  1  0.57462000  0.54683100  0.61827100  1
  O  O26  1  0.92538000  0.04683100  0.61827100  1
  O  O27  1  0.07462000  0.95316900  0.38172900  1
  O  O28  1  0.67474100  0.96931000  0.48924100  1
  O  O29  1  0.32525900  0.03069000  0.51075900  1
  O  O30  1  0.17474100  0.53069000  0.51075900  1
  O  O31  1  0.82525900  0.46931000  0.48924100  1
  O  O32  1  0.20258200  0.94159500  0.23976700  1
  O  O33  1  0.79741800  0.05840500  0.76023300  1
  O  O34  1  0.70258200  0.55840500  0.76023300  1
  O  O35  1  0.29741800  0.44159500  0.23976700  1
loop_
_geom_bond_atom_site_label_1
_geom_bond_atom_site_label_2
_geom_bond_distance
_geom_bond_site_symmetry_2
Li0 O18 1.943288 1_554
Li0 O15 2.051345 1_565
Li0 O0 2.065726 1_555
Li0 O27 2.241835 1_655
Li0 O19 2.341191 1_665
Li1 O19 1.943288 1_556
Li1 O14 2.051345 1_545
Li1 O1 2.065726 1_555
Li1 O26 2.241835 1_455
Li1 O18 2.341191 1_445
Li2 O16 1.943288 1_556
Li2 O13 2.051345 1_555
Li2 O2 2.065726 1_555
Li2 O25 2.241835 1_555
Li2 O17 2.341191 1_555
Li3 O17 1.943288 1_554
Li3 O12 2.051345 1_555
Li3 O3 2.065726 1_555
Li3 O24 2.241835 1_555
Li3 O16 2.341191 1_555
Li4 O2 1.918203 1_555
Li4 O20 1.965356 1_555
Li4 O3 2.088052 1_565
Li4 O28 2.213300 1_555
Li4 O25 2.420817 1_555
Li5 O3 1.918203 1_555
Li5 O21 1.965356 1_555
Li5 O2 2.088052 1_545
Li5 O29 2.213300 1_555
Li5 O24 2.420817 1_555
Li6 O0 1.918203 1_455
Li6 O22 1.965356 1_555
Li6 O1 2.088052 1_555
Li6 O30 2.213300 1_555
Li6 O27 2.420817 1_555
Li7 O1 1.918203 1_655
Li7 O23 1.965356 1_555
Li7 O0 2.088052 1_555
Li7 O31 2.213300 1_555
Li7 O26 2.420817 1_555
Li8 O16 1.909306 1_555
Li8 O21 2.033461 1_565
Li8 O12 2.065028 1_555
Li8 O20 2.086659 1_554
Li9 O17 1.909306 1_555
Li9 O20 2.033461 1_545
Li9 O13 2.065028 1_555
Li9 O21 2.086659 1_556
Li10 O18 1.909306 1_555
Li10 O23 2.033461 1_555
Li10 O14 2.065028 1_655
Li10 O22 2.086659 1_656
Li11 O19 1.909306 1_555
Li11 O22 2.033461 1_555
Li11 O15 2.065028 1_455
Li11 O23 2.086659 1_454
Li12 O33 1.941377 1_565
Li12 O4 2.068213 1_556
Li12 O34 2.095802 1_555
Li12 O28 2.143542 1_555
Li12 O20 2.286659 1_555
Li13 O32 1.941377 1_545
Li13 O5 2.068213 1_554
Li13 O35 2.095802 1_555
Li13 O29 2.143542 1_555
Li13 O21 2.286659 1_555
Li14 O35 1.941377 1_555
Li14 O6 2.068213 1_554
Li14 O32 2.095802 1_555
Li14 O30 2.143542 1_555
Li14 O22 2.286659 1_555
Li15 O34 1.941377 1_555
Li15 O7 2.068213 1_556
Li15 O33 2.095802 1_555
Li15 O31 2.143542 1_555
Li15 O23 2.286659 1_555
Li16 O4 1.990437 1_555
Li16 O8 2.064507 1_555
Li16 O7 2.111074 1_565
Li16 O18 2.122002 1_554
Li16 O33 2.161405 1_564
Li17 O5 1.990437 1_555
Li17 O9 2.064507 1_555
Li17 O6 2.111074 1_545
Li17 O19 2.122002 1_556
Li17 O32 2.161405 1_546
Li18 O6 1.990437 1_555
Li18 O10 2.064507 1_555
Li18 O5 2.111074 1_555
Li18 O16 2.122002 1_556
Li18 O35 2.161405 1_556
Li19 O7 1.990437 1_555
Li19 O11 2.064507 1_555
Li19 O4 2.111074 1_555
Li19 O17 2.122002 1_554
Li19 O34 2.161405 1_554
Li20 O14 1.875304 1_655
Li20 O0 1.890919 1_555
Li20 O27 1.947054 1_655
Li20 O26 1.972601 1_565
Li21 O15 1.875304 1_455
Li21 O1 1.890919 1_555
Li21 O26 1.947054 1_455
Li21 O27 1.972601 1_545
Li22 O12 1.875304 1_555
Li22 O2 1.890919 1_555
Li22 O25 1.947054 1_555
Li22 O24 1.972601 1_555
Li23 O13 1.875304 1_555
Li23 O3 1.890919 1_555
Li23 O24 1.947054 1_555
Li23 O25 1.972601 1_555
B0 O18 1.369613 1_545
B0 O33 1.394182 1_555
B0 O26 1.395068 1_555
B1 O19 1.369613 1_565
B1 O32 1.394182 1_555
B1 O27 1.395068 1_555
B2 O16 1.369613 1_555
B2 O35 1.394182 1_555
B2 O24 1.395068 1_555
B3 O17 1.369613 1_555
B3 O34 1.394182 1_555
B3 O25 1.395068 1_555
B4 O20 1.377153 1_554
B4 O12 1.395202 1_555
B4 O4 1.397461 1_555
B5 O21 1.377153 1_556
B5 O13 1.395202 1_555
B5 O5 1.397461 1_555
B6 O22 1.377153 1_556
B6 O14 1.395202 1_555
B6 O6 1.397461 1_555
B7 O23 1.377153 1_554
B7 O15 1.395202 1_555
B7 O7 1.397461 1_555
B8 O0 1.361472 1_555
B8 O8 1.395031 1_555
B8 O31 1.402114 1_555
B9 O1 1.361472 1_555
B9 O9 1.395031 1_555
B9 O30 1.402114 1_555
B10 O2 1.361472 1_555
B10 O10 1.395031 1_555
B10 O29 1.402114 1_565
B11 O3 1.361472 1_555
B11 O11 1.395031 1_555
B11 O28 1.402114 1_545
O4 Tm0 2.362102 1_555
O5 Tm1 2.362102 1_555
O6 Tm2 2.362102 1_555
O7 Tm3 2.362102 1_555
O8 Tm3 2.267503 1_565
O8 Tm0 2.342542 1_555
O9 Tm2 2.267503 1_545
O9 Tm1 2.342542 1_555
O10 Tm1 2.267503 1_555
O10 Tm2 2.342542 1_555
O11 Tm0 2.267503 1_555
O11 Tm3 2.342542 1_555
O12 Tm0 2.401075 1_555
O13 Tm1 2.401075 1_555
O14 Tm2 2.401075 1_555
O15 Tm3 2.401075 1_555
O24 Tm1 2.364210 1_555
O25 Tm0 2.364210 1_555
O26 Tm3 2.364210 1_555
O27 Tm2 2.364210 1_555
O28 Tm0 2.288812 1_555
O28 Tm3 2.519649 1_565
O29 Tm1 2.288812 1_555
O29 Tm2 2.519649 1_545
O30 Tm2 2.288812 1_555
O30 Tm1 2.519649 1_555
O31 Tm3 2.288812 1_555
O31 Tm0 2.519649 1_555
O32 Tm2 2.351914 1_555
O33 Tm3 2.351914 1_555
O34 Tm0 2.351914 1_555
O35 Tm1 2.351914 1_555
