# generated using pymatgen
data_MnAgO4
_symmetry_space_group_name_H-M   'P 1'
_cell_length_a   6.16609700
_cell_length_b   7.14809300
_cell_length_c   8.22882000
_cell_angle_alpha   90.00000000
_cell_angle_beta   90.00000000
_cell_angle_gamma   90.00000000
_symmetry_Int_Tables_number   1
_chemical_formula_structural   MnAgO4
_chemical_formula_sum   'Mn4 Ag4 O16'
_cell_volume   362.69211094
_cell_formula_units_Z   4
loop_
 _symmetry_equiv_pos_site_id
 _symmetry_equiv_pos_as_xyz
  1  'x, y, z'
loop_
 _atom_site_type_symbol
 _atom_site_label
 _atom_site_symmetry_multiplicity
 _atom_site_fract_x
 _atom_site_fract_y
 _atom_site_fract_z
 _atom_site_occupancy
  Mn  Mn0  1  0.75000000  0.15631600  0.52624000  1
  Mn  Mn1  1  0.25000000  0.65631600  0.97376000  1
  Mn  Mn2  1  0.25000000  0.84368400  0.47376000  1
  Mn  Mn3  1  0.75000000  0.34368400  0.02624000  1
  Ag  Ag0  1  0.75000000  0.82767800  0.19976900  1
  Ag  Ag1  1  0.25000000  0.32767800  0.30023100  1
  Ag  Ag2  1  0.25000000  0.17232200  0.80023100  1
  Ag  Ag3  1  0.75000000  0.67232200  0.69976900  1
  O  O0  1  0.75000000  0.97287400  0.64443600  1
  O  O1  1  0.25000000  0.47287400  0.85556400  1
  O  O2  1  0.25000000  0.02712600  0.35556400  1
  O  O3  1  0.75000000  0.52712600  0.14443600  1
  O  O4  1  0.75000000  0.08642000  0.33699600  1
  O  O5  1  0.25000000  0.58642000  0.16300400  1
  O  O6  1  0.25000000  0.91358000  0.66300400  1
  O  O7  1  0.75000000  0.41358000  0.83699600  1
  O  O8  1  0.53315300  0.28016600  0.55857800  1
  O  O9  1  0.03315300  0.78016600  0.94142200  1
  O  O10  1  0.46684700  0.71983400  0.44142200  1
  O  O11  1  0.96684700  0.21983400  0.05857800  1
  O  O12  1  0.96684700  0.28016600  0.55857800  1
  O  O13  1  0.46684700  0.78016600  0.94142200  1
  O  O14  1  0.03315300  0.71983400  0.44142200  1
  O  O15  1  0.53315300  0.21983400  0.05857800  1
loop_
_geom_bond_atom_site_label_1
_geom_bond_atom_site_label_2
_geom_bond_distance
_geom_bond_site_symmetry_2
Mn0 O8 1.625542 1_555
Mn0 O12 1.625542 1_555
Mn0 O0 1.632600 1_545
Mn0 O4 1.635441 1_555
Mn1 O9 1.625542 1_555
Mn1 O13 1.625542 1_555
Mn1 O1 1.632600 1_555
Mn1 O5 1.635441 1_556
Mn2 O14 1.625542 1_555
Mn2 O10 1.625542 1_555
Mn2 O2 1.632600 1_565
Mn2 O6 1.635441 1_555
Mn3 O11 1.625542 1_555
Mn3 O15 1.625542 1_555
Mn3 O3 1.632600 1_555
Mn3 O7 1.635441 1_554
Ag0 O4 2.166985 1_565
Ag0 O3 2.196094 1_555
Ag0 O14 2.756229 1_655
Ag0 O10 2.756229 1_555
Ag0 O13 2.771839 1_554
Ag0 O9 2.771839 1_654
Ag1 O5 2.166985 1_555
Ag1 O2 2.196094 1_555
Ag1 O15 2.756229 1_555
Ag1 O11 2.756229 1_455
Ag1 O12 2.771839 1_455
Ag1 O8 2.771839 1_555
Ag2 O6 2.166985 1_545
Ag2 O1 2.196094 1_555
Ag2 O8 2.756229 1_555
Ag2 O12 2.756229 1_455
Ag2 O15 2.771839 1_556
Ag2 O11 2.771839 1_456
Ag3 O7 2.166985 1_555
Ag3 O0 2.196094 1_555
Ag3 O9 2.756229 1_655
Ag3 O13 2.756229 1_555
Ag3 O14 2.771839 1_655
Ag3 O10 2.771839 1_555
