# generated using pymatgen
data_ZrGaCu
_symmetry_space_group_name_H-M   'P 1'
_cell_length_a   4.24857606
_cell_length_b   4.24602900
_cell_length_c   6.55977211
_cell_angle_alpha   90.00000000
_cell_angle_beta   89.98134582
_cell_angle_gamma   60.01983744
_symmetry_Int_Tables_number   1
_chemical_formula_structural   ZrGaCu
_chemical_formula_sum   'Zr2 Ga2 Cu2'
_cell_volume   102.50203451
_cell_formula_units_Z   2
loop_
 _symmetry_equiv_pos_site_id
 _symmetry_equiv_pos_as_xyz
  1  'x, y, z'
loop_
 _atom_site_type_symbol
 _atom_site_label
 _atom_site_symmetry_multiplicity
 _atom_site_fract_x
 _atom_site_fract_y
 _atom_site_fract_z
 _atom_site_occupancy
  Zr  Zr0  1  0.99979000  0.00010500  0.77115000  1
  Zr  Zr1  1  0.00021000  0.99989500  0.22885000  1
  Ga  Ga0  1  0.66644000  0.66678000  0.45898400  1
  Ga  Ga1  1  0.33356000  0.33322000  0.54101600  1
  Cu  Cu0  1  0.33342000  0.33329000  0.97455000  1
  Cu  Cu1  1  0.66658000  0.66671000  0.02545000  1
loop_
_geom_bond_atom_site_label_1
_geom_bond_atom_site_label_2
_geom_bond_distance
_geom_bond_site_symmetry_2
Zr0 Zr1 3.002409 1_646
Ga0 Ga1 2.509376 1_555
Ga0 Ga1 2.509376 1_565
Ga0 Ga1 2.513553 1_655
Ga0 Zr1 2.879770 1_555
Ga0 Zr1 2.879846 1_655
Ga0 Zr1 2.879847 1_645
Ga0 Zr0 3.194880 1_565
Ga0 Zr0 3.194881 1_555
Ga0 Zr0 3.195052 1_465
Ga1 Zr0 2.879770 1_555
Ga1 Zr0 2.879846 1_455
Ga1 Zr0 2.879847 1_465
Ga1 Zr1 3.194880 1_545
Ga1 Zr1 3.194881 1_555
Ga1 Zr1 3.195052 1_645
Cu0 Cu1 2.474312 1_556
Cu0 Cu1 2.474312 1_546
Cu0 Cu1 2.476530 1_456
Cu0 Zr0 2.791350 1_555
Cu0 Zr0 2.792158 1_455
Cu0 Zr0 2.792158 1_465
Cu0 Ga1 2.843884 1_555
Cu0 Zr1 2.965142 1_546
Cu0 Zr1 2.965142 1_556
Cu0 Zr1 2.967698 1_646
Cu1 Zr1 2.791350 1_555
Cu1 Zr1 2.792158 1_655
Cu1 Zr1 2.792158 1_645
Cu1 Ga0 2.843884 1_555
Cu1 Zr0 2.965142 1_564
Cu1 Zr0 2.965142 1_554
Cu1 Zr0 2.967698 1_464
