# generated using pymatgen
data_HoAgSn
_symmetry_space_group_name_H-M   'P 1'
_cell_length_a   3.46945500
_cell_length_b   4.83428400
_cell_length_c   4.83346411
_cell_angle_alpha   59.99438860
_cell_angle_beta   90.00000000
_cell_angle_gamma   90.00000000
_symmetry_Int_Tables_number   1
_chemical_formula_structural   HoAgSn
_chemical_formula_sum   'Ho1 Ag1 Sn1'
_cell_volume   70.20337475
_cell_formula_units_Z   1
loop_
 _symmetry_equiv_pos_site_id
 _symmetry_equiv_pos_as_xyz
  1  'x, y, z'
loop_
 _atom_site_type_symbol
 _atom_site_label
 _atom_site_symmetry_multiplicity
 _atom_site_fract_x
 _atom_site_fract_y
 _atom_site_fract_z
 _atom_site_occupancy
  Ho  Ho0  1  0.50000000  0.00004600  0.99990800  1
  Ag  Ag0  1  0.00000000  0.66667800  0.66664400  1
  Sn  Sn0  1  0.00000000  0.33327600  0.33344800  1
loop_
_geom_bond_atom_site_label_1
_geom_bond_atom_site_label_2
_geom_bond_distance
_geom_bond_site_symmetry_2
Ho0 Sn0 3.284970 1_655
Ho0 Sn0 3.284970 1_555
Ho0 Sn0 3.286474 1_556
Ho0 Sn0 3.286474 1_656
Ho0 Sn0 3.286474 1_646
Ho0 Sn0 3.286474 1_546
Ag0 Sn0 2.790630 1_565
Ag0 Sn0 2.790630 1_555
Ag0 Sn0 2.791019 1_556
Ag0 Ho0 3.285951 1_564
Ag0 Ho0 3.285951 1_464
Ag0 Ho0 3.285984 1_565
Ag0 Ho0 3.285984 1_465
Ag0 Ho0 3.285984 1_455
Ag0 Ho0 3.285984 1_555
