# generated using pymatgen
data_RbErSe2
_symmetry_space_group_name_H-M   'P 1'
_cell_length_a   8.29232141
_cell_length_b   8.29232141
_cell_length_c   8.29232211
_cell_angle_alpha   29.22044579
_cell_angle_beta   29.22044579
_cell_angle_gamma   29.22045350
_symmetry_Int_Tables_number   1
_chemical_formula_structural   RbErSe2
_chemical_formula_sum   'Rb1 Er1 Se2'
_cell_volume   120.22747854
_cell_formula_units_Z   1
loop_
 _symmetry_equiv_pos_site_id
 _symmetry_equiv_pos_as_xyz
  1  'x, y, z'
loop_
 _atom_site_type_symbol
 _atom_site_label
 _atom_site_symmetry_multiplicity
 _atom_site_fract_x
 _atom_site_fract_y
 _atom_site_fract_z
 _atom_site_occupancy
  Rb  Rb0  1  0.00000000  0.00000000  -0.00000000  1
  Er  Er0  1  0.50000000  0.50000000  0.50000000  1
  Se  Se0  1  0.23139603  0.23139603  0.23139603  1
  Se  Se1  1  0.76860397  0.76860397  0.76860397  1
loop_
_geom_bond_atom_site_label_1
_geom_bond_atom_site_label_2
_geom_bond_distance
_geom_bond_site_symmetry_2
Rb0 Se0 3.423251 1_455
Rb0 Se0 3.423251 1_545
Rb0 Se1 3.423251 1_544
Rb0 Se1 3.423251 1_454
Rb0 Se1 3.423251 1_445
Rb0 Se0 3.423251 1_554
Er0 Se0 2.864691 1_565
Er0 Se0 2.864691 1_655
Er0 Se1 2.864691 1_455
Er0 Se1 2.864691 1_545
Er0 Se0 2.864691 1_556
Er0 Se1 2.864691 1_554
