# generated using pymatgen
data_Zn4AgN3
_symmetry_space_group_name_H-M   'P 1'
_cell_length_a   7.08364552
_cell_length_b   6.79057865
_cell_length_c   11.30124314
_cell_angle_alpha   92.11266917
_cell_angle_beta   94.26143464
_cell_angle_gamma   122.26437456
_symmetry_Int_Tables_number   1
_chemical_formula_structural   Zn4AgN3
_chemical_formula_sum   'Zn16 Ag4 N12'
_cell_volume   456.51316761
_cell_formula_units_Z   4
loop_
 _symmetry_equiv_pos_site_id
 _symmetry_equiv_pos_as_xyz
  1  'x, y, z'
loop_
 _atom_site_type_symbol
 _atom_site_label
 _atom_site_symmetry_multiplicity
 _atom_site_fract_x
 _atom_site_fract_y
 _atom_site_fract_z
 _atom_site_occupancy
  Zn  Zn0  1  0.70367400  0.27812100  0.88245300  1
  Zn  Zn1  1  0.70994200  0.84013500  0.46835900  1
  Zn  Zn2  1  0.38787100  0.23323100  0.66663300  1
  Zn  Zn3  1  0.93434600  0.67151900  0.64954600  1
  Zn  Zn4  1  0.17421400  0.75926200  0.08121700  1
  Zn  Zn5  1  0.20827300  0.84258700  0.46564000  1
  Zn  Zn6  1  0.68278000  0.32570400  0.45945800  1
  Zn  Zn7  1  0.34502700  0.64754600  0.28242400  1
  Zn  Zn8  1  0.25144200  0.62959900  0.79430300  1
  Zn  Zn9  1  0.86710300  0.11797200  0.27124800  1
  Zn  Zn10  1  0.96998800  0.15286300  0.78680500  1
  Zn  Zn11  1  0.11287100  0.30784200  0.03785700  1
  Zn  Zn12  1  0.17276100  0.36092800  0.51118500  1
  Zn  Zn13  1  0.59315500  0.83660000  0.03869200  1
  Zn  Zn14  1  0.27877800  0.14995300  0.29202800  1
  Zn  Zn15  1  0.85924600  0.69934800  0.27720600  1
  Ag  Ag0  1  0.55478700  0.41739500  0.07861800  1
  Ag  Ag1  1  0.55608600  0.92698200  0.65284400  1
  Ag  Ag2  1  0.26559100  0.05338500  0.90945000  1
  Ag  Ag3  1  0.72517300  0.72151500  0.84384900  1
  N  N0  1  0.16724200  0.81453100  0.24294300  1
  N  N1  1  0.24733400  0.89840400  0.72671000  1
  N  N2  1  0.70683400  0.43858000  0.74412200  1
  N  N3  1  0.37786500  0.68729200  0.46510100  1
  N  N4  1  0.26634000  0.62338900  0.96840000  1
  N  N5  1  0.84844600  0.17694700  0.43934200  1
  N  N6  1  0.81645200  0.07499700  0.93417000  1
  N  N7  1  0.15821900  0.31405900  0.20964800  1
  N  N8  1  0.18056200  0.35031800  0.69005000  1
  N  N9  1  0.64456500  0.77781100  0.20544500  1
  N  N10  1  0.36163300  0.19390800  0.47101200  1
  N  N11  1  0.87139800  0.67727400  0.46922900  1
loop_
_geom_bond_atom_site_label_1
_geom_bond_atom_site_label_2
_geom_bond_distance
_geom_bond_site_symmetry_2
Ag0 N9 2.528412 1_555
Ag1 N1 2.312576 1_555
Ag1 N3 2.428620 1_555
Ag2 N1 2.245896 1_545
Ag3 N2 2.128514 1_555
Ag3 N6 2.299105 1_565
N0 Zn4 1.861835 1_555
N0 Zn15 1.961541 1_455
N0 Zn14 2.010047 1_565
N0 Zn7 2.132909 1_555
N0 Zn5 2.500327 1_555
N1 Zn3 2.004085 1_455
N1 Zn8 2.018031 1_555
N1 Zn2 2.102201 1_565
N2 Zn0 1.932989 1_555
N2 Zn3 1.975018 1_555
N2 Zn2 2.017045 1_555
N3 Zn5 1.976984 1_555
N3 Zn1 1.997412 1_555
N3 Zn12 2.013328 1_555
N3 Zn7 2.051716 1_555
N4 Zn4 1.892747 1_556
N4 Zn8 1.965714 1_555
N4 Zn13 2.037161 1_556
N4 Zn11 2.037928 1_556
N5 Zn6 1.933278 1_555
N5 Zn9 1.955588 1_555
N5 Zn1 2.002128 1_545
N5 Zn12 2.020267 1_655
N6 Zn10 1.989010 1_555
N6 Zn0 2.012181 1_555
N6 Zn13 2.050058 1_546
N6 Zn11 2.057944 1_656
N7 Zn11 1.939330 1_555
N7 Zn14 1.952508 1_555
N7 Zn9 1.964746 1_455
N7 Zn7 2.014280 1_555
N8 Zn10 1.852995 1_455
N8 Zn8 1.991878 1_555
N8 Zn12 2.023037 1_555
N8 Zn2 2.036548 1_555
N9 Zn13 1.987985 1_555
N9 Zn15 1.991943 1_555
N9 Zn9 2.045755 1_565
N9 Zn7 2.090120 1_555
N10 Zn6 1.967794 1_555
N10 Zn5 2.021828 1_545
N10 Zn14 2.029055 1_555
N10 Zn2 2.199030 1_555
N10 Zn12 2.225936 1_555
N11 Zn1 1.969959 1_555
N11 Zn6 2.012448 1_555
N11 Zn5 2.028292 1_655
N11 Zn3 2.059720 1_555
N11 Zn15 2.179267 1_555
