# generated using pymatgen
data_SrMg6Sn
_symmetry_space_group_name_H-M   'P 1'
_cell_length_a   5.20403600
_cell_length_b   6.88578000
_cell_length_c   11.73091100
_cell_angle_alpha   90.00000000
_cell_angle_beta   90.00000000
_cell_angle_gamma   90.00000000
_symmetry_Int_Tables_number   1
_chemical_formula_structural   SrMg6Sn
_chemical_formula_sum   'Sr2 Mg12 Sn2'
_cell_volume   420.36367004
_cell_formula_units_Z   2
loop_
 _symmetry_equiv_pos_site_id
 _symmetry_equiv_pos_as_xyz
  1  'x, y, z'
loop_
 _atom_site_type_symbol
 _atom_site_label
 _atom_site_symmetry_multiplicity
 _atom_site_fract_x
 _atom_site_fract_y
 _atom_site_fract_z
 _atom_site_occupancy
  Sr  Sr0  1  0.50000000  0.50000000  0.17061900  1
  Sr  Sr1  1  0.50000000  0.00000000  0.67061900  1
  Mg  Mg0  1  0.00000000  0.22974000  0.07648200  1
  Mg  Mg1  1  0.00000000  0.77026000  0.07648200  1
  Mg  Mg2  1  0.00000000  0.50000000  0.83260100  1
  Mg  Mg3  1  0.50000000  0.24755300  0.92032400  1
  Mg  Mg4  1  0.50000000  0.75244700  0.92032400  1
  Mg  Mg5  1  0.50000000  0.50000000  0.66143900  1
  Mg  Mg6  1  0.00000000  0.72974000  0.57648200  1
  Mg  Mg7  1  0.00000000  0.27026000  0.57648200  1
  Mg  Mg8  1  0.00000000  0.00000000  0.33260100  1
  Mg  Mg9  1  0.50000000  0.74755300  0.42032400  1
  Mg  Mg10  1  0.50000000  0.25244700  0.42032400  1
  Mg  Mg11  1  0.50000000  0.00000000  0.16143900  1
  Sn  Sn0  1  0.00000000  0.50000000  0.34172800  1
  Sn  Sn1  1  0.00000000  0.00000000  0.84172800  1
loop_
_geom_bond_atom_site_label_1
_geom_bond_atom_site_label_2
_geom_bond_distance
_geom_bond_site_symmetry_2
Mg0 Mg1 3.163878 1_545
Mg0 Sn1 3.175906 1_554
Mg0 Mg3 3.184542 1_554
Mg0 Mg3 3.184542 1_454
Mg0 Mg11 3.204105 1_455
Mg0 Mg11 3.204105 1_555
Mg0 Sr0 3.384249 1_555
Mg0 Sr0 3.384249 1_455
Mg0 Mg8 3.395527 1_555
Mg0 Mg2 3.412939 1_554
Mg1 Sn1 3.175906 1_564
Mg1 Mg4 3.184542 1_554
Mg1 Mg4 3.184542 1_454
Mg1 Mg11 3.204105 1_565
Mg1 Mg11 3.204105 1_465
Mg1 Sr0 3.384249 1_455
Mg1 Sr0 3.384249 1_555
Mg1 Mg8 3.395527 1_565
Mg1 Mg2 3.412939 1_554
Mg2 Mg5 3.286656 1_555
Mg2 Mg5 3.286656 1_455
Mg2 Mg3 3.294109 1_455
Mg2 Mg4 3.294109 1_455
Mg2 Mg3 3.294109 1_555
Mg2 Mg4 3.294109 1_555
Mg2 Mg7 3.395527 1_555
Mg2 Mg6 3.395527 1_555
Mg2 Sn1 3.444554 1_555
Mg2 Sn1 3.444554 1_565
Mg3 Sn1 3.244416 1_655
Mg3 Sn1 3.244416 1_555
Mg3 Sr1 3.389137 1_555
Mg3 Mg4 3.409191 1_545
Mg3 Sr0 3.412165 1_556
Mg3 Mg4 3.476589 1_555
Mg3 Mg5 3.499253 1_555
Mg4 Sn1 3.244416 1_565
Mg4 Sn1 3.244416 1_665
Mg4 Sr1 3.389137 1_565
Mg4 Sr0 3.412165 1_556
Mg4 Mg5 3.499253 1_555
Mg5 Mg6 3.204105 1_655
Mg5 Mg7 3.204105 1_655
Mg5 Mg6 3.204105 1_555
Mg5 Mg7 3.204105 1_555
Mg5 Mg9 3.302431 1_555
Mg5 Sr1 3.444574 1_565
Mg5 Sr1 3.444574 1_555
Mg6 Mg7 3.163878 1_555
Mg6 Sn0 3.175906 1_555
Mg6 Mg9 3.184542 1_555
Mg6 Mg9 3.184542 1_455
Mg6 Sr1 3.384249 1_465
Mg6 Sr1 3.384249 1_565
Mg6 Mg8 3.412939 1_565
Mg7 Sn0 3.175906 1_555
Mg7 Sr1 3.384249 1_555
Mg7 Sr1 3.384249 1_455
Mg7 Mg8 3.412939 1_555
Mg8 Mg9 3.294109 1_445
Mg8 Mg9 3.294109 1_545
Mg8 Sn0 3.444554 1_555
Mg8 Sn0 3.444554 1_545
Mg9 Sn0 3.244416 1_555
Mg9 Sn0 3.244416 1_655
Mg9 Sr0 3.389137 1_555
Mg9 Sr1 3.412165 1_565
Mg10 Mg7 3.184542 1_555
Mg10 Mg7 3.184542 1_655
Mg10 Sn0 3.244416 1_555
Mg10 Sn0 3.244416 1_655
Mg10 Mg8 3.294109 1_555
Mg10 Mg8 3.294109 1_655
Mg10 Mg5 3.302431 1_555
Mg10 Sr0 3.389137 1_555
Mg10 Mg9 3.409191 1_555
Mg10 Sr1 3.412165 1_555
Mg10 Mg9 3.476589 1_545
Mg10 Mg11 3.499253 1_555
Mg11 Mg8 3.286656 1_555
Mg11 Mg8 3.286656 1_655
Mg11 Mg3 3.302431 1_554
Mg11 Mg4 3.302431 1_544
Mg11 Sr0 3.444574 1_545
Mg11 Sr0 3.444574 1_555
Mg11 Mg9 3.499253 1_545
Sn0 Sr0 3.286276 1_455
Sn0 Sr0 3.286276 1_555
Sn1 Sr1 3.286276 1_455
Sn1 Sr1 3.286276 1_555
