# generated using pymatgen
data_Ta2O5
_symmetry_space_group_name_H-M   'P 1'
_cell_length_a   3.87538300
_cell_length_b   6.22736400
_cell_length_c   7.42487400
_cell_angle_alpha   89.99897546
_cell_angle_beta   90.00000000
_cell_angle_gamma   90.00000000
_symmetry_Int_Tables_number   1
_chemical_formula_structural   Ta2O5
_chemical_formula_sum   'Ta4 O10'
_cell_volume   179.18760698
_cell_formula_units_Z   2
loop_
 _symmetry_equiv_pos_site_id
 _symmetry_equiv_pos_as_xyz
  1  'x, y, z'
loop_
 _atom_site_type_symbol
 _atom_site_label
 _atom_site_symmetry_multiplicity
 _atom_site_fract_x
 _atom_site_fract_y
 _atom_site_fract_z
 _atom_site_occupancy
  Ta  Ta0  1  0.00000000  0.00223200  0.99971700  1
  Ta  Ta1  1  0.00000000  0.00275900  0.49932000  1
  Ta  Ta2  1  0.00000000  0.53418900  0.74967200  1
  Ta  Ta3  1  0.00000000  0.47080200  0.24968700  1
  O  O0  1  0.50000000  0.00857400  0.99884500  1
  O  O1  1  0.50000000  0.00888300  0.50091100  1
  O  O2  1  0.50000000  0.56989000  0.74951200  1
  O  O3  1  0.50000000  0.44135200  0.24948500  1
  O  O4  1  0.00000000  0.31876500  0.93650600  1
  O  O5  1  0.00000000  0.88046100  0.74956300  1
  O  O6  1  0.00000000  0.69515500  0.43170400  1
  O  O7  1  0.00000000  0.32025300  0.56131100  1
  O  O8  1  0.00000000  0.12795700  0.24955900  1
  O  O9  1  0.00000000  0.69372900  0.06620700  1
loop_
_geom_bond_atom_site_label_1
_geom_bond_atom_site_label_2
_geom_bond_distance
_geom_bond_site_symmetry_2
O0 Ta0 1.938105 1_655
O0 Ta0 1.938105 1_555
O1 Ta1 1.938103 1_555
O1 Ta1 1.938103 1_655
O2 Ta2 1.950404 1_655
O2 Ta2 1.950404 1_555
O3 Ta3 1.946352 1_555
O3 Ta3 1.946352 1_655
O4 Ta2 1.929766 1_555
O4 Ta0 2.026262 1_555
O4 Ta3 2.510706 1_556
O5 Ta0 2.006211 1_565
O5 Ta1 2.008040 1_565
O5 Ta2 2.156362 1_555
O6 Ta3 1.943826 1_555
O6 Ta1 1.980267 1_565
O6 Ta2 2.564844 1_555
O7 Ta2 1.931563 1_555
O7 Ta1 2.030027 1_555
O7 Ta3 2.496477 1_555
O8 Ta1 2.011659 1_555
O8 Ta0 2.013513 1_554
O8 Ta3 2.135021 1_555
O9 Ta3 1.945011 1_555
O9 Ta0 1.983568 1_564
O9 Ta2 2.551616 1_554
