# generated using pymatgen
data_Ag8SnS6
_symmetry_space_group_name_H-M   'P 1'
_cell_length_a   7.58668671
_cell_length_b   10.75847451
_cell_length_c   15.32886222
_cell_angle_alpha   90.00000000
_cell_angle_beta   90.00000000
_cell_angle_gamma   90.00000000
_symmetry_Int_Tables_number   1
_chemical_formula_structural   Ag8SnS6
_chemical_formula_sum   'Ag32 Sn4 S24'
_cell_volume   1251.15975478
_cell_formula_units_Z   4
loop_
 _symmetry_equiv_pos_site_id
 _symmetry_equiv_pos_as_xyz
  1  'x, y, z'
loop_
 _atom_site_type_symbol
 _atom_site_label
 _atom_site_symmetry_multiplicity
 _atom_site_fract_x
 _atom_site_fract_y
 _atom_site_fract_z
 _atom_site_occupancy
  Ag  Ag0  1  0.52192292  0.11125442  0.48057209  1
  Ag  Ag1  1  0.97807708  0.11125442  0.98057209  1
  Ag  Ag2  1  0.47807708  0.61125442  0.51942791  1
  Ag  Ag3  1  0.35319801  0.91562084  0.75946276  1
  Ag  Ag4  1  0.14680199  0.91562084  0.25946276  1
  Ag  Ag5  1  0.85319801  0.41562084  0.74053724  1
  Ag  Ag6  1  0.02192292  0.61125442  0.01942791  1
  Ag  Ag7  1  0.64680199  0.41562084  0.24053724  1
  Ag  Ag8  1  0.27017483  0.37447835  0.13075827  1
  Ag  Ag9  1  0.72982517  0.87447835  0.86924173  1
  Ag  Ag10  1  0.22982517  0.37447835  0.63075827  1
  Ag  Ag11  1  0.77017483  0.87447835  0.36924173  1
  Ag  Ag12  1  0.87445379  0.18989358  0.22738258  1
  Ag  Ag13  1  0.12554621  0.68989358  0.77261742  1
  Ag  Ag14  1  0.62554621  0.18989358  0.72738258  1
  Ag  Ag15  1  0.37445379  0.68989358  0.27261742  1
  Ag  Ag16  1  0.60138149  0.19820460  0.09184567  1
  Ag  Ag17  1  0.39861851  0.69820460  0.90815433  1
  Ag  Ag18  1  0.23456837  0.83233221  0.05920980  1
  Ag  Ag19  1  0.10138149  0.69820460  0.40815433  1
  Ag  Ag20  1  0.01340507  0.59367564  0.22456287  1
  Ag  Ag21  1  0.89861851  0.19820460  0.59184567  1
  Ag  Ag22  1  0.48659493  0.59367564  0.72456287  1
  Ag  Ag23  1  0.51340507  0.09367564  0.27543713  1
  Ag  Ag24  1  0.57140930  0.51423867  0.06629712  1
  Ag  Ag25  1  0.42859070  0.01423867  0.93370288  1
  Ag  Ag26  1  0.92859070  0.51423867  0.56629712  1
  Ag  Ag27  1  0.07140930  0.01423867  0.43370288  1
  Ag  Ag28  1  0.73456837  0.33233221  0.44079020  1
  Ag  Ag29  1  0.26543163  0.83233221  0.55920980  1
  Ag  Ag30  1  0.76543163  0.33233221  0.94079020  1
  Ag  Ag31  1  0.98659493  0.09367564  0.77543713  1
  Sn  Sn0  1  0.73387826  0.84845392  0.12441808  1
  Sn  Sn1  1  0.26612174  0.34845392  0.87558192  1
  Sn  Sn2  1  0.76612174  0.84845392  0.62441808  1
  Sn  Sn3  1  0.23387826  0.34845392  0.37558192  1
  S  S0  1  0.77494248  0.10668752  0.37710311  1
  S  S1  1  0.22505752  0.60668752  0.62289689  1
  S  S2  1  0.72505752  0.10668752  0.87710311  1
  S  S3  1  0.27494248  0.60668752  0.12289689  1
  S  S4  1  0.82059130  0.36530905  0.11223038  1
  S  S5  1  0.17940870  0.86530905  0.88776962  1
  S  S6  1  0.67940870  0.36530905  0.61223038  1
  S  S7  1  0.32059130  0.86530905  0.38776962  1
  S  S8  1  0.72832697  0.71745839  0.24973157  1
  S  S9  1  0.27167303  0.21745839  0.75026843  1
  S  S10  1  0.77167303  0.71745839  0.74973157  1
  S  S11  1  0.22832697  0.21745839  0.25026843  1
  S  S12  1  0.98907504  0.98051531  0.12769367  1
  S  S13  1  0.01092496  0.48051531  0.87230633  1
  S  S14  1  0.51092496  0.98051531  0.62769367  1
  S  S15  1  0.48907504  0.48051531  0.37230633  1
  S  S16  1  0.76874181  0.71874259  0.49795287  1
  S  S17  1  0.23125819  0.21874259  0.50204713  1
  S  S18  1  0.73125819  0.71874259  0.99795287  1
  S  S19  1  0.26874181  0.21874259  0.00204713  1
  S  S20  1  0.98289609  0.48303291  0.37870545  1
  S  S21  1  0.01710391  0.98303291  0.62129455  1
  S  S22  1  0.51710391  0.48303291  0.87870545  1
  S  S23  1  0.48289609  0.98303291  0.12129455  1
loop_
_geom_bond_atom_site_label_1
_geom_bond_atom_site_label_2
_geom_bond_distance
_geom_bond_site_symmetry_2
Ag0 S0 2.490541 1_555
Ag0 S17 2.511668 1_555
Ag0 S14 2.659194 1_545
Ag1 S2 2.490541 1_555
Ag1 S19 2.511668 1_656
Ag1 S12 2.659194 1_546
Ag2 S1 2.490541 1_555
Ag2 S16 2.511668 1_555
Ag2 S15 2.659194 1_555
Ag3 S5 2.428926 1_555
Ag3 S14 2.449331 1_555
Ag4 S7 2.428926 1_555
Ag4 S12 2.449331 1_455
Ag5 S6 2.428926 1_555
Ag5 S13 2.449331 1_655
Ag6 S3 2.490541 1_555
Ag6 S18 2.511668 1_454
Ag6 S13 2.659194 1_554
Ag7 S4 2.428926 1_555
Ag7 S15 2.449331 1_555
Ag8 S3 2.501383 1_555
Ag8 S11 2.512086 1_555
Ag8 S19 2.588447 1_555
Ag9 S2 2.501383 1_565
Ag9 S10 2.512086 1_555
Ag9 S18 2.588447 1_555
Ag10 S1 2.501383 1_555
Ag10 S9 2.512086 1_555
Ag10 S17 2.588447 1_555
Ag11 S0 2.501383 1_565
Ag11 S8 2.512086 1_555
Ag11 S16 2.588447 1_555
Ag12 S0 2.576534 1_555
Ag12 S4 2.616158 1_555
Ag12 S11 2.723741 1_655
Ag12 S12 2.857535 1_545
Ag13 S1 2.576534 1_555
Ag13 S5 2.616158 1_555
Ag13 S10 2.723741 1_455
Ag13 S13 2.857535 1_555
Ag14 S2 2.576534 1_555
Ag14 S6 2.616158 1_555
Ag14 S9 2.723741 1_555
Ag14 S14 2.857535 1_545
Ag15 S3 2.576534 1_555
Ag15 S7 2.616158 1_555
Ag15 S8 2.723741 1_555
Ag15 S15 2.857535 1_555
Ag16 S4 2.468908 1_555
Ag16 S23 2.524019 1_545
Ag16 S19 2.883110 1_555
Ag17 S5 2.468908 1_555
Ag17 S22 2.524019 1_555
Ag17 S18 2.883110 1_555
Ag18 S3 2.634406 1_555
Ag18 S23 2.661532 1_555
Ag18 S12 2.666913 1_455
Ag18 S5 2.684639 1_554
Ag19 S7 2.468908 1_555
Ag19 S20 2.524019 1_455
Ag19 S16 2.883110 1_455
Ag20 S3 2.526923 1_555
Ag20 S8 2.569047 1_455
Ag20 S20 2.655837 1_455
Ag21 S6 2.468908 1_555
Ag21 S21 2.524019 1_645
Ag21 S17 2.883110 1_655
Ag22 S1 2.526923 1_555
Ag22 S10 2.569047 1_555
Ag22 S22 2.655837 1_555
Ag23 S0 2.526923 1_555
Ag23 S11 2.569047 1_555
Ag23 S23 2.655837 1_545
Ag24 S4 2.576208 1_555
Ag24 S3 2.607853 1_555
Ag24 S18 2.721931 1_554
Ag24 S22 2.924267 1_554
Ag25 S5 2.576208 1_545
Ag25 S2 2.607853 1_555
Ag25 S19 2.721931 1_556
Ag25 S23 2.924267 1_546
Ag26 S6 2.576208 1_555
Ag26 S1 2.607853 1_655
Ag26 S16 2.721931 1_555
Ag26 S20 2.924267 1_555
Ag27 S7 2.576208 1_545
Ag27 S0 2.607853 1_455
Ag27 S17 2.721931 1_555
Ag27 S21 2.924267 1_545
Ag28 S0 2.634406 1_555
Ag28 S20 2.661532 1_555
Ag28 S15 2.666913 1_555
Ag28 S6 2.684639 1_555
Ag29 S1 2.634406 1_555
Ag29 S21 2.661532 1_555
Ag29 S14 2.666913 1_555
Ag29 S7 2.684639 1_555
Ag30 S2 2.634406 1_555
Ag30 S22 2.661532 1_555
Ag30 S13 2.666913 1_655
Ag30 S4 2.684639 1_556
Ag31 S2 2.526923 1_555
Ag31 S9 2.569047 1_655
Ag31 S21 2.655837 1_645
S8 Sn0 2.382822 1_555
S9 Sn1 2.382822 1_555
S10 Sn2 2.382822 1_555
S11 Sn3 2.382822 1_555
S12 Sn0 2.402001 1_555
S13 Sn1 2.402001 1_555
S14 Sn2 2.402001 1_555
S15 Sn3 2.402001 1_555
S16 Sn2 2.388692 1_555
S17 Sn3 2.388692 1_555
S18 Sn0 2.388692 1_556
S19 Sn1 2.388692 1_554
S20 Sn3 2.392549 1_655
S21 Sn2 2.392549 1_455
S22 Sn1 2.392549 1_555
S23 Sn0 2.392549 1_555
