# generated using pymatgen
data_LiSc4(FeO3)4
_symmetry_space_group_name_H-M   'P 1'
_cell_length_a   5.23753609
_cell_length_b   5.23707521
_cell_length_c   8.43667366
_cell_angle_alpha   88.65771100
_cell_angle_beta   93.97941993
_cell_angle_gamma   93.20376022
_symmetry_Int_Tables_number   1
_chemical_formula_structural   LiSc4(FeO3)4
_chemical_formula_sum   'Li1 Sc4 Fe4 O12'
_cell_volume   230.44952894
_cell_formula_units_Z   1
loop_
 _symmetry_equiv_pos_site_id
 _symmetry_equiv_pos_as_xyz
  1  'x, y, z'
loop_
 _atom_site_type_symbol
 _atom_site_label
 _atom_site_symmetry_multiplicity
 _atom_site_fract_x
 _atom_site_fract_y
 _atom_site_fract_z
 _atom_site_occupancy
  Li  Li0  1  0.75441500  0.01693500  0.92652400  1
  Sc  Sc0  1  0.08838900  0.93488000  0.71473200  1
  Sc  Sc1  1  0.48214500  0.46999300  0.79517300  1
  Sc  Sc2  1  0.56710600  0.55737900  0.22680900  1
  Sc  Sc3  1  0.00779200  0.03976600  0.30123400  1
  Fe  Fe0  1  0.00965400  0.52427600  0.00230200  1
  Fe  Fe1  1  0.92689600  0.44099600  0.56188500  1
  Fe  Fe2  1  0.35384400  0.06054700  0.06509800  1
  Fe  Fe3  1  0.52119100  0.98097400  0.49747000  1
  O  O0  1  0.19925300  0.36196800  0.18711600  1
  O  O1  1  0.18581300  0.17947700  0.52820600  1
  O  O2  1  0.16586300  0.23275700  0.86902000  1
  O  O3  1  0.31608700  0.68814600  0.61101900  1
  O  O4  1  0.31910800  0.74353500  0.93080900  1
  O  O5  1  0.36404300  0.87459100  0.28351600  1
  O  O6  1  0.70467900  0.16559500  0.68560300  1
  O  O7  1  0.66567200  0.33428800  0.02645000  1
  O  O8  1  0.72021400  0.27559400  0.37583500  1
  O  O9  1  0.85129400  0.80708500  0.11780400  1
  O  O10  1  0.81709800  0.76418800  0.45482600  1
  O  O11  1  0.84194300  0.64702800  0.78023800  1
loop_
_geom_bond_atom_site_label_1
_geom_bond_atom_site_label_2
_geom_bond_distance
_geom_bond_site_symmetry_2
Li0 O7 1.973672 1_556
Li0 O9 1.983707 1_546
Li0 O6 2.163418 1_555
Li0 O11 2.403330 1_545
Li0 O2 2.450299 1_655
Fe0 O0 1.989258 1_555
Fe0 O7 2.029385 1_455
Fe0 O9 2.036720 1_455
Fe0 O4 2.050482 1_554
Fe0 O11 2.114960 1_454
Fe0 O2 2.147636 1_554
Fe1 O10 1.994098 1_555
Fe1 O1 2.018615 1_655
Fe1 O8 2.027065 1_555
Fe1 O6 2.105876 1_555
Fe1 O11 2.239728 1_555
Fe1 O3 2.369640 1_655
Fe2 O4 2.024537 1_544
Fe2 O5 2.062757 1_545
Fe2 O2 2.079077 1_554
Fe2 O0 2.131159 1_555
Fe2 O7 2.149236 1_555
Fe3 O5 2.008914 1_555
Fe3 O10 2.028189 1_555
Fe3 O6 2.033223 1_565
Fe3 O3 2.076870 1_555
Fe3 O8 2.101156 1_565
Fe3 O1 2.124476 1_565
O0 Sc2 2.139516 1_555
O0 Sc3 2.156056 1_555
O1 Sc0 2.078848 1_545
O1 Sc3 2.193874 1_555
O2 Sc0 2.060024 1_545
O2 Sc1 2.133736 1_555
O3 Sc0 2.056110 1_555
O3 Sc1 2.077470 1_555
O4 Sc1 2.107134 1_555
O4 Sc0 2.351945 1_555
O5 Sc2 2.103607 1_555
O5 Sc3 2.115964 1_565
O6 Sc1 2.276089 1_555
O6 Sc0 2.397529 1_645
O7 Sc2 2.184016 1_555
O7 Sc1 2.233234 1_554
O8 Sc2 2.075333 1_555
O8 Sc3 2.136827 1_655
O9 Sc3 2.086213 1_665
O9 Sc2 2.165049 1_555
O10 Sc3 2.165742 1_665
O10 Sc2 2.485473 1_555
O10 Sc0 2.672749 1_655
O11 Sc0 2.021524 1_655
O11 Sc1 2.063696 1_555
