# generated using pymatgen
data_Pr3Nb(ClO2)3
_symmetry_space_group_name_H-M   'P 1'
_cell_length_a   9.55426954
_cell_length_b   9.55426954
_cell_length_c   5.36411800
_cell_angle_alpha   90.00000000
_cell_angle_beta   90.00000000
_cell_angle_gamma   119.99999679
_symmetry_Int_Tables_number   1
_chemical_formula_structural   Pr3Nb(ClO2)3
_chemical_formula_sum   'Pr6 Nb2 Cl6 O12'
_cell_volume   424.05671701
_cell_formula_units_Z   2
loop_
 _symmetry_equiv_pos_site_id
 _symmetry_equiv_pos_as_xyz
  1  'x, y, z'
loop_
 _atom_site_type_symbol
 _atom_site_label
 _atom_site_symmetry_multiplicity
 _atom_site_fract_x
 _atom_site_fract_y
 _atom_site_fract_z
 _atom_site_occupancy
  Pr  Pr0  1  0.59680100  0.68730700  0.75000000  1
  Pr  Pr1  1  0.40319900  0.31269300  0.25000000  1
  Pr  Pr2  1  0.09050600  0.40319900  0.75000000  1
  Pr  Pr3  1  0.90949400  0.59680100  0.25000000  1
  Pr  Pr4  1  0.31269300  0.90949400  0.75000000  1
  Pr  Pr5  1  0.68730700  0.09050600  0.25000000  1
  Nb  Nb0  1  0.66666700  0.33333300  0.75000000  1
  Nb  Nb1  1  0.33333300  0.66666700  0.25000000  1
  Cl  Cl0  1  0.81008000  0.05015300  0.75000000  1
  Cl  Cl1  1  0.18992000  0.94984700  0.25000000  1
  Cl  Cl2  1  0.24007400  0.18992000  0.75000000  1
  Cl  Cl3  1  0.75992600  0.81008000  0.25000000  1
  Cl  Cl4  1  0.94984700  0.75992600  0.75000000  1
  Cl  Cl5  1  0.05015300  0.24007400  0.25000000  1
  O  O0  1  0.84267900  0.36379000  0.98801200  1
  O  O1  1  0.15732100  0.63621000  0.01198800  1
  O  O2  1  0.52111100  0.15732100  0.98801200  1
  O  O3  1  0.15732100  0.63621000  0.48801200  1
  O  O4  1  0.47888900  0.84267900  0.01198800  1
  O  O5  1  0.84267900  0.36379000  0.51198800  1
  O  O6  1  0.63621000  0.47888900  0.98801200  1
  O  O7  1  0.47888900  0.84267900  0.48801200  1
  O  O8  1  0.36379000  0.52111100  0.01198800  1
  O  O9  1  0.52111100  0.15732100  0.51198800  1
  O  O10  1  0.36379000  0.52111100  0.48801200  1
  O  O11  1  0.63621000  0.47888900  0.51198800  1
loop_
_geom_bond_atom_site_label_1
_geom_bond_atom_site_label_2
_geom_bond_distance
_geom_bond_site_symmetry_2
Nb0 O0 2.013293 1_555
Nb0 O5 2.013293 1_555
Nb0 O9 2.013296 1_555
Nb0 O2 2.013296 1_555
Nb0 O6 2.013300 1_555
Nb0 O11 2.013300 1_555
Nb1 O3 2.013293 1_555
Nb1 O1 2.013293 1_555
Nb1 O4 2.013296 1_555
Nb1 O7 2.013296 1_555
Nb1 O8 2.013300 1_555
Nb1 O10 2.013300 1_555
Cl0 Pr0 3.017663 1_545
Cl0 Pr5 3.028246 1_556
Cl0 Pr5 3.028246 1_555
Cl0 Pr2 3.085259 1_655
Cl1 Pr1 3.017663 1_565
Cl1 Pr4 3.028246 1_554
Cl1 Pr4 3.028246 1_555
Cl1 Pr3 3.085259 1_455
Cl2 Pr2 3.017671 1_555
Cl2 Pr1 3.028243 1_555
Cl2 Pr1 3.028243 1_556
Cl2 Pr4 3.085253 1_545
Cl3 Pr3 3.017671 1_555
Cl3 Pr0 3.028243 1_555
Cl3 Pr0 3.028243 1_554
Cl3 Pr5 3.085253 1_565
Cl4 Pr4 3.017662 1_655
Cl4 Pr3 3.028242 1_556
Cl4 Pr3 3.028242 1_555
Cl4 Pr0 3.085262 1_555
Cl5 Pr5 3.017662 1_455
Cl5 Pr2 3.028242 1_554
Cl5 Pr2 3.028242 1_555
Cl5 Pr1 3.085262 1_555
O0 Pr3 2.432591 1_556
O0 Pr2 2.546913 1_655
O0 Pr5 2.668350 1_556
O1 Pr2 2.432591 1_554
O1 Pr3 2.546913 1_455
O1 Pr4 2.668350 1_554
O2 Pr5 2.432591 1_556
O2 Pr4 2.546913 1_545
O2 Pr1 2.668350 1_556
O3 Pr2 2.432591 1_555
O3 Pr3 2.546913 1_455
O3 Pr4 2.668350 1_555
O4 Pr4 2.432591 1_554
O4 Pr5 2.546913 1_565
O4 Pr0 2.668350 1_554
O5 Pr3 2.432591 1_555
O5 Pr2 2.546913 1_655
O5 Pr5 2.668350 1_555
O6 Pr1 2.432591 1_556
O6 Pr0 2.546913 1_555
O6 Pr3 2.668350 1_556
O7 Pr4 2.432591 1_555
O7 Pr5 2.546913 1_565
O7 Pr0 2.668350 1_555
O8 Pr0 2.432591 1_554
O8 Pr1 2.546913 1_555
O8 Pr2 2.668350 1_554
O9 Pr5 2.432591 1_555
O9 Pr4 2.546913 1_545
O9 Pr1 2.668350 1_555
O10 Pr0 2.432591 1_555
O10 Pr1 2.546913 1_555
O10 Pr2 2.668350 1_555
O11 Pr1 2.432591 1_555
O11 Pr0 2.546913 1_555
O11 Pr3 2.668350 1_555
