# generated using pymatgen
data_DyCu4Pd
_symmetry_space_group_name_H-M   'P 1'
_cell_length_a   4.94247237
_cell_length_b   4.94247094
_cell_length_c   4.94247237
_cell_angle_alpha   59.99999035
_cell_angle_beta   60.00000000
_cell_angle_gamma   59.99999035
_symmetry_Int_Tables_number   1
_chemical_formula_structural   DyCu4Pd
_chemical_formula_sum   'Dy1 Cu4 Pd1'
_cell_volume   85.37241449
_cell_formula_units_Z   1
loop_
 _symmetry_equiv_pos_site_id
 _symmetry_equiv_pos_as_xyz
  1  'x, y, z'
loop_
 _atom_site_type_symbol
 _atom_site_label
 _atom_site_symmetry_multiplicity
 _atom_site_fract_x
 _atom_site_fract_y
 _atom_site_fract_z
 _atom_site_occupancy
  Dy  Dy0  1  0.25000000  0.25000000  0.25000000  1
  Cu  Cu0  1  0.62589959  0.62589959  0.62589959  1
  Cu  Cu1  1  0.62589959  0.62589959  0.12230022  1
  Cu  Cu2  1  0.62589959  0.12230022  0.62589959  1
  Cu  Cu3  1  0.12230022  0.62589959  0.62589959  1
  Pd  Pd0  1  -0.00000000  0.00000000  -0.00000000  1
loop_
_geom_bond_atom_site_label_1
_geom_bond_atom_site_label_2
_geom_bond_distance
_geom_bond_site_symmetry_2
Dy0 Pd0 3.026633 1_565
Dy0 Pd0 3.026634 1_556
Dy0 Pd0 3.026634 1_655
Dy0 Pd0 3.026634 1_555
Cu0 Cu2 2.453446 1_565
Cu0 Cu1 2.453446 1_556
Cu0 Cu3 2.453446 1_655
Cu0 Cu2 2.489025 1_555
Cu0 Cu3 2.489026 1_555
Cu0 Cu1 2.489026 1_555
Cu0 Pd0 2.895904 1_656
Cu0 Pd0 2.895905 1_665
Cu0 Pd0 2.895905 1_566
Cu0 Dy0 2.899696 1_565
Cu0 Dy0 2.899697 1_556
Cu0 Dy0 2.899697 1_655
Cu1 Cu2 2.453446 1_564
Cu1 Cu3 2.453446 1_654
Cu1 Cu2 2.489025 1_555
Cu1 Cu3 2.489026 1_555
Cu1 Pd0 2.895902 1_655
Cu1 Pd0 2.895903 1_565
Cu1 Pd0 2.895907 1_665
Cu1 Dy0 2.899695 1_555
Cu1 Dy0 2.899698 1_565
Cu1 Dy0 2.899699 1_655
Cu2 Cu3 2.453446 1_645
Cu2 Cu3 2.489025 1_555
Cu2 Pd0 2.895903 1_556
Cu2 Pd0 2.895903 1_655
Cu2 Pd0 2.895907 1_656
Cu2 Dy0 2.899695 1_555
Cu2 Dy0 2.899699 1_556
Cu2 Dy0 2.899699 1_655
Cu3 Pd0 2.895902 1_556
Cu3 Pd0 2.895903 1_565
Cu3 Pd0 2.895907 1_566
Cu3 Dy0 2.899695 1_555
Cu3 Dy0 2.899698 1_565
Cu3 Dy0 2.899699 1_556
