# generated using pymatgen
data_SmSnIr
_symmetry_space_group_name_H-M   'P 1'
_cell_length_a   7.40012086
_cell_length_b   7.40012086
_cell_length_c   4.14238672
_cell_angle_alpha   90.00000000
_cell_angle_beta   90.00000000
_cell_angle_gamma   120.00000301
_symmetry_Int_Tables_number   1
_chemical_formula_structural   SmSnIr
_chemical_formula_sum   'Sm3 Sn3 Ir3'
_cell_volume   196.45309916
_cell_formula_units_Z   3
loop_
 _symmetry_equiv_pos_site_id
 _symmetry_equiv_pos_as_xyz
  1  'x, y, z'
loop_
 _atom_site_type_symbol
 _atom_site_label
 _atom_site_symmetry_multiplicity
 _atom_site_fract_x
 _atom_site_fract_y
 _atom_site_fract_z
 _atom_site_occupancy
  Sm  Sm0  1  0.58946147  0.00000000  -0.00000000  1
  Sm  Sm1  1  0.00000000  0.58946147  -0.00000000  1
  Sm  Sm2  1  0.41053853  0.41053853  0.00000000  1
  Sn  Sn0  1  0.25176339  0.00000000  0.50000000  1
  Sn  Sn1  1  0.00000000  0.25176339  0.50000000  1
  Sn  Sn2  1  0.74823661  0.74823661  0.50000000  1
  Ir  Ir0  1  0.33333300  0.66666700  0.50000000  1
  Ir  Ir1  1  0.66666700  0.33333300  0.50000000  1
  Ir  Ir2  1  -0.00000000  0.00000000  0.00000000  1
loop_
_geom_bond_atom_site_label_1
_geom_bond_atom_site_label_2
_geom_bond_distance
_geom_bond_site_symmetry_2
Sm0 Sn0 3.245747 1_554
Sm0 Sn0 3.245747 1_555
Sm0 Sn1 3.366075 1_655
Sm0 Sn1 3.366075 1_654
Sm0 Sn2 3.366075 1_544
Sm0 Sn2 3.366075 1_545
Sm1 Sn1 3.245747 1_555
Sm1 Sn1 3.245747 1_554
Sm1 Sn0 3.366075 1_565
Sm1 Sn0 3.366075 1_564
Sm1 Sn2 3.366075 1_455
Sm1 Sn2 3.366075 1_454
Sm2 Sn2 3.245747 1_555
Sm2 Sn2 3.245747 1_554
Sm2 Sn1 3.366075 1_555
Sm2 Sn1 3.366075 1_554
Sm2 Sn0 3.366075 1_554
Sm2 Sn0 3.366075 1_555
Sn0 Sn2 3.226948 1_445
Sn0 Sn1 3.226948 1_555
Sn1 Sn2 3.226948 1_445
Ir0 Sn0 2.817438 1_565
Ir0 Sn1 2.817443 1_555
Ir0 Sn2 2.817446 1_555
Ir0 Sm1 3.048211 1_556
Ir0 Sm1 3.048211 1_555
Ir0 Sm0 3.048212 1_566
Ir0 Sm0 3.048212 1_565
Ir0 Sm2 3.048216 1_555
Ir0 Sm2 3.048216 1_556
Ir1 Sn1 2.817438 1_655
Ir1 Sn0 2.817443 1_555
Ir1 Sn2 2.817446 1_555
Ir1 Sm0 3.048211 1_555
Ir1 Sm0 3.048211 1_556
Ir1 Sm1 3.048212 1_655
Ir1 Sm1 3.048212 1_656
Ir1 Sm2 3.048216 1_555
Ir1 Sm2 3.048216 1_556
Ir2 Sn2 2.785840 1_444
Ir2 Sn2 2.785840 1_445
Ir2 Sn1 2.785840 1_555
Ir2 Sn0 2.785840 1_554
Ir2 Sn1 2.785840 1_554
Ir2 Sn0 2.785840 1_555
Ir2 Sm2 3.038035 1_555
Ir2 Sm1 3.038035 1_545
Ir2 Sm0 3.038035 1_455
