# generated using pymatgen
data_Tb5Ge3B
_symmetry_space_group_name_H-M   'P 1'
_cell_length_a   8.61030294
_cell_length_b   8.61030954
_cell_length_c   6.44851875
_cell_angle_alpha   90.00001119
_cell_angle_beta   89.99999216
_cell_angle_gamma   120.00007809
_symmetry_Int_Tables_number   1
_chemical_formula_structural   Tb5Ge3B
_chemical_formula_sum   'Tb10 Ge6 B2'
_cell_volume   414.02584624
_cell_formula_units_Z   2
loop_
 _symmetry_equiv_pos_site_id
 _symmetry_equiv_pos_as_xyz
  1  'x, y, z'
loop_
 _atom_site_type_symbol
 _atom_site_label
 _atom_site_symmetry_multiplicity
 _atom_site_fract_x
 _atom_site_fract_y
 _atom_site_fract_z
 _atom_site_occupancy
  Tb  Tb0  1  0.66666765  0.33333293  0.00000049  1
  Tb  Tb1  1  0.33333235  0.66666707  0.99999951  1
  Tb  Tb2  1  0.33333238  0.66666689  0.50000044  1
  Tb  Tb3  1  0.66666762  0.33333311  0.49999956  1
  Tb  Tb4  1  0.76337120  0.76337131  0.74999934  1
  Tb  Tb5  1  0.23662882  0.99999941  0.74999947  1
  Tb  Tb6  1  0.99999957  0.23662880  0.74999940  1
  Tb  Tb7  1  0.23662880  0.23662869  0.25000066  1
  Tb  Tb8  1  0.76337118  0.00000059  0.25000053  1
  Tb  Tb9  1  0.00000043  0.76337120  0.25000060  1
  Ge  Ge0  1  0.40011282  0.40011292  0.74999910  1
  Ge  Ge1  1  0.59988619  0.00000061  0.74999950  1
  Ge  Ge2  1  0.00000127  0.59988645  0.74999937  1
  Ge  Ge3  1  0.59988718  0.59988708  0.25000090  1
  Ge  Ge4  1  0.40011381  0.99999939  0.25000050  1
  Ge  Ge5  1  0.99999873  0.40011355  0.25000063  1
  B  B0  1  0.00000000  0.00000000  0.00000000  1
  B  B1  1  0.00000000  0.00000000  0.50000000  1
loop_
_geom_bond_atom_site_label_1
_geom_bond_atom_site_label_2
_geom_bond_distance
_geom_bond_site_symmetry_2
Ge0 Tb6 3.000111 1_455
Ge0 Tb5 3.000116 1_545
Ge0 Tb2 3.084930 1_555
Ge0 Tb3 3.084934 1_555
Ge0 Tb1 3.084937 1_555
Ge0 Tb0 3.084942 1_556
Ge0 Tb4 3.127762 1_555
Ge0 Tb7 3.518132 1_555
Ge0 Tb7 3.518151 1_556
Ge1 Tb6 3.000111 1_555
Ge1 Tb4 3.000123 1_545
Ge1 Tb3 3.084917 1_555
Ge1 Tb0 3.084919 1_556
Ge1 Tb2 3.084924 1_545
Ge1 Tb1 3.084927 1_545
Ge1 Tb5 3.127751 1_545
Ge1 Tb8 3.518138 1_555
Ge1 Tb8 3.518151 1_556
Ge2 Tb5 3.000109 1_555
Ge2 Tb4 3.000128 1_455
Ge2 Tb2 3.084904 1_555
Ge2 Tb1 3.084908 1_555
Ge2 Tb3 3.084924 1_455
Ge2 Tb0 3.084929 1_456
Ge2 Tb6 3.127753 1_455
Ge2 Tb9 3.518139 1_555
Ge2 Tb9 3.518153 1_556
Ge3 Tb9 3.000111 1_655
Ge3 Tb8 3.000116 1_565
Ge3 Tb3 3.084930 1_555
Ge3 Tb2 3.084934 1_555
Ge3 Tb0 3.084937 1_555
Ge3 Tb1 3.084942 1_554
Ge3 Tb7 3.127762 1_555
Ge3 Tb4 3.518132 1_555
Ge3 Tb4 3.518151 1_554
Ge4 Tb9 3.000111 1_555
Ge4 Tb7 3.000123 1_565
Ge4 Tb2 3.084917 1_555
Ge4 Tb1 3.084919 1_554
Ge4 Tb3 3.084924 1_565
Ge4 Tb0 3.084927 1_565
Ge4 Tb8 3.127751 1_565
Ge4 Tb5 3.518138 1_555
Ge4 Tb5 3.518151 1_554
Ge5 Tb8 3.000109 1_555
Ge5 Tb7 3.000128 1_655
Ge5 Tb3 3.084904 1_555
Ge5 Tb0 3.084908 1_555
Ge5 Tb2 3.084924 1_655
Ge5 Tb1 3.084929 1_654
Ge5 Tb9 3.127753 1_655
Ge5 Tb6 3.518139 1_555
Ge5 Tb6 3.518153 1_554
B0 Tb7 2.598105 1_555
B0 Tb4 2.598105 1_444
B0 Tb8 2.598109 1_455
B0 Tb5 2.598109 1_544
B0 Tb6 2.598110 1_454
B0 Tb9 2.598110 1_545
B1 Tb7 2.598100 1_555
B1 Tb4 2.598100 1_445
B1 Tb6 2.598105 1_455
B1 Tb9 2.598105 1_545
B1 Tb8 2.598105 1_455
B1 Tb5 2.598105 1_545
