# generated using pymatgen
data_Ca5(SiO5)2
_symmetry_space_group_name_H-M   'P 1'
_cell_length_a   5.11462400
_cell_length_b   9.01878174
_cell_length_c   11.52956290
_cell_angle_alpha   109.21754052
_cell_angle_beta   90.00000000
_cell_angle_gamma   90.00000000
_symmetry_Int_Tables_number   1
_chemical_formula_structural   Ca5(SiO5)2
_chemical_formula_sum   'Ca10 Si4 O20'
_cell_volume   502.19596779
_cell_formula_units_Z   2
loop_
 _symmetry_equiv_pos_site_id
 _symmetry_equiv_pos_as_xyz
  1  'x, y, z'
loop_
 _atom_site_type_symbol
 _atom_site_label
 _atom_site_symmetry_multiplicity
 _atom_site_fract_x
 _atom_site_fract_y
 _atom_site_fract_z
 _atom_site_occupancy
  Ca  Ca0  1  0.50000000  0.00000000  0.50000000  1
  Ca  Ca1  1  0.00000000  0.00000000  0.00000000  1
  Ca  Ca2  1  0.49921500  0.18837500  0.83109800  1
  Ca  Ca3  1  0.99921500  0.81162500  0.66890200  1
  Ca  Ca4  1  0.50078500  0.81162500  0.16890200  1
  Ca  Ca5  1  0.00078500  0.18837500  0.33109800  1
  Ca  Ca6  1  0.49827900  0.41875600  0.61909700  1
  Ca  Ca7  1  0.99827900  0.58124400  0.88090300  1
  Ca  Ca8  1  0.50172100  0.58124400  0.38090300  1
  Ca  Ca9  1  0.00172100  0.41875600  0.11909700  1
  Si  Si0  1  0.06828500  0.20045900  0.64696700  1
  Si  Si1  1  0.56828500  0.79954100  0.85303300  1
  Si  Si2  1  0.93171500  0.79954100  0.35303300  1
  Si  Si3  1  0.43171500  0.20045900  0.14696700  1
  O  O0  1  0.20176500  0.20614100  0.51677000  1
  O  O1  1  0.70176500  0.79385900  0.98323000  1
  O  O2  1  0.79823500  0.79385900  0.48323000  1
  O  O3  1  0.29823500  0.20614100  0.01677000  1
  O  O4  1  0.20086800  0.04406600  0.66953400  1
  O  O5  1  0.70086800  0.95593400  0.83046600  1
  O  O6  1  0.79913200  0.95593400  0.33046600  1
  O  O7  1  0.29913200  0.04406600  0.16953400  1
  O  O8  1  0.19585100  0.35419700  0.75537900  1
  O  O9  1  0.69585100  0.64580300  0.74462100  1
  O  O10  1  0.80414900  0.64580300  0.24462100  1
  O  O11  1  0.30414900  0.35419700  0.25537900  1
  O  O12  1  0.74886400  0.20066300  0.64654500  1
  O  O13  1  0.24886400  0.79933700  0.85345500  1
  O  O14  1  0.25113600  0.79933700  0.35345500  1
  O  O15  1  0.75113600  0.20066300  0.14654500  1
  O  O16  1  0.77067600  0.39281700  0.93885600  1
  O  O17  1  0.27067600  0.60718300  0.56114400  1
  O  O18  1  0.22932400  0.60718300  0.06114400  1
  O  O19  1  0.72932400  0.39281700  0.43885600  1
loop_
_geom_bond_atom_site_label_1
_geom_bond_atom_site_label_2
_geom_bond_distance
_geom_bond_site_symmetry_2
Ca0 O0 2.363022 1_555
Ca0 O2 2.363022 1_545
Ca0 O12 2.395222 1_555
Ca0 O14 2.395222 1_545
Ca0 O4 2.409971 1_555
Ca0 O6 2.409971 1_545
Ca1 O3 2.363022 1_555
Ca1 O1 2.363022 1_444
Ca1 O13 2.395222 1_544
Ca1 O15 2.395222 1_455
Ca1 O5 2.409971 1_444
Ca1 O7 2.409971 1_555
Ca2 O16 2.315795 1_555
Ca2 O3 2.332208 1_556
Ca2 O5 2.334172 1_545
Ca2 O4 2.428218 1_555
Ca2 O8 2.503123 1_555
Ca2 O12 2.515053 1_555
Ca3 O17 2.315795 1_655
Ca3 O2 2.332208 1_555
Ca3 O4 2.334172 1_665
Ca3 O5 2.428218 1_555
Ca3 O9 2.503123 1_555
Ca3 O13 2.515053 1_655
Ca4 O18 2.315795 1_555
Ca4 O1 2.332208 1_554
Ca4 O7 2.334172 1_565
Ca4 O6 2.428218 1_555
Ca4 O10 2.503123 1_555
Ca4 O14 2.515053 1_555
Ca5 O19 2.315795 1_455
Ca5 O0 2.332208 1_555
Ca5 O6 2.334172 1_445
Ca5 O7 2.428218 1_555
Ca5 O11 2.503123 1_555
Ca5 O15 2.515053 1_455
Ca6 O9 2.314680 1_555
Ca6 O17 2.331736 1_555
Ca6 O19 2.334443 1_555
Ca6 O8 2.408895 1_555
Ca6 O0 2.424763 1_555
Ca6 O12 2.453848 1_555
Ca7 O8 2.314680 1_655
Ca7 O16 2.331736 1_555
Ca7 O18 2.334443 1_656
Ca7 O9 2.408895 1_555
Ca7 O1 2.424763 1_555
Ca7 O13 2.453848 1_655
Ca8 O11 2.314680 1_555
Ca8 O19 2.331736 1_555
Ca8 O17 2.334443 1_555
Ca8 O10 2.408895 1_555
Ca8 O2 2.424763 1_555
Ca8 O14 2.453848 1_555
Ca9 O10 2.314680 1_455
Ca9 O18 2.331736 1_555
Ca9 O16 2.334443 1_454
Ca9 O11 2.408895 1_555
Ca9 O3 2.424763 1_555
Ca9 O15 2.453848 1_455
O0 Si0 1.665140 1_555
O1 Si1 1.665140 1_555
O2 Si2 1.665140 1_555
O3 Si3 1.665140 1_555
O4 Si0 1.660893 1_555
O5 Si1 1.660893 1_555
O6 Si2 1.660893 1_555
O7 Si3 1.660893 1_555
O8 Si0 1.664214 1_555
O9 Si1 1.664214 1_555
O10 Si2 1.664214 1_555
O11 Si3 1.664214 1_555
O12 Si0 1.633728 1_655
O13 Si1 1.633728 1_555
O14 Si2 1.633728 1_455
O15 Si3 1.633728 1_555
