# generated using pymatgen
data_Cd2Si5N8
_symmetry_space_group_name_H-M   'P 1'
_cell_length_a   10.71343029
_cell_length_b   9.67509717
_cell_length_c   13.61881982
_cell_angle_alpha   90.00000000
_cell_angle_beta   90.00000000
_cell_angle_gamma   90.00000000
_symmetry_Int_Tables_number   1
_chemical_formula_structural   Cd2Si5N8
_chemical_formula_sum   'Cd16 Si40 N64'
_cell_volume   1411.63805530
_cell_formula_units_Z   8
loop_
 _symmetry_equiv_pos_site_id
 _symmetry_equiv_pos_as_xyz
  1  'x, y, z'
loop_
 _atom_site_type_symbol
 _atom_site_label
 _atom_site_symmetry_multiplicity
 _atom_site_fract_x
 _atom_site_fract_y
 _atom_site_fract_z
 _atom_site_occupancy
  Cd  Cd0  1  0.10481164  0.13943328  0.00203354  1
  Cd  Cd1  1  0.60481164  0.36056672  0.99796646  1
  Cd  Cd2  1  0.89518836  0.63943328  0.49796646  1
  Cd  Cd3  1  0.39518836  0.86056672  0.50203354  1
  Cd  Cd4  1  0.89518836  0.86056672  0.99796646  1
  Cd  Cd5  1  0.39518836  0.63943328  0.00203354  1
  Cd  Cd6  1  0.10481164  0.36056672  0.50203354  1
  Cd  Cd7  1  0.60481164  0.13943328  0.49796646  1
  Cd  Cd8  1  0.38837743  0.04490855  0.07992228  1
  Cd  Cd9  1  0.88837743  0.45509145  0.92007772  1
  Cd  Cd10  1  0.61162257  0.54490855  0.42007772  1
  Cd  Cd11  1  0.11162257  0.95509145  0.57992228  1
  Cd  Cd12  1  0.61162257  0.95509145  0.92007772  1
  Cd  Cd13  1  0.11162257  0.54490855  0.07992228  1
  Cd  Cd14  1  0.38837743  0.45509145  0.57992228  1
  Cd  Cd15  1  0.88837743  0.04490855  0.42007772  1
  Si  Si0  1  0.40226465  0.21889068  0.84945712  1
  Si  Si1  1  0.90226465  0.28110932  0.15054288  1
  Si  Si2  1  0.59773535  0.71889068  0.65054288  1
  Si  Si3  1  0.09773535  0.78110932  0.34945712  1
  Si  Si4  1  0.59773535  0.78110932  0.15054288  1
  Si  Si5  1  0.09773535  0.71889068  0.84945712  1
  Si  Si6  1  0.40226465  0.28110932  0.34945712  1
  Si  Si7  1  0.90226465  0.21889068  0.65054288  1
  Si  Si8  1  0.16935122  0.22827349  0.72424948  1
  Si  Si9  1  0.66935122  0.27172651  0.27575052  1
  Si  Si10  1  0.83064878  0.72827349  0.77575052  1
  Si  Si11  1  0.33064878  0.77172651  0.22424948  1
  Si  Si12  1  0.83064878  0.77172651  0.27575052  1
  Si  Si13  1  0.33064878  0.72827349  0.72424948  1
  Si  Si14  1  0.16935122  0.27172651  0.22424948  1
  Si  Si15  1  0.66935122  0.22827349  0.77575052  1
  Si  Si16  1  0.25295114  0.96284569  0.84432547  1
  Si  Si17  1  0.75295114  0.53715431  0.15567453  1
  Si  Si18  1  0.74704886  0.46284569  0.65567453  1
  Si  Si19  1  0.24704886  0.03715431  0.34432547  1
  Si  Si20  1  0.74704886  0.03715431  0.15567453  1
  Si  Si21  1  0.24704886  0.46284569  0.84432547  1
  Si  Si22  1  0.25295114  0.53715431  0.34432547  1
  Si  Si23  1  0.75295114  0.96284569  0.65567453  1
  Si  Si24  1  0.98247972  0.99290864  0.78579243  1
  Si  Si25  1  0.48247972  0.50709136  0.21420757  1
  Si  Si26  1  0.01752028  0.49290864  0.71420757  1
  Si  Si27  1  0.51752028  0.00709136  0.28579243  1
  Si  Si28  1  0.01752028  0.00709136  0.21420757  1
  Si  Si29  1  0.51752028  0.49290864  0.78579243  1
  Si  Si30  1  0.98247972  0.50709136  0.28579243  1
  Si  Si31  1  0.48247972  0.99290864  0.71420757  1
  Si  Si32  1  0.83467642  0.16052371  0.95651357  1
  Si  Si33  1  0.33467642  0.33947629  0.04348643  1
  Si  Si34  1  0.16532358  0.66052371  0.54348643  1
  Si  Si35  1  0.66532358  0.83947629  0.45651357  1
  Si  Si36  1  0.16532358  0.83947629  0.04348643  1
  Si  Si37  1  0.66532358  0.66052371  0.95651357  1
  Si  Si38  1  0.83467642  0.33947629  0.45651357  1
  Si  Si39  1  0.33467642  0.16052371  0.54348643  1
  N  N0  1  0.92580424  0.27528442  0.02665046  1
  N  N1  1  0.42580424  0.22471558  0.97334954  1
  N  N2  1  0.07419576  0.77528442  0.47334954  1
  N  N3  1  0.57419576  0.72471558  0.52665046  1
  N  N4  1  0.07419576  0.72471558  0.97334954  1
  N  N5  1  0.57419576  0.77528442  0.02665046  1
  N  N6  1  0.92580424  0.22471558  0.52665046  1
  N  N7  1  0.42580424  0.27528442  0.47334954  1
  N  N8  1  0.94053114  0.05913719  0.89483706  1
  N  N9  1  0.44053114  0.44086281  0.10516294  1
  N  N10  1  0.05946886  0.55913719  0.60516294  1
  N  N11  1  0.55946886  0.94086281  0.39483706  1
  N  N12  1  0.05946886  0.94086281  0.10516294  1
  N  N13  1  0.55946886  0.55913719  0.89483706  1
  N  N14  1  0.94053114  0.44086281  0.39483706  1
  N  N15  1  0.44053114  0.05913719  0.60516294  1
  N  N16  1  0.74096644  0.26471088  0.88494471  1
  N  N17  1  0.24096644  0.23528912  0.11505529  1
  N  N18  1  0.25903356  0.76471088  0.61505529  1
  N  N19  1  0.75903356  0.73528912  0.38494471  1
  N  N20  1  0.25903356  0.73528912  0.11505529  1
  N  N21  1  0.75903356  0.76471088  0.88494471  1
  N  N22  1  0.74096644  0.23528912  0.38494471  1
  N  N23  1  0.24096644  0.26471088  0.61505529  1
  N  N24  1  0.25675136  0.94572352  0.96906187  1
  N  N25  1  0.75675136  0.55427648  0.03093813  1
  N  N26  1  0.74324864  0.44572352  0.53093813  1
  N  N27  1  0.24324864  0.05427648  0.46906187  1
  N  N28  1  0.74324864  0.05427648  0.03093813  1
  N  N29  1  0.24324864  0.44572352  0.96906187  1
  N  N30  1  0.25675136  0.55427648  0.46906187  1
  N  N31  1  0.75675136  0.94572352  0.53093813  1
  N  N32  1  0.03197824  0.12368585  0.70049247  1
  N  N33  1  0.53197824  0.37631415  0.29950753  1
  N  N34  1  0.96802176  0.62368585  0.79950753  1
  N  N35  1  0.46802176  0.87631415  0.20049247  1
  N  N36  1  0.96802176  0.87631415  0.29950753  1
  N  N37  1  0.46802176  0.62368585  0.70049247  1
  N  N38  1  0.03197824  0.37631415  0.20049247  1
  N  N39  1  0.53197824  0.12368585  0.79950753  1
  N  N40  1  0.37634774  0.88575850  0.77820702  1
  N  N41  1  0.87634774  0.61424150  0.22179298  1
  N  N42  1  0.62365226  0.38575850  0.72179298  1
  N  N43  1  0.12365226  0.11424150  0.27820702  1
  N  N44  1  0.62365226  0.11424150  0.22179298  1
  N  N45  1  0.12365226  0.38575850  0.77820702  1
  N  N46  1  0.37634774  0.61424150  0.27820702  1
  N  N47  1  0.87634774  0.88575850  0.72179298  1
  N  N48  1  0.26183339  0.13867416  0.81087815  1
  N  N49  1  0.76183339  0.36132584  0.18912185  1
  N  N50  1  0.73816661  0.63867416  0.68912185  1
  N  N51  1  0.23816661  0.86132584  0.31087815  1
  N  N52  1  0.73816661  0.86132584  0.18912185  1
  N  N53  1  0.23816661  0.63867416  0.81087815  1
  N  N54  1  0.26183339  0.36132584  0.31087815  1
  N  N55  1  0.76183339  0.13867416  0.68912185  1
  N  N56  1  0.11344965  0.88674727  0.80176167  1
  N  N57  1  0.61344965  0.61325273  0.19823833  1
  N  N58  1  0.88655035  0.38674727  0.69823833  1
  N  N59  1  0.38655035  0.11325273  0.30176167  1
  N  N60  1  0.88655035  0.11325273  0.19823833  1
  N  N61  1  0.38655035  0.38674727  0.80176167  1
  N  N62  1  0.11344965  0.61325273  0.30176167  1
  N  N63  1  0.61344965  0.88674727  0.69823833  1
loop_
_geom_bond_atom_site_label_1
_geom_bond_atom_site_label_2
_geom_bond_distance
_geom_bond_site_symmetry_2
Cd0 N17 2.314534 1_555
Cd0 N0 2.349013 1_455
Cd0 N8 2.415044 1_454
Cd0 N12 2.428902 1_545
Cd0 N24 2.522663 1_544
Cd1 N16 2.314534 1_555
Cd1 N1 2.349013 1_555
Cd1 N9 2.415044 1_556
Cd1 N13 2.428902 1_555
Cd1 N25 2.522663 1_556
Cd2 N19 2.314534 1_555
Cd2 N2 2.349013 1_655
Cd2 N10 2.415044 1_655
Cd2 N14 2.428902 1_555
Cd2 N26 2.522663 1_555
Cd3 N18 2.314534 1_555
Cd3 N3 2.349013 1_555
Cd3 N11 2.415044 1_555
Cd3 N15 2.428902 1_565
Cd3 N27 2.522663 1_565
Cd4 N21 2.314534 1_555
Cd4 N4 2.349013 1_655
Cd4 N12 2.415044 1_656
Cd4 N8 2.428902 1_565
Cd4 N28 2.522663 1_566
Cd5 N20 2.314534 1_555
Cd5 N5 2.349013 1_555
Cd5 N13 2.415044 1_554
Cd5 N9 2.428902 1_555
Cd5 N29 2.522663 1_554
Cd6 N23 2.314534 1_555
Cd6 N6 2.349013 1_455
Cd6 N14 2.415044 1_455
Cd6 N10 2.428902 1_555
Cd6 N30 2.522663 1_555
Cd7 N22 2.314534 1_555
Cd7 N7 2.349013 1_555
Cd7 N15 2.415044 1_555
Cd7 N11 2.428902 1_545
Cd7 N31 2.522663 1_545
Cd8 N24 2.277918 1_544
Cd8 N1 2.300806 1_554
Cd8 N35 2.466781 1_545
Cd8 N17 2.473021 1_555
Cd9 N25 2.277918 1_556
Cd9 N0 2.300806 1_556
Cd9 N34 2.466781 1_555
Cd9 N16 2.473021 1_555
Cd10 N26 2.277918 1_555
Cd10 N3 2.300806 1_555
Cd10 N33 2.466781 1_555
Cd10 N19 2.473021 1_555
Cd11 N27 2.277918 1_565
Cd11 N2 2.300806 1_555
Cd11 N32 2.466781 1_565
Cd11 N18 2.473021 1_555
Cd12 N28 2.277918 1_566
Cd12 N5 2.300806 1_556
Cd12 N39 2.466781 1_565
Cd12 N21 2.473021 1_555
Cd13 N29 2.277918 1_554
Cd13 N4 2.300806 1_554
Cd13 N38 2.466781 1_555
Cd13 N20 2.473021 1_555
Cd14 N30 2.277918 1_555
Cd14 N7 2.300806 1_555
Cd14 N37 2.466781 1_555
Cd14 N23 2.473021 1_555
Cd15 N31 2.277918 1_545
Cd15 N6 2.300806 1_555
Cd15 N36 2.466781 1_545
Cd15 N22 2.473021 1_555
N0 Si1 1.706942 1_555
N0 Si32 1.760207 1_554
N1 Si0 1.706942 1_555
N1 Si33 1.760207 1_556
N2 Si3 1.706942 1_555
N2 Si34 1.760207 1_555
N3 Si2 1.706942 1_555
N3 Si35 1.760207 1_555
N4 Si5 1.706942 1_555
N4 Si36 1.760207 1_556
N5 Si4 1.706942 1_555
N5 Si37 1.760207 1_554
N6 Si7 1.706942 1_555
N6 Si38 1.760207 1_555
N7 Si6 1.706942 1_555
N7 Si39 1.760207 1_555
N8 Si24 1.678677 1_545
N8 Si32 1.718679 1_555
N9 Si25 1.678677 1_555
N9 Si33 1.718679 1_555
N10 Si26 1.678677 1_555
N10 Si34 1.718679 1_555
N11 Si27 1.678677 1_565
N11 Si35 1.718679 1_555
N12 Si28 1.678677 1_565
N12 Si36 1.718679 1_555
N13 Si29 1.678677 1_555
N13 Si37 1.718679 1_555
N14 Si30 1.678677 1_555
N14 Si38 1.718679 1_555
N15 Si31 1.678677 1_545
N15 Si39 1.718679 1_555
N16 Si15 1.710088 1_555
N16 Si32 1.724541 1_555
N17 Si14 1.710088 1_555
N17 Si33 1.724541 1_555
N18 Si13 1.710088 1_555
N18 Si34 1.724541 1_555
N19 Si12 1.710088 1_555
N19 Si35 1.724541 1_555
N20 Si11 1.710088 1_555
N20 Si36 1.724541 1_555
N21 Si10 1.710088 1_555
N21 Si37 1.724541 1_555
N22 Si9 1.710088 1_555
N22 Si38 1.724541 1_555
N23 Si8 1.710088 1_555
N23 Si39 1.724541 1_555
N24 Si16 1.707306 1_555
N24 Si36 1.744549 1_556
N25 Si17 1.707306 1_555
N25 Si37 1.744549 1_554
N26 Si18 1.707306 1_555
N26 Si38 1.744549 1_555
N27 Si19 1.707306 1_555
N27 Si39 1.744549 1_555
N28 Si20 1.707306 1_555
N28 Si32 1.744549 1_554
N29 Si21 1.707306 1_555
N29 Si33 1.744549 1_556
N30 Si22 1.707306 1_555
N30 Si34 1.744549 1_555
N31 Si23 1.707306 1_555
N31 Si35 1.744549 1_555
N32 Si24 1.797684 1_445
N32 Si7 1.800668 1_455
N32 Si8 1.815108 1_555
N33 Si25 1.797684 1_555
N33 Si6 1.800668 1_555
N33 Si9 1.815108 1_555
N34 Si26 1.797684 1_655
N34 Si5 1.800668 1_655
N34 Si10 1.815108 1_555
N35 Si27 1.797684 1_565
N35 Si4 1.800668 1_555
N35 Si11 1.815108 1_555
N36 Si28 1.797684 1_665
N36 Si3 1.800668 1_655
N36 Si12 1.815108 1_555
N37 Si29 1.797684 1_555
N37 Si2 1.800668 1_555
N37 Si13 1.815108 1_555
N38 Si30 1.797684 1_455
N38 Si1 1.800668 1_455
N38 Si14 1.815108 1_555
N39 Si31 1.797684 1_545
N39 Si0 1.800668 1_555
N39 Si15 1.815108 1_555
N40 Si13 1.761050 1_555
N40 Si16 1.764869 1_555
N40 Si31 1.768405 1_555
N41 Si12 1.761050 1_555
N41 Si17 1.764869 1_555
N41 Si30 1.768405 1_555
N42 Si15 1.761050 1_555
N42 Si18 1.764869 1_555
N42 Si29 1.768405 1_555
N43 Si14 1.761050 1_555
N43 Si19 1.764869 1_555
N43 Si28 1.768405 1_555
N44 Si9 1.761050 1_555
N44 Si20 1.764869 1_555
N44 Si27 1.768405 1_555
N45 Si8 1.761050 1_555
N45 Si21 1.764869 1_555
N45 Si26 1.768405 1_555
N46 Si11 1.761050 1_555
N46 Si22 1.764869 1_555
N46 Si25 1.768405 1_555
N47 Si10 1.761050 1_555
N47 Si23 1.764869 1_555
N47 Si24 1.768405 1_555
N48 Si16 1.763657 1_545
N48 Si8 1.767782 1_555
N48 Si0 1.772541 1_555
N49 Si17 1.763657 1_555
N49 Si9 1.767782 1_555
N49 Si1 1.772541 1_555
N50 Si18 1.763657 1_555
N50 Si10 1.767782 1_555
N50 Si2 1.772541 1_555
N51 Si19 1.763657 1_565
N51 Si11 1.767782 1_555
N51 Si3 1.772541 1_555
N52 Si20 1.763657 1_565
N52 Si12 1.767782 1_555
N52 Si4 1.772541 1_555
N53 Si21 1.763657 1_555
N53 Si13 1.767782 1_555
N53 Si5 1.772541 1_555
N54 Si22 1.763657 1_555
N54 Si14 1.767782 1_555
N54 Si6 1.772541 1_555
N55 Si23 1.763657 1_545
N55 Si15 1.767782 1_555
N55 Si7 1.772541 1_555
N56 Si24 1.752447 1_455
N56 Si5 1.757195 1_555
N56 Si16 1.764013 1_555
N57 Si25 1.752447 1_555
N57 Si4 1.757195 1_555
N57 Si17 1.764013 1_555
N58 Si26 1.752447 1_655
N58 Si7 1.757195 1_555
N58 Si18 1.764013 1_555
N59 Si27 1.752447 1_555
N59 Si6 1.757195 1_555
N59 Si19 1.764013 1_555
N60 Si28 1.752447 1_655
N60 Si1 1.757195 1_555
N60 Si20 1.764013 1_555
N61 Si29 1.752447 1_555
N61 Si0 1.757195 1_555
N61 Si21 1.764013 1_555
N62 Si30 1.752447 1_455
N62 Si3 1.757195 1_555
N62 Si22 1.764013 1_555
N63 Si31 1.752447 1_555
N63 Si2 1.757195 1_555
N63 Si23 1.764013 1_555
