# generated using pymatgen
data_ZnInGeAs3
_symmetry_space_group_name_H-M   'P 1'
_cell_length_a   4.10060167
_cell_length_b   5.82195211
_cell_length_c   7.10674673
_cell_angle_alpha   65.71122032
_cell_angle_beta   73.23178841
_cell_angle_gamma   90.00000000
_symmetry_Int_Tables_number   1
_chemical_formula_structural   ZnInGeAs3
_chemical_formula_sum   'Zn1 In1 Ge1 As3'
_cell_volume   146.69423294
_cell_formula_units_Z   1
loop_
 _symmetry_equiv_pos_site_id
 _symmetry_equiv_pos_as_xyz
  1  'x, y, z'
loop_
 _atom_site_type_symbol
 _atom_site_label
 _atom_site_symmetry_multiplicity
 _atom_site_fract_x
 _atom_site_fract_y
 _atom_site_fract_z
 _atom_site_occupancy
  Zn  Zn0  1  0.00163160  0.98903907  0.99673579  1
  In  In0  1  0.33439824  0.33646781  0.33120253  1
  Ge  Ge0  1  0.66411525  0.67566952  0.67177150  1
  As  As0  1  0.50862707  0.77339860  0.98274586  1
  As  As1  1  0.83453001  0.05671378  0.33093899  1
  As  As2  1  0.15669783  0.41871223  0.68660533  1
loop_
_geom_bond_atom_site_label_1
_geom_bond_atom_site_label_2
_geom_bond_distance
_geom_bond_site_symmetry_2
As0 Ge0 2.415749 1_555
As0 Zn0 2.427267 1_655
As0 Zn0 2.427270 1_555
As0 In0 2.628803 1_556
As1 Ge0 2.424778 1_545
As1 Zn0 2.469139 1_644
As1 In0 2.618961 1_555
As1 In0 2.618961 1_655
As2 Zn0 2.485019 1_545
As2 Ge0 2.514392 1_455
As2 Ge0 2.514395 1_555
As2 In0 2.659450 1_555
