# generated using pymatgen
data_RbMg14Sb
_symmetry_space_group_name_H-M   'P 1'
_cell_length_a   6.52476667
_cell_length_b   6.52476611
_cell_length_c   10.69550724
_cell_angle_alpha   90.00000000
_cell_angle_beta   90.00000000
_cell_angle_gamma   120.00000277
_symmetry_Int_Tables_number   1
_chemical_formula_structural   RbMg14Sb
_chemical_formula_sum   'Rb1 Mg14 Sb1'
_cell_volume   394.33192586
_cell_formula_units_Z   1
loop_
 _symmetry_equiv_pos_site_id
 _symmetry_equiv_pos_as_xyz
  1  'x, y, z'
loop_
 _atom_site_type_symbol
 _atom_site_label
 _atom_site_symmetry_multiplicity
 _atom_site_fract_x
 _atom_site_fract_y
 _atom_site_fract_z
 _atom_site_occupancy
  Rb  Rb0  1  0.16666700  0.33333300  0.12500000  1
  Mg  Mg0  1  0.17686576  0.83843238  0.12500000  1
  Mg  Mg1  1  0.15876797  0.82938349  0.62500000  1
  Mg  Mg2  1  0.66156762  0.32313424  0.12500000  1
  Mg  Mg3  1  0.67061651  0.34123203  0.62500000  1
  Mg  Mg4  1  0.66156762  0.83843238  0.12500000  1
  Mg  Mg5  1  0.67061651  0.82938349  0.62500000  1
  Mg  Mg6  1  0.33882416  0.16117584  0.38929518  1
  Mg  Mg7  1  0.33882416  0.16117584  0.86070482  1
  Mg  Mg8  1  0.33882416  0.67764933  0.38929518  1
  Mg  Mg9  1  0.33882416  0.67764933  0.86070482  1
  Mg  Mg10  1  0.82235067  0.16117584  0.38929518  1
  Mg  Mg11  1  0.82235067  0.16117584  0.86070482  1
  Mg  Mg12  1  0.83333300  0.66666700  0.36865558  1
  Mg  Mg13  1  0.83333300  0.66666700  0.88134442  1
  Sb  Sb0  1  0.16666700  0.33333300  0.62500000  1
loop_
_geom_bond_atom_site_label_1
_geom_bond_atom_site_label_2
_geom_bond_distance
_geom_bond_site_symmetry_2
Mg0 Mg2 3.162566 1_565
Mg0 Mg4 3.162567 1_555
Mg0 Mg13 3.249536 1_454
Mg0 Mg12 3.249536 1_455
Mg0 Rb0 3.262892 1_555
Mg0 Rb0 3.262892 1_565
Mg0 Mg2 3.362200 1_455
Mg0 Mg4 3.362200 1_455
Mg0 Mg9 3.363998 1_554
Mg0 Mg8 3.363998 1_555
Mg0 Mg7 3.364004 1_564
Mg0 Mg6 3.364004 1_565
Mg1 Mg8 3.143062 1_555
Mg1 Mg9 3.143062 1_555
Mg1 Mg6 3.143068 1_565
Mg1 Mg7 3.143068 1_565
Mg1 Mg3 3.185074 1_455
Mg1 Mg5 3.185074 1_455
Mg1 Sb0 3.262688 1_565
Mg1 Sb0 3.262688 1_555
Mg1 Mg13 3.301315 1_455
Mg1 Mg12 3.301315 1_455
Mg1 Mg3 3.339692 1_565
Mg1 Mg5 3.339692 1_555
Mg2 Mg4 3.162566 1_545
Mg2 Rb0 3.262892 1_555
Mg2 Rb0 3.262892 1_655
Mg2 Mg4 3.362200 1_555
Mg2 Mg6 3.364004 1_555
Mg2 Mg7 3.364004 1_554
Mg3 Mg6 3.143068 1_555
Mg3 Mg7 3.143068 1_555
Mg3 Mg5 3.185074 1_555
Mg3 Sb0 3.262689 1_555
Mg3 Sb0 3.262689 1_655
Mg3 Mg5 3.339692 1_545
Mg4 Rb0 3.262892 1_555
Mg4 Rb0 3.262892 1_665
Mg4 Mg9 3.364004 1_554
Mg4 Mg8 3.364004 1_555
Mg5 Mg8 3.143069 1_555
Mg5 Mg9 3.143069 1_555
Mg5 Sb0 3.262688 1_665
Mg5 Sb0 3.262688 1_555
Mg6 Mg8 3.154897 1_545
Mg6 Sb0 3.184441 1_555
Mg6 Mg8 3.369869 1_555
Mg6 Rb0 3.431609 1_555
Mg7 Mg9 3.154897 1_545
Mg7 Sb0 3.184441 1_555
Mg7 Mg9 3.369869 1_555
Mg7 Rb0 3.431609 1_556
Mg8 Sb0 3.184448 1_555
Mg8 Rb0 3.431616 1_555
Mg9 Sb0 3.184448 1_555
Mg9 Rb0 3.431616 1_556
Mg10 Mg3 3.143062 1_555
Mg10 Mg5 3.143069 1_545
Mg10 Mg8 3.154897 1_545
Mg10 Mg6 3.154898 1_555
Mg10 Sb0 3.184448 1_655
Mg10 Mg12 3.270432 1_555
Mg10 Mg12 3.270432 1_545
Mg10 Mg2 3.363998 1_555
Mg10 Mg4 3.364004 1_545
Mg10 Mg8 3.369869 1_655
Mg10 Mg6 3.369869 1_655
Mg10 Rb0 3.431616 1_655
Mg11 Mg3 3.143062 1_555
Mg11 Mg5 3.143069 1_545
Mg11 Mg9 3.154897 1_545
Mg11 Mg7 3.154898 1_555
Mg11 Sb0 3.184448 1_655
Mg11 Mg13 3.270432 1_555
Mg11 Mg13 3.270432 1_545
Mg11 Mg2 3.363998 1_556
Mg11 Mg4 3.364004 1_546
Mg11 Mg9 3.369869 1_655
Mg11 Mg7 3.369869 1_655
Mg11 Rb0 3.431616 1_656
Mg12 Mg4 3.249529 1_555
Mg12 Mg2 3.249536 1_555
Mg12 Mg6 3.270432 1_555
Mg12 Mg6 3.270432 1_665
Mg12 Mg8 3.270432 1_655
Mg12 Mg8 3.270432 1_555
Mg12 Mg5 3.301309 1_555
Mg12 Mg3 3.301315 1_555
Mg13 Mg4 3.249529 1_556
Mg13 Mg2 3.249536 1_556
Mg13 Mg7 3.270432 1_555
Mg13 Mg7 3.270432 1_665
Mg13 Mg9 3.270432 1_655
Mg13 Mg9 3.270432 1_555
Mg13 Mg5 3.301309 1_555
Mg13 Mg3 3.301315 1_555
