# generated using pymatgen
data_YScFe4
_symmetry_space_group_name_H-M   'P 1'
_cell_length_a   5.10075822
_cell_length_b   5.10075822
_cell_length_c   5.10093401
_cell_angle_alpha   90.00000000
_cell_angle_beta   60.00114008
_cell_angle_gamma   120.00000000
_symmetry_Int_Tables_number   1
_chemical_formula_structural   YScFe4
_chemical_formula_sum   'Y1 Sc1 Fe4'
_cell_volume   93.84511446
_cell_formula_units_Z   1
loop_
 _symmetry_equiv_pos_site_id
 _symmetry_equiv_pos_as_xyz
  1  'x, y, z'
loop_
 _atom_site_type_symbol
 _atom_site_label
 _atom_site_symmetry_multiplicity
 _atom_site_fract_x
 _atom_site_fract_y
 _atom_site_fract_z
 _atom_site_occupancy
  Y  Y0  1  0.99999504  0.99999702  0.00000793  1
  Sc  Sc0  1  0.50000840  0.75000370  0.74998790  1
  Fe  Fe0  1  0.75052299  0.37526149  0.87421652  1
  Fe  Fe1  1  0.24947647  0.37526131  0.37526322  1
  Fe  Fe2  1  0.24947647  0.87421616  0.37526322  1
  Fe  Fe3  1  0.75052162  0.37526131  0.37526322  1
loop_
_geom_bond_atom_site_label_1
_geom_bond_atom_site_label_2
_geom_bond_distance
_geom_bond_site_symmetry_2
Sc0 Y0 3.123609 1_556
Sc0 Y0 3.123610 1_446
Sc0 Y0 3.123610 1_456
Sc0 Y0 3.123642 1_555
Fe0 Fe1 2.545129 1_655
Fe0 Fe3 2.545131 1_555
Fe0 Fe2 2.545131 1_655
Fe0 Fe3 2.555803 1_556
Fe0 Fe2 2.555803 1_546
Fe0 Fe1 2.555805 1_556
Fe0 Sc0 2.990030 1_655
Fe0 Sc0 2.990030 1_555
Fe0 Sc0 2.990035 1_545
Fe0 Y0 2.991162 1_556
Fe0 Y0 2.991166 1_546
Fe0 Y0 2.991166 1_446
Fe1 Fe2 2.545048 1_555
Fe1 Fe3 2.545048 1_455
Fe1 Fe3 2.555710 1_555
Fe1 Fe2 2.555710 1_545
Fe1 Sc0 2.990027 1_555
Fe1 Sc0 2.990032 1_445
Fe1 Sc0 2.990184 1_554
Fe1 Y0 2.991182 1_555
Fe1 Y0 2.991186 1_445
Fe1 Y0 2.991296 1_446
Fe2 Fe3 2.545048 1_455
Fe2 Fe3 2.555710 1_565
Fe2 Sc0 2.990027 1_455
Fe2 Sc0 2.990032 1_555
Fe2 Sc0 2.990188 1_554
Fe2 Y0 2.991182 1_455
Fe2 Y0 2.991186 1_555
Fe2 Y0 2.991291 1_456
Fe3 Sc0 2.990025 1_555
Fe3 Sc0 2.990034 1_545
Fe3 Sc0 2.990186 1_654
Fe3 Y0 2.991179 1_555
Fe3 Y0 2.991188 1_545
Fe3 Y0 2.991293 1_446
