# generated using pymatgen
data_Ba(SnSe)32
_symmetry_space_group_name_H-M   'P 1'
_cell_length_a   12.47990640
_cell_length_b   12.47990640
_cell_length_c   11.96649582
_cell_angle_alpha   89.69079458
_cell_angle_beta   89.69079458
_cell_angle_gamma   85.62630925
_symmetry_Int_Tables_number   1
_chemical_formula_structural   Ba(SnSe)32
_chemical_formula_sum   'Ba1 Sn32 Se32'
_cell_volume   1858.28076878
_cell_formula_units_Z   1
loop_
 _symmetry_equiv_pos_site_id
 _symmetry_equiv_pos_as_xyz
  1  'x, y, z'
loop_
 _atom_site_type_symbol
 _atom_site_label
 _atom_site_symmetry_multiplicity
 _atom_site_fract_x
 _atom_site_fract_y
 _atom_site_fract_z
 _atom_site_occupancy
  Ba  Ba0  1  0.56440500  0.56440500  0.42050300  1
  Sn  Sn0  1  0.08933800  0.33228800  0.12820300  1
  Sn  Sn1  1  0.33228800  0.08933800  0.12820300  1
  Sn  Sn2  1  0.08986600  0.83774900  0.13366300  1
  Sn  Sn3  1  0.33198700  0.58973500  0.12576800  1
  Sn  Sn4  1  0.58973500  0.33198700  0.12576800  1
  Sn  Sn5  1  0.83774900  0.08986600  0.13366300  1
  Sn  Sn6  1  0.55009900  0.86369900  0.07080400  1
  Sn  Sn7  1  0.86369900  0.55009900  0.07080400  1
  Sn  Sn8  1  0.08825000  0.08825000  0.38631300  1
  Sn  Sn9  1  0.07332100  0.58629400  0.38494700  1
  Sn  Sn10  1  0.33424000  0.33424000  0.38006100  1
  Sn  Sn11  1  0.58629400  0.07332100  0.38494700  1
  Sn  Sn12  1  0.35324200  0.84060200  0.38640600  1
  Sn  Sn13  1  0.70635600  0.70635600  0.18875700  1
  Sn  Sn14  1  0.84060200  0.35324200  0.38640600  1
  Sn  Sn15  1  0.85511100  0.85511100  0.38973000  1
  Sn  Sn16  1  0.15013400  0.90732700  0.62458500  1
  Sn  Sn17  1  0.16052400  0.40724700  0.62518700  1
  Sn  Sn18  1  0.40724700  0.16052400  0.62518700  1
  Sn  Sn19  1  0.65025200  0.89770300  0.61766100  1
  Sn  Sn20  1  0.39054600  0.66737700  0.64058600  1
  Sn  Sn21  1  0.66737700  0.39054600  0.64058600  1
  Sn  Sn22  1  0.90732700  0.15013400  0.62458500  1
  Sn  Sn23  1  0.89770300  0.65025200  0.61766100  1
  Sn  Sn24  1  0.15240700  0.15240700  0.88504900  1
  Sn  Sn25  1  0.39131700  0.91908200  0.87280700  1
  Sn  Sn26  1  0.15064400  0.65591500  0.88986200  1
  Sn  Sn27  1  0.40674600  0.40674600  0.88108400  1
  Sn  Sn28  1  0.65591500  0.15064400  0.88986200  1
  Sn  Sn29  1  0.90438300  0.90438300  0.88249000  1
  Sn  Sn30  1  0.65150400  0.65150400  0.88151100  1
  Sn  Sn31  1  0.91908200  0.39131700  0.87280700  1
  Se  Se0  1  0.06696800  0.06696800  0.15654700  1
  Se  Se1  1  0.06594000  0.56050800  0.15180400  1
  Se  Se2  1  0.31436100  0.31436100  0.14911600  1
  Se  Se3  1  0.56050800  0.06594000  0.15180400  1
  Se  Se4  1  0.33571000  0.81497600  0.15696400  1
  Se  Se5  1  0.55108100  0.55108100  0.14071500  1
  Se  Se6  1  0.81497600  0.33571000  0.15696400  1
  Se  Se7  1  0.85653900  0.85653800  0.14664000  1
  Se  Se8  1  0.06700000  0.31566700  0.35930000  1
  Se  Se9  1  0.31566700  0.06700000  0.35930000  1
  Se  Se10  1  0.07868800  0.81530300  0.36667500  1
  Se  Se11  1  0.30758700  0.56036500  0.35541300  1
  Se  Se12  1  0.56036500  0.30758700  0.35541300  1
  Se  Se13  1  0.81530300  0.07868800  0.36667500  1
  Se  Se14  1  0.57873600  0.82513800  0.37409100  1
  Se  Se15  1  0.82513800  0.57873600  0.37409100  1
  Se  Se16  1  0.18125000  0.18125000  0.65385900  1
  Se  Se17  1  0.42681900  0.93062300  0.64395100  1
  Se  Se18  1  0.17106100  0.68108300  0.65719100  1
  Se  Se19  1  0.43300000  0.43300000  0.64987500  1
  Se  Se20  1  0.68108300  0.17106100  0.65719100  1
  Se  Se21  1  0.92633900  0.92633900  0.64334800  1
  Se  Se22  1  0.67321500  0.67321500  0.65214200  1
  Se  Se23  1  0.93062300  0.42681900  0.64395100  1
  Se  Se24  1  0.16487400  0.92772300  0.85980100  1
  Se  Se25  1  0.17921600  0.43018400  0.85694000  1
  Se  Se26  1  0.43018400  0.17921600  0.85694000  1
  Se  Se27  1  0.67677300  0.92457500  0.86076200  1
  Se  Se28  1  0.42313300  0.68588500  0.86274300  1
  Se  Se29  1  0.68588500  0.42313300  0.86274300  1
  Se  Se30  1  0.92772300  0.16487400  0.85980100  1
  Se  Se31  1  0.92457500  0.67677300  0.86076200  1
loop_
_geom_bond_atom_site_label_1
_geom_bond_atom_site_label_2
_geom_bond_distance
_geom_bond_site_symmetry_2
Ba0 Se11 3.306612 1_555
Ba0 Se12 3.306612 1_555
Ba0 Se14 3.316119 1_555
Ba0 Se15 3.316119 1_555
Ba0 Se5 3.358748 1_555
Ba0 Se22 3.425488 1_555
Ba0 Sn20 3.583959 1_555
Ba0 Sn21 3.583959 1_555
Ba0 Se19 3.636691 1_555
Se0 Sn8 2.779806 1_555
Se0 Sn5 2.867541 1_455
Se0 Sn2 2.867541 1_545
Se1 Sn7 2.721117 1_455
Se1 Sn9 2.812934 1_555
Se1 Sn0 2.856223 1_555
Se2 Sn10 2.790122 1_555
Se2 Sn0 2.812506 1_555
Se2 Sn1 2.812506 1_555
Se3 Sn6 2.721117 1_545
Se3 Sn11 2.812934 1_555
Se3 Sn1 2.856223 1_555
Se4 Sn12 2.777624 1_555
Se4 Sn3 2.841583 1_555
Se4 Sn6 2.966977 1_555
Se4 Sn2 3.073630 1_555
Se5 Sn3 2.746655 1_555
Se5 Sn4 2.746655 1_555
Se5 Sn13 2.904749 1_555
Se6 Sn14 2.777624 1_555
Se6 Sn4 2.841583 1_555
Se6 Sn7 2.966977 1_555
Se6 Sn5 3.073630 1_555
Se7 Sn13 2.791977 1_555
Se7 Sn2 2.906824 1_655
Se7 Sn5 2.906836 1_565
Se7 Sn15 2.908861 1_555
Se7 Sn29 3.273879 1_554
Se8 Sn0 2.786145 1_555
Se8 Sn14 2.845665 1_455
Se8 Sn8 2.847121 1_555
Se9 Sn1 2.786145 1_555
Se9 Sn12 2.845665 1_545
Se9 Sn8 2.847121 1_555
Se10 Sn2 2.804654 1_555
Se10 Sn15 2.808914 1_455
Se10 Sn9 2.871030 1_555
Se11 Sn3 2.788539 1_555
Se11 Sn10 2.830253 1_555
Se11 Sn9 2.936485 1_555
Se12 Sn4 2.788539 1_555
Se12 Sn10 2.830253 1_555
Se12 Sn11 2.936485 1_555
Se13 Sn5 2.804654 1_555
Se13 Sn15 2.808914 1_545
Se13 Sn11 2.871030 1_555
Se14 Sn12 2.809157 1_555
Se14 Sn13 3.047952 1_555
Se14 Sn11 3.109353 1_565
Se14 Sn19 3.208099 1_555
Se15 Sn14 2.809157 1_555
Se15 Sn13 3.047952 1_555
Se15 Sn9 3.109353 1_655
Se15 Sn23 3.208099 1_555
Se16 Sn24 2.812671 1_555
Se16 Sn18 2.831721 1_555
Se16 Sn17 2.831721 1_555
Se17 Sn25 2.776577 1_555
Se17 Sn19 2.803616 1_555
Se17 Sn18 2.868590 1_565
Se18 Sn20 2.737650 1_555
Se18 Sn26 2.812610 1_555
Se18 Sn16 2.840662 1_555
Se19 Sn27 2.804725 1_555
Se19 Sn20 2.934189 1_555
Se19 Sn21 2.934189 1_555
Se20 Sn21 2.737650 1_555
Se20 Sn28 2.812610 1_555
Se20 Sn22 2.840662 1_555
Se21 Sn22 2.792841 1_565
Se21 Sn16 2.792841 1_655
Se21 Sn29 2.886861 1_555
Se22 Sn30 2.770485 1_555
Se22 Sn19 2.822698 1_555
Se22 Sn23 2.822698 1_555
Se23 Sn31 2.776577 1_555
Se23 Sn23 2.803616 1_555
Se23 Sn17 2.868590 1_655
Se24 Sn24 2.814285 1_565
Se24 Sn25 2.824914 1_555
Se24 Sn16 2.835788 1_555
Se24 Sn29 3.295600 1_455
Se25 Sn17 2.802343 1_555
Se25 Sn26 2.841772 1_555
Se25 Sn27 2.848395 1_555
Se26 Sn18 2.802343 1_555
Se26 Sn28 2.841772 1_555
Se26 Sn27 2.848395 1_555
Se27 Sn28 2.836632 1_565
Se27 Sn29 2.845686 1_555
Se27 Sn19 2.953394 1_555
Se27 Sn6 3.084407 1_556
Se28 Sn20 2.705305 1_555
Se28 Sn30 2.859488 1_555
Se28 Sn25 2.910136 1_555
Se29 Sn21 2.705305 1_555
Se29 Sn30 2.859488 1_555
Se29 Sn31 2.910136 1_555
Se30 Sn24 2.814285 1_655
Se30 Sn31 2.824914 1_555
Se30 Sn22 2.835788 1_555
Se30 Sn29 3.295600 1_545
Se31 Sn26 2.836632 1_655
Se31 Sn29 2.845686 1_555
Se31 Sn23 2.953394 1_555
Se31 Sn7 3.084407 1_556
