# generated using pymatgen
data_Sm2(N4O9)3
_symmetry_space_group_name_H-M   'P 1'
_cell_length_a   13.42276218
_cell_length_b   13.42276218
_cell_length_c   13.42276218
_cell_angle_alpha   90.00000000
_cell_angle_beta   90.00000000
_cell_angle_gamma   90.00000000
_symmetry_Int_Tables_number   1
_chemical_formula_structural   Sm2(N4O9)3
_chemical_formula_sum   'Sm8 N48 O108'
_cell_volume   2418.38637121
_cell_formula_units_Z   4
loop_
 _symmetry_equiv_pos_site_id
 _symmetry_equiv_pos_as_xyz
  1  'x, y, z'
loop_
 _atom_site_type_symbol
 _atom_site_label
 _atom_site_symmetry_multiplicity
 _atom_site_fract_x
 _atom_site_fract_y
 _atom_site_fract_z
 _atom_site_occupancy
  Sm  Sm0  1  0.04938651  0.04938651  0.04938651  1
  Sm  Sm1  1  0.45061349  0.95061349  0.54938651  1
  Sm  Sm2  1  0.95061349  0.54938651  0.45061349  1
  Sm  Sm3  1  0.79938651  0.29938651  0.20061349  1
  Sm  Sm4  1  0.54938651  0.45061349  0.95061349  1
  Sm  Sm5  1  0.70061349  0.70061349  0.70061349  1
  Sm  Sm6  1  0.29938651  0.20061349  0.79938651  1
  Sm  Sm7  1  0.20061349  0.79938651  0.29938651  1
  N  N0  1  0.08896009  0.38615871  0.38548659  1
  N  N1  1  0.41103991  0.61384129  0.88548659  1
  N  N2  1  0.91103991  0.88615871  0.11451341  1
  N  N3  1  0.38548659  0.08896009  0.38615871  1
  N  N4  1  0.13615871  0.33896009  0.86451341  1
  N  N5  1  0.58896009  0.11384129  0.61451341  1
  N  N6  1  0.88548659  0.41103991  0.61384129  1
  N  N7  1  0.36384129  0.66103991  0.36451341  1
  N  N8  1  0.11451341  0.91103991  0.88615871  1
  N  N9  1  0.63615871  0.16103991  0.13548659  1
  N  N10  1  0.61451341  0.58896009  0.11384129  1
  N  N11  1  0.86384129  0.83896009  0.63548659  1
  N  N12  1  0.38615871  0.38548659  0.08896009  1
  N  N13  1  0.83896009  0.63548659  0.86384129  1
  N  N14  1  0.88615871  0.11451341  0.91103991  1
  N  N15  1  0.66103991  0.36451341  0.36384129  1
  N  N16  1  0.11384129  0.61451341  0.58896009  1
  N  N17  1  0.33896009  0.86451341  0.13615871  1
  N  N18  1  0.61384129  0.88548659  0.41103991  1
  N  N19  1  0.16103991  0.13548659  0.63615871  1
  N  N20  1  0.86451341  0.13615871  0.33896009  1
  N  N21  1  0.36451341  0.36384129  0.66103991  1
  N  N22  1  0.63548659  0.86384129  0.83896009  1
  N  N23  1  0.13548659  0.63615871  0.16103991  1
  N  N24  1  0.12500000  0.21069925  0.46069925  1
  N  N25  1  0.37500000  0.78930075  0.96069925  1
  N  N26  1  0.87500000  0.71069925  0.03930075  1
  N  N27  1  0.46069925  0.12500000  0.21069925  1
  N  N28  1  0.96069925  0.37500000  0.78930075  1
  N  N29  1  0.62500000  0.28930075  0.53930075  1
  N  N30  1  0.53930075  0.62500000  0.28930075  1
  N  N31  1  0.03930075  0.87500000  0.71069925  1
  N  N32  1  0.21069925  0.46069925  0.12500000  1
  N  N33  1  0.71069925  0.03930075  0.87500000  1
  N  N34  1  0.28930075  0.53930075  0.62500000  1
  N  N35  1  0.78930075  0.96069925  0.37500000  1
  N  N36  1  0.12500000  0.00828363  0.25828363  1
  N  N37  1  0.37500000  0.99171637  0.75828363  1
  N  N38  1  0.87500000  0.50828363  0.24171637  1
  N  N39  1  0.25828363  0.12500000  0.00828363  1
  N  N40  1  0.75828363  0.37500000  0.99171637  1
  N  N41  1  0.62500000  0.49171637  0.74171637  1
  N  N42  1  0.74171637  0.62500000  0.49171637  1
  N  N43  1  0.24171637  0.87500000  0.50828363  1
  N  N44  1  0.00828363  0.25828363  0.12500000  1
  N  N45  1  0.50828363  0.24171637  0.87500000  1
  N  N46  1  0.49171637  0.74171637  0.62500000  1
  N  N47  1  0.99171637  0.75828363  0.37500000  1
  O  O0  1  0.12500000  0.93947454  0.18947454  1
  O  O1  1  0.37500000  0.06052546  0.68947454  1
  O  O2  1  0.87500000  0.43947454  0.31052546  1
  O  O3  1  0.18947454  0.12500000  0.93947454  1
  O  O4  1  0.68947454  0.37500000  0.06052546  1
  O  O5  1  0.62500000  0.56052546  0.81052546  1
  O  O6  1  0.81052546  0.62500000  0.56052546  1
  O  O7  1  0.31052546  0.87500000  0.43947454  1
  O  O8  1  0.93947454  0.18947454  0.12500000  1
  O  O9  1  0.43947454  0.31052546  0.87500000  1
  O  O10  1  0.56052546  0.81052546  0.62500000  1
  O  O11  1  0.06052546  0.68947454  0.37500000  1
  O  O12  1  0.02545771  0.37741209  0.45473497  1
  O  O13  1  0.47454229  0.62258791  0.95473497  1
  O  O14  1  0.97454229  0.87741209  0.04526503  1
  O  O15  1  0.45473497  0.02545771  0.37741209  1
  O  O16  1  0.12741209  0.27545771  0.79526503  1
  O  O17  1  0.52545771  0.12258791  0.54526503  1
  O  O18  1  0.95473497  0.47454229  0.62258791  1
  O  O19  1  0.37258791  0.72454229  0.29526503  1
  O  O20  1  0.04526503  0.97454229  0.87741209  1
  O  O21  1  0.62741209  0.22454229  0.20473497  1
  O  O22  1  0.54526503  0.52545771  0.12258791  1
  O  O23  1  0.87258791  0.77545771  0.70473497  1
  O  O24  1  0.37741209  0.45473497  0.02545771  1
  O  O25  1  0.77545771  0.70473497  0.87258791  1
  O  O26  1  0.87741209  0.04526503  0.97454229  1
  O  O27  1  0.72454229  0.29526503  0.37258791  1
  O  O28  1  0.12258791  0.54526503  0.52545771  1
  O  O29  1  0.27545771  0.79526503  0.12741209  1
  O  O30  1  0.62258791  0.95473497  0.47454229  1
  O  O31  1  0.22454229  0.20473497  0.62741209  1
  O  O32  1  0.79526503  0.12741209  0.27545771  1
  O  O33  1  0.29526503  0.37258791  0.72454229  1
  O  O34  1  0.70473497  0.87258791  0.77545771  1
  O  O35  1  0.20473497  0.62741209  0.22454229  1
  O  O36  1  0.09248179  0.46526086  0.33566117  1
  O  O37  1  0.40751821  0.53473914  0.83566117  1
  O  O38  1  0.90751821  0.96526086  0.16433883  1
  O  O39  1  0.33566117  0.09248179  0.46526086  1
  O  O40  1  0.21526086  0.34248179  0.91433883  1
  O  O41  1  0.59248179  0.03473914  0.66433883  1
  O  O42  1  0.83566117  0.40751821  0.53473914  1
  O  O43  1  0.28473914  0.65751821  0.41433883  1
  O  O44  1  0.16433883  0.90751821  0.96526086  1
  O  O45  1  0.71526086  0.15751821  0.08566117  1
  O  O46  1  0.66433883  0.59248179  0.03473914  1
  O  O47  1  0.78473914  0.84248179  0.58566117  1
  O  O48  1  0.46526086  0.33566117  0.09248179  1
  O  O49  1  0.84248179  0.58566117  0.78473914  1
  O  O50  1  0.96526086  0.16433883  0.90751821  1
  O  O51  1  0.65751821  0.41433883  0.28473914  1
  O  O52  1  0.03473914  0.66433883  0.59248179  1
  O  O53  1  0.34248179  0.91433883  0.21526086  1
  O  O54  1  0.53473914  0.83566117  0.40751821  1
  O  O55  1  0.15751821  0.08566117  0.71526086  1
  O  O56  1  0.91433883  0.21526086  0.34248179  1
  O  O57  1  0.41433883  0.28473914  0.65751821  1
  O  O58  1  0.58566117  0.78473914  0.84248179  1
  O  O59  1  0.08566117  0.71526086  0.15751821  1
  O  O60  1  0.14958724  0.31463838  0.36633700  1
  O  O61  1  0.35041276  0.68536162  0.86633700  1
  O  O62  1  0.85041276  0.81463838  0.13366300  1
  O  O63  1  0.36633700  0.14958724  0.31463838  1
  O  O64  1  0.06463838  0.39958724  0.88366300  1
  O  O65  1  0.64958724  0.18536162  0.63366300  1
  O  O66  1  0.86633700  0.35041276  0.68536162  1
  O  O67  1  0.43536162  0.60041276  0.38366300  1
  O  O68  1  0.13366300  0.85041276  0.81463838  1
  O  O69  1  0.56463838  0.10041276  0.11633700  1
  O  O70  1  0.63366300  0.64958724  0.18536162  1
  O  O71  1  0.93536162  0.89958724  0.61633700  1
  O  O72  1  0.31463838  0.36633700  0.14958724  1
  O  O73  1  0.89958724  0.61633700  0.93536162  1
  O  O74  1  0.81463838  0.13366300  0.85041276  1
  O  O75  1  0.60041276  0.38366300  0.43536162  1
  O  O76  1  0.18536162  0.63366300  0.64958724  1
  O  O77  1  0.39958724  0.88366300  0.06463838  1
  O  O78  1  0.68536162  0.86633700  0.35041276  1
  O  O79  1  0.10041276  0.11633700  0.56463838  1
  O  O80  1  0.88366300  0.06463838  0.39958724  1
  O  O81  1  0.38366300  0.43536162  0.60041276  1
  O  O82  1  0.61633700  0.93536162  0.89958724  1
  O  O83  1  0.11633700  0.56463838  0.10041276  1
  O  O84  1  0.08593625  0.09008536  0.23781352  1
  O  O85  1  0.41406375  0.90991464  0.73781352  1
  O  O86  1  0.91406375  0.59008536  0.26218648  1
  O  O87  1  0.23781352  0.08593625  0.09008536  1
  O  O88  1  0.84008536  0.33593625  0.01218648  1
  O  O89  1  0.58593625  0.40991464  0.76218648  1
  O  O90  1  0.73781352  0.41406375  0.90991464  1
  O  O91  1  0.65991464  0.66406375  0.51218648  1
  O  O92  1  0.26218648  0.91406375  0.59008536  1
  O  O93  1  0.34008536  0.16406375  0.98781352  1
  O  O94  1  0.76218648  0.58593625  0.40991464  1
  O  O95  1  0.15991464  0.83593625  0.48781352  1
  O  O96  1  0.09008536  0.23781352  0.08593625  1
  O  O97  1  0.83593625  0.48781352  0.15991464  1
  O  O98  1  0.59008536  0.26218648  0.91406375  1
  O  O99  1  0.66406375  0.51218648  0.65991464  1
  O  O100  1  0.40991464  0.76218648  0.58593625  1
  O  O101  1  0.33593625  0.01218648  0.84008536  1
  O  O102  1  0.90991464  0.73781352  0.41406375  1
  O  O103  1  0.16406375  0.98781352  0.34008536  1
  O  O104  1  0.01218648  0.84008536  0.33593625  1
  O  O105  1  0.51218648  0.65991464  0.66406375  1
  O  O106  1  0.48781352  0.15991464  0.83593625  1
  O  O107  1  0.98781352  0.34008536  0.16406375  1
loop_
_geom_bond_atom_site_label_1
_geom_bond_atom_site_label_2
_geom_bond_distance
_geom_bond_site_symmetry_2
N0 O36 1.255737 1_555
N0 O12 1.266613 1_555
N0 O60 1.284490 1_555
N1 O37 1.255737 1_555
N1 O13 1.266613 1_555
N1 O61 1.284490 1_555
N2 O38 1.255737 1_555
N2 O14 1.266613 1_555
N2 O62 1.284490 1_555
N3 O39 1.255737 1_555
N3 O15 1.266613 1_555
N3 O63 1.284490 1_555
N4 O40 1.255737 1_555
N4 O16 1.266613 1_555
N4 O64 1.284490 1_555
N5 O41 1.255737 1_555
N5 O17 1.266613 1_555
N5 O65 1.284490 1_555
N6 O42 1.255737 1_555
N6 O18 1.266613 1_555
N6 O66 1.284490 1_555
N7 O43 1.255737 1_555
N7 O19 1.266613 1_555
N7 O67 1.284490 1_555
N8 O44 1.255737 1_555
N8 O20 1.266613 1_555
N8 O68 1.284490 1_555
N9 O45 1.255737 1_555
N9 O21 1.266613 1_555
N9 O69 1.284490 1_555
N10 O46 1.255737 1_555
N10 O22 1.266613 1_555
N10 O70 1.284490 1_555
N11 O47 1.255737 1_555
N11 O23 1.266613 1_555
N11 O71 1.284490 1_555
N12 O48 1.255737 1_555
N12 O24 1.266613 1_555
N12 O72 1.284490 1_555
N13 O49 1.255737 1_555
N13 O25 1.266613 1_555
N13 O73 1.284490 1_555
N14 O50 1.255737 1_555
N14 O26 1.266613 1_555
N14 O74 1.284490 1_555
N15 O51 1.255737 1_555
N15 O27 1.266613 1_555
N15 O75 1.284490 1_555
N16 O52 1.255737 1_555
N16 O28 1.266613 1_555
N16 O76 1.284490 1_555
N17 O53 1.255737 1_555
N17 O29 1.266613 1_555
N17 O77 1.284490 1_555
N18 O54 1.255737 1_555
N18 O30 1.266613 1_555
N18 O78 1.284490 1_555
N19 O55 1.255737 1_555
N19 O31 1.266613 1_555
N19 O79 1.284490 1_555
N20 O56 1.255737 1_555
N20 O32 1.266613 1_555
N20 O80 1.284490 1_555
N21 O57 1.255737 1_555
N21 O33 1.266613 1_555
N21 O81 1.284490 1_555
N22 O58 1.255737 1_555
N22 O34 1.266613 1_555
N22 O82 1.284490 1_555
N23 O59 1.255737 1_555
N23 O35 1.266613 1_555
N23 O83 1.284490 1_555
N24 O60 1.913020 1_555
N24 O79 1.913020 1_555
N25 O77 1.913020 1_556
N25 O61 1.913020 1_555
N26 O73 1.913020 1_554
N26 O62 1.913020 1_555
N27 O63 1.913020 1_555
N27 O69 1.913020 1_555
N28 O64 1.913020 1_655
N28 O66 1.913020 1_555
N29 O65 1.913020 1_555
N29 O75 1.913020 1_555
N30 O67 1.913020 1_555
N30 O70 1.913020 1_555
N31 O71 1.913020 1_455
N31 O68 1.913020 1_555
N32 O72 1.913020 1_555
N32 O83 1.913020 1_555
N33 O82 1.913020 1_545
N33 O74 1.913020 1_555
N34 O81 1.913020 1_555
N34 O76 1.913020 1_555
N35 O80 1.913020 1_565
N35 O78 1.913020 1_555
N36 O84 1.247416 1_555
N36 O103 1.247416 1_545
N36 O0 1.306179 1_545
N37 O85 1.247416 1_555
N37 O101 1.247416 1_565
N37 O1 1.306179 1_565
N38 O86 1.247416 1_555
N38 O97 1.247416 1_555
N38 O2 1.306179 1_555
N39 O87 1.247416 1_555
N39 O93 1.247416 1_554
N39 O3 1.306179 1_554
N40 O90 1.247416 1_555
N40 O88 1.247416 1_556
N40 O4 1.306179 1_556
N41 O99 1.247416 1_555
N41 O89 1.247416 1_555
N41 O5 1.306179 1_555
N42 O94 1.247416 1_555
N42 O91 1.247416 1_555
N42 O6 1.306179 1_555
N43 O95 1.247416 1_555
N43 O92 1.247416 1_555
N43 O7 1.306179 1_555
N44 O96 1.247416 1_555
N44 O107 1.247416 1_455
N44 O8 1.306179 1_455
N45 O106 1.247416 1_555
N45 O98 1.247416 1_555
N45 O9 1.306179 1_555
N46 O105 1.247416 1_555
N46 O100 1.247416 1_555
N46 O10 1.306179 1_555
N47 O102 1.247416 1_555
N47 O104 1.247416 1_655
N47 O11 1.306179 1_655
O0 Sm7 2.596626 1_555
O0 Sm0 2.596626 1_565
O1 Sm1 2.596626 1_545
O1 Sm6 2.596626 1_555
O2 Sm3 2.596626 1_555
O2 Sm2 2.596626 1_555
O3 Sm6 2.596626 1_555
O3 Sm0 2.596626 1_556
O4 Sm4 2.596626 1_554
O4 Sm3 2.596626 1_555
O5 Sm4 2.596626 1_555
O5 Sm5 2.596626 1_555
O6 Sm2 2.596626 1_555
O6 Sm5 2.596626 1_555
O7 Sm7 2.596626 1_555
O7 Sm1 2.596626 1_555
O8 Sm3 2.596626 1_555
O8 Sm0 2.596626 1_655
O9 Sm6 2.596626 1_555
O9 Sm4 2.596626 1_555
O10 Sm1 2.596626 1_555
O10 Sm5 2.596626 1_555
O11 Sm2 2.596626 1_455
O11 Sm7 2.596626 1_555
O12 Sm2 2.518113 1_455
O13 Sm4 2.518113 1_555
O14 Sm0 2.518113 1_665
O15 Sm1 2.518113 1_545
O16 Sm6 2.518113 1_555
O17 Sm1 2.518113 1_545
O18 Sm2 2.518113 1_555
O19 Sm7 2.518113 1_555
O20 Sm0 2.518113 1_566
O21 Sm3 2.518113 1_555
O22 Sm4 2.518113 1_554
O23 Sm5 2.518113 1_555
O24 Sm4 2.518113 1_554
O25 Sm5 2.518113 1_555
O26 Sm0 2.518113 1_656
O27 Sm3 2.518113 1_555
O28 Sm2 2.518113 1_455
O29 Sm7 2.518113 1_555
O30 Sm1 2.518113 1_555
O31 Sm6 2.518113 1_555
O32 Sm3 2.518113 1_555
O33 Sm6 2.518113 1_555
O34 Sm5 2.518113 1_555
O35 Sm7 2.518113 1_555
O36 Sm2 2.698535 1_455
O37 Sm4 2.698535 1_555
O38 Sm0 2.698535 1_665
O39 Sm1 2.698535 1_545
O40 Sm6 2.698535 1_555
O41 Sm1 2.698535 1_545
O42 Sm2 2.698535 1_555
O43 Sm7 2.698535 1_555
O44 Sm0 2.698535 1_566
O45 Sm3 2.698535 1_555
O46 Sm4 2.698535 1_554
O47 Sm5 2.698535 1_555
O48 Sm4 2.698535 1_554
O49 Sm5 2.698535 1_555
O50 Sm0 2.698535 1_656
O51 Sm3 2.698535 1_555
O52 Sm2 2.698535 1_455
O53 Sm7 2.698535 1_555
O54 Sm1 2.698535 1_555
O55 Sm6 2.698535 1_555
O56 Sm3 2.698535 1_555
O57 Sm6 2.698535 1_555
O58 Sm5 2.698535 1_555
O59 Sm7 2.698535 1_555
O84 Sm0 2.633634 1_555
O85 Sm1 2.633634 1_555
O86 Sm2 2.633634 1_555
O87 Sm0 2.633634 1_555
O88 Sm3 2.633634 1_555
O89 Sm4 2.633634 1_555
O90 Sm4 2.633634 1_555
O91 Sm5 2.633634 1_555
O92 Sm1 2.633634 1_555
O93 Sm6 2.633634 1_555
O94 Sm2 2.633634 1_555
O95 Sm7 2.633634 1_555
O96 Sm0 2.633634 1_555
O97 Sm3 2.633634 1_555
O98 Sm4 2.633634 1_555
O99 Sm5 2.633634 1_555
O100 Sm1 2.633634 1_555
O101 Sm6 2.633634 1_555
O102 Sm2 2.633634 1_555
O103 Sm7 2.633634 1_555
O104 Sm7 2.633634 1_555
O105 Sm5 2.633634 1_555
O106 Sm6 2.633634 1_555
O107 Sm3 2.633634 1_555
