# generated using pymatgen
data_Ag3SI
_symmetry_space_group_name_H-M   'P 1'
_cell_length_a   7.11559778
_cell_length_b   7.03282870
_cell_length_c   6.99099549
_cell_angle_alpha   60.97987425
_cell_angle_beta   59.80033117
_cell_angle_gamma   59.21979458
_symmetry_Int_Tables_number   1
_chemical_formula_structural   Ag3SI
_chemical_formula_sum   'Ag6 S2 I2'
_cell_volume   247.25855073
_cell_formula_units_Z   2
loop_
 _symmetry_equiv_pos_site_id
 _symmetry_equiv_pos_as_xyz
  1  'x, y, z'
loop_
 _atom_site_type_symbol
 _atom_site_label
 _atom_site_symmetry_multiplicity
 _atom_site_fract_x
 _atom_site_fract_y
 _atom_site_fract_z
 _atom_site_occupancy
  Ag  Ag0  1  0.94201800  0.94201800  0.55798300  1
  Ag  Ag1  1  0.45091900  0.05624500  0.94375500  1
  Ag  Ag2  1  0.95238600  0.95238600  0.04761400  1
  Ag  Ag3  1  0.44201800  0.44201800  0.05798300  1
  Ag  Ag4  1  0.05624500  0.45091900  0.54908100  1
  Ag  Ag5  1  0.55412600  0.55412600  0.44587400  1
  S  S0  1  0.25718000  0.75857600  0.24142400  1
  S  S1  1  0.75857600  0.25718000  0.74282000  1
  I  I0  1  0.99499200  0.49654100  0.00500800  1
  I  I1  1  0.49654100  0.99499200  0.50345900  1
loop_
_geom_bond_atom_site_label_1
_geom_bond_atom_site_label_2
_geom_bond_distance
_geom_bond_site_symmetry_2
Ag0 S1 2.531249 1_565
Ag0 S0 2.531258 1_655
Ag0 I0 3.193898 1_556
Ag0 I1 3.193906 1_555
Ag1 S0 2.540558 1_546
Ag1 S1 2.628540 1_555
Ag1 I1 3.147035 1_545
Ag1 I0 3.147035 1_456
Ag2 S1 2.556598 1_564
Ag2 S0 2.556598 1_655
Ag2 I0 3.209233 1_555
Ag2 I1 3.209233 1_555
Ag3 S0 2.531249 1_555
Ag3 S1 2.531258 1_554
Ag3 I1 3.193898 1_545
Ag3 I0 3.193906 1_455
Ag4 S1 2.540558 1_455
Ag4 S0 2.628540 1_555
Ag4 I0 3.147035 1_456
Ag4 I1 3.147035 1_545
Ag5 S0 2.551414 1_555
Ag5 S1 2.551414 1_555
Ag5 I1 3.112569 1_555
Ag5 I0 3.112569 1_555
