# generated using pymatgen
data_Ca3MnCSO25
_symmetry_space_group_name_H-M   'P 1'
_cell_length_a   10.34365612
_cell_length_b   10.34365612
_cell_length_c   10.49907100
_cell_angle_alpha   90.00000000
_cell_angle_beta   90.00000000
_cell_angle_gamma   120.00000075
_symmetry_Int_Tables_number   1
_chemical_formula_structural   Ca3MnCSO25
_chemical_formula_sum   'Ca6 Mn2 C2 S2 O50'
_cell_volume   972.81363354
_cell_formula_units_Z   2
loop_
 _symmetry_equiv_pos_site_id
 _symmetry_equiv_pos_as_xyz
  1  'x, y, z'
loop_
 _atom_site_type_symbol
 _atom_site_label
 _atom_site_symmetry_multiplicity
 _atom_site_fract_x
 _atom_site_fract_y
 _atom_site_fract_z
 _atom_site_occupancy
  Ca  Ca0  1  0.43671700  0.34259200  0.21427500  1
  Ca  Ca1  1  0.90587500  0.56328300  0.21427500  1
  Ca  Ca2  1  0.65740800  0.09412500  0.21427500  1
  Ca  Ca3  1  0.56328300  0.65740800  0.71427500  1
  Ca  Ca4  1  0.09412500  0.43671700  0.71427500  1
  Ca  Ca5  1  0.34259200  0.90587500  0.71427500  1
  Mn  Mn0  1  0.00000000  0.00000000  0.06536300  1
  Mn  Mn1  1  0.00000000  0.00000000  0.56536300  1
  C  C0  1  0.66666700  0.33333300  0.47541700  1
  C  C1  1  0.33333300  0.66666700  0.97541700  1
  S  S0  1  0.66666700  0.33333300  0.97782400  1
  S  S1  1  0.33333300  0.66666700  0.47782400  1
  O  O0  1  0.05443800  0.29695000  0.17582600  1
  O  O1  1  0.24251200  0.94556200  0.17582600  1
  O  O2  1  0.70305000  0.75748800  0.17582600  1
  O  O3  1  0.94556200  0.70305000  0.67582600  1
  O  O4  1  0.75748800  0.05443800  0.67582600  1
  O  O5  1  0.29695000  0.24251200  0.67582600  1
  O  O6  1  0.85925100  0.33066000  0.23922000  1
  O  O7  1  0.47140900  0.14074900  0.23922000  1
  O  O8  1  0.66934000  0.52859100  0.23922000  1
  O  O9  1  0.14074900  0.66934000  0.73922000  1
  O  O10  1  0.52859100  0.85925100  0.73922000  1
  O  O11  1  0.33066000  0.47140900  0.73922000  1
  O  O12  1  0.73899700  0.01851100  0.00613400  1
  O  O13  1  0.27951400  0.26100300  0.00613400  1
  O  O14  1  0.98148900  0.72048600  0.00613400  1
  O  O15  1  0.26100300  0.98148900  0.50613400  1
  O  O16  1  0.72048600  0.73899700  0.50613400  1
  O  O17  1  0.01851100  0.27951400  0.50613400  1
  O  O18  1  0.68817700  0.04749200  0.43334200  1
  O  O19  1  0.35931600  0.31182300  0.43334200  1
  O  O20  1  0.95250800  0.64068400  0.43334200  1
  O  O21  1  0.31182300  0.95250800  0.93334200  1
  O  O22  1  0.64068400  0.68817700  0.93334200  1
  O  O23  1  0.04749200  0.35931600  0.93334200  1
  O  O24  1  0.58073400  0.18953700  0.47576200  1
  O  O25  1  0.60880300  0.41926600  0.47576200  1
  O  O26  1  0.81046300  0.39119700  0.47576200  1
  O  O27  1  0.41926600  0.81046300  0.97576200  1
  O  O28  1  0.39119700  0.58073400  0.97576200  1
  O  O29  1  0.18953700  0.60880300  0.97576200  1
  O  O30  1  0.58117800  0.17607100  0.02956700  1
  O  O31  1  0.59489300  0.41882200  0.02956700  1
  O  O32  1  0.82392900  0.40510700  0.02956700  1
  O  O33  1  0.41882200  0.82392900  0.52956700  1
  O  O34  1  0.40510700  0.58117800  0.52956700  1
  O  O35  1  0.17607100  0.59489300  0.52956700  1
  O  O36  1  0.98817700  0.15566700  0.18948400  1
  O  O37  1  0.16748900  0.01182300  0.18948400  1
  O  O38  1  0.84433300  0.83251100  0.18948400  1
  O  O39  1  0.01182300  0.84433300  0.68948400  1
  O  O40  1  0.83251100  0.98817700  0.68948400  1
  O  O41  1  0.15566700  0.16748900  0.68948400  1
  O  O42  1  0.00879600  0.16511500  0.44905100  1
  O  O43  1  0.15632000  0.99120400  0.44905100  1
  O  O44  1  0.83488500  0.84368000  0.44905100  1
  O  O45  1  0.99120400  0.83488500  0.94905100  1
  O  O46  1  0.84368000  0.00879600  0.94905100  1
  O  O47  1  0.16511500  0.15632000  0.94905100  1
  O  O48  1  0.66666700  0.33333300  0.83950400  1
  O  O49  1  0.33333300  0.66666700  0.33950400  1
loop_
_geom_bond_atom_site_label_1
_geom_bond_atom_site_label_2
_geom_bond_distance
_geom_bond_site_symmetry_2
Ca0 O8 2.220456 1_555
Ca0 O7 2.303353 1_555
Ca0 O31 2.401931 1_555
Ca0 O19 2.403635 1_555
Ca0 O13 2.599899 1_555
Ca1 O6 2.220456 1_555
Ca1 O8 2.303353 1_555
Ca1 O32 2.401931 1_555
Ca1 O20 2.403636 1_555
Ca1 O14 2.599899 1_555
Ca2 O7 2.220456 1_555
Ca2 O6 2.303353 1_555
Ca2 O30 2.401931 1_555
Ca2 O18 2.403638 1_555
Ca2 O12 2.599899 1_555
Ca3 O11 2.220456 1_555
Ca3 O10 2.303353 1_555
Ca3 O34 2.401931 1_555
Ca3 O22 2.403635 1_555
Ca3 O16 2.599899 1_555
Ca4 O9 2.220456 1_555
Ca4 O11 2.303353 1_555
Ca4 O35 2.401931 1_555
Ca4 O23 2.403636 1_555
Ca4 O17 2.599899 1_555
Ca5 O10 2.220456 1_555
Ca5 O9 2.303353 1_555
Ca5 O33 2.401931 1_555
Ca5 O21 2.403638 1_555
Ca5 O15 2.599899 1_555
Mn0 O45 2.064228 1_444
Mn0 O47 2.064232 1_554
Mn0 O46 2.064236 1_454
Mn0 O37 2.121952 1_555
Mn0 O38 2.121956 1_445
Mn0 O36 2.121960 1_455
Mn1 O42 2.064228 1_555
Mn1 O44 2.064232 1_445
Mn1 O43 2.064236 1_545
Mn1 O40 2.121952 1_445
Mn1 O41 2.121956 1_555
Mn1 O39 2.121960 1_545
C0 O26 1.296265 1_555
C0 O24 1.296266 1_555
C0 O25 1.296274 1_555
C1 O29 1.296265 1_555
C1 O27 1.296266 1_555
C1 O28 1.296274 1_555
O0 O36 1.274498 1_455
O1 O37 1.274507 1_565
O2 O38 1.274498 1_555
O3 O39 1.274498 1_655
O4 O40 1.274507 1_545
O12 O46 1.284740 1_554
O13 O47 1.284745 1_554
O14 O45 1.284749 1_554
O15 O43 1.284740 1_555
O16 O44 1.284745 1_555
O17 O42 1.284749 1_555
O30 S0 1.511517 1_554
O31 S0 1.511525 1_554
O32 S0 1.511516 1_554
O33 S1 1.511517 1_555
O34 S1 1.511525 1_555
O35 S1 1.511516 1_555
O41 O5 1.274498 1_555
O48 S0 1.452232 1_555
O49 S1 1.452232 1_555
