# generated using pymatgen
data_MgFe8(O7F)2
_symmetry_space_group_name_H-M   'P 1'
_cell_length_a   6.98288940
_cell_length_b   7.40990098
_cell_length_c   5.65742454
_cell_angle_alpha   108.34888405
_cell_angle_beta   104.86637187
_cell_angle_gamma   78.43633576
_symmetry_Int_Tables_number   1
_chemical_formula_structural   MgFe8(O7F)2
_chemical_formula_sum   'Mg1 Fe8 O14 F2'
_cell_volume   266.25045384
_cell_formula_units_Z   1
loop_
 _symmetry_equiv_pos_site_id
 _symmetry_equiv_pos_as_xyz
  1  'x, y, z'
loop_
 _atom_site_type_symbol
 _atom_site_label
 _atom_site_symmetry_multiplicity
 _atom_site_fract_x
 _atom_site_fract_y
 _atom_site_fract_z
 _atom_site_occupancy
  Mg  Mg0  1  0.81487100  0.10694200  0.61746200  1
  Fe  Fe0  1  0.67920100  0.37987800  0.38954400  1
  Fe  Fe1  1  0.50257400  0.98229400  0.97245700  1
  Fe  Fe2  1  0.24136600  0.24767400  0.52205400  1
  Fe  Fe3  1  0.74906600  0.75137600  0.46964700  1
  Fe  Fe4  1  0.49738300  0.49488800  0.94856400  1
  Fe  Fe5  1  0.98976900  0.98547200  0.05926100  1
  Fe  Fe6  1  0.25161000  0.74321900  0.51190300  1
  Fe  Fe7  1  0.03116100  0.48092500  0.05060900  1
  O  O0  1  0.94936500  0.18645300  0.39083800  1
  O  O1  1  0.98354400  0.22755700  0.94073900  1
  O  O2  1  0.53722600  0.24733400  0.07739800  1
  O  O3  1  0.32381800  0.00755800  0.65605000  1
  O  O4  1  0.55442600  0.31044600  0.62000700  1
  O  O5  1  0.77893600  0.52720300  0.17212100  1
  O  O6  1  0.73069100  0.94257100  0.80908300  1
  O  O7  1  0.22553300  0.43265100  0.84548700  1
  O  O8  1  0.49373100  0.63345700  0.35204800  1
  O  O9  1  0.67251500  0.93491200  0.27947300  1
  O  O10  1  0.18768600  0.47819900  0.38452100  1
  O  O11  1  0.42603200  0.72724500  0.83626700  1
  O  O12  1  0.07664800  0.75522300  0.18167400  1
  O  O13  1  0.01620700  0.84558100  0.65760600  1
  F  F0  1  0.83260500  0.55154000  0.69527900  1
  F  F1  1  0.27810800  0.04717800  0.19085800  1
loop_
_geom_bond_atom_site_label_1
_geom_bond_atom_site_label_2
_geom_bond_distance
_geom_bond_site_symmetry_2
Mg0 O1 1.954102 1_555
Mg0 O0 2.046514 1_555
Mg0 O9 2.065771 1_545
Mg0 O6 2.109399 1_545
Mg0 O4 2.117052 1_555
Mg0 O13 2.190957 1_645
Fe0 O2 1.861727 1_555
Fe0 O4 1.977064 1_555
Fe0 O8 2.094589 1_555
Fe0 O0 2.128089 1_555
Fe0 O5 2.186232 1_555
Fe1 O2 1.910683 1_566
Fe1 O9 1.925521 1_556
Fe1 O11 1.930768 1_555
Fe1 O3 1.941177 1_565
Fe1 O6 1.968381 1_555
Fe2 O7 1.924339 1_555
Fe2 O10 2.023413 1_555
Fe2 O3 2.070360 1_555
Fe2 O0 2.072810 1_455
Fe2 O4 2.219473 1_555
Fe3 O9 1.904605 1_555
Fe3 O5 1.979113 1_555
Fe3 O8 2.008731 1_555
Fe3 O6 2.012942 1_555
Fe3 O13 2.033383 1_655
Fe4 O7 1.941623 1_555
Fe4 O11 1.949001 1_555
Fe4 O4 2.010929 1_555
Fe4 O5 2.060203 1_556
Fe4 O2 2.122880 1_556
Fe4 O8 2.193002 1_556
Fe5 O12 1.967709 1_655
Fe5 O6 2.002645 1_554
Fe5 O0 2.039753 1_565
Fe5 O1 2.092938 1_564
Fe5 O13 2.219822 1_654
Fe6 O13 1.938716 1_555
Fe6 O11 1.948591 1_555
Fe6 O10 1.967319 1_555
Fe6 O12 1.969958 1_555
Fe6 O3 1.983721 1_565
Fe6 O8 2.026833 1_555
Fe7 O1 1.852338 1_454
Fe7 O7 1.915477 1_554
Fe7 O10 1.928564 1_555
Fe7 O5 1.980639 1_455
Fe7 O12 1.992721 1_555
F0 Fe0 1.991866 1_555
F0 Fe3 2.150364 1_555
F0 Fe7 2.275626 1_656
F1 Fe2 2.031021 1_555
F1 Fe5 2.050087 1_445
F1 Fe1 2.128913 1_544
