# generated using pymatgen
data_Mg14SiSnO16
_symmetry_space_group_name_H-M   'P 1'
_cell_length_a   8.71991579
_cell_length_b   8.71991579
_cell_length_c   4.38864967
_cell_angle_alpha   90.00000000
_cell_angle_beta   90.00000000
_cell_angle_gamma   90.00000000
_symmetry_Int_Tables_number   1
_chemical_formula_structural   Mg14SiSnO16
_chemical_formula_sum   'Mg14 Si1 Sn1 O16'
_cell_volume   333.69945383
_cell_formula_units_Z   1
loop_
 _symmetry_equiv_pos_site_id
 _symmetry_equiv_pos_as_xyz
  1  'x, y, z'
loop_
 _atom_site_type_symbol
 _atom_site_label
 _atom_site_symmetry_multiplicity
 _atom_site_fract_x
 _atom_site_fract_y
 _atom_site_fract_z
 _atom_site_occupancy
  Mg  Mg0  1  0.00000000  0.50000000  0.00000000  1
  Mg  Mg1  1  0.50000000  0.00000000  0.00000000  1
  Mg  Mg2  1  0.00000000  0.25868206  0.50000000  1
  Mg  Mg3  1  0.00000000  0.74131794  0.50000000  1
  Mg  Mg4  1  0.50000000  0.24809607  0.50000000  1
  Mg  Mg5  1  0.50000000  0.75190393  0.50000000  1
  Mg  Mg6  1  0.25868206  -0.00000000  0.50000000  1
  Mg  Mg7  1  0.24809607  0.50000000  0.50000000  1
  Mg  Mg8  1  0.74131794  -0.00000000  0.50000000  1
  Mg  Mg9  1  0.75190393  0.50000000  0.50000000  1
  Mg  Mg10  1  0.25301305  0.25301305  0.00000000  1
  Mg  Mg11  1  0.25301305  0.74698695  -0.00000000  1
  Mg  Mg12  1  0.74698695  0.25301305  0.00000000  1
  Mg  Mg13  1  0.74698695  0.74698695  0.00000000  1
  Si  Si0  1  0.50000000  0.50000000  0.00000000  1
  Sn  Sn0  1  0.00000000  0.00000000  0.00000000  1
  O  O0  1  0.27062198  0.00000000  0.00000000  1
  O  O1  1  0.24254239  0.50000000  0.00000000  1
  O  O2  1  0.72937802  0.00000000  -0.00000000  1
  O  O3  1  0.75745761  0.50000000  0.00000000  1
  O  O4  1  0.25025109  0.25025109  0.50000000  1
  O  O5  1  0.25025109  0.74974891  0.50000000  1
  O  O6  1  0.74974891  0.25025109  0.50000000  1
  O  O7  1  0.74974891  0.74974891  0.50000000  1
  O  O8  1  0.00000000  0.00000000  0.50000000  1
  O  O9  1  0.00000000  0.50000000  0.50000000  1
  O  O10  1  0.50000000  0.00000000  0.50000000  1
  O  O11  1  0.50000000  0.50000000  0.50000000  1
  O  O12  1  0.00000000  0.27062198  -0.00000000  1
  O  O13  1  0.00000000  0.72937802  -0.00000000  1
  O  O14  1  0.50000000  0.24254239  0.00000000  1
  O  O15  1  0.50000000  0.75745761  0.00000000  1
loop_
_geom_bond_atom_site_label_1
_geom_bond_atom_site_label_2
_geom_bond_distance
_geom_bond_site_symmetry_2
Mg0 O13 2.000157 1_555
Mg0 O12 2.000157 1_555
Mg0 O1 2.114949 1_555
Mg0 O3 2.114949 1_455
Mg0 O9 2.194325 1_555
Mg0 O9 2.194325 1_554
Mg1 O2 2.000157 1_555
Mg1 O0 2.000157 1_555
Mg1 O15 2.114949 1_545
Mg1 O14 2.114949 1_555
Mg1 O10 2.194325 1_555
Mg1 O10 2.194325 1_554
Mg2 O9 2.104272 1_555
Mg2 O6 2.183406 1_455
Mg2 O4 2.183406 1_555
Mg2 O12 2.196793 1_556
Mg2 O12 2.196793 1_555
Mg2 O8 2.255686 1_555
Mg3 O9 2.104272 1_555
Mg3 O5 2.183406 1_555
Mg3 O7 2.183406 1_455
Mg3 O13 2.196793 1_556
Mg3 O13 2.196793 1_555
Mg3 O8 2.255686 1_565
Mg4 O10 2.163377 1_555
Mg4 O4 2.177871 1_555
Mg4 O6 2.177871 1_555
Mg4 O14 2.194859 1_556
Mg4 O14 2.194859 1_555
Mg4 O11 2.196581 1_555
Mg5 O10 2.163377 1_565
Mg5 O7 2.177871 1_555
Mg5 O5 2.177871 1_555
Mg5 O15 2.194859 1_556
Mg5 O15 2.194859 1_555
Mg5 O11 2.196581 1_555
Mg6 O10 2.104272 1_555
Mg6 O5 2.183406 1_545
Mg6 O4 2.183406 1_555
Mg6 O0 2.196793 1_556
Mg6 O0 2.196793 1_555
Mg6 O8 2.255686 1_555
Mg7 O9 2.163377 1_555
Mg7 O4 2.177871 1_555
Mg7 O5 2.177871 1_555
Mg7 O1 2.194859 1_555
Mg7 O1 2.194859 1_556
Mg7 O11 2.196581 1_555
Mg8 O10 2.104272 1_555
Mg8 O6 2.183406 1_555
Mg8 O7 2.183406 1_545
Mg8 O2 2.196793 1_555
Mg8 O2 2.196793 1_556
Mg8 O8 2.255686 1_655
Mg9 O9 2.163377 1_655
Mg9 O7 2.177871 1_555
Mg9 O6 2.177871 1_555
Mg9 O3 2.194859 1_555
Mg9 O3 2.194859 1_556
Mg9 O11 2.196581 1_555
Mg10 O1 2.155640 1_555
Mg10 O14 2.155640 1_555
Mg10 O4 2.194589 1_554
Mg10 O4 2.194589 1_555
Mg10 O12 2.211589 1_555
Mg10 O0 2.211589 1_555
Mg11 O15 2.155640 1_555
Mg11 O1 2.155640 1_555
Mg11 O5 2.194589 1_555
Mg11 O5 2.194589 1_554
Mg11 O0 2.211589 1_565
Mg11 O13 2.211589 1_555
Mg12 O3 2.155640 1_555
Mg12 O14 2.155640 1_555
Mg12 O6 2.194589 1_555
Mg12 O6 2.194589 1_554
Mg12 O12 2.211589 1_655
Mg12 O2 2.211589 1_555
Mg13 O15 2.155640 1_555
Mg13 O3 2.155640 1_555
Mg13 O7 2.194589 1_555
Mg13 O7 2.194589 1_554
Mg13 O2 2.211589 1_565
Mg13 O13 2.211589 1_655
O0 Sn0 2.359801 1_555
O1 Si0 2.245009 1_555
O2 Sn0 2.359801 1_655
O3 Si0 2.245009 1_555
O8 Sn0 2.194325 1_555
O8 Sn0 2.194325 1_556
O11 Si0 2.194325 1_556
O11 Si0 2.194325 1_555
O12 Sn0 2.359801 1_555
O13 Sn0 2.359801 1_565
O14 Si0 2.245009 1_555
O15 Si0 2.245009 1_555
