# generated using pymatgen
data_Te2W
_symmetry_space_group_name_H-M   'P 1'
_cell_length_a   3.56097030
_cell_length_b   3.56101260
_cell_length_c   24.72847543
_cell_angle_alpha   90.00186198
_cell_angle_beta   89.99942168
_cell_angle_gamma   119.99961692
_symmetry_Int_Tables_number   1
_chemical_formula_structural   Te2W
_chemical_formula_sum   'Te4 W2'
_cell_volume   271.56357159
_cell_formula_units_Z   2
loop_
 _symmetry_equiv_pos_site_id
 _symmetry_equiv_pos_as_xyz
  1  'x, y, z'
loop_
 _atom_site_type_symbol
 _atom_site_label
 _atom_site_symmetry_multiplicity
 _atom_site_fract_x
 _atom_site_fract_y
 _atom_site_fract_z
 _atom_site_occupancy
  Te  Te0  1  0.33339106  0.66679685  0.52384347  1
  Te  Te1  1  0.66663157  0.33323826  0.07795602  1
  Te  Te2  1  0.66663202  0.33327488  0.22308600  1
  Te  Te3  1  0.33332881  0.66665822  0.37878751  1
  W  W0  1  0.33331216  0.66661901  0.15051421  1
  W  W1  1  0.66670438  0.33341279  0.45141680  1
loop_
_geom_bond_atom_site_label_1
_geom_bond_atom_site_label_2
_geom_bond_distance
_geom_bond_site_symmetry_2
Te0 W1 2.726581 1_565
Te0 W1 2.726675 1_455
Te0 W1 2.726676 1_555
Te1 W0 2.728726 1_545
Te1 W0 2.728798 1_655
Te1 W0 2.728820 1_555
Te2 W0 2.728947 1_545
Te2 W0 2.729024 1_555
Te2 W0 2.729037 1_655
Te3 W1 2.729843 1_455
Te3 W1 2.729859 1_555
Te3 W1 2.730111 1_565
