# generated using pymatgen
data_KLiWO3
_symmetry_space_group_name_H-M   'P 1'
_cell_length_a   4.34283800
_cell_length_b   4.13809900
_cell_length_c   4.13809900
_cell_angle_alpha   90.00000000
_cell_angle_beta   90.00000000
_cell_angle_gamma   90.00000000
_symmetry_Int_Tables_number   1
_chemical_formula_structural   KLiWO3
_chemical_formula_sum   'K1 Li1 W1 O3'
_cell_volume   74.36616439
_cell_formula_units_Z   1
loop_
 _symmetry_equiv_pos_site_id
 _symmetry_equiv_pos_as_xyz
  1  'x, y, z'
loop_
 _atom_site_type_symbol
 _atom_site_label
 _atom_site_symmetry_multiplicity
 _atom_site_fract_x
 _atom_site_fract_y
 _atom_site_fract_z
 _atom_site_occupancy
  K  K0  1  0.50000000  0.50000000  0.50000000  1
  Li  Li0  1  0.00000000  0.50000000  0.50000000  1
  W  W0  1  0.00000000  0.00000000  0.00000000  1
  O  O0  1  0.50000000  0.00000000  0.00000000  1
  O  O1  1  0.00000000  0.50000000  0.00000000  1
  O  O2  1  0.00000000  0.00000000  0.50000000  1
loop_
_geom_bond_atom_site_label_1
_geom_bond_atom_site_label_2
_geom_bond_distance
_geom_bond_site_symmetry_2
K0 Li0 2.171419 1_555
K0 Li0 2.171419 1_655
K0 O0 2.926078 1_565
K0 O0 2.926078 1_556
K0 O0 2.926078 1_555
K0 O0 2.926078 1_566
K0 O1 2.999338 1_655
K0 O2 2.999338 1_665
K0 O2 2.999338 1_565
K0 O2 2.999338 1_655
K0 O1 2.999338 1_555
K0 O1 2.999338 1_556
K0 O2 2.999338 1_555
K0 O1 2.999338 1_656
Li0 O2 2.069050 1_565
Li0 O1 2.069050 1_555
Li0 O1 2.069050 1_556
Li0 O2 2.069050 1_555
O0 W0 2.171419 1_555
O0 W0 2.171419 1_655
O1 W0 2.069050 1_555
O1 W0 2.069050 1_565
O2 W0 2.069050 1_556
O2 W0 2.069050 1_555
