# generated using pymatgen
data_YEr(FeO3)2
_symmetry_space_group_name_H-M   'P 1'
_cell_length_a   5.32270400
_cell_length_b   5.63606300
_cell_length_c   7.70835600
_cell_angle_alpha   90.00000000
_cell_angle_beta   90.00000000
_cell_angle_gamma   90.00000000
_symmetry_Int_Tables_number   1
_chemical_formula_structural   YEr(FeO3)2
_chemical_formula_sum   'Y2 Er2 Fe4 O12'
_cell_volume   231.24370451
_cell_formula_units_Z   2
loop_
 _symmetry_equiv_pos_site_id
 _symmetry_equiv_pos_as_xyz
  1  'x, y, z'
loop_
 _atom_site_type_symbol
 _atom_site_label
 _atom_site_symmetry_multiplicity
 _atom_site_fract_x
 _atom_site_fract_y
 _atom_site_fract_z
 _atom_site_occupancy
  Y  Y0  1  0.72957100  0.06836500  0.00000000  1
  Y  Y1  1  0.27042900  0.56836500  0.00000000  1
  Er  Er0  1  0.76947200  0.93019900  0.50000000  1
  Er  Er1  1  0.23052800  0.43019900  0.50000000  1
  Fe  Fe0  1  0.25049400  0.99980800  0.74869000  1
  Fe  Fe1  1  0.74950600  0.49980800  0.25131000  1
  Fe  Fe2  1  0.25049400  0.99980800  0.25131000  1
  Fe  Fe3  1  0.74950600  0.49980800  0.74869000  1
  O  O0  1  0.86577500  0.45648100  0.00000000  1
  O  O1  1  0.13422500  0.95648100  0.00000000  1
  O  O2  1  0.62809000  0.54731700  0.50000000  1
  O  O3  1  0.37191000  0.04731700  0.50000000  1
  O  O4  1  0.55869300  0.80549400  0.80880400  1
  O  O5  1  0.44130700  0.30549400  0.19119600  1
  O  O6  1  0.94141700  0.19351700  0.31317300  1
  O  O7  1  0.05858300  0.69351700  0.68682700  1
  O  O8  1  0.94141700  0.19351700  0.68682700  1
  O  O9  1  0.05858300  0.69351700  0.31317300  1
  O  O10  1  0.55869300  0.80549400  0.19119600  1
  O  O11  1  0.44130700  0.30549400  0.80880400  1
loop_
_geom_bond_atom_site_label_1
_geom_bond_atom_site_label_2
_geom_bond_distance
_geom_bond_site_symmetry_2
Er0 O3 2.216667 1_565
Er0 O6 2.261431 1_565
Er0 O8 2.261431 1_565
Er0 O2 2.285398 1_555
Er0 O7 2.494288 1_655
Er0 O9 2.494288 1_655
Er0 O4 2.723757 1_555
Er0 O10 2.723757 1_555
Er1 O2 2.216667 1_555
Er1 O7 2.261431 1_555
Er1 O9 2.261431 1_555
Er1 O3 2.285398 1_555
Er1 O8 2.494288 1_455
Er1 O6 2.494288 1_455
Er1 O11 2.723757 1_555
Er1 O5 2.723757 1_555
Fe0 O4 2.026127 1_555
Fe0 O8 2.031198 1_465
Fe0 O3 2.040639 1_565
Fe0 O1 2.048248 1_556
Fe0 O11 2.052928 1_565
Fe0 O7 2.061761 1_555
Fe1 O5 2.026127 1_555
Fe1 O9 2.031198 1_655
Fe1 O2 2.040639 1_555
Fe1 O0 2.048248 1_555
Fe1 O10 2.052928 1_555
Fe1 O6 2.061761 1_555
Fe2 O10 2.026127 1_555
Fe2 O6 2.031198 1_465
Fe2 O3 2.040639 1_565
Fe2 O1 2.048248 1_555
Fe2 O5 2.052928 1_565
Fe2 O9 2.061761 1_555
Fe3 O11 2.026127 1_555
Fe3 O7 2.031198 1_655
Fe3 O2 2.040639 1_555
Fe3 O0 2.048248 1_556
Fe3 O4 2.052928 1_555
Fe3 O8 2.061761 1_555
O0 Y1 2.244264 1_655
O0 Y0 2.304454 1_555
O1 Y0 2.244264 1_465
O1 Y1 2.304454 1_555
O4 Y0 2.279116 1_566
O4 Y1 2.512465 1_556
O5 Y1 2.279116 1_555
O5 Y0 2.512465 1_555
O6 Y0 2.756200 1_555
O7 Y1 2.756200 1_556
O8 Y0 2.756200 1_556
O9 Y1 2.756200 1_555
O10 Y0 2.279116 1_565
O10 Y1 2.512465 1_555
O11 Y1 2.279116 1_556
O11 Y0 2.512465 1_556
