# generated using pymatgen
data_Sr3(CoN2)2
_symmetry_space_group_name_H-M   'P 1'
_cell_length_a   5.87917600
_cell_length_b   9.74359800
_cell_length_c   9.42289900
_cell_angle_alpha   90.00000000
_cell_angle_beta   90.00000000
_cell_angle_gamma   90.00000000
_symmetry_Int_Tables_number   1
_chemical_formula_structural   Sr3(CoN2)2
_chemical_formula_sum   'Sr12 Co8 N16'
_cell_volume   539.78443246
_cell_formula_units_Z   4
loop_
 _symmetry_equiv_pos_site_id
 _symmetry_equiv_pos_as_xyz
  1  'x, y, z'
loop_
 _atom_site_type_symbol
 _atom_site_label
 _atom_site_symmetry_multiplicity
 _atom_site_fract_x
 _atom_site_fract_y
 _atom_site_fract_z
 _atom_site_occupancy
  Sr  Sr0  1  0.60531300  0.15596900  0.41735700  1
  Sr  Sr1  1  0.89468700  0.84403100  0.41735700  1
  Sr  Sr2  1  0.60531300  0.34403100  0.08264300  1
  Sr  Sr3  1  0.89468700  0.65596900  0.08264300  1
  Sr  Sr4  1  0.39468700  0.84403100  0.58264300  1
  Sr  Sr5  1  0.10531300  0.15596900  0.58264300  1
  Sr  Sr6  1  0.39468700  0.65596900  0.91735700  1
  Sr  Sr7  1  0.10531300  0.34403100  0.91735700  1
  Sr  Sr8  1  0.75000000  0.50000000  0.40047300  1
  Sr  Sr9  1  0.75000000  0.00000000  0.09952700  1
  Sr  Sr10  1  0.25000000  0.50000000  0.59952700  1
  Sr  Sr11  1  0.25000000  0.00000000  0.90047300  1
  Co  Co0  1  0.75000000  0.50000000  0.73278800  1
  Co  Co1  1  0.75000000  0.00000000  0.76721200  1
  Co  Co2  1  0.25000000  0.50000000  0.26721200  1
  Co  Co3  1  0.25000000  0.00000000  0.23278800  1
  Co  Co4  1  0.65000000  0.25000000  0.75000000  1
  Co  Co5  1  0.85000000  0.75000000  0.75000000  1
  Co  Co6  1  0.35000000  0.75000000  0.25000000  1
  Co  Co7  1  0.15000000  0.25000000  0.25000000  1
  N  N0  1  0.85327100  0.35268600  0.62786000  1
  N  N1  1  0.64672900  0.64731400  0.62786000  1
  N  N2  1  0.85327100  0.14731400  0.87214000  1
  N  N3  1  0.64672900  0.85268600  0.87214000  1
  N  N4  1  0.14672900  0.64731400  0.37214000  1
  N  N5  1  0.35327100  0.35268600  0.37214000  1
  N  N6  1  0.14672900  0.85268600  0.12786000  1
  N  N7  1  0.35327100  0.14731400  0.12786000  1
  N  N8  1  0.50355700  0.40675000  0.82740800  1
  N  N9  1  0.99644300  0.59325000  0.82740800  1
  N  N10  1  0.50355700  0.09325000  0.67259200  1
  N  N11  1  0.99644300  0.90675000  0.67259200  1
  N  N12  1  0.49644300  0.59325000  0.17259200  1
  N  N13  1  0.00355700  0.40675000  0.17259200  1
  N  N14  1  0.49644300  0.90675000  0.32740800  1
  N  N15  1  0.00355700  0.09325000  0.32740800  1
loop_
_geom_bond_atom_site_label_1
_geom_bond_atom_site_label_2
_geom_bond_distance
_geom_bond_site_symmetry_2
Co0 N1 1.845668 1_555
Co0 N0 1.845668 1_555
Co0 N8 1.928662 1_555
Co0 N9 1.928662 1_555
Co1 N2 1.845668 1_555
Co1 N3 1.845668 1_545
Co1 N11 1.928662 1_545
Co1 N10 1.928662 1_555
Co2 N4 1.845668 1_555
Co2 N5 1.845668 1_555
Co2 N12 1.928662 1_555
Co2 N13 1.928662 1_555
Co3 N7 1.845668 1_555
Co3 N6 1.845668 1_545
Co3 N14 1.928662 1_545
Co3 N15 1.928662 1_555
Co4 N8 1.898939 1_555
Co4 N10 1.898939 1_555
Co4 N0 1.937484 1_555
Co4 N2 1.937484 1_555
Co5 N9 1.898939 1_555
Co5 N11 1.898939 1_555
Co5 N3 1.937484 1_555
Co5 N1 1.937484 1_555
Co6 N12 1.898939 1_555
Co6 N14 1.898939 1_555
Co6 N6 1.937484 1_555
Co6 N4 1.937484 1_555
Co7 N15 1.898939 1_555
Co7 N13 1.898939 1_555
Co7 N7 1.937484 1_555
Co7 N5 1.937484 1_555
N0 Sr5 2.459904 1_655
N0 Sr8 2.649498 1_555
N0 Sr10 2.751697 1_655
N0 Sr7 3.105525 1_655
N0 Sr0 3.119851 1_555
N1 Sr4 2.459904 1_555
N1 Sr8 2.649498 1_555
N1 Sr10 2.751697 1_555
N1 Sr6 3.105525 1_555
N1 Sr1 3.119851 1_555
N2 Sr7 2.459904 1_655
N2 Sr9 2.649498 1_556
N2 Sr11 2.751697 1_655
N2 Sr5 3.105525 1_655
N2 Sr2 3.119851 1_556
N3 Sr6 2.459904 1_555
N3 Sr9 2.649498 1_566
N3 Sr11 2.751697 1_565
N3 Sr4 3.105525 1_555
N3 Sr3 3.119851 1_556
N4 Sr1 2.459904 1_455
N4 Sr10 2.649498 1_555
N4 Sr8 2.751697 1_455
N4 Sr3 3.105525 1_455
N4 Sr4 3.119851 1_555
N5 Sr0 2.459904 1_555
N5 Sr10 2.649498 1_555
N5 Sr8 2.751697 1_555
N5 Sr2 3.105525 1_555
N5 Sr5 3.119851 1_555
N6 Sr3 2.459904 1_455
N6 Sr11 2.649498 1_564
N6 Sr9 2.751697 1_465
N6 Sr1 3.105525 1_455
N6 Sr6 3.119851 1_554
N7 Sr2 2.459904 1_555
N7 Sr11 2.649498 1_554
N7 Sr9 2.751697 1_555
N7 Sr0 3.105525 1_555
N7 Sr7 3.119851 1_554
N8 Sr2 2.552573 1_556
N8 Sr7 2.563933 1_555
N8 Sr6 2.650409 1_555
N8 Sr10 2.767424 1_555
N9 Sr3 2.552573 1_556
N9 Sr6 2.563933 1_655
N9 Sr7 2.650409 1_655
N9 Sr10 2.767424 1_655
N10 Sr0 2.552573 1_555
N10 Sr5 2.563933 1_555
N10 Sr4 2.650409 1_545
N10 Sr11 2.767424 1_555
N11 Sr1 2.552573 1_555
N11 Sr4 2.563933 1_655
N11 Sr5 2.650409 1_665
N11 Sr11 2.767424 1_665
N12 Sr6 2.552573 1_554
N12 Sr3 2.563933 1_555
N12 Sr2 2.650409 1_555
N12 Sr8 2.767424 1_555
N13 Sr7 2.552573 1_554
N13 Sr2 2.563933 1_455
N13 Sr3 2.650409 1_455
N13 Sr8 2.767424 1_455
N14 Sr4 2.552573 1_555
N14 Sr1 2.563933 1_555
N14 Sr0 2.650409 1_565
N14 Sr9 2.767424 1_565
N15 Sr5 2.552573 1_555
N15 Sr0 2.563933 1_455
N15 Sr1 2.650409 1_445
N15 Sr9 2.767424 1_455
