# generated using pymatgen
data_YbNiGe
_symmetry_space_group_name_H-M   'P 1'
_cell_length_a   4.27223700
_cell_length_b   6.92045800
_cell_length_c   7.00346800
_cell_angle_alpha   90.00000000
_cell_angle_beta   90.00000000
_cell_angle_gamma   90.00000000
_symmetry_Int_Tables_number   1
_chemical_formula_structural   YbNiGe
_chemical_formula_sum   'Yb4 Ni4 Ge4'
_cell_volume   207.06339139
_cell_formula_units_Z   4
loop_
 _symmetry_equiv_pos_site_id
 _symmetry_equiv_pos_as_xyz
  1  'x, y, z'
loop_
 _atom_site_type_symbol
 _atom_site_label
 _atom_site_symmetry_multiplicity
 _atom_site_fract_x
 _atom_site_fract_y
 _atom_site_fract_z
 _atom_site_occupancy
  Yb  Yb0  1  0.25000000  0.01762200  0.80435900  1
  Yb  Yb1  1  0.25000000  0.51762200  0.69564100  1
  Yb  Yb2  1  0.75000000  0.98237800  0.19564100  1
  Yb  Yb3  1  0.75000000  0.48237800  0.30435900  1
  Ni  Ni0  1  0.25000000  0.81137100  0.40955100  1
  Ni  Ni1  1  0.25000000  0.31137100  0.09044900  1
  Ni  Ni2  1  0.75000000  0.18862900  0.59044900  1
  Ni  Ni3  1  0.75000000  0.68862900  0.90955100  1
  Ge  Ge0  1  0.25000000  0.18402300  0.41505900  1
  Ge  Ge1  1  0.25000000  0.68402300  0.08494100  1
  Ge  Ge2  1  0.75000000  0.81597700  0.58494100  1
  Ge  Ge3  1  0.75000000  0.31597700  0.91505900  1
loop_
_geom_bond_atom_site_label_1
_geom_bond_atom_site_label_2
_geom_bond_distance
_geom_bond_site_symmetry_2
Ni0 Yb1 2.854311 1_555
Ni0 Yb2 2.864941 1_455
Ni0 Yb2 2.864941 1_555
Ni0 Yb0 3.111703 1_565
Ni0 Yb3 3.207722 1_555
Ni0 Yb3 3.207722 1_455
Ni1 Yb0 2.854311 1_554
Ni1 Yb3 2.864941 1_555
Ni1 Yb3 2.864941 1_455
Ni1 Yb1 3.111703 1_554
Ni1 Yb2 3.207722 1_545
Ni1 Yb2 3.207722 1_445
Ni2 Yb3 2.854311 1_555
Ni2 Yb0 2.864941 1_555
Ni2 Yb0 2.864941 1_655
Ni2 Yb2 3.111703 1_545
Ni2 Yb1 3.207722 1_655
Ni2 Yb1 3.207722 1_555
Ni3 Yb2 2.854311 1_556
Ni3 Yb1 2.864941 1_655
Ni3 Yb1 2.864941 1_555
Ni3 Yb3 3.111703 1_556
Ni3 Yb0 3.207722 1_665
Ni3 Yb0 3.207722 1_565
Ge0 Ni1 2.438243 1_555
Ge0 Ni2 2.464312 1_555
Ge0 Ni2 2.464312 1_455
Ge0 Ni0 2.579211 1_545
Ge0 Yb0 2.959670 1_555
Ge0 Yb2 2.978550 1_445
Ge0 Yb2 2.978550 1_545
Ge0 Yb1 3.031718 1_555
Ge0 Yb3 3.070387 1_555
Ge0 Yb3 3.070387 1_455
Ge1 Ni0 2.438243 1_555
Ge1 Ni3 2.464312 1_554
Ge1 Ni3 2.464312 1_454
Ge1 Ni1 2.579211 1_555
Ge1 Yb1 2.959670 1_554
Ge1 Yb3 2.978550 1_455
Ge1 Yb3 2.978550 1_555
Ge1 Yb0 3.031718 1_564
Ge1 Yb2 3.070387 1_455
Ge1 Yb2 3.070387 1_555
Ge2 Ni3 2.438243 1_555
Ge2 Ni0 2.464312 1_655
Ge2 Ni0 2.464312 1_555
Ge2 Ni2 2.579211 1_565
Ge2 Yb2 2.959670 1_555
Ge2 Yb0 2.978550 1_565
Ge2 Yb0 2.978550 1_665
Ge2 Yb3 3.031718 1_555
Ge2 Yb1 3.070387 1_655
Ge2 Yb1 3.070387 1_555
Ge3 Ni2 2.438243 1_555
Ge3 Ni1 2.464312 1_656
Ge3 Ni1 2.464312 1_556
Ge3 Ni3 2.579211 1_555
Ge3 Yb3 2.959670 1_556
Ge3 Yb1 2.978550 1_655
Ge3 Yb1 2.978550 1_555
Ge3 Yb2 3.031718 1_546
Ge3 Yb0 3.070387 1_555
Ge3 Yb0 3.070387 1_655
