# generated using pymatgen
data_Tb2NiGe6
_symmetry_space_group_name_H-M   'P 1'
_cell_length_a   4.02463800
_cell_length_b   4.05977900
_cell_length_c   10.89930014
_cell_angle_alpha   90.00000000
_cell_angle_beta   100.63946089
_cell_angle_gamma   90.00000000
_symmetry_Int_Tables_number   1
_chemical_formula_structural   Tb2NiGe6
_chemical_formula_sum   'Tb2 Ni1 Ge6'
_cell_volume   175.02363485
_cell_formula_units_Z   1
loop_
 _symmetry_equiv_pos_site_id
 _symmetry_equiv_pos_as_xyz
  1  'x, y, z'
loop_
 _atom_site_type_symbol
 _atom_site_label
 _atom_site_symmetry_multiplicity
 _atom_site_fract_x
 _atom_site_fract_y
 _atom_site_fract_z
 _atom_site_occupancy
  Tb  Tb0  1  0.77709900  0.50000000  0.55419800  1
  Tb  Tb1  1  0.11387800  0.50000000  0.22775600  1
  Ni  Ni0  1  0.55542000  0.00000000  0.11084000  1
  Ge  Ge0  1  0.49872200  0.50000000  0.99744400  1
  Ge  Ge1  1  0.38207900  0.50000000  0.76415700  1
  Ge  Ge2  1  0.99852500  0.00000000  0.99704900  1
  Ge  Ge3  1  0.88133400  0.00000000  0.76266700  1
  Ge  Ge4  1  0.66291000  0.00000000  0.32582100  1
  Ge  Ge5  1  0.23703400  0.00000000  0.47406900  1
loop_
_geom_bond_atom_site_label_1
_geom_bond_atom_site_label_2
_geom_bond_distance
_geom_bond_site_symmetry_2
Ni0 Tb1 3.120637 1_655
Ni0 Tb1 3.120637 1_645
Ni0 Tb1 3.120637 1_555
Ni0 Tb1 3.120637 1_545
Ge0 Ni0 2.365570 1_566
Ge0 Ni0 2.365570 1_556
Ge0 Ge1 2.498953 1_555
Ge0 Ge2 2.858302 1_455
Ge0 Ge2 2.858302 1_465
Ge0 Ge2 2.858305 1_565
Ge0 Ge2 2.858305 1_555
Ge0 Tb1 3.183698 1_656
Ge0 Tb1 3.183698 1_556
Ge1 Ge3 2.858345 1_465
Ge1 Ge3 2.858345 1_455
Ge1 Ge3 2.858345 1_555
Ge1 Ge3 2.858345 1_565
Ge1 Tb0 3.017899 1_555
Ge1 Tb0 3.017901 1_455
Ge2 Ni0 2.352698 1_656
Ge2 Ni0 2.352701 1_556
Ge2 Ge3 2.510682 1_555
Ge2 Tb1 3.198102 1_656
Ge2 Tb1 3.198102 1_646
Ge3 Tb0 3.017815 1_555
Ge3 Tb0 3.017815 1_545
Ge4 Ni0 2.302860 1_555
Ge4 Ge5 2.563443 1_655
Ge4 Ge5 2.563443 1_555
Ge4 Tb1 3.045217 1_545
Ge4 Tb1 3.045217 1_555
Ge4 Tb1 3.045220 1_645
Ge4 Tb1 3.045220 1_655
Ge4 Tb0 3.178854 1_555
Ge4 Tb0 3.178854 1_545
Ge5 Tb0 2.984395 1_455
Ge5 Tb0 2.984395 1_445
Ge5 Tb0 2.984397 1_555
Ge5 Tb0 2.984397 1_545
Ge5 Tb1 3.328973 1_555
Ge5 Tb1 3.328973 1_545
