# generated using pymatgen
data_GaN
_symmetry_space_group_name_H-M   'P 1'
_cell_length_a   11.76147884
_cell_length_b   11.53062086
_cell_length_c   11.58578427
_cell_angle_alpha   93.15178437
_cell_angle_beta   92.07933052
_cell_angle_gamma   90.28501385
_symmetry_Int_Tables_number   1
_chemical_formula_structural   GaN
_chemical_formula_sum   'Ga50 N50'
_cell_volume   1567.78315714
_cell_formula_units_Z   50
loop_
 _symmetry_equiv_pos_site_id
 _symmetry_equiv_pos_as_xyz
  1  'x, y, z'
loop_
 _atom_site_type_symbol
 _atom_site_label
 _atom_site_symmetry_multiplicity
 _atom_site_fract_x
 _atom_site_fract_y
 _atom_site_fract_z
 _atom_site_occupancy
  Ga  Ga0  1  0.74626861  0.98745207  0.43173587  1
  Ga  Ga1  1  0.28404616  0.22064116  0.39768436  1
  Ga  Ga2  1  0.97967566  0.22187042  0.68523563  1
  Ga  Ga3  1  0.64654429  0.71636651  0.41199737  1
  Ga  Ga4  1  0.41966294  0.39306986  0.16930199  1
  Ga  Ga5  1  0.82412694  0.67901822  0.66678010  1
  Ga  Ga6  1  0.69662898  0.78116339  0.93794530  1
  Ga  Ga7  1  0.85879320  0.66443699  0.44959855  1
  Ga  Ga8  1  0.65884941  0.36091377  0.33458889  1
  Ga  Ga9  1  0.15822911  0.44879749  0.96254262  1
  Ga  Ga10  1  0.91931973  0.01890974  0.74699697  1
  Ga  Ga11  1  0.20209236  0.90239966  0.12748243  1
  Ga  Ga12  1  0.65989390  0.51998364  0.52399964  1
  Ga  Ga13  1  0.70025726  0.37230159  0.04438211  1
  Ga  Ga14  1  0.09500676  0.51821371  0.37380466  1
  Ga  Ga15  1  0.28123427  0.56979926  0.75703712  1
  Ga  Ga16  1  0.81101855  0.10201604  0.19620017  1
  Ga  Ga17  1  0.63787895  0.56791570  0.16369355  1
  Ga  Ga18  1  0.88188141  0.62748002  0.11318953  1
  Ga  Ga19  1  0.08025008  0.92534542  0.85365554  1
  Ga  Ga20  1  0.07089223  0.02542871  0.34179719  1
  Ga  Ga21  1  0.36042957  0.53824488  0.02963777  1
  Ga  Ga22  1  0.89305233  0.40123141  0.26947464  1
  Ga  Ga23  1  0.44238889  0.76419565  0.18165715  1
  Ga  Ga24  1  0.12207551  0.56910964  0.60600885  1
  Ga  Ga25  1  0.42305526  0.06135204  0.46917585  1
  Ga  Ga26  1  0.32980636  0.11056705  0.18526568  1
  Ga  Ga27  1  0.98859891  0.78859847  0.35093783  1
  Ga  Ga28  1  0.10575516  0.80560327  0.57598941  1
  Ga  Ga29  1  0.75451361  0.20608569  0.80885424  1
  Ga  Ga30  1  0.16645031  0.34548191  0.15978004  1
  Ga  Ga31  1  0.57193732  0.64136655  0.69843671  1
  Ga  Ga32  1  0.39712089  0.76750732  0.87303341  1
  Ga  Ga33  1  0.19760024  0.71051175  0.94113198  1
  Ga  Ga34  1  0.57160291  0.88802492  0.51996811  1
  Ga  Ga35  1  0.29078815  0.96821831  0.89091111  1
  Ga  Ga36  1  0.66950371  0.91688180  0.71677595  1
  Ga  Ga37  1  0.54210191  0.63939287  0.98334517  1
  Ga  Ga38  1  0.32627979  0.80168520  0.62344205  1
  Ga  Ga39  1  0.97539957  0.84606429  0.10152616  1
  Ga  Ga40  1  0.72953334  0.06467905  0.99258277  1
  Ga  Ga41  1  0.70591939  0.84932635  0.17138718  1
  Ga  Ga42  1  0.07163795  0.24338015  0.40686327  1
  Ga  Ga43  1  0.02361303  0.41684926  0.79240525  1
  Ga  Ga44  1  0.47326894  0.90935858  0.04024675  1
  Ga  Ga45  1  0.16578705  0.64675759  0.21334596  1
  Ga  Ga46  1  0.83514769  0.18698212  0.44342825  1
  Ga  Ga47  1  0.27789684  0.88034536  0.37322660  1
  Ga  Ga48  1  0.93527055  0.44684896  0.55617191  1
  Ga  Ga49  1  0.80308057  0.41269851  0.77130403  1
  N  N0  1  0.39212706  0.52686769  0.36703815  1
  N  N1  1  0.92051041  0.59735096  0.89728258  1
  N  N2  1  0.64036473  0.22274271  0.62954565  1
  N  N3  1  0.95601630  0.27685448  0.52668515  1
  N  N4  1  0.12010819  0.87543407  0.42093812  1
  N  N5  1  0.20086668  0.59660527  0.05674533  1
  N  N6  1  0.05717846  0.35673685  0.28305571  1
  N  N7  1  0.79263960  0.49876766  0.63439205  1
  N  N8  1  0.49039923  0.05592137  0.76987791  1
  N  N9  1  0.67322522  0.45905619  0.87827010  1
  N  N10  1  0.92213869  0.51354277  0.40281148  1
  N  N11  1  0.60633184  0.72113370  0.24560236  1
  N  N12  1  0.45118303  0.20884102  0.97258505  1
  N  N13  1  0.81885677  0.77479994  0.06334462  1
  N  N14  1  0.30396630  0.47163758  0.88173086  1
  N  N15  1  0.47646636  0.29610383  0.94435173  1
  N  N16  1  0.57603876  0.14095172  0.30029335  1
  N  N17  1  0.89582631  0.92228628  0.50169952  1
  N  N18  1  0.31543811  0.27356712  0.22935295  1
  N  N19  1  0.80539464  0.48712420  0.14296115  1
  N  N20  1  0.23380849  0.25428689  0.79539717  1
  N  N21  1  0.24610400  0.19283063  0.86651083  1
  N  N22  1  0.37719245  0.37436204  0.62096153  1
  N  N23  1  0.00650415  0.70925148  0.19643552  1
  N  N24  1  0.15188680  0.11032085  0.60483448  1
  N  N25  1  0.28154096  0.78107725  0.23020547  1
  N  N26  1  0.69935884  0.75749884  0.76645547  1
  N  N27  1  0.39732470  0.88939029  0.50429077  1
  N  N28  1  0.22847820  0.05699452  0.62772059  1
  N  N29  1  0.02806646  0.14230679  0.97405601  1
  N  N30  1  0.94188081  0.91451075  0.59607858  1
  N  N31  1  0.09849135  0.83591509  0.98819520  1
  N  N32  1  0.45196001  0.12636301  0.71809242  1
  N  N33  1  0.79733207  0.26235254  0.29722878  1
  N  N34  1  0.30251376  0.04467278  0.32983894  1
  N  N35  1  0.06261835  0.96938372  0.18466672  1
  N  N36  1  0.60242287  0.53285451  0.85205328  1
  N  N37  1  0.97975931  0.20797995  0.02695580  1
  N  N38  1  0.91849981  0.67537720  0.83831266  1
  N  N39  1  0.76439921  0.03188579  0.81405402  1
  N  N40  1  0.77642295  0.96272489  0.27293678  1
  N  N41  1  0.38888085  0.58027327  0.45041670  1
  N  N42  1  0.67109450  0.23614227  0.53923833  1
  N  N43  1  0.32366399  0.99920808  0.06092873  1
  N  N44  1  0.58707956  0.40315108  0.18601989  1
  N  N45  1  0.41112860  0.68952025  0.71868232  1
  N  N46  1  0.63628663  0.92798022  0.02474138  1
  N  N47  1  0.52797601  0.12001651  0.21499642  1
  N  N48  1  0.47137867  0.38585823  0.63358485  1
  N  N49  1  0.71108236  0.22694260  0.96389782  1
loop_
_geom_bond_atom_site_label_1
_geom_bond_atom_site_label_2
_geom_bond_distance
_geom_bond_site_symmetry_2
Ga0 N40 1.892791 1_555
Ga0 N17 2.071825 1_555
Ga1 N18 2.119697 1_555
Ga1 N34 2.150204 1_555
Ga2 N3 1.986563 1_555
Ga2 N24 2.579859 1_655
Ga3 N11 1.972038 1_555
Ga4 N44 1.973784 1_555
Ga4 N18 2.008968 1_555
Ga5 N26 2.080193 1_555
Ga5 N7 2.119954 1_555
Ga5 N38 2.243405 1_555
Ga6 N26 1.992019 1_555
Ga6 N13 2.010970 1_556
Ga6 N46 2.063334 1_556
Ga7 N10 1.953119 1_555
Ga8 N44 1.975702 1_555
Ga8 N33 2.036485 1_555
Ga9 N14 2.005773 1_555
Ga9 N5 2.023510 1_556
Ga10 N39 2.009641 1_555
Ga10 N30 2.093367 1_545
Ga11 N35 1.939503 1_555
Ga11 N43 2.010940 1_555
Ga11 N25 2.088524 1_555
Ga11 N31 2.094900 1_554
Ga12 N7 2.006628 1_555
Ga13 N49 1.879850 1_554
Ga13 N19 2.073981 1_555
Ga13 N44 2.165716 1_555
Ga13 N9 2.230708 1_554
Ga14 N10 2.073684 1_455
Ga14 N6 2.124315 1_555
Ga14 Ga24 2.728678 1_555
Ga15 N14 1.895910 1_555
Ga15 N45 2.129057 1_555
Ga15 Ga24 2.515273 1_555
Ga16 N40 1.926745 1_545
Ga16 N33 2.143043 1_555
Ga17 N11 2.001791 1_555
Ga17 N44 2.021691 1_555
Ga17 N19 2.198941 1_555
Ga18 N19 1.901803 1_555
Ga18 N23 1.936828 1_655
Ga18 N13 1.964141 1_555
Ga18 N1 2.563757 1_554
Ga19 N31 1.921914 1_555
Ga20 N35 1.896941 1_545
Ga20 N4 2.076752 1_545
Ga21 N14 1.932611 1_554
Ga21 N5 2.026216 1_555
Ga22 N10 1.979345 1_555
Ga22 N33 2.000039 1_555
Ga22 N6 2.002743 1_655
Ga22 N19 2.062132 1_555
Ga23 N25 2.000512 1_555
Ga23 N11 2.111805 1_555
Ga24 Ga48 2.633560 1_455
Ga24 Ga28 2.774626 1_555
Ga24 Ga43 3.108900 1_555
Ga25 N27 2.068904 1_545
Ga25 N34 2.109528 1_555
Ga26 N43 1.875435 1_545
Ga26 N34 1.913762 1_555
Ga26 N18 1.930235 1_555
Ga26 N47 2.344800 1_555
Ga27 N4 1.963914 1_655
Ga27 N23 1.983638 1_655
Ga27 N17 2.544940 1_555
Ga28 N4 2.020782 1_555
Ga28 N30 2.317437 1_455
Ga29 N49 1.888325 1_555
Ga29 N39 2.016650 1_555
Ga29 N2 2.449310 1_555
Ga30 N6 1.955234 1_555
Ga30 N18 2.096046 1_555
Ga31 N45 1.992193 1_555
Ga31 N26 2.106761 1_555
Ga31 N36 2.250488 1_555
Ga32 N45 1.969705 1_555
Ga33 N5 1.926378 1_556
Ga33 N31 1.929544 1_555
Ga34 N27 2.051441 1_555
Ga35 N43 2.005796 1_556
Ga35 N21 2.673401 1_565
Ga36 N26 1.984971 1_555
Ga36 N39 2.001009 1_565
Ga37 N36 2.051279 1_555
Ga38 N27 1.963521 1_555
Ga38 N45 1.993999 1_555
Ga39 N35 1.940430 1_655
Ga39 N31 1.989076 1_654
Ga39 N23 1.999719 1_655
Ga39 N13 2.036347 1_555
Ga40 N49 1.930120 1_555
Ga40 N46 1.975631 1_546
Ga40 N39 2.136935 1_555
Ga41 N40 1.879041 1_555
Ga41 N13 2.020766 1_555
Ga41 N46 2.110860 1_555
Ga41 N11 2.119382 1_555
Ga42 N6 1.996388 1_555
Ga42 N3 2.002183 1_455
Ga43 N1 2.670705 1_455
Ga44 N46 1.944136 1_555
Ga44 N43 2.061139 1_555
Ga45 N5 1.933339 1_555
Ga45 N23 2.017324 1_555
Ga45 N25 2.053502 1_555
Ga46 N3 1.949661 1_555
Ga46 N33 1.983236 1_555
Ga46 N42 2.318105 1_555
Ga47 N4 1.956963 1_555
Ga47 N25 1.963356 1_555
Ga47 N34 2.009132 1_565
Ga47 N27 2.028805 1_555
Ga48 N10 1.975801 1_555
Ga48 N3 1.988862 1_555
Ga48 N7 2.013577 1_555
Ga49 N7 1.917372 1_555
Ga49 N9 2.055919 1_555
N0 N41 1.118629 1_555
N1 N38 1.159057 1_555
N2 N42 1.137483 1_555
N12 N15 1.117196 1_555
N16 N47 1.134151 1_555
N17 N30 1.210525 1_555
N20 N21 1.121814 1_555
N22 N48 1.118376 1_555
N24 N28 1.125161 1_555
N29 N37 1.118206 1_456
N32 N8 1.123232 1_555
N36 N9 1.235691 1_555
