# generated using pymatgen
data_NdHfO14
_symmetry_space_group_name_H-M   'P 1'
_cell_length_a   7.62017441
_cell_length_b   7.62017441
_cell_length_c   7.62017441
_cell_angle_alpha   60.00000000
_cell_angle_beta   60.00000000
_cell_angle_gamma   60.00000000
_symmetry_Int_Tables_number   1
_chemical_formula_structural   NdHfO14
_chemical_formula_sum   'Nd2 Hf2 O28'
_cell_volume   312.88139339
_cell_formula_units_Z   2
loop_
 _symmetry_equiv_pos_site_id
 _symmetry_equiv_pos_as_xyz
  1  'x, y, z'
loop_
 _atom_site_type_symbol
 _atom_site_label
 _atom_site_symmetry_multiplicity
 _atom_site_fract_x
 _atom_site_fract_y
 _atom_site_fract_z
 _atom_site_occupancy
  Nd  Nd0  1  0.00000000  0.00000000  0.00000000  1
  Nd  Nd1  1  0.75000000  0.75000000  0.75000000  1
  Hf  Hf0  1  0.50000000  0.50000000  0.50000000  1
  Hf  Hf1  1  0.25000000  0.25000000  0.25000000  1
  O  O0  1  0.87500000  0.87500000  0.87500000  1
  O  O1  1  0.37500000  0.87500000  0.87500000  1
  O  O2  1  0.87500000  0.37500000  0.87500000  1
  O  O3  1  0.87500000  0.87500000  0.37500000  1
  O  O4  1  0.51700400  0.51700400  0.18090200  1
  O  O5  1  0.78509100  0.18090200  0.51700400  1
  O  O6  1  0.18090200  0.78509100  0.51700400  1
  O  O7  1  0.51700400  0.18090200  0.51700400  1
  O  O8  1  0.96490900  0.23299600  0.56909800  1
  O  O9  1  0.23299600  0.23299600  0.56909800  1
  O  O10  1  0.51700400  0.51700400  0.78509100  1
  O  O11  1  0.18090200  0.51700400  0.78509100  1
  O  O12  1  0.23299600  0.56909800  0.23299600  1
  O  O13  1  0.96490900  0.56909800  0.23299600  1
  O  O14  1  0.78509100  0.51700400  0.18090200  1
  O  O15  1  0.23299600  0.96490900  0.23299600  1
  O  O16  1  0.56909800  0.96490900  0.23299600  1
  O  O17  1  0.51700400  0.78509100  0.51700400  1
  O  O18  1  0.56909800  0.23299600  0.96490900  1
  O  O19  1  0.23299600  0.23299600  0.96490900  1
  O  O20  1  0.18090200  0.51700400  0.51700400  1
  O  O21  1  0.51700400  0.18090200  0.78509100  1
  O  O22  1  0.78509100  0.51700400  0.51700400  1
  O  O23  1  0.51700400  0.78509100  0.18090200  1
  O  O24  1  0.23299600  0.56909800  0.96490900  1
  O  O25  1  0.56909800  0.23299600  0.23299600  1
  O  O26  1  0.23299600  0.96490900  0.56909800  1
  O  O27  1  0.96490900  0.23299600  0.23299600  1
loop_
_geom_bond_atom_site_label_1
_geom_bond_atom_site_label_2
_geom_bond_distance
_geom_bond_site_symmetry_2
Nd0 O1 2.333192 1_544
Nd0 O3 2.333192 1_445
Nd0 O0 2.333192 1_444
Nd0 O2 2.333192 1_454
Nd0 O19 2.928970 1_554
Nd0 O27 2.928970 1_455
Nd0 O15 2.928970 1_545
Nd0 O12 2.928974 1_545
Nd0 O25 2.928974 1_455
Nd0 O9 2.928974 1_554
Nd0 O13 2.928977 1_445
Nd0 O26 2.928977 1_544
Nd0 O16 2.928977 1_445
Nd0 O24 2.928977 1_544
Nd0 O18 2.928977 1_454
Nd0 O8 2.928977 1_454
Nd1 O1 2.333192 1_555
Nd1 O3 2.333192 1_555
Nd1 O0 2.333192 1_555
Nd1 O2 2.333192 1_555
Nd1 O10 2.928970 1_555
Nd1 O17 2.928970 1_555
Nd1 O22 2.928970 1_555
Nd1 O7 2.928974 1_565
Nd1 O4 2.928974 1_556
Nd1 O20 2.928974 1_655
Nd1 O5 2.928977 1_565
Nd1 O21 2.928977 1_565
Nd1 O23 2.928977 1_556
Nd1 O6 2.928977 1_655
Nd1 O14 2.928977 1_556
Nd1 O11 2.928977 1_655
Hf0 O20 2.309291 1_555
Hf0 O7 2.309291 1_555
Hf0 O4 2.309291 1_555
Hf0 O21 2.309294 1_555
Hf0 O14 2.309294 1_555
Hf0 O6 2.309294 1_555
Hf0 O23 2.309294 1_555
Hf0 O5 2.309294 1_555
Hf0 O11 2.309294 1_555
Hf0 O22 2.309298 1_555
Hf0 O10 2.309298 1_555
Hf0 O17 2.309298 1_555
Hf1 O25 2.309291 1_555
Hf1 O12 2.309291 1_555
Hf1 O9 2.309291 1_555
Hf1 O16 2.309294 1_545
Hf1 O8 2.309294 1_455
Hf1 O24 2.309294 1_554
Hf1 O26 2.309294 1_545
Hf1 O13 2.309294 1_455
Hf1 O18 2.309294 1_554
Hf1 O19 2.309298 1_554
Hf1 O27 2.309298 1_455
Hf1 O15 2.309298 1_545
O5 O8 1.854237 1_555
O5 O7 2.042870 1_555
O7 O9 1.854251 1_555
O8 O9 2.042870 1_655
O10 O18 1.854247 1_555
O10 O24 1.854247 1_555
O10 O17 2.042870 1_555
O10 O22 2.042870 1_555
O11 O24 1.854237 1_555
O11 O19 1.854247 1_555
O11 O20 2.042870 1_555
O11 O6 2.042870 1_555
O12 O4 1.854251 1_555
O12 O20 1.854251 1_555
O12 O24 2.042870 1_554
O12 O13 2.042870 1_455
O13 O14 1.854237 1_555
O13 O22 1.854247 1_555
O13 O24 2.042870 1_654
O14 O27 1.854247 1_555
O14 O23 2.042870 1_555
O14 O4 2.042870 1_555
O15 O6 1.854247 1_555
O15 O23 1.854247 1_555
O15 O27 2.042870 1_465
O15 O19 2.042870 1_564
O16 O23 1.854237 1_555
O16 O17 1.854247 1_555
O16 O18 2.042870 1_564
O16 O25 2.042870 1_565
O17 O26 1.854247 1_555
O17 O22 2.042870 1_555
O18 O21 1.854237 1_555
O18 O25 2.042870 1_556
O19 O21 1.854247 1_555
O19 O27 2.042870 1_456
O20 O9 1.854251 1_555
O20 O6 2.042870 1_555
O21 O5 2.042870 1_555
O21 O7 2.042870 1_555
O22 O8 1.854247 1_555
O23 O4 2.042870 1_555
O25 O7 1.854251 1_555
O25 O4 1.854251 1_555
O26 O6 1.854237 1_555
O26 O8 2.042870 1_465
O26 O9 2.042870 1_565
O27 O5 1.854247 1_555
