# generated using pymatgen
data_Na2MnTlF6
_symmetry_space_group_name_H-M   'P 1'
_cell_length_a   6.34256100
_cell_length_b   6.34256129
_cell_length_c   6.34256186
_cell_angle_alpha   59.99999751
_cell_angle_beta   59.99999929
_cell_angle_gamma   59.99999631
_symmetry_Int_Tables_number   1
_chemical_formula_structural   Na2MnTlF6
_chemical_formula_sum   'Na2 Mn1 Tl1 F6'
_cell_volume   180.41764810
_cell_formula_units_Z   1
loop_
 _symmetry_equiv_pos_site_id
 _symmetry_equiv_pos_as_xyz
  1  'x, y, z'
loop_
 _atom_site_type_symbol
 _atom_site_label
 _atom_site_symmetry_multiplicity
 _atom_site_fract_x
 _atom_site_fract_y
 _atom_site_fract_z
 _atom_site_occupancy
  Na  Na0  1  0.25000000  0.25000000  0.25000000  1
  Na  Na1  1  0.75000000  0.75000000  0.75000000  1
  Mn  Mn0  1  0.00000000  0.00000000  0.00000000  1
  Tl  Tl0  1  0.50000000  0.50000000  0.50000000  1
  F  F0  1  0.21843200  0.78156800  0.21843200  1
  F  F1  1  0.78156800  0.78156800  0.21843200  1
  F  F2  1  0.78156800  0.21843200  0.78156800  1
  F  F3  1  0.78156800  0.21843200  0.21843200  1
  F  F4  1  0.21843200  0.78156800  0.78156800  1
  F  F5  1  0.21843200  0.21843200  0.78156800  1
loop_
_geom_bond_atom_site_label_1
_geom_bond_atom_site_label_2
_geom_bond_distance
_geom_bond_site_symmetry_2
F0 Mn0 1.959277 1_565
F0 Tl0 2.525591 1_555
F1 Mn0 1.959277 1_665
F1 Tl0 2.525591 1_555
F2 Mn0 1.959277 1_656
F2 Tl0 2.525591 1_555
F3 Mn0 1.959277 1_655
F3 Tl0 2.525591 1_555
F4 Mn0 1.959277 1_566
F4 Tl0 2.525591 1_555
F5 Mn0 1.959277 1_556
F5 Tl0 2.525591 1_555
