# generated using pymatgen
data_BaDy(FeO3)4
_symmetry_space_group_name_H-M   'P 1'
_cell_length_a   5.45986568
_cell_length_b   5.45986568
_cell_length_c   7.65105472
_cell_angle_alpha   90.00000000
_cell_angle_beta   90.00000000
_cell_angle_gamma   90.00000000
_symmetry_Int_Tables_number   1
_chemical_formula_structural   BaDy(FeO3)4
_chemical_formula_sum   'Ba1 Dy1 Fe4 O12'
_cell_volume   228.07896066
_cell_formula_units_Z   1
loop_
 _symmetry_equiv_pos_site_id
 _symmetry_equiv_pos_as_xyz
  1  'x, y, z'
loop_
 _atom_site_type_symbol
 _atom_site_label
 _atom_site_symmetry_multiplicity
 _atom_site_fract_x
 _atom_site_fract_y
 _atom_site_fract_z
 _atom_site_occupancy
  Ba  Ba0  1  0.50000000  0.50000000  -0.00000000  1
  Dy  Dy0  1  0.00000000  0.00000000  0.50000000  1
  Fe  Fe0  1  0.00000000  0.50000000  0.74841238  1
  Fe  Fe1  1  0.00000000  0.50000000  0.25158762  1
  Fe  Fe2  1  0.50000000  0.00000000  0.25158762  1
  Fe  Fe3  1  0.50000000  0.00000000  0.74841238  1
  O  O0  1  0.23767049  0.23767049  0.27042027  1
  O  O1  1  0.23767049  0.23767049  0.72957973  1
  O  O2  1  0.76232951  0.76232951  0.72957973  1
  O  O3  1  0.76232951  0.76232951  0.27042027  1
  O  O4  1  0.76232951  0.23767049  0.72957973  1
  O  O5  1  0.76232951  0.23767049  0.27042027  1
  O  O6  1  0.23767049  0.76232951  0.72957973  1
  O  O7  1  0.23767049  0.76232951  0.27042027  1
  O  O8  1  0.00000000  0.50000000  0.50000000  1
  O  O9  1  0.00000000  0.50000000  0.00000000  1
  O  O10  1  0.50000000  0.00000000  0.50000000  1
  O  O11  1  0.50000000  0.00000000  0.00000000  1
loop_
_geom_bond_atom_site_label_1
_geom_bond_atom_site_label_2
_geom_bond_distance
_geom_bond_site_symmetry_2
Ba0 O11 2.729933 1_555
Ba0 O11 2.729933 1_565
Ba0 O9 2.729933 1_555
Ba0 O9 2.729933 1_655
Ba0 O0 2.895451 1_555
Ba0 O1 2.895451 1_554
Ba0 O6 2.895451 1_554
Ba0 O4 2.895451 1_554
Ba0 O7 2.895451 1_555
Ba0 O5 2.895451 1_555
Ba0 O2 2.895451 1_554
Ba0 O3 2.895451 1_555
Dy0 O3 2.540310 1_445
Dy0 O6 2.540310 1_545
Dy0 O5 2.540310 1_455
Dy0 O7 2.540310 1_545
Dy0 O2 2.540310 1_445
Dy0 O4 2.540310 1_455
Dy0 O1 2.540310 1_555
Dy0 O0 2.540310 1_555
Dy0 O8 2.729933 1_545
Dy0 O10 2.729933 1_455
Dy0 O10 2.729933 1_555
Dy0 O8 2.729933 1_555
Fe0 O8 1.900617 1_555
Fe0 O9 1.924911 1_556
Fe0 O4 1.938064 1_455
Fe0 O1 1.938064 1_555
Fe0 O2 1.938064 1_455
Fe0 O6 1.938064 1_555
Fe1 O8 1.900617 1_555
Fe1 O9 1.924911 1_555
Fe1 O5 1.938064 1_455
Fe1 O0 1.938064 1_555
Fe1 O3 1.938064 1_455
Fe1 O7 1.938064 1_555
Fe2 O10 1.900617 1_555
Fe2 O11 1.924911 1_555
Fe2 O7 1.938064 1_545
Fe2 O0 1.938064 1_555
Fe2 O3 1.938064 1_545
Fe2 O5 1.938064 1_555
Fe3 O10 1.900617 1_555
Fe3 O11 1.924911 1_556
Fe3 O6 1.938064 1_545
Fe3 O2 1.938064 1_545
Fe3 O1 1.938064 1_555
Fe3 O4 1.938064 1_555
