# generated using pymatgen
data_Tl5Sb10As3S22
_symmetry_space_group_name_H-M   'P 1'
_cell_length_a   7.65609900
_cell_length_b   8.86158678
_cell_length_c   17.99660667
_cell_angle_alpha   103.46539544
_cell_angle_beta   91.46618975
_cell_angle_gamma   109.77051903
_symmetry_Int_Tables_number   1
_chemical_formula_structural   Tl5Sb10As3S22
_chemical_formula_sum   'Tl5 Sb10 As3 S22'
_cell_volume   1110.13897646
_cell_formula_units_Z   1
loop_
 _symmetry_equiv_pos_site_id
 _symmetry_equiv_pos_as_xyz
  1  'x, y, z'
loop_
 _atom_site_type_symbol
 _atom_site_label
 _atom_site_symmetry_multiplicity
 _atom_site_fract_x
 _atom_site_fract_y
 _atom_site_fract_z
 _atom_site_occupancy
  Tl  Tl0  1  0.68354300  0.12804100  0.62299400  1
  Tl  Tl1  1  0.31610100  0.87325600  0.37792900  1
  Tl  Tl2  1  0.22926600  0.46197000  0.18520000  1
  Tl  Tl3  1  0.76872500  0.54335900  0.81469200  1
  Tl  Tl4  1  0.79791100  0.95672500  0.97529300  1
  Sb  Sb0  1  0.28642400  0.96782300  0.81086600  1
  Sb  Sb1  1  0.71047000  0.03145000  0.19143200  1
  Sb  Sb2  1  0.16670700  0.20154200  0.59600400  1
  Sb  Sb3  1  0.83887100  0.80059500  0.40524200  1
  Sb  Sb4  1  0.41401300  0.38309700  0.41179700  1
  Sb  Sb5  1  0.57824200  0.61454700  0.58925600  1
  Sb  Sb6  1  0.76162200  0.61617700  0.20835300  1
  Sb  Sb7  1  0.24124800  0.38360100  0.79778800  1
  Sb  Sb8  1  0.31424100  0.05265700  0.01809700  1
  Sb  Sb9  1  0.86406300  0.27858000  0.39284600  1
  As  As0  1  0.13917300  0.71404600  0.61870100  1
  As  As1  1  0.26350100  0.58100100  0.96722200  1
  As  As2  1  0.75051500  0.41628100  0.02896200  1
  S  S0  1  0.91308600  0.62767600  0.09177000  1
  S  S1  1  0.07139400  0.36496800  0.90834200  1
  S  S2  1  0.44402100  0.27452600  0.68892600  1
  S  S3  1  0.56545000  0.73082400  0.30949800  1
  S  S4  1  0.48472500  0.29123700  0.08955900  1
  S  S5  1  0.49848200  0.68674200  0.89679200  1
  S  S6  1  0.01429400  0.54980100  0.30839900  1
  S  S7  1  0.99588900  0.45965500  0.68963600  1
  S  S8  1  0.09184400  0.76890400  0.91561200  1
  S  S9  1  0.91552200  0.23572200  0.08794500  1
  S  S10  1  0.05203300  0.87031600  0.67983900  1
  S  S11  1  0.96365500  0.12238600  0.32224600  1
  S  S12  1  0.54507500  0.24982300  0.32754200  1
  S  S13  1  0.44327700  0.74911900  0.67054000  1
  S  S14  1  0.71878800  0.47729100  0.48781800  1
  S  S15  1  0.27505900  0.51984300  0.51206100  1
  S  S16  1  0.48249100  0.85441000  0.09314400  1
  S  S17  1  0.49762500  0.17054600  0.90763000  1
  S  S18  1  0.69417100  0.89326700  0.49091000  1
  S  S19  1  0.30622700  0.10853700  0.50799500  1
  S  S20  1  0.03042000  0.09877500  0.79532300  1
  S  S21  1  0.96193700  0.90358400  0.19690100  1
loop_
_geom_bond_atom_site_label_1
_geom_bond_atom_site_label_2
_geom_bond_distance
_geom_bond_site_symmetry_2
As0 S10 1.877858 1_555
As0 S13 2.377387 1_555
As0 S15 2.739052 1_555
As0 S7 2.766572 1_455
As1 S1 2.005406 1_555
As1 S5 2.291401 1_555
As1 S8 2.738741 1_555
As1 S16 2.883943 1_556
As2 S0 1.923690 1_555
As2 S4 2.389335 1_555
As2 S9 2.715265 1_555
As2 S17 2.824096 1_554
S0 Sb6 2.429251 1_555
S1 Sb7 2.411843 1_555
S2 Sb2 2.471480 1_555
S2 Tl0 2.731336 1_555
S2 Sb7 2.733405 1_555
S2 Tl3 3.189449 1_555
S3 Sb3 2.485354 1_555
S3 Sb6 2.629105 1_555
S3 Tl1 2.789382 1_555
S3 Tl2 3.221760 1_555
S4 Sb8 2.146726 1_555
S4 Tl2 3.168311 1_555
S5 Tl4 2.743160 1_555
S5 Sb7 2.877806 1_555
S5 Tl3 3.023058 1_555
S6 Sb6 2.900809 1_455
S6 Tl2 2.912059 1_555
S6 Tl1 2.970159 1_555
S6 Sb9 3.054434 1_455
S6 Sb3 3.180517 1_455
S7 Tl3 2.989261 1_555
S7 Sb7 3.008587 1_655
S7 Tl0 3.041437 1_555
S8 Sb8 2.721517 1_566
S8 Tl3 2.854436 1_455
S8 Sb0 2.965594 1_555
S9 Tl4 2.664528 1_544
S9 Tl2 2.783085 1_655
S9 Sb1 3.001183 1_555
S10 Sb0 2.704228 1_555
S11 Sb9 2.013963 1_555
S11 Sb1 2.788427 1_555
S12 Sb4 2.178626 1_555
S12 Sb9 2.589040 1_555
S13 Sb5 2.174457 1_555
S14 Sb5 2.433452 1_555
S14 Sb4 2.449561 1_555
S14 Sb9 2.698091 1_555
S15 Sb4 2.410007 1_555
S15 Sb5 2.448762 1_555
S16 Sb1 2.309497 1_565
S16 Sb8 3.019368 1_565
S17 Sb0 2.303960 1_545
S17 Sb8 2.670706 1_556
S18 Sb3 2.095682 1_555
S18 Tl0 2.794042 1_565
S19 Sb2 2.098358 1_555
S19 Tl1 2.770324 1_545
S20 Sb7 2.483151 1_555
S20 Sb0 2.632156 1_545
S21 Sb6 2.549376 1_555
S21 Sb1 2.553086 1_565
