# generated using pymatgen
data_Mg7Si4
_symmetry_space_group_name_H-M   'P 1'
_cell_length_a   5.27886300
_cell_length_b   5.98597443
_cell_length_c   14.30084352
_cell_angle_alpha   81.66834597
_cell_angle_beta   87.00819769
_cell_angle_gamma   82.62626390
_symmetry_Int_Tables_number   1
_chemical_formula_structural   Mg7Si4
_chemical_formula_sum   'Mg14 Si8'
_cell_volume   443.16734455
_cell_formula_units_Z   2
loop_
 _symmetry_equiv_pos_site_id
 _symmetry_equiv_pos_as_xyz
  1  'x, y, z'
loop_
 _atom_site_type_symbol
 _atom_site_label
 _atom_site_symmetry_multiplicity
 _atom_site_fract_x
 _atom_site_fract_y
 _atom_site_fract_z
 _atom_site_occupancy
  Mg  Mg0  1  0.36850500  0.10078100  0.90773500  1
  Mg  Mg1  1  0.72452500  0.57870800  0.63434500  1
  Mg  Mg2  1  0.19168400  0.38166200  0.52496200  1
  Mg  Mg3  1  0.42261800  0.07847600  0.69483100  1
  Mg  Mg4  1  0.48337400  0.61091400  0.84664400  1
  Mg  Mg5  1  0.23697900  0.76061200  0.28639000  1
  Mg  Mg6  1  0.13527700  0.26252000  0.31865900  1
  Mg  Mg7  1  0.24116500  0.88231600  0.49142800  1
  Mg  Mg8  1  0.82216300  0.27935100  0.99777300  1
  Mg  Mg9  1  0.94888600  0.77049900  0.94946800  1
  Mg  Mg10  1  0.34986200  0.17056200  0.12094300  1
  Mg  Mg11  1  0.45315300  0.67474800  0.07879800  1
  Mg  Mg12  1  0.74745600  0.64687500  0.41146900  1
  Mg  Mg13  1  0.70708800  0.14132700  0.47420200  1
  Si  Si0  1  0.92048800  0.92888500  0.13804100  1
  Si  Si1  1  0.00263500  0.47770100  0.81764400  1
  Si  Si2  1  0.21370100  0.64460000  0.67643300  1
  Si  Si3  1  0.63588600  0.42392700  0.26252700  1
  Si  Si4  1  0.95851500  0.52152000  0.13880400  1
  Si  Si5  1  0.84569000  0.12102700  0.80809000  1
  Si  Si6  1  0.93810600  0.02237400  0.64840600  1
  Si  Si7  1  0.65583300  0.01690500  0.27608600  1
loop_
_geom_bond_atom_site_label_1
_geom_bond_atom_site_label_2
_geom_bond_distance
_geom_bond_site_symmetry_2
Mg0 Si5 2.836243 1_555
Mg0 Si1 2.963025 1_555
Mg0 Si5 3.152275 1_455
Mg1 Si2 2.723180 1_555
Mg1 Si2 2.771023 1_655
Mg1 Si1 3.017752 1_655
Mg1 Si6 3.051517 1_565
Mg2 Si2 2.871299 1_555
Mg2 Si6 2.987603 1_455
Mg3 Si6 2.749108 1_455
Mg3 Si6 2.756792 1_555
Mg3 Si5 2.884316 1_555
Mg3 Si2 2.999053 1_545
Mg4 Si1 2.781663 1_655
Mg4 Si1 2.823684 1_555
Mg4 Si2 2.852741 1_555
Mg5 Si0 2.761421 1_455
Mg5 Si3 2.765411 1_555
Mg5 Si7 2.834677 1_565
Mg6 Si3 2.805329 1_455
Mg6 Si4 2.934869 1_455
Mg6 Si3 2.961525 1_555
Mg6 Si7 3.021792 1_555
Mg7 Si2 2.822689 1_555
Mg7 Si6 2.850999 1_465
Mg8 Si0 2.702584 1_546
Mg8 Si4 2.820261 1_556
Mg8 Si1 2.846205 1_655
Mg8 Si5 2.991924 1_555
Mg9 Si5 2.716492 1_565
Mg9 Si1 2.735038 1_655
Mg9 Si4 2.894943 1_556
Mg9 Si0 2.975923 1_556
Mg10 Si4 2.780817 1_455
Mg10 Si7 2.789026 1_555
Mg10 Si0 2.823377 1_445
Mg11 Si4 2.842059 1_555
Mg11 Si4 2.923767 1_455
Mg11 Si3 2.972866 1_555
Mg12 Si7 2.732858 1_565
Mg12 Si3 2.796663 1_555
Mg13 Si6 2.789405 1_555
Mg13 Si7 3.065675 1_555
Si0 Si4 2.419391 1_555
Si0 Si7 2.439536 1_565
Si1 Si2 2.404954 1_555
Si1 Si5 2.411194 1_455
Si2 Si6 2.518850 1_465
Si3 Si7 2.405039 1_555
Si3 Si4 2.452290 1_555
Si5 Si6 2.449941 1_555
