# generated using pymatgen
data_Th6NiBr15
_symmetry_space_group_name_H-M   'P 1'
_cell_length_a   10.06677170
_cell_length_b   10.06677170
_cell_length_c   10.06677170
_cell_angle_alpha   109.47122063
_cell_angle_beta   109.47122063
_cell_angle_gamma   109.47122063
_symmetry_Int_Tables_number   1
_chemical_formula_structural   Th6NiBr15
_chemical_formula_sum   'Th6 Ni1 Br15'
_cell_volume   785.32381505
_cell_formula_units_Z   1
loop_
 _symmetry_equiv_pos_site_id
 _symmetry_equiv_pos_as_xyz
  1  'x, y, z'
loop_
 _atom_site_type_symbol
 _atom_site_label
 _atom_site_symmetry_multiplicity
 _atom_site_fract_x
 _atom_site_fract_y
 _atom_site_fract_z
 _atom_site_occupancy
  Th  Th0  1  0.00000000  0.24061114  0.24061114  1
  Th  Th1  1  -0.00000000  0.75938886  0.75938886  1
  Th  Th2  1  0.24061114  0.00000000  0.24061114  1
  Th  Th3  1  0.75938886  0.00000000  0.75938886  1
  Th  Th4  1  0.24061114  0.24061114  -0.00000000  1
  Th  Th5  1  0.75938886  0.75938886  0.00000000  1
  Ni  Ni0  1  0.00000000  0.00000000  -0.00000000  1
  Br  Br0  1  0.50463111  0.25231555  0.25231555  1
  Br  Br1  1  0.49536889  0.74768445  0.74768445  1
  Br  Br2  1  -0.00000000  0.25231555  0.74768445  1
  Br  Br3  1  0.00000000  0.74768445  0.25231555  1
  Br  Br4  1  0.25231555  0.50463111  0.25231555  1
  Br  Br5  1  0.74768445  -0.00000000  0.25231555  1
  Br  Br6  1  0.74768445  0.49536889  0.74768445  1
  Br  Br7  1  0.25231555  -0.00000000  0.74768445  1
  Br  Br8  1  0.25231555  0.25231555  0.50463111  1
  Br  Br9  1  0.74768445  0.74768445  0.49536889  1
  Br  Br10  1  0.74768445  0.25231555  0.00000000  1
  Br  Br11  1  0.25231555  0.74768445  -0.00000000  1
  Br  Br12  1  0.00000000  0.50000000  0.50000000  1
  Br  Br13  1  0.50000000  0.00000000  0.50000000  1
  Br  Br14  1  0.50000000  0.50000000  -0.00000000  1
loop_
_geom_bond_atom_site_label_1
_geom_bond_atom_site_label_2
_geom_bond_distance
_geom_bond_site_symmetry_2
Ni0 Th1 2.796890 1_544
Ni0 Th3 2.796890 1_454
Ni0 Th5 2.796890 1_445
Ni0 Th4 2.796890 1_555
Ni0 Th2 2.796890 1_555
Ni0 Th0 2.796890 1_555
Br0 Th4 2.936097 1_555
Br0 Th2 2.936097 1_555
Br1 Th3 2.936097 1_565
Br1 Th5 2.936097 1_556
Br2 Th3 2.936097 1_455
Br2 Th4 2.936097 1_556
Br3 Th2 2.936097 1_565
Br3 Th5 2.936097 1_455
Br4 Th4 2.936097 1_555
Br4 Th0 2.936097 1_555
Br5 Th0 2.936097 1_655
Br5 Th5 2.936097 1_545
Br6 Th1 2.936097 1_655
Br6 Th5 2.936097 1_556
Br7 Th1 2.936097 1_545
Br7 Th4 2.936097 1_556
Br8 Th0 2.936097 1_555
Br8 Th2 2.936097 1_555
Br9 Th1 2.936097 1_655
Br9 Th3 2.936097 1_565
Br10 Th0 2.936097 1_655
Br10 Th3 2.936097 1_554
Br11 Th1 2.936097 1_554
Br11 Th2 2.936097 1_565
Br12 Th0 3.015164 1_555
Br12 Th1 3.015164 1_555
Br13 Th2 3.015164 1_555
Br13 Th3 3.015164 1_555
Br14 Th4 3.015164 1_555
Br14 Th5 3.015164 1_555
