# generated using pymatgen
data_SmLuO3
_symmetry_space_group_name_H-M   'P 1'
_cell_length_a   5.69903600
_cell_length_b   5.95866100
_cell_length_c   8.29914200
_cell_angle_alpha   90.00000000
_cell_angle_beta   90.00000000
_cell_angle_gamma   90.00000000
_symmetry_Int_Tables_number   1
_chemical_formula_structural   SmLuO3
_chemical_formula_sum   'Sm4 Lu4 O12'
_cell_volume   281.82743897
_cell_formula_units_Z   4
loop_
 _symmetry_equiv_pos_site_id
 _symmetry_equiv_pos_as_xyz
  1  'x, y, z'
loop_
 _atom_site_type_symbol
 _atom_site_label
 _atom_site_symmetry_multiplicity
 _atom_site_fract_x
 _atom_site_fract_y
 _atom_site_fract_z
 _atom_site_occupancy
  Sm  Sm0  1  0.98537900  0.05489300  0.25000000  1
  Sm  Sm1  1  0.48537900  0.44510700  0.75000000  1
  Sm  Sm2  1  0.51462100  0.55489300  0.25000000  1
  Sm  Sm3  1  0.01462100  0.94510700  0.75000000  1
  Lu  Lu0  1  0.50000000  0.00000000  0.00000000  1
  Lu  Lu1  1  0.50000000  0.00000000  0.50000000  1
  Lu  Lu2  1  0.00000000  0.50000000  0.00000000  1
  Lu  Lu3  1  0.00000000  0.50000000  0.50000000  1
  O  O0  1  0.63040400  0.06266200  0.75000000  1
  O  O1  1  0.18557100  0.18835700  0.56774800  1
  O  O2  1  0.18557100  0.18835700  0.93225200  1
  O  O3  1  0.68557100  0.31164300  0.43225200  1
  O  O4  1  0.68557100  0.31164300  0.06774800  1
  O  O5  1  0.13040400  0.43733800  0.25000000  1
  O  O6  1  0.86959600  0.56266200  0.75000000  1
  O  O7  1  0.31442900  0.68835700  0.93225200  1
  O  O8  1  0.31442900  0.68835700  0.56774800  1
  O  O9  1  0.81442900  0.81164300  0.06774800  1
  O  O10  1  0.81442900  0.81164300  0.43225200  1
  O  O11  1  0.36959600  0.93733800  0.25000000  1
loop_
_geom_bond_atom_site_label_1
_geom_bond_atom_site_label_2
_geom_bond_distance
_geom_bond_site_symmetry_2
Lu0 O9 2.187890 1_545
Lu0 O2 2.187890 1_554
Lu0 O4 2.209739 1_555
Lu0 O7 2.209739 1_544
Lu0 O11 2.235276 1_545
Lu0 O0 2.235276 1_554
Lu1 O10 2.187890 1_545
Lu1 O1 2.187890 1_555
Lu1 O3 2.209739 1_555
Lu1 O8 2.209739 1_545
Lu1 O11 2.235276 1_545
Lu1 O0 2.235276 1_555
Lu2 O7 2.187890 1_554
Lu2 O4 2.187890 1_455
Lu2 O2 2.209739 1_554
Lu2 O9 2.209739 1_455
Lu2 O5 2.235276 1_555
Lu2 O6 2.235276 1_454
Lu3 O8 2.187890 1_555
Lu3 O3 2.187890 1_455
Lu3 O1 2.209739 1_555
Lu3 O10 2.209739 1_455
Lu3 O5 2.235276 1_555
Lu3 O6 2.235276 1_455
O0 Sm3 2.298978 1_645
O0 Sm1 2.424110 1_555
O1 Sm3 2.310371 1_545
O1 Sm1 2.747305 1_555
O1 Sm0 2.981285 1_455
O2 Sm3 2.310371 1_545
O2 Sm1 2.747305 1_555
O2 Sm0 2.981285 1_456
O3 Sm2 2.310371 1_555
O3 Sm0 2.747305 1_555
O3 Sm1 2.981285 1_555
O4 Sm2 2.310371 1_555
O4 Sm0 2.747305 1_555
O4 Sm1 2.981285 1_554
O5 Sm2 2.298978 1_555
O5 Sm0 2.424110 1_455
O6 Sm1 2.298978 1_555
O6 Sm3 2.424110 1_655
O7 Sm1 2.310371 1_555
O7 Sm3 2.747305 1_555
O7 Sm2 2.981285 1_556
O8 Sm1 2.310371 1_555
O8 Sm3 2.747305 1_555
O8 Sm2 2.981285 1_555
O9 Sm0 2.310371 1_565
O9 Sm2 2.747305 1_555
O9 Sm3 2.981285 1_654
O10 Sm0 2.310371 1_565
O10 Sm2 2.747305 1_555
O10 Sm3 2.981285 1_655
O11 Sm0 2.298978 1_465
O11 Sm2 2.424110 1_555
