# generated using pymatgen
data_Li4V3P8O29
_symmetry_space_group_name_H-M   'P 1'
_cell_length_a   9.80402367
_cell_length_b   9.80402367
_cell_length_c   14.26726451
_cell_angle_alpha   89.91169898
_cell_angle_beta   89.91169898
_cell_angle_gamma   59.63534022
_symmetry_Int_Tables_number   1
_chemical_formula_structural   Li4V3P8O29
_chemical_formula_sum   'Li8 V6 P16 O58'
_cell_volume   1183.23706697
_cell_formula_units_Z   2
loop_
 _symmetry_equiv_pos_site_id
 _symmetry_equiv_pos_as_xyz
  1  'x, y, z'
loop_
 _atom_site_type_symbol
 _atom_site_label
 _atom_site_symmetry_multiplicity
 _atom_site_fract_x
 _atom_site_fract_y
 _atom_site_fract_z
 _atom_site_occupancy
  Li  Li0  1  0.67018600  0.23508700  0.05606800  1
  Li  Li1  1  0.23508700  0.67018600  0.55606800  1
  Li  Li2  1  0.23489000  0.10000700  0.05633000  1
  Li  Li3  1  0.10000700  0.23489000  0.55633000  1
  Li  Li4  1  0.76580900  0.32493700  0.44178600  1
  Li  Li5  1  0.32493700  0.76580900  0.94178600  1
  Li  Li6  1  0.96308800  0.98127800  0.99734300  1
  Li  Li7  1  0.98127800  0.96308800  0.49734300  1
  V  V0  1  0.99932300  0.56712900  0.24464000  1
  V  V1  1  0.99903300  0.44040300  0.75810900  1
  V  V2  1  0.56712900  0.99932300  0.74464000  1
  V  V3  1  0.44040300  0.99903300  0.25810900  1
  V  V4  1  0.56405300  0.43455500  0.24661000  1
  V  V5  1  0.43455500  0.56405300  0.74661000  1
  P  P0  1  0.68851700  0.22087800  0.83875100  1
  P  P1  1  0.69672500  0.08394400  0.34540300  1
  P  P2  1  0.22087800  0.68851700  0.33875100  1
  P  P3  1  0.33376700  0.32734400  0.13299400  1
  P  P4  1  0.32734400  0.33376700  0.63299400  1
  P  P5  1  0.08394400  0.69672500  0.84540300  1
  P  P6  1  0.91806300  0.77675200  0.66138300  1
  P  P7  1  0.23018400  0.08531000  0.84122000  1
  P  P8  1  0.77675200  0.91806300  0.16138300  1
  P  P9  1  0.08531000  0.23018400  0.34122000  1
  P  P10  1  0.91735200  0.30527100  0.15880500  1
  P  P11  1  0.67382100  0.65969400  0.36630000  1
  P  P12  1  0.65969400  0.67382100  0.86630000  1
  P  P13  1  0.78063800  0.31394000  0.66081800  1
  P  P14  1  0.30527100  0.91735200  0.65880500  1
  P  P15  1  0.31394000  0.78063800  0.16081800  1
  O  O0  1  0.79271900  0.23246700  0.57004800  1
  O  O1  1  0.65595600  0.25894300  0.33620100  1
  O  O2  1  0.78830000  0.00652300  0.07930600  1
  O  O3  1  0.65765000  0.08135300  0.82464800  1
  O  O4  1  0.53466900  0.37902300  0.82751900  1
  O  O5  1  0.48778500  0.32467600  0.16665500  1
  O  O6  1  0.37902300  0.53466900  0.32751900  1
  O  O7  1  0.23246700  0.79271900  0.07004800  1
  O  O8  1  0.25894300  0.65595600  0.83620100  1
  O  O9  1  0.47710500  0.18833000  0.67690400  1
  O  O10  1  0.54070300  0.07884700  0.33265900  1
  O  O11  1  0.32467600  0.48778500  0.66665500  1
  O  O12  1  0.32672500  0.31697700  0.02903500  1
  O  O13  1  0.31697700  0.32672500  0.52903500  1
  O  O14  1  0.18833000  0.47710500  0.17690400  1
  O  O15  1  0.38562100  0.08456200  0.82546000  1
  O  O16  1  0.33182500  0.18295100  0.18073100  1
  O  O17  1  0.08135300  0.65765000  0.32464800  1
  O  O18  1  0.99703600  0.80082800  0.75400200  1
  O  O19  1  0.00652300  0.78830000  0.57930600  1
  O  O20  1  0.00814300  0.79040400  0.93048200  1
  O  O21  1  0.07884700  0.54070300  0.83265900  1
  O  O22  1  0.18295100  0.33182500  0.68073100  1
  O  O23  1  0.91144000  0.74332200  0.16313800  1
  O  O24  1  0.08456200  0.38562100  0.32546000  1
  O  O25  1  0.25782300  0.08857000  0.33468600  1
  O  O26  1  0.80082800  0.99703600  0.25400200  1
  O  O27  1  0.79040400  0.00814300  0.43048200  1
  O  O28  1  0.20074700  0.01179500  0.57957500  1
  O  O29  1  0.74332200  0.91144000  0.66313800  1
  O  O30  1  0.92655700  0.61582100  0.67371500  1
  O  O31  1  0.08857000  0.25782200  0.83468600  1
  O  O32  1  0.81559700  0.66234400  0.31614100  1
  O  O33  1  0.92115200  0.46051400  0.16899600  1
  O  O34  1  0.01179500  0.20074700  0.07957500  1
  O  O35  1  0.00638100  0.22748700  0.43131100  1
  O  O36  1  0.98979600  0.20933600  0.25683100  1
  O  O37  1  0.91959500  0.34717400  0.66819900  1
  O  O38  1  0.66234400  0.81559700  0.81614100  1
  O  O39  1  0.61582100  0.92655700  0.17371500  1
  O  O40  1  0.81131900  0.52473100  0.82129000  1
  O  O41  1  0.66510000  0.67652300  0.97013600  1
  O  O42  1  0.67652300  0.66510000  0.47013600  1
  O  O43  1  0.67439500  0.51056900  0.32849500  1
  O  O44  1  0.46051400  0.92115200  0.66899600  1
  O  O45  1  0.52473100  0.81131900  0.32129000  1
  O  O46  1  0.74472400  0.33908200  0.15780100  1
  O  O47  1  0.80090800  0.20455200  0.75015400  1
  O  O48  1  0.77386800  0.20010900  0.92921800  1
  O  O49  1  0.62026700  0.47006300  0.67409400  1
  O  O50  1  0.51056900  0.67439500  0.82849500  1
  O  O51  1  0.47006300  0.62026700  0.17409400  1
  O  O52  1  0.34717400  0.91959500  0.16819900  1
  O  O53  1  0.22748700  0.00638100  0.93131100  1
  O  O54  1  0.20933600  0.98979600  0.75683100  1
  O  O55  1  0.33908200  0.74472400  0.65780100  1
  O  O56  1  0.20010900  0.77386800  0.42921800  1
  O  O57  1  0.20455200  0.80090800  0.25015400  1
loop_
_geom_bond_atom_site_label_1
_geom_bond_atom_site_label_2
_geom_bond_distance
_geom_bond_site_symmetry_2
Li0 O2 1.961560 1_555
Li0 O48 2.017444 1_554
Li0 O46 2.107454 1_555
Li0 O5 2.205975 1_555
Li1 O19 1.961560 1_555
Li1 O56 2.017444 1_555
Li1 O55 2.107454 1_555
Li1 O11 2.205975 1_555
Li2 O34 1.919426 1_555
Li2 O53 2.025374 1_554
Li2 O52 2.217196 1_545
Li2 O16 2.346389 1_555
Li3 O28 1.919426 1_555
Li3 O35 2.025374 1_555
Li3 O37 2.217196 1_455
Li3 O22 2.346389 1_555
Li4 O0 1.998690 1_555
Li4 O35 2.054062 1_655
Li4 O1 2.135490 1_555
Li4 O43 2.252637 1_555
Li5 O7 1.998690 1_556
Li5 O53 2.054062 1_565
Li5 O8 2.135490 1_555
Li5 O50 2.252637 1_555
Li6 O20 1.943059 1_655
Li6 O2 1.982715 1_566
Li6 O48 2.228078 1_565
Li6 O7 2.556343 1_656
Li7 O27 1.943059 1_565
Li7 O19 1.982715 1_655
Li7 O56 2.228078 1_655
Li7 O0 2.556343 1_565
O0 P13 1.495408 1_555
O1 P1 1.557807 1_555
O1 V4 1.959171 1_555
O2 P8 1.493978 1_545
O3 P0 1.556529 1_555
O3 V2 1.861430 1_545
O4 P0 1.529805 1_555
O4 V5 1.945141 1_555
O5 P3 1.572793 1_555
O5 V4 1.960013 1_555
O6 P2 1.529805 1_555
O6 V4 1.945141 1_555
O7 P15 1.495408 1_555
O8 P5 1.557807 1_555
O8 V5 1.959171 1_555
O9 P4 1.569987 1_555
O9 V2 1.868227 1_545
O10 P1 1.566375 1_555
O10 V3 1.869301 1_545
O11 P4 1.572793 1_555
O11 V5 1.960013 1_555
O12 P3 1.490934 1_555
O13 P4 1.490934 1_555
O14 P3 1.569987 1_555
O14 V0 1.868227 1_455
O15 P7 1.536411 1_555
O15 V2 1.920362 1_545
O16 P3 1.578759 1_555
O16 V3 1.913150 1_545
O17 P2 1.556529 1_555
O17 V0 1.861430 1_455
O18 P5 1.608827 1_655
O18 P6 1.609415 1_555
O19 P6 1.493978 1_455
O20 P5 1.476422 1_555
O21 P5 1.566375 1_555
O21 V1 1.869301 1_455
O22 P4 1.578759 1_555
O22 V1 1.913150 1_455
O23 P8 1.546645 1_555
O23 V0 1.889600 1_555
O24 P9 1.536411 1_555
O24 V0 1.920362 1_455
O25 P9 1.556516 1_555
O25 V3 1.891220 1_545
O26 P1 1.608827 1_565
O26 P8 1.609415 1_555
O27 P1 1.476422 1_555
O28 P14 1.492082 1_545
O29 P6 1.546645 1_555
O29 V2 1.889600 1_555
O30 P6 1.547129 1_555
O30 V1 1.916557 1_555
O31 P7 1.556510 1_555
O31 V1 1.891227 1_455
O32 P11 1.574237 1_555
O32 V0 1.858464 1_555
O33 P10 1.548243 1_555
O33 V0 1.913262 1_555
O34 P10 1.492082 1_455
O35 P9 1.506368 1_555
O36 P9 1.601879 1_655
O36 P10 1.633614 1_555
O37 P13 1.556450 1_555
O37 V1 1.952909 1_555
O38 P12 1.574237 1_555
O38 V2 1.858464 1_555
O39 P8 1.547129 1_555
O39 V3 1.916557 1_555
O40 P12 1.600588 1_555
O40 V1 1.828087 1_555
O41 P12 1.483241 1_555
O42 P11 1.483241 1_555
O43 P11 1.556463 1_555
O43 V4 1.977925 1_555
O44 P14 1.548243 1_555
O44 V2 1.913262 1_555
O45 P11 1.600588 1_555
O45 V3 1.828087 1_555
O46 P10 1.551560 1_555
O46 V4 1.984845 1_555
O47 P13 1.610987 1_555
O47 P0 1.629595 1_555
O48 P0 1.495953 1_555
O49 P13 1.554893 1_555
O49 V5 1.880288 1_555
O50 P12 1.556463 1_555
O50 V5 1.977925 1_555
O51 P15 1.554893 1_555
O51 V4 1.880288 1_555
O52 P15 1.556450 1_555
O52 V3 1.952909 1_555
O53 P7 1.506368 1_555
O54 P7 1.601879 1_565
O54 P14 1.633614 1_555
O55 P14 1.551560 1_555
O55 V5 1.984845 1_555
O56 P2 1.495953 1_555
O57 P15 1.610987 1_555
O57 P2 1.629595 1_555
