# generated using pymatgen
data_VHg3
_symmetry_space_group_name_H-M   'P 1'
_cell_length_a   6.28717948
_cell_length_b   6.28717948
_cell_length_c   4.91731700
_cell_angle_alpha   90.00000000
_cell_angle_beta   90.00000000
_cell_angle_gamma   119.99999455
_symmetry_Int_Tables_number   1
_chemical_formula_structural   VHg3
_chemical_formula_sum   'V2 Hg6'
_cell_volume   168.33350989
_cell_formula_units_Z   2
loop_
 _symmetry_equiv_pos_site_id
 _symmetry_equiv_pos_as_xyz
  1  'x, y, z'
loop_
 _atom_site_type_symbol
 _atom_site_label
 _atom_site_symmetry_multiplicity
 _atom_site_fract_x
 _atom_site_fract_y
 _atom_site_fract_z
 _atom_site_occupancy
  V  V0  1  0.33333300  0.66666700  0.75000000  1
  V  V1  1  0.66666700  0.33333300  0.25000000  1
  Hg  Hg0  1  0.17122000  0.34244100  0.25000000  1
  Hg  Hg1  1  0.65755900  0.82878000  0.25000000  1
  Hg  Hg2  1  0.17122000  0.82878000  0.25000000  1
  Hg  Hg3  1  0.82878000  0.65755900  0.75000000  1
  Hg  Hg4  1  0.34244100  0.17122000  0.75000000  1
  Hg  Hg5  1  0.82878000  0.17122000  0.75000000  1
loop_
_geom_bond_atom_site_label_1
_geom_bond_atom_site_label_2
_geom_bond_distance
_geom_bond_site_symmetry_2
Hg0 V0 3.026799 1_554
Hg0 V0 3.026799 1_555
Hg0 Hg2 3.057701 1_555
Hg0 Hg1 3.057701 1_555
Hg0 Hg5 3.085693 1_455
Hg0 Hg5 3.085693 1_454
Hg0 Hg4 3.085699 1_555
Hg0 Hg4 3.085699 1_554
Hg0 V1 3.143975 1_455
Hg0 V1 3.143987 1_555
Hg0 Hg2 3.229479 1_545
Hg0 Hg1 3.229479 1_445
Hg1 V0 3.026799 1_555
Hg1 V0 3.026799 1_554
Hg1 Hg2 3.057701 1_555
Hg1 Hg5 3.085693 1_565
Hg1 Hg5 3.085693 1_564
Hg1 Hg3 3.085699 1_555
Hg1 Hg3 3.085699 1_554
Hg1 V1 3.143975 1_565
Hg1 V1 3.143987 1_555
Hg1 Hg2 3.229479 1_655
Hg2 V0 3.026799 1_555
Hg2 V0 3.026799 1_554
Hg2 Hg4 3.085693 1_565
Hg2 Hg4 3.085693 1_564
Hg2 Hg3 3.085693 1_454
Hg2 Hg3 3.085693 1_455
Hg2 V1 3.143981 1_455
Hg2 V1 3.143981 1_565
Hg3 V1 3.026799 1_555
Hg3 V1 3.026799 1_556
Hg3 Hg5 3.057701 1_555
Hg3 Hg4 3.057701 1_555
Hg3 V0 3.143975 1_655
Hg3 V0 3.143987 1_555
Hg3 Hg5 3.229479 1_565
Hg3 Hg4 3.229479 1_665
Hg4 V1 3.026799 1_555
Hg4 V1 3.026799 1_556
Hg4 Hg5 3.057701 1_555
Hg4 V0 3.143975 1_545
Hg4 V0 3.143987 1_555
Hg4 Hg5 3.229479 1_455
Hg5 V1 3.026799 1_556
Hg5 V1 3.026799 1_555
Hg5 V0 3.143981 1_545
Hg5 V0 3.143981 1_655
