# generated using pymatgen
data_K2Cd3S3O16
_symmetry_space_group_name_H-M   'P 1'
_cell_length_a   8.29331000
_cell_length_b   9.68261100
_cell_length_c   10.38602688
_cell_angle_alpha   90.00000000
_cell_angle_beta   113.53150390
_cell_angle_gamma   90.00000000
_symmetry_Int_Tables_number   1
_chemical_formula_structural   K2Cd3S3O16
_chemical_formula_sum   'K4 Cd6 S6 O32'
_cell_volume   764.65177859
_cell_formula_units_Z   2
loop_
 _symmetry_equiv_pos_site_id
 _symmetry_equiv_pos_as_xyz
  1  'x, y, z'
loop_
 _atom_site_type_symbol
 _atom_site_label
 _atom_site_symmetry_multiplicity
 _atom_site_fract_x
 _atom_site_fract_y
 _atom_site_fract_z
 _atom_site_occupancy
  K  K0  1  0.73640200  0.55416500  0.38348800  1
  K  K1  1  0.35291400  0.55416500  0.61651200  1
  K  K2  1  0.26359800  0.05416500  0.61651200  1
  K  K3  1  0.64708600  0.05416500  0.38348800  1
  Cd  Cd0  1  0.11598300  0.49136100  0.17653700  1
  Cd  Cd1  1  0.93944600  0.49136100  0.82346300  1
  Cd  Cd2  1  0.88401700  0.99136100  0.82346300  1
  Cd  Cd3  1  0.06055400  0.99136100  0.17653700  1
  Cd  Cd4  1  0.31526200  0.77642600  0.00000000  1
  Cd  Cd5  1  0.68473800  0.27642600  0.00000000  1
  S  S0  1  0.02698700  0.77193600  0.64194500  1
  S  S1  1  0.38504200  0.77193600  0.35805500  1
  S  S2  1  0.97301300  0.27193600  0.35805500  1
  S  S3  1  0.61495800  0.27193600  0.64194500  1
  S  S4  1  0.68865900  0.61960500  0.00000000  1
  S  S5  1  0.31134100  0.11960500  0.00000000  1
  O  O0  1  0.21150400  0.76718200  0.75032900  1
  O  O1  1  0.46117500  0.76718200  0.24967100  1
  O  O2  1  0.78849600  0.26718200  0.24967100  1
  O  O3  1  0.53882500  0.26718200  0.75032900  1
  O  O4  1  0.95002700  0.91253500  0.63961300  1
  O  O5  1  0.31041300  0.91253500  0.36038700  1
  O  O6  1  0.04997300  0.41253500  0.36038700  1
  O  O7  1  0.68958700  0.41253500  0.63961300  1
  O  O8  1  0.02900900  0.74322800  0.50269400  1
  O  O9  1  0.52631500  0.74322800  0.49730600  1
  O  O10  1  0.97099100  0.24322800  0.49730600  1
  O  O11  1  0.47368500  0.24322800  0.50269400  1
  O  O12  1  0.91462300  0.66739900  0.67283200  1
  O  O13  1  0.24179100  0.66739900  0.32716800  1
  O  O14  1  0.08537700  0.16739900  0.32716800  1
  O  O15  1  0.75820900  0.16739900  0.67283200  1
  O  O16  1  0.58790800  0.74626200  0.00000000  1
  O  O17  1  0.41209200  0.24626200  0.00000000  1
  O  O18  1  0.57997100  0.49685800  0.00000000  1
  O  O19  1  0.42002900  0.99685800  0.00000000  1
  O  O20  1  0.85513000  0.62111600  0.12934000  1
  O  O21  1  0.72579000  0.62111600  0.87066000  1
  O  O22  1  0.14487000  0.12111600  0.87066000  1
  O  O23  1  0.27421000  0.12111600  0.12934000  1
  O  O24  1  0.87882100  0.90519100  0.27724600  1
  O  O25  1  0.60157500  0.90519100  0.72275400  1
  O  O26  1  0.12117900  0.40519100  0.72275400  1
  O  O27  1  0.39842500  0.40519100  0.27724600  1
  O  O28  1  0.17675400  0.57706900  0.00000000  1
  O  O29  1  0.82324600  0.07706900  0.00000000  1
  O  O30  1  0.93799300  0.36095300  0.00000000  1
  O  O31  1  0.06200700  0.86095300  0.00000000  1
loop_
_geom_bond_atom_site_label_1
_geom_bond_atom_site_label_2
_geom_bond_distance
_geom_bond_site_symmetry_2
K0 O8 2.893743 1_655
K0 O27 2.947048 1_555
K0 O1 2.977019 1_555
K0 O12 2.978389 1_555
K0 O6 3.033018 1_655
K0 O9 3.070647 1_555
K0 O7 3.151551 1_555
K0 O2 3.212344 1_555
K0 O20 3.229949 1_555
K1 O9 2.893743 1_555
K1 O26 2.947048 1_555
K1 O0 2.977019 1_555
K1 O13 2.978389 1_555
K1 O7 3.033025 1_555
K1 O8 3.070647 1_555
K1 O6 3.151555 1_555
K1 O3 3.212344 1_555
K1 O21 3.229949 1_555
K2 O10 2.893743 1_455
K2 O25 2.947048 1_545
K2 O3 2.977019 1_555
K2 O14 2.978389 1_555
K2 O4 3.033018 1_445
K2 O11 3.070647 1_555
K2 O5 3.151551 1_545
K2 O0 3.212344 1_545
K2 O22 3.229949 1_555
K3 O11 2.893743 1_555
K3 O24 2.947048 1_545
K3 O2 2.977019 1_555
K3 O15 2.978389 1_555
K3 O5 3.033025 1_545
K3 O10 3.070647 1_555
K3 O4 3.151555 1_545
K3 O1 3.212344 1_545
K3 O23 3.229949 1_555
Cd0 O30 2.230238 1_455
Cd0 O28 2.245524 1_555
Cd0 O13 2.266734 1_555
Cd0 O27 2.306631 1_555
Cd0 O6 2.315817 1_555
Cd0 O20 2.377392 1_455
Cd1 O30 2.230238 1_556
Cd1 O28 2.245524 1_656
Cd1 O12 2.266734 1_555
Cd1 O26 2.306631 1_655
Cd1 O7 2.315812 1_555
Cd1 O21 2.377392 1_555
Cd2 O31 2.230238 1_656
Cd2 O29 2.245524 1_566
Cd2 O15 2.266734 1_565
Cd2 O25 2.306631 1_555
Cd2 O4 2.315817 1_555
Cd2 O22 2.377392 1_665
Cd3 O31 2.230238 1_555
Cd3 O29 2.245524 1_465
Cd3 O14 2.266734 1_565
Cd3 O24 2.306631 1_455
Cd3 O5 2.315812 1_555
Cd3 O23 2.377392 1_565
Cd4 O28 2.246226 1_555
Cd4 O31 2.254152 1_555
Cd4 O16 2.279923 1_555
Cd4 O19 2.304432 1_555
Cd4 O0 2.385547 1_554
Cd4 O1 2.385547 1_555
Cd5 O29 2.246226 1_555
Cd5 O30 2.254152 1_555
Cd5 O17 2.279923 1_555
Cd5 O18 2.304432 1_555
Cd5 O3 2.385547 1_554
Cd5 O2 2.385547 1_555
O0 S0 1.495148 1_555
O1 S1 1.495148 1_555
O2 S2 1.495148 1_555
O3 S3 1.495148 1_555
O4 S0 1.499642 1_655
O5 S1 1.499645 1_555
O6 S2 1.499642 1_455
O7 S3 1.499645 1_555
O8 S0 1.479390 1_555
O9 S1 1.479390 1_555
O10 S2 1.479390 1_555
O11 S3 1.479390 1_555
O12 S0 1.494832 1_655
O13 S1 1.494832 1_555
O14 S2 1.494832 1_455
O15 S3 1.494832 1_555
O16 S4 1.483962 1_555
O17 S5 1.483962 1_555
O18 S4 1.491661 1_555
O19 S5 1.491661 1_565
O20 S4 1.493280 1_555
O21 S4 1.493280 1_556
O22 S5 1.493280 1_556
O23 S5 1.493280 1_555
