# generated using pymatgen
data_CeAs2Au
_symmetry_space_group_name_H-M   'P 1'
_cell_length_a   4.10641727
_cell_length_b   4.10641727
_cell_length_c   10.04541215
_cell_angle_alpha   90.00000000
_cell_angle_beta   90.00000000
_cell_angle_gamma   90.00000000
_symmetry_Int_Tables_number   1
_chemical_formula_structural   CeAs2Au
_chemical_formula_sum   'Ce2 As4 Au2'
_cell_volume   169.39239773
_cell_formula_units_Z   2
loop_
 _symmetry_equiv_pos_site_id
 _symmetry_equiv_pos_as_xyz
  1  'x, y, z'
loop_
 _atom_site_type_symbol
 _atom_site_label
 _atom_site_symmetry_multiplicity
 _atom_site_fract_x
 _atom_site_fract_y
 _atom_site_fract_z
 _atom_site_occupancy
  Ce  Ce0  1  0.50000000  0.00000000  0.77157380  1
  Ce  Ce1  1  0.00000000  0.50000000  0.22842620  1
  As  As0  1  0.50000000  -0.00000000  0.31361429  1
  As  As1  1  0.00000000  0.50000000  0.68638571  1
  As  As2  1  0.50000000  0.50000000  -0.00000000  1
  As  As3  1  -0.00000000  -0.00000000  -0.00000000  1
  Au  Au0  1  0.50000000  0.50000000  0.50000000  1
  Au  Au1  1  0.00000000  0.00000000  0.50000000  1
loop_
_geom_bond_atom_site_label_1
_geom_bond_atom_site_label_2
_geom_bond_distance
_geom_bond_site_symmetry_2
As0 Au0 2.778714 1_545
As0 Au0 2.778714 1_555
As0 Au1 2.778714 1_555
As0 Au1 2.778714 1_655
As0 Ce1 3.027150 1_645
As0 Ce1 3.027150 1_555
As0 Ce1 3.027150 1_545
As0 Ce1 3.027150 1_655
As1 Au1 2.778714 1_565
As1 Au0 2.778714 1_455
As1 Au1 2.778714 1_555
As1 Au0 2.778714 1_555
As1 Ce0 3.027150 1_565
As1 Ce0 3.027150 1_465
As1 Ce0 3.027150 1_455
As1 Ce0 3.027150 1_555
As2 As3 2.903675 1_655
As2 As3 2.903675 1_565
As2 As3 2.903675 1_665
As2 As3 2.903675 1_555
As2 Ce1 3.079126 1_555
As2 Ce1 3.079126 1_655
As2 Ce0 3.079126 1_564
As2 Ce0 3.079126 1_554
As3 Ce1 3.079126 1_555
As3 Ce1 3.079126 1_545
As3 Ce0 3.079126 1_554
As3 Ce0 3.079126 1_454
Au0 Au1 2.903675 1_555
Au0 Au1 2.903675 1_655
Au0 Au1 2.903675 1_565
Au0 Au1 2.903675 1_665
Au0 Ce1 3.414387 1_555
Au0 Ce1 3.414387 1_655
Au0 Ce0 3.414387 1_565
Au0 Ce0 3.414387 1_555
Au1 Ce1 3.414387 1_555
Au1 Ce1 3.414387 1_545
Au1 Ce0 3.414387 1_455
Au1 Ce0 3.414387 1_555
