# generated using pymatgen
data_Dy5BiAu2
_symmetry_space_group_name_H-M   'P 1'
_cell_length_a   8.69376408
_cell_length_b   8.69376408
_cell_length_c   8.69376408
_cell_angle_alpha   124.41878019
_cell_angle_beta   124.41878019
_cell_angle_gamma   82.50296699
_symmetry_Int_Tables_number   1
_chemical_formula_structural   Dy5BiAu2
_chemical_formula_sum   'Dy10 Bi2 Au4'
_cell_volume   429.55734927
_cell_formula_units_Z   2
loop_
 _symmetry_equiv_pos_site_id
 _symmetry_equiv_pos_as_xyz
  1  'x, y, z'
loop_
 _atom_site_type_symbol
 _atom_site_label
 _atom_site_symmetry_multiplicity
 _atom_site_fract_x
 _atom_site_fract_y
 _atom_site_fract_z
 _atom_site_occupancy
  Dy  Dy0  1  0.50000000  0.50000000  0.00000000  1
  Dy  Dy1  1  -0.00000000  0.00000000  0.00000000  1
  Dy  Dy2  1  0.51475863  0.01475863  0.80862066  1
  Dy  Dy3  1  0.20613797  0.70613797  0.19137934  1
  Dy  Dy4  1  0.01475863  0.20613797  0.50000000  1
  Dy  Dy5  1  0.70613797  0.51475863  0.50000000  1
  Dy  Dy6  1  0.48524137  0.98524137  0.19137934  1
  Dy  Dy7  1  0.79386203  0.29386203  0.80862066  1
  Dy  Dy8  1  0.98524137  0.79386203  0.50000000  1
  Dy  Dy9  1  0.29386203  0.48524137  0.50000000  1
  Bi  Bi0  1  0.25000000  0.25000000  0.00000000  1
  Bi  Bi1  1  0.75000000  0.75000000  0.00000000  1
  Au  Au0  1  0.13798636  0.63798636  0.77597372  1
  Au  Au1  1  0.86201364  0.36201364  0.22402628  1
  Au  Au2  1  0.63798636  0.86201364  0.50000000  1
  Au  Au3  1  0.36201364  0.13798636  0.50000000  1
loop_
_geom_bond_atom_site_label_1
_geom_bond_atom_site_label_2
_geom_bond_distance
_geom_bond_site_symmetry_2
Dy0 Dy3 3.570223 1_555
Dy0 Dy7 3.570223 1_554
Dy0 Dy6 3.570223 1_555
Dy0 Dy9 3.570223 1_554
Dy0 Dy2 3.570223 1_554
Dy0 Dy5 3.570223 1_555
Dy0 Dy8 3.570223 1_555
Dy0 Dy4 3.570223 1_554
Dy1 Dy4 3.570223 1_555
Dy1 Dy3 3.570223 1_545
Dy1 Dy8 3.570223 1_444
Dy1 Dy6 3.570223 1_545
Dy1 Dy7 3.570223 1_454
Dy1 Dy2 3.570223 1_454
Dy1 Dy5 3.570223 1_444
Dy1 Dy9 3.570223 1_555
Dy2 Dy3 3.538253 1_545
Dy2 Dy6 3.626647 1_546
Dy2 Dy7 3.648534 1_555
Dy2 Dy9 3.820740 1_545
Dy2 Dy8 3.820740 1_445
Dy3 Dy7 3.626647 1_454
Dy3 Dy6 3.648534 1_555
Dy3 Dy8 3.820740 1_455
Dy3 Dy9 3.820740 1_555
Dy4 Dy5 3.538253 1_455
Dy4 Dy8 3.626647 1_445
Dy4 Dy9 3.648534 1_555
Dy4 Dy7 3.820740 1_455
Dy4 Dy6 3.820740 1_445
Dy5 Dy9 3.626647 1_555
Dy5 Dy8 3.648534 1_555
Dy5 Dy6 3.820740 1_545
Dy5 Dy7 3.820740 1_555
Dy6 Dy7 3.538253 1_565
Dy8 Dy9 3.538253 1_655
Bi0 Dy0 3.268085 1_555
Bi0 Dy1 3.268085 1_555
Bi0 Dy7 3.391629 1_454
Bi0 Dy9 3.391629 1_555
Bi0 Dy4 3.391629 1_554
Bi0 Dy3 3.391629 1_555
Bi0 Dy6 3.391629 1_545
Bi0 Dy2 3.391629 1_554
Bi0 Dy8 3.391629 1_444
Bi0 Dy5 3.391629 1_555
Bi1 Dy0 3.268085 1_555
Bi1 Dy1 3.268085 1_665
Bi1 Dy3 3.391629 1_655
Bi1 Dy4 3.391629 1_665
Bi1 Dy8 3.391629 1_555
Bi1 Dy2 3.391629 1_564
Bi1 Dy7 3.391629 1_554
Bi1 Dy6 3.391629 1_555
Bi1 Dy5 3.391629 1_554
Bi1 Dy9 3.391629 1_554
Au0 Dy5 2.993393 1_455
Au0 Dy4 2.993393 1_555
Au0 Dy8 2.993401 1_455
Au0 Dy9 2.993401 1_555
Au0 Dy3 2.999719 1_556
Au0 Dy6 2.999727 1_556
Au0 Dy0 3.140729 1_556
Au0 Dy1 3.140729 1_566
Au0 Au1 3.163965 1_455
Au1 Dy8 2.993393 1_555
Au1 Dy9 2.993393 1_655
Au1 Dy5 2.993401 1_555
Au1 Dy4 2.993401 1_655
Au1 Dy7 2.999719 1_554
Au1 Dy2 2.999727 1_554
Au1 Dy0 3.140729 1_555
Au1 Dy1 3.140729 1_655
Au2 Dy6 2.993394 1_555
Au2 Dy3 2.993394 1_555
Au2 Dy2 2.993394 1_565
Au2 Dy7 2.993394 1_565
Au2 Dy8 2.999727 1_555
Au2 Dy5 2.999727 1_555
Au2 Dy1 3.140731 1_666
Au2 Dy0 3.140731 1_555
Au2 Au3 3.163953 1_565
Au3 Dy6 2.993394 1_545
Au3 Dy3 2.993394 1_545
Au3 Dy7 2.993394 1_555
Au3 Dy2 2.993394 1_555
Au3 Dy4 2.999727 1_555
Au3 Dy9 2.999727 1_555
Au3 Dy0 3.140731 1_556
Au3 Dy1 3.140731 1_555
