# generated using pymatgen
data_Zn3Ge3(SbO6)2
_symmetry_space_group_name_H-M   'P 1'
_cell_length_a   10.96868172
_cell_length_b   10.96868112
_cell_length_c   10.96868126
_cell_angle_alpha   109.47122091
_cell_angle_beta   109.47121981
_cell_angle_gamma   109.47121983
_symmetry_Int_Tables_number   1
_chemical_formula_structural   Zn3Ge3(SbO6)2
_chemical_formula_sum   'Zn12 Ge12 Sb8 O48'
_cell_volume   1015.87758627
_cell_formula_units_Z   4
loop_
 _symmetry_equiv_pos_site_id
 _symmetry_equiv_pos_as_xyz
  1  'x, y, z'
loop_
 _atom_site_type_symbol
 _atom_site_label
 _atom_site_symmetry_multiplicity
 _atom_site_fract_x
 _atom_site_fract_y
 _atom_site_fract_z
 _atom_site_occupancy
  Zn  Zn0  1  0.62500000  0.25000000  0.87500000  1
  Zn  Zn1  1  0.87500000  0.75000000  0.62500000  1
  Zn  Zn2  1  0.75000000  0.62500000  0.87500000  1
  Zn  Zn3  1  0.25000000  0.87500000  0.62500000  1
  Zn  Zn4  1  0.87500000  0.62500000  0.25000000  1
  Zn  Zn5  1  0.62500000  0.87500000  0.75000000  1
  Zn  Zn6  1  0.37500000  0.75000000  0.12500000  1
  Zn  Zn7  1  0.12500000  0.25000000  0.37500000  1
  Zn  Zn8  1  0.25000000  0.37500000  0.12500000  1
  Zn  Zn9  1  0.75000000  0.12500000  0.37500000  1
  Zn  Zn10  1  0.12500000  0.37500000  0.75000000  1
  Zn  Zn11  1  0.37500000  0.12500000  0.25000000  1
  Ge  Ge0  1  0.87500000  0.12500000  0.75000000  1
  Ge  Ge1  1  0.12500000  0.87500000  0.25000000  1
  Ge  Ge2  1  0.25000000  0.62500000  0.37500000  1
  Ge  Ge3  1  0.12500000  0.75000000  0.87500000  1
  Ge  Ge4  1  0.75000000  0.87500000  0.12500000  1
  Ge  Ge5  1  0.37500000  0.25000000  0.62500000  1
  Ge  Ge6  1  0.62500000  0.75000000  0.37500000  1
  Ge  Ge7  1  0.87500000  0.25000000  0.12500000  1
  Ge  Ge8  1  0.25000000  0.12500000  0.87500000  1
  Ge  Ge9  1  0.75000000  0.37500000  0.62500000  1
  Ge  Ge10  1  0.37500000  0.62500000  0.75000000  1
  Ge  Ge11  1  0.62500000  0.37500000  0.25000000  1
  Sb  Sb0  1  0.50000000  0.50000000  0.50000000  1
  Sb  Sb1  1  0.50000000  0.50000000  0.00000000  1
  Sb  Sb2  1  0.50000000  0.00000000  0.50000000  1
  Sb  Sb3  1  0.00000000  0.50000000  0.50000000  1
  Sb  Sb4  1  0.50000000  0.00000000  0.00000000  1
  Sb  Sb5  1  0.00000000  0.00000000  0.50000000  1
  Sb  Sb6  1  0.00000000  0.50000000  0.00000000  1
  Sb  Sb7  1  0.00000000  0.00000000  0.00000000  1
  O  O0  1  0.77630182  0.41092566  0.80664908  1
  O  O1  1  0.08907434  0.86537616  0.39572342  1
  O  O2  1  0.69335092  0.10427658  0.96965174  1
  O  O3  1  0.72369818  0.53034826  0.63462384  1
  O  O4  1  0.72369818  0.69335092  0.08907434  1
  O  O5  1  0.53034826  0.63462384  0.72369818  1
  O  O6  1  0.10427658  0.63462384  0.41092566  1
  O  O7  1  0.63462384  0.72369818  0.53034826  1
  O  O8  1  0.39572342  0.80664908  0.53034826  1
  O  O9  1  0.86537616  0.96965174  0.77630182  1
  O  O10  1  0.96965174  0.77630182  0.86537616  1
  O  O11  1  0.08907434  0.72369818  0.69335092  1
  O  O12  1  0.63462384  0.41092566  0.10427658  1
  O  O13  1  0.53034826  0.39572342  0.80664908  1
  O  O14  1  0.69335092  0.08907434  0.72369818  1
  O  O15  1  0.41092566  0.10427658  0.63462384  1
  O  O16  1  0.80664908  0.53034826  0.39572342  1
  O  O17  1  0.39572342  0.08907434  0.86537616  1
  O  O18  1  0.10427658  0.96965174  0.69335092  1
  O  O19  1  0.60427658  0.19335092  0.46965174  1
  O  O20  1  0.96965174  0.69335092  0.10427658  1
  O  O21  1  0.80664908  0.77630182  0.41092566  1
  O  O22  1  0.86537616  0.39572342  0.08907434  1
  O  O23  1  0.77630182  0.86537616  0.96965174  1
  O  O24  1  0.22369818  0.58907434  0.19335092  1
  O  O25  1  0.91092566  0.13462384  0.60427658  1
  O  O26  1  0.30664908  0.89572342  0.03034826  1
  O  O27  1  0.27630182  0.46965174  0.36537616  1
  O  O28  1  0.27630182  0.30664908  0.91092566  1
  O  O29  1  0.46965174  0.36537616  0.27630182  1
  O  O30  1  0.89572342  0.36537616  0.58907434  1
  O  O31  1  0.36537616  0.27630182  0.46965174  1
  O  O32  1  0.22369818  0.13462384  0.03034826  1
  O  O33  1  0.13462384  0.60427658  0.91092566  1
  O  O34  1  0.19335092  0.22369818  0.58907434  1
  O  O35  1  0.58907434  0.19335092  0.22369818  1
  O  O36  1  0.03034826  0.30664908  0.89572342  1
  O  O37  1  0.89572342  0.03034826  0.30664908  1
  O  O38  1  0.60427658  0.91092566  0.13462384  1
  O  O39  1  0.19335092  0.46965174  0.60427658  1
  O  O40  1  0.58907434  0.89572342  0.36537616  1
  O  O41  1  0.30664908  0.91092566  0.27630182  1
  O  O42  1  0.46965174  0.60427658  0.19335092  1
  O  O43  1  0.36537616  0.58907434  0.89572342  1
  O  O44  1  0.91092566  0.27630182  0.30664908  1
  O  O45  1  0.03034826  0.22369818  0.13462384  1
  O  O46  1  0.13462384  0.03034826  0.22369818  1
  O  O47  1  0.41092566  0.80664908  0.77630182  1
loop_
_geom_bond_atom_site_label_1
_geom_bond_atom_site_label_2
_geom_bond_distance
_geom_bond_site_symmetry_2
Ge0 O25 1.796092 1_555
Ge0 O14 1.796092 1_555
Ge0 O36 1.796095 1_655
Ge0 O9 1.796103 1_545
Ge1 O1 1.796092 1_555
Ge1 O41 1.796092 1_555
Ge1 O20 1.796095 1_455
Ge1 O46 1.796103 1_565
Ge2 O24 1.796092 1_555
Ge2 O6 1.796092 1_555
Ge2 O8 1.796095 1_555
Ge2 O27 1.796103 1_555
Ge3 O33 1.796092 1_555
Ge3 O11 1.796092 1_555
Ge3 O26 1.796095 1_556
Ge3 O10 1.796103 1_455
Ge4 O4 1.796092 1_555
Ge4 O38 1.796092 1_555
Ge4 O37 1.796095 1_565
Ge4 O23 1.796103 1_554
Ge5 O15 1.796092 1_555
Ge5 O34 1.796092 1_555
Ge5 O13 1.796095 1_555
Ge5 O31 1.796103 1_555
Ge6 O40 1.796092 1_555
Ge6 O21 1.796092 1_555
Ge6 O42 1.796095 1_555
Ge6 O7 1.796103 1_555
Ge7 O22 1.796092 1_555
Ge7 O44 1.796092 1_555
Ge7 O2 1.796095 1_554
Ge7 O45 1.796103 1_655
Ge8 O28 1.796092 1_555
Ge8 O17 1.796092 1_555
Ge8 O18 1.796095 1_545
Ge8 O32 1.796103 1_556
Ge9 O0 1.796092 1_555
Ge9 O30 1.796092 1_555
Ge9 O19 1.796095 1_555
Ge9 O3 1.796103 1_555
Ge10 O47 1.796092 1_555
Ge10 O43 1.796092 1_555
Ge10 O39 1.796095 1_555
Ge10 O5 1.796103 1_555
Ge11 O35 1.796092 1_555
Ge11 O12 1.796092 1_555
Ge11 O16 1.796095 1_555
Ge11 O29 1.796103 1_555
O0 Sb6 2.241460 1_656
O0 Zn2 2.362443 1_555
O0 Zn0 2.488133 1_555
O1 Sb5 2.241460 1_565
O1 Zn4 2.362443 1_455
O1 Zn3 2.488133 1_555
O2 Sb4 2.241467 1_556
O2 Zn0 2.362437 1_555
O2 Zn5 2.488127 1_545
O3 Sb0 2.241455 1_555
O3 Zn2 2.362443 1_555
O3 Zn1 2.488125 1_555
O4 Sb1 2.241460 1_555
O4 Zn2 2.362443 1_554
O4 Zn4 2.488133 1_555
O5 Sb0 2.241455 1_555
O5 Zn5 2.362443 1_555
O5 Zn2 2.488125 1_555
O6 Sb3 2.241460 1_555
O6 Zn3 2.362443 1_555
O6 Zn4 2.488133 1_455
O7 Sb0 2.241455 1_555
O7 Zn1 2.362443 1_555
O7 Zn5 2.488125 1_555
O8 Sb2 2.241466 1_565
O8 Zn3 2.362437 1_555
O8 Zn5 2.488127 1_555
O9 Sb7 2.241455 1_666
O9 Zn5 2.362443 1_555
O9 Zn1 2.488125 1_555
O10 Sb7 2.241455 1_666
O10 Zn1 2.362443 1_555
O10 Zn2 2.488125 1_555
O11 Sb3 2.241460 1_555
O11 Zn1 2.362443 1_455
O11 Zn3 2.488133 1_555
O12 Sb1 2.241460 1_555
O12 Zn4 2.362443 1_555
O12 Zn0 2.488133 1_554
O13 Sb1 2.241466 1_556
O13 Zn0 2.362437 1_555
O13 Zn2 2.488127 1_555
O14 Sb2 2.241460 1_555
O14 Zn5 2.362443 1_545
O14 Zn0 2.488133 1_555
O15 Sb2 2.241460 1_555
O15 Zn0 2.362443 1_555
O15 Zn3 2.488133 1_545
O16 Sb3 2.241467 1_655
O16 Zn4 2.362437 1_555
O16 Zn1 2.488127 1_555
O17 Sb4 2.241460 1_556
O17 Zn3 2.362443 1_545
O17 Zn0 2.488133 1_555
O18 Sb5 2.241467 1_565
O18 Zn3 2.362437 1_555
O18 Zn1 2.488127 1_455
O19 Sb2 2.241466 1_555
O19 Zn9 2.362437 1_555
O19 Zn11 2.488127 1_555
O20 Sb6 2.241466 1_655
O20 Zn4 2.362437 1_555
O20 Zn2 2.488127 1_554
O21 Sb5 2.241460 1_665
O21 Zn1 2.362443 1_555
O21 Zn4 2.488133 1_555
O22 Sb6 2.241460 1_655
O22 Zn0 2.362443 1_554
O22 Zn4 2.488133 1_555
O23 Sb7 2.241455 1_666
O23 Zn2 2.362443 1_555
O23 Zn5 2.488125 1_555
O24 Sb6 2.241460 1_555
O24 Zn8 2.362443 1_555
O24 Zn6 2.488133 1_555
O25 Sb5 2.241460 1_655
O25 Zn10 2.362443 1_655
O25 Zn9 2.488133 1_555
O26 Sb4 2.241467 1_565
O26 Zn6 2.362437 1_555
O26 Zn11 2.488127 1_565
O27 Sb0 2.241455 1_555
O27 Zn8 2.362443 1_555
O27 Zn7 2.488125 1_555
O28 Sb1 2.241460 1_556
O28 Zn8 2.362443 1_556
O28 Zn10 2.488133 1_555
O29 Sb0 2.241455 1_555
O29 Zn11 2.362443 1_555
O29 Zn8 2.488125 1_555
O30 Sb3 2.241460 1_655
O30 Zn9 2.362443 1_555
O30 Zn10 2.488133 1_655
O31 Sb0 2.241455 1_555
O31 Zn7 2.362443 1_555
O31 Zn11 2.488125 1_555
O32 Sb7 2.241455 1_555
O32 Zn8 2.362443 1_555
O32 Zn11 2.488125 1_555
O33 Sb6 2.241460 1_556
O33 Zn6 2.362443 1_556
O33 Zn10 2.488133 1_555
O34 Sb5 2.241460 1_555
O34 Zn7 2.362443 1_555
O34 Zn10 2.488133 1_555
O35 Sb4 2.241460 1_555
O35 Zn11 2.362443 1_555
O35 Zn9 2.488133 1_555
O36 Sb6 2.241466 1_556
O36 Zn10 2.362437 1_555
O36 Zn8 2.488127 1_556
O37 Sb5 2.241467 1_655
O37 Zn9 2.362437 1_555
O37 Zn7 2.488127 1_655
O38 Sb4 2.241460 1_565
O38 Zn9 2.362443 1_565
O38 Zn6 2.488133 1_555
O39 Sb3 2.241467 1_555
O39 Zn10 2.362437 1_555
O39 Zn7 2.488127 1_555
O40 Sb2 2.241460 1_565
O40 Zn6 2.362443 1_555
O40 Zn9 2.488133 1_565
O41 Sb2 2.241460 1_565
O41 Zn11 2.362443 1_565
O41 Zn6 2.488133 1_555
O42 Sb1 2.241466 1_555
O42 Zn6 2.362437 1_555
O42 Zn8 2.488127 1_555
O43 Sb1 2.241460 1_556
O43 Zn10 2.362443 1_555
O43 Zn6 2.488133 1_556
O44 Sb3 2.241460 1_655
O44 Zn7 2.362443 1_655
O44 Zn9 2.488133 1_555
O45 Sb7 2.241455 1_555
O45 Zn7 2.362443 1_555
O45 Zn8 2.488125 1_555
O46 Sb7 2.241455 1_555
O46 Zn11 2.362443 1_555
O46 Zn7 2.488125 1_555
O47 Sb4 2.241460 1_566
O47 Zn5 2.362443 1_555
O47 Zn3 2.488133 1_555
