# generated using pymatgen
data_HfMg6Cd
_symmetry_space_group_name_H-M   'P 1'
_cell_length_a   5.03296900
_cell_length_b   6.36791400
_cell_length_c   11.06813000
_cell_angle_alpha   90.00000000
_cell_angle_beta   90.00000000
_cell_angle_gamma   90.00000000
_symmetry_Int_Tables_number   1
_chemical_formula_structural   HfMg6Cd
_chemical_formula_sum   'Hf2 Mg12 Cd2'
_cell_volume   354.72818470
_cell_formula_units_Z   2
loop_
 _symmetry_equiv_pos_site_id
 _symmetry_equiv_pos_as_xyz
  1  'x, y, z'
loop_
 _atom_site_type_symbol
 _atom_site_label
 _atom_site_symmetry_multiplicity
 _atom_site_fract_x
 _atom_site_fract_y
 _atom_site_fract_z
 _atom_site_occupancy
  Hf  Hf0  1  0.50000000  0.50000000  0.16938200  1
  Hf  Hf1  1  0.50000000  0.00000000  0.66938200  1
  Mg  Mg0  1  0.00000000  0.74734500  0.08369300  1
  Mg  Mg1  1  0.00000000  0.25265500  0.08369300  1
  Mg  Mg2  1  0.00000000  0.00000000  0.33259000  1
  Mg  Mg3  1  0.50000000  0.25157200  0.41879000  1
  Mg  Mg4  1  0.50000000  0.74842800  0.41879000  1
  Mg  Mg5  1  0.50000000  0.00000000  0.16557300  1
  Mg  Mg6  1  0.00000000  0.24734500  0.58369300  1
  Mg  Mg7  1  0.00000000  0.75265500  0.58369300  1
  Mg  Mg8  1  0.00000000  0.50000000  0.83259000  1
  Mg  Mg9  1  0.50000000  0.75157200  0.91879000  1
  Mg  Mg10  1  0.50000000  0.24842800  0.91879000  1
  Mg  Mg11  1  0.50000000  0.50000000  0.66557300  1
  Cd  Cd0  1  0.00000000  0.50000000  0.32749000  1
  Cd  Cd1  1  0.00000000  0.00000000  0.82749000  1
loop_
_geom_bond_atom_site_label_1
_geom_bond_atom_site_label_2
_geom_bond_distance
_geom_bond_site_symmetry_2
Hf0 Mg1 3.116575 1_655
Hf0 Mg0 3.116575 1_555
Hf0 Mg0 3.116575 1_655
Hf0 Mg1 3.116575 1_555
Hf0 Mg4 3.181646 1_555
Hf0 Mg3 3.181646 1_555
Hf0 Mg5 3.184236 1_555
Hf0 Mg5 3.184236 1_565
Hf0 Mg9 3.202989 1_554
Hf0 Mg10 3.202989 1_554
Hf1 Mg7 3.116575 1_645
Hf1 Mg7 3.116575 1_545
Hf1 Mg6 3.116575 1_655
Hf1 Mg6 3.116575 1_555
Hf1 Mg9 3.181646 1_545
Hf1 Mg10 3.181646 1_555
Hf1 Mg11 3.184236 1_545
Hf1 Mg11 3.184236 1_555
Hf1 Mg3 3.202989 1_555
Hf1 Mg4 3.202989 1_545
Mg0 Mg9 3.108803 1_554
Mg0 Mg9 3.108803 1_454
Mg0 Mg5 3.121300 1_465
Mg0 Mg5 3.121300 1_565
Mg0 Mg1 3.150143 1_555
Mg0 Mg2 3.190230 1_565
Mg0 Mg8 3.194531 1_554
Mg0 Mg1 3.217771 1_565
Mg1 Mg10 3.108803 1_454
Mg1 Mg10 3.108803 1_554
Mg1 Mg5 3.121300 1_455
Mg1 Mg5 3.121300 1_555
Mg1 Mg2 3.190230 1_555
Mg1 Mg8 3.194531 1_554
Mg2 Mg5 3.122481 1_455
Mg2 Mg5 3.122481 1_555
Mg2 Mg3 3.131983 1_455
Mg2 Mg4 3.131983 1_445
Mg2 Mg3 3.131983 1_555
Mg2 Mg4 3.131983 1_545
Mg2 Mg7 3.194531 1_545
Mg2 Mg6 3.194531 1_555
Mg3 Mg6 3.108803 1_655
Mg3 Mg6 3.108803 1_555
Mg3 Mg4 3.163936 1_555
Mg3 Mg4 3.203978 1_545
Mg3 Mg5 3.228181 1_555
Mg4 Mg7 3.108803 1_555
Mg4 Mg7 3.108803 1_655
Mg4 Mg5 3.228181 1_565
Mg5 Mg9 3.156472 1_544
Mg6 Mg7 3.150143 1_545
Mg6 Mg8 3.190230 1_555
Mg6 Mg7 3.217771 1_555
Mg7 Mg8 3.190230 1_555
Mg8 Mg9 3.131983 1_555
Mg8 Mg9 3.131983 1_455
Mg10 Mg8 3.131983 1_655
Mg10 Mg8 3.131983 1_555
Mg10 Mg5 3.156472 1_556
Mg10 Mg9 3.163936 1_545
Mg10 Mg9 3.203978 1_555
Mg10 Mg11 3.228181 1_555
Mg11 Mg7 3.121300 1_555
Mg11 Mg6 3.121300 1_655
Mg11 Mg7 3.121300 1_655
Mg11 Mg6 3.121300 1_555
Mg11 Mg8 3.122481 1_555
Mg11 Mg8 3.122481 1_655
Mg11 Mg4 3.156472 1_555
Mg11 Mg3 3.156472 1_555
Mg11 Mg9 3.228181 1_555
Cd0 Hf0 3.065135 1_455
Cd0 Hf0 3.065135 1_555
Cd0 Mg1 3.124434 1_555
Cd0 Mg0 3.124434 1_555
Cd0 Mg3 3.139501 1_555
Cd0 Mg3 3.139501 1_455
Cd0 Mg4 3.139501 1_455
Cd0 Mg4 3.139501 1_555
Cd0 Mg2 3.184457 1_555
Cd0 Mg2 3.184457 1_565
Cd0 Mg7 3.260313 1_555
Cd0 Mg6 3.260313 1_555
Cd1 Hf1 3.065135 1_555
Cd1 Hf1 3.065135 1_455
Cd1 Mg6 3.124434 1_555
Cd1 Mg7 3.124434 1_545
Cd1 Mg9 3.139501 1_445
Cd1 Mg9 3.139501 1_545
Cd1 Mg10 3.139501 1_455
Cd1 Mg10 3.139501 1_555
Cd1 Mg8 3.184457 1_555
Cd1 Mg8 3.184457 1_545
Cd1 Mg0 3.260313 1_546
Cd1 Mg1 3.260313 1_556
