# generated using pymatgen
data_NdMn4CoO12
_symmetry_space_group_name_H-M   'P 1'
_cell_length_a   5.15337824
_cell_length_b   5.15337824
_cell_length_c   7.74377803
_cell_angle_alpha   90.00000000
_cell_angle_beta   90.00000000
_cell_angle_gamma   89.61610536
_symmetry_Int_Tables_number   1
_chemical_formula_structural   NdMn4CoO12
_chemical_formula_sum   'Nd1 Mn4 Co1 O12'
_cell_volume   205.64927640
_cell_formula_units_Z   1
loop_
 _symmetry_equiv_pos_site_id
 _symmetry_equiv_pos_as_xyz
  1  'x, y, z'
loop_
 _atom_site_type_symbol
 _atom_site_label
 _atom_site_symmetry_multiplicity
 _atom_site_fract_x
 _atom_site_fract_y
 _atom_site_fract_z
 _atom_site_occupancy
  Nd  Nd0  1  0.96887811  0.03112189  -0.00000000  1
  Mn  Mn0  1  0.49976256  0.99876082  0.26032198  1
  Mn  Mn1  1  0.49976256  0.99876082  0.73967802  1
  Mn  Mn2  1  0.00123918  0.50023744  0.73967802  1
  Mn  Mn3  1  0.00123918  0.50023744  0.26032198  1
  Co  Co0  1  0.52458041  0.47541959  0.50000000  1
  O  O0  1  0.18175324  0.17795212  0.25391646  1
  O  O1  1  0.82204788  0.81824676  0.25391646  1
  O  O2  1  0.82204788  0.81824676  0.74608354  1
  O  O3  1  0.18175324  0.17795212  0.74608354  1
  O  O4  1  0.33372233  0.66627767  0.32709370  1
  O  O5  1  0.69366010  0.30633990  0.19790594  1
  O  O6  1  0.69366010  0.30633990  0.80209406  1
  O  O7  1  0.33372233  0.66627767  0.67290630  1
  O  O8  1  0.45718162  0.93778395  -0.00000000  1
  O  O9  1  0.52317209  0.11139886  0.50000000  1
  O  O10  1  0.06221605  0.54281838  -0.00000000  1
  O  O11  1  0.88860114  0.47682791  0.50000000  1
loop_
_geom_bond_atom_site_label_1
_geom_bond_atom_site_label_2
_geom_bond_distance
_geom_bond_site_symmetry_2
Nd0 O1 2.377682 1_545
Nd0 O2 2.377682 1_544
Nd0 O0 2.377682 1_655
Nd0 O3 2.377682 1_654
Nd0 O6 2.518906 1_554
Nd0 O5 2.518906 1_555
Nd0 O10 2.558804 1_645
Nd0 O8 2.558804 1_645
Nd0 O8 2.683645 1_545
Nd0 O10 2.683645 1_655
Mn0 O0 1.876343 1_565
Mn0 O1 1.898838 1_555
Mn0 O5 1.940553 1_565
Mn0 O9 1.948645 1_565
Mn0 O4 1.988706 1_555
Mn0 O8 2.052212 1_555
Mn1 O3 1.876343 1_565
Mn1 O2 1.898838 1_555
Mn1 O6 1.940553 1_565
Mn1 O9 1.948645 1_565
Mn1 O7 1.988706 1_555
Mn1 O8 2.052212 1_556
Mn2 O2 1.876343 1_455
Mn2 O3 1.898838 1_555
Mn2 O6 1.940553 1_455
Mn2 O11 1.948645 1_455
Mn2 O7 1.988706 1_555
Mn2 O10 2.052212 1_556
Mn3 O1 1.876343 1_455
Mn3 O0 1.898838 1_555
Mn3 O5 1.940553 1_455
Mn3 O11 1.948645 1_455
Mn3 O4 1.988706 1_555
Mn3 O10 2.052212 1_555
Co0 O9 1.875999 1_555
Co0 O11 1.875999 1_555
Co0 O7 1.927333 1_555
Co0 O4 1.927333 1_555
