# generated using pymatgen
data_Sr5Ca3Ti5Mn3O20
_symmetry_space_group_name_H-M   'P 1'
_cell_length_a   11.13647812
_cell_length_b   11.39466966
_cell_length_c   17.64165459
_cell_angle_alpha   108.80583285
_cell_angle_beta   108.65810289
_cell_angle_gamma   89.84831799
_symmetry_Int_Tables_number   1
_chemical_formula_structural   Sr5Ca3Ti5Mn3O20
_chemical_formula_sum   'Sr20 Ca12 Ti20 Mn12 O80'
_cell_volume   1995.14174466
_cell_formula_units_Z   4
loop_
 _symmetry_equiv_pos_site_id
 _symmetry_equiv_pos_as_xyz
  1  'x, y, z'
loop_
 _atom_site_type_symbol
 _atom_site_label
 _atom_site_symmetry_multiplicity
 _atom_site_fract_x
 _atom_site_fract_y
 _atom_site_fract_z
 _atom_site_occupancy
  Sr  Sr0  1  0.30929200  0.06064400  0.61042100  1
  Sr  Sr1  1  0.31128600  0.55771400  0.61169600  1
  Sr  Sr2  1  0.80729000  0.06295200  0.60923000  1
  Sr  Sr3  1  0.80819500  0.55907300  0.61374700  1
  Sr  Sr4  1  0.19801500  0.43398900  0.38735400  1
  Sr  Sr5  1  0.19894500  0.44059100  0.89128000  1
  Sr  Sr6  1  0.69574500  0.43441900  0.38979900  1
  Sr  Sr7  1  0.69341400  0.93600900  0.38370700  1
  Sr  Sr8  1  0.69548900  0.93709800  0.89178400  1
  Sr  Sr9  1  0.05667000  0.29642800  0.61177500  1
  Sr  Sr10  1  0.05866100  0.80609200  0.61437300  1
  Sr  Sr11  1  0.56169100  0.29866200  0.61163400  1
  Sr  Sr12  1  0.56170200  0.80080900  0.61193700  1
  Sr  Sr13  1  0.44445700  0.20037600  0.38463000  1
  Sr  Sr14  1  0.44577700  0.19876100  0.89080800  1
  Sr  Sr15  1  0.44504100  0.70113700  0.38578300  1
  Sr  Sr16  1  0.44805400  0.70474300  0.89347600  1
  Sr  Sr17  1  0.94275600  0.20092100  0.38583500  1
  Sr  Sr18  1  0.94987800  0.19754200  0.88988600  1
  Sr  Sr19  1  0.94701800  0.70535400  0.38804100  1
  Ca  Ca0  1  0.30414900  0.06792300  0.10849000  1
  Ca  Ca1  1  0.30263800  0.56577200  0.10423900  1
  Ca  Ca2  1  0.79840600  0.06790900  0.10519200  1
  Ca  Ca3  1  0.80271500  0.56715000  0.10202700  1
  Ca  Ca4  1  0.19655000  0.93162800  0.39186900  1
  Ca  Ca5  1  0.20487500  0.93696200  0.89647200  1
  Ca  Ca6  1  0.69642900  0.44129400  0.89265400  1
  Ca  Ca7  1  0.05599200  0.28599800  0.10412600  1
  Ca  Ca8  1  0.05254600  0.78849400  0.10611200  1
  Ca  Ca9  1  0.54784600  0.28362200  0.10143000  1
  Ca  Ca10  1  0.55416000  0.79357100  0.10921800  1
  Ca  Ca11  1  0.94722700  0.70493800  0.89479800  1
  Ti  Ti0  1  0.00631000  0.99449200  0.99812900  1
  Ti  Ti1  1  0.00332500  0.99908900  0.49607700  1
  Ti  Ti2  1  0.00297900  0.49512300  0.99542900  1
  Ti  Ti3  1  0.00571000  0.50430300  0.50405300  1
  Ti  Ti4  1  0.50689000  0.00125100  0.00650000  1
  Ti  Ti5  1  0.50122400  0.99887300  0.49552600  1
  Ti  Ti6  1  0.50696600  0.49807100  0.99909900  1
  Ti  Ti7  1  0.50431700  0.49998000  0.49881100  1
  Ti  Ti8  1  0.25678600  0.25195800  0.00439000  1
  Ti  Ti9  1  0.25636800  0.24939100  0.50414100  1
  Ti  Ti10  1  0.25731600  0.75593800  0.00709200  1
  Ti  Ti11  1  0.25887800  0.75193900  0.50886800  1
  Ti  Ti12  1  0.75601100  0.25478900  0.00061900  1
  Ti  Ti13  1  0.75227000  0.24806100  0.49737100  1
  Ti  Ti14  1  0.75979300  0.75294300  0.00512500  1
  Ti  Ti15  1  0.75756400  0.75068100  0.50508400  1
  Ti  Ti16  1  0.09985500  0.08210900  0.24419600  1
  Ti  Ti17  1  0.10204400  0.58598600  0.24192200  1
  Ti  Ti18  1  0.60624300  0.58276300  0.24163900  1
  Ti  Ti19  1  0.84314700  0.41265300  0.24205500  1
  Mn  Mn0  1  0.11444800  0.09401000  0.75378300  1
  Mn  Mn1  1  0.11037400  0.60254400  0.75619800  1
  Mn  Mn2  1  0.60192300  0.09042800  0.24448600  1
  Mn  Mn3  1  0.61259900  0.09891000  0.75154100  1
  Mn  Mn4  1  0.61646700  0.59476800  0.75479800  1
  Mn  Mn5  1  0.36054200  0.39811600  0.24449600  1
  Mn  Mn6  1  0.36392000  0.40865000  0.75286900  1
  Mn  Mn7  1  0.35392000  0.90611500  0.24561000  1
  Mn  Mn8  1  0.36071200  0.90693200  0.75654100  1
  Mn  Mn9  1  0.85865500  0.40959000  0.75372200  1
  Mn  Mn10  1  0.85618000  0.89831300  0.24377800  1
  Mn  Mn11  1  0.86529300  0.90485100  0.75303900  1
  O  O0  1  0.12513800  0.11917900  0.48592400  1
  O  O1  1  0.12804500  0.12108600  0.99527800  1
  O  O2  1  0.12261300  0.61933800  0.48522700  1
  O  O3  1  0.12371500  0.62374900  0.99383500  1
  O  O4  1  0.62334800  0.12147300  0.48991200  1
  O  O5  1  0.63053700  0.12877200  0.99518900  1
  O  O6  1  0.62535500  0.62194500  0.48966500  1
  O  O7  1  0.63118500  0.62097800  0.99475500  1
  O  O8  1  0.14107600  0.38535900  0.02285100  1
  O  O9  1  0.12835900  0.37383400  0.50034600  1
  O  O10  1  0.14039200  0.88564200  0.02297100  1
  O  O11  1  0.13315500  0.87189600  0.50121200  1
  O  O12  1  0.64283700  0.38541800  0.02240700  1
  O  O13  1  0.63171100  0.37723500  0.50501300  1
  O  O14  1  0.64231300  0.88057300  0.01983900  1
  O  O15  1  0.63140300  0.87288600  0.50287500  1
  O  O16  1  0.36678700  0.11453000  0.48388200  1
  O  O17  1  0.37509800  0.11682200  0.99189400  1
  O  O18  1  0.37071100  0.61986400  0.48773700  1
  O  O19  1  0.38032600  0.61887200  0.99626100  1
  O  O20  1  0.87558100  0.11886900  0.49030700  1
  O  O21  1  0.88122000  0.12280700  0.99912700  1
  O  O22  1  0.87363600  0.61914100  0.48770700  1
  O  O23  1  0.87893900  0.61509200  0.99130100  1
  O  O24  1  0.39249400  0.38776000  0.01934700  1
  O  O25  1  0.37878200  0.37528500  0.50271700  1
  O  O26  1  0.39120100  0.88826300  0.02125500  1
  O  O27  1  0.37658800  0.87412400  0.50134700  1
  O  O28  1  0.89422100  0.39079900  0.02441600  1
  O  O29  1  0.88279600  0.38055100  0.50366000  1
  O  O30  1  0.89385200  0.88899600  0.02130600  1
  O  O31  1  0.87997400  0.87554100  0.50188400  1
  O  O32  1  0.09883400  0.11004900  0.14698800  1
  O  O33  1  0.07842200  0.07580400  0.62533400  1
  O  O34  1  0.09502000  0.61232800  0.14395300  1
  O  O35  1  0.07380100  0.58575400  0.62710000  1
  O  O36  1  0.58732200  0.09947500  0.12825300  1
  O  O37  1  0.56812200  0.07990400  0.62311900  1
  O  O38  1  0.59696800  0.60815600  0.14229900  1
  O  O39  1  0.57206300  0.58119900  0.62631700  1
  O  O40  1  0.44122000  0.41917300  0.36851700  1
  O  O41  1  0.45793400  0.41467900  0.87853400  1
  O  O42  1  0.44191800  0.91492100  0.36871100  1
  O  O43  1  0.45571200  0.91677500  0.88048600  1
  O  O44  1  0.92763000  0.41175000  0.35162400  1
  O  O45  1  0.95245600  0.40944600  0.87797800  1
  O  O46  1  0.95051400  0.91675600  0.36842000  1
  O  O47  1  0.95498800  0.90946100  0.87951400  1
  O  O48  1  0.33432000  0.28049100  0.12808400  1
  O  O49  1  0.32284500  0.29370000  0.62557900  1
  O  O50  1  0.32860700  0.77898200  0.12959900  1
  O  O51  1  0.32018000  0.79321300  0.62763000  1
  O  O52  1  0.83522200  0.28892900  0.14108400  1
  O  O53  1  0.82395700  0.29873800  0.62710000  1
  O  O54  1  0.84254600  0.77717700  0.12811700  1
  O  O55  1  0.82610600  0.79156700  0.62661900  1
  O  O56  1  0.18304300  0.19955700  0.34864200  1
  O  O57  1  0.19827200  0.21595800  0.87928400  1
  O  O58  1  0.18357700  0.70364100  0.34624200  1
  O  O59  1  0.20230100  0.72192300  0.88160300  1
  O  O60  1  0.69455100  0.20326200  0.37005000  1
  O  O61  1  0.70452600  0.22360900  0.88026600  1
  O  O62  1  0.68692500  0.69386400  0.35020600  1
  O  O63  1  0.71180900  0.71282500  0.87979000  1
  O  O64  1  0.41366800  0.07252000  0.24001100  1
  O  O65  1  0.42884500  0.07175100  0.75190200  1
  O  O66  1  0.43667200  0.56425400  0.23740700  1
  O  O67  1  0.43089500  0.57677400  0.75377700  1
  O  O68  1  0.93097900  0.06776700  0.23785900  1
  O  O69  1  0.92855400  0.07198400  0.75026600  1
  O  O70  1  0.93294200  0.55963800  0.23783600  1
  O  O71  1  0.92604900  0.58462400  0.76159600  1
  O  O72  1  0.16840000  0.43671500  0.23879600  1
  O  O73  1  0.17938800  0.43214000  0.75210500  1
  O  O74  1  0.15866400  0.93058100  0.24676500  1
  O  O75  1  0.17795300  0.92443900  0.76213700  1
  O  O76  1  0.66367500  0.42104200  0.23766900  1
  O  O77  1  0.67536500  0.42202600  0.75932000  1
  O  O78  1  0.67037500  0.92037200  0.23958100  1
  O  O79  1  0.68254600  0.93144000  0.75367200  1
loop_
_geom_bond_atom_site_label_1
_geom_bond_atom_site_label_2
_geom_bond_distance
_geom_bond_site_symmetry_2
Ca0 O64 2.232745 1_555
Ca0 O48 2.342936 1_555
Ca0 O10 2.480992 1_545
Ca0 O26 2.532201 1_545
Ca0 O1 2.543561 1_554
Ca0 O32 2.587917 1_555
Ca0 O17 2.635702 1_554
Ca1 O50 2.325130 1_555
Ca1 O66 2.351573 1_555
Ca1 O8 2.447146 1_555
Ca1 O24 2.519573 1_555
Ca1 O3 2.557296 1_554
Ca1 O19 2.558060 1_554
Ca1 O34 2.628426 1_555
Ca2 O68 2.334313 1_555
Ca2 O52 2.392250 1_555
Ca2 O14 2.473522 1_545
Ca2 O5 2.506286 1_554
Ca2 O36 2.516729 1_555
Ca2 O30 2.554583 1_545
Ca2 O21 2.570015 1_554
Ca3 O54 2.302341 1_555
Ca3 O70 2.399841 1_555
Ca3 O12 2.444431 1_555
Ca3 O7 2.456768 1_554
Ca3 O28 2.461533 1_555
Ca3 O23 2.566347 1_554
Ca3 O38 2.606725 1_555
Ca4 O58 2.448867 1_555
Ca4 O74 2.453648 1_555
Ca4 O11 2.530432 1_555
Ca4 O16 2.538386 1_565
Ca4 O0 2.549889 1_565
Ca4 O27 2.551620 1_555
Ca4 O46 2.634261 1_455
Ca4 O42 2.886399 1_555
Ca5 O75 2.248157 1_555
Ca5 O59 2.377974 1_555
Ca5 O17 2.526277 1_565
Ca5 O1 2.599842 1_565
Ca5 O26 2.705260 1_556
Ca5 O47 2.709889 1_455
Ca5 O10 2.776132 1_556
Ca5 O43 2.897344 1_555
Ca6 O77 2.224969 1_555
Ca6 O61 2.422900 1_555
Ca6 O7 2.533023 1_555
Ca6 O23 2.572491 1_555
Ca6 O41 2.596260 1_555
Ca6 O12 2.795914 1_556
Ca6 O28 2.857577 1_556
Ca6 O45 2.955431 1_555
Ca7 O32 2.358062 1_555
Ca7 O72 2.374604 1_555
Ca7 O28 2.469700 1_455
Ca7 O8 2.481353 1_555
Ca7 O21 2.483716 1_454
Ca7 O1 2.552224 1_554
Ca7 O52 2.735348 1_455
Ca7 O48 2.994644 1_555
Ca8 O34 2.314253 1_555
Ca8 O74 2.391386 1_555
Ca8 O30 2.464806 1_455
Ca8 O54 2.500287 1_455
Ca8 O10 2.510863 1_555
Ca8 O3 2.583565 1_554
Ca8 O23 2.584348 1_454
Ca8 O50 2.974419 1_555
Ca9 O36 2.306988 1_555
Ca9 O76 2.343737 1_555
Ca9 O24 2.447885 1_555
Ca9 O17 2.514035 1_554
Ca9 O12 2.529959 1_555
Ca9 O5 2.537291 1_554
Ca9 O48 2.569752 1_555
Ca10 O78 2.239389 1_555
Ca10 O38 2.375530 1_555
Ca10 O26 2.476491 1_555
Ca10 O14 2.536976 1_555
Ca10 O19 2.583781 1_554
Ca10 O50 2.661767 1_555
Ca10 O7 2.687025 1_554
Ca11 O71 2.242146 1_555
Ca11 O47 2.435648 1_555
Ca11 O23 2.545799 1_555
Ca11 O63 2.553739 1_555
Ca11 O3 2.570360 1_655
Ca11 O30 2.749058 1_556
Ca11 O10 2.808845 1_656
Ca11 O59 2.935277 1_655
Mn0 O69 2.064731 1_455
Mn0 O75 2.089251 1_545
Mn0 O57 2.098859 1_555
Mn0 O33 2.110603 1_555
Mn1 O73 2.074445 1_555
Mn1 O71 2.098643 1_455
Mn1 O59 2.100211 1_555
Mn1 O35 2.124964 1_555
Mn2 O36 2.040747 1_555
Mn2 O78 2.066324 1_545
Mn2 O64 2.080661 1_555
Mn2 O60 2.081541 1_555
Mn3 O79 2.066233 1_545
Mn3 O65 2.072779 1_555
Mn3 O37 2.095542 1_555
Mn3 O61 2.159608 1_555
Mn4 O67 2.071068 1_555
Mn4 O77 2.090901 1_555
Mn4 O63 2.096752 1_555
Mn4 O39 2.112650 1_555
Mn5 O48 1.985713 1_555
Mn5 O40 2.014142 1_555
Mn5 O66 2.132417 1_555
Mn5 O72 2.160577 1_555
Mn6 O67 2.051020 1_555
Mn6 O73 2.068016 1_555
Mn6 O49 2.101710 1_555
Mn6 O41 2.105414 1_555
Mn7 O50 2.021935 1_555
Mn7 O42 2.045737 1_555
Mn7 O64 2.053602 1_565
Mn7 O74 2.197250 1_555
Mn8 O65 2.062981 1_565
Mn8 O43 2.067707 1_555
Mn8 O75 2.075011 1_555
Mn8 O51 2.121595 1_555
Mn9 O77 2.077205 1_555
Mn9 O71 2.079192 1_555
Mn9 O53 2.089472 1_555
Mn9 O45 2.105610 1_555
Mn10 O54 2.019601 1_555
Mn10 O46 2.051371 1_555
Mn10 O78 2.064345 1_555
Mn10 O68 2.151097 1_565
Mn11 O69 2.052992 1_565
Mn11 O79 2.059825 1_555
Mn11 O55 2.086837 1_555
Mn11 O47 2.116031 1_555
O0 Ti9 1.960628 1_555
O0 Ti1 2.016968 1_545
O0 Sr17 2.620368 1_455
O0 Sr0 2.744055 1_555
O0 Sr9 2.788175 1_555
O1 Ti8 2.003623 1_556
O1 Ti0 2.005494 1_545
O1 Sr18 2.612952 1_455
O2 Ti11 1.990136 1_555
O2 Ti3 2.022311 1_555
O2 Sr19 2.579203 1_455
O2 Sr4 2.591164 1_555
O2 Sr1 2.808654 1_555
O2 Sr10 2.851467 1_555
O3 Ti2 2.004495 1_555
O3 Ti10 2.024665 1_556
O3 Sr5 2.618605 1_555
O4 Ti13 1.981657 1_555
O4 Ti5 1.999128 1_545
O4 Sr13 2.631839 1_555
O4 Sr7 2.638043 1_545
O4 Sr2 2.685243 1_555
O4 Sr11 2.701842 1_555
O5 Ti12 1.964662 1_556
O5 Ti4 2.102534 1_556
O5 Sr14 2.602767 1_555
O5 Sr8 2.624570 1_545
O6 Ti15 1.972692 1_555
O6 Ti7 2.016934 1_555
O6 Sr6 2.594610 1_555
O6 Sr15 2.628142 1_555
O6 Sr12 2.728668 1_555
O6 Sr3 2.757265 1_555
O7 Ti14 2.003068 1_556
O7 Ti6 2.007039 1_555
O7 Sr16 2.649601 1_555
O8 Ti8 2.004028 1_555
O8 Ti2 2.016780 1_554
O8 Sr5 2.846073 1_554
O8 Sr18 2.864967 1_454
O9 Ti9 2.009192 1_555
O9 Ti3 2.015875 1_555
O9 Sr4 2.630248 1_555
O9 Sr17 2.649354 1_455
O9 Sr1 2.684666 1_555
O9 Sr9 2.721294 1_555
O10 Ti0 1.970284 1_554
O10 Ti10 1.978525 1_555
O11 Ti11 1.958261 1_555
O11 Ti1 2.046697 1_555
O11 Sr19 2.610431 1_455
O11 Sr0 2.667944 1_565
O11 Sr10 2.695167 1_555
O12 Ti12 1.970527 1_555
O12 Ti6 2.009548 1_554
O12 Sr14 2.882865 1_554
O13 Ti13 1.991142 1_555
O13 Ti7 1.992427 1_555
O13 Sr6 2.616903 1_555
O13 Sr3 2.623432 1_555
O13 Sr11 2.641139 1_555
O13 Sr13 2.710986 1_555
O14 Ti14 1.964152 1_555
O14 Ti4 2.047261 1_565
O14 Sr8 2.768610 1_554
O14 Sr16 2.778748 1_554
O15 Ti15 1.975886 1_555
O15 Ti5 2.041604 1_555
O15 Sr12 2.637558 1_555
O15 Sr15 2.660153 1_555
O15 Sr2 2.664333 1_565
O15 Sr7 2.705638 1_555
O16 Ti9 1.979491 1_555
O16 Ti5 1.996940 1_545
O16 Sr13 2.617007 1_555
O16 Sr0 2.751503 1_555
O16 Sr11 2.835174 1_555
O17 Ti4 1.980228 1_556
O17 Ti8 2.027792 1_556
O17 Sr14 2.578186 1_555
O18 Ti11 1.969864 1_555
O18 Ti7 2.023211 1_555
O18 Sr4 2.597103 1_555
O18 Sr15 2.609316 1_555
O18 Sr1 2.765627 1_555
O18 Sr12 2.775723 1_555
O19 Ti6 1.968556 1_555
O19 Ti10 2.077539 1_556
O19 Sr16 2.614816 1_555
O19 Sr5 2.615232 1_555
O20 Ti1 1.970702 1_645
O20 Ti13 2.012199 1_555
O20 Sr17 2.612954 1_555
O20 Sr7 2.654945 1_545
O20 Sr9 2.685843 1_655
O20 Sr2 2.696529 1_555
O21 Ti0 2.016681 1_645
O21 Ti12 2.047818 1_556
O21 Sr18 2.651087 1_555
O21 Sr8 2.697332 1_545
O22 Ti3 1.980028 1_655
O22 Ti15 1.989596 1_555
O22 Sr19 2.600320 1_555
O22 Sr6 2.612883 1_555
O22 Sr10 2.790202 1_655
O22 Sr3 2.822146 1_555
O23 Ti2 1.942166 1_655
O23 Ti14 2.058250 1_556
O24 Ti6 1.980410 1_554
O24 Ti8 2.059651 1_555
O24 Sr14 2.799618 1_554
O24 Sr5 2.804810 1_554
O25 Ti9 1.993104 1_555
O25 Ti7 2.028132 1_555
O25 Sr4 2.625104 1_555
O25 Sr1 2.630989 1_555
O25 Sr13 2.671578 1_555
O25 Sr11 2.677956 1_555
O26 Ti4 1.955667 1_565
O26 Ti10 2.022285 1_555
O26 Sr16 2.778913 1_554
O27 Ti11 1.978492 1_555
O27 Ti5 2.038003 1_555
O27 Sr15 2.649250 1_555
O27 Sr0 2.656879 1_565
O27 Sr12 2.687446 1_555
O28 Ti2 1.984291 1_654
O28 Ti12 2.031465 1_555
O28 Sr18 2.903550 1_554
O29 Ti3 1.964689 1_655
O29 Ti13 2.050570 1_555
O29 Sr6 2.619494 1_555
O29 Sr3 2.660141 1_555
O29 Sr17 2.663435 1_555
O29 Sr9 2.666828 1_655
O30 Ti0 1.957853 1_654
O30 Ti14 2.041566 1_555
O30 Sr8 2.823628 1_554
O31 Ti15 1.999256 1_555
O31 Ti1 2.018086 1_655
O31 Sr19 2.606228 1_555
O31 Sr10 2.646077 1_655
O31 Sr2 2.676968 1_565
O31 Sr7 2.699052 1_555
O32 Ti16 1.838997 1_555
O32 Ti0 2.395501 1_544
O33 Ti1 2.040067 1_545
O33 Sr9 2.604454 1_555
O33 Sr0 2.666581 1_555
O33 Sr2 2.940393 1_455
O33 Sr10 3.020608 1_545
O34 Ti17 1.825156 1_555
O34 Ti2 2.394252 1_554
O35 Ti3 1.949396 1_555
O35 Sr10 2.592166 1_555
O35 Sr1 2.751368 1_555
O35 Sr3 2.899989 1_455
O36 Ti4 1.973053 1_555
O37 Ti5 2.016190 1_545
O37 Sr11 2.564176 1_555
O37 Sr2 2.752428 1_555
O37 Sr0 2.822303 1_555
O37 Sr12 3.121759 1_545
O38 Ti18 1.837572 1_555
O38 Ti6 2.302962 1_554
O39 Ti7 2.015251 1_555
O39 Sr12 2.593958 1_555
O39 Sr3 2.713211 1_555
O39 Sr1 2.837688 1_555
O39 Sr11 3.144876 1_555
O40 Ti7 2.056834 1_555
O40 Sr13 2.597620 1_555
O40 Sr6 2.735914 1_555
O40 Sr4 2.830534 1_555
O40 Sr15 3.127092 1_555
O41 Ti6 1.918763 1_555
O41 Sr14 2.546047 1_555
O41 Sr5 2.970547 1_555
O42 Ti5 2.008631 1_555
O42 Sr15 2.547915 1_555
O42 Sr7 2.731406 1_555
O42 Sr13 3.172691 1_565
O43 Ti4 2.001524 1_566
O43 Sr16 2.503512 1_555
O43 Sr8 2.618526 1_555
O43 Sr14 3.162820 1_565
O44 Ti19 1.863018 1_555
O44 Ti3 2.404139 1_655
O44 Sr17 2.651679 1_555
O44 Sr6 2.861132 1_555
O44 Sr4 2.866200 1_655
O44 Sr19 3.190800 1_555
O45 Ti2 1.875036 1_655
O45 Sr18 2.491264 1_555
O45 Sr5 2.693593 1_655
O46 Ti1 2.022664 1_655
O46 Sr19 2.543742 1_555
O46 Sr7 2.961638 1_555
O46 Sr17 3.156012 1_565
O47 Ti0 1.890708 1_655
O47 Sr8 2.974738 1_555
O48 Ti8 1.987862 1_555
O49 Ti9 1.918990 1_555
O49 Sr0 2.581653 1_555
O49 Sr11 2.750866 1_555
O49 Sr9 2.896476 1_555
O49 Sr1 3.095085 1_555
O50 Ti10 1.976745 1_555
O51 Ti11 1.878340 1_555
O51 Sr1 2.605170 1_555
O51 Sr12 2.794957 1_555
O51 Sr10 2.853481 1_555
O51 Sr0 3.156547 1_565
O52 Ti19 1.857235 1_555
O52 Ti12 2.247619 1_555
O53 Ti13 2.046943 1_555
O53 Sr2 2.602178 1_555
O53 Sr9 2.689527 1_655
O53 Sr11 2.845174 1_555
O53 Sr3 3.050793 1_555
O54 Ti14 1.992267 1_555
O55 Ti15 1.925481 1_555
O55 Sr3 2.587572 1_555
O55 Sr10 2.676691 1_655
O55 Sr12 2.876871 1_555
O55 Sr2 3.204317 1_565
O56 Ti16 1.835465 1_555
O56 Ti9 2.465677 1_555
O56 Sr4 2.526506 1_555
O56 Sr13 2.773471 1_555
O56 Sr17 2.950954 1_455
O57 Ti8 1.990369 1_556
O57 Sr5 2.499267 1_555
O57 Sr14 2.709499 1_555
O57 Sr18 2.844379 1_455
O58 Ti17 1.831741 1_555
O58 Ti11 2.585014 1_555
O58 Sr15 2.771045 1_555
O58 Sr19 2.952595 1_455
O59 Ti10 2.001711 1_556
O59 Sr16 2.688718 1_555
O60 Ti13 2.014363 1_555
O60 Sr6 2.542610 1_555
O60 Sr17 2.688970 1_555
O60 Sr13 2.879011 1_555
O60 Sr7 3.131614 1_545
O61 Ti12 1.923243 1_556
O61 Sr18 2.704496 1_555
O61 Sr14 2.966355 1_555
O62 Ti18 1.849326 1_555
O62 Ti15 2.447533 1_555
O62 Sr7 2.624856 1_555
O62 Sr19 2.749749 1_555
O62 Sr15 2.950265 1_555
O63 Ti14 1.994286 1_556
O63 Sr8 2.506391 1_555
O63 Sr16 3.027219 1_555
O64 Sr13 2.407444 1_555
O65 Sr14 2.356784 1_555
O65 Sr0 2.385250 1_555
O66 Ti18 1.875619 1_555
O66 Sr15 2.550627 1_555
O67 Sr1 2.370336 1_555
O67 Sr16 2.370620 1_555
O68 Ti16 1.852430 1_655
O68 Sr17 2.522400 1_555
O69 Sr18 2.350705 1_555
O69 Sr2 2.389714 1_555
O70 Ti17 1.882541 1_655
O70 Ti19 1.986834 1_555
O70 Sr19 2.588857 1_555
O71 Sr3 2.435699 1_555
O72 Ti17 1.844209 1_555
O72 Sr4 2.545143 1_555
O73 Sr5 2.364448 1_555
O73 Sr9 2.401267 1_555
O74 Ti16 1.854087 1_565
O75 Sr10 2.430236 1_555
O76 Ti18 1.936220 1_555
O76 Ti19 1.978554 1_555
O76 Sr6 2.544984 1_555
O77 Sr11 2.429934 1_555
O78 Sr7 2.419348 1_555
O79 Sr8 2.373951 1_555
O79 Sr12 2.395175 1_555
