# generated using pymatgen
data_KLi3SiO4
_symmetry_space_group_name_H-M   'P 1'
_cell_length_a   5.81156197
_cell_length_b   7.43554305
_cell_length_c   9.82806280
_cell_angle_alpha   84.01776499
_cell_angle_beta   76.52798706
_cell_angle_gamma   80.18840516
_symmetry_Int_Tables_number   1
_chemical_formula_structural   KLi3SiO4
_chemical_formula_sum   'K4 Li12 Si4 O16'
_cell_volume   406.04118132
_cell_formula_units_Z   4
loop_
 _symmetry_equiv_pos_site_id
 _symmetry_equiv_pos_as_xyz
  1  'x, y, z'
loop_
 _atom_site_type_symbol
 _atom_site_label
 _atom_site_symmetry_multiplicity
 _atom_site_fract_x
 _atom_site_fract_y
 _atom_site_fract_z
 _atom_site_occupancy
  K  K0  1  0.00508900  0.38309300  0.88379100  1
  K  K1  1  0.99491100  0.61690700  0.11620900  1
  K  K2  1  0.04183400  0.14054900  0.62898100  1
  K  K3  1  0.95816600  0.85945100  0.37101900  1
  Li  Li0  1  0.79279200  0.06140700  0.10331200  1
  Li  Li1  1  0.20720800  0.93859300  0.89668800  1
  Li  Li2  1  0.48251500  0.32766100  0.61122200  1
  Li  Li3  1  0.51748500  0.67233900  0.38877800  1
  Li  Li4  1  0.20024000  0.16988300  0.14516200  1
  Li  Li5  1  0.79976000  0.83011700  0.85483800  1
  Li  Li6  1  0.53497700  0.42574600  0.12872900  1
  Li  Li7  1  0.46502300  0.57425400  0.87127100  1
  Li  Li8  1  0.43217300  0.05020200  0.37355000  1
  Li  Li9  1  0.56782700  0.94979800  0.62645000  1
  Li  Li10  1  0.18708800  0.45064400  0.39547500  1
  Li  Li11  1  0.81291200  0.54935600  0.60452500  1
  Si  Si0  1  0.83872200  0.29199600  0.35137700  1
  Si  Si1  1  0.16127800  0.70800400  0.64862300  1
  Si  Si2  1  0.44002700  0.78667600  0.13687900  1
  Si  Si3  1  0.55997300  0.21332400  0.86312100  1
  O  O0  1  0.64955200  0.16827400  0.45756100  1
  O  O1  1  0.35044800  0.83172600  0.54243900  1
  O  O2  1  0.20550200  0.92257900  0.09622000  1
  O  O3  1  0.79449800  0.07742100  0.90378000  1
  O  O4  1  0.34580600  0.61671200  0.25141200  1
  O  O5  1  0.65419400  0.38328800  0.74858800  1
  O  O6  1  0.12578900  0.20743300  0.35034900  1
  O  O7  1  0.87421100  0.79256700  0.64965100  1
  O  O8  1  0.19644100  0.49948600  0.59179600  1
  O  O9  1  0.80355900  0.50051400  0.40820400  1
  O  O10  1  0.39200400  0.31770100  0.00233500  1
  O  O11  1  0.60799600  0.68229900  0.99766500  1
  O  O12  1  0.81720900  0.28836900  0.18597100  1
  O  O13  1  0.18279100  0.71163100  0.81402900  1
  O  O14  1  0.40634400  0.10844800  0.78218900  1
  O  O15  1  0.59365600  0.89155200  0.21781100  1
loop_
_geom_bond_atom_site_label_1
_geom_bond_atom_site_label_2
_geom_bond_distance
_geom_bond_site_symmetry_2
K0 O5 2.680552 1_455
K0 O10 2.716584 1_556
K0 O3 2.728582 1_455
K0 O13 2.772174 1_555
K0 O14 2.884847 1_555
K0 O8 2.923091 1_555
K0 O12 2.970426 1_456
K0 O11 3.015540 1_455
K1 O4 2.680552 1_655
K1 O11 2.716584 1_554
K1 O2 2.728582 1_655
K1 O12 2.772174 1_555
K1 O15 2.884847 1_555
K1 O9 2.923091 1_555
K1 O13 2.970426 1_654
K1 O10 3.015540 1_655
K2 O6 2.675925 1_555
K2 O1 2.739652 1_545
K2 O5 2.745379 1_455
K2 O3 2.781614 1_455
K2 O14 2.837375 1_555
K2 O7 2.888311 1_445
K2 O8 2.919733 1_555
K2 O0 3.104057 1_455
K3 O7 2.675925 1_555
K3 O0 2.739652 1_565
K3 O4 2.745379 1_655
K3 O2 2.781614 1_655
K3 O15 2.837375 1_555
K3 O6 2.888311 1_665
K3 O9 2.919733 1_555
K3 O1 3.104057 1_655
Li0 O15 1.948286 1_545
Li0 O3 1.950005 1_554
Li0 O12 1.987242 1_555
Li0 O2 2.432377 1_645
Li1 O14 1.948286 1_565
Li1 O2 1.950005 1_556
Li1 O13 1.987242 1_555
Li1 O3 2.432377 1_465
Li2 O8 1.950872 1_555
Li2 O5 1.968195 1_555
Li2 O0 1.981273 1_555
Li2 O14 2.237084 1_555
Li3 O9 1.950872 1_555
Li3 O4 1.968195 1_555
Li3 O1 1.981273 1_555
Li3 O15 2.237084 1_555
Li4 O2 1.942158 1_545
Li4 O10 1.946129 1_555
Li4 O6 2.000361 1_555
Li4 O12 2.209394 1_455
Li5 O3 1.942158 1_565
Li5 O11 1.946129 1_555
Li5 O7 2.000361 1_555
Li5 O13 2.209394 1_655
Li6 O12 1.946621 1_555
Li6 O10 1.948157 1_555
Li6 O4 1.971256 1_555
Li6 O11 2.233225 1_554
Li7 O13 1.946621 1_555
Li7 O11 1.948157 1_555
Li7 O5 1.971256 1_555
Li7 O10 2.233225 1_556
Li8 O15 1.986159 1_545
Li8 O6 2.003336 1_555
Li8 O0 2.015823 1_555
Li8 O1 2.225588 1_545
Li9 O14 1.986159 1_565
Li9 O7 2.003336 1_555
Li9 O1 2.015823 1_555
Li9 O0 2.225588 1_565
Li10 O4 1.948199 1_555
Li10 O6 2.013527 1_555
Li10 O8 2.014769 1_555
Li10 O9 2.172376 1_455
Li11 O5 1.948199 1_555
Li11 O7 2.013527 1_555
Li11 O9 2.014769 1_555
Li11 O8 2.172376 1_655
O0 Si0 1.659514 1_555
O1 Si1 1.659514 1_555
O2 Si2 1.654891 1_555
O3 Si3 1.654891 1_555
O4 Si2 1.678142 1_555
O5 Si3 1.678142 1_555
O6 Si0 1.677696 1_455
O7 Si1 1.677696 1_655
O8 Si1 1.666401 1_555
O9 Si0 1.666401 1_555
O10 Si3 1.663740 1_554
O11 Si2 1.663740 1_556
O12 Si0 1.662524 1_555
O13 Si1 1.662524 1_555
O14 Si3 1.653897 1_555
O15 Si2 1.653897 1_555
