# generated using pymatgen
data_Na3TmTi2Nb2O12
_symmetry_space_group_name_H-M   'P 1'
_cell_length_a   5.41716400
_cell_length_b   5.58856200
_cell_length_c   15.46891800
_cell_angle_alpha   90.00000000
_cell_angle_beta   90.00000000
_cell_angle_gamma   90.00000000
_symmetry_Int_Tables_number   1
_chemical_formula_structural   Na3TmTi2Nb2O12
_chemical_formula_sum   'Na6 Tm2 Ti4 Nb4 O24'
_cell_volume   468.30845027
_cell_formula_units_Z   2
loop_
 _symmetry_equiv_pos_site_id
 _symmetry_equiv_pos_as_xyz
  1  'x, y, z'
loop_
 _atom_site_type_symbol
 _atom_site_label
 _atom_site_symmetry_multiplicity
 _atom_site_fract_x
 _atom_site_fract_y
 _atom_site_fract_z
 _atom_site_occupancy
  Na  Na0  1  0.00493000  0.96888800  0.37082000  1
  Na  Na1  1  0.00493000  0.96888800  0.87918000  1
  Na  Na2  1  0.49507000  0.46888800  0.87918000  1
  Na  Na3  1  0.49507000  0.46888800  0.37082000  1
  Na  Na4  1  0.50880200  0.53488300  0.62500000  1
  Na  Na5  1  0.99119800  0.03488300  0.62500000  1
  Tm  Tm0  1  0.51359200  0.56787300  0.12500000  1
  Tm  Tm1  1  0.98640800  0.06787300  0.12500000  1
  Ti  Ti0  1  0.01358800  0.52401000  0.99921600  1
  Ti  Ti1  1  0.01358800  0.52401000  0.25078400  1
  Ti  Ti2  1  0.48641200  0.02401000  0.25078400  1
  Ti  Ti3  1  0.48641200  0.02401000  0.99921600  1
  Nb  Nb0  1  0.00054900  0.50112200  0.49782300  1
  Nb  Nb1  1  0.00054900  0.50112200  0.75217700  1
  Nb  Nb2  1  0.49945100  0.00112200  0.75217700  1
  Nb  Nb3  1  0.49945100  0.00112200  0.49782300  1
  O  O0  1  0.10876800  0.45589200  0.12500000  1
  O  O1  1  0.07847200  0.48204900  0.62500000  1
  O  O2  1  0.20504700  0.20743600  0.47735400  1
  O  O3  1  0.19558900  0.18950300  0.26110900  1
  O  O4  1  0.20504700  0.20743600  0.77264600  1
  O  O5  1  0.19558900  0.18950300  0.98889100  1
  O  O6  1  0.29495300  0.70743600  0.47735400  1
  O  O7  1  0.29495300  0.70743600  0.77264600  1
  O  O8  1  0.30441100  0.68950300  0.26110900  1
  O  O9  1  0.30441100  0.68950300  0.98889100  1
  O  O10  1  0.39123200  0.95589200  0.12500000  1
  O  O11  1  0.42152800  0.98204900  0.62500000  1
  O  O12  1  0.57375700  0.01781400  0.88056400  1
  O  O13  1  0.57375700  0.01781400  0.36943600  1
  O  O14  1  0.70254400  0.27894000  0.03514800  1
  O  O15  1  0.70254400  0.27894000  0.21485200  1
  O  O16  1  0.70543800  0.29193900  0.51852000  1
  O  O17  1  0.70543800  0.29193900  0.73148000  1
  O  O18  1  0.79745600  0.77894000  0.03514800  1
  O  O19  1  0.79745600  0.77894000  0.21485200  1
  O  O20  1  0.79456200  0.79193900  0.51852000  1
  O  O21  1  0.79456200  0.79193900  0.73148000  1
  O  O22  1  0.92624300  0.51781400  0.36943600  1
  O  O23  1  0.92624300  0.51781400  0.88056400  1
loop_
_geom_bond_atom_site_label_1
_geom_bond_atom_site_label_2
_geom_bond_distance
_geom_bond_site_symmetry_2
Na0 O3 2.338165 1_565
Na0 O13 2.351782 1_465
Na0 O2 2.380810 1_565
Na0 O22 2.556730 1_455
Na0 O6 2.705381 1_555
Na0 O20 2.738012 1_455
Na0 O8 2.819576 1_555
Na0 O19 2.865478 1_455
Na1 O5 2.338165 1_565
Na1 O12 2.351782 1_465
Na1 O4 2.380810 1_565
Na1 O23 2.556730 1_455
Na1 O7 2.705381 1_555
Na1 O21 2.738012 1_455
Na1 O9 2.819576 1_555
Na1 O18 2.865478 1_456
Na2 O9 2.338165 1_555
Na2 O23 2.351782 1_555
Na2 O7 2.380810 1_555
Na2 O12 2.556730 1_555
Na2 O4 2.705381 1_555
Na2 O17 2.738012 1_555
Na2 O5 2.819576 1_555
Na2 O14 2.865478 1_556
Na3 O8 2.338165 1_555
Na3 O22 2.351782 1_555
Na3 O6 2.380810 1_555
Na3 O13 2.556730 1_555
Na3 O2 2.705381 1_555
Na3 O16 2.738012 1_555
Na3 O3 2.819576 1_555
Na3 O15 2.865478 1_555
Na4 O1 2.349793 1_555
Na4 O16 2.385598 1_555
Na4 O17 2.385598 1_555
Na4 O11 2.543343 1_555
Na4 O20 2.678267 1_555
Na4 O21 2.678267 1_555
Na4 O7 2.736466 1_555
Na4 O6 2.736466 1_555
Na5 O11 2.349793 1_645
Na5 O20 2.385598 1_545
Na5 O21 2.385598 1_545
Na5 O1 2.543343 1_655
Na5 O16 2.678267 1_555
Na5 O17 2.678267 1_555
Na5 O4 2.736466 1_655
Na5 O2 2.736466 1_655
Nb0 O6 1.993279 1_555
Nb0 O20 1.997271 1_455
Nb0 O2 2.005314 1_555
Nb0 O16 2.006207 1_455
Nb0 O1 2.014890 1_555
Nb0 O22 2.028536 1_455
Nb1 O7 1.993279 1_555
Nb1 O21 1.997271 1_455
Nb1 O4 2.005314 1_555
Nb1 O17 2.006207 1_455
Nb1 O1 2.014890 1_555
Nb1 O23 2.028536 1_455
Nb2 O4 1.993279 1_555
Nb2 O17 1.997271 1_555
Nb2 O7 2.005314 1_545
Nb2 O21 2.006207 1_545
Nb2 O11 2.014890 1_545
Nb2 O12 2.028536 1_555
Nb3 O2 1.993279 1_555
Nb3 O16 1.997271 1_555
Nb3 O6 2.005314 1_545
Nb3 O20 2.006207 1_545
Nb3 O11 2.014890 1_545
Nb3 O13 2.028536 1_555
O0 Ti0 2.048580 1_554
O0 Ti1 2.048580 1_555
O0 Tm1 2.267513 1_455
O0 Tm0 2.280544 1_555
O3 Ti2 1.833818 1_555
O3 Ti1 2.119498 1_555
O3 Tm1 2.485773 1_455
O5 Ti3 1.833818 1_555
O5 Ti0 2.119498 1_555
O5 Tm1 2.485773 1_456
O8 Ti1 1.833818 1_555
O8 Ti2 2.119498 1_565
O8 Tm0 2.485773 1_555
O9 Ti0 1.833818 1_555
O9 Ti3 2.119498 1_565
O9 Tm0 2.485773 1_556
O10 Ti3 2.048580 1_564
O10 Ti2 2.048580 1_565
O10 Tm0 2.267513 1_555
O10 Tm1 2.280544 1_465
O12 Ti3 1.895743 1_555
O13 Ti2 1.895743 1_555
O14 Ti3 1.926011 1_554
O14 Ti0 2.241398 1_654
O14 Tm0 2.363663 1_555
O14 Tm1 2.384924 1_555
O15 Ti2 1.926011 1_555
O15 Ti1 2.241398 1_655
O15 Tm0 2.363663 1_555
O15 Tm1 2.384924 1_555
O18 Ti0 1.926011 1_654
O18 Ti3 2.241398 1_564
O18 Tm1 2.363663 1_565
O18 Tm0 2.384924 1_555
O19 Ti1 1.926011 1_655
O19 Ti2 2.241398 1_565
O19 Tm1 2.363663 1_565
O19 Tm0 2.384924 1_555
O22 Ti1 1.895743 1_655
O23 Ti0 1.895743 1_655
