# generated using pymatgen
data_Cs3V(Cl3O2)2
_symmetry_space_group_name_H-M   'P 1'
_cell_length_a   10.29289488
_cell_length_b   10.29289488
_cell_length_c   10.29289488
_cell_angle_alpha   145.93891329
_cell_angle_beta   133.87088942
_cell_angle_gamma   58.56865194
_symmetry_Int_Tables_number   1
_chemical_formula_structural   Cs3V(Cl3O2)2
_chemical_formula_sum   'Cs3 V1 Cl6 O4'
_cell_volume   436.52697300
_cell_formula_units_Z   1
loop_
 _symmetry_equiv_pos_site_id
 _symmetry_equiv_pos_as_xyz
  1  'x, y, z'
loop_
 _atom_site_type_symbol
 _atom_site_label
 _atom_site_symmetry_multiplicity
 _atom_site_fract_x
 _atom_site_fract_y
 _atom_site_fract_z
 _atom_site_occupancy
  Cs  Cs0  1  0.50000000  0.00000000  0.50000000  1
  Cs  Cs1  1  0.69022300  0.69022300  0.00000000  1
  Cs  Cs2  1  0.30977700  0.30977700  0.00000000  1
  V  V0  1  0.00000000  0.50000000  0.50000000  1
  Cl  Cl0  1  0.59524000  0.84625000  0.74899100  1
  Cl  Cl1  1  0.90274100  0.15375000  0.74899100  1
  Cl  Cl2  1  0.09725900  0.84625000  0.25100900  1
  Cl  Cl3  1  0.40476000  0.15375000  0.25100900  1
  Cl  Cl4  1  0.29780400  0.50000000  0.79780400  1
  Cl  Cl5  1  0.70219600  0.50000000  0.20219600  1
  O  O0  1  0.07000100  0.79133000  0.72132900  1
  O  O1  1  0.92999900  0.20867000  0.27867100  1
  O  O2  1  0.07000100  0.34867100  0.27867100  1
  O  O3  1  0.92999900  0.65132800  0.72132900  1
loop_
_geom_bond_atom_site_label_1
_geom_bond_atom_site_label_2
_geom_bond_distance
_geom_bond_site_symmetry_2
Cl0 Cs0 3.413679 1_565
Cl0 Cs1 3.456322 1_556
Cl0 Cs2 3.680894 1_566
Cl0 Cs2 3.680899 1_555
Cl1 Cs0 3.413674 1_555
Cl1 Cs2 3.456327 1_656
Cl1 Cs1 3.680900 1_556
Cl1 Cs1 3.680900 1_545
Cl2 Cs0 3.413674 1_565
Cl2 Cs1 3.456327 1_455
Cl2 Cs2 3.680900 1_566
Cl2 Cs2 3.680900 1_555
Cl3 Cs0 3.413679 1_555
Cl3 Cs2 3.456322 1_555
Cl3 Cs1 3.680894 1_545
Cl3 Cs1 3.680899 1_556
Cl4 V0 2.401746 1_555
Cl4 Cs0 3.427378 1_555
Cl4 Cs0 3.427378 1_566
Cl4 Cs1 3.784763 1_556
Cl4 Cs2 3.784763 1_556
Cl5 V0 2.401746 1_655
Cl5 Cs0 3.427378 1_565
Cl5 Cs0 3.427378 1_554
Cl5 Cs1 3.784763 1_555
Cl5 Cs2 3.784763 1_555
O0 V0 1.833149 1_555
O1 V0 1.833149 1_655
O2 V0 1.833145 1_555
O3 V0 1.833149 1_655
