# generated using pymatgen
data_Nd2BeGa2O7
_symmetry_space_group_name_H-M   'P 1'
_cell_length_a   5.23994300
_cell_length_b   7.74560000
_cell_length_c   7.74560000
_cell_angle_alpha   90.00000000
_cell_angle_beta   90.00000000
_cell_angle_gamma   90.00000000
_symmetry_Int_Tables_number   1
_chemical_formula_structural   Nd2BeGa2O7
_chemical_formula_sum   'Nd4 Be2 Ga4 O14'
_cell_volume   314.36681377
_cell_formula_units_Z   2
loop_
 _symmetry_equiv_pos_site_id
 _symmetry_equiv_pos_as_xyz
  1  'x, y, z'
loop_
 _atom_site_type_symbol
 _atom_site_label
 _atom_site_symmetry_multiplicity
 _atom_site_fract_x
 _atom_site_fract_y
 _atom_site_fract_z
 _atom_site_occupancy
  Nd  Nd0  1  0.51678700  0.16637500  0.66637500  1
  Nd  Nd1  1  0.51678700  0.83362500  0.33362500  1
  Nd  Nd2  1  0.48321300  0.66637500  0.83362500  1
  Nd  Nd3  1  0.48321300  0.33362500  0.16637500  1
  Be  Be0  1  0.00000000  0.00000000  0.00000000  1
  Be  Be1  1  0.00000000  0.50000000  0.50000000  1
  Ga  Ga0  1  0.97049400  0.65091100  0.15091100  1
  Ga  Ga1  1  0.97049400  0.34908900  0.84908900  1
  Ga  Ga2  1  0.02950600  0.15091100  0.34908900  1
  Ga  Ga3  1  0.02950600  0.84908900  0.65091100  1
  O  O0  1  0.19672600  0.00000000  0.50000000  1
  O  O1  1  0.80327400  0.50000000  0.00000000  1
  O  O2  1  0.32004100  0.63498000  0.13498000  1
  O  O3  1  0.32004100  0.36502000  0.86502000  1
  O  O4  1  0.67995900  0.13498000  0.36502000  1
  O  O5  1  0.67995900  0.86502000  0.63498000  1
  O  O6  1  0.19335700  0.09158300  0.14461800  1
  O  O7  1  0.19335700  0.90841700  0.85538200  1
  O  O8  1  0.80664300  0.14461800  0.90841700  1
  O  O9  1  0.80664300  0.40841700  0.64461800  1
  O  O10  1  0.80664300  0.85538200  0.09158300  1
  O  O11  1  0.80664300  0.59158300  0.35538200  1
  O  O12  1  0.19335700  0.35538200  0.40841700  1
  O  O13  1  0.19335700  0.64461800  0.59158300  1
loop_
_geom_bond_atom_site_label_1
_geom_bond_atom_site_label_2
_geom_bond_distance
_geom_bond_site_symmetry_2
Nd0 O3 2.407813 1_555
Nd0 O8 2.418671 1_555
Nd0 O9 2.418671 1_555
Nd0 O0 2.476698 1_555
Nd0 O5 2.497710 1_545
Nd0 O4 2.497710 1_555
Nd0 O7 3.001262 1_545
Nd0 O12 3.001262 1_555
Nd1 O2 2.407813 1_555
Nd1 O10 2.418671 1_555
Nd1 O11 2.418671 1_555
Nd1 O0 2.476698 1_565
Nd1 O5 2.497710 1_555
Nd1 O4 2.497710 1_565
Nd1 O13 3.001262 1_555
Nd1 O6 3.001262 1_565
Nd2 O5 2.407813 1_555
Nd2 O13 2.418671 1_555
Nd2 O7 2.418671 1_555
Nd2 O1 2.476698 1_556
Nd2 O3 2.497710 1_555
Nd2 O2 2.497710 1_556
Nd2 O10 3.001262 1_556
Nd2 O9 3.001262 1_555
Nd3 O4 2.407813 1_555
Nd3 O6 2.418671 1_555
Nd3 O12 2.418671 1_555
Nd3 O1 2.476698 1_555
Nd3 O2 2.497710 1_555
Nd3 O3 2.497710 1_554
Nd3 O11 3.001262 1_555
Nd3 O8 3.001262 1_554
Be0 O7 1.668675 1_544
Be0 O6 1.668675 1_555
Be0 O8 1.668675 1_454
Be0 O10 1.668675 1_445
Be1 O11 1.668675 1_455
Be1 O13 1.668675 1_555
Be1 O9 1.668675 1_455
Be1 O12 1.668675 1_555
Ga0 O2 1.839901 1_655
Ga0 O10 1.859187 1_555
Ga0 O11 1.859187 1_555
Ga0 O1 1.870937 1_555
Ga1 O3 1.839901 1_655
Ga1 O9 1.859187 1_555
Ga1 O8 1.859187 1_555
Ga1 O1 1.870937 1_556
Ga2 O4 1.839901 1_455
Ga2 O6 1.859187 1_555
Ga2 O12 1.859187 1_555
Ga2 O0 1.870937 1_555
Ga3 O5 1.839901 1_455
Ga3 O7 1.859187 1_555
Ga3 O13 1.859187 1_555
Ga3 O0 1.870937 1_565
