# generated using pymatgen
data_Al4As3O23
_symmetry_space_group_name_H-M   'P 1'
_cell_length_a   7.67387000
_cell_length_b   7.67387000
_cell_length_c   7.67387000
_cell_angle_alpha   90.00000000
_cell_angle_beta   90.00000000
_cell_angle_gamma   90.00000000
_symmetry_Int_Tables_number   1
_chemical_formula_structural   Al4As3O23
_chemical_formula_sum   'Al4 As3 O23'
_cell_volume   451.90101121
_cell_formula_units_Z   1
loop_
 _symmetry_equiv_pos_site_id
 _symmetry_equiv_pos_as_xyz
  1  'x, y, z'
loop_
 _atom_site_type_symbol
 _atom_site_label
 _atom_site_symmetry_multiplicity
 _atom_site_fract_x
 _atom_site_fract_y
 _atom_site_fract_z
 _atom_site_occupancy
  Al  Al0  1  0.85906500  0.85906500  0.14093500  1
  Al  Al1  1  0.85906500  0.14093500  0.85906500  1
  Al  Al2  1  0.14093500  0.85906500  0.85906500  1
  Al  Al3  1  0.14093500  0.14093500  0.14093500  1
  As  As0  1  0.00000000  0.00000000  0.50000000  1
  As  As1  1  0.00000000  0.50000000  0.00000000  1
  As  As2  1  0.50000000  0.00000000  0.00000000  1
  O  O0  1  0.61813500  0.86625700  0.13374300  1
  O  O1  1  0.86625700  0.86625700  0.38186500  1
  O  O2  1  0.86625700  0.61813500  0.13374300  1
  O  O3  1  0.61813500  0.13374300  0.86625700  1
  O  O4  1  0.86625700  0.13374300  0.61813500  1
  O  O5  1  0.86625700  0.38186500  0.86625700  1
  O  O6  1  0.38186500  0.86625700  0.86625700  1
  O  O7  1  0.13374300  0.86625700  0.61813500  1
  O  O8  1  0.13374300  0.61813500  0.86625700  1
  O  O9  1  0.38186500  0.13374300  0.13374300  1
  O  O10  1  0.13374300  0.13374300  0.38186500  1
  O  O11  1  0.13374300  0.38186500  0.13374300  1
  O  O12  1  0.11148600  0.11148600  0.88851400  1
  O  O13  1  0.11148600  0.88851400  0.11148600  1
  O  O14  1  0.88851400  0.11148600  0.11148600  1
  O  O15  1  0.88851400  0.88851400  0.88851400  1
  O  O16  1  0.50000000  0.50000000  0.00000000  1
  O  O17  1  0.50000000  0.00000000  0.50000000  1
  O  O18  1  0.00000000  0.50000000  0.50000000  1
  O  O19  1  0.30551100  0.30551100  0.69448900  1
  O  O20  1  0.30551100  0.69448900  0.30551100  1
  O  O21  1  0.69448900  0.30551100  0.30551100  1
  O  O22  1  0.69448900  0.69448900  0.69448900  1
loop_
_geom_bond_atom_site_label_1
_geom_bond_atom_site_label_2
_geom_bond_distance
_geom_bond_site_symmetry_2
Al0 O0 1.850512 1_555
Al0 O1 1.850512 1_555
Al0 O2 1.850512 1_555
Al0 O13 1.963234 1_655
Al0 O14 1.963234 1_565
Al0 O15 1.963234 1_554
Al1 O3 1.850512 1_555
Al1 O4 1.850512 1_555
Al1 O5 1.850512 1_555
Al1 O14 1.963234 1_556
Al1 O12 1.963234 1_655
Al1 O15 1.963234 1_545
Al2 O6 1.850512 1_555
Al2 O7 1.850512 1_555
Al2 O8 1.850512 1_555
Al2 O13 1.963234 1_556
Al2 O12 1.963234 1_565
Al2 O15 1.963234 1_455
Al3 O11 1.850512 1_555
Al3 O10 1.850512 1_555
Al3 O9 1.850512 1_555
Al3 O14 1.963234 1_455
Al3 O13 1.963234 1_545
Al3 O12 1.963234 1_554
As0 O10 1.711295 1_555
As0 O4 1.711295 1_455
As0 O7 1.711295 1_545
As0 O1 1.711295 1_445
As1 O11 1.711295 1_555
As1 O2 1.711295 1_455
As1 O8 1.711295 1_554
As1 O5 1.711295 1_454
As2 O9 1.711295 1_555
As2 O3 1.711295 1_554
As2 O0 1.711295 1_545
As2 O6 1.711295 1_544
