# generated using pymatgen
data_CaCu2B2H8(ClO4)2
_symmetry_space_group_name_H-M   'P 1'
_cell_length_a   6.14402815
_cell_length_b   6.32640427
_cell_length_c   6.34031141
_cell_angle_alpha   90.03252374
_cell_angle_beta   90.02466812
_cell_angle_gamma   89.99153551
_symmetry_Int_Tables_number   1
_chemical_formula_structural   CaCu2B2H8(ClO4)2
_chemical_formula_sum   'Ca1 Cu2 B2 H8 Cl2 O8'
_cell_volume   246.44534086
_cell_formula_units_Z   1
loop_
 _symmetry_equiv_pos_site_id
 _symmetry_equiv_pos_as_xyz
  1  'x, y, z'
loop_
 _atom_site_type_symbol
 _atom_site_label
 _atom_site_symmetry_multiplicity
 _atom_site_fract_x
 _atom_site_fract_y
 _atom_site_fract_z
 _atom_site_occupancy
  Ca  Ca0  1  0.99991300  0.00028700  0.00054000  1
  Cu  Cu0  1  0.72456700  0.00003500  0.50014700  1
  Cu  Cu1  1  0.27492700  0.50015400  0.99992900  1
  B  B0  1  0.50007200  0.50000700  0.50002100  1
  B  B1  1  0.50010100  0.99995600  0.99995300  1
  H  H0  1  0.73613000  0.62067200  0.30554800  1
  H  H1  1  0.73612600  0.37930000  0.69467900  1
  H  H2  1  0.41453700  0.20258400  0.76572700  1
  H  H3  1  0.41471400  0.79740700  0.23416300  1
  H  H4  1  0.26406200  0.30513100  0.37939000  1
  H  H5  1  0.26404900  0.69496100  0.62047200  1
  H  H6  1  0.58524000  0.76565500  0.79709100  1
  H  H7  1  0.58488200  0.23430700  0.20298600  1
  Cl  Cl0  1  0.09075900  0.00010500  0.49928300  1
  Cl  Cl1  1  0.90913900  0.49964100  0.00000900  1
  O  O0  1  0.65045800  0.10151800  0.15158800  1
  O  O1  1  0.65073600  0.89854100  0.84854800  1
  O  O2  1  0.36852500  0.59021100  0.67432000  1
  O  O3  1  0.36849300  0.40981900  0.32563200  1
  O  O4  1  0.34937700  0.15168900  0.89860900  1
  O  O5  1  0.34960000  0.84801700  0.10122500  1
  O  O6  1  0.63179800  0.67465500  0.41010700  1
  O  O7  1  0.63179200  0.32534500  0.59003300  1
loop_
_geom_bond_atom_site_label_1
_geom_bond_atom_site_label_2
_geom_bond_distance
_geom_bond_site_symmetry_2
Ca0 O0 2.436773 1_555
Ca0 O1 2.437923 1_544
Ca0 O4 2.438796 1_654
Ca0 O5 2.439346 1_645
Cu0 O7 2.209943 1_555
Cu0 O6 2.210627 1_545
Cu0 O1 2.345243 1_545
Cu0 O0 2.346093 1_555
Cu1 O2 2.218054 1_555
Cu1 O3 2.218507 1_556
Cu1 O5 2.337646 1_556
Cu1 O4 2.340986 1_555
B0 O2 1.483266 1_555
B0 O3 1.483333 1_555
B0 O7 1.483811 1_555
B0 O6 1.483972 1_555
B1 O0 1.479615 1_566
B1 O1 1.479731 1_555
B1 O4 1.480482 1_565
B1 O5 1.480796 1_556
H0 O6 0.983397 1_555
H1 O7 0.983409 1_555
H2 O4 0.987124 1_555
H3 O5 0.986392 1_555
H4 O3 0.983396 1_555
H5 O2 0.983720 1_555
H6 O1 0.987325 1_555
H7 O0 0.986893 1_555
Cl0 Cu0 2.249903 1_455
Cl1 Cu1 2.247415 1_654
