# generated using pymatgen
data_Y6WO12
_symmetry_space_group_name_H-M   'P 1'
_cell_length_a   6.43976149
_cell_length_b   6.43976149
_cell_length_c   6.43976074
_cell_angle_alpha   98.67333518
_cell_angle_beta   98.67333530
_cell_angle_gamma   98.67333845
_symmetry_Int_Tables_number   1
_chemical_formula_structural   Y6WO12
_chemical_formula_sum   'Y6 W1 O12'
_cell_volume   256.83906041
_cell_formula_units_Z   1
loop_
 _symmetry_equiv_pos_site_id
 _symmetry_equiv_pos_as_xyz
  1  'x, y, z'
loop_
 _atom_site_type_symbol
 _atom_site_label
 _atom_site_symmetry_multiplicity
 _atom_site_fract_x
 _atom_site_fract_y
 _atom_site_fract_z
 _atom_site_occupancy
  Y  Y0  1  0.31445470  0.14348779  0.61012351  1
  Y  Y1  1  0.38987649  0.68554530  0.85651221  1
  Y  Y2  1  0.85651221  0.38987649  0.68554530  1
  Y  Y3  1  0.68554530  0.85651221  0.38987649  1
  Y  Y4  1  0.61012351  0.31445470  0.14348779  1
  Y  Y5  1  0.14348779  0.61012351  0.31445470  1
  W  W0  1  0.00000000  0.00000000  0.00000000  1
  O  O0  1  0.17674445  0.43123122  0.59156995  1
  O  O1  1  0.59156995  0.17674445  0.43123122  1
  O  O2  1  0.43123122  0.59156995  0.17674445  1
  O  O3  1  0.82325555  0.56876878  0.40843005  1
  O  O4  1  0.40843005  0.82325555  0.56876878  1
  O  O5  1  0.56876878  0.40843005  0.82325555  1
  O  O6  1  0.92396325  0.03342650  0.70490807  1
  O  O7  1  0.96657350  0.29509193  0.07603675  1
  O  O8  1  0.29509193  0.07603675  0.96657350  1
  O  O9  1  0.07603675  0.96657350  0.29509193  1
  O  O10  1  0.03342650  0.70490807  0.92396325  1
  O  O11  1  0.70490807  0.92396325  0.03342650  1
loop_
_geom_bond_atom_site_label_1
_geom_bond_atom_site_label_2
_geom_bond_distance
_geom_bond_site_symmetry_2
O0 Y0 2.182834 1_555
O0 Y2 2.224699 1_455
O0 Y5 2.266463 1_555
O0 Y1 2.291284 1_555
O1 Y4 2.182834 1_555
O1 Y3 2.224699 1_545
O1 Y0 2.266463 1_555
O1 Y2 2.291284 1_555
O2 Y5 2.182834 1_555
O2 Y1 2.224699 1_554
O2 Y4 2.266464 1_555
O2 Y3 2.291284 1_555
O3 Y3 2.182834 1_555
O3 Y5 2.224699 1_655
O3 Y2 2.266463 1_555
O3 Y4 2.291284 1_555
O4 Y1 2.182834 1_555
O4 Y0 2.224699 1_565
O4 Y3 2.266463 1_555
O4 Y5 2.291284 1_555
O5 Y2 2.182834 1_555
O5 Y4 2.224699 1_556
O5 Y1 2.266464 1_555
O5 Y0 2.291284 1_555
O6 W0 1.942123 1_656
O6 Y3 2.367897 1_545
O6 Y2 2.417444 1_555
O6 Y0 2.693394 1_655
O7 W0 1.942124 1_655
O7 Y5 2.367897 1_655
O7 Y4 2.417444 1_555
O7 Y2 2.693394 1_554
O8 W0 1.942124 1_556
O8 Y4 2.367897 1_556
O8 Y0 2.417444 1_555
O8 Y1 2.693394 1_545
O9 W0 1.942123 1_565
O9 Y0 2.367897 1_565
O9 Y5 2.417444 1_555
O9 Y3 2.693394 1_455
O10 W0 1.942124 1_566
O10 Y2 2.367897 1_455
O10 Y1 2.417444 1_555
O10 Y5 2.693394 1_556
O11 W0 1.942124 1_665
O11 Y1 2.367897 1_554
O11 Y3 2.417444 1_555
O11 Y4 2.693394 1_565
