# generated using pymatgen
data_Sm(Al10V)2
_symmetry_space_group_name_H-M   'P 1'
_cell_length_a   10.19062823
_cell_length_b   10.19063174
_cell_length_c   10.19061706
_cell_angle_alpha   59.99998161
_cell_angle_beta   60.00004742
_cell_angle_gamma   60.00002449
_symmetry_Int_Tables_number   1
_chemical_formula_structural   Sm(Al10V)2
_chemical_formula_sum   'Sm2 Al40 V4'
_cell_volume   748.32064300
_cell_formula_units_Z   2
loop_
 _symmetry_equiv_pos_site_id
 _symmetry_equiv_pos_as_xyz
  1  'x, y, z'
loop_
 _atom_site_type_symbol
 _atom_site_label
 _atom_site_symmetry_multiplicity
 _atom_site_fract_x
 _atom_site_fract_y
 _atom_site_fract_z
 _atom_site_occupancy
  Sm  Sm0  1  0.49999903  0.49999941  0.50000068  1
  Sm  Sm1  1  0.75000081  0.75000072  0.74999916  1
  Al  Al0  1  0.86194340  0.86194223  0.13805699  1
  Al  Al1  1  0.13805894  0.13805889  0.86194115  1
  Al  Al2  1  0.86194744  0.13805866  0.86193649  1
  Al  Al3  1  0.13805889  0.86194681  0.13805705  1
  Al  Al4  1  0.13805881  0.86194678  0.86193711  1
  Al  Al5  1  0.86194732  0.13805898  0.13805707  1
  Al  Al6  1  0.38801537  0.38801692  0.11198386  1
  Al  Al7  1  0.11198194  0.11198225  0.38801776  1
  Al  Al8  1  0.38801134  0.11198248  0.38802238  1
  Al  Al9  1  0.11198199  0.38801234  0.11198381  1
  Al  Al10  1  0.11198208  0.38801232  0.38802165  1
  Al  Al11  1  0.38801149  0.11198218  0.11198382  1
  Al  Al12  1  0.56856999  0.29888094  0.29888314  1
  Al  Al13  1  0.29888038  0.56857040  0.83366690  1
  Al  Al14  1  0.29887817  0.83367235  0.56856921  1
  Al  Al15  1  0.83367256  0.29887859  0.29887995  1
  Al  Al16  1  0.29887861  0.29887901  0.56857188  1
  Al  Al17  1  0.56856746  0.83366828  0.29888284  1
  Al  Al18  1  0.83366887  0.56856750  0.29888168  1
  Al  Al19  1  0.29887863  0.29887898  0.83367118  1
  Al  Al20  1  0.29888039  0.56857035  0.29888213  1
  Al  Al21  1  0.83367241  0.29887856  0.56856877  1
  Al  Al22  1  0.56856993  0.29888100  0.83366630  1
  Al  Al23  1  0.29887833  0.83367241  0.29887996  1
  Al  Al24  1  0.68145468  0.95109188  0.95109394  1
  Al  Al25  1  0.95109486  0.68145294  0.41635894  1
  Al  Al26  1  0.95109707  0.41635383  0.68145380  1
  Al  Al27  1  0.41635332  0.95109695  0.95109529  1
  Al  Al28  1  0.95109666  0.95109654  0.68145111  1
  Al  Al29  1  0.68145717  0.41635721  0.95109420  1
  Al  Al30  1  0.41635705  0.68145580  0.95109354  1
  Al  Al31  1  0.95109665  0.95109654  0.41635471  1
  Al  Al32  1  0.95109487  0.68145297  0.95109312  1
  Al  Al33  1  0.41635350  0.95109696  0.68145423  1
  Al  Al34  1  0.68145310  0.95109452  0.41635956  1
  Al  Al35  1  0.95109694  0.41635376  0.95109527  1
  Al  Al36  1  0.12499876  0.62500045  0.62500030  1
  Al  Al37  1  0.62500031  0.12499889  0.62500032  1
  Al  Al38  1  0.62500032  0.62500046  0.12499874  1
  Al  Al39  1  0.62500033  0.62500046  0.62500030  1
  V  V0  1  0.62500046  0.12499993  0.12499980  1
  V  V1  1  0.12499982  0.62500065  0.12499974  1
  V  V2  1  0.12499981  0.12500000  0.62500050  1
  V  V3  1  0.12499974  0.12499992  0.12499968  1
loop_
_geom_bond_atom_site_label_1
_geom_bond_atom_site_label_2
_geom_bond_distance
_geom_bond_site_symmetry_2
Al0 V1 2.554589 1_655
Al0 V0 2.554602 1_565
Al0 Al18 2.682646 1_555
Al0 Al17 2.682656 1_555
Al0 Al4 2.813813 1_654
Al0 Al3 2.813814 1_655
Al0 Al2 2.813819 1_564
Al0 Al5 2.813824 1_565
Al0 Al24 2.817951 1_554
Al0 Al25 2.817958 1_555
Al0 Al32 2.817959 1_554
Al0 Al34 2.817970 1_555
Al1 V3 2.554591 1_556
Al1 V2 2.554593 1_555
Al1 Al16 2.682582 1_555
Al1 Al19 2.682586 1_555
Al1 Al3 2.813773 1_546
Al1 Al5 2.813773 1_456
Al1 Al2 2.813775 1_455
Al1 Al4 2.813778 1_545
Al1 Al27 2.817910 1_545
Al1 Al33 2.817914 1_545
Al1 Al26 2.817915 1_455
Al1 Al35 2.817916 1_455
Al2 V2 2.554540 1_655
Al2 V0 2.554651 1_556
Al2 Al21 2.682583 1_555
Al2 Al22 2.682655 1_555
Al2 Al4 2.813752 1_645
Al2 Al5 2.813840 1_556
Al2 Al26 2.817895 1_555
Al2 Al28 2.817919 1_545
Al2 Al29 2.817966 1_555
Al2 Al24 2.817993 1_545
Al3 V3 2.554547 1_565
Al3 V1 2.554643 1_555
Al3 Al5 2.813755 1_465
Al3 Al4 2.813833 1_554
Al3 Al31 2.817916 1_455
Al3 Al30 2.817955 1_554
Al4 V2 2.554545 1_565
Al4 V1 2.554641 1_556
Al5 V3 2.554540 1_655
Al5 V0 2.554649 1_555
Al6 V1 2.554551 1_555
Al6 V0 2.554565 1_555
Al6 Al9 2.812977 1_555
Al6 Al8 2.812983 1_555
Al7 V3 2.554556 1_555
Al7 V2 2.554558 1_555
Al7 Al8 2.812938 1_555
Al7 Al9 2.812938 1_555
Al8 V2 2.554502 1_555
Al8 V0 2.554614 1_555
Al9 V3 2.554511 1_555
Al9 V1 2.554608 1_555
Al10 V2 2.554508 1_555
Al10 V1 2.554605 1_555
Al10 Al26 2.683395 1_455
Al10 Al25 2.683457 1_455
Al10 Al8 2.812916 1_555
Al10 Al7 2.812941 1_555
Al10 Al6 2.812976 1_555
Al10 Al9 2.812996 1_555
Al10 Al21 2.817932 1_455
Al10 Al16 2.817958 1_555
Al10 Al18 2.817991 1_455
Al10 Al20 2.818021 1_555
Al11 V3 2.554503 1_555
Al11 V0 2.554614 1_555
Al11 Al27 2.683395 1_544
Al11 Al24 2.683478 1_544
Al11 Al9 2.812919 1_555
Al11 Al7 2.812937 1_555
Al11 Al6 2.812988 1_555
Al11 Al8 2.813004 1_555
Al11 Al23 2.817929 1_545
Al11 Al19 2.817948 1_554
Al11 Al17 2.818002 1_545
Al11 Al22 2.818027 1_554
Al12 Al5 2.682657 1_555
Al12 Al15 2.701534 1_555
Al12 Al20 2.748307 1_555
Al12 Al16 2.748312 1_555
Al12 V0 2.777108 1_555
Al12 Al6 2.818009 1_555
Al12 Al8 2.818028 1_555
Al12 Al34 2.893922 1_545
Al12 Al29 2.893939 1_554
Al12 Al37 3.085191 1_555
Al12 Al38 3.085215 1_555
Al12 Sm0 3.197740 1_555
Al13 Al4 2.682646 1_555
Al13 Al14 2.701532 1_555
Al13 Al22 2.748307 1_555
Al13 Al19 2.748313 1_555
Al13 V1 2.777097 1_556
Al13 Al6 2.817995 1_556
Al13 Al9 2.818021 1_556
Al13 Al32 2.893915 1_455
Al13 Al30 2.893939 1_555
Al13 Al36 3.085200 1_555
Al13 Al39 3.085219 1_555
Al13 Sm0 3.197750 1_555
Al14 Al4 2.682584 1_555
Al14 Al17 2.748289 1_555
Al14 Al23 2.748299 1_555
Al14 V2 2.777059 1_565
Al14 Al8 2.817932 1_565
Al14 Al7 2.817951 1_565
Al14 Al28 2.893882 1_455
Al14 Al33 2.893908 1_555
Al14 Al36 3.085228 1_555
Al14 Al39 3.085244 1_555
Al14 Sm0 3.197801 1_555
Al15 Al5 2.682585 1_555
Al15 Al18 2.748290 1_555
Al15 Al21 2.748295 1_555
Al15 V3 2.777057 1_655
Al15 Al9 2.817930 1_655
Al15 Al7 2.817948 1_655
Al15 Al31 2.893885 1_545
Al15 Al35 2.893904 1_554
Al15 Al37 3.085230 1_555
Al15 Al38 3.085243 1_555
Al15 Sm0 3.197804 1_555
Al16 Al19 2.701525 1_555
Al16 Al20 2.748314 1_555
Al16 V2 2.777060 1_555
Al16 Al8 2.817956 1_555
Al16 Al26 2.893882 1_455
Al16 Al33 2.893885 1_545
Al16 Al36 3.085228 1_555
Al16 Al37 3.085228 1_555
Al16 Sm0 3.197782 1_555
Al17 Al18 2.701548 1_555
Al17 Al23 2.748295 1_555
Al17 V0 2.777100 1_565
Al17 Al8 2.818000 1_565
Al17 Al34 2.893938 1_555
Al17 Al24 2.893939 1_554
Al17 Al39 3.085205 1_555
Al17 Al38 3.085222 1_555
Al17 Sm0 3.197763 1_555
Al18 Al21 2.748289 1_555
Al18 V1 2.777096 1_655
Al18 Al9 2.817992 1_655
Al18 Al32 2.893936 1_554
Al18 Al25 2.893939 1_555
Al18 Al38 3.085216 1_555
Al18 Al39 3.085218 1_555
Al18 Sm0 3.197771 1_555
Al19 Al22 2.748309 1_555
Al19 V3 2.777056 1_556
Al19 Al9 2.817953 1_556
Al19 Al35 2.893883 1_455
Al19 Al27 2.893885 1_545
Al19 Al36 3.085229 1_555
Al19 Al37 3.085234 1_555
Al19 Sm0 3.197785 1_555
Al20 Al3 2.682644 1_555
Al20 Al23 2.701536 1_555
Al20 V1 2.777095 1_555
Al20 Al6 2.817996 1_555
Al20 Al25 2.893915 1_455
Al20 Al30 2.893936 1_554
Al20 Al36 3.085202 1_555
Al20 Al38 3.085219 1_555
Al20 Sm0 3.197748 1_555
Al21 Al22 2.701536 1_555
Al21 V2 2.777057 1_655
Al21 Al7 2.817951 1_655
Al21 Al28 2.893885 1_545
Al21 Al26 2.893908 1_555
Al21 Al37 3.085230 1_555
Al21 Al39 3.085245 1_555
Al21 Sm0 3.197801 1_555
Al22 V0 2.777102 1_556
Al22 Al6 2.818008 1_556
Al22 Al24 2.893944 1_545
Al22 Al29 2.893961 1_555
Al22 Al37 3.085199 1_555
Al22 Al39 3.085215 1_555
Al22 Sm0 3.197741 1_555
Al23 Al3 2.682584 1_555
Al23 V3 2.777056 1_565
Al23 Al7 2.817954 1_565
Al23 Al31 2.893883 1_455
Al23 Al27 2.893904 1_554
Al23 Al36 3.085228 1_555
Al23 Al38 3.085245 1_555
Al23 Sm0 3.197798 1_555
Al24 Al27 2.701517 1_555
Al24 Al32 2.747798 1_555
Al24 Al28 2.747826 1_555
Al24 V0 2.777435 1_566
Al24 Al38 3.085058 1_556
Al24 Al37 3.085072 1_565
Al24 Sm1 3.197413 1_555
Al25 Al26 2.701503 1_555
Al25 Al34 2.747820 1_555
Al25 Al31 2.747826 1_555
Al25 V1 2.777422 1_655
Al25 Al3 2.817983 1_655
Al25 Al36 3.085059 1_655
Al25 Al39 3.085078 1_555
Al25 Sm1 3.197423 1_555
Al26 Al29 2.747803 1_555
Al26 Al35 2.747812 1_555
Al26 V2 2.777382 1_655
Al26 Al36 3.085086 1_655
Al26 Al39 3.085102 1_555
Al26 Sm1 3.197473 1_555
Al27 Al30 2.747804 1_555
Al27 Al33 2.747808 1_555
Al27 V3 2.777382 1_566
Al27 Al3 2.817892 1_556
Al27 Al37 3.085088 1_565
Al27 Al38 3.085101 1_556
Al27 Sm1 3.197476 1_555
Al28 Al7 2.683391 1_665
Al28 Al31 2.701496 1_555
Al28 Al32 2.747828 1_555
Al28 V2 2.777388 1_665
Al28 Al4 2.817920 1_655
Al28 Al36 3.085087 1_655
Al28 Al37 3.085087 1_565
Al28 Sm1 3.197455 1_555
Al29 Al6 2.683477 1_556
Al29 Al30 2.701530 1_555
Al29 Al35 2.747787 1_555
Al29 V0 2.777425 1_556
Al29 Al5 2.817945 1_556
Al29 Al38 3.085064 1_556
Al29 Al39 3.085085 1_555
Al29 Sm1 3.197435 1_555
Al30 Al6 2.683456 1_556
Al30 Al33 2.747802 1_555
Al30 V1 2.777419 1_556
Al30 Al4 2.817954 1_555
Al30 Al38 3.085074 1_556
Al30 Al39 3.085077 1_555
Al30 Sm1 3.197443 1_555
Al31 Al7 2.683396 1_665
Al31 Al34 2.747823 1_555
Al31 V3 2.777382 1_665
Al31 Al5 2.817911 1_565
Al31 Al36 3.085087 1_655
Al31 Al37 3.085093 1_565
Al31 Sm1 3.197457 1_555
Al32 Al9 2.683454 1_656
Al32 Al35 2.701507 1_555
Al32 V1 2.777421 1_656
Al32 Al4 2.817983 1_655
Al32 Al36 3.085061 1_655
Al32 Al38 3.085078 1_556
Al32 Sm1 3.197421 1_555
Al33 Al8 2.683392 1_565
Al33 Al34 2.701507 1_555
Al33 V2 2.777381 1_565
Al33 Al4 2.817894 1_555
Al33 Al37 3.085088 1_565
Al33 Al39 3.085104 1_555
Al33 Sm1 3.197473 1_555
Al34 Al8 2.683465 1_565
Al34 V0 2.777425 1_565
Al34 Al5 2.817989 1_565
Al34 Al37 3.085058 1_565
Al34 Al39 3.085073 1_555
Al34 Sm1 3.197414 1_555
Al35 Al9 2.683393 1_656
Al35 V3 2.777380 1_656
Al35 Al5 2.817892 1_556
Al35 Al36 3.085086 1_655
Al35 Al38 3.085103 1_556
Al35 Sm1 3.197470 1_555
Al36 Sm1 3.120215 1_455
Al36 Sm0 3.120234 1_555
Al37 Sm1 3.120216 1_545
Al37 Sm0 3.120235 1_555
Al38 Sm1 3.120223 1_554
Al38 Sm0 3.120243 1_555
Al39 Sm1 3.120225 1_555
Al39 Sm0 3.120245 1_555
