# generated using pymatgen
data_Te2Mo
_symmetry_space_group_name_H-M   'P 1'
_cell_length_a   3.48040306
_cell_length_b   6.36160902
_cell_length_c   36.17599208
_cell_angle_alpha   90.13579765
_cell_angle_beta   89.99999838
_cell_angle_gamma   90.00000000
_symmetry_Int_Tables_number   1
_chemical_formula_structural   Te2Mo
_chemical_formula_sum   'Te4 Mo2'
_cell_volume   800.96906988
_cell_formula_units_Z   2
loop_
 _symmetry_equiv_pos_site_id
 _symmetry_equiv_pos_as_xyz
  1  'x, y, z'
loop_
 _atom_site_type_symbol
 _atom_site_label
 _atom_site_symmetry_multiplicity
 _atom_site_fract_x
 _atom_site_fract_y
 _atom_site_fract_z
 _atom_site_occupancy
  Te  Te0  1  0.25000000  0.57914681  0.94347037  1
  Te  Te1  1  0.75000000  0.42085574  0.05653029  1
  Te  Te2  1  0.75000000  0.07074358  0.95929411  1
  Te  Te3  1  0.25000000  0.92926550  0.04070985  1
  Mo  Mo0  1  0.25000000  0.31864712  0.00253232  1
  Mo  Mo1  1  0.75000000  0.68134224  0.99746305  1
loop_
_geom_bond_atom_site_label_1
_geom_bond_atom_site_label_2
_geom_bond_distance
_geom_bond_site_symmetry_2
Mo0 Te1 2.694614 1_455
Mo0 Te1 2.694614 1_555
Mo0 Te0 2.707074 1_554
Mo0 Te2 2.819649 1_554
Mo0 Te2 2.819649 1_454
Mo0 Te3 2.838957 1_545
Mo0 Mo1 2.896150 1_554
Mo0 Mo1 2.896150 1_454
Mo1 Te0 2.694455 1_655
Mo1 Te0 2.694455 1_555
Mo1 Te1 2.707174 1_556
Mo1 Te3 2.819891 1_556
Mo1 Te3 2.819891 1_656
Mo1 Te2 2.838914 1_565
