# generated using pymatgen
data_NbCuSe2
_symmetry_space_group_name_H-M   'P 1'
_cell_length_a   3.57668469
_cell_length_b   3.57668469
_cell_length_c   13.92232600
_cell_angle_alpha   90.00000000
_cell_angle_beta   90.00000000
_cell_angle_gamma   120.00001273
_symmetry_Int_Tables_number   1
_chemical_formula_structural   NbCuSe2
_chemical_formula_sum   'Nb2 Cu2 Se4'
_cell_volume   154.24236860
_cell_formula_units_Z   2
loop_
 _symmetry_equiv_pos_site_id
 _symmetry_equiv_pos_as_xyz
  1  'x, y, z'
loop_
 _atom_site_type_symbol
 _atom_site_label
 _atom_site_symmetry_multiplicity
 _atom_site_fract_x
 _atom_site_fract_y
 _atom_site_fract_z
 _atom_site_occupancy
  Nb  Nb0  1  0.33333300  0.66666700  0.24685300  1
  Nb  Nb1  1  0.66666700  0.33333300  0.74685300  1
  Cu  Cu0  1  0.33333300  0.66666700  0.46121400  1
  Cu  Cu1  1  0.66666700  0.33333300  0.96121400  1
  Se  Se0  1  0.33333300  0.66666700  0.86808500  1
  Se  Se1  1  0.66666700  0.33333300  0.12984800  1
  Se  Se2  1  0.66666700  0.33333300  0.36808500  1
  Se  Se3  1  0.33333300  0.66666700  0.62984800  1
loop_
_geom_bond_atom_site_label_1
_geom_bond_atom_site_label_2
_geom_bond_distance
_geom_bond_site_symmetry_2
Nb0 Se1 2.630170 1_565
Nb0 Se1 2.630170 1_455
Nb0 Se1 2.630176 1_555
Nb0 Se2 2.667019 1_565
Nb0 Se2 2.667019 1_455
Nb0 Se2 2.667024 1_555
Nb1 Se3 2.630170 1_545
Nb1 Se3 2.630170 1_655
Nb1 Se3 2.630176 1_555
Nb1 Se0 2.667019 1_545
Nb1 Se0 2.667019 1_655
Nb1 Se0 2.667024 1_555
Cu0 Se3 2.347778 1_555
Cu0 Se2 2.438302 1_565
Cu0 Se2 2.438302 1_455
Cu0 Se2 2.438307 1_555
Cu1 Se1 2.347778 1_556
Cu1 Se0 2.438302 1_545
Cu1 Se0 2.438302 1_655
Cu1 Se0 2.438307 1_555
