# generated using pymatgen
data_PmDy3
_symmetry_space_group_name_H-M   'P 1'
_cell_length_a   7.28596402
_cell_length_b   7.28596402
_cell_length_c   5.68696463
_cell_angle_alpha   90.00000000
_cell_angle_beta   90.00000000
_cell_angle_gamma   119.99999906
_symmetry_Int_Tables_number   1
_chemical_formula_structural   PmDy3
_chemical_formula_sum   'Pm2 Dy6'
_cell_volume   261.44792965
_cell_formula_units_Z   2
loop_
 _symmetry_equiv_pos_site_id
 _symmetry_equiv_pos_as_xyz
  1  'x, y, z'
loop_
 _atom_site_type_symbol
 _atom_site_label
 _atom_site_symmetry_multiplicity
 _atom_site_fract_x
 _atom_site_fract_y
 _atom_site_fract_z
 _atom_site_occupancy
  Pm  Pm0  1  0.66666700  0.33333300  0.25000000  1
  Pm  Pm1  1  0.33333300  0.66666700  0.75000000  1
  Dy  Dy0  1  0.83414536  0.16585464  0.75000000  1
  Dy  Dy1  1  0.33170828  0.16585464  0.75000000  1
  Dy  Dy2  1  0.83414536  0.66829172  0.75000000  1
  Dy  Dy3  1  0.16585464  0.83414536  0.25000000  1
  Dy  Dy4  1  0.66829172  0.83414536  0.25000000  1
  Dy  Dy5  1  0.16585464  0.33170828  0.25000000  1
loop_
_geom_bond_atom_site_label_1
_geom_bond_atom_site_label_2
_geom_bond_distance
_geom_bond_site_symmetry_2
Dy0 Dy4 3.530745 1_546
Dy0 Dy4 3.530745 1_545
Dy0 Dy5 3.530745 1_656
Dy0 Dy5 3.530745 1_655
Dy0 Pm0 3.542931 1_555
Dy0 Pm0 3.542931 1_556
Dy0 Dy1 3.625226 1_655
Dy0 Dy2 3.625226 1_545
Dy0 Pm1 3.642996 1_545
Dy0 Pm1 3.642996 1_655
Dy0 Dy1 3.660738 1_555
Dy0 Dy2 3.660738 1_555
Dy1 Dy5 3.530738 1_555
Dy1 Dy5 3.530738 1_556
Dy1 Dy3 3.530745 1_546
Dy1 Dy3 3.530745 1_545
Dy1 Pm0 3.542938 1_555
Dy1 Pm0 3.542938 1_556
Dy1 Dy2 3.625226 1_445
Dy1 Pm1 3.642996 1_545
Dy1 Pm1 3.642996 1_555
Dy1 Dy2 3.660739 1_555
Dy2 Dy4 3.530738 1_556
Dy2 Dy4 3.530738 1_555
Dy2 Dy3 3.530745 1_655
Dy2 Dy3 3.530745 1_656
Dy2 Pm0 3.542938 1_555
Dy2 Pm0 3.542938 1_556
Dy2 Pm1 3.642996 1_655
Dy2 Pm1 3.642996 1_555
Dy3 Pm1 3.542931 1_554
Dy3 Pm1 3.542931 1_555
Dy3 Dy5 3.625226 1_565
Dy3 Dy4 3.625226 1_455
Dy3 Pm0 3.642996 1_455
Dy3 Pm0 3.642996 1_565
Dy3 Dy4 3.660738 1_555
Dy3 Dy5 3.660738 1_555
Dy4 Pm1 3.542938 1_554
Dy4 Pm1 3.542938 1_555
Dy4 Dy5 3.625226 1_665
Dy4 Pm0 3.642996 1_565
Dy4 Pm0 3.642996 1_555
Dy4 Dy5 3.660739 1_555
Dy5 Pm1 3.542938 1_555
Dy5 Pm1 3.542938 1_554
Dy5 Pm0 3.642996 1_455
Dy5 Pm0 3.642996 1_555
