# generated using pymatgen
data_La3Nd(GaO3)4
_symmetry_space_group_name_H-M   'P 1'
_cell_length_a   7.86027500
_cell_length_b   5.55603500
_cell_length_c   5.55702540
_cell_angle_alpha   89.90036947
_cell_angle_beta   90.00000000
_cell_angle_gamma   90.00000000
_symmetry_Int_Tables_number   1
_chemical_formula_structural   La3Nd(GaO3)4
_chemical_formula_sum   'La3 Nd1 Ga4 O12'
_cell_volume   242.68584087
_cell_formula_units_Z   1
loop_
 _symmetry_equiv_pos_site_id
 _symmetry_equiv_pos_as_xyz
  1  'x, y, z'
loop_
 _atom_site_type_symbol
 _atom_site_label
 _atom_site_symmetry_multiplicity
 _atom_site_fract_x
 _atom_site_fract_y
 _atom_site_fract_z
 _atom_site_occupancy
  La  La0  1  0.00000000  0.52669700  0.99339100  1
  La  La1  1  0.50000000  0.97459400  0.49337100  1
  La  La2  1  0.50000000  0.47229000  0.00836800  1
  Nd  Nd0  1  0.00000000  0.03467700  0.50953400  1
  Ga  Ga0  1  0.24902800  0.50157800  0.49983300  1
  Ga  Ga1  1  0.75131700  0.99949300  0.00044700  1
  Ga  Ga2  1  0.75097200  0.50157800  0.49983300  1
  Ga  Ga3  1  0.24868300  0.99949300  0.00044700  1
  O  O0  1  0.00000000  0.48245700  0.42375200  1
  O  O1  1  0.00000000  0.98733600  0.08359200  1
  O  O2  1  0.50000000  0.51224200  0.57688700  1
  O  O3  1  0.50000000  0.01200800  0.92429600  1
  O  O4  1  0.20565700  0.78205800  0.71830800  1
  O  O5  1  0.79362400  0.27691200  0.77618800  1
  O  O6  1  0.71005300  0.21987300  0.27920100  1
  O  O7  1  0.29141100  0.71893400  0.21942900  1
  O  O8  1  0.28994700  0.21987300  0.27920100  1
  O  O9  1  0.70858900  0.71893400  0.21942900  1
  O  O10  1  0.79434300  0.78205800  0.71830800  1
  O  O11  1  0.20637600  0.27691200  0.77618800  1
loop_
_geom_bond_atom_site_label_1
_geom_bond_atom_site_label_2
_geom_bond_distance
_geom_bond_site_symmetry_2
La0 O0 2.403700 1_556
La0 O11 2.453600 1_555
La0 O5 2.453600 1_455
La0 O1 2.608805 1_556
La0 O10 2.637295 1_455
La0 O4 2.637295 1_555
La0 O9 2.823110 1_456
La0 O7 2.823110 1_556
La0 O1 3.037481 1_546
La0 O0 3.175453 1_555
La0 O6 3.257813 1_456
La0 O8 3.257813 1_556
La1 O3 2.404027 1_565
La1 O8 2.448270 1_565
La1 O6 2.448270 1_565
La1 O2 2.609636 1_555
La1 O9 2.651566 1_555
La1 O7 2.651566 1_555
La1 O4 2.838126 1_555
La1 O10 2.838126 1_555
La1 O2 3.023826 1_565
La1 O3 3.168828 1_564
La1 O11 3.259944 1_565
La1 O5 3.259944 1_565
La2 O2 2.407619 1_554
La2 O7 2.438707 1_555
La2 O9 2.438707 1_555
La2 O3 2.600466 1_554
La2 O8 2.636407 1_555
La2 O6 2.636407 1_555
La2 O5 2.859132 1_554
La2 O11 2.859132 1_554
Nd0 O1 2.381995 1_545
Nd0 O10 2.433810 1_445
Nd0 O4 2.433810 1_545
Nd0 O0 2.532324 1_555
Nd0 O5 2.577882 1_455
Nd0 O11 2.577882 1_555
Nd0 O6 2.808311 1_455
Nd0 O8 2.808311 1_555
Ga0 O7 1.997712 1_555
Ga0 O0 2.005422 1_555
Ga0 O11 2.005561 1_555
Ga0 O4 2.006301 1_555
Ga0 O8 2.015707 1_555
Ga0 O2 2.019536 1_555
Ga1 O6 2.002644 1_565
Ga1 O9 2.004211 1_555
Ga1 O5 2.008161 1_564
Ga1 O10 2.009621 1_554
Ga1 O1 2.009689 1_655
Ga1 O3 2.021409 1_564
Ga2 O9 1.997712 1_555
Ga2 O0 2.005422 1_655
Ga2 O5 2.005561 1_555
Ga2 O10 2.006301 1_555
Ga2 O6 2.015707 1_555
Ga2 O2 2.019536 1_555
Ga3 O8 2.002644 1_565
Ga3 O7 2.004211 1_555
Ga3 O11 2.008161 1_564
Ga3 O4 2.009621 1_554
Ga3 O1 2.009689 1_555
Ga3 O3 2.021409 1_564
