# generated using pymatgen
data_BaSrCa2Tl(CuO3)3
_symmetry_space_group_name_H-M   'P 1'
_cell_length_a   3.82763400
_cell_length_b   3.84502379
_cell_length_c   15.79112996
_cell_angle_alpha   90.13949470
_cell_angle_beta   90.00000000
_cell_angle_gamma   90.00000000
_symmetry_Int_Tables_number   1
_chemical_formula_structural   BaSrCa2Tl(CuO3)3
_chemical_formula_sum   'Ba1 Sr1 Ca2 Tl1 Cu3 O9'
_cell_volume   232.40279944
_cell_formula_units_Z   1
loop_
 _symmetry_equiv_pos_site_id
 _symmetry_equiv_pos_as_xyz
  1  'x, y, z'
loop_
 _atom_site_type_symbol
 _atom_site_label
 _atom_site_symmetry_multiplicity
 _atom_site_fract_x
 _atom_site_fract_y
 _atom_site_fract_z
 _atom_site_occupancy
  Ba  Ba0  1  0.50000000  0.51268000  0.83629100  1
  Sr  Sr0  1  0.50000000  0.51210500  0.16880900  1
  Ca  Ca0  1  0.50000000  0.50188500  0.60344700  1
  Ca  Ca1  1  0.50000000  0.50170200  0.39190000  1
  Tl  Tl0  1  0.00000000  0.07910900  0.00624400  1
  Cu  Cu0  1  0.00000000  0.00473200  0.70584300  1
  Cu  Cu1  1  0.00000000  0.00462100  0.28408100  1
  Cu  Cu2  1  0.00000000  0.00049500  0.49882400  1
  O  O0  1  0.00000000  0.00724400  0.87308900  1
  O  O1  1  0.00000000  0.00066600  0.14064000  1
  O  O2  1  0.00000000  0.50437000  0.69640400  1
  O  O3  1  0.50000000  0.00414400  0.69575300  1
  O  O4  1  0.00000000  0.50431600  0.29652400  1
  O  O5  1  0.50000000  0.00295100  0.29740000  1
  O  O6  1  0.50000000  0.44207600  0.01037300  1
  O  O7  1  0.00000000  0.50038400  0.49717400  1
  O  O8  1  0.50000000  0.00052100  0.49720400  1
loop_
_geom_bond_atom_site_label_1
_geom_bond_atom_site_label_2
_geom_bond_distance
_geom_bond_site_symmetry_2
Ba0 O0 2.758821 1_665
Ba0 O0 2.758821 1_565
Ba0 O6 2.762981 1_556
Ba0 O0 2.789750 1_555
Ba0 O0 2.789750 1_655
Ba0 O3 2.918294 1_565
Ba0 O2 2.922830 1_555
Ba0 O2 2.922830 1_655
Ba0 O3 2.954198 1_555
Ca0 O3 2.408518 1_555
Ca0 O2 2.411936 1_555
Ca0 O2 2.411936 1_655
Ca0 O3 2.416705 1_565
Ca0 O7 2.545376 1_555
Ca0 O7 2.545376 1_655
Ca0 O8 2.550734 1_565
Ca0 O8 2.552482 1_555
Ca1 O5 2.427039 1_555
Ca1 O4 2.435404 1_655
Ca1 O4 2.435404 1_555
Ca1 O5 2.440367 1_565
Ca1 O7 2.535019 1_555
Ca1 O7 2.535019 1_655
Ca1 O8 2.535393 1_565
Ca1 O8 2.548386 1_555
Cu0 O3 1.920439 1_555
Cu0 O3 1.920439 1_455
Cu0 O2 1.927255 1_555
Cu0 O2 1.929307 1_545
Cu0 O0 2.640997 1_555
Cu1 O5 1.925352 1_455
Cu1 O5 1.925352 1_555
Cu1 O4 1.930884 1_555
Cu1 O4 1.934169 1_545
Cu1 O1 2.265109 1_555
Cu2 O8 1.913988 1_455
Cu2 O8 1.913988 1_555
Cu2 O7 1.922325 1_555
Cu2 O7 1.923052 1_545
O0 Tl0 2.120080 1_556
O1 Tl0 2.144317 1_555
O1 Sr0 2.719099 1_545
O1 Sr0 2.719099 1_445
O1 Sr0 2.779101 1_455
O1 Sr0 2.779101 1_555
O4 Sr0 2.780508 1_555
O4 Sr0 2.780508 1_455
O5 Sr0 2.768866 1_545
O5 Sr0 2.824059 1_555
O6 Tl0 2.369441 1_555
O6 Tl0 2.369441 1_655
O6 Sr0 2.515679 1_555
