# generated using pymatgen
data_Nd2Si2PbSe8
_symmetry_space_group_name_H-M   'P 1'
_cell_length_a   9.43888537
_cell_length_b   9.43888537
_cell_length_c   10.74858381
_cell_angle_alpha   65.07450893
_cell_angle_beta   65.07450893
_cell_angle_gamma   60.16641766
_symmetry_Int_Tables_number   1
_chemical_formula_structural   Nd2Si2PbSe8
_chemical_formula_sum   'Nd4 Si4 Pb2 Se16'
_cell_volume   725.52237390
_cell_formula_units_Z   2
loop_
 _symmetry_equiv_pos_site_id
 _symmetry_equiv_pos_as_xyz
  1  'x, y, z'
loop_
 _atom_site_type_symbol
 _atom_site_label
 _atom_site_symmetry_multiplicity
 _atom_site_fract_x
 _atom_site_fract_y
 _atom_site_fract_z
 _atom_site_occupancy
  Nd  Nd0  1  0.24967200  0.43692900  0.25137300  1
  Nd  Nd1  1  0.94151300  0.06179000  0.24711100  1
  Nd  Nd2  1  0.43692900  0.24967200  0.75137300  1
  Nd  Nd3  1  0.06179000  0.94151300  0.74711100  1
  Si  Si0  1  0.33415900  0.84462800  0.97855000  1
  Si  Si1  1  0.84462800  0.33415900  0.47855000  1
  Si  Si2  1  0.65570500  0.16409700  0.02223900  1
  Si  Si3  1  0.16409700  0.65570500  0.52223900  1
  Pb  Pb0  1  0.57186800  0.75018400  0.25009800  1
  Pb  Pb1  1  0.75018400  0.57186800  0.75009800  1
  Se  Se0  1  0.53723600  0.60319700  0.07286500  1
  Se  Se1  1  0.09741500  0.78369100  0.05693000  1
  Se  Se2  1  0.27516700  0.06653700  0.05400600  1
  Se  Se3  1  0.78369100  0.09741500  0.55693000  1
  Se  Se4  1  0.60319700  0.53723600  0.57286500  1
  Se  Se5  1  0.06653700  0.27516700  0.55400600  1
  Se  Se6  1  0.42926600  0.39555300  0.95088200  1
  Se  Se7  1  0.89691500  0.21727400  0.93576200  1
  Se  Se8  1  0.71366900  0.95540000  0.92977000  1
  Se  Se9  1  0.21727400  0.89691500  0.43576200  1
  Se  Se10  1  0.39555300  0.42926600  0.45088200  1
  Se  Se11  1  0.95540000  0.71366900  0.42977000  1
  Se  Se12  1  0.40767700  0.93411000  0.73350600  1
  Se  Se13  1  0.93411000  0.40767700  0.23350600  1
  Se  Se14  1  0.58248400  0.09386400  0.26690900  1
  Se  Se15  1  0.09386400  0.58248400  0.76690900  1
loop_
_geom_bond_atom_site_label_1
_geom_bond_atom_site_label_2
_geom_bond_distance
_geom_bond_site_symmetry_2
Nd0 Se10 2.959539 1_555
Nd0 Se1 3.038414 1_555
Nd0 Se6 3.041001 1_554
Nd0 Se5 3.098518 1_555
Nd0 Se14 3.201108 1_555
Nd0 Se13 3.214030 1_455
Nd0 Se11 3.275475 1_455
Nd0 Se0 3.289733 1_555
Nd1 Se2 2.963224 1_655
Nd1 Se11 3.003259 1_545
Nd1 Se3 3.112230 1_555
Nd1 Se7 3.156505 1_554
Nd1 Se14 3.169671 1_555
Nd1 Se13 3.172432 1_555
Nd1 Se9 3.326722 1_645
Nd1 Se1 3.373198 1_645
Nd2 Se6 2.959539 1_555
Nd2 Se3 3.038414 1_555
Nd2 Se10 3.041001 1_555
Nd2 Se2 3.098518 1_556
Nd2 Se15 3.201108 1_555
Nd2 Se12 3.214030 1_545
Nd2 Se8 3.275475 1_545
Nd2 Se4 3.289733 1_555
Nd3 Se5 2.963224 1_565
Nd3 Se8 3.003259 1_455
Nd3 Se1 3.112230 1_556
Nd3 Se9 3.156505 1_555
Nd3 Se15 3.169671 1_555
Nd3 Se12 3.172432 1_555
Nd3 Se7 3.326722 1_465
Nd3 Se3 3.373198 1_465
Pb0 Se0 2.977346 1_555
Pb0 Se9 3.031592 1_555
Pb0 Se8 3.236054 1_554
Pb0 Se4 3.249493 1_555
Pb0 Se13 3.338849 1_555
Pb0 Se14 3.376194 1_565
Pb1 Se4 2.977346 1_555
Pb1 Se7 3.031592 1_555
Pb1 Se11 3.236054 1_555
Pb1 Se0 3.249493 1_556
Pb1 Se12 3.338849 1_555
Pb1 Se15 3.376194 1_655
Se0 Si0 2.289004 1_554
Se1 Si0 2.305995 1_554
Se2 Si0 2.290389 1_544
Se3 Si1 2.305995 1_555
Se4 Si1 2.289004 1_555
Se5 Si1 2.290389 1_455
Se6 Si2 2.291901 1_556
Se7 Si2 2.293372 1_556
Se8 Si2 2.299382 1_566
Se9 Si3 2.293372 1_555
Se10 Si3 2.291901 1_555
Se11 Si3 2.299382 1_655
Se12 Si0 2.302116 1_555
Se13 Si1 2.302116 1_555
Se14 Si2 2.299493 1_555
Se15 Si3 2.299493 1_555
