# generated using pymatgen
data_CoBr3N5
_symmetry_space_group_name_H-M   'P 1'
_cell_length_a   6.36695400
_cell_length_b   7.69934400
_cell_length_c   18.40673300
_cell_angle_alpha   90.00000000
_cell_angle_beta   90.00000000
_cell_angle_gamma   90.00000000
_symmetry_Int_Tables_number   1
_chemical_formula_structural   CoBr3N5
_chemical_formula_sum   'Co4 Br12 N20'
_cell_volume   902.32325192
_cell_formula_units_Z   4
loop_
 _symmetry_equiv_pos_site_id
 _symmetry_equiv_pos_as_xyz
  1  'x, y, z'
loop_
 _atom_site_type_symbol
 _atom_site_label
 _atom_site_symmetry_multiplicity
 _atom_site_fract_x
 _atom_site_fract_y
 _atom_site_fract_z
 _atom_site_occupancy
  Co  Co0  1  0.23093100  0.75000000  0.13261000  1
  Co  Co1  1  0.26906900  0.75000000  0.63261000  1
  Co  Co2  1  0.76906900  0.25000000  0.86739000  1
  Co  Co3  1  0.73093100  0.25000000  0.36739000  1
  Br  Br0  1  0.45889800  0.75000000  0.84809000  1
  Br  Br1  1  0.04110200  0.75000000  0.34809000  1
  Br  Br2  1  0.54110200  0.25000000  0.15191000  1
  Br  Br3  1  0.95889800  0.25000000  0.65191000  1
  Br  Br4  1  0.70722800  0.53747700  0.66528200  1
  Br  Br5  1  0.79277200  0.96252300  0.16528200  1
  Br  Br6  1  0.29277200  0.03747700  0.33471800  1
  Br  Br7  1  0.20722800  0.46252300  0.83471800  1
  Br  Br8  1  0.29277200  0.46252300  0.33471800  1
  Br  Br9  1  0.20722800  0.03747700  0.83471800  1
  Br  Br10  1  0.70722800  0.96252300  0.66528200  1
  Br  Br11  1  0.79277200  0.53747700  0.16528200  1
  N  N0  1  0.21503100  0.75000000  0.01147200  1
  N  N1  1  0.28496900  0.75000000  0.51147200  1
  N  N2  1  0.78496900  0.25000000  0.98852800  1
  N  N3  1  0.71503100  0.25000000  0.48852800  1
  N  N4  1  0.95147500  0.75000000  0.16305800  1
  N  N5  1  0.54852500  0.75000000  0.66305800  1
  N  N6  1  0.04852500  0.25000000  0.83694200  1
  N  N7  1  0.45147500  0.25000000  0.33694200  1
  N  N8  1  0.42421500  0.75000000  0.18513800  1
  N  N9  1  0.07578500  0.75000000  0.68513800  1
  N  N10  1  0.57578500  0.25000000  0.81486200  1
  N  N11  1  0.92421500  0.25000000  0.31486200  1
  N  N12  1  0.26169200  0.88476200  0.05212400  1
  N  N13  1  0.23830800  0.61523800  0.55212400  1
  N  N14  1  0.73830800  0.38476200  0.94787600  1
  N  N15  1  0.76169200  0.11523800  0.44787600  1
  N  N16  1  0.73830800  0.11523800  0.94787600  1
  N  N17  1  0.76169200  0.38476200  0.44787600  1
  N  N18  1  0.26169200  0.61523800  0.05212400  1
  N  N19  1  0.23830800  0.88476200  0.55212400  1
loop_
_geom_bond_atom_site_label_1
_geom_bond_atom_site_label_2
_geom_bond_distance
_geom_bond_site_symmetry_2
Co0 N8 1.565020 1_555
Co0 N12 1.819265 1_555
Co0 N18 1.819265 1_555
Co0 N4 1.865463 1_455
Co1 N9 1.565020 1_555
Co1 N19 1.819265 1_555
Co1 N13 1.819265 1_555
Co1 N5 1.865463 1_555
Co2 N10 1.565020 1_555
Co2 N14 1.819265 1_555
Co2 N16 1.819265 1_555
Co2 N6 1.865463 1_655
Co3 N11 1.565020 1_555
Co3 N15 1.819265 1_555
Co3 N17 1.819265 1_555
Co3 N7 1.865463 1_555
Br0 Br9 2.743583 1_565
Br0 Br7 2.743583 1_555
Br1 Br6 2.743583 1_565
Br1 Br8 2.743583 1_555
Br2 Br5 2.743583 1_545
Br3 Br4 2.743583 1_555
Br4 N5 1.923573 1_555
Br5 N4 1.923573 1_555
Br6 N7 1.923573 1_555
Br7 N6 1.923573 1_555
Br8 N7 1.923573 1_555
Br9 N6 1.923573 1_555
Br10 N5 1.923573 1_555
Br10 Br3 2.743583 1_565
Br11 N4 1.923573 1_555
Br11 Br2 2.743583 1_555
N0 N12 1.313294 1_555
N0 N18 1.313294 1_555
N1 N19 1.313294 1_555
N1 N13 1.313294 1_555
N14 N2 1.313294 1_555
N15 N3 1.313294 1_555
N16 N2 1.313294 1_555
N17 N3 1.313294 1_555
