# generated using pymatgen
data_Tb2Al6Si4Pt
_symmetry_space_group_name_H-M   'P 1'
_cell_length_a   17.14506243
_cell_length_b   17.14506243
_cell_length_c   17.14506216
_cell_angle_alpha   13.89749103
_cell_angle_beta   13.89749103
_cell_angle_gamma   13.89749164
_symmetry_Int_Tables_number   1
_chemical_formula_structural   Tb2Al6Si4Pt
_chemical_formula_sum   'Tb2 Al6 Si4 Pt1'
_cell_volume   253.02619156
_cell_formula_units_Z   1
loop_
 _symmetry_equiv_pos_site_id
 _symmetry_equiv_pos_as_xyz
  1  'x, y, z'
loop_
 _atom_site_type_symbol
 _atom_site_label
 _atom_site_symmetry_multiplicity
 _atom_site_fract_x
 _atom_site_fract_y
 _atom_site_fract_z
 _atom_site_occupancy
  Tb  Tb0  1  0.56658148  0.56658148  0.56658148  1
  Tb  Tb1  1  0.43341852  0.43341852  0.43341852  1
  Al  Al0  1  0.95061495  0.95061495  0.95061495  1
  Al  Al1  1  0.04938505  0.04938505  0.04938505  1
  Al  Al2  1  0.18483662  0.18483662  0.18483662  1
  Al  Al3  1  0.81516338  0.81516338  0.81516338  1
  Al  Al4  1  0.31852273  0.31852273  0.31852273  1
  Al  Al5  1  0.68147727  0.68147727  0.68147727  1
  Si  Si0  1  0.73350647  0.73350647  0.73350647  1
  Si  Si1  1  0.13511476  0.13511476  0.13511476  1
  Si  Si2  1  0.26649353  0.26649353  0.26649353  1
  Si  Si3  1  0.86488524  0.86488524  0.86488524  1
  Pt  Pt0  1  -0.00000000  -0.00000000  0.00000000  1
loop_
_geom_bond_atom_site_label_1
_geom_bond_atom_site_label_2
_geom_bond_distance
_geom_bond_site_symmetry_2
Al0 Pt0 2.515221 1_666
Al0 Si2 2.554777 1_665
Al0 Si2 2.554778 1_566
Al0 Si2 2.554778 1_656
Al1 Pt0 2.515221 1_555
Al1 Si0 2.554777 1_445
Al1 Si0 2.554778 1_544
Al1 Si0 2.554778 1_454
Al2 Si3 2.490203 1_445
Al2 Si3 2.490203 1_454
Al2 Si3 2.490203 1_544
Al2 Si1 2.532375 1_555
Al3 Si1 2.490203 1_665
Al3 Si1 2.490203 1_656
Al3 Si1 2.490203 1_566
Al3 Si3 2.532375 1_555
Al4 Pt0 2.511093 1_556
Al4 Pt0 2.511093 1_565
Al4 Pt0 2.511093 1_655
Al4 Si2 2.649890 1_555
Al5 Pt0 2.511093 1_665
Al5 Pt0 2.511093 1_656
Al5 Pt0 2.511093 1_566
Al5 Si0 2.649890 1_555
Si0 Tb1 2.933184 1_556
Si0 Tb1 2.933184 1_655
Si0 Tb1 2.933184 1_565
Si1 Tb1 2.986562 1_554
Si1 Tb1 2.986562 1_455
Si1 Tb1 2.986562 1_545
Si2 Tb0 2.933184 1_554
Si2 Tb0 2.933184 1_455
Si2 Tb0 2.933184 1_545
Si3 Tb0 2.986562 1_556
Si3 Tb0 2.986562 1_655
Si3 Tb0 2.986562 1_565
