# generated using pymatgen
data_Dy10Al4Ge11
_symmetry_space_group_name_H-M   'P 1'
_cell_length_a   5.62579128
_cell_length_b   5.62579128
_cell_length_c   24.81029760
_cell_angle_alpha   81.42274683
_cell_angle_beta   81.42274683
_cell_angle_gamma   43.89007912
_symmetry_Int_Tables_number   1
_chemical_formula_structural   Dy10Al4Ge11
_chemical_formula_sum   'Dy10 Al4 Ge11'
_cell_volume   537.30135713
_cell_formula_units_Z   1
loop_
 _symmetry_equiv_pos_site_id
 _symmetry_equiv_pos_as_xyz
  1  'x, y, z'
loop_
 _atom_site_type_symbol
 _atom_site_label
 _atom_site_symmetry_multiplicity
 _atom_site_fract_x
 _atom_site_fract_y
 _atom_site_fract_z
 _atom_site_occupancy
  Dy  Dy0  1  0.33031200  0.33031100  0.94297600  1
  Dy  Dy1  1  0.72704700  0.72704700  0.74254000  1
  Dy  Dy2  1  0.12702000  0.12702000  0.54222200  1
  Dy  Dy3  1  0.92673500  0.92673500  0.14274800  1
  Dy  Dy4  1  0.52729500  0.52729500  0.34208400  1
  Dy  Dy5  1  0.07326500  0.07326500  0.85725200  1
  Dy  Dy6  1  0.47270500  0.47270500  0.65791600  1
  Dy  Dy7  1  0.87298000  0.87298000  0.45777800  1
  Dy  Dy8  1  0.66968800  0.66968800  0.05702400  1
  Dy  Dy9  1  0.27295300  0.27295300  0.25746000  1
  Al  Al0  1  0.59917900  0.59917900  0.20033300  1
  Al  Al1  1  0.19989000  0.19989000  0.39978900  1
  Al  Al2  1  0.80011000  0.80011000  0.60021100  1
  Al  Al3  1  0.40082100  0.40082100  0.79966700  1
  Ge  Ge0  1  0.61850500  0.61850500  0.94082400  1
  Ge  Ge1  1  0.01336100  0.01336100  0.74323500  1
  Ge  Ge2  1  0.41296400  0.41296400  0.54309800  1
  Ge  Ge3  1  0.21085700  0.21085700  0.14387800  1
  Ge  Ge4  1  0.81304000  0.81304000  0.34320500  1
  Ge  Ge5  1  0.78914300  0.78914300  0.85612200  1
  Ge  Ge6  1  0.18696000  0.18696000  0.65679500  1
  Ge  Ge7  1  0.58703600  0.58703600  0.45690200  1
  Ge  Ge8  1  0.38149500  0.38149500  0.05917600  1
  Ge  Ge9  1  0.98663900  0.98663900  0.25676500  1
  Ge  Ge10  1  0.00000000  0.00000000  0.00000000  1
loop_
_geom_bond_atom_site_label_1
_geom_bond_atom_site_label_2
_geom_bond_distance
_geom_bond_site_symmetry_2
Dy0 Ge0 2.999559 1_555
Dy0 Ge8 3.015296 1_556
Dy0 Ge0 3.057341 1_545
Dy0 Ge0 3.057344 1_455
Dy0 Ge5 3.089679 1_545
Dy0 Ge5 3.089682 1_455
Dy0 Ge10 3.219288 1_656
Dy0 Ge10 3.219290 1_566
Dy0 Ge10 3.509508 1_556
Dy1 Ge1 2.990887 1_665
Dy1 Ge5 2.991388 1_555
Dy1 Ge1 3.062935 1_565
Dy1 Ge1 3.062935 1_655
Dy1 Ge6 3.067117 1_565
Dy1 Ge6 3.067117 1_655
Dy2 Ge2 2.987776 1_555
Dy2 Ge6 3.007238 1_555
Dy2 Ge7 3.059315 1_545
Dy2 Ge7 3.059315 1_455
Dy2 Ge2 3.065247 1_545
Dy2 Ge2 3.065247 1_455
Dy3 Ge3 2.969826 1_665
Dy3 Ge9 2.993603 1_555
Dy3 Ge8 3.042569 1_565
Dy3 Ge8 3.042569 1_655
Dy3 Ge3 3.078420 1_655
Dy3 Ge3 3.078420 1_565
Dy3 Ge10 3.500980 1_665
Dy4 Ge4 2.986726 1_555
Dy4 Ge7 3.012441 1_555
Dy4 Ge9 3.061042 1_455
Dy4 Ge9 3.061042 1_545
Dy4 Ge4 3.066095 1_545
Dy4 Ge4 3.066095 1_455
Dy5 Ge5 2.969826 1_445
Dy5 Ge1 2.993603 1_555
Dy5 Ge0 3.042569 1_545
Dy5 Ge0 3.042569 1_455
Dy5 Ge5 3.078420 1_545
Dy5 Ge5 3.078420 1_455
Dy5 Ge10 3.500980 1_556
Dy6 Ge6 2.986726 1_555
Dy6 Ge2 3.012441 1_555
Dy6 Ge1 3.061042 1_655
Dy6 Ge1 3.061042 1_565
Dy6 Ge6 3.066095 1_565
Dy6 Ge6 3.066095 1_655
Dy7 Ge7 2.987776 1_555
Dy7 Ge4 3.007238 1_555
Dy7 Ge2 3.059315 1_655
Dy7 Ge2 3.059315 1_565
Dy7 Ge7 3.065247 1_655
Dy7 Ge7 3.065247 1_565
Dy8 Ge8 2.999553 1_555
Dy8 Ge0 3.015295 1_554
Dy8 Ge8 3.057347 1_565
Dy8 Ge8 3.057347 1_655
Dy8 Ge3 3.089682 1_655
Dy8 Ge3 3.089682 1_565
Dy8 Ge10 3.219286 1_655
Dy8 Ge10 3.219286 1_565
Dy8 Ge10 3.509513 1_665
Dy9 Ge9 2.990887 1_445
Dy9 Ge3 2.991388 1_555
Dy9 Ge9 3.062935 1_545
Dy9 Ge9 3.062935 1_455
Dy9 Ge4 3.067117 1_545
Dy9 Ge4 3.067117 1_455
Al0 Ge3 2.686187 1_565
Al0 Ge3 2.686187 1_655
Al0 Ge9 2.689092 1_455
Al0 Ge9 2.689092 1_545
Al1 Ge4 2.693044 1_455
Al1 Ge4 2.693044 1_545
Al1 Ge7 2.697896 1_455
Al1 Ge7 2.697896 1_545
Al2 Ge6 2.693044 1_565
Al2 Ge6 2.693044 1_655
Al2 Ge2 2.697896 1_655
Al2 Ge2 2.697896 1_565
Al3 Ge5 2.686187 1_545
Al3 Ge5 2.686187 1_455
Al3 Ge1 2.689092 1_655
Al3 Ge1 2.689092 1_565
Ge0 Ge5 2.526676 1_555
Ge0 Ge10 2.742533 1_566
Ge0 Ge10 2.742533 1_656
Ge1 Ge6 2.575304 1_555
Ge2 Ge7 2.573773 1_555
Ge3 Ge8 2.526676 1_555
Ge4 Ge9 2.575304 1_555
Ge10 Ge8 2.742533 1_545
Ge10 Ge8 2.742533 1_455
