# generated using pymatgen
data_Na2Zn3Se4
_symmetry_space_group_name_H-M   'P 1'
_cell_length_a   9.11929781
_cell_length_b   9.11929781
_cell_length_c   9.11929781
_cell_angle_alpha   141.29929256
_cell_angle_beta   108.40234324
_cell_angle_gamma   84.48475899
_symmetry_Int_Tables_number   1
_chemical_formula_structural   Na2Zn3Se4
_chemical_formula_sum   'Na4 Zn6 Se8'
_cell_volume   435.25846884
_cell_formula_units_Z   2
loop_
 _symmetry_equiv_pos_site_id
 _symmetry_equiv_pos_as_xyz
  1  'x, y, z'
loop_
 _atom_site_type_symbol
 _atom_site_label
 _atom_site_symmetry_multiplicity
 _atom_site_fract_x
 _atom_site_fract_y
 _atom_site_fract_z
 _atom_site_occupancy
  Na  Na0  1  0.62514600  0.73540200  0.36054800  1
  Na  Na1  1  0.37485400  0.26459800  0.63945200  1
  Na  Na2  1  0.12514600  0.76459800  0.88974500  1
  Na  Na3  1  0.87485400  0.23540200  0.11025500  1
  Zn  Zn0  1  0.75000000  0.25000000  0.50000000  1
  Zn  Zn1  1  0.25000000  0.75000000  0.50000000  1
  Zn  Zn2  1  0.97222100  0.75000000  0.22222100  1
  Zn  Zn3  1  0.52777900  0.75000000  0.77777900  1
  Zn  Zn4  1  0.02777900  0.25000000  0.77777900  1
  Zn  Zn5  1  0.47222100  0.25000000  0.22222100  1
  Se  Se0  1  0.00618200  0.86673900  0.60038600  1
  Se  Se1  1  0.26635300  0.40579600  0.39961400  1
  Se  Se2  1  0.23364700  0.63326100  0.13944300  1
  Se  Se3  1  0.49381800  0.09420400  0.86055700  1
  Se  Se4  1  0.99381800  0.13326100  0.39961400  1
  Se  Se5  1  0.73364700  0.59420400  0.60038600  1
  Se  Se6  1  0.76635300  0.36673900  0.86055700  1
  Se  Se7  1  0.50618200  0.90579600  0.13944300  1
loop_
_geom_bond_atom_site_label_1
_geom_bond_atom_site_label_2
_geom_bond_distance
_geom_bond_site_symmetry_2
Na0 Se5 3.194543 1_555
Na0 Se0 3.194543 1_655
Na0 Se7 3.292747 1_555
Na0 Se2 3.292747 1_555
Na0 Se6 3.512699 1_565
Na0 Se3 3.512699 1_565
Na0 Se6 3.563592 1_554
Na0 Se3 3.563592 1_554
Na1 Se4 3.194543 1_455
Na1 Se1 3.194543 1_555
Na1 Se3 3.292747 1_555
Na1 Se6 3.292747 1_555
Na1 Se2 3.512699 1_545
Na1 Se7 3.512699 1_545
Na1 Se2 3.563592 1_556
Na1 Se7 3.563592 1_556
Na2 Se2 3.194535 1_556
Na2 Se7 3.194542 1_556
Na2 Se5 3.292748 1_455
Na2 Se0 3.292755 1_555
Na2 Se4 3.512698 1_455
Na2 Se1 3.512705 1_555
Na2 Se4 3.563586 1_466
Na2 Se1 3.563593 1_566
Na3 Se6 3.194535 1_554
Na3 Se3 3.194542 1_554
Na3 Se1 3.292748 1_655
Na3 Se4 3.292755 1_555
Na3 Se0 3.512698 1_655
Na3 Se5 3.512705 1_555
Na3 Se0 3.563586 1_644
Na3 Se5 3.563593 1_544
Se0 Zn4 2.444880 1_565
Se0 Zn1 2.494813 1_555
Se0 Zn2 2.603995 1_455
Se1 Zn5 2.444880 1_555
Se1 Zn1 2.494813 1_555
Se1 Zn3 2.603995 1_555
Se2 Zn4 2.444880 1_554
Se2 Zn1 2.494813 1_555
Se2 Zn2 2.603995 1_455
Se3 Zn5 2.444880 1_556
Se3 Zn1 2.494813 1_545
Se3 Zn3 2.603995 1_545
Se4 Zn2 2.444880 1_545
Se4 Zn0 2.494813 1_555
Se4 Zn4 2.603995 1_655
Se5 Zn3 2.444880 1_555
Se5 Zn0 2.494813 1_555
Se5 Zn5 2.603995 1_555
Se6 Zn2 2.444880 1_556
Se6 Zn0 2.494813 1_555
Se6 Zn4 2.603995 1_655
Se7 Zn3 2.444880 1_554
Se7 Zn0 2.494813 1_565
Se7 Zn5 2.603995 1_565
