# generated using pymatgen
data_Cr3H4NO8
_symmetry_space_group_name_H-M   'P 1'
_cell_length_a   5.55269300
_cell_length_b   8.87498900
_cell_length_c   14.83997400
_cell_angle_alpha   90.00000000
_cell_angle_beta   90.00000000
_cell_angle_gamma   90.00000000
_symmetry_Int_Tables_number   1
_chemical_formula_structural   Cr3H4NO8
_chemical_formula_sum   'Cr12 H16 N4 O32'
_cell_volume   731.31524386
_cell_formula_units_Z   4
loop_
 _symmetry_equiv_pos_site_id
 _symmetry_equiv_pos_as_xyz
  1  'x, y, z'
loop_
 _atom_site_type_symbol
 _atom_site_label
 _atom_site_symmetry_multiplicity
 _atom_site_fract_x
 _atom_site_fract_y
 _atom_site_fract_z
 _atom_site_occupancy
  Cr  Cr0  1  0.25000000  0.49490900  0.65586900  1
  Cr  Cr1  1  0.25000000  0.00509100  0.15586900  1
  Cr  Cr2  1  0.75000000  0.50509100  0.34413100  1
  Cr  Cr3  1  0.75000000  0.99490900  0.84413100  1
  Cr  Cr4  1  0.25000000  0.74604800  0.83686300  1
  Cr  Cr5  1  0.25000000  0.75395200  0.33686300  1
  Cr  Cr6  1  0.75000000  0.25395200  0.16313700  1
  Cr  Cr7  1  0.75000000  0.24604800  0.66313700  1
  Cr  Cr8  1  0.25000000  0.31981700  0.43677600  1
  Cr  Cr9  1  0.25000000  0.18018300  0.93677600  1
  Cr  Cr10  1  0.75000000  0.68018300  0.56322400  1
  Cr  Cr11  1  0.75000000  0.81981700  0.06322400  1
  H  H0  1  0.09888600  0.89498700  0.63779000  1
  H  H1  1  0.40111400  0.60501300  0.13779000  1
  H  H2  1  0.59888600  0.10501300  0.36221000  1
  H  H3  1  0.90111400  0.39498700  0.86221000  1
  H  H4  1  0.90111400  0.10501300  0.36221000  1
  H  H5  1  0.59888600  0.39498700  0.86221000  1
  H  H6  1  0.40111400  0.89498700  0.63779000  1
  H  H7  1  0.09888600  0.60501300  0.13779000  1
  H  H8  1  0.25000000  0.01020100  0.56605000  1
  H  H9  1  0.25000000  0.48979900  0.06605000  1
  H  H10  1  0.75000000  0.98979900  0.43395000  1
  H  H11  1  0.75000000  0.51020100  0.93395000  1
  H  H12  1  0.25000000  0.04409500  0.67832200  1
  H  H13  1  0.25000000  0.45590500  0.17832200  1
  H  H14  1  0.75000000  0.95590500  0.32167800  1
  H  H15  1  0.75000000  0.54409500  0.82167800  1
  N  N0  1  0.25000000  0.96150500  0.62987500  1
  N  N1  1  0.25000000  0.53849500  0.12987500  1
  N  N2  1  0.75000000  0.03849500  0.37012500  1
  N  N3  1  0.75000000  0.46150500  0.87012500  1
  O  O0  1  0.25000000  0.57891100  0.78184300  1
  O  O1  1  0.25000000  0.92108900  0.28184300  1
  O  O2  1  0.75000000  0.42108900  0.21815700  1
  O  O3  1  0.75000000  0.07891100  0.71815700  1
  O  O4  1  0.25000000  0.42623500  0.52898200  1
  O  O5  1  0.25000000  0.07376500  0.02898200  1
  O  O6  1  0.75000000  0.57376500  0.47101800  1
  O  O7  1  0.75000000  0.92623500  0.97101800  1
  O  O8  1  0.00270400  0.84621600  0.80854200  1
  O  O9  1  0.49729600  0.65378400  0.30854200  1
  O  O10  1  0.50270400  0.15378400  0.19145800  1
  O  O11  1  0.99729600  0.34621600  0.69145800  1
  O  O12  1  0.99729600  0.15378400  0.19145800  1
  O  O13  1  0.50270400  0.34621600  0.69145800  1
  O  O14  1  0.49729600  0.84621600  0.80854200  1
  O  O15  1  0.00270400  0.65378400  0.30854200  1
  O  O16  1  0.25000000  0.71253900  0.94331700  1
  O  O17  1  0.25000000  0.78746100  0.44331700  1
  O  O18  1  0.75000000  0.28746100  0.05668300  1
  O  O19  1  0.75000000  0.21253900  0.55668300  1
  O  O20  1  0.00288100  0.35367100  0.37375900  1
  O  O21  1  0.49711900  0.14632900  0.87375900  1
  O  O22  1  0.50288100  0.64632900  0.62624100  1
  O  O23  1  0.99711900  0.85367100  0.12624100  1
  O  O24  1  0.99711900  0.64632900  0.62624100  1
  O  O25  1  0.50288100  0.85367100  0.12624100  1
  O  O26  1  0.49711900  0.35367100  0.37375900  1
  O  O27  1  0.00288100  0.14632900  0.87375900  1
  O  O28  1  0.25000000  0.14085800  0.46204100  1
  O  O29  1  0.25000000  0.35914200  0.96204100  1
  O  O30  1  0.75000000  0.85914200  0.53795900  1
  O  O31  1  0.75000000  0.64085800  0.03795900  1
loop_
_geom_bond_atom_site_label_1
_geom_bond_atom_site_label_2
_geom_bond_distance
_geom_bond_site_symmetry_2
Cr0 O4 1.979180 1_555
Cr0 O24 1.992724 1_455
Cr0 O22 1.992724 1_555
Cr0 O13 1.997333 1_555
Cr0 O11 1.997333 1_455
Cr0 O0 2.012621 1_555
Cr1 O5 1.979180 1_555
Cr1 O25 1.992724 1_545
Cr1 O23 1.992724 1_445
Cr1 O10 1.997333 1_555
Cr1 O12 1.997333 1_455
Cr1 O1 2.012621 1_545
Cr2 O6 1.979180 1_555
Cr2 O20 1.992724 1_655
Cr2 O26 1.992724 1_555
Cr2 O15 1.997333 1_655
Cr2 O9 1.997333 1_555
Cr2 O2 2.012621 1_555
Cr3 O7 1.979180 1_555
Cr3 O27 1.992724 1_665
Cr3 O21 1.992724 1_565
Cr3 O8 1.997333 1_655
Cr3 O14 1.997333 1_555
Cr3 O3 2.012621 1_565
Cr4 O16 1.607523 1_555
Cr4 O14 1.688936 1_555
Cr4 O8 1.688936 1_555
Cr4 O0 1.693210 1_555
Cr5 O17 1.607523 1_555
Cr5 O9 1.688936 1_555
Cr5 O15 1.688936 1_555
Cr5 O1 1.693210 1_555
Cr6 O18 1.607523 1_555
Cr6 O12 1.688936 1_555
Cr6 O10 1.688936 1_555
Cr6 O2 1.693210 1_555
Cr7 O19 1.607523 1_555
Cr7 O11 1.688936 1_555
Cr7 O13 1.688936 1_555
Cr7 O3 1.693210 1_555
Cr8 O28 1.631913 1_555
Cr8 O4 1.662631 1_555
Cr8 O26 1.687508 1_555
Cr8 O20 1.687508 1_555
Cr9 O29 1.631913 1_555
Cr9 O5 1.662631 1_556
Cr9 O27 1.687508 1_555
Cr9 O21 1.687508 1_555
Cr10 O30 1.631913 1_555
Cr10 O6 1.662631 1_555
Cr10 O22 1.687508 1_555
Cr10 O24 1.687508 1_555
Cr11 O31 1.631913 1_555
Cr11 O7 1.662631 1_554
Cr11 O23 1.687508 1_555
Cr11 O25 1.687508 1_555
H0 N0 1.032655 1_555
H1 N1 1.032655 1_555
H2 N2 1.032655 1_555
H3 N3 1.032655 1_555
H4 N2 1.032655 1_555
H5 N3 1.032655 1_555
H6 N0 1.032655 1_555
H7 N1 1.032655 1_555
H8 N0 1.041101 1_545
H9 N1 1.041101 1_555
H10 N2 1.041101 1_565
H11 N3 1.041101 1_555
H12 N0 1.026723 1_545
H13 N1 1.026723 1_555
H14 N2 1.026723 1_565
H15 N3 1.026723 1_555
