# generated using pymatgen
data_Li3GeO4
_symmetry_space_group_name_H-M   'P 1'
_cell_length_a   4.92212900
_cell_length_b   5.59554700
_cell_length_c   6.43206400
_cell_angle_alpha   90.00000000
_cell_angle_beta   90.00000000
_cell_angle_gamma   90.00000000
_symmetry_Int_Tables_number   1
_chemical_formula_structural   Li3GeO4
_chemical_formula_sum   'Li6 Ge2 O8'
_cell_volume   177.15193344
_cell_formula_units_Z   2
loop_
 _symmetry_equiv_pos_site_id
 _symmetry_equiv_pos_as_xyz
  1  'x, y, z'
loop_
 _atom_site_type_symbol
 _atom_site_label
 _atom_site_symmetry_multiplicity
 _atom_site_fract_x
 _atom_site_fract_y
 _atom_site_fract_z
 _atom_site_occupancy
  Li  Li0  1  0.48879800  0.83207500  0.74440400  1
  Li  Li1  1  0.98879800  0.16792500  0.75559600  1
  Li  Li2  1  0.98879800  0.16792500  0.24440400  1
  Li  Li3  1  0.48879800  0.83207500  0.25559600  1
  Li  Li4  1  0.48947200  0.33169400  0.00000000  1
  Li  Li5  1  0.98947200  0.66830600  0.50000000  1
  Ge  Ge0  1  0.00083200  0.66888600  0.00000000  1
  Ge  Ge1  1  0.50083200  0.33111400  0.50000000  1
  O  O0  1  0.89948400  0.82530800  0.77205900  1
  O  O1  1  0.39948400  0.17469200  0.72794100  1
  O  O2  1  0.39948400  0.17469200  0.27205900  1
  O  O3  1  0.89948400  0.82530800  0.22794100  1
  O  O4  1  0.89412900  0.36675800  0.00000000  1
  O  O5  1  0.39412900  0.63324200  0.50000000  1
  O  O6  1  0.36300400  0.67218700  0.00000000  1
  O  O7  1  0.86300400  0.32781300  0.50000000  1
loop_
_geom_bond_atom_site_label_1
_geom_bond_atom_site_label_2
_geom_bond_distance
_geom_bond_site_symmetry_2
Li0 O1 1.969736 1_565
Li0 O6 1.971437 1_556
Li0 O5 1.981469 1_555
Li0 O0 2.029614 1_555
Li1 O0 1.969736 1_545
Li1 O7 1.971437 1_555
Li1 O4 1.981469 1_556
Li1 O1 2.029614 1_655
Li2 O3 1.969736 1_545
Li2 O7 1.971437 1_555
Li2 O4 1.981469 1_555
Li2 O2 2.029614 1_655
Li3 O2 1.969736 1_565
Li3 O6 1.971437 1_555
Li3 O5 1.981469 1_555
Li3 O3 2.029614 1_555
Li4 O4 2.001414 1_555
Li4 O6 2.004358 1_555
Li4 O2 2.007517 1_555
Li4 O1 2.007517 1_554
Li5 O5 2.001414 1_655
Li5 O7 2.004358 1_555
Li5 O0 2.007517 1_555
Li5 O3 2.007517 1_555
Ge0 O4 1.770275 1_455
Ge0 O3 1.778899 1_455
Ge0 O0 1.778899 1_454
Ge0 O6 1.782753 1_555
Ge1 O5 1.770275 1_555
Ge1 O1 1.778899 1_555
Ge1 O2 1.778899 1_555
Ge1 O7 1.782753 1_555
