# generated using pymatgen
data_Rb2Ni2(SO4)3
_symmetry_space_group_name_H-M   'P 1'
_cell_length_a   10.09874400
_cell_length_b   10.09874400
_cell_length_c   10.09874400
_cell_angle_alpha   90.00000000
_cell_angle_beta   90.00000000
_cell_angle_gamma   90.00000000
_symmetry_Int_Tables_number   1
_chemical_formula_structural   Rb2Ni2(SO4)3
_chemical_formula_sum   'Rb8 Ni8 S12 O48'
_cell_volume   1029.91667412
_cell_formula_units_Z   4
loop_
 _symmetry_equiv_pos_site_id
 _symmetry_equiv_pos_as_xyz
  1  'x, y, z'
loop_
 _atom_site_type_symbol
 _atom_site_label
 _atom_site_symmetry_multiplicity
 _atom_site_fract_x
 _atom_site_fract_y
 _atom_site_fract_z
 _atom_site_occupancy
  Rb  Rb0  1  0.04786200  0.04786200  0.04786200  1
  Rb  Rb1  1  0.45213800  0.95213800  0.54786200  1
  Rb  Rb2  1  0.95213800  0.54786200  0.45213800  1
  Rb  Rb3  1  0.54786200  0.45213800  0.95213800  1
  Rb  Rb4  1  0.81665400  0.81665400  0.81665400  1
  Rb  Rb5  1  0.68334600  0.18334600  0.31665400  1
  Rb  Rb6  1  0.18334600  0.31665400  0.68334600  1
  Rb  Rb7  1  0.31665400  0.68334600  0.18334600  1
  Ni  Ni0  1  0.33518200  0.33518200  0.33518200  1
  Ni  Ni1  1  0.16481800  0.66481800  0.83518200  1
  Ni  Ni2  1  0.66481800  0.83518200  0.16481800  1
  Ni  Ni3  1  0.83518200  0.16481800  0.66481800  1
  Ni  Ni4  1  0.59708900  0.59708900  0.59708900  1
  Ni  Ni5  1  0.90291100  0.40291100  0.09708900  1
  Ni  Ni6  1  0.40291100  0.09708900  0.90291100  1
  Ni  Ni7  1  0.09708900  0.90291100  0.40291100  1
  S  S0  1  0.01877400  0.21561200  0.37582900  1
  S  S1  1  0.48122600  0.78438800  0.87582900  1
  S  S2  1  0.98122600  0.71561200  0.12417100  1
  S  S3  1  0.37582900  0.01877400  0.21561200  1
  S  S4  1  0.51877400  0.28438800  0.62417100  1
  S  S5  1  0.87582900  0.48122600  0.78438800  1
  S  S6  1  0.12417100  0.98122600  0.71561200  1
  S  S7  1  0.62417100  0.51877400  0.28438800  1
  S  S8  1  0.21561200  0.37582900  0.01877400  1
  S  S9  1  0.71561200  0.12417100  0.98122600  1
  S  S10  1  0.28438800  0.62417100  0.51877400  1
  S  S11  1  0.78438800  0.87582900  0.48122600  1
  O  O0  1  0.00989900  0.07519000  0.33021300  1
  O  O1  1  0.49010100  0.92481000  0.83021300  1
  O  O2  1  0.99010100  0.57519000  0.16978700  1
  O  O3  1  0.33021300  0.00989900  0.07519000  1
  O  O4  1  0.50989900  0.42481000  0.66978700  1
  O  O5  1  0.83021300  0.49010100  0.92481000  1
  O  O6  1  0.16978700  0.99010100  0.57519000  1
  O  O7  1  0.66978700  0.50989900  0.42481000  1
  O  O8  1  0.07519000  0.33021300  0.00989900  1
  O  O9  1  0.57519000  0.16978700  0.99010100  1
  O  O10  1  0.42481000  0.66978700  0.50989900  1
  O  O11  1  0.92481000  0.83021300  0.49010100  1
  O  O12  1  0.26518500  0.50000100  0.44142300  1
  O  O13  1  0.23481500  0.49999900  0.94142300  1
  O  O14  1  0.73481500  0.00000100  0.05857700  1
  O  O15  1  0.44142300  0.26518500  0.50000100  1
  O  O16  1  0.76518500  0.99999900  0.55857700  1
  O  O17  1  0.94142300  0.23481500  0.49999900  1
  O  O18  1  0.05857700  0.73481500  0.00000100  1
  O  O19  1  0.55857700  0.76518500  0.99999900  1
  O  O20  1  0.50000100  0.44142300  0.26518500  1
  O  O21  1  0.00000100  0.05857700  0.73481500  1
  O  O22  1  0.99999900  0.55857700  0.76518500  1
  O  O23  1  0.49999900  0.94142300  0.23481500  1
  O  O24  1  0.04169500  0.80272300  0.22587200  1
  O  O25  1  0.45830500  0.19727700  0.72587200  1
  O  O26  1  0.95830500  0.30272300  0.27412800  1
  O  O27  1  0.22587200  0.04169500  0.80272300  1
  O  O28  1  0.54169500  0.69727700  0.77412800  1
  O  O29  1  0.72587200  0.45830500  0.19727700  1
  O  O30  1  0.27412800  0.95830500  0.30272300  1
  O  O31  1  0.77412800  0.54169500  0.69727700  1
  O  O32  1  0.80272300  0.22587200  0.04169500  1
  O  O33  1  0.30272300  0.27412800  0.95830500  1
  O  O34  1  0.69727700  0.77412800  0.54169500  1
  O  O35  1  0.19727700  0.72587200  0.45830500  1
  O  O36  1  0.15819700  0.25343200  0.40207600  1
  O  O37  1  0.34180300  0.74656800  0.90207600  1
  O  O38  1  0.84180300  0.75343200  0.09792400  1
  O  O39  1  0.40207600  0.15819700  0.25343200  1
  O  O40  1  0.65819700  0.24656800  0.59792400  1
  O  O41  1  0.90207600  0.34180300  0.74656800  1
  O  O42  1  0.09792400  0.84180300  0.75343200  1
  O  O43  1  0.59792400  0.65819700  0.24656800  1
  O  O44  1  0.25343200  0.40207600  0.15819700  1
  O  O45  1  0.75343200  0.09792400  0.84180300  1
  O  O46  1  0.24656800  0.59792400  0.65819700  1
  O  O47  1  0.74656800  0.90207600  0.34180300  1
loop_
_geom_bond_atom_site_label_1
_geom_bond_atom_site_label_2
_geom_bond_distance
_geom_bond_site_symmetry_2
Ni0 O44 2.081458 1_555
Ni0 O39 2.081458 1_555
Ni0 O36 2.081458 1_555
Ni0 O15 2.102675 1_555
Ni0 O12 2.102675 1_555
Ni0 O20 2.102675 1_555
Ni1 O42 2.081458 1_555
Ni1 O46 2.081458 1_555
Ni1 O37 2.081458 1_555
Ni1 O18 2.102675 1_556
Ni1 O22 2.102675 1_455
Ni1 O13 2.102675 1_555
Ni2 O43 2.081458 1_555
Ni2 O38 2.081458 1_555
Ni2 O47 2.081458 1_555
Ni2 O14 2.102675 1_565
Ni2 O23 2.102675 1_555
Ni2 O19 2.102675 1_554
Ni3 O45 2.081458 1_555
Ni3 O40 2.081458 1_555
Ni3 O41 2.081458 1_555
Ni3 O21 2.102675 1_655
Ni3 O17 2.102675 1_555
Ni3 O16 2.102675 1_545
Ni4 O4 2.083553 1_555
Ni4 O10 2.083553 1_555
Ni4 O7 2.083553 1_555
Ni4 O34 2.129110 1_555
Ni4 O31 2.129110 1_555
Ni4 O28 2.129110 1_555
Ni5 O5 2.083553 1_554
Ni5 O2 2.083553 1_555
Ni5 O8 2.083553 1_655
Ni5 O26 2.129110 1_555
Ni5 O29 2.129110 1_555
Ni5 O32 2.129110 1_555
Ni6 O1 2.083553 1_545
Ni6 O9 2.083553 1_555
Ni6 O3 2.083553 1_556
Ni6 O33 2.129110 1_555
Ni6 O27 2.129110 1_555
Ni6 O25 2.129110 1_555
Ni7 O11 2.083553 1_455
Ni7 O6 2.083553 1_555
Ni7 O0 2.083553 1_565
Ni7 O30 2.129110 1_555
Ni7 O24 2.129110 1_555
Ni7 O35 2.129110 1_555
O0 S0 1.493724 1_555
O0 Rb0 2.890254 1_555
O0 Rb5 3.476645 1_455
O1 S1 1.493724 1_555
O1 Rb1 2.890254 1_555
O1 Rb4 3.476645 1_555
O2 S2 1.493724 1_555
O2 Rb2 2.890254 1_555
O2 Rb7 3.476645 1_655
O3 S3 1.493724 1_555
O3 Rb0 2.890254 1_555
O3 Rb7 3.476645 1_545
O4 S4 1.493724 1_555
O4 Rb3 2.890254 1_555
O4 Rb6 3.476645 1_555
O5 S5 1.493724 1_555
O5 Rb3 2.890254 1_555
O5 Rb4 3.476645 1_555
O6 S6 1.493724 1_555
O6 Rb1 2.890254 1_555
O6 Rb6 3.476645 1_565
O7 S7 1.493724 1_555
O7 Rb2 2.890254 1_555
O7 Rb5 3.476645 1_555
O8 S8 1.493724 1_555
O8 Rb0 2.890254 1_555
O8 Rb6 3.476645 1_554
O9 S9 1.493724 1_555
O9 Rb3 2.890254 1_555
O9 Rb5 3.476645 1_556
O10 S10 1.493724 1_555
O10 Rb1 2.890254 1_555
O10 Rb7 3.476645 1_555
O11 S11 1.493724 1_555
O11 Rb2 2.890254 1_555
O11 Rb4 3.476645 1_555
O12 S10 1.490040 1_555
O12 Rb6 3.174935 1_555
O12 Rb2 3.199946 1_455
O12 Rb7 3.238977 1_555
O13 S8 1.490040 1_556
O13 Rb7 3.174935 1_556
O13 Rb3 3.199946 1_555
O13 Rb6 3.238977 1_555
O14 S9 1.490040 1_554
O14 Rb4 3.174935 1_544
O14 Rb0 3.199946 1_655
O14 Rb5 3.238977 1_555
O15 S4 1.490040 1_555
O15 Rb5 3.174935 1_555
O15 Rb1 3.199946 1_545
O15 Rb6 3.238977 1_555
O16 S11 1.490040 1_555
O16 Rb5 3.174935 1_565
O16 Rb1 3.199946 1_555
O16 Rb4 3.238977 1_555
O17 S0 1.490040 1_655
O17 Rb6 3.174935 1_655
O17 Rb2 3.199946 1_555
O17 Rb5 3.238977 1_555
O18 S2 1.490040 1_455
O18 Rb4 3.174935 1_454
O18 Rb0 3.199946 1_565
O18 Rb7 3.238977 1_555
O19 S1 1.490040 1_555
O19 Rb7 3.174935 1_556
O19 Rb3 3.199946 1_555
O19 Rb4 3.238977 1_555
O20 S7 1.490040 1_555
O20 Rb7 3.174935 1_555
O20 Rb3 3.199946 1_554
O20 Rb5 3.238977 1_555
O21 S6 1.490040 1_545
O21 Rb4 3.174935 1_445
O21 Rb0 3.199946 1_556
O21 Rb6 3.238977 1_555
O22 S5 1.490040 1_555
O22 Rb6 3.174935 1_655
O22 Rb2 3.199946 1_555
O22 Rb4 3.238977 1_555
O23 S3 1.490040 1_565
O23 Rb5 3.174935 1_565
O23 Rb1 3.199946 1_555
O23 Rb7 3.238977 1_555
O24 S2 1.483791 1_455
O24 Rb7 3.057465 1_555
O24 Rb0 3.060081 1_565
O25 S4 1.483791 1_555
O25 Rb6 3.057465 1_555
O25 Rb1 3.060081 1_545
O26 S0 1.483791 1_655
O26 Rb5 3.057465 1_555
O26 Rb2 3.060081 1_555
O27 S6 1.483791 1_545
O27 Rb6 3.057465 1_555
O27 Rb0 3.060081 1_556
O28 S1 1.483791 1_555
O28 Rb4 3.057465 1_555
O28 Rb3 3.060081 1_555
O29 S7 1.483791 1_555
O29 Rb5 3.057465 1_555
O29 Rb3 3.060081 1_554
O30 S3 1.483791 1_565
O30 Rb7 3.057465 1_555
O30 Rb1 3.060081 1_555
O31 S5 1.483791 1_555
O31 Rb4 3.057465 1_555
O31 Rb2 3.060081 1_555
O32 S9 1.483791 1_554
O32 Rb5 3.057465 1_555
O32 Rb0 3.060081 1_655
O33 S8 1.483791 1_556
O33 Rb6 3.057465 1_555
O33 Rb3 3.060081 1_555
O34 S11 1.483791 1_555
O34 Rb4 3.057465 1_555
O34 Rb1 3.060081 1_555
O35 S10 1.483791 1_555
O35 Rb7 3.057465 1_555
O35 Rb2 3.060081 1_455
O36 S0 1.482764 1_555
O36 Rb6 2.922401 1_555
O37 S1 1.482764 1_555
O37 Rb7 2.922401 1_556
O38 S2 1.482764 1_555
O38 Rb4 2.922401 1_554
O39 S3 1.482764 1_555
O39 Rb5 2.922401 1_555
O40 S4 1.482764 1_555
O40 Rb5 2.922401 1_555
O41 S5 1.482764 1_555
O41 Rb6 2.922401 1_655
O42 S6 1.482764 1_555
O42 Rb4 2.922401 1_455
O43 S7 1.482764 1_555
O43 Rb7 2.922401 1_555
O44 S8 1.482764 1_555
O44 Rb7 2.922401 1_555
O45 S9 1.482764 1_555
O45 Rb4 2.922401 1_545
O46 S10 1.482764 1_555
O46 Rb6 2.922401 1_555
O47 S11 1.482764 1_555
O47 Rb5 2.922401 1_565
