# generated using pymatgen
data_Li3Y(NiO3)2
_symmetry_space_group_name_H-M   'P 1'
_cell_length_a   5.27781615
_cell_length_b   10.12237469
_cell_length_c   5.32597971
_cell_angle_alpha   95.99879810
_cell_angle_beta   60.29210108
_cell_angle_gamma   102.16191443
_symmetry_Int_Tables_number   1
_chemical_formula_structural   Li3Y(NiO3)2
_chemical_formula_sum   'Li6 Y2 Ni4 O12'
_cell_volume   241.59019724
_cell_formula_units_Z   2
loop_
 _symmetry_equiv_pos_site_id
 _symmetry_equiv_pos_as_xyz
  1  'x, y, z'
loop_
 _atom_site_type_symbol
 _atom_site_label
 _atom_site_symmetry_multiplicity
 _atom_site_fract_x
 _atom_site_fract_y
 _atom_site_fract_z
 _atom_site_occupancy
  Li  Li0  1  0.75063100  0.25013500  0.99811700  1
  Li  Li1  1  0.25140000  0.74991900  0.99767000  1
  Li  Li2  1  0.03402800  0.25034800  0.38900000  1
  Li  Li3  1  0.57752700  0.74972900  0.38879600  1
  Li  Li4  1  0.46585600  0.24956600  0.61103200  1
  Li  Li5  1  0.92270300  0.75048200  0.61151200  1
  Y  Y0  1  0.00290900  0.00007700  0.99459000  1
  Y  Y1  1  0.49686100  0.50004200  0.00589200  1
  Ni  Ni0  1  0.16450300  0.50015100  0.67053500  1
  Ni  Ni1  1  0.83228000  0.50006600  0.33508100  1
  Ni  Ni2  1  0.66751300  0.99993500  0.66533500  1
  Ni  Ni3  1  0.33529000  0.99972100  0.32963800  1
  O  O0  1  0.07130300  0.38479700  0.03156400  1
  O  O1  1  0.60352200  0.88464200  0.96834100  1
  O  O2  1  0.42854800  0.11512200  0.96866400  1
  O  O3  1  0.89671600  0.61534700  0.03167700  1
  O  O4  1  0.02043800  0.11666000  0.64755100  1
  O  O5  1  0.56784100  0.61143800  0.62538000  1
  O  O6  1  0.69303100  0.11111200  0.37554300  1
  O  O7  1  0.16760100  0.61676900  0.35287900  1
  O  O8  1  0.47913200  0.38336100  0.35285000  1
  O  O9  1  0.93163700  0.88873700  0.37527900  1
  O  O10  1  0.80653600  0.38867400  0.62522900  1
  O  O11  1  0.33219700  0.88317200  0.64784700  1
loop_
_geom_bond_atom_site_label_1
_geom_bond_atom_site_label_2
_geom_bond_distance
_geom_bond_site_symmetry_2
Li0 O2 2.005645 1_555
Li0 O0 2.007531 1_656
Li0 O4 2.233253 1_655
Li0 O8 2.244936 1_556
Li0 O10 2.413457 1_555
Li0 O6 2.432863 1_556
Li1 O1 2.006698 1_555
Li1 O3 2.008401 1_456
Li1 O11 2.228895 1_555
Li1 O7 2.245811 1_556
Li1 O5 2.410184 1_555
Li1 O9 2.431416 1_456
Li2 O10 1.956513 1_455
Li2 O4 1.995829 1_555
Li2 O6 2.066036 1_455
Li2 O0 2.360601 1_555
Li2 O8 2.375225 1_555
Li3 O5 1.955639 1_555
Li3 O11 1.995345 1_555
Li3 O9 2.063431 1_555
Li3 O3 2.356871 1_555
Li3 O7 2.378709 1_555
Li4 O6 1.955737 1_555
Li4 O8 1.995918 1_555
Li4 O10 2.065709 1_555
Li4 O2 2.361354 1_555
Li4 O4 2.375515 1_555
Li5 O9 1.955801 1_555
Li5 O7 1.995685 1_655
Li5 O5 2.065928 1_555
Li5 O1 2.354801 1_555
Li5 O11 2.376869 1_655
Ni0 O5 2.096942 1_555
Ni0 O10 2.097045 1_455
Ni0 O3 2.141960 1_456
Ni0 O0 2.143007 1_556
Ni0 O7 2.153578 1_555
Ni0 O8 2.154556 1_555
Ni1 O5 1.941427 1_555
Ni1 O10 1.941491 1_555
Ni1 O0 1.941834 1_655
Ni1 O3 1.941853 1_555
Ni1 O7 1.948979 1_655
Ni1 O8 1.949163 1_555
Ni2 O9 1.939051 1_555
Ni2 O6 1.939053 1_565
Ni2 O2 1.940734 1_565
Ni2 O1 1.941075 1_555
Ni2 O4 1.948270 1_665
Ni2 O11 1.948489 1_555
Ni3 O9 2.096462 1_455
Ni3 O6 2.097359 1_565
Ni3 O1 2.142461 1_554
Ni3 O2 2.142941 1_564
Ni3 O11 2.155624 1_555
Ni3 O4 2.156510 1_565
O0 Y1 2.247023 1_555
O1 Y0 2.246827 1_665
O2 Y0 2.246240 1_555
O3 Y1 2.247367 1_555
O4 Y0 2.248978 1_555
O5 Y1 2.250793 1_556
O6 Y0 2.250239 1_654
O7 Y1 2.248747 1_555
O8 Y1 2.248703 1_555
O9 Y0 2.250703 1_664
O10 Y1 2.250955 1_556
O11 Y0 2.249405 1_565
