# generated using pymatgen
data_GdSiPt2
_symmetry_space_group_name_H-M   'P 1'
_cell_length_a   5.57238142
_cell_length_b   6.91216665
_cell_length_c   7.37742779
_cell_angle_alpha   90.00004889
_cell_angle_beta   90.00013908
_cell_angle_gamma   90.00004651
_symmetry_Int_Tables_number   1
_chemical_formula_structural   GdSiPt2
_chemical_formula_sum   'Gd4 Si4 Pt8'
_cell_volume   284.15807571
_cell_formula_units_Z   4
loop_
 _symmetry_equiv_pos_site_id
 _symmetry_equiv_pos_as_xyz
  1  'x, y, z'
loop_
 _atom_site_type_symbol
 _atom_site_label
 _atom_site_symmetry_multiplicity
 _atom_site_fract_x
 _atom_site_fract_y
 _atom_site_fract_z
 _atom_site_occupancy
  Gd  Gd0  1  0.36162265  0.74999900  0.02690448  1
  Gd  Gd1  1  0.13837873  0.74999900  0.52690445  1
  Gd  Gd2  1  0.63837770  0.25000000  0.97309370  1
  Gd  Gd3  1  0.86162195  0.25000100  0.47309485  1
  Si  Si0  1  0.63840900  0.75000000  0.37698301  1
  Si  Si1  1  0.86159194  0.75000000  0.87698311  1
  Si  Si2  1  0.36159108  0.25000000  0.62301511  1
  Si  Si3  1  0.13840838  0.25000000  0.12301577  1
  Pt  Pt0  1  0.90879594  0.55138483  0.17900117  1
  Pt  Pt1  1  0.59120415  0.94861692  0.67899940  1
  Pt  Pt2  1  0.09120424  0.05138409  0.82099828  1
  Pt  Pt3  1  0.40879446  0.44861525  0.32100542  1
  Pt  Pt4  1  0.09120424  0.44861591  0.82099828  1
  Pt  Pt5  1  0.40879446  0.05138475  0.32100442  1
  Pt  Pt6  1  0.90879394  0.94861717  0.17899917  1
  Pt  Pt7  1  0.59120515  0.55138208  0.67899940  1
loop_
_geom_bond_atom_site_label_1
_geom_bond_atom_site_label_2
_geom_bond_distance
_geom_bond_site_symmetry_2
Gd0 Pt4 2.986294 1_554
Gd0 Pt2 2.986307 1_564
Gd0 Si1 2.997538 1_554
Gd0 Si1 2.997851 1_454
Gd0 Si0 3.008169 1_555
Gd0 Pt3 3.019357 1_555
Gd0 Pt5 3.019359 1_565
Gd0 Pt0 3.083986 1_455
Gd0 Pt6 3.084003 1_455
Gd0 Pt7 3.179484 1_554
Gd0 Pt1 3.179486 1_554
Gd1 Pt3 2.986268 1_555
Gd1 Pt5 2.986282 1_565
Gd1 Si0 2.997535 1_455
Gd1 Si0 2.997854 1_555
Gd1 Si1 3.008178 1_455
Gd1 Pt4 3.019318 1_555
Gd1 Pt2 3.019326 1_565
Gd1 Pt1 3.083981 1_555
Gd1 Pt7 3.083986 1_555
Gd1 Pt0 3.179460 1_455
Gd1 Pt6 3.179491 1_455
Gd2 Pt6 2.986287 1_546
Gd2 Pt0 2.986307 1_556
Gd2 Si3 2.997540 1_556
Gd2 Si3 2.997852 1_656
Gd2 Si2 3.008171 1_555
Gd2 Pt7 3.019315 1_555
Gd2 Pt1 3.019317 1_545
Gd2 Pt4 3.083987 1_655
Gd2 Pt2 3.083988 1_655
Gd2 Pt5 3.179516 1_556
Gd2 Pt3 3.179521 1_556
Gd3 Pt7 2.986279 1_555
Gd3 Pt1 2.986296 1_545
Gd3 Si2 2.997529 1_655
Gd3 Si2 2.997853 1_555
Gd3 Si3 3.008180 1_655
Gd3 Pt0 3.019321 1_555
Gd3 Pt6 3.019328 1_545
Gd3 Pt3 3.083967 1_555
Gd3 Pt5 3.083974 1_555
Gd3 Pt4 3.179462 1_655
Gd3 Pt2 3.179471 1_655
Pt0 Si3 2.479416 1_655
Pt0 Si0 2.507637 1_555
Pt0 Si1 2.630293 1_554
Pt1 Si2 2.479406 1_565
Pt1 Si1 2.507652 1_555
Pt1 Si0 2.630289 1_555
Pt2 Si1 2.479409 1_445
Pt2 Si2 2.507645 1_555
Pt2 Si3 2.630290 1_556
Pt3 Si0 2.479409 1_555
Pt3 Si3 2.507662 1_555
Pt3 Si2 2.630242 1_555
Pt4 Si1 2.479410 1_455
Pt4 Si2 2.507645 1_555
Pt4 Si3 2.630292 1_556
Pt5 Si0 2.479412 1_545
Pt5 Si3 2.507661 1_555
Pt5 Si2 2.630246 1_555
Pt6 Si3 2.479406 1_665
Pt6 Si0 2.507647 1_555
Pt6 Si1 2.630285 1_554
Pt7 Si2 2.479400 1_555
Pt7 Si1 2.507649 1_555
Pt7 Si0 2.630294 1_555
