# generated using pymatgen
data_BeH8(NF2)2
_symmetry_space_group_name_H-M   'P 1'
_cell_length_a   6.02407800
_cell_length_b   10.62093800
_cell_length_c   15.08398100
_cell_angle_alpha   90.00000000
_cell_angle_beta   90.00000000
_cell_angle_gamma   90.00000000
_symmetry_Int_Tables_number   1
_chemical_formula_structural   BeH8(NF2)2
_chemical_formula_sum   'Be8 H64 N16 F32'
_cell_volume   965.09360268
_cell_formula_units_Z   8
loop_
 _symmetry_equiv_pos_site_id
 _symmetry_equiv_pos_as_xyz
  1  'x, y, z'
loop_
 _atom_site_type_symbol
 _atom_site_label
 _atom_site_symmetry_multiplicity
 _atom_site_fract_x
 _atom_site_fract_y
 _atom_site_fract_z
 _atom_site_occupancy
  Be  Be0  1  0.25106800  0.07940800  0.99666100  1
  Be  Be1  1  0.74893200  0.57940800  0.00333900  1
  Be  Be2  1  0.75106800  0.57940800  0.50333900  1
  Be  Be3  1  0.24893200  0.07940800  0.49666100  1
  Be  Be4  1  0.24757300  0.41876800  0.25040200  1
  Be  Be5  1  0.75242700  0.91876800  0.74959800  1
  Be  Be6  1  0.74757300  0.91876800  0.24959800  1
  Be  Be7  1  0.25242700  0.41876800  0.75040200  1
  H  H0  1  0.22747200  0.37359400  0.03540400  1
  H  H1  1  0.77252800  0.87359400  0.96459600  1
  H  H2  1  0.72747200  0.87359400  0.46459600  1
  H  H3  1  0.27252800  0.37359400  0.53540400  1
  H  H4  1  0.21231900  0.33436600  0.92493400  1
  H  H5  1  0.78768100  0.83436600  0.07506600  1
  H  H6  1  0.71231900  0.83436600  0.57506600  1
  H  H7  1  0.28768100  0.33436600  0.42493400  1
  H  H8  1  0.40182600  0.43845500  0.96131400  1
  H  H9  1  0.59817400  0.93845500  0.03868600  1
  H  H10  1  0.90182600  0.93845500  0.53868600  1
  H  H11  1  0.09817400  0.43845500  0.46131400  1
  H  H12  1  0.13163100  0.47799300  0.95908100  1
  H  H13  1  0.86836900  0.97799300  0.04091900  1
  H  H14  1  0.63163100  0.97799300  0.54091900  1
  H  H15  1  0.36836900  0.47799300  0.45908100  1
  H  H16  1  0.26324100  0.79037200  0.11544500  1
  H  H17  1  0.73675900  0.29037200  0.88455500  1
  H  H18  1  0.76324100  0.29037200  0.38455500  1
  H  H19  1  0.23675900  0.79037200  0.61544500  1
  H  H20  1  0.28072000  0.64492500  0.16023300  1
  H  H21  1  0.71928000  0.14492500  0.83976700  1
  H  H22  1  0.78072000  0.14492500  0.33976700  1
  H  H23  1  0.21928000  0.64492500  0.66023300  1
  H  H24  1  0.37159900  0.67320800  0.05304400  1
  H  H25  1  0.62840100  0.17320800  0.94695600  1
  H  H26  1  0.87159900  0.17320800  0.44695600  1
  H  H27  1  0.12840100  0.67320800  0.55304400  1
  H  H28  1  0.09982000  0.67484800  0.07764500  1
  H  H29  1  0.90018000  0.17484800  0.92235500  1
  H  H30  1  0.59982000  0.17484800  0.42235500  1
  H  H31  1  0.40018000  0.67484800  0.57764500  1
  H  H32  1  0.23734500  0.12242400  0.28607300  1
  H  H33  1  0.76265500  0.62242400  0.71392700  1
  H  H34  1  0.73734500  0.62242400  0.21392700  1
  H  H35  1  0.26265500  0.12242400  0.78607300  1
  H  H36  1  0.22534800  0.17920900  0.17962500  1
  H  H37  1  0.77465200  0.67920900  0.82037500  1
  H  H38  1  0.72534800  0.67920900  0.32037500  1
  H  H39  1  0.27465200  0.17920900  0.67962500  1
  H  H40  1  0.41333400  0.06937600  0.20801200  1
  H  H41  1  0.58666600  0.56937600  0.79198800  1
  H  H42  1  0.91333400  0.56937600  0.29198800  1
  H  H43  1  0.08666600  0.06937600  0.70801200  1
  H  H44  1  0.14360500  0.03039600  0.20181300  1
  H  H45  1  0.85639500  0.53039600  0.79818700  1
  H  H46  1  0.64360500  0.53039600  0.29818700  1
  H  H47  1  0.35639500  0.03039600  0.70181300  1
  H  H48  1  0.26545200  0.71166400  0.36239800  1
  H  H49  1  0.73454800  0.21166400  0.63760200  1
  H  H50  1  0.76545200  0.21166400  0.13760200  1
  H  H51  1  0.23454800  0.71166400  0.86239800  1
  H  H52  1  0.27956200  0.85732700  0.40711400  1
  H  H53  1  0.72043800  0.35732700  0.59288600  1
  H  H54  1  0.77956200  0.35732700  0.09288600  1
  H  H55  1  0.22043800  0.85732700  0.90711400  1
  H  H56  1  0.35926400  0.83064300  0.29830900  1
  H  H57  1  0.64073600  0.33064300  0.70169100  1
  H  H58  1  0.85926400  0.33064300  0.20169100  1
  H  H59  1  0.14073600  0.83064300  0.79830900  1
  H  H60  1  0.08975100  0.82438400  0.32864200  1
  H  H61  1  0.91024900  0.32438400  0.67135800  1
  H  H62  1  0.58975100  0.32438400  0.17135800  1
  H  H63  1  0.41024900  0.82438400  0.82864200  1
  N  N0  1  0.24267500  0.40478900  0.97031500  1
  N  N1  1  0.75732500  0.90478900  0.02968500  1
  N  N2  1  0.74267500  0.90478900  0.52968500  1
  N  N3  1  0.25732500  0.40478900  0.47031500  1
  N  N4  1  0.25513900  0.69589700  0.10180800  1
  N  N5  1  0.74486100  0.19589700  0.89819200  1
  N  N6  1  0.75513900  0.19589700  0.39819200  1
  N  N7  1  0.24486100  0.69589700  0.60180800  1
  N  N8  1  0.25371000  0.10108800  0.21864900  1
  N  N9  1  0.74629000  0.60108800  0.78135100  1
  N  N10  1  0.75371000  0.60108800  0.28135100  1
  N  N11  1  0.24629000  0.10108800  0.71864900  1
  N  N12  1  0.25024800  0.80619500  0.34924500  1
  N  N13  1  0.74975200  0.30619500  0.65075500  1
  N  N14  1  0.75024800  0.30619500  0.15075500  1
  N  N15  1  0.24975200  0.80619500  0.84924500  1
  F  F0  1  0.24516700  0.12633600  0.89784100  1
  F  F1  1  0.75483300  0.62633600  0.10215900  1
  F  F2  1  0.74516700  0.62633600  0.60215900  1
  F  F3  1  0.25483300  0.12633600  0.39784100  1
  F  F4  1  0.24635200  0.93164600  0.00323900  1
  F  F5  1  0.75364800  0.43164600  0.99676100  1
  F  F6  1  0.74635200  0.43164600  0.49676100  1
  F  F7  1  0.25364800  0.93164600  0.50323900  1
  F  F8  1  0.47168300  0.12651700  0.03946400  1
  F  F9  1  0.52831700  0.62651700  0.96053600  1
  F  F10  1  0.97168300  0.62651700  0.46053600  1
  F  F11  1  0.02831700  0.12651700  0.53946400  1
  F  F12  1  0.03598900  0.12934600  0.04298000  1
  F  F13  1  0.96401100  0.62934600  0.95702000  1
  F  F14  1  0.53598900  0.62934600  0.45702000  1
  F  F15  1  0.46401100  0.12934600  0.54298000  1
  F  F16  1  0.25201900  0.36841300  0.15164200  1
  F  F17  1  0.74798100  0.86841300  0.84835800  1
  F  F18  1  0.75201900  0.86841300  0.34835800  1
  F  F19  1  0.24798100  0.36841300  0.65164200  1
  F  F20  1  0.25611000  0.56654100  0.25584500  1
  F  F21  1  0.74389000  0.06654100  0.74415500  1
  F  F22  1  0.75611000  0.06654100  0.24415500  1
  F  F23  1  0.24389000  0.56654100  0.75584500  1
  F  F24  1  0.02317900  0.37459200  0.29249600  1
  F  F25  1  0.97682100  0.87459200  0.70750400  1
  F  F26  1  0.52317900  0.87459200  0.20750400  1
  F  F27  1  0.47682100  0.37459200  0.79249600  1
  F  F28  1  0.45719900  0.36658200  0.29792000  1
  F  F29  1  0.54280100  0.86658200  0.70208000  1
  F  F30  1  0.95719900  0.86658200  0.20208000  1
  F  F31  1  0.04280100  0.36658200  0.79792000  1
loop_
_geom_bond_atom_site_label_1
_geom_bond_atom_site_label_2
_geom_bond_distance
_geom_bond_site_symmetry_2
Be0 F8 1.559948 1_556
Be0 F12 1.564664 1_556
Be0 F0 1.572123 1_555
Be0 F4 1.572761 1_546
Be1 F9 1.559948 1_554
Be1 F13 1.564664 1_554
Be1 F1 1.572123 1_555
Be1 F5 1.572761 1_554
Be2 F10 1.559948 1_555
Be2 F14 1.564664 1_555
Be2 F2 1.572123 1_555
Be2 F6 1.572761 1_555
Be3 F11 1.559948 1_555
Be3 F15 1.564664 1_555
Be3 F3 1.572123 1_555
Be3 F7 1.572761 1_545
Be4 F28 1.554229 1_555
Be4 F24 1.565429 1_555
Be4 F20 1.572475 1_555
Be4 F16 1.583015 1_555
Be5 F29 1.554229 1_555
Be5 F25 1.565429 1_555
Be5 F21 1.572475 1_565
Be5 F17 1.583015 1_555
Be6 F30 1.554229 1_555
Be6 F26 1.565429 1_555
Be6 F22 1.572475 1_565
Be6 F18 1.583015 1_555
Be7 F31 1.554229 1_555
Be7 F27 1.565429 1_555
Be7 F23 1.572475 1_555
Be7 F19 1.583015 1_555
H0 N0 1.040238 1_554
H1 N1 1.040238 1_556
H2 N2 1.040238 1_555
H3 N3 1.040238 1_555
H4 N0 1.030271 1_555
H5 N1 1.030271 1_555
H6 N2 1.030271 1_555
H7 N3 1.030271 1_555
H8 N0 1.032214 1_555
H9 N1 1.032214 1_555
H10 N2 1.032214 1_555
H11 N3 1.032214 1_555
H12 N0 1.039563 1_555
H13 N1 1.039563 1_555
H14 N2 1.039563 1_555
H15 N3 1.039563 1_555
H16 N4 1.025443 1_555
H17 N5 1.025443 1_555
H18 N6 1.025443 1_555
H19 N7 1.025443 1_555
H20 N4 1.045699 1_555
H21 N5 1.045699 1_555
H22 N6 1.045699 1_555
H23 N7 1.045699 1_555
H24 N4 1.044655 1_555
H25 N5 1.044655 1_555
H26 N6 1.044655 1_555
H27 N7 1.044655 1_555
H28 N4 1.028722 1_555
H29 N5 1.028722 1_555
H30 N6 1.028722 1_555
H31 N7 1.028722 1_555
H32 N8 1.046616 1_555
H33 N9 1.046616 1_555
H34 N10 1.046616 1_555
H35 N11 1.046616 1_555
H36 N8 1.031561 1_555
H37 N9 1.031561 1_555
H38 N10 1.031561 1_555
H39 N11 1.031561 1_555
H40 N8 1.031424 1_555
H41 N9 1.031424 1_555
H42 N10 1.031424 1_555
H43 N11 1.031424 1_555
H44 N8 1.033517 1_555
H45 N9 1.033517 1_555
H46 N10 1.033517 1_555
H47 N11 1.033517 1_555
H48 N12 1.027513 1_555
H49 N13 1.027513 1_555
H50 N14 1.027513 1_555
H51 N15 1.027513 1_555
H52 N12 1.043098 1_555
H53 N13 1.043098 1_555
H54 N14 1.043098 1_555
H55 N15 1.043098 1_555
H56 N12 1.043560 1_555
H57 N13 1.043560 1_555
H58 N14 1.043560 1_555
H59 N15 1.043560 1_555
H60 N12 1.033776 1_555
H61 N13 1.033776 1_555
H62 N14 1.033776 1_555
H63 N15 1.033776 1_555
