# generated using pymatgen
data_Zn(CoO2)2
_symmetry_space_group_name_H-M   'P 1'
_cell_length_a   5.86809612
_cell_length_b   5.86809612
_cell_length_c   19.33851354
_cell_angle_alpha   81.07211674
_cell_angle_beta   81.07211674
_cell_angle_gamma   59.43003511
_symmetry_Int_Tables_number   1
_chemical_formula_structural   Zn(CoO2)2
_chemical_formula_sum   'Zn8 Co16 O32'
_cell_volume   564.12919703
_cell_formula_units_Z   8
loop_
 _symmetry_equiv_pos_site_id
 _symmetry_equiv_pos_as_xyz
  1  'x, y, z'
loop_
 _atom_site_type_symbol
 _atom_site_label
 _atom_site_symmetry_multiplicity
 _atom_site_fract_x
 _atom_site_fract_y
 _atom_site_fract_z
 _atom_site_occupancy
  Zn  Zn0  1  0.84872800  0.84872800  0.97006300  1
  Zn  Zn1  1  0.37440800  0.37440800  0.87458700  1
  Zn  Zn2  1  0.59953500  0.59953500  0.71866900  1
  Zn  Zn3  1  0.12431200  0.12431200  0.62535600  1
  Zn  Zn4  1  0.87476700  0.87476700  0.37519500  1
  Zn  Zn5  1  0.99905900  0.99905900  0.50093100  1
  Zn  Zn6  1  0.62454400  0.62454400  0.12446400  1
  Zn  Zn7  1  0.75030400  0.75030400  0.24931000  1
  Co  Co0  1  0.37562300  0.87444400  0.87484800  1
  Co  Co1  1  0.25005500  0.25005500  0.75011800  1
  Co  Co2  1  0.87444400  0.37562300  0.87484800  1
  Co  Co3  1  0.34779700  0.34779700  0.46725800  1
  Co  Co4  1  0.12613800  0.62114000  0.62616900  1
  Co  Co5  1  0.90293300  0.90293300  0.78121900  1
  Co  Co6  1  0.09750700  0.09750700  0.21748000  1
  Co  Co7  1  0.62114000  0.12613800  0.62616900  1
  Co  Co8  1  0.87495800  0.37504400  0.37517800  1
  Co  Co9  1  0.65196400  0.65196400  0.53348400  1
  Co  Co10  1  0.37504400  0.87495800  0.37517800  1
  Co  Co11  1  0.12882500  0.62374500  0.12396900  1
  Co  Co12  1  0.62374500  0.12882500  0.12396900  1
  Co  Co13  1  0.40201700  0.40201700  0.28244400  1
  Co  Co14  1  0.50046900  0.50046900  0.99921800  1
  Co  Co15  1  0.15255500  0.15255500  0.03059700  1
  O  O0  1  0.68327500  0.22722600  0.93601800  1
  O  O1  1  0.56871000  0.56871000  0.82223000  1
  O  O2  1  0.22722600  0.68327500  0.93601800  1
  O  O3  1  0.67175300  0.67175300  0.93431900  1
  O  O4  1  0.07827300  0.07827300  0.81528500  1
  O  O5  1  0.43029800  0.97911400  0.68648600  1
  O  O6  1  0.52674900  0.06319200  0.81289800  1
  O  O7  1  0.32143100  0.32143100  0.56740400  1
  O  O8  1  0.97911400  0.43029800  0.68648600  1
  O  O9  1  0.17976000  0.17976000  0.92821900  1
  O  O10  1  0.42052300  0.42052300  0.68472300  1
  O  O11  1  0.06319200  0.52674900  0.81289800  1
  O  O12  1  0.19671200  0.70691000  0.43295900  1
  O  O13  1  0.81434100  0.81434100  0.57065800  1
  O  O14  1  0.29484300  0.80186100  0.56814100  1
  O  O15  1  0.07125900  0.07125900  0.31853100  1
  O  O16  1  0.70691000  0.19671200  0.43295900  1
  O  O17  1  0.92822000  0.92822000  0.67907100  1
  O  O18  1  0.18325500  0.18325500  0.43065200  1
  O  O19  1  0.80186100  0.29484300  0.56814100  1
  O  O20  1  0.56651400  0.56651400  0.31959600  1
  O  O21  1  0.94998100  0.45415500  0.18239600  1
  O  O22  1  0.04358800  0.55338300  0.31719900  1
  O  O23  1  0.81834300  0.81834300  0.07301100  1
  O  O24  1  0.45415500  0.94998100  0.18239600  1
  O  O25  1  0.67865500  0.67865500  0.43202700  1
  O  O26  1  0.93558400  0.93558400  0.17992900  1
  O  O27  1  0.55338300  0.04358800  0.31719900  1
  O  O28  1  0.32922800  0.32922800  0.06483300  1
  O  O29  1  0.77530000  0.31528700  0.06238800  1
  O  O30  1  0.43079200  0.43079200  0.18182400  1
  O  O31  1  0.31528700  0.77530000  0.06238800  1
loop_
_geom_bond_atom_site_label_1
_geom_bond_atom_site_label_2
_geom_bond_distance
_geom_bond_site_symmetry_2
Co0 O2 1.917842 1_555
Co0 O1 1.918072 1_555
Co0 O6 1.925088 1_565
Co0 O9 1.925449 1_565
Co0 O3 1.962246 1_555
Co0 O4 1.968585 1_565
Co1 O5 1.911418 1_545
Co1 O8 1.911418 1_455
Co1 O11 1.923615 1_555
Co1 O6 1.923615 1_555
Co1 O10 1.957843 1_555
Co1 O4 1.966074 1_555
Co2 O0 1.917842 1_555
Co2 O1 1.918072 1_555
Co2 O11 1.925088 1_655
Co2 O9 1.925449 1_655
Co2 O3 1.962246 1_555
Co2 O4 1.968585 1_655
Co3 O12 1.874839 1_555
Co3 O16 1.874839 1_555
Co3 O7 1.907073 1_555
Co3 O18 1.933469 1_555
Co4 O8 1.903689 1_455
Co4 O17 1.928010 1_455
Co4 O14 1.928128 1_555
Co4 O10 1.943471 1_555
Co4 O7 1.965677 1_555
Co4 O13 1.976686 1_455
Co5 O6 1.944255 1_565
Co5 O11 1.944255 1_655
Co5 O17 1.945930 1_555
Co5 O4 2.012198 1_665
Co6 O21 1.867736 1_455
Co6 O24 1.867736 1_545
Co6 O26 1.918255 1_445
Co6 O15 1.924458 1_555
Co7 O5 1.903689 1_545
Co7 O17 1.928010 1_545
Co7 O19 1.928128 1_555
Co7 O10 1.943471 1_555
Co7 O7 1.965677 1_555
Co7 O13 1.976686 1_545
Co8 O16 1.913333 1_555
Co8 O22 1.917370 1_655
Co8 O15 1.957164 1_655
Co8 O25 1.958836 1_555
Co8 O18 1.961377 1_655
Co8 O20 1.963214 1_555
Co9 O19 1.867236 1_555
Co9 O14 1.867236 1_555
Co9 O13 1.918685 1_555
Co9 O25 1.932047 1_555
Co10 O12 1.913333 1_555
Co10 O27 1.917370 1_565
Co10 O15 1.957164 1_565
Co10 O25 1.958836 1_555
Co10 O18 1.961377 1_565
Co10 O20 1.963214 1_555
Co11 O31 1.913897 1_555
Co11 O23 1.919974 1_455
Co11 O21 1.927099 1_455
Co11 O28 1.950985 1_555
Co11 O30 1.963421 1_555
Co11 O26 1.982070 1_455
Co12 O29 1.913897 1_555
Co12 O23 1.919974 1_545
Co12 O24 1.927099 1_545
Co12 O28 1.950985 1_555
Co12 O30 1.963421 1_555
Co12 O26 1.982070 1_545
Co13 O22 1.873701 1_555
Co13 O27 1.873701 1_555
Co13 O30 1.915297 1_555
Co13 O20 1.938565 1_555
Co14 O0 1.914989 1_555
Co14 O2 1.914989 1_555
Co14 O31 1.921185 1_556
Co14 O29 1.921185 1_556
Co14 O3 1.959637 1_555
Co14 O28 1.966000 1_556
Co15 O31 1.949386 1_545
Co15 O29 1.949386 1_455
Co15 O9 1.949475 1_554
Co15 O28 2.026660 1_555
O0 Zn0 1.964760 1_545
O0 Zn1 2.049349 1_555
O1 Zn2 1.970967 1_555
O1 Zn1 2.056919 1_555
O2 Zn0 1.964760 1_455
O2 Zn1 2.049349 1_555
O3 Zn0 2.043879 1_555
O5 Zn2 1.961239 1_555
O5 Zn3 2.034092 1_565
O6 Zn1 2.059634 1_555
O7 Zn3 2.118539 1_555
O8 Zn2 1.961239 1_555
O8 Zn3 2.034092 1_655
O9 Zn1 2.068013 1_555
O10 Zn2 2.046552 1_555
O11 Zn1 2.059634 1_555
O12 Zn4 2.051300 1_455
O12 Zn5 2.053242 1_455
O13 Zn5 2.110899 1_555
O14 Zn3 2.045993 1_565
O14 Zn5 2.057031 1_455
O15 Zn4 2.104221 1_445
O16 Zn4 2.051300 1_545
O16 Zn5 2.053242 1_545
O17 Zn3 2.081353 1_665
O18 Zn5 2.111917 1_445
O19 Zn3 2.045993 1_655
O19 Zn5 2.057031 1_545
O20 Zn7 2.108781 1_555
O21 Zn7 2.055141 1_555
O21 Zn6 2.067828 1_555
O22 Zn4 2.051149 1_455
O22 Zn7 2.056300 1_455
O23 Zn0 1.959361 1_554
O23 Zn6 2.046885 1_555
O24 Zn7 2.055141 1_555
O24 Zn6 2.067828 1_555
O25 Zn4 2.102040 1_555
O26 Zn7 2.112168 1_555
O27 Zn4 2.051149 1_545
O27 Zn7 2.056300 1_545
O29 Zn6 2.056837 1_555
O30 Zn6 2.085130 1_555
O31 Zn6 2.056837 1_555
