# generated using pymatgen
data_Mn2FeReO6
_symmetry_space_group_name_H-M   'P 1'
_cell_length_a   5.30349544
_cell_length_b   5.42740158
_cell_length_c   7.86561240
_cell_angle_alpha   90.12913042
_cell_angle_beta   89.94815445
_cell_angle_gamma   90.09328954
_symmetry_Int_Tables_number   1
_chemical_formula_structural   Mn2FeReO6
_chemical_formula_sum   'Mn4 Fe2 Re2 O12'
_cell_volume   226.40438935
_cell_formula_units_Z   2
loop_
 _symmetry_equiv_pos_site_id
 _symmetry_equiv_pos_as_xyz
  1  'x, y, z'
loop_
 _atom_site_type_symbol
 _atom_site_label
 _atom_site_symmetry_multiplicity
 _atom_site_fract_x
 _atom_site_fract_y
 _atom_site_fract_z
 _atom_site_occupancy
  Mn  Mn0  1  0.00916000  0.04977300  0.76153800  1
  Mn  Mn1  1  0.51078300  0.45097200  0.25612900  1
  Mn  Mn2  1  0.99078200  0.95047500  0.23843700  1
  Mn  Mn3  1  0.48942700  0.54890200  0.74378200  1
  Fe  Fe0  1  0.00014700  0.49987400  0.99995000  1
  Fe  Fe1  1  0.49986100  0.99999800  0.49985100  1
  Re  Re0  1  0.99995000  0.50006700  0.49993000  1
  Re  Re1  1  0.50004000  0.99990100  0.99999500  1
  O  O0  1  0.16525400  0.79421700  0.57904000  1
  O  O1  1  0.66961200  0.70827500  0.07920700  1
  O  O2  1  0.83462800  0.20575100  0.42099900  1
  O  O3  1  0.33063400  0.29186800  0.92094700  1
  O  O4  1  0.19180300  0.81528900  0.94561400  1
  O  O5  1  0.69309800  0.68232300  0.44450200  1
  O  O6  1  0.80819500  0.18479600  0.05443100  1
  O  O7  1  0.30666000  0.31754300  0.55559500  1
  O  O8  1  0.62347500  0.92880700  0.77012300  1
  O  O9  1  0.12609700  0.56975900  0.27124300  1
  O  O10  1  0.37653400  0.07119600  0.22989600  1
  O  O11  1  0.87386000  0.43021600  0.72879200  1
loop_
_geom_bond_atom_site_label_1
_geom_bond_atom_site_label_2
_geom_bond_distance
_geom_bond_site_symmetry_2
Mn0 O8 2.148291 1_445
Mn0 O0 2.159228 1_545
Mn0 O4 2.160804 1_545
Mn0 O11 2.202785 1_455
Mn0 O3 2.488885 1_555
Mn0 O6 2.640247 1_456
Mn0 O7 2.687746 1_555
Mn1 O9 2.143738 1_555
Mn1 O1 2.144548 1_555
Mn1 O5 2.167285 1_555
Mn1 O10 2.188974 1_555
Mn1 O2 2.534191 1_555
Mn1 O6 2.661657 1_555
Mn1 O7 2.691690 1_555
Mn2 O10 2.148214 1_665
Mn2 O2 2.158709 1_565
Mn2 O6 2.159777 1_565
Mn2 O9 2.204258 1_655
Mn2 O1 2.487373 1_555
Mn2 O4 2.640131 1_654
Mn2 O5 2.690019 1_555
Mn3 O11 2.142242 1_555
Mn3 O3 2.144765 1_555
Mn3 O7 2.167382 1_555
Mn3 O8 2.189366 1_555
Mn3 O0 2.535125 1_555
Mn3 O4 2.663571 1_555
Mn3 O5 2.689437 1_555
Fe0 O6 2.034975 1_456
Fe0 O4 2.035489 1_555
Fe0 O3 2.175782 1_555
Fe0 O1 2.177669 1_456
Fe0 O11 2.266843 1_455
Fe0 O9 2.267516 1_556
Fe1 O7 2.052785 1_565
Fe1 O5 2.052820 1_555
Fe1 O2 2.185988 1_565
Fe1 O0 2.186132 1_555
Fe1 O10 2.256727 1_565
Fe1 O8 2.259512 1_555
O0 Re0 1.922614 1_455
O1 Re1 1.926716 1_554
O2 Re0 1.922952 1_555
O3 Re1 1.927409 1_545
O4 Re1 1.962969 1_555
O5 Re0 1.955865 1_555
O6 Re1 1.963483 1_544
O7 Re0 1.956396 1_455
O8 Re1 1.960137 1_555
O9 Re0 1.956086 1_455
O10 Re1 1.960686 1_544
O11 Re0 1.957417 1_555
