# generated using pymatgen
data_Sm3GaNiS7
_symmetry_space_group_name_H-M   'P 1'
_cell_length_a   9.74866924
_cell_length_b   9.74866924
_cell_length_c   6.18648300
_cell_angle_alpha   90.00000000
_cell_angle_beta   90.00000000
_cell_angle_gamma   119.99999487
_symmetry_Int_Tables_number   1
_chemical_formula_structural   Sm3GaNiS7
_chemical_formula_sum   'Sm6 Ga2 Ni2 S14'
_cell_volume   509.17274596
_cell_formula_units_Z   2
loop_
 _symmetry_equiv_pos_site_id
 _symmetry_equiv_pos_as_xyz
  1  'x, y, z'
loop_
 _atom_site_type_symbol
 _atom_site_label
 _atom_site_symmetry_multiplicity
 _atom_site_fract_x
 _atom_site_fract_y
 _atom_site_fract_z
 _atom_site_occupancy
  Sm  Sm0  1  0.15452400  0.37421300  0.32147900  1
  Sm  Sm1  1  0.21968800  0.84547600  0.32147900  1
  Sm  Sm2  1  0.62578700  0.78031200  0.32147900  1
  Sm  Sm3  1  0.84547600  0.62578700  0.82147900  1
  Sm  Sm4  1  0.78031200  0.15452400  0.82147900  1
  Sm  Sm5  1  0.37421300  0.21968800  0.82147900  1
  Ga  Ga0  1  0.66666700  0.33333300  0.39511000  1
  Ga  Ga1  1  0.33333300  0.66666700  0.89511000  1
  Ni  Ni0  1  0.00000000  0.00000000  0.00592300  1
  Ni  Ni1  1  0.00000000  0.00000000  0.50592300  1
  S  S0  1  0.43250900  0.52052800  0.04853300  1
  S  S1  1  0.08801800  0.56749100  0.04853300  1
  S  S2  1  0.47947200  0.91198200  0.04853300  1
  S  S3  1  0.56749100  0.47947200  0.54853300  1
  S  S4  1  0.91198200  0.43250900  0.54853300  1
  S  S5  1  0.52052800  0.08801800  0.54853300  1
  S  S6  1  0.66666700  0.33333300  0.03042800  1
  S  S7  1  0.33333300  0.66666700  0.53042800  1
  S  S8  1  0.86841900  0.09664700  0.24094700  1
  S  S9  1  0.22822800  0.13158100  0.24094700  1
  S  S10  1  0.90335300  0.77177200  0.24094700  1
  S  S11  1  0.13158100  0.90335300  0.74094700  1
  S  S12  1  0.77177200  0.86841900  0.74094700  1
  S  S13  1  0.09664700  0.22822800  0.74094700  1
loop_
_geom_bond_atom_site_label_1
_geom_bond_atom_site_label_2
_geom_bond_distance
_geom_bond_site_symmetry_2
Ga0 S6 2.256099 1_555
Ga0 S3 2.289699 1_555
Ga0 S4 2.289699 1_555
Ga0 S5 2.289699 1_555
Ga1 S7 2.256099 1_555
Ga1 S0 2.289699 1_556
Ga1 S1 2.289699 1_556
Ga1 S2 2.289699 1_556
Ni0 S8 2.419861 1_455
Ni0 S10 2.419861 1_445
Ni0 S9 2.419861 1_555
Ni0 S11 2.535527 1_544
Ni0 S13 2.535527 1_554
Ni0 S12 2.535527 1_444
Ni1 S11 2.419861 1_545
Ni1 S13 2.419861 1_555
Ni1 S12 2.419861 1_445
Ni1 S8 2.535527 1_455
Ni1 S10 2.535527 1_445
Ni1 S9 2.535527 1_555
S0 Sm2 2.836102 1_555
S0 Sm0 2.892126 1_555
S0 Sm5 3.038188 1_554
S1 Sm0 2.836102 1_555
S1 Sm1 2.892126 1_555
S1 Sm3 3.038171 1_454
S2 Sm1 2.836102 1_555
S2 Sm2 2.892126 1_555
S2 Sm4 3.038182 1_564
S3 Sm5 2.836102 1_555
S3 Sm3 2.892126 1_555
S3 Sm2 3.038188 1_555
S4 Sm3 2.836102 1_555
S4 Sm4 2.892126 1_555
S4 Sm0 3.038171 1_655
S5 Sm4 2.836102 1_555
S5 Sm5 2.892126 1_555
S5 Sm1 3.038182 1_545
S6 Sm4 2.805025 1_554
S6 Sm5 2.805026 1_554
S6 Sm3 2.805026 1_554
S7 Sm1 2.805025 1_555
S7 Sm2 2.805026 1_555
S7 Sm0 2.805026 1_555
S8 Sm0 2.793257 1_655
S8 Sm2 2.838803 1_545
S8 Sm4 2.876616 1_554
S9 Sm1 2.793252 1_545
S9 Sm0 2.838810 1_555
S9 Sm5 2.876619 1_554
S10 Sm2 2.793262 1_555
S10 Sm1 2.838801 1_655
S10 Sm3 2.876620 1_554
S11 Sm3 2.793257 1_455
S11 Sm5 2.838803 1_565
S11 Sm1 2.876616 1_555
S12 Sm4 2.793252 1_565
S12 Sm3 2.838810 1_555
S12 Sm2 2.876619 1_555
S13 Sm5 2.793262 1_555
S13 Sm4 2.838801 1_455
S13 Sm0 2.876620 1_555
