# generated using pymatgen
data_Cs3GeF7
_symmetry_space_group_name_H-M   'P 1'
_cell_length_a   8.34146668
_cell_length_b   8.34146668
_cell_length_c   6.25080426
_cell_angle_alpha   90.00000000
_cell_angle_beta   90.00000000
_cell_angle_gamma   90.00000000
_symmetry_Int_Tables_number   1
_chemical_formula_structural   Cs3GeF7
_chemical_formula_sum   'Cs6 Ge2 F14'
_cell_volume   434.93137530
_cell_formula_units_Z   2
loop_
 _symmetry_equiv_pos_site_id
 _symmetry_equiv_pos_as_xyz
  1  'x, y, z'
loop_
 _atom_site_type_symbol
 _atom_site_label
 _atom_site_symmetry_multiplicity
 _atom_site_fract_x
 _atom_site_fract_y
 _atom_site_fract_z
 _atom_site_occupancy
  Cs  Cs0  1  0.19251542  0.69251542  0.50000000  1
  Cs  Cs1  1  0.69251542  0.80748458  0.50000000  1
  Cs  Cs2  1  0.30748458  0.19251542  0.50000000  1
  Cs  Cs3  1  0.80748458  0.30748458  0.50000000  1
  Cs  Cs4  1  0.50000000  0.50000000  0.00000000  1
  Cs  Cs5  1  0.00000000  0.00000000  0.00000000  1
  Ge  Ge0  1  0.00000000  0.50000000  0.00000000  1
  Ge  Ge1  1  0.50000000  0.00000000  0.00000000  1
  F  F0  1  0.50000000  0.50000000  0.50000000  1
  F  F1  1  0.00000000  0.00000000  0.50000000  1
  F  F2  1  0.39194854  0.89194854  0.79349653  1
  F  F3  1  0.60805146  0.10805146  0.79349653  1
  F  F4  1  0.10805146  0.39194854  0.79349653  1
  F  F5  1  0.89194854  0.60805146  0.79349653  1
  F  F6  1  0.39194854  0.89194854  0.20650347  1
  F  F7  1  0.89194854  0.60805146  0.20650347  1
  F  F8  1  0.84670783  0.34670783  0.00000000  1
  F  F9  1  0.34670783  0.15329217  0.00000000  1
  F  F10  1  0.65329217  0.84670783  0.00000000  1
  F  F11  1  0.15329217  0.65329217  0.00000000  1
  F  F12  1  0.60805146  0.10805146  0.20650347  1
  F  F13  1  0.10805146  0.39194854  0.20650347  1
loop_
_geom_bond_atom_site_label_1
_geom_bond_atom_site_label_2
_geom_bond_distance
_geom_bond_site_symmetry_2
Cs0 F2 2.983390 1_555
Cs0 F6 2.983390 1_555
Cs0 F0 3.026113 1_555
Cs0 F1 3.026113 1_565
Cs0 F11 3.159467 1_555
Cs0 F11 3.159467 1_556
Cs0 F13 3.185594 1_555
Cs0 F7 3.185594 1_455
Cs0 F4 3.185594 1_555
Cs0 F5 3.185594 1_455
Cs1 F7 2.983390 1_555
Cs1 F5 2.983390 1_555
Cs1 F0 3.026113 1_555
Cs1 F1 3.026113 1_665
Cs1 F10 3.159467 1_556
Cs1 F10 3.159467 1_555
Cs1 F6 3.185594 1_555
Cs1 F3 3.185594 1_565
Cs1 F12 3.185594 1_565
Cs1 F2 3.185594 1_555
Cs2 F4 2.983390 1_555
Cs2 F13 2.983390 1_555
Cs2 F0 3.026113 1_555
Cs2 F1 3.026113 1_555
Cs2 F9 3.159467 1_556
Cs2 F9 3.159467 1_555
Cs2 F12 3.185594 1_555
Cs2 F2 3.185594 1_545
Cs2 F3 3.185594 1_555
Cs2 F6 3.185594 1_545
Cs3 F3 2.983390 1_555
Cs3 F12 2.983390 1_555
Cs3 F0 3.026113 1_555
Cs3 F1 3.026113 1_655
Cs3 F8 3.159467 1_556
Cs3 F8 3.159467 1_555
Cs3 F5 3.185594 1_555
Cs3 F7 3.185594 1_555
Cs3 F4 3.185594 1_655
Cs3 F13 3.185594 1_655
Cs4 F0 3.125402 1_554
Cs4 F0 3.125402 1_555
Cs4 F11 3.162118 1_555
Cs4 F10 3.162118 1_555
Cs4 F8 3.162118 1_555
Cs4 F9 3.162118 1_555
Cs5 F1 3.125402 1_554
Cs5 F1 3.125402 1_555
Cs5 F8 3.162118 1_455
Cs5 F10 3.162118 1_445
Cs5 F9 3.162118 1_555
Cs5 F11 3.162118 1_545
F2 Ge1 1.814086 1_566
F3 Ge1 1.814086 1_556
F4 Ge0 1.814086 1_556
F5 Ge0 1.814086 1_656
F6 Ge1 1.814086 1_565
F7 Ge0 1.814086 1_655
F8 Ge0 1.808329 1_655
F9 Ge1 1.808329 1_555
F10 Ge1 1.808329 1_565
F11 Ge0 1.808329 1_555
F12 Ge1 1.814086 1_555
F13 Ge0 1.814086 1_555
