# generated using pymatgen
data_Ga2Ni5Te4
_symmetry_space_group_name_H-M   'P 1'
_cell_length_a   3.86611405
_cell_length_b   3.86611405
_cell_length_c   15.49480000
_cell_angle_alpha   90.00000000
_cell_angle_beta   90.00000000
_cell_angle_gamma   120.00000092
_symmetry_Int_Tables_number   1
_chemical_formula_structural   Ga2Ni5Te4
_chemical_formula_sum   'Ga2 Ni5 Te4'
_cell_volume   200.56997783
_cell_formula_units_Z   1
loop_
 _symmetry_equiv_pos_site_id
 _symmetry_equiv_pos_as_xyz
  1  'x, y, z'
loop_
 _atom_site_type_symbol
 _atom_site_label
 _atom_site_symmetry_multiplicity
 _atom_site_fract_x
 _atom_site_fract_y
 _atom_site_fract_z
 _atom_site_occupancy
  Ga  Ga0  1  0.33333300  0.66666700  0.74496600  1
  Ga  Ga1  1  0.66666700  0.33333300  0.25503400  1
  Ni  Ni0  1  0.00000000  0.00000000  0.83159700  1
  Ni  Ni1  1  0.00000000  0.00000000  0.16840300  1
  Ni  Ni2  1  0.00000000  0.00000000  0.32821500  1
  Ni  Ni3  1  0.00000000  0.00000000  0.67178500  1
  Ni  Ni4  1  0.00000000  0.00000000  0.00000000  1
  Te  Te0  1  0.66666700  0.33333300  0.90843400  1
  Te  Te1  1  0.33333300  0.66666700  0.09156600  1
  Te  Te2  1  0.33333300  0.66666700  0.40588600  1
  Te  Te3  1  0.66666700  0.33333300  0.59411400  1
loop_
_geom_bond_atom_site_label_1
_geom_bond_atom_site_label_2
_geom_bond_distance
_geom_bond_site_symmetry_2
Ga0 Ni3 2.503608 1_565
Ga0 Ni3 2.503611 1_665
Ga0 Ni3 2.503611 1_555
Ga0 Ni0 2.604634 1_565
Ga0 Ni0 2.604637 1_665
Ga0 Ni0 2.604637 1_555
Ga1 Ni2 2.503608 1_655
Ga1 Ni2 2.503611 1_555
Ga1 Ni2 2.503611 1_665
Ga1 Ni1 2.604634 1_655
Ga1 Ni1 2.604637 1_665
Ga1 Ni1 2.604637 1_555
Ni0 Ni3 2.476255 1_555
Ni0 Te0 2.529770 1_455
Ni0 Te0 2.529773 1_445
Ni0 Te0 2.529773 1_555
Ni0 Ni4 2.609371 1_556
Ni1 Ni2 2.476255 1_555
Ni1 Te1 2.529770 1_545
Ni1 Te1 2.529773 1_445
Ni1 Te1 2.529773 1_555
Ni1 Ni4 2.609371 1_555
Ni2 Te2 2.535877 1_545
Ni2 Te2 2.535880 1_445
Ni2 Te2 2.535880 1_555
Ni3 Te3 2.535877 1_455
Ni3 Te3 2.535880 1_555
Ni3 Te3 2.535880 1_445
Ni4 Te1 2.644854 1_545
Ni4 Te0 2.644854 1_454
Ni4 Te0 2.644857 1_554
Ni4 Te1 2.644857 1_445
Ni4 Te1 2.644857 1_555
Ni4 Te0 2.644857 1_444
