# generated using pymatgen
data_La2(N4O9)3
_symmetry_space_group_name_H-M   'P 1'
_cell_length_a   13.62861047
_cell_length_b   13.62861047
_cell_length_c   13.62861047
_cell_angle_alpha   90.00000000
_cell_angle_beta   90.00000000
_cell_angle_gamma   90.00000000
_symmetry_Int_Tables_number   1
_chemical_formula_structural   La2(N4O9)3
_chemical_formula_sum   'La8 N48 O108'
_cell_volume   2531.36479822
_cell_formula_units_Z   4
loop_
 _symmetry_equiv_pos_site_id
 _symmetry_equiv_pos_as_xyz
  1  'x, y, z'
loop_
 _atom_site_type_symbol
 _atom_site_label
 _atom_site_symmetry_multiplicity
 _atom_site_fract_x
 _atom_site_fract_y
 _atom_site_fract_z
 _atom_site_occupancy
  La  La0  1  0.05277559  0.05277559  0.05277559  1
  La  La1  1  0.44722441  0.94722441  0.55277559  1
  La  La2  1  0.94722441  0.55277559  0.44722441  1
  La  La3  1  0.80277559  0.30277559  0.19722441  1
  La  La4  1  0.55277559  0.44722441  0.94722441  1
  La  La5  1  0.69722441  0.69722441  0.69722441  1
  La  La6  1  0.30277559  0.19722441  0.80277559  1
  La  La7  1  0.19722441  0.80277559  0.30277559  1
  N  N0  1  0.10420195  0.40940132  0.36223673  1
  N  N1  1  0.39579805  0.59059868  0.86223673  1
  N  N2  1  0.89579805  0.90940132  0.13776327  1
  N  N3  1  0.36223673  0.10420195  0.40940132  1
  N  N4  1  0.15940132  0.35420195  0.88776327  1
  N  N5  1  0.60420195  0.09059868  0.63776327  1
  N  N6  1  0.86223673  0.39579805  0.59059868  1
  N  N7  1  0.34059868  0.64579805  0.38776327  1
  N  N8  1  0.13776327  0.89579805  0.90940132  1
  N  N9  1  0.65940132  0.14579805  0.11223673  1
  N  N10  1  0.63776327  0.60420195  0.09059868  1
  N  N11  1  0.84059868  0.85420195  0.61223673  1
  N  N12  1  0.40940132  0.36223673  0.10420195  1
  N  N13  1  0.85420195  0.61223673  0.84059868  1
  N  N14  1  0.90940132  0.13776327  0.89579805  1
  N  N15  1  0.64579805  0.38776327  0.34059868  1
  N  N16  1  0.09059868  0.63776327  0.60420195  1
  N  N17  1  0.35420195  0.88776327  0.15940132  1
  N  N18  1  0.59059868  0.86223673  0.39579805  1
  N  N19  1  0.14579805  0.11223673  0.65940132  1
  N  N20  1  0.88776327  0.15940132  0.35420195  1
  N  N21  1  0.38776327  0.34059868  0.64579805  1
  N  N22  1  0.61223673  0.84059868  0.85420195  1
  N  N23  1  0.11223673  0.65940132  0.14579805  1
  N  N24  1  0.12500000  0.18886585  0.43886585  1
  N  N25  1  0.37500000  0.81113415  0.93886585  1
  N  N26  1  0.87500000  0.68886585  0.06113415  1
  N  N27  1  0.43886585  0.12500000  0.18886585  1
  N  N28  1  0.93886585  0.37500000  0.81113415  1
  N  N29  1  0.62500000  0.31113415  0.56113415  1
  N  N30  1  0.56113415  0.62500000  0.31113415  1
  N  N31  1  0.06113415  0.87500000  0.68886585  1
  N  N32  1  0.18886585  0.43886585  0.12500000  1
  N  N33  1  0.68886585  0.06113415  0.87500000  1
  N  N34  1  0.31113415  0.56113415  0.62500000  1
  N  N35  1  0.81113415  0.93886585  0.37500000  1
  N  N36  1  0.12500000  0.01697327  0.26697327  1
  N  N37  1  0.37500000  0.98302673  0.76697327  1
  N  N38  1  0.87500000  0.51697327  0.23302673  1
  N  N39  1  0.26697327  0.12500000  0.01697327  1
  N  N40  1  0.76697327  0.37500000  0.98302673  1
  N  N41  1  0.62500000  0.48302673  0.73302673  1
  N  N42  1  0.73302673  0.62500000  0.48302673  1
  N  N43  1  0.23302673  0.87500000  0.51697327  1
  N  N44  1  0.01697327  0.26697327  0.12500000  1
  N  N45  1  0.51697327  0.23302673  0.87500000  1
  N  N46  1  0.48302673  0.73302673  0.62500000  1
  N  N47  1  0.98302673  0.76697327  0.37500000  1
  O  O0  1  0.12500000  0.94904273  0.19904273  1
  O  O1  1  0.37500000  0.05095727  0.69904273  1
  O  O2  1  0.87500000  0.44904273  0.30095727  1
  O  O3  1  0.19904273  0.12500000  0.94904273  1
  O  O4  1  0.69904273  0.37500000  0.05095727  1
  O  O5  1  0.62500000  0.55095727  0.80095727  1
  O  O6  1  0.80095727  0.62500000  0.55095727  1
  O  O7  1  0.30095727  0.87500000  0.44904273  1
  O  O8  1  0.94904273  0.19904273  0.12500000  1
  O  O9  1  0.44904273  0.30095727  0.87500000  1
  O  O10  1  0.55095727  0.80095727  0.62500000  1
  O  O11  1  0.05095727  0.69904273  0.37500000  1
  O  O12  1  0.05711497  0.38834021  0.43949074  1
  O  O13  1  0.44288503  0.61165979  0.93949074  1
  O  O14  1  0.94288503  0.88834021  0.06050926  1
  O  O15  1  0.43949074  0.05711497  0.38834021  1
  O  O16  1  0.13834021  0.30711497  0.81050926  1
  O  O17  1  0.55711497  0.11165979  0.56050926  1
  O  O18  1  0.93949074  0.44288503  0.61165979  1
  O  O19  1  0.36165979  0.69288503  0.31050926  1
  O  O20  1  0.06050926  0.94288503  0.88834021  1
  O  O21  1  0.63834021  0.19288503  0.18949074  1
  O  O22  1  0.56050926  0.55711497  0.11165979  1
  O  O23  1  0.86165979  0.80711497  0.68949074  1
  O  O24  1  0.38834021  0.43949074  0.05711497  1
  O  O25  1  0.80711497  0.68949074  0.86165979  1
  O  O26  1  0.88834021  0.06050926  0.94288503  1
  O  O27  1  0.69288503  0.31050926  0.36165979  1
  O  O28  1  0.11165979  0.56050926  0.55711497  1
  O  O29  1  0.30711497  0.81050926  0.13834021  1
  O  O30  1  0.61165979  0.93949074  0.44288503  1
  O  O31  1  0.19288503  0.18949074  0.63834021  1
  O  O32  1  0.81050926  0.13834021  0.30711497  1
  O  O33  1  0.31050926  0.36165979  0.69288503  1
  O  O34  1  0.68949074  0.86165979  0.80711497  1
  O  O35  1  0.18949074  0.63834021  0.19288503  1
  O  O36  1  0.09011118  0.49305773  0.32345863  1
  O  O37  1  0.40988882  0.50694227  0.82345863  1
  O  O38  1  0.90988882  0.99305773  0.17654137  1
  O  O39  1  0.32345863  0.09011118  0.49305773  1
  O  O40  1  0.24305773  0.34011118  0.92654137  1
  O  O41  1  0.59011118  0.00694227  0.67654137  1
  O  O42  1  0.82345863  0.40988882  0.50694227  1
  O  O43  1  0.25694227  0.65988882  0.42654137  1
  O  O44  1  0.17654137  0.90988882  0.99305773  1
  O  O45  1  0.74305773  0.15988882  0.07345863  1
  O  O46  1  0.67654137  0.59011118  0.00694227  1
  O  O47  1  0.75694227  0.84011118  0.57345863  1
  O  O48  1  0.49305773  0.32345863  0.09011118  1
  O  O49  1  0.84011118  0.57345863  0.75694227  1
  O  O50  1  0.99305773  0.17654137  0.90988882  1
  O  O51  1  0.65988882  0.42654137  0.25694227  1
  O  O52  1  0.00694227  0.67654137  0.59011118  1
  O  O53  1  0.34011118  0.92654137  0.24305773  1
  O  O54  1  0.50694227  0.82345863  0.40988882  1
  O  O55  1  0.15988882  0.07345863  0.74305773  1
  O  O56  1  0.92654137  0.24305773  0.34011118  1
  O  O57  1  0.42654137  0.25694227  0.65988882  1
  O  O58  1  0.57345863  0.75694227  0.84011118  1
  O  O59  1  0.07345863  0.74305773  0.15988882  1
  O  O60  1  0.16307785  0.35007553  0.32484081  1
  O  O61  1  0.33692215  0.64992447  0.82484081  1
  O  O62  1  0.83692215  0.85007553  0.17515919  1
  O  O63  1  0.32484081  0.16307785  0.35007553  1
  O  O64  1  0.10007553  0.41307785  0.92515919  1
  O  O65  1  0.66307785  0.14992447  0.67515919  1
  O  O66  1  0.82484081  0.33692215  0.64992447  1
  O  O67  1  0.39992447  0.58692215  0.42515919  1
  O  O68  1  0.17515919  0.83692215  0.85007553  1
  O  O69  1  0.60007553  0.08692215  0.07484081  1
  O  O70  1  0.67515919  0.66307785  0.14992447  1
  O  O71  1  0.89992447  0.91307785  0.57484081  1
  O  O72  1  0.35007553  0.32484081  0.16307785  1
  O  O73  1  0.91307785  0.57484081  0.89992447  1
  O  O74  1  0.85007553  0.17515919  0.83692215  1
  O  O75  1  0.58692215  0.42515919  0.39992447  1
  O  O76  1  0.14992447  0.67515919  0.66307785  1
  O  O77  1  0.41307785  0.92515919  0.10007553  1
  O  O78  1  0.64992447  0.82484081  0.33692215  1
  O  O79  1  0.08692215  0.07484081  0.60007553  1
  O  O80  1  0.92515919  0.10007553  0.41307785  1
  O  O81  1  0.42515919  0.39992447  0.58692215  1
  O  O82  1  0.57484081  0.89992447  0.91307785  1
  O  O83  1  0.07484081  0.60007553  0.08692215  1
  O  O84  1  0.09108061  0.09904676  0.24524693  1
  O  O85  1  0.40891939  0.90095324  0.74524693  1
  O  O86  1  0.90891939  0.59904676  0.25475307  1
  O  O87  1  0.24524693  0.09108061  0.09904676  1
  O  O88  1  0.84904676  0.34108061  0.00475307  1
  O  O89  1  0.59108061  0.40095324  0.75475307  1
  O  O90  1  0.74524693  0.40891939  0.90095324  1
  O  O91  1  0.65095324  0.65891939  0.50475307  1
  O  O92  1  0.25475307  0.90891939  0.59904676  1
  O  O93  1  0.34904676  0.15891939  0.99524693  1
  O  O94  1  0.75475307  0.59108061  0.40095324  1
  O  O95  1  0.15095324  0.84108061  0.49524693  1
  O  O96  1  0.09904676  0.24524693  0.09108061  1
  O  O97  1  0.84108061  0.49524693  0.15095324  1
  O  O98  1  0.59904676  0.25475307  0.90891939  1
  O  O99  1  0.65891939  0.50475307  0.65095324  1
  O  O100  1  0.40095324  0.75475307  0.59108061  1
  O  O101  1  0.34108061  0.00475307  0.84904676  1
  O  O102  1  0.90095324  0.74524693  0.40891939  1
  O  O103  1  0.15891939  0.99524693  0.34904676  1
  O  O104  1  0.00475307  0.84904676  0.34108061  1
  O  O105  1  0.50475307  0.65095324  0.65891939  1
  O  O106  1  0.49524693  0.15095324  0.84108061  1
  O  O107  1  0.99524693  0.34904676  0.15891939  1
loop_
_geom_bond_atom_site_label_1
_geom_bond_atom_site_label_2
_geom_bond_distance
_geom_bond_site_symmetry_2
La0 O0 2.634624 1_545
La0 O3 2.634624 1_554
La0 O8 2.634624 1_455
La0 O20 2.697458 1_544
La0 O26 2.697458 1_454
La0 O14 2.697458 1_445
La0 O38 2.701795 1_445
La0 O44 2.701795 1_544
La0 O50 2.701795 1_454
La0 O87 2.747898 1_555
La0 O96 2.747898 1_555
La0 O84 2.747898 1_555
La1 O10 2.634624 1_555
La1 O7 2.634624 1_555
La1 O1 2.634624 1_565
La1 O15 2.697458 1_565
La1 O30 2.697458 1_555
La1 O17 2.697458 1_565
La1 O41 2.701795 1_565
La1 O39 2.701795 1_565
La1 O54 2.701795 1_555
La1 O85 2.747898 1_555
La1 O92 2.747898 1_555
La1 O100 2.747898 1_555
La2 O6 2.634624 1_555
La2 O2 2.634624 1_555
La2 O11 2.634624 1_655
La2 O12 2.697458 1_655
La2 O18 2.697458 1_555
La2 O28 2.697458 1_655
La2 O52 2.701795 1_655
La2 O36 2.701795 1_655
La2 O42 2.701795 1_555
La2 O102 2.747898 1_555
La2 O86 2.747898 1_555
La2 O94 2.747898 1_555
La3 O4 2.634624 1_555
La3 O2 2.634624 1_555
La3 O8 2.634624 1_555
La3 O27 2.697458 1_555
La3 O32 2.697458 1_555
La3 O21 2.697458 1_555
La3 O45 2.701795 1_555
La3 O51 2.701795 1_555
La3 O56 2.701795 1_555
La3 O107 2.747898 1_555
La3 O88 2.747898 1_555
La3 O97 2.747898 1_555
La4 O5 2.634624 1_555
La4 O9 2.634624 1_555
La4 O4 2.634624 1_556
La4 O24 2.697458 1_556
La4 O13 2.697458 1_555
La4 O22 2.697458 1_556
La4 O46 2.701795 1_556
La4 O48 2.701795 1_556
La4 O37 2.701795 1_555
La4 O89 2.747898 1_555
La4 O98 2.747898 1_555
La4 O90 2.747898 1_555
La5 O5 2.634624 1_555
La5 O10 2.634624 1_555
La5 O6 2.634624 1_555
La5 O34 2.697458 1_555
La5 O25 2.697458 1_555
La5 O23 2.697458 1_555
La5 O47 2.701795 1_555
La5 O58 2.701795 1_555
La5 O49 2.701795 1_555
La5 O105 2.747898 1_555
La5 O99 2.747898 1_555
La5 O91 2.747898 1_555
La6 O1 2.634624 1_555
La6 O9 2.634624 1_555
La6 O3 2.634624 1_555
La6 O33 2.697458 1_555
La6 O16 2.697458 1_555
La6 O31 2.697458 1_555
La6 O55 2.701795 1_555
La6 O57 2.701795 1_555
La6 O40 2.701795 1_555
La6 O93 2.747898 1_555
La6 O101 2.747898 1_555
La6 O106 2.747898 1_555
La7 O11 2.634624 1_555
La7 O7 2.634624 1_555
La7 O0 2.634624 1_555
La7 O19 2.697458 1_555
La7 O29 2.697458 1_555
La7 O35 2.697458 1_555
La7 O59 2.701795 1_555
La7 O53 2.701795 1_555
La7 O43 2.701795 1_555
La7 O103 2.747898 1_555
La7 O104 2.747898 1_555
La7 O95 2.747898 1_555
N0 O60 1.247921 1_555
N0 O12 1.265990 1_555
N0 O36 1.271242 1_555
N1 O61 1.247921 1_555
N1 O13 1.265990 1_555
N1 O37 1.271242 1_555
N2 O62 1.247921 1_555
N2 O14 1.265990 1_555
N2 O38 1.271242 1_555
N3 O63 1.247921 1_555
N3 O15 1.265990 1_555
N3 O39 1.271242 1_555
N4 O64 1.247921 1_555
N4 O16 1.265990 1_555
N4 O40 1.271242 1_555
N5 O65 1.247921 1_555
N5 O17 1.265990 1_555
N5 O41 1.271242 1_555
N6 O66 1.247921 1_555
N6 O18 1.265990 1_555
N6 O42 1.271242 1_555
N7 O67 1.247921 1_555
N7 O19 1.265990 1_555
N7 O43 1.271242 1_555
N8 O68 1.247921 1_555
N8 O20 1.265990 1_555
N8 O44 1.271242 1_555
N9 O69 1.247921 1_555
N9 O21 1.265990 1_555
N9 O45 1.271242 1_555
N10 O70 1.247921 1_555
N10 O22 1.265990 1_555
N10 O46 1.271242 1_555
N11 O71 1.247921 1_555
N11 O23 1.265990 1_555
N11 O47 1.271242 1_555
N12 O72 1.247921 1_555
N12 O24 1.265990 1_555
N12 O48 1.271242 1_555
N13 O73 1.247921 1_555
N13 O25 1.265990 1_555
N13 O49 1.271242 1_555
N14 O74 1.247921 1_555
N14 O26 1.265990 1_555
N14 O50 1.271242 1_555
N15 O75 1.247921 1_555
N15 O27 1.265990 1_555
N15 O51 1.271242 1_555
N16 O76 1.247921 1_555
N16 O28 1.265990 1_555
N16 O52 1.271242 1_555
N17 O77 1.247921 1_555
N17 O29 1.265990 1_555
N17 O53 1.271242 1_555
N18 O78 1.247921 1_555
N18 O30 1.265990 1_555
N18 O54 1.271242 1_555
N19 O79 1.247921 1_555
N19 O31 1.265990 1_555
N19 O55 1.271242 1_555
N20 O80 1.247921 1_555
N20 O32 1.265990 1_555
N20 O56 1.271242 1_555
N21 O81 1.247921 1_555
N21 O33 1.265990 1_555
N21 O57 1.271242 1_555
N22 O82 1.247921 1_555
N22 O34 1.265990 1_555
N22 O58 1.271242 1_555
N23 O83 1.247921 1_555
N23 O35 1.265990 1_555
N23 O59 1.271242 1_555
N36 O84 1.246002 1_555
N36 O103 1.246002 1_545
N36 O0 1.309277 1_545
N37 O101 1.246002 1_565
N37 O85 1.246002 1_555
N37 O1 1.309277 1_565
N38 O86 1.246002 1_555
N38 O97 1.246002 1_555
N38 O2 1.309277 1_555
N39 O87 1.246002 1_555
N39 O93 1.246002 1_554
N39 O3 1.309277 1_554
N40 O88 1.246002 1_556
N40 O90 1.246002 1_555
N40 O4 1.309277 1_556
N41 O89 1.246002 1_555
N41 O99 1.246002 1_555
N41 O5 1.309277 1_555
N42 O94 1.246002 1_555
N42 O91 1.246002 1_555
N42 O6 1.309277 1_555
N43 O92 1.246002 1_555
N43 O95 1.246002 1_555
N43 O7 1.309277 1_555
N44 O96 1.246002 1_555
N44 O107 1.246002 1_455
N44 O8 1.309277 1_455
N45 O98 1.246002 1_555
N45 O106 1.246002 1_555
N45 O9 1.309277 1_555
N46 O100 1.246002 1_555
N46 O105 1.246002 1_555
N46 O10 1.309277 1_555
N47 O104 1.246002 1_655
N47 O102 1.246002 1_555
N47 O11 1.309277 1_655
