# generated using pymatgen
data_K6Tl17
_symmetry_space_group_name_H-M   'P 1'
_cell_length_a   15.14861243
_cell_length_b   15.14861299
_cell_length_c   15.48731600
_cell_angle_alpha   90.00000000
_cell_angle_beta   90.00000000
_cell_angle_gamma   111.24785677
_symmetry_Int_Tables_number   1
_chemical_formula_structural   K6Tl17
_chemical_formula_sum   'K24 Tl68'
_cell_volume   3312.43817477
_cell_formula_units_Z   4
loop_
 _symmetry_equiv_pos_site_id
 _symmetry_equiv_pos_as_xyz
  1  'x, y, z'
loop_
 _atom_site_type_symbol
 _atom_site_label
 _atom_site_symmetry_multiplicity
 _atom_site_fract_x
 _atom_site_fract_y
 _atom_site_fract_z
 _atom_site_occupancy
  K  K0  1  0.57468500  0.88366700  0.50000000  1
  K  K1  1  0.42531500  0.11633300  0.50000000  1
  K  K2  1  0.11633300  0.42531500  0.00000000  1
  K  K3  1  0.88366700  0.57468500  0.00000000  1
  K  K4  1  0.19438700  0.24968000  0.50000000  1
  K  K5  1  0.80561300  0.75032000  0.50000000  1
  K  K6  1  0.75032000  0.80561300  0.00000000  1
  K  K7  1  0.24968000  0.19438700  0.00000000  1
  K  K8  1  0.89085300  0.21938700  0.50000000  1
  K  K9  1  0.10914700  0.78061300  0.50000000  1
  K  K10  1  0.78061300  0.10914700  0.00000000  1
  K  K11  1  0.21938700  0.89085300  0.00000000  1
  K  K12  1  0.60884800  0.93876200  0.78842300  1
  K  K13  1  0.39115200  0.06123800  0.78842300  1
  K  K14  1  0.06123800  0.39115200  0.71157700  1
  K  K15  1  0.93876200  0.60884800  0.71157700  1
  K  K16  1  0.39115200  0.06123800  0.21157700  1
  K  K17  1  0.60884800  0.93876200  0.21157700  1
  K  K18  1  0.93876200  0.60884800  0.28842300  1
  K  K19  1  0.06123800  0.39115200  0.28842300  1
  K  K20  1  0.72225700  0.72225700  0.75000000  1
  K  K21  1  0.27774300  0.27774300  0.75000000  1
  K  K22  1  0.27774300  0.27774300  0.25000000  1
  K  K23  1  0.72225700  0.72225700  0.25000000  1
  Tl  Tl0  1  0.88031300  0.97149700  0.82175400  1
  Tl  Tl1  1  0.11968700  0.02850300  0.82175400  1
  Tl  Tl2  1  0.02850300  0.11968700  0.67824600  1
  Tl  Tl3  1  0.97149700  0.88031300  0.67824600  1
  Tl  Tl4  1  0.11968700  0.02850300  0.17824600  1
  Tl  Tl5  1  0.88031300  0.97149700  0.17824600  1
  Tl  Tl6  1  0.97149700  0.88031300  0.32175400  1
  Tl  Tl7  1  0.02850300  0.11968700  0.32175400  1
  Tl  Tl8  1  0.00000000  0.00000000  0.50000000  1
  Tl  Tl9  1  0.00000000  0.00000000  0.00000000  1
  Tl  Tl10  1  0.83801100  0.16198900  0.75000000  1
  Tl  Tl11  1  0.16198900  0.83801100  0.75000000  1
  Tl  Tl12  1  0.16198900  0.83801100  0.25000000  1
  Tl  Tl13  1  0.83801100  0.16198900  0.25000000  1
  Tl  Tl14  1  0.50000000  0.50000000  0.75000000  1
  Tl  Tl15  1  0.50000000  0.50000000  0.25000000  1
  Tl  Tl16  1  0.79711200  0.97027200  0.62193400  1
  Tl  Tl17  1  0.20288800  0.02972800  0.62193400  1
  Tl  Tl18  1  0.02972800  0.20288800  0.87806600  1
  Tl  Tl19  1  0.97027200  0.79711200  0.87806600  1
  Tl  Tl20  1  0.20288800  0.02972800  0.37806600  1
  Tl  Tl21  1  0.79711200  0.97027200  0.37806600  1
  Tl  Tl22  1  0.97027200  0.79711200  0.12193400  1
  Tl  Tl23  1  0.02972800  0.20288800  0.12193400  1
  Tl  Tl24  1  0.64776900  0.20700000  0.82818900  1
  Tl  Tl25  1  0.35223100  0.79300000  0.82818900  1
  Tl  Tl26  1  0.79300000  0.35223100  0.67181100  1
  Tl  Tl27  1  0.20700000  0.64776900  0.67181100  1
  Tl  Tl28  1  0.35223100  0.79300000  0.17181100  1
  Tl  Tl29  1  0.64776900  0.20700000  0.17181100  1
  Tl  Tl30  1  0.20700000  0.64776900  0.32818900  1
  Tl  Tl31  1  0.79300000  0.35223100  0.32818900  1
  Tl  Tl32  1  0.54780600  0.29628900  0.68502900  1
  Tl  Tl33  1  0.45219400  0.70371100  0.68502900  1
  Tl  Tl34  1  0.70371100  0.45219400  0.81497100  1
  Tl  Tl35  1  0.29628900  0.54780600  0.81497100  1
  Tl  Tl36  1  0.45219400  0.70371100  0.31497100  1
  Tl  Tl37  1  0.54780600  0.29628900  0.31497100  1
  Tl  Tl38  1  0.29628900  0.54780600  0.18502900  1
  Tl  Tl39  1  0.70371100  0.45219400  0.18502900  1
  Tl  Tl40  1  0.66341200  0.31146600  0.50000000  1
  Tl  Tl41  1  0.33658800  0.68853400  0.50000000  1
  Tl  Tl42  1  0.68853400  0.33658800  0.00000000  1
  Tl  Tl43  1  0.31146600  0.66341200  0.00000000  1
  Tl  Tl44  1  0.64811400  0.12051900  0.62229000  1
  Tl  Tl45  1  0.35188600  0.87948100  0.62229000  1
  Tl  Tl46  1  0.87948100  0.35188600  0.87771000  1
  Tl  Tl47  1  0.12051900  0.64811400  0.87771000  1
  Tl  Tl48  1  0.35188600  0.87948100  0.37771000  1
  Tl  Tl49  1  0.64811400  0.12051900  0.37771000  1
  Tl  Tl50  1  0.12051900  0.64811400  0.12229000  1
  Tl  Tl51  1  0.87948100  0.35188600  0.12229000  1
  Tl  Tl52  1  0.48442000  0.31573000  0.88930300  1
  Tl  Tl53  1  0.51558000  0.68427000  0.88930300  1
  Tl  Tl54  1  0.68427000  0.51558000  0.61069700  1
  Tl  Tl55  1  0.31573000  0.48442000  0.61069700  1
  Tl  Tl56  1  0.51558000  0.68427000  0.11069700  1
  Tl  Tl57  1  0.48442000  0.31573000  0.11069700  1
  Tl  Tl58  1  0.31573000  0.48442000  0.38930300  1
  Tl  Tl59  1  0.68427000  0.51558000  0.38930300  1
  Tl  Tl60  1  0.46646700  0.37802900  0.50000000  1
  Tl  Tl61  1  0.53353300  0.62197100  0.50000000  1
  Tl  Tl62  1  0.62197100  0.53353300  0.00000000  1
  Tl  Tl63  1  0.37802900  0.46646700  0.00000000  1
  Tl  Tl64  1  0.88367900  0.49263000  0.50000000  1
  Tl  Tl65  1  0.11632100  0.50737000  0.50000000  1
  Tl  Tl66  1  0.50737000  0.11632100  0.00000000  1
  Tl  Tl67  1  0.49263000  0.88367900  0.00000000  1
loop_
_geom_bond_atom_site_label_1
_geom_bond_atom_site_label_2
_geom_bond_distance
_geom_bond_site_symmetry_2
K0 Tl16 3.665596 1_555
K0 Tl21 3.665596 1_555
K0 Tl41 3.744256 1_555
K0 Tl61 3.783292 1_555
K0 Tl49 3.847749 1_565
K0 Tl44 3.847749 1_565
K0 Tl48 3.850609 1_555
K0 Tl45 3.850609 1_555
K0 Tl33 3.926826 1_555
K0 Tl36 3.926826 1_555
K1 Tl17 3.665596 1_555
K1 Tl20 3.665596 1_555
K1 Tl40 3.744256 1_555
K1 Tl60 3.783292 1_555
K1 Tl48 3.847749 1_545
K1 Tl45 3.847749 1_545
K1 Tl49 3.850609 1_555
K1 Tl44 3.850609 1_555
K1 Tl37 3.926826 1_555
K1 Tl32 3.926826 1_555
K2 Tl18 3.665596 1_554
K2 Tl23 3.665596 1_555
K2 Tl43 3.744256 1_555
K2 Tl63 3.783292 1_555
K2 Tl46 3.847749 1_454
K2 Tl51 3.847749 1_455
K2 Tl47 3.850609 1_554
K2 Tl50 3.850609 1_555
K2 Tl35 3.926826 1_554
K2 Tl38 3.926826 1_555
K3 Tl19 3.665596 1_554
K3 Tl22 3.665596 1_555
K3 Tl42 3.744256 1_555
K3 Tl62 3.783292 1_555
K3 Tl47 3.847749 1_654
K3 Tl50 3.847749 1_655
K3 Tl46 3.850609 1_554
K3 Tl51 3.850609 1_555
K3 Tl39 3.926826 1_555
K3 Tl34 3.926826 1_554
K4 Tl55 3.771654 1_555
K4 Tl58 3.771654 1_555
K4 Tl7 3.771804 1_555
K4 Tl2 3.771804 1_555
K4 Tl8 3.860616 1_555
K4 Tl60 3.867791 1_555
K4 Tl17 3.872437 1_555
K4 Tl20 3.872437 1_555
K5 Tl54 3.771654 1_555
K5 Tl59 3.771654 1_555
K5 Tl6 3.771804 1_555
K5 Tl3 3.771804 1_555
K5 Tl8 3.860616 1_665
K5 Tl61 3.867791 1_555
K5 Tl16 3.872437 1_555
K5 Tl21 3.872437 1_555
K6 Tl56 3.771654 1_555
K6 Tl53 3.771654 1_554
K6 Tl5 3.771804 1_555
K6 Tl0 3.771804 1_554
K6 Tl9 3.860616 1_665
K6 Tl62 3.867791 1_555
K6 Tl22 3.872437 1_555
K6 Tl19 3.872437 1_554
K7 Tl57 3.771654 1_555
K7 Tl52 3.771654 1_554
K7 Tl4 3.771804 1_555
K7 Tl1 3.771804 1_554
K7 Tl9 3.860616 1_555
K7 Tl63 3.867791 1_555
K7 Tl18 3.872437 1_554
K7 Tl23 3.872437 1_555
K8 Tl49 3.919173 1_555
K8 Tl44 3.919173 1_555
K8 Tl26 3.935679 1_555
K8 Tl31 3.935679 1_555
K8 Tl13 3.985396 1_555
K8 Tl10 3.985396 1_555
K8 Tl16 3.992456 1_545
K8 Tl21 3.992456 1_545
K8 Tl7 4.066010 1_655
K8 Tl2 4.066010 1_655
K8 Tl40 4.159315 1_555
K8 Tl8 4.214461 1_655
K9 Tl48 3.919173 1_555
K9 Tl45 3.919173 1_555
K9 Tl27 3.935679 1_555
K9 Tl30 3.935679 1_555
K9 Tl11 3.985396 1_555
K9 Tl12 3.985396 1_555
K9 Tl17 3.992456 1_565
K9 Tl20 3.992456 1_565
K9 Tl3 4.066010 1_455
K9 Tl6 4.066010 1_455
K9 Tl41 4.159315 1_555
K9 Tl8 4.214461 1_565
K10 Tl46 3.919173 1_554
K10 Tl51 3.919173 1_555
K10 Tl29 3.935679 1_555
K10 Tl24 3.935679 1_554
K10 Tl13 3.985396 1_555
K10 Tl10 3.985396 1_554
K10 Tl18 3.992456 1_654
K10 Tl23 3.992456 1_655
K10 Tl5 4.066010 1_545
K10 Tl0 4.066010 1_544
K10 Tl42 4.159315 1_555
K10 Tl9 4.214461 1_655
K11 Tl47 3.919173 1_554
K11 Tl50 3.919173 1_555
K11 Tl28 3.935679 1_555
K11 Tl25 3.935679 1_554
K11 Tl11 3.985396 1_554
K11 Tl12 3.985396 1_555
K11 Tl22 3.992456 1_455
K11 Tl19 3.992456 1_454
K11 Tl4 4.066010 1_565
K11 Tl1 4.066010 1_564
K11 Tl43 4.159315 1_555
K11 Tl9 4.214461 1_565
K12 Tl44 3.656210 1_565
K12 Tl67 3.669899 1_556
K12 Tl16 3.744756 1_555
K12 Tl25 3.761016 1_555
K12 Tl33 3.840541 1_555
K12 Tl10 3.915596 1_565
K12 Tl53 3.918137 1_555
K12 Tl24 3.937248 1_565
K12 Tl0 3.993178 1_555
K12 K20 4.259851 1_555
K13 Tl45 3.656210 1_545
K13 Tl66 3.669899 1_556
K13 Tl17 3.744756 1_555
K13 Tl24 3.761016 1_555
K13 Tl32 3.840541 1_555
K13 Tl11 3.915596 1_545
K13 Tl52 3.918137 1_555
K13 Tl25 3.937248 1_545
K13 Tl1 3.993178 1_555
K13 K21 4.259851 1_555
K14 Tl46 3.656210 1_455
K14 Tl65 3.669899 1_555
K14 Tl18 3.744756 1_555
K14 Tl27 3.761016 1_555
K14 Tl35 3.840541 1_555
K14 Tl10 3.915596 1_455
K14 Tl55 3.918137 1_555
K14 Tl26 3.937248 1_455
K14 Tl2 3.993178 1_555
K14 K21 4.259851 1_555
K15 Tl47 3.656210 1_655
K15 Tl64 3.669899 1_555
K15 Tl19 3.744756 1_555
K15 Tl26 3.761016 1_555
K15 Tl34 3.840541 1_555
K15 Tl11 3.915596 1_655
K15 Tl54 3.918137 1_555
K15 Tl27 3.937248 1_655
K15 Tl3 3.993178 1_555
K15 K20 4.259851 1_555
K16 Tl48 3.656210 1_545
K16 Tl66 3.669899 1_555
K16 Tl20 3.744756 1_555
K16 Tl29 3.761016 1_555
K16 Tl37 3.840541 1_555
K16 Tl12 3.915596 1_545
K16 Tl57 3.918137 1_555
K16 Tl28 3.937248 1_545
K16 Tl4 3.993178 1_555
K16 K22 4.259851 1_555
K17 Tl49 3.656210 1_565
K17 Tl67 3.669899 1_555
K17 Tl21 3.744756 1_555
K17 Tl28 3.761016 1_555
K17 Tl36 3.840541 1_555
K17 Tl13 3.915596 1_565
K17 Tl56 3.918137 1_555
K17 Tl29 3.937248 1_565
K17 Tl5 3.993178 1_555
K17 K23 4.259851 1_555
K18 Tl50 3.656210 1_655
K18 Tl64 3.669899 1_555
K18 Tl22 3.744756 1_555
K18 Tl31 3.761016 1_555
K18 Tl39 3.840541 1_555
K18 Tl12 3.915596 1_655
K18 Tl59 3.918137 1_555
K18 Tl30 3.937248 1_655
K18 Tl6 3.993178 1_555
K18 K23 4.259851 1_555
K19 Tl51 3.656210 1_455
K19 Tl65 3.669899 1_555
K19 Tl23 3.744756 1_555
K19 Tl30 3.761016 1_555
K19 Tl38 3.840541 1_555
K19 Tl13 3.915596 1_455
K19 Tl58 3.918137 1_555
K19 Tl31 3.937248 1_455
K19 Tl7 3.993178 1_555
K19 K22 4.259851 1_555
K20 Tl53 3.671803 1_555
K20 Tl54 3.671803 1_555
K20 Tl14 3.802037 1_555
K20 Tl3 3.830257 1_555
K20 Tl0 3.830257 1_555
K20 Tl19 4.030814 1_555
K20 Tl16 4.030814 1_555
K20 K5 4.046873 1_555
K20 K6 4.046873 1_556
K20 Tl33 4.122534 1_555
K20 Tl34 4.122534 1_555
K21 Tl52 3.671803 1_555
K21 Tl55 3.671803 1_555
K21 Tl14 3.802037 1_555
K21 Tl2 3.830257 1_555
K21 Tl1 3.830257 1_555
K21 Tl18 4.030814 1_555
K21 Tl17 4.030814 1_555
K21 K4 4.046873 1_555
K21 K7 4.046873 1_556
K21 Tl32 4.122534 1_555
K21 Tl35 4.122534 1_555
K22 Tl57 3.671803 1_555
K22 Tl58 3.671803 1_555
K22 Tl15 3.802037 1_555
K22 Tl7 3.830257 1_555
K22 Tl4 3.830257 1_555
K22 Tl23 4.030814 1_555
K22 Tl20 4.030814 1_555
K22 K4 4.046873 1_555
K22 K7 4.046873 1_555
K22 Tl37 4.122534 1_555
K22 Tl38 4.122534 1_555
K23 Tl56 3.671803 1_555
K23 Tl59 3.671803 1_555
K23 Tl15 3.802037 1_555
K23 Tl6 3.830257 1_555
K23 Tl5 3.830257 1_555
K23 Tl22 4.030814 1_555
K23 Tl21 4.030814 1_555
K23 K5 4.046873 1_555
K23 K6 4.046873 1_555
K23 Tl36 4.122534 1_555
K23 Tl39 4.122534 1_555
Tl0 Tl3 3.184137 1_555
Tl0 Tl9 3.244528 1_666
Tl0 Tl16 3.339007 1_555
Tl0 Tl10 3.363495 1_565
Tl0 Tl2 3.371354 1_665
Tl0 Tl1 3.409584 1_665
Tl0 Tl19 3.493639 1_555
Tl0 Tl18 3.524198 1_665
Tl1 Tl2 3.184137 1_555
Tl1 Tl9 3.244528 1_556
Tl1 Tl17 3.339007 1_555
Tl1 Tl11 3.363495 1_545
Tl1 Tl3 3.371354 1_445
Tl1 Tl18 3.493639 1_555
Tl1 Tl19 3.524198 1_445
Tl2 Tl8 3.244528 1_555
Tl2 Tl3 3.409585 1_445
Tl3 Tl8 3.244528 1_665
Tl4 Tl7 3.184137 1_555
Tl4 Tl9 3.244528 1_555
Tl4 Tl6 3.371354 1_445
Tl4 Tl5 3.409584 1_445
Tl5 Tl6 3.184137 1_555
Tl5 Tl9 3.244528 1_665
Tl5 Tl7 3.371354 1_665
Tl6 Tl8 3.244528 1_665
Tl6 Tl7 3.409585 1_665
Tl7 Tl8 3.244528 1_555
Tl10 Tl44 3.357395 1_555
Tl10 Tl46 3.357395 1_555
Tl10 Tl2 3.363495 1_655
Tl10 Tl18 3.383517 1_655
Tl10 Tl16 3.383517 1_545
Tl10 Tl24 3.414810 1_555
Tl10 Tl26 3.414810 1_555
Tl11 Tl45 3.357395 1_555
Tl11 Tl47 3.357395 1_555
Tl11 Tl3 3.363495 1_455
Tl11 Tl19 3.383517 1_455
Tl11 Tl17 3.383517 1_565
Tl11 Tl25 3.414810 1_555
Tl11 Tl27 3.414810 1_555
Tl12 Tl48 3.357395 1_555
Tl12 Tl50 3.357395 1_555
Tl12 Tl6 3.363495 1_455
Tl12 Tl4 3.363495 1_565
Tl12 Tl22 3.383517 1_455
Tl12 Tl20 3.383517 1_565
Tl12 Tl28 3.414810 1_555
Tl12 Tl30 3.414810 1_555
Tl13 Tl49 3.357395 1_555
Tl13 Tl51 3.357395 1_555
Tl13 Tl7 3.363495 1_655
Tl13 Tl5 3.363495 1_545
Tl13 Tl23 3.383517 1_655
Tl13 Tl21 3.383517 1_545
Tl13 Tl29 3.414810 1_555
Tl13 Tl31 3.414810 1_555
Tl14 Tl55 3.467679 1_555
Tl14 Tl54 3.467679 1_555
Tl14 Tl52 3.467679 1_555
Tl14 Tl53 3.467679 1_555
Tl14 Tl34 3.560868 1_555
Tl14 Tl35 3.560868 1_555
Tl14 Tl33 3.560868 1_555
Tl14 Tl32 3.560868 1_555
Tl15 Tl58 3.467679 1_555
Tl15 Tl59 3.467679 1_555
Tl15 Tl57 3.467679 1_555
Tl15 Tl56 3.467679 1_555
Tl15 Tl39 3.560868 1_555
Tl15 Tl38 3.560868 1_555
Tl15 Tl36 3.560868 1_555
Tl15 Tl37 3.560868 1_555
Tl16 Tl3 3.493638 1_555
Tl16 Tl8 3.494567 1_665
Tl16 Tl2 3.524198 1_665
Tl17 Tl2 3.493638 1_555
Tl17 Tl8 3.494567 1_555
Tl17 Tl3 3.524198 1_445
Tl18 Tl2 3.339007 1_555
Tl18 Tl9 3.494567 1_556
Tl19 Tl3 3.339007 1_555
Tl19 Tl9 3.494567 1_666
Tl20 Tl4 3.339007 1_555
Tl20 Tl7 3.493638 1_555
Tl20 Tl8 3.494567 1_555
Tl20 Tl6 3.524198 1_445
Tl21 Tl5 3.339007 1_555
Tl21 Tl6 3.493638 1_555
Tl21 Tl8 3.494567 1_665
Tl21 Tl7 3.524198 1_665
Tl22 Tl6 3.339007 1_555
Tl22 Tl5 3.493639 1_555
Tl22 Tl9 3.494567 1_665
Tl22 Tl4 3.524198 1_665
Tl23 Tl7 3.339007 1_555
Tl23 Tl4 3.493639 1_555
Tl23 Tl9 3.494567 1_555
Tl23 Tl5 3.524198 1_445
Tl24 Tl42 3.230589 1_556
Tl24 Tl32 3.243925 1_555
Tl24 Tl66 3.372418 1_556
Tl24 Tl44 3.448167 1_555
Tl24 Tl26 3.469537 1_555
Tl24 Tl46 3.484594 1_555
Tl24 Tl34 3.503567 1_555
Tl24 Tl52 3.561766 1_555
Tl25 Tl43 3.230589 1_556
Tl25 Tl33 3.243925 1_555
Tl25 Tl67 3.372418 1_556
Tl25 Tl45 3.448167 1_555
Tl25 Tl27 3.469537 1_555
Tl25 Tl47 3.484594 1_555
Tl25 Tl35 3.503567 1_555
Tl25 Tl53 3.561766 1_555
Tl26 Tl40 3.230589 1_555
Tl26 Tl34 3.243925 1_555
Tl26 Tl64 3.372418 1_555
Tl26 Tl46 3.448167 1_555
Tl26 Tl44 3.484594 1_555
Tl26 Tl32 3.503567 1_555
Tl26 Tl54 3.561766 1_555
Tl27 Tl41 3.230589 1_555
Tl27 Tl35 3.243925 1_555
Tl27 Tl65 3.372418 1_555
Tl27 Tl47 3.448167 1_555
Tl27 Tl45 3.484594 1_555
Tl27 Tl33 3.503567 1_555
Tl27 Tl55 3.561766 1_555
Tl28 Tl43 3.230589 1_555
Tl28 Tl36 3.243925 1_555
Tl28 Tl67 3.372418 1_555
Tl28 Tl48 3.448167 1_555
Tl28 Tl30 3.469537 1_555
Tl28 Tl50 3.484594 1_555
Tl28 Tl38 3.503567 1_555
Tl28 Tl56 3.561766 1_555
Tl29 Tl42 3.230589 1_555
Tl29 Tl37 3.243925 1_555
Tl29 Tl66 3.372418 1_555
Tl29 Tl49 3.448167 1_555
Tl29 Tl31 3.469537 1_555
Tl29 Tl51 3.484594 1_555
Tl29 Tl39 3.503567 1_555
Tl29 Tl57 3.561766 1_555
Tl30 Tl41 3.230589 1_555
Tl30 Tl38 3.243925 1_555
Tl30 Tl65 3.372418 1_555
Tl30 Tl50 3.448167 1_555
Tl30 Tl48 3.484594 1_555
Tl30 Tl36 3.503567 1_555
Tl30 Tl58 3.561766 1_555
Tl31 Tl40 3.230589 1_555
Tl31 Tl39 3.243925 1_555
Tl31 Tl64 3.372418 1_555
Tl31 Tl51 3.448167 1_555
Tl31 Tl49 3.484594 1_555
Tl31 Tl37 3.503567 1_555
Tl31 Tl59 3.561766 1_555
Tl32 Tl40 3.322597 1_555
Tl32 Tl34 3.341076 1_555
Tl32 Tl52 3.349988 1_555
Tl32 Tl54 3.414189 1_555
Tl32 Tl60 3.516966 1_555
Tl32 Tl44 3.643552 1_555
Tl33 Tl41 3.322597 1_555
Tl33 Tl35 3.341076 1_555
Tl33 Tl53 3.349988 1_555
Tl33 Tl55 3.414189 1_555
Tl33 Tl61 3.516966 1_555
Tl33 Tl45 3.643552 1_555
Tl34 Tl42 3.322597 1_556
Tl34 Tl54 3.349988 1_555
Tl34 Tl52 3.414189 1_555
Tl34 Tl62 3.516966 1_556
Tl34 Tl46 3.643552 1_555
Tl35 Tl43 3.322597 1_556
Tl35 Tl55 3.349988 1_555
Tl35 Tl53 3.414189 1_555
Tl35 Tl63 3.516966 1_556
Tl35 Tl47 3.643552 1_555
Tl36 Tl41 3.322597 1_555
Tl36 Tl38 3.341076 1_555
Tl36 Tl56 3.349988 1_555
Tl36 Tl58 3.414189 1_555
Tl36 Tl61 3.516966 1_555
Tl36 Tl48 3.643552 1_555
Tl37 Tl40 3.322597 1_555
Tl37 Tl39 3.341076 1_555
Tl37 Tl57 3.349988 1_555
Tl37 Tl59 3.414189 1_555
Tl37 Tl60 3.516966 1_555
Tl37 Tl49 3.643552 1_555
Tl38 Tl43 3.322597 1_555
Tl38 Tl58 3.349988 1_555
Tl38 Tl56 3.414189 1_555
Tl38 Tl63 3.516966 1_555
Tl38 Tl50 3.643552 1_555
Tl39 Tl42 3.322597 1_555
Tl39 Tl59 3.349988 1_555
Tl39 Tl57 3.414189 1_555
Tl39 Tl62 3.516966 1_555
Tl39 Tl51 3.643552 1_555
Tl40 Tl49 3.394392 1_555
Tl40 Tl44 3.394392 1_555
Tl40 Tl54 3.448421 1_555
Tl40 Tl59 3.448421 1_555
Tl40 Tl64 3.468170 1_555
Tl40 Tl60 3.478236 1_555
Tl41 Tl48 3.394392 1_555
Tl41 Tl45 3.394392 1_555
Tl41 Tl55 3.448421 1_555
Tl41 Tl58 3.448421 1_555
Tl41 Tl65 3.468170 1_555
Tl41 Tl61 3.478236 1_555
Tl42 Tl46 3.394392 1_554
Tl42 Tl51 3.394392 1_555
Tl42 Tl57 3.448421 1_555
Tl42 Tl52 3.448421 1_554
Tl42 Tl66 3.468171 1_555
Tl42 Tl62 3.478236 1_555
Tl43 Tl47 3.394392 1_554
Tl43 Tl50 3.394392 1_555
Tl43 Tl56 3.448421 1_555
Tl43 Tl53 3.448421 1_554
Tl43 Tl67 3.468171 1_555
Tl43 Tl63 3.478236 1_555
Tl52 Tl57 3.428799 1_556
Tl52 Tl66 3.598094 1_556
Tl52 Tl62 3.630988 1_556
Tl52 Tl63 3.663095 1_556
Tl53 Tl56 3.428799 1_556
Tl53 Tl67 3.598094 1_556
Tl53 Tl63 3.630988 1_556
Tl53 Tl62 3.663095 1_556
Tl54 Tl59 3.428799 1_555
Tl54 Tl64 3.598093 1_555
Tl54 Tl60 3.630988 1_555
Tl54 Tl61 3.663095 1_555
Tl55 Tl58 3.428799 1_555
Tl55 Tl65 3.598093 1_555
Tl55 Tl61 3.630988 1_555
Tl55 Tl60 3.663095 1_555
Tl56 Tl67 3.598094 1_555
Tl56 Tl63 3.630988 1_555
Tl56 Tl62 3.663095 1_555
Tl57 Tl66 3.598094 1_555
Tl57 Tl62 3.630988 1_555
Tl57 Tl63 3.663095 1_555
Tl58 Tl65 3.598093 1_555
Tl58 Tl61 3.630988 1_555
Tl58 Tl60 3.663095 1_555
Tl59 Tl64 3.598093 1_555
Tl59 Tl60 3.630988 1_555
Tl59 Tl61 3.663095 1_555
