# generated using pymatgen
data_Ti4GaS8
_symmetry_space_group_name_H-M   'P 1'
_cell_length_a   7.07242906
_cell_length_b   7.07244047
_cell_length_c   7.07249579
_cell_angle_alpha   59.99969268
_cell_angle_beta   59.99972255
_cell_angle_gamma   59.99938553
_symmetry_Int_Tables_number   1
_chemical_formula_structural   Ti4GaS8
_chemical_formula_sum   'Ti4 Ga1 S8'
_cell_volume   250.14490672
_cell_formula_units_Z   1
loop_
 _symmetry_equiv_pos_site_id
 _symmetry_equiv_pos_as_xyz
  1  'x, y, z'
loop_
 _atom_site_type_symbol
 _atom_site_label
 _atom_site_symmetry_multiplicity
 _atom_site_fract_x
 _atom_site_fract_y
 _atom_site_fract_z
 _atom_site_occupancy
  Ti  Ti0  1  0.61265701  0.61265650  0.16204506  1
  Ti  Ti1  1  0.61265633  0.16204372  0.61265048  1
  Ti  Ti2  1  0.16204909  0.61265779  0.61264656  1
  Ti  Ti3  1  0.61265701  0.61265550  0.61264143  1
  Ga  Ga0  1  -0.00002499  -0.00002186  0.00002343  1
  S  S0  1  0.37567433  0.37567213  0.87296825  1
  S  S1  1  0.37566841  0.87297580  0.37567790  1
  S  S2  1  0.87297481  0.37566578  0.37567971  1
  S  S3  1  0.37567433  0.37567113  0.37568529  1
  S  S4  1  0.86747015  0.86746297  0.39761767  1
  S  S5  1  0.86747600  0.39761063  0.86745568  1
  S  S6  1  0.39759639  0.86748395  0.86745733  1
  S  S7  1  0.86747015  0.86746397  0.86744922  1
loop_
_geom_bond_atom_site_label_1
_geom_bond_atom_site_label_2
_geom_bond_distance
_geom_bond_site_symmetry_2
Ga0 S7 2.295963 1_444
Ga0 S4 2.295968 1_445
Ga0 S6 2.296096 1_544
Ga0 S5 2.296164 1_454
S0 Ti1 2.375935 1_555
S0 Ti2 2.375938 1_555
S0 Ti3 2.376032 1_555
S1 Ti2 2.375891 1_555
S1 Ti3 2.375958 1_555
S1 Ti0 2.375960 1_555
S2 Ti1 2.375906 1_555
S2 Ti3 2.375956 1_555
S2 Ti0 2.375958 1_555
S3 Ti1 2.375938 1_555
S3 Ti2 2.375946 1_555
S3 Ti0 2.376042 1_555
S4 Ti2 2.564004 1_655
S4 Ti1 2.564035 1_565
S4 Ti3 2.564083 1_555
S5 Ti2 2.564062 1_655
S5 Ti3 2.564135 1_555
S5 Ti0 2.564148 1_556
S6 Ti1 2.564050 1_565
S6 Ti3 2.564186 1_555
S6 Ti0 2.564204 1_556
S7 Ti2 2.564012 1_655
S7 Ti1 2.564027 1_565
S7 Ti0 2.564082 1_556
