# generated using pymatgen
data_Ta2Zn2SnO8
_symmetry_space_group_name_H-M   'P 1'
_cell_length_a   10.92061938
_cell_length_b   10.92061938
_cell_length_c   5.43407088
_cell_angle_alpha   88.45722218
_cell_angle_beta   88.45722218
_cell_angle_gamma   31.91045893
_symmetry_Int_Tables_number   1
_chemical_formula_structural   Ta2Zn2SnO8
_chemical_formula_sum   'Ta4 Zn4 Sn2 O16'
_cell_volume   342.42949054
_cell_formula_units_Z   2
loop_
 _symmetry_equiv_pos_site_id
 _symmetry_equiv_pos_as_xyz
  1  'x, y, z'
loop_
 _atom_site_type_symbol
 _atom_site_label
 _atom_site_symmetry_multiplicity
 _atom_site_fract_x
 _atom_site_fract_y
 _atom_site_fract_z
 _atom_site_occupancy
  Ta  Ta0  1  0.02844200  0.72001500  0.22435100  1
  Ta  Ta1  1  0.27998500  0.97155800  0.27564900  1
  Ta  Ta2  1  0.97155800  0.27998500  0.77564900  1
  Ta  Ta3  1  0.72001500  0.02844200  0.72435100  1
  Zn  Zn0  1  0.87059900  0.56880300  0.27706500  1
  Zn  Zn1  1  0.43119700  0.12940100  0.22293500  1
  Zn  Zn2  1  0.12940100  0.43119700  0.72293500  1
  Zn  Zn3  1  0.56880300  0.87059900  0.77706500  1
  Sn  Sn0  1  0.67854900  0.32145100  0.25000000  1
  Sn  Sn1  1  0.32145100  0.67854900  0.75000000  1
  O  O0  1  0.00777100  0.82746100  0.53587200  1
  O  O1  1  0.17253900  0.99222900  0.96412800  1
  O  O2  1  0.99222900  0.17253900  0.46412800  1
  O  O3  1  0.82746100  0.00777100  0.03587200  1
  O  O4  1  0.30538800  0.55862600  0.12527500  1
  O  O5  1  0.44137400  0.69461200  0.37472500  1
  O  O6  1  0.69461200  0.44137400  0.87472500  1
  O  O7  1  0.55862600  0.30538800  0.62527500  1
  O  O8  1  0.93108600  0.70686100  0.92097900  1
  O  O9  1  0.29313900  0.06891400  0.57902100  1
  O  O10  1  0.45221900  0.14928900  0.85619000  1
  O  O11  1  0.85071100  0.54778100  0.64381000  1
  O  O12  1  0.54778100  0.85071100  0.14381000  1
  O  O13  1  0.14928900  0.45221900  0.35619000  1
  O  O14  1  0.70686100  0.93108600  0.42097900  1
  O  O15  1  0.06891400  0.29313900  0.07902100  1
loop_
_geom_bond_atom_site_label_1
_geom_bond_atom_site_label_2
_geom_bond_distance
_geom_bond_site_symmetry_2
O0 Ta0 1.982453 1_555
O0 Ta3 1.994853 1_465
O0 Sn1 2.527479 1_555
O1 Ta1 1.982453 1_556
O1 Ta2 1.994853 1_465
O1 Sn1 2.527479 1_555
O2 Ta2 1.982453 1_555
O2 Ta1 1.994853 1_645
O2 Sn0 2.527479 1_555
O3 Ta3 1.982453 1_554
O3 Ta0 1.994853 1_645
O3 Sn0 2.527479 1_555
O4 Ta0 1.859282 1_555
O4 Sn0 2.430884 1_555
O4 Sn1 2.476186 1_554
O5 Ta1 1.859282 1_555
O5 Sn0 2.430884 1_555
O5 Sn1 2.476186 1_555
O6 Ta2 1.859282 1_555
O6 Sn1 2.430884 1_555
O6 Sn0 2.476186 1_556
O7 Ta3 1.859282 1_555
O7 Sn1 2.430884 1_555
O7 Sn0 2.476186 1_555
O8 Zn2 1.972620 1_655
O8 Ta0 2.057942 1_656
O8 Ta3 2.230557 1_565
O9 Zn3 1.972620 1_545
O9 Ta1 2.057942 1_545
O9 Ta2 2.230557 1_455
O10 Zn2 2.005431 1_555
O10 Zn1 2.026896 1_556
O10 Ta3 2.047729 1_555
O10 Zn3 2.128612 1_545
O11 Zn3 2.005431 1_555
O11 Zn0 2.026896 1_555
O11 Ta2 2.047729 1_555
O11 Zn2 2.128612 1_655
O12 Zn0 2.005431 1_555
O12 Zn3 2.026896 1_554
O12 Ta1 2.047729 1_555
O12 Zn1 2.128612 1_565
O13 Zn1 2.005431 1_555
O13 Zn2 2.026896 1_555
O13 Ta0 2.047729 1_555
O13 Zn0 2.128612 1_455
O14 Zn1 1.972620 1_565
O14 Ta3 2.057942 1_565
O14 Ta0 2.230557 1_655
O15 Zn0 1.972620 1_455
O15 Ta2 2.057942 1_454
O15 Ta1 2.230557 1_545
