# generated using pymatgen
data_Ba2Ti2AlF11
_symmetry_space_group_name_H-M   'P 1'
_cell_length_a   7.47728409
_cell_length_b   7.47728409
_cell_length_c   14.10120400
_cell_angle_alpha   90.00000000
_cell_angle_beta   90.00000000
_cell_angle_gamma   120.00000080
_symmetry_Int_Tables_number   1
_chemical_formula_structural   Ba2Ti2AlF11
_chemical_formula_sum   'Ba6 Ti6 Al3 F33'
_cell_volume   682.77024540
_cell_formula_units_Z   3
loop_
 _symmetry_equiv_pos_site_id
 _symmetry_equiv_pos_as_xyz
  1  'x, y, z'
loop_
 _atom_site_type_symbol
 _atom_site_label
 _atom_site_symmetry_multiplicity
 _atom_site_fract_x
 _atom_site_fract_y
 _atom_site_fract_z
 _atom_site_occupancy
  Ba  Ba0  1  0.87560900  0.88092300  0.66233600  1
  Ba  Ba1  1  0.51938400  0.17915900  0.79824400  1
  Ba  Ba2  1  0.00531400  0.12439100  0.99566900  1
  Ba  Ba3  1  0.82084100  0.34022500  0.46491000  1
  Ba  Ba4  1  0.65977500  0.48061600  0.13157700  1
  Ba  Ba5  1  0.11907700  0.99468600  0.32900300  1
  Ti  Ti0  1  0.00532100  0.63857900  0.87561600  1
  Ti  Ti1  1  0.12660600  0.45148900  0.74315800  1
  Ti  Ti2  1  0.54851100  0.67511700  0.40982500  1
  Ti  Ti3  1  0.63325800  0.99467900  0.20895000  1
  Ti  Ti4  1  0.32488300  0.87339400  0.07649200  1
  Ti  Ti5  1  0.36142100  0.36674200  0.54228300  1
  Al  Al0  1  0.51802900  0.68331000  0.87478300  1
  Al  Al1  1  0.16528100  0.48197100  0.20811700  1
  Al  Al2  1  0.31669000  0.83471900  0.54145000  1
  F  F0  1  0.02158700  0.75130000  0.02203000  1
  F  F1  1  0.82550500  0.37750600  0.94420700  1
  F  F2  1  0.72971300  0.97841300  0.35536300  1
  F  F3  1  0.40641300  0.10296200  0.49799000  1
  F  F4  1  0.83622900  0.89737500  0.17324000  1
  F  F5  1  0.23603600  0.28524100  0.18936200  1
  F  F6  1  0.89703800  0.30345000  0.16465700  1
  F  F7  1  0.71475900  0.95079500  0.85602800  1
  F  F8  1  0.06114500  0.16377100  0.50657400  1
  F  F9  1  0.63217600  0.01628000  0.06241100  1
  F  F10  1  0.69655000  0.59358700  0.83132400  1
  F  F11  1  0.24870000  0.27028700  0.68869700  1
  F  F12  1  0.59887400  0.67100400  0.99026000  1
  F  F13  1  0.37270300  0.14924100  0.02092300  1
  F  F14  1  0.07213000  0.40112600  0.32359300  1
  F  F15  1  0.62249400  0.44800000  0.61087300  1
  F  F16  1  0.33579800  0.77983100  0.91343500  1
  F  F17  1  0.38410400  0.36782400  0.39574500  1
  F  F18  1  0.31405500  0.75744400  0.41734500  1
  F  F19  1  0.32899600  0.92787000  0.65692600  1
  F  F20  1  0.44338900  0.68594500  0.75067800  1
  F  F21  1  0.85075900  0.22346200  0.68759000  1
  F  F22  1  0.77653800  0.62729700  0.35425700  1
  F  F23  1  0.44403300  0.66420200  0.24676800  1
  F  F24  1  0.98372000  0.61589600  0.72907800  1
  F  F25  1  0.10262500  0.93885500  0.83990700  1
  F  F26  1  0.55200000  0.17449500  0.27754000  1
  F  F27  1  0.29869100  0.41737300  0.87262800  1
  F  F28  1  0.11868300  0.70130900  0.20596100  1
  F  F29  1  0.24255600  0.55661100  0.08401200  1
  F  F30  1  0.04920500  0.76396400  0.52269500  1
  F  F31  1  0.22016900  0.55596700  0.58010100  1
  F  F32  1  0.58262700  0.88131700  0.53929400  1
loop_
_geom_bond_atom_site_label_1
_geom_bond_atom_site_label_2
_geom_bond_distance
_geom_bond_site_symmetry_2
Ba0 F24 2.658615 1_555
Ba0 F21 2.682780 1_565
Ba0 F30 2.731709 1_655
Ba0 F32 2.795718 1_555
Ba0 F11 2.876612 1_665
Ba0 F8 2.878857 1_665
Ba0 F15 2.908745 1_555
Ba0 F25 2.933183 1_655
Ba0 F10 3.034867 1_555
Ba0 F20 3.067631 1_555
Ba0 F7 3.131742 1_555
Ba0 F19 3.229830 1_655
Ba1 F19 2.617879 1_545
Ba1 F10 2.733125 1_555
Ba1 F25 2.772234 1_545
Ba1 F21 2.804114 1_555
Ba1 F7 2.865013 1_545
Ba1 F1 2.877595 1_555
Ba1 F11 2.885507 1_555
Ba1 F16 3.056069 1_545
Ba1 F27 3.152024 1_555
Ba1 F15 3.172772 1_555
Ba1 F13 3.296585 1_556
Ba2 F9 2.658615 1_456
Ba2 F13 2.682780 1_556
Ba2 F7 2.731709 1_445
Ba2 F27 2.795712 1_555
Ba2 F0 2.876612 1_546
Ba2 F25 2.878853 1_545
Ba2 F1 2.908747 1_455
Ba2 F4 2.933184 1_446
Ba2 F6 3.034864 1_456
Ba2 F29 3.067637 1_556
Ba2 F5 3.131754 1_556
Ba2 F12 3.229829 1_445
Ba3 F14 2.617869 1_655
Ba3 F3 2.733126 1_555
Ba3 F8 2.772231 1_655
Ba3 F22 2.804106 1_555
Ba3 F30 2.865017 1_655
Ba3 F15 2.877599 1_555
Ba3 F2 2.885507 1_545
Ba3 F31 3.056069 1_655
Ba3 F32 3.152030 1_545
Ba3 F26 3.172760 1_555
Ba3 F21 3.296598 1_555
Ba4 F12 2.617869 1_554
Ba4 F6 2.733132 1_555
Ba4 F4 2.772235 1_555
Ba4 F13 2.804114 1_555
Ba4 F5 2.865017 1_555
Ba4 F26 2.877594 1_555
Ba4 F0 2.885507 1_655
Ba4 F23 3.056069 1_555
Ba4 F28 3.152030 1_655
Ba4 F1 3.172757 1_554
Ba4 F22 3.296598 1_555
Ba5 F17 2.658615 1_565
Ba5 F22 2.682780 1_455
Ba5 F5 2.731709 1_565
Ba5 F28 2.795723 1_555
Ba5 F2 2.876610 1_455
Ba5 F4 2.878869 1_455
Ba5 F26 2.908744 1_565
Ba5 F8 2.933187 1_565
Ba5 F3 3.034857 1_565
Ba5 F18 3.067631 1_555
Ba5 F30 3.131742 1_555
Ba5 F14 3.229830 1_565
Al0 F12 1.755302 1_555
Al0 F7 1.814372 1_555
Al0 F27 1.839443 1_555
Al0 F20 1.839965 1_555
Al0 F10 1.871631 1_555
Al0 F16 1.912591 1_555
Al1 F14 1.755288 1_555
Al1 F5 1.814372 1_555
Al1 F28 1.839439 1_555
Al1 F29 1.839965 1_555
Al1 F6 1.871630 1_455
Al1 F23 1.912587 1_555
Al2 F19 1.755288 1_555
Al2 F30 1.814372 1_555
Al2 F32 1.839446 1_555
Al2 F18 1.839965 1_555
Al2 F3 1.871629 1_565
Al2 F31 1.912587 1_555
F0 Ti4 2.120358 1_555
F0 Ti0 2.210272 1_554
F1 Ti0 1.982259 1_655
F2 Ti2 2.120358 1_555
F2 Ti3 2.210259 1_555
F3 Ti5 2.248781 1_555
F4 Ti3 2.047062 1_555
F6 Ti3 2.248777 1_545
F8 Ti5 2.047064 1_555
F9 Ti4 2.001381 1_545
F9 Ti3 2.073010 1_545
F10 Ti0 2.248770 1_655
F11 Ti1 2.120353 1_555
F11 Ti5 2.210272 1_555
F13 Ti4 2.063643 1_545
F15 Ti5 1.982251 1_555
F16 Ti0 2.212738 1_555
F16 Ti4 2.416604 1_556
F17 Ti2 2.001380 1_555
F17 Ti5 2.072996 1_555
F18 Ti2 2.131361 1_555
F20 Ti1 2.131361 1_555
F21 Ti1 2.063637 1_655
F22 Ti2 2.063637 1_555
F23 Ti3 2.212735 1_555
F23 Ti2 2.416604 1_555
F24 Ti1 2.001380 1_655
F24 Ti0 2.072996 1_655
F25 Ti0 2.047066 1_555
F26 Ti3 1.982257 1_545
F27 Ti1 2.319935 1_555
F28 Ti4 2.319921 1_555
F29 Ti4 2.131361 1_555
F31 Ti5 2.212735 1_555
F31 Ti1 2.416604 1_555
F32 Ti2 2.319920 1_555
