# generated using pymatgen
data_Ac3Tm
_symmetry_space_group_name_H-M   'P 1'
_cell_length_a   7.80169470
_cell_length_b   7.80169470
_cell_length_c   6.30910100
_cell_angle_alpha   90.00000000
_cell_angle_beta   90.00000000
_cell_angle_gamma   120.00000590
_symmetry_Int_Tables_number   1
_chemical_formula_structural   Ac3Tm
_chemical_formula_sum   'Ac6 Tm2'
_cell_volume   332.56457642
_cell_formula_units_Z   2
loop_
 _symmetry_equiv_pos_site_id
 _symmetry_equiv_pos_as_xyz
  1  'x, y, z'
loop_
 _atom_site_type_symbol
 _atom_site_label
 _atom_site_symmetry_multiplicity
 _atom_site_fract_x
 _atom_site_fract_y
 _atom_site_fract_z
 _atom_site_occupancy
  Ac  Ac0  1  0.17001600  0.34003200  0.25000000  1
  Ac  Ac1  1  0.65996800  0.82998400  0.25000000  1
  Ac  Ac2  1  0.17001600  0.82998400  0.25000000  1
  Ac  Ac3  1  0.82998400  0.65996800  0.75000000  1
  Ac  Ac4  1  0.34003200  0.17001600  0.75000000  1
  Ac  Ac5  1  0.82998400  0.17001600  0.75000000  1
  Tm  Tm0  1  0.33333300  0.66666700  0.75000000  1
  Tm  Tm1  1  0.66666700  0.33333300  0.25000000  1
loop_
_geom_bond_atom_site_label_1
_geom_bond_atom_site_label_2
_geom_bond_distance
_geom_bond_site_symmetry_2
Ac0 Ac1 3.822456 1_555
Ac0 Ac2 3.822456 1_555
Ac0 Tm0 3.849882 1_555
Ac0 Tm0 3.849882 1_554
Ac0 Tm1 3.901106 1_455
Ac0 Tm1 3.901114 1_555
Ac0 Ac5 3.902474 1_455
Ac0 Ac5 3.902474 1_454
Ac0 Ac4 3.902474 1_554
Ac0 Ac4 3.902474 1_555
Ac0 Ac1 3.979238 1_445
Ac0 Ac2 3.979239 1_545
Ac1 Ac2 3.822456 1_555
Ac1 Tm0 3.849882 1_555
Ac1 Tm0 3.849882 1_554
Ac1 Tm1 3.901106 1_565
Ac1 Tm1 3.901114 1_555
Ac1 Ac5 3.902474 1_565
Ac1 Ac5 3.902474 1_564
Ac1 Ac3 3.902474 1_554
Ac1 Ac3 3.902474 1_555
Ac1 Ac2 3.979239 1_655
Ac2 Tm0 3.849878 1_554
Ac2 Tm0 3.849878 1_555
Ac2 Tm1 3.901109 1_455
Ac2 Tm1 3.901109 1_565
Ac2 Ac4 3.902474 1_565
Ac2 Ac3 3.902474 1_455
Ac2 Ac3 3.902474 1_454
Ac2 Ac4 3.902474 1_564
Ac3 Ac4 3.822456 1_555
Ac3 Ac5 3.822456 1_555
Ac3 Tm1 3.849882 1_556
Ac3 Tm1 3.849882 1_555
Ac3 Tm0 3.901106 1_655
Ac3 Tm0 3.901114 1_555
Ac3 Ac4 3.979238 1_665
Ac3 Ac5 3.979239 1_565
Ac4 Ac5 3.822456 1_555
Ac4 Tm1 3.849882 1_556
Ac4 Tm1 3.849882 1_555
Ac4 Tm0 3.901106 1_545
Ac4 Tm0 3.901114 1_555
Ac4 Ac5 3.979239 1_455
Ac5 Tm1 3.849878 1_555
Ac5 Tm1 3.849878 1_556
Ac5 Tm0 3.901109 1_655
Ac5 Tm0 3.901109 1_545
