# generated using pymatgen
data_Rb4N2O7
_symmetry_space_group_name_H-M   'P 1'
_cell_length_a   4.25863900
_cell_length_b   4.72350096
_cell_length_c   16.15330032
_cell_angle_alpha   85.00145062
_cell_angle_beta   85.80564634
_cell_angle_gamma   67.80402618
_symmetry_Int_Tables_number   1
_chemical_formula_structural   Rb4N2O7
_chemical_formula_sum   'Rb4 N2 O7'
_cell_volume   299.42680297
_cell_formula_units_Z   1
loop_
 _symmetry_equiv_pos_site_id
 _symmetry_equiv_pos_as_xyz
  1  'x, y, z'
loop_
 _atom_site_type_symbol
 _atom_site_label
 _atom_site_symmetry_multiplicity
 _atom_site_fract_x
 _atom_site_fract_y
 _atom_site_fract_z
 _atom_site_occupancy
  Rb  Rb0  1  0.43091000  0.18347800  0.10525000  1
  Rb  Rb1  1  0.11981300  0.73712900  0.37907000  1
  Rb  Rb2  1  0.82641500  0.22303300  0.57350400  1
  Rb  Rb3  1  0.78675300  0.67010200  0.91498800  1
  N  N0  1  0.79394900  0.46969300  0.22479100  1
  N  N1  1  0.16881600  0.58480300  0.73815300  1
  O  O0  1  0.14503300  0.82168300  0.02830500  1
  O  O1  1  0.60610000  0.73607300  0.24534900  1
  O  O2  1  0.97754700  0.29438200  0.28148300  1
  O  O3  1  0.12076200  0.59749700  0.66317200  1
  O  O4  1  0.54126900  0.85119700  0.49404200  1
  O  O5  1  0.51329800  0.28600000  0.84280000  1
  O  O6  1  0.44534000  0.31893500  0.75908800  1
loop_
_geom_bond_atom_site_label_1
_geom_bond_atom_site_label_2
_geom_bond_distance
_geom_bond_site_symmetry_2
N0 O1 1.267622 1_555
N0 O2 1.272430 1_555
N0 Rb0 3.135677 1_655
N0 Rb0 3.227623 1_555
N1 O3 1.235633 1_555
N1 O6 1.394675 1_555
N1 Rb3 3.161406 1_455
O0 Rb3 2.766499 1_454
O0 Rb0 2.847971 1_565
O0 Rb0 2.984978 1_555
O0 Rb3 3.057763 1_554
O0 Rb0 3.099131 1_465
O1 Rb1 2.879968 1_555
O1 Rb0 2.892487 1_565
O1 Rb1 3.186419 1_655
O2 Rb1 2.827030 1_645
O2 Rb1 2.982793 1_655
O2 Rb0 3.285990 1_655
O3 Rb2 3.020105 1_465
O3 Rb2 3.030694 1_455
O3 Rb2 3.170328 1_555
O4 Rb1 2.883022 1_655
O4 Rb1 2.890234 1_555
O4 Rb2 2.905049 1_565
O4 Rb2 2.961090 1_555
O4 Rb2 3.127550 1_465
O5 O6 1.386738 1_555
O5 Rb3 2.858544 1_555
O5 Rb3 2.868288 1_545
O5 Rb3 3.134383 1_455
O6 Rb2 3.285605 1_555
