# generated using pymatgen
data_Li7Mn2(CoO4)3
_symmetry_space_group_name_H-M   'P 1'
_cell_length_a   2.91327400
_cell_length_b   8.32225400
_cell_length_c   9.75794964
_cell_angle_alpha   64.92222903
_cell_angle_beta   90.00000000
_cell_angle_gamma   90.00000000
_symmetry_Int_Tables_number   1
_chemical_formula_structural   Li7Mn2(CoO4)3
_chemical_formula_sum   'Li7 Mn2 Co3 O12'
_cell_volume   214.27978929
_cell_formula_units_Z   1
loop_
 _symmetry_equiv_pos_site_id
 _symmetry_equiv_pos_as_xyz
  1  'x, y, z'
loop_
 _atom_site_type_symbol
 _atom_site_label
 _atom_site_symmetry_multiplicity
 _atom_site_fract_x
 _atom_site_fract_y
 _atom_site_fract_z
 _atom_site_occupancy
  Li  Li0  1  0.00000000  0.31651500  0.33528300  1
  Li  Li1  1  0.00000000  0.68348500  0.66471700  1
  Li  Li2  1  0.00000000  0.00000000  0.00000000  1
  Li  Li3  1  0.50000000  0.83654900  0.82489700  1
  Li  Li4  1  0.50000000  0.16345100  0.17510300  1
  Li  Li5  1  0.50000000  0.50000000  0.50000000  1
  Li  Li6  1  0.50000000  0.00000000  0.50000000  1
  Mn  Mn0  1  0.00000000  0.15693000  0.66327800  1
  Mn  Mn1  1  0.00000000  0.84307000  0.33672200  1
  Co  Co0  1  0.00000000  0.50000000  0.00000000  1
  Co  Co1  1  0.50000000  0.66352400  0.16914900  1
  Co  Co2  1  0.50000000  0.33647600  0.83085100  1
  O  O0  1  0.00000000  0.93473300  0.66974500  1
  O  O1  1  0.00000000  0.26072300  0.98528600  1
  O  O2  1  0.00000000  0.60071700  0.32320200  1
  O  O3  1  0.50000000  0.42494700  0.15757600  1
  O  O4  1  0.50000000  0.75811900  0.48155500  1
  O  O5  1  0.50000000  0.09539200  0.81572500  1
  O  O6  1  0.00000000  0.73927700  0.01471400  1
  O  O7  1  0.00000000  0.06526700  0.33025500  1
  O  O8  1  0.00000000  0.39928300  0.67679800  1
  O  O9  1  0.50000000  0.24188100  0.51844500  1
  O  O10  1  0.50000000  0.57505300  0.84242400  1
  O  O11  1  0.50000000  0.90460800  0.18427500  1
loop_
_geom_bond_atom_site_label_1
_geom_bond_atom_site_label_2
_geom_bond_distance
_geom_bond_site_symmetry_2
Li0 O7 2.112212 1_555
Li0 O3 2.148623 1_455
Li0 O3 2.148623 1_555
Li0 O9 2.181955 1_455
Li0 O9 2.181955 1_555
Li0 O2 2.317696 1_555
Li1 O0 2.112212 1_555
Li1 O10 2.148623 1_455
Li1 O10 2.148623 1_555
Li1 O4 2.181955 1_455
Li1 O4 2.181955 1_555
Li1 O8 2.317696 1_555
Li2 O1 2.112953 1_554
Li2 O6 2.112953 1_545
Li2 O11 2.185239 1_445
Li2 O11 2.185239 1_545
Li2 O5 2.185239 1_554
Li2 O5 2.185239 1_454
Li3 O0 2.008205 1_555
Li3 O0 2.008205 1_655
Li3 O10 2.109442 1_555
Li3 O5 2.117775 1_565
Li3 O6 2.221892 1_656
Li3 O6 2.221892 1_556
Li4 O7 2.008205 1_655
Li4 O7 2.008205 1_555
Li4 O3 2.109442 1_555
Li4 O11 2.117775 1_545
Li4 O1 2.221892 1_654
Li4 O1 2.221892 1_554
Li5 O4 2.078249 1_555
Li5 O9 2.078249 1_555
Li5 O2 2.138884 1_555
Li5 O8 2.138884 1_555
Li5 O8 2.138884 1_655
Li5 O2 2.138884 1_655
Li6 O9 2.095632 1_555
Li6 O4 2.095632 1_545
Li6 O0 2.097070 1_645
Li6 O0 2.097070 1_545
Li6 O7 2.097070 1_555
Li6 O7 2.097070 1_655
Mn0 O0 1.823329 1_545
Mn0 O9 1.942157 1_455
Mn0 O9 1.942157 1_555
Mn0 O5 1.987746 1_455
Mn0 O5 1.987746 1_555
Mn0 O8 2.076282 1_555
Mn1 O7 1.823329 1_565
Mn1 O4 1.942157 1_455
Mn1 O4 1.942157 1_555
Mn1 O11 1.987746 1_555
Mn1 O11 1.987746 1_455
Mn1 O2 2.076282 1_555
Co0 O3 2.015456 1_455
Co0 O3 2.015456 1_555
Co0 O10 2.015456 1_554
Co0 O10 2.015456 1_454
Co0 O6 2.056296 1_555
Co0 O1 2.056296 1_554
Co1 O6 1.996208 1_655
Co1 O6 1.996208 1_555
Co1 O2 1.997165 1_555
Co1 O2 1.997165 1_655
Co1 O3 2.035934 1_555
Co1 O11 2.073236 1_555
Co2 O1 1.996208 1_655
Co2 O1 1.996208 1_555
Co2 O8 1.997165 1_555
Co2 O8 1.997165 1_655
Co2 O10 2.035934 1_555
Co2 O5 2.073236 1_555
