# generated using pymatgen
data_KBaSrMnO6
_symmetry_space_group_name_H-M   'P 1'
_cell_length_a   8.58701413
_cell_length_b   8.65606910
_cell_length_c   8.66547308
_cell_angle_alpha   90.00000000
_cell_angle_beta   90.00000000
_cell_angle_gamma   90.00000000
_symmetry_Int_Tables_number   1
_chemical_formula_structural   KBaSrMnO6
_chemical_formula_sum   'K4 Ba4 Sr4 Mn4 O24'
_cell_volume   644.10277411
_cell_formula_units_Z   4
loop_
 _symmetry_equiv_pos_site_id
 _symmetry_equiv_pos_as_xyz
  1  'x, y, z'
loop_
 _atom_site_type_symbol
 _atom_site_label
 _atom_site_symmetry_multiplicity
 _atom_site_fract_x
 _atom_site_fract_y
 _atom_site_fract_z
 _atom_site_occupancy
  K  K0  1  0.00000000  0.50000000  0.50000000  1
  K  K1  1  0.50000000  -0.00000000  0.50000000  1
  K  K2  1  0.50000000  -0.00000000  -0.00000000  1
  K  K3  1  0.00000000  0.50000000  -0.00000000  1
  Ba  Ba0  1  0.50000000  0.50000000  -0.00000000  1
  Ba  Ba1  1  0.00000000  -0.00000000  0.50000000  1
  Ba  Ba2  1  0.00000000  -0.00000000  -0.00000000  1
  Ba  Ba3  1  0.50000000  0.50000000  0.50000000  1
  Sr  Sr0  1  0.25000000  0.25000000  0.25000000  1
  Sr  Sr1  1  0.75000000  0.75000000  0.25000000  1
  Sr  Sr2  1  0.75000000  0.25000000  0.75000000  1
  Sr  Sr3  1  0.25000000  0.75000000  0.75000000  1
  Mn  Mn0  1  0.75000000  0.75000000  0.75000000  1
  Mn  Mn1  1  0.25000000  0.25000000  0.75000000  1
  Mn  Mn2  1  0.25000000  0.75000000  0.25000000  1
  Mn  Mn3  1  0.75000000  0.25000000  0.25000000  1
  O  O0  1  0.96800829  0.21940441  0.26428732  1
  O  O1  1  0.03199171  0.78059559  0.26428732  1
  O  O2  1  0.03199171  0.21940441  0.73571268  1
  O  O3  1  0.96800829  0.78059559  0.73571268  1
  O  O4  1  0.25405747  0.96828866  0.22974054  1
  O  O5  1  0.25405747  0.03171134  0.77025946  1
  O  O6  1  0.74594253  0.03171134  0.22974054  1
  O  O7  1  0.74594253  0.96828866  0.77025946  1
  O  O8  1  0.23314841  0.26563214  0.96785838  1
  O  O9  1  0.76685159  0.26563214  0.03214162  1
  O  O10  1  0.23314841  0.73436786  0.03214162  1
  O  O11  1  0.76685159  0.73436786  0.96785838  1
  O  O12  1  0.53199171  0.28059559  0.23571268  1
  O  O13  1  0.46800829  0.71940441  0.23571268  1
  O  O14  1  0.46800829  0.28059559  0.76428732  1
  O  O15  1  0.53199171  0.71940441  0.76428732  1
  O  O16  1  0.24594253  0.53171134  0.27025946  1
  O  O17  1  0.24594253  0.46828866  0.72974054  1
  O  O18  1  0.75405747  0.46828866  0.27025946  1
  O  O19  1  0.75405747  0.53171134  0.72974054  1
  O  O20  1  0.26685159  0.23436786  0.53214162  1
  O  O21  1  0.73314841  0.23436786  0.46785838  1
  O  O22  1  0.26685159  0.76563214  0.46785838  1
  O  O23  1  0.73314841  0.76563214  0.53214162  1
loop_
_geom_bond_atom_site_label_1
_geom_bond_atom_site_label_2
_geom_bond_distance
_geom_bond_site_symmetry_2
K0 O19 2.915278 1_455
K0 O16 2.915278 1_555
K0 O17 2.915278 1_555
K0 O18 2.915278 1_455
K0 O3 3.185414 1_455
K0 O0 3.185414 1_455
K0 O2 3.185414 1_555
K0 O1 3.185414 1_555
K0 O20 3.258109 1_555
K0 O21 3.258109 1_455
K0 O22 3.258109 1_555
K0 O23 3.258109 1_455
K1 O23 2.863811 1_545
K1 O22 2.863811 1_545
K1 O20 2.863811 1_555
K1 O21 2.863811 1_555
K1 O4 3.165460 1_545
K1 O6 3.165460 1_555
K1 O5 3.165460 1_555
K1 O7 3.165460 1_545
K1 O15 3.349583 1_545
K1 O14 3.349583 1_555
K1 O13 3.349583 1_545
K1 O12 3.349583 1_555
K2 O7 2.915278 1_544
K2 O6 2.915278 1_555
K2 O4 2.915278 1_545
K2 O5 2.915278 1_554
K2 O12 3.185414 1_555
K2 O13 3.185414 1_545
K2 O15 3.185414 1_544
K2 O14 3.185414 1_554
K2 O8 3.258109 1_554
K2 O11 3.258109 1_544
K2 O10 3.258109 1_545
K2 O9 3.258109 1_555
K3 O10 2.863811 1_555
K3 O11 2.863811 1_454
K3 O8 2.863811 1_554
K3 O9 2.863811 1_455
K3 O17 3.165460 1_554
K3 O18 3.165460 1_455
K3 O19 3.165460 1_454
K3 O16 3.165460 1_555
K3 O1 3.349583 1_555
K3 O2 3.349583 1_554
K3 O0 3.349583 1_455
K3 O3 3.349583 1_454
Ba0 O12 2.802572 1_555
Ba0 O14 2.802572 1_554
Ba0 O15 2.802572 1_554
Ba0 O13 2.802572 1_555
Ba0 O11 3.073109 1_554
Ba0 O8 3.073109 1_554
Ba0 O10 3.073109 1_555
Ba0 O9 3.073109 1_555
Ba0 O18 3.212370 1_555
Ba0 O19 3.212370 1_554
Ba0 O16 3.212370 1_555
Ba0 O17 3.212370 1_554
Ba1 O2 2.802572 1_555
Ba1 O3 2.802572 1_445
Ba1 O1 2.802572 1_545
Ba1 O0 2.802572 1_455
Ba1 O22 3.073109 1_545
Ba1 O23 3.073109 1_445
Ba1 O20 3.073109 1_555
Ba1 O21 3.073109 1_455
Ba1 O5 3.212370 1_555
Ba1 O4 3.212370 1_545
Ba1 O7 3.212370 1_445
Ba1 O6 3.212370 1_455
Ba2 O4 2.966148 1_545
Ba2 O5 2.966148 1_554
Ba2 O7 2.966148 1_444
Ba2 O6 2.966148 1_455
Ba2 O1 2.987851 1_545
Ba2 O2 2.987851 1_554
Ba2 O0 2.987851 1_455
Ba2 O3 2.987851 1_444
Ba2 O11 3.061485 1_444
Ba2 O10 3.061485 1_545
Ba2 O8 3.061485 1_554
Ba2 O9 3.061485 1_455
Ba3 O18 2.966148 1_555
Ba3 O19 2.966148 1_555
Ba3 O16 2.966148 1_555
Ba3 O17 2.966148 1_555
Ba3 O14 2.987851 1_555
Ba3 O15 2.987851 1_555
Ba3 O13 2.987851 1_555
Ba3 O12 2.987851 1_555
Ba3 O20 3.061485 1_555
Ba3 O23 3.061485 1_555
Ba3 O21 3.061485 1_555
Ba3 O22 3.061485 1_555
Mn0 O3 1.894730 1_555
Mn0 O15 1.894730 1_555
Mn0 O7 1.897980 1_555
Mn0 O19 1.897980 1_555
Mn0 O11 1.898213 1_555
Mn0 O23 1.898213 1_555
Mn1 O2 1.894730 1_555
Mn1 O14 1.894730 1_555
Mn1 O5 1.897980 1_555
Mn1 O17 1.897980 1_555
Mn1 O20 1.898213 1_555
Mn1 O8 1.898213 1_555
Mn2 O13 1.894730 1_555
Mn2 O1 1.894730 1_555
Mn2 O4 1.897980 1_555
Mn2 O16 1.897980 1_555
Mn2 O10 1.898213 1_555
Mn2 O22 1.898213 1_555
Mn3 O12 1.894730 1_555
Mn3 O0 1.894730 1_555
Mn3 O6 1.897980 1_555
Mn3 O18 1.897980 1_555
Mn3 O9 1.898213 1_555
Mn3 O21 1.898213 1_555
O0 Sr0 2.439051 1_655
O1 Sr1 2.439051 1_455
O2 Sr2 2.439051 1_455
O3 Sr3 2.439051 1_655
O4 Sr0 2.445072 1_565
O5 Sr3 2.445072 1_545
O6 Sr1 2.445072 1_545
O7 Sr2 2.445072 1_565
O8 Sr0 2.452904 1_556
O9 Sr2 2.452904 1_554
O10 Sr3 2.452904 1_554
O11 Sr1 2.452904 1_556
O12 Sr0 2.439051 1_555
O13 Sr1 2.439051 1_555
O14 Sr2 2.439051 1_555
O15 Sr3 2.439051 1_555
O16 Sr0 2.445072 1_555
O17 Sr3 2.445072 1_555
O18 Sr1 2.445072 1_555
O19 Sr2 2.445072 1_555
O20 Sr0 2.452904 1_555
O21 Sr2 2.452904 1_555
O22 Sr3 2.452904 1_555
O23 Sr1 2.452904 1_555
