# generated using pymatgen
data_Mg2Ti
_symmetry_space_group_name_H-M   'P 1'
_cell_length_a   16.49815724
_cell_length_b   16.49815724
_cell_length_c   10.12598200
_cell_angle_alpha   90.00000000
_cell_angle_beta   90.00000000
_cell_angle_gamma   158.97912095
_symmetry_Int_Tables_number   1
_chemical_formula_structural   Mg2Ti
_chemical_formula_sum   'Mg32 Ti16'
_cell_volume   988.66520085
_cell_formula_units_Z   16
loop_
 _symmetry_equiv_pos_site_id
 _symmetry_equiv_pos_as_xyz
  1  'x, y, z'
loop_
 _atom_site_type_symbol
 _atom_site_label
 _atom_site_symmetry_multiplicity
 _atom_site_fract_x
 _atom_site_fract_y
 _atom_site_fract_z
 _atom_site_occupancy
  Mg  Mg0_0  1  0.00240550  0.49759450  0.00000000  1
  Mg  Mg0_1  1  0.00240550  0.49759450  0.50000000  1
  Mg  Mg0_2  1  0.00240550  0.99759450  0.00000000  1
  Mg  Mg0_3  1  0.00240550  0.99759450  0.50000000  1
  Mg  Mg0_4  1  0.50240550  0.49759450  0.00000000  1
  Mg  Mg0_5  1  0.50240550  0.49759450  0.50000000  1
  Mg  Mg0_6  1  0.50240550  0.99759450  0.00000000  1
  Mg  Mg0_7  1  0.50240550  0.99759450  0.50000000  1
  Mg  Mg1_0  1  0.16438200  0.33561800  0.00000000  1
  Mg  Mg1_1  1  0.16438200  0.33561800  0.50000000  1
  Mg  Mg1_2  1  0.16438200  0.83561800  0.00000000  1
  Mg  Mg1_3  1  0.16438200  0.83561800  0.50000000  1
  Mg  Mg1_4  1  0.66438200  0.33561800  0.00000000  1
  Mg  Mg1_5  1  0.66438200  0.33561800  0.50000000  1
  Mg  Mg1_6  1  0.66438200  0.83561800  0.00000000  1
  Mg  Mg1_7  1  0.66438200  0.83561800  0.50000000  1
  Mg  Mg2_0  1  0.33414400  0.16585600  0.00000000  1
  Mg  Mg2_1  1  0.33414400  0.16585600  0.50000000  1
  Mg  Mg2_2  1  0.33414400  0.66585600  0.00000000  1
  Mg  Mg2_3  1  0.33414400  0.66585600  0.50000000  1
  Mg  Mg2_4  1  0.83414400  0.16585600  0.00000000  1
  Mg  Mg2_5  1  0.83414400  0.16585600  0.50000000  1
  Mg  Mg2_6  1  0.83414400  0.66585600  0.00000000  1
  Mg  Mg2_7  1  0.83414400  0.66585600  0.50000000  1
  Mg  Mg3_0  1  0.22127500  0.27872500  0.25000000  1
  Mg  Mg3_1  1  0.22127500  0.27872500  0.75000000  1
  Mg  Mg3_2  1  0.22127500  0.77872500  0.25000000  1
  Mg  Mg3_3  1  0.22127500  0.77872500  0.75000000  1
  Mg  Mg3_4  1  0.72127500  0.27872500  0.25000000  1
  Mg  Mg3_5  1  0.72127500  0.27872500  0.75000000  1
  Mg  Mg3_6  1  0.72127500  0.77872500  0.25000000  1
  Mg  Mg3_7  1  0.72127500  0.77872500  0.75000000  1
  Ti  Ti0_0  1  0.38251750  0.11748250  0.25000000  1
  Ti  Ti0_1  1  0.38251750  0.11748250  0.75000000  1
  Ti  Ti0_2  1  0.38251750  0.61748250  0.25000000  1
  Ti  Ti0_3  1  0.38251750  0.61748250  0.75000000  1
  Ti  Ti0_4  1  0.88251750  0.11748250  0.25000000  1
  Ti  Ti0_5  1  0.88251750  0.11748250  0.75000000  1
  Ti  Ti0_6  1  0.88251750  0.61748250  0.25000000  1
  Ti  Ti0_7  1  0.88251750  0.61748250  0.75000000  1
  Ti  Ti1_0  1  0.06194250  0.43805750  0.25000000  1
  Ti  Ti1_1  1  0.06194250  0.43805750  0.75000000  1
  Ti  Ti1_2  1  0.06194250  0.93805750  0.25000000  1
  Ti  Ti1_3  1  0.06194250  0.93805750  0.75000000  1
  Ti  Ti1_4  1  0.56194250  0.43805750  0.25000000  1
  Ti  Ti1_5  1  0.56194250  0.43805750  0.75000000  1
  Ti  Ti1_6  1  0.56194250  0.93805750  0.25000000  1
  Ti  Ti1_7  1  0.56194250  0.93805750  0.75000000  1
loop_
_geom_bond_atom_site_label_1
_geom_bond_atom_site_label_2
_geom_bond_distance
_geom_bond_site_symmetry_2
Mg0_0 Mg0_6 3.009506 1_445
Mg0_0 Mg0_6 3.009506 1_555
Mg0_0 Mg2_2 3.049002 1_555
Mg0_0 Mg2_4 3.049002 1_455
Mg0_0 Mg3_3 3.113321 1_554
Mg0_0 Mg3_2 3.113321 1_555
Mg0_0 Mg3_4 3.113321 1_455
Mg0_0 Mg3_5 3.113321 1_454
Mg0_0 Ti1_0 3.184230 1_555
Mg0_0 Ti1_1 3.184230 1_554
Mg0_0 Mg1_2 3.227912 1_555
Mg0_0 Mg1_4 3.227912 1_455
Mg0_1 Mg0_7 3.009506 1_445
Mg0_1 Mg0_7 3.009506 1_555
Mg0_1 Mg2_3 3.049002 1_555
Mg0_1 Mg2_5 3.049002 1_455
Mg0_1 Mg3_3 3.113321 1_555
Mg0_1 Mg3_2 3.113321 1_555
Mg0_1 Mg3_4 3.113321 1_455
Mg0_1 Mg3_5 3.113321 1_455
Mg0_1 Ti1_0 3.184230 1_555
Mg0_1 Ti1_1 3.184230 1_555
Mg0_1 Mg1_3 3.227912 1_555
Mg0_1 Mg1_5 3.227912 1_455
Mg0_2 Mg0_4 3.009506 1_565
Mg0_2 Mg0_4 3.009506 1_455
Mg0_2 Mg2_0 3.049002 1_565
Mg0_2 Mg2_6 3.049002 1_455
Mg0_2 Mg3_1 3.113321 1_564
Mg0_2 Mg3_6 3.113321 1_455
Mg0_2 Mg3_0 3.113321 1_565
Mg0_2 Mg3_7 3.113321 1_454
Mg0_2 Ti1_2 3.184230 1_555
Mg0_2 Ti1_3 3.184230 1_554
Mg0_2 Mg1_6 3.227912 1_455
Mg0_2 Mg1_0 3.227912 1_565
Mg0_3 Mg0_5 3.009506 1_565
Mg0_3 Mg0_5 3.009506 1_455
Mg0_3 Mg2_1 3.049002 1_565
Mg0_3 Mg2_7 3.049002 1_455
Mg0_3 Mg3_7 3.113321 1_455
Mg0_3 Mg3_6 3.113321 1_455
Mg0_3 Mg3_1 3.113321 1_565
Mg0_3 Mg3_0 3.113321 1_565
Mg0_3 Ti1_2 3.184230 1_555
Mg0_3 Ti1_3 3.184230 1_555
Mg0_3 Mg1_7 3.227912 1_455
Mg0_3 Mg1_1 3.227912 1_565
Mg0_4 Mg2_0 3.049002 1_555
Mg0_4 Mg2_6 3.049002 1_555
Mg0_4 Mg3_0 3.113321 1_555
Mg0_4 Mg3_1 3.113321 1_554
Mg0_4 Mg3_7 3.113321 1_554
Mg0_4 Mg3_6 3.113321 1_555
Mg0_4 Ti1_4 3.184230 1_555
Mg0_4 Ti1_5 3.184230 1_554
Mg0_4 Mg1_6 3.227912 1_555
Mg0_4 Mg1_0 3.227912 1_555
Mg0_5 Mg2_1 3.049002 1_555
Mg0_5 Mg2_7 3.049002 1_555
Mg0_5 Mg3_0 3.113321 1_555
Mg0_5 Mg3_1 3.113321 1_555
Mg0_5 Mg3_7 3.113321 1_555
Mg0_5 Mg3_6 3.113321 1_555
Mg0_5 Ti1_5 3.184230 1_555
Mg0_5 Ti1_4 3.184230 1_555
Mg0_5 Mg1_7 3.227912 1_555
Mg0_5 Mg1_1 3.227912 1_555
Mg0_6 Mg2_4 3.049002 1_565
Mg0_6 Mg2_2 3.049002 1_555
Mg0_6 Mg3_4 3.113321 1_565
Mg0_6 Mg3_5 3.113321 1_564
Mg0_6 Mg3_2 3.113321 1_555
Mg0_6 Mg3_3 3.113321 1_554
Mg0_6 Ti1_6 3.184230 1_555
Mg0_6 Ti1_7 3.184230 1_554
Mg0_6 Mg1_2 3.227912 1_555
Mg0_6 Mg1_4 3.227912 1_565
Mg0_7 Mg2_5 3.049002 1_565
Mg0_7 Mg2_3 3.049002 1_555
Mg0_7 Mg3_4 3.113321 1_565
Mg0_7 Mg3_5 3.113321 1_565
Mg0_7 Mg3_3 3.113321 1_555
Mg0_7 Mg3_2 3.113321 1_555
Mg0_7 Ti1_7 3.184230 1_555
Mg0_7 Ti1_6 3.184230 1_555
Mg0_7 Mg1_3 3.227912 1_555
Mg0_7 Mg1_5 3.227912 1_565
Mg1_0 Mg2_2 3.006759 1_555
Mg1_0 Mg2_4 3.006759 1_455
Mg1_0 Mg1_6 3.009506 1_445
Mg1_0 Mg1_6 3.009506 1_555
Mg1_0 Ti0_3 3.121127 1_554
Mg1_0 Ti0_2 3.121127 1_555
Mg1_0 Ti0_5 3.121127 1_454
Mg1_0 Ti0_4 3.121127 1_455
Mg1_0 Mg3_1 3.132939 1_554
Mg1_0 Mg3_0 3.132939 1_555
Mg1_1 Mg2_3 3.006759 1_555
Mg1_1 Mg2_5 3.006759 1_455
Mg1_1 Mg1_7 3.009506 1_445
Mg1_1 Mg1_7 3.009506 1_555
Mg1_1 Ti0_3 3.121127 1_555
Mg1_1 Ti0_2 3.121127 1_555
Mg1_1 Ti0_4 3.121127 1_455
Mg1_1 Ti0_5 3.121127 1_455
Mg1_1 Mg3_1 3.132939 1_555
Mg1_1 Mg3_0 3.132939 1_555
Mg1_2 Mg2_6 3.006759 1_455
Mg1_2 Mg2_0 3.006759 1_565
Mg1_2 Mg1_4 3.009506 1_565
Mg1_2 Mg1_4 3.009506 1_455
Mg1_2 Ti0_1 3.121127 1_564
Mg1_2 Ti0_0 3.121127 1_565
Mg1_2 Ti0_7 3.121127 1_454
Mg1_2 Ti0_6 3.121127 1_455
Mg1_2 Mg3_3 3.132939 1_554
Mg1_2 Mg3_2 3.132939 1_555
Mg1_3 Mg2_7 3.006759 1_455
Mg1_3 Mg2_1 3.006759 1_565
Mg1_3 Mg1_5 3.009506 1_565
Mg1_3 Mg1_5 3.009506 1_455
Mg1_3 Ti0_0 3.121127 1_565
Mg1_3 Ti0_1 3.121127 1_565
Mg1_3 Ti0_7 3.121127 1_455
Mg1_3 Ti0_6 3.121127 1_455
Mg1_3 Mg3_2 3.132939 1_555
Mg1_3 Mg3_3 3.132939 1_555
Mg1_4 Mg2_6 3.006759 1_555
Mg1_4 Mg2_0 3.006759 1_555
Mg1_4 Ti0_0 3.121127 1_555
Mg1_4 Ti0_1 3.121127 1_554
Mg1_4 Ti0_7 3.121127 1_554
Mg1_4 Ti0_6 3.121127 1_555
Mg1_4 Mg3_5 3.132939 1_554
Mg1_4 Mg3_4 3.132939 1_555
Mg1_5 Mg2_7 3.006759 1_555
Mg1_5 Mg2_1 3.006759 1_555
Mg1_5 Ti0_0 3.121127 1_555
Mg1_5 Ti0_1 3.121127 1_555
Mg1_5 Ti0_6 3.121127 1_555
Mg1_5 Ti0_7 3.121127 1_555
Mg1_5 Mg3_5 3.132939 1_555
Mg1_5 Mg3_4 3.132939 1_555
Mg1_6 Mg2_4 3.006759 1_565
Mg1_6 Mg2_2 3.006759 1_555
Mg1_6 Ti0_4 3.121127 1_565
Mg1_6 Ti0_2 3.121127 1_555
Mg1_6 Ti0_3 3.121127 1_554
Mg1_6 Ti0_5 3.121127 1_564
Mg1_6 Mg3_7 3.132939 1_554
Mg1_6 Mg3_6 3.132939 1_555
Mg1_7 Mg2_5 3.006759 1_565
Mg1_7 Mg2_3 3.006759 1_555
Mg1_7 Ti0_5 3.121127 1_565
Mg1_7 Ti0_4 3.121127 1_565
Mg1_7 Ti0_2 3.121127 1_555
Mg1_7 Ti0_3 3.121127 1_555
Mg1_7 Mg3_6 3.132939 1_555
Mg1_7 Mg3_7 3.132939 1_555
Mg2_0 Ti0_0 2.978486 1_555
Mg2_0 Ti0_1 2.978486 1_554
Mg2_0 Mg2_6 3.009506 1_445
Mg2_0 Mg2_6 3.009506 1_555
Mg2_0 Ti1_3 3.031757 1_544
Mg2_0 Ti1_2 3.031757 1_545
Mg2_0 Ti1_5 3.031757 1_554
Mg2_0 Ti1_4 3.031757 1_555
Mg2_1 Ti0_0 2.978486 1_555
Mg2_1 Ti0_1 2.978486 1_555
Mg2_1 Mg2_7 3.009506 1_445
Mg2_1 Mg2_7 3.009506 1_555
Mg2_1 Ti1_5 3.031757 1_555
Mg2_1 Ti1_2 3.031757 1_545
Mg2_1 Ti1_3 3.031757 1_545
Mg2_1 Ti1_4 3.031757 1_555
Mg2_2 Ti0_2 2.978486 1_555
Mg2_2 Ti0_3 2.978486 1_554
Mg2_2 Mg2_4 3.009506 1_565
Mg2_2 Mg2_4 3.009506 1_455
Mg2_2 Ti1_6 3.031757 1_555
Mg2_2 Ti1_1 3.031757 1_554
Mg2_2 Ti1_0 3.031757 1_555
Mg2_2 Ti1_7 3.031757 1_554
Mg2_3 Ti0_2 2.978486 1_555
Mg2_3 Ti0_3 2.978486 1_555
Mg2_3 Mg2_5 3.009506 1_455
Mg2_3 Mg2_5 3.009506 1_565
Mg2_3 Ti1_6 3.031757 1_555
Mg2_3 Ti1_0 3.031757 1_555
Mg2_3 Ti1_7 3.031757 1_555
Mg2_3 Ti1_1 3.031757 1_555
Mg2_4 Ti0_5 2.978486 1_554
Mg2_4 Ti0_4 2.978486 1_555
Mg2_4 Ti1_6 3.031757 1_545
Mg2_4 Ti1_7 3.031757 1_544
Mg2_4 Ti1_0 3.031757 1_655
Mg2_4 Ti1_1 3.031757 1_654
Mg2_5 Ti0_4 2.978486 1_555
Mg2_5 Ti0_5 2.978486 1_555
Mg2_5 Ti1_6 3.031757 1_545
Mg2_5 Ti1_7 3.031757 1_545
Mg2_5 Ti1_0 3.031757 1_655
Mg2_5 Ti1_1 3.031757 1_655
Mg2_6 Ti0_7 2.978486 1_554
Mg2_6 Ti0_6 2.978486 1_555
Mg2_6 Ti1_3 3.031757 1_654
Mg2_6 Ti1_2 3.031757 1_655
Mg2_6 Ti1_5 3.031757 1_554
Mg2_6 Ti1_4 3.031757 1_555
Mg2_7 Ti0_7 2.978486 1_555
Mg2_7 Ti0_6 2.978486 1_555
Mg2_7 Ti1_3 3.031757 1_655
Mg2_7 Ti1_2 3.031757 1_655
Mg2_7 Ti1_4 3.031757 1_555
Mg2_7 Ti1_5 3.031757 1_555
Mg3_0 Mg3_6 3.009506 1_445
Mg3_0 Mg3_6 3.009506 1_555
Mg3_0 Ti0_2 3.248998 1_555
Mg3_0 Ti0_4 3.248998 1_455
Mg3_0 Ti1_2 3.304042 1_545
Mg3_0 Ti1_4 3.304042 1_555
Mg3_1 Mg3_7 3.009506 1_445
Mg3_1 Mg3_7 3.009506 1_555
Mg3_1 Ti0_3 3.248998 1_555
Mg3_1 Ti0_5 3.248998 1_455
Mg3_1 Ti1_3 3.304042 1_545
Mg3_1 Ti1_5 3.304042 1_555
Mg3_2 Mg3_4 3.009506 1_565
Mg3_2 Mg3_4 3.009506 1_455
Mg3_2 Ti0_0 3.248998 1_565
Mg3_2 Ti0_6 3.248998 1_455
Mg3_2 Ti1_0 3.304042 1_555
Mg3_2 Ti1_6 3.304042 1_555
Mg3_3 Mg3_5 3.009506 1_565
Mg3_3 Mg3_5 3.009506 1_455
Mg3_3 Ti0_1 3.248998 1_565
Mg3_3 Ti0_7 3.248998 1_455
Mg3_3 Ti1_1 3.304042 1_555
Mg3_3 Ti1_7 3.304042 1_555
Mg3_4 Ti0_0 3.248998 1_555
Mg3_4 Ti0_6 3.248998 1_555
Mg3_4 Ti1_6 3.304042 1_545
Mg3_4 Ti1_0 3.304042 1_655
Mg3_5 Ti0_1 3.248998 1_555
Mg3_5 Ti0_7 3.248998 1_555
Mg3_5 Ti1_7 3.304042 1_545
Mg3_5 Ti1_1 3.304042 1_655
Mg3_6 Ti0_2 3.248998 1_555
Mg3_6 Ti0_4 3.248998 1_565
Mg3_6 Ti1_2 3.304042 1_655
Mg3_6 Ti1_4 3.304042 1_555
Mg3_7 Ti0_3 3.248998 1_555
Mg3_7 Ti0_5 3.248998 1_565
Mg3_7 Ti1_3 3.304042 1_655
Mg3_7 Ti1_5 3.304042 1_555
Ti0_0 Ti1_4 2.739844 1_555
Ti0_0 Ti1_2 2.739844 1_545
Ti0_0 Ti0_6 3.009506 1_445
Ti0_0 Ti0_6 3.009506 1_555
Ti0_1 Ti1_5 2.739844 1_555
Ti0_1 Ti1_3 2.739844 1_545
Ti0_1 Ti0_7 3.009506 1_445
Ti0_1 Ti0_7 3.009506 1_555
Ti0_2 Ti1_0 2.739844 1_555
Ti0_2 Ti1_6 2.739844 1_555
Ti0_2 Ti0_4 3.009506 1_455
Ti0_2 Ti0_4 3.009506 1_565
Ti0_3 Ti1_7 2.739844 1_555
Ti0_3 Ti1_1 2.739844 1_555
Ti0_3 Ti0_5 3.009506 1_455
Ti0_3 Ti0_5 3.009506 1_565
Ti0_4 Ti1_6 2.739844 1_545
Ti0_4 Ti1_0 2.739844 1_655
Ti0_5 Ti1_7 2.739844 1_545
Ti0_5 Ti1_1 2.739844 1_655
Ti0_6 Ti1_2 2.739844 1_655
Ti0_6 Ti1_4 2.739844 1_555
Ti0_7 Ti1_3 2.739844 1_655
Ti0_7 Ti1_5 2.739844 1_555
Ti1_0 Ti1_6 3.009506 1_445
Ti1_0 Ti1_6 3.009506 1_555
Ti1_1 Ti1_7 3.009506 1_445
Ti1_1 Ti1_7 3.009506 1_555
Ti1_2 Ti1_4 3.009506 1_565
Ti1_2 Ti1_4 3.009506 1_455
Ti1_3 Ti1_5 3.009506 1_455
Ti1_3 Ti1_5 3.009506 1_565
