# generated using pymatgen
data_Li2TiCrO4
_symmetry_space_group_name_H-M   'P 1'
_cell_length_a   5.92290644
_cell_length_b   8.71427879
_cell_length_c   5.92285752
_cell_angle_alpha   89.05530692
_cell_angle_beta   90.05003998
_cell_angle_gamma   89.05108956
_symmetry_Int_Tables_number   1
_chemical_formula_structural   Li2TiCrO4
_chemical_formula_sum   'Li8 Ti4 Cr4 O16'
_cell_volume   305.61785554
_cell_formula_units_Z   4
loop_
 _symmetry_equiv_pos_site_id
 _symmetry_equiv_pos_as_xyz
  1  'x, y, z'
loop_
 _atom_site_type_symbol
 _atom_site_label
 _atom_site_symmetry_multiplicity
 _atom_site_fract_x
 _atom_site_fract_y
 _atom_site_fract_z
 _atom_site_occupancy
  Li  Li0  1  0.25360700  0.25741800  0.74982800  1
  Li  Li1  1  0.75858100  0.75199000  0.24777400  1
  Li  Li2  1  0.00023400  0.99269400  0.49630200  1
  Li  Li3  1  0.50227600  0.49801400  0.99135900  1
  Li  Li4  1  0.25543000  0.25605100  0.25042600  1
  Li  Li5  1  0.74835900  0.74521900  0.75375900  1
  Li  Li6  1  0.49953800  0.99390400  0.49459300  1
  Li  Li7  1  0.99609900  0.50474300  0.00154000  1
  Ti  Ti0  1  0.74963800  0.24621200  0.76072600  1
  Ti  Ti1  1  0.25934700  0.74351200  0.24646400  1
  Ti  Ti2  1  0.98932000  0.00384900  0.00034400  1
  Ti  Ti3  1  0.50369100  0.50654600  0.49059600  1
  Cr  Cr0  1  0.99790400  0.50131000  0.50443900  1
  Cr  Cr1  1  0.24490700  0.74864800  0.75236200  1
  Cr  Cr2  1  0.49450800  0.99623700  0.99401800  1
  Cr  Cr3  1  0.75641100  0.25369300  0.25600600  1
  O  O0  1  0.75930600  0.98609000  0.22600200  1
  O  O1  1  0.25208300  0.51343700  0.73194600  1
  O  O2  1  0.52414400  0.26386600  0.99085500  1
  O  O3  1  0.01793800  0.73661700  0.49786200  1
  O  O4  1  0.98998800  0.26727400  0.51625200  1
  O  O5  1  0.47471500  0.73253400  0.00593500  1
  O  O6  1  0.74408300  0.51748500  0.27504100  1
  O  O7  1  0.23385500  0.98277200  0.76019000  1
  O  O8  1  0.00165000  0.23793000  0.00066200  1
  O  O9  1  0.48335800  0.74380800  0.50783300  1
  O  O10  1  0.74941800  0.01203500  0.74821100  1
  O  O11  1  0.24226000  0.50612100  0.26634500  1
  O  O12  1  0.75099400  0.49282100  0.73700400  1
  O  O13  1  0.24274900  0.98033400  0.23891700  1
  O  O14  1  0.51099800  0.26967900  0.50733300  1
  O  O15  1  0.01261400  0.75715600  0.99907900  1
loop_
_geom_bond_atom_site_label_1
_geom_bond_atom_site_label_2
_geom_bond_distance
_geom_bond_site_symmetry_2
Li0 O4 2.084966 1_455
Li0 O14 2.098222 1_555
Li0 O8 2.113520 1_556
Li0 O2 2.147165 1_555
Li0 O1 2.231657 1_555
Li0 O7 2.397912 1_545
Li1 O0 2.042037 1_555
Li1 O6 2.050481 1_555
Li1 O15 2.107013 1_654
Li1 O3 2.134109 1_655
Li1 O5 2.218221 1_555
Li1 O9 2.244881 1_555
Li2 O7 2.086343 1_555
Li2 O13 2.098310 1_555
Li2 O10 2.113124 1_465
Li2 O0 2.145793 1_455
Li2 O3 2.232120 1_555
Li2 O4 2.397395 1_465
Li3 O2 2.042447 1_555
Li3 O5 2.050729 1_556
Li3 O12 2.108472 1_555
Li3 O1 2.134794 1_555
Li3 O6 2.217281 1_556
Li3 O11 2.243656 1_556
Li4 O8 2.117628 1_555
Li4 O14 2.151426 1_555
Li4 O11 2.182878 1_555
Li4 O2 2.214891 1_554
Li4 O4 2.228125 1_455
Li4 O13 2.407177 1_545
Li5 O15 2.139659 1_655
Li5 O9 2.140700 1_555
Li5 O12 2.203136 1_555
Li5 O3 2.203683 1_655
Li5 O5 2.207866 1_556
Li5 O10 2.324912 1_565
Li6 O10 2.117435 1_565
Li6 O13 2.151343 1_555
Li6 O9 2.183218 1_555
Li6 O0 2.215169 1_555
Li6 O7 2.228149 1_555
Li6 O14 2.407686 1_565
Li7 O12 2.140001 1_554
Li7 O11 2.140787 1_655
Li7 O15 2.203198 1_654
Li7 O1 2.204137 1_654
Li7 O6 2.206615 1_555
Li7 O8 2.324862 1_655
Cr0 O12 2.011285 1_555
Cr0 O11 2.022056 1_655
Cr0 O1 2.024793 1_655
Cr0 O6 2.027090 1_555
Cr0 O4 2.040818 1_555
Cr0 O3 2.055653 1_655
Cr1 O15 2.009347 1_555
Cr1 O3 2.024024 1_555
Cr1 O9 2.024266 1_555
Cr1 O5 2.027603 1_556
Cr1 O7 2.041480 1_555
Cr1 O1 2.054987 1_555
Cr2 O7 2.079138 1_555
Cr2 O0 2.084023 1_556
Cr2 O13 2.085826 1_556
Cr2 O10 2.102897 1_565
Cr2 O5 2.302832 1_556
Cr2 O2 2.341456 1_565
Cr3 O4 2.076435 1_555
Cr3 O14 2.086145 1_555
Cr3 O2 2.086699 1_554
Cr3 O8 2.102388 1_655
Cr3 O6 2.303330 1_555
Cr3 O0 2.341429 1_545
O0 Ti2 1.915629 1_565
O1 Ti3 2.066751 1_555
O2 Ti0 1.915348 1_555
O3 Ti1 2.066103 1_555
O4 Ti0 2.039704 1_555
O5 Ti1 1.915590 1_555
O6 Ti3 1.915717 1_555
O7 Ti2 2.039140 1_466
O8 Ti2 2.042394 1_455
O8 Ti0 2.059632 1_454
O9 Ti1 2.038017 1_555
O9 Ti3 2.073281 1_555
O10 Ti0 2.043272 1_555
O10 Ti2 2.060001 1_556
O11 Ti3 2.039251 1_555
O11 Ti1 2.074250 1_555
O12 Ti3 2.067481 1_555
O12 Ti0 2.151443 1_555
O13 Ti1 2.064192 1_555
O13 Ti2 2.065992 1_465
O14 Ti3 2.064606 1_555
O14 Ti0 2.066076 1_555
O15 Ti1 2.069156 1_556
O15 Ti2 2.152030 1_466
