# generated using pymatgen
data_HS2N(ClO2)2
_symmetry_space_group_name_H-M   'P 1'
_cell_length_a   10.20934300
_cell_length_b   7.89777500
_cell_length_c   9.54811867
_cell_angle_alpha   70.32412637
_cell_angle_beta   90.00000000
_cell_angle_gamma   90.00000000
_symmetry_Int_Tables_number   1
_chemical_formula_structural   HS2N(ClO2)2
_chemical_formula_sum   'H4 S8 N4 Cl8 O16'
_cell_volume   724.92408996
_cell_formula_units_Z   4
loop_
 _symmetry_equiv_pos_site_id
 _symmetry_equiv_pos_as_xyz
  1  'x, y, z'
loop_
 _atom_site_type_symbol
 _atom_site_label
 _atom_site_symmetry_multiplicity
 _atom_site_fract_x
 _atom_site_fract_y
 _atom_site_fract_z
 _atom_site_occupancy
  H  H0  1  0.73261800  0.86941500  0.34253900  1
  H  H1  1  0.23261800  0.13058500  0.15746100  1
  H  H2  1  0.26738200  0.13058500  0.65746100  1
  H  H3  1  0.76738200  0.86941500  0.84253900  1
  S  S0  1  0.69829900  0.07912300  0.10725800  1
  S  S1  1  0.19829900  0.92087700  0.39274200  1
  S  S2  1  0.30170100  0.92087700  0.89274200  1
  S  S3  1  0.80170100  0.07912300  0.60725800  1
  S  S4  1  0.77030700  0.69038600  0.19898600  1
  S  S5  1  0.27030700  0.30961400  0.30101400  1
  S  S6  1  0.22969300  0.30961400  0.80101400  1
  S  S7  1  0.72969300  0.69038600  0.69898600  1
  N  N0  1  0.74033700  0.88066000  0.23195900  1
  N  N1  1  0.24033700  0.11934000  0.26804100  1
  N  N2  1  0.25966300  0.11934000  0.76804100  1
  N  N3  1  0.75966300  0.88066000  0.73195900  1
  Cl  Cl0  1  0.87235400  0.21145300  0.06640700  1
  Cl  Cl1  1  0.37235400  0.78854700  0.43359300  1
  Cl  Cl2  1  0.12764600  0.78854700  0.93359300  1
  Cl  Cl3  1  0.62764600  0.21145300  0.56640700  1
  Cl  Cl4  1  0.58999600  0.59772700  0.17507500  1
  Cl  Cl5  1  0.08999600  0.40227300  0.32492500  1
  Cl  Cl6  1  0.41000400  0.40227300  0.82492500  1
  Cl  Cl7  1  0.91000400  0.59772700  0.67507500  1
  O  O0  1  0.61641000  0.16608500  0.18336800  1
  O  O1  1  0.11641000  0.83391500  0.31663200  1
  O  O2  1  0.38359000  0.83391500  0.81663200  1
  O  O3  1  0.88359000  0.16608500  0.68336800  1
  O  O4  1  0.65927900  0.05038000  0.97285200  1
  O  O5  1  0.15927900  0.94962000  0.52714800  1
  O  O6  1  0.34072100  0.94962000  0.02714800  1
  O  O7  1  0.84072100  0.05038000  0.47285200  1
  O  O8  1  0.82546500  0.57008900  0.33329500  1
  O  O9  1  0.32546500  0.42991100  0.16670500  1
  O  O10  1  0.17453500  0.42991100  0.66670500  1
  O  O11  1  0.67453500  0.57008900  0.83329500  1
  O  O12  1  0.83616300  0.73209700  0.05852300  1
  O  O13  1  0.33616300  0.26790300  0.44147700  1
  O  O14  1  0.16383700  0.26790300  0.94147700  1
  O  O15  1  0.66383700  0.73209700  0.55852300  1
loop_
_geom_bond_atom_site_label_1
_geom_bond_atom_site_label_2
_geom_bond_distance
_geom_bond_site_symmetry_2
H0 N0 1.032343 1_555
H1 N1 1.032343 1_555
H2 N2 1.032343 1_555
H3 N3 1.032343 1_555
N0 S4 1.664199 1_555
N0 S0 1.673895 1_565
N1 S5 1.664199 1_555
N1 S1 1.673895 1_545
N2 S6 1.664199 1_555
N2 S2 1.673895 1_545
N3 S7 1.664199 1_555
N3 S3 1.673895 1_565
Cl0 S0 2.031643 1_555
Cl1 S1 2.031643 1_555
Cl2 S2 2.031643 1_555
Cl3 S3 2.031643 1_555
Cl4 S4 2.022107 1_555
Cl5 S5 2.022107 1_555
Cl6 S6 2.022107 1_555
Cl7 S7 2.022107 1_555
O0 S0 1.426483 1_555
O1 S1 1.426483 1_555
O2 S2 1.426483 1_555
O3 S3 1.426483 1_555
O4 S0 1.432943 1_556
O5 S1 1.432943 1_555
O6 S2 1.432943 1_554
O7 S3 1.432943 1_555
O8 S4 1.429634 1_555
O9 S5 1.429634 1_555
O10 S6 1.429634 1_555
O11 S7 1.429634 1_555
O12 S4 1.435883 1_555
O13 S5 1.435883 1_555
O14 S6 1.435883 1_555
O15 S7 1.435883 1_555
