# generated using pymatgen
data_Dy2As7Rh12
_symmetry_space_group_name_H-M   'P 1'
_cell_length_a   9.88715490
_cell_length_b   9.88716446
_cell_length_c   3.90243638
_cell_angle_alpha   90.00025774
_cell_angle_beta   89.99976295
_cell_angle_gamma   119.99997295
_symmetry_Int_Tables_number   1
_chemical_formula_structural   Dy2As7Rh12
_chemical_formula_sum   'Dy2 As7 Rh12'
_cell_volume   330.37690309
_cell_formula_units_Z   1
loop_
 _symmetry_equiv_pos_site_id
 _symmetry_equiv_pos_as_xyz
  1  'x, y, z'
loop_
 _atom_site_type_symbol
 _atom_site_label
 _atom_site_symmetry_multiplicity
 _atom_site_fract_x
 _atom_site_fract_y
 _atom_site_fract_z
 _atom_site_occupancy
  Dy  Dy0  1  0.33333090  0.66666272  0.75702949  1
  Dy  Dy1  1  0.66664060  0.33333465  0.25071926  1
  As  As0  1  0.00000672  -0.00000604  0.51848366  1
  As  As1  1  0.88123707  0.59416111  0.75479852  1
  As  As2  1  0.40586574  0.28709027  0.75476365  1
  As  As3  1  0.71290378  0.11877192  0.75478810  1
  As  As4  1  0.11818646  0.40528580  0.25390049  1
  As  As5  1  0.59473209  0.71290333  0.25388104  1
  As  As6  1  0.28707581  0.88181433  0.25385662  1
  Rh  Rh0  1  0.61838777  0.55178960  0.75330980  1
  Rh  Rh1  1  0.44818024  0.06657995  0.75329592  1
  Rh  Rh2  1  0.93340920  0.38163894  0.75330930  1
  Rh  Rh3  1  0.38188099  0.44864457  0.25509919  1
  Rh  Rh4  1  0.55133385  0.93321530  0.25508188  1
  Rh  Rh5  1  0.06678885  0.61816167  0.25509606  1
  Rh  Rh6  1  0.11418147  0.84943374  0.75877858  1
  Rh  Rh7  1  0.15060485  0.26474730  0.75879630  1
  Rh  Rh8  1  0.73524037  0.88580072  0.75879918  1
  Rh  Rh9  1  0.88592096  0.14887638  0.25016480  1
  Rh  Rh10  1  0.85112858  0.73702675  0.25016055  1
  Rh  Rh11  1  0.26296372  0.11406597  0.25016863  1
loop_
_geom_bond_atom_site_label_1
_geom_bond_atom_site_label_2
_geom_bond_distance
_geom_bond_site_symmetry_2
Dy0 Rh4 3.112649 1_556
Dy0 Rh5 3.112727 1_556
Dy0 Rh3 3.112818 1_556
Dy0 Rh4 3.122167 1_555
Dy0 Rh5 3.122183 1_555
Dy0 Rh3 3.122233 1_555
Dy1 Rh0 3.113065 1_554
Dy1 Rh1 3.113337 1_554
Dy1 Rh2 3.113378 1_554
Dy1 Rh0 3.125698 1_555
Dy1 Rh1 3.125919 1_555
Dy1 Rh2 3.126033 1_555
As0 Rh6 2.459698 1_545
As0 Rh7 2.459885 1_555
As0 Rh8 2.459967 1_445
As0 Rh11 2.489094 1_555
As0 Rh10 2.489180 1_445
As0 Rh9 2.489189 1_455
As1 Rh2 2.401088 1_555
As1 Rh0 2.416760 1_555
As1 Rh6 2.421151 1_655
As1 Rh10 2.498257 1_556
As1 Rh10 2.526383 1_555
As1 Rh5 2.605638 1_655
As1 Rh5 2.607386 1_656
As1 Dy1 3.070173 1_556
As1 Dy1 3.090338 1_555
As2 Rh0 2.401121 1_555
As2 Rh1 2.416728 1_555
As2 Rh7 2.420972 1_555
As2 Rh11 2.498674 1_556
As2 Rh11 2.526522 1_555
As2 Rh3 2.605496 1_555
As2 Rh3 2.607445 1_556
As2 Dy1 3.069832 1_556
As2 Dy1 3.089819 1_555
As3 Rh1 2.401306 1_555
As3 Rh2 2.416971 1_555
As3 Rh8 2.421463 1_545
As3 Rh9 2.498586 1_556
As3 Rh9 2.526599 1_555
As3 Rh4 2.605721 1_545
As3 Rh4 2.607440 1_546
As3 Dy1 3.070096 1_556
As3 Dy1 3.090228 1_555
As4 Rh5 2.399535 1_555
As4 Rh3 2.421476 1_555
As4 Rh9 2.424678 1_455
As4 Rh7 2.492375 1_554
As4 Rh7 2.522124 1_555
As4 Rh2 2.600654 1_455
As4 Rh2 2.604123 1_454
As4 Dy0 3.076671 1_554
As4 Dy0 3.092116 1_555
As5 Rh3 2.399360 1_555
As5 Rh4 2.421490 1_555
As5 Rh10 2.424634 1_555
As5 Rh8 2.492011 1_554
As5 Rh8 2.521884 1_555
As5 Rh0 2.600650 1_555
As5 Rh0 2.603981 1_554
As5 Dy0 3.076786 1_554
As5 Dy0 3.092320 1_555
As6 Rh4 2.399372 1_555
As6 Rh5 2.421045 1_555
As6 Rh11 2.424360 1_565
As6 Rh6 2.492001 1_554
As6 Rh6 2.521891 1_555
As6 Rh1 2.600635 1_565
As6 Rh1 2.603919 1_564
As6 Dy0 3.076718 1_554
As6 Dy0 3.092397 1_555
