# generated using pymatgen
data_Li2MnCrO4
_symmetry_space_group_name_H-M   'P 1'
_cell_length_a   5.84955268
_cell_length_b   6.00950232
_cell_length_c   5.90577809
_cell_angle_alpha   60.73582875
_cell_angle_beta   90.00003248
_cell_angle_gamma   119.12374750
_symmetry_Int_Tables_number   1
_chemical_formula_structural   Li2MnCrO4
_chemical_formula_sum   'Li4 Mn2 Cr2 O8'
_cell_volume   150.30449138
_cell_formula_units_Z   2
loop_
 _symmetry_equiv_pos_site_id
 _symmetry_equiv_pos_as_xyz
  1  'x, y, z'
loop_
 _atom_site_type_symbol
 _atom_site_label
 _atom_site_symmetry_multiplicity
 _atom_site_fract_x
 _atom_site_fract_y
 _atom_site_fract_z
 _atom_site_occupancy
  Li  Li0  1  0.50000000  0.00000000  0.00000100  1
  Li  Li1  1  0.00000000  0.00000000  0.00000100  1
  Li  Li2  1  0.50000000  0.50000000  0.50000100  1
  Li  Li3  1  0.00000000  0.50000000  0.50000100  1
  Mn  Mn0  1  0.00000000  0.49999900  0.00000100  1
  Mn  Mn1  1  0.50000200  0.50000300  0.00000000  1
  Cr  Cr0  1  0.00000000  0.99999800  0.50000300  1
  Cr  Cr1  1  0.49999800  0.99999900  0.49998800  1
  O  O0  1  0.73658500  0.47357500  0.23923000  1
  O  O1  1  0.23698700  0.47357500  0.23923100  1
  O  O2  1  0.26341600  0.52642500  0.76077100  1
  O  O3  1  0.76301300  0.52642500  0.76077100  1
  O  O4  1  0.75548100  0.01096500  0.73074300  1
  O  O5  1  0.25573000  0.01146100  0.73048600  1
  O  O6  1  0.24451900  0.98903500  0.26925800  1
  O  O7  1  0.74427100  0.98853900  0.26951500  1
loop_
_geom_bond_atom_site_label_1
_geom_bond_atom_site_label_2
_geom_bond_distance
_geom_bond_site_symmetry_2
Li0 O6 2.137305 1_545
Li0 O4 2.137309 1_554
Li0 O7 2.137410 1_545
Li0 O5 2.137410 1_554
Li0 O1 2.294281 1_545
Li0 O3 2.294281 1_554
Li1 O6 2.137316 1_545
Li1 O4 2.137320 1_454
Li1 O7 2.137398 1_445
Li1 O5 2.137407 1_554
Li1 O2 2.294281 1_554
Li1 O0 2.294281 1_445
Li2 O7 2.126837 1_555
Li2 O5 2.126837 1_555
Li2 O2 2.182935 1_555
Li2 O0 2.182943 1_555
Li2 O3 2.182948 1_555
Li2 O1 2.182948 1_555
Li3 O6 2.128992 1_555
Li3 O4 2.128992 1_455
Li3 O3 2.184513 1_455
Li3 O1 2.184513 1_555
Li3 O2 2.184526 1_555
Li3 O0 2.184527 1_455
Mn0 O1 1.984440 1_555
Mn0 O3 1.984440 1_454
Mn0 O0 1.984453 1_455
Mn0 O2 1.984453 1_554
Mn0 O7 2.227063 1_445
Mn0 O5 2.227071 1_564
Mn1 O0 1.982699 1_555
Mn1 O2 1.982705 1_554
Mn1 O3 1.982718 1_554
Mn1 O1 1.982720 1_555
Mn1 O4 2.224895 1_564
Mn1 O6 2.224921 1_545
Cr0 O5 2.021549 1_565
Cr0 O4 2.021557 1_465
Cr0 O6 2.021561 1_555
Cr0 O7 2.021565 1_455
Cr0 O3 2.065805 1_455
Cr0 O1 2.065823 1_565
Cr1 O6 2.021485 1_555
Cr1 O7 2.021523 1_555
Cr1 O4 2.021604 1_565
Cr1 O5 2.021612 1_565
Cr1 O0 2.065813 1_565
Cr1 O2 2.065816 1_555
