# generated using pymatgen
data_Li7Co5O12
_symmetry_space_group_name_H-M   'P 1'
_cell_length_a   4.96589548
_cell_length_b   6.45442897
_cell_length_c   6.48238402
_cell_angle_alpha   83.12567237
_cell_angle_beta   97.30935777
_cell_angle_gamma   96.66630780
_symmetry_Int_Tables_number   1
_chemical_formula_structural   Li7Co5O12
_chemical_formula_sum   'Li7 Co5 O12'
_cell_volume   203.52754695
_cell_formula_units_Z   1
loop_
 _symmetry_equiv_pos_site_id
 _symmetry_equiv_pos_as_xyz
  1  'x, y, z'
loop_
 _atom_site_type_symbol
 _atom_site_label
 _atom_site_symmetry_multiplicity
 _atom_site_fract_x
 _atom_site_fract_y
 _atom_site_fract_z
 _atom_site_occupancy
  Li  Li0  1  0.49468300  0.16711800  0.83098100  1
  Li  Li1  1  0.25586200  0.41149000  0.07478100  1
  Li  Li2  1  0.75088700  0.92575600  0.58851900  1
  Li  Li3  1  0.23840300  0.75091800  0.74793900  1
  Li  Li4  1  0.25741300  0.08479000  0.42539500  1
  Li  Li5  1  0.76063100  0.25187100  0.25043400  1
  Li  Li6  1  0.73734700  0.57540000  0.91274300  1
  Co  Co0  1  0.00053400  0.66879500  0.33220300  1
  Co  Co1  1  0.99569100  0.00332500  0.99743200  1
  Co  Co2  1  0.00169500  0.33307100  0.66915400  1
  Co  Co3  1  0.50065700  0.83669700  0.16346300  1
  Co  Co4  1  0.50455900  0.48403000  0.51298500  1
  O  O0  1  0.36875700  0.78011300  0.43106700  1
  O  O1  1  0.63597300  0.56992600  0.21539700  1
  O  O2  1  0.89476600  0.27148600  0.94940800  1
  O  O3  1  0.10812800  0.05147900  0.72384200  1
  O  O4  1  0.35733200  0.09482700  0.12011800  1
  O  O5  1  0.35628000  0.45696800  0.78020400  1
  O  O6  1  0.64615800  0.87961100  0.90439600  1
  O  O7  1  0.63813900  0.22233900  0.54157200  1
  O  O8  1  0.88109300  0.61627200  0.60833700  1
  O  O9  1  0.86408600  0.94304400  0.27217800  1
  O  O10  1  0.11849500  0.39023500  0.38899200  1
  O  O11  1  0.13243100  0.73043700  0.05845700  1
loop_
_geom_bond_atom_site_label_1
_geom_bond_atom_site_label_2
_geom_bond_distance
_geom_bond_site_symmetry_2
Li0 O5 2.043092 1_555
Li0 O3 2.043645 1_555
Li0 O4 2.058634 1_556
Li0 O6 2.063368 1_545
Li0 O7 2.067652 1_555
Li0 O2 2.101275 1_555
Li1 O5 2.013799 1_554
Li1 O2 2.030097 1_454
Li1 O4 2.139008 1_555
Li1 O1 2.185588 1_555
Li1 O11 2.202074 1_555
Li1 O10 2.213092 1_555
Li2 O3 2.003830 1_665
Li2 O7 2.033856 1_565
Li2 O6 2.154301 1_555
Li2 O8 2.154545 1_555
Li2 O9 2.181184 1_555
Li2 O0 2.202062 1_555
Li3 O5 2.029229 1_555
Li3 O8 2.035742 1_455
Li3 O3 2.097487 1_565
Li3 O11 2.129754 1_556
Li3 O0 2.211598 1_555
Li3 O6 2.259933 1_555
Li4 O7 2.082772 1_555
Li4 O4 2.092423 1_555
Li4 O0 2.098625 1_545
Li4 O3 2.137061 1_555
Li4 O10 2.140388 1_555
Li4 O9 2.224313 1_445
Li5 O7 2.036467 1_555
Li5 O10 2.044462 1_655
Li5 O9 2.099793 1_545
Li5 O2 2.125928 1_554
Li5 O1 2.190137 1_555
Li5 O4 2.248376 1_555
Li6 O6 2.058670 1_555
Li6 O5 2.076322 1_555
Li6 O1 2.081920 1_556
Li6 O8 2.159409 1_555
Li6 O2 2.170844 1_555
Li6 O11 2.245373 1_656
Co0 O10 1.934549 1_555
Co0 O8 1.936249 1_455
Co0 O1 1.938205 1_455
Co0 O0 1.943601 1_555
Co0 O9 1.946884 1_455
Co0 O11 1.949996 1_555
Co1 O2 1.837545 1_555
Co1 O6 1.881824 1_545
Co1 O3 1.906158 1_655
Co1 O4 1.925933 1_656
Co1 O11 1.939697 1_646
Co1 O9 1.954927 1_546
Co2 O3 1.931192 1_555
Co2 O5 1.935608 1_555
Co2 O2 1.940104 1_455
Co2 O10 1.956727 1_555
Co2 O8 1.968985 1_455
Co2 O7 1.978937 1_455
Co3 O4 1.863789 1_565
Co3 O6 1.889449 1_554
Co3 O1 1.897883 1_555
Co3 O0 1.911427 1_555
Co3 O9 1.931187 1_555
Co3 O11 1.944548 1_555
Co4 O7 1.865808 1_555
Co4 O5 1.948214 1_555
Co4 O8 2.017058 1_555
Co4 O10 2.035422 1_555
Co4 O0 2.086633 1_555
Co4 O1 2.105920 1_555
