# generated using pymatgen
data_Mg6CrBiO8
_symmetry_space_group_name_H-M   'P 1'
_cell_length_a   8.91861668
_cell_length_b   4.55066616
_cell_length_c   4.55066616
_cell_angle_alpha   90.00000000
_cell_angle_beta   90.00000000
_cell_angle_gamma   90.00000000
_symmetry_Int_Tables_number   1
_chemical_formula_structural   Mg6CrBiO8
_chemical_formula_sum   'Mg6 Cr1 Bi1 O8'
_cell_volume   184.69173093
_cell_formula_units_Z   1
loop_
 _symmetry_equiv_pos_site_id
 _symmetry_equiv_pos_as_xyz
  1  'x, y, z'
loop_
 _atom_site_type_symbol
 _atom_site_label
 _atom_site_symmetry_multiplicity
 _atom_site_fract_x
 _atom_site_fract_y
 _atom_site_fract_z
 _atom_site_occupancy
  Mg  Mg0  1  -0.00000000  0.50000000  0.50000000  1
  Mg  Mg1  1  0.50000000  0.50000000  0.50000000  1
  Mg  Mg2  1  0.23273306  -0.00000000  0.50000000  1
  Mg  Mg3  1  0.76726694  0.00000000  0.50000000  1
  Mg  Mg4  1  0.23273306  0.50000000  0.00000000  1
  Mg  Mg5  1  0.76726694  0.50000000  -0.00000000  1
  Cr  Cr0  1  0.00000000  -0.00000000  0.00000000  1
  Bi  Bi0  1  0.50000000  -0.00000000  0.00000000  1
  O  O0  1  0.22849557  0.00000000  -0.00000000  1
  O  O1  1  0.77150443  -0.00000000  0.00000000  1
  O  O2  1  0.24815208  0.50000000  0.50000000  1
  O  O3  1  0.75184792  0.50000000  0.50000000  1
  O  O4  1  0.00000000  -0.00000000  0.50000000  1
  O  O5  1  0.50000000  0.00000000  0.50000000  1
  O  O6  1  -0.00000000  0.50000000  0.00000000  1
  O  O7  1  0.50000000  0.50000000  0.00000000  1
loop_
_geom_bond_atom_site_label_1
_geom_bond_atom_site_label_2
_geom_bond_distance
_geom_bond_site_symmetry_2
Mg0 O3 2.213173 1_455
Mg0 O2 2.213173 1_555
Mg0 O6 2.275333 1_556
Mg0 O6 2.275333 1_555
Mg0 O4 2.275333 1_555
Mg0 O4 2.275333 1_565
Mg1 O3 2.246135 1_555
Mg1 O2 2.246135 1_555
Mg1 O7 2.275333 1_555
Mg1 O7 2.275333 1_556
Mg1 O5 2.275333 1_555
Mg1 O5 2.275333 1_565
Mg2 O4 2.075657 1_555
Mg2 O0 2.275647 1_555
Mg2 O0 2.275647 1_556
Mg2 O2 2.279485 1_555
Mg2 O2 2.279485 1_545
Mg2 O5 2.383651 1_555
Mg3 O4 2.075657 1_655
Mg3 O1 2.275647 1_555
Mg3 O1 2.275647 1_556
Mg3 O3 2.279485 1_555
Mg3 O3 2.279485 1_545
Mg3 O5 2.383651 1_555
Mg4 O6 2.075657 1_555
Mg4 O0 2.275647 1_555
Mg4 O0 2.275647 1_565
Mg4 O2 2.279485 1_555
Mg4 O2 2.279485 1_554
Mg4 O7 2.383651 1_555
Mg5 O6 2.075657 1_655
Mg5 O1 2.275647 1_555
Mg5 O1 2.275647 1_565
Mg5 O3 2.279485 1_555
Mg5 O3 2.279485 1_554
Mg5 O7 2.383651 1_555
Cr0 O1 2.037864 1_455
Cr0 O0 2.037864 1_555
Cr0 O6 2.275333 1_555
Cr0 O4 2.275333 1_555
Cr0 O4 2.275333 1_554
Cr0 O6 2.275333 1_545
Bi0 O7 2.275333 1_555
Bi0 O5 2.275333 1_554
Bi0 O5 2.275333 1_555
Bi0 O7 2.275333 1_545
Bi0 O0 2.421444 1_555
Bi0 O1 2.421444 1_555
