# generated using pymatgen
data_VRu
_symmetry_space_group_name_H-M   'P 1'
_cell_length_a   3.00228092
_cell_length_b   3.00228092
_cell_length_c   3.00393315
_cell_angle_alpha   90.00000000
_cell_angle_beta   90.00000000
_cell_angle_gamma   90.00000000
_symmetry_Int_Tables_number   1
_chemical_formula_structural   VRu
_chemical_formula_sum   'V1 Ru1'
_cell_volume   27.07652437
_cell_formula_units_Z   1
loop_
 _symmetry_equiv_pos_site_id
 _symmetry_equiv_pos_as_xyz
  1  'x, y, z'
loop_
 _atom_site_type_symbol
 _atom_site_label
 _atom_site_symmetry_multiplicity
 _atom_site_fract_x
 _atom_site_fract_y
 _atom_site_fract_z
 _atom_site_occupancy
  V  V0  1  0.50000000  0.50000000  0.50000000  1
  Ru  Ru0  1  -0.00000000  -0.00000000  0.00000000  1
loop_
_geom_bond_atom_site_label_1
_geom_bond_atom_site_label_2
_geom_bond_distance
_geom_bond_site_symmetry_2
Ru0 V0 2.600529 1_445
Ru0 V0 2.600529 1_444
Ru0 V0 2.600529 1_555
Ru0 V0 2.600529 1_455
Ru0 V0 2.600529 1_544
Ru0 V0 2.600529 1_545
Ru0 V0 2.600529 1_554
Ru0 V0 2.600529 1_454
