# generated using pymatgen
data_UFe2SiC
_symmetry_space_group_name_H-M   'P 1'
_cell_length_a   5.65893555
_cell_length_b   5.65893555
_cell_length_c   6.48453526
_cell_angle_alpha   90.00000000
_cell_angle_beta   90.00000000
_cell_angle_gamma   141.25419550
_symmetry_Int_Tables_number   1
_chemical_formula_structural   UFe2SiC
_chemical_formula_sum   'U2 Fe4 Si2 C2'
_cell_volume   129.96606300
_cell_formula_units_Z   2
loop_
 _symmetry_equiv_pos_site_id
 _symmetry_equiv_pos_as_xyz
  1  'x, y, z'
loop_
 _atom_site_type_symbol
 _atom_site_label
 _atom_site_symmetry_multiplicity
 _atom_site_fract_x
 _atom_site_fract_y
 _atom_site_fract_z
 _atom_site_occupancy
  U  U0  1  0.56053482  0.43946518  0.25000000  1
  U  U1  1  0.43946518  0.56053482  0.75000000  1
  Fe  Fe0  1  0.83627604  0.16372396  0.05433581  1
  Fe  Fe1  1  0.16372396  0.83627604  0.94566419  1
  Fe  Fe2  1  0.16372396  0.83627604  0.55433581  1
  Fe  Fe3  1  0.83627604  0.16372396  0.44566419  1
  Si  Si0  1  0.28027575  0.71972425  0.25000000  1
  Si  Si1  1  0.71972425  0.28027575  0.75000000  1
  C  C0  1  -0.00000000  0.00000000  0.00000000  1
  C  C1  1  -0.00000000  0.00000000  0.50000000  1
loop_
_geom_bond_atom_site_label_1
_geom_bond_atom_site_label_2
_geom_bond_distance
_geom_bond_site_symmetry_2
Fe0 Si1 2.333069 1_554
Fe0 Si0 2.343298 1_655
Fe0 Si0 2.343298 1_545
Fe1 Si0 2.333069 1_556
Fe1 Si1 2.343298 1_565
Fe1 Si1 2.343298 1_455
Fe2 Si0 2.333069 1_555
Fe2 Si1 2.343298 1_565
Fe2 Si1 2.343298 1_455
Fe3 Si1 2.333069 1_555
Fe3 Si0 2.343298 1_655
Fe3 Si0 2.343298 1_545
Si0 U0 2.992340 1_555
Si0 U0 3.004711 1_455
Si0 U0 3.004711 1_565
Si1 U1 2.992340 1_555
Si1 U1 3.004711 1_545
Si1 U1 3.004711 1_655
C0 Fe1 1.783244 1_544
C0 Fe0 1.783244 1_455
C0 U1 2.563109 1_554
C0 U0 2.563109 1_555
C0 U0 2.563109 1_445
C0 U1 2.563109 1_444
C1 Fe2 1.783244 1_545
C1 Fe3 1.783244 1_455
C1 U0 2.563109 1_555
C1 U1 2.563109 1_555
C1 U0 2.563109 1_445
C1 U1 2.563109 1_445
