# generated using pymatgen
data_MoO3
_symmetry_space_group_name_H-M   'P 1'
_cell_length_a   11.29737983
_cell_length_b   13.38171928
_cell_length_c   13.00486987
_cell_angle_alpha   87.73044722
_cell_angle_beta   92.04109146
_cell_angle_gamma   82.77863815
_symmetry_Int_Tables_number   1
_chemical_formula_structural   MoO3
_chemical_formula_sum   'Mo25 O75'
_cell_volume   1947.29521387
_cell_formula_units_Z   25
loop_
 _symmetry_equiv_pos_site_id
 _symmetry_equiv_pos_as_xyz
  1  'x, y, z'
loop_
 _atom_site_type_symbol
 _atom_site_label
 _atom_site_symmetry_multiplicity
 _atom_site_fract_x
 _atom_site_fract_y
 _atom_site_fract_z
 _atom_site_occupancy
  Mo  Mo0  1  0.98746092  0.54624768  0.90255296  1
  Mo  Mo1  1  0.92649763  0.10985761  0.92305812  1
  Mo  Mo2  1  0.27681078  0.43254574  0.78357722  1
  Mo  Mo3  1  0.09244163  0.35049354  0.56889155  1
  Mo  Mo4  1  0.34887263  0.80370201  0.32806399  1
  Mo  Mo5  1  0.89999638  0.62605785  0.29089663  1
  Mo  Mo6  1  0.25597498  0.58403035  0.02591722  1
  Mo  Mo7  1  0.60762084  0.88644481  0.46190717  1
  Mo  Mo8  1  0.72526962  0.91329425  0.85792996  1
  Mo  Mo9  1  0.02372624  0.06152623  0.19933478  1
  Mo  Mo10  1  0.22672756  0.17746870  0.90709234  1
  Mo  Mo11  1  0.81311060  0.99347982  0.32362840  1
  Mo  Mo12  1  0.80753340  0.22065227  0.40254510  1
  Mo  Mo13  1  0.82658076  0.64872485  0.56725593  1
  Mo  Mo14  1  0.57306305  0.63258419  0.21672444  1
  Mo  Mo15  1  0.67584451  0.57216924  0.79552334  1
  Mo  Mo16  1  0.10155948  0.27522830  0.32171207  1
  Mo  Mo17  1  0.08623464  0.06104383  0.67392927  1
  Mo  Mo18  1  0.17476219  0.52013548  0.24636749  1
  Mo  Mo19  1  0.46980462  0.41193832  0.33601272  1
  Mo  Mo20  1  0.50893458  0.75735117  0.97707408  1
  Mo  Mo21  1  0.30626841  0.06142550  0.45807294  1
  Mo  Mo22  1  0.53248035  0.08008369  0.65571710  1
  Mo  Mo23  1  0.38224069  0.64783693  0.65474356  1
  Mo  Mo24  1  0.43135603  0.21899152  0.13193184  1
  O  O0  1  0.95177238  0.05712642  0.07090626  1
  O  O1  1  0.82743718  0.59888279  0.86774823  1
  O  O2  1  0.42988773  0.67473119  0.28031237  1
  O  O3  1  0.71658887  0.64815510  0.27751896  1
  O  O4  1  0.18050897  0.15204408  0.77687293  1
  O  O5  1  0.76795149  0.88544412  0.40618357  1
  O  O6  1  0.84922731  0.32910206  0.13901694  1
  O  O7  1  0.15742598  0.35467598  0.43991408  1
  O  O8  1  0.91259760  0.55081971  0.18449198  1
  O  O9  1  0.82325519  0.21310549  0.92664797  1
  O  O10  1  0.54056769  0.59268070  0.69745310  1
  O  O11  1  0.30282690  0.48120557  0.11570679  1
  O  O12  1  0.36729733  0.66828054  0.01744761  1
  O  O13  1  0.23299908  0.32333221  0.85614689  1
  O  O14  1  0.42508089  0.13216172  0.73534609  1
  O  O15  1  0.20985858  0.38803772  0.65621486  1
  O  O16  1  0.09303656  0.62812565  0.96340524  1
  O  O17  1  0.07818197  0.16099251  0.95952503  1
  O  O18  1  0.43355620  0.11042812  0.52555886  1
  O  O19  1  0.13181252  0.38855896  0.22890267  1
  O  O20  1  0.06654164  0.57701852  0.34213526  1
  O  O21  1  0.95223927  0.29256226  0.36993341  1
  O  O22  1  0.45701092  0.32717795  0.22623604  1
  O  O23  1  0.67206501  0.45132500  0.83835423  1
  O  O24  1  0.28648964  0.51107040  0.91054930  1
  O  O25  1  0.58606208  0.65509541  0.88628294  1
  O  O26  1  0.61553094  0.99189483  0.77672848  1
  O  O27  1  0.50577066  0.79815380  0.42466716  1
  O  O28  1  0.71190308  0.75211308  0.54576615  1
  O  O29  1  0.06457024  0.50098511  0.79531659  1
  O  O30  1  0.95878718  0.94447417  0.26489366  1
  O  O31  1  0.16719895  0.00471426  0.20135630  1
  O  O32  1  0.91792321  0.11008584  0.32074794  1
  O  O33  1  0.97006323  0.03857542  0.59128007  1
  O  O34  1  0.40329985  0.11965010  0.21201376  1
  O  O35  1  0.72029522  0.01031988  0.21664821  1
  O  O36  1  0.69570278  0.29941493  0.33359854  1
  O  O37  1  0.56274479  0.18209900  0.07285091  1
  O  O38  1  0.32297178  0.07027425  0.93681575  1
  O  O39  1  0.57486345  0.93942605  0.58655473  1
  O  O40  1  0.55787314  0.74687560  0.12362160  1
  O  O41  1  0.22143469  0.16709254  0.36728752  1
  O  O42  1  0.96646768  0.10636796  0.78960146  1
  O  O43  1  0.21485856  0.05188329  0.57298427  1
  O  O44  1  0.96256940  0.43318199  0.57152369  1
  O  O45  1  0.35056240  0.86351253  0.20943268  1
  O  O46  1  0.05981997  0.19524349  0.20491801  1
  O  O47  1  0.35760004  0.76714847  0.70148880  1
  O  O48  1  0.48307673  0.35020666  0.45437404  1
  O  O49  1  0.06146741  0.22731395  0.60181826  1
  O  O50  1  0.75685738  0.38014678  0.10486479  1
  O  O51  1  0.83125191  0.99469420  0.91378671  1
  O  O52  1  0.42431453  0.39333416  0.76963017  1
  O  O53  1  0.56937636  0.50561220  0.33001358  1
  O  O54  1  0.13025349  0.94679001  0.73719840  1
  O  O55  1  0.95010932  0.69684354  0.61411157  1
  O  O56  1  0.16381947  0.63094617  0.15366704  1
  O  O57  1  0.57302714  0.54194981  0.12620310  1
  O  O58  1  0.30657052  0.93833367  0.40475215  1
  O  O59  1  0.31831486  0.48966678  0.33339014  1
  O  O60  1  0.63414055  0.16353868  0.64447975  1
  O  O61  1  0.30745895  0.24222785  0.03256745  1
  O  O62  1  0.85774631  0.59913862  0.43969131  1
  O  O63  1  0.40508052  0.85086269  0.92830136  1
  O  O64  1  0.65008648  0.83968417  0.95061650  1
  O  O65  1  0.98873627  0.44251748  0.98436033  1
  O  O66  1  0.80161601  0.82931084  0.78010691  1
  O  O67  1  0.36510417  0.65832955  0.52138882  1
  O  O68  1  0.54508850  0.98701769  0.38249897  1
  O  O69  1  0.91562502  0.74638603  0.24884581  1
  O  O70  1  0.80314539  0.25395716  0.52830308  1
  O  O71  1  0.77061412  0.56718249  0.67306604  1
  O  O72  1  0.27420394  0.56728959  0.70991168  1
  O  O73  1  0.20914138  0.76856271  0.34120442  1
  O  O74  1  0.74151555  0.09427588  0.41344346  1
loop_
_geom_bond_atom_site_label_1
_geom_bond_atom_site_label_2
_geom_bond_distance
_geom_bond_site_symmetry_2
Mo0 O65 1.713413 1_555
Mo0 O29 1.758243 1_655
Mo0 O1 1.888288 1_555
Mo0 O16 1.891917 1_655
Mo1 O9 1.695688 1_555
Mo1 O42 1.809776 1_555
Mo1 O17 1.972890 1_655
Mo1 O51 1.992406 1_545
Mo1 O0 2.019699 1_556
Mo2 O52 1.701287 1_555
Mo2 O13 1.837780 1_555
Mo2 O15 1.942275 1_555
Mo2 O24 1.999055 1_555
Mo2 O72 2.004411 1_555
Mo2 O29 2.469089 1_555
Mo3 O44 1.725308 1_455
Mo3 O49 1.767107 1_555
Mo3 O15 1.845835 1_555
Mo3 O7 1.856389 1_555
Mo4 O45 1.711514 1_555
Mo4 O73 1.715154 1_555
Mo4 O2 1.982462 1_555
Mo4 O58 2.104427 1_555
Mo4 O27 2.127585 1_555
Mo5 O69 1.712187 1_555
Mo5 O8 1.742736 1_555
Mo5 O20 1.995105 1_655
Mo5 O62 2.038589 1_555
Mo5 O3 2.056016 1_555
Mo6 O11 1.783986 1_555
Mo6 O12 1.794819 1_555
Mo6 O24 1.841559 1_554
Mo6 O16 1.994964 1_554
Mo6 O56 2.068747 1_555
Mo7 O68 1.725032 1_555
Mo7 O27 1.817094 1_555
Mo7 O39 1.826232 1_555
Mo7 O5 1.973417 1_555
Mo7 O28 2.242639 1_555
Mo8 O66 1.714592 1_555
Mo8 O26 1.802614 1_555
Mo8 O64 1.825892 1_555
Mo8 O51 1.864501 1_555
Mo9 O31 1.700427 1_555
Mo9 O0 1.837640 1_455
Mo9 O46 1.888119 1_555
Mo9 O30 1.986528 1_445
Mo9 O32 2.089149 1_455
Mo10 O38 1.709773 1_555
Mo10 O4 1.812070 1_555
Mo10 O17 1.868816 1_555
Mo10 O13 2.046850 1_555
Mo10 O61 2.109559 1_556
Mo11 O35 1.702276 1_565
Mo11 O30 1.892068 1_555
Mo11 O5 1.898556 1_555
Mo11 O74 1.937948 1_565
Mo11 O32 2.073975 1_565
Mo12 O70 1.712829 1_555
Mo12 O36 1.738013 1_555
Mo12 O74 1.934405 1_555
Mo12 O21 2.047187 1_555
Mo12 O32 2.152039 1_555
Mo13 O55 1.711697 1_555
Mo13 O28 1.778662 1_555
Mo13 O62 1.840237 1_555
Mo13 O71 1.897485 1_555
Mo14 O57 1.723370 1_555
Mo14 O3 1.817780 1_555
Mo14 O2 1.876470 1_555
Mo14 O40 1.899243 1_555
Mo14 O53 2.209803 1_555
Mo15 O23 1.695530 1_555
Mo15 O25 1.886645 1_555
Mo15 O10 1.940503 1_555
Mo15 O71 1.949061 1_555
Mo15 O1 2.002235 1_555
Mo16 O21 1.811436 1_455
Mo16 O41 1.913506 1_555
Mo16 O46 1.969678 1_555
Mo16 O19 1.971871 1_555
Mo16 O7 2.029935 1_555
Mo17 O54 1.715213 1_545
Mo17 O33 1.729879 1_455
Mo17 O43 1.988415 1_555
Mo17 O42 2.114821 1_455
Mo17 O4 2.182463 1_555
Mo17 O49 2.359622 1_555
Mo18 O56 1.862571 1_555
Mo18 O20 1.890743 1_555
Mo18 O19 1.904145 1_555
Mo18 O59 1.934848 1_555
Mo18 O11 2.303848 1_555
Mo19 O48 1.710543 1_555
Mo19 O53 1.787681 1_555
Mo19 O22 1.870905 1_555
Mo19 O59 1.886152 1_555
Mo20 O63 1.691088 1_555
Mo20 O40 1.960055 1_556
Mo20 O25 1.981728 1_555
Mo20 O64 2.079883 1_555
Mo20 O12 2.178654 1_556
Mo21 O58 1.811982 1_545
Mo21 O43 1.855796 1_555
Mo21 O18 1.860350 1_555
Mo21 O41 1.938648 1_555
Mo22 O60 1.705596 1_555
Mo22 O14 1.721717 1_555
Mo22 O18 1.993941 1_555
Mo22 O26 2.054022 1_545
Mo22 O39 2.125862 1_545
Mo23 O47 1.724342 1_555
Mo23 O67 1.736324 1_555
Mo23 O72 1.870320 1_555
Mo23 O10 1.901975 1_555
Mo24 O37 1.721747 1_555
Mo24 O34 1.723973 1_555
Mo24 O61 1.858933 1_555
Mo24 O22 1.976052 1_555
O50 O6 1.231490 1_555
