# generated using pymatgen
data_CaU2(PO9)2
_symmetry_space_group_name_H-M   'P 1'
_cell_length_a   6.94240900
_cell_length_b   6.97538400
_cell_length_c   9.16140648
_cell_angle_alpha   89.46694819
_cell_angle_beta   90.00000000
_cell_angle_gamma   90.00000000
_symmetry_Int_Tables_number   1
_chemical_formula_structural   CaU2(PO9)2
_chemical_formula_sum   'Ca1 U2 P2 O18'
_cell_volume   443.63078315
_cell_formula_units_Z   1
loop_
 _symmetry_equiv_pos_site_id
 _symmetry_equiv_pos_as_xyz
  1  'x, y, z'
loop_
 _atom_site_type_symbol
 _atom_site_label
 _atom_site_symmetry_multiplicity
 _atom_site_fract_x
 _atom_site_fract_y
 _atom_site_fract_z
 _atom_site_occupancy
  Ca  Ca0  1  0.50000000  0.20173200  0.36237900  1
  U  U0  1  0.50000000  0.25470000  0.91398000  1
  U  U1  1  0.00000000  0.75465600  0.10625500  1
  P  P0  1  0.00000000  0.25515500  0.01290600  1
  P  P1  1  0.50000000  0.75573900  0.00572400  1
  O  O0  1  0.50000000  0.93824900  0.90320200  1
  O  O1  1  0.50000000  0.56848700  0.91144900  1
  O  O2  1  0.18514900  0.25594400  0.91383900  1
  O  O3  1  0.81485100  0.25594400  0.91383900  1
  O  O4  1  0.00000000  0.07855300  0.11283000  1
  O  O5  1  0.00000000  0.43203500  0.11069000  1
  O  O6  1  0.32337300  0.75834100  0.10544700  1
  O  O7  1  0.67662700  0.75834100  0.10544700  1
  O  O8  1  0.50000000  0.32352900  0.64504100  1
  O  O9  1  0.00000000  0.75638600  0.30681600  1
  O  O10  1  0.50000000  0.24783700  0.12275400  1
  O  O11  1  0.00000000  0.75488200  0.90803500  1
  O  O12  1  0.50000000  0.89350300  0.51562900  1
  O  O13  1  0.66865000  0.28220600  0.56875500  1
  O  O14  1  0.33135000  0.28220600  0.56875500  1
  O  O15  1  0.00000000  0.42540500  0.39756300  1
  O  O16  1  0.60580000  0.74408600  0.43833300  1
  O  O17  1  0.39420000  0.74408600  0.43833300  1
loop_
_geom_bond_atom_site_label_1
_geom_bond_atom_site_label_2
_geom_bond_distance
_geom_bond_site_symmetry_2
Ca0 O10 2.215771 1_555
Ca0 O14 2.297919 1_555
Ca0 O13 2.297919 1_555
Ca0 O12 2.556868 1_545
O0 P1 1.575011 1_556
O0 U0 2.210492 1_565
O1 P1 1.572575 1_556
O1 U0 2.188692 1_555
O2 P0 1.573488 1_556
O2 U0 2.185842 1_555
O3 P0 1.573488 1_656
O3 U0 2.185842 1_555
O4 P0 1.527924 1_555
O4 U1 2.260669 1_545
O5 P0 1.531460 1_555
O5 U1 2.250394 1_555
O6 P1 1.529352 1_555
O6 U1 2.245146 1_555
O7 P1 1.529352 1_555
O7 U1 2.245146 1_655
O8 U0 2.505813 1_555
O9 U1 1.837573 1_555
O10 U0 1.912817 1_554
O11 U1 1.815960 1_556
O12 O16 1.463203 1_555
O12 O17 1.463203 1_555
O13 O8 1.395040 1_555
O14 O8 1.395040 1_555
O16 O17 1.469014 1_555
