# generated using pymatgen
data_Na2LiCu(PO3)4
_symmetry_space_group_name_H-M   'P 1'
_cell_length_a   8.11112825
_cell_length_b   8.64596575
_cell_length_c   8.64596561
_cell_angle_alpha   65.58704752
_cell_angle_beta   93.16993148
_cell_angle_gamma   86.83007024
_symmetry_Int_Tables_number   1
_chemical_formula_structural   Na2LiCu(PO3)4
_chemical_formula_sum   'Na4 Li2 Cu2 P8 O24'
_cell_volume   549.23204073
_cell_formula_units_Z   2
loop_
 _symmetry_equiv_pos_site_id
 _symmetry_equiv_pos_as_xyz
  1  'x, y, z'
loop_
 _atom_site_type_symbol
 _atom_site_label
 _atom_site_symmetry_multiplicity
 _atom_site_fract_x
 _atom_site_fract_y
 _atom_site_fract_z
 _atom_site_occupancy
  Na  Na0  1  0.70933700  0.46581300  0.81892500  1
  Na  Na1  1  0.81497600  0.82236100  0.45482300  1
  Na  Na2  1  0.20933700  0.18107500  0.53418700  1
  Na  Na3  1  0.31497600  0.54517700  0.17763900  1
  Li  Li0  1  0.45698700  0.90553400  0.81740200  1
  Li  Li1  1  0.95698500  0.18260000  0.09446100  1
  Cu  Cu0  1  0.10957600  0.84020400  0.85817100  1
  Cu  Cu1  1  0.60957600  0.14182900  0.15979600  1
  P  P0  1  0.32436000  0.21425400  0.91543800  1
  P  P1  1  0.13477700  0.56174400  0.75606800  1
  P  P2  1  0.39061700  0.77490800  0.55177800  1
  P  P3  1  0.82436000  0.08456200  0.78574500  1
  P  P4  1  0.19276900  0.92398700  0.21321800  1
  P  P5  1  0.63477700  0.24393200  0.43825600  1
  P  P6  1  0.89061700  0.44822200  0.22509200  1
  P  P7  1  0.69276900  0.78678200  0.07601300  1
  O  O0  1  0.73732900  0.90882900  0.88153900  1
  O  O1  1  0.19131800  0.60616000  0.90233900  1
  O  O2  1  0.47348100  0.29428300  0.95476200  1
  O  O3  1  0.17662300  0.35909300  0.81402600  1
  O  O4  1  0.84437100  0.17901000  0.89555700  1
  O  O5  1  0.34585600  0.90817500  0.61603800  1
  O  O6  1  0.34437100  0.10444300  0.82099000  1
  O  O7  1  0.95803500  0.60014100  0.68507200  1
  O  O8  1  0.25574900  0.63348900  0.60407100  1
  O  O9  1  0.56243200  0.68939200  0.59507200  1
  O  O10  1  0.67662300  0.18597400  0.64090700  1
  O  O11  1  0.97348100  0.04523800  0.70571700  1
  O  O12  1  0.04349300  0.96049300  0.29195800  1
  O  O13  1  0.35499500  0.85438000  0.34671300  1
  O  O14  1  0.45803500  0.31492800  0.39985900  1
  O  O15  1  0.75574900  0.39592900  0.36651100  1
  O  O16  1  0.06243200  0.40492800  0.31060800  1
  O  O17  1  0.68710000  0.88614800  0.18241100  1
  O  O18  1  0.69131800  0.09766100  0.39384000  1
  O  O19  1  0.18710000  0.81758900  0.11385200  1
  O  O20  1  0.85499500  0.65328700  0.14562000  1
  O  O21  1  0.54349300  0.70804200  0.03950700  1
  O  O22  1  0.84585600  0.38396200  0.09182500  1
  O  O23  1  0.23732900  0.11846100  0.09117100  1
loop_
_geom_bond_atom_site_label_1
_geom_bond_atom_site_label_2
_geom_bond_distance
_geom_bond_site_symmetry_2
Na0 O9 2.302170 1_555
Na0 O22 2.353352 1_556
Na0 O4 2.459423 1_555
Na0 O7 2.482657 1_555
Na0 O2 2.522105 1_555
Na1 O7 2.310233 1_555
Na1 O17 2.349487 1_555
Na1 O18 2.364236 1_565
Na1 O12 2.447049 1_655
Na1 O9 2.524058 1_555
Na2 O16 2.302170 1_555
Na2 O5 2.353352 1_545
Na2 O6 2.459423 1_555
Na2 O14 2.482657 1_555
Na2 O11 2.522105 1_455
Na3 O14 2.310233 1_555
Na3 O19 2.349487 1_555
Na3 O1 2.364236 1_554
Na3 O21 2.447049 1_555
Na3 O16 2.524058 1_555
Li0 O5 1.906666 1_555
Li0 O6 1.914789 1_565
Li0 O21 2.025721 1_556
Li0 O0 2.315093 1_555
Li1 O22 1.906661 1_555
Li1 O4 1.914751 1_554
Li1 O12 2.025754 1_645
Li1 O23 2.315105 1_655
Cu0 O11 1.946702 1_465
Cu0 O1 1.965956 1_555
Cu0 O19 2.189931 1_556
Cu1 O2 1.946702 1_554
Cu1 O18 1.965956 1_555
Cu1 O17 2.189931 1_545
O0 P3 1.623537 1_565
O0 P7 1.647429 1_556
O1 P1 1.521160 1_555
O2 P0 1.516208 1_555
O3 P0 1.607215 1_555
O3 P1 1.620452 1_555
O4 P3 1.494351 1_555
O5 P2 1.507755 1_555
O6 P0 1.494343 1_555
O7 P1 1.491220 1_655
O8 P1 1.615756 1_555
O8 P2 1.625351 1_555
O9 P2 1.492821 1_555
O10 P3 1.607211 1_555
O10 P5 1.620452 1_555
O11 P3 1.516203 1_555
O12 P4 1.501877 1_555
O13 P4 1.611225 1_555
O13 P2 1.616616 1_555
O14 P5 1.491220 1_555
O15 P5 1.615756 1_555
O15 P6 1.625351 1_555
O16 P6 1.492821 1_455
O17 P7 1.496673 1_555
O18 P5 1.521160 1_555
O19 P4 1.496673 1_555
O20 P7 1.611225 1_555
O20 P6 1.616616 1_555
O21 P7 1.501877 1_555
O22 P6 1.507755 1_555
O23 P0 1.623536 1_554
O23 P4 1.647429 1_545
