# generated using pymatgen
data_Ba6Y2Ga4O15
_symmetry_space_group_name_H-M   'P 1'
_cell_length_a   6.04061900
_cell_length_b   8.07110900
_cell_length_c   18.65081100
_cell_angle_alpha   88.73160118
_cell_angle_beta   90.00000000
_cell_angle_gamma   90.00000000
_symmetry_Int_Tables_number   1
_chemical_formula_structural   Ba6Y2Ga4O15
_chemical_formula_sum   'Ba12 Y4 Ga8 O30'
_cell_volume   909.08805198
_cell_formula_units_Z   2
loop_
 _symmetry_equiv_pos_site_id
 _symmetry_equiv_pos_as_xyz
  1  'x, y, z'
loop_
 _atom_site_type_symbol
 _atom_site_label
 _atom_site_symmetry_multiplicity
 _atom_site_fract_x
 _atom_site_fract_y
 _atom_site_fract_z
 _atom_site_occupancy
  Ba  Ba0  1  0.75660500  0.49867500  0.07861600  1
  Ba  Ba1  1  0.24339500  0.50132500  0.92138400  1
  Ba  Ba2  1  0.75660500  0.50132500  0.42138400  1
  Ba  Ba3  1  0.24339500  0.49867500  0.57861600  1
  Ba  Ba4  1  0.74441900  0.97171900  0.08982200  1
  Ba  Ba5  1  0.25558100  0.02828100  0.91017800  1
  Ba  Ba6  1  0.74441900  0.02828100  0.41017800  1
  Ba  Ba7  1  0.25558100  0.97171900  0.58982200  1
  Ba  Ba8  1  0.72333200  0.00000000  0.75000000  1
  Ba  Ba9  1  0.27666800  0.00000000  0.25000000  1
  Ba  Ba10  1  0.66683300  0.50000000  0.75000000  1
  Ba  Ba11  1  0.33316700  0.50000000  0.25000000  1
  Y  Y0  1  0.74544600  0.75184400  0.90987700  1
  Y  Y1  1  0.25455400  0.24815600  0.09012300  1
  Y  Y2  1  0.74544600  0.24815600  0.59012300  1
  Y  Y3  1  0.25455400  0.75184400  0.40987700  1
  Ga  Ga0  1  0.75127800  0.75415700  0.55865200  1
  Ga  Ga1  1  0.24872200  0.24584300  0.44134800  1
  Ga  Ga2  1  0.75127800  0.24584300  0.94134800  1
  Ga  Ga3  1  0.24872200  0.75415700  0.05865200  1
  Ga  Ga4  1  0.77534000  0.77045800  0.26617800  1
  Ga  Ga5  1  0.22466000  0.22954200  0.73382200  1
  Ga  Ga6  1  0.77534000  0.22954200  0.23382200  1
  Ga  Ga7  1  0.22466000  0.77045800  0.76617800  1
  O  O0  1  0.20629200  0.00000000  0.75000000  1
  O  O1  1  0.79370800  0.00000000  0.25000000  1
  O  O2  1  0.50343600  0.76541300  0.00035500  1
  O  O3  1  0.49656400  0.23458700  0.99964500  1
  O  O4  1  0.50343600  0.23458700  0.49964500  1
  O  O5  1  0.49656400  0.76541300  0.50035500  1
  O  O6  1  0.76147800  0.95347900  0.60873500  1
  O  O7  1  0.23852200  0.04652100  0.39126500  1
  O  O8  1  0.76147800  0.04652100  0.89126500  1
  O  O9  1  0.23852200  0.95347900  0.10873500  1
  O  O10  1  0.00430500  0.76378600  0.99508500  1
  O  O11  1  0.99569500  0.23621400  0.00491500  1
  O  O12  1  0.00430500  0.23621400  0.50491500  1
  O  O13  1  0.99569500  0.76378600  0.49508500  1
  O  O14  1  0.32614300  0.68879500  0.68148300  1
  O  O15  1  0.67385700  0.31120500  0.31851700  1
  O  O16  1  0.32614300  0.31120500  0.81851700  1
  O  O17  1  0.67385700  0.68879500  0.18148300  1
  O  O18  1  0.45022500  0.74848400  0.83575200  1
  O  O19  1  0.54977500  0.25151600  0.16424800  1
  O  O20  1  0.45022500  0.25151600  0.66424800  1
  O  O21  1  0.54977500  0.74848400  0.33575200  1
  O  O22  1  0.95548300  0.72567600  0.80952000  1
  O  O23  1  0.04451700  0.27432400  0.19048000  1
  O  O24  1  0.95548300  0.27432400  0.69048000  1
  O  O25  1  0.04451700  0.72567600  0.30952000  1
  O  O26  1  0.75625400  0.53331400  0.59214000  1
  O  O27  1  0.24374600  0.46668600  0.40786000  1
  O  O28  1  0.75625400  0.46668600  0.90786000  1
  O  O29  1  0.24374600  0.53331400  0.09214000  1
loop_
_geom_bond_atom_site_label_1
_geom_bond_atom_site_label_2
_geom_bond_distance
_geom_bond_site_symmetry_2
Ba0 O17 2.532915 1_555
Ba0 O19 2.819586 1_555
Ba0 O11 2.931155 1_555
Ba0 O29 2.967153 1_655
Ba0 O2 2.994163 1_555
Ba0 O10 3.016093 1_654
Ba0 O3 3.052704 1_554
Ba0 O29 3.121285 1_555
Ba0 O28 3.200878 1_554
Ba0 O23 3.238700 1_655
Ba1 O16 2.532915 1_555
Ba1 O18 2.819586 1_555
Ba1 O10 2.931155 1_555
Ba1 O28 2.967153 1_455
Ba1 O3 2.994163 1_555
Ba1 O11 3.016093 1_456
Ba1 O2 3.052704 1_556
Ba1 O28 3.121285 1_555
Ba1 O29 3.200878 1_556
Ba1 O22 3.238700 1_455
Ba2 O15 2.532915 1_555
Ba2 O21 2.819586 1_555
Ba2 O13 2.931155 1_555
Ba2 O27 2.967153 1_655
Ba2 O4 2.994163 1_555
Ba2 O12 3.016093 1_655
Ba2 O5 3.052704 1_555
Ba2 O27 3.121285 1_555
Ba2 O26 3.200878 1_555
Ba2 O25 3.238700 1_655
Ba3 O14 2.532915 1_555
Ba3 O20 2.819586 1_555
Ba3 O12 2.931155 1_555
Ba3 O26 2.967153 1_455
Ba3 O5 2.994163 1_555
Ba3 O13 3.016093 1_455
Ba3 O4 3.052704 1_555
Ba3 O26 3.121285 1_555
Ba3 O27 3.200878 1_555
Ba3 O24 3.238700 1_455
Ba4 O2 2.792666 1_555
Ba4 O17 2.854092 1_555
Ba4 O10 2.921355 1_654
Ba4 O19 2.923670 1_565
Ba4 O9 3.008681 1_655
Ba4 O1 3.015923 1_565
Ba4 O11 3.036316 1_565
Ba4 O3 3.068170 1_564
Ba4 O9 3.079369 1_555
Ba5 O3 2.792666 1_555
Ba5 O16 2.854092 1_555
Ba5 O11 2.921355 1_456
Ba5 O18 2.923670 1_545
Ba5 O8 3.008681 1_455
Ba5 O0 3.015923 1_555
Ba5 O10 3.036316 1_545
Ba5 O2 3.068170 1_546
Ba5 O8 3.079369 1_555
Ba6 O4 2.792666 1_555
Ba6 O15 2.854092 1_555
Ba6 O12 2.921355 1_655
Ba6 O21 2.923670 1_545
Ba6 O7 3.008681 1_655
Ba6 O1 3.015923 1_555
Ba6 O13 3.036316 1_545
Ba6 O5 3.068170 1_545
Ba6 O7 3.079369 1_555
Ba7 O5 2.792666 1_555
Ba7 O14 2.854092 1_555
Ba7 O13 2.921355 1_455
Ba7 O20 2.923670 1_565
Ba7 O6 3.008681 1_455
Ba7 O0 3.015923 1_565
Ba7 O12 3.036316 1_565
Ba7 O4 3.068170 1_565
Ba7 O6 3.079369 1_555
Ba8 O8 2.679469 1_555
Ba8 O6 2.679469 1_545
Ba8 O24 2.827062 1_555
Ba8 O22 2.827062 1_545
Ba8 O0 2.917377 1_655
Ba8 O20 3.042490 1_555
Ba8 O18 3.042490 1_545
Ba8 O0 3.123242 1_555
Ba9 O7 2.679469 1_555
Ba9 O9 2.679469 1_545
Ba9 O23 2.827062 1_555
Ba9 O25 2.827062 1_545
Ba9 O1 2.917377 1_455
Ba9 O19 3.042490 1_555
Ba9 O21 3.042490 1_545
Ba9 O1 3.123242 1_555
Ba10 O24 2.771238 1_555
Ba10 O22 2.771238 1_555
Ba10 O16 2.846754 1_555
Ba10 O14 2.846754 1_555
Ba10 O18 2.904158 1_555
Ba10 O20 2.904158 1_555
Ba10 O26 2.999572 1_555
Ba10 O28 2.999572 1_555
Ba11 O23 2.771238 1_555
Ba11 O25 2.771238 1_555
Ba11 O17 2.846754 1_555
Ba11 O15 2.846754 1_555
Ba11 O21 2.904158 1_555
Ba11 O19 2.904158 1_555
Ba11 O29 2.999572 1_555
Ba11 O27 2.999572 1_555
Ga0 O26 1.875856 1_555
Ga0 O6 1.879074 1_555
Ga0 O5 1.885061 1_555
Ga0 O13 1.894042 1_555
Ga1 O27 1.875856 1_555
Ga1 O7 1.879074 1_555
Ga1 O4 1.885061 1_555
Ga1 O12 1.894042 1_555
Ga2 O28 1.875856 1_555
Ga2 O8 1.879074 1_555
Ga2 O3 1.885061 1_555
Ga2 O11 1.894042 1_556
Ga3 O29 1.875856 1_555
Ga3 O9 1.879074 1_555
Ga3 O2 1.885061 1_555
Ga3 O10 1.894042 1_554
Ga4 O17 1.830723 1_555
Ga4 O25 1.847977 1_655
Ga4 O1 1.873753 1_565
Ga4 O21 1.887223 1_555
Ga5 O16 1.830723 1_555
Ga5 O24 1.847977 1_455
Ga5 O0 1.873753 1_555
Ga5 O20 1.887223 1_555
Ga6 O15 1.830723 1_555
Ga6 O23 1.847977 1_655
Ga6 O1 1.873753 1_555
Ga6 O19 1.887223 1_555
Ga7 O14 1.830723 1_555
Ga7 O22 1.847977 1_455
Ga7 O0 1.873753 1_565
Ga7 O18 1.887223 1_555
O2 Y0 2.237167 1_554
O3 Y1 2.237167 1_556
O4 Y2 2.237167 1_555
O5 Y3 2.237167 1_555
O6 Y2 2.397910 1_565
O7 Y3 2.397910 1_545
O8 Y0 2.397910 1_545
O9 Y1 2.397910 1_565
O10 Y0 2.233088 1_455
O11 Y1 2.233088 1_655
O12 Y2 2.233088 1_455
O13 Y3 2.233088 1_655
O18 Y0 2.256967 1_555
O19 Y1 2.256967 1_555
O20 Y2 2.256967 1_555
O21 Y3 2.256967 1_555
O22 Y0 2.274918 1_555
O23 Y1 2.274918 1_555
O24 Y2 2.274918 1_555
O25 Y3 2.274918 1_555
O26 Y2 2.303607 1_555
O27 Y3 2.303607 1_555
O28 Y0 2.303607 1_555
O29 Y1 2.303607 1_555
