# generated using pymatgen
data_Li6AsS5I
_symmetry_space_group_name_H-M   'P 1'
_cell_length_a   7.21818600
_cell_length_b   7.29049443
_cell_length_c   7.29560674
_cell_angle_alpha   61.18366430
_cell_angle_beta   61.05413393
_cell_angle_gamma   60.38593890
_symmetry_Int_Tables_number   1
_chemical_formula_structural   Li6AsS5I
_chemical_formula_sum   'Li6 As1 S5 I1'
_cell_volume   276.79857925
_cell_formula_units_Z   1
loop_
 _symmetry_equiv_pos_site_id
 _symmetry_equiv_pos_as_xyz
  1  'x, y, z'
loop_
 _atom_site_type_symbol
 _atom_site_label
 _atom_site_symmetry_multiplicity
 _atom_site_fract_x
 _atom_site_fract_y
 _atom_site_fract_z
 _atom_site_occupancy
  Li  Li0  1  0.96683100  0.60877100  0.45283200  1
  Li  Li1  1  0.97861000  0.97466500  0.59140700  1
  Li  Li2  1  0.97053000  0.44317300  0.97440300  1
  Li  Li3  1  0.59360200  0.97330500  0.98786000  1
  Li  Li4  1  0.45477200  0.98822400  0.59137000  1
  Li  Li5  1  0.45549700  0.59190300  0.98277400  1
  As  As0  1  0.50080500  0.49901300  0.50231500  1
  S  S0  1  0.74490300  0.75456600  0.75518400  1
  S  S1  1  0.37257100  0.38112800  0.37620700  1
  S  S2  1  0.37856100  0.86391400  0.38114500  1
  S  S3  1  0.37910100  0.37874600  0.86295400  1
  S  S4  1  0.86960500  0.37634300  0.37717800  1
  I  I0  1  0.01461300  0.98624800  0.98437200  1
loop_
_geom_bond_atom_site_label_1
_geom_bond_atom_site_label_2
_geom_bond_distance
_geom_bond_site_symmetry_2
Li0 S0 2.391385 1_555
Li0 S4 2.473943 1_555
Li0 S1 2.479931 1_655
Li1 S0 2.392528 1_555
Li1 S2 2.437828 1_655
Li1 S4 2.477597 1_565
Li2 S0 2.393984 1_555
Li2 S3 2.501441 1_655
Li2 S4 2.510244 1_556
Li3 S0 2.389821 1_555
Li3 S2 2.446325 1_556
Li3 S3 2.492149 1_565
Li4 S0 2.377024 1_555
Li4 S1 2.430739 1_565
Li4 S2 2.474997 1_555
Li5 S0 2.391624 1_555
Li5 S1 2.439761 1_556
Li5 S3 2.471098 1_555
As0 S3 2.182459 1_555
As0 S4 2.191250 1_555
As0 S2 2.192099 1_555
As0 S1 2.194232 1_555
I0 Li1 3.044690 1_455
I0 Li5 3.057326 1_555
I0 Li3 3.074234 1_455
I0 Li4 3.082693 1_555
I0 Li2 3.153528 1_465
I0 Li0 3.178554 1_456
