# generated using pymatgen
data_CeZr3Mn8
_symmetry_space_group_name_H-M   'P 1'
_cell_length_a   5.08641336
_cell_length_b   5.08641336
_cell_length_c   8.08121500
_cell_angle_alpha   90.00000000
_cell_angle_beta   90.00000000
_cell_angle_gamma   119.99999168
_symmetry_Int_Tables_number   1
_chemical_formula_structural   CeZr3Mn8
_chemical_formula_sum   'Ce1 Zr3 Mn8'
_cell_volume   181.06338366
_cell_formula_units_Z   1
loop_
 _symmetry_equiv_pos_site_id
 _symmetry_equiv_pos_as_xyz
  1  'x, y, z'
loop_
 _atom_site_type_symbol
 _atom_site_label
 _atom_site_symmetry_multiplicity
 _atom_site_fract_x
 _atom_site_fract_y
 _atom_site_fract_z
 _atom_site_occupancy
  Ce  Ce0  1  0.33333300  0.66666700  0.55661900  1
  Zr  Zr0  1  0.00000000  0.00000000  0.43744000  1
  Zr  Zr1  1  0.00000000  0.00000000  0.06301000  1
  Zr  Zr2  1  0.33333300  0.66666700  0.93778600  1
  Mn  Mn0  1  0.66666700  0.33333300  0.49901400  1
  Mn  Mn1  1  0.66666700  0.33333300  0.00405400  1
  Mn  Mn2  1  0.83293900  0.66587900  0.75787500  1
  Mn  Mn3  1  0.83293900  0.16706100  0.75787500  1
  Mn  Mn4  1  0.33412100  0.16706100  0.75787500  1
  Mn  Mn5  1  0.50051100  0.00102200  0.24278700  1
  Mn  Mn6  1  0.50051100  0.49948900  0.24278700  1
  Mn  Mn7  1  0.99897800  0.49948900  0.24278700  1
loop_
_geom_bond_atom_site_label_1
_geom_bond_atom_site_label_2
_geom_bond_distance
_geom_bond_site_symmetry_2
Ce0 Mn7 2.932785 1_455
Ce0 Mn5 2.932785 1_565
Ce0 Mn6 2.932787 1_555
Ce0 Mn0 2.973308 1_455
Ce0 Mn0 2.973308 1_565
Ce0 Mn0 2.973316 1_555
Ce0 Mn4 3.018786 1_555
Ce0 Mn2 3.018786 1_555
Ce0 Mn4 3.018786 1_565
Ce0 Mn2 3.018786 1_455
Ce0 Mn3 3.018786 1_565
Ce0 Mn3 3.018786 1_455
Ce0 Zr2 3.080292 1_555
Ce0 Zr0 3.090539 1_565
Ce0 Zr0 3.090544 1_665
Ce0 Zr0 3.090544 1_555
Zr0 Zr1 3.025849 1_555
Zr1 Zr2 3.106109 1_544
Zr1 Zr2 3.106114 1_444
Zr1 Zr2 3.106114 1_554
Mn0 Mn5 2.535794 1_555
Mn0 Mn7 2.535794 1_555
Mn0 Mn6 2.535797 1_555
Mn0 Mn3 2.553794 1_555
Mn0 Mn2 2.553799 1_555
Mn0 Mn4 2.553799 1_555
Mn0 Zr0 2.978498 1_655
Mn0 Zr0 2.978502 1_665
Mn0 Zr0 2.978502 1_555
Mn1 Mn5 2.421731 1_555
Mn1 Mn7 2.421731 1_555
Mn1 Mn6 2.421733 1_555
Mn1 Mn3 2.470543 1_554
Mn1 Mn2 2.470548 1_554
Mn1 Mn4 2.470548 1_554
Mn1 Zr1 2.975036 1_655
Mn1 Zr1 2.975041 1_555
Mn1 Zr1 2.975041 1_665
Mn1 Zr2 2.985069 1_544
Mn1 Zr2 2.985069 1_654
Mn1 Zr2 2.985078 1_554
Mn2 Mn3 2.537195 1_555
Mn2 Mn4 2.537195 1_555
Mn2 Mn3 2.549219 1_565
Mn2 Mn4 2.549219 1_665
Mn2 Zr1 2.871697 1_666
Mn2 Zr2 2.929460 1_555
Mn2 Zr2 2.929460 1_655
Mn2 Zr0 2.978540 1_665
Mn3 Mn4 2.537195 1_555
Mn3 Mn4 2.549219 1_655
Mn3 Zr1 2.871699 1_656
Mn3 Zr2 2.929460 1_545
Mn3 Zr2 2.929460 1_655
Mn3 Zr0 2.978542 1_655
Mn4 Zr1 2.871697 1_556
Mn4 Zr2 2.929460 1_555
Mn4 Zr2 2.929460 1_545
Mn4 Zr0 2.978540 1_555
Mn5 Mn6 2.535409 1_555
Mn5 Mn7 2.535410 1_555
Mn5 Mn6 2.551004 1_545
Mn5 Mn7 2.551004 1_445
Mn5 Zr2 2.871295 1_544
Mn5 Zr1 2.928924 1_655
Mn5 Zr1 2.928924 1_555
Mn5 Zr0 2.990377 1_655
Mn5 Zr0 2.990377 1_555
Mn6 Mn7 2.535409 1_555
Mn6 Mn7 2.551004 1_455
Mn6 Zr2 2.871298 1_554
Mn6 Zr1 2.928924 1_665
Mn6 Zr1 2.928924 1_555
Mn6 Zr0 2.990377 1_665
Mn6 Zr0 2.990377 1_555
Mn7 Zr2 2.871295 1_654
Mn7 Zr1 2.928924 1_655
Mn7 Zr1 2.928924 1_665
Mn7 Zr0 2.990377 1_655
Mn7 Zr0 2.990377 1_665
