# generated using pymatgen
data_Ba2LiMn2(P2O7)2
_symmetry_space_group_name_H-M   'P 1'
_cell_length_a   5.42845064
_cell_length_b   8.71814282
_cell_length_c   7.73626546
_cell_angle_alpha   109.84673787
_cell_angle_beta   92.44482104
_cell_angle_gamma   90.75230091
_symmetry_Int_Tables_number   1
_chemical_formula_structural   Ba2LiMn2(P2O7)2
_chemical_formula_sum   'Ba2 Li1 Mn2 P4 O14'
_cell_volume   343.91813828
_cell_formula_units_Z   1
loop_
 _symmetry_equiv_pos_site_id
 _symmetry_equiv_pos_as_xyz
  1  'x, y, z'
loop_
 _atom_site_type_symbol
 _atom_site_label
 _atom_site_symmetry_multiplicity
 _atom_site_fract_x
 _atom_site_fract_y
 _atom_site_fract_z
 _atom_site_occupancy
  Ba  Ba0  1  0.18976700  0.76202500  0.95136100  1
  Ba  Ba1  1  0.81821000  0.24987200  0.00997100  1
  Li  Li0  1  0.80264200  0.03598400  0.33865300  1
  Mn  Mn0  1  0.19644700  0.60434500  0.40999300  1
  Mn  Mn1  1  0.80205400  0.37613000  0.57815100  1
  P  P0  1  0.69077800  0.71252600  0.23228800  1
  P  P1  1  0.31300300  0.30732100  0.77366100  1
  P  P2  1  0.71743000  0.79069900  0.63249600  1
  P  P3  1  0.28432200  0.20160500  0.36780400  1
  O  O0  1  0.55797300  0.22397700  0.32916200  1
  O  O1  1  0.44851800  0.73401800  0.63585900  1
  O  O2  1  0.80824600  0.93577900  0.79461600  1
  O  O3  1  0.14654000  0.05219800  0.23298100  1
  O  O4  1  0.13445400  0.35716700  0.38620300  1
  O  O5  1  0.89714600  0.64677700  0.60050500  1
  O  O6  1  0.73188600  0.84207500  0.44591800  1
  O  O7  1  0.29133200  0.17250300  0.56464100  1
  O  O8  1  0.09305600  0.42143100  0.79564800  1
  O  O9  1  0.90723100  0.59613200  0.20071900  1
  O  O10  1  0.55895300  0.40261000  0.79000400  1
  O  O11  1  0.43775600  0.62744600  0.21362500  1
  O  O12  1  0.30903400  0.20944800  0.90303700  1
  O  O13  1  0.70072300  0.82721700  0.12103800  1
loop_
_geom_bond_atom_site_label_1
_geom_bond_atom_site_label_2
_geom_bond_distance
_geom_bond_site_symmetry_2
Ba0 O3 2.741945 1_566
Ba0 O1 2.808369 1_555
Ba0 O8 2.831976 1_555
Ba0 O5 2.939172 1_455
Ba0 O11 2.954706 1_556
Ba0 O13 2.980088 1_556
Ba0 O13 2.987334 1_456
Ba0 O2 3.028171 1_455
Ba0 O9 3.202204 1_456
Ba1 O2 2.677244 1_544
Ba1 O12 2.814679 1_654
Ba1 O12 2.833699 1_554
Ba1 O10 2.834290 1_554
Ba1 O9 2.898282 1_555
Ba1 O0 2.968514 1_555
Ba1 O8 3.008086 1_654
Ba1 O4 3.158594 1_655
Ba1 O3 3.310638 1_655
Li0 O13 2.065552 1_545
Li0 O3 2.091675 1_655
Li0 O0 2.141529 1_555
Li0 O6 2.157943 1_545
Mn0 O11 2.105923 1_555
Mn0 O4 2.120668 1_555
Mn0 O1 2.148902 1_555
Mn0 O9 2.189212 1_455
Mn0 O5 2.190602 1_455
Mn1 O10 2.101565 1_555
Mn1 O8 2.188199 1_655
Mn1 O0 2.286199 1_555
Mn1 O5 2.355234 1_555
Mn1 O4 2.357562 1_655
O0 P3 1.550481 1_555
O1 P2 1.539102 1_555
O2 P2 1.506513 1_555
O3 P3 1.526212 1_555
O4 P3 1.558593 1_555
O5 P2 1.558604 1_555
O6 P2 1.654677 1_555
O6 P0 1.658701 1_555
O7 P3 1.625527 1_555
O7 P1 1.643085 1_555
O8 P1 1.542011 1_555
O9 P0 1.535413 1_555
O10 P1 1.540727 1_555
O11 P0 1.530093 1_555
O12 P1 1.520382 1_555
O13 P0 1.526537 1_555
