# generated using pymatgen
data_BaGdNbSnO6
_symmetry_space_group_name_H-M   'P 1'
_cell_length_a   5.96078156
_cell_length_b   6.02187265
_cell_length_c   8.54922103
_cell_angle_alpha   89.43555337
_cell_angle_beta   89.68535797
_cell_angle_gamma   90.60111686
_symmetry_Int_Tables_number   1
_chemical_formula_structural   BaGdNbSnO6
_chemical_formula_sum   'Ba2 Gd2 Nb2 Sn2 O12'
_cell_volume   306.83828310
_cell_formula_units_Z   2
loop_
 _symmetry_equiv_pos_site_id
 _symmetry_equiv_pos_as_xyz
  1  'x, y, z'
loop_
 _atom_site_type_symbol
 _atom_site_label
 _atom_site_symmetry_multiplicity
 _atom_site_fract_x
 _atom_site_fract_y
 _atom_site_fract_z
 _atom_site_occupancy
  Ba  Ba0  1  0.50563568  0.52239719  0.25141726  1
  Ba  Ba1  1  0.49436432  0.47760281  0.74858274  1
  Gd  Gd0  1  0.00000000  0.50000000  -0.00000000  1
  Gd  Gd1  1  0.50000000  0.00000000  0.50000000  1
  Nb  Nb0  1  0.50000000  0.00000000  -0.00000000  1
  Nb  Nb1  1  0.00000000  0.50000000  0.50000000  1
  Sn  Sn0  1  0.00431725  0.01831034  0.25241433  1
  Sn  Sn1  1  0.99568275  0.98168966  0.74758567  1
  O  O0  1  0.23193531  0.19559665  0.94468650  1
  O  O1  1  0.27748565  0.69165309  0.51752197  1
  O  O2  1  0.76806469  0.80440335  0.05531350  1
  O  O3  1  0.72251435  0.30834691  0.48247803  1
  O  O4  1  0.30920229  0.72701634  0.97328774  1
  O  O5  1  0.19033994  0.22319485  0.54742701  1
  O  O6  1  0.69079771  0.27298366  0.02671226  1
  O  O7  1  0.80966006  0.77680515  0.45257299  1
  O  O8  1  0.40062320  0.00419558  0.23367495  1
  O  O9  1  0.05662020  0.46344274  0.26666000  1
  O  O10  1  0.59937680  0.99580442  0.76632505  1
  O  O11  1  0.94337980  0.53655726  0.73334000  1
loop_
_geom_bond_atom_site_label_1
_geom_bond_atom_site_label_2
_geom_bond_distance
_geom_bond_site_symmetry_2
Ba0 O6 2.689382 1_555
Ba0 O3 2.692161 1_555
Ba0 O9 2.698500 1_555
Ba0 O2 2.828605 1_555
Ba0 O1 2.846871 1_555
Ba0 O4 2.923407 1_554
Ba0 O7 2.935396 1_555
Ba0 O8 2.977082 1_565
Ba0 O8 3.181510 1_555
Ba0 O9 3.310270 1_655
Ba1 O4 2.689382 1_555
Ba1 O1 2.692161 1_555
Ba1 O11 2.698500 1_555
Ba1 O0 2.828605 1_555
Ba1 O3 2.846871 1_555
Ba1 O6 2.923407 1_556
Ba1 O5 2.935396 1_555
Ba1 O10 2.977082 1_545
Ba1 O10 3.181510 1_555
Ba1 O11 3.310270 1_455
Gd0 O6 2.292236 1_455
Gd0 O4 2.292236 1_554
Gd0 O9 2.315099 1_555
Gd0 O11 2.315099 1_454
Gd0 O2 2.357588 1_455
Gd0 O0 2.357588 1_554
Gd1 O3 2.273793 1_555
Gd1 O1 2.273793 1_545
Gd1 O7 2.330769 1_545
Gd1 O5 2.330769 1_555
Gd1 O8 2.355774 1_555
Gd1 O10 2.355774 1_545
Nb0 O4 2.004732 1_544
Nb0 O6 2.004732 1_555
Nb0 O0 2.049632 1_554
Nb0 O2 2.049632 1_545
Nb0 O8 2.081058 1_555
Nb0 O10 2.081058 1_544
Nb1 O1 2.014027 1_555
Nb1 O3 2.014027 1_455
Nb1 O9 2.035857 1_555
Nb1 O11 2.035857 1_455
Nb1 O5 2.064361 1_555
Nb1 O7 2.064361 1_455
O0 Sn1 2.551982 1_445
O2 Sn0 2.551982 1_665
O5 Sn1 2.506652 1_445
O7 Sn0 2.506652 1_665
O8 Sn0 2.369313 1_555
O9 Sn0 2.699368 1_555
O10 Sn1 2.369313 1_555
O11 Sn1 2.699368 1_555
