# generated using pymatgen
data_Ti2CrTe4
_symmetry_space_group_name_H-M   'P 1'
_cell_length_a   7.45581155
_cell_length_b   7.45581155
_cell_length_c   6.89495324
_cell_angle_alpha   63.88291192
_cell_angle_beta   63.88291192
_cell_angle_gamma   29.81535342
_symmetry_Int_Tables_number   1
_chemical_formula_structural   Ti2CrTe4
_chemical_formula_sum   'Ti2 Cr1 Te4'
_cell_volume   169.64969404
_cell_formula_units_Z   1
loop_
 _symmetry_equiv_pos_site_id
 _symmetry_equiv_pos_as_xyz
  1  'x, y, z'
loop_
 _atom_site_type_symbol
 _atom_site_label
 _atom_site_symmetry_multiplicity
 _atom_site_fract_x
 _atom_site_fract_y
 _atom_site_fract_z
 _atom_site_occupancy
  Ti  Ti0  1  0.74688000  0.74688000  0.29891600  1
  Ti  Ti1  1  0.25312000  0.25312000  0.70108400  1
  Cr  Cr0  1  0.00000000  0.00000000  0.00000000  1
  Te  Te0  1  0.89307300  0.89307300  0.44694200  1
  Te  Te1  1  0.10692700  0.10692700  0.55305800  1
  Te  Te2  1  0.63546700  0.63546700  0.03096300  1
  Te  Te3  1  0.36453300  0.36453300  0.96903700  1
loop_
_geom_bond_atom_site_label_1
_geom_bond_atom_site_label_2
_geom_bond_distance
_geom_bond_site_symmetry_2
Cr0 Te0 2.746745 1_445
Cr0 Te1 2.746745 1_554
Cr0 Te2 2.813331 1_545
Cr0 Te2 2.813331 1_455
Cr0 Te3 2.813331 1_454
Cr0 Te3 2.813331 1_544
Te0 Ti0 2.727331 1_555
Te0 Ti1 2.756277 1_565
Te0 Ti1 2.756277 1_655
Te1 Ti1 2.727331 1_555
Te1 Ti0 2.756277 1_545
Te1 Ti0 2.756277 1_455
Te2 Ti1 2.865916 1_564
Te2 Ti1 2.865916 1_654
Te2 Ti0 2.948402 1_555
Te3 Ti0 2.865916 1_546
Te3 Ti0 2.865916 1_456
Te3 Ti1 2.948402 1_555
