# generated using pymatgen
data_K2MgZr(MoO4)4
_symmetry_space_group_name_H-M   'P 1'
_cell_length_a   9.42009509
_cell_length_b   9.42009509
_cell_length_c   10.19190016
_cell_angle_alpha   57.36305241
_cell_angle_beta   57.36305241
_cell_angle_gamma   36.36754505
_symmetry_Int_Tables_number   1
_chemical_formula_structural   K2MgZr(MoO4)4
_chemical_formula_sum   'K2 Mg1 Zr1 Mo4 O16'
_cell_volume   441.50017297
_cell_formula_units_Z   1
loop_
 _symmetry_equiv_pos_site_id
 _symmetry_equiv_pos_as_xyz
  1  'x, y, z'
loop_
 _atom_site_type_symbol
 _atom_site_label
 _atom_site_symmetry_multiplicity
 _atom_site_fract_x
 _atom_site_fract_y
 _atom_site_fract_z
 _atom_site_occupancy
  K  K0  1  0.24206900  0.24206900  0.74929800  1
  K  K1  1  0.75793100  0.75793100  0.25070200  1
  Mg  Mg0  1  0.00000000  0.00000000  0.00000000  1
  Zr  Zr0  1  0.50000000  0.50000000  0.50000000  1
  Mo  Mo0  1  0.12640900  0.12640900  0.20260500  1
  Mo  Mo1  1  0.62330200  0.62330200  0.71493700  1
  Mo  Mo2  1  0.87359100  0.87359100  0.79739500  1
  Mo  Mo3  1  0.37669800  0.37669800  0.28506300  1
  O  O0  1  0.24478400  0.24478400  0.08219700  1
  O  O1  1  0.74254600  0.74254600  0.59773700  1
  O  O2  1  0.75521600  0.75521600  0.91780300  1
  O  O3  1  0.25745400  0.25745400  0.40226300  1
  O  O4  1  0.34181500  0.83202900  0.32892000  1
  O  O5  1  0.83708300  0.33372300  0.83453000  1
  O  O6  1  0.83202900  0.34181500  0.32892000  1
  O  O7  1  0.33372300  0.83708300  0.83453000  1
  O  O8  1  0.08730600  0.08730600  0.07721500  1
  O  O9  1  0.58464700  0.58464700  0.57944700  1
  O  O10  1  0.65818500  0.16797100  0.67108000  1
  O  O11  1  0.16291700  0.66627700  0.16547000  1
  O  O12  1  0.16797100  0.65818500  0.67108000  1
  O  O13  1  0.66627700  0.16291700  0.16547000  1
  O  O14  1  0.91269400  0.91269400  0.92278500  1
  O  O15  1  0.41535300  0.41535300  0.42055300  1
loop_
_geom_bond_atom_site_label_1
_geom_bond_atom_site_label_2
_geom_bond_distance
_geom_bond_site_symmetry_2
K0 O7 2.825619 1_545
K0 O5 2.825619 1_455
K0 O8 2.886586 1_556
K0 O15 3.007964 1_555
K0 O10 3.051431 1_555
K0 O12 3.051431 1_555
K1 O13 2.825619 1_565
K1 O11 2.825619 1_655
K1 O14 2.886586 1_554
K1 O9 3.007964 1_555
K1 O6 3.051431 1_555
K1 O4 3.051431 1_555
Mg0 O11 2.094169 1_545
Mg0 O13 2.094169 1_455
Mg0 O5 2.094169 1_454
Mg0 O7 2.094169 1_544
Mg0 O8 2.111312 1_555
Mg0 O14 2.111312 1_444
Mo0 O0 1.744523 1_555
Mo0 O8 1.771605 1_555
Mo0 O6 1.835679 1_455
Mo0 O4 1.835679 1_545
Mo1 O1 1.757241 1_555
Mo1 O5 1.787928 1_555
Mo1 O7 1.787928 1_555
Mo1 O9 1.862887 1_555
Mo2 O2 1.744523 1_555
Mo2 O14 1.771605 1_555
Mo2 O12 1.835679 1_655
Mo2 O10 1.835679 1_565
Mo3 O3 1.757241 1_555
Mo3 O13 1.787928 1_555
Mo3 O11 1.787928 1_555
Mo3 O15 1.862887 1_555
O4 Zr0 2.111320 1_555
O6 Zr0 2.111320 1_555
O9 Zr0 2.084246 1_555
O10 Zr0 2.111320 1_555
O12 Zr0 2.111320 1_555
O15 Zr0 2.084246 1_555
