# generated using pymatgen
data_W3O8
_symmetry_space_group_name_H-M   'P 1'
_cell_length_a   6.14081788
_cell_length_b   7.21711170
_cell_length_c   7.21711170
_cell_angle_alpha   63.37623167
_cell_angle_beta   113.15314149
_cell_angle_gamma   113.15314149
_symmetry_Int_Tables_number   1
_chemical_formula_structural   W3O8
_chemical_formula_sum   'W6 O16'
_cell_volume   253.58326037
_cell_formula_units_Z   2
loop_
 _symmetry_equiv_pos_site_id
 _symmetry_equiv_pos_as_xyz
  1  'x, y, z'
loop_
 _atom_site_type_symbol
 _atom_site_label
 _atom_site_symmetry_multiplicity
 _atom_site_fract_x
 _atom_site_fract_y
 _atom_site_fract_z
 _atom_site_occupancy
  W  W0  1  0.68422206  0.15790972  0.15790972  1
  W  W1  1  0.68418774  0.65790301  0.65790301  1
  W  W2  1  0.31579829  0.34209410  0.34209410  1
  W  W3  1  0.31578028  0.84208754  0.84208754  1
  W  W4  1  0.00000472  0.00000296  0.00000296  1
  W  W5  1  0.00000211  0.49999597  0.49999597  1
  O  O0  1  0.96531170  0.83136974  0.83136974  1
  O  O1  1  0.96532007  0.33135011  0.33135011  1
  O  O2  1  0.03467159  0.66863360  0.66863360  1
  O  O3  1  0.03468587  0.16864643  0.16864643  1
  O  O4  1  0.66269948  0.48262140  0.48262140  1
  O  O5  1  0.66269033  0.98262760  0.98262760  1
  O  O6  1  0.33731969  0.01737365  0.01737365  1
  O  O7  1  0.33732151  0.51737262  0.51737262  1
  O  O8  1  0.50001426  0.25002041  0.25002041  1
  O  O9  1  0.49995590  0.74998290  0.74998290  1
  O  O10  1  0.00000461  0.74999358  0.25002403  1
  O  O11  1  0.00000461  0.25002403  0.74999358  1
  O  O12  1  0.31084471  0.09459716  0.59459979  1
  O  O13  1  0.31084471  0.59459979  0.09459716  1
  O  O14  1  0.68915838  0.90538440  0.40540828  1
  O  O15  1  0.68915838  0.40540828  0.90538440  1
loop_
_geom_bond_atom_site_label_1
_geom_bond_atom_site_label_2
_geom_bond_distance
_geom_bond_site_symmetry_2
O0 W4 1.981800 1_666
O0 W1 2.029897 1_555
O0 W3 2.094592 1_655
O1 W5 1.981980 1_655
O1 W0 2.029627 1_555
O1 W2 2.094519 1_655
O2 W5 1.981908 1_555
O2 W3 2.029760 1_555
O2 W1 2.094621 1_455
O3 W4 1.981953 1_555
O3 W2 2.029718 1_555
O3 W0 2.094467 1_455
O4 W5 1.981764 1_655
O4 W2 2.029566 1_555
O4 W1 2.095171 1_555
O5 W4 1.981832 1_666
O5 W3 2.029659 1_555
O5 W0 2.095067 1_566
O6 W4 1.981857 1_555
O6 W0 2.029610 1_555
O6 W3 2.095097 1_544
O7 W5 1.981857 1_555
O7 W1 2.029439 1_555
O7 W2 2.095045 1_555
O8 W2 1.934130 1_555
O8 W0 1.934476 1_555
O9 W3 1.934243 1_555
O9 W1 1.934278 1_555
O10 W5 1.895442 1_555
O10 W4 1.895672 1_565
O11 W5 1.895442 1_555
O11 W4 1.895672 1_556
O12 W3 1.896268 1_545
O12 W2 1.896289 1_555
O13 W3 1.896268 1_554
O13 W2 1.896289 1_555
O14 W1 1.896191 1_555
O14 W0 1.896369 1_565
O15 W1 1.896191 1_555
O15 W0 1.896369 1_556
