# generated using pymatgen
data_Cr5S8
_symmetry_space_group_name_H-M   'P 1'
_cell_length_a   6.86830135
_cell_length_b   11.15587700
_cell_length_c   6.88926125
_cell_angle_alpha   91.16573057
_cell_angle_beta   119.89940352
_cell_angle_gamma   89.99997888
_symmetry_Int_Tables_number   1
_chemical_formula_structural   Cr5S8
_chemical_formula_sum   'Cr10 S16'
_cell_volume   457.48416178
_cell_formula_units_Z   2
loop_
 _symmetry_equiv_pos_site_id
 _symmetry_equiv_pos_as_xyz
  1  'x, y, z'
loop_
 _atom_site_type_symbol
 _atom_site_label
 _atom_site_symmetry_multiplicity
 _atom_site_fract_x
 _atom_site_fract_y
 _atom_site_fract_z
 _atom_site_occupancy
  Cr  Cr0  1  0.00003450  -0.00015631  0.00006999  1
  Cr  Cr1  1  0.50005555  0.50009932  0.00011110  1
  Cr  Cr2  1  0.00445351  0.73129251  0.00890802  1
  Cr  Cr3  1  0.99551588  0.26880397  0.99103377  1
  Cr  Cr4  1  0.49678264  0.76880270  0.99356329  1
  Cr  Cr5  1  0.50307885  0.23114679  0.00615770  1
  Cr  Cr6  1  0.47825147  0.74995987  0.50099253  1
  Cr  Cr7  1  0.02274006  0.74995987  0.50099153  1
  Cr  Cr8  1  0.52173549  0.25005281  0.49910082  1
  Cr  Cr9  1  0.97736533  0.25005281  0.49910082  1
  S  S0  1  0.15913717  0.14274211  0.31827534  1
  S  S1  1  0.83365853  0.37786731  0.66731905  1
  S  S2  1  0.16631531  0.62219619  0.33262861  1
  S  S3  1  0.65992067  0.64256642  0.31984133  1
  S  S4  1  0.34009651  0.35761788  0.68019301  1
  S  S5  1  0.66518906  0.12223626  0.33037711  1
  S  S6  1  0.33481619  0.87769728  0.66963038  1
  S  S7  1  0.17908686  0.62973981  0.83161716  1
  S  S8  1  0.65253130  0.62973981  0.83161716  1
  S  S9  1  0.82080235  0.37027506  0.16831571  1
  S  S10  1  0.34751236  0.37027506  0.16831571  1
  S  S11  1  0.15142417  0.12933865  0.82963563  1
  S  S12  1  0.67821146  0.12933865  0.82963563  1
  S  S13  1  0.84850337  0.87056625  0.17044880  1
  S  S14  1  0.32194644  0.87056625  0.17044880  1
  S  S15  1  0.84083698  0.85721866  0.68167597  1
loop_
_geom_bond_atom_site_label_1
_geom_bond_atom_site_label_2
_geom_bond_distance
_geom_bond_site_symmetry_2
Cr0 S13 2.414062 1_445
Cr0 S14 2.414071 1_545
Cr0 S12 2.415151 1_454
Cr0 S11 2.415156 1_554
Cr0 S15 2.450613 1_444
Cr0 S0 2.451683 1_555
Cr1 S7 2.411652 1_554
Cr1 S8 2.411657 1_554
Cr1 S9 2.411800 1_555
Cr1 S10 2.411805 1_555
Cr1 S3 2.455581 1_555
Cr1 S4 2.456537 1_554
Cr2 S2 2.308587 1_555
Cr2 S8 2.370261 1_454
Cr2 S7 2.370271 1_554
Cr2 S13 2.432678 1_455
Cr2 S14 2.432688 1_555
Cr2 S15 2.433472 1_454
Cr3 S1 2.308356 1_555
Cr3 S9 2.370219 1_556
Cr3 S10 2.370225 1_656
Cr3 S12 2.433171 1_555
Cr3 S11 2.433180 1_655
Cr3 S0 2.434421 1_656
Cr4 S6 2.308435 1_555
Cr4 S13 2.370315 1_556
Cr4 S14 2.370320 1_556
Cr4 S3 2.430889 1_556
Cr4 S8 2.432129 1_555
Cr4 S7 2.432135 1_555
Cr5 S5 2.309987 1_555
Cr5 S12 2.370212 1_554
Cr5 S11 2.370213 1_554
Cr5 S4 2.430932 1_554
Cr5 S9 2.432719 1_555
Cr5 S10 2.432722 1_555
Cr6 S2 2.328588 1_555
Cr6 S6 2.329094 1_555
Cr6 S8 2.413674 1_555
Cr6 S14 2.415753 1_555
Cr6 S15 2.456007 1_555
Cr6 S3 2.457924 1_555
Cr7 S2 2.328596 1_555
Cr7 S6 2.329109 1_555
Cr7 S7 2.413679 1_555
Cr7 S13 2.415748 1_455
Cr7 S15 2.456016 1_455
Cr7 S3 2.457920 1_455
Cr8 S1 2.328842 1_555
Cr8 S5 2.330122 1_555
Cr8 S10 2.414461 1_555
Cr8 S12 2.416371 1_555
Cr8 S0 2.456342 1_555
Cr8 S4 2.458375 1_555
Cr9 S1 2.328850 1_555
Cr9 S5 2.330118 1_555
Cr9 S9 2.414461 1_555
Cr9 S11 2.416371 1_655
Cr9 S0 2.456336 1_655
Cr9 S4 2.458376 1_655
