# generated using pymatgen
data_Mg5(SiN3)2
_symmetry_space_group_name_H-M   'P 1'
_cell_length_a   10.52756800
_cell_length_b   10.52756800
_cell_length_c   5.67542400
_cell_angle_alpha   90.00000000
_cell_angle_beta   90.00000000
_cell_angle_gamma   90.00000000
_symmetry_Int_Tables_number   1
_chemical_formula_structural   Mg5(SiN3)2
_chemical_formula_sum   'Mg20 Si8 N24'
_cell_volume   629.00547116
_cell_formula_units_Z   4
loop_
 _symmetry_equiv_pos_site_id
 _symmetry_equiv_pos_as_xyz
  1  'x, y, z'
loop_
 _atom_site_type_symbol
 _atom_site_label
 _atom_site_symmetry_multiplicity
 _atom_site_fract_x
 _atom_site_fract_y
 _atom_site_fract_z
 _atom_site_occupancy
  Mg  Mg0  1  0.27434300  0.10303300  0.84850900  1
  Mg  Mg1  1  0.22565700  0.60303300  0.84850900  1
  Mg  Mg2  1  0.72565700  0.89696700  0.84850900  1
  Mg  Mg3  1  0.77434300  0.39696700  0.84850900  1
  Mg  Mg4  1  0.89696700  0.27434300  0.15149100  1
  Mg  Mg5  1  0.60303300  0.77434300  0.15149100  1
  Mg  Mg6  1  0.10303300  0.72565700  0.15149100  1
  Mg  Mg7  1  0.39696700  0.22565700  0.15149100  1
  Mg  Mg8  1  0.50000000  0.00000000  0.00000000  1
  Mg  Mg9  1  0.00000000  0.50000000  0.00000000  1
  Mg  Mg10  1  0.40274200  0.39477100  0.67822400  1
  Mg  Mg11  1  0.09725800  0.89477100  0.67822400  1
  Mg  Mg12  1  0.59725800  0.60522900  0.67822400  1
  Mg  Mg13  1  0.90274200  0.10522900  0.67822400  1
  Mg  Mg14  1  0.60522900  0.40274200  0.32177600  1
  Mg  Mg15  1  0.89477100  0.90274200  0.32177600  1
  Mg  Mg16  1  0.39477100  0.59725800  0.32177600  1
  Mg  Mg17  1  0.10522900  0.09725800  0.32177600  1
  Mg  Mg18  1  0.50000000  0.00000000  0.50000000  1
  Mg  Mg19  1  0.00000000  0.50000000  0.50000000  1
  Si  Si0  1  0.60436100  0.22754700  0.75144300  1
  Si  Si1  1  0.89563900  0.72754700  0.75144300  1
  Si  Si2  1  0.39563900  0.77245300  0.75144300  1
  Si  Si3  1  0.10436100  0.27245300  0.75144300  1
  Si  Si4  1  0.77245300  0.60436100  0.24855700  1
  Si  Si5  1  0.72754700  0.10436100  0.24855700  1
  Si  Si6  1  0.22754700  0.39563900  0.24855700  1
  Si  Si7  1  0.27245300  0.89563900  0.24855700  1
  N  N0  1  0.45504700  0.16715000  0.80873000  1
  N  N1  1  0.04495300  0.66715000  0.80873000  1
  N  N2  1  0.54495300  0.83285000  0.80873000  1
  N  N3  1  0.95504700  0.33285000  0.80873000  1
  N  N4  1  0.83285000  0.45504700  0.19127000  1
  N  N5  1  0.66715000  0.95504700  0.19127000  1
  N  N6  1  0.16715000  0.54495300  0.19127000  1
  N  N7  1  0.33285000  0.04495300  0.19127000  1
  N  N8  1  0.60419100  0.39391500  0.69581800  1
  N  N9  1  0.89580900  0.89391500  0.69581800  1
  N  N10  1  0.39580900  0.60608500  0.69581800  1
  N  N11  1  0.10419200  0.10608500  0.69581800  1
  N  N12  1  0.60608500  0.60419100  0.30418200  1
  N  N13  1  0.89391500  0.10419200  0.30418200  1
  N  N14  1  0.39391500  0.39580900  0.30418200  1
  N  N15  1  0.10608500  0.89580900  0.30418200  1
  N  N16  1  0.20824000  0.29176000  0.00000000  1
  N  N17  1  0.29176000  0.79176000  0.00000000  1
  N  N18  1  0.79176000  0.70824000  0.00000000  1
  N  N19  1  0.70824000  0.20824000  0.00000000  1
  N  N20  1  0.64595100  0.14595100  0.50000000  1
  N  N21  1  0.85404900  0.64595100  0.50000000  1
  N  N22  1  0.35404900  0.85404900  0.50000000  1
  N  N23  1  0.14595100  0.35404900  0.50000000  1
loop_
_geom_bond_atom_site_label_1
_geom_bond_atom_site_label_2
_geom_bond_distance
_geom_bond_site_symmetry_2
Mg0 N11 1.990144 1_555
Mg0 N0 2.031161 1_555
Mg0 N7 2.130137 1_556
Mg0 N16 2.273987 1_556
Mg1 N10 1.990154 1_555
Mg1 N1 2.031161 1_555
Mg1 N6 2.130137 1_556
Mg1 N17 2.273987 1_556
Mg2 N9 1.990154 1_555
Mg2 N2 2.031161 1_555
Mg2 N5 2.130137 1_556
Mg2 N18 2.273987 1_556
Mg3 N8 1.990154 1_555
Mg3 N3 2.031161 1_555
Mg3 N4 2.130137 1_556
Mg3 N19 2.273987 1_556
Mg4 N13 1.990144 1_555
Mg4 N4 2.031161 1_555
Mg4 N3 2.130137 1_554
Mg4 N19 2.273987 1_555
Mg5 N12 1.990154 1_555
Mg5 N5 2.031161 1_555
Mg5 N2 2.130137 1_554
Mg5 N18 2.273987 1_555
Mg6 N15 1.990154 1_555
Mg6 N6 2.031161 1_555
Mg6 N1 2.130137 1_554
Mg6 N17 2.273987 1_555
Mg7 N14 1.990154 1_555
Mg7 N7 2.031161 1_555
Mg7 N0 2.130137 1_554
Mg7 N16 2.273987 1_555
Mg8 N0 2.121047 1_554
Mg8 N2 2.121047 1_544
Mg8 N5 2.121047 1_545
Mg8 N7 2.121047 1_555
Mg9 N6 2.121047 1_555
Mg9 N1 2.121047 1_554
Mg9 N4 2.121047 1_455
Mg9 N3 2.121047 1_454
Mg10 N8 2.123137 1_555
Mg10 N14 2.124908 1_555
Mg10 N10 2.228058 1_555
Mg10 N0 2.567887 1_555
Mg11 N9 2.123137 1_455
Mg11 N15 2.124908 1_555
Mg11 N11 2.228059 1_565
Mg11 N1 2.567887 1_555
Mg12 N10 2.123137 1_555
Mg12 N12 2.124908 1_555
Mg12 N8 2.228058 1_555
Mg12 N2 2.567887 1_555
Mg13 N11 2.123147 1_655
Mg13 N13 2.124908 1_555
Mg13 N9 2.228058 1_545
Mg13 N3 2.567887 1_555
Mg14 N12 2.123137 1_555
Mg14 N8 2.124908 1_555
Mg14 N14 2.228058 1_555
Mg14 N4 2.567887 1_555
Mg15 N13 2.123147 1_565
Mg15 N9 2.124908 1_555
Mg15 N15 2.228058 1_655
Mg15 N5 2.567887 1_555
Mg16 N14 2.123137 1_555
Mg16 N10 2.124908 1_555
Mg16 N12 2.228058 1_555
Mg16 N6 2.567887 1_555
Mg17 N15 2.123137 1_545
Mg17 N11 2.124908 1_555
Mg17 N13 2.228059 1_455
Mg17 N7 2.567887 1_555
Mg18 N22 2.172952 1_545
Mg18 N20 2.172952 1_555
Mg18 N2 2.527955 1_545
Mg18 N7 2.527955 1_555
Mg18 N0 2.527955 1_555
Mg18 N5 2.527955 1_545
Mg19 N23 2.172952 1_555
Mg19 N21 2.172952 1_455
Mg19 N4 2.527955 1_455
Mg19 N3 2.527955 1_455
Mg19 N6 2.527955 1_555
Mg19 N1 2.527955 1_555
N0 Si0 1.726529 1_555
N1 Si1 1.726529 1_455
N2 Si2 1.726529 1_555
N3 Si3 1.726529 1_655
N4 Si4 1.726529 1_555
N5 Si5 1.726529 1_565
N6 Si6 1.726529 1_555
N7 Si7 1.726529 1_545
N8 Si0 1.779676 1_555
N9 Si1 1.779676 1_555
N10 Si2 1.779676 1_555
N11 Si3 1.779676 1_555
N12 Si4 1.779676 1_555
N13 Si5 1.779676 1_555
N14 Si6 1.779676 1_555
N15 Si7 1.779676 1_555
N16 Si6 1.796452 1_555
N16 Si3 1.796452 1_554
N17 Si7 1.796452 1_555
N17 Si2 1.796452 1_554
N18 Si1 1.796452 1_554
N18 Si4 1.796452 1_555
N19 Si0 1.796452 1_554
N19 Si5 1.796452 1_555
N20 Si5 1.722225 1_555
N20 Si0 1.722225 1_555
N21 Si4 1.722225 1_555
N21 Si1 1.722225 1_555
N22 Si2 1.722225 1_555
N22 Si7 1.722225 1_555
N23 Si6 1.722225 1_555
N23 Si3 1.722225 1_555
