# generated using pymatgen
data_TiPb2Se2ClO7F
_symmetry_space_group_name_H-M   'P 1'
_cell_length_a   5.45695200
_cell_length_b   8.47679678
_cell_length_c   10.95060546
_cell_angle_alpha   111.60531804
_cell_angle_beta   90.00000000
_cell_angle_gamma   90.00000000
_symmetry_Int_Tables_number   1
_chemical_formula_structural   TiPb2Se2ClO7F
_chemical_formula_sum   'Ti2 Pb4 Se4 Cl2 O14 F2'
_cell_volume   470.95849379
_cell_formula_units_Z   2
loop_
 _symmetry_equiv_pos_site_id
 _symmetry_equiv_pos_as_xyz
  1  'x, y, z'
loop_
 _atom_site_type_symbol
 _atom_site_label
 _atom_site_symmetry_multiplicity
 _atom_site_fract_x
 _atom_site_fract_y
 _atom_site_fract_z
 _atom_site_occupancy
  Ti  Ti0  1  0.02081600  0.65087200  0.04280300  1
  Ti  Ti1  1  0.52081600  0.34912800  0.95719700  1
  Pb  Pb0  1  0.56323400  0.83283500  0.81000000  1
  Pb  Pb1  1  0.06323400  0.16716500  0.19000000  1
  Pb  Pb2  1  0.51954500  0.29191000  0.50371900  1
  Pb  Pb3  1  0.01954500  0.70809000  0.49628100  1
  Se  Se0  1  0.02326700  0.12628400  0.80904100  1
  Se  Se1  1  0.52326700  0.87371600  0.19095900  1
  Se  Se2  1  0.01509800  0.50893600  0.72159200  1
  Se  Se3  1  0.51509800  0.49106400  0.27840800  1
  Cl  Cl0  1  0.49860900  0.87468600  0.54968800  1
  Cl  Cl1  1  0.99860900  0.12531400  0.45031200  1
  O  O0  1  0.79681800  0.16766200  0.93124300  1
  O  O1  1  0.29681800  0.83233800  0.06875700  1
  O  O2  1  0.28928700  0.12172500  0.89568500  1
  O  O3  1  0.78928700  0.87827500  0.10431500  1
  O  O4  1  0.96907300  0.91231800  0.73324900  1
  O  O5  1  0.46907300  0.08768200  0.26675100  1
  O  O6  1  0.78892300  0.55937600  0.62983900  1
  O  O7  1  0.28892300  0.44062400  0.37016100  1
  O  O8  1  0.26683500  0.57932100  0.66254300  1
  O  O9  1  0.76683500  0.42067900  0.33745700  1
  O  O10  1  0.95317500  0.67626600  0.87087300  1
  O  O11  1  0.45317500  0.32373400  0.12912700  1
  O  O12  1  0.22429200  0.47317200  0.96808300  1
  O  O13  1  0.72429200  0.52682800  0.03191700  1
  F  F0  1  0.06817900  0.67843100  0.22244300  1
  F  F1  1  0.56817900  0.32156900  0.77755700  1
loop_
_geom_bond_atom_site_label_1
_geom_bond_atom_site_label_2
_geom_bond_distance
_geom_bond_site_symmetry_2
Cl0 Pb3 2.926145 1_555
Cl0 Pb0 3.020053 1_555
Cl0 Pb3 3.131964 1_655
Cl1 Pb2 2.926145 1_555
Cl1 Pb1 3.020053 1_655
Cl1 Pb2 3.131964 1_655
O0 Se0 1.759295 1_655
O0 Ti1 2.096059 1_555
O1 Se1 1.759295 1_555
O1 Ti0 2.096059 1_555
O2 Se0 1.742423 1_555
O2 Ti1 2.193089 1_555
O2 Pb0 2.723964 1_545
O3 Se1 1.742423 1_555
O3 Ti0 2.193089 1_655
O3 Pb1 2.723964 1_665
O4 Se0 1.719712 1_665
O4 Pb0 2.545979 1_555
O4 Pb3 2.549189 1_655
O5 Se1 1.719712 1_545
O5 Pb1 2.545979 1_555
O5 Pb2 2.549189 1_555
O6 Se2 1.741270 1_655
O6 Pb3 2.582583 1_655
O6 Pb2 2.627310 1_555
O6 Pb0 2.722969 1_555
O7 Se3 1.741270 1_555
O7 Pb2 2.582583 1_555
O7 Pb3 2.627310 1_555
O7 Pb1 2.722969 1_555
O8 Se2 1.716190 1_555
O8 Pb0 2.699298 1_555
O8 Pb2 2.782415 1_555
O8 Pb3 2.791211 1_555
O9 Se3 1.716190 1_555
O9 Pb1 2.699298 1_655
O9 Pb3 2.782415 1_655
O9 Pb2 2.791211 1_555
O10 Se2 1.758082 1_655
O10 Ti0 2.006424 1_656
O10 Pb0 2.717582 1_555
O11 Se3 1.758082 1_555
O11 Ti1 2.006424 1_554
O11 Pb1 2.717582 1_555
O12 Ti0 1.806588 1_556
O12 Ti1 1.909411 1_555
O13 Ti1 1.806588 1_554
O13 Ti0 1.909411 1_655
F0 Ti0 1.911202 1_555
F1 Ti1 1.911202 1_555
