# generated using pymatgen
data_MgMo2(PO5)2
_symmetry_space_group_name_H-M   'P 1'
_cell_length_a   9.91861741
_cell_length_b   8.74146836
_cell_length_c   7.10256220
_cell_angle_alpha   76.74050041
_cell_angle_beta   59.07317344
_cell_angle_gamma   44.18632615
_symmetry_Int_Tables_number   1
_chemical_formula_structural   MgMo2(PO5)2
_chemical_formula_sum   'Mg2 Mo4 P4 O20'
_cell_volume   358.08112782
_cell_formula_units_Z   2
loop_
 _symmetry_equiv_pos_site_id
 _symmetry_equiv_pos_as_xyz
  1  'x, y, z'
loop_
 _atom_site_type_symbol
 _atom_site_label
 _atom_site_symmetry_multiplicity
 _atom_site_fract_x
 _atom_site_fract_y
 _atom_site_fract_z
 _atom_site_occupancy
  Mg  Mg0  1  0.50102200  0.99897800  0.99897800  1
  Mg  Mg1  1  0.25102200  0.74897800  0.74897800  1
  Mo  Mo0  1  0.87192800  0.37953100  0.38012500  1
  Mo  Mo1  1  0.36841500  0.38012500  0.37953100  1
  Mo  Mo2  1  0.87046900  0.37807200  0.88158500  1
  Mo  Mo3  1  0.86987500  0.88158500  0.37807200  1
  P  P0  1  0.04151200  0.55513800  0.95653500  1
  P  P1  1  0.69486200  0.20848800  0.80318400  1
  P  P2  1  0.44681600  0.95653500  0.55513800  1
  P  P3  1  0.29346500  0.80318400  0.20848800  1
  O  O0  1  0.56294700  0.72151400  0.46844600  1
  O  O1  1  0.66192800  0.17563600  0.33566900  1
  O  O2  1  0.30671700  0.67537300  0.40312700  1
  O  O3  1  0.78155400  0.00290600  0.68705300  1
  O  O4  1  0.21354900  0.06498200  0.75853800  1
  O  O5  1  0.43040600  0.08724000  0.36336900  1
  O  O6  1  0.07436400  0.58807200  0.42323200  1
  O  O7  1  0.82676800  0.33566900  0.17563600  1
  O  O8  1  0.91433100  0.42323200  0.58807200  1
  O  O9  1  0.18501800  0.03645100  0.28706900  1
  O  O10  1  0.24709400  0.46844600  0.72151400  1
  O  O11  1  0.49146200  0.28706900  0.03645100  1
  O  O12  1  0.96293100  0.75853800  0.06498200  1
  O  O13  1  0.16276000  0.81959400  0.13101600  1
  O  O14  1  0.11898400  0.36336900  0.08724000  1
  O  O15  1  0.88663100  0.13101600  0.81959400  1
  O  O16  1  0.84687300  0.63521700  0.94328300  1
  O  O17  1  0.61478300  0.40312700  0.67537300  1
  O  O18  1  0.52848600  0.68705300  0.00290600  1
  O  O19  1  0.57462700  0.94328300  0.63521700  1
loop_
_geom_bond_atom_site_label_1
_geom_bond_atom_site_label_2
_geom_bond_distance
_geom_bond_site_symmetry_2
Mg0 O19 2.360856 1_555
Mg0 O16 2.360856 1_555
Mg0 O5 2.462082 1_566
Mg0 O14 2.462087 1_566
Mg0 O11 2.522086 1_566
Mg0 O9 2.522086 1_566
Mg0 O3 2.533264 1_565
Mg0 O18 2.533271 1_556
Mg1 O2 2.360856 1_555
Mg1 O17 2.360856 1_555
Mg1 O15 2.462085 1_465
Mg1 O13 2.462089 1_556
Mg1 O12 2.522086 1_456
Mg1 O4 2.522086 1_565
Mg1 O10 2.533262 1_555
Mg1 O0 2.533270 1_555
Mo0 O7 1.904616 1_555
Mo0 O8 1.905769 1_555
Mo0 O0 2.113618 1_555
Mo0 O9 2.125454 1_655
Mo0 O14 2.179611 1_655
Mo0 O17 2.211671 1_555
Mo1 O1 1.904631 1_555
Mo1 O6 1.905769 1_555
Mo1 O10 2.113624 1_555
Mo1 O11 2.125451 1_555
Mo1 O5 2.179611 1_555
Mo1 O2 2.211677 1_555
Mo2 O8 1.904629 1_555
Mo2 O7 1.905769 1_556
Mo2 O18 2.113620 1_556
Mo2 O4 2.125453 1_655
Mo2 O15 2.179611 1_555
Mo2 O16 2.211669 1_555
Mo3 O6 1.904626 1_655
Mo3 O1 1.905769 1_565
Mo3 O3 2.113610 1_565
Mo3 O12 2.125458 1_555
Mo3 O13 2.179611 1_655
Mo3 O19 2.211676 1_555
O0 P2 1.544036 1_555
O2 P3 1.563431 1_555
O3 P1 1.544036 1_555
O4 P2 1.544606 1_545
O5 P2 1.560257 1_545
O9 P3 1.544608 1_545
O10 P0 1.544036 1_555
O11 P1 1.544603 1_554
O12 P0 1.544600 1_654
O13 P3 1.560246 1_555
O14 P0 1.560256 1_554
O15 P1 1.560265 1_555
O16 P0 1.563435 1_655
O17 P1 1.563431 1_555
O18 P3 1.544036 1_555
O19 P2 1.563426 1_555
