# generated using pymatgen
data_Sc3(Ni10B3)2
_symmetry_space_group_name_H-M   'P 1'
_cell_length_a   7.51193192
_cell_length_b   7.51193192
_cell_length_c   7.51193192
_cell_angle_alpha   60.00000000
_cell_angle_beta   60.00000000
_cell_angle_gamma   60.00000000
_symmetry_Int_Tables_number   1
_chemical_formula_structural   Sc3(Ni10B3)2
_chemical_formula_sum   'Sc3 Ni20 B6'
_cell_volume   299.73670718
_cell_formula_units_Z   1
loop_
 _symmetry_equiv_pos_site_id
 _symmetry_equiv_pos_as_xyz
  1  'x, y, z'
loop_
 _atom_site_type_symbol
 _atom_site_label
 _atom_site_symmetry_multiplicity
 _atom_site_fract_x
 _atom_site_fract_y
 _atom_site_fract_z
 _atom_site_occupancy
  Sc  Sc0  1  0.00000000  0.00000000  0.00000000  1
  Sc  Sc1  1  0.75000000  0.75000000  0.75000000  1
  Sc  Sc2  1  0.25000000  0.25000000  0.25000000  1
  Ni  Ni0  1  0.61400600  0.61400600  0.15798200  1
  Ni  Ni1  1  0.61400600  0.15798200  0.61400600  1
  Ni  Ni2  1  0.15798200  0.61400600  0.61400600  1
  Ni  Ni3  1  0.61400600  0.61400600  0.61400600  1
  Ni  Ni4  1  0.38599400  0.38599400  0.84201800  1
  Ni  Ni5  1  0.38599400  0.84201800  0.38599400  1
  Ni  Ni6  1  0.84201800  0.38599400  0.38599400  1
  Ni  Ni7  1  0.38599400  0.38599400  0.38599400  1
  Ni  Ni8  1  0.00000000  0.00000000  0.34296200  1
  Ni  Ni9  1  0.65703800  0.00000000  0.34296200  1
  Ni  Ni10  1  0.00000000  0.65703800  0.34296200  1
  Ni  Ni11  1  0.65703800  0.34296200  0.00000000  1
  Ni  Ni12  1  0.00000000  0.34296200  0.00000000  1
  Ni  Ni13  1  0.00000000  0.34296200  0.65703800  1
  Ni  Ni14  1  0.34296200  0.65703800  0.00000000  1
  Ni  Ni15  1  0.34296200  0.00000000  0.65703800  1
  Ni  Ni16  1  0.34296200  0.00000000  0.00000000  1
  Ni  Ni17  1  0.00000000  0.00000000  0.65703800  1
  Ni  Ni18  1  0.00000000  0.65703800  0.00000000  1
  Ni  Ni19  1  0.65703800  0.00000000  0.00000000  1
  B  B0  1  0.73293100  0.73293100  0.26706900  1
  B  B1  1  0.26706900  0.73293100  0.26706900  1
  B  B2  1  0.73293100  0.26706900  0.26706900  1
  B  B3  1  0.26706900  0.26706900  0.73293100  1
  B  B4  1  0.73293100  0.26706900  0.73293100  1
  B  B5  1  0.26706900  0.73293100  0.73293100  1
loop_
_geom_bond_atom_site_label_1
_geom_bond_atom_site_label_2
_geom_bond_distance
_geom_bond_site_symmetry_2
Ni0 Sc1 2.502344 1_554
Ni0 Ni14 2.651969 1_555
Ni0 Ni11 2.651969 1_555
Ni0 Ni16 2.651969 1_565
Ni0 Ni12 2.651969 1_655
Ni0 Ni18 2.651969 1_655
Ni0 Ni19 2.651969 1_565
Ni1 Sc1 2.502344 1_545
Ni1 Ni15 2.651969 1_555
Ni1 Ni9 2.651969 1_555
Ni1 Ni16 2.651969 1_556
Ni1 Ni8 2.651969 1_655
Ni1 Ni17 2.651969 1_655
Ni1 Ni19 2.651969 1_556
Ni2 Sc1 2.502344 1_455
Ni2 Ni8 2.651969 1_565
Ni3 Sc1 2.502344 1_555
Ni3 Ni9 2.651969 1_565
Ni4 Sc2 2.502344 1_556
Ni5 Sc2 2.502344 1_565
Ni5 Ni8 2.651969 1_565
Ni5 Ni9 2.651969 1_565
Ni6 Sc2 2.502344 1_655
Ni6 Ni8 2.651969 1_655
Ni7 Sc2 2.502344 1_555
Ni7 Ni9 2.651969 1_555
Ni8 Sc0 2.576307 1_555
Ni8 Ni9 2.576307 1_455
Ni8 Sc2 2.906069 1_555
Ni8 Sc1 2.906069 1_445
Ni9 Sc0 2.576307 1_655
Ni9 Sc1 2.906069 1_545
Ni9 Sc2 2.906069 1_555
Ni10 Ni13 2.359318 1_555
Ni10 Ni14 2.576307 1_555
Ni10 Ni18 2.576307 1_555
Ni10 Ni9 2.576307 1_465
Ni10 Sc0 2.576307 1_565
Ni10 Ni8 2.576307 1_565
Ni10 Ni2 2.651969 1_555
Ni10 Ni7 2.651969 1_555
Ni10 Ni6 2.651969 1_455
Ni10 Ni3 2.651969 1_455
Ni10 Sc2 2.906069 1_555
Ni10 Sc1 2.906069 1_455
Ni11 Ni14 2.359318 1_555
Ni11 Sc0 2.576307 1_655
Ni11 Ni12 2.576307 1_655
Ni11 Ni19 2.576307 1_555
Ni11 Ni9 2.576307 1_555
Ni11 Ni13 2.576307 1_654
Ni11 Ni7 2.651969 1_555
Ni11 Ni4 2.651969 1_554
Ni11 Ni3 2.651969 1_554
Ni11 Sc2 2.906069 1_555
Ni11 Sc1 2.906069 1_554
Ni12 Ni18 2.359318 1_555
Ni12 Sc0 2.576307 1_555
Ni12 Ni8 2.576307 1_555
Ni12 Ni13 2.576307 1_554
Ni12 Ni16 2.576307 1_555
Ni12 Ni2 2.651969 1_554
Ni12 Ni4 2.651969 1_554
Ni12 Ni6 2.651969 1_455
Ni12 Sc2 2.906069 1_555
Ni12 Sc1 2.906069 1_454
Ni13 Ni17 2.576307 1_555
Ni13 Sc0 2.576307 1_556
Ni13 Ni15 2.576307 1_555
Ni13 Ni2 2.651969 1_555
Ni13 Ni7 2.651969 1_555
Ni13 Ni6 2.651969 1_455
Ni13 Ni3 2.651969 1_455
Ni13 Sc2 2.906069 1_555
Ni13 Sc1 2.906069 1_455
Ni14 Ni18 2.576307 1_555
Ni14 Ni15 2.576307 1_564
Ni14 Sc0 2.576307 1_565
Ni14 Ni16 2.576307 1_565
Ni14 Ni7 2.651969 1_555
Ni14 Ni4 2.651969 1_554
Ni14 Ni3 2.651969 1_554
Ni14 Sc2 2.906069 1_555
Ni14 Sc1 2.906069 1_554
Ni15 Ni9 2.359318 1_555
Ni15 Ni17 2.576307 1_555
Ni15 Sc0 2.576307 1_556
Ni15 Ni16 2.576307 1_556
Ni15 Ni7 2.651969 1_555
Ni15 Ni5 2.651969 1_545
Ni15 Ni3 2.651969 1_545
Ni15 Sc1 2.906069 1_545
Ni15 Sc2 2.906069 1_555
Ni16 Ni19 2.359318 1_555
Ni16 Sc0 2.576307 1_555
Ni16 Ni8 2.576307 1_555
Ni16 Ni4 2.651969 1_554
Ni16 Ni5 2.651969 1_545
Ni16 Sc2 2.906069 1_555
Ni16 Sc1 2.906069 1_544
Ni17 Ni8 2.359318 1_555
Ni17 Sc0 2.576307 1_556
Ni17 Ni18 2.576307 1_546
Ni17 Ni19 2.576307 1_456
Ni17 Ni6 2.651969 1_455
Ni17 Ni5 2.651969 1_545
Ni17 Ni2 2.651969 1_545
Ni17 Sc2 2.906069 1_555
Ni17 Sc1 2.906069 1_445
Ni18 Sc0 2.576307 1_565
Ni18 Ni19 2.576307 1_465
Ni18 Ni4 2.651969 1_554
Ni18 Ni6 2.651969 1_455
Ni18 Ni2 2.651969 1_554
Ni18 Sc2 2.906069 1_555
Ni18 Sc1 2.906069 1_454
Ni19 Ni9 2.576307 1_555
Ni19 Sc0 2.576307 1_655
Ni19 Ni5 2.651969 1_545
Ni19 Ni4 2.651969 1_554
Ni19 Sc2 2.906069 1_555
Ni19 Sc1 2.906069 1_544
B0 Ni9 2.085635 1_565
B0 Ni18 2.085635 1_655
B0 Ni19 2.085635 1_565
B0 Ni10 2.085635 1_655
B0 Ni3 2.128354 1_555
B0 Ni5 2.128354 1_555
B0 Ni6 2.128354 1_555
B0 Ni0 2.128354 1_555
B1 Ni16 2.085635 1_565
B1 Ni8 2.085635 1_565
B1 Ni10 2.085635 1_555
B1 Ni14 2.085635 1_555
B1 Ni2 2.128354 1_555
B1 Ni0 2.128354 1_555
B1 Ni5 2.128354 1_555
B1 Ni7 2.128354 1_555
B2 Ni8 2.085635 1_655
B2 Ni9 2.085635 1_555
B2 Ni12 2.085635 1_655
B2 Ni11 2.085635 1_555
B2 Ni0 2.128354 1_555
B2 Ni1 2.128354 1_555
B2 Ni6 2.128354 1_555
B2 Ni7 2.128354 1_555
B3 Ni16 2.085635 1_556
B3 Ni15 2.085635 1_555
B3 Ni13 2.085635 1_555
B3 Ni12 2.085635 1_556
B3 Ni2 2.128354 1_555
B3 Ni4 2.128354 1_555
B3 Ni1 2.128354 1_555
B3 Ni7 2.128354 1_555
B4 Ni19 2.085635 1_556
B4 Ni11 2.085635 1_556
B4 Ni13 2.085635 1_655
B4 Ni17 2.085635 1_655
B4 Ni3 2.128354 1_555
B4 Ni4 2.128354 1_555
B4 Ni6 2.128354 1_555
B4 Ni1 2.128354 1_555
B5 Ni14 2.085635 1_556
B5 Ni18 2.085635 1_556
B5 Ni17 2.085635 1_565
B5 Ni15 2.085635 1_565
B5 Ni3 2.128354 1_555
B5 Ni4 2.128354 1_555
B5 Ni5 2.128354 1_555
B5 Ni2 2.128354 1_555
