# generated using pymatgen
data_K2Li3GaO4
_symmetry_space_group_name_H-M   'P 1'
_cell_length_a   8.90846700
_cell_length_b   5.60825600
_cell_length_c   11.07387087
_cell_angle_alpha   68.76826875
_cell_angle_beta   90.00000000
_cell_angle_gamma   90.00000000
_symmetry_Int_Tables_number   1
_chemical_formula_structural   K2Li3GaO4
_chemical_formula_sum   'K8 Li12 Ga4 O16'
_cell_volume   515.70775693
_cell_formula_units_Z   4
loop_
 _symmetry_equiv_pos_site_id
 _symmetry_equiv_pos_as_xyz
  1  'x, y, z'
loop_
 _atom_site_type_symbol
 _atom_site_label
 _atom_site_symmetry_multiplicity
 _atom_site_fract_x
 _atom_site_fract_y
 _atom_site_fract_z
 _atom_site_occupancy
  K  K0  1  0.99278600  0.29104800  0.86268600  1
  K  K1  1  0.49278600  0.70895200  0.63731400  1
  K  K2  1  0.00721400  0.70895200  0.13731400  1
  K  K3  1  0.50721400  0.29104800  0.36268600  1
  K  K4  1  0.72786600  0.27991200  0.60921100  1
  K  K5  1  0.22786600  0.72008800  0.89078900  1
  K  K6  1  0.27213400  0.72008800  0.39078900  1
  K  K7  1  0.77213400  0.27991200  0.10921100  1
  Li  Li0  1  0.26147000  0.38275600  0.20098700  1
  Li  Li1  1  0.76147000  0.61724400  0.29901300  1
  Li  Li2  1  0.73853000  0.61724400  0.79901300  1
  Li  Li3  1  0.23853000  0.38275600  0.70098700  1
  Li  Li4  1  0.03528300  0.09337100  0.29723400  1
  Li  Li5  1  0.53528300  0.90662900  0.20276600  1
  Li  Li6  1  0.96471700  0.90662900  0.70276600  1
  Li  Li7  1  0.46471700  0.09337100  0.79723400  1
  Li  Li8  1  0.49102800  0.62849400  0.06985700  1
  Li  Li9  1  0.99102800  0.37150600  0.43014300  1
  Li  Li10  1  0.50897200  0.37150600  0.93014300  1
  Li  Li11  1  0.00897200  0.62849400  0.56985700  1
  Ga  Ga0  1  0.28855900  0.10278600  0.06350800  1
  Ga  Ga1  1  0.78855900  0.89721400  0.43649200  1
  Ga  Ga2  1  0.71144100  0.89721400  0.93649200  1
  Ga  Ga3  1  0.21144100  0.10278600  0.56350800  1
  O  O0  1  0.32222400  0.74948100  0.14243000  1
  O  O1  1  0.82222400  0.25051900  0.35757000  1
  O  O2  1  0.67777600  0.25051900  0.85757000  1
  O  O3  1  0.17777600  0.74948100  0.64243000  1
  O  O4  1  0.18989400  0.23247600  0.38176200  1
  O  O5  1  0.68989400  0.76752400  0.11823800  1
  O  O6  1  0.81010600  0.76752400  0.61823800  1
  O  O7  1  0.31010600  0.23247600  0.88176200  1
  O  O8  1  0.10904000  0.21747000  0.11503900  1
  O  O9  1  0.60904000  0.78253000  0.38496100  1
  O  O10  1  0.89096000  0.78253000  0.88496100  1
  O  O11  1  0.39096000  0.21747000  0.61503900  1
  O  O12  1  0.05136700  0.25835200  0.62349200  1
  O  O13  1  0.55136700  0.74164800  0.87650800  1
  O  O14  1  0.94863300  0.74164800  0.37650800  1
  O  O15  1  0.44863300  0.25835200  0.12349200  1
loop_
_geom_bond_atom_site_label_1
_geom_bond_atom_site_label_2
_geom_bond_distance
_geom_bond_site_symmetry_2
K0 O12 2.770183 1_655
K0 O2 2.817672 1_555
K0 O7 2.844866 1_655
K0 O8 2.866531 1_656
K0 O10 2.916764 1_545
K0 O10 2.995605 1_555
K1 O13 2.770183 1_555
K1 O3 2.817672 1_555
K1 O6 2.844866 1_555
K1 O9 2.866531 1_555
K1 O11 2.916764 1_565
K1 O11 2.995605 1_555
K2 O14 2.770183 1_455
K2 O0 2.817672 1_555
K2 O5 2.844866 1_455
K2 O10 2.866531 1_454
K2 O8 2.916764 1_565
K2 O8 2.995605 1_555
K3 O15 2.770183 1_555
K3 O1 2.817672 1_555
K3 O4 2.844866 1_555
K3 O11 2.866531 1_555
K3 O9 2.916764 1_545
K3 O9 2.995605 1_555
K4 O2 2.731675 1_555
K4 O6 2.867588 1_555
K4 O12 2.886367 1_655
K4 O6 2.931942 1_545
K4 O1 2.971839 1_555
K4 O11 3.019657 1_555
K4 O9 3.187965 1_555
K5 O3 2.731675 1_555
K5 O7 2.867588 1_555
K5 O13 2.886367 1_555
K5 O7 2.931942 1_565
K5 O0 2.971839 1_556
K5 O10 3.019657 1_455
K5 O8 3.187965 1_556
K6 O0 2.731675 1_555
K6 O4 2.867588 1_555
K6 O14 2.886367 1_455
K6 O4 2.931942 1_565
K6 O3 2.971839 1_555
K6 O9 3.019657 1_555
K6 O11 3.187965 1_555
K7 O1 2.731675 1_555
K7 O5 2.867588 1_555
K7 O15 2.886367 1_555
K7 O5 2.931942 1_545
K7 O2 2.971839 1_554
K7 O8 3.019657 1_655
K7 O10 3.187965 1_554
Li0 O4 1.975452 1_555
Li0 O0 1.994350 1_555
Li0 O8 2.061091 1_555
Li0 O15 2.106392 1_555
Li1 O5 1.975452 1_555
Li1 O1 1.994350 1_555
Li1 O9 2.061091 1_555
Li1 O14 2.106392 1_555
Li2 O6 1.975452 1_555
Li2 O2 1.994350 1_555
Li2 O10 2.061091 1_555
Li2 O13 2.106392 1_555
Li3 O7 1.975452 1_555
Li3 O3 1.994350 1_555
Li3 O11 2.061091 1_555
Li3 O12 2.106392 1_555
Li4 O4 1.977573 1_555
Li4 O8 1.992435 1_555
Li4 O14 2.000820 1_445
Li4 O1 2.291763 1_455
Li5 O5 1.977573 1_555
Li5 O9 1.992435 1_555
Li5 O15 2.000820 1_565
Li5 O0 2.291763 1_555
Li6 O6 1.977573 1_555
Li6 O10 1.992435 1_555
Li6 O12 2.000820 1_665
Li6 O3 2.291763 1_655
Li7 O7 1.977573 1_555
Li7 O11 1.992435 1_555
Li7 O13 2.000820 1_545
Li7 O2 2.291763 1_555
Li8 O0 1.939742 1_555
Li8 O15 1.977769 1_555
Li8 O13 2.071699 1_554
Li8 O5 2.082331 1_555
Li9 O1 1.939742 1_555
Li9 O14 1.977769 1_555
Li9 O12 2.071699 1_655
Li9 O4 2.082331 1_655
Li10 O2 1.939742 1_555
Li10 O13 1.977769 1_555
Li10 O15 2.071699 1_556
Li10 O7 2.082331 1_555
Li11 O3 1.939742 1_555
Li11 O12 1.977769 1_555
Li11 O14 2.071699 1_455
Li11 O6 2.082331 1_455
Ga0 O0 1.877650 1_545
Ga0 O7 1.885816 1_554
Ga0 O8 1.887515 1_555
Ga0 O15 1.911981 1_555
Ga1 O1 1.877650 1_565
Ga1 O6 1.885816 1_555
Ga1 O9 1.887515 1_555
Ga1 O14 1.911981 1_555
Ga2 O2 1.877650 1_565
Ga2 O5 1.885816 1_556
Ga2 O10 1.887515 1_555
Ga2 O13 1.911981 1_555
Ga3 O3 1.877650 1_545
Ga3 O4 1.885816 1_555
Ga3 O11 1.887515 1_555
Ga3 O12 1.911981 1_555
