# generated using pymatgen
data_CrSiO4
_symmetry_space_group_name_H-M   'P 1'
_cell_length_a   9.72359640
_cell_length_b   9.72359640
_cell_length_c   9.72359640
_cell_angle_alpha   109.47122063
_cell_angle_beta   109.47122063
_cell_angle_gamma   109.47122063
_symmetry_Int_Tables_number   1
_chemical_formula_structural   CrSiO4
_chemical_formula_sum   'Cr12 Si12 O48'
_cell_volume   707.71578448
_cell_formula_units_Z   12
loop_
 _symmetry_equiv_pos_site_id
 _symmetry_equiv_pos_as_xyz
  1  'x, y, z'
loop_
 _atom_site_type_symbol
 _atom_site_label
 _atom_site_symmetry_multiplicity
 _atom_site_fract_x
 _atom_site_fract_y
 _atom_site_fract_z
 _atom_site_occupancy
  Cr  Cr0  1  0.87500000  0.75000000  0.62500000  1
  Cr  Cr1  1  0.87500000  0.62500000  0.25000000  1
  Cr  Cr2  1  0.62500000  0.87500000  0.75000000  1
  Cr  Cr3  1  0.25000000  0.87500000  0.62500000  1
  Cr  Cr4  1  0.75000000  0.62500000  0.87500000  1
  Cr  Cr5  1  0.62500000  0.25000000  0.87500000  1
  Cr  Cr6  1  0.12500000  0.25000000  0.37500000  1
  Cr  Cr7  1  0.12500000  0.37500000  0.75000000  1
  Cr  Cr8  1  0.37500000  0.12500000  0.25000000  1
  Cr  Cr9  1  0.75000000  0.12500000  0.37500000  1
  Cr  Cr10  1  0.25000000  0.37500000  0.12500000  1
  Cr  Cr11  1  0.37500000  0.75000000  0.12500000  1
  Si  Si0  1  0.12500000  0.75000000  0.87500000  1
  Si  Si1  1  0.75000000  0.87500000  0.12500000  1
  Si  Si2  1  0.25000000  0.62500000  0.37500000  1
  Si  Si3  1  0.62500000  0.75000000  0.37500000  1
  Si  Si4  1  0.87500000  0.12500000  0.75000000  1
  Si  Si5  1  0.37500000  0.25000000  0.62500000  1
  Si  Si6  1  0.37500000  0.62500000  0.75000000  1
  Si  Si7  1  0.25000000  0.12500000  0.87500000  1
  Si  Si8  1  0.62500000  0.37500000  0.25000000  1
  Si  Si9  1  0.12500000  0.87500000  0.25000000  1
  Si  Si10  1  0.75000000  0.37500000  0.62500000  1
  Si  Si11  1  0.87500000  0.25000000  0.12500000  1
  O  O0  1  0.59228000  0.90352500  0.36811100  1
  O  O1  1  0.36811100  0.59228000  0.90352500  1
  O  O2  1  0.27583100  0.31124500  0.90772000  1
  O  O3  1  0.46458600  0.59647500  0.18875500  1
  O  O4  1  0.31124500  0.90352500  0.03541400  1
  O  O5  1  0.13188900  0.03541400  0.22416900  1
  O  O6  1  0.36811100  0.27583100  0.46458600  1
  O  O7  1  0.90352500  0.36811100  0.59228000  1
  O  O8  1  0.18875500  0.22416900  0.59228000  1
  O  O9  1  0.46458600  0.36811100  0.27583100  1
  O  O10  1  0.90352500  0.03541400  0.31124500  1
  O  O11  1  0.59647500  0.90772000  0.13188900  1
  O  O12  1  0.90772000  0.13188900  0.59647500  1
  O  O13  1  0.27583100  0.46458600  0.36811100  1
  O  O14  1  0.59228000  0.18875500  0.22416900  1
  O  O15  1  0.22416900  0.59228000  0.18875500  1
  O  O16  1  0.03541400  0.31124500  0.90352500  1
  O  O17  1  0.90772000  0.27583100  0.31124500  1
  O  O18  1  0.03541400  0.22416900  0.13188900  1
  O  O19  1  0.81124500  0.77583100  0.40772000  1
  O  O20  1  0.31124500  0.90772000  0.27583100  1
  O  O21  1  0.59647500  0.18875500  0.46458600  1
  O  O22  1  0.22416900  0.13188900  0.03541400  1
  O  O23  1  0.13188900  0.59647500  0.90772000  1
  O  O24  1  0.40772000  0.09647500  0.63188900  1
  O  O25  1  0.63188900  0.40772000  0.09647500  1
  O  O26  1  0.72416900  0.68875500  0.09228000  1
  O  O27  1  0.53541400  0.40352500  0.81124500  1
  O  O28  1  0.68875500  0.09647500  0.96458600  1
  O  O29  1  0.86811100  0.96458600  0.77583100  1
  O  O30  1  0.63188900  0.72416900  0.53541400  1
  O  O31  1  0.09647500  0.63188900  0.40772000  1
  O  O32  1  0.86811100  0.40352500  0.09228000  1
  O  O33  1  0.77583100  0.86811100  0.96458600  1
  O  O34  1  0.40352500  0.81124500  0.53541400  1
  O  O35  1  0.68875500  0.09228000  0.72416900  1
  O  O36  1  0.81124500  0.53541400  0.40352500  1
  O  O37  1  0.96458600  0.77583100  0.86811100  1
  O  O38  1  0.09228000  0.72416900  0.68875500  1
  O  O39  1  0.96458600  0.68875500  0.09647500  1
  O  O40  1  0.77583100  0.40772000  0.81124500  1
  O  O41  1  0.40772000  0.81124500  0.77583100  1
  O  O42  1  0.72416900  0.53541400  0.63188900  1
  O  O43  1  0.09228000  0.86811100  0.40352500  1
  O  O44  1  0.40352500  0.09228000  0.86811100  1
  O  O45  1  0.09647500  0.96458600  0.68875500  1
  O  O46  1  0.53541400  0.63188900  0.72416900  1
  O  O47  1  0.18875500  0.46458600  0.59647500  1
loop_
_geom_bond_atom_site_label_1
_geom_bond_atom_site_label_2
_geom_bond_distance
_geom_bond_site_symmetry_2
Cr0 O37 2.120257 1_555
Cr0 O38 2.120257 1_655
Cr0 O30 2.120257 1_555
Cr0 O19 2.120257 1_555
Cr0 O36 2.151209 1_555
Cr0 O42 2.151209 1_555
Cr0 O45 2.151209 1_655
Cr0 O29 2.151209 1_555
Cr1 O43 2.120257 1_655
Cr1 O25 2.120257 1_555
Cr1 O39 2.120257 1_555
Cr1 O36 2.120257 1_555
Cr1 O32 2.151209 1_555
Cr1 O26 2.151209 1_555
Cr1 O31 2.151209 1_655
Cr1 O19 2.151209 1_555
Cr2 O29 2.120257 1_555
Cr2 O35 2.120257 1_565
Cr2 O46 2.120257 1_555
Cr2 O41 2.120257 1_555
Cr2 O34 2.151209 1_555
Cr2 O33 2.151209 1_555
Cr2 O28 2.151209 1_565
Cr2 O30 2.151209 1_555
Cr3 O44 2.120257 1_565
Cr3 O31 2.120257 1_555
Cr3 O45 2.120257 1_555
Cr3 O34 2.120257 1_555
Cr3 O43 2.151209 1_555
Cr3 O24 2.151209 1_565
Cr3 O38 2.151209 1_555
Cr3 O41 2.151209 1_555
Cr4 O26 2.120257 1_556
Cr4 O33 2.120257 1_555
Cr4 O42 2.120257 1_555
Cr4 O40 2.120257 1_555
Cr4 O27 2.151209 1_555
Cr4 O46 2.151209 1_555
Cr4 O39 2.151209 1_556
Cr4 O37 2.151209 1_555
Cr5 O24 2.120257 1_555
Cr5 O32 2.120257 1_556
Cr5 O28 2.120257 1_555
Cr5 O27 2.120257 1_555
Cr5 O44 2.151209 1_555
Cr5 O40 2.151209 1_555
Cr5 O35 2.151209 1_555
Cr5 O25 2.151209 1_556
Cr6 O8 2.120257 1_555
Cr6 O18 2.120257 1_555
Cr6 O6 2.120257 1_555
Cr6 O17 2.120257 1_455
Cr6 O10 2.151209 1_455
Cr6 O13 2.151209 1_555
Cr6 O5 2.151209 1_555
Cr6 O47 2.151209 1_555
Cr7 O1 2.120257 1_555
Cr7 O16 2.120257 1_555
Cr7 O12 2.120257 1_455
Cr7 O47 2.120257 1_555
Cr7 O7 2.151209 1_455
Cr7 O2 2.151209 1_555
Cr7 O23 2.151209 1_555
Cr7 O8 2.151209 1_555
Cr8 O5 2.120257 1_555
Cr8 O20 2.120257 1_545
Cr8 O14 2.120257 1_555
Cr8 O9 2.120257 1_555
Cr8 O22 2.151209 1_555
Cr8 O6 2.151209 1_555
Cr8 O4 2.151209 1_545
Cr8 O21 2.151209 1_555
Cr9 O7 2.120257 1_555
Cr9 O10 2.120257 1_555
Cr9 O11 2.120257 1_545
Cr9 O21 2.120257 1_555
Cr9 O17 2.151209 1_555
Cr9 O14 2.151209 1_555
Cr9 O12 2.151209 1_555
Cr9 O0 2.151209 1_545
Cr10 O2 2.120257 1_554
Cr10 O22 2.120257 1_555
Cr10 O13 2.120257 1_555
Cr10 O15 2.120257 1_555
Cr10 O16 2.151209 1_554
Cr10 O9 2.151209 1_555
Cr10 O18 2.151209 1_555
Cr10 O3 2.151209 1_555
Cr11 O23 2.120257 1_554
Cr11 O0 2.120257 1_555
Cr11 O4 2.120257 1_555
Cr11 O3 2.120257 1_555
Cr11 O1 2.151209 1_554
Cr11 O11 2.151209 1_555
Cr11 O20 2.151209 1_555
Cr11 O15 2.151209 1_555
O0 Si3 1.644170 1_555
O1 Si6 1.644170 1_555
O2 Si7 1.644170 1_555
O3 Si3 1.644170 1_555
O4 Si0 1.644170 1_554
O5 Si9 1.644170 1_545
O6 Si5 1.644170 1_555
O7 Si10 1.644170 1_555
O8 Si5 1.644170 1_555
O9 Si8 1.644170 1_555
O10 Si1 1.644170 1_545
O11 Si1 1.644170 1_555
O12 Si4 1.644170 1_555
O13 Si2 1.644170 1_555
O14 Si8 1.644170 1_555
O15 Si2 1.644170 1_555
O16 Si4 1.644170 1_455
O17 Si11 1.644170 1_555
O18 Si11 1.644170 1_455
O19 Si3 1.644170 1_555
O20 Si9 1.644170 1_555
O21 Si10 1.644170 1_555
O22 Si7 1.644170 1_554
O23 Si0 1.644170 1_555
O24 Si5 1.644170 1_555
O25 Si8 1.644170 1_555
O26 Si1 1.644170 1_555
O27 Si5 1.644170 1_555
O28 Si11 1.644170 1_556
O29 Si4 1.644170 1_565
O30 Si3 1.644170 1_555
O31 Si2 1.644170 1_555
O32 Si11 1.644170 1_555
O33 Si1 1.644170 1_556
O34 Si2 1.644170 1_555
O35 Si4 1.644170 1_555
O36 Si8 1.644170 1_555
O37 Si0 1.644170 1_655
O38 Si0 1.644170 1_555
O39 Si9 1.644170 1_655
O40 Si10 1.644170 1_555
O41 Si6 1.644170 1_555
O42 Si10 1.644170 1_555
O43 Si9 1.644170 1_555
O44 Si7 1.644170 1_555
O45 Si7 1.644170 1_565
O46 Si6 1.644170 1_555
O47 Si6 1.644170 1_555
