# generated using pymatgen
data_Mg3Si3(SbO6)2
_symmetry_space_group_name_H-M   'P 1'
_cell_length_a   10.67901295
_cell_length_b   10.67901295
_cell_length_c   10.67901295
_cell_angle_alpha   109.47122063
_cell_angle_beta   109.47122063
_cell_angle_gamma   109.47122063
_symmetry_Int_Tables_number   1
_chemical_formula_structural   Mg3Si3(SbO6)2
_chemical_formula_sum   'Mg12 Si12 Sb8 O48'
_cell_volume   937.50037140
_cell_formula_units_Z   4
loop_
 _symmetry_equiv_pos_site_id
 _symmetry_equiv_pos_as_xyz
  1  'x, y, z'
loop_
 _atom_site_type_symbol
 _atom_site_label
 _atom_site_symmetry_multiplicity
 _atom_site_fract_x
 _atom_site_fract_y
 _atom_site_fract_z
 _atom_site_occupancy
  Mg  Mg0  1  0.25000000  0.37500000  0.12500000  1
  Mg  Mg1  1  0.75000000  0.12500000  0.37500000  1
  Mg  Mg2  1  0.37500000  0.12500000  0.25000000  1
  Mg  Mg3  1  0.12500000  0.37500000  0.75000000  1
  Mg  Mg4  1  0.25000000  0.87500000  0.62500000  1
  Mg  Mg5  1  0.12500000  0.25000000  0.37500000  1
  Mg  Mg6  1  0.62500000  0.25000000  0.87500000  1
  Mg  Mg7  1  0.75000000  0.62500000  0.87500000  1
  Mg  Mg8  1  0.87500000  0.75000000  0.62500000  1
  Mg  Mg9  1  0.87500000  0.62500000  0.25000000  1
  Mg  Mg10  1  0.62500000  0.87500000  0.75000000  1
  Mg  Mg11  1  0.37500000  0.75000000  0.12500000  1
  Si  Si0  1  0.12500000  0.75000000  0.87500000  1
  Si  Si1  1  0.87500000  0.25000000  0.12500000  1
  Si  Si2  1  0.75000000  0.37500000  0.62500000  1
  Si  Si3  1  0.12500000  0.87500000  0.25000000  1
  Si  Si4  1  0.25000000  0.12500000  0.87500000  1
  Si  Si5  1  0.37500000  0.62500000  0.75000000  1
  Si  Si6  1  0.37500000  0.25000000  0.62500000  1
  Si  Si7  1  0.87500000  0.12500000  0.75000000  1
  Si  Si8  1  0.62500000  0.37500000  0.25000000  1
  Si  Si9  1  0.75000000  0.87500000  0.12500000  1
  Si  Si10  1  0.25000000  0.62500000  0.37500000  1
  Si  Si11  1  0.62500000  0.75000000  0.37500000  1
  Sb  Sb0  1  0.50000000  0.00000000  0.00000000  1
  Sb  Sb1  1  0.50000000  0.50000000  0.00000000  1
  Sb  Sb2  1  0.00000000  0.50000000  0.50000000  1
  Sb  Sb3  1  0.00000000  0.00000000  0.50000000  1
  Sb  Sb4  1  0.50000000  0.50000000  0.50000000  1
  Sb  Sb5  1  0.00000000  0.50000000  0.00000000  1
  Sb  Sb6  1  0.50000000  0.00000000  0.50000000  1
  Sb  Sb7  1  0.00000000  0.00000000  0.00000000  1
  O  O0  1  0.59949800  0.89402900  0.36908600  1
  O  O1  1  0.36908600  0.59949800  0.89402900  1
  O  O2  1  0.26958800  0.29453200  0.90050200  1
  O  O3  1  0.47505600  0.60597100  0.20546800  1
  O  O4  1  0.29453200  0.89402900  0.02494400  1
  O  O5  1  0.13091500  0.02494400  0.23041200  1
  O  O6  1  0.36908600  0.26958800  0.47505600  1
  O  O7  1  0.89402900  0.36908600  0.59949800  1
  O  O8  1  0.20546800  0.23041200  0.59949800  1
  O  O9  1  0.47505600  0.36908500  0.26958800  1
  O  O10  1  0.89402900  0.02494400  0.29453200  1
  O  O11  1  0.60597100  0.90050200  0.13091400  1
  O  O12  1  0.90050200  0.13091400  0.60597100  1
  O  O13  1  0.26958800  0.47505600  0.36908500  1
  O  O14  1  0.59949800  0.20546800  0.23041200  1
  O  O15  1  0.23041200  0.59949800  0.20546800  1
  O  O16  1  0.02494400  0.29453200  0.89402900  1
  O  O17  1  0.90050200  0.26958800  0.29453200  1
  O  O18  1  0.02494400  0.23041200  0.13091500  1
  O  O19  1  0.79453200  0.76958800  0.40050200  1
  O  O20  1  0.20546800  0.47505600  0.60597100  1
  O  O21  1  0.60597100  0.20546800  0.47505600  1
  O  O22  1  0.23041200  0.13091500  0.02494400  1
  O  O23  1  0.13091500  0.60597100  0.90050200  1
  O  O24  1  0.40050200  0.10597100  0.63091400  1
  O  O25  1  0.63091400  0.40050200  0.10597100  1
  O  O26  1  0.73041200  0.70546800  0.09949800  1
  O  O27  1  0.52494400  0.39402900  0.79453200  1
  O  O28  1  0.70546800  0.10597100  0.97505600  1
  O  O29  1  0.86908600  0.97505600  0.76958800  1
  O  O30  1  0.63091400  0.73041200  0.52494400  1
  O  O31  1  0.10597100  0.63091400  0.40050200  1
  O  O32  1  0.86908500  0.39402900  0.09949800  1
  O  O33  1  0.76958800  0.86908500  0.97505600  1
  O  O34  1  0.39402900  0.79453200  0.52494400  1
  O  O35  1  0.70546800  0.09949800  0.73041200  1
  O  O36  1  0.79453200  0.52494400  0.39402900  1
  O  O37  1  0.97505600  0.76958800  0.86908600  1
  O  O38  1  0.09949800  0.73041200  0.70546800  1
  O  O39  1  0.97505600  0.70546800  0.10597100  1
  O  O40  1  0.76958800  0.40050200  0.79453200  1
  O  O41  1  0.40050200  0.79453200  0.76958800  1
  O  O42  1  0.73041200  0.52494400  0.63091400  1
  O  O43  1  0.09949800  0.86908500  0.39402900  1
  O  O44  1  0.39402900  0.09949800  0.86908500  1
  O  O45  1  0.10597100  0.97505600  0.70546800  1
  O  O46  1  0.52494400  0.63091400  0.73041200  1
  O  O47  1  0.29453200  0.90050200  0.26958800  1
loop_
_geom_bond_atom_site_label_1
_geom_bond_atom_site_label_2
_geom_bond_distance
_geom_bond_site_symmetry_2
Mg0 O13 2.368645 1_555
Mg0 O22 2.368645 1_555
Mg0 O2 2.368655 1_554
Mg0 O15 2.368655 1_555
Mg0 O9 2.420038 1_555
Mg0 O18 2.420038 1_555
Mg0 O3 2.420038 1_555
Mg0 O16 2.420038 1_554
Mg1 O10 2.368645 1_555
Mg1 O21 2.368645 1_555
Mg1 O11 2.368656 1_545
Mg1 O7 2.368656 1_555
Mg1 O17 2.420031 1_555
Mg1 O14 2.420031 1_555
Mg1 O12 2.420040 1_555
Mg1 O0 2.420040 1_545
Mg2 O9 2.368645 1_555
Mg2 O5 2.368645 1_555
Mg2 O47 2.368655 1_545
Mg2 O14 2.368655 1_555
Mg2 O6 2.420031 1_555
Mg2 O21 2.420038 1_555
Mg2 O22 2.420038 1_555
Mg2 O4 2.420038 1_545
Mg3 O20 2.368645 1_555
Mg3 O16 2.368645 1_555
Mg3 O12 2.368656 1_455
Mg3 O1 2.368656 1_555
Mg3 O8 2.420031 1_555
Mg3 O2 2.420031 1_555
Mg3 O23 2.420034 1_555
Mg3 O7 2.420040 1_455
Mg4 O34 2.368645 1_555
Mg4 O45 2.368645 1_555
Mg4 O44 2.368650 1_565
Mg4 O31 2.368656 1_555
Mg4 O41 2.420031 1_555
Mg4 O38 2.420031 1_555
Mg4 O43 2.420034 1_555
Mg4 O24 2.420040 1_565
Mg5 O18 2.368645 1_555
Mg5 O17 2.368655 1_455
Mg5 O8 2.368655 1_555
Mg5 O6 2.368655 1_555
Mg5 O5 2.420038 1_555
Mg5 O20 2.420038 1_555
Mg5 O13 2.420038 1_555
Mg5 O10 2.420038 1_455
Mg6 O28 2.368645 1_555
Mg6 O27 2.368645 1_555
Mg6 O32 2.368650 1_556
Mg6 O24 2.368656 1_555
Mg6 O35 2.420031 1_555
Mg6 O40 2.420031 1_555
Mg6 O44 2.420034 1_555
Mg6 O25 2.420040 1_556
Mg7 O33 2.368645 1_555
Mg7 O40 2.368655 1_555
Mg7 O42 2.368655 1_555
Mg7 O26 2.368655 1_556
Mg7 O37 2.420031 1_555
Mg7 O46 2.420031 1_555
Mg7 O27 2.420038 1_555
Mg7 O39 2.420038 1_556
Mg8 O37 2.368655 1_555
Mg8 O19 2.368655 1_555
Mg8 O30 2.368655 1_555
Mg8 O38 2.368655 1_655
Mg8 O42 2.420031 1_555
Mg8 O29 2.420031 1_555
Mg8 O36 2.420038 1_555
Mg8 O45 2.420038 1_655
Mg9 O39 2.368645 1_555
Mg9 O36 2.368645 1_555
Mg9 O43 2.368650 1_655
Mg9 O25 2.368656 1_555
Mg9 O26 2.420031 1_555
Mg9 O19 2.420031 1_555
Mg9 O32 2.420034 1_555
Mg9 O31 2.420040 1_655
Mg10 O46 2.368655 1_555
Mg10 O41 2.368655 1_555
Mg10 O29 2.368655 1_555
Mg10 O35 2.368655 1_565
Mg10 O30 2.420031 1_555
Mg10 O34 2.420038 1_555
Mg10 O28 2.420038 1_565
Mg10 O33 2.420038 1_555
Mg11 O3 2.368645 1_555
Mg11 O4 2.368645 1_555
Mg11 O23 2.368650 1_554
Mg11 O0 2.368656 1_555
Mg11 O47 2.420031 1_555
Mg11 O15 2.420031 1_555
Mg11 O11 2.420040 1_555
Mg11 O1 2.420040 1_554
O0 Si11 1.666257 1_555
O0 Sb6 2.258618 1_565
O1 Si5 1.666257 1_555
O1 Sb1 2.258618 1_556
O2 Si4 1.666268 1_555
O2 Sb1 2.258613 1_556
O3 Si11 1.666265 1_555
O3 Sb1 2.258615 1_555
O4 Si0 1.666265 1_554
O4 Sb0 2.258615 1_565
O5 Si3 1.666265 1_545
O5 Sb7 2.258615 1_555
O6 Si6 1.666268 1_555
O6 Sb4 2.258613 1_555
O7 Si2 1.666257 1_555
O7 Sb2 2.258618 1_655
O8 Si6 1.666268 1_555
O8 Sb3 2.258613 1_555
O9 Si8 1.666265 1_555
O9 Sb4 2.258615 1_555
O10 Si9 1.666265 1_545
O10 Sb3 2.258615 1_655
O11 Si9 1.666257 1_555
O11 Sb0 2.258618 1_565
O12 Si7 1.666257 1_555
O12 Sb3 2.258618 1_655
O13 Si10 1.666265 1_555
O13 Sb4 2.258615 1_555
O14 Si8 1.666268 1_555
O14 Sb0 2.258613 1_555
O15 Si10 1.666268 1_555
O15 Sb5 2.258613 1_555
O16 Si7 1.666265 1_455
O16 Sb5 2.258615 1_556
O17 Si1 1.666268 1_555
O17 Sb2 2.258613 1_655
O18 Si1 1.666265 1_455
O18 Sb7 2.258615 1_555
O19 Si11 1.666268 1_555
O19 Sb3 2.258613 1_665
O20 Si5 1.666265 1_555
O20 Sb2 2.258615 1_555
O21 Si2 1.666265 1_555
O21 Sb6 2.258615 1_555
O22 Si4 1.666265 1_554
O22 Sb7 2.258615 1_555
O23 Si0 1.666260 1_555
O23 Sb5 2.258624 1_556
O24 Si6 1.666257 1_555
O24 Sb6 2.258618 1_555
O25 Si8 1.666257 1_555
O25 Sb1 2.258618 1_555
O26 Si9 1.666268 1_555
O26 Sb1 2.258613 1_555
O27 Si6 1.666265 1_555
O27 Sb1 2.258615 1_556
O28 Si1 1.666265 1_556
O28 Sb0 2.258615 1_556
O29 Si7 1.666268 1_565
O29 Sb7 2.258613 1_666
O30 Si11 1.666268 1_555
O30 Sb4 2.258613 1_555
O31 Si10 1.666257 1_555
O31 Sb2 2.258618 1_555
O32 Si1 1.666260 1_555
O32 Sb5 2.258624 1_655
O33 Si9 1.666265 1_556
O33 Sb7 2.258615 1_666
O34 Si10 1.666265 1_555
O34 Sb6 2.258615 1_565
O35 Si7 1.666268 1_555
O35 Sb6 2.258613 1_555
O36 Si8 1.666265 1_555
O36 Sb2 2.258615 1_655
O37 Si0 1.666268 1_655
O37 Sb7 2.258613 1_666
O38 Si0 1.666268 1_555
O38 Sb2 2.258613 1_555
O39 Si3 1.666265 1_655
O39 Sb5 2.258615 1_655
O40 Si2 1.666268 1_555
O40 Sb5 2.258613 1_656
O41 Si5 1.666268 1_555
O41 Sb0 2.258613 1_566
O42 Si2 1.666268 1_555
O42 Sb4 2.258613 1_555
O43 Si3 1.666260 1_555
O43 Sb3 2.258624 1_565
O44 Si4 1.666260 1_555
O44 Sb0 2.258624 1_556
O45 Si4 1.666265 1_565
O45 Sb3 2.258615 1_565
O46 Si5 1.666268 1_555
O46 Sb4 2.258613 1_555
O47 Si3 1.666268 1_555
O47 Sb6 2.258613 1_565
