# generated using pymatgen
data_Sr5(TiN3)2
_symmetry_space_group_name_H-M   'P 1'
_cell_length_a   6.31326464
_cell_length_b   6.85288473
_cell_length_c   13.59597432
_cell_angle_alpha   89.99887291
_cell_angle_beta   100.06246488
_cell_angle_gamma   122.86735673
_symmetry_Int_Tables_number   1
_chemical_formula_structural   Sr5(TiN3)2
_chemical_formula_sum   'Sr10 Ti4 N12'
_cell_volume   483.25442619
_cell_formula_units_Z   2
loop_
 _symmetry_equiv_pos_site_id
 _symmetry_equiv_pos_as_xyz
  1  'x, y, z'
loop_
 _atom_site_type_symbol
 _atom_site_label
 _atom_site_symmetry_multiplicity
 _atom_site_fract_x
 _atom_site_fract_y
 _atom_site_fract_z
 _atom_site_occupancy
  Sr  Sr0  1  0.07816364  0.77651634  0.00159730  1
  Sr  Sr1  1  0.92184104  0.69834361  0.49840851  1
  Sr  Sr2  1  0.92183497  0.22348273  0.99840362  1
  Sr  Sr3  1  0.07816013  0.30165736  0.50159220  1
  Sr  Sr4  1  0.31197914  0.03464709  0.72192608  1
  Sr  Sr5  1  0.68797429  0.72265127  0.77809637  1
  Sr  Sr6  1  0.68801978  0.96535152  0.27807334  1
  Sr  Sr7  1  0.31202444  0.27734854  0.22190379  1
  Sr  Sr8  1  0.00002228  0.35591170  0.75000255  1
  Sr  Sr9  1  -0.00002312  0.64408830  0.24999740  1
  Ti  Ti0  1  0.55184069  0.88439274  0.57117979  1
  Ti  Ti1  1  0.44817422  0.33253381  0.92883181  1
  Ti  Ti2  1  0.44816079  0.11561219  0.42882112  1
  Ti  Ti3  1  0.55182590  0.66746263  0.07116818  1
  N  N0  1  0.88902428  0.95817397  0.62379481  1
  N  N1  1  0.11100182  0.06917809  0.87622474  1
  N  N2  1  0.11097760  0.04182759  0.37620473  1
  N  N3  1  0.88899503  0.93082030  0.12377563  1
  N  N4  1  0.29527825  0.67227686  0.64394880  1
  N  N5  1  0.70473619  0.37705502  0.85605743  1
  N  N6  1  0.70472283  0.32772530  0.35605050  1
  N  N7  1  0.29526292  0.62294323  0.14394280  1
  N  N8  1  0.57698039  0.18247241  0.57443665  1
  N  N9  1  0.42304190  0.60548411  0.92553811  1
  N  N10  1  0.42302076  0.81752873  0.42556107  1
  N  N11  1  0.57695786  0.39451453  0.07446170  1
loop_
_geom_bond_atom_site_label_1
_geom_bond_atom_site_label_2
_geom_bond_distance
_geom_bond_site_symmetry_2
N0 Ti0 1.896977 1_555
N0 Sr4 2.533981 1_665
N0 Sr1 2.577505 1_555
N0 Sr5 2.706289 1_555
N0 Sr3 2.714649 1_665
N0 Sr8 2.893351 1_665
N1 Ti1 1.896880 1_555
N1 Sr5 2.534387 1_445
N1 Sr0 2.577385 1_546
N1 Sr4 2.706085 1_555
N1 Sr2 2.714370 1_455
N1 Sr8 2.893264 1_555
N2 Ti2 1.896971 1_555
N2 Sr6 2.533990 1_445
N2 Sr3 2.577515 1_555
N2 Sr7 2.706272 1_555
N2 Sr1 2.714663 1_445
N2 Sr9 2.893350 1_545
N3 Ti3 1.896874 1_555
N3 Sr7 2.534395 1_665
N3 Sr2 2.577380 1_564
N3 Sr6 2.706066 1_555
N3 Sr0 2.714370 1_655
N3 Sr9 2.893260 1_655
N4 Ti0 1.928679 1_555
N4 Sr8 2.608973 1_555
N4 Sr4 2.641710 1_565
N4 Sr5 2.661405 1_555
N4 Sr3 2.714785 1_555
N4 Sr1 2.886627 1_455
N5 Ti1 1.928544 1_555
N5 Sr8 2.609204 1_655
N5 Sr5 2.641293 1_555
N5 Sr4 2.661744 1_555
N5 Sr2 2.714821 1_555
N5 Sr0 2.886602 1_656
N6 Ti2 1.928686 1_555
N6 Sr9 2.608956 1_655
N6 Sr6 2.641725 1_545
N6 Sr7 2.661404 1_555
N6 Sr1 2.714791 1_555
N6 Sr3 2.886642 1_655
N7 Ti3 1.928555 1_555
N7 Sr9 2.609207 1_555
N7 Sr7 2.641282 1_555
N7 Sr6 2.661739 1_555
N7 Sr0 2.714821 1_555
N7 Sr2 2.886594 1_454
N8 Ti2 1.955464 1_555
N8 Ti0 1.960983 1_545
N8 Sr4 2.679369 1_555
N8 Sr8 2.927518 1_655
N8 Sr3 3.154269 1_655
N8 Sr1 3.276973 1_555
N9 Ti3 1.955620 1_556
N9 Ti1 1.961016 1_555
N9 Sr5 2.678555 1_555
N9 Sr8 2.927193 1_555
N9 Sr2 3.154589 1_455
N9 Sr0 3.277264 1_556
N10 Ti0 1.955505 1_555
N10 Ti2 1.961008 1_565
N10 Sr6 2.679341 1_555
N10 Sr9 2.927504 1_555
N10 Sr1 3.154289 1_455
N10 Sr3 3.276991 1_555
N11 Ti1 1.955618 1_554
N11 Ti3 1.960999 1_555
N11 Sr7 2.678564 1_555
N11 Sr9 2.927194 1_655
N11 Sr0 3.154578 1_655
N11 Sr2 3.277249 1_554
