# generated using pymatgen
data_LaMgAl11O19
_symmetry_space_group_name_H-M   'P 1'
_cell_length_a   5.64373039
_cell_length_b   5.64373039
_cell_length_c   22.28437400
_cell_angle_alpha   90.00000000
_cell_angle_beta   90.00000000
_cell_angle_gamma   120.00000455
_symmetry_Int_Tables_number   1
_chemical_formula_structural   LaMgAl11O19
_chemical_formula_sum   'La2 Mg2 Al22 O38'
_cell_volume   614.70050143
_cell_formula_units_Z   2
loop_
 _symmetry_equiv_pos_site_id
 _symmetry_equiv_pos_as_xyz
  1  'x, y, z'
loop_
 _atom_site_type_symbol
 _atom_site_label
 _atom_site_symmetry_multiplicity
 _atom_site_fract_x
 _atom_site_fract_y
 _atom_site_fract_z
 _atom_site_occupancy
  La  La0  1  0.33333300  0.66666700  0.75105900  1
  La  La1  1  0.66666700  0.33333300  0.25105900  1
  Mg  Mg0  1  0.66666700  0.33333300  0.52669400  1
  Mg  Mg1  1  0.33333300  0.66666700  0.02669400  1
  Al  Al0  1  0.00000000  0.00000000  0.50287000  1
  Al  Al1  1  0.00000000  0.00000000  0.00287000  1
  Al  Al2  1  0.00000000  0.00000000  0.73734400  1
  Al  Al3  1  0.00000000  0.00000000  0.23734400  1
  Al  Al4  1  0.16611000  0.33222100  0.60737500  1
  Al  Al5  1  0.16611000  0.83389000  0.60737500  1
  Al  Al6  1  0.66777900  0.83389000  0.60737500  1
  Al  Al7  1  0.83175100  0.66350200  0.39162700  1
  Al  Al8  1  0.83175100  0.16824900  0.39162700  1
  Al  Al9  1  0.33649800  0.16824900  0.39162700  1
  Al  Al10  1  0.83389000  0.66777900  0.10737500  1
  Al  Al11  1  0.83389000  0.16611000  0.10737500  1
  Al  Al12  1  0.33222100  0.16611000  0.10737500  1
  Al  Al13  1  0.16824900  0.33649800  0.89162700  1
  Al  Al14  1  0.16824900  0.83175100  0.89162700  1
  Al  Al15  1  0.66350200  0.83175100  0.89162700  1
  Al  Al16  1  0.66666700  0.33333300  0.68855000  1
  Al  Al17  1  0.33333300  0.66666700  0.30954500  1
  Al  Al18  1  0.33333300  0.66666700  0.18855000  1
  Al  Al19  1  0.66666700  0.33333300  0.80954500  1
  Al  Al20  1  0.33333300  0.66666700  0.47422200  1
  Al  Al21  1  0.66666700  0.33333300  0.97422200  1
  O  O0  1  0.81918800  0.63837700  0.74912900  1
  O  O1  1  0.81918800  0.18081200  0.74912900  1
  O  O2  1  0.36162300  0.18081200  0.74912900  1
  O  O3  1  0.18081200  0.36162300  0.24912900  1
  O  O4  1  0.18081200  0.81918800  0.24912900  1
  O  O5  1  0.63837700  0.81918800  0.24912900  1
  O  O6  1  0.00000000  0.00000000  0.65377400  1
  O  O7  1  0.00000000  0.00000000  0.35406500  1
  O  O8  1  0.00000000  0.00000000  0.15377400  1
  O  O9  1  0.00000000  0.00000000  0.85406500  1
  O  O10  1  0.33333300  0.66666700  0.55622400  1
  O  O11  1  0.66666700  0.33333300  0.43766800  1
  O  O12  1  0.66666700  0.33333300  0.05622400  1
  O  O13  1  0.33333300  0.66666700  0.93766800  1
  O  O14  1  0.85193000  0.70385900  0.55645500  1
  O  O15  1  0.85193000  0.14807000  0.55645500  1
  O  O16  1  0.29614100  0.14807000  0.55645500  1
  O  O17  1  0.15672100  0.31344300  0.44894800  1
  O  O18  1  0.15672100  0.84327900  0.44894800  1
  O  O19  1  0.68655700  0.84327900  0.44894800  1
  O  O20  1  0.14807000  0.29614100  0.05645500  1
  O  O21  1  0.14807000  0.85193000  0.05645500  1
  O  O22  1  0.70385900  0.85193000  0.05645500  1
  O  O23  1  0.84327900  0.68655700  0.94894800  1
  O  O24  1  0.84327900  0.15672100  0.94894800  1
  O  O25  1  0.31344300  0.15672100  0.94894800  1
  O  O26  1  0.49241600  0.98483200  0.65164100  1
  O  O27  1  0.49241600  0.50758400  0.65164100  1
  O  O28  1  0.01516800  0.50758400  0.65164100  1
  O  O29  1  0.50484500  0.00969000  0.34752400  1
  O  O30  1  0.50484500  0.49515500  0.34752400  1
  O  O31  1  0.99031000  0.49515500  0.34752400  1
  O  O32  1  0.50758400  0.01516800  0.15164100  1
  O  O33  1  0.50758400  0.49241600  0.15164100  1
  O  O34  1  0.98483200  0.49241600  0.15164100  1
  O  O35  1  0.49515500  0.99031000  0.84752400  1
  O  O36  1  0.49515500  0.50484500  0.84752400  1
  O  O37  1  0.00969000  0.50484500  0.84752400  1
loop_
_geom_bond_atom_site_label_1
_geom_bond_atom_site_label_2
_geom_bond_distance
_geom_bond_site_symmetry_2
La0 O37 2.668946 1_555
La0 O35 2.668946 1_555
La0 O36 2.668949 1_555
La0 O26 2.706757 1_555
La0 O28 2.706757 1_555
La0 O27 2.706760 1_555
La0 O1 2.825578 1_565
La0 O1 2.825578 1_455
La0 O2 2.825578 1_565
La0 O0 2.825578 1_455
La0 O0 2.825578 1_555
La0 O2 2.825578 1_555
La1 O29 2.668946 1_555
La1 O31 2.668946 1_555
La1 O30 2.668949 1_555
La1 O34 2.706757 1_555
La1 O32 2.706757 1_555
La1 O33 2.706760 1_555
La1 O4 2.825578 1_655
La1 O4 2.825578 1_545
La1 O3 2.825578 1_655
La1 O5 2.825578 1_545
La1 O5 2.825578 1_555
La1 O3 2.825578 1_555
Mg0 O16 1.928605 1_555
Mg0 O14 1.928605 1_555
Mg0 O15 1.928605 1_555
Mg0 O11 1.983889 1_555
Mg1 O22 1.928605 1_555
Mg1 O20 1.928605 1_555
Mg1 O21 1.928605 1_555
Mg1 O13 1.983889 1_554
Al0 O15 1.876410 1_455
Al0 O14 1.876413 1_445
Al0 O16 1.876413 1_555
Al0 O18 1.947013 1_545
Al0 O17 1.947017 1_555
Al0 O19 1.947017 1_445
Al1 O21 1.876410 1_545
Al1 O22 1.876413 1_445
Al1 O20 1.876413 1_555
Al1 O24 1.947013 1_454
Al1 O25 1.947017 1_554
Al1 O23 1.947017 1_444
Al2 O2 1.786878 1_555
Al2 O0 1.786878 1_445
Al2 O1 1.786883 1_455
Al2 O6 1.862305 1_555
Al3 O3 1.786878 1_555
Al3 O5 1.786878 1_445
Al3 O4 1.786883 1_545
Al3 O8 1.862305 1_555
Al4 O28 1.876531 1_555
Al4 O27 1.876535 1_555
Al4 O15 1.915451 1_455
Al4 O16 1.915459 1_555
Al4 O6 1.925025 1_555
Al4 O10 1.992826 1_555
Al5 O26 1.876535 1_555
Al5 O28 1.876535 1_555
Al5 O14 1.915450 1_455
Al5 O16 1.915450 1_565
Al5 O6 1.925021 1_565
Al5 O10 1.992826 1_555
Al6 O26 1.876531 1_555
Al6 O27 1.876535 1_555
Al6 O15 1.915451 1_565
Al6 O14 1.915459 1_555
Al6 O6 1.925025 1_665
Al6 O10 1.992826 1_555
Al7 O7 1.845425 1_665
Al7 O30 1.876062 1_555
Al7 O31 1.876062 1_555
Al7 O11 1.912281 1_555
Al7 O18 2.040579 1_655
Al7 O19 2.040583 1_555
Al8 O7 1.845425 1_655
Al8 O29 1.876062 1_555
Al8 O31 1.876062 1_555
Al8 O11 1.912277 1_555
Al8 O19 2.040579 1_545
Al8 O17 2.040579 1_655
Al9 O7 1.845425 1_555
Al9 O30 1.876062 1_555
Al9 O29 1.876062 1_555
Al9 O11 1.912281 1_555
Al9 O18 2.040579 1_545
Al9 O17 2.040583 1_555
Al10 O34 1.876531 1_555
Al10 O33 1.876535 1_555
Al10 O21 1.915451 1_655
Al10 O22 1.915459 1_555
Al10 O8 1.925025 1_665
Al10 O12 1.992826 1_555
Al11 O34 1.876535 1_555
Al11 O32 1.876535 1_555
Al11 O22 1.915450 1_545
Al11 O20 1.915450 1_655
Al11 O8 1.925021 1_655
Al11 O12 1.992826 1_555
Al12 O32 1.876531 1_555
Al12 O33 1.876535 1_555
Al12 O21 1.915451 1_545
Al12 O20 1.915459 1_555
Al12 O8 1.925025 1_555
Al12 O12 1.992826 1_555
Al13 O9 1.845425 1_555
Al13 O36 1.876062 1_555
Al13 O37 1.876062 1_555
Al13 O13 1.912281 1_555
Al13 O24 2.040579 1_455
Al13 O25 2.040583 1_555
Al14 O9 1.845425 1_565
Al14 O37 1.876062 1_555
Al14 O35 1.876062 1_555
Al14 O13 1.912277 1_555
Al14 O23 2.040579 1_455
Al14 O25 2.040579 1_565
Al15 O9 1.845425 1_665
Al15 O36 1.876062 1_555
Al15 O35 1.876062 1_555
Al15 O13 1.912281 1_555
Al15 O24 2.040579 1_565
Al15 O23 2.040583 1_555
Al16 O28 1.891523 1_655
Al16 O26 1.891523 1_545
Al16 O27 1.891527 1_555
Al16 O1 2.011286 1_555
Al16 O0 2.011293 1_555
Al16 O2 2.011293 1_555
Al17 O31 1.878072 1_455
Al17 O29 1.878072 1_565
Al17 O30 1.878077 1_555
Al17 O4 2.008850 1_555
Al17 O5 2.008857 1_555
Al17 O3 2.008857 1_555
Al18 O32 1.891523 1_565
Al18 O34 1.891523 1_455
Al18 O33 1.891527 1_555
Al18 O4 2.011286 1_555
Al18 O5 2.011293 1_555
Al18 O3 2.011293 1_555
Al19 O35 1.878072 1_545
Al19 O37 1.878072 1_655
Al19 O36 1.878077 1_555
Al19 O1 2.008850 1_555
Al19 O0 2.008857 1_555
Al19 O2 2.008857 1_555
Al20 O19 1.815970 1_555
Al20 O17 1.815970 1_555
Al20 O18 1.815970 1_555
Al20 O10 1.827363 1_555
Al21 O23 1.815970 1_555
Al21 O25 1.815970 1_555
Al21 O24 1.815970 1_555
Al21 O12 1.827363 1_556
