# generated using pymatgen
data_MnZn5(BO5)2
_symmetry_space_group_name_H-M   'P 1'
_cell_length_a   3.09821900
_cell_length_b   9.46768600
_cell_length_c   12.47011700
_cell_angle_alpha   90.00000000
_cell_angle_beta   90.00000000
_cell_angle_gamma   90.00000000
_symmetry_Int_Tables_number   1
_chemical_formula_structural   MnZn5(BO5)2
_chemical_formula_sum   'Mn2 Zn10 B4 O20'
_cell_volume   365.78550116
_cell_formula_units_Z   2
loop_
 _symmetry_equiv_pos_site_id
 _symmetry_equiv_pos_as_xyz
  1  'x, y, z'
loop_
 _atom_site_type_symbol
 _atom_site_label
 _atom_site_symmetry_multiplicity
 _atom_site_fract_x
 _atom_site_fract_y
 _atom_site_fract_z
 _atom_site_occupancy
  Mn  Mn0  1  0.00000000  0.00696900  0.61502700  1
  Mn  Mn1  1  0.00000000  0.99303100  0.11502700  1
  Zn  Zn0  1  0.50000000  0.26057600  0.22118300  1
  Zn  Zn1  1  0.50000000  0.25223300  0.77934900  1
  Zn  Zn2  1  0.50000000  0.74776700  0.27934900  1
  Zn  Zn3  1  0.50000000  0.73942400  0.72118300  1
  Zn  Zn4  1  0.50000000  0.25833300  0.49943700  1
  Zn  Zn5  1  0.50000000  0.74166700  0.99943700  1
  Zn  Zn6  1  0.00000000  0.73791600  0.49580800  1
  Zn  Zn7  1  0.00000000  0.26208400  0.99580800  1
  Zn  Zn8  1  0.00000000  0.48795800  0.38137900  1
  Zn  Zn9  1  0.00000000  0.51204200  0.88137900  1
  B  B0  1  0.00000000  0.52553900  0.13881100  1
  B  B1  1  0.00000000  0.97983900  0.86193400  1
  B  B2  1  0.00000000  0.02016100  0.36193400  1
  B  B3  1  0.00000000  0.47446100  0.63881100  1
  O  O0  1  0.00000000  0.37693600  0.13935300  1
  O  O1  1  0.00000000  0.12473600  0.86047500  1
  O  O2  1  0.00000000  0.87526400  0.36047500  1
  O  O3  1  0.00000000  0.62306400  0.63935300  1
  O  O4  1  0.50000000  0.35401400  0.35771300  1
  O  O5  1  0.50000000  0.13501100  0.64200600  1
  O  O6  1  0.50000000  0.86498900  0.14200600  1
  O  O7  1  0.50000000  0.64598600  0.85771300  1
  O  O8  1  0.00000000  0.59960900  0.23458700  1
  O  O9  1  0.00000000  0.90608200  0.76461900  1
  O  O10  1  0.00000000  0.09391800  0.26461900  1
  O  O11  1  0.00000000  0.40039100  0.73458700  1
  O  O12  1  0.00000000  0.39947300  0.54370100  1
  O  O13  1  0.00000000  0.09542000  0.45888500  1
  O  O14  1  0.00000000  0.90458000  0.95888500  1
  O  O15  1  0.00000000  0.60052700  0.04370100  1
  O  O16  1  0.50000000  0.64000700  0.42111000  1
  O  O17  1  0.50000000  0.87422100  0.58462400  1
  O  O18  1  0.50000000  0.12577900  0.08462400  1
  O  O19  1  0.50000000  0.35999300  0.92111000  1
loop_
_geom_bond_atom_site_label_1
_geom_bond_atom_site_label_2
_geom_bond_distance
_geom_bond_site_symmetry_2
Mn0 O5 1.995621 1_455
Mn0 O5 1.995621 1_555
Mn0 O17 2.030534 1_545
Mn0 O17 2.030534 1_445
Mn0 O9 2.095751 1_545
Mn0 O13 2.119556 1_555
Mn1 O6 1.995621 1_555
Mn1 O6 1.995621 1_455
Mn1 O18 2.030534 1_465
Mn1 O18 2.030534 1_565
Mn1 O10 2.095751 1_565
Mn1 O14 2.119556 1_554
B0 O15 1.382288 1_555
B0 O8 1.385000 1_555
B0 O0 1.406943 1_555
B1 O1 1.371960 1_565
B1 O9 1.400103 1_555
B1 O14 1.403337 1_555
B2 O2 1.371960 1_545
B2 O10 1.400103 1_555
B2 O13 1.403337 1_555
B3 O12 1.382288 1_555
B3 O11 1.385000 1_555
B3 O3 1.406943 1_555
O0 Zn7 2.094417 1_554
O0 Zn0 2.157469 1_555
O0 Zn0 2.157469 1_455
O1 Zn7 2.130496 1_555
O1 Zn1 2.209134 1_555
O1 Zn1 2.209134 1_455
O2 Zn6 2.130496 1_555
O2 Zn2 2.209134 1_555
O2 Zn2 2.209134 1_455
O3 Zn6 2.094417 1_555
O3 Zn3 2.157469 1_455
O3 Zn3 2.157469 1_555
O4 Zn0 1.918659 1_555
O4 Zn4 1.985955 1_555
O4 Zn8 2.023614 1_555
O4 Zn8 2.023614 1_655
O5 Zn1 2.040830 1_555
O5 Zn4 2.126967 1_555
O6 Zn2 2.040830 1_555
O6 Zn5 2.126967 1_554
O7 Zn3 1.918659 1_555
O7 Zn5 1.985955 1_555
O7 Zn9 2.023614 1_555
O7 Zn9 2.023614 1_655
O8 Zn8 2.113809 1_555
O8 Zn2 2.163081 1_555
O8 Zn2 2.163081 1_455
O9 Zn3 2.276574 1_555
O9 Zn3 2.276574 1_455
O10 Zn0 2.276574 1_555
O10 Zn0 2.276574 1_455
O11 Zn9 2.113809 1_555
O11 Zn1 2.163081 1_555
O11 Zn1 2.163081 1_455
O12 Zn4 2.118970 1_555
O12 Zn4 2.118970 1_455
O12 Zn8 2.190686 1_555
O13 Zn4 2.243766 1_555
O13 Zn4 2.243766 1_455
O14 Zn5 2.243766 1_455
O14 Zn5 2.243766 1_555
O15 Zn5 2.118970 1_554
O15 Zn5 2.118970 1_454
O15 Zn9 2.190686 1_554
O16 Zn6 2.031427 1_555
O16 Zn6 2.031427 1_655
O16 Zn2 2.041058 1_555
O16 Zn8 2.171986 1_555
O16 Zn8 2.171986 1_655
O17 Zn3 2.128055 1_555
O17 Zn6 2.300385 1_655
O17 Zn6 2.300385 1_555
O18 Zn0 2.128055 1_555
O18 Zn7 2.300385 1_654
O18 Zn7 2.300385 1_554
O19 Zn7 2.031427 1_555
O19 Zn7 2.031427 1_655
O19 Zn1 2.041058 1_555
O19 Zn9 2.171986 1_555
O19 Zn9 2.171986 1_655
