# generated using pymatgen
data_Li6Mn3Fe(PO4)6
_symmetry_space_group_name_H-M   'P 1'
_cell_length_a   8.56586400
_cell_length_b   8.62341363
_cell_length_c   8.64498556
_cell_angle_alpha   61.79059738
_cell_angle_beta   61.79225038
_cell_angle_gamma   60.88688330
_symmetry_Int_Tables_number   1
_chemical_formula_structural   Li6Mn3Fe(PO4)6
_chemical_formula_sum   'Li6 Mn3 Fe1 P6 O24'
_cell_volume   466.57262867
_cell_formula_units_Z   1
loop_
 _symmetry_equiv_pos_site_id
 _symmetry_equiv_pos_as_xyz
  1  'x, y, z'
loop_
 _atom_site_type_symbol
 _atom_site_label
 _atom_site_symmetry_multiplicity
 _atom_site_fract_x
 _atom_site_fract_y
 _atom_site_fract_z
 _atom_site_occupancy
  Li  Li0  1  0.00191600  0.96248100  0.00540200  1
  Li  Li1  1  0.84332300  0.23921500  0.64545400  1
  Li  Li2  1  0.49204000  0.51406000  0.52286900  1
  Li  Li3  1  0.15503500  0.74276400  0.34272000  1
  Li  Li4  1  0.74382400  0.34239800  0.14460900  1
  Li  Li5  1  0.33457700  0.16544800  0.75166800  1
  Mn  Mn0  1  0.84907100  0.85662400  0.86390200  1
  Mn  Mn1  1  0.64111500  0.64581600  0.64324300  1
  Mn  Mn2  1  0.35773500  0.35002500  0.35115300  1
  Fe  Fe0  1  0.14648400  0.14622900  0.15108300  1
  P  P0  1  0.25201800  0.95289600  0.55087700  1
  P  P1  1  0.95414900  0.54792600  0.25601500  1
  P  P2  1  0.54776800  0.24383700  0.94832700  1
  P  P3  1  0.45391100  0.74838500  0.03864400  1
  P  P4  1  0.03345100  0.46442200  0.75483500  1
  P  P5  1  0.75258100  0.05161700  0.45520200  1
  O  O0  1  0.71565700  0.87977800  0.49702000  1
  O  O1  1  0.48302800  0.70084700  0.87574100  1
  O  O2  1  0.08299300  0.95034800  0.73219700  1
  O  O3  1  0.87057500  0.47957300  0.71067400  1
  O  O4  1  0.41626700  0.76228800  0.56523000  1
  O  O5  1  0.19703500  0.98718800  0.38805300  1
  O  O6  1  0.93243400  0.73581900  0.10320600  1
  O  O7  1  0.77306400  0.54335000  0.42854600  1
  O  O8  1  0.57061400  0.38963800  0.75436800  1
  O  O9  1  0.61481200  0.79867000  0.01029800  1
  O  O10  1  0.25667100  0.90832700  0.06917300  1
  O  O11  1  0.99188700  0.63690900  0.79633700  1
  O  O12  1  0.99369700  0.38654000  0.19666100  1
  O  O13  1  0.74361900  0.07867600  0.93177600  1
  O  O14  1  0.38706300  0.18194400  0.99077100  1
  O  O15  1  0.43460900  0.58526600  0.22832700  1
  O  O16  1  0.22543100  0.44299800  0.59804800  1
  O  O17  1  0.05987400  0.27701300  0.91714700  1
  O  O18  1  0.79809600  0.04676500  0.60865700  1
  O  O19  1  0.58157300  0.24229300  0.42697800  1
  O  O20  1  0.11826300  0.51407900  0.31363900  1
  O  O21  1  0.90954400  0.07805500  0.26232400  1
  O  O22  1  0.52606800  0.30600100  0.09806500  1
  O  O23  1  0.30912700  0.11349000  0.51976500  1
loop_
_geom_bond_atom_site_label_1
_geom_bond_atom_site_label_2
_geom_bond_distance
_geom_bond_site_symmetry_2
Li0 O6 1.995864 1_455
Li0 O2 2.164232 1_554
Li0 O13 2.208064 1_464
Li0 O10 2.277336 1_555
Li0 O21 2.493315 1_465
Li1 O8 2.037856 1_555
Li1 O18 2.060750 1_555
Li1 O13 2.164552 1_555
Li1 O7 2.374543 1_555
Li1 O2 2.386488 1_645
Li1 O3 2.523603 1_555
Li2 O8 2.037171 1_555
Li2 O4 2.074099 1_555
Li2 O7 2.250492 1_555
Li2 O16 2.365483 1_555
Li2 O19 2.500872 1_555
Li2 O15 2.552419 1_555
Li3 O15 2.103246 1_555
Li3 O10 2.111865 1_555
Li3 O20 2.280216 1_555
Li3 O16 2.503045 1_555
Li3 O5 2.525433 1_555
Li3 O21 2.613507 1_465
Li4 O21 2.066585 1_555
Li4 O19 2.145625 1_555
Li4 O22 2.266765 1_555
Li4 O17 2.458479 1_654
Li4 O15 2.479633 1_555
Li4 O12 2.606501 1_555
Li5 O16 2.087493 1_555
Li5 O17 2.103591 1_555
Li5 O23 2.371688 1_555
Li5 O14 2.390348 1_555
Li5 O19 2.605000 1_555
Li5 O10 2.617292 1_546
Mn0 O11 1.882264 1_555
Mn0 O13 1.924825 1_565
Mn0 O9 1.963458 1_556
Mn0 O6 2.123723 1_556
Mn0 O2 2.124556 1_655
Mn0 O18 2.131166 1_565
Mn1 O1 1.949930 1_555
Mn1 O3 1.951793 1_555
Mn1 O4 1.969357 1_555
Mn1 O7 2.024518 1_555
Mn1 O0 2.038522 1_555
Mn1 O8 2.216126 1_555
Mn2 O20 1.919807 1_555
Mn2 O19 1.961678 1_555
Mn2 O23 1.974956 1_555
Mn2 O15 2.068502 1_555
Mn2 O22 2.068950 1_555
Mn2 O16 2.220313 1_555
Fe0 O14 1.943320 1_554
Fe0 O12 1.951378 1_455
Fe0 O5 1.967168 1_545
Fe0 O21 2.042336 1_455
Fe0 O17 2.088119 1_554
Fe0 O10 2.111495 1_545
O0 P5 1.506019 1_565
O1 P3 1.525713 1_556
O2 P0 1.551373 1_555
O3 P4 1.545419 1_655
O4 P0 1.555156 1_555
O5 P0 1.545415 1_555
O6 P1 1.523318 1_555
O7 P1 1.564952 1_555
O8 P2 1.538445 1_555
O9 P3 1.519701 1_555
O10 P3 1.575299 1_555
O11 P4 1.528522 1_655
O12 P1 1.538471 1_555
O13 P2 1.582444 1_555
O14 P2 1.538428 1_555
O15 P3 1.576164 1_555
O16 P4 1.552282 1_555
O17 P4 1.559613 1_555
O18 P5 1.527828 1_555
O19 P5 1.588639 1_555
O20 P1 1.560405 1_455
O21 P5 1.568302 1_555
O22 P2 1.526175 1_554
O23 P0 1.553128 1_545
