# generated using pymatgen
data_La6Sm2Co7AgO24
_symmetry_space_group_name_H-M   'P 1'
_cell_length_a   7.66514832
_cell_length_b   7.66514832
_cell_length_c   7.68907400
_cell_angle_alpha   90.00000000
_cell_angle_beta   90.00000000
_cell_angle_gamma   90.04141727
_symmetry_Int_Tables_number   1
_chemical_formula_structural   La6Sm2Co7AgO24
_chemical_formula_sum   'La6 Sm2 Co7 Ag1 O24'
_cell_volume   451.76757052
_cell_formula_units_Z   1
loop_
 _symmetry_equiv_pos_site_id
 _symmetry_equiv_pos_as_xyz
  1  'x, y, z'
loop_
 _atom_site_type_symbol
 _atom_site_label
 _atom_site_symmetry_multiplicity
 _atom_site_fract_x
 _atom_site_fract_y
 _atom_site_fract_z
 _atom_site_occupancy
  La  La0  1  0.24733700  0.24691200  0.74727900  1
  La  La1  1  0.24733700  0.24691200  0.25272100  1
  La  La2  1  0.75358700  0.24641300  0.74682500  1
  La  La3  1  0.75358700  0.24641300  0.25317500  1
  La  La4  1  0.75308800  0.75266300  0.74727900  1
  La  La5  1  0.75308800  0.75266300  0.25272100  1
  Sm  Sm0  1  0.24689300  0.75310700  0.74567700  1
  Sm  Sm1  1  0.24689300  0.75310700  0.25432300  1
  Co  Co0  1  0.00126000  0.99874000  0.00000000  1
  Co  Co1  1  0.00100400  0.99899600  0.50000000  1
  Co  Co2  1  0.50022200  0.99856300  0.00000000  1
  Co  Co3  1  0.49962600  0.99850500  0.50000000  1
  Co  Co4  1  0.00143700  0.49977800  0.00000000  1
  Co  Co5  1  0.00149500  0.50037400  0.50000000  1
  Co  Co6  1  0.50147500  0.49852500  0.50000000  1
  Ag  Ag0  1  0.50084600  0.49915400  0.00000000  1
  O  O0  1  0.00067500  0.24774000  0.00000000  1
  O  O1  1  0.00025300  0.24883300  0.50000000  1
  O  O2  1  0.49841800  0.23619600  0.00000000  1
  O  O3  1  0.49997700  0.24931300  0.50000000  1
  O  O4  1  0.00417000  0.75208500  0.00000000  1
  O  O5  1  0.00623600  0.75096100  0.50000000  1
  O  O6  1  0.49197900  0.76237300  0.00000000  1
  O  O7  1  0.49420200  0.75040200  0.50000000  1
  O  O8  1  0.24791500  0.99583000  0.00000000  1
  O  O9  1  0.24903900  0.99376400  0.50000000  1
  O  O10  1  0.75226000  0.99932500  0.00000000  1
  O  O11  1  0.75116700  0.99974700  0.50000000  1
  O  O12  1  0.23762700  0.50802100  0.00000000  1
  O  O13  1  0.24959800  0.50579800  0.50000000  1
  O  O14  1  0.76380400  0.50158200  0.00000000  1
  O  O15  1  0.75068700  0.50002300  0.50000000  1
  O  O16  1  0.00349900  0.99650100  0.74820600  1
  O  O17  1  0.00349900  0.99650100  0.25179400  1
  O  O18  1  0.49674400  0.99703500  0.74723100  1
  O  O19  1  0.49674400  0.99703500  0.25276900  1
  O  O20  1  0.00296500  0.50325600  0.74723100  1
  O  O21  1  0.00296500  0.50325600  0.25276900  1
  O  O22  1  0.49320200  0.50679800  0.73856200  1
  O  O23  1  0.49320200  0.50679800  0.26143800  1
loop_
_geom_bond_atom_site_label_1
_geom_bond_atom_site_label_2
_geom_bond_distance
_geom_bond_site_symmetry_2
La0 O16 2.678147 1_545
La0 O1 2.683723 1_555
La0 O18 2.707138 1_545
La0 O0 2.711235 1_556
La0 O3 2.713951 1_555
La0 O20 2.715675 1_555
La0 O9 2.716716 1_545
La0 O8 2.734965 1_546
La0 O2 2.736228 1_556
La0 O22 2.742093 1_555
La0 O13 2.748311 1_555
La0 O12 2.790610 1_556
La1 O17 2.678147 1_545
La1 O1 2.683723 1_555
La1 O19 2.707138 1_545
La1 O0 2.711235 1_555
La1 O3 2.713951 1_555
La1 O21 2.715675 1_555
La1 O9 2.716716 1_545
La1 O8 2.734965 1_545
La1 O2 2.736228 1_555
La1 O23 2.742093 1_555
La1 O13 2.748311 1_555
La1 O12 2.790610 1_555
La2 O11 2.678995 1_545
La2 O1 2.678995 1_655
La2 O16 2.710085 1_645
La2 O0 2.716018 1_656
La2 O10 2.716018 1_546
La2 O15 2.716871 1_555
La2 O3 2.716871 1_555
La2 O18 2.743066 1_545
La2 O20 2.743066 1_655
La2 O2 2.760626 1_556
La2 O14 2.760626 1_556
La2 O22 2.824349 1_555
La3 O11 2.678995 1_545
La3 O1 2.678995 1_655
La3 O17 2.710085 1_645
La3 O10 2.716018 1_545
La3 O0 2.716018 1_655
La3 O15 2.716871 1_555
La3 O3 2.716871 1_555
La3 O19 2.743066 1_545
La3 O21 2.743066 1_655
La3 O2 2.760626 1_555
La3 O14 2.760626 1_555
La3 O23 2.824349 1_555
La4 O16 2.678147 1_655
La4 O11 2.683723 1_555
La4 O20 2.707138 1_655
La4 O10 2.711235 1_556
La4 O15 2.713951 1_555
La4 O18 2.715675 1_555
La4 O5 2.716716 1_655
La4 O4 2.734965 1_656
La4 O14 2.736228 1_556
La4 O22 2.742093 1_555
La4 O7 2.748311 1_555
La4 O6 2.790610 1_556
La5 O17 2.678147 1_655
La5 O11 2.683723 1_555
La5 O21 2.707138 1_655
La5 O10 2.711235 1_555
La5 O15 2.713951 1_555
La5 O19 2.715675 1_555
La5 O5 2.716716 1_655
La5 O4 2.734965 1_655
La5 O14 2.736228 1_555
La5 O23 2.742093 1_555
La5 O7 2.748311 1_555
La5 O6 2.790610 1_555
Co0 O4 1.890795 1_555
Co0 O8 1.890795 1_555
Co0 O10 1.908630 1_455
Co0 O0 1.908630 1_565
Co0 O16 1.936215 1_554
Co0 O17 1.936215 1_555
Co1 O5 1.901677 1_555
Co1 O9 1.901677 1_555
Co1 O17 1.908666 1_555
Co1 O16 1.908666 1_555
Co1 O11 1.915050 1_455
Co1 O1 1.915050 1_565
Co2 O6 1.811488 1_555
Co2 O2 1.821555 1_565
Co2 O10 1.931913 1_555
Co2 O8 1.934069 1_555
Co2 O18 1.943778 1_554
Co2 O19 1.943778 1_555
Co3 O18 1.901139 1_555
Co3 O19 1.901139 1_555
Co3 O7 1.902171 1_555
Co3 O9 1.921104 1_555
Co3 O3 1.922480 1_565
Co3 O11 1.928116 1_555
Co4 O12 1.811488 1_555
Co4 O14 1.821555 1_455
Co4 O0 1.931913 1_555
Co4 O4 1.934069 1_555
Co4 O20 1.943778 1_554
Co4 O21 1.943778 1_555
Co5 O20 1.901139 1_555
Co5 O21 1.901139 1_555
Co5 O13 1.902171 1_555
Co5 O5 1.921104 1_555
Co5 O15 1.922480 1_455
Co5 O1 1.928116 1_555
Co6 O23 1.836513 1_555
Co6 O22 1.836513 1_555
Co6 O15 1.910273 1_555
Co6 O3 1.910273 1_555
Co6 O13 1.931520 1_555
Co6 O7 1.931520 1_555
Ag0 O22 2.011924 1_554
Ag0 O23 2.011924 1_555
Ag0 O14 2.015685 1_555
Ag0 O2 2.015685 1_555
Ag0 O6 2.018806 1_555
Ag0 O12 2.018806 1_555
O4 Sm0 2.699174 1_554
O4 Sm1 2.699174 1_555
O5 Sm1 2.640354 1_555
O5 Sm0 2.640354 1_555
O6 Sm0 2.712578 1_554
O6 Sm1 2.712578 1_555
O7 Sm1 2.676274 1_555
O7 Sm0 2.676274 1_555
O8 Sm0 2.699174 1_554
O8 Sm1 2.699174 1_555
O9 Sm1 2.640354 1_555
O9 Sm0 2.640354 1_555
O12 Sm0 2.712578 1_554
O12 Sm1 2.712578 1_555
O13 Sm0 2.676274 1_555
O13 Sm1 2.676274 1_555
O16 Sm0 2.639454 1_555
O17 Sm1 2.639454 1_555
O18 Sm0 2.675573 1_555
O19 Sm1 2.675573 1_555
O20 Sm0 2.675573 1_555
O21 Sm1 2.675573 1_555
O22 Sm0 2.671553 1_555
O23 Sm1 2.671553 1_555
