# generated using pymatgen
data_SrV6O11
_symmetry_space_group_name_H-M   'P 1'
_cell_length_a   5.93679100
_cell_length_b   5.93679100
_cell_length_c   13.18432400
_cell_angle_alpha   90.00000000
_cell_angle_beta   90.00000000
_cell_angle_gamma   119.47525895
_symmetry_Int_Tables_number   1
_chemical_formula_structural   SrV6O11
_chemical_formula_sum   'Sr2 V12 O22'
_cell_volume   404.54255357
_cell_formula_units_Z   2
loop_
 _symmetry_equiv_pos_site_id
 _symmetry_equiv_pos_as_xyz
  1  'x, y, z'
loop_
 _atom_site_type_symbol
 _atom_site_label
 _atom_site_symmetry_multiplicity
 _atom_site_fract_x
 _atom_site_fract_y
 _atom_site_fract_z
 _atom_site_occupancy
  Sr  Sr0  1  0.66781000  0.33219000  0.25227500  1
  Sr  Sr1  1  0.33219000  0.66781000  0.75227500  1
  V  V0  1  0.49944500  0.99730000  0.50000800  1
  V  V1  1  0.00270000  0.50055500  0.50000800  1
  V  V2  1  0.49946600  0.50053400  0.50029100  1
  V  V3  1  0.50055500  0.00270000  0.00000800  1
  V  V4  1  0.99730000  0.49944500  0.00000800  1
  V  V5  1  0.50053400  0.49946600  0.00029100  1
  V  V6  1  0.00008300  0.99991700  0.14419700  1
  V  V7  1  0.99991700  0.00008300  0.64419700  1
  V  V8  1  0.00079400  0.99920600  0.35697100  1
  V  V9  1  0.99920600  0.00079400  0.85697100  1
  V  V10  1  0.66619700  0.33380300  0.74805100  1
  V  V11  1  0.33380300  0.66619700  0.24805100  1
  O  O0  1  0.82548400  0.17451600  0.08178700  1
  O  O1  1  0.82297800  0.64844300  0.08277600  1
  O  O2  1  0.35155700  0.17702200  0.08277600  1
  O  O3  1  0.17451600  0.82548400  0.58178700  1
  O  O4  1  0.17702200  0.35155700  0.58277600  1
  O  O5  1  0.64844300  0.82297800  0.58277600  1
  O  O6  1  0.82564600  0.17435400  0.41876200  1
  O  O7  1  0.82240900  0.64846200  0.41785500  1
  O  O8  1  0.35153800  0.17759100  0.41785500  1
  O  O9  1  0.17435400  0.82564600  0.91876200  1
  O  O10  1  0.17759100  0.35153800  0.91785500  1
  O  O11  1  0.64846200  0.82240900  0.91785500  1
  O  O12  1  0.68248400  0.84459500  0.25019200  1
  O  O13  1  0.14960600  0.85039400  0.24986600  1
  O  O14  1  0.15540500  0.31751600  0.25019200  1
  O  O15  1  0.31751600  0.15540500  0.75019200  1
  O  O16  1  0.85039400  0.14960600  0.74986600  1
  O  O17  1  0.84459500  0.68248400  0.75019200  1
  O  O18  1  0.66943400  0.33056600  0.59092700  1
  O  O19  1  0.33056600  0.66943400  0.09092700  1
  O  O20  1  0.32957100  0.67042900  0.40901800  1
  O  O21  1  0.67042900  0.32957100  0.90901800  1
loop_
_geom_bond_atom_site_label_1
_geom_bond_atom_site_label_2
_geom_bond_distance
_geom_bond_site_symmetry_2
O0 V6 1.970615 1_645
O0 V4 1.996942 1_555
O0 V3 1.996942 1_555
O0 Sr0 2.768981 1_555
O1 V4 1.986255 1_555
O1 V6 1.989029 1_655
O1 V5 1.990790 1_555
O1 Sr0 2.768694 1_555
O2 V3 1.986255 1_555
O2 V6 1.989029 1_545
O2 V5 1.990790 1_555
O2 Sr0 2.768694 1_555
O3 V7 1.970615 1_465
O3 V0 1.996942 1_555
O3 V1 1.996942 1_555
O3 Sr1 2.768981 1_555
O4 V1 1.986255 1_555
O4 V7 1.989029 1_455
O4 V2 1.990790 1_555
O4 Sr1 2.768694 1_555
O5 V0 1.986255 1_555
O5 V7 1.989029 1_565
O5 V2 1.990790 1_555
O5 Sr1 2.768694 1_555
O6 V8 1.972347 1_645
O6 V0 1.999857 1_545
O6 V1 1.999857 1_655
O6 Sr0 2.727319 1_555
O7 V8 1.982853 1_655
O7 V2 1.992834 1_555
O7 V1 2.003694 1_655
O7 Sr0 2.727225 1_555
O8 V8 1.982853 1_545
O8 V2 1.992834 1_555
O8 V0 2.003694 1_545
O8 Sr0 2.727225 1_555
O9 V9 1.972347 1_465
O9 V4 1.999857 1_456
O9 V3 1.999857 1_566
O9 Sr1 2.727319 1_555
O10 V9 1.982853 1_455
O10 V5 1.992834 1_556
O10 V4 2.003694 1_456
O10 Sr1 2.727225 1_555
O11 V9 1.982853 1_565
O11 V5 1.992834 1_556
O11 V3 2.003694 1_566
O11 Sr1 2.727225 1_555
O12 V11 1.802794 1_555
O12 V6 2.155782 1_655
O12 V8 2.165313 1_655
O12 Sr0 2.938722 1_565
O12 Sr0 3.000260 1_555
O13 V11 1.889189 1_555
O13 V6 2.071803 1_555
O13 V8 2.079223 1_555
O13 Sr0 2.997895 1_455
O13 Sr0 2.997895 1_565
O14 V11 1.802794 1_555
O14 V6 2.155782 1_545
O14 V8 2.165313 1_545
O14 Sr0 2.938722 1_455
O14 Sr0 3.000260 1_555
O15 V10 1.802794 1_555
O15 V7 2.155782 1_455
O15 V9 2.165313 1_455
O15 Sr1 2.938722 1_545
O15 Sr1 3.000260 1_555
O16 V10 1.889189 1_555
O16 V7 2.071803 1_555
O16 V9 2.079223 1_555
O16 Sr1 2.997895 1_545
O16 Sr1 2.997895 1_655
O17 V10 1.802794 1_555
O17 V7 2.155782 1_565
O17 V9 2.165313 1_565
O17 Sr1 2.938722 1_655
O17 Sr1 3.000260 1_555
O18 V10 2.071840 1_555
O18 V0 2.098806 1_545
O18 V1 2.098806 1_655
O18 V2 2.113387 1_555
O19 V11 2.071840 1_555
O19 V4 2.098806 1_455
O19 V3 2.098806 1_565
O19 V5 2.113387 1_555
O20 V1 2.072697 1_555
O20 V0 2.072697 1_555
O20 V2 2.117531 1_555
O20 V11 2.122685 1_555
O21 V3 2.072697 1_556
O21 V4 2.072697 1_556
O21 V5 2.117531 1_556
O21 V10 2.122685 1_555
