# generated using pymatgen
data_Zr6Al7Cu16
_symmetry_space_group_name_H-M   'P 1'
_cell_length_a   8.38642600
_cell_length_b   8.38642601
_cell_length_c   8.38642600
_cell_angle_alpha   59.99999997
_cell_angle_beta   60.00000006
_cell_angle_gamma   59.99999997
_symmetry_Int_Tables_number   1
_chemical_formula_structural   Zr6Al7Cu16
_chemical_formula_sum   'Zr6 Al7 Cu16'
_cell_volume   417.07653830
_cell_formula_units_Z   1
loop_
 _symmetry_equiv_pos_site_id
 _symmetry_equiv_pos_as_xyz
  1  'x, y, z'
loop_
 _atom_site_type_symbol
 _atom_site_label
 _atom_site_symmetry_multiplicity
 _atom_site_fract_x
 _atom_site_fract_y
 _atom_site_fract_z
 _atom_site_occupancy
  Zr  Zr0  1  0.70673853  0.70673853  0.29326147  1
  Zr  Zr1  1  0.29326153  0.70673847  0.29326153  1
  Zr  Zr2  1  0.70673853  0.29326147  0.29326147  1
  Zr  Zr3  1  0.29326147  0.29326147  0.70673853  1
  Zr  Zr4  1  0.70673847  0.29326153  0.70673847  1
  Zr  Zr5  1  0.29326147  0.70673853  0.70673853  1
  Al  Al0  1  -0.00000000  0.00000000  0.00000000  1
  Al  Al1  1  -0.00000000  0.00000000  0.50000000  1
  Al  Al2  1  0.50000000  0.00000000  0.50000000  1
  Al  Al3  1  -0.00000000  0.50000000  0.50000000  1
  Al  Al4  1  0.50000000  0.50000000  0.00000000  1
  Al  Al5  1  -0.00000000  0.50000000  0.00000000  1
  Al  Al6  1  0.50000000  0.00000000  0.00000000  1
  Cu  Cu0  1  0.88051718  0.88051686  0.35845009  1
  Cu  Cu1  1  0.88051686  0.35845009  0.88051686  1
  Cu  Cu2  1  0.35845009  0.88051686  0.88051718  1
  Cu  Cu3  1  0.88051686  0.88051718  0.88051686  1
  Cu  Cu4  1  0.11948282  0.11948314  0.64154991  1
  Cu  Cu5  1  0.11948314  0.64154991  0.11948314  1
  Cu  Cu6  1  0.64154991  0.11948314  0.11948282  1
  Cu  Cu7  1  0.11948314  0.11948282  0.11948314  1
  Cu  Cu8  1  0.67159140  0.67159163  0.98522535  1
  Cu  Cu9  1  0.67159163  0.98522535  0.67159163  1
  Cu  Cu10  1  0.98522535  0.67159163  0.67159140  1
  Cu  Cu11  1  0.67159163  0.67159140  0.67159163  1
  Cu  Cu12  1  0.32840860  0.32840837  0.01477465  1
  Cu  Cu13  1  0.32840837  0.01477465  0.32840837  1
  Cu  Cu14  1  0.01477465  0.32840837  0.32840860  1
  Cu  Cu15  1  0.32840837  0.32840860  0.32840837  1
loop_
_geom_bond_atom_site_label_1
_geom_bond_atom_site_label_2
_geom_bond_distance
_geom_bond_site_symmetry_2
Al0 Cu3 2.454476 1_444
Al0 Cu7 2.454476 1_555
Al0 Cu1 2.454483 1_454
Al0 Cu5 2.454483 1_545
Al0 Cu6 2.454483 1_455
Al0 Cu4 2.454483 1_554
Al0 Cu2 2.454483 1_544
Al0 Cu0 2.454483 1_445
Al1 Cu10 2.423065 1_445
Al1 Cu14 2.423065 1_555
Al1 Cu9 2.423065 1_445
Al1 Cu13 2.423065 1_555
Al1 Cu0 2.607768 1_445
Al1 Cu4 2.607768 1_555
Al1 Cu3 2.607775 1_445
Al1 Cu7 2.607775 1_555
Al1 Zr5 3.009116 1_545
Al1 Zr2 3.009116 1_455
Al1 Zr4 3.009116 1_455
Al1 Zr1 3.009116 1_545
Al2 Cu15 2.423067 1_555
Al2 Cu11 2.423067 1_545
Al2 Cu9 2.423067 1_545
Al2 Cu13 2.423067 1_555
Al2 Cu0 2.607777 1_545
Al2 Cu4 2.607777 1_555
Al2 Cu6 2.607777 1_555
Al2 Cu2 2.607777 1_545
Al2 Zr2 3.009116 1_555
Al2 Zr3 3.009116 1_555
Al2 Zr5 3.009116 1_545
Al2 Zr0 3.009116 1_545
Al3 Cu11 2.423065 1_455
Al3 Cu15 2.423065 1_555
Al3 Cu10 2.423065 1_455
Al3 Cu14 2.423065 1_555
Al3 Cu1 2.607774 1_455
Al3 Cu5 2.607774 1_555
Al3 Cu4 2.607774 1_555
Al3 Cu0 2.607774 1_455
Al3 Zr0 3.009116 1_455
Al3 Zr3 3.009116 1_555
Al3 Zr1 3.009116 1_555
Al3 Zr4 3.009116 1_455
Al4 Cu11 2.423065 1_554
Al4 Cu15 2.423065 1_555
Al4 Cu12 2.423065 1_555
Al4 Cu8 2.423065 1_554
Al4 Cu5 2.607774 1_555
Al4 Cu1 2.607774 1_554
Al4 Cu6 2.607774 1_555
Al4 Cu2 2.607774 1_554
Al4 Zr5 3.009116 1_554
Al4 Zr2 3.009116 1_555
Al4 Zr1 3.009116 1_555
Al4 Zr4 3.009116 1_554
Al5 Cu12 2.423067 1_555
Al5 Cu14 2.423067 1_555
Al5 Cu10 2.423067 1_454
Al5 Cu8 2.423067 1_454
Al5 Cu1 2.607770 1_454
Al5 Cu5 2.607770 1_555
Al5 Cu7 2.607777 1_555
Al5 Cu3 2.607777 1_454
Al5 Zr5 3.009116 1_554
Al5 Zr0 3.009116 1_455
Al5 Zr3 3.009116 1_554
Al5 Zr2 3.009116 1_455
Al6 Cu8 2.423065 1_544
Al6 Cu12 2.423065 1_555
Al6 Cu9 2.423065 1_544
Al6 Cu13 2.423065 1_555
Al6 Cu2 2.607768 1_544
Al6 Cu6 2.607768 1_555
Al6 Cu7 2.607775 1_555
Al6 Cu3 2.607775 1_544
Al6 Zr3 3.009116 1_554
Al6 Zr0 3.009116 1_545
Al6 Zr4 3.009116 1_554
Al6 Zr1 3.009116 1_545
Cu0 Cu10 2.627511 1_555
Cu0 Cu9 2.627514 1_555
Cu0 Cu11 2.627518 1_555
Cu0 Cu7 2.834183 1_665
Cu0 Cu5 2.834195 1_655
Cu0 Cu6 2.834199 1_565
Cu0 Zr1 2.874752 1_655
Cu0 Zr2 2.874754 1_565
Cu0 Zr0 2.874761 1_555
Cu1 Cu10 2.627514 1_555
Cu1 Cu8 2.627514 1_555
Cu1 Cu11 2.627516 1_555
Cu1 Cu7 2.834187 1_656
Cu1 Cu4 2.834195 1_655
Cu1 Cu6 2.834195 1_556
Cu1 Zr3 2.874754 1_655
Cu1 Zr2 2.874754 1_556
Cu1 Zr4 2.874759 1_555
Cu2 Cu8 2.627511 1_555
Cu2 Cu9 2.627514 1_555
Cu2 Cu7 2.834183 1_566
Cu2 Cu5 2.834195 1_556
Cu2 Cu4 2.834199 1_565
Cu2 Zr1 2.874752 1_556
Cu2 Zr3 2.874754 1_565
Cu2 Zr5 2.874761 1_555
Cu3 Cu9 2.627518 1_555
Cu3 Cu8 2.627521 1_555
Cu3 Cu6 2.834183 1_566
Cu3 Cu4 2.834183 1_665
Cu3 Cu5 2.834187 1_656
Cu3 Zr4 2.874754 1_565
Cu3 Zr5 2.874755 1_655
Cu3 Zr0 2.874755 1_556
Cu4 Zr4 2.874752 1_455
Cu4 Zr5 2.874754 1_545
Cu4 Zr3 2.874761 1_555
Cu5 Zr0 2.874754 1_455
Cu5 Zr5 2.874754 1_554
Cu5 Zr1 2.874759 1_555
Cu6 Zr4 2.874752 1_554
Cu6 Zr0 2.874754 1_545
Cu6 Zr2 2.874761 1_555
Cu7 Zr1 2.874754 1_545
Cu7 Zr2 2.874755 1_455
Cu7 Zr3 2.874755 1_554
Cu8 Cu9 2.630266 1_555
Cu8 Zr1 2.908110 1_556
Cu8 Zr0 2.908111 1_556
Cu8 Zr2 2.908111 1_556
Cu9 Zr4 2.908110 1_565
Cu9 Zr3 2.908111 1_565
Cu9 Zr2 2.908111 1_565
Cu10 Cu3 2.627521 1_555
Cu10 Cu11 2.630266 1_555
Cu10 Cu9 2.630266 1_555
Cu10 Cu8 2.630268 1_555
Cu10 Zr1 2.908110 1_655
Cu10 Zr5 2.908111 1_655
Cu10 Zr3 2.908111 1_655
Cu11 Cu2 2.627518 1_555
Cu11 Cu8 2.630266 1_555
Cu11 Cu9 2.630268 1_555
Cu11 Zr4 2.908110 1_555
Cu11 Zr0 2.908111 1_555
Cu11 Zr5 2.908111 1_555
Cu12 Cu6 2.627511 1_555
Cu12 Cu5 2.627514 1_555
Cu12 Cu7 2.627521 1_555
Cu12 Cu13 2.630266 1_555
Cu12 Cu15 2.630266 1_555
Cu12 Cu14 2.630268 1_555
Cu12 Zr4 2.908110 1_554
Cu12 Zr3 2.908111 1_554
Cu12 Zr5 2.908111 1_554
Cu13 Cu4 2.627514 1_555
Cu13 Cu6 2.627514 1_555
Cu13 Cu7 2.627518 1_555
Cu13 Cu14 2.630266 1_555
Cu13 Cu15 2.630268 1_555
Cu13 Zr1 2.908110 1_545
Cu13 Zr0 2.908111 1_545
Cu13 Zr5 2.908111 1_545
Cu14 Cu4 2.627511 1_555
Cu14 Cu5 2.627514 1_555
Cu14 Cu7 2.627521 1_555
Cu14 Cu15 2.630266 1_555
Cu14 Zr4 2.908110 1_455
Cu14 Zr2 2.908111 1_455
Cu14 Zr0 2.908111 1_455
Cu15 Cu5 2.627516 1_555
Cu15 Cu6 2.627518 1_555
Cu15 Cu4 2.627518 1_555
Cu15 Zr1 2.908110 1_555
Cu15 Zr3 2.908111 1_555
Cu15 Zr2 2.908111 1_555
