# generated using pymatgen
data_Zn(W18O49)2
_symmetry_space_group_name_H-M   'P 1'
_cell_length_a   14.76156280
_cell_length_b   14.76156280
_cell_length_c   19.00988979
_cell_angle_alpha   66.12809959
_cell_angle_beta   66.12809959
_cell_angle_gamma   30.36923970
_symmetry_Int_Tables_number   1
_chemical_formula_structural   Zn(W18O49)2
_chemical_formula_sum   'Zn1 W36 O98'
_cell_volume   1901.21725879
_cell_formula_units_Z   1
loop_
 _symmetry_equiv_pos_site_id
 _symmetry_equiv_pos_as_xyz
  1  'x, y, z'
loop_
 _atom_site_type_symbol
 _atom_site_label
 _atom_site_symmetry_multiplicity
 _atom_site_fract_x
 _atom_site_fract_y
 _atom_site_fract_z
 _atom_site_occupancy
  Zn  Zn0  1  0.19132000  0.19132000  0.59698300  1
  W  W0  1  0.32032300  0.82051700  0.35726200  1
  W  W1  1  0.82051700  0.32032300  0.35726200  1
  W  W2  1  0.17954000  0.67954500  0.64294800  1
  W  W3  1  0.67954500  0.17954000  0.64294800  1
  W  W4  1  0.46577000  0.96575500  0.22066200  1
  W  W5  1  0.96575500  0.46577000  0.22066200  1
  W  W6  1  0.03406000  0.53425600  0.78062000  1
  W  W7  1  0.53425600  0.03406000  0.78062000  1
  W  W8  1  0.61110800  0.11113500  0.08377300  1
  W  W9  1  0.11113500  0.61110800  0.08377300  1
  W  W10  1  0.88880600  0.38847100  0.91757400  1
  W  W11  1  0.38847100  0.88880600  0.91757400  1
  W  W12  1  0.12351900  0.62351800  0.27697800  1
  W  W13  1  0.62351800  0.12351900  0.27697800  1
  W  W14  1  0.37799200  0.87057900  0.72632700  1
  W  W15  1  0.87057900  0.37799200  0.72632700  1
  W  W16  1  0.24620600  0.74619900  0.25830200  1
  W  W17  1  0.74619900  0.24620600  0.25830200  1
  W  W18  1  0.25372600  0.75363500  0.74109900  1
  W  W19  1  0.75363500  0.25372600  0.74109900  1
  W  W20  1  0.16910000  0.66926800  0.44868000  1
  W  W21  1  0.66926800  0.16910000  0.44868000  1
  W  W22  1  0.33239900  0.83086600  0.55050900  1
  W  W23  1  0.83086600  0.33239900  0.55050900  1
  W  W24  1  0.48005200  0.97893200  0.41477200  1
  W  W25  1  0.97893200  0.48005200  0.41477200  1
  W  W26  1  0.01784000  0.52763100  0.58493700  1
  W  W27  1  0.52763100  0.01784000  0.58493700  1
  W  W28  1  0.37156500  0.87150800  0.12767500  1
  W  W29  1  0.87150800  0.37156500  0.12767500  1
  W  W30  1  0.12849600  0.62847500  0.87306600  1
  W  W31  1  0.62847500  0.12849600  0.87306600  1
  W  W32  1  0.24921900  0.74919800  0.08256800  1
  W  W33  1  0.74919800  0.24921900  0.08256800  1
  W  W34  1  0.25019100  0.75035200  0.91820100  1
  W  W35  1  0.75035200  0.25019100  0.91820100  1
  O  O0  1  0.29623300  0.79625600  0.13839700  1
  O  O1  1  0.79625600  0.29623300  0.13839700  1
  O  O2  1  0.20362700  0.70417600  0.86126000  1
  O  O3  1  0.70417600  0.20362700  0.86126000  1
  O  O4  1  0.53174200  0.03183000  0.14358400  1
  O  O5  1  0.03183000  0.53174200  0.14358400  1
  O  O6  1  0.96787900  0.46778600  0.85713200  1
  O  O7  1  0.46778600  0.96787900  0.85713200  1
  O  O8  1  0.55799500  0.05761800  0.35373600  1
  O  O9  1  0.05761800  0.55799500  0.35373600  1
  O  O10  1  0.95465500  0.42788600  0.63918700  1
  O  O11  1  0.42788600  0.95465500  0.63918700  1
  O  O12  1  0.49850100  0.49850100  0.08231800  1
  O  O13  1  0.99846900  0.99846900  0.08232100  1
  O  O14  1  0.50103700  0.50103700  0.91838500  1
  O  O15  1  0.00075100  0.00075100  0.91899200  1
  O  O16  1  0.31190800  0.81463000  0.45803100  1
  O  O17  1  0.81463000  0.31190800  0.45803100  1
  O  O18  1  0.18731000  0.68729100  0.54152400  1
  O  O19  1  0.68729100  0.18731000  0.54152400  1
  O  O20  1  0.61065900  0.11070800  0.18974100  1
  O  O21  1  0.11070800  0.61065900  0.18974100  1
  O  O22  1  0.89268100  0.38560400  0.81098000  1
  O  O23  1  0.38560400  0.89268100  0.81098000  1
  O  O24  1  0.61897800  0.61897800  0.13092900  1
  O  O25  1  0.11901800  0.11901800  0.13086700  1
  O  O26  1  0.38216600  0.38216600  0.86897600  1
  O  O27  1  0.88210400  0.88210400  0.86894600  1
  O  O28  1  0.49544600  0.49544600  0.25740600  1
  O  O29  1  0.99545600  0.99545600  0.25738400  1
  O  O30  1  0.50412300  0.50412300  0.74206900  1
  O  O31  1  0.00454400  0.00454400  0.74112400  1
  O  O32  1  0.32132000  0.82115200  0.24377400  1
  O  O33  1  0.82115200  0.32132000  0.24377400  1
  O  O34  1  0.17908200  0.67914600  0.75518200  1
  O  O35  1  0.67914600  0.17908200  0.75518200  1
  O  O36  1  0.16708200  0.66710700  0.33998500  1
  O  O37  1  0.66710700  0.16708200  0.33998500  1
  O  O38  1  0.33660200  0.82702200  0.66181900  1
  O  O39  1  0.82702200  0.33660200  0.66181900  1
  O  O40  1  0.39431000  0.89371600  0.02130600  1
  O  O41  1  0.89371600  0.39431000  0.02130600  1
  O  O42  1  0.10586200  0.60587200  0.97922600  1
  O  O43  1  0.60587200  0.10586200  0.97922600  1
  O  O44  1  0.43035400  0.93010300  0.14887200  1
  O  O45  1  0.93010300  0.43035400  0.14887200  1
  O  O46  1  0.07032700  0.56979400  0.85237300  1
  O  O47  1  0.56979400  0.07032700  0.85237300  1
  O  O48  1  0.37710900  0.37710900  0.27766100  1
  O  O49  1  0.87715700  0.87715700  0.27761600  1
  O  O50  1  0.62565800  0.62565800  0.72187000  1
  O  O51  1  0.12417000  0.12417000  0.71523000  1
  O  O52  1  0.47989100  0.97902300  0.31202500  1
  O  O53  1  0.97902300  0.47989100  0.31202500  1
  O  O54  1  0.01783300  0.52319400  0.68625500  1
  O  O55  1  0.52319400  0.01783300  0.68625500  1
  O  O56  1  0.86267600  0.86267600  0.08119800  1
  O  O57  1  0.36264800  0.36264800  0.08121200  1
  O  O58  1  0.13700300  0.13700300  0.91944300  1
  O  O59  1  0.63701100  0.63701100  0.91853000  1
  O  O60  1  0.24582300  0.74570100  0.36695900  1
  O  O61  1  0.74570100  0.24582300  0.36695900  1
  O  O62  1  0.25468700  0.75537600  0.63035200  1
  O  O63  1  0.75537600  0.25468700  0.63035200  1
  O  O64  1  0.71175600  0.71175600  0.22306100  1
  O  O65  1  0.21172200  0.21172200  0.22308000  1
  O  O66  1  0.28822400  0.28822400  0.77667500  1
  O  O67  1  0.78836600  0.78836600  0.77732600  1
  O  O68  1  0.39058400  0.89045000  0.30401500  1
  O  O69  1  0.89045000  0.39058400  0.30401500  1
  O  O70  1  0.10966100  0.60944300  0.69597000  1
  O  O71  1  0.60944300  0.10966100  0.69597000  1
  O  O72  1  0.49369800  0.00761100  0.49926900  1
  O  O73  1  0.00761100  0.49369800  0.49926900  1
  O  O74  1  0.08958800  0.59476100  0.52375100  1
  O  O75  1  0.59476100  0.08958800  0.52375100  1
  O  O76  1  0.40788100  0.90903900  0.47850000  1
  O  O77  1  0.90903900  0.40788100  0.47850000  1
  O  O78  1  0.69680300  0.19737500  0.03185100  1
  O  O79  1  0.19737500  0.69680300  0.03185100  1
  O  O80  1  0.80255600  0.30253900  0.96888800  1
  O  O81  1  0.30253900  0.80255600  0.96888800  1
  O  O82  1  0.56515900  0.56515900  0.35687800  1
  O  O83  1  0.06519400  0.06519400  0.35636500  1
  O  O84  1  0.43477100  0.43477100  0.64343900  1
  O  O85  1  0.93466600  0.93466600  0.64348700  1
  O  O86  1  0.20155700  0.70149800  0.19839000  1
  O  O87  1  0.70149800  0.20155700  0.19839000  1
  O  O88  1  0.29740800  0.79844500  0.80296100  1
  O  O89  1  0.79844500  0.29740800  0.80296100  1
  O  O90  1  0.73109200  0.73109200  0.41346700  1
  O  O91  1  0.23006300  0.23006300  0.41354100  1
  O  O92  1  0.26806900  0.26806900  0.58667000  1
  O  O93  1  0.76692600  0.76692600  0.58693600  1
  O  O94  1  0.41862900  0.41862900  0.44863500  1
  O  O95  1  0.91891700  0.91891700  0.44839900  1
  O  O96  1  0.58179400  0.58179400  0.55103000  1
  O  O97  1  0.08330800  0.08330800  0.55305400  1
loop_
_geom_bond_atom_site_label_1
_geom_bond_atom_site_label_2
_geom_bond_distance
_geom_bond_site_symmetry_2
O0 W32 2.028613 1_555
O0 W28 2.068073 1_555
O0 W16 2.121999 1_555
O1 W33 2.028613 1_555
O1 W29 2.068073 1_555
O1 W17 2.121999 1_555
O2 W34 2.028945 1_555
O2 W30 2.064748 1_555
O2 W18 2.124222 1_555
O3 W35 2.028945 1_555
O3 W31 2.064748 1_555
O3 W19 2.124222 1_555
O4 W4 1.836860 1_545
O4 W8 2.060812 1_555
O5 W5 1.836860 1_455
O5 W9 2.060812 1_555
O6 W6 1.838904 1_655
O6 W10 2.058471 1_555
O7 W7 1.838904 1_565
O7 W11 2.058471 1_555
O8 W13 1.828500 1_555
O8 W24 2.038122 1_545
O9 W12 1.828500 1_555
O9 W25 2.038122 1_455
O10 W15 1.937171 1_555
O10 Zn0 1.997674 1_655
O10 W26 2.112730 1_655
O11 W14 1.937171 1_555
O11 Zn0 1.997674 1_565
O11 W27 2.112730 1_565
O12 W33 1.933300 1_555
O12 W32 1.933300 1_555
O13 W33 1.933472 1_565
O13 W32 1.933472 1_655
O14 W35 1.934014 1_555
O14 W34 1.934014 1_555
O15 W34 1.932778 1_545
O15 W35 1.932778 1_455
O16 W0 1.839518 1_555
O16 W22 2.033717 1_555
O17 W1 1.839518 1_555
O17 W23 2.033717 1_555
O18 W2 1.846306 1_555
O18 W20 2.036066 1_555
O19 W3 1.846306 1_555
O19 W21 2.036066 1_555
O20 W13 1.841883 1_555
O20 W8 2.009239 1_555
O21 W12 1.841883 1_555
O21 W9 2.009239 1_555
O22 W15 1.828471 1_555
O22 W10 2.020529 1_555
O23 W14 1.828471 1_555
O23 W11 2.020529 1_555
O24 W29 1.934414 1_555
O24 W28 1.934414 1_555
O25 W28 1.934808 1_545
O25 W29 1.934808 1_455
O26 W30 1.935805 1_555
O26 W31 1.935805 1_555
O27 W30 1.935913 1_655
O27 W31 1.935913 1_565
O28 W16 1.933497 1_555
O28 W17 1.933497 1_555
O29 W16 1.933552 1_655
O29 W17 1.933552 1_565
O30 W19 1.933077 1_555
O30 W18 1.933077 1_555
O31 W18 1.933760 1_545
O31 W19 1.933760 1_455
O32 W16 2.037558 1_555
O32 W28 2.066935 1_555
O32 W0 2.147749 1_555
O33 W17 2.037558 1_555
O33 W29 2.066935 1_555
O33 W1 2.147749 1_555
O34 W18 2.026939 1_555
O34 W30 2.095633 1_555
O34 W2 2.128465 1_555
O35 W19 2.026939 1_555
O35 W31 2.095633 1_555
O35 W3 2.128465 1_555
O36 W12 2.055078 1_555
O36 W20 2.091943 1_555
O36 W16 2.134540 1_555
O37 W13 2.055078 1_555
O37 W21 2.091943 1_555
O37 W17 2.134540 1_555
O38 W14 2.052552 1_555
O38 W18 2.101119 1_555
O38 W22 2.118369 1_555
O39 W15 2.052552 1_555
O39 W19 2.101119 1_555
O39 W23 2.118369 1_555
O40 W28 1.847387 1_555
O40 W11 2.040891 1_554
O41 W29 1.847387 1_555
O41 W10 2.040891 1_554
O42 W30 1.843167 1_555
O42 W9 2.054707 1_556
O43 W31 1.843167 1_555
O43 W8 2.054707 1_556
O44 W28 1.877234 1_555
O44 W4 2.011543 1_555
O45 W29 1.877234 1_555
O45 W5 2.011543 1_555
O46 W30 1.864148 1_555
O46 W6 2.019202 1_555
O47 W31 1.864148 1_555
O47 W7 2.019202 1_555
O48 W12 1.936281 1_555
O48 W13 1.936281 1_555
O49 W13 1.936341 1_565
O49 W12 1.936341 1_655
O50 W14 1.906143 1_555
O50 W15 1.906143 1_555
O51 W14 1.973370 1_545
O51 W15 1.973370 1_455
O51 Zn0 2.259771 1_555
O52 W4 1.933153 1_555
O52 W24 1.953628 1_555
O53 W5 1.933153 1_555
O53 W25 1.953628 1_555
O54 W26 1.900443 1_555
O54 W6 1.988562 1_555
O55 W27 1.900443 1_555
O55 W7 1.988562 1_555
O56 W8 1.934010 1_565
O56 W9 1.934010 1_655
O57 W9 1.933787 1_555
O57 W8 1.933787 1_555
O58 W10 1.932483 1_455
O58 W11 1.932483 1_545
O59 W11 1.935003 1_555
O59 W10 1.935003 1_555
O60 W0 2.056705 1_555
O60 W16 2.060326 1_555
O60 W20 2.081177 1_555
O61 W1 2.056705 1_555
O61 W17 2.060326 1_555
O61 W21 2.081177 1_555
O62 W2 2.061945 1_555
O62 W22 2.071009 1_555
O62 W18 2.089441 1_555
O63 W3 2.061945 1_555
O63 W23 2.071009 1_555
O63 W19 2.089441 1_555
O64 W5 1.935968 1_555
O64 W4 1.935968 1_555
O65 W4 1.936131 1_545
O65 W5 1.936131 1_455
O66 W7 1.937044 1_555
O66 W6 1.937044 1_555
O67 W7 1.935593 1_565
O67 W6 1.935593 1_655
O68 W0 1.821549 1_555
O68 W4 2.063517 1_555
O69 W1 1.821549 1_555
O69 W5 2.063517 1_555
O70 W2 1.818520 1_555
O70 W6 2.074841 1_555
O71 W3 1.818520 1_555
O71 W7 2.074841 1_555
O72 W24 1.938908 1_545
O72 W27 1.978797 1_555
O73 W25 1.938908 1_455
O73 W26 1.978797 1_555
O74 W26 1.826916 1_555
O74 W20 2.055551 1_555
O75 W27 1.826916 1_555
O75 W21 2.055551 1_555
O76 W24 1.872830 1_555
O76 W22 2.037796 1_555
O77 W25 1.872830 1_555
O77 W23 2.037796 1_555
O78 W35 2.053822 1_554
O78 W33 2.082196 1_555
O78 W8 2.224024 1_555
O79 W34 2.053822 1_554
O79 W32 2.082196 1_555
O79 W9 2.224024 1_555
O80 W33 2.055570 1_556
O80 W35 2.085807 1_555
O80 W10 2.227490 1_555
O81 W32 2.055570 1_556
O81 W34 2.085807 1_555
O81 W11 2.227490 1_555
O82 W0 1.940050 1_555
O82 W1 1.940050 1_555
O83 W0 1.938851 1_545
O83 W1 1.938851 1_455
O84 W2 1.939323 1_555
O84 W3 1.939323 1_555
O85 W3 1.939084 1_565
O85 W2 1.939084 1_655
O86 W16 2.033039 1_555
O86 W32 2.045676 1_555
O86 W12 2.094584 1_555
O87 W17 2.033039 1_555
O87 W33 2.045676 1_555
O87 W13 2.094584 1_555
O88 W34 2.036703 1_555
O88 W14 2.049060 1_555
O88 W18 2.053199 1_555
O89 W35 2.036703 1_555
O89 W15 2.049060 1_555
O89 W19 2.053199 1_555
O90 W24 1.929371 1_555
O90 W25 1.929371 1_555
O91 W24 1.937707 1_545
O91 W25 1.937707 1_455
O92 W26 1.974930 1_555
O92 W27 1.974930 1_555
O92 Zn0 2.112064 1_555
O93 W27 1.901599 1_565
O93 W26 1.901599 1_655
O94 W21 1.933966 1_555
O94 W20 1.933966 1_555
O95 W20 1.932631 1_655
O95 W21 1.932631 1_565
O96 W23 1.927363 1_555
O96 W22 1.927363 1_555
O97 W22 1.940866 1_545
O97 W23 1.940866 1_455
