# generated using pymatgen
data_ZnP2H13C2(N3O4)2
_symmetry_space_group_name_H-M   'P 1'
_cell_length_a   10.24644500
_cell_length_b   10.63436400
_cell_length_c   12.61929800
_cell_angle_alpha   90.00000000
_cell_angle_beta   90.00000000
_cell_angle_gamma   90.00000000
_symmetry_Int_Tables_number   1
_chemical_formula_structural   ZnP2H13C2(N3O4)2
_chemical_formula_sum   'Zn4 P8 H52 C8 N24 O32'
_cell_volume   1375.05456102
_cell_formula_units_Z   4
loop_
 _symmetry_equiv_pos_site_id
 _symmetry_equiv_pos_as_xyz
  1  'x, y, z'
loop_
 _atom_site_type_symbol
 _atom_site_label
 _atom_site_symmetry_multiplicity
 _atom_site_fract_x
 _atom_site_fract_y
 _atom_site_fract_z
 _atom_site_occupancy
  Zn  Zn0  1  0.01320800  0.02094500  0.13277600  1
  Zn  Zn1  1  0.51320800  0.97905500  0.86722400  1
  Zn  Zn2  1  0.01320800  0.52094500  0.36722400  1
  Zn  Zn3  1  0.51320800  0.47905500  0.63277600  1
  P  P0  1  0.10514900  0.26671300  0.25604000  1
  P  P1  1  0.60514900  0.73328700  0.74396000  1
  P  P2  1  0.10514900  0.76671300  0.24396000  1
  P  P3  1  0.60514900  0.23328700  0.75604000  1
  P  P4  1  0.27183100  0.49531900  0.48285500  1
  P  P5  1  0.77183100  0.50468100  0.51714500  1
  P  P6  1  0.27183100  0.99531900  0.01714500  1
  P  P7  1  0.77183100  0.00468100  0.98285500  1
  H  H0  1  0.26844300  0.16724400  0.83088200  1
  H  H1  1  0.76844300  0.83275600  0.16911800  1
  H  H2  1  0.26844300  0.66724400  0.66911800  1
  H  H3  1  0.76844300  0.33275600  0.33088200  1
  H  H4  1  0.31284200  0.27924100  0.73691000  1
  H  H5  1  0.81284200  0.72075900  0.26309000  1
  H  H6  1  0.31284200  0.77924100  0.76309000  1
  H  H7  1  0.81284200  0.22075900  0.23691000  1
  H  H8  1  0.20797100  0.29995100  0.42984400  1
  H  H9  1  0.70797100  0.70004900  0.57015600  1
  H  H10  1  0.20797100  0.79995100  0.07015600  1
  H  H11  1  0.70797100  0.20004900  0.92984400  1
  H  H12  1  0.98721600  0.15558400  0.44915200  1
  H  H13  1  0.48721600  0.84441600  0.55084800  1
  H  H14  1  0.98721600  0.65558400  0.05084800  1
  H  H15  1  0.48721600  0.34441600  0.94915200  1
  H  H16  1  0.54989100  0.36096400  0.37824400  1
  H  H17  1  0.04989100  0.63903600  0.62175600  1
  H  H18  1  0.54989100  0.86096400  0.12175600  1
  H  H19  1  0.04989100  0.13903600  0.87824400  1
  H  H20  1  0.48248000  0.12396700  0.17999500  1
  H  H21  1  0.98248000  0.87603300  0.82000500  1
  H  H22  1  0.48248000  0.62396700  0.32000500  1
  H  H23  1  0.98248000  0.37603300  0.67999500  1
  H  H24  1  0.38084500  0.16825500  0.53712700  1
  H  H25  1  0.88084500  0.83174500  0.46287300  1
  H  H26  1  0.38084500  0.66825500  0.96287300  1
  H  H27  1  0.88084500  0.33174500  0.03712700  1
  H  H28  1  0.26418300  0.44009000  0.14590700  1
  H  H29  1  0.76418300  0.55991000  0.85409300  1
  H  H30  1  0.26418300  0.94009000  0.35409300  1
  H  H31  1  0.76418300  0.05991000  0.64590700  1
  H  H32  1  0.38567100  0.30114100  0.05509300  1
  H  H33  1  0.88567100  0.69885900  0.94490700  1
  H  H34  1  0.38567100  0.80114100  0.44490700  1
  H  H35  1  0.88567100  0.19885900  0.55509300  1
  H  H36  1  0.42737100  0.27954900  0.30993900  1
  H  H37  1  0.92737100  0.72045100  0.69006100  1
  H  H38  1  0.42737100  0.77954900  0.19006100  1
  H  H39  1  0.92737100  0.22045100  0.80993900  1
  H  H40  1  0.47309400  0.06314700  0.61117600  1
  H  H41  1  0.97309400  0.93685300  0.38882400  1
  H  H42  1  0.47309400  0.56314700  0.88882400  1
  H  H43  1  0.97309400  0.43685300  0.11117600  1
  H  H44  1  0.64636900  0.10325600  0.15125800  1
  H  H45  1  0.14636900  0.89674400  0.84874200  1
  H  H46  1  0.64636900  0.60325600  0.34874200  1
  H  H47  1  0.14636900  0.39674400  0.65125800  1
  H  H48  1  0.24857000  0.09705100  0.39307500  1
  H  H49  1  0.74857000  0.90294900  0.60692500  1
  H  H50  1  0.24857000  0.59705100  0.10692500  1
  H  H51  1  0.74857000  0.40294900  0.89307500  1
  C  C0  1  0.61414800  0.23505100  0.26574200  1
  C  C1  1  0.11414800  0.76494900  0.73425800  1
  C  C2  1  0.61414800  0.73505100  0.23425800  1
  C  C3  1  0.11414800  0.26494900  0.76574200  1
  C  C4  1  0.37577200  0.48694400  0.01861500  1
  C  C5  1  0.87577200  0.51305600  0.98138500  1
  C  C6  1  0.37577200  0.98694400  0.48138500  1
  C  C7  1  0.87577200  0.01305600  0.51861500  1
  N  N0  1  0.41295600  0.07884200  0.54785200  1
  N  N1  1  0.91295600  0.92115800  0.45214800  1
  N  N2  1  0.41295600  0.57884200  0.95214800  1
  N  N3  1  0.91295600  0.42115800  0.04785200  1
  N  N4  1  0.29583800  0.01284000  0.40058900  1
  N  N5  1  0.79583800  0.98716000  0.59941100  1
  N  N6  1  0.29583800  0.51284000  0.09941100  1
  N  N7  1  0.79583800  0.48716000  0.90058900  1
  N  N8  1  0.52365300  0.29584500  0.32266900  1
  N  N9  1  0.02365300  0.70415500  0.67733100  1
  N  N10  1  0.52365300  0.79584500  0.17733100  1
  N  N11  1  0.02365300  0.20415500  0.82266900  1
  N  N12  1  0.57800200  0.14559800  0.19713000  1
  N  N13  1  0.07800200  0.85440200  0.80287000  1
  N  N14  1  0.57800200  0.64559800  0.30287000  1
  N  N15  1  0.07800200  0.35440200  0.69713000  1
  N  N16  1  0.74034100  0.26374100  0.27876300  1
  N  N17  1  0.24034100  0.73625900  0.72123700  1
  N  N18  1  0.74034100  0.76374100  0.22123700  1
  N  N19  1  0.24034100  0.23625900  0.77876300  1
  N  N20  1  0.41915700  0.36934800  0.00554200  1
  N  N21  1  0.91915700  0.63065200  0.99445800  1
  N  N22  1  0.41915700  0.86934800  0.49445800  1
  N  N23  1  0.91915700  0.13065200  0.50554200  1
  O  O0  1  0.12600900  0.03350300  0.00799300  1
  O  O1  1  0.62600900  0.96649700  0.99200700  1
  O  O2  1  0.12600900  0.53350300  0.49200700  1
  O  O3  1  0.62600900  0.46649700  0.50799300  1
  O  O4  1  0.00116500  0.18531400  0.19998200  1
  O  O5  1  0.50116500  0.81468600  0.80001800  1
  O  O6  1  0.00116500  0.68531400  0.30001800  1
  O  O7  1  0.50116500  0.31468600  0.69998200  1
  O  O8  1  0.28172600  0.34604700  0.47572500  1
  O  O9  1  0.78172600  0.65395300  0.52427500  1
  O  O10  1  0.28172600  0.84604700  0.02427500  1
  O  O11  1  0.78172600  0.15395300  0.97572500  1
  O  O12  1  0.33539100  0.05214900  0.11598400  1
  O  O13  1  0.83539100  0.94785100  0.88401600  1
  O  O14  1  0.33539100  0.55214900  0.38401600  1
  O  O15  1  0.83539100  0.44785100  0.61598400  1
  O  O16  1  0.11857400  0.22450700  0.37341400  1
  O  O17  1  0.61857400  0.77549300  0.62658600  1
  O  O18  1  0.11857400  0.72450700  0.12658600  1
  O  O19  1  0.61857400  0.27549300  0.87341400  1
  O  O20  1  0.23968000  0.26911000  0.19977700  1
  O  O21  1  0.73968000  0.73089000  0.80022300  1
  O  O22  1  0.23968000  0.76911000  0.30022300  1
  O  O23  1  0.73968000  0.23089000  0.69977700  1
  O  O24  1  0.05736900  0.40625100  0.24986700  1
  O  O25  1  0.55736900  0.59374900  0.75013300  1
  O  O26  1  0.05736900  0.90625100  0.25013300  1
  O  O27  1  0.55736900  0.09374900  0.74986700  1
  O  O28  1  0.33638900  0.52914500  0.59013700  1
  O  O29  1  0.83638900  0.47085500  0.40986300  1
  O  O30  1  0.33638900  0.02914500  0.90986300  1
  O  O31  1  0.83638900  0.97085500  0.09013700  1
loop_
_geom_bond_atom_site_label_1
_geom_bond_atom_site_label_2
_geom_bond_distance
_geom_bond_site_symmetry_2
H0 N19 1.026715 1_555
H1 N18 1.026715 1_555
H2 N17 1.026715 1_555
H3 N16 1.026715 1_555
H4 N19 1.019678 1_555
H5 N18 1.019678 1_555
H6 N17 1.019678 1_555
H7 N16 1.019678 1_555
H8 O8 1.070815 1_555
H8 O16 1.410616 1_555
H9 O9 1.070815 1_555
H9 O17 1.410616 1_555
H10 O10 1.070815 1_555
H10 O18 1.410616 1_555
H11 O11 1.070815 1_555
H11 O19 1.410616 1_555
H12 N23 1.031014 1_555
H13 N22 1.031014 1_555
H14 N21 1.031014 1_554
H15 N20 1.031014 1_556
H16 N8 1.021606 1_555
H17 N9 1.021606 1_555
H18 N10 1.021606 1_555
H19 N11 1.021606 1_555
H20 N12 1.028418 1_555
H21 N13 1.028418 1_655
H22 N14 1.028418 1_555
H23 N15 1.028418 1_655
H24 N0 1.015229 1_555
H25 N1 1.015229 1_555
H26 N2 1.015229 1_555
H27 N3 1.015229 1_555
H28 N6 1.023724 1_555
H29 N7 1.023724 1_555
H30 N4 1.023724 1_565
H31 N5 1.023724 1_545
H32 N20 1.017271 1_555
H33 N21 1.017271 1_555
H34 N22 1.017271 1_555
H35 N23 1.017271 1_555
H36 N8 1.014453 1_555
H37 N9 1.014453 1_655
H38 N10 1.014453 1_555
H39 N11 1.014453 1_655
H40 N0 1.022804 1_555
H41 N1 1.022804 1_555
H42 N2 1.022804 1_555
H43 N3 1.022804 1_555
H44 N12 1.014185 1_555
H45 N13 1.014185 1_555
H46 N14 1.014185 1_555
H47 N15 1.014185 1_555
H48 N4 1.022517 1_555
H49 N5 1.022517 1_555
H50 N6 1.022517 1_555
H51 N7 1.022517 1_555
C0 N12 1.338570 1_555
C0 N16 1.338660 1_555
C0 N8 1.339341 1_555
C1 N13 1.338570 1_555
C1 N17 1.338660 1_555
C1 N9 1.339341 1_555
C2 N14 1.338570 1_555
C2 N18 1.338660 1_555
C2 N10 1.339341 1_555
C3 N15 1.338570 1_555
C3 N19 1.338660 1_555
C3 N11 1.339341 1_555
C4 N6 1.336497 1_555
C4 N20 1.337434 1_555
C4 N2 1.343043 1_554
C5 N7 1.336497 1_555
C5 N21 1.337434 1_555
C5 N3 1.343043 1_556
C6 N4 1.336497 1_565
C6 N22 1.337434 1_555
C6 N0 1.343043 1_565
C7 N5 1.336497 1_545
C7 N23 1.337434 1_555
C7 N1 1.343043 1_545
O0 P6 1.552653 1_545
O0 Zn0 1.957889 1_555
O1 P7 1.552653 1_565
O1 Zn1 1.957889 1_555
O2 P4 1.552653 1_555
O2 Zn2 1.957889 1_555
O3 P5 1.552653 1_555
O3 Zn3 1.957889 1_555
O4 P0 1.544332 1_555
O4 Zn0 1.946754 1_555
O5 P1 1.544332 1_555
O5 Zn1 1.946754 1_555
O6 P2 1.544332 1_555
O6 Zn2 1.946754 1_555
O7 P3 1.544332 1_555
O7 Zn3 1.946754 1_555
O8 P4 1.593190 1_555
O9 P5 1.593190 1_555
O10 P6 1.593190 1_555
O11 P7 1.593190 1_555
O12 P6 1.531368 1_545
O13 P7 1.531368 1_565
O14 P4 1.531368 1_555
O15 P5 1.531368 1_555
O16 P0 1.553789 1_555
O17 P1 1.553789 1_555
O18 P2 1.553789 1_555
O19 P3 1.553789 1_555
O20 P0 1.550778 1_555
O21 P1 1.550778 1_555
O22 P2 1.550778 1_555
O23 P3 1.550778 1_555
O24 P0 1.564514 1_555
O24 Zn2 1.971209 1_555
O25 P1 1.564514 1_555
O25 Zn3 1.971209 1_555
O26 P2 1.564514 1_555
O26 Zn0 1.971209 1_565
O27 P3 1.564514 1_555
O27 Zn1 1.971209 1_545
O28 P4 1.549130 1_555
O28 Zn3 1.963610 1_555
O29 P5 1.549130 1_555
O29 Zn2 1.963610 1_655
O30 P6 1.549130 1_546
O30 Zn1 1.963610 1_545
O31 P7 1.549130 1_564
O31 Zn0 1.963610 1_665
