# generated using pymatgen
data_Ca5V3CO12
_symmetry_space_group_name_H-M   'P 1'
_cell_length_a   10.17641979
_cell_length_b   10.17641979
_cell_length_c   6.92660400
_cell_angle_alpha   90.00000000
_cell_angle_beta   90.00000000
_cell_angle_gamma   119.99999865
_symmetry_Int_Tables_number   1
_chemical_formula_structural   Ca5V3CO12
_chemical_formula_sum   'Ca10 V6 C2 O24'
_cell_volume   621.21369996
_cell_formula_units_Z   2
loop_
 _symmetry_equiv_pos_site_id
 _symmetry_equiv_pos_as_xyz
  1  'x, y, z'
loop_
 _atom_site_type_symbol
 _atom_site_label
 _atom_site_symmetry_multiplicity
 _atom_site_fract_x
 _atom_site_fract_y
 _atom_site_fract_z
 _atom_site_occupancy
  Ca  Ca0  1  0.33333300  0.66666700  0.99646900  1
  Ca  Ca1  1  0.66666700  0.33333300  0.00353100  1
  Ca  Ca2  1  0.66666700  0.33333300  0.49646900  1
  Ca  Ca3  1  0.33333300  0.66666700  0.50353100  1
  Ca  Ca4  1  0.75319500  0.73429800  0.75000000  1
  Ca  Ca5  1  0.24680500  0.26570200  0.25000000  1
  Ca  Ca6  1  0.98110400  0.24680500  0.75000000  1
  Ca  Ca7  1  0.01889600  0.75319500  0.25000000  1
  Ca  Ca8  1  0.26570200  0.01889600  0.75000000  1
  Ca  Ca9  1  0.73429800  0.98110400  0.25000000  1
  V  V0  1  0.97035300  0.59662300  0.75000000  1
  V  V1  1  0.02964700  0.40337700  0.25000000  1
  V  V2  1  0.62627000  0.02964700  0.75000000  1
  V  V3  1  0.37373000  0.97035300  0.25000000  1
  V  V4  1  0.40337700  0.37373000  0.75000000  1
  V  V5  1  0.59662300  0.62627000  0.25000000  1
  C  C0  1  0.00000000  0.00000000  0.75000000  1
  C  C1  1  0.00000000  0.00000000  0.25000000  1
  O  O0  1  0.49763500  0.83670500  0.75000000  1
  O  O1  1  0.50236500  0.16329500  0.25000000  1
  O  O2  1  0.33907000  0.50236500  0.75000000  1
  O  O3  1  0.66093000  0.49763500  0.25000000  1
  O  O4  1  0.16329500  0.66093000  0.75000000  1
  O  O5  1  0.83670500  0.33907000  0.25000000  1
  O  O6  1  0.86178300  0.39626600  0.75000000  1
  O  O7  1  0.13821700  0.60373400  0.25000000  1
  O  O8  1  0.53448200  0.13821700  0.75000000  1
  O  O9  1  0.46551800  0.86178300  0.25000000  1
  O  O10  1  0.60373400  0.46551800  0.75000000  1
  O  O11  1  0.39626600  0.53448200  0.25000000  1
  O  O12  1  0.91032500  0.65830600  0.94753800  1
  O  O13  1  0.08967500  0.34169400  0.05246200  1
  O  O14  1  0.74798100  0.08967500  0.94753800  1
  O  O15  1  0.08967500  0.34169400  0.44753800  1
  O  O16  1  0.25201900  0.91032500  0.05246200  1
  O  O17  1  0.91032500  0.65830600  0.55246200  1
  O  O18  1  0.34169400  0.25201900  0.94753800  1
  O  O19  1  0.25201900  0.91032500  0.44753800  1
  O  O20  1  0.65830600  0.74798100  0.05246200  1
  O  O21  1  0.74798100  0.08967500  0.55246200  1
  O  O22  1  0.65830600  0.74798100  0.44753800  1
  O  O23  1  0.34169400  0.25201900  0.55246200  1
loop_
_geom_bond_atom_site_label_1
_geom_bond_atom_site_label_2
_geom_bond_distance
_geom_bond_site_symmetry_2
Ca0 O4 2.410623 1_555
Ca0 O0 2.410626 1_555
Ca0 O2 2.410630 1_555
Ca0 O7 2.482937 1_556
Ca0 O9 2.482940 1_556
Ca0 O11 2.482951 1_556
Ca1 O5 2.410623 1_555
Ca1 O1 2.410626 1_555
Ca1 O3 2.410630 1_555
Ca1 O6 2.482937 1_554
Ca1 O8 2.482940 1_554
Ca1 O10 2.482951 1_554
Ca2 O5 2.410623 1_555
Ca2 O1 2.410626 1_555
Ca2 O3 2.410630 1_555
Ca2 O6 2.482937 1_555
Ca2 O8 2.482940 1_555
Ca2 O10 2.482951 1_555
Ca3 O4 2.410623 1_555
Ca3 O0 2.410626 1_555
Ca3 O2 2.410630 1_555
Ca3 O7 2.482937 1_555
Ca3 O9 2.482940 1_555
Ca3 O11 2.482951 1_555
Ca4 O20 2.339970 1_556
Ca4 O22 2.339970 1_555
Ca4 O10 2.373728 1_555
Ca4 O12 2.502723 1_555
Ca4 O17 2.502723 1_555
Ca5 O18 2.339970 1_554
Ca5 O23 2.339970 1_555
Ca5 O11 2.373728 1_555
Ca5 O15 2.502723 1_555
Ca5 O13 2.502723 1_555
Ca6 O13 2.339967 1_656
Ca6 O15 2.339967 1_655
Ca6 O6 2.373745 1_555
Ca6 O14 2.502729 1_555
Ca6 O21 2.502729 1_555
Ca7 O12 2.339967 1_454
Ca7 O17 2.339967 1_455
Ca7 O7 2.373745 1_555
Ca7 O19 2.502729 1_555
Ca7 O16 2.502729 1_555
Ca8 O16 2.339965 1_546
Ca8 O19 2.339965 1_545
Ca8 O8 2.373727 1_555
Ca8 O23 2.502731 1_555
Ca8 O18 2.502731 1_555
Ca9 O21 2.339965 1_565
Ca9 O14 2.339965 1_564
Ca9 O9 2.373727 1_555
Ca9 O22 2.502731 1_555
Ca9 O20 2.502731 1_555
C0 Ca6 2.613050 1_455
C0 Ca4 2.613056 1_445
C0 Ca8 2.613060 1_555
C1 Ca7 2.613050 1_545
C1 Ca5 2.613056 1_555
C1 Ca9 2.613060 1_445
O0 V2 1.731621 1_565
O1 V3 1.731621 1_545
O2 V4 1.731621 1_555
O3 V5 1.731621 1_555
O4 V0 1.731621 1_455
O5 V1 1.731621 1_655
O6 V0 1.767818 1_555
O7 V1 1.767818 1_555
O8 V2 1.767826 1_555
O9 V3 1.767826 1_555
O10 V4 1.767817 1_555
O11 V5 1.767817 1_555
O12 V0 1.738618 1_555
O13 V1 1.738618 1_555
O14 V2 1.738618 1_555
O15 V1 1.738618 1_555
O16 V3 1.738618 1_555
O17 V0 1.738618 1_555
O18 V4 1.738618 1_555
O19 V3 1.738618 1_555
O20 V5 1.738618 1_555
O21 V2 1.738618 1_555
O22 V5 1.738618 1_555
O23 V4 1.738618 1_555
