# generated using pymatgen
data_ZnCrBiO5
_symmetry_space_group_name_H-M   'P 1'
_cell_length_a   5.38683105
_cell_length_b   7.75300989
_cell_length_c   11.70392100
_cell_angle_alpha   90.00000000
_cell_angle_beta   90.00000000
_cell_angle_gamma   106.35103350
_symmetry_Int_Tables_number   1
_chemical_formula_structural   ZnCrBiO5
_chemical_formula_sum   'Zn4 Cr4 Bi4 O20'
_cell_volume   469.03463243
_cell_formula_units_Z   4
loop_
 _symmetry_equiv_pos_site_id
 _symmetry_equiv_pos_as_xyz
  1  'x, y, z'
loop_
 _atom_site_type_symbol
 _atom_site_label
 _atom_site_symmetry_multiplicity
 _atom_site_fract_x
 _atom_site_fract_y
 _atom_site_fract_z
 _atom_site_occupancy
  Zn  Zn0  1  0.61700500  0.17135200  0.91819900  1
  Zn  Zn1  1  0.38299500  0.82864800  0.08180100  1
  Zn  Zn2  1  0.88299500  0.32864800  0.41819900  1
  Zn  Zn3  1  0.11700500  0.67135200  0.58180100  1
  Cr  Cr0  1  0.78354200  0.96866300  0.64403800  1
  Cr  Cr1  1  0.21645800  0.03133700  0.35596200  1
  Cr  Cr2  1  0.71645800  0.53133700  0.14403800  1
  Cr  Cr3  1  0.28354200  0.46866300  0.85596200  1
  Bi  Bi0  1  0.11129600  0.16979000  0.10368600  1
  Bi  Bi1  1  0.88870400  0.83021000  0.89631400  1
  Bi  Bi2  1  0.61129600  0.66979000  0.39631400  1
  Bi  Bi3  1  0.38870400  0.33021000  0.60368600  1
  O  O0  1  0.56392700  0.33317100  0.07745700  1
  O  O1  1  0.02887100  0.33031900  0.92681200  1
  O  O2  1  0.49593200  0.65055500  0.17898300  1
  O  O3  1  0.75495900  0.51114300  0.52407900  1
  O  O4  1  0.79222300  0.49025800  0.28679500  1
  O  O5  1  0.29222300  0.99025800  0.21320500  1
  O  O6  1  0.52887100  0.83031900  0.57318800  1
  O  O7  1  0.47112900  0.16968100  0.42681200  1
  O  O8  1  0.24504100  0.48885700  0.47592100  1
  O  O9  1  0.93607300  0.16682900  0.57745700  1
  O  O10  1  0.20777700  0.50974200  0.71320500  1
  O  O11  1  0.43607300  0.66682900  0.92254300  1
  O  O12  1  0.06392700  0.83317100  0.42254300  1
  O  O13  1  0.70777700  0.00974200  0.78679500  1
  O  O14  1  0.74504100  0.98885700  0.02407900  1
  O  O15  1  0.25495900  0.01114300  0.97592100  1
  O  O16  1  0.50406800  0.34944500  0.82101700  1
  O  O17  1  0.97112900  0.66968100  0.07318800  1
  O  O18  1  0.00406800  0.84944500  0.67898300  1
  O  O19  1  0.99593200  0.15055500  0.32101700  1
loop_
_geom_bond_atom_site_label_1
_geom_bond_atom_site_label_2
_geom_bond_distance
_geom_bond_site_symmetry_2
Cr0 O6 1.700466 1_555
Cr0 O9 1.712327 1_565
Cr0 O18 1.746717 1_655
Cr0 O13 1.769978 1_565
Cr1 O7 1.700466 1_555
Cr1 O12 1.712327 1_545
Cr1 O19 1.746717 1_455
Cr1 O5 1.769978 1_545
Cr2 O17 1.700466 1_555
Cr2 O0 1.712327 1_555
Cr2 O2 1.746717 1_555
Cr2 O4 1.769978 1_555
Cr3 O1 1.700466 1_555
Cr3 O11 1.712327 1_555
Cr3 O16 1.746717 1_555
Cr3 O10 1.769978 1_555
Bi0 O15 2.209934 1_554
Bi0 O14 2.273793 1_445
Bi0 O5 2.300902 1_545
Bi0 O0 2.429986 1_555
Bi0 O1 2.518465 1_554
Bi0 O19 2.612715 1_455
Bi1 O14 2.209934 1_556
Bi1 O15 2.273793 1_665
Bi1 O13 2.300902 1_565
Bi1 O11 2.429986 1_555
Bi1 O17 2.518465 1_556
Bi1 O18 2.612715 1_655
Bi2 O3 2.209934 1_555
Bi2 O8 2.273793 1_555
Bi2 O4 2.300902 1_555
Bi2 O12 2.429986 1_655
Bi2 O6 2.518465 1_555
Bi2 O2 2.612715 1_555
Bi3 O8 2.209934 1_555
Bi3 O3 2.273793 1_555
Bi3 O10 2.300902 1_555
Bi3 O9 2.429986 1_455
Bi3 O7 2.518465 1_555
Bi3 O16 2.612715 1_555
O0 Zn0 2.309110 1_554
O1 Zn0 2.216296 1_455
O2 Zn1 2.010789 1_555
O3 Zn3 2.106863 1_655
O3 Zn2 2.136046 1_555
O4 Zn2 2.125850 1_555
O5 Zn1 2.125850 1_555
O6 Zn3 2.216296 1_555
O7 Zn2 2.216296 1_555
O8 Zn2 2.106863 1_455
O8 Zn3 2.136046 1_555
O9 Zn2 2.309110 1_555
O10 Zn3 2.125850 1_555
O11 Zn1 2.309110 1_556
O12 Zn3 2.309110 1_555
O13 Zn0 2.125850 1_555
O14 Zn1 2.106863 1_555
O14 Zn0 2.136046 1_564
O15 Zn0 2.106863 1_555
O15 Zn1 2.136046 1_546
O16 Zn0 2.010789 1_555
O17 Zn1 2.216296 1_655
O18 Zn3 2.010789 1_555
O19 Zn2 2.010789 1_555
