# generated using pymatgen
data_ZnCoP2O7
_symmetry_space_group_name_H-M   'P 1'
_cell_length_a   6.42552489
_cell_length_b   7.06183171
_cell_length_c   6.27300515
_cell_angle_alpha   77.40001508
_cell_angle_beta   81.08344678
_cell_angle_gamma   69.35747659
_symmetry_Int_Tables_number   1
_chemical_formula_structural   ZnCoP2O7
_chemical_formula_sum   'Zn2 Co2 P4 O14'
_cell_volume   259.00194020
_cell_formula_units_Z   2
loop_
 _symmetry_equiv_pos_site_id
 _symmetry_equiv_pos_as_xyz
  1  'x, y, z'
loop_
 _atom_site_type_symbol
 _atom_site_label
 _atom_site_symmetry_multiplicity
 _atom_site_fract_x
 _atom_site_fract_y
 _atom_site_fract_z
 _atom_site_occupancy
  Zn  Zn0  1  0.28478600  0.19778600  0.93419700  1
  Zn  Zn1  1  0.71698800  0.79865400  0.06863000  1
  Co  Co0  1  0.90674200  0.20921600  0.33365000  1
  Co  Co1  1  0.09318400  0.80202000  0.67008100  1
  P  P0  1  0.20795900  0.77034400  0.16610200  1
  P  P1  1  0.78987800  0.23095900  0.83729100  1
  P  P2  1  0.64620500  0.67471700  0.60159400  1
  P  P3  1  0.35473600  0.32332500  0.39707400  1
  O  O0  1  0.63025400  0.45186800  0.73868400  1
  O  O1  1  0.36372900  0.55035000  0.26947300  1
  O  O2  1  0.06612400  0.74502200  0.00330500  1
  O  O3  1  0.93458700  0.25316900  0.99790600  1
  O  O4  1  0.24611000  0.35445200  0.62776700  1
  O  O5  1  0.75762400  0.63222400  0.37355800  1
  O  O6  1  0.59715200  0.19136300  0.38250400  1
  O  O7  1  0.40475600  0.81141300  0.60483500  1
  O  O8  1  0.62760600  0.11590000  0.95011500  1
  O  O9  1  0.37452900  0.88006800  0.04949700  1
  O  O10  1  0.94304600  0.12565200  0.65383500  1
  O  O11  1  0.05345200  0.88062900  0.34458000  1
  O  O12  1  0.21033300  0.26891100  0.25814900  1
  O  O13  1  0.79022000  0.73195600  0.73717200  1
loop_
_geom_bond_atom_site_label_1
_geom_bond_atom_site_label_2
_geom_bond_distance
_geom_bond_site_symmetry_2
Co0 O10 1.991955 1_555
Co0 O6 2.009486 1_555
Co0 O3 2.049694 1_554
Co0 O12 2.100876 1_655
Co0 O11 2.164731 1_645
Co1 O7 2.001938 1_555
Co1 O11 2.027243 1_555
Co1 O2 2.032552 1_556
Co1 O10 2.130398 1_465
Co1 O13 2.132107 1_455
O0 P1 1.586124 1_555
O0 P2 1.650032 1_555
O1 P0 1.581505 1_555
O1 P3 1.644822 1_555
O2 P0 1.545495 1_555
O2 Zn1 2.127862 1_455
O3 P1 1.538344 1_555
O3 Zn0 2.131911 1_655
O4 P3 1.532056 1_555
O4 Zn0 2.001788 1_555
O5 P2 1.538565 1_555
O5 Zn1 2.016431 1_555
O6 P3 1.507522 1_555
O7 P2 1.510649 1_555
O8 P1 1.538175 1_555
O8 Zn0 2.083639 1_555
O8 Zn1 2.097657 1_546
O9 P0 1.541346 1_555
O9 Zn1 2.084902 1_555
O9 Zn0 2.097325 1_564
O10 P1 1.533713 1_555
O11 P0 1.528519 1_555
O12 P3 1.554419 1_555
O12 Zn0 2.141335 1_554
O13 P2 1.549419 1_555
O13 Zn1 2.175824 1_556
