# generated using pymatgen
data_LaGe2PdRh
_symmetry_space_group_name_H-M   'P 1'
_cell_length_a   4.42505000
_cell_length_b   4.42505000
_cell_length_c   9.95037500
_cell_angle_alpha   90.00000000
_cell_angle_beta   90.00000000
_cell_angle_gamma   90.00000000
_symmetry_Int_Tables_number   1
_chemical_formula_structural   LaGe2PdRh
_chemical_formula_sum   'La2 Ge4 Pd2 Rh2'
_cell_volume   194.83896455
_cell_formula_units_Z   2
loop_
 _symmetry_equiv_pos_site_id
 _symmetry_equiv_pos_as_xyz
  1  'x, y, z'
loop_
 _atom_site_type_symbol
 _atom_site_label
 _atom_site_symmetry_multiplicity
 _atom_site_fract_x
 _atom_site_fract_y
 _atom_site_fract_z
 _atom_site_occupancy
  La  La0  1  0.00000000  0.50000000  0.25554100  1
  La  La1  1  0.50000000  0.00000000  0.74445900  1
  Ge  Ge0  1  0.00000000  0.50000000  0.86708400  1
  Ge  Ge1  1  0.50000000  0.00000000  0.13291600  1
  Ge  Ge2  1  0.50000000  0.50000000  0.50000000  1
  Ge  Ge3  1  0.00000000  0.00000000  0.50000000  1
  Pd  Pd0  1  0.50000000  0.50000000  0.00000000  1
  Pd  Pd1  1  0.00000000  0.00000000  0.00000000  1
  Rh  Rh0  1  0.00000000  0.50000000  0.62135100  1
  Rh  Rh1  1  0.50000000  0.00000000  0.37864900  1
loop_
_geom_bond_atom_site_label_1
_geom_bond_atom_site_label_2
_geom_bond_distance
_geom_bond_site_symmetry_2
La0 Rh1 3.360221 1_555
La0 Rh1 3.360221 1_465
La0 Rh1 3.360221 1_455
La0 Rh1 3.360221 1_565
La0 Pd1 3.370569 1_555
La0 Pd0 3.370569 1_555
La0 Pd0 3.370569 1_455
La0 Pd1 3.370569 1_565
La1 Rh0 3.360221 1_645
La1 Rh0 3.360221 1_655
La1 Rh0 3.360221 1_555
La1 Rh0 3.360221 1_545
La1 Pd1 3.370569 1_656
La1 Pd0 3.370569 1_556
La1 Pd1 3.370569 1_556
La1 Pd0 3.370569 1_546
Ge0 Rh0 2.445135 1_555
Ge0 Pd0 2.577682 1_456
Ge0 Pd0 2.577682 1_556
Ge0 Pd1 2.577682 1_566
Ge0 Pd1 2.577682 1_556
Ge0 La1 3.358472 1_465
Ge0 La1 3.358472 1_565
Ge0 La1 3.358472 1_555
Ge0 La1 3.358472 1_455
Ge1 Rh1 2.445135 1_555
Ge1 Pd1 2.577682 1_655
Ge1 Pd0 2.577682 1_555
Ge1 Pd1 2.577682 1_555
Ge1 Pd0 2.577682 1_545
Ge1 La0 3.358472 1_645
Ge1 La0 3.358472 1_545
Ge1 La0 3.358472 1_555
Ge1 La0 3.358472 1_655
Ge2 Rh0 2.520574 1_555
Ge2 Rh0 2.520574 1_655
Ge2 Rh1 2.520574 1_565
Ge2 Rh1 2.520574 1_555
Ge2 La1 3.288179 1_555
Ge2 La1 3.288179 1_565
Ge2 La0 3.288179 1_655
Ge2 La0 3.288179 1_555
Ge3 Rh0 2.520574 1_545
Ge3 Rh0 2.520574 1_555
Ge3 Rh1 2.520574 1_455
Ge3 Rh1 2.520574 1_555
Ge3 La1 3.288179 1_555
Ge3 La1 3.288179 1_455
Ge3 La0 3.288179 1_545
Ge3 La0 3.288179 1_555
