# generated using pymatgen
data_In12Se19N2
_symmetry_space_group_name_H-M   'P 1'
_cell_length_a   10.06570081
_cell_length_b   10.06570081
_cell_length_c   10.06570088
_cell_angle_alpha   87.60476166
_cell_angle_beta   87.60476166
_cell_angle_gamma   87.60476184
_symmetry_Int_Tables_number   1
_chemical_formula_structural   In12Se19N2
_chemical_formula_sum   'In12 Se19 N2'
_cell_volume   1017.23924585
_cell_formula_units_Z   1
loop_
 _symmetry_equiv_pos_site_id
 _symmetry_equiv_pos_as_xyz
  1  'x, y, z'
loop_
 _atom_site_type_symbol
 _atom_site_label
 _atom_site_symmetry_multiplicity
 _atom_site_fract_x
 _atom_site_fract_y
 _atom_site_fract_z
 _atom_site_occupancy
  In  In0  1  0.72323900  0.20117600  0.62804800  1
  In  In1  1  0.20117600  0.62804800  0.72323900  1
  In  In2  1  0.62804800  0.72323900  0.20117600  1
  In  In3  1  0.27676100  0.79882400  0.37195200  1
  In  In4  1  0.79882400  0.37195200  0.27676100  1
  In  In5  1  0.37195200  0.27676100  0.79882400  1
  In  In6  1  0.66002300  0.08581200  0.03202900  1
  In  In7  1  0.08581200  0.03202900  0.66002300  1
  In  In8  1  0.03202900  0.66002300  0.08581200  1
  In  In9  1  0.33997700  0.91418800  0.96797100  1
  In  In10  1  0.91418800  0.96797100  0.33997700  1
  In  In11  1  0.96797100  0.33997700  0.91418800  1
  Se  Se0  1  0.84621600  0.95993200  0.61885600  1
  Se  Se1  1  0.95993200  0.61885600  0.84621600  1
  Se  Se2  1  0.61885600  0.84621600  0.95993200  1
  Se  Se3  1  0.15378400  0.04006800  0.38114400  1
  Se  Se4  1  0.04006800  0.38114400  0.15378400  1
  Se  Se5  1  0.38114400  0.15378400  0.04006800  1
  Se  Se6  1  0.00000000  0.00000000  0.00000000  1
  Se  Se7  1  0.71610700  0.29348200  0.87687200  1
  Se  Se8  1  0.29348200  0.87687200  0.71610700  1
  Se  Se9  1  0.87687200  0.71610700  0.29348200  1
  Se  Se10  1  0.28389300  0.70651800  0.12312800  1
  Se  Se11  1  0.70651800  0.12312800  0.28389300  1
  Se  Se12  1  0.12312800  0.28389300  0.70651800  1
  Se  Se13  1  0.47596900  0.16061500  0.59441200  1
  Se  Se14  1  0.16061500  0.59441200  0.47596900  1
  Se  Se15  1  0.59441200  0.47596900  0.16061500  1
  Se  Se16  1  0.52403100  0.83938500  0.40558800  1
  Se  Se17  1  0.83938500  0.40558800  0.52403100  1
  Se  Se18  1  0.40558800  0.52403100  0.83938500  1
  N  N0  1  0.34256600  0.34256600  0.34256600  1
  N  N1  1  0.65743400  0.65743400  0.65743400  1
loop_
_geom_bond_atom_site_label_1
_geom_bond_atom_site_label_2
_geom_bond_distance
_geom_bond_site_symmetry_2
In0 Se17 2.572001 1_555
In0 Se13 2.577420 1_555
In0 Se0 2.682422 1_545
In0 Se7 2.704680 1_555
In1 Se18 2.572001 1_555
In1 Se14 2.577420 1_555
In1 Se1 2.682422 1_455
In1 Se8 2.704680 1_555
In2 Se16 2.572001 1_555
In2 Se15 2.577420 1_555
In2 Se2 2.682422 1_554
In2 Se9 2.704680 1_555
In3 Se14 2.572001 1_555
In3 Se16 2.577420 1_555
In3 Se3 2.682422 1_565
In3 Se10 2.704680 1_555
In4 Se15 2.572001 1_555
In4 Se17 2.577420 1_555
In4 Se4 2.682422 1_655
In4 Se11 2.704680 1_555
In5 Se13 2.572001 1_555
In5 Se18 2.577420 1_555
In5 Se5 2.682422 1_556
In5 Se12 2.704680 1_555
In6 Se2 2.601849 1_544
In6 Se7 2.622861 1_554
In6 Se11 2.642111 1_555
In6 Se5 2.860008 1_555
In7 Se0 2.601849 1_445
In7 Se8 2.622861 1_545
In7 Se12 2.642111 1_555
In7 Se3 2.860008 1_555
In8 Se1 2.601849 1_454
In8 Se9 2.622861 1_455
In8 Se10 2.642111 1_555
In8 Se4 2.860008 1_555
In9 Se5 2.601849 1_566
In9 Se10 2.622861 1_556
In9 Se8 2.642111 1_555
In9 Se2 2.860008 1_555
In10 Se3 2.601849 1_665
In10 Se11 2.622861 1_565
In10 Se9 2.642111 1_555
In10 Se0 2.860008 1_555
In11 Se4 2.601849 1_656
In11 Se12 2.622861 1_655
In11 Se7 2.642111 1_555
In11 Se1 2.860008 1_555
