# generated using pymatgen
data_KNdHf4O12
_symmetry_space_group_name_H-M   'P 1'
_cell_length_a   5.78003370
_cell_length_b   5.78003370
_cell_length_c   8.25775159
_cell_angle_alpha   90.00000000
_cell_angle_beta   90.00000000
_cell_angle_gamma   90.71898926
_symmetry_Int_Tables_number   1
_chemical_formula_structural   KNdHf4O12
_chemical_formula_sum   'K1 Nd1 Hf4 O12'
_cell_volume   275.85976386
_cell_formula_units_Z   1
loop_
 _symmetry_equiv_pos_site_id
 _symmetry_equiv_pos_as_xyz
  1  'x, y, z'
loop_
 _atom_site_type_symbol
 _atom_site_label
 _atom_site_symmetry_multiplicity
 _atom_site_fract_x
 _atom_site_fract_y
 _atom_site_fract_z
 _atom_site_occupancy
  K  K0  1  0.01630779  0.98369221  0.50000000  1
  Nd  Nd0  1  0.47892541  0.52107459  -0.00000000  1
  Hf  Hf0  1  0.50632926  0.00754710  0.25491833  1
  Hf  Hf1  1  0.50632926  0.00754710  0.74508167  1
  Hf  Hf2  1  0.99245290  0.49367074  0.74508167  1
  Hf  Hf3  1  0.99245290  0.49367074  0.25491833  1
  O  O0  1  0.24079993  0.24063410  0.22968674  1
  O  O1  1  0.75936590  0.75920007  0.22968674  1
  O  O2  1  0.75936590  0.75920007  0.77031326  1
  O  O3  1  0.24079993  0.24063410  0.77031326  1
  O  O4  1  0.27267637  0.72732363  0.24475189  1
  O  O5  1  0.71413942  0.28586058  0.19599439  1
  O  O6  1  0.71413942  0.28586058  0.80400561  1
  O  O7  1  0.27267637  0.72732363  0.75524811  1
  O  O8  1  0.48456713  0.94320043  -0.00000000  1
  O  O9  1  0.52224789  0.01677537  0.50000000  1
  O  O10  1  0.05679957  0.51543287  0.00000000  1
  O  O11  1  0.98322463  0.47775211  0.50000000  1
loop_
_geom_bond_atom_site_label_1
_geom_bond_atom_site_label_2
_geom_bond_distance
_geom_bond_site_symmetry_2
K0 O9 2.864471 1_465
K0 O11 2.864471 1_465
K0 O11 2.928201 1_455
K0 O9 2.928201 1_565
K0 O3 2.970450 1_565
K0 O0 2.970450 1_565
K0 O2 2.970450 1_455
K0 O1 2.970450 1_455
K0 O7 2.981510 1_555
K0 O4 2.981510 1_555
Nd0 O10 2.439710 1_555
Nd0 O8 2.439710 1_555
Nd0 O5 2.522413 1_555
Nd0 O6 2.522413 1_554
Nd0 O7 2.638720 1_554
Nd0 O4 2.638720 1_555
Nd0 O2 2.839606 1_554
Nd0 O1 2.839606 1_555
Nd0 O0 2.839606 1_555
Nd0 O3 2.839606 1_554
Hf0 O9 2.026586 1_555
Hf0 O5 2.053976 1_555
Hf0 O0 2.065407 1_555
Hf0 O1 2.072610 1_545
Hf0 O4 2.097496 1_545
Hf0 O8 2.141080 1_545
Hf1 O9 2.026586 1_555
Hf1 O6 2.053976 1_555
Hf1 O3 2.065407 1_555
Hf1 O2 2.072610 1_545
Hf1 O7 2.097496 1_545
Hf1 O8 2.141080 1_546
Hf2 O11 2.026586 1_555
Hf2 O6 2.053976 1_555
Hf2 O2 2.065407 1_555
Hf2 O3 2.072610 1_655
Hf2 O7 2.097496 1_655
Hf2 O10 2.141080 1_656
Hf3 O11 2.026586 1_555
Hf3 O5 2.053976 1_555
Hf3 O1 2.065407 1_555
Hf3 O0 2.072610 1_655
Hf3 O4 2.097496 1_655
Hf3 O10 2.141080 1_655
