# generated using pymatgen
data_BaSrPb6
_symmetry_space_group_name_H-M   'P 1'
_cell_length_a   7.26359630
_cell_length_b   7.26359630
_cell_length_c   17.54980400
_cell_angle_alpha   90.00000000
_cell_angle_beta   90.00000000
_cell_angle_gamma   120.00000269
_symmetry_Int_Tables_number   1
_chemical_formula_structural   BaSrPb6
_chemical_formula_sum   'Ba3 Sr3 Pb18'
_cell_volume   801.87428667
_cell_formula_units_Z   3
loop_
 _symmetry_equiv_pos_site_id
 _symmetry_equiv_pos_as_xyz
  1  'x, y, z'
loop_
 _atom_site_type_symbol
 _atom_site_label
 _atom_site_symmetry_multiplicity
 _atom_site_fract_x
 _atom_site_fract_y
 _atom_site_fract_z
 _atom_site_occupancy
  Ba  Ba0  1  0.33333300  0.66666700  0.24994000  1
  Ba  Ba1  1  0.33333300  0.66666700  0.75003100  1
  Ba  Ba2  1  0.00000000  0.00000000  0.41115700  1
  Sr  Sr0  1  0.66666700  0.33333300  0.58849900  1
  Sr  Sr1  1  0.66666700  0.33333300  0.91148900  1
  Sr  Sr2  1  0.00000000  0.00000000  0.08878800  1
  Pb  Pb0  1  0.99871900  0.49935900  0.41963900  1
  Pb  Pb1  1  0.50064100  0.49935900  0.41963900  1
  Pb  Pb2  1  0.50064100  0.00128100  0.41963900  1
  Pb  Pb3  1  0.66540600  0.83270300  0.58081400  1
  Pb  Pb4  1  0.16729700  0.83270300  0.58081400  1
  Pb  Pb5  1  0.16729700  0.33459400  0.58081400  1
  Pb  Pb6  1  0.66749800  0.83374900  0.91981200  1
  Pb  Pb7  1  0.16625100  0.83374900  0.91981200  1
  Pb  Pb8  1  0.16625100  0.33250200  0.91981200  1
  Pb  Pb9  1  0.99888700  0.49944400  0.08035600  1
  Pb  Pb10  1  0.50055600  0.49944400  0.08035600  1
  Pb  Pb11  1  0.50055600  0.00111300  0.08035600  1
  Pb  Pb12  1  0.36788800  0.18394400  0.24910800  1
  Pb  Pb13  1  0.81605600  0.18394400  0.24910800  1
  Pb  Pb14  1  0.81605600  0.63211200  0.24910800  1
  Pb  Pb15  1  0.30063000  0.15031500  0.75012300  1
  Pb  Pb16  1  0.84968500  0.15031500  0.75012300  1
  Pb  Pb17  1  0.84968500  0.69937000  0.75012300  1
loop_
_geom_bond_atom_site_label_1
_geom_bond_atom_site_label_2
_geom_bond_distance
_geom_bond_site_symmetry_2
Ba0 Pb12 3.638323 1_565
Ba0 Pb14 3.638323 1_455
Ba0 Pb13 3.638326 1_565
Ba0 Pb13 3.638326 1_455
Ba0 Pb12 3.638330 1_555
Ba0 Pb14 3.638330 1_555
Ba0 Pb9 3.644670 1_455
Ba0 Pb11 3.644670 1_565
Ba0 Pb10 3.644670 1_555
Ba0 Pb2 3.646928 1_565
Ba0 Pb0 3.646928 1_455
Ba0 Pb1 3.646935 1_555
Ba1 Pb4 3.630800 1_555
Ba1 Pb3 3.630804 1_555
Ba1 Pb5 3.630804 1_555
Ba1 Pb15 3.637616 1_565
Ba1 Pb17 3.637616 1_455
Ba1 Pb16 3.637620 1_565
Ba1 Pb16 3.637620 1_455
Ba1 Pb17 3.637624 1_555
Ba1 Pb15 3.637624 1_555
Ba1 Pb7 3.646471 1_555
Ba1 Pb8 3.646474 1_555
Ba1 Pb6 3.646474 1_555
Ba2 Pb2 3.634853 1_455
Ba2 Pb0 3.634853 1_455
Ba2 Pb1 3.634856 1_445
Ba2 Pb1 3.634856 1_555
Ba2 Pb2 3.634860 1_555
Ba2 Pb0 3.634860 1_445
Ba2 Pb3 3.646253 1_445
Ba2 Pb5 3.646253 1_555
Ba2 Pb4 3.646253 1_545
Ba2 Pb14 3.666521 1_445
Ba2 Pb12 3.666521 1_555
Ba2 Pb13 3.666521 1_455
Pb0 Sr0 3.625605 1_555
Pb1 Sr0 3.625605 1_555
Pb2 Sr0 3.625605 1_555
Pb3 Sr0 3.634307 1_565
Pb3 Sr0 3.634314 1_555
Pb4 Sr0 3.634310 1_455
Pb4 Sr0 3.634310 1_565
Pb5 Sr0 3.634307 1_455
Pb5 Sr0 3.634314 1_555
Pb6 Sr2 3.628900 1_666
Pb6 Sr1 3.634734 1_565
Pb6 Sr1 3.634742 1_555
Pb7 Sr2 3.628900 1_566
Pb7 Sr1 3.634738 1_455
Pb7 Sr1 3.634738 1_565
Pb8 Sr2 3.628900 1_556
Pb8 Sr1 3.634734 1_455
Pb8 Sr1 3.634742 1_555
Pb9 Sr1 3.626314 1_554
Pb9 Sr2 3.634815 1_665
Pb9 Sr2 3.634822 1_655
Pb10 Sr1 3.626321 1_554
Pb10 Sr2 3.634818 1_555
Pb10 Sr2 3.634818 1_665
Pb11 Sr1 3.626314 1_554
Pb11 Sr2 3.634815 1_555
Pb11 Sr2 3.634822 1_655
Pb12 Sr2 3.643035 1_555
Pb13 Sr2 3.643035 1_655
Pb14 Sr2 3.643035 1_665
Pb15 Sr1 3.649875 1_555
Pb15 Sr0 3.653389 1_555
Pb16 Sr1 3.649871 1_555
Pb16 Sr0 3.653385 1_555
Pb17 Sr1 3.649875 1_555
Pb17 Sr0 3.653389 1_555
