# generated using pymatgen
data_KHCN4O5
_symmetry_space_group_name_H-M   'P 1'
_cell_length_a   7.66085466
_cell_length_b   7.66085466
_cell_length_c   9.83737571
_cell_angle_alpha   50.47678892
_cell_angle_beta   50.47678892
_cell_angle_gamma   47.28241703
_symmetry_Int_Tables_number   1
_chemical_formula_structural   KHCN4O5
_chemical_formula_sum   'K2 H2 C2 N8 O10'
_cell_volume   305.11343958
_cell_formula_units_Z   2
loop_
 _symmetry_equiv_pos_site_id
 _symmetry_equiv_pos_as_xyz
  1  'x, y, z'
loop_
 _atom_site_type_symbol
 _atom_site_label
 _atom_site_symmetry_multiplicity
 _atom_site_fract_x
 _atom_site_fract_y
 _atom_site_fract_z
 _atom_site_occupancy
  K  K0  1  0.26647600  0.36588800  0.77374800  1
  K  K1  1  0.36588800  0.26647600  0.27374800  1
  H  H0  1  0.60333500  0.87777000  0.62602800  1
  H  H1  1  0.87777000  0.60333500  0.12602800  1
  C  C0  1  0.31878800  0.75138500  0.83591500  1
  C  C1  1  0.75138500  0.31878800  0.33591500  1
  N  N0  1  0.55155200  0.74557700  0.67865500  1
  N  N1  1  0.74557700  0.55155200  0.17865500  1
  N  N2  1  0.75160300  0.54002000  0.62172800  1
  N  N3  1  0.54002000  0.75160300  0.12172800  1
  N  N4  1  0.98134400  0.18940700  0.35049200  1
  N  N5  1  0.18940700  0.98134400  0.85049200  1
  N  N6  1  0.97245900  0.02753400  0.99995800  1
  N  N7  1  0.02753400  0.97245900  0.49995800  1
  O  O0  1  0.86466300  0.89583600  0.63986000  1
  O  O1  1  0.89583600  0.86466300  0.13986000  1
  O  O2  1  0.26336300  0.57654700  0.92823100  1
  O  O3  1  0.57654700  0.26336300  0.42823100  1
  O  O4  1  0.71231400  0.37511000  0.66538500  1
  O  O5  1  0.37511000  0.71231400  0.16538500  1
  O  O6  1  0.84727500  0.25349100  0.99411000  1
  O  O7  1  0.25349100  0.84727500  0.49411000  1
  O  O8  1  0.96122600  0.54061900  0.52419000  1
  O  O9  1  0.54061900  0.96122600  0.02419000  1
loop_
_geom_bond_atom_site_label_1
_geom_bond_atom_site_label_2
_geom_bond_distance
_geom_bond_site_symmetry_2
K0 O2 2.817398 1_555
K0 O7 2.848832 1_555
K0 O9 2.849913 1_546
K0 O6 2.875646 1_455
K0 O3 2.898738 1_555
K0 O4 2.899035 1_555
K0 N5 2.925556 1_545
K0 O0 3.015182 1_455
K1 O3 2.817398 1_555
K1 O6 2.848832 1_554
K1 O8 2.849913 1_455
K1 O7 2.875646 1_545
K1 O2 2.898738 1_554
K1 O5 2.899035 1_555
K1 N4 2.925556 1_455
K1 O1 3.015182 1_545
H0 N0 1.033125 1_555
H1 N1 1.033125 1_555
C0 O2 1.237610 1_555
C0 N5 1.370418 1_555
C0 N0 1.429623 1_555
C1 O3 1.237610 1_555
C1 N4 1.370418 1_555
C1 N1 1.429623 1_555
N0 N2 1.377615 1_555
N1 N3 1.377615 1_555
N2 O4 1.237703 1_555
N2 O8 1.242083 1_555
N3 O5 1.237703 1_555
N3 O9 1.242083 1_555
N4 N7 1.342894 1_645
N5 N6 1.342894 1_465
N6 O1 1.255133 1_546
N6 O6 1.269090 1_555
N7 O0 1.255133 1_455
N7 O7 1.269090 1_555
