# generated using pymatgen
data_Ca2BiWO6
_symmetry_space_group_name_H-M   'P 1'
_cell_length_a   5.96014200
_cell_length_b   5.67421300
_cell_length_c   10.00053022
_cell_angle_alpha   56.05337247
_cell_angle_beta   90.00000000
_cell_angle_gamma   90.00000000
_symmetry_Int_Tables_number   1
_chemical_formula_structural   Ca2BiWO6
_chemical_formula_sum   'Ca4 Bi2 W2 O12'
_cell_volume   280.56409005
_cell_formula_units_Z   2
loop_
 _symmetry_equiv_pos_site_id
 _symmetry_equiv_pos_as_xyz
  1  'x, y, z'
loop_
 _atom_site_type_symbol
 _atom_site_label
 _atom_site_symmetry_multiplicity
 _atom_site_fract_x
 _atom_site_fract_y
 _atom_site_fract_z
 _atom_site_occupancy
  Ca  Ca0  1  0.44363600  0.26074400  0.75197000  1
  Ca  Ca1  1  0.94363600  0.73925600  0.74803000  1
  Ca  Ca2  1  0.55636400  0.73925600  0.24803000  1
  Ca  Ca3  1  0.05636400  0.26074400  0.25197000  1
  Bi  Bi0  1  0.50000000  0.00000000  0.50000000  1
  Bi  Bi1  1  0.00000000  0.00000000  0.00000000  1
  W  W0  1  0.50000000  0.50000000  0.00000000  1
  W  W1  1  0.00000000  0.50000000  0.50000000  1
  O  O0  1  0.21234000  0.40874300  0.92469700  1
  O  O1  1  0.71234000  0.59125700  0.57530300  1
  O  O2  1  0.78766000  0.59125700  0.07530300  1
  O  O3  1  0.28766000  0.40874300  0.42469700  1
  O  O4  1  0.32997600  0.72740100  0.05711100  1
  O  O5  1  0.82997600  0.27259900  0.44288900  1
  O  O6  1  0.67002400  0.27259900  0.94288900  1
  O  O7  1  0.17002400  0.72740100  0.55711100  1
  O  O8  1  0.06448500  0.14751800  0.72771800  1
  O  O9  1  0.56448500  0.85248200  0.77228200  1
  O  O10  1  0.43551500  0.14751800  0.22771800  1
  O  O11  1  0.93551500  0.85248200  0.27228200  1
loop_
_geom_bond_atom_site_label_1
_geom_bond_atom_site_label_2
_geom_bond_distance
_geom_bond_site_symmetry_2
Ca0 O9 2.324003 1_545
Ca0 O1 2.345826 1_555
Ca0 O6 2.369384 1_555
Ca0 O8 2.398391 1_555
Ca0 O0 2.685054 1_555
Ca0 O7 2.775856 1_555
Ca0 O4 2.935218 1_546
Ca0 O3 3.035079 1_555
Ca1 O8 2.324003 1_665
Ca1 O0 2.345826 1_655
Ca1 O7 2.369384 1_655
Ca1 O9 2.398391 1_555
Ca1 O1 2.685054 1_555
Ca1 O6 2.775856 1_555
Ca1 O5 2.935218 1_565
Ca1 O2 3.035079 1_556
Ca2 O10 2.324003 1_565
Ca2 O3 2.345826 1_555
Ca2 O4 2.369384 1_555
Ca2 O11 2.398391 1_555
Ca2 O2 2.685054 1_555
Ca2 O5 2.775856 1_555
Ca2 O6 2.935218 1_564
Ca2 O1 3.035079 1_555
Ca3 O11 2.324003 1_445
Ca3 O2 2.345826 1_455
Ca3 O5 2.369384 1_455
Ca3 O10 2.398391 1_555
Ca3 O3 2.685054 1_555
Ca3 O4 2.775856 1_555
Ca3 O7 2.935218 1_545
Ca3 O0 3.035079 1_554
Bi0 O3 2.365853 1_555
Bi0 O1 2.365853 1_545
Bi0 O5 2.366435 1_555
Bi0 O7 2.366435 1_545
Bi0 O9 2.391096 1_545
Bi0 O10 2.391096 1_555
Bi1 O0 2.365853 1_554
Bi1 O2 2.365853 1_445
Bi1 O6 2.366435 1_454
Bi1 O4 2.366435 1_545
Bi1 O11 2.391096 1_445
Bi1 O8 2.391096 1_554
O0 W0 2.051888 1_556
O1 W1 2.051888 1_655
O2 W0 2.051888 1_555
O3 W1 2.051888 1_555
O4 W0 1.959874 1_555
O5 W1 1.959874 1_655
O6 W0 1.959874 1_556
O7 W1 1.959874 1_555
O8 W1 2.060858 1_555
O9 W0 2.060858 1_556
O10 W0 2.060858 1_555
O11 W1 2.060858 1_655
