# generated using pymatgen
data_LaCoO3
_symmetry_space_group_name_H-M   'P 1'
_cell_length_a   5.36115326
_cell_length_b   7.62069411
_cell_length_c   5.44114223
_cell_angle_alpha   90.03294689
_cell_angle_beta   89.78964199
_cell_angle_gamma   91.17317138
_symmetry_Int_Tables_number   1
_chemical_formula_structural   LaCoO3
_chemical_formula_sum   'La4 Co4 O12'
_cell_volume   222.25359957
_cell_formula_units_Z   4
loop_
 _symmetry_equiv_pos_site_id
 _symmetry_equiv_pos_as_xyz
  1  'x, y, z'
loop_
 _atom_site_type_symbol
 _atom_site_label
 _atom_site_symmetry_multiplicity
 _atom_site_fract_x
 _atom_site_fract_y
 _atom_site_fract_z
 _atom_site_occupancy
  La  La0  1  0.24948189  0.50008245  0.74973429  1
  La  La1  1  0.75070548  0.99971385  0.24974338  1
  La  La2  1  0.74926907  0.50030485  0.25025609  1
  La  La3  1  0.25051783  -0.00008772  0.75027330  1
  Co  Co0  1  0.25000058  0.74999871  0.24998345  1
  Co  Co1  1  0.25000039  0.25000255  0.24999042  1
  Co  Co2  1  0.75000906  0.25000033  0.75000597  1
  Co  Co3  1  0.75000205  0.74999776  0.75000620  1
  O  O0  1  0.74788768  0.50004586  0.80596392  1
  O  O1  1  0.24743342  -0.00003262  0.30594663  1
  O  O2  1  0.25257306  0.50002950  0.19405688  1
  O  O3  1  0.75211279  -0.00004729  0.69403061  1
  O  O4  1  0.02657840  0.22382499  0.97342265  1
  O  O5  1  0.52400098  0.72343835  0.47603154  1
  O  O6  1  0.97599525  0.77655788  0.02397584  1
  O  O7  1  0.47342568  0.27617057  0.52657432  1
  O  O8  1  0.47533472  0.77944245  0.97536810  1
  O  O9  1  0.97285144  0.27913951  0.47285524  1
  O  O10  1  0.52714478  0.22086722  0.02714320  1
  O  O11  1  0.02467445  0.72055081  0.52463796  1
loop_
_geom_bond_atom_site_label_1
_geom_bond_atom_site_label_2
_geom_bond_distance
_geom_bond_site_symmetry_2
La0 O2 2.417740 1_556
La0 O11 2.423137 1_555
La0 O7 2.428642 1_555
La0 O5 2.676822 1_555
La0 O9 2.686137 1_455
La0 O4 2.689029 1_555
La0 O0 2.690610 1_555
La0 O0 2.705350 1_455
La0 O8 2.721767 1_555
La0 O6 2.987033 1_456
La0 O2 3.023504 1_555
La0 O10 3.028490 1_556
La1 O10 2.416528 1_565
La1 O3 2.417469 1_565
La1 O6 2.435308 1_555
La1 O8 2.671678 1_554
La1 O1 2.681612 1_665
La1 O4 2.692211 1_664
La1 O5 2.704288 1_555
La1 O9 2.707462 1_565
La1 O1 2.714318 1_565
La2 O9 2.416650 1_555
La2 O0 2.417495 1_554
La2 O5 2.435149 1_555
La2 O11 2.671679 1_655
La2 O2 2.681437 1_555
La2 O7 2.692229 1_555
La2 O6 2.704187 1_555
La2 O10 2.707486 1_555
La2 O2 2.714489 1_655
La3 O1 2.417762 1_555
La3 O8 2.423167 1_545
La3 O4 2.428606 1_555
La3 O6 2.676824 1_446
La3 O10 2.686155 1_556
La3 O7 2.689070 1_555
La3 O3 2.690615 1_455
La3 O3 2.705362 1_555
La3 O11 2.721758 1_545
La3 O5 2.987016 1_545
La3 O1 3.023482 1_556
La3 O9 3.028589 1_455
Co0 O8 1.928331 1_554
Co0 O11 1.928473 1_555
Co0 O2 1.929239 1_555
Co0 O1 1.929265 1_565
Co0 O6 1.933098 1_455
Co0 O5 1.933219 1_555
Co1 O2 1.929467 1_555
Co1 O1 1.929549 1_555
Co1 O10 1.930588 1_555
Co1 O9 1.930669 1_455
Co1 O4 1.934472 1_554
Co1 O7 1.934545 1_555
Co2 O0 1.929777 1_555
Co2 O3 1.929805 1_555
Co2 O9 1.930546 1_555
Co2 O10 1.930556 1_556
Co2 O4 1.934345 1_655
Co2 O7 1.934450 1_555
Co3 O0 1.928958 1_555
Co3 O3 1.928997 1_565
Co3 O8 1.929324 1_555
Co3 O11 1.929369 1_655
Co3 O6 1.932353 1_556
Co3 O5 1.932400 1_555
