# generated using pymatgen
data_Y2Fe3(SiO4)3
_symmetry_space_group_name_H-M   'P 1'
_cell_length_a   10.69249696
_cell_length_b   10.69249696
_cell_length_c   10.69249696
_cell_angle_alpha   109.47122063
_cell_angle_beta   109.47122063
_cell_angle_gamma   109.47122063
_symmetry_Int_Tables_number   1
_chemical_formula_structural   Y2Fe3(SiO4)3
_chemical_formula_sum   'Y8 Fe12 Si12 O48'
_cell_volume   941.05610395
_cell_formula_units_Z   4
loop_
 _symmetry_equiv_pos_site_id
 _symmetry_equiv_pos_as_xyz
  1  'x, y, z'
loop_
 _atom_site_type_symbol
 _atom_site_label
 _atom_site_symmetry_multiplicity
 _atom_site_fract_x
 _atom_site_fract_y
 _atom_site_fract_z
 _atom_site_occupancy
  Y  Y0  1  0.00000000  0.00000000  0.00000000  1
  Y  Y1  1  0.50000000  0.00000000  0.00000000  1
  Y  Y2  1  0.50000000  0.50000000  0.00000000  1
  Y  Y3  1  0.00000000  0.50000000  0.50000000  1
  Y  Y4  1  0.00000000  0.00000000  0.50000000  1
  Y  Y5  1  0.50000000  0.50000000  0.50000000  1
  Y  Y6  1  0.00000000  0.50000000  0.00000000  1
  Y  Y7  1  0.50000000  0.00000000  0.50000000  1
  Fe  Fe0  1  0.87500000  0.75000000  0.62500000  1
  Fe  Fe1  1  0.87500000  0.62500000  0.25000000  1
  Fe  Fe2  1  0.62500000  0.87500000  0.75000000  1
  Fe  Fe3  1  0.25000000  0.87500000  0.62500000  1
  Fe  Fe4  1  0.75000000  0.62500000  0.87500000  1
  Fe  Fe5  1  0.62500000  0.25000000  0.87500000  1
  Fe  Fe6  1  0.12500000  0.25000000  0.37500000  1
  Fe  Fe7  1  0.12500000  0.37500000  0.75000000  1
  Fe  Fe8  1  0.37500000  0.12500000  0.25000000  1
  Fe  Fe9  1  0.75000000  0.12500000  0.37500000  1
  Fe  Fe10  1  0.25000000  0.37500000  0.12500000  1
  Fe  Fe11  1  0.37500000  0.75000000  0.12500000  1
  Si  Si0  1  0.12500000  0.75000000  0.87500000  1
  Si  Si1  1  0.75000000  0.87500000  0.12500000  1
  Si  Si2  1  0.25000000  0.62500000  0.37500000  1
  Si  Si3  1  0.62500000  0.75000000  0.37500000  1
  Si  Si4  1  0.87500000  0.12500000  0.75000000  1
  Si  Si5  1  0.37500000  0.25000000  0.62500000  1
  Si  Si6  1  0.37500000  0.62500000  0.75000000  1
  Si  Si7  1  0.25000000  0.12500000  0.87500000  1
  Si  Si8  1  0.62500000  0.37500000  0.25000000  1
  Si  Si9  1  0.12500000  0.87500000  0.25000000  1
  Si  Si10  1  0.75000000  0.37500000  0.62500000  1
  Si  Si11  1  0.87500000  0.25000000  0.12500000  1
  O  O0  1  0.59767500  0.89291900  0.37183900  1
  O  O1  1  0.37183900  0.59767500  0.89291900  1
  O  O2  1  0.27416500  0.29524400  0.90232500  1
  O  O3  1  0.47892000  0.60708100  0.20475600  1
  O  O4  1  0.29524400  0.89291900  0.02108000  1
  O  O5  1  0.12816100  0.02108000  0.22583500  1
  O  O6  1  0.37183900  0.27416500  0.47892000  1
  O  O7  1  0.89291900  0.37183900  0.59767500  1
  O  O8  1  0.20475600  0.22583500  0.59767500  1
  O  O9  1  0.47892000  0.37183900  0.27416500  1
  O  O10  1  0.89291900  0.02108000  0.29524400  1
  O  O11  1  0.60708100  0.90232500  0.12816100  1
  O  O12  1  0.90232500  0.12816100  0.60708100  1
  O  O13  1  0.27416500  0.47892000  0.37183900  1
  O  O14  1  0.59767500  0.20475600  0.22583500  1
  O  O15  1  0.22583500  0.59767500  0.20475600  1
  O  O16  1  0.02108000  0.29524400  0.89291900  1
  O  O17  1  0.90232500  0.27416500  0.29524400  1
  O  O18  1  0.02108000  0.22583500  0.12816100  1
  O  O19  1  0.79524400  0.77416500  0.40232500  1
  O  O20  1  0.29524400  0.90232500  0.27416500  1
  O  O21  1  0.60708100  0.20475600  0.47892000  1
  O  O22  1  0.22583500  0.12816100  0.02108000  1
  O  O23  1  0.12816100  0.60708100  0.90232500  1
  O  O24  1  0.40232500  0.10708100  0.62816100  1
  O  O25  1  0.62816100  0.40232500  0.10708100  1
  O  O26  1  0.72583500  0.70475600  0.09767500  1
  O  O27  1  0.52108000  0.39291900  0.79524400  1
  O  O28  1  0.70475600  0.10708100  0.97892000  1
  O  O29  1  0.87183900  0.97892000  0.77416500  1
  O  O30  1  0.62816100  0.72583500  0.52108000  1
  O  O31  1  0.10708100  0.62816100  0.40232500  1
  O  O32  1  0.87183900  0.39291900  0.09767500  1
  O  O33  1  0.77416500  0.87183900  0.97892000  1
  O  O34  1  0.39291900  0.79524400  0.52108000  1
  O  O35  1  0.70475600  0.09767500  0.72583500  1
  O  O36  1  0.79524400  0.52108000  0.39291900  1
  O  O37  1  0.97892000  0.77416500  0.87183900  1
  O  O38  1  0.09767500  0.72583500  0.70475600  1
  O  O39  1  0.97892000  0.70475600  0.10708100  1
  O  O40  1  0.77416500  0.40232500  0.79524400  1
  O  O41  1  0.40232500  0.79524400  0.77416500  1
  O  O42  1  0.72583500  0.52108000  0.62816100  1
  O  O43  1  0.09767500  0.87183900  0.39291900  1
  O  O44  1  0.39291900  0.09767500  0.87183900  1
  O  O45  1  0.10708100  0.97892000  0.70475600  1
  O  O46  1  0.52108000  0.62816100  0.72583500  1
  O  O47  1  0.20475600  0.47892000  0.60708100  1
loop_
_geom_bond_atom_site_label_1
_geom_bond_atom_site_label_2
_geom_bond_distance
_geom_bond_site_symmetry_2
Fe0 O37 2.380397 1_555
Fe0 O30 2.380397 1_555
Fe0 O38 2.380408 1_655
Fe0 O19 2.380408 1_555
Fe0 O45 2.454542 1_655
Fe0 O36 2.454542 1_555
Fe0 O42 2.454545 1_555
Fe0 O29 2.454545 1_555
Fe1 O36 2.380402 1_555
Fe1 O43 2.380402 1_655
Fe1 O39 2.380402 1_555
Fe1 O25 2.380402 1_555
Fe1 O31 2.454542 1_655
Fe1 O32 2.454542 1_555
Fe1 O26 2.454547 1_555
Fe1 O19 2.454547 1_555
Fe2 O29 2.380397 1_555
Fe2 O46 2.380397 1_555
Fe2 O35 2.380408 1_565
Fe2 O41 2.380408 1_555
Fe2 O28 2.454542 1_565
Fe2 O34 2.454542 1_555
Fe2 O30 2.454545 1_555
Fe2 O33 2.454545 1_555
Fe3 O34 2.380402 1_555
Fe3 O44 2.380402 1_565
Fe3 O45 2.380402 1_555
Fe3 O31 2.380402 1_555
Fe3 O24 2.454542 1_565
Fe3 O43 2.454542 1_555
Fe3 O38 2.454547 1_555
Fe3 O41 2.454547 1_555
Fe4 O33 2.380397 1_555
Fe4 O42 2.380397 1_555
Fe4 O26 2.380408 1_556
Fe4 O40 2.380408 1_555
Fe4 O39 2.454542 1_556
Fe4 O27 2.454542 1_555
Fe4 O46 2.454545 1_555
Fe4 O37 2.454545 1_555
Fe5 O27 2.380402 1_555
Fe5 O32 2.380402 1_556
Fe5 O28 2.380402 1_555
Fe5 O24 2.380402 1_555
Fe5 O25 2.454542 1_556
Fe5 O44 2.454542 1_555
Fe5 O35 2.454547 1_555
Fe5 O40 2.454547 1_555
Fe6 O18 2.380397 1_555
Fe6 O6 2.380397 1_555
Fe6 O8 2.380408 1_555
Fe6 O17 2.380408 1_455
Fe6 O47 2.454542 1_555
Fe6 O10 2.454542 1_455
Fe6 O13 2.454545 1_555
Fe6 O5 2.454545 1_555
Fe7 O16 2.380402 1_555
Fe7 O47 2.380402 1_555
Fe7 O1 2.380402 1_555
Fe7 O12 2.380402 1_455
Fe7 O23 2.454542 1_555
Fe7 O7 2.454542 1_455
Fe7 O2 2.454547 1_555
Fe7 O8 2.454547 1_555
Fe8 O5 2.380397 1_555
Fe8 O9 2.380397 1_555
Fe8 O14 2.380408 1_555
Fe8 O20 2.380408 1_545
Fe8 O21 2.454542 1_555
Fe8 O4 2.454542 1_545
Fe8 O6 2.454545 1_555
Fe8 O22 2.454545 1_555
Fe9 O10 2.380402 1_555
Fe9 O7 2.380402 1_555
Fe9 O21 2.380402 1_555
Fe9 O11 2.380402 1_545
Fe9 O12 2.454542 1_555
Fe9 O0 2.454542 1_545
Fe9 O17 2.454547 1_555
Fe9 O14 2.454547 1_555
Fe10 O22 2.380397 1_555
Fe10 O13 2.380397 1_555
Fe10 O15 2.380408 1_555
Fe10 O2 2.380408 1_554
Fe10 O3 2.454542 1_555
Fe10 O16 2.454542 1_554
Fe10 O9 2.454545 1_555
Fe10 O18 2.454545 1_555
Fe11 O4 2.380402 1_555
Fe11 O3 2.380402 1_555
Fe11 O0 2.380402 1_555
Fe11 O23 2.380402 1_554
Fe11 O11 2.454542 1_555
Fe11 O1 2.454542 1_554
Fe11 O20 2.454547 1_555
Fe11 O15 2.454547 1_555
O0 Si3 1.657495 1_555
O0 Y7 2.232687 1_565
O1 Si6 1.657495 1_555
O1 Y2 2.232687 1_556
O2 Si7 1.657492 1_555
O2 Y2 2.232680 1_556
O3 Si3 1.657495 1_555
O3 Y2 2.232687 1_555
O4 Si0 1.657495 1_554
O4 Y1 2.232687 1_565
O5 Si9 1.657500 1_545
O5 Y0 2.232678 1_555
O6 Si5 1.657500 1_555
O6 Y5 2.232678 1_555
O7 Si10 1.657495 1_555
O7 Y3 2.232687 1_655
O8 Si5 1.657492 1_555
O8 Y4 2.232680 1_555
O9 Si8 1.657500 1_555
O9 Y5 2.232678 1_555
O10 Si1 1.657495 1_545
O10 Y4 2.232687 1_655
O11 Si1 1.657495 1_555
O11 Y1 2.232687 1_565
O12 Si4 1.657495 1_555
O12 Y4 2.232687 1_655
O13 Si2 1.657500 1_555
O13 Y5 2.232678 1_555
O14 Si8 1.657492 1_555
O14 Y1 2.232680 1_555
O15 Si2 1.657492 1_555
O15 Y6 2.232680 1_555
O16 Si4 1.657495 1_455
O16 Y6 2.232687 1_556
O17 Si11 1.657492 1_555
O17 Y3 2.232680 1_655
O18 Si11 1.657500 1_455
O18 Y0 2.232678 1_555
O19 Si3 1.657492 1_555
O19 Y4 2.232680 1_665
O20 Si9 1.657492 1_555
O20 Y7 2.232680 1_565
O21 Si10 1.657495 1_555
O21 Y7 2.232687 1_555
O22 Si7 1.657500 1_554
O22 Y0 2.232678 1_555
O23 Si0 1.657495 1_555
O23 Y6 2.232687 1_556
O24 Si5 1.657495 1_555
O24 Y7 2.232687 1_555
O25 Si8 1.657495 1_555
O25 Y2 2.232687 1_555
O26 Si1 1.657492 1_555
O26 Y2 2.232680 1_555
O27 Si5 1.657495 1_555
O27 Y2 2.232687 1_556
O28 Si11 1.657495 1_556
O28 Y1 2.232687 1_556
O29 Si4 1.657500 1_565
O29 Y0 2.232678 1_666
O30 Si3 1.657500 1_555
O30 Y5 2.232678 1_555
O31 Si2 1.657495 1_555
O31 Y3 2.232687 1_555
O32 Si11 1.657495 1_555
O32 Y6 2.232687 1_655
O33 Si1 1.657500 1_556
O33 Y0 2.232678 1_666
O34 Si2 1.657495 1_555
O34 Y7 2.232687 1_565
O35 Si4 1.657492 1_555
O35 Y7 2.232680 1_555
O36 Si8 1.657495 1_555
O36 Y3 2.232687 1_655
O37 Si0 1.657500 1_655
O37 Y0 2.232678 1_666
O38 Si0 1.657492 1_555
O38 Y3 2.232680 1_555
O39 Si9 1.657495 1_655
O39 Y6 2.232687 1_655
O40 Si10 1.657492 1_555
O40 Y6 2.232680 1_656
O41 Si6 1.657492 1_555
O41 Y1 2.232680 1_566
O42 Si10 1.657500 1_555
O42 Y5 2.232678 1_555
O43 Si9 1.657495 1_555
O43 Y4 2.232687 1_565
O44 Si7 1.657495 1_555
O44 Y1 2.232687 1_556
O45 Si7 1.657495 1_565
O45 Y4 2.232687 1_565
O46 Si6 1.657500 1_555
O46 Y5 2.232678 1_555
O47 Si6 1.657495 1_555
O47 Y3 2.232687 1_555
