# generated using pymatgen
data_Ba2LaV3O11
_symmetry_space_group_name_H-M   'P 1'
_cell_length_a   7.88892100
_cell_length_b   12.63535601
_cell_length_c   11.56477080
_cell_angle_alpha   103.45246787
_cell_angle_beta   90.00000000
_cell_angle_gamma   90.00000000
_symmetry_Int_Tables_number   1
_chemical_formula_structural   Ba2LaV3O11
_chemical_formula_sum   'Ba8 La4 V12 O44'
_cell_volume   1121.14032927
_cell_formula_units_Z   4
loop_
 _symmetry_equiv_pos_site_id
 _symmetry_equiv_pos_as_xyz
  1  'x, y, z'
loop_
 _atom_site_type_symbol
 _atom_site_label
 _atom_site_symmetry_multiplicity
 _atom_site_fract_x
 _atom_site_fract_y
 _atom_site_fract_z
 _atom_site_occupancy
  Ba  Ba0  1  0.27319400  0.76439700  0.94166900  1
  Ba  Ba1  1  0.72680600  0.23560300  0.05833100  1
  Ba  Ba2  1  0.77319400  0.23560300  0.55833100  1
  Ba  Ba3  1  0.22680600  0.76439700  0.44166900  1
  Ba  Ba4  1  0.74668600  0.55381800  0.88905700  1
  Ba  Ba5  1  0.25331400  0.44618200  0.11094300  1
  Ba  Ba6  1  0.24668600  0.44618200  0.61094300  1
  Ba  Ba7  1  0.75331400  0.55381800  0.38905700  1
  La  La0  1  0.50009700  0.99744400  0.71578900  1
  La  La1  1  0.49990300  0.00255600  0.28421100  1
  La  La2  1  0.00009700  0.00255600  0.78421100  1
  La  La3  1  0.99990300  0.99744400  0.21578900  1
  V  V0  1  0.74996300  0.90261700  0.97486400  1
  V  V1  1  0.25003700  0.09738300  0.02513600  1
  V  V2  1  0.24996300  0.09738300  0.52513600  1
  V  V3  1  0.75003700  0.90261700  0.47486400  1
  V  V4  1  0.52010500  0.68224900  0.67347400  1
  V  V5  1  0.47989500  0.31775100  0.32652600  1
  V  V6  1  0.02010500  0.31775100  0.82652600  1
  V  V7  1  0.97989500  0.68224900  0.17347400  1
  V  V8  1  0.98060300  0.68537500  0.66948200  1
  V  V9  1  0.01939700  0.31462500  0.33051800  1
  V  V10  1  0.48060300  0.31462500  0.83051800  1
  V  V11  1  0.51939700  0.68537500  0.16948200  1
  O  O0  1  0.44171700  0.81320200  0.72027900  1
  O  O1  1  0.55828300  0.18679800  0.27972100  1
  O  O2  1  0.94171700  0.18679800  0.77972100  1
  O  O3  1  0.05828300  0.81320200  0.22027900  1
  O  O4  1  0.55200800  0.18241000  0.81074300  1
  O  O5  1  0.44799200  0.81759000  0.18925700  1
  O  O6  1  0.05200800  0.81759000  0.68925700  1
  O  O7  1  0.94799200  0.18241000  0.31074300  1
  O  O8  1  0.75041600  0.66773800  0.66699000  1
  O  O9  1  0.24958400  0.33226200  0.33301000  1
  O  O10  1  0.25041600  0.33226200  0.83301000  1
  O  O11  1  0.74958400  0.66773800  0.16699000  1
  O  O12  1  0.94643800  0.37540200  0.96538200  1
  O  O13  1  0.05356200  0.62459800  0.03461800  1
  O  O14  1  0.44643800  0.62459800  0.53461800  1
  O  O15  1  0.55356200  0.37540200  0.46538200  1
  O  O16  1  0.94388500  0.39357900  0.73324700  1
  O  O17  1  0.05611500  0.60642100  0.26675300  1
  O  O18  1  0.44388500  0.60642100  0.76675300  1
  O  O19  1  0.55611500  0.39357900  0.23324700  1
  O  O20  1  0.78641600  0.98557600  0.61932200  1
  O  O21  1  0.21358400  0.01442400  0.38067800  1
  O  O22  1  0.28641600  0.01442400  0.88067800  1
  O  O23  1  0.71358400  0.98557600  0.11932200  1
  O  O24  1  0.96626700  0.87919200  0.97228700  1
  O  O25  1  0.03373300  0.12080800  0.02771300  1
  O  O26  1  0.46626700  0.12080800  0.52771300  1
  O  O27  1  0.53373300  0.87919200  0.47228700  1
  O  O28  1  0.63551100  0.78523300  0.94558000  1
  O  O29  1  0.36448900  0.21476700  0.05442000  1
  O  O30  1  0.13551100  0.21476700  0.55442000  1
  O  O31  1  0.86448900  0.78523300  0.44558000  1
  O  O32  1  0.71678900  0.98190100  0.86804000  1
  O  O33  1  0.28321100  0.01809900  0.13196000  1
  O  O34  1  0.21678900  0.01809900  0.63196000  1
  O  O35  1  0.78321100  0.98190100  0.36804000  1
  O  O36  1  0.55813600  0.36998700  0.72059100  1
  O  O37  1  0.44186400  0.63001300  0.27940900  1
  O  O38  1  0.05813600  0.63001300  0.77940900  1
  O  O39  1  0.94186400  0.36998700  0.22059100  1
  O  O40  1  0.56069900  0.38922600  0.96172700  1
  O  O41  1  0.43930100  0.61077400  0.03827300  1
  O  O42  1  0.06069900  0.61077400  0.53827300  1
  O  O43  1  0.93930100  0.38922600  0.46172700  1
loop_
_geom_bond_atom_site_label_1
_geom_bond_atom_site_label_2
_geom_bond_distance
_geom_bond_site_symmetry_2
Ba0 O41 2.782462 1_556
Ba0 O38 2.792899 1_555
Ba0 O24 2.802338 1_455
Ba0 O18 2.830348 1_555
Ba0 O13 2.856791 1_556
Ba0 O28 2.869780 1_555
Ba0 O0 3.072073 1_555
Ba0 O5 3.107468 1_556
Ba0 O22 3.394937 1_565
Ba0 O33 3.441347 1_566
Ba1 O40 2.782462 1_554
Ba1 O39 2.792899 1_555
Ba1 O25 2.802338 1_655
Ba1 O19 2.830348 1_555
Ba1 O12 2.856791 1_554
Ba1 O29 2.869780 1_555
Ba1 O1 3.072073 1_555
Ba1 O4 3.107468 1_554
Ba1 O23 3.394937 1_545
Ba1 O32 3.441347 1_544
Ba2 O43 2.782462 1_555
Ba2 O36 2.792899 1_555
Ba2 O26 2.802338 1_555
Ba2 O16 2.830348 1_555
Ba2 O15 2.856791 1_555
Ba2 O30 2.869780 1_655
Ba2 O2 3.072073 1_555
Ba2 O7 3.107468 1_555
Ba2 O20 3.394937 1_545
Ba2 O35 3.441347 1_545
Ba3 O42 2.782462 1_555
Ba3 O37 2.792899 1_555
Ba3 O27 2.802338 1_555
Ba3 O17 2.830348 1_555
Ba3 O14 2.856791 1_555
Ba3 O31 2.869780 1_455
Ba3 O3 3.072073 1_555
Ba3 O6 3.107468 1_555
Ba3 O21 3.394937 1_565
Ba3 O34 3.441347 1_565
Ba4 O40 2.827958 1_555
Ba4 O16 2.840579 1_555
Ba4 O18 2.930187 1_555
Ba4 O13 2.965464 1_656
Ba4 O41 2.966188 1_556
Ba4 O28 2.976078 1_555
Ba4 O38 3.023200 1_655
Ba4 O12 3.044716 1_555
Ba4 O36 3.049260 1_555
Ba4 O11 3.201729 1_556
Ba4 O8 3.223070 1_555
Ba5 O41 2.827958 1_555
Ba5 O17 2.840579 1_555
Ba5 O19 2.930187 1_555
Ba5 O12 2.965464 1_454
Ba5 O40 2.966188 1_554
Ba5 O29 2.976078 1_555
Ba5 O39 3.023200 1_455
Ba5 O13 3.044716 1_555
Ba5 O37 3.049260 1_555
Ba5 O10 3.201729 1_554
Ba5 O9 3.223070 1_555
Ba6 O42 2.827958 1_555
Ba6 O18 2.840579 1_555
Ba6 O16 2.930187 1_455
Ba6 O15 2.965464 1_555
Ba6 O43 2.966188 1_455
Ba6 O30 2.976078 1_555
Ba6 O36 3.023200 1_555
Ba6 O14 3.044716 1_555
Ba6 O38 3.049260 1_555
Ba6 O9 3.201729 1_555
Ba6 O10 3.223070 1_555
Ba7 O43 2.827958 1_555
Ba7 O19 2.840579 1_555
Ba7 O17 2.930187 1_655
Ba7 O14 2.965464 1_555
Ba7 O42 2.966188 1_655
Ba7 O31 2.976078 1_555
Ba7 O37 3.023200 1_555
Ba7 O15 3.044716 1_555
Ba7 O39 3.049260 1_555
Ba7 O8 3.201729 1_555
Ba7 O11 3.223070 1_555
La0 O4 2.375198 1_565
La0 O0 2.385469 1_555
La0 O34 2.474044 1_565
La0 O32 2.494387 1_555
La0 O20 2.508226 1_555
La0 O22 2.516661 1_565
La0 O27 2.876685 1_555
La0 O26 2.968038 1_565
La1 O5 2.375198 1_545
La1 O1 2.385469 1_555
La1 O35 2.474044 1_545
La1 O33 2.494387 1_555
La1 O21 2.508226 1_555
La1 O23 2.516661 1_545
La1 O26 2.876685 1_555
La1 O27 2.968038 1_545
La2 O6 2.375198 1_545
La2 O2 2.385469 1_455
La2 O32 2.474044 1_445
La2 O34 2.494387 1_555
La2 O22 2.508226 1_555
La2 O20 2.516661 1_445
La2 O25 2.876685 1_556
La2 O24 2.968038 1_445
La3 O7 2.375198 1_565
La3 O3 2.385469 1_655
La3 O33 2.474044 1_665
La3 O35 2.494387 1_555
La3 O23 2.508226 1_555
La3 O21 2.516661 1_665
La3 O24 2.876685 1_554
La3 O25 2.968038 1_665
O0 V4 1.731044 1_555
O1 V5 1.731044 1_555
O2 V6 1.731044 1_655
O3 V7 1.731044 1_455
O4 V10 1.727051 1_555
O5 V11 1.727051 1_555
O6 V8 1.727051 1_455
O7 V9 1.727051 1_655
O8 V4 1.825921 1_555
O8 V8 1.828960 1_555
O9 V5 1.825921 1_555
O9 V9 1.828960 1_555
O10 V6 1.825921 1_555
O10 V10 1.828960 1_555
O11 V7 1.825921 1_555
O11 V11 1.828960 1_555
O12 V6 1.703766 1_655
O13 V7 1.703766 1_455
O14 V4 1.703766 1_555
O15 V5 1.703766 1_555
O16 V6 1.710010 1_655
O17 V7 1.710010 1_455
O18 V4 1.710010 1_555
O19 V5 1.710010 1_555
O20 V3 1.776886 1_555
O21 V2 1.776886 1_555
O22 V1 1.776886 1_556
O23 V0 1.776886 1_554
O24 V0 1.730956 1_555
O25 V1 1.730956 1_555
O26 V2 1.730956 1_555
O27 V3 1.730956 1_555
O28 V0 1.701783 1_555
O29 V1 1.701783 1_555
O30 V2 1.701783 1_555
O31 V3 1.701783 1_555
O32 V0 1.781596 1_555
O33 V1 1.781596 1_555
O34 V2 1.781596 1_555
O35 V3 1.781596 1_555
O36 V10 1.700989 1_555
O37 V11 1.700989 1_555
O38 V8 1.700989 1_455
O39 V9 1.700989 1_655
O40 V10 1.710201 1_555
O41 V11 1.710201 1_555
O42 V8 1.710201 1_455
O43 V9 1.710201 1_655
