# generated using pymatgen
data_BaSrBiSbO6
_symmetry_space_group_name_H-M   'P 1'
_cell_length_a   6.02406797
_cell_length_b   6.02406797
_cell_length_c   6.02406791
_cell_angle_alpha   60.99923350
_cell_angle_beta   60.99923350
_cell_angle_gamma   60.99923628
_symmetry_Int_Tables_number   1
_chemical_formula_structural   BaSrBiSbO6
_chemical_formula_sum   'Ba1 Sr1 Bi1 Sb1 O6'
_cell_volume   158.05971493
_cell_formula_units_Z   1
loop_
 _symmetry_equiv_pos_site_id
 _symmetry_equiv_pos_as_xyz
  1  'x, y, z'
loop_
 _atom_site_type_symbol
 _atom_site_label
 _atom_site_symmetry_multiplicity
 _atom_site_fract_x
 _atom_site_fract_y
 _atom_site_fract_z
 _atom_site_occupancy
  Ba  Ba0  1  0.74976300  0.74976300  0.74976300  1
  Sr  Sr0  1  0.26024900  0.26024900  0.26024900  1
  Bi  Bi0  1  0.00071900  0.00071900  0.00071900  1
  Sb  Sb0  1  0.50053900  0.50053900  0.50053900  1
  O  O0  1  0.81149800  0.27688600  0.64719700  1
  O  O1  1  0.27688600  0.64719700  0.81149800  1
  O  O2  1  0.64719700  0.81149800  0.27688600  1
  O  O3  1  0.20712100  0.71891900  0.32710900  1
  O  O4  1  0.71891900  0.32710900  0.20712100  1
  O  O5  1  0.32710900  0.20712100  0.71891900  1
loop_
_geom_bond_atom_site_label_1
_geom_bond_atom_site_label_2
_geom_bond_distance
_geom_bond_site_symmetry_2
Ba0 O4 2.695999 1_556
Ba0 O3 2.695999 1_655
Ba0 O5 2.695999 1_565
Ba0 O1 3.015200 1_555
Ba0 O2 3.015200 1_555
Ba0 O0 3.015200 1_555
Ba0 O2 3.102134 1_556
Ba0 O0 3.102134 1_565
Ba0 O1 3.102134 1_655
Bi0 O5 2.319720 1_554
Bi0 O3 2.319720 1_545
Bi0 O4 2.319720 1_455
Bi0 O2 2.383706 1_445
Bi0 O0 2.383706 1_454
Bi0 O1 2.383706 1_544
O0 Sb0 2.026851 1_555
O0 Sr0 2.570054 1_655
O1 Sb0 2.026851 1_555
O1 Sr0 2.570054 1_556
O2 Sb0 2.026850 1_555
O2 Sr0 2.570055 1_565
O3 Sb0 2.037073 1_555
O3 Sr0 2.827682 1_555
O4 Sb0 2.037073 1_555
O4 Sr0 2.827682 1_555
O5 Sb0 2.037073 1_555
O5 Sr0 2.827682 1_555
