# generated using pymatgen
data_Na3Sr14La3Ti20O60
_symmetry_space_group_name_H-M   'P 1'
_cell_length_a   5.54903700
_cell_length_b   5.54903806
_cell_length_c   55.60199397
_cell_angle_alpha   119.93389438
_cell_angle_beta   119.93389529
_cell_angle_gamma   89.99991052
_symmetry_Int_Tables_number   1
_chemical_formula_structural   Na3Sr14La3Ti20O60
_chemical_formula_sum   'Na3 Sr14 La3 Ti20 O60'
_cell_volume   1213.04412548
_cell_formula_units_Z   1
loop_
 _symmetry_equiv_pos_site_id
 _symmetry_equiv_pos_as_xyz
  1  'x, y, z'
loop_
 _atom_site_type_symbol
 _atom_site_label
 _atom_site_symmetry_multiplicity
 _atom_site_fract_x
 _atom_site_fract_y
 _atom_site_fract_z
 _atom_site_occupancy
  Na  Na0  1  0.25125429  0.75125195  0.95025037  1
  Na  Na1  1  0.25275315  0.75275184  0.85054948  1
  Na  Na2  1  0.73974831  0.23974784  0.64794049  1
  Sr  Sr0  1  0.24754899  0.74755379  0.74950804  1
  Sr  Sr1  1  0.24458627  0.74459413  0.64891765  1
  Sr  Sr2  1  0.25766042  0.75766136  0.55153460  1
  Sr  Sr3  1  0.25249819  0.75249840  0.45049863  1
  Sr  Sr4  1  0.75334856  0.25335965  0.55067190  1
  Sr  Sr5  1  0.25172732  0.75172914  0.35034436  1
  Sr  Sr6  1  0.75297286  0.25297429  0.45059393  1
  Sr  Sr7  1  0.25115887  0.75115747  0.25023289  1
  Sr  Sr8  1  0.75169619  0.25168823  0.35033719  1
  Sr  Sr9  1  0.25034339  0.75033940  0.15006996  1
  Sr  Sr10  1  0.75111397  0.25111362  0.25022504  1
  Sr  Sr11  1  0.25030593  0.75031463  0.05006206  1
  Sr  Sr12  1  0.75071232  0.25071924  0.15014596  1
  Sr  Sr13  1  0.74832021  0.24831486  0.04966339  1
  La  La0  1  0.75168168  0.25167899  0.95033136  1
  La  La1  1  0.75896632  0.25894915  0.85178585  1
  La  La2  1  0.74533694  0.24532969  0.74906407  1
  Ti  Ti0  1  0.50220500  0.50219504  0.90043283  1
  Ti  Ti1  1  0.50512953  0.50514208  0.80102548  1
  Ti  Ti2  1  0.00218702  0.00219507  0.90043251  1
  Ti  Ti3  1  0.49388960  0.49389102  0.69877503  1
  Ti  Ti4  1  0.00515055  0.00513242  0.80102539  1
  Ti  Ti5  1  0.50374244  0.50373794  0.60075836  1
  Ti  Ti6  1  0.99388814  0.99388963  0.69877503  1
  Ti  Ti7  1  0.50413871  0.50414624  0.50082953  1
  Ti  Ti8  1  0.00373822  0.00374547  0.60075799  1
  Ti  Ti9  1  0.50353559  0.50353795  0.40070361  1
  Ti  Ti10  1  0.00414423  0.00414045  0.50082971  1
  Ti  Ti11  1  0.50301563  0.50301397  0.30060209  1
  Ti  Ti12  1  0.00353778  0.00353459  0.40070340  1
  Ti  Ti13  1  0.50249421  0.50248546  0.20050389  1
  Ti  Ti14  1  0.00301708  0.00301507  0.30060218  1
  Ti  Ti15  1  0.99788992  0.99789957  0.99957812  1
  Ti  Ti16  1  0.50127271  0.50127652  0.10025871  1
  Ti  Ti17  1  0.00248476  0.00249378  0.20050366  1
  Ti  Ti18  1  0.49789245  0.49788314  0.99957759  1
  Ti  Ti19  1  0.00127048  0.00126655  0.10025842  1
  O  O0  1  0.24627416  0.24628021  0.94926099  1
  O  O1  1  0.21722639  0.71722281  0.89874515  1
  O  O2  1  0.27655728  0.22658902  0.90032262  1
  O  O3  1  0.25030340  0.25029932  0.85006838  1
  O  O4  1  0.74628012  0.74627814  0.94926108  1
  O  O5  1  0.22294950  0.72294969  0.79917908  1
  O  O6  1  0.72659387  0.77654996  0.90032248  1
  O  O7  1  0.28434049  0.22694373  0.80113440  1
  O  O8  1  0.77015158  0.27014973  0.89874778  1
  O  O9  1  0.25513489  0.25511880  0.75102878  1
  O  O10  1  0.75030113  0.75031154  0.85006853  1
  O  O11  1  0.25478567  0.75478551  0.70248134  1
  O  O12  1  0.72694102  0.78434019  0.80113397  1
  O  O13  1  0.28668435  0.24398526  0.70306849  1
  O  O14  1  0.76879077  0.26879155  0.79918438  1
  O  O15  1  0.25466151  0.25464898  0.65092775  1
  O  O16  1  0.75512240  0.75513926  0.75102874  1
  O  O17  1  0.23418227  0.73418340  0.59963984  1
  O  O18  1  0.74398733  0.78668134  0.70306816  1
  O  O19  1  0.25908358  0.24002272  0.59990076  1
  O  O20  1  0.77002601  0.27002329  0.70248625  1
  O  O21  1  0.24977376  0.24976615  0.54994961  1
  O  O22  1  0.75465213  0.75466306  0.65092782  1
  O  O23  1  0.23572778  0.73572915  0.49981953  1
  O  O24  1  0.74001928  0.75908311  0.59990048  1
  O  O25  1  0.26215911  0.23537962  0.49975329  1
  O  O26  1  0.76231883  0.26232107  0.59964180  1
  O  O27  1  0.24847567  0.24846828  0.44969687  1
  O  O28  1  0.74976652  0.74977587  0.54994966  1
  O  O29  1  0.23486406  0.73486260  0.39965772  1
  O  O30  1  0.73537735  0.76215806  0.49975278  1
  O  O31  1  0.26165049  0.23489634  0.39965929  1
  O  O32  1  0.76247339  0.26247353  0.49982053  1
  O  O33  1  0.24784590  0.24783378  0.34957152  1
  O  O34  1  0.74847150  0.74847841  0.44969694  1
  O  O35  1  0.23452191  0.73452322  0.29957532  1
  O  O36  1  0.73489590  0.76164579  0.39965882  1
  O  O37  1  0.26122799  0.23454082  0.29957872  1
  O  O38  1  0.76167003  0.26166894  0.39965950  1
  O  O39  1  0.24745199  0.24744089  0.24948702  1
  O  O40  1  0.74783505  0.74784937  0.34957142  1
  O  O41  1  0.23412782  0.73412890  0.19949335  1
  O  O42  1  0.73453897  0.76122810  0.29957863  1
  O  O43  1  0.26093107  0.23422077  0.19950820  1
  O  O44  1  0.76122051  0.26122230  0.29957837  1
  O  O45  1  0.24663845  0.24663103  0.14932149  1
  O  O46  1  0.74743888  0.74745409  0.24948709  1
  O  O47  1  0.23215089  0.73215117  0.09917546  1
  O  O48  1  0.73422046  0.76092967  0.19950798  1
  O  O49  1  0.26023647  0.23350765  0.09936835  1
  O  O50  1  0.76089783  0.26089793  0.19949520  1
  O  O51  1  0.24453597  0.24453213  0.04890459  1
  O  O52  1  0.74663151  0.74663986  0.14932155  1
  O  O53  1  0.21535244  0.71535328  0.99806271  1
  O  O54  1  0.73350772  0.76023814  0.09936855  1
  O  O55  1  0.25614568  0.23202280  0.99881759  1
  O  O56  1  0.75967679  0.25967689  0.09917581  1
  O  O57  1  0.74452915  0.74453247  0.04890461  1
  O  O58  1  0.73202670  0.75615156  0.99881850  1
  O  O59  1  0.76527807  0.26527912  0.99806359  1
loop_
_geom_bond_atom_site_label_1
_geom_bond_atom_site_label_2
_geom_bond_distance
_geom_bond_site_symmetry_2
Na0 O55 2.673446 1_565
Na0 O58 2.673453 1_555
Na0 O1 2.682027 1_555
Na0 O8 2.682402 1_455
Na0 O4 2.774639 1_555
Na0 O0 2.774655 1_565
Na0 O0 2.774930 1_555
Na0 O4 2.774946 1_455
Na0 O59 2.864227 1_565
Na0 O53 2.864239 1_555
Na0 O6 2.919809 1_455
Na0 O2 2.919827 1_555
Na1 O2 2.638734 1_565
Na1 O6 2.638754 1_555
Na1 O5 2.696347 1_555
Na1 O14 2.696621 1_455
Na1 O10 2.774321 1_555
Na1 O3 2.774323 1_565
Na1 O3 2.774845 1_555
Na1 O10 2.774845 1_455
Na1 O8 2.882762 1_565
Na1 O1 2.883302 1_555
Na1 O7 2.927971 1_555
Na1 O12 2.927997 1_455
Na2 O24 2.672593 1_545
Na2 O19 2.672595 1_555
Na2 O15 2.776885 1_655
Na2 O22 2.776894 1_555
Na2 O22 2.777133 1_545
Na2 O15 2.777142 1_555
Na2 O26 2.813306 1_555
Na2 O17 2.813320 1_545
Na2 O11 2.869341 1_655
Na2 O20 2.870124 1_555
La0 O53 2.579513 1_655
La0 O59 2.579809 1_555
La0 O2 2.645641 1_555
La0 O6 2.645663 1_545
La0 O0 2.774530 1_655
La0 O4 2.774565 1_555
La0 O4 2.775114 1_545
La0 O0 2.775148 1_555
La0 O55 2.806746 1_655
La0 O58 2.806792 1_555
La0 O8 2.972212 1_555
La0 O1 2.973044 1_545
La1 O1 2.549068 1_655
La1 O8 2.549951 1_555
La1 O12 2.645279 1_545
La1 O7 2.645360 1_555
La1 O3 2.774924 1_655
La1 O10 2.775061 1_555
La1 O10 2.775626 1_545
La1 O3 2.775762 1_555
La1 O2 2.883154 1_655
La1 O6 2.883216 1_555
La1 O14 2.979705 1_555
La1 O5 2.980583 1_545
La2 O18 2.550098 1_545
La2 O13 2.550114 1_555
La2 O5 2.659368 1_655
La2 O14 2.660080 1_555
La2 O20 2.730013 1_555
La2 O11 2.730436 1_545
La2 O9 2.775456 1_655
La2 O16 2.775522 1_555
La2 O16 2.775675 1_545
La2 O9 2.775740 1_555
La2 O7 2.998519 1_655
La2 O12 2.998557 1_555
O0 Ti2 1.923599 1_555
O0 Ti18 1.982223 1_555
O1 Ti0 1.974046 1_555
O1 Ti2 1.974060 1_565
O2 Ti2 1.971129 1_555
O2 Ti0 1.972248 1_555
O3 Ti4 1.932049 1_555
O3 Ti0 1.984108 1_555
O4 Ti0 1.923590 1_555
O4 Ti15 1.982241 1_555
O5 Ti4 1.971407 1_565
O5 Ti1 1.971426 1_555
O5 Sr0 2.901279 1_555
O6 Ti0 1.971063 1_555
O6 Ti2 1.972191 1_665
O7 Ti4 1.974417 1_555
O7 Ti1 1.975076 1_555
O7 Sr0 2.674394 1_545
O8 Ti2 1.973852 1_655
O8 Ti0 1.973853 1_555
O9 Ti1 1.969621 1_555
O9 Ti6 2.058537 1_445
O9 Sr0 2.774951 1_545
O9 Sr0 2.775381 1_555
O10 Ti1 1.932052 1_555
O10 Ti2 1.984090 1_665
O11 Ti3 1.968212 1_555
O11 Ti6 1.968224 1_455
O11 Sr0 2.655146 1_555
O11 Sr1 2.922336 1_555
O12 Ti1 1.974473 1_555
O12 Ti4 1.975122 1_665
O12 Sr0 2.674399 1_555
O13 Ti6 1.976107 1_445
O13 Ti3 1.976454 1_555
O13 Sr1 2.787543 1_545
O13 Sr0 2.807407 1_555
O14 Ti1 1.971446 1_555
O14 Ti4 1.971469 1_655
O14 Sr0 2.900827 1_545
O15 Ti3 1.884944 1_555
O15 Ti8 1.976439 1_555
O15 Sr1 2.775625 1_555
O15 Sr1 2.775673 1_545
O16 Ti4 1.969619 1_665
O16 Ti3 2.058536 1_555
O16 Sr0 2.774998 1_555
O16 Sr0 2.775332 1_655
O17 Ti5 1.965454 1_555
O17 Ti8 1.965457 1_565
O17 Sr4 2.674135 1_455
O17 Sr1 2.682933 1_555
O17 Sr2 2.807804 1_555
O18 Ti3 1.976102 1_555
O18 Ti6 1.976430 1_555
O18 Sr1 2.787585 1_555
O18 Sr0 2.807372 1_655
O19 Ti5 1.962806 1_555
O19 Ti8 1.964363 1_555
O19 Sr2 2.681714 1_545
O19 Sr1 2.806598 1_555
O19 Sr4 2.812359 1_455
O20 Ti6 1.968202 1_545
O20 Ti3 1.968234 1_555
O20 Sr0 2.655274 1_655
O20 Sr1 2.922284 1_545
O21 Ti10 1.935079 1_555
O21 Ti5 2.001612 1_555
O21 Sr4 2.774461 1_555
O21 Sr4 2.774868 1_455
O21 Sr2 2.775056 1_555
O21 Sr2 2.775387 1_545
O22 Ti6 1.884942 1_555
O22 Ti5 1.976427 1_555
O22 Sr1 2.775566 1_655
O22 Sr1 2.775731 1_555
O23 Ti7 1.965059 1_555
O23 Ti10 1.965063 1_565
O23 Sr6 2.684926 1_455
O23 Sr2 2.756699 1_555
O23 Sr3 2.836744 1_555
O23 Sr4 2.878324 1_565
O24 Ti8 1.962838 1_665
O24 Ti5 1.964387 1_555
O24 Sr2 2.681702 1_555
O24 Sr1 2.806569 1_655
O24 Sr4 2.812297 1_555
O25 Ti7 1.965090 1_555
O25 Ti10 1.965223 1_555
O25 Sr3 2.685670 1_545
O25 Sr4 2.733377 1_555
O25 Sr6 2.832469 1_455
O25 Sr2 2.904069 1_555
O26 Ti5 1.965491 1_555
O26 Ti8 1.965496 1_655
O26 Sr4 2.673637 1_555
O26 Sr1 2.682368 1_655
O26 Sr2 2.808525 1_545
O27 Ti12 1.930099 1_555
O27 Ti7 2.014372 1_555
O27 Sr3 2.774581 1_545
O27 Sr6 2.774678 1_455
O27 Sr6 2.774809 1_555
O27 Sr3 2.774817 1_555
O28 Ti7 1.935088 1_555
O28 Ti8 2.001595 1_665
O28 Sr4 2.774513 1_565
O28 Sr4 2.774817 1_555
O28 Sr2 2.775050 1_655
O28 Sr2 2.775392 1_555
O29 Ti9 1.965131 1_555
O29 Ti12 1.965139 1_565
O29 Sr8 2.687312 1_455
O29 Sr3 2.730955 1_555
O29 Sr5 2.836868 1_555
O29 Sr6 2.880992 1_565
O30 Ti10 1.965075 1_665
O30 Ti7 1.965222 1_555
O30 Sr3 2.685653 1_555
O30 Sr4 2.733448 1_565
O30 Sr6 2.832451 1_555
O30 Sr2 2.904081 1_655
O31 Ti12 1.964788 1_555
O31 Ti9 1.965447 1_555
O31 Sr5 2.687450 1_545
O31 Sr6 2.733934 1_555
O31 Sr8 2.836757 1_455
O31 Sr3 2.878050 1_555
O32 Ti10 1.965104 1_655
O32 Ti7 1.965117 1_555
O32 Sr6 2.685007 1_555
O32 Sr2 2.756514 1_655
O32 Sr3 2.836702 1_545
O32 Sr4 2.878387 1_555
O33 Ti14 1.929148 1_555
O33 Ti9 2.014349 1_555
O33 Sr5 2.774513 1_545
O33 Sr8 2.774561 1_455
O33 Sr8 2.774804 1_555
O33 Sr5 2.774859 1_555
O34 Ti9 1.930093 1_555
O34 Ti10 2.014376 1_665
O34 Sr3 2.774597 1_555
O34 Sr6 2.774684 1_555
O34 Sr3 2.774799 1_655
O34 Sr6 2.774805 1_565
O35 Ti14 1.965082 1_565
O35 Ti11 1.965106 1_555
O35 Sr10 2.688641 1_455
O35 Sr5 2.729253 1_555
O35 Sr7 2.837173 1_555
O35 Sr8 2.875824 1_565
O36 Ti9 1.964790 1_555
O36 Ti12 1.965452 1_665
O36 Sr5 2.687458 1_555
O36 Sr6 2.733966 1_565
O36 Sr8 2.836778 1_555
O36 Sr3 2.878050 1_655
O37 Ti14 1.964976 1_555
O37 Ti11 1.965194 1_555
O37 Sr7 2.688520 1_545
O37 Sr8 2.729048 1_555
O37 Sr10 2.837439 1_455
O37 Sr5 2.875846 1_555
O38 Ti12 1.965115 1_655
O38 Ti9 1.965120 1_555
O38 Sr8 2.687738 1_555
O38 Sr3 2.731224 1_655
O38 Sr5 2.836519 1_545
O38 Sr6 2.880619 1_555
O39 Ti17 1.929700 1_555
O39 Ti11 2.013679 1_555
O39 Sr10 2.774515 1_555
O39 Sr7 2.774604 1_555
O39 Sr7 2.774746 1_545
O39 Sr10 2.774827 1_455
O40 Ti11 1.929148 1_555
O40 Ti12 2.014345 1_665
O40 Sr5 2.774533 1_555
O40 Sr8 2.774628 1_555
O40 Sr8 2.774738 1_565
O40 Sr5 2.774838 1_655
O41 Ti17 1.965092 1_565
O41 Ti13 1.965099 1_555
O41 Sr12 2.688658 1_455
O41 Sr7 2.728553 1_555
O41 Sr9 2.839257 1_555
O41 Sr10 2.874810 1_565
O42 Ti11 1.964980 1_555
O42 Ti14 1.965205 1_665
O42 Sr7 2.688505 1_555
O42 Sr8 2.729003 1_565
O42 Sr10 2.837445 1_555
O42 Sr5 2.875844 1_655
O43 Ti13 1.964564 1_555
O43 Ti17 1.965574 1_555
O43 Sr9 2.691098 1_545
O43 Sr10 2.727764 1_555
O43 Sr12 2.837757 1_455
O43 Sr7 2.874781 1_555
O44 Ti11 1.965065 1_555
O44 Ti14 1.965093 1_655
O44 Sr10 2.688756 1_555
O44 Sr5 2.729346 1_655
O44 Sr7 2.837167 1_545
O44 Sr8 2.875552 1_555
O45 Ti19 1.932840 1_555
O45 Ti13 2.016331 1_555
O45 Sr12 2.774439 1_555
O45 Sr9 2.774487 1_555
O45 Sr9 2.774864 1_545
O45 Sr12 2.774978 1_455
O46 Ti13 1.929694 1_555
O46 Ti14 2.013680 1_665
O46 Sr10 2.774504 1_565
O46 Sr7 2.774624 1_655
O46 Sr7 2.774724 1_555
O46 Sr10 2.774839 1_555
O47 Ti19 1.965271 1_565
O47 Ti16 1.965276 1_555
O47 Sr13 2.691175 1_455
O47 Sr9 2.730972 1_555
O47 Sr11 2.833168 1_555
O47 Sr12 2.883527 1_565
O48 Ti17 1.964566 1_665
O48 Ti13 1.965581 1_555
O48 Sr9 2.691073 1_555
O48 Sr10 2.727772 1_565
O48 Sr12 2.837709 1_555
O48 Sr7 2.874791 1_655
O49 Ti16 1.964612 1_555
O49 Ti19 1.965418 1_555
O49 Sr11 2.687254 1_545
O49 Sr12 2.729449 1_555
O49 Sr13 2.847044 1_455
O49 Sr9 2.874194 1_555
O50 Ti17 1.965084 1_655
O50 Ti13 1.965085 1_555
O50 Sr12 2.688124 1_555
O50 Sr7 2.727968 1_655
O50 Sr9 2.839861 1_545
O50 Sr10 2.875379 1_555
O51 Ti15 1.943217 1_444
O51 Ti16 2.023096 1_555
O51 Sr13 2.774625 1_555
O51 Sr13 2.774734 1_455
O51 Sr11 2.774867 1_555
O51 Sr11 2.774921 1_545
O52 Ti16 1.932831 1_555
O52 Ti17 2.016320 1_665
O52 Sr12 2.774472 1_565
O52 Sr9 2.774508 1_655
O52 Sr9 2.774843 1_555
O52 Sr12 2.774946 1_555
O53 Ti15 1.972575 1_455
O53 Ti18 1.972576 1_555
O53 Sr11 2.704668 1_556
O53 Sr13 2.964492 1_566
O54 Ti19 1.964576 1_665
O54 Ti16 1.965381 1_555
O54 Sr11 2.687302 1_555
O54 Sr12 2.729477 1_565
O54 Sr13 2.847085 1_555
O54 Sr9 2.874215 1_655
O55 Ti15 1.964333 1_445
O55 Ti18 1.964419 1_555
O55 Sr13 2.738413 1_556
O55 Sr11 2.881826 1_556
O56 Ti16 1.965351 1_555
O56 Ti19 1.965354 1_655
O56 Sr13 2.690823 1_555
O56 Sr9 2.730473 1_655
O56 Sr11 2.833568 1_545
O56 Sr12 2.884098 1_555
O57 Ti18 1.943239 1_554
O57 Ti19 2.023084 1_665
O57 Sr13 2.774616 1_565
O57 Sr13 2.774744 1_555
O57 Sr11 2.774835 1_655
O57 Sr11 2.774951 1_555
O58 Ti18 1.964369 1_555
O58 Ti15 1.964450 1_555
O58 Sr13 2.738354 1_566
O58 Sr11 2.881758 1_656
O59 Ti18 1.972495 1_555
O59 Ti15 1.972500 1_545
O59 Sr11 2.704624 1_656
O59 Sr13 2.964482 1_556
