# generated using pymatgen
data_K2CoH2(SO4)2
_symmetry_space_group_name_H-M   'P 1'
_cell_length_a   5.13723775
_cell_length_b   6.99254571
_cell_length_c   13.99510900
_cell_angle_alpha   90.00000000
_cell_angle_beta   90.00000000
_cell_angle_gamma   64.90231762
_symmetry_Int_Tables_number   1
_chemical_formula_structural   K2CoH2(SO4)2
_chemical_formula_sum   'K4 Co2 H4 S4 O16'
_cell_volume   455.27200294
_cell_formula_units_Z   2
loop_
 _symmetry_equiv_pos_site_id
 _symmetry_equiv_pos_as_xyz
  1  'x, y, z'
loop_
 _atom_site_type_symbol
 _atom_site_label
 _atom_site_symmetry_multiplicity
 _atom_site_fract_x
 _atom_site_fract_y
 _atom_site_fract_z
 _atom_site_occupancy
  K  K0  1  0.71591900  0.08478800  0.35951900  1
  K  K1  1  0.28408100  0.91521200  0.64048100  1
  K  K2  1  0.28408100  0.41521200  0.85951900  1
  K  K3  1  0.71591900  0.58478800  0.14048100  1
  Co  Co0  1  0.00000000  0.00000000  0.00000000  1
  Co  Co1  1  0.00000000  0.50000000  0.50000000  1
  H  H0  1  0.99544900  0.58300000  0.60349600  1
  H  H1  1  0.00455100  0.41700000  0.39650400  1
  H  H2  1  0.00455100  0.91700000  0.10349600  1
  H  H3  1  0.99544900  0.08300000  0.89650400  1
  S  S0  1  0.57305100  0.79270400  0.89852000  1
  S  S1  1  0.42694900  0.20729600  0.10148000  1
  S  S2  1  0.42694900  0.70729600  0.39852000  1
  S  S3  1  0.57305100  0.29270400  0.60148000  1
  O  O0  1  0.42019700  0.98999000  0.84402400  1
  O  O1  1  0.57980300  0.01001000  0.15597600  1
  O  O2  1  0.57980300  0.51001000  0.34402400  1
  O  O3  1  0.42019700  0.48999000  0.65597600  1
  O  O4  1  0.82442600  0.79203200  0.95300100  1
  O  O5  1  0.17557400  0.20796800  0.04699900  1
  O  O6  1  0.17557400  0.70796800  0.45300100  1
  O  O7  1  0.82442600  0.29203200  0.54699900  1
  O  O8  1  0.36813700  0.77034000  0.97397900  1
  O  O9  1  0.63186300  0.22966000  0.02602100  1
  O  O10  1  0.63186300  0.72966000  0.47397900  1
  O  O11  1  0.36813700  0.27034000  0.52602100  1
  O  O12  1  0.67072900  0.60398600  0.83771700  1
  O  O13  1  0.32927100  0.39601400  0.16228300  1
  O  O14  1  0.32927100  0.89601400  0.33771700  1
  O  O15  1  0.67072900  0.10398600  0.66228300  1
loop_
_geom_bond_atom_site_label_1
_geom_bond_atom_site_label_2
_geom_bond_distance
_geom_bond_site_symmetry_2
K0 O2 2.759201 1_555
K0 O14 2.829344 1_545
K0 O14 2.869757 1_645
K0 O11 2.887716 1_555
K0 O6 2.992023 1_645
K0 O1 3.031025 1_555
K0 O10 3.135072 1_545
K0 O7 3.159180 1_555
K1 O3 2.759201 1_555
K1 O15 2.829344 1_565
K1 O15 2.869757 1_465
K1 O10 2.887716 1_555
K1 O7 2.992023 1_465
K1 O0 3.031025 1_555
K1 O11 3.135072 1_565
K1 O6 3.159180 1_555
K2 O0 2.759201 1_545
K2 O12 2.829344 1_555
K2 O12 2.869757 1_455
K2 O9 2.887716 1_556
K2 O4 2.992023 1_455
K2 O3 3.031025 1_555
K2 O8 3.135072 1_555
K2 O5 3.159180 1_556
K3 O1 2.759201 1_565
K3 O13 2.829344 1_555
K3 O13 2.869757 1_655
K3 O8 2.887716 1_554
K3 O5 2.992023 1_655
K3 O2 3.031025 1_555
K3 O9 3.135072 1_555
K3 O4 3.159180 1_554
Co0 H2 1.556872 1_545
Co0 H3 1.556872 1_454
Co0 O9 1.926595 1_455
Co0 O8 1.926595 1_544
Co0 O5 2.115106 1_555
Co0 O4 2.115106 1_444
Co1 H0 1.556872 1_455
Co1 H1 1.556872 1_555
Co1 O11 1.926595 1_555
Co1 O10 1.926595 1_455
Co1 O6 2.115106 1_555
Co1 O7 2.115106 1_455
O0 S0 1.477305 1_555
O1 S1 1.477305 1_555
O2 S2 1.477305 1_555
O3 S3 1.477305 1_555
O4 S0 1.497957 1_555
O5 S1 1.497957 1_555
O6 S2 1.497957 1_555
O7 S3 1.497957 1_555
O8 S0 1.545162 1_555
O9 S1 1.545162 1_555
O10 S2 1.545162 1_555
O11 S3 1.545162 1_555
O12 S0 1.468182 1_555
O13 S1 1.468182 1_555
O14 S2 1.468182 1_555
O15 S3 1.468182 1_555
