# generated using pymatgen
data_ErUTe6
_symmetry_space_group_name_H-M   'P 1'
_cell_length_a   13.22371596
_cell_length_b   13.22371596
_cell_length_c   4.36259949
_cell_angle_alpha   90.00000000
_cell_angle_beta   90.00000000
_cell_angle_gamma   161.02936140
_symmetry_Int_Tables_number   1
_chemical_formula_structural   ErUTe6
_chemical_formula_sum   'Er1 U1 Te6'
_cell_volume   247.99755536
_cell_formula_units_Z   1
loop_
 _symmetry_equiv_pos_site_id
 _symmetry_equiv_pos_as_xyz
  1  'x, y, z'
loop_
 _atom_site_type_symbol
 _atom_site_label
 _atom_site_symmetry_multiplicity
 _atom_site_fract_x
 _atom_site_fract_y
 _atom_site_fract_z
 _atom_site_occupancy
  Er  Er0  1  0.83005040  0.16994960  0.50000000  1
  U  U0  1  0.16924421  0.83075579  0.00000000  1
  Te  Te0  1  0.57524412  0.42475588  -0.00000000  1
  Te  Te1  1  0.42412721  0.57587279  0.50000000  1
  Te  Te2  1  0.29441493  0.70558507  -0.00000000  1
  Te  Te3  1  0.70732149  0.29267851  0.50000000  1
  Te  Te4  1  0.92431429  0.07568571  -0.00000000  1
  Te  Te5  1  0.07528035  0.92471965  0.50000000  1
loop_
_geom_bond_atom_site_label_1
_geom_bond_atom_site_label_2
_geom_bond_distance
_geom_bond_site_symmetry_2
Er0 Te3 3.201487 1_555
Er0 Te2 3.220420 1_546
Er0 Te2 3.220420 1_545
Er0 Te2 3.220420 1_656
Er0 Te2 3.220420 1_655
Er0 Te1 3.281979 1_545
Er0 Te1 3.281979 1_655
Er0 Te4 3.287022 1_556
Er0 Te4 3.287022 1_555
Te0 Te5 3.083340 1_544
Te0 Te5 3.083340 1_545
Te0 Te5 3.083340 1_655
Te0 Te5 3.083340 1_654
Te0 U0 3.280483 1_545
Te0 U0 3.280483 1_655
Te1 Te4 3.083344 1_565
Te1 Te4 3.083344 1_455
Te1 Te4 3.083344 1_566
Te1 Te4 3.083344 1_456
Te2 U0 3.265183 1_555
Te3 U0 3.239380 1_546
Te3 U0 3.239380 1_655
Te3 U0 3.239380 1_656
Te3 U0 3.239380 1_545
Te5 U0 3.281172 1_556
Te5 U0 3.281172 1_555
