# generated using pymatgen
data_Na2CoSiO4
_symmetry_space_group_name_H-M   'P 1'
_cell_length_a   5.38166100
_cell_length_b   12.25845300
_cell_length_c   6.30058300
_cell_angle_alpha   90.00006909
_cell_angle_beta   90.00000909
_cell_angle_gamma   90.00003402
_symmetry_Int_Tables_number   1
_chemical_formula_structural   Na2CoSiO4
_chemical_formula_sum   'Na8 Co4 Si4 O16'
_cell_volume   415.65474311
_cell_formula_units_Z   4
loop_
 _symmetry_equiv_pos_site_id
 _symmetry_equiv_pos_as_xyz
  1  'x, y, z'
loop_
 _atom_site_type_symbol
 _atom_site_label
 _atom_site_symmetry_multiplicity
 _atom_site_fract_x
 _atom_site_fract_y
 _atom_site_fract_z
 _atom_site_occupancy
  Na  Na0  1  0.49827700  0.41558100  0.74807600  1
  Na  Na1  1  0.49828000  0.91558600  0.74807100  1
  Na  Na2  1  0.99827300  0.08442500  0.75193100  1
  Na  Na3  1  0.99827200  0.58441000  0.75192100  1
  Na  Na4  1  0.99827500  0.08442000  0.24806300  1
  Na  Na5  1  0.99826900  0.58442000  0.24807700  1
  Na  Na6  1  0.49826600  0.41557000  0.25193100  1
  Na  Na7  1  0.49827000  0.91558200  0.25192600  1
  Co  Co0  1  0.50563800  0.67848500  0.00000200  1
  Co  Co1  1  0.00563700  0.82151600  0.50000100  1
  Co  Co2  1  0.50563200  0.17848600  0.00000100  1
  Co  Co3  1  0.00562900  0.32151400  0.50000000  1
  Si  Si0  1  0.00762600  0.32858700  0.00000200  1
  Si  Si1  1  0.00762400  0.82859400  0.99999900  1
  Si  Si2  1  0.50763000  0.17141300  0.50000100  1
  Si  Si3  1  0.50762700  0.67140900  0.50000000  1
  O  O0  1  0.86982300  0.20829500  0.99999900  1
  O  O1  1  0.86982500  0.70830300  0.99999600  1
  O  O2  1  0.36982600  0.29170500  0.50000200  1
  O  O3  1  0.36982500  0.79169900  0.49999900  1
  O  O4  1  0.31164600  0.31350200  0.00000000  1
  O  O5  1  0.31164200  0.81349300  0.99999800  1
  O  O6  1  0.81164700  0.18649900  0.49999900  1
  O  O7  1  0.81164200  0.68650800  0.50000100  1
  O  O8  1  0.93060300  0.39879700  0.78213400  1
  O  O9  1  0.93062100  0.89880000  0.78213400  1
  O  O10  1  0.43060300  0.10120300  0.71786800  1
  O  O11  1  0.43062000  0.60119700  0.71786900  1
  O  O12  1  0.43060400  0.10120300  0.28213200  1
  O  O13  1  0.43062200  0.60119900  0.28213200  1
  O  O14  1  0.93060400  0.39879800  0.21786600  1
  O  O15  1  0.93062000  0.89880100  0.21786700  1
loop_
_geom_bond_atom_site_label_1
_geom_bond_atom_site_label_2
_geom_bond_distance
_geom_bond_site_symmetry_2
Na0 O4 2.256998 1_556
Na0 O2 2.286218 1_555
Na0 O11 2.312160 1_555
Na0 O8 2.345548 1_555
Na1 O5 2.257123 1_555
Na1 O3 2.286305 1_555
Na1 O10 2.312187 1_565
Na1 O9 2.345633 1_555
Na2 O6 2.256988 1_555
Na2 O0 2.286142 1_555
Na2 O9 2.312262 1_545
Na2 O10 2.345566 1_655
Na3 O7 2.257108 1_555
Na3 O1 2.286355 1_555
Na3 O8 2.312137 1_555
Na3 O11 2.345665 1_655
Na4 O6 2.257043 1_555
Na4 O0 2.286171 1_554
Na4 O15 2.312188 1_545
Na4 O12 2.345569 1_655
Na5 O7 2.257048 1_555
Na5 O1 2.286296 1_554
Na5 O14 2.312240 1_555
Na5 O13 2.345685 1_655
Na6 O4 2.256926 1_555
Na6 O2 2.286100 1_555
Na6 O13 2.312302 1_555
Na6 O14 2.345603 1_555
Na7 O5 2.257074 1_554
Na7 O3 2.286263 1_555
Na7 O12 2.312227 1_565
Na7 O15 2.345673 1_555
Co0 O5 1.956776 1_554
Co0 O1 1.993724 1_554
Co0 O13 2.054354 1_555
Co0 O11 2.054381 1_554
Co1 O7 1.956772 1_455
Co1 O3 1.993727 1_555
Co1 O9 2.054357 1_455
Co1 O15 2.054371 1_455
Co2 O4 1.956830 1_555
Co2 O0 1.993725 1_554
Co2 O12 2.054355 1_555
Co2 O10 2.054365 1_554
Co3 O6 1.956807 1_455
Co3 O2 1.993757 1_555
Co3 O8 2.054367 1_455
Co3 O14 2.054374 1_455
O0 Si0 1.650579 1_656
O1 Si1 1.650558 1_655
O2 Si2 1.650582 1_555
O3 Si3 1.650555 1_555
O4 Si0 1.646549 1_555
O5 Si1 1.646561 1_555
O6 Si2 1.646535 1_555
O7 Si3 1.646542 1_555
O8 Si0 1.672382 1_656
O9 Si1 1.672315 1_655
O10 Si2 1.672382 1_555
O11 Si3 1.672378 1_555
O12 Si2 1.672389 1_555
O13 Si3 1.672356 1_555
O14 Si0 1.672365 1_655
O15 Si1 1.672336 1_654
