# generated using pymatgen
data_SrLa2CeMn2Cr2O12
_symmetry_space_group_name_H-M   'P 1'
_cell_length_a   5.52043200
_cell_length_b   5.53439152
_cell_length_c   9.64111664
_cell_angle_alpha   90.67464719
_cell_angle_beta   105.37497801
_cell_angle_gamma   119.14055979
_symmetry_Int_Tables_number   1
_chemical_formula_structural   SrLa2CeMn2Cr2O12
_chemical_formula_sum   'Sr1 La2 Ce1 Mn2 Cr2 O12'
_cell_volume   244.57160629
_cell_formula_units_Z   1
loop_
 _symmetry_equiv_pos_site_id
 _symmetry_equiv_pos_as_xyz
  1  'x, y, z'
loop_
 _atom_site_type_symbol
 _atom_site_label
 _atom_site_symmetry_multiplicity
 _atom_site_fract_x
 _atom_site_fract_y
 _atom_site_fract_z
 _atom_site_occupancy
  Sr  Sr0  1  0.74253600  0.87015900  0.62106000  1
  La  La0  1  0.75396300  0.37751800  0.12913800  1
  La  La1  1  0.25650000  0.12960000  0.38003200  1
  Ce  Ce0  1  0.24237000  0.62073100  0.87078800  1
  Mn  Mn0  1  0.50239900  0.25446800  0.75371400  1
  Mn  Mn1  1  0.99716900  0.49833200  0.50023700  1
  Cr  Cr0  1  0.49274100  0.74431500  0.24624900  1
  Cr  Cr1  1  0.00135600  0.99818900  0.99904700  1
  O  O0  1  0.17000400  0.79134000  0.11736400  1
  O  O1  1  0.18790200  0.33010300  0.62817500  1
  O  O2  1  0.73786500  0.14694800  0.33346200  1
  O  O3  1  0.74890900  0.65594400  0.84330400  1
  O  O4  1  0.30759300  0.65578800  0.40426400  1
  O  O5  1  0.33403400  0.16117400  0.91492900  1
  O  O6  1  0.24746000  0.32742900  0.16329200  1
  O  O7  1  0.26215900  0.85068400  0.67745600  1
  O  O8  1  0.65009800  0.82889600  0.07251500  1
  O  O9  1  0.67819200  0.33598000  0.59318700  1
  O  O10  1  0.82274700  0.69301300  0.36834900  1
  O  O11  1  0.86400300  0.22938800  0.88343800  1
loop_
_geom_bond_atom_site_label_1
_geom_bond_atom_site_label_2
_geom_bond_distance
_geom_bond_site_symmetry_2
La0 O0 2.356826 1_655
La0 O2 2.357620 1_555
La0 O5 2.402617 1_554
La0 O10 2.703124 1_555
La0 O6 2.781909 1_555
La0 O11 2.802634 1_554
La0 O6 2.805199 1_655
La0 O8 2.818740 1_545
La0 O8 2.851038 1_555
La1 O6 2.370549 1_555
La1 O9 2.401129 1_555
La1 O10 2.408402 1_445
Ce0 O11 2.191819 1_455
Ce0 O7 2.265892 1_555
Ce0 O8 2.297069 1_556
Mn0 O7 1.962440 1_545
Mn0 O5 1.965670 1_555
Mn0 O3 1.980309 1_555
Mn0 O9 1.981677 1_555
Mn0 O1 2.063933 1_555
Mn0 O11 2.125649 1_555
Mn1 O1 1.946803 1_655
Mn1 O4 1.989384 1_655
Mn1 O9 2.006481 1_555
Mn1 O10 2.024417 1_555
Mn1 O2 2.100241 1_555
Mn1 O7 2.163305 1_655
Cr0 O2 1.979754 1_565
Cr0 O4 1.990266 1_555
Cr0 O0 2.017745 1_555
Cr0 O6 2.033732 1_555
Cr0 O10 2.039525 1_555
Cr0 O8 2.042869 1_555
Cr1 O0 1.996025 1_556
Cr1 O11 1.996206 1_465
Cr1 O3 2.009244 1_455
Cr1 O5 2.009436 1_565
Cr1 O6 2.013398 1_566
Cr1 O8 2.028348 1_456
O1 Sr0 2.518022 1_445
O3 Sr0 2.461364 1_555
O4 Sr0 2.459171 1_555
O9 Sr0 2.775283 1_545
O9 Sr0 2.801140 1_555
O10 Sr0 2.834076 1_555
