# generated using pymatgen
data_Dy2MgMn4O8
_symmetry_space_group_name_H-M   'P 1'
_cell_length_a   7.16742468
_cell_length_b   7.12669039
_cell_length_c   6.25584039
_cell_angle_alpha   63.65253909
_cell_angle_beta   63.73589218
_cell_angle_gamma   51.88789605
_symmetry_Int_Tables_number   1
_chemical_formula_structural   Dy2MgMn4O8
_chemical_formula_sum   'Dy2 Mg1 Mn4 O8'
_cell_volume   218.76892340
_cell_formula_units_Z   1
loop_
 _symmetry_equiv_pos_site_id
 _symmetry_equiv_pos_as_xyz
  1  'x, y, z'
loop_
 _atom_site_type_symbol
 _atom_site_label
 _atom_site_symmetry_multiplicity
 _atom_site_fract_x
 _atom_site_fract_y
 _atom_site_fract_z
 _atom_site_occupancy
  Dy  Dy0  1  0.11524200  0.13445100  0.13452900  1
  Dy  Dy1  1  0.88958600  0.85984700  0.86160000  1
  Mg  Mg0  1  0.65079900  0.59888500  0.60100600  1
  Mn  Mn0  1  0.51498000  0.05266300  0.46020000  1
  Mn  Mn1  1  0.05043300  0.57480600  0.43004700  1
  Mn  Mn2  1  0.47166100  0.45819900  0.05338900  1
  Mn  Mn3  1  0.44584900  0.42973200  0.57367400  1
  O  O0  1  0.74700200  0.74989200  0.71165600  1
  O  O1  1  0.23992700  0.26837400  0.73655400  1
  O  O2  1  0.25562700  0.73631800  0.26770200  1
  O  O3  1  0.72145200  0.24265500  0.28270100  1
  O  O4  1  0.72858700  0.25575800  0.76057600  1
  O  O5  1  0.29229900  0.71061600  0.75015100  1
  O  O6  1  0.25201200  0.28266200  0.24360400  1
  O  O7  1  0.75453900  0.75973500  0.25760700  1
loop_
_geom_bond_atom_site_label_1
_geom_bond_atom_site_label_2
_geom_bond_distance
_geom_bond_site_symmetry_2
Dy0 O2 2.208322 1_545
Dy0 O1 2.209661 1_554
Dy0 O6 2.247695 1_555
Dy0 O3 2.247779 1_455
Dy1 O4 2.176142 1_565
Dy1 O7 2.178211 1_556
Dy1 O0 2.242262 1_555
Dy1 O5 2.244186 1_655
Mg0 O4 1.982415 1_555
Mg0 O7 1.983562 1_555
Mg0 O0 2.027908 1_555
Mg0 O5 2.029550 1_555
Mn0 O6 2.133174 1_555
Mn0 O0 2.183782 1_545
Mn0 O1 2.200065 1_555
Mn0 O7 2.215950 1_545
Mn0 O3 2.222829 1_555
Mn1 O2 2.061423 1_555
Mn1 O0 2.144981 1_455
Mn1 O7 2.170485 1_455
Mn1 O6 2.175668 1_555
Mn1 O1 2.284100 1_555
Mn2 O3 2.131928 1_555
Mn2 O5 2.182186 1_554
Mn2 O2 2.203793 1_555
Mn2 O4 2.215611 1_554
Mn2 O6 2.216138 1_555
Mn3 O1 2.064715 1_555
Mn3 O5 2.145695 1_555
Mn3 O3 2.171157 1_555
Mn3 O4 2.172500 1_555
Mn3 O2 2.284034 1_555
