# generated using pymatgen
data_KMg30BO31
_symmetry_space_group_name_H-M   'P 1'
_cell_length_a   8.56883500
_cell_length_b   8.56883500
_cell_length_c   8.57053600
_cell_angle_alpha   90.00000000
_cell_angle_beta   90.00000000
_cell_angle_gamma   90.00000000
_symmetry_Int_Tables_number   1
_chemical_formula_structural   KMg30BO31
_chemical_formula_sum   'K1 Mg30 B1 O31'
_cell_volume   629.29103378
_cell_formula_units_Z   1
loop_
 _symmetry_equiv_pos_site_id
 _symmetry_equiv_pos_as_xyz
  1  'x, y, z'
loop_
 _atom_site_type_symbol
 _atom_site_label
 _atom_site_symmetry_multiplicity
 _atom_site_fract_x
 _atom_site_fract_y
 _atom_site_fract_z
 _atom_site_occupancy
  K  K0  1  0.00000000  0.00000000  0.01508700  1
  Mg  Mg0  1  0.00000000  0.50000000  0.00011700  1
  Mg  Mg1  1  0.50000000  0.00000000  0.00011700  1
  Mg  Mg2  1  0.00000000  0.00000000  0.49135700  1
  Mg  Mg3  1  0.00000000  0.50000000  0.50125400  1
  Mg  Mg4  1  0.50000000  0.00000000  0.50125400  1
  Mg  Mg5  1  0.50000000  0.50000000  0.50061600  1
  Mg  Mg6  1  0.25457900  0.25457900  0.99944100  1
  Mg  Mg7  1  0.25457900  0.74542100  0.99944100  1
  Mg  Mg8  1  0.74542100  0.25457900  0.99944100  1
  Mg  Mg9  1  0.74542100  0.74542100  0.99944100  1
  Mg  Mg10  1  0.24963800  0.24963800  0.50085000  1
  Mg  Mg11  1  0.24963800  0.75036200  0.50085000  1
  Mg  Mg12  1  0.75036200  0.24963800  0.50085000  1
  Mg  Mg13  1  0.75036200  0.75036200  0.50085000  1
  Mg  Mg14  1  0.00000000  0.25875600  0.25276300  1
  Mg  Mg15  1  0.00000000  0.74124400  0.25276300  1
  Mg  Mg16  1  0.50000000  0.26098400  0.24906900  1
  Mg  Mg17  1  0.50000000  0.73901600  0.24906900  1
  Mg  Mg18  1  0.00000000  0.24785500  0.74960900  1
  Mg  Mg19  1  0.00000000  0.75214500  0.74960900  1
  Mg  Mg20  1  0.50000000  0.24439900  0.74993700  1
  Mg  Mg21  1  0.50000000  0.75560100  0.74993700  1
  Mg  Mg22  1  0.25875600  0.00000000  0.25276300  1
  Mg  Mg23  1  0.26098400  0.50000000  0.24906900  1
  Mg  Mg24  1  0.74124400  0.00000000  0.25276300  1
  Mg  Mg25  1  0.73901600  0.50000000  0.24906900  1
  Mg  Mg26  1  0.24785500  0.00000000  0.74960900  1
  Mg  Mg27  1  0.24439900  0.50000000  0.74993700  1
  Mg  Mg28  1  0.75214500  0.00000000  0.74960900  1
  Mg  Mg29  1  0.75560100  0.50000000  0.74993700  1
  B  B0  1  0.50000000  0.50000000  0.94980800  1
  O  O0  1  0.00000000  0.50000000  0.25015700  1
  O  O1  1  0.50000000  0.00000000  0.25015700  1
  O  O2  1  0.50000000  0.50000000  0.27009000  1
  O  O3  1  0.00000000  0.00000000  0.72830500  1
  O  O4  1  0.00000000  0.50000000  0.75159400  1
  O  O5  1  0.50000000  0.00000000  0.75159400  1
  O  O6  1  0.50000000  0.50000000  0.77842100  1
  O  O7  1  0.25318200  0.25318200  0.24841700  1
  O  O8  1  0.25318200  0.74681800  0.24841700  1
  O  O9  1  0.74681800  0.25318200  0.24841700  1
  O  O10  1  0.74681800  0.74681800  0.24841700  1
  O  O11  1  0.25037300  0.25037300  0.75126000  1
  O  O12  1  0.25037300  0.74962700  0.75126000  1
  O  O13  1  0.74962700  0.25037300  0.75126000  1
  O  O14  1  0.74962700  0.74962700  0.75126000  1
  O  O15  1  0.00000000  0.27633800  0.00008400  1
  O  O16  1  0.00000000  0.72366200  0.00008400  1
  O  O17  1  0.50000000  0.28954600  0.99394000  1
  O  O18  1  0.50000000  0.71045400  0.99394000  1
  O  O19  1  0.00000000  0.25669800  0.50084800  1
  O  O20  1  0.00000000  0.74330200  0.50084800  1
  O  O21  1  0.50000000  0.25257900  0.50629900  1
  O  O22  1  0.50000000  0.74742100  0.50629900  1
  O  O23  1  0.27633800  0.00000000  0.00008400  1
  O  O24  1  0.28954600  0.50000000  0.99394000  1
  O  O25  1  0.72366200  0.00000000  0.00008400  1
  O  O26  1  0.71045400  0.50000000  0.99394000  1
  O  O27  1  0.25669800  0.00000000  0.50084800  1
  O  O28  1  0.25257900  0.50000000  0.50629900  1
  O  O29  1  0.74330200  0.00000000  0.50084800  1
  O  O30  1  0.74742100  0.50000000  0.50629900  1
loop_
_geom_bond_atom_site_label_1
_geom_bond_atom_site_label_2
_geom_bond_distance
_geom_bond_site_symmetry_2
K0 O25 2.371383 1_455
K0 O16 2.371383 1_545
K0 O15 2.371383 1_555
K0 O23 2.371383 1_555
K0 O3 2.457875 1_554
Mg0 O15 1.916523 1_555
Mg0 O16 1.916523 1_555
Mg0 O4 2.129975 1_554
Mg0 O0 2.142977 1_555
Mg0 O26 2.481637 1_454
Mg0 O24 2.481637 1_554
Mg1 O25 1.916523 1_555
Mg1 O23 1.916523 1_555
Mg1 O5 2.129975 1_554
Mg1 O1 2.142977 1_555
Mg1 O18 2.481637 1_544
Mg1 O17 2.481637 1_554
Mg2 O3 2.030771 1_555
Mg2 O19 2.201106 1_555
Mg2 O20 2.201106 1_545
Mg2 O27 2.201106 1_555
Mg2 O29 2.201106 1_455
Mg3 O20 2.084818 1_555
Mg3 O19 2.084818 1_555
Mg3 O4 2.145548 1_555
Mg3 O0 2.152036 1_555
Mg3 O28 2.164740 1_555
Mg3 O30 2.164740 1_455
Mg4 O29 2.084818 1_555
Mg4 O27 2.084818 1_555
Mg4 O5 2.145548 1_555
Mg4 O1 2.152036 1_555
Mg4 O22 2.164740 1_545
Mg4 O21 2.164740 1_555
Mg5 O2 1.975731 1_555
Mg5 O22 2.120669 1_555
Mg5 O30 2.120669 1_555
Mg5 O21 2.120669 1_555
Mg5 O28 2.120669 1_555
Mg5 O6 2.380938 1_555
Mg6 O17 2.124733 1_555
Mg6 O24 2.124733 1_555
Mg6 O11 2.127655 1_555
Mg6 O7 2.133925 1_556
Mg6 O23 2.189406 1_556
Mg6 O15 2.189406 1_556
Mg7 O18 2.124733 1_555
Mg7 O24 2.124733 1_555
Mg7 O12 2.127655 1_555
Mg7 O8 2.133925 1_556
Mg7 O23 2.189406 1_566
Mg7 O16 2.189406 1_556
Mg8 O26 2.124733 1_555
Mg8 O17 2.124733 1_555
Mg8 O13 2.127655 1_555
Mg8 O9 2.133925 1_556
Mg8 O25 2.189406 1_556
Mg8 O15 2.189406 1_656
Mg9 O18 2.124733 1_555
Mg9 O26 2.124733 1_555
Mg9 O14 2.127655 1_555
Mg9 O10 2.133925 1_556
Mg9 O16 2.189406 1_656
Mg9 O25 2.189406 1_566
Mg10 O19 2.139962 1_555
Mg10 O27 2.139962 1_555
Mg10 O28 2.145967 1_555
Mg10 O21 2.145967 1_555
Mg10 O11 2.146166 1_555
Mg10 O7 2.163912 1_555
Mg11 O20 2.139962 1_555
Mg11 O27 2.139962 1_565
Mg11 O28 2.145967 1_555
Mg11 O22 2.145967 1_555
Mg11 O12 2.146166 1_555
Mg11 O8 2.163912 1_555
Mg12 O29 2.139962 1_555
Mg12 O19 2.139962 1_655
Mg12 O30 2.145967 1_555
Mg12 O21 2.145967 1_555
Mg12 O13 2.146166 1_555
Mg12 O9 2.163912 1_555
Mg13 O20 2.139962 1_655
Mg13 O29 2.139962 1_565
Mg13 O22 2.145967 1_555
Mg13 O30 2.145967 1_555
Mg13 O14 2.146166 1_555
Mg13 O10 2.163912 1_555
Mg14 O0 2.067301 1_555
Mg14 O19 2.126295 1_555
Mg14 O9 2.170320 1_455
Mg14 O7 2.170320 1_555
Mg14 O15 2.170829 1_555
Mg15 O0 2.067301 1_555
Mg15 O20 2.126295 1_555
Mg15 O10 2.170320 1_455
Mg15 O8 2.170320 1_555
Mg15 O16 2.170829 1_555
Mg16 O2 2.055997 1_555
Mg16 O9 2.116006 1_555
Mg16 O7 2.116006 1_555
Mg16 O17 2.200247 1_554
Mg16 O21 2.205775 1_555
Mg16 O1 2.236348 1_555
Mg17 O2 2.055997 1_555
Mg17 O8 2.116006 1_555
Mg17 O10 2.116006 1_555
Mg17 O18 2.200247 1_554
Mg17 O22 2.205775 1_555
Mg17 O1 2.236348 1_565
Mg18 O3 2.131663 1_555
Mg18 O19 2.133361 1_555
Mg18 O13 2.145560 1_455
Mg18 O11 2.145560 1_555
Mg18 O15 2.160535 1_556
Mg18 O4 2.160656 1_555
Mg19 O3 2.131663 1_565
Mg19 O20 2.133361 1_555
Mg19 O14 2.145560 1_455
Mg19 O12 2.145560 1_555
Mg19 O16 2.160535 1_556
Mg19 O4 2.160656 1_555
Mg20 O21 2.089284 1_555
Mg20 O5 2.094263 1_555
Mg20 O17 2.126718 1_555
Mg20 O11 2.139655 1_555
Mg20 O13 2.139655 1_555
Mg20 O6 2.203766 1_555
Mg21 O22 2.089284 1_555
Mg21 O5 2.094263 1_565
Mg21 O18 2.126718 1_555
Mg21 O12 2.139655 1_555
Mg21 O14 2.139655 1_555
Mg21 O6 2.203766 1_555
Mg22 O1 2.067301 1_555
Mg22 O27 2.126295 1_555
Mg22 O8 2.170320 1_545
Mg22 O7 2.170320 1_555
Mg22 O23 2.170829 1_555
Mg23 O2 2.055997 1_555
Mg23 O7 2.116006 1_555
Mg23 O8 2.116006 1_555
Mg23 O24 2.200247 1_554
Mg23 O28 2.205775 1_555
Mg23 O0 2.236348 1_555
Mg24 O1 2.067301 1_555
Mg24 O29 2.126295 1_555
Mg24 O10 2.170320 1_545
Mg24 O9 2.170320 1_555
Mg24 O25 2.170829 1_555
Mg25 O2 2.055997 1_555
Mg25 O9 2.116006 1_555
Mg25 O10 2.116006 1_555
Mg25 O26 2.200247 1_554
Mg25 O30 2.205775 1_555
Mg25 O0 2.236348 1_655
Mg26 O3 2.131663 1_555
Mg26 O27 2.133361 1_555
Mg26 O12 2.145560 1_545
Mg26 O11 2.145560 1_555
Mg26 O23 2.160535 1_556
Mg26 O5 2.160656 1_555
Mg27 O28 2.089284 1_555
Mg27 O4 2.094263 1_555
Mg27 O24 2.126718 1_555
Mg27 O11 2.139655 1_555
Mg27 O12 2.139655 1_555
Mg27 O6 2.203766 1_555
Mg28 O3 2.131663 1_655
Mg28 O29 2.133361 1_555
Mg28 O14 2.145560 1_545
Mg28 O13 2.145560 1_555
Mg28 O25 2.160535 1_556
Mg28 O5 2.160656 1_555
Mg29 O30 2.089284 1_555
Mg29 O4 2.094263 1_655
Mg29 O26 2.126718 1_555
Mg29 O13 2.139655 1_555
Mg29 O14 2.139655 1_555
Mg29 O6 2.203766 1_555
B0 O6 1.468878 1_555
B0 O17 1.842584 1_555
B0 O24 1.842584 1_555
B0 O18 1.842584 1_555
B0 O26 1.842584 1_555
