# generated using pymatgen
data_Li3Mg
_symmetry_space_group_name_H-M   'P 1'
_cell_length_a   5.25512579
_cell_length_b   5.25512579
_cell_length_c   5.25512579
_cell_angle_alpha   131.51071473
_cell_angle_beta   131.51071473
_cell_angle_gamma   71.00290626
_symmetry_Int_Tables_number   1
_chemical_formula_structural   Li3Mg
_chemical_formula_sum   'Li3 Mg1'
_cell_volume   79.68865124
_cell_formula_units_Z   1
loop_
 _symmetry_equiv_pos_site_id
 _symmetry_equiv_pos_as_xyz
  1  'x, y, z'
loop_
 _atom_site_type_symbol
 _atom_site_label
 _atom_site_symmetry_multiplicity
 _atom_site_fract_x
 _atom_site_fract_y
 _atom_site_fract_z
 _atom_site_occupancy
  Li  Li0  1  0.50000000  0.50000000  0.00000000  1
  Li  Li1  1  0.25000000  0.75000000  0.50000000  1
  Li  Li2  1  0.75000000  0.25000000  0.50000000  1
  Mg  Mg0  1  0.00000000  -0.00000000  0.00000000  1
loop_
_geom_bond_atom_site_label_1
_geom_bond_atom_site_label_2
_geom_bond_distance
_geom_bond_site_symmetry_2
Li0 Li1 3.038490 1_554
Li0 Li1 3.038490 1_555
Li0 Li2 3.038490 1_554
Li0 Li1 3.038490 1_544
Li0 Li2 3.038490 1_454
Li0 Li1 3.038490 1_655
Li0 Li2 3.038490 1_565
Li0 Li2 3.038490 1_555
Li0 Mg0 3.051776 1_565
Li0 Mg0 3.051776 1_666
Li0 Mg0 3.051776 1_554
Li0 Mg0 3.051776 1_655
Li1 Mg0 3.038490 1_555
Li1 Mg0 3.038490 1_666
Li1 Mg0 3.038490 1_566
Li1 Mg0 3.038490 1_565
Li1 Li2 3.051776 1_465
Li1 Li2 3.051776 1_555
Li1 Li2 3.051776 1_566
Li1 Li2 3.051776 1_454
Li2 Mg0 3.038490 1_555
Li2 Mg0 3.038490 1_666
Li2 Mg0 3.038490 1_655
Li2 Mg0 3.038490 1_656
