# generated using pymatgen
data_H9C3N6ClO5
_symmetry_space_group_name_H-M   'P 1'
_cell_length_a   6.00150035
_cell_length_b   7.78677998
_cell_length_c   12.10644780
_cell_angle_alpha   101.36948249
_cell_angle_beta   92.68420691
_cell_angle_gamma   105.24437043
_symmetry_Int_Tables_number   1
_chemical_formula_structural   H9C3N6ClO5
_chemical_formula_sum   'H18 C6 N12 Cl2 O10'
_cell_volume   532.22448343
_cell_formula_units_Z   2
loop_
 _symmetry_equiv_pos_site_id
 _symmetry_equiv_pos_as_xyz
  1  'x, y, z'
loop_
 _atom_site_type_symbol
 _atom_site_label
 _atom_site_symmetry_multiplicity
 _atom_site_fract_x
 _atom_site_fract_y
 _atom_site_fract_z
 _atom_site_occupancy
  H  H0  1  0.15102000  0.08740800  0.35863900  1
  H  H1  1  0.84898000  0.91259200  0.64136100  1
  H  H2  1  0.61807700  0.75707700  0.12772600  1
  H  H3  1  0.38192300  0.24292300  0.87227400  1
  H  H4  1  0.99625900  0.29452200  0.28738500  1
  H  H5  1  0.00374100  0.70547800  0.71261500  1
  H  H6  1  0.09341600  0.45817900  0.91701800  1
  H  H7  1  0.90658400  0.54182100  0.08298200  1
  H  H8  1  0.74497500  0.29365900  0.42906300  1
  H  H9  1  0.25502500  0.70634100  0.57093700  1
  H  H10  1  0.15832200  0.50961100  0.78565000  1
  H  H11  1  0.84167800  0.49038900  0.21435000  1
  H  H12  1  0.49274700  0.08476600  0.92594200  1
  H  H13  1  0.50725300  0.91523400  0.07405800  1
  H  H14  1  0.16222100  0.50550000  0.58532900  1
  H  H15  1  0.83777900  0.49450000  0.41467100  1
  H  H16  1  0.65309600  0.01066200  0.71226700  1
  H  H17  1  0.34690400  0.98933800  0.28773300  1
  C  C0  1  0.20871400  0.14369500  0.20185200  1
  C  C1  1  0.79128600  0.85630500  0.79814800  1
  C  C2  1  0.05743700  0.35571900  0.13001100  1
  C  C3  1  0.94256300  0.64428100  0.86998900  1
  C  C4  1  0.29058100  0.20775600  0.02933400  1
  C  C5  1  0.70941900  0.79224400  0.97066600  1
  N  N0  1  0.16314900  0.32947200  0.03607200  1
  N  N1  1  0.83685100  0.67052800  0.96392800  1
  N  N2  1  0.22299600  0.05663500  0.28556700  1
  N  N3  1  0.77700400  0.94336500  0.71443300  1
  N  N4  1  0.31704900  0.11186200  0.10949700  1
  N  N5  1  0.68295100  0.88813800  0.89050300  1
  N  N6  1  0.07697100  0.26354500  0.21370700  1
  N  N7  1  0.92302900  0.73645500  0.78629300  1
  N  N8  1  0.60179900  0.82203700  0.06352400  1
  N  N9  1  0.39820100  0.17796300  0.93647600  1
  N  N10  1  0.07033700  0.52724200  0.85475600  1
  N  N11  1  0.92966300  0.47275800  0.14524400  1
  Cl  Cl0  1  0.39737900  0.23709700  0.63424300  1
  Cl  Cl1  1  0.60262100  0.76290300  0.36575700  1
  O  O0  1  0.21599700  0.24772800  0.55278000  1
  O  O1  1  0.78400300  0.75227200  0.44722000  1
  O  O2  1  0.59911500  0.63451700  0.25812200  1
  O  O3  1  0.40088500  0.36548300  0.74187800  1
  O  O4  1  0.37633700  0.71549000  0.40818500  1
  O  O5  1  0.62366300  0.28451000  0.59181500  1
  O  O6  1  0.15779600  0.63063100  0.61544000  1
  O  O7  1  0.84220400  0.36936900  0.38456000  1
  O  O8  1  0.34739500  0.05246000  0.65559000  1
  O  O9  1  0.65260500  0.94754000  0.34441000  1
loop_
_geom_bond_atom_site_label_1
_geom_bond_atom_site_label_2
_geom_bond_distance
_geom_bond_site_symmetry_2
H0 N2 1.016489 1_555
H1 N3 1.016489 1_555
H2 N8 1.021481 1_555
H3 N9 1.021481 1_555
H4 N6 1.051441 1_655
H4 O7 1.641164 1_555
H5 N7 1.051441 1_455
H5 O6 1.641164 1_555
H6 N10 1.032364 1_555
H7 N11 1.032364 1_555
H8 O7 0.975756 1_555
H9 O6 0.975756 1_555
H10 N10 1.015794 1_555
H11 N11 1.015794 1_555
H12 N9 1.025527 1_555
H13 N8 1.025527 1_555
H14 O6 0.978497 1_555
H15 O7 0.978497 1_555
H16 N3 1.018233 1_545
H17 N2 1.018233 1_565
C0 N4 1.333365 1_555
C0 N2 1.336934 1_555
C0 N6 1.364746 1_555
C1 N5 1.333365 1_555
C1 N3 1.336934 1_555
C1 N7 1.364746 1_555
C2 N11 1.329327 1_455
C2 N0 1.334831 1_555
C2 N6 1.369470 1_555
C3 N10 1.329327 1_655
C3 N1 1.334831 1_555
C3 N7 1.369470 1_555
C4 N9 1.333695 1_554
C4 N0 1.358809 1_555
C4 N4 1.363196 1_555
C5 N8 1.333695 1_556
C5 N1 1.358809 1_555
C5 N5 1.363196 1_555
Cl0 O5 1.456319 1_555
Cl0 O0 1.464067 1_555
Cl0 O8 1.466558 1_555
Cl0 O3 1.473307 1_555
Cl1 O4 1.456319 1_555
Cl1 O1 1.464067 1_555
Cl1 O9 1.466558 1_555
Cl1 O2 1.473307 1_555
