# generated using pymatgen
data_Be8P8H34N8O33
_symmetry_space_group_name_H-M   'P 1'
_cell_length_a   9.51004700
_cell_length_b   13.10476376
_cell_length_c   13.10476376
_cell_angle_alpha   88.77293208
_cell_angle_beta   90.00000000
_cell_angle_gamma   90.00000000
_symmetry_Int_Tables_number   1
_chemical_formula_structural   Be8P8H34N8O33
_chemical_formula_sum   'Be16 P16 H68 N16 O66'
_cell_volume   1632.83180565
_cell_formula_units_Z   2
loop_
 _symmetry_equiv_pos_site_id
 _symmetry_equiv_pos_as_xyz
  1  'x, y, z'
loop_
 _atom_site_type_symbol
 _atom_site_label
 _atom_site_symmetry_multiplicity
 _atom_site_fract_x
 _atom_site_fract_y
 _atom_site_fract_z
 _atom_site_occupancy
  Be  Be0  1  0.86682419  0.86460183  0.54418434  1
  Be  Be1  1  0.36682419  0.95581566  0.63539817  1
  Be  Be2  1  0.36682419  0.54418434  0.86460183  1
  Be  Be3  1  0.86682419  0.63539817  0.95581566  1
  Be  Be4  1  0.12971737  0.13358261  0.45584844  1
  Be  Be5  1  0.62971737  0.04415156  0.36641739  1
  Be  Be6  1  0.62971737  0.45584844  0.13358261  1
  Be  Be7  1  0.12971737  0.36641739  0.04415156  1
  Be  Be8  1  0.07387916  0.01510239  0.86319666  1
  Be  Be9  1  0.57387916  0.63680334  0.48489761  1
  Be  Be10  1  0.57387916  0.86319666  0.01510239  1
  Be  Be11  1  0.07387916  0.48489761  0.63680334  1
  Be  Be12  1  0.92445442  0.98492759  0.13625922  1
  Be  Be13  1  0.42445442  0.36374078  0.51507241  1
  Be  Be14  1  0.42445442  0.13625922  0.98492759  1
  Be  Be15  1  0.92445442  0.51507241  0.36374078  1
  P  P0  1  0.37603104  0.95831516  0.86430454  1
  P  P1  1  0.87603104  0.63569546  0.54168484  1
  P  P2  1  0.87603104  0.86430454  0.95831516  1
  P  P3  1  0.37603104  0.54168484  0.63569546  1
  P  P4  1  0.62253291  0.04336215  0.13556366  1
  P  P5  1  0.12253291  0.36443634  0.45663785  1
  P  P6  1  0.12253291  0.13556366  0.04336215  1
  P  P7  1  0.62253291  0.45663785  0.36443634  1
  P  P8  1  0.06251212  0.01089282  0.63991616  1
  P  P9  1  0.56251212  0.86008384  0.48910718  1
  P  P10  1  0.56251212  0.63991616  0.01089282  1
  P  P11  1  0.06251212  0.48910718  0.86008384  1
  P  P12  1  0.93375395  0.98671126  0.36081506  1
  P  P13  1  0.43375395  0.13918494  0.51328874  1
  P  P14  1  0.43375395  0.36081506  0.98671126  1
  P  P15  1  0.93375395  0.51328874  0.13918494  1
  H  H0  1  0.21243207  0.82197474  0.95355633  1
  H  H1  1  0.71243207  0.54644367  0.67802526  1
  H  H2  1  0.71243207  0.95355633  0.82197474  1
  H  H3  1  0.21243207  0.67802526  0.54644367  1
  H  H4  1  0.79035371  0.17827301  0.04473050  1
  H  H5  1  0.29035371  0.45526950  0.32172699  1
  H  H6  1  0.29035371  0.04473050  0.17827301  1
  H  H7  1  0.79035371  0.32172699  0.45526950  1
  H  H8  1  0.03385435  0.31712331  0.75447988  1
  H  H9  1  0.53385435  0.74552012  0.18287669  1
  H  H10  1  0.53385435  0.75447988  0.31712331  1
  H  H11  1  0.03385435  0.18287669  0.74552012  1
  H  H12  1  0.98712167  0.67885594  0.24590841  1
  H  H13  1  0.48712167  0.25409159  0.82114406  1
  H  H14  1  0.48712167  0.24590841  0.67885594  1
  H  H15  1  0.98712167  0.82114406  0.25409159  1
  H  H16  1  0.29220912  0.70214561  0.96666613  1
  H  H17  1  0.79220912  0.53333387  0.79785439  1
  H  H18  1  0.79220912  0.96666613  0.70214561  1
  H  H19  1  0.29220912  0.79785439  0.53333387  1
  H  H20  1  0.70911496  0.29676529  0.02986505  1
  H  H21  1  0.20911496  0.47013495  0.20323471  1
  H  H22  1  0.20911496  0.02986505  0.29676529  1
  H  H23  1  0.70911496  0.20323471  0.47013495  1
  H  H24  1  0.15290450  0.68516494  0.75755750  1
  H  H25  1  0.65290450  0.74244250  0.81483506  1
  H  H26  1  0.65290450  0.75755750  0.68516494  1
  H  H27  1  0.15290450  0.81483506  0.74244250  1
  H  H28  1  0.84601974  0.31482483  0.24322661  1
  H  H29  1  0.34601974  0.25677339  0.18517517  1
  H  H30  1  0.34601974  0.24322661  0.31482483  1
  H  H31  1  0.84601974  0.18517517  0.25677339  1
  H  H32  1  0.24630497  0.76976366  0.06659983  1
  H  H33  1  0.74630497  0.43340017  0.73023634  1
  H  H34  1  0.74630497  0.06659983  0.76976366  1
  H  H35  1  0.24630497  0.73023634  0.43340017  1
  H  H36  1  0.76170163  0.22975854  0.93044108  1
  H  H37  1  0.26170163  0.56955892  0.27024146  1
  H  H38  1  0.26170163  0.93044108  0.22975854  1
  H  H39  1  0.76170163  0.27024146  0.56955892  1
  H  H40  1  0.11363744  0.72080801  0.99577196  1
  H  H41  1  0.61363744  0.50422804  0.77919199  1
  H  H42  1  0.61363744  0.99577196  0.72080801  1
  H  H43  1  0.11363744  0.77919199  0.50422804  1
  H  H44  1  0.88872444  0.28034533  0.00391566  1
  H  H45  1  0.38872444  0.49608434  0.21965467  1
  H  H46  1  0.38872444  0.00391566  0.28034533  1
  H  H47  1  0.88872444  0.21965467  0.49608434  1
  H  H48  1  0.02708914  0.75514088  0.81477747  1
  H  H49  1  0.52708914  0.68522253  0.74485912  1
  H  H50  1  0.52708914  0.81477747  0.75514088  1
  H  H51  1  0.02708914  0.74485912  0.68522253  1
  H  H52  1  0.97205893  0.24538163  0.18517439  1
  H  H53  1  0.47205893  0.31482561  0.25461837  1
  H  H54  1  0.47205893  0.18517439  0.24538163  1
  H  H55  1  0.97205893  0.25461837  0.31482561  1
  H  H56  1  0.91338122  0.25686090  0.68479403  1
  H  H57  1  0.41338122  0.81520597  0.24313910  1
  H  H58  1  0.41338122  0.68479403  0.25686090  1
  H  H59  1  0.91338122  0.24313910  0.81520597  1
  H  H60  1  0.10410154  0.74421474  0.31485454  1
  H  H61  1  0.60410154  0.18514546  0.75578526  1
  H  H62  1  0.60410154  0.31485454  0.74421474  1
  H  H63  1  0.10410154  0.75578526  0.18514546  1
  H  H64  1  0.29086214  0.25994747  0.68956023  1
  H  H65  1  0.79086214  0.81043977  0.24005253  1
  H  H66  1  0.79086214  0.68956023  0.25994747  1
  H  H67  1  0.29086214  0.24005253  0.81043977  1
  N  N0  1  0.97101994  0.25000000  0.75000000  1
  N  N1  1  0.47101994  0.75000000  0.25000000  1
  N  N2  1  0.04512005  0.75000000  0.25000000  1
  N  N3  1  0.54512005  0.25000000  0.75000000  1
  N  N4  1  0.21322236  0.75249722  0.99496167  1
  N  N5  1  0.71322236  0.50503833  0.74750278  1
  N  N6  1  0.71322236  0.99496167  0.75249722  1
  N  N7  1  0.21322236  0.74750278  0.50503833  1
  N  N8  1  0.78972352  0.24757301  0.00295620  1
  N  N9  1  0.28972352  0.49704380  0.25242699  1
  N  N10  1  0.28972352  0.00295620  0.24757301  1
  N  N11  1  0.78972352  0.25242699  0.49704380  1
  N  N12  1  0.09188020  0.75000000  0.75000000  1
  N  N13  1  0.59188020  0.75000000  0.75000000  1
  N  N14  1  0.90712061  0.25000000  0.25000000  1
  N  N15  1  0.40712061  0.25000000  0.25000000  1
  O  O0  1  0.41914031  0.92611022  0.75378410  1
  O  O1  1  0.91914031  0.74621590  0.57388978  1
  O  O2  1  0.91914031  0.75378410  0.92611022  1
  O  O3  1  0.41914031  0.57388978  0.74621590  1
  O  O4  1  0.57965330  0.07511558  0.24674437  1
  O  O5  1  0.07965330  0.25325563  0.42488442  1
  O  O6  1  0.07965330  0.24674437  0.07511558  1
  O  O7  1  0.57965330  0.42488442  0.25325563  1
  O  O8  1  0.05503666  0.10139451  0.56213019  1
  O  O9  1  0.55503666  0.93786981  0.39860549  1
  O  O10  1  0.55503666  0.56213019  0.10139451  1
  O  O11  1  0.05503666  0.39860549  0.93786981  1
  O  O12  1  0.94181316  0.89621161  0.43728036  1
  O  O13  1  0.44181316  0.06271964  0.60378839  1
  O  O14  1  0.44181316  0.43728036  0.89621161  1
  O  O15  1  0.94181316  0.60378839  0.06271964  1
  O  O16  1  0.93032122  0.94052563  0.63164258  1
  O  O17  1  0.43032122  0.86835742  0.55947437  1
  O  O18  1  0.43032122  0.63164258  0.94052563  1
  O  O19  1  0.93032122  0.55947437  0.86835742  1
  O  O20  1  0.06665876  0.05654450  0.36634483  1
  O  O21  1  0.56665876  0.13365517  0.44345550  1
  O  O22  1  0.56665876  0.36634483  0.05654450  1
  O  O23  1  0.06665876  0.44345550  0.13365517  1
  O  O24  1  0.05610583  0.05889986  0.74651997  1
  O  O25  1  0.55610583  0.75348003  0.44110014  1
  O  O26  1  0.55610583  0.74651997  0.05889986  1
  O  O27  1  0.05610583  0.44110014  0.75348003  1
  O  O28  1  0.93547891  0.93512295  0.25369491  1
  O  O29  1  0.43547891  0.24630509  0.56487705  1
  O  O30  1  0.43547891  0.25369491  0.93512295  1
  O  O31  1  0.93547891  0.56487705  0.24630509  1
  O  O32  1  0.21482930  0.94530500  0.87779115  1
  O  O33  1  0.71482930  0.62220885  0.55469500  1
  O  O34  1  0.71482930  0.87779115  0.94530500  1
  O  O35  1  0.21482930  0.55469500  0.62220885  1
  O  O36  1  0.78427900  0.05603083  0.12271028  1
  O  O37  1  0.28427900  0.37728972  0.44396917  1
  O  O38  1  0.28427900  0.12271028  0.05603083  1
  O  O39  1  0.78427900  0.44396917  0.37728972  1
  O  O40  1  0.44179110  0.88182450  0.94032459  1
  O  O41  1  0.94179110  0.55967541  0.61817550  1
  O  O42  1  0.94179110  0.94032459  0.88182450  1
  O  O43  1  0.44179110  0.61817550  0.55967541  1
  O  O44  1  0.55756714  0.12107716  0.05974676  1
  O  O45  1  0.05756714  0.44025324  0.37892284  1
  O  O46  1  0.05756714  0.05974676  0.12107716  1
  O  O47  1  0.55756714  0.37892284  0.44025324  1
  O  O48  1  0.23289100  0.25000000  0.75000000  1
  O  O49  1  0.73289100  0.75000000  0.25000000  1
  O  O50  1  0.19580572  0.94535947  0.62671647  1
  O  O51  1  0.69580572  0.87328353  0.55464053  1
  O  O52  1  0.69580572  0.62671647  0.94535947  1
  O  O53  1  0.19580572  0.55464053  0.87328353  1
  O  O54  1  0.80146620  0.05328097  0.37308055  1
  O  O55  1  0.30146620  0.12691945  0.44671903  1
  O  O56  1  0.30146620  0.37308055  0.05328097  1
  O  O57  1  0.80146620  0.44671903  0.12691945  1
  O  O58  1  0.42813940  0.06816779  0.88171932  1
  O  O59  1  0.92813940  0.61828068  0.43183221  1
  O  O60  1  0.92813940  0.88171932  0.06816779  1
  O  O61  1  0.42813940  0.43183221  0.61828068  1
  O  O62  1  0.57027550  0.93400270  0.11786585  1
  O  O63  1  0.07027550  0.38213415  0.56599730  1
  O  O64  1  0.07027550  0.11786585  0.93400270  1
  O  O65  1  0.57027550  0.56599730  0.38213415  1
loop_
_geom_bond_atom_site_label_1
_geom_bond_atom_site_label_2
_geom_bond_distance
_geom_bond_site_symmetry_2
Be0 O12 1.618019 1_555
Be0 O51 1.636320 1_555
Be0 O16 1.648341 1_555
Be0 O1 1.667367 1_555
Be1 O13 1.618019 1_565
Be1 O50 1.636320 1_555
Be1 O17 1.648341 1_555
Be1 O0 1.667367 1_555
Be2 O14 1.618019 1_555
Be2 O53 1.636320 1_555
Be2 O18 1.648341 1_555
Be2 O3 1.667367 1_555
Be3 O15 1.618019 1_556
Be3 O52 1.636320 1_555
Be3 O19 1.648341 1_555
Be3 O2 1.667367 1_555
Be4 O8 1.611540 1_555
Be4 O55 1.640178 1_555
Be4 O20 1.674909 1_555
Be4 O5 1.680358 1_555
Be5 O9 1.611540 1_545
Be5 O54 1.640178 1_555
Be5 O21 1.674909 1_555
Be5 O4 1.680358 1_555
Be6 O10 1.611540 1_555
Be6 O57 1.640178 1_555
Be6 O22 1.674909 1_555
Be6 O7 1.680358 1_555
Be7 O11 1.611540 1_554
Be7 O56 1.640178 1_555
Be7 O23 1.674909 1_555
Be7 O6 1.680358 1_555
Be8 O42 1.608598 1_445
Be8 O24 1.630433 1_555
Be8 O32 1.631720 1_545
Be8 O64 1.652048 1_555
Be9 O43 1.608598 1_555
Be9 O25 1.630433 1_555
Be9 O33 1.631720 1_555
Be9 O65 1.652048 1_555
Be10 O40 1.608598 1_554
Be10 O26 1.630433 1_555
Be10 O34 1.631720 1_554
Be10 O62 1.652048 1_555
Be11 O41 1.608598 1_455
Be11 O27 1.630433 1_555
Be11 O35 1.631720 1_555
Be11 O63 1.652048 1_555
Be12 O46 1.610934 1_665
Be12 O36 1.633941 1_565
Be12 O60 1.636602 1_555
Be12 O28 1.662041 1_555
Be13 O47 1.610934 1_555
Be13 O37 1.633941 1_555
Be13 O61 1.636602 1_555
Be13 O29 1.662041 1_555
Be14 O44 1.610934 1_556
Be14 O38 1.633941 1_556
Be14 O58 1.636602 1_555
Be14 O30 1.662041 1_555
Be15 O45 1.610934 1_655
Be15 O39 1.633941 1_555
Be15 O59 1.636602 1_555
Be15 O31 1.662041 1_555
H0 N4 1.049907 1_555
H1 N5 1.049907 1_555
H2 N6 1.049907 1_555
H3 N7 1.049907 1_555
H4 N8 1.050329 1_555
H5 N9 1.050329 1_555
H6 N10 1.050329 1_555
H7 N11 1.050329 1_555
H8 N0 1.066064 1_455
H8 O27 1.638184 1_555
H9 N1 1.066064 1_555
H9 O26 1.638184 1_555
H10 N1 1.066064 1_555
H10 O25 1.638184 1_555
H11 N0 1.066064 1_455
H11 O24 1.638184 1_555
H12 N2 1.085576 1_655
H12 O31 1.572240 1_555
H13 N3 1.085576 1_555
H13 O30 1.572240 1_555
H14 N3 1.085576 1_555
H14 O29 1.572240 1_555
H15 N2 1.085576 1_655
H15 O28 1.572240 1_555
H16 N4 1.071273 1_555
H16 O18 1.646117 1_555
H17 N5 1.071273 1_555
H17 O19 1.646117 1_555
H18 N6 1.071273 1_555
H18 O16 1.646117 1_555
H19 N7 1.071273 1_555
H19 O17 1.646117 1_555
H20 N8 1.066455 1_555
H20 O22 1.674128 1_555
H21 N9 1.066455 1_555
H21 O23 1.674128 1_555
H22 N10 1.066455 1_555
H22 O20 1.674128 1_555
H23 N11 1.066455 1_555
H23 O21 1.674128 1_555
H24 N12 1.031943 1_555
H25 N13 1.031943 1_555
H26 N13 1.031943 1_555
H27 N12 1.031943 1_555
H28 N14 1.031488 1_555
H29 N15 1.031488 1_555
H30 N15 1.031488 1_555
H31 N14 1.031488 1_555
H32 N4 1.020112 1_554
H33 N5 1.020112 1_555
H34 N6 1.020112 1_545
H35 N7 1.020112 1_555
H36 N8 1.018861 1_556
H37 N9 1.018861 1_555
H38 N10 1.018861 1_565
H39 N11 1.018861 1_555
H40 N4 1.034069 1_555
H41 N5 1.034069 1_555
H42 N6 1.034069 1_555
H43 N7 1.034069 1_555
H44 N8 1.035020 1_555
H45 N9 1.035020 1_555
H46 N10 1.035020 1_555
H47 N11 1.035020 1_555
H48 N12 1.052268 1_555
H49 N13 1.052268 1_555
H50 N13 1.052268 1_555
H51 N12 1.052268 1_555
H52 N14 1.053065 1_555
H53 N15 1.053065 1_555
H54 N15 1.053065 1_555
H55 N14 1.053065 1_555
H56 N0 1.017568 1_555
H57 N1 1.017568 1_555
H58 N1 1.017568 1_555
H59 N0 1.017568 1_555
H60 N2 1.019780 1_555
H61 N3 1.019780 1_555
H62 N3 1.019780 1_555
H63 N2 1.019780 1_555
H64 O48 0.971521 1_555
H65 O49 0.971521 1_555
H66 O49 0.971521 1_555
H67 O48 0.971521 1_555
O0 P0 1.571647 1_555
O1 P1 1.571647 1_555
O2 P2 1.571647 1_555
O3 P3 1.571647 1_555
O4 P4 1.577420 1_555
O5 P5 1.577420 1_555
O6 P6 1.577420 1_555
O7 P7 1.577420 1_555
O8 P8 1.548866 1_555
O9 P9 1.548866 1_555
O10 P10 1.548866 1_555
O11 P11 1.548866 1_555
O12 P12 1.538063 1_555
O13 P13 1.538063 1_555
O14 P14 1.538063 1_555
O15 P15 1.538063 1_555
O16 P8 1.564223 1_665
O17 P9 1.564223 1_555
O18 P10 1.564223 1_556
O19 P11 1.564223 1_655
O20 P12 1.563045 1_445
O21 P13 1.563045 1_555
O22 P14 1.563045 1_554
O23 P15 1.563045 1_455
O24 P8 1.545576 1_555
O25 P9 1.545576 1_555
O26 P10 1.545576 1_555
O27 P11 1.545576 1_555
O28 P12 1.571169 1_555
O29 P13 1.571169 1_555
O30 P14 1.571169 1_555
O31 P15 1.571169 1_555
O32 P0 1.552164 1_555
O33 P1 1.552164 1_555
O34 P2 1.552164 1_555
O35 P3 1.552164 1_555
O36 P4 1.555904 1_555
O37 P5 1.555904 1_555
O38 P6 1.555904 1_555
O39 P7 1.555904 1_555
O40 P0 1.531530 1_555
O41 P1 1.531530 1_555
O42 P2 1.531530 1_555
O43 P3 1.531530 1_555
O44 P4 1.537125 1_555
O45 P5 1.537125 1_555
O46 P6 1.537125 1_555
O47 P7 1.537125 1_555
O50 P8 1.542952 1_565
O51 P9 1.542952 1_555
O52 P10 1.542952 1_556
O53 P11 1.542952 1_555
O54 P12 1.541302 1_545
O55 P13 1.541302 1_555
O56 P14 1.541302 1_554
O57 P15 1.541302 1_555
O58 P0 1.544071 1_545
O59 P1 1.544071 1_555
O60 P2 1.544071 1_554
O61 P3 1.544071 1_555
O62 P4 1.539112 1_565
O63 P5 1.539112 1_555
O64 P6 1.539112 1_556
O65 P7 1.539112 1_555
