# generated using pymatgen
data_V5ZnO7
_symmetry_space_group_name_H-M   'P 1'
_cell_length_a   5.32135027
_cell_length_b   5.32135027
_cell_length_c   18.48765100
_cell_angle_alpha   90.00000000
_cell_angle_beta   90.00000000
_cell_angle_gamma   147.70691543
_symmetry_Int_Tables_number   1
_chemical_formula_structural   V5ZnO7
_chemical_formula_sum   'V10 Zn2 O14'
_cell_volume   279.68567464
_cell_formula_units_Z   2
loop_
 _symmetry_equiv_pos_site_id
 _symmetry_equiv_pos_as_xyz
  1  'x, y, z'
loop_
 _atom_site_type_symbol
 _atom_site_label
 _atom_site_symmetry_multiplicity
 _atom_site_fract_x
 _atom_site_fract_y
 _atom_site_fract_z
 _atom_site_occupancy
  V  V0  1  0.72699500  0.27300500  0.57752900  1
  V  V1  1  0.53697400  0.46302600  0.15555300  1
  V  V2  1  0.00000000  0.00000000  0.50000000  1
  V  V3  1  0.00000000  0.00000000  0.00000000  1
  V  V4  1  0.46302600  0.53697400  0.84444700  1
  V  V5  1  0.27300500  0.72699500  0.42247100  1
  V  V6  1  0.27300500  0.72699500  0.07752900  1
  V  V7  1  0.72699500  0.27300500  0.92247100  1
  V  V8  1  0.46302600  0.53697400  0.65555300  1
  V  V9  1  0.53697400  0.46302600  0.34444700  1
  Zn  Zn0  1  0.20866500  0.79133500  0.75000000  1
  Zn  Zn1  1  0.79133500  0.20866500  0.25000000  1
  O  O0  1  0.36214200  0.63785800  0.96421500  1
  O  O1  1  0.63785800  0.36214200  0.03578500  1
  O  O2  1  0.63785800  0.36214200  0.46421500  1
  O  O3  1  0.36214200  0.63785800  0.53578500  1
  O  O4  1  0.82748100  0.17251900  0.82499800  1
  O  O5  1  0.17251900  0.82748100  0.17500200  1
  O  O6  1  0.17251900  0.82748100  0.32499800  1
  O  O7  1  0.82748100  0.17251900  0.67500200  1
  O  O8  1  0.08321500  0.91678500  0.89460200  1
  O  O9  1  0.91678500  0.08321500  0.10539800  1
  O  O10  1  0.91678500  0.08321500  0.39460200  1
  O  O11  1  0.08321500  0.91678500  0.60539800  1
  O  O12  1  0.57099300  0.42900700  0.75000000  1
  O  O13  1  0.42900700  0.57099300  0.25000000  1
loop_
_geom_bond_atom_site_label_1
_geom_bond_atom_site_label_2
_geom_bond_distance
_geom_bond_site_symmetry_2
O0 V3 2.147967 1_666
O0 V3 2.147967 1_556
O0 V7 2.166638 1_565
O0 V7 2.166638 1_455
O0 V6 2.284513 1_556
O0 V4 2.442630 1_555
O1 V3 2.147967 1_555
O1 V3 2.147967 1_665
O1 V6 2.166638 1_655
O1 V6 2.166638 1_545
O1 V7 2.284513 1_554
O1 V1 2.442630 1_555
O2 V2 2.147967 1_665
O2 V2 2.147967 1_555
O2 V5 2.166638 1_655
O2 V5 2.166638 1_545
O2 V0 2.284513 1_555
O2 V9 2.442630 1_555
O3 V2 2.147967 1_555
O3 V2 2.147967 1_665
O3 V0 2.166638 1_565
O3 V0 2.166638 1_455
O3 V5 2.284513 1_555
O3 V8 2.442630 1_555
O4 V4 2.058950 1_655
O4 V4 2.058950 1_545
O4 V7 2.074278 1_555
O4 Zn0 2.363846 1_545
O4 Zn0 2.363846 1_655
O5 V1 2.058950 1_565
O5 V1 2.058950 1_455
O5 V6 2.074278 1_555
O5 Zn1 2.363846 1_455
O5 Zn1 2.363846 1_565
O6 V9 2.058950 1_565
O6 V9 2.058950 1_455
O6 V5 2.074278 1_555
O6 Zn1 2.363846 1_455
O6 Zn1 2.363846 1_565
O7 V8 2.058950 1_655
O7 V8 2.058950 1_545
O7 V0 2.074278 1_555
O7 Zn0 2.363846 1_545
O7 Zn0 2.363846 1_655
O8 V3 2.126165 1_566
O8 V4 2.135268 1_565
O8 V4 2.135268 1_455
O8 V7 2.148451 1_565
O8 V7 2.148451 1_455
O9 V3 2.126165 1_655
O9 V1 2.135268 1_655
O9 V1 2.135268 1_545
O9 V6 2.148451 1_655
O9 V6 2.148451 1_545
O10 V2 2.126165 1_655
O10 V9 2.135268 1_655
O10 V9 2.135268 1_545
O10 V5 2.148451 1_655
O10 V5 2.148451 1_545
O11 V2 2.126165 1_565
O11 V8 2.135268 1_565
O11 V8 2.135268 1_455
O11 V0 2.148451 1_565
O11 V0 2.148451 1_455
O12 Zn0 2.042234 1_655
O12 Zn0 2.042234 1_545
O12 V4 2.065697 1_555
O12 V8 2.065697 1_555
O13 Zn1 2.042234 1_565
O13 Zn1 2.042234 1_455
O13 V9 2.065697 1_555
O13 V1 2.065697 1_555
