# generated using pymatgen
data_Sr6Ga5N
_symmetry_space_group_name_H-M   'P 1'
_cell_length_a   14.08070093
_cell_length_b   14.08070085
_cell_length_c   14.08070093
_cell_angle_alpha   31.19345657
_cell_angle_beta   31.19347173
_cell_angle_gamma   31.19345579
_symmetry_Int_Tables_number   1
_chemical_formula_structural   Sr6Ga5N
_chemical_formula_sum   'Sr12 Ga10 N2'
_cell_volume   664.54346918
_cell_formula_units_Z   2
loop_
 _symmetry_equiv_pos_site_id
 _symmetry_equiv_pos_as_xyz
  1  'x, y, z'
loop_
 _atom_site_type_symbol
 _atom_site_label
 _atom_site_symmetry_multiplicity
 _atom_site_fract_x
 _atom_site_fract_y
 _atom_site_fract_z
 _atom_site_occupancy
  Sr  Sr0  1  0.78451713  0.24219507  0.36474856  1
  Sr  Sr1  1  0.24219547  0.36474853  0.78451669  1
  Sr  Sr2  1  0.36474831  0.78451711  0.24219516  1
  Sr  Sr3  1  0.71549011  0.13525722  0.25780524  1
  Sr  Sr4  1  0.13525729  0.25780509  0.71549020  1
  Sr  Sr5  1  0.25780518  0.71549030  0.13525714  1
  Sr  Sr6  1  0.21550573  0.75781141  0.63526423  1
  Sr  Sr7  1  0.75781129  0.63526425  0.21550598  1
  Sr  Sr8  1  0.63526440  0.21550578  0.75781139  1
  Sr  Sr9  1  0.28448729  0.86473017  0.74218824  1
  Sr  Sr10  1  0.86473032  0.74218863  0.28448685  1
  Sr  Sr11  1  0.74218856  0.28448686  0.86473023  1
  Ga  Ga0  1  0.24998838  0.45644890  0.04353421  1
  Ga  Ga1  1  0.19521099  0.19521143  0.19520987  1
  Ga  Ga2  1  0.69520548  0.69520556  0.69520573  1
  Ga  Ga3  1  0.30477982  0.30477955  0.30477962  1
  Ga  Ga4  1  0.80480400  0.80480351  0.80480497  1
  Ga  Ga5  1  0.45644817  0.04353363  0.24998934  1
  Ga  Ga6  1  0.04353369  0.24998885  0.45644861  1
  Ga  Ga7  1  0.75001085  0.54356983  0.95644717  1
  Ga  Ga8  1  0.54357027  0.95644719  0.75001059  1
  Ga  Ga9  1  0.95644697  0.75001091  0.54357013  1
  N  N0  1  0.50000605  0.50000608  0.50000592  1
  N  N1  1  -0.00000575  -0.00000587  -0.00000606  1
loop_
_geom_bond_atom_site_label_1
_geom_bond_atom_site_label_2
_geom_bond_distance
_geom_bond_site_symmetry_2
Ga0 Ga1 2.698549 1_555
Ga0 Ga3 2.698861 1_555
Ga0 Ga6 2.707567 1_555
Ga0 Ga5 2.707570 1_555
Ga0 Sr6 3.287228 1_554
Ga0 Sr9 3.287551 1_554
Ga0 Sr8 3.413156 1_554
Ga0 Sr10 3.413470 1_455
Ga0 Sr7 3.478288 1_455
Ga0 Sr11 3.478656 1_554
Ga1 Ga5 2.698549 1_555
Ga1 Ga6 2.698552 1_555
Ga1 Sr8 3.337066 1_554
Ga1 Sr7 3.337067 1_455
Ga1 Sr6 3.337073 1_545
Ga1 Sr1 3.480867 1_554
Ga1 Sr0 3.480871 1_455
Ga1 Sr2 3.480872 1_545
Ga2 Ga7 2.699254 1_555
Ga2 Ga8 2.699256 1_555
Ga2 Ga9 2.699256 1_555
Ga2 Sr5 3.337048 1_556
Ga2 Sr3 3.337048 1_565
Ga2 Sr4 3.337048 1_655
Ga2 Sr9 3.481307 1_555
Ga2 Sr11 3.481309 1_555
Ga2 Sr10 3.481309 1_555
Ga3 Ga5 2.698864 1_555
Ga3 Ga6 2.698866 1_555
Ga3 Sr9 3.337068 1_545
Ga3 Sr10 3.337070 1_455
Ga3 Sr11 3.337070 1_554
Ga3 Sr3 3.481297 1_555
Ga3 Sr4 3.481299 1_555
Ga3 Sr5 3.481300 1_555
Ga4 Ga7 2.698963 1_555
Ga4 Ga8 2.698964 1_555
Ga4 Ga9 2.698965 1_555
Ga4 Sr2 3.337045 1_556
Ga4 Sr1 3.337046 1_655
Ga4 Sr0 3.337051 1_565
Ga4 Sr7 3.480875 1_556
Ga4 Sr6 3.480879 1_655
Ga4 Sr8 3.480881 1_565
Ga5 Ga6 2.707566 1_555
Ga5 Sr7 3.287224 1_545
Ga5 Sr10 3.287555 1_545
Ga5 Sr6 3.413148 1_545
Ga5 Sr11 3.413477 1_554
Ga5 Sr8 3.478291 1_554
Ga5 Sr9 3.478651 1_545
Ga6 Sr8 3.287223 1_455
Ga6 Sr11 3.287553 1_455
Ga6 Sr7 3.413149 1_455
Ga6 Sr9 3.413474 1_545
Ga6 Sr6 3.478288 1_545
Ga6 Sr10 3.478656 1_455
Ga7 Ga8 2.707321 1_555
Ga7 Ga9 2.707321 1_555
Ga7 Sr0 3.287691 1_556
Ga7 Sr3 3.288001 1_556
Ga7 Sr2 3.413482 1_556
Ga7 Sr4 3.413789 1_655
Ga7 Sr1 3.478565 1_655
Ga7 Sr5 3.478911 1_556
Ga8 Ga9 2.707319 1_555
Ga8 Sr1 3.287689 1_565
Ga8 Sr4 3.288003 1_565
Ga8 Sr0 3.413479 1_565
Ga8 Sr5 3.413791 1_556
Ga8 Sr2 3.478563 1_556
Ga8 Sr3 3.478911 1_565
Ga9 Sr2 3.287690 1_655
Ga9 Sr5 3.288004 1_655
Ga9 Sr1 3.413480 1_655
Ga9 Sr3 3.413788 1_565
Ga9 Sr0 3.478561 1_565
Ga9 Sr4 3.478912 1_655
N0 Sr7 2.597811 1_555
N0 Sr6 2.597811 1_555
N0 Sr8 2.597812 1_555
N0 Sr1 2.597816 1_555
N0 Sr0 2.597817 1_555
N0 Sr2 2.597817 1_555
N1 Sr11 2.597890 1_454
N1 Sr10 2.597890 1_445
N1 Sr9 2.597892 1_544
N1 Sr5 2.597894 1_545
N1 Sr4 2.597894 1_554
N1 Sr3 2.597897 1_455
