# generated using pymatgen
data_CuP2H18C6Cl
_symmetry_space_group_name_H-M   'P 1'
_cell_length_a   14.08364009
_cell_length_b   14.08364009
_cell_length_c   14.08364009
_cell_angle_alpha   90.00000000
_cell_angle_beta   90.00000000
_cell_angle_gamma   90.00000000
_symmetry_Int_Tables_number   1
_chemical_formula_structural   CuP2H18C6Cl
_chemical_formula_sum   'Cu8 P16 H144 C48 Cl8'
_cell_volume   2793.47477595
_cell_formula_units_Z   8
loop_
 _symmetry_equiv_pos_site_id
 _symmetry_equiv_pos_as_xyz
  1  'x, y, z'
loop_
 _atom_site_type_symbol
 _atom_site_label
 _atom_site_symmetry_multiplicity
 _atom_site_fract_x
 _atom_site_fract_y
 _atom_site_fract_z
 _atom_site_occupancy
  Cu  Cu0  1  0.95637967  0.45637967  0.04362033  1
  Cu  Cu1  1  0.45637967  0.04362033  0.95637967  1
  Cu  Cu2  1  0.04362033  0.95637967  0.45637967  1
  Cu  Cu3  1  0.54362033  0.54362033  0.54362033  1
  Cu  Cu4  1  0.63400595  0.13400595  0.36599405  1
  Cu  Cu5  1  0.13400595  0.36599405  0.63400595  1
  Cu  Cu6  1  0.36599405  0.63400595  0.13400595  1
  Cu  Cu7  1  0.86599405  0.86599405  0.86599405  1
  P  P0  1  0.05024469  0.55024469  0.94975531  1
  P  P1  1  0.55024469  0.94975531  0.05024469  1
  P  P2  1  0.94975531  0.05024469  0.55024469  1
  P  P3  1  0.44975531  0.44975531  0.44975531  1
  P  P4  1  0.02666934  0.43774569  0.18926188  1
  P  P5  1  0.81073812  0.52666934  0.06225431  1
  P  P6  1  0.93774569  0.31073812  0.97333066  1
  P  P7  1  0.52666934  0.06225431  0.81073812  1
  P  P8  1  0.31073812  0.97333066  0.93774569  1
  P  P9  1  0.43774569  0.18926188  0.02666934  1
  P  P10  1  0.97333066  0.93774569  0.31073812  1
  P  P11  1  0.18926188  0.02666934  0.43774569  1
  P  P12  1  0.06225431  0.81073812  0.52666934  1
  P  P13  1  0.47333066  0.56225431  0.68926188  1
  P  P14  1  0.68926188  0.47333066  0.56225431  1
  P  P15  1  0.56225431  0.68926188  0.47333066  1
  H  H0  1  0.06007652  0.62185153  0.79297669  1
  H  H1  1  0.20702331  0.56007652  0.87814847  1
  H  H2  1  0.12185153  0.70702331  0.93992348  1
  H  H3  1  0.56007652  0.87814847  0.20702331  1
  H  H4  1  0.70702331  0.93992348  0.12185153  1
  H  H5  1  0.62185153  0.79297669  0.06007652  1
  H  H6  1  0.93992348  0.12185153  0.70702331  1
  H  H7  1  0.79297669  0.06007652  0.62185153  1
  H  H8  1  0.87814847  0.20702331  0.56007652  1
  H  H9  1  0.43992348  0.37814847  0.29297669  1
  H  H10  1  0.29297669  0.43992348  0.37814847  1
  H  H11  1  0.37814847  0.29297669  0.43992348  1
  H  H12  1  0.93980327  0.61407083  0.83159547  1
  H  H13  1  0.16840453  0.43980327  0.88592917  1
  H  H14  1  0.11407083  0.66840453  0.06019673  1
  H  H15  1  0.43980327  0.88592917  0.16840453  1
  H  H16  1  0.66840453  0.06019673  0.11407083  1
  H  H17  1  0.61407083  0.83159547  0.93980327  1
  H  H18  1  0.06019673  0.11407083  0.66840453  1
  H  H19  1  0.83159547  0.93980327  0.61407083  1
  H  H20  1  0.88592917  0.16840453  0.43980327  1
  H  H21  1  0.56019673  0.38592917  0.33159547  1
  H  H22  1  0.33159547  0.56019673  0.38592917  1
  H  H23  1  0.38592917  0.33159547  0.56019673  1
  H  H24  1  0.00011006  0.51096930  0.78818998  1
  H  H25  1  0.21181002  0.50011006  0.98903070  1
  H  H26  1  0.01096930  0.71181002  0.99988994  1
  H  H27  1  0.50011006  0.98903070  0.21181002  1
  H  H28  1  0.71181002  0.99988994  0.01096930  1
  H  H29  1  0.51096930  0.78818998  0.00011006  1
  H  H30  1  0.99988994  0.01096930  0.71181002  1
  H  H31  1  0.78818998  0.00011006  0.51096930  1
  H  H32  1  0.98903070  0.21181002  0.50011006  1
  H  H33  1  0.49988994  0.48903070  0.28818998  1
  H  H34  1  0.28818998  0.49988994  0.48903070  1
  H  H35  1  0.48903070  0.28818998  0.49988994  1
  H  H36  1  0.97286392  0.27937077  0.23444894  1
  H  H37  1  0.76555106  0.47286392  0.22062923  1
  H  H38  1  0.77937077  0.26555106  0.02713608  1
  H  H39  1  0.47286392  0.22062923  0.76555106  1
  H  H40  1  0.26555106  0.02713608  0.77937077  1
  H  H41  1  0.27937077  0.23444894  0.97286392  1
  H  H42  1  0.02713608  0.77937077  0.26555106  1
  H  H43  1  0.23444894  0.97286392  0.27937077  1
  H  H44  1  0.22062923  0.76555106  0.47286392  1
  H  H45  1  0.52713608  0.72062923  0.73444894  1
  H  H46  1  0.73444894  0.52713608  0.72062923  1
  H  H47  1  0.72062923  0.73444894  0.52713608  1
  H  H48  1  0.90432419  0.36853126  0.29069819  1
  H  H49  1  0.70930181  0.40432419  0.13146874  1
  H  H50  1  0.86853126  0.20930181  0.09567581  1
  H  H51  1  0.40432419  0.13146874  0.70930181  1
  H  H52  1  0.20930181  0.09567581  0.86853126  1
  H  H53  1  0.36853126  0.29069819  0.90432419  1
  H  H54  1  0.09567581  0.86853126  0.20930181  1
  H  H55  1  0.29069819  0.90432419  0.36853126  1
  H  H56  1  0.13146874  0.70930181  0.40432419  1
  H  H57  1  0.59567581  0.63146874  0.79069819  1
  H  H58  1  0.79069819  0.59567581  0.63146874  1
  H  H59  1  0.63146874  0.79069819  0.59567581  1
  H  H60  1  0.02022564  0.34259319  0.33443560  1
  H  H61  1  0.66556440  0.52022564  0.15740681  1
  H  H62  1  0.84259319  0.16556440  0.97977436  1
  H  H63  1  0.52022564  0.15740681  0.66556440  1
  H  H64  1  0.16556440  0.97977436  0.84259319  1
  H  H65  1  0.34259319  0.33443560  0.02022564  1
  H  H66  1  0.97977436  0.84259319  0.16556440  1
  H  H67  1  0.33443560  0.02022564  0.34259319  1
  H  H68  1  0.15740681  0.66556440  0.52022564  1
  H  H69  1  0.47977436  0.65740681  0.83443560  1
  H  H70  1  0.83443560  0.47977436  0.65740681  1
  H  H71  1  0.65740681  0.83443560  0.47977436  1
  H  H72  1  0.06293950  0.60169985  0.23347076  1
  H  H73  1  0.76652924  0.56293950  0.89830015  1
  H  H74  1  0.10169985  0.26652924  0.93706050  1
  H  H75  1  0.56293950  0.89830015  0.76652924  1
  H  H76  1  0.26652924  0.93706050  0.10169985  1
  H  H77  1  0.60169985  0.23347076  0.06293950  1
  H  H78  1  0.93706050  0.10169985  0.26652924  1
  H  H79  1  0.23347076  0.06293950  0.60169985  1
  H  H80  1  0.89830015  0.76652924  0.56293950  1
  H  H81  1  0.43706050  0.39830015  0.73347076  1
  H  H82  1  0.73347076  0.43706050  0.39830015  1
  H  H83  1  0.39830015  0.73347076  0.43706050  1
  H  H84  1  0.07251975  0.52330992  0.33312444  1
  H  H85  1  0.66687556  0.57251975  0.97669008  1
  H  H86  1  0.02330992  0.16687556  0.92748025  1
  H  H87  1  0.57251975  0.97669008  0.66687556  1
  H  H88  1  0.16687556  0.92748025  0.02330992  1
  H  H89  1  0.52330992  0.33312444  0.07251975  1
  H  H90  1  0.92748025  0.02330992  0.16687556  1
  H  H91  1  0.33312444  0.07251975  0.52330992  1
  H  H92  1  0.97669008  0.66687556  0.57251975  1
  H  H93  1  0.42748025  0.47669008  0.83312444  1
  H  H94  1  0.83312444  0.42748025  0.47669008  1
  H  H95  1  0.47669008  0.83312444  0.42748025  1
  H  H96  1  0.95836321  0.55845139  0.29173508  1
  H  H97  1  0.70826492  0.45836321  0.94154861  1
  H  H98  1  0.05845139  0.20826492  0.04163679  1
  H  H99  1  0.45836321  0.94154861  0.70826492  1
  H  H100  1  0.20826492  0.04163679  0.05845139  1
  H  H101  1  0.55845139  0.29173508  0.95836321  1
  H  H102  1  0.04163679  0.05845139  0.20826492  1
  H  H103  1  0.29173508  0.95836321  0.55845139  1
  H  H104  1  0.94154861  0.70826492  0.45836321  1
  H  H105  1  0.54163679  0.44154861  0.79173508  1
  H  H106  1  0.79173508  0.54163679  0.44154861  1
  H  H107  1  0.44154861  0.79173508  0.54163679  1
  H  H108  1  0.19575961  0.45059093  0.14879872  1
  H  H109  1  0.85120128  0.69575961  0.04940907  1
  H  H110  1  0.95059093  0.35120128  0.80424039  1
  H  H111  1  0.69575961  0.04940907  0.85120128  1
  H  H112  1  0.35120128  0.80424039  0.95059093  1
  H  H113  1  0.45059093  0.14879872  0.19575961  1
  H  H114  1  0.80424039  0.95059093  0.35120128  1
  H  H115  1  0.14879872  0.19575961  0.45059093  1
  H  H116  1  0.04940907  0.85120128  0.69575961  1
  H  H117  1  0.30424039  0.54940907  0.64879872  1
  H  H118  1  0.64879872  0.30424039  0.54940907  1
  H  H119  1  0.54940907  0.64879872  0.30424039  1
  H  H120  1  0.15957622  0.32988530  0.16307176  1
  H  H121  1  0.83692824  0.65957622  0.17011470  1
  H  H122  1  0.82988530  0.33692824  0.84042378  1
  H  H123  1  0.65957622  0.17011470  0.83692824  1
  H  H124  1  0.33692824  0.84042378  0.82988530  1
  H  H125  1  0.32988530  0.16307176  0.15957622  1
  H  H126  1  0.84042378  0.82988530  0.33692824  1
  H  H127  1  0.16307176  0.15957622  0.32988530  1
  H  H128  1  0.17011470  0.83692824  0.65957622  1
  H  H129  1  0.34042378  0.67011470  0.66307176  1
  H  H130  1  0.66307176  0.34042378  0.67011470  1
  H  H131  1  0.67011470  0.66307176  0.34042378  1
  H  H132  1  0.17822584  0.40333839  0.26492478  1
  H  H133  1  0.73507522  0.67822584  0.09666161  1
  H  H134  1  0.90333839  0.23507522  0.82177416  1
  H  H135  1  0.67822584  0.09666161  0.73507522  1
  H  H136  1  0.23507522  0.82177416  0.90333839  1
  H  H137  1  0.40333839  0.26492478  0.17822584  1
  H  H138  1  0.82177416  0.90333839  0.23507522  1
  H  H139  1  0.26492478  0.17822584  0.40333839  1
  H  H140  1  0.09666161  0.73507522  0.67822584  1
  H  H141  1  0.32177416  0.59666161  0.76492478  1
  H  H142  1  0.76492478  0.32177416  0.59666161  1
  H  H143  1  0.59666161  0.76492478  0.32177416  1
  C  C0  1  0.00812808  0.57656023  0.82950168  1
  C  C1  1  0.17049832  0.50812808  0.92343977  1
  C  C2  1  0.07656023  0.67049832  0.99187192  1
  C  C3  1  0.50812808  0.92343977  0.17049832  1
  C  C4  1  0.67049832  0.99187192  0.07656023  1
  C  C5  1  0.57656023  0.82950168  0.00812808  1
  C  C6  1  0.99187192  0.07656023  0.67049832  1
  C  C7  1  0.82950168  0.00812808  0.57656023  1
  C  C8  1  0.92343977  0.17049832  0.50812808  1
  C  C9  1  0.49187192  0.42343977  0.32950168  1
  C  C10  1  0.32950168  0.49187192  0.42343977  1
  C  C11  1  0.42343977  0.32950168  0.49187192  1
  C  C12  1  0.97679618  0.34858845  0.26997128  1
  C  C13  1  0.73002872  0.47679618  0.15141155  1
  C  C14  1  0.84858845  0.23002872  0.02320382  1
  C  C15  1  0.47679618  0.15141155  0.73002872  1
  C  C16  1  0.23002872  0.02320382  0.84858845  1
  C  C17  1  0.34858845  0.26997128  0.97679618  1
  C  C18  1  0.02320382  0.84858845  0.23002872  1
  C  C19  1  0.26997128  0.97679618  0.34858845  1
  C  C20  1  0.15141155  0.73002872  0.47679618  1
  C  C21  1  0.52320382  0.65141155  0.76997128  1
  C  C22  1  0.76997128  0.52320382  0.65141155  1
  C  C23  1  0.65141155  0.76997128  0.52320382  1
  C  C24  1  0.03098806  0.54045626  0.26939367  1
  C  C25  1  0.73060633  0.53098806  0.95954374  1
  C  C26  1  0.04045626  0.23060633  0.96901194  1
  C  C27  1  0.53098806  0.95954374  0.73060633  1
  C  C28  1  0.23060633  0.96901194  0.04045626  1
  C  C29  1  0.54045626  0.26939367  0.03098806  1
  C  C30  1  0.96901194  0.04045626  0.23060633  1
  C  C31  1  0.26939367  0.03098806  0.54045626  1
  C  C32  1  0.95954374  0.73060633  0.53098806  1
  C  C33  1  0.46901194  0.45954374  0.76939367  1
  C  C34  1  0.76939367  0.46901194  0.45954374  1
  C  C35  1  0.45954374  0.76939367  0.46901194  1
  C  C36  1  0.15214917  0.40217550  0.19147997  1
  C  C37  1  0.80852003  0.65214917  0.09782450  1
  C  C38  1  0.90217550  0.30852003  0.84785083  1
  C  C39  1  0.65214917  0.09782450  0.80852003  1
  C  C40  1  0.30852003  0.84785083  0.90217550  1
  C  C41  1  0.40217550  0.19147997  0.15214917  1
  C  C42  1  0.84785083  0.90217550  0.30852003  1
  C  C43  1  0.19147997  0.15214917  0.40217550  1
  C  C44  1  0.09782450  0.80852003  0.65214917  1
  C  C45  1  0.34785083  0.59782450  0.69147997  1
  C  C46  1  0.69147997  0.34785083  0.59782450  1
  C  C47  1  0.59782450  0.69147997  0.34785083  1
  Cl  Cl0  1  0.54785740  0.04785740  0.45214260  1
  Cl  Cl1  1  0.04785740  0.45214260  0.54785740  1
  Cl  Cl2  1  0.45214260  0.54785740  0.04785740  1
  Cl  Cl3  1  0.95214260  0.95214260  0.95214260  1
  Cl  Cl4  1  0.72019966  0.22019966  0.27980034  1
  Cl  Cl5  1  0.22019966  0.27980034  0.72019966  1
  Cl  Cl6  1  0.27980034  0.72019966  0.22019966  1
  Cl  Cl7  1  0.77980034  0.77980034  0.77980034  1
loop_
_geom_bond_atom_site_label_1
_geom_bond_atom_site_label_2
_geom_bond_distance
_geom_bond_site_symmetry_2
Cu0 P0 2.289704 1_654
Cu0 P4 2.292621 1_655
Cu0 P5 2.292621 1_555
Cu0 P6 2.292621 1_554
Cu1 P1 2.289704 1_546
Cu1 P8 2.292621 1_545
Cu1 P7 2.292621 1_555
Cu1 P9 2.292621 1_556
Cu2 P2 2.289704 1_465
Cu2 P11 2.292621 1_565
Cu2 P12 2.292621 1_555
Cu2 P10 2.292621 1_455
Cu3 P3 2.289704 1_555
Cu3 P15 2.292621 1_555
Cu3 P14 2.292621 1_555
Cu3 P13 2.292621 1_555
C0 H24 1.097541 1_555
C0 H12 1.098136 1_455
C0 H0 1.098525 1_555
C0 P0 1.832349 1_555
C1 H25 1.097541 1_555
C1 H13 1.098136 1_555
C1 H1 1.098525 1_555
C1 P0 1.832349 1_555
C2 H26 1.097541 1_555
C2 H14 1.098136 1_556
C2 H2 1.098525 1_555
C2 P0 1.832349 1_555
C3 H27 1.097541 1_555
C3 H15 1.098136 1_555
C3 H3 1.098525 1_555
C3 P1 1.832349 1_555
C4 H28 1.097541 1_555
C4 H16 1.098136 1_565
C4 H4 1.098525 1_555
C4 P1 1.832349 1_555
C5 H29 1.097541 1_555
C5 H17 1.098136 1_554
C5 H5 1.098525 1_555
C5 P1 1.832349 1_555
C6 H30 1.097541 1_555
C6 H18 1.098136 1_655
C6 H6 1.098525 1_555
C6 P2 1.832349 1_555
C7 H31 1.097541 1_555
C7 H19 1.098136 1_545
C7 H7 1.098525 1_555
C7 P2 1.832349 1_555
C8 H32 1.097541 1_555
C8 H20 1.098136 1_555
C8 H8 1.098525 1_555
C8 P2 1.832349 1_555
C9 H33 1.097541 1_555
C9 H21 1.098136 1_555
C9 H9 1.098525 1_555
C9 P3 1.832349 1_555
C10 H34 1.097541 1_555
C10 H22 1.098136 1_555
C10 H10 1.098525 1_555
C10 P3 1.832349 1_555
C11 H35 1.097541 1_555
C11 H23 1.098136 1_555
C11 H11 1.098525 1_555
C11 P3 1.832349 1_555
C12 H36 1.097113 1_555
C12 H60 1.097956 1_655
C12 H48 1.098118 1_555
C12 P4 1.833599 1_655
C13 H37 1.097113 1_555
C13 H61 1.097956 1_555
C13 H49 1.098118 1_555
C13 P5 1.833599 1_555
C14 H38 1.097113 1_555
C14 H62 1.097956 1_554
C14 H50 1.098118 1_555
C14 P6 1.833599 1_554
C15 H39 1.097113 1_555
C15 H63 1.097956 1_555
C15 H51 1.098118 1_555
C15 P7 1.833599 1_555
C16 H40 1.097113 1_555
C16 H64 1.097956 1_545
C16 H52 1.098118 1_555
C16 P8 1.833599 1_545
C17 H41 1.097113 1_555
C17 H65 1.097956 1_556
C17 H53 1.098118 1_555
C17 P9 1.833599 1_556
C18 H42 1.097113 1_555
C18 H66 1.097956 1_455
C18 H54 1.098118 1_555
C18 P10 1.833599 1_455
C19 H43 1.097113 1_555
C19 H67 1.097956 1_565
C19 H55 1.098118 1_555
C19 P11 1.833599 1_565
C20 H44 1.097113 1_555
C20 H68 1.097956 1_555
C20 H56 1.098118 1_555
C20 P12 1.833599 1_555
C21 H45 1.097113 1_555
C21 H69 1.097956 1_555
C21 H57 1.098118 1_555
C21 P13 1.833599 1_555
C22 H46 1.097113 1_555
C22 H70 1.097956 1_555
C22 H58 1.098118 1_555
C22 P14 1.833599 1_555
C23 H47 1.097113 1_555
C23 H71 1.097956 1_555
C23 H59 1.098118 1_555
C23 P15 1.833599 1_555
C24 H72 1.096547 1_555
C24 H84 1.098207 1_555
C24 H96 1.099727 1_455
C24 P4 1.835700 1_555
C25 H73 1.096547 1_555
C25 H85 1.098207 1_555
C25 H97 1.099727 1_555
C25 P5 1.835700 1_556
C26 H74 1.096547 1_555
C26 H86 1.098207 1_555
C26 H98 1.099727 1_556
C26 P6 1.835700 1_455
C27 H75 1.096547 1_555
C27 H87 1.098207 1_555
C27 H99 1.099727 1_555
C27 P7 1.835700 1_565
C28 H76 1.096547 1_555
C28 H88 1.098207 1_555
C28 H100 1.099727 1_565
C28 P8 1.835700 1_554
C29 H77 1.096547 1_555
C29 H89 1.098207 1_555
C29 H101 1.099727 1_554
C29 P9 1.835700 1_555
C30 H78 1.096547 1_555
C30 H90 1.098207 1_555
C30 H102 1.099727 1_655
C30 P10 1.835700 1_545
C31 H79 1.096547 1_555
C31 H91 1.098207 1_555
C31 H103 1.099727 1_545
C31 P11 1.835700 1_555
C32 H80 1.096547 1_555
C32 H92 1.098207 1_555
C32 H104 1.099727 1_555
C32 P12 1.835700 1_655
C33 H81 1.096547 1_555
C33 H93 1.098207 1_555
C33 H105 1.099727 1_555
C33 P13 1.835700 1_555
C34 H82 1.096547 1_555
C34 H94 1.098207 1_555
C34 H106 1.099727 1_555
C34 P14 1.835700 1_555
C35 H83 1.096547 1_555
C35 H95 1.098207 1_555
C35 H107 1.099727 1_555
C35 P15 1.835700 1_555
C36 H108 1.097044 1_555
C36 H132 1.097755 1_555
C36 H120 1.098890 1_555
C36 P4 1.837111 1_555
C37 H109 1.097044 1_555
C37 H133 1.097755 1_555
C37 H121 1.098890 1_555
C37 P5 1.837111 1_555
C38 H110 1.097044 1_555
C38 H134 1.097755 1_555
C38 H122 1.098890 1_555
C38 P6 1.837111 1_555
C39 H111 1.097044 1_555
C39 H135 1.097755 1_555
C39 H123 1.098890 1_555
C39 P7 1.837111 1_555
C40 H112 1.097044 1_555
C40 H136 1.097755 1_555
C40 H124 1.098890 1_555
C40 P8 1.837111 1_555
C41 H113 1.097044 1_555
C41 H137 1.097755 1_555
C41 H125 1.098890 1_555
C41 P9 1.837111 1_555
C42 H114 1.097044 1_555
C42 H138 1.097755 1_555
C42 H126 1.098890 1_555
C42 P10 1.837111 1_555
C43 H115 1.097044 1_555
C43 H139 1.097755 1_555
C43 H127 1.098890 1_555
C43 P11 1.837111 1_555
C44 H116 1.097044 1_555
C44 H140 1.097755 1_555
C44 H128 1.098890 1_555
C44 P12 1.837111 1_555
C45 H117 1.097044 1_555
C45 H141 1.097755 1_555
C45 H129 1.098890 1_555
C45 P13 1.837111 1_555
C46 H118 1.097044 1_555
C46 H142 1.097755 1_555
C46 H130 1.098890 1_555
C46 P14 1.837111 1_555
C47 H119 1.097044 1_555
C47 H143 1.097755 1_555
C47 H131 1.098890 1_555
C47 P15 1.837111 1_555
Cl0 Cu4 2.101472 1_555
Cl1 Cu5 2.101472 1_555
Cl2 Cu6 2.101472 1_555
Cl3 Cu7 2.101472 1_555
Cl4 Cu4 2.102573 1_555
Cl5 Cu5 2.102573 1_555
Cl6 Cu6 2.102573 1_555
Cl7 Cu7 2.102573 1_555
