# generated using pymatgen
data_NaLu(ReO5)4
_symmetry_space_group_name_H-M   'P 1'
_cell_length_a   5.92801424
_cell_length_b   12.32530507
_cell_length_c   12.32530507
_cell_angle_alpha   90.00000000
_cell_angle_beta   90.00000000
_cell_angle_gamma   90.00000000
_symmetry_Int_Tables_number   1
_chemical_formula_structural   NaLu(ReO5)4
_chemical_formula_sum   'Na2 Lu2 Re8 O40'
_cell_volume   900.54328721
_cell_formula_units_Z   2
loop_
 _symmetry_equiv_pos_site_id
 _symmetry_equiv_pos_as_xyz
  1  'x, y, z'
loop_
 _atom_site_type_symbol
 _atom_site_label
 _atom_site_symmetry_multiplicity
 _atom_site_fract_x
 _atom_site_fract_y
 _atom_site_fract_z
 _atom_site_occupancy
  Na  Na0  1  0.00000000  0.00000000  0.00000000  1
  Na  Na1  1  0.50000000  0.50000000  0.50000000  1
  Lu  Lu0  1  0.25000000  0.00000000  0.50000000  1
  Lu  Lu1  1  0.75000000  0.50000000  0.00000000  1
  Re  Re0  1  0.02953332  0.41586207  0.27618510  1
  Re  Re1  1  0.02953332  0.58413793  0.72381490  1
  Re  Re2  1  0.97046668  0.27618510  0.58413793  1
  Re  Re3  1  0.52953332  0.91586207  0.22381490  1
  Re  Re4  1  0.97046668  0.72381490  0.41586207  1
  Re  Re5  1  0.52953332  0.08413793  0.77618510  1
  Re  Re6  1  0.47046668  0.77618510  0.91586207  1
  Re  Re7  1  0.47046668  0.22381490  0.08413793  1
  O  O0  1  0.20114788  0.18779991  0.04148023  1
  O  O1  1  0.20114788  0.81220009  0.95851977  1
  O  O2  1  0.79885212  0.04148023  0.81220009  1
  O  O3  1  0.70114788  0.68779991  0.45851977  1
  O  O4  1  0.79885212  0.95851977  0.18779991  1
  O  O5  1  0.70114788  0.31220009  0.54148023  1
  O  O6  1  0.29885212  0.54148023  0.68779991  1
  O  O7  1  0.29885212  0.45851977  0.31220009  1
  O  O8  1  0.16939599  0.35943070  0.52254792  1
  O  O9  1  0.16939599  0.64056930  0.47745208  1
  O  O10  1  0.83060401  0.52254792  0.64056930  1
  O  O11  1  0.66939599  0.85943070  0.97745208  1
  O  O12  1  0.83060401  0.47745208  0.35943070  1
  O  O13  1  0.66939599  0.14056930  0.02254792  1
  O  O14  1  0.33060401  0.02254792  0.85943070  1
  O  O15  1  0.33060401  0.97745208  0.14056930  1
  O  O16  1  0.02575667  0.13502342  0.55112994  1
  O  O17  1  0.02575667  0.86497658  0.44887006  1
  O  O18  1  0.97424333  0.55112994  0.86497658  1
  O  O19  1  0.52575667  0.63502342  0.94887006  1
  O  O20  1  0.97424333  0.44887006  0.13502342  1
  O  O21  1  0.52575667  0.36497658  0.05112994  1
  O  O22  1  0.47424333  0.05112994  0.63502342  1
  O  O23  1  0.47424333  0.94887006  0.36497658  1
  O  O24  1  0.49038856  0.20841352  0.22345696  1
  O  O25  1  0.49038856  0.79158648  0.77654304  1
  O  O26  1  0.50961144  0.22345696  0.79158648  1
  O  O27  1  0.99038856  0.70841352  0.27654304  1
  O  O28  1  0.50961144  0.77654304  0.20841352  1
  O  O29  1  0.99038856  0.29158648  0.72345696  1
  O  O30  1  0.00961144  0.72345696  0.70841352  1
  O  O31  1  0.00961144  0.27654304  0.29158648  1
  O  O32  1  0.00482234  0.07305000  0.36917698  1
  O  O33  1  0.00482234  0.92695000  0.63082302  1
  O  O34  1  0.99517766  0.36917698  0.92695000  1
  O  O35  1  0.50482234  0.57305000  0.13082302  1
  O  O36  1  0.99517766  0.63082302  0.07305000  1
  O  O37  1  0.50482234  0.42695000  0.86917698  1
  O  O38  1  0.49517766  0.86917698  0.57305000  1
  O  O39  1  0.49517766  0.13082302  0.42695000  1
loop_
_geom_bond_atom_site_label_1
_geom_bond_atom_site_label_2
_geom_bond_distance
_geom_bond_site_symmetry_2
Na0 O13 2.630572 1_455
Na0 O15 2.630572 1_545
Na0 O11 2.630572 1_444
Na0 O14 2.630572 1_554
Na0 O2 2.653491 1_454
Na0 O1 2.653491 1_544
Na0 O4 2.653491 1_445
Na0 O0 2.653491 1_555
Na1 O8 2.630572 1_555
Na1 O10 2.630572 1_555
Na1 O12 2.630572 1_555
Na1 O9 2.630572 1_555
Na1 O7 2.653491 1_555
Na1 O5 2.653491 1_555
Na1 O6 2.653491 1_555
Na1 O3 2.653491 1_555
Lu0 O17 2.221217 1_545
Lu0 O23 2.221217 1_545
Lu0 O16 2.221217 1_555
Lu0 O22 2.221217 1_555
Lu0 O33 2.350110 1_545
Lu0 O39 2.350110 1_555
Lu0 O32 2.350110 1_555
Lu0 O38 2.350110 1_545
Lu1 O19 2.221217 1_554
Lu1 O21 2.221217 1_555
Lu1 O20 2.221217 1_555
Lu1 O18 2.221217 1_554
Lu1 O37 2.350110 1_554
Lu1 O35 2.350110 1_555
Lu1 O36 2.350110 1_555
Lu1 O34 2.350110 1_554
O0 Re7 1.738497 1_555
O1 Re6 1.738497 1_555
O2 Re5 1.738497 1_555
O3 Re4 1.738497 1_555
O4 Re3 1.738497 1_555
O5 Re2 1.738497 1_555
O6 Re1 1.738497 1_555
O7 Re0 1.738497 1_555
O8 Re2 1.737709 1_455
O9 Re4 1.737709 1_455
O10 Re1 1.737709 1_655
O11 Re6 1.737709 1_555
O12 Re0 1.737709 1_655
O13 Re7 1.737709 1_555
O14 Re5 1.737709 1_555
O15 Re3 1.737709 1_555
O16 Re2 1.816606 1_455
O17 Re4 1.816606 1_455
O18 Re1 1.816606 1_655
O19 Re6 1.816606 1_555
O20 Re0 1.816606 1_655
O21 Re7 1.816606 1_555
O22 Re5 1.816606 1_555
O23 Re3 1.816606 1_555
O24 Re7 1.731642 1_555
O25 Re6 1.731642 1_555
O26 Re5 1.731642 1_555
O27 Re4 1.731642 1_555
O28 Re3 1.731642 1_555
O29 Re2 1.731642 1_555
O30 Re1 1.731642 1_555
O31 Re0 1.731642 1_555
