# generated using pymatgen
data_SmMo6(SeS)4
_symmetry_space_group_name_H-M   'P 1'
_cell_length_a   6.62955700
_cell_length_b   6.68298255
_cell_length_c   6.69670640
_cell_angle_alpha   87.61857380
_cell_angle_beta   88.45085800
_cell_angle_gamma   88.69043009
_symmetry_Int_Tables_number   1
_chemical_formula_structural   SmMo6(SeS)4
_chemical_formula_sum   'Sm1 Mo6 Se4 S4'
_cell_volume   296.26426672
_cell_formula_units_Z   1
loop_
 _symmetry_equiv_pos_site_id
 _symmetry_equiv_pos_as_xyz
  1  'x, y, z'
loop_
 _atom_site_type_symbol
 _atom_site_label
 _atom_site_symmetry_multiplicity
 _atom_site_fract_x
 _atom_site_fract_y
 _atom_site_fract_z
 _atom_site_occupancy
  Sm  Sm0  1  0.00088100  0.01914600  0.98338400  1
  Mo  Mo0  1  0.56588200  0.23031500  0.42862000  1
  Mo  Mo1  1  0.42385200  0.56004500  0.23357100  1
  Mo  Mo2  1  0.22637400  0.41864500  0.56526500  1
  Mo  Mo3  1  0.43571500  0.76739600  0.57489300  1
  Mo  Mo4  1  0.57800700  0.43316600  0.77237900  1
  Mo  Mo5  1  0.77563000  0.57470500  0.43713000  1
  Se  Se0  1  0.63296700  0.88137000  0.23621100  1
  Se  Se1  1  0.23458300  0.62655600  0.88093400  1
  Se  Se2  1  0.23678000  0.23369000  0.24538800  1
  Se  Se3  1  0.76410700  0.76013400  0.75768900  1
  S  S0  1  0.13101300  0.74030300  0.37262600  1
  S  S1  1  0.37488900  0.12558500  0.74690400  1
  S  S2  1  0.74705000  0.37510200  0.13291200  1
  S  S3  1  0.87227100  0.25384200  0.63209400  1
loop_
_geom_bond_atom_site_label_1
_geom_bond_atom_site_label_2
_geom_bond_distance
_geom_bond_site_symmetry_2
Mo0 S2 2.462839 1_555
Mo0 S3 2.487837 1_555
Mo0 Se2 2.531130 1_555
Mo0 S1 2.531174 1_555
Mo0 Se0 2.732683 1_545
Mo1 S0 2.444575 1_555
Mo1 Se2 2.530855 1_555
Mo1 S2 2.538326 1_555
Mo1 Se0 2.583442 1_555
Mo1 Se1 2.719599 1_554
Mo2 S1 2.462401 1_555
Mo2 Se2 2.515834 1_555
Mo2 S0 2.536996 1_555
Mo2 Se1 2.579942 1_555
Mo2 S3 2.635280 1_455
Mo3 S0 2.476513 1_555
Mo3 Se3 2.524860 1_555
Mo3 Se1 2.571678 1_555
Mo3 Se0 2.678786 1_555
Mo3 S1 2.716533 1_565
Mo4 S3 2.451969 1_555
Mo4 S1 2.497157 1_555
Mo4 Se3 2.530889 1_555
Mo4 Se1 2.690075 1_555
Mo4 S2 2.698946 1_556
Mo5 S2 2.494793 1_555
Mo5 Se3 2.521439 1_555
Mo5 S3 2.542243 1_555
Mo5 Se0 2.579946 1_555
Mo5 S0 2.643230 1_655
Se0 Sm0 3.068136 1_664
Se1 Sm0 3.108235 1_565
Se2 Sm0 2.835486 1_554
Se3 Sm0 2.866096 1_665
S0 Sm0 3.264341 1_564
S1 Sm0 2.989406 1_555
S2 Sm0 3.068754 1_654
S3 Sm0 2.908943 1_655
