# generated using pymatgen
data_Mn(NiN)2
_symmetry_space_group_name_H-M   'P 1'
_cell_length_a   5.04812400
_cell_length_b   2.81366500
_cell_length_c   13.95263300
_cell_angle_alpha   90.00000000
_cell_angle_beta   90.00000000
_cell_angle_gamma   90.00000000
_symmetry_Int_Tables_number   1
_chemical_formula_structural   Mn(NiN)2
_chemical_formula_sum   'Mn4 Ni8 N8'
_cell_volume   198.17942933
_cell_formula_units_Z   4
loop_
 _symmetry_equiv_pos_site_id
 _symmetry_equiv_pos_as_xyz
  1  'x, y, z'
loop_
 _atom_site_type_symbol
 _atom_site_label
 _atom_site_symmetry_multiplicity
 _atom_site_fract_x
 _atom_site_fract_y
 _atom_site_fract_z
 _atom_site_occupancy
  Mn  Mn0  1  0.37697900  0.25000000  0.19748000  1
  Mn  Mn1  1  0.87697900  0.25000000  0.30252000  1
  Mn  Mn2  1  0.62302100  0.75000000  0.80252000  1
  Mn  Mn3  1  0.12302100  0.75000000  0.69748000  1
  Ni  Ni0  1  0.70427100  0.25000000  0.96720700  1
  Ni  Ni1  1  0.20427100  0.25000000  0.53279300  1
  Ni  Ni2  1  0.29572900  0.75000000  0.03279300  1
  Ni  Ni3  1  0.79572900  0.75000000  0.46720700  1
  Ni  Ni4  1  0.18565200  0.25000000  0.86701600  1
  Ni  Ni5  1  0.68565200  0.25000000  0.63298400  1
  Ni  Ni6  1  0.81434800  0.75000000  0.13298400  1
  Ni  Ni7  1  0.31434800  0.75000000  0.36701600  1
  N  N0  1  0.52723900  0.25000000  0.31467400  1
  N  N1  1  0.02723900  0.25000000  0.18532600  1
  N  N2  1  0.47276100  0.75000000  0.68532600  1
  N  N3  1  0.97276100  0.75000000  0.81467400  1
  N  N4  1  0.55436700  0.25000000  0.08985900  1
  N  N5  1  0.05436700  0.25000000  0.41014100  1
  N  N6  1  0.44563300  0.75000000  0.91014100  1
  N  N7  1  0.94563300  0.75000000  0.58985900  1
loop_
_geom_bond_atom_site_label_1
_geom_bond_atom_site_label_2
_geom_bond_distance
_geom_bond_site_symmetry_2
Mn0 N4 1.748333 1_555
Mn0 N1 1.773656 1_555
Mn0 N0 1.802535 1_555
Mn1 N5 1.748333 1_655
Mn1 N0 1.773656 1_555
Mn1 N1 1.802535 1_655
Mn2 N6 1.748333 1_555
Mn2 N3 1.773656 1_555
Mn2 N2 1.802535 1_555
Mn3 N7 1.748333 1_455
Mn3 N2 1.773656 1_555
Mn3 N3 1.802535 1_455
N0 Ni7 1.915074 1_555
N0 Ni7 1.915074 1_545
N1 Ni6 1.915074 1_445
N1 Ni6 1.915074 1_455
N2 Ni5 1.915074 1_565
N2 Ni5 1.915074 1_555
N3 Ni4 1.915074 1_665
N3 Ni4 1.915074 1_655
N4 Ni0 1.871165 1_554
N4 Ni6 2.015854 1_555
N4 Ni6 2.015854 1_545
N4 Ni2 2.077940 1_545
N4 Ni2 2.077940 1_555
N5 Ni1 1.871165 1_555
N5 Ni7 2.015854 1_555
N5 Ni7 2.015854 1_545
N5 Ni3 2.077940 1_455
N5 Ni3 2.077940 1_445
N6 Ni2 1.871165 1_556
N6 Ni4 2.015854 1_565
N6 Ni4 2.015854 1_555
N6 Ni0 2.077940 1_555
N6 Ni0 2.077940 1_565
N7 Ni3 1.871165 1_555
N7 Ni5 2.015854 1_565
N7 Ni5 2.015854 1_555
N7 Ni1 2.077940 1_665
N7 Ni1 2.077940 1_655
