# generated using pymatgen
data_LaRh
_symmetry_space_group_name_H-M   'P 1'
_cell_length_a   3.96517646
_cell_length_b   4.14756134
_cell_length_c   6.07488930
_cell_angle_alpha   90.00000000
_cell_angle_beta   70.95215668
_cell_angle_gamma   90.00000000
_symmetry_Int_Tables_number   1
_chemical_formula_structural   LaRh
_chemical_formula_sum   'La2 Rh2'
_cell_volume   94.43624981
_cell_formula_units_Z   2
loop_
 _symmetry_equiv_pos_site_id
 _symmetry_equiv_pos_as_xyz
  1  'x, y, z'
loop_
 _atom_site_type_symbol
 _atom_site_label
 _atom_site_symmetry_multiplicity
 _atom_site_fract_x
 _atom_site_fract_y
 _atom_site_fract_z
 _atom_site_occupancy
  La  La0  1  0.13864401  0.75000000  0.72271199  1
  La  La1  1  0.86135599  0.25000000  0.27728801  1
  Rh  Rh0  1  0.41160184  0.75000000  0.17679733  1
  Rh  Rh1  1  0.58839816  0.25000000  0.82320267  1
loop_
_geom_bond_atom_site_label_1
_geom_bond_atom_site_label_2
_geom_bond_distance
_geom_bond_site_symmetry_2
La0 Rh1 2.926464 1_565
La0 Rh1 2.926464 1_555
La0 Rh1 2.926467 1_465
La0 Rh1 2.926467 1_455
La0 Rh0 3.134788 1_555
La0 Rh0 3.275607 1_456
La0 Rh0 3.275608 1_556
La1 Rh0 2.926464 1_545
La1 Rh0 2.926464 1_555
La1 Rh0 2.926467 1_645
La1 Rh0 2.926467 1_655
La1 Rh1 3.134788 1_555
La1 Rh1 3.275607 1_654
La1 Rh1 3.275608 1_554
Rh0 Rh1 2.902281 1_554
Rh0 Rh1 2.902281 1_564
