# generated using pymatgen
data_Sr2GdMoO6
_symmetry_space_group_name_H-M   'P 1'
_cell_length_a   5.89824000
_cell_length_b   5.98219100
_cell_length_c   10.15515855
_cell_angle_alpha   90.00000000
_cell_angle_beta   124.80795161
_cell_angle_gamma   90.00000000
_symmetry_Int_Tables_number   1
_chemical_formula_structural   Sr2GdMoO6
_chemical_formula_sum   'Sr4 Gd2 Mo2 O12'
_cell_volume   294.20469986
_cell_formula_units_Z   2
loop_
 _symmetry_equiv_pos_site_id
 _symmetry_equiv_pos_as_xyz
  1  'x, y, z'
loop_
 _atom_site_type_symbol
 _atom_site_label
 _atom_site_symmetry_multiplicity
 _atom_site_fract_x
 _atom_site_fract_y
 _atom_site_fract_z
 _atom_site_occupancy
  Sr  Sr0  1  0.23748200  0.46272900  0.74917200  1
  Sr  Sr1  1  0.23748200  0.03727100  0.24917200  1
  Sr  Sr2  1  0.76251800  0.53727100  0.25082800  1
  Sr  Sr3  1  0.76251800  0.96272900  0.75082800  1
  Gd  Gd0  1  0.50000000  0.50000000  0.50000000  1
  Gd  Gd1  1  0.50000000  0.00000000  0.00000000  1
  Mo  Mo0  1  0.00000000  0.00000000  0.50000000  1
  Mo  Mo1  1  0.00000000  0.50000000  0.00000000  1
  O  O0  1  0.77440600  0.19844000  0.54109500  1
  O  O1  1  0.77440600  0.30156000  0.04109500  1
  O  O2  1  0.22559400  0.80156000  0.45890500  1
  O  O3  1  0.22559400  0.69844000  0.95890500  1
  O  O4  1  0.14811100  0.22841800  0.94789100  1
  O  O5  1  0.14811100  0.27158200  0.44789100  1
  O  O6  1  0.85188900  0.77158200  0.05210900  1
  O  O7  1  0.85188900  0.72841800  0.55210900  1
  O  O8  1  0.32105900  0.02422300  0.73142500  1
  O  O9  1  0.32105900  0.47577700  0.23142500  1
  O  O10  1  0.67894100  0.97577700  0.26857500  1
  O  O11  1  0.67894100  0.52422300  0.76857500  1
loop_
_geom_bond_atom_site_label_1
_geom_bond_atom_site_label_2
_geom_bond_distance
_geom_bond_site_symmetry_2
Gd0 O5 2.280591 1_555
Gd0 O7 2.280591 1_555
Gd0 O0 2.297171 1_555
Gd0 O2 2.297171 1_555
Gd0 O9 2.299431 1_555
Gd0 O11 2.299431 1_555
Gd1 O4 2.280591 1_554
Gd1 O6 2.280591 1_545
Gd1 O1 2.297171 1_555
Gd1 O3 2.297171 1_544
Gd1 O8 2.299431 1_554
Gd1 O10 2.299431 1_545
Mo0 O0 1.996962 1_455
Mo0 O2 1.996962 1_545
Mo0 O8 2.012310 1_555
Mo0 O10 2.012310 1_445
Mo0 O7 2.051942 1_445
Mo0 O5 2.051942 1_555
Mo1 O3 1.996962 1_554
Mo1 O1 1.996962 1_455
Mo1 O11 2.012310 1_454
Mo1 O9 2.012310 1_555
Mo1 O6 2.051942 1_455
Mo1 O4 2.051942 1_554
O0 Sr3 2.588448 1_545
O0 Sr0 2.799253 1_655
O0 Sr1 3.004828 1_555
O1 Sr2 2.588448 1_555
O1 Sr1 2.799253 1_655
O1 Sr0 3.004828 1_554
O2 Sr1 2.588448 1_565
O2 Sr2 2.799253 1_455
O2 Sr3 3.004828 1_555
O3 Sr0 2.588448 1_555
O3 Sr3 2.799253 1_455
O3 Sr2 3.004828 1_556
O4 Sr3 2.550970 1_445
O4 Sr0 2.743990 1_555
O4 Sr1 3.017457 1_556
O5 Sr2 2.550970 1_455
O5 Sr1 2.743990 1_555
O5 Sr0 3.017457 1_555
O6 Sr1 2.550970 1_665
O6 Sr2 2.743990 1_555
O6 Sr3 3.017457 1_554
O7 Sr0 2.550970 1_655
O7 Sr3 2.743990 1_555
O7 Sr2 3.017457 1_555
O8 Sr3 2.523559 1_545
O8 Sr0 2.694111 1_555
O9 Sr2 2.523559 1_555
O9 Sr1 2.694111 1_555
O10 Sr1 2.523559 1_565
O10 Sr2 2.694111 1_555
O11 Sr0 2.523559 1_555
O11 Sr3 2.694111 1_555
