# generated using pymatgen
data_CaTiS2
_symmetry_space_group_name_H-M   'P 1'
_cell_length_a   3.64513791
_cell_length_b   3.64513791
_cell_length_c   6.54150200
_cell_angle_alpha   90.00000000
_cell_angle_beta   90.00000000
_cell_angle_gamma   119.99999830
_symmetry_Int_Tables_number   1
_chemical_formula_structural   CaTiS2
_chemical_formula_sum   'Ca1 Ti1 S2'
_cell_volume   75.27244878
_cell_formula_units_Z   1
loop_
 _symmetry_equiv_pos_site_id
 _symmetry_equiv_pos_as_xyz
  1  'x, y, z'
loop_
 _atom_site_type_symbol
 _atom_site_label
 _atom_site_symmetry_multiplicity
 _atom_site_fract_x
 _atom_site_fract_y
 _atom_site_fract_z
 _atom_site_occupancy
  Ca  Ca0  1  0.00000000  0.00000000  0.50000000  1
  Ti  Ti0  1  0.00000000  0.00000000  0.00000000  1
  S  S0  1  0.33333300  0.66666700  0.78033700  1
  S  S1  1  0.66666700  0.33333300  0.21966300  1
loop_
_geom_bond_atom_site_label_1
_geom_bond_atom_site_label_2
_geom_bond_distance
_geom_bond_site_symmetry_2
Ca0 S0 2.791400 1_545
Ca0 S1 2.791400 1_455
Ca0 S0 2.791403 1_445
Ca0 S0 2.791403 1_555
Ca0 S1 2.791403 1_555
Ca0 S1 2.791403 1_445
S0 Ti0 2.548285 1_566
S0 Ti0 2.548288 1_556
S0 Ti0 2.548288 1_666
S1 Ti0 2.548285 1_655
S1 Ti0 2.548288 1_665
S1 Ti0 2.548288 1_555
