# generated using pymatgen
data_Sr3Ca5Mn8O22
_symmetry_space_group_name_H-M   'P 1'
_cell_length_a   10.93182188
_cell_length_b   15.70662822
_cell_length_c   10.90314767
_cell_angle_alpha   89.97727978
_cell_angle_beta   90.86181009
_cell_angle_gamma   90.35188257
_symmetry_Int_Tables_number   1
_chemical_formula_structural   Sr3Ca5Mn8O22
_chemical_formula_sum   'Sr12 Ca20 Mn32 O88'
_cell_volume   1871.84577765
_cell_formula_units_Z   4
loop_
 _symmetry_equiv_pos_site_id
 _symmetry_equiv_pos_as_xyz
  1  'x, y, z'
loop_
 _atom_site_type_symbol
 _atom_site_label
 _atom_site_symmetry_multiplicity
 _atom_site_fract_x
 _atom_site_fract_y
 _atom_site_fract_z
 _atom_site_occupancy
  Sr  Sr0  1  0.00042163  0.11531081  0.49851847  1
  Sr  Sr1  1  0.00041436  0.11557295  0.99819809  1
  Sr  Sr2  1  0.00773697  0.62696893  0.49754221  1
  Sr  Sr3  1  0.49939153  0.38792209  0.00202652  1
  Sr  Sr4  1  0.49834033  0.38766421  0.50250001  1
  Sr  Sr5  1  0.49941624  0.86278561  0.00092254  1
  Sr  Sr6  1  0.23972922  0.38928360  0.25627430  1
  Sr  Sr7  1  0.23924741  0.38889968  0.75496975  1
  Sr  Sr8  1  0.23365909  0.87130206  0.25197317  1
  Sr  Sr9  1  0.23233382  0.11374791  0.24456394  1
  Sr  Sr10  1  0.23115938  0.11492522  0.74740430  1
  Sr  Sr11  1  0.26123414  0.62873603  0.25418158  1
  Ca  Ca0  1  0.01462655  0.62695749  0.99583576  1
  Ca  Ca1  1  0.53895296  0.12707232  0.48576688  1
  Ca  Ca2  1  0.54031374  0.12677750  0.98597807  1
  Ca  Ca3  1  0.51938079  0.62512757  0.49713225  1
  Ca  Ca4  1  0.52114762  0.62524379  0.99830482  1
  Ca  Ca5  1  0.49577600  0.85595332  0.50203731  1
  Ca  Ca6  1  0.96508112  0.38749079  0.99859697  1
  Ca  Ca7  1  0.96559883  0.38816680  0.49573813  1
  Ca  Ca8  1  0.97403610  0.87136307  0.00889063  1
  Ca  Ca9  1  0.97194262  0.87135820  0.50643140  1
  Ca  Ca10  1  0.22284277  0.87023329  0.74994662  1
  Ca  Ca11  1  0.74779457  0.39408357  0.25450048  1
  Ca  Ca12  1  0.74681184  0.39340344  0.75164475  1
  Ca  Ca13  1  0.75012997  0.85935042  0.25470620  1
  Ca  Ca14  1  0.74572944  0.85981313  0.75137055  1
  Ca  Ca15  1  0.26989598  0.62858846  0.75919738  1
  Ca  Ca16  1  0.77729121  0.11683234  0.24991511  1
  Ca  Ca17  1  0.77794259  0.11716296  0.75248579  1
  Ca  Ca18  1  0.76363527  0.62585269  0.25248235  1
  Ca  Ca19  1  0.76842954  0.62560184  0.75461632  1
  Mn  Mn0  1  0.99226144  0.99169902  0.25412448  1
  Mn  Mn1  1  0.99086038  0.99001905  0.75378410  1
  Mn  Mn2  1  -0.00045377  0.50245504  0.24622664  1
  Mn  Mn3  1  0.00140944  0.50307758  0.74953654  1
  Mn  Mn4  1  0.51419019  0.98415835  0.23560999  1
  Mn  Mn5  1  0.51079410  0.98324842  0.73159065  1
  Mn  Mn6  1  0.49980362  0.50631605  0.25049705  1
  Mn  Mn7  1  0.49975527  0.50702750  0.75010601  1
  Mn  Mn8  1  0.24172786  0.99430151  0.00740226  1
  Mn  Mn9  1  0.24349398  0.99420887  0.51350949  1
  Mn  Mn10  1  0.24907806  0.50705809  0.00207092  1
  Mn  Mn11  1  0.24825246  0.50795496  0.50566208  1
  Mn  Mn12  1  0.74793915  0.99817862  0.99647039  1
  Mn  Mn13  1  0.74390022  0.99762807  0.49651596  1
  Mn  Mn14  1  0.74959099  0.50513094  0.00157877  1
  Mn  Mn15  1  0.74773075  0.50454028  0.50215181  1
  Mn  Mn16  1  0.26283814  0.24079987  0.96397697  1
  Mn  Mn17  1  0.26338832  0.23905944  0.46417159  1
  Mn  Mn18  1  0.25059441  0.75066314  0.99990158  1
  Mn  Mn19  1  0.25020076  0.75198959  0.50784041  1
  Mn  Mn20  1  0.75234483  0.25090498  0.00551328  1
  Mn  Mn21  1  0.75144812  0.25024728  0.50648050  1
  Mn  Mn22  1  0.75224784  0.74706250  0.00091075  1
  Mn  Mn23  1  0.74869315  0.74765158  0.50128868  1
  Mn  Mn24  1  0.98515528  0.25495865  0.25960317  1
  Mn  Mn25  1  0.98519152  0.25625296  0.75956356  1
  Mn  Mn26  1  0.00007651  0.74906286  0.24981042  1
  Mn  Mn27  1  0.00163806  0.74850127  0.75220099  1
  Mn  Mn28  1  0.52786646  0.25813612  0.25789493  1
  Mn  Mn29  1  0.52710195  0.25859723  0.75841505  1
  Mn  Mn30  1  0.50158508  0.74591564  0.25329535  1
  Mn  Mn31  1  0.50061207  0.74541219  0.75203759  1
  O  O0  1  0.10799163  0.77070289  0.10411516  1
  O  O1  1  0.10765062  0.77600400  0.60864111  1
  O  O2  1  0.58574486  0.25037477  0.09832441  1
  O  O3  1  0.58456652  0.25034038  0.59892130  1
  O  O4  1  0.61770967  0.76333122  0.11807889  1
  O  O5  1  0.61114641  0.76200303  0.61122195  1
  O  O6  1  0.40493970  0.21144192  0.35814667  1
  O  O7  1  0.40520029  0.21248277  0.86045863  1
  O  O8  1  0.39714763  0.73210191  0.39848682  1
  O  O9  1  0.39775002  0.72804113  0.89447223  1
  O  O10  1  0.89804514  0.24342311  0.41579706  1
  O  O11  1  0.89905050  0.24404750  0.91581329  1
  O  O12  1  0.88409480  0.73515580  0.38524761  1
  O  O13  1  0.89291098  0.73051927  0.89279242  1
  O  O14  1  0.14778138  0.24417722  0.33307938  1
  O  O15  1  0.14777745  0.24625788  0.83189743  1
  O  O16  1  0.14076990  0.73971549  0.36116466  1
  O  O17  1  0.14880208  0.73698409  0.85128470  1
  O  O18  1  0.65515182  0.21692695  0.35421468  1
  O  O19  1  0.65552595  0.21727792  0.85396282  1
  O  O20  1  0.64118388  0.72665778  0.36118621  1
  O  O21  1  0.64380213  0.72722367  0.85909363  1
  O  O22  1  0.36260848  0.76637277  0.14224299  1
  O  O23  1  0.35786154  0.77138959  0.64959579  1
  O  O24  1  0.84708425  0.27622611  0.15098377  1
  O  O25  1  0.84788988  0.27672297  0.65097258  1
  O  O26  1  0.86315277  0.76847320  0.13705352  1
  O  O27  1  0.86178810  0.76675943  0.63921612  1
  O  O28  1  0.36152869  0.49173399  0.13877116  1
  O  O29  1  0.36063531  0.49112741  0.64099839  1
  O  O30  1  0.36163767  0.99624141  0.15235821  1
  O  O31  1  0.35268248  0.99294805  0.66555731  1
  O  O32  1  0.86091345  0.48269864  0.13663811  1
  O  O33  1  0.86153757  0.48442757  0.63757354  1
  O  O34  1  0.84917178  0.97835961  0.14358467  1
  O  O35  1  0.84540813  0.97754851  0.64435722  1
  O  O36  1  0.13999780  0.00825189  0.36952426  1
  O  O37  1  0.13733005  0.00800033  0.86669322  1
  O  O38  1  0.13989544  0.51312391  0.36058605  1
  O  O39  1  0.14549777  0.51723242  0.85467360  1
  O  O40  1  0.62691784  0.02963533  0.34765050  1
  O  O41  1  0.62322980  0.02786495  0.84651264  1
  O  O42  1  0.63880163  0.52018283  0.36129753  1
  O  O43  1  0.64139963  0.52110089  0.85962549  1
  O  O44  1  0.39013275  0.51528604  0.39157835  1
  O  O45  1  0.39227231  0.51746889  0.89113067  1
  O  O46  1  0.87940504  0.01287274  0.38881042  1
  O  O47  1  0.87994427  0.01307622  0.88740898  1
  O  O48  1  0.88438036  0.51008976  0.38552692  1
  O  O49  1  0.89162352  0.51579764  0.89259923  1
  O  O50  1  0.10734226  0.48208360  0.10465880  1
  O  O51  1  0.10635387  0.48001886  0.60708068  1
  O  O52  1  0.10090316  0.98312175  0.12002657  1
  O  O53  1  0.09850343  0.98010626  0.61987033  1
  O  O54  1  0.61655180  0.49032380  0.11650047  1
  O  O55  1  0.61531318  0.49089821  0.61601948  1
  O  O56  1  0.59852116  0.99915063  0.08787858  1
  O  O57  1  0.58698884  0.99368458  0.57923367  1
  O  O58  1  0.00415009  0.37723779  0.27741020  1
  O  O59  1  0.00210653  0.37934788  0.78219004  1
  O  O60  1  0.99372958  0.87200306  0.28797253  1
  O  O61  1  0.99737930  0.86980788  0.79177985  1
  O  O62  1  0.49987006  0.37820569  0.26722132  1
  O  O63  1  0.50053106  0.37891319  0.76762432  1
  O  O64  1  0.51249173  0.87045453  0.28834160  1
  O  O65  1  0.52019787  0.86848668  0.77772600  1
  O  O66  1  0.49600550  0.62688503  0.21431116  1
  O  O67  1  0.48942363  0.62689478  0.71201113  1
  O  O68  1  0.99383150  0.13087686  0.22665908  1
  O  O69  1  0.99396635  0.13223481  0.72587873  1
  O  O70  1  0.99359774  0.62437623  0.21695645  1
  O  O71  1  0.99225668  0.62478087  0.72382038  1
  O  O72  1  0.24921370  0.12655609  0.01830059  1
  O  O73  1  0.25399876  0.12539875  0.52183010  1
  O  O74  1  0.23545170  0.63068953  0.02573544  1
  O  O75  1  0.24095216  0.63236833  0.53886310  1
  O  O76  1  0.75493415  0.12570742  0.03560722  1
  O  O77  1  0.75125743  0.12429499  0.53921814  1
  O  O78  1  0.74680241  0.62544857  0.03634670  1
  O  O79  1  0.74895372  0.62562172  0.53539866  1
  O  O80  1  0.26925815  0.35218283  0.50417942  1
  O  O81  1  0.26891471  0.35486166  0.00185207  1
  O  O82  1  0.28214777  0.88119939  0.47513145  1
  O  O83  1  0.27303356  0.87986780  0.96392391  1
  O  O84  1  0.74033422  0.37454653  0.47055919  1
  O  O85  1  0.74183551  0.37591895  0.96759822  1
  O  O86  1  0.74461017  0.87376910  0.46774687  1
  O  O87  1  0.74751461  0.87341783  0.96597263  1
loop_
_geom_bond_atom_site_label_1
_geom_bond_atom_site_label_2
_geom_bond_distance
_geom_bond_site_symmetry_2
Ca0 O13 2.378799 1_455
Ca0 O70 2.425585 1_456
Ca0 O74 2.431422 1_556
Ca0 O49 2.459793 1_455
Ca0 O0 2.733228 1_556
Ca0 O39 2.735768 1_555
Ca0 O50 2.757340 1_556
Ca0 O17 2.767338 1_555
Ca1 O3 2.343260 1_555
Ca1 O40 2.366022 1_555
Ca1 O77 2.385066 1_555
Ca1 O18 2.386184 1_555
Ca1 O57 2.387326 1_545
Ca1 O6 2.408222 1_555
Ca2 O2 2.342537 1_556
Ca2 O41 2.368146 1_555
Ca2 O56 2.377037 1_546
Ca2 O19 2.389470 1_555
Ca2 O76 2.399998 1_556
Ca2 O7 2.414298 1_555
Ca3 O67 2.370704 1_555
Ca3 O8 2.397565 1_555
Ca3 O44 2.493994 1_555
Ca3 O79 2.537863 1_555
Ca3 O20 2.558218 1_555
Ca3 O42 2.588677 1_555
Ca3 O5 2.667148 1_555
Ca3 O55 2.684966 1_555
Ca4 O66 2.375403 1_556
Ca4 O9 2.384878 1_555
Ca4 O45 2.477614 1_555
Ca4 O78 2.495269 1_556
Ca4 O21 2.588481 1_555
Ca4 O43 2.603491 1_555
Ca4 O54 2.687710 1_556
Ca4 O4 2.730647 1_556
Ca5 O5 2.271928 1_555
Ca5 O64 2.350710 1_555
Ca5 O82 2.384913 1_555
Ca5 O8 2.482075 1_555
Ca5 O57 2.516392 1_555
Ca5 O23 2.583070 1_555
Ca5 O86 2.763836 1_555
Ca6 O59 2.403561 1_655
Ca6 O32 2.423318 1_556
Ca6 O50 2.425311 1_656
Ca6 O49 2.455999 1_555
Ca6 O85 2.464347 1_555
Ca6 O11 2.524645 1_555
Ca6 O24 2.740990 1_556
Ca7 O51 2.416745 1_655
Ca7 O48 2.426201 1_555
Ca7 O58 2.430034 1_655
Ca7 O33 2.459154 1_555
Ca7 O84 2.481640 1_555
Ca7 O10 2.536761 1_555
Ca7 O25 2.760419 1_555
Ca8 O61 2.384869 1_554
Ca8 O0 2.388184 1_655
Ca8 O26 2.461447 1_555
Ca8 O87 2.513593 1_554
Ca8 O52 2.528684 1_655
Ca8 O34 2.633375 1_555
Ca8 O13 2.688296 1_554
Ca8 O47 2.784159 1_564
Ca9 O1 2.379517 1_655
Ca9 O60 2.397340 1_555
Ca9 O27 2.504291 1_555
Ca9 O53 2.506515 1_655
Ca9 O86 2.514947 1_555
Ca9 O35 2.655117 1_555
Ca9 O12 2.680186 1_555
Ca9 O46 2.755865 1_565
Ca10 O83 2.393263 1_555
Ca10 O23 2.421581 1_555
Ca10 O1 2.463827 1_555
Ca10 O17 2.502082 1_555
Ca10 O61 2.513280 1_455
Ca10 O31 2.565256 1_555
Ca10 O53 2.608835 1_555
Ca10 O37 2.690586 1_565
Ca11 O32 2.267829 1_555
Ca11 O84 2.378052 1_555
Ca11 O24 2.437605 1_555
Ca11 O54 2.562658 1_555
Ca11 O42 2.602084 1_555
Ca11 O62 2.725794 1_555
Ca11 O48 2.737654 1_555
Ca11 O58 2.823832 1_655
Ca12 O33 2.277560 1_555
Ca12 O85 2.371823 1_555
Ca12 O25 2.418131 1_555
Ca12 O55 2.561125 1_555
Ca12 O43 2.609196 1_555
Ca12 O63 2.708722 1_555
Ca12 O59 2.815665 1_655
Ca12 O49 2.907811 1_555
Ca13 O26 2.297890 1_555
Ca13 O86 2.335636 1_555
Ca13 O34 2.479316 1_555
Ca13 O4 2.549356 1_555
Ca13 O64 2.635877 1_555
Ca13 O20 2.668175 1_555
Ca13 O60 2.688318 1_555
Ca13 O12 2.818838 1_555
Ca14 O27 2.304785 1_555
Ca14 O87 2.349437 1_555
Ca14 O35 2.445441 1_555
Ca14 O65 2.491014 1_555
Ca14 O5 2.601172 1_555
Ca14 O21 2.639493 1_555
Ca14 O61 2.782985 1_555
Ca15 O17 2.393348 1_555
Ca15 O75 2.419115 1_555
Ca15 O39 2.450309 1_555
Ca15 O67 2.462225 1_555
Ca15 O9 2.545966 1_555
Ca15 O45 2.621806 1_555
Ca15 O29 2.715377 1_555
Ca15 O23 2.718347 1_555
Ca15 O74 2.936232 1_556
Ca15 O71 3.053978 1_455
Ca16 O76 2.349891 1_555
Ca16 O18 2.370762 1_555
Ca16 O68 2.393344 1_555
Ca16 O40 2.395291 1_555
Ca16 O46 2.485013 1_555
Ca16 O34 2.596590 1_545
Ca16 O24 2.830634 1_555
Ca16 O10 2.977567 1_555
Ca17 O77 2.341881 1_555
Ca17 O19 2.357852 1_555
Ca17 O69 2.393893 1_555
Ca17 O41 2.429108 1_555
Ca17 O47 2.459948 1_555
Ca17 O35 2.605878 1_545
Ca17 O25 2.844334 1_555
Ca17 O11 2.965675 1_555
Ca18 O78 2.360979 1_555
Ca18 O20 2.403901 1_555
Ca18 O42 2.458432 1_555
Ca18 O70 2.549574 1_555
Ca18 O12 2.587220 1_555
Ca18 O48 2.668776 1_555
Ca18 O26 2.791858 1_555
Ca18 O32 2.802472 1_555
Ca18 O66 2.949073 1_555
Ca18 O54 3.033748 1_555
Ca18 O4 3.053586 1_555
Ca18 O79 3.091260 1_555
Ca19 O79 2.396434 1_555
Ca19 O21 2.403384 1_555
Ca19 O43 2.439603 1_555
Ca19 O71 2.474880 1_555
Ca19 O13 2.598044 1_555
Ca19 O49 2.648964 1_555
Ca19 O27 2.747528 1_555
Ca19 O33 2.765917 1_555
Mn0 O52 1.902821 1_655
Mn0 O60 1.915874 1_555
Mn0 O46 1.961913 1_565
Mn0 O34 1.970472 1_555
Mn0 O36 2.047682 1_665
Mn0 O68 2.206310 1_565
Mn1 O53 1.896022 1_655
Mn1 O61 1.934377 1_555
Mn1 O47 1.944980 1_565
Mn1 O35 1.982277 1_555
Mn1 O37 2.023484 1_665
Mn1 O69 2.254355 1_565
Mn2 O32 1.939276 1_455
Mn2 O70 1.942578 1_455
Mn2 O38 1.968816 1_555
Mn2 O50 1.983245 1_555
Mn2 O48 1.991407 1_455
Mn2 O58 1.996590 1_555
Mn3 O71 1.934871 1_455
Mn3 O39 1.945807 1_555
Mn3 O33 1.962823 1_455
Mn3 O59 1.975620 1_555
Mn3 O51 1.979634 1_555
Mn3 O49 1.993210 1_455
Mn4 O40 1.861641 1_565
Mn4 O64 1.876020 1_555
Mn4 O56 1.881890 1_555
Mn4 O30 1.897185 1_555
Mn5 O31 1.869442 1_555
Mn5 O65 1.874214 1_555
Mn5 O41 1.875010 1_565
Mn5 O57 1.876136 1_555
Mn6 O66 1.934809 1_555
Mn6 O42 1.938218 1_555
Mn6 O28 1.939557 1_555
Mn6 O44 1.970049 1_555
Mn6 O54 1.971485 1_555
Mn6 O62 2.020359 1_555
Mn7 O67 1.931439 1_555
Mn7 O29 1.931745 1_555
Mn7 O43 1.952633 1_555
Mn7 O45 1.956694 1_555
Mn7 O55 1.963956 1_555
Mn7 O63 2.021271 1_555
Mn8 O83 1.893538 1_554
Mn8 O37 1.911160 1_564
Mn8 O52 1.990493 1_555
Mn8 O30 2.038220 1_555
Mn8 O72 2.081753 1_565
Mn9 O82 1.876002 1_555
Mn9 O36 1.934591 1_565
Mn9 O53 1.989203 1_555
Mn9 O31 2.028345 1_555
Mn9 O73 2.064998 1_565
Mn10 O28 1.933598 1_555
Mn10 O39 1.959010 1_554
Mn10 O50 1.962152 1_555
Mn10 O74 1.965855 1_555
Mn10 O45 1.998479 1_554
Mn10 O81 2.401640 1_555
Mn11 O29 1.925021 1_555
Mn11 O38 1.963794 1_555
Mn11 O51 1.965805 1_555
Mn11 O75 1.989804 1_555
Mn11 O44 2.005452 1_555
Mn11 O80 2.458893 1_555
Mn12 O47 1.896946 1_565
Mn12 O56 1.926354 1_556
Mn12 O34 1.960835 1_556
Mn12 O87 1.987680 1_555
Mn12 O76 2.048889 1_566
Mn12 O41 2.165505 1_565
Mn13 O46 1.917922 1_565
Mn13 O57 1.950581 1_555
Mn13 O35 1.969581 1_555
Mn13 O86 1.970736 1_555
Mn13 O77 2.044269 1_565
Mn13 O40 2.113625 1_565
Mn14 O78 1.928092 1_555
Mn14 O32 1.929907 1_555
Mn14 O54 1.946719 1_555
Mn14 O43 1.950776 1_554
Mn14 O49 1.975570 1_554
Mn14 O85 2.064171 1_554
Mn15 O55 1.932035 1_555
Mn15 O79 1.936089 1_555
Mn15 O33 1.943435 1_555
Mn15 O42 1.945554 1_555
Mn15 O48 1.977748 1_555
Mn15 O84 2.071637 1_555
Mn16 O81 1.839242 1_556
Mn16 O72 1.895084 1_556
Mn16 O15 1.900011 1_555
Mn16 O7 1.988835 1_555
Mn17 O80 1.830230 1_555
Mn17 O73 1.895147 1_555
Mn17 O14 1.895628 1_555
Mn17 O6 1.995359 1_555
Mn18 O74 1.911749 1_556
Mn18 O17 1.962957 1_555
Mn18 O0 1.969756 1_556
Mn18 O22 1.976958 1_556
Mn18 O9 2.024462 1_555
Mn18 O83 2.080514 1_555
Mn19 O75 1.911253 1_555
Mn19 O23 1.951429 1_555
Mn19 O1 1.958989 1_555
Mn19 O16 1.991391 1_555
Mn19 O8 2.040523 1_555
Mn19 O82 2.088609 1_555
Mn20 O11 1.894609 1_554
Mn20 O24 1.921585 1_555
Mn20 O76 1.993793 1_555
Mn20 O85 2.010053 1_554
Mn20 O19 2.017611 1_554
Mn20 O2 2.096722 1_555
Mn21 O10 1.899259 1_555
Mn21 O25 1.926540 1_555
Mn21 O84 1.995142 1_555
Mn21 O77 2.010084 1_555
Mn21 O18 2.019801 1_555
Mn21 O3 2.097462 1_555
Mn22 O26 1.930709 1_555
Mn22 O78 1.949406 1_555
Mn22 O21 1.958093 1_554
Mn22 O13 1.970119 1_554
Mn22 O4 1.980353 1_555
Mn22 O87 2.021524 1_554
Mn23 O20 1.940377 1_555
Mn23 O5 1.951157 1_555
Mn23 O79 1.952292 1_555
Mn23 O27 1.954484 1_555
Mn23 O12 1.972394 1_555
Mn23 O86 2.014857 1_555
Mn24 O24 1.935054 1_555
Mn24 O58 1.940019 1_655
Mn24 O14 1.947252 1_655
Mn24 O10 1.971369 1_555
Mn24 O68 1.984969 1_555
Mn25 O25 1.926195 1_555
Mn25 O15 1.940828 1_655
Mn25 O59 1.956458 1_655
Mn25 O11 1.967636 1_555
Mn25 O69 1.985536 1_555
Mn26 O26 1.948030 1_455
Mn26 O16 1.951316 1_555
Mn26 O12 1.971939 1_455
Mn26 O60 1.977312 1_455
Mn26 O70 1.991677 1_455
Mn26 O0 2.020324 1_555
Mn27 O17 1.933677 1_555
Mn27 O61 1.954730 1_455
Mn27 O71 1.969642 1_455
Mn27 O27 1.971172 1_455
Mn27 O13 1.972966 1_455
Mn27 O1 2.006883 1_555
Mn28 O18 1.850558 1_555
Mn28 O2 1.864510 1_555
Mn28 O6 1.889430 1_555
Mn28 O62 1.915401 1_555
Mn29 O19 1.855826 1_555
Mn29 O3 1.862673 1_555
Mn29 O7 1.889559 1_555
Mn29 O63 1.916614 1_555
Mn30 O66 1.917845 1_555
Mn30 O20 1.937928 1_555
Mn30 O22 1.956490 1_555
Mn30 O8 1.976769 1_555
Mn30 O4 1.977768 1_555
Mn30 O64 1.995710 1_555
Mn31 O67 1.914909 1_555
Mn31 O9 1.949119 1_555
Mn31 O23 1.950459 1_555
Mn31 O21 1.960765 1_555
Mn31 O65 1.963326 1_555
Mn31 O5 1.984154 1_555
O0 Sr8 2.625176 1_555
O1 Sr2 2.840927 1_555
O2 Sr3 2.579596 1_555
O3 Sr4 2.576682 1_555
O4 Sr5 2.391156 1_555
O6 Sr9 2.710019 1_555
O7 Sr10 2.717045 1_555
O8 Sr11 2.687192 1_555
O9 Sr5 2.644924 1_556
O10 Sr0 2.472012 1_655
O11 Sr1 2.470373 1_655
O12 Sr2 2.488015 1_655
O14 Sr9 2.456462 1_555
O14 Sr6 2.627112 1_555
O15 Sr10 2.446329 1_555
O15 Sr7 2.592120 1_555
O16 Sr11 2.491843 1_555
O16 Sr8 2.593978 1_555
O16 Sr2 2.737384 1_555
O22 Sr8 2.493094 1_555
O22 Sr5 2.635089 1_555
O22 Sr11 2.720347 1_555
O27 Sr2 3.142026 1_655
O28 Sr6 2.454984 1_555
O28 Sr3 2.693065 1_555
O28 Sr11 2.736522 1_555
O29 Sr7 2.430030 1_555
O29 Sr4 2.699560 1_555
O30 Sr9 2.547816 1_565
O30 Sr8 2.645407 1_555
O31 Sr10 2.509970 1_565
O33 Sr2 3.150326 1_655
O36 Sr9 2.374833 1_555
O36 Sr0 2.689185 1_555
O36 Sr8 2.717838 1_545
O37 Sr10 2.362512 1_555
O37 Sr1 2.692277 1_555
O38 Sr6 2.516590 1_555
O38 Sr11 2.533348 1_555
O38 Sr2 2.759200 1_555
O39 Sr7 2.521042 1_555
O42 Sr4 3.014896 1_555
O44 Sr4 2.619948 1_555
O44 Sr11 2.714808 1_555
O44 Sr6 2.947166 1_555
O45 Sr3 2.637825 1_556
O45 Sr7 2.994410 1_555
O46 Sr0 2.386938 1_655
O47 Sr1 2.390162 1_655
O48 Sr2 2.569438 1_655
O50 Sr6 2.627495 1_555
O51 Sr7 2.590763 1_555
O51 Sr2 2.811677 1_555
O52 Sr8 2.688300 1_555
O52 Sr1 2.698345 1_564
O52 Sr9 2.832817 1_565
O53 Sr0 2.719017 1_565
O53 Sr10 2.902504 1_565
O54 Sr3 2.390253 1_555
O55 Sr4 2.392641 1_555
O56 Sr5 2.569494 1_555
O58 Sr6 2.594793 1_555
O59 Sr7 2.617129 1_555
O60 Sr8 2.657995 1_655
O62 Sr4 2.569947 1_555
O62 Sr6 2.850903 1_555
O62 Sr3 2.895350 1_555
O63 Sr3 2.559914 1_556
O63 Sr7 2.862823 1_555
O63 Sr4 2.893647 1_555
O65 Sr5 2.449077 1_556
O66 Sr11 2.609813 1_555
O68 Sr1 2.504763 1_654
O68 Sr9 2.627087 1_655
O68 Sr0 2.973921 1_655
O69 Sr0 2.495358 1_655
O69 Sr10 2.615856 1_655
O69 Sr1 2.980361 1_655
O70 Sr11 2.948100 1_655
O70 Sr2 3.061122 1_655
O71 Sr2 2.475690 1_655
O72 Sr9 2.484627 1_555
O72 Sr1 2.729764 1_554
O72 Sr10 2.962880 1_554
O73 Sr10 2.481136 1_555
O73 Sr0 2.783427 1_555
O73 Sr9 3.034291 1_555
O74 Sr11 2.502659 1_555
O75 Sr2 2.583171 1_555
O76 Sr1 2.726049 1_654
O77 Sr0 2.770767 1_655
O79 Sr2 2.865010 1_655
O80 Sr4 2.562535 1_555
O80 Sr6 2.779300 1_555
O80 Sr7 2.819173 1_555
O81 Sr3 2.569332 1_555
O81 Sr7 2.758892 1_554
O81 Sr6 2.849408 1_555
O82 Sr8 2.487115 1_555
O83 Sr5 2.517394 1_556
O84 Sr4 2.682633 1_555
O85 Sr3 2.690158 1_556
O87 Sr5 2.748531 1_556
