# generated using pymatgen
data_LiFePO4
_symmetry_space_group_name_H-M   'P 1'
_cell_length_a   5.35576049
_cell_length_b   9.11911345
_cell_length_c   10.13026647
_cell_angle_alpha   115.57804450
_cell_angle_beta   104.13500112
_cell_angle_gamma   91.83647024
_symmetry_Int_Tables_number   1
_chemical_formula_structural   LiFePO4
_chemical_formula_sum   'Li4 Fe4 P4 O16'
_cell_volume   427.38177121
_cell_formula_units_Z   4
loop_
 _symmetry_equiv_pos_site_id
 _symmetry_equiv_pos_as_xyz
  1  'x, y, z'
loop_
 _atom_site_type_symbol
 _atom_site_label
 _atom_site_symmetry_multiplicity
 _atom_site_fract_x
 _atom_site_fract_y
 _atom_site_fract_z
 _atom_site_occupancy
  Li  Li0  1  0.80043500  0.44122500  0.01229300  1
  Li  Li1  1  0.30050000  0.94094500  0.01222400  1
  Li  Li2  1  0.01208800  0.37107000  0.51237200  1
  Li  Li3  1  0.51164900  0.87090300  0.51227900  1
  Fe  Fe0  1  0.17892500  0.51205700  0.31954600  1
  Fe  Fe1  1  0.42921700  0.09540100  0.81997100  1
  Fe  Fe2  1  0.67871200  0.01228200  0.31979700  1
  Fe  Fe3  1  0.92805900  0.59527500  0.81960800  1
  P  P0  1  0.35003500  0.70028200  0.69258900  1
  P  P1  1  0.85070400  0.20028500  0.69282100  1
  P  P2  1  0.62528600  0.27522500  0.19287500  1
  P  P3  1  0.12513600  0.77538600  0.19285700  1
  O  O0  1  0.45852800  0.85450200  0.68292700  1
  O  O1  1  0.95849700  0.35457500  0.68289400  1
  O  O2  1  0.80242500  0.40628000  0.18271800  1
  O  O3  1  0.30260600  0.90641200  0.18288800  1
  O  O4  1  0.15375200  0.57926000  0.53520000  1
  O  O5  1  0.65434600  0.07908700  0.53555600  1
  O  O6  1  0.54127600  0.11657200  0.03561400  1
  O  O7  1  0.04072600  0.61693800  0.03547200  1
  O  O8  1  0.19872400  0.75594100  0.81581600  1
  O  O9  1  0.69969200  0.25607100  0.81616400  1
  O  O10  1  0.78490000  0.22770400  0.31605200  1
  O  O11  1  0.28467300  0.72750400  0.31580500  1
  O  O12  1  0.56851400  0.60877100  0.73179000  1
  O  O13  1  0.06975300  0.10925100  0.73213300  1
  O  O14  1  0.37896300  0.33886700  0.23255200  1
  O  O15  1  0.87921600  0.83925900  0.23278500  1
loop_
_geom_bond_atom_site_label_1
_geom_bond_atom_site_label_2
_geom_bond_distance
_geom_bond_site_symmetry_2
Li0 O2 1.883768 1_555
Li0 O9 1.900216 1_554
Li0 O7 1.916827 1_655
Li1 O3 1.883908 1_555
Li1 O8 1.901316 1_554
Li1 O6 1.916969 1_565
Li2 O1 1.884885 1_455
Li2 O10 1.901576 1_455
Li2 O4 1.917380 1_555
Li3 O0 1.884805 1_555
Li3 O11 1.902155 1_555
Li3 O5 1.917355 1_565
Fe0 O14 1.945901 1_555
Fe0 O4 2.039478 1_555
Fe0 O11 2.045885 1_555
Fe0 O2 2.067242 1_455
Fe1 O13 1.946810 1_555
Fe1 O6 2.039034 1_556
Fe1 O9 2.046139 1_555
Fe1 O0 2.067120 1_545
Fe2 O15 1.946696 1_545
Fe2 O5 2.039627 1_555
Fe2 O10 2.046279 1_555
Fe2 O3 2.065875 1_545
Fe3 O12 1.946196 1_555
Fe3 O7 2.039589 1_656
Fe3 O8 2.046740 1_655
Fe3 O1 2.066603 1_555
O0 P0 1.555408 1_555
O1 P1 1.556113 1_555
O2 P2 1.555670 1_555
O3 P3 1.555491 1_555
O4 P0 1.566142 1_555
O5 P1 1.566005 1_555
O6 P2 1.565742 1_555
O7 P3 1.565565 1_555
O8 P0 1.563971 1_555
O9 P1 1.563731 1_555
O10 P2 1.563740 1_555
O11 P3 1.563879 1_555
O12 P0 1.531358 1_555
O13 P1 1.530940 1_455
O14 P2 1.531476 1_555
O15 P3 1.530858 1_655
