# generated using pymatgen
data_Mg14NiSnO16
_symmetry_space_group_name_H-M   'P 1'
_cell_length_a   8.66351600
_cell_length_b   8.66534562
_cell_length_c   4.34399073
_cell_angle_alpha   90.00000000
_cell_angle_beta   90.00000000
_cell_angle_gamma   90.00000000
_symmetry_Int_Tables_number   1
_chemical_formula_structural   Mg14NiSnO16
_chemical_formula_sum   'Mg14 Ni1 Sn1 O16'
_cell_volume   326.11363776
_cell_formula_units_Z   1
loop_
 _symmetry_equiv_pos_site_id
 _symmetry_equiv_pos_as_xyz
  1  'x, y, z'
loop_
 _atom_site_type_symbol
 _atom_site_label
 _atom_site_symmetry_multiplicity
 _atom_site_fract_x
 _atom_site_fract_y
 _atom_site_fract_z
 _atom_site_occupancy
  Mg  Mg0  1  0.50000000  0.00000000  0.00000000  1
  Mg  Mg1  1  0.50000000  0.50000000  0.00000000  1
  Mg  Mg2  1  0.00000000  0.23604776  0.50000000  1
  Mg  Mg3  1  0.00000000  0.76395224  0.50000000  1
  Mg  Mg4  1  0.50000000  0.24738631  0.50000000  1
  Mg  Mg5  1  0.50000000  0.75261369  0.50000000  1
  Mg  Mg6  1  0.24851469  0.00000000  0.50000000  1
  Mg  Mg7  1  0.25995357  0.50000000  0.50000000  1
  Mg  Mg8  1  0.75148531  0.00000000  0.50000000  1
  Mg  Mg9  1  0.74004643  0.50000000  0.50000000  1
  Mg  Mg10  1  0.25359692  0.24259706  0.00000000  1
  Mg  Mg11  1  0.25359692  0.75740294  0.00000000  1
  Mg  Mg12  1  0.74640308  0.24259706  0.00000000  1
  Mg  Mg13  1  0.74640308  0.75740294  0.00000000  1
  Ni  Ni0  1  0.00000000  0.00000000  0.00000000  1
  Sn  Sn0  1  0.00000000  0.50000000  0.00000000  1
  O  O0  1  0.25878950  0.00000000  0.00000000  1
  O  O1  1  0.26755937  0.50000000  0.00000000  1
  O  O2  1  0.74121050  0.00000000  0.00000000  1
  O  O3  1  0.73244063  0.50000000  0.00000000  1
  O  O4  1  0.24883746  0.25038890  0.50000000  1
  O  O5  1  0.24883746  0.74961110  0.50000000  1
  O  O6  1  0.75116254  0.25038890  0.50000000  1
  O  O7  1  0.75116254  0.74961110  0.50000000  1
  O  O8  1  0.00000000  0.00000000  0.50000000  1
  O  O9  1  0.00000000  0.50000000  0.50000000  1
  O  O10  1  0.50000000  0.00000000  0.50000000  1
  O  O11  1  0.50000000  0.50000000  0.50000000  1
  O  O12  1  0.00000000  0.23715818  0.00000000  1
  O  O13  1  0.00000000  0.76284182  0.00000000  1
  O  O14  1  0.50000000  0.24829298  0.00000000  1
  O  O15  1  0.50000000  0.75170702  0.00000000  1
loop_
_geom_bond_atom_site_label_1
_geom_bond_atom_site_label_2
_geom_bond_distance
_geom_bond_site_symmetry_2
Mg0 O2 2.089731 1_555
Mg0 O0 2.089731 1_555
Mg0 O14 2.151544 1_555
Mg0 O15 2.151544 1_545
Mg0 O10 2.171995 1_554
Mg0 O10 2.171995 1_555
Mg1 O1 2.013753 1_555
Mg1 O3 2.013753 1_555
Mg1 O11 2.171995 1_554
Mg1 O11 2.171995 1_555
Mg1 O15 2.181128 1_555
Mg1 O14 2.181128 1_555
Mg2 O8 2.045435 1_555
Mg2 O6 2.159386 1_455
Mg2 O4 2.159386 1_555
Mg2 O12 2.172017 1_556
Mg2 O12 2.172017 1_555
Mg2 O9 2.287237 1_555
Mg3 O8 2.045435 1_565
Mg3 O7 2.159386 1_455
Mg3 O5 2.159386 1_555
Mg3 O13 2.172017 1_555
Mg3 O13 2.172017 1_556
Mg3 O9 2.287237 1_555
Mg4 O10 2.143688 1_555
Mg4 O14 2.172010 1_556
Mg4 O14 2.172010 1_555
Mg4 O4 2.176106 1_555
Mg4 O6 2.176106 1_555
Mg4 O11 2.188985 1_555
Mg5 O10 2.143688 1_565
Mg5 O15 2.172010 1_556
Mg5 O15 2.172010 1_555
Mg5 O5 2.176106 1_555
Mg5 O7 2.176106 1_555
Mg5 O11 2.188985 1_555
Mg6 O8 2.153011 1_555
Mg6 O5 2.169708 1_545
Mg6 O4 2.169708 1_555
Mg6 O0 2.173819 1_555
Mg6 O0 2.173819 1_556
Mg6 O10 2.178747 1_555
Mg7 O11 2.079646 1_555
Mg7 O4 2.165109 1_555
Mg7 O5 2.165109 1_555
Mg7 O1 2.172995 1_556
Mg7 O1 2.172995 1_555
Mg7 O9 2.252112 1_555
Mg8 O8 2.153011 1_655
Mg8 O6 2.169708 1_555
Mg8 O7 2.169708 1_545
Mg8 O2 2.173819 1_555
Mg8 O2 2.173819 1_556
Mg8 O10 2.178747 1_555
Mg9 O11 2.079646 1_555
Mg9 O6 2.165109 1_555
Mg9 O7 2.165109 1_555
Mg9 O3 2.172995 1_556
Mg9 O3 2.172995 1_555
Mg9 O9 2.252112 1_655
Mg10 O0 2.102669 1_555
Mg10 O14 2.135288 1_555
Mg10 O4 2.173436 1_555
Mg10 O4 2.173436 1_554
Mg10 O12 2.197546 1_555
Mg10 O1 2.233763 1_555
Mg11 O0 2.102669 1_565
Mg11 O15 2.135288 1_555
Mg11 O5 2.173436 1_555
Mg11 O5 2.173436 1_554
Mg11 O13 2.197546 1_555
Mg11 O1 2.233763 1_555
Mg12 O2 2.102669 1_555
Mg12 O14 2.135288 1_555
Mg12 O6 2.173436 1_555
Mg12 O6 2.173436 1_554
Mg12 O12 2.197546 1_655
Mg12 O3 2.233763 1_555
Mg13 O2 2.102669 1_565
Mg13 O15 2.135288 1_555
Mg13 O7 2.173436 1_555
Mg13 O7 2.173436 1_554
Mg13 O13 2.197546 1_655
Mg13 O3 2.233763 1_555
Ni0 O13 2.055058 1_545
Ni0 O12 2.055058 1_555
Ni0 O8 2.171995 1_554
Ni0 O8 2.171995 1_555
Ni0 O0 2.242027 1_555
Ni0 O2 2.242027 1_455
O1 Sn0 2.318005 1_555
O3 Sn0 2.318005 1_655
O9 Sn0 2.171995 1_555
O9 Sn0 2.171995 1_556
O12 Sn0 2.277615 1_555
O13 Sn0 2.277615 1_555
