# generated using pymatgen
data_LiMnVF6
_symmetry_space_group_name_H-M   'P 1'
_cell_length_a   4.60944075
_cell_length_b   8.65260684
_cell_length_c   8.65237406
_cell_angle_alpha   120.00116269
_cell_angle_beta   89.99604510
_cell_angle_gamma   89.99656264
_symmetry_Int_Tables_number   1
_chemical_formula_structural   LiMnVF6
_chemical_formula_sum   'Li3 Mn3 V3 F18'
_cell_volume   298.85190888
_cell_formula_units_Z   3
loop_
 _symmetry_equiv_pos_site_id
 _symmetry_equiv_pos_as_xyz
  1  'x, y, z'
loop_
 _atom_site_type_symbol
 _atom_site_label
 _atom_site_symmetry_multiplicity
 _atom_site_fract_x
 _atom_site_fract_y
 _atom_site_fract_z
 _atom_site_occupancy
  Li  Li0  1  -0.00000671  0.00000127  0.00000055  1
  Li  Li1  1  0.49001941  0.33327128  0.66661641  1
  Li  Li2  1  0.50990268  0.66670491  0.33340747  1
  Mn  Mn0  1  1.00003871  0.64611047  0.64619746  1
  Mn  Mn1  1  0.99998549  0.35399665  0.00009125  1
  Mn  Mn2  1  0.00005997  0.99993897  0.35380504  1
  V  V0  1  0.49998134  0.31439947  0.31435102  1
  V  V1  1  0.50006804  0.68561006  0.99997405  1
  V  V2  1  0.50009540  1.00000783  0.68570350  1
  F  F0  1  0.27172259  0.89053215  0.46854362  1
  F  F1  1  0.27159417  0.53150444  0.42200058  1
  F  F2  1  0.27167529  0.57804073  0.10950559  1
  F  F3  1  0.72832076  0.10942259  0.57796517  1
  F  F4  1  0.72824140  0.42199336  0.53142717  1
  F  F5  1  0.72835815  0.46850114  0.89045670  1
  F  F6  1  0.27262586  0.22430888  0.78281565  1
  F  F7  1  0.27256713  0.21721364  0.44149023  1
  F  F8  1  0.27257091  0.55837363  0.77568515  1
  F  F9  1  0.72743487  0.77565376  0.55847004  1
  F  F10  1  0.72738237  0.44164690  0.21728804  1
  F  F11  1  0.72744015  0.78270172  0.22426512  1
  F  F12  1  0.24287973  0.89220780  0.77996409  1
  F  F13  1  0.24281625  0.22007223  0.11224627  1
  F  F14  1  0.24287793  0.88770905  0.10772392  1
  F  F15  1  0.75718713  0.10780997  0.88773639  1
  F  F16  1  0.75707566  0.11228464  0.22003292  1
  F  F17  1  0.75708534  0.77998144  0.89223662  1
loop_
_geom_bond_atom_site_label_1
_geom_bond_atom_site_label_2
_geom_bond_distance
_geom_bond_site_symmetry_2
F0 V2 1.938129 1_555
F0 Li2 2.014512 1_555
F0 Mn2 2.095144 1_555
F1 V0 1.937659 1_555
F1 Li2 2.014828 1_555
F1 Mn0 2.094980 1_455
F2 V1 1.937746 1_554
F2 Li2 2.015327 1_555
F2 Mn1 2.094702 1_455
F3 V2 1.937652 1_545
F3 Li1 2.015021 1_555
F3 Mn2 2.095275 1_645
F4 V0 1.937321 1_555
F4 Li1 2.015246 1_555
F4 Mn0 2.095448 1_555
F5 V1 1.937442 1_555
F5 Li1 2.015254 1_555
F5 Mn1 2.094986 1_556
F6 Li1 1.962588 1_555
F6 V2 1.985164 1_545
F6 Mn1 2.064610 1_456
F7 Li1 1.962543 1_555
F7 V0 1.985224 1_555
F7 Mn2 2.064417 1_545
F8 Li1 1.962227 1_555
F8 V1 1.985340 1_555
F8 Mn0 2.064047 1_455
F9 Li2 1.962332 1_555
F9 V2 1.985177 1_555
F9 Mn0 2.064526 1_555
F10 Li2 1.962025 1_555
F10 V0 1.985189 1_555
F10 Mn1 2.063977 1_555
F11 Li2 1.962762 1_555
F11 V1 1.985021 1_554
F11 Mn2 2.064494 1_655
F12 V2 1.923966 1_555
F12 Li0 1.992931 1_566
F12 Mn0 2.159317 1_455
F13 V0 1.924137 1_555
F13 Li0 1.993223 1_555
F13 Mn1 2.159143 1_455
F14 V1 1.923989 1_554
F14 Li0 1.992954 1_565
F14 Mn2 2.158939 1_555
F15 V2 1.923525 1_545
F15 Li0 1.993102 1_656
F15 Mn1 2.159793 1_556
F16 V0 1.923829 1_555
F16 Li0 1.992989 1_655
F16 Mn2 2.159699 1_645
F17 V1 1.923652 1_555
F17 Li0 1.993128 1_666
F17 Mn0 2.159003 1_555
