# generated using pymatgen
data_LiLa4Ho4O12
_symmetry_space_group_name_H-M   'P 1'
_cell_length_a   6.16853653
_cell_length_b   8.58429580
_cell_length_c   5.93084412
_cell_angle_alpha   92.13152255
_cell_angle_beta   90.07727614
_cell_angle_gamma   90.11671652
_symmetry_Int_Tables_number   1
_chemical_formula_structural   LiLa4Ho4O12
_chemical_formula_sum   'Li1 La4 Ho4 O12'
_cell_volume   313.83500447
_cell_formula_units_Z   1
loop_
 _symmetry_equiv_pos_site_id
 _symmetry_equiv_pos_as_xyz
  1  'x, y, z'
loop_
 _atom_site_type_symbol
 _atom_site_label
 _atom_site_symmetry_multiplicity
 _atom_site_fract_x
 _atom_site_fract_y
 _atom_site_fract_z
 _atom_site_occupancy
  Li  Li0  1  0.38502600  0.44542500  0.35303100  1
  La  La0  1  0.05488400  0.25603400  0.99422300  1
  La  La1  1  0.44105200  0.76999600  0.48939800  1
  La  La2  1  0.57927600  0.20634800  0.51934800  1
  La  La3  1  0.95006400  0.75406700  0.01735500  1
  Ho  Ho0  1  0.00831900  0.99864300  0.50729700  1
  Ho  Ho1  1  0.97265800  0.50597000  0.49938400  1
  Ho  Ho2  1  0.50377500  0.00419100  0.01058000  1
  Ho  Ho3  1  0.50329200  0.50576800  0.95794000  1
  O  O0  1  0.05334800  0.74973300  0.63288800  1
  O  O1  1  0.18243600  0.55736300  0.18525100  1
  O  O2  1  0.20448800  0.92671800  0.19777600  1
  O  O3  1  0.31168200  0.43316700  0.65680900  1
  O  O4  1  0.32094200  0.04982100  0.69269300  1
  O  O5  1  0.43258200  0.26495500  0.13855500  1
  O  O6  1  0.56540800  0.75129900  0.87134200  1
  O  O7  1  0.69583300  0.94092400  0.31947100  1
  O  O8  1  0.66590000  0.56676700  0.30969800  1
  O  O9  1  0.81262700  0.06777100  0.82372900  1
  O  O10  1  0.81562800  0.43418700  0.81342100  1
  O  O11  1  0.94703200  0.24835400  0.37439300  1
loop_
_geom_bond_atom_site_label_1
_geom_bond_atom_site_label_2
_geom_bond_distance
_geom_bond_site_symmetry_2
Li0 O3 1.864899 1_555
Li0 O1 1.883587 1_555
Li0 O5 1.990079 1_555
Li0 O8 2.041239 1_555
La0 O11 2.354928 1_456
La0 O9 2.394146 1_455
La0 O10 2.407018 1_455
La0 O5 2.481090 1_556
La0 O4 2.968075 1_555
La1 O7 2.396566 1_555
La1 O6 2.401752 1_555
La1 O8 2.445134 1_555
La1 O0 2.547328 1_555
La1 O2 2.665531 1_555
La1 O4 2.750815 1_565
La2 O4 2.345260 1_555
La2 O11 2.457697 1_555
La2 O5 2.500654 1_555
La2 O9 2.627865 1_555
La2 O7 2.630917 1_545
La2 O3 2.660659 1_555
La2 O10 2.953061 1_555
La3 O0 2.367356 1_654
La3 O2 2.381743 1_655
La3 O1 2.455302 1_655
La3 O6 2.524519 1_554
La3 O7 2.836701 1_555
La3 O8 2.977920 1_555
La3 O10 3.071117 1_554
La3 O9 3.086431 1_564
Ho0 O4 2.252943 1_565
Ho0 O2 2.267177 1_555
Ho0 O7 2.269636 1_455
Ho0 O9 2.292932 1_465
Ho0 O0 2.306031 1_555
Ho0 O11 2.342522 1_465
Ho1 O10 2.207876 1_555
Ho1 O0 2.263807 1_655
Ho1 O8 2.271686 1_555
Ho1 O11 2.311136 1_555
Ho1 O1 2.324971 1_655
Ho1 O3 2.383113 1_655
Ho2 O4 2.242964 1_554
Ho2 O7 2.263948 1_545
Ho2 O2 2.266864 1_545
Ho2 O9 2.280803 1_554
Ho2 O6 2.325972 1_544
Ho2 O5 2.378704 1_555
Ho3 O10 2.189597 1_555
Ho3 O3 2.209885 1_555
Ho3 O6 2.220543 1_555
Ho3 O8 2.354482 1_556
Ho3 O5 2.402787 1_556
Ho3 O1 2.428435 1_556
