# generated using pymatgen
data_LiCeS2O9
_symmetry_space_group_name_H-M   'P 1'
_cell_length_a   4.64807300
_cell_length_b   8.18298040
_cell_length_c   18.31941531
_cell_angle_alpha   97.94680916
_cell_angle_beta   90.00000000
_cell_angle_gamma   90.00000000
_symmetry_Int_Tables_number   1
_chemical_formula_structural   LiCeS2O9
_chemical_formula_sum   'Li4 Ce4 S8 O36'
_cell_volume   690.08932180
_cell_formula_units_Z   4
loop_
 _symmetry_equiv_pos_site_id
 _symmetry_equiv_pos_as_xyz
  1  'x, y, z'
loop_
 _atom_site_type_symbol
 _atom_site_label
 _atom_site_symmetry_multiplicity
 _atom_site_fract_x
 _atom_site_fract_y
 _atom_site_fract_z
 _atom_site_occupancy
  Li  Li0  1  0.93210900  0.11422500  0.29435700  1
  Li  Li1  1  0.43210900  0.88577500  0.20564300  1
  Li  Li2  1  0.06789100  0.88577500  0.70564300  1
  Li  Li3  1  0.56789100  0.11422500  0.79435700  1
  Ce  Ce0  1  0.51271400  0.61683200  0.39948200  1
  Ce  Ce1  1  0.01271400  0.38316800  0.10051800  1
  Ce  Ce2  1  0.48728600  0.38316800  0.60051800  1
  Ce  Ce3  1  0.98728600  0.61683200  0.89948200  1
  S  S0  1  0.96623300  0.29114900  0.44716900  1
  S  S1  1  0.46623300  0.70885100  0.05283100  1
  S  S2  1  0.03376700  0.70885100  0.55283100  1
  S  S3  1  0.53376700  0.29114900  0.94716900  1
  S  S4  1  0.94772600  0.72528800  0.26412900  1
  S  S5  1  0.44772600  0.27471200  0.23587100  1
  S  S6  1  0.05227400  0.27471200  0.73587100  1
  S  S7  1  0.55227400  0.72528800  0.76412900  1
  O  O0  1  0.92919500  0.13336100  0.40118600  1
  O  O1  1  0.42919500  0.86663900  0.09881400  1
  O  O2  1  0.07080500  0.86663900  0.59881400  1
  O  O3  1  0.57080500  0.13336100  0.90118600  1
  O  O4  1  0.67612100  0.36853000  0.47031000  1
  O  O5  1  0.17612100  0.63147000  0.02969000  1
  O  O6  1  0.32387900  0.63147000  0.52969000  1
  O  O7  1  0.82387900  0.36853000  0.97031000  1
  O  O8  1  0.12218600  0.27168300  0.51706000  1
  O  O9  1  0.62218600  0.72831700  0.98294000  1
  O  O10  1  0.87781400  0.72831700  0.48294000  1
  O  O11  1  0.37781400  0.27168300  0.01706000  1
  O  O12  1  0.11407000  0.41270500  0.40683300  1
  O  O13  1  0.61407000  0.58729500  0.09316700  1
  O  O14  1  0.88593000  0.58729500  0.59316700  1
  O  O15  1  0.38593000  0.41270500  0.90683300  1
  O  O16  1  0.06280300  0.88996500  0.25609000  1
  O  O17  1  0.56280300  0.11003500  0.24391000  1
  O  O18  1  0.93719700  0.11003500  0.74391000  1
  O  O19  1  0.43719700  0.88996500  0.75609000  1
  O  O20  1  0.05229400  0.60534700  0.20155200  1
  O  O21  1  0.55229400  0.39465300  0.29844800  1
  O  O22  1  0.94770600  0.39465300  0.79844800  1
  O  O23  1  0.44770600  0.60534700  0.70155200  1
  O  O24  1  0.62945000  0.72998400  0.26868500  1
  O  O25  1  0.12945000  0.27001600  0.23131500  1
  O  O26  1  0.37055000  0.27001600  0.73131500  1
  O  O27  1  0.87055000  0.72998400  0.76868500  1
  O  O28  1  0.04859100  0.67192200  0.33550400  1
  O  O29  1  0.54859100  0.32807800  0.16449600  1
  O  O30  1  0.95140900  0.32807800  0.66449600  1
  O  O31  1  0.45140900  0.67192200  0.83550400  1
  O  O32  1  0.93712500  0.13602100  0.08158900  1
  O  O33  1  0.43712500  0.86397900  0.41841100  1
  O  O34  1  0.06287500  0.86397900  0.91841100  1
  O  O35  1  0.56287500  0.13602100  0.58158900  1
loop_
_geom_bond_atom_site_label_1
_geom_bond_atom_site_label_2
_geom_bond_distance
_geom_bond_site_symmetry_2
Li0 O0 1.941647 1_555
Li0 O17 1.947580 1_555
Li0 O16 1.967841 1_645
Li0 O25 2.051204 1_655
Li1 O1 1.941647 1_555
Li1 O16 1.947580 1_555
Li1 O17 1.967841 1_565
Li1 O24 2.051204 1_555
Li2 O2 1.941647 1_555
Li2 O19 1.947580 1_555
Li2 O18 1.967841 1_465
Li2 O27 2.051204 1_455
Li3 O3 1.941647 1_555
Li3 O18 1.947580 1_555
Li3 O19 1.967841 1_545
Li3 O26 2.051204 1_555
Ce0 O33 2.034668 1_555
Ce0 O10 2.379910 1_555
Ce0 O21 2.415489 1_555
Ce0 O12 2.510736 1_555
Ce0 O28 2.525240 1_555
Ce0 O6 2.528943 1_555
Ce0 O4 2.667931 1_555
Ce0 O24 2.739821 1_555
Ce0 O28 2.815502 1_655
Ce1 O32 2.034668 1_455
Ce1 O11 2.379910 1_555
Ce1 O20 2.415489 1_555
Ce1 O13 2.510736 1_455
Ce1 O29 2.525240 1_455
Ce1 O7 2.528943 1_454
Ce1 O5 2.667931 1_555
Ce1 O25 2.739821 1_555
Ce1 O29 2.815502 1_555
Ce2 O35 2.034668 1_555
Ce2 O8 2.379910 1_555
Ce2 O23 2.415489 1_555
Ce2 O14 2.510736 1_555
Ce2 O30 2.525240 1_555
Ce2 O4 2.528943 1_555
Ce2 O6 2.667931 1_555
Ce2 O26 2.739821 1_555
Ce2 O30 2.815502 1_455
Ce3 O34 2.034668 1_655
Ce3 O9 2.379910 1_555
Ce3 O22 2.415489 1_555
Ce3 O15 2.510736 1_655
Ce3 O31 2.525240 1_655
Ce3 O5 2.528943 1_656
Ce3 O7 2.667931 1_555
Ce3 O27 2.739821 1_555
Ce3 O31 2.815502 1_555
O0 S0 1.451080 1_555
O1 S1 1.451080 1_555
O2 S2 1.451080 1_555
O3 S3 1.451080 1_555
O4 S0 1.524727 1_555
O5 S1 1.524727 1_555
O6 S2 1.524727 1_555
O7 S3 1.524727 1_555
O8 S0 1.498848 1_455
O9 S1 1.498848 1_556
O10 S2 1.498848 1_655
O11 S3 1.498848 1_554
O12 S0 1.486893 1_455
O13 S1 1.486893 1_555
O14 S2 1.486893 1_655
O15 S3 1.486893 1_555
O16 S4 1.475992 1_455
O17 S5 1.475992 1_555
O18 S6 1.475992 1_655
O19 S7 1.475992 1_555
O20 S4 1.484113 1_455
O21 S5 1.484113 1_555
O22 S6 1.484113 1_655
O23 S7 1.484113 1_555
O24 S4 1.481922 1_555
O25 S5 1.481922 1_555
O26 S6 1.481922 1_555
O27 S7 1.481922 1_555
O28 S4 1.509327 1_455
O29 S5 1.509327 1_555
O30 S6 1.509327 1_655
O31 S7 1.509327 1_555
