# generated using pymatgen
data_Ti8Pb8O23
_symmetry_space_group_name_H-M   'P 1'
_cell_length_a   3.95337000
_cell_length_b   11.51237100
_cell_length_c   12.54621178
_cell_angle_alpha   66.30292223
_cell_angle_beta   90.00000000
_cell_angle_gamma   90.00000000
_symmetry_Int_Tables_number   1
_chemical_formula_structural   Ti8Pb8O23
_chemical_formula_sum   'Ti8 Pb8 O23'
_cell_volume   522.86557415
_cell_formula_units_Z   1
loop_
 _symmetry_equiv_pos_site_id
 _symmetry_equiv_pos_as_xyz
  1  'x, y, z'
loop_
 _atom_site_type_symbol
 _atom_site_label
 _atom_site_symmetry_multiplicity
 _atom_site_fract_x
 _atom_site_fract_y
 _atom_site_fract_z
 _atom_site_occupancy
  Ti  Ti0  1  0.50000000  0.14627900  0.73584700  1
  Ti  Ti1  1  0.50000000  0.38981400  0.24046500  1
  Ti  Ti2  1  0.50000000  0.76467200  0.98993400  1
  Ti  Ti3  1  0.50000000  0.26523800  0.99061100  1
  Ti  Ti4  1  0.50000000  0.51204300  0.49229900  1
  Ti  Ti5  1  0.50000000  0.01418700  0.48969000  1
  Ti  Ti6  1  0.50000000  0.63976300  0.74059000  1
  Ti  Ti7  1  0.50000000  0.88850000  0.24006200  1
  Pb  Pb0  1  0.00000000  0.87668100  0.74998100  1
  Pb  Pb1  1  0.00000000  0.74851400  0.50057300  1
  Pb  Pb2  1  0.00000000  0.37923100  0.75062200  1
  Pb  Pb3  1  0.00000000  0.25156200  0.49579400  1
  Pb  Pb4  1  0.00000000  0.12386400  0.24971000  1
  Pb  Pb5  1  0.00000000  0.62462000  0.25093400  1
  Pb  Pb6  1  0.00000000  0.50062700  0.00034500  1
  Pb  Pb7  1  0.00000000  0.00072600  0.99827000  1
  O  O0  1  0.50000000  0.60463400  0.59598200  1
  O  O1  1  0.50000000  0.98449600  0.84376300  1
  O  O2  1  0.50000000  0.73040100  0.84640300  1
  O  O3  1  0.50000000  0.47858500  0.84630000  1
  O  O4  1  0.50000000  0.85431400  0.59684700  1
  O  O5  1  0.50000000  0.98119200  0.34733800  1
  O  O6  1  0.50000000  0.72809900  0.34757300  1
  O  O7  1  0.50000000  0.85555600  0.09652600  1
  O  O8  1  0.50000000  0.60441800  0.09676200  1
  O  O9  1  0.50000000  0.22971300  0.84341500  1
  O  O10  1  0.50000000  0.48001000  0.34700500  1
  O  O11  1  0.50000000  0.34900000  0.60061800  1
  O  O12  1  0.50000000  0.10734100  0.59851700  1
  O  O13  1  0.50000000  0.23021500  0.34807800  1
  O  O14  1  0.50000000  0.35494000  0.09569100  1
  O  O15  1  0.50000000  0.10477300  0.09736800  1
  O  O16  1  0.00000000  0.91798300  0.22259300  1
  O  O17  1  0.00000000  0.29226800  0.96872900  1
  O  O18  1  0.00000000  0.79455200  0.97032100  1
  O  O19  1  0.00000000  0.04476500  0.47349900  1
  O  O20  1  0.00000000  0.54060100  0.47277500  1
  O  O21  1  0.00000000  0.66725200  0.72107900  1
  O  O22  1  0.00000000  0.41798700  0.22081700  1
loop_
_geom_bond_atom_site_label_1
_geom_bond_atom_site_label_2
_geom_bond_distance
_geom_bond_site_symmetry_2
O0 Ti4 1.985685 1_555
O0 Ti6 2.011206 1_555
O0 Pb1 2.547561 1_555
O0 Pb1 2.547561 1_655
O1 Ti0 1.809727 1_565
O1 Ti2 2.457054 1_555
O1 Pb7 2.826840 1_665
O1 Pb7 2.826840 1_565
O1 Pb0 2.829517 1_555
O1 Pb0 2.829517 1_655
O2 Ti6 1.991146 1_555
O2 Ti2 1.992365 1_555
O2 Pb0 2.563038 1_555
O2 Pb0 2.563038 1_655
O3 Ti6 1.795521 1_555
O3 Ti3 2.395039 1_555
O3 Pb2 2.785704 1_655
O3 Pb2 2.785704 1_555
O3 Pb6 2.846250 1_556
O3 Pb6 2.846250 1_656
O4 Ti5 1.790534 1_565
O4 Ti6 2.402647 1_555
O4 Pb1 2.834139 1_655
O4 Pb1 2.834139 1_555
O4 Pb0 2.839445 1_655
O4 Pb0 2.839445 1_555
O5 Ti5 1.969596 1_565
O5 Ti7 2.025986 1_555
O5 Pb4 2.547203 1_565
O5 Pb4 2.547203 1_665
O6 Ti7 1.796448 1_555
O6 Ti4 2.419394 1_555
O6 Pb5 2.820903 1_555
O6 Pb5 2.820903 1_655
O6 Pb1 2.830177 1_555
O6 Pb1 2.830177 1_655
O7 Ti7 1.983893 1_555
O7 Ti2 2.001966 1_554
O7 Pb7 2.562031 1_564
O7 Pb7 2.562031 1_664
O8 Ti2 1.792338 1_554
O8 Ti1 2.402921 1_555
O8 Pb6 2.821372 1_655
O8 Pb6 2.821372 1_555
O8 Pb5 2.839787 1_655
O8 Pb5 2.839787 1_555
O9 Ti0 1.945742 1_555
O9 Ti3 2.045691 1_555
O9 Pb2 2.571919 1_655
O9 Pb2 2.571919 1_555
O10 Ti1 1.995133 1_555
O10 Ti4 1.999817 1_555
O10 Pb5 2.553181 1_555
O10 Pb5 2.553181 1_655
O11 Ti4 1.821993 1_555
O11 Ti0 2.267689 1_555
O11 Pb3 2.842711 1_555
O11 Pb3 2.842711 1_655
O11 Pb2 2.845478 1_655
O11 Pb2 2.845478 1_555
O12 Ti0 1.946894 1_555
O12 Ti5 2.047263 1_555
O12 Pb3 2.570010 1_555
O12 Pb3 2.570010 1_655
O13 Ti1 1.790191 1_555
O13 Ti5 2.406259 1_555
O13 Pb3 2.787186 1_555
O13 Pb3 2.787186 1_655
O13 Pb4 2.853770 1_655
O13 Pb4 2.853770 1_555
O14 Ti3 1.974545 1_554
O14 Ti1 2.011600 1_555
O14 Pb6 2.557064 1_655
O14 Pb6 2.557064 1_555
O15 Ti3 1.793813 1_554
O15 Ti7 2.412746 1_545
O15 Pb4 2.818931 1_555
O15 Pb4 2.818931 1_655
O15 Pb7 2.843405 1_654
O15 Pb7 2.843405 1_554
O16 Ti7 2.002681 1_455
O16 Ti7 2.002681 1_555
O16 Pb4 2.526194 1_565
O16 Pb7 2.583279 1_564
O17 Ti3 2.002703 1_555
O17 Ti3 2.002703 1_455
O17 Pb2 2.507630 1_555
O17 Pb6 2.583782 1_556
O18 Ti2 2.004526 1_555
O18 Ti2 2.004526 1_455
O18 Pb7 2.534898 1_565
O18 Pb0 2.536750 1_555
O19 Ti5 2.003744 1_455
O19 Ti5 2.003744 1_555
O19 Pb3 2.506265 1_555
O19 Pb4 2.580176 1_555
O20 Ti4 2.002659 1_555
O20 Ti4 2.002659 1_455
O20 Pb5 2.553077 1_555
O20 Pb1 2.553785 1_555
O21 Ti6 2.001271 1_455
O21 Ti6 2.001271 1_555
O21 Pb1 2.539382 1_555
O21 Pb0 2.578228 1_555
O22 Ti1 2.002244 1_555
O22 Ti1 2.002244 1_455
O22 Pb6 2.537929 1_555
O22 Pb5 2.554238 1_555
