# generated using pymatgen
data_K2Te(IO6)2
_symmetry_space_group_name_H-M   'P 1'
_cell_length_a   6.56415613
_cell_length_b   6.56415613
_cell_length_c   9.37163621
_cell_angle_alpha   69.49959764
_cell_angle_beta   69.49959764
_cell_angle_gamma   59.99999869
_symmetry_Int_Tables_number   1
_chemical_formula_structural   K2Te(IO6)2
_chemical_formula_sum   'K2 Te1 I2 O12'
_cell_volume   319.83665553
_cell_formula_units_Z   1
loop_
 _symmetry_equiv_pos_site_id
 _symmetry_equiv_pos_as_xyz
  1  'x, y, z'
loop_
 _atom_site_type_symbol
 _atom_site_label
 _atom_site_symmetry_multiplicity
 _atom_site_fract_x
 _atom_site_fract_y
 _atom_site_fract_z
 _atom_site_occupancy
  K  K0  1  0.40508100  0.40508100  0.78475700  1
  K  K1  1  0.59491900  0.59491900  0.21524300  1
  Te  Te0  1  0.00000000  0.00000000  0.00000000  1
  I  I0  1  0.17969100  0.17969100  0.46092600  1
  I  I1  1  0.82030900  0.82030900  0.53907400  1
  O  O0  1  0.78912600  0.01538900  0.89106200  1
  O  O1  1  0.01538900  0.30442200  0.89106200  1
  O  O2  1  0.30442200  0.78912600  0.89106200  1
  O  O3  1  0.21087400  0.98461100  0.10893800  1
  O  O4  1  0.98461100  0.69557800  0.10893800  1
  O  O5  1  0.69557800  0.21087400  0.10893800  1
  O  O6  1  0.95651000  0.21626300  0.36713800  1
  O  O7  1  0.21626300  0.46008800  0.36713800  1
  O  O8  1  0.46008800  0.95651000  0.36713800  1
  O  O9  1  0.04349000  0.78373700  0.63286200  1
  O  O10  1  0.78373700  0.53991200  0.63286200  1
  O  O11  1  0.53991200  0.04349000  0.63286200  1
loop_
_geom_bond_atom_site_label_1
_geom_bond_atom_site_label_2
_geom_bond_distance
_geom_bond_site_symmetry_2
K0 O2 2.723335 1_555
K0 O0 2.723337 1_555
K0 O1 2.723341 1_555
K0 O11 2.797639 1_555
K0 O9 2.797641 1_555
K0 O10 2.797645 1_555
K1 O5 2.723335 1_555
K1 O3 2.723337 1_555
K1 O4 2.723341 1_555
K1 O8 2.797639 1_555
K1 O6 2.797641 1_555
K1 O7 2.797645 1_555
I0 O8 1.838154 1_545
I0 O6 1.838154 1_455
I0 O7 1.838154 1_555
I1 O11 1.838154 1_565
I1 O9 1.838154 1_655
I1 O10 1.838154 1_555
O0 Te0 1.935536 1_656
O1 Te0 1.935531 1_556
O2 Te0 1.935533 1_566
O3 Te0 1.935536 1_565
O4 Te0 1.935531 1_665
O5 Te0 1.935533 1_655
