# generated using pymatgen
data_RbLa(ClO)4
_symmetry_space_group_name_H-M   'P 1'
_cell_length_a   7.28808600
_cell_length_b   8.24092500
_cell_length_c   8.82293800
_cell_angle_alpha   90.00000000
_cell_angle_beta   90.00000000
_cell_angle_gamma   90.00000000
_symmetry_Int_Tables_number   1
_chemical_formula_structural   RbLa(ClO)4
_chemical_formula_sum   'Rb2 La2 Cl8 O8'
_cell_volume   529.91068641
_cell_formula_units_Z   2
loop_
 _symmetry_equiv_pos_site_id
 _symmetry_equiv_pos_as_xyz
  1  'x, y, z'
loop_
 _atom_site_type_symbol
 _atom_site_label
 _atom_site_symmetry_multiplicity
 _atom_site_fract_x
 _atom_site_fract_y
 _atom_site_fract_z
 _atom_site_occupancy
  Rb  Rb0  1  0.00000000  0.59544000  0.50000000  1
  Rb  Rb1  1  0.50000000  0.40456000  0.00000000  1
  La  La0  1  0.50000000  0.09083800  0.50000000  1
  La  La1  1  0.00000000  0.90916200  0.00000000  1
  Cl  Cl0  1  0.33710100  0.91190000  0.79144300  1
  Cl  Cl1  1  0.66289900  0.91190000  0.20855700  1
  Cl  Cl2  1  0.16289900  0.08810000  0.29144300  1
  Cl  Cl3  1  0.83710100  0.08810000  0.70855700  1
  Cl  Cl4  1  0.35065400  0.34359300  0.66338700  1
  Cl  Cl5  1  0.64934600  0.34359300  0.33661300  1
  Cl  Cl6  1  0.14934600  0.65640700  0.16338700  1
  Cl  Cl7  1  0.85065400  0.65640700  0.83661300  1
  O  O0  1  0.26149400  0.93247100  0.61321100  1
  O  O1  1  0.73850600  0.93247100  0.38678900  1
  O  O2  1  0.23850600  0.06752900  0.11321100  1
  O  O3  1  0.76149400  0.06752900  0.88678900  1
  O  O4  1  0.44359500  0.67769900  0.44765600  1
  O  O5  1  0.55640500  0.67769900  0.55234400  1
  O  O6  1  0.05640500  0.32230100  0.94765600  1
  O  O7  1  0.94359500  0.32230100  0.05234400  1
loop_
_geom_bond_atom_site_label_1
_geom_bond_atom_site_label_2
_geom_bond_distance
_geom_bond_site_symmetry_2
La0 O0 2.392173 1_545
La0 O1 2.392173 1_545
La1 O2 2.392173 1_565
La1 O3 2.392173 1_464
Cl0 O0 1.674880 1_555
Cl0 La1 3.069592 1_556
Cl1 O1 1.674880 1_555
Cl1 La1 3.069592 1_655
Cl2 O2 1.674880 1_555
Cl2 La0 3.069592 1_555
Cl3 O3 1.674880 1_555
Cl3 La0 3.069592 1_555
Cl4 La0 2.757065 1_555
Cl4 Rb1 3.202740 1_556
Cl4 Rb0 3.593974 1_555
Cl5 La0 2.757065 1_555
Cl5 Rb1 3.202740 1_555
Cl5 Rb0 3.593974 1_655
Cl6 La1 2.757065 1_555
Cl6 Rb0 3.202740 1_555
Cl6 Rb1 3.593974 1_555
Cl7 La1 2.757065 1_656
Cl7 Rb0 3.202740 1_655
Cl7 Rb1 3.593974 1_556
O0 Rb0 3.513397 1_555
O1 Rb0 3.513397 1_655
O2 Rb1 3.513397 1_555
O3 Rb1 3.513397 1_556
O4 O5 1.236569 1_555
O4 Rb0 3.335392 1_555
O5 Rb0 3.335392 1_655
O6 O7 1.236569 1_456
O6 Rb1 3.335392 1_556
O7 Rb1 3.335392 1_555
