# generated using pymatgen
data_Li9Mn2Co5O16
_symmetry_space_group_name_H-M   'P 1'
_cell_length_a   2.95660900
_cell_length_b   5.08645638
_cell_length_c   19.86719088
_cell_angle_alpha   92.46641387
_cell_angle_beta   92.13877642
_cell_angle_gamma   103.83071638
_symmetry_Int_Tables_number   1
_chemical_formula_structural   Li9Mn2Co5O16
_chemical_formula_sum   'Li9 Mn2 Co5 O16'
_cell_volume   289.49536853
_cell_formula_units_Z   1
loop_
 _symmetry_equiv_pos_site_id
 _symmetry_equiv_pos_as_xyz
  1  'x, y, z'
loop_
 _atom_site_type_symbol
 _atom_site_label
 _atom_site_symmetry_multiplicity
 _atom_site_fract_x
 _atom_site_fract_y
 _atom_site_fract_z
 _atom_site_occupancy
  Li  Li0  1  0.32908500  0.57680200  0.06179300  1
  Li  Li1  1  0.93374400  0.68464000  0.18720200  1
  Li  Li2  1  0.56538900  0.81095500  0.31457200  1
  Li  Li3  1  0.18326100  0.94089800  0.43679200  1
  Li  Li4  1  0.81863700  0.06034500  0.56533900  1
  Li  Li5  1  0.44404600  0.18738200  0.68945000  1
  Li  Li6  1  0.06708000  0.29705800  0.81436300  1
  Li  Li7  1  0.65001800  0.42896400  0.93125900  1
  Li  Li8  1  0.40090800  0.89329100  0.87360100  1
  Mn  Mn0  1  0.99921700  0.00806800  0.99395600  1
  Mn  Mn1  1  0.50067600  0.50082500  0.50156300  1
  Co  Co0  1  0.61615900  0.12596500  0.12428600  1
  Co  Co1  1  0.24191600  0.24305900  0.25123600  1
  Co  Co2  1  0.86166900  0.37114800  0.37617800  1
  Co  Co3  1  0.13348200  0.62421500  0.62695400  1
  Co  Co4  1  0.76586100  0.74882900  0.75470100  1
  O  O0  1  0.61458700  0.25174300  0.02764400  1
  O  O1  1  0.27416800  0.38746600  0.15600000  1
  O  O2  1  0.89098600  0.50274100  0.28517800  1
  O  O3  1  0.54741900  0.63658200  0.40935200  1
  O  O4  1  0.17950000  0.76722300  0.53670500  1
  O  O5  1  0.80311800  0.87531100  0.66197900  1
  O  O6  1  0.43189600  0.00435300  0.77717600  1
  O  O7  1  0.03516800  0.15708300  0.91156900  1
  O  O8  1  0.96163200  0.86967700  0.09048500  1
  O  O9  1  0.59122400  0.98627900  0.21962700  1
  O  O10  1  0.18773700  0.11283200  0.34503100  1
  O  O11  1  0.82440500  0.23572500  0.46634200  1
  O  O12  1  0.45147200  0.35925700  0.59229200  1
  O  O13  1  0.08560000  0.49079000  0.71453900  1
  O  O14  1  0.71911400  0.59744600  0.83132100  1
  O  O15  1  0.39082200  0.76304600  0.97151800  1
loop_
_geom_bond_atom_site_label_1
_geom_bond_atom_site_label_2
_geom_bond_distance
_geom_bond_site_symmetry_2
Li0 O15 2.058011 1_554
Li0 O8 2.114556 1_455
Li0 O0 2.126035 1_555
Li0 O8 2.134731 1_555
Li0 O1 2.135387 1_555
Li0 O0 2.404825 1_455
Li1 O1 2.091757 1_655
Li1 O9 2.121562 1_555
Li1 O8 2.171437 1_555
Li1 O2 2.185945 1_555
Li1 O1 2.211745 1_555
Li1 O9 2.223350 1_655
Li2 O2 2.100048 1_555
Li2 O3 2.112795 1_555
Li2 O9 2.117111 1_555
Li2 O10 2.143768 1_665
Li2 O10 2.181924 1_565
Li2 O2 2.261490 1_455
Li3 O10 2.054732 1_565
Li3 O11 2.109664 1_465
Li3 O3 2.149504 1_555
Li3 O11 2.160768 1_565
Li3 O3 2.164932 1_455
Li3 O4 2.206482 1_555
Li4 O4 2.101845 1_645
Li4 O12 2.130550 1_555
Li4 O12 2.143415 1_655
Li4 O4 2.148761 1_545
Li4 O5 2.171548 1_545
Li4 O11 2.193302 1_555
Li5 O6 2.008462 1_555
Li5 O13 2.123315 1_555
Li5 O12 2.151716 1_555
Li5 O13 2.166040 1_655
Li5 O5 2.172314 1_545
Li5 O5 2.195117 1_445
Li6 O14 2.059018 1_455
Li6 O7 2.084517 1_555
Li6 O6 2.158346 1_555
Li6 O14 2.159492 1_555
Li6 O6 2.180429 1_455
Li6 O13 2.248935 1_555
Li7 O7 2.017063 1_555
Li7 O7 2.025288 1_655
Li7 O0 2.146805 1_556
Li7 O15 2.160091 1_555
Li7 O14 2.193472 1_555
Li7 O15 2.509461 1_655
Li8 O6 2.019629 1_565
Li8 O7 2.050882 1_565
Li8 O15 2.080844 1_555
Li8 O14 2.117121 1_555
Li8 O7 2.119019 1_665
Li8 O14 2.312573 1_455
Mn0 O7 1.829249 1_655
Mn0 O15 1.942455 1_645
Mn0 O15 1.951436 1_545
Mn0 O0 1.984109 1_556
Mn0 O0 2.013446 1_656
Mn0 O8 2.068901 1_546
Mn1 O4 1.951539 1_555
Mn1 O11 1.951879 1_555
Mn1 O12 1.967230 1_555
Mn1 O3 1.983481 1_555
Mn1 O11 2.197970 1_455
Mn1 O4 2.205764 1_655
Co0 O8 1.950925 1_545
Co0 O1 1.951158 1_555
Co0 O9 2.049219 1_545
Co0 O0 2.049931 1_555
Co0 O8 2.125272 1_445
Co0 O1 2.133129 1_655
Co1 O9 1.946690 1_545
Co1 O2 1.976546 1_455
Co1 O10 2.003655 1_555
Co1 O1 2.056244 1_555
Co1 O9 2.106965 1_445
Co1 O2 2.120609 1_555
Co2 O10 1.902328 1_655
Co2 O3 1.920760 1_555
Co2 O11 1.944231 1_555
Co2 O2 1.952484 1_555
Co2 O10 2.160055 1_555
Co2 O3 2.209718 1_655
Co3 O13 1.892762 1_555
Co3 O5 1.907918 1_455
Co3 O12 1.936149 1_555
Co3 O4 1.961020 1_555
Co3 O5 2.155677 1_555
Co3 O12 2.207651 1_455
Co4 O14 1.730571 1_555
Co4 O6 1.860142 1_565
Co4 O13 1.952532 1_655
Co4 O5 1.975530 1_555
Co4 O6 2.104079 1_665
Co4 O13 2.220920 1_555
