# generated using pymatgen
data_TbYb2PrS6
_symmetry_space_group_name_H-M   'P 1'
_cell_length_a   4.13894500
_cell_length_b   11.00269300
_cell_length_c   11.48700388
_cell_angle_alpha   75.17997898
_cell_angle_beta   90.00000000
_cell_angle_gamma   90.00000000
_symmetry_Int_Tables_number   1
_chemical_formula_structural   TbYb2PrS6
_chemical_formula_sum   'Tb2 Yb4 Pr2 S12'
_cell_volume   505.71104897
_cell_formula_units_Z   2
loop_
 _symmetry_equiv_pos_site_id
 _symmetry_equiv_pos_as_xyz
  1  'x, y, z'
loop_
 _atom_site_type_symbol
 _atom_site_label
 _atom_site_symmetry_multiplicity
 _atom_site_fract_x
 _atom_site_fract_y
 _atom_site_fract_z
 _atom_site_occupancy
  Tb  Tb0  1  0.75000000  0.16889000  0.96853600  1
  Tb  Tb1  1  0.25000000  0.83111000  0.03146400  1
  Yb  Yb0  1  0.75000000  0.94679600  0.64904700  1
  Yb  Yb1  1  0.25000000  0.05320400  0.35095300  1
  Yb  Yb2  1  0.75000000  0.67575000  0.41292300  1
  Yb  Yb3  1  0.25000000  0.32425000  0.58707700  1
  Pr  Pr0  1  0.75000000  0.52565700  0.81934800  1
  Pr  Pr1  1  0.25000000  0.47434300  0.18065200  1
  S  S0  1  0.25000000  0.37164400  0.96788900  1
  S  S1  1  0.75000000  0.62835600  0.03211100  1
  S  S2  1  0.25000000  0.05042700  0.10418900  1
  S  S3  1  0.75000000  0.94957300  0.89581100  1
  S  S4  1  0.25000000  0.69838900  0.25916000  1
  S  S5  1  0.75000000  0.30161100  0.74084000  1
  S  S6  1  0.25000000  0.72101400  0.72843700  1
  S  S7  1  0.75000000  0.27898600  0.27156300  1
  S  S8  1  0.75000000  0.40431200  0.38416900  1
  S  S9  1  0.25000000  0.59568800  0.61583100  1
  S  S10  1  0.75000000  0.90337500  0.42803800  1
  S  S11  1  0.25000000  0.09662500  0.57196200  1
loop_
_geom_bond_atom_site_label_1
_geom_bond_atom_site_label_2
_geom_bond_distance
_geom_bond_site_symmetry_2
Pr0 S5 2.833250 1_555
Pr0 S0 2.930277 1_555
Pr0 S0 2.930277 1_655
Pr0 S1 2.943259 1_556
Pr0 S6 2.974075 1_555
Pr0 S6 2.974075 1_655
Pr0 S9 3.069240 1_555
Pr0 S9 3.069240 1_655
Pr1 S4 2.833250 1_555
Pr1 S1 2.930277 1_555
Pr1 S1 2.930277 1_455
Pr1 S0 2.943259 1_554
Pr1 S7 2.974075 1_455
Pr1 S7 2.974075 1_555
Pr1 S8 3.069240 1_455
Pr1 S8 3.069240 1_555
S0 Tb0 3.041535 1_455
S0 Tb0 3.041535 1_555
S1 Tb1 3.041535 1_655
S1 Tb1 3.041535 1_555
S2 Tb0 2.714907 1_554
S2 Tb0 2.714907 1_454
S2 Tb1 2.748104 1_545
S2 Yb1 2.842548 1_555
S3 Tb1 2.714907 1_556
S3 Tb1 2.714907 1_656
S3 Tb0 2.748104 1_565
S3 Yb0 2.842548 1_555
S4 Tb1 2.649455 1_555
S4 Yb2 2.690618 1_455
S4 Yb2 2.690618 1_555
S5 Tb0 2.649455 1_555
S5 Yb3 2.690618 1_555
S5 Yb3 2.690618 1_655
S6 S9 2.118264 1_555
S6 Yb0 3.182252 1_455
S6 Yb0 3.182252 1_555
S7 S8 2.118264 1_555
S7 Yb1 3.182252 1_555
S7 Yb1 3.182252 1_655
S8 Yb3 3.072621 1_655
S8 Yb3 3.072621 1_555
S8 Yb2 3.087589 1_555
S9 Yb2 3.072621 1_455
S9 Yb2 3.072621 1_555
S9 Yb3 3.087589 1_555
S10 Yb2 2.554419 1_555
S10 Yb1 2.652859 1_665
S10 Yb1 2.652859 1_565
S10 Yb0 2.700716 1_555
S11 Yb3 2.554419 1_555
S11 Yb0 2.652859 1_445
S11 Yb0 2.652859 1_545
S11 Yb1 2.700716 1_555
