# generated using pymatgen
data_NaLi15V16O48
_symmetry_space_group_name_H-M   'P 1'
_cell_length_a   10.13591795
_cell_length_b   10.13591795
_cell_length_c   12.81258330
_cell_angle_alpha   82.48016479
_cell_angle_beta   82.48016479
_cell_angle_gamma   50.43277610
_symmetry_Int_Tables_number   1
_chemical_formula_structural   NaLi15V16O48
_chemical_formula_sum   'Na1 Li15 V16 O48'
_cell_volume   1004.05246116
_cell_formula_units_Z   1
loop_
 _symmetry_equiv_pos_site_id
 _symmetry_equiv_pos_as_xyz
  1  'x, y, z'
loop_
 _atom_site_type_symbol
 _atom_site_label
 _atom_site_symmetry_multiplicity
 _atom_site_fract_x
 _atom_site_fract_y
 _atom_site_fract_z
 _atom_site_occupancy
  Na  Na0  1  0.10006300  0.89993700  0.50000000  1
  Li  Li0  1  0.01625700  0.23401800  0.62440900  1
  Li  Li1  1  0.66000200  0.58982000  0.62484400  1
  Li  Li2  1  0.73041600  0.26958400  0.50000000  1
  Li  Li3  1  0.41018000  0.33999800  0.37515600  1
  Li  Li4  1  0.76598200  0.98374300  0.37559100  1
  Li  Li5  1  0.90944400  0.84041500  0.87512400  1
  Li  Li6  1  0.26720800  0.48247800  0.87515300  1
  Li  Li7  1  0.98278500  0.51753700  0.74976900  1
  Li  Li8  1  0.34008000  0.15878400  0.75011800  1
  Li  Li9  1  0.48246300  0.01721500  0.25023100  1
  Li  Li10  1  0.84121600  0.65992000  0.24988200  1
  Li  Li11  1  0.51752200  0.73279200  0.12484700  1
  Li  Li12  1  0.15958500  0.09055600  0.12487600  1
  Li  Li13  1  0.59025800  0.40974200  0.00000000  1
  Li  Li14  1  0.23279600  0.76720400  0.00000000  1
  V  V0  1  0.04510800  0.23861900  0.35089400  1
  V  V1  1  0.52053600  0.70200100  0.39551400  1
  V  V2  1  0.23461400  0.79490300  0.73078700  1
  V  V3  1  0.70270600  0.26732900  0.77266900  1
  V  V4  1  0.29799900  0.47946400  0.60448600  1
  V  V5  1  0.76138100  0.95489200  0.64910600  1
  V  V6  1  0.98276300  0.54817800  0.47773300  1
  V  V7  1  0.45182200  0.01723700  0.52226700  1
  V  V8  1  0.79688000  0.98273700  0.10286700  1
  V  V9  1  0.26748700  0.45209500  0.14654300  1
  V  V10  1  0.48275000  0.04703100  0.97807100  1
  V  V11  1  0.95296900  0.51725000  0.02192900  1
  V  V12  1  0.54790500  0.73251300  0.85345700  1
  V  V13  1  0.01726300  0.20312000  0.89713300  1
  V  V14  1  0.73267100  0.29729400  0.22733100  1
  V  V15  1  0.20509700  0.76538600  0.26921300  1
  O  O0  1  0.00763600  0.43846400  0.36529800  1
  O  O1  1  0.25125000  0.08659200  0.31534400  1
  O  O2  1  0.49095900  0.81647300  0.50665600  1
  O  O3  1  0.66478400  0.49764800  0.43614400  1
  O  O4  1  0.99055500  0.17438400  0.46405200  1
  O  O5  1  0.32615000  0.73344500  0.37615200  1
  O  O6  1  0.65466300  0.25096500  0.33817100  1
  O  O7  1  0.43487300  0.75729400  0.74354500  1
  O  O8  1  0.74903500  0.34533700  0.66182900  1
  O  O9  1  0.08908600  0.99838800  0.68732100  1
  O  O10  1  0.26655500  0.67385000  0.62384800  1
  O  O11  1  0.82561600  0.00944500  0.53594800  1
  O  O12  1  0.50235200  0.33521600  0.56385600  1
  O  O13  1  0.18352700  0.50904100  0.49334400  1
  O  O14  1  0.49913100  0.09541700  0.41200500  1
  O  O15  1  0.49781600  0.41308900  0.81206700  1
  O  O16  1  0.83647600  0.75305300  0.43895800  1
  O  O17  1  0.15397400  0.75122200  0.84115000  1
  O  O18  1  0.74240400  0.06602200  0.75852200  1
  O  O19  1  0.91340800  0.74875000  0.68465600  1
  O  O20  1  0.25147700  0.40110400  0.71468600  1
  O  O21  1  0.56153600  0.99236400  0.63470200  1
  O  O22  1  0.34573300  0.49903300  0.03627200  1
  O  O23  1  0.24694700  0.16352400  0.56104200  1
  O  O24  1  0.00218900  0.83704900  0.06404200  1
  O  O25  1  0.90458300  0.50086900  0.58799500  1
  O  O26  1  0.68422600  0.00665600  0.99285100  1
  O  O27  1  0.99931400  0.59551600  0.91136200  1
  O  O28  1  0.33712800  0.25215200  0.93891800  1
  O  O29  1  0.50725000  0.93416700  0.86801000  1
  O  O30  1  0.09517000  0.24905700  0.78623400  1
  O  O31  1  0.41319200  0.24722200  0.18611800  1
  O  O32  1  0.75277800  0.58680800  0.81388200  1
  O  O33  1  0.75094300  0.90483000  0.21376600  1
  O  O34  1  0.06583300  0.49275000  0.13199000  1
  O  O35  1  0.74784800  0.66287300  0.06108200  1
  O  O36  1  0.40448400  0.00068600  0.08863800  1
  O  O37  1  0.99334400  0.31577400  0.00714900  1
  O  O38  1  0.16295100  0.99781100  0.93595800  1
  O  O39  1  0.50096700  0.65426700  0.96372800  1
  O  O40  1  0.81595900  0.24319000  0.88233400  1
  O  O41  1  0.59889600  0.74852300  0.28531400  1
  O  O42  1  0.93397800  0.25759600  0.24147800  1
  O  O43  1  0.24877800  0.84602600  0.15885000  1
  O  O44  1  0.58691100  0.50218400  0.18793300  1
  O  O45  1  0.75681000  0.18404100  0.11766600  1
  O  O46  1  0.00161200  0.91091400  0.31267900  1
  O  O47  1  0.24270600  0.56512700  0.25645500  1
loop_
_geom_bond_atom_site_label_1
_geom_bond_atom_site_label_2
_geom_bond_distance
_geom_bond_site_symmetry_2
Na0 O11 2.246618 1_465
Na0 O4 2.246618 1_465
Na0 O10 2.332312 1_555
Na0 O5 2.332312 1_555
Na0 O9 2.680300 1_555
Na0 O46 2.680300 1_555
Li0 O23 2.040500 1_555
Li0 O9 2.074747 1_545
Li0 O25 2.173089 1_455
Li0 O8 2.178875 1_455
Li0 O4 2.306578 1_455
Li0 O30 2.373626 1_555
Li1 O8 2.033555 1_555
Li1 O25 2.034478 1_555
Li1 O7 2.287841 1_555
Li1 O2 2.293574 1_555
Li2 O12 2.035666 1_555
Li2 O3 2.035666 1_555
Li2 O11 2.157033 1_555
Li2 O4 2.157033 1_555
Li2 O6 2.372358 1_555
Li2 O8 2.372358 1_555
Li3 O6 2.033555 1_555
Li3 O14 2.034478 1_555
Li3 O47 2.287841 1_555
Li3 O13 2.293574 1_555
Li4 O16 2.040500 1_555
Li4 O46 2.074747 1_655
Li4 O14 2.173089 1_565
Li4 O6 2.178875 1_565
Li4 O11 2.306578 1_565
Li4 O33 2.373626 1_555
Li5 O17 2.028777 1_655
Li5 O27 2.033582 1_555
Li5 O18 2.272266 1_565
Li5 O26 2.277997 1_565
Li6 O28 2.040703 1_555
Li6 O15 2.042422 1_555
Li6 O27 2.178776 1_455
Li6 O17 2.182761 1_555
Li6 O22 2.369401 1_556
Li6 O20 2.372771 1_555
Li7 O32 2.041383 1_555
Li7 O19 2.055499 1_555
Li7 O20 2.176176 1_655
Li7 O30 2.186020 1_655
Li7 O27 2.372181 1_555
Li7 O25 2.376001 1_555
Li8 O20 2.012460 1_555
Li8 O30 2.032264 1_555
Li8 O21 2.243003 1_545
Li8 O29 2.278435 1_545
Li9 O31 2.041383 1_555
Li9 O1 2.055499 1_555
Li9 O41 2.176176 1_545
Li9 O33 2.186020 1_545
Li9 O36 2.372181 1_555
Li9 O14 2.376001 1_555
Li10 O41 2.012460 1_555
Li10 O33 2.032264 1_555
Li10 O0 2.243003 1_655
Li10 O34 2.278435 1_655
Li11 O35 2.040706 1_555
Li11 O44 2.042422 1_555
Li11 O36 2.178776 1_565
Li11 O43 2.182761 1_555
Li11 O39 2.369401 1_554
Li11 O41 2.372771 1_555
Li12 O43 2.028777 1_545
Li12 O36 2.033582 1_555
Li12 O42 2.272266 1_455
Li12 O37 2.277997 1_455
Li13 O22 2.031969 1_555
Li13 O39 2.031969 1_554
Li13 O45 2.280276 1_555
Li13 O40 2.280276 1_554
Li14 O38 2.044484 1_554
Li14 O24 2.044484 1_555
Li14 O22 2.181599 1_555
Li14 O39 2.181599 1_554
Li14 O43 2.341724 1_555
Li14 O17 2.341724 1_554
O0 V6 1.828271 1_455
O0 V0 1.838693 1_555
O1 V0 1.667494 1_555
O2 V1 1.827985 1_555
O2 V7 1.842736 1_565
O3 V1 1.660686 1_555
O4 V0 1.683284 1_655
O5 V15 1.818106 1_555
O5 V1 1.830948 1_555
O6 V14 1.693243 1_555
O7 V12 1.822627 1_555
O7 V2 1.837646 1_555
O8 V3 1.693243 1_555
O9 V2 1.666866 1_555
O10 V2 1.818106 1_555
O10 V4 1.830948 1_555
O11 V5 1.683284 1_545
O12 V4 1.660686 1_555
O13 V4 1.827985 1_555
O13 V6 1.842736 1_455
O14 V7 1.693362 1_555
O15 V3 1.662064 1_555
O16 V6 1.660652 1_555
O17 V2 1.690636 1_555
O18 V5 1.826972 1_545
O18 V3 1.841163 1_555
O19 V5 1.667494 1_555
O20 V4 1.690007 1_555
O21 V7 1.828271 1_565
O21 V5 1.838693 1_555
O22 V9 1.692036 1_555
O23 V7 1.660652 1_555
O24 V8 1.662843 1_455
O25 V6 1.693362 1_555
O26 V8 1.824473 1_546
O26 V10 1.841180 1_555
O27 V11 1.692128 1_556
O28 V10 1.662587 1_555
O29 V10 1.824169 1_565
O29 V12 1.840904 1_555
O30 V13 1.691415 1_555
O31 V9 1.662462 1_555
O32 V12 1.662462 1_555
O33 V8 1.691415 1_555
O34 V11 1.824169 1_455
O34 V9 1.840904 1_555
O35 V11 1.662588 1_555
O36 V10 1.692128 1_554
O37 V13 1.824473 1_654
O37 V11 1.841180 1_555
O38 V13 1.662843 1_565
O39 V12 1.692036 1_555
O40 V3 1.823801 1_555
O40 V13 1.841063 1_655
O41 V1 1.690007 1_555
O42 V0 1.826972 1_655
O42 V14 1.841163 1_555
O43 V15 1.690636 1_555
O44 V14 1.662064 1_555
O45 V14 1.823801 1_555
O45 V8 1.841063 1_545
O46 V15 1.666866 1_555
O47 V9 1.822627 1_555
O47 V15 1.837646 1_555
