# generated using pymatgen
data_SmGa3Ni
_symmetry_space_group_name_H-M   'P 1'
_cell_length_a   6.04668604
_cell_length_b   6.04668604
_cell_length_c   6.04668604
_cell_angle_alpha   140.37908903
_cell_angle_beta   140.37908903
_cell_angle_gamma   57.27815595
_symmetry_Int_Tables_number   1
_chemical_formula_structural   SmGa3Ni
_chemical_formula_sum   'Sm1 Ga3 Ni1'
_cell_volume   89.14653771
_cell_formula_units_Z   1
loop_
 _symmetry_equiv_pos_site_id
 _symmetry_equiv_pos_as_xyz
  1  'x, y, z'
loop_
 _atom_site_type_symbol
 _atom_site_label
 _atom_site_symmetry_multiplicity
 _atom_site_fract_x
 _atom_site_fract_y
 _atom_site_fract_z
 _atom_site_occupancy
  Sm  Sm0  1  0.00000000  0.00000000  0.00000000  1
  Ga  Ga0  1  0.61739300  0.61739300  0.00000000  1
  Ga  Ga1  1  0.38260700  0.38260700  0.00000000  1
  Ga  Ga2  1  0.75000000  0.25000000  0.50000000  1
  Ni  Ni0  1  0.25000000  0.75000000  0.50000000  1
loop_
_geom_bond_atom_site_label_1
_geom_bond_atom_site_label_2
_geom_bond_distance
_geom_bond_site_symmetry_2
Ga0 Ni0 2.486064 1_655
Ga0 Ni0 2.486064 1_554
Ga0 Ga2 2.486064 1_565
Ga0 Ga2 2.486064 1_554
Ga0 Ga1 2.491977 1_555
Ga0 Sm0 3.154613 1_565
Ga0 Sm0 3.154613 1_655
Ga0 Sm0 3.154613 1_666
Ga0 Sm0 3.154613 1_554
Ga1 Ni0 2.486064 1_555
Ga1 Ga2 2.486064 1_454
Ga1 Ni0 2.486064 1_544
Ga1 Ga2 2.486064 1_555
Ga1 Sm0 3.154613 1_655
Ga1 Sm0 3.154613 1_666
Ga1 Sm0 3.154613 1_554
Ga1 Sm0 3.154613 1_565
Ga2 Ni0 2.898120 1_656
Ga2 Ni0 2.898120 1_544
Ga2 Ni0 2.898120 1_645
Ga2 Ni0 2.898120 1_555
Ga2 Sm0 3.352667 1_655
Ga2 Sm0 3.352667 1_666
Ga2 Sm0 3.352667 1_656
Ga2 Sm0 3.352667 1_555
Ni0 Sm0 3.352667 1_566
Ni0 Sm0 3.352667 1_555
Ni0 Sm0 3.352667 1_565
Ni0 Sm0 3.352667 1_666
