# generated using pymatgen
data_HoAl3
_symmetry_space_group_name_H-M   'P 1'
_cell_length_a   6.20382424
_cell_length_b   6.20382424
_cell_length_c   4.58840980
_cell_angle_alpha   90.00000000
_cell_angle_beta   90.00000000
_cell_angle_gamma   120.00001091
_symmetry_Int_Tables_number   1
_chemical_formula_structural   HoAl3
_chemical_formula_sum   'Ho2 Al6'
_cell_volume   152.93671366
_cell_formula_units_Z   2
loop_
 _symmetry_equiv_pos_site_id
 _symmetry_equiv_pos_as_xyz
  1  'x, y, z'
loop_
 _atom_site_type_symbol
 _atom_site_label
 _atom_site_symmetry_multiplicity
 _atom_site_fract_x
 _atom_site_fract_y
 _atom_site_fract_z
 _atom_site_occupancy
  Ho  Ho0  1  0.66666700  0.33333300  0.25000000  1
  Ho  Ho1  1  0.33333300  0.66666700  0.75000000  1
  Al  Al0  1  0.85298204  0.14701796  0.75000000  1
  Al  Al1  1  0.29403491  0.14701796  0.75000000  1
  Al  Al2  1  0.85298204  0.70596509  0.75000000  1
  Al  Al3  1  0.14701796  0.85298204  0.25000000  1
  Al  Al4  1  0.70596509  0.85298204  0.25000000  1
  Al  Al5  1  0.14701796  0.29403491  0.25000000  1
loop_
_geom_bond_atom_site_label_1
_geom_bond_atom_site_label_2
_geom_bond_distance
_geom_bond_site_symmetry_2
Al0 Al1 2.736214 1_655
Al0 Al2 2.736214 1_545
Al0 Al5 2.785500 1_656
Al0 Al4 2.785500 1_546
Al0 Al4 2.785500 1_545
Al0 Al5 2.785500 1_655
Al0 Ho0 3.044906 1_556
Al0 Ho0 3.044906 1_555
Al0 Ho1 3.109089 1_545
Al0 Ho1 3.109089 1_655
Al1 Al2 2.736214 1_445
Al1 Al5 2.785494 1_556
Al1 Al5 2.785494 1_555
Al1 Al3 2.785500 1_545
Al1 Al3 2.785500 1_546
Al1 Ho0 3.044913 1_556
Al1 Ho0 3.044913 1_555
Al1 Ho1 3.109089 1_555
Al1 Ho1 3.109089 1_545
Al2 Al4 2.785494 1_556
Al2 Al4 2.785494 1_555
Al2 Al3 2.785500 1_656
Al2 Al3 2.785500 1_655
Al2 Ho0 3.044913 1_556
Al2 Ho0 3.044913 1_555
Al2 Ho1 3.109089 1_555
Al2 Ho1 3.109089 1_655
Al3 Al5 2.736214 1_565
Al3 Al4 2.736214 1_455
Al3 Ho1 3.044906 1_555
Al3 Ho1 3.044906 1_554
Al3 Ho0 3.109089 1_455
Al3 Ho0 3.109089 1_565
Al4 Al5 2.736214 1_665
Al4 Ho1 3.044913 1_554
Al4 Ho1 3.044913 1_555
Al4 Ho0 3.109089 1_555
Al4 Ho0 3.109089 1_565
Al5 Ho1 3.044913 1_555
Al5 Ho1 3.044913 1_554
Al5 Ho0 3.109089 1_555
Al5 Ho0 3.109089 1_455
