# generated using pymatgen
data_NaNbO3
_symmetry_space_group_name_H-M   'P 1'
_cell_length_a   5.63061416
_cell_length_b   5.64571163
_cell_length_c   47.84336804
_cell_angle_alpha   90.00000000
_cell_angle_beta   90.00000000
_cell_angle_gamma   90.00000000
_symmetry_Int_Tables_number   1
_chemical_formula_structural   NaNbO3
_chemical_formula_sum   'Na24 Nb24 O72'
_cell_volume   1520.88439888
_cell_formula_units_Z   24
loop_
 _symmetry_equiv_pos_site_id
 _symmetry_equiv_pos_as_xyz
  1  'x, y, z'
loop_
 _atom_site_type_symbol
 _atom_site_label
 _atom_site_symmetry_multiplicity
 _atom_site_fract_x
 _atom_site_fract_y
 _atom_site_fract_z
 _atom_site_occupancy
  Na  Na0  1  0.99851880  0.48739533  0.04099110  1
  Na  Na1  1  0.50148120  0.98739533  0.45900890  1
  Na  Na2  1  0.00148120  0.51260467  0.54099110  1
  Na  Na3  1  0.49851880  0.01260467  0.95900890  1
  Na  Na4  1  0.00148120  0.51260467  0.95900890  1
  Na  Na5  1  0.49851880  0.01260467  0.54099110  1
  Na  Na6  1  0.99851880  0.48739533  0.45900890  1
  Na  Na7  1  0.50148120  0.98739533  0.04099110  1
  Na  Na8  1  0.99507607  0.47558839  0.12433903  1
  Na  Na9  1  0.50492393  0.97558839  0.37566097  1
  Na  Na10  1  0.00492393  0.52441161  0.62433903  1
  Na  Na11  1  0.49507607  0.02441161  0.87566097  1
  Na  Na12  1  0.00492393  0.52441161  0.87566097  1
  Na  Na13  1  0.49507607  0.02441161  0.62433903  1
  Na  Na14  1  0.99507607  0.47558839  0.37566097  1
  Na  Na15  1  0.50492393  0.97558839  0.12433903  1
  Na  Na16  1  0.98574439  0.47621742  0.20826726  1
  Na  Na17  1  0.51425561  0.97621742  0.29173274  1
  Na  Na18  1  0.01425561  0.52378258  0.70826726  1
  Na  Na19  1  0.48574439  0.02378258  0.79173274  1
  Na  Na20  1  0.01425561  0.52378258  0.79173274  1
  Na  Na21  1  0.48574439  0.02378258  0.70826726  1
  Na  Na22  1  0.98574439  0.47621742  0.29173274  1
  Na  Na23  1  0.51425561  0.97621742  0.20826726  1
  Nb  Nb0  1  0.50000000  0.50000000  -0.00000000  1
  Nb  Nb1  1  0.00000000  -0.00000000  0.50000000  1
  Nb  Nb2  1  0.50000000  0.50000000  0.50000000  1
  Nb  Nb3  1  0.00000000  0.00000000  -0.00000000  1
  Nb  Nb4  1  0.50290380  0.47923594  0.08330034  1
  Nb  Nb5  1  0.99709620  0.97923594  0.41669966  1
  Nb  Nb6  1  0.49709620  0.52076406  0.58330034  1
  Nb  Nb7  1  0.00290380  0.02076406  0.91669966  1
  Nb  Nb8  1  0.49709620  0.52076406  0.91669966  1
  Nb  Nb9  1  0.00290380  0.02076406  0.58330034  1
  Nb  Nb10  1  0.50290380  0.47923594  0.41669966  1
  Nb  Nb11  1  0.99709620  0.97923594  0.08330034  1
  Nb  Nb12  1  0.49270751  0.47631761  0.16655697  1
  Nb  Nb13  1  0.00729249  0.97631761  0.33344303  1
  Nb  Nb14  1  0.50729249  0.52368239  0.66655697  1
  Nb  Nb15  1  0.99270751  0.02368239  0.83344303  1
  Nb  Nb16  1  0.50729249  0.52368239  0.83344303  1
  Nb  Nb17  1  0.99270751  0.02368239  0.66655697  1
  Nb  Nb18  1  0.49270751  0.47631761  0.33344303  1
  Nb  Nb19  1  0.00729249  0.97631761  0.16655697  1
  Nb  Nb20  1  0.49326185  0.47553978  0.25000000  1
  Nb  Nb21  1  0.00673815  0.97553978  0.25000000  1
  Nb  Nb22  1  0.50673815  0.52446022  0.75000000  1
  Nb  Nb23  1  0.99326185  0.02446022  0.75000000  1
  O  O0  1  0.48965943  0.50889147  0.04164122  1
  O  O1  1  0.01034057  0.00889147  0.45835878  1
  O  O2  1  0.51034057  0.49110853  0.54164122  1
  O  O3  1  0.98965943  0.99110853  0.95835878  1
  O  O4  1  0.51034057  0.49110853  0.95835878  1
  O  O5  1  0.98965943  0.99110853  0.54164122  1
  O  O6  1  0.48965943  0.50889147  0.45835878  1
  O  O7  1  0.01034057  0.00889147  0.04164122  1
  O  O8  1  0.49849665  0.51946979  0.12504255  1
  O  O9  1  0.00150335  0.01946979  0.37495745  1
  O  O10  1  0.50150335  0.48053021  0.62504255  1
  O  O11  1  0.99849665  0.98053021  0.87495745  1
  O  O12  1  0.50150335  0.48053021  0.87495745  1
  O  O13  1  0.99849665  0.98053021  0.62504255  1
  O  O14  1  0.49849665  0.51946979  0.37495745  1
  O  O15  1  0.00150335  0.01946979  0.12504255  1
  O  O16  1  0.50996822  0.51623157  0.20831986  1
  O  O17  1  0.99003178  0.01623157  0.29168014  1
  O  O18  1  0.49003178  0.48376843  0.70831986  1
  O  O19  1  0.00996822  0.98376843  0.79168014  1
  O  O20  1  0.49003178  0.48376843  0.79168014  1
  O  O21  1  0.00996822  0.98376843  0.70831986  1
  O  O22  1  0.50996822  0.51623157  0.29168014  1
  O  O23  1  0.99003178  0.01623157  0.20831986  1
  O  O24  1  0.29432791  0.79403102  0.99898063  1
  O  O25  1  0.20567209  0.29403102  0.50101937  1
  O  O26  1  0.70567209  0.20596898  0.49898063  1
  O  O27  1  0.79432791  0.70596898  0.00101937  1
  O  O28  1  0.70567209  0.20596898  0.00101937  1
  O  O29  1  0.79432791  0.70596898  0.49898063  1
  O  O30  1  0.29432791  0.79403102  0.50101937  1
  O  O31  1  0.20567209  0.29403102  0.99898063  1
  O  O32  1  0.21199562  0.72026243  0.08356860  1
  O  O33  1  0.28800438  0.22026243  0.41643140  1
  O  O34  1  0.78800438  0.27973757  0.58356860  1
  O  O35  1  0.71199562  0.77973757  0.91643140  1
  O  O36  1  0.78800438  0.27973757  0.91643140  1
  O  O37  1  0.71199562  0.77973757  0.58356860  1
  O  O38  1  0.21199562  0.72026243  0.41643140  1
  O  O39  1  0.28800438  0.22026243  0.08356860  1
  O  O40  1  0.78916898  0.29670939  0.08266164  1
  O  O41  1  0.71083102  0.79670939  0.41733836  1
  O  O42  1  0.21083102  0.70329061  0.58266164  1
  O  O43  1  0.28916898  0.20329061  0.91733836  1
  O  O44  1  0.21083102  0.70329061  0.91733836  1
  O  O45  1  0.28916898  0.20329061  0.58266164  1
  O  O46  1  0.78916898  0.29670939  0.41733836  1
  O  O47  1  0.71083102  0.79670939  0.08266164  1
  O  O48  1  0.29888354  0.80763139  0.16710956  1
  O  O49  1  0.20111646  0.30763139  0.33289044  1
  O  O50  1  0.70111646  0.19236861  0.66710956  1
  O  O51  1  0.79888354  0.69236861  0.83289044  1
  O  O52  1  0.70111646  0.19236861  0.83289044  1
  O  O53  1  0.79888354  0.69236861  0.66710956  1
  O  O54  1  0.29888354  0.80763139  0.33289044  1
  O  O55  1  0.20111646  0.30763139  0.16710956  1
  O  O56  1  0.70018127  0.21184017  0.16595769  1
  O  O57  1  0.79981873  0.71184017  0.33404231  1
  O  O58  1  0.29981873  0.78815983  0.66595769  1
  O  O59  1  0.20018127  0.28815983  0.83404231  1
  O  O60  1  0.29981873  0.78815983  0.83404231  1
  O  O61  1  0.20018127  0.28815983  0.66595769  1
  O  O62  1  0.70018127  0.21184017  0.33404231  1
  O  O63  1  0.79981873  0.71184017  0.16595769  1
  O  O64  1  0.29784079  0.80631276  0.25000000  1
  O  O65  1  0.20215921  0.30631276  0.25000000  1
  O  O66  1  0.70215921  0.19368724  0.75000000  1
  O  O67  1  0.79784079  0.69368724  0.75000000  1
  O  O68  1  0.69938689  0.20924252  0.25000000  1
  O  O69  1  0.80061311  0.70924252  0.25000000  1
  O  O70  1  0.30061311  0.79075748  0.75000000  1
  O  O71  1  0.19938689  0.29075748  0.75000000  1
loop_
_geom_bond_atom_site_label_1
_geom_bond_atom_site_label_2
_geom_bond_distance
_geom_bond_site_symmetry_2
Na0 O27 2.549868 1_555
Na0 O40 2.554045 1_555
Na0 O31 2.567497 1_654
Na0 O7 2.702494 1_655
Na0 O32 2.706073 1_655
Na0 O0 2.768260 1_655
Na0 O0 2.867929 1_555
Na0 O7 2.945133 1_665
Na0 O28 2.983379 1_555
Na0 O39 3.013461 1_655
Na1 O26 2.549868 1_565
Na1 O41 2.554045 1_555
Na1 O30 2.567497 1_555
Na1 O6 2.702494 1_555
Na1 O33 2.706073 1_565
Na1 O1 2.768260 1_565
Na1 O1 2.867929 1_665
Na1 O6 2.945133 1_565
Na1 O29 2.983379 1_555
Na1 O38 3.013461 1_555
Na2 O25 2.549868 1_555
Na2 O42 2.554045 1_555
Na2 O29 2.567497 1_455
Na2 O5 2.702494 1_455
Na2 O34 2.706073 1_455
Na2 O2 2.768260 1_455
Na2 O2 2.867929 1_555
Na2 O5 2.945133 1_445
Na2 O30 2.983379 1_555
Na2 O37 3.013461 1_455
Na3 O24 2.549868 1_545
Na3 O43 2.554045 1_555
Na3 O28 2.567497 1_556
Na3 O4 2.702494 1_555
Na3 O35 2.706073 1_545
Na3 O3 2.768260 1_545
Na3 O3 2.867929 1_445
Na3 O4 2.945133 1_545
Na3 O31 2.983379 1_555
Na3 O36 3.013461 1_555
Na4 O31 2.549868 1_555
Na4 O44 2.554045 1_555
Na4 O27 2.567497 1_456
Na4 O3 2.702494 1_455
Na4 O36 2.706073 1_455
Na4 O4 2.768260 1_455
Na4 O4 2.867929 1_555
Na4 O3 2.945133 1_445
Na4 O24 2.983379 1_555
Na4 O35 3.013461 1_455
Na5 O30 2.549868 1_545
Na5 O45 2.554045 1_555
Na5 O26 2.567497 1_555
Na5 O2 2.702494 1_555
Na5 O37 2.706073 1_545
Na5 O5 2.768260 1_545
Na5 O5 2.867929 1_445
Na5 O2 2.945133 1_545
Na5 O25 2.983379 1_555
Na5 O34 3.013461 1_555
Na6 O29 2.549868 1_555
Na6 O46 2.554045 1_555
Na6 O25 2.567497 1_655
Na6 O1 2.702494 1_655
Na6 O38 2.706073 1_655
Na6 O6 2.768260 1_655
Na6 O6 2.867929 1_555
Na6 O1 2.945133 1_665
Na6 O26 2.983379 1_555
Na6 O33 3.013461 1_655
Na7 O28 2.549868 1_565
Na7 O47 2.554045 1_555
Na7 O24 2.567497 1_554
Na7 O0 2.702494 1_555
Na7 O39 2.706073 1_565
Na7 O7 2.768260 1_565
Na7 O7 2.867929 1_665
Na7 O0 2.945133 1_565
Na7 O27 2.983379 1_555
Na7 O32 3.013461 1_555
Na8 O40 2.517945 1_555
Na8 O55 2.536208 1_655
Na8 O15 2.575588 1_655
Na8 O63 2.636770 1_555
Na8 O32 2.684170 1_655
Na8 O8 2.807203 1_555
Na8 O8 2.845572 1_655
Na9 O41 2.517945 1_555
Na9 O54 2.536208 1_555
Na9 O14 2.575588 1_555
Na9 O62 2.636770 1_565
Na9 O33 2.684170 1_565
Na9 O9 2.807203 1_665
Na9 O9 2.845572 1_565
Na10 O42 2.517945 1_555
Na10 O53 2.536208 1_455
Na10 O13 2.575588 1_455
Na10 O61 2.636770 1_555
Na10 O34 2.684170 1_455
Na10 O10 2.807203 1_555
Na10 O10 2.845572 1_455
Na11 O43 2.517945 1_555
Na11 O52 2.536208 1_555
Na11 O12 2.575588 1_555
Na11 O60 2.636770 1_545
Na11 O35 2.684170 1_545
Na11 O11 2.807203 1_445
Na11 O11 2.845572 1_545
Na12 O44 2.517945 1_555
Na12 O51 2.536208 1_455
Na12 O11 2.575588 1_455
Na12 O59 2.636770 1_555
Na12 O36 2.684170 1_455
Na12 O12 2.807203 1_555
Na12 O12 2.845572 1_455
Na13 O45 2.517945 1_555
Na13 O50 2.536208 1_555
Na13 O10 2.575588 1_555
Na13 O58 2.636770 1_545
Na13 O37 2.684170 1_545
Na13 O13 2.807203 1_445
Na13 O13 2.845572 1_545
Na14 O46 2.517945 1_555
Na14 O49 2.536208 1_655
Na14 O9 2.575588 1_655
Na14 O57 2.636770 1_555
Na14 O38 2.684170 1_655
Na14 O14 2.807203 1_555
Na14 O14 2.845572 1_655
Na15 O47 2.517945 1_555
Na15 O48 2.536208 1_555
Na15 O8 2.575588 1_555
Na15 O56 2.636770 1_565
Na15 O39 2.684170 1_565
Na15 O15 2.807203 1_665
Na15 O15 2.845572 1_565
Na16 O55 2.500786 1_655
Na16 O65 2.528149 1_655
Na16 O23 2.597061 1_555
Na16 O69 2.608436 1_555
Na16 O63 2.638760 1_555
Na16 O16 2.688422 1_555
Na17 O54 2.500786 1_555
Na17 O64 2.528149 1_555
Na17 O22 2.597061 1_555
Na17 O68 2.608436 1_565
Na17 O62 2.638760 1_565
Na17 O17 2.688422 1_565
Na18 O53 2.500786 1_455
Na18 O67 2.528149 1_455
Na18 O21 2.597061 1_555
Na18 O71 2.608436 1_555
Na18 O61 2.638760 1_555
Na18 O18 2.688422 1_555
Na19 O52 2.500786 1_555
Na19 O66 2.528149 1_555
Na19 O20 2.597061 1_555
Na19 O70 2.608436 1_545
Na19 O60 2.638760 1_545
Na19 O19 2.688422 1_545
Na20 O51 2.500786 1_455
Na20 O67 2.528149 1_455
Na20 O19 2.597061 1_555
Na20 O71 2.608436 1_555
Na20 O59 2.638760 1_555
Na20 O20 2.688422 1_555
Na21 O50 2.500786 1_555
Na21 O66 2.528149 1_555
Na21 O18 2.597061 1_555
Na21 O70 2.608436 1_545
Na21 O58 2.638760 1_545
Na21 O21 2.688422 1_545
Na22 O49 2.500786 1_655
Na22 O65 2.528149 1_655
Na22 O17 2.597061 1_555
Na22 O69 2.608436 1_555
Na22 O57 2.638760 1_555
Na22 O22 2.688422 1_555
Na23 O48 2.500786 1_555
Na23 O64 2.528149 1_555
Na23 O16 2.597061 1_555
Na23 O68 2.608436 1_565
Na23 O56 2.638760 1_565
Na23 O23 2.688422 1_565
Nb0 O0 1.993739 1_555
Nb0 O4 1.993739 1_554
Nb0 O24 2.024631 1_554
Nb0 O28 2.024631 1_555
Nb0 O27 2.025104 1_555
Nb0 O31 2.025104 1_554
Nb1 O1 1.993739 1_555
Nb1 O5 1.993739 1_445
Nb1 O25 2.024631 1_555
Nb1 O29 2.024631 1_445
Nb1 O26 2.025104 1_455
Nb1 O30 2.025104 1_545
Nb2 O6 1.993739 1_555
Nb2 O2 1.993739 1_555
Nb2 O30 2.024631 1_555
Nb2 O26 2.024631 1_555
Nb2 O25 2.025104 1_555
Nb2 O29 2.025104 1_555
Nb3 O7 1.993739 1_555
Nb3 O3 1.993739 1_444
Nb3 O31 2.024631 1_554
Nb3 O27 2.024631 1_445
Nb3 O28 2.025104 1_455
Nb3 O24 2.025104 1_544
Nb4 O39 1.897896 1_555
Nb4 O40 1.913349 1_555
Nb4 O0 2.001522 1_555
Nb4 O8 2.010118 1_555
Nb4 O32 2.129522 1_555
Nb4 O47 2.141069 1_555
Nb5 O38 1.897896 1_655
Nb5 O41 1.913349 1_555
Nb5 O1 2.001522 1_665
Nb5 O9 2.010118 1_665
Nb5 O33 2.129522 1_665
Nb5 O46 2.141069 1_565
Nb6 O37 1.897896 1_555
Nb6 O42 1.913349 1_555
Nb6 O2 2.001522 1_555
Nb6 O10 2.010118 1_555
Nb6 O34 2.129522 1_555
Nb6 O45 2.141069 1_555
Nb7 O36 1.897896 1_455
Nb7 O43 1.913349 1_555
Nb7 O3 2.001522 1_445
Nb7 O11 2.010118 1_445
Nb7 O35 2.129522 1_445
Nb7 O44 2.141069 1_545
Nb8 O35 1.897896 1_555
Nb8 O44 1.913349 1_555
Nb8 O4 2.001522 1_555
Nb8 O12 2.010118 1_555
Nb8 O36 2.129522 1_555
Nb8 O43 2.141069 1_555
Nb9 O34 1.897896 1_455
Nb9 O45 1.913349 1_555
Nb9 O5 2.001522 1_445
Nb9 O13 2.010118 1_445
Nb9 O37 2.129522 1_445
Nb9 O42 2.141069 1_545
Nb10 O33 1.897896 1_555
Nb10 O46 1.913349 1_555
Nb10 O6 2.001522 1_555
Nb10 O14 2.010118 1_555
Nb10 O38 2.129522 1_555
Nb10 O41 2.141069 1_555
Nb11 O32 1.897896 1_655
Nb11 O47 1.913349 1_555
Nb11 O7 2.001522 1_665
Nb11 O15 2.010118 1_665
Nb11 O39 2.129522 1_665
Nb11 O40 2.141069 1_565
Nb12 O56 1.896065 1_555
Nb12 O55 1.898237 1_555
Nb12 O8 2.001341 1_555
Nb12 O16 2.013092 1_555
Nb12 O48 2.165760 1_555
Nb12 O63 2.181541 1_555
Nb13 O57 1.896065 1_455
Nb13 O54 1.898237 1_555
Nb13 O9 2.001341 1_565
Nb13 O17 2.013092 1_465
Nb13 O49 2.165760 1_565
Nb13 O62 2.181541 1_465
Nb14 O58 1.896065 1_555
Nb14 O53 1.898237 1_555
Nb14 O10 2.001341 1_555
Nb14 O18 2.013092 1_555
Nb14 O50 2.165760 1_555
Nb14 O61 2.181541 1_555
Nb15 O59 1.896065 1_655
Nb15 O52 1.898237 1_555
Nb15 O11 2.001341 1_545
Nb15 O19 2.013092 1_645
Nb15 O51 2.165760 1_545
Nb15 O60 2.181541 1_645
Nb16 O60 1.896065 1_555
Nb16 O51 1.898237 1_555
Nb16 O12 2.001341 1_555
Nb16 O20 2.013092 1_555
Nb16 O52 2.165760 1_555
Nb16 O59 2.181541 1_555
Nb17 O61 1.896065 1_655
Nb17 O50 1.898237 1_555
Nb17 O13 2.001341 1_545
Nb17 O21 2.013092 1_645
Nb17 O53 2.165760 1_545
Nb17 O58 2.181541 1_645
Nb18 O62 1.896065 1_555
Nb18 O49 1.898237 1_555
Nb18 O14 2.001341 1_555
Nb18 O22 2.013092 1_555
Nb18 O54 2.165760 1_555
Nb18 O57 2.181541 1_555
Nb19 O63 1.896065 1_455
Nb19 O48 1.898237 1_555
Nb19 O15 2.001341 1_565
Nb19 O23 2.013092 1_465
Nb19 O55 2.165760 1_565
Nb19 O56 2.181541 1_465
Nb20 O65 1.897210 1_555
Nb20 O68 1.899300 1_555
Nb20 O22 2.009511 1_555
Nb20 O16 2.009511 1_555
Nb20 O64 2.167513 1_555
Nb20 O69 2.176180 1_555
Nb21 O64 1.897210 1_555
Nb21 O69 1.899300 1_455
Nb21 O17 2.009511 1_465
Nb21 O23 2.009511 1_465
Nb21 O65 2.167513 1_565
Nb21 O68 2.176180 1_465
Nb22 O67 1.897210 1_555
Nb22 O70 1.899300 1_555
Nb22 O18 2.009511 1_555
Nb22 O20 2.009511 1_555
Nb22 O66 2.167513 1_555
Nb22 O71 2.176180 1_555
Nb23 O66 1.897210 1_555
Nb23 O71 1.899300 1_655
Nb23 O21 2.009511 1_645
Nb23 O19 2.009511 1_645
Nb23 O67 2.167513 1_545
Nb23 O70 2.176180 1_645
