# generated using pymatgen
data_ZrAlOs
_symmetry_space_group_name_H-M   'P 1'
_cell_length_a   5.29765183
_cell_length_b   5.29765183
_cell_length_c   8.43653800
_cell_angle_alpha   90.00000000
_cell_angle_beta   90.00000000
_cell_angle_gamma   119.28421330
_symmetry_Int_Tables_number   1
_chemical_formula_structural   ZrAlOs
_chemical_formula_sum   'Zr4 Al4 Os4'
_cell_volume   206.51386071
_cell_formula_units_Z   4
loop_
 _symmetry_equiv_pos_site_id
 _symmetry_equiv_pos_as_xyz
  1  'x, y, z'
loop_
 _atom_site_type_symbol
 _atom_site_label
 _atom_site_symmetry_multiplicity
 _atom_site_fract_x
 _atom_site_fract_y
 _atom_site_fract_z
 _atom_site_occupancy
  Zr  Zr0  1  0.33519400  0.66480600  0.20193200  1
  Zr  Zr1  1  0.67299100  0.32700900  0.32067300  1
  Zr  Zr2  1  0.67299100  0.32700900  0.67932700  1
  Zr  Zr3  1  0.33519400  0.66480600  0.79806800  1
  Al  Al0  1  0.99467300  0.00532700  0.25056900  1
  Al  Al1  1  0.99467300  0.00532700  0.74943100  1
  Al  Al2  1  0.82893700  0.65653800  0.00000000  1
  Al  Al3  1  0.34346200  0.17106300  0.00000000  1
  Os  Os0  1  0.83037400  0.16962600  0.00000000  1
  Os  Os1  1  0.16727000  0.33981500  0.50000000  1
  Os  Os2  1  0.66018500  0.83273000  0.50000000  1
  Os  Os3  1  0.16404000  0.83596000  0.50000000  1
loop_
_geom_bond_atom_site_label_1
_geom_bond_atom_site_label_2
_geom_bond_distance
_geom_bond_site_symmetry_2
Zr0 Zr1 3.220450 1_565
Zr0 Zr1 3.220450 1_455
Zr0 Zr1 3.246729 1_555
Zr1 Zr2 3.025798 1_555
Zr2 Zr3 3.220450 1_545
Zr2 Zr3 3.220450 1_655
Zr2 Zr3 3.246729 1_555
Al0 Os0 2.593270 1_555
Al0 Os2 2.611360 1_545
Al0 Os1 2.611360 1_655
Al0 Os3 2.612642 1_645
Al0 Al2 2.658331 1_545
Al0 Al3 2.658331 1_655
Al0 Zr1 2.999868 1_555
Al0 Zr0 3.076182 1_545
Al0 Zr0 3.076182 1_655
Al0 Zr0 3.140149 1_645
Al0 Zr1 3.190023 1_545
Al0 Zr1 3.190023 1_655
Al1 Os0 2.593270 1_556
Al1 Os2 2.611360 1_545
Al1 Os1 2.611360 1_655
Al1 Os3 2.612642 1_645
Al1 Al2 2.658331 1_546
Al1 Al3 2.658331 1_656
Al1 Zr2 2.999868 1_555
Al1 Zr3 3.076182 1_545
Al1 Zr3 3.076182 1_655
Al1 Zr3 3.140149 1_645
Al1 Zr2 3.190023 1_545
Al1 Zr2 3.190023 1_655
Al2 Os0 2.583222 1_555
Al2 Al3 2.599653 1_555
Al2 Os0 2.714446 1_565
Al2 Al3 2.755211 1_665
Al2 Zr2 3.104546 1_554
Al2 Zr1 3.104546 1_555
Al2 Zr3 3.139753 1_554
Al2 Zr0 3.139753 1_555
Al2 Zr0 3.159471 1_655
Al2 Zr3 3.159471 1_654
Al3 Os0 2.583222 1_555
Al3 Os0 2.714446 1_455
Al3 Zr2 3.104546 1_554
Al3 Zr1 3.104546 1_555
Al3 Zr0 3.139753 1_555
Al3 Zr3 3.139753 1_554
Al3 Zr3 3.159471 1_544
Al3 Zr0 3.159471 1_545
Os0 Zr2 3.064213 1_554
Os0 Zr1 3.064213 1_555
Os0 Zr3 3.173777 1_654
Os0 Zr0 3.173777 1_545
Os0 Zr3 3.173777 1_544
Os0 Zr0 3.173777 1_655
Os1 Os3 2.636816 1_555
Os1 Os2 2.639493 1_555
Os1 Os3 2.660920 1_545
Os1 Os2 2.715371 1_445
Os1 Zr3 2.929296 1_555
Os1 Zr0 2.929296 1_555
Os1 Zr1 2.996050 1_455
Os1 Zr2 2.996050 1_455
Os1 Zr2 3.106289 1_555
Os1 Zr1 3.106289 1_555
Os2 Os3 2.636816 1_555
Os2 Os3 2.660920 1_655
Os2 Zr3 2.929296 1_555
Os2 Zr0 2.929296 1_555
Os2 Zr1 2.996050 1_565
Os2 Zr2 2.996050 1_565
Os2 Zr2 3.106289 1_555
Os2 Zr1 3.106289 1_555
Os3 Zr3 2.961767 1_555
Os3 Zr0 2.961767 1_555
Os3 Zr2 3.076394 1_565
Os3 Zr1 3.076394 1_565
Os3 Zr1 3.076394 1_455
Os3 Zr2 3.076394 1_455
