# generated using pymatgen
data_Li2Zr2O5
_symmetry_space_group_name_H-M   'P 1'
_cell_length_a   5.60421400
_cell_length_b   8.20077400
_cell_length_c   11.36465100
_cell_angle_alpha   90.00000000
_cell_angle_beta   90.00000000
_cell_angle_gamma   90.00000000
_symmetry_Int_Tables_number   1
_chemical_formula_structural   Li2Zr2O5
_chemical_formula_sum   'Li8 Zr8 O20'
_cell_volume   522.30677317
_cell_formula_units_Z   4
loop_
 _symmetry_equiv_pos_site_id
 _symmetry_equiv_pos_as_xyz
  1  'x, y, z'
loop_
 _atom_site_type_symbol
 _atom_site_label
 _atom_site_symmetry_multiplicity
 _atom_site_fract_x
 _atom_site_fract_y
 _atom_site_fract_z
 _atom_site_occupancy
  Li  Li0  1  0.04971400  0.41260100  0.08815700  1
  Li  Li1  1  0.04971400  0.08739900  0.41184300  1
  Li  Li2  1  0.45028600  0.41260100  0.91184300  1
  Li  Li3  1  0.45028600  0.08739900  0.58815700  1
  Li  Li4  1  0.95028600  0.58739900  0.91184300  1
  Li  Li5  1  0.95028600  0.91260100  0.58815700  1
  Li  Li6  1  0.54971400  0.58739900  0.08815700  1
  Li  Li7  1  0.54971400  0.91260100  0.41184300  1
  Zr  Zr0  1  0.53469500  0.33870400  0.41196100  1
  Zr  Zr1  1  0.53469500  0.16129600  0.08803900  1
  Zr  Zr2  1  0.96530500  0.33870400  0.58803900  1
  Zr  Zr3  1  0.96530500  0.16129600  0.91196100  1
  Zr  Zr4  1  0.46530500  0.66129600  0.58803900  1
  Zr  Zr5  1  0.46530500  0.83870400  0.91196100  1
  Zr  Zr6  1  0.03469500  0.66129600  0.41196100  1
  Zr  Zr7  1  0.03469500  0.83870400  0.08803900  1
  O  O0  1  0.47991000  0.25000000  0.25000000  1
  O  O1  1  0.02009000  0.25000000  0.75000000  1
  O  O2  1  0.52009000  0.75000000  0.75000000  1
  O  O3  1  0.97991000  0.75000000  0.25000000  1
  O  O4  1  0.25000000  0.86250600  0.50000000  1
  O  O5  1  0.25000000  0.63749400  0.00000000  1
  O  O6  1  0.75000000  0.13749400  0.50000000  1
  O  O7  1  0.75000000  0.36250600  0.00000000  1
  O  O8  1  0.25000000  0.22616700  0.50000000  1
  O  O9  1  0.25000000  0.27383300  0.00000000  1
  O  O10  1  0.75000000  0.77383300  0.50000000  1
  O  O11  1  0.75000000  0.72616700  0.00000000  1
  O  O12  1  0.38191200  0.93593700  0.10122500  1
  O  O13  1  0.38191200  0.56406300  0.39877500  1
  O  O14  1  0.11808800  0.93593700  0.89877500  1
  O  O15  1  0.11808800  0.56406300  0.60122500  1
  O  O16  1  0.88191200  0.43593700  0.39877500  1
  O  O17  1  0.88191200  0.06406300  0.10122500  1
  O  O18  1  0.61808800  0.43593700  0.60122500  1
  O  O19  1  0.61808800  0.06406300  0.89877500  1
loop_
_geom_bond_atom_site_label_1
_geom_bond_atom_site_label_2
_geom_bond_distance
_geom_bond_site_symmetry_2
Li0 O9 1.886449 1_555
Li0 O7 1.998445 1_455
Li0 O5 2.380140 1_555
Li1 O8 1.886449 1_555
Li1 O6 1.998445 1_455
Li1 O4 2.380140 1_545
Li2 O9 1.886449 1_556
Li2 O7 1.998445 1_556
Li2 O5 2.380140 1_556
Li3 O8 1.886449 1_555
Li3 O6 1.998445 1_555
Li3 O4 2.380140 1_545
Li4 O11 1.886449 1_556
Li4 O5 1.998445 1_656
Li4 O7 2.380140 1_556
Li5 O10 1.886449 1_555
Li5 O4 1.998445 1_655
Li5 O6 2.380140 1_565
Li6 O11 1.886449 1_555
Li6 O5 1.998445 1_555
Li6 O7 2.380140 1_555
Li7 O10 1.886449 1_555
Li7 O4 1.998445 1_555
Li7 O6 2.380140 1_565
O0 Zr0 2.002837 1_555
O0 Zr1 2.002837 1_555
O1 Zr3 2.002837 1_455
O1 Zr2 2.002837 1_455
O2 Zr5 2.002837 1_555
O2 Zr4 2.002837 1_555
O3 Zr6 2.002837 1_655
O3 Zr7 2.002837 1_655
O4 Zr4 2.275905 1_555
O4 Zr6 2.275905 1_555
O5 Zr5 2.275905 1_554
O5 Zr7 2.275905 1_555
O6 Zr0 2.275905 1_555
O6 Zr2 2.275905 1_555
O7 Zr3 2.275905 1_554
O7 Zr1 2.275905 1_555
O8 Zr2 2.097233 1_455
O8 Zr0 2.097233 1_555
O9 Zr3 2.097233 1_454
O9 Zr1 2.097233 1_555
O10 Zr4 2.097233 1_555
O10 Zr6 2.097233 1_655
O11 Zr5 2.097233 1_554
O11 Zr7 2.097233 1_655
O12 Zr1 2.042333 1_565
O12 Zr7 2.108251 1_555
O12 Zr5 2.341089 1_554
O13 Zr0 2.042333 1_555
O13 Zr6 2.108251 1_555
O13 Zr4 2.341089 1_555
O14 Zr3 2.042333 1_465
O14 Zr5 2.108251 1_555
O14 Zr7 2.341089 1_556
O15 Zr2 2.042333 1_455
O15 Zr4 2.108251 1_555
O15 Zr6 2.341089 1_555
O16 Zr6 2.042333 1_655
O16 Zr0 2.108251 1_555
O16 Zr2 2.341089 1_555
O17 Zr7 2.042333 1_645
O17 Zr1 2.108251 1_555
O17 Zr3 2.341089 1_554
O18 Zr4 2.042333 1_555
O18 Zr2 2.108251 1_555
O18 Zr0 2.341089 1_555
O19 Zr5 2.042333 1_545
O19 Zr3 2.108251 1_555
O19 Zr1 2.341089 1_556
