# generated using pymatgen
data_Yb5(Ge5Rh2)2
_symmetry_space_group_name_H-M   'P 1'
_cell_length_a   13.02053400
_cell_length_b   13.02053400
_cell_length_c   4.37132500
_cell_angle_alpha   90.00000000
_cell_angle_beta   90.00000000
_cell_angle_gamma   90.00000000
_symmetry_Int_Tables_number   1
_chemical_formula_structural   Yb5(Ge5Rh2)2
_chemical_formula_sum   'Yb10 Ge20 Rh8'
_cell_volume   741.08954862
_cell_formula_units_Z   2
loop_
 _symmetry_equiv_pos_site_id
 _symmetry_equiv_pos_as_xyz
  1  'x, y, z'
loop_
 _atom_site_type_symbol
 _atom_site_label
 _atom_site_symmetry_multiplicity
 _atom_site_fract_x
 _atom_site_fract_y
 _atom_site_fract_z
 _atom_site_occupancy
  Yb  Yb0  1  0.50000000  0.50000000  0.00000000  1
  Yb  Yb1  1  0.00000000  0.00000000  0.00000000  1
  Yb  Yb2  1  0.67517100  0.17517100  0.50000000  1
  Yb  Yb3  1  0.32482900  0.82482900  0.50000000  1
  Yb  Yb4  1  0.17517100  0.32482900  0.50000000  1
  Yb  Yb5  1  0.82482900  0.67517100  0.50000000  1
  Yb  Yb6  1  0.88834500  0.38834500  0.50000000  1
  Yb  Yb7  1  0.11165500  0.61165500  0.50000000  1
  Yb  Yb8  1  0.38834500  0.11165500  0.50000000  1
  Yb  Yb9  1  0.61165500  0.88834500  0.50000000  1
  Ge  Ge0  1  0.56548000  0.06548000  0.00000000  1
  Ge  Ge1  1  0.43452000  0.93452000  0.00000000  1
  Ge  Ge2  1  0.06548000  0.43452000  0.00000000  1
  Ge  Ge3  1  0.93452000  0.56548000  0.00000000  1
  Ge  Ge4  1  0.65646400  0.70063800  0.00000000  1
  Ge  Ge5  1  0.34353600  0.29936200  0.00000000  1
  Ge  Ge6  1  0.15646400  0.79936200  0.00000000  1
  Ge  Ge7  1  0.84353600  0.20063800  0.00000000  1
  Ge  Ge8  1  0.29936200  0.65646400  0.00000000  1
  Ge  Ge9  1  0.70063800  0.34353600  0.00000000  1
  Ge  Ge10  1  0.20063800  0.15646400  0.00000000  1
  Ge  Ge11  1  0.79936200  0.84353600  0.00000000  1
  Ge  Ge12  1  0.65608300  0.50269800  0.50000000  1
  Ge  Ge13  1  0.34391700  0.49730200  0.50000000  1
  Ge  Ge14  1  0.15608300  0.99730200  0.50000000  1
  Ge  Ge15  1  0.84391700  0.00269800  0.50000000  1
  Ge  Ge16  1  0.49730200  0.65608300  0.50000000  1
  Ge  Ge17  1  0.50269800  0.34391700  0.50000000  1
  Ge  Ge18  1  0.00269800  0.15608300  0.50000000  1
  Ge  Ge19  1  0.99730200  0.84391700  0.50000000  1
  Rh  Rh0  1  0.74714800  0.52623000  0.00000000  1
  Rh  Rh1  1  0.25285200  0.47377000  0.00000000  1
  Rh  Rh2  1  0.24714800  0.97377000  0.00000000  1
  Rh  Rh3  1  0.75285200  0.02623000  0.00000000  1
  Rh  Rh4  1  0.47377000  0.74714800  0.00000000  1
  Rh  Rh5  1  0.52623000  0.25285200  0.00000000  1
  Rh  Rh6  1  0.02623000  0.24714800  0.00000000  1
  Rh  Rh7  1  0.97377000  0.75285200  0.00000000  1
loop_
_geom_bond_atom_site_label_1
_geom_bond_atom_site_label_2
_geom_bond_distance
_geom_bond_site_symmetry_2
Ge0 Ge1 2.411473 1_545
Ge0 Rh3 2.492636 1_555
Ge0 Rh5 2.492636 1_555
Ge0 Yb2 2.976043 1_554
Ge0 Yb2 2.976043 1_555
Ge0 Yb9 3.233889 1_544
Ge0 Yb9 3.233889 1_545
Ge0 Yb8 3.233889 1_555
Ge0 Yb8 3.233889 1_554
Ge1 Rh4 2.492636 1_555
Ge1 Rh2 2.492636 1_555
Ge1 Yb3 2.976043 1_555
Ge1 Yb3 2.976043 1_554
Ge1 Yb9 3.233889 1_554
Ge1 Yb9 3.233889 1_555
Ge1 Yb8 3.233889 1_565
Ge1 Yb8 3.233889 1_564
Ge2 Ge3 2.411473 1_455
Ge2 Rh1 2.492636 1_555
Ge2 Rh6 2.492636 1_555
Ge2 Yb4 2.976043 1_554
Ge2 Yb4 2.976043 1_555
Ge2 Yb7 3.233889 1_554
Ge2 Yb6 3.233889 1_455
Ge2 Yb6 3.233889 1_454
Ge2 Yb7 3.233889 1_555
Ge3 Rh7 2.492636 1_555
Ge3 Rh0 2.492636 1_555
Ge3 Yb5 2.976043 1_554
Ge3 Yb5 2.976043 1_555
Ge3 Yb6 3.233889 1_555
Ge3 Yb6 3.233889 1_554
Ge3 Yb7 3.233889 1_655
Ge3 Yb7 3.233889 1_654
Ge4 Rh4 2.454648 1_555
Ge4 Rh0 2.559512 1_555
Ge4 Yb5 3.113330 1_555
Ge4 Yb5 3.113330 1_554
Ge4 Yb0 3.312865 1_555
Ge4 Yb9 3.330297 1_554
Ge4 Yb9 3.330297 1_555
Ge5 Rh5 2.454648 1_555
Ge5 Rh1 2.559512 1_555
Ge5 Yb4 3.113330 1_554
Ge5 Yb4 3.113330 1_555
Ge5 Yb0 3.312865 1_555
Ge5 Yb8 3.330297 1_555
Ge5 Yb8 3.330297 1_554
Ge6 Rh7 2.454648 1_455
Ge6 Rh2 2.559512 1_555
Ge6 Ge8 2.631297 1_555
Ge6 Yb3 3.113330 1_555
Ge6 Yb3 3.113330 1_554
Ge6 Yb1 3.312865 1_565
Ge6 Yb7 3.330297 1_555
Ge6 Yb7 3.330297 1_554
Ge7 Rh6 2.454648 1_655
Ge7 Rh3 2.559512 1_555
Ge7 Ge9 2.631297 1_555
Ge7 Yb2 3.113330 1_554
Ge7 Yb2 3.113330 1_555
Ge7 Yb1 3.312865 1_655
Ge7 Yb6 3.330297 1_555
Ge7 Yb6 3.330297 1_554
Ge8 Rh1 2.454648 1_555
Ge8 Rh4 2.559512 1_555
Ge8 Yb3 3.113330 1_554
Ge8 Yb3 3.113330 1_555
Ge8 Yb0 3.312865 1_555
Ge8 Yb7 3.330297 1_555
Ge8 Yb7 3.330297 1_554
Ge9 Rh0 2.454648 1_555
Ge9 Rh5 2.559512 1_555
Ge9 Yb2 3.113330 1_554
Ge9 Yb2 3.113330 1_555
Ge9 Yb0 3.312865 1_555
Ge9 Yb6 3.330297 1_555
Ge9 Yb6 3.330297 1_554
Ge10 Rh2 2.454648 1_545
Ge10 Rh6 2.559512 1_555
Ge10 Ge5 2.631297 1_555
Ge10 Yb4 3.113330 1_554
Ge10 Yb4 3.113330 1_555
Ge10 Yb1 3.312865 1_555
Ge10 Yb8 3.330297 1_555
Ge10 Yb8 3.330297 1_554
Ge11 Rh3 2.454648 1_565
Ge11 Rh7 2.559512 1_555
Ge11 Ge4 2.631297 1_555
Ge11 Yb5 3.113330 1_555
Ge11 Yb5 3.113330 1_554
Ge11 Yb1 3.312865 1_665
Ge11 Yb9 3.330297 1_555
Ge11 Yb9 3.330297 1_554
Ge12 Rh0 2.505378 1_555
Ge12 Rh0 2.505378 1_556
Ge12 Ge16 2.874513 1_555
Ge12 Ge17 2.874513 1_555
Ge12 Yb0 2.984717 1_556
Ge12 Yb0 2.984717 1_555
Ge12 Yb5 3.141759 1_555
Ge12 Yb6 3.370841 1_555
Ge13 Rh1 2.505378 1_555
Ge13 Rh1 2.505378 1_556
Ge13 Ge16 2.874513 1_555
Ge13 Ge17 2.874513 1_555
Ge13 Yb0 2.984717 1_555
Ge13 Yb0 2.984717 1_556
Ge13 Yb4 3.141759 1_555
Ge13 Yb7 3.370841 1_555
Ge14 Rh2 2.505378 1_555
Ge14 Rh2 2.505378 1_556
Ge14 Ge18 2.874513 1_565
Ge14 Ge19 2.874513 1_455
Ge14 Yb1 2.984717 1_566
Ge14 Yb1 2.984717 1_565
Ge14 Yb3 3.141759 1_555
Ge14 Yb8 3.370841 1_565
Ge15 Rh3 2.505378 1_556
Ge15 Rh3 2.505378 1_555
Ge15 Ge19 2.874513 1_545
Ge15 Ge18 2.874513 1_655
Ge15 Yb1 2.984717 1_655
Ge15 Yb1 2.984717 1_656
Ge15 Yb2 3.141759 1_555
Ge15 Yb9 3.370841 1_545
Ge16 Rh4 2.505378 1_556
Ge16 Rh4 2.505378 1_555
Ge16 Yb0 2.984717 1_555
Ge16 Yb0 2.984717 1_556
Ge16 Yb3 3.141759 1_555
Ge16 Yb9 3.370841 1_555
Ge17 Rh5 2.505378 1_555
Ge17 Rh5 2.505378 1_556
Ge17 Yb0 2.984717 1_555
Ge17 Yb0 2.984717 1_556
Ge17 Yb2 3.141759 1_555
Ge17 Yb8 3.370841 1_555
Ge18 Rh6 2.505378 1_555
Ge18 Rh6 2.505378 1_556
Ge18 Yb1 2.984717 1_556
Ge18 Yb1 2.984717 1_555
Ge18 Yb4 3.141759 1_555
Ge18 Yb6 3.370841 1_455
Ge19 Rh7 2.505378 1_555
Ge19 Rh7 2.505378 1_556
Ge19 Yb1 2.984717 1_665
Ge19 Yb1 2.984717 1_666
Ge19 Yb5 3.141759 1_555
Ge19 Yb7 3.370841 1_655
Rh0 Yb5 3.092086 1_554
Rh0 Yb5 3.092086 1_555
Rh0 Yb0 3.236072 1_555
Rh0 Yb6 3.373468 1_554
Rh0 Yb6 3.373468 1_555
Rh1 Yb4 3.092086 1_555
Rh1 Yb4 3.092086 1_554
Rh1 Yb0 3.236072 1_555
Rh1 Yb7 3.373468 1_555
Rh1 Yb7 3.373468 1_554
Rh2 Yb3 3.092086 1_554
Rh2 Yb3 3.092086 1_555
Rh2 Yb1 3.236072 1_565
Rh2 Yb8 3.373468 1_564
Rh2 Yb8 3.373468 1_565
Rh3 Yb2 3.092086 1_555
Rh3 Yb2 3.092086 1_554
Rh3 Yb1 3.236072 1_655
Rh3 Yb9 3.373468 1_545
Rh3 Yb9 3.373468 1_544
Rh4 Yb3 3.092086 1_555
Rh4 Yb3 3.092086 1_554
Rh4 Yb0 3.236072 1_555
Rh4 Yb9 3.373468 1_555
Rh4 Yb9 3.373468 1_554
Rh5 Yb2 3.092086 1_555
Rh5 Yb2 3.092086 1_554
Rh5 Yb0 3.236072 1_555
Rh5 Yb8 3.373468 1_554
Rh5 Yb8 3.373468 1_555
Rh6 Yb4 3.092086 1_555
Rh6 Yb4 3.092086 1_554
Rh6 Yb1 3.236072 1_555
Rh6 Yb6 3.373468 1_455
Rh6 Yb6 3.373468 1_454
Rh7 Yb5 3.092086 1_554
Rh7 Yb5 3.092086 1_555
Rh7 Yb1 3.236072 1_665
Rh7 Yb7 3.373468 1_655
Rh7 Yb7 3.373468 1_654
