# generated using pymatgen
data_Sr7Mg8(P4O15)3
_symmetry_space_group_name_H-M   'P 1'
_cell_length_a   7.30665723
_cell_length_b   11.84257567
_cell_length_c   22.51624605
_cell_angle_alpha   74.75348769
_cell_angle_beta   90.02882027
_cell_angle_gamma   90.10981750
_symmetry_Int_Tables_number   1
_chemical_formula_structural   Sr7Mg8(P4O15)3
_chemical_formula_sum   'Sr14 Mg16 P24 O90'
_cell_volume   1879.74477292
_cell_formula_units_Z   2
loop_
 _symmetry_equiv_pos_site_id
 _symmetry_equiv_pos_as_xyz
  1  'x, y, z'
loop_
 _atom_site_type_symbol
 _atom_site_label
 _atom_site_symmetry_multiplicity
 _atom_site_fract_x
 _atom_site_fract_y
 _atom_site_fract_z
 _atom_site_occupancy
  Sr  Sr0  1  0.24573252  0.23333623  0.11096579  1
  Sr  Sr1  1  0.24705242  0.56593564  0.44469382  1
  Sr  Sr2  1  0.24839572  0.90229587  0.77726281  1
  Sr  Sr3  1  0.75426973  0.65570105  0.11096608  1
  Sr  Sr4  1  0.75294945  0.98937054  0.44469389  1
  Sr  Sr5  1  0.75160257  0.32044162  0.77726134  1
  Sr  Sr6  1  0.75294766  0.76739742  0.88863922  1
  Sr  Sr7  1  0.75426755  0.09999774  0.22236809  1
  Sr  Sr8  1  0.75160428  0.43103723  0.55607012  1
  Sr  Sr9  1  0.24705031  0.34396254  0.88863913  1
  Sr  Sr10  1  0.24573022  0.67763306  0.22236778  1
  Sr  Sr11  1  0.24839768  0.01289121  0.55607179  1
  Sr  Sr12  1  0.49999987  0.50007036  0.99986127  1
  Sr  Sr13  1  0.50000015  0.83326271  0.33347167  1
  Mg  Mg0  1  0.50000041  0.61054679  0.77890772  1
  Mg  Mg1  1  0.50000060  0.94240574  0.11518464  1
  Mg  Mg2  1  0.50000043  0.27560901  0.44877620  1
  Mg  Mg3  1  0.00000012  0.61150090  0.77700840  1
  Mg  Mg4  1  0.00000007  0.94488272  0.11024379  1
  Mg  Mg5  1  0.00000123  0.27705839  0.44588528  1
  Mg  Mg6  1  0.49999934  0.39092728  0.21814842  1
  Mg  Mg7  1  0.49999948  0.72278619  0.55442590  1
  Mg  Mg8  1  0.49999970  0.05772492  0.88455753  1
  Mg  Mg9  1  0.00000006  0.38845011  0.22308939  1
  Mg  Mg10  1  0.99999981  0.72183239  0.55632465  1
  Mg  Mg11  1  0.99999861  0.05627508  0.88744919  1
  Mg  Mg12  1  0.50000001  0.16666706  0.66666694  1
  Mg  Mg13  1  0.00000009  0.50004720  0.99990485  1
  Mg  Mg14  1  0.00000002  0.83328590  0.33342812  1
  Mg  Mg15  1  0.99999999  0.16666691  0.66666694  1
  P  P0  1  0.46894475  0.81076708  -0.00001797  1
  P  P1  1  0.46894563  0.14408293  0.33335179  1
  P  P2  1  0.46695754  0.46677947  0.66666640  1
  P  P3  1  0.53105413  0.18924995  -0.00001874  1
  P  P4  1  0.53105533  0.52256606  0.33335097  1
  P  P5  1  0.53304246  0.86655453  0.66666752  1
  P  P6  1  0.03546855  0.80066380  0.99964722  1
  P  P7  1  0.03547141  0.13364386  0.33368730  1
  P  P8  1  0.03355180  0.46637240  0.66666634  1
  P  P9  1  0.96452885  0.19968911  0.99964572  1
  P  P10  1  0.96453158  0.53266934  0.33368577  1
  P  P11  1  0.96644823  0.86696158  0.66666743  1
  P  P12  1  0.24060892  0.50632455  0.12856280  1
  P  P13  1  0.24111614  0.83967762  0.46220797  1
  P  P14  1  0.24986806  0.17407932  0.79319228  1
  P  P15  1  0.75938637  0.36511785  0.12856043  1
  P  P16  1  0.75888696  0.69811828  0.46220521  1
  P  P17  1  0.75012878  0.03273059  0.79319339  1
  P  P18  1  0.75888406  0.49365542  0.87112510  1
  P  P19  1  0.75939116  0.82700952  0.20477095  1
  P  P20  1  0.75013186  0.15925356  0.54014107  1
  P  P21  1  0.24111298  0.63521495  0.87112772  1
  P  P22  1  0.24061358  0.96821583  0.20477307  1
  P  P23  1  0.24987091  0.30060234  0.54014021  1
  O  O0  1  0.21852201  0.47169986  0.06697084  1
  O  O1  1  0.21846715  0.80471436  0.40066796  1
  O  O2  1  0.25011274  0.14316826  0.72970940  1
  O  O3  1  0.78147767  0.46133568  0.06697046  1
  O  O4  1  0.78153059  0.79462129  0.40066753  1
  O  O5  1  0.74988718  0.12712302  0.72970919  1
  O  O6  1  0.78153291  0.52861860  0.93266507  1
  O  O7  1  0.78147812  0.86163424  0.26636301  1
  O  O8  1  0.74988720  0.19016475  0.60362368  1
  O  O9  1  0.21846948  0.53871160  0.93266554  1
  O  O10  1  0.21852239  0.87199837  0.26636334  1
  O  O11  1  0.25011292  0.20620999  0.60362388  1
  O  O12  1  0.25320967  0.78409059  0.99993783  1
  O  O13  1  0.25320886  0.11736139  0.33339592  1
  O  O14  1  0.25021713  0.45084542  0.66666732  1
  O  O15  1  0.74679108  0.21597167  0.99993699  1
  O  O16  1  0.74679011  0.54924234  0.33339517  1
  O  O17  1  0.74978278  0.88248850  0.66666671  1
  O  O18  1  0.48359580  0.09820952  0.05957654  1
  O  O19  1  0.48370551  0.43108365  0.39267364  1
  O  O20  1  0.47856495  0.77375914  0.72534914  1
  O  O21  1  0.51640628  0.84220897  0.05957795  1
  O  O22  1  0.51629483  0.17623739  0.39267536  1
  O  O23  1  0.52143110  0.50089156  0.72534756  1
  O  O24  1  0.02043766  0.10691868  0.05806152  1
  O  O25  1  0.02002979  0.43970996  0.39220873  1
  O  O26  1  0.02099005  0.77417017  0.72499020  1
  O  O27  1  0.97956378  0.83501847  0.05806138  1
  O  O28  1  0.97997511  0.16808204  0.39220904  1
  O  O29  1  0.97901184  0.50083806  0.72499005  1
  O  O30  1  0.51629463  0.90224946  0.94065934  1
  O  O31  1  0.51640416  0.23512353  0.27375652  1
  O  O32  1  0.52143505  0.55957482  0.60798485  1
  O  O33  1  0.48370506  0.15709597  0.94065765  1
  O  O34  1  0.48359382  0.49112411  0.27375515  1
  O  O35  1  0.47856852  0.83244226  0.60798604  1
  O  O36  1  0.97997007  0.89362324  0.94112419  1
  O  O37  1  0.97956223  0.22641466  0.27527146  1
  O  O38  1  0.97900998  0.55916365  0.60834387  1
  O  O39  1  0.02002485  0.16525112  0.94112400  1
  O  O40  1  0.02043622  0.49831476  0.27527157  1
  O  O41  1  0.02098793  0.83249548  0.60834390  1
  O  O42  1  0.24803059  0.56998761  0.81697328  1
  O  O43  1  0.24665122  0.90265617  0.15097387  1
  O  O44  1  0.24867950  0.23362912  0.48670581  1
  O  O45  1  0.75196960  0.61304473  0.81697441  1
  O  O46  1  0.75334617  0.94637331  0.15097412  1
  O  O47  1  0.75132019  0.27966299  0.48670603  1
  O  O48  1  0.75334840  0.43067742  0.18235967  1
  O  O49  1  0.75196959  0.76334542  0.51635964  1
  O  O50  1  0.75132027  0.09970438  0.84662776  1
  O  O51  1  0.24665405  0.38695938  0.18235919  1
  O  O52  1  0.24803033  0.72028809  0.51635875  1
  O  O53  1  0.24867980  0.05367086  0.84662794  1
  O  O54  1  0.56662700  0.69703751  0.99990233  1
  O  O55  1  0.56662651  0.03027183  0.33343114  1
  O  O56  1  0.54706738  0.34649345  0.66666682  1
  O  O57  1  0.43337352  0.30306101  0.99990181  1
  O  O58  1  0.43337295  0.63629564  0.33343054  1
  O  O59  1  0.45293289  0.98684021  0.66666714  1
  O  O60  1  0.95594802  0.68068442  0.99987017  1
  O  O61  1  0.95594728  0.01388859  0.33346222  1
  O  O62  1  0.95261073  0.34613213  0.66666711  1
  O  O63  1  0.04405285  0.31944425  0.99987074  1
  O  O64  1  0.04405221  0.65264876  0.33346282  1
  O  O65  1  0.04738932  0.98720179  0.66666678  1
  O  O66  1  0.42302640  0.56728545  0.13471293  1
  O  O67  1  0.42322950  0.90082764  0.46801533  1
  O  O68  1  0.42480715  0.23659855  0.80512114  1
  O  O69  1  0.57697682  0.29800260  0.13471159  1
  O  O70  1  0.57676961  0.63115524  0.46801465  1
  O  O71  1  0.57518955  0.95828490  0.80512075  1
  O  O72  1  0.07466815  0.57312765  0.14331939  1
  O  O73  1  0.07468392  0.90633448  0.47687643  1
  O  O74  1  0.07551304  0.23686741  0.80492826  1
  O  O75  1  0.92533041  0.28355225  0.14331935  1
  O  O76  1  0.92531367  0.61678744  0.47687636  1
  O  O77  1  0.92448879  0.95820974  0.80492842  1
  O  O78  1  0.57677068  0.43250548  0.86531766  1
  O  O79  1  0.57697353  0.76604843  0.19862113  1
  O  O80  1  0.57519307  0.09673467  0.52821176  1
  O  O81  1  0.42323085  0.70217793  0.86531829  1
  O  O82  1  0.42302267  0.03533122  0.19862240  1
  O  O83  1  0.42481065  0.37504824  0.52821221  1
  O  O84  1  0.92531604  0.42699857  0.85645652  1
  O  O85  1  0.92533168  0.76020633  0.19001463  1
  O  O86  1  0.92448692  0.09646569  0.52840464  1
  O  O87  1  0.07468639  0.71654540  0.85645664  1
  O  O88  1  0.07466979  0.04978184  0.19001460  1
  O  O89  1  0.07551104  0.37512344  0.52840456  1
loop_
_geom_bond_atom_site_label_1
_geom_bond_atom_site_label_2
_geom_bond_distance
_geom_bond_site_symmetry_2
Mg0 O20 1.997445 1_555
Mg0 O23 1.997472 1_555
Mg0 O42 2.033836 1_555
Mg0 O45 2.033849 1_555
Mg0 O81 2.528156 1_555
Mg0 O78 2.528162 1_555
Mg1 O21 1.942183 1_555
Mg1 O18 1.942210 1_565
Mg1 O46 2.023927 1_555
Mg1 O43 2.023939 1_555
Mg1 O79 2.479411 1_555
Mg1 O82 2.479465 1_565
Mg2 O22 1.943506 1_555
Mg2 O19 1.943554 1_555
Mg2 O44 2.030605 1_555
Mg2 O47 2.030605 1_555
Mg2 O83 2.449277 1_555
Mg2 O80 2.449285 1_555
Mg3 O26 1.979598 1_555
Mg3 O29 1.979702 1_455
Mg3 O42 2.026050 1_555
Mg3 O45 2.026051 1_455
Mg3 O87 2.492435 1_555
Mg3 O84 2.492523 1_455
Mg4 O24 1.974420 1_565
Mg4 O27 1.974512 1_455
Mg4 O43 2.024752 1_555
Mg4 O46 2.024760 1_455
Mg4 O88 2.497396 1_565
Mg4 O85 2.497461 1_455
Mg5 O28 1.991754 1_455
Mg5 O25 1.991760 1_555
Mg5 O44 2.040613 1_555
Mg5 O47 2.040624 1_455
Mg5 O89 2.497353 1_555
Mg5 O86 2.497440 1_455
Mg6 O34 1.942185 1_555
Mg6 O31 1.942210 1_555
Mg6 O51 2.023923 1_555
Mg6 O48 2.023934 1_555
Mg6 O66 2.479406 1_555
Mg6 O69 2.479440 1_555
Mg7 O32 1.997439 1_555
Mg7 O35 1.997480 1_555
Mg7 O49 2.033843 1_555
Mg7 O52 2.033853 1_555
Mg7 O70 2.528169 1_555
Mg7 O67 2.528171 1_555
Mg8 O33 1.943488 1_555
Mg8 O30 1.943555 1_545
Mg8 O50 2.030603 1_555
Mg8 O53 2.030604 1_555
Mg8 O68 2.449288 1_555
Mg8 O71 2.449298 1_545
Mg9 O37 1.974413 1_455
Mg9 O40 1.974512 1_555
Mg9 O48 2.024753 1_455
Mg9 O51 2.024759 1_555
Mg9 O75 2.497371 1_455
Mg9 O72 2.497460 1_555
Mg10 O38 1.979600 1_555
Mg10 O41 1.979720 1_655
Mg10 O49 2.026049 1_555
Mg10 O52 2.026051 1_655
Mg10 O76 2.492440 1_555
Mg10 O73 2.492522 1_655
Mg11 O39 1.991726 1_655
Mg11 O36 1.991750 1_545
Mg11 O50 2.040621 1_555
Mg11 O53 2.040629 1_655
Mg11 O77 2.497384 1_545
Mg11 O74 2.497456 1_655
Mg12 O56 2.156546 1_555
Mg12 O59 2.156550 1_545
Mg12 O5 2.284504 1_555
Mg12 O2 2.284504 1_555
Mg12 O11 2.284513 1_555
Mg12 O8 2.284515 1_555
Mg13 O3 2.162253 1_456
Mg13 O0 2.162260 1_556
Mg13 O60 2.163697 1_455
Mg13 O63 2.163699 1_555
Mg13 O6 2.164467 1_455
Mg13 O9 2.164469 1_555
Mg14 O10 2.162241 1_555
Mg14 O7 2.162246 1_455
Mg14 O64 2.163696 1_555
Mg14 O61 2.163696 1_465
Mg14 O1 2.164468 1_555
Mg14 O4 2.164471 1_455
Mg15 O65 2.154006 1_645
Mg15 O62 2.154008 1_555
Mg15 O5 2.285529 1_555
Mg15 O2 2.285532 1_655
Mg15 O11 2.285539 1_655
Mg15 O8 2.285544 1_555
O0 P12 1.554366 1_555
O0 Sr12 2.521804 1_554
O0 Sr0 2.742351 1_555
O1 P13 1.555672 1_555
O1 Sr13 2.523181 1_555
O1 Sr1 2.747771 1_555
O2 P14 1.566011 1_555
O2 Sr2 2.770764 1_545
O3 P15 1.554353 1_555
O3 Sr12 2.521800 1_554
O3 Sr3 2.742311 1_555
O4 P16 1.555637 1_555
O4 Sr13 2.523162 1_555
O4 Sr4 2.747724 1_555
O5 P17 1.566032 1_555
O5 Sr5 2.770731 1_555
O6 P18 1.555670 1_555
O6 Sr12 2.523180 1_555
O6 Sr6 2.747772 1_555
O7 P19 1.554369 1_555
O7 Sr13 2.521793 1_555
O7 Sr7 2.742350 1_565
O8 P20 1.566005 1_555
O8 Sr8 2.770765 1_555
O9 P21 1.555641 1_555
O9 Sr12 2.523160 1_555
O9 Sr9 2.747723 1_555
O10 P22 1.554356 1_555
O10 Sr13 2.521790 1_555
O10 Sr10 2.742309 1_555
O11 P23 1.566023 1_555
O11 Sr11 2.770732 1_555
O12 P6 1.603193 1_555
O12 P0 1.607106 1_556
O13 P7 1.603167 1_555
O13 P1 1.607120 1_555
O14 P8 1.594092 1_555
O14 P2 1.594491 1_555
O15 P9 1.603169 1_555
O15 P3 1.607122 1_556
O16 P10 1.603195 1_555
O16 P4 1.607103 1_555
O17 P11 1.594093 1_555
O17 P5 1.594490 1_555
O18 P3 1.523609 1_555
O18 Sr0 2.811902 1_555
O19 P4 1.521680 1_555
O19 Sr1 2.812242 1_555
O20 P5 1.532019 1_555
O20 Sr2 2.731189 1_555
O21 P0 1.523603 1_555
O21 Sr3 2.811844 1_555
O22 P1 1.521661 1_555
O22 Sr4 2.812209 1_545
O23 P2 1.531986 1_555
O23 Sr5 2.731207 1_555
O24 P9 1.531365 1_454
O24 Sr0 2.701232 1_555
O25 P10 1.533284 1_455
O25 Sr1 2.701903 1_555
O26 P11 1.527439 1_455
O26 Sr2 2.715894 1_555
O27 P6 1.531315 1_654
O27 Sr3 2.701204 1_555
O28 P7 1.533257 1_655
O28 Sr4 2.701929 1_545
O29 P8 1.527429 1_655
O29 Sr5 2.715896 1_555
O30 P0 1.521680 1_556
O30 Sr6 2.812241 1_555
O31 P1 1.523610 1_555
O31 Sr7 2.811885 1_555
O32 P2 1.532018 1_555
O32 Sr8 2.731209 1_555
O33 P3 1.521659 1_556
O33 Sr9 2.812207 1_555
O34 P4 1.523601 1_555
O34 Sr10 2.811850 1_555
O35 P5 1.531994 1_555
O35 Sr11 2.731198 1_565
O36 P6 1.533286 1_655
O36 Sr6 2.701902 1_555
O37 P7 1.531369 1_655
O37 Sr7 2.701215 1_555
O38 P8 1.527434 1_655
O38 Sr8 2.715915 1_555
O39 P9 1.533255 1_455
O39 Sr9 2.701928 1_555
O40 P10 1.531315 1_455
O40 Sr10 2.701206 1_555
O41 P11 1.527428 1_455
O41 Sr11 2.715897 1_565
O42 P21 1.606759 1_555
O42 Sr9 2.738059 1_555
O43 P22 1.602171 1_555
O43 Sr10 2.726263 1_555
O44 P23 1.605783 1_555
O44 Sr11 2.669378 1_555
O45 P18 1.606785 1_555
O45 Sr6 2.737961 1_555
O46 P19 1.602194 1_555
O46 Sr7 2.726202 1_565
O47 P20 1.605815 1_555
O47 Sr8 2.669353 1_555
O48 P15 1.602171 1_555
O48 Sr3 2.726266 1_555
O49 P16 1.606757 1_555
O49 Sr4 2.738058 1_555
O50 P17 1.605787 1_555
O50 Sr5 2.669375 1_555
O51 P12 1.602200 1_555
O51 Sr0 2.726180 1_555
O52 P13 1.606787 1_555
O52 Sr1 2.737961 1_555
O53 P14 1.605814 1_555
O53 Sr2 2.669378 1_545
O54 P0 1.525903 1_556
O54 Sr12 2.382182 1_555
O54 Sr6 2.779390 1_555
O54 Sr3 2.779992 1_556
O55 P1 1.525919 1_555
O55 Sr13 2.382195 1_545
O55 Sr4 2.779393 1_545
O55 Sr7 2.779971 1_555
O56 P2 1.541102 1_555
O56 Sr5 2.850183 1_555
O56 Sr8 2.850230 1_555
O57 P3 1.525917 1_556
O57 Sr12 2.382197 1_555
O57 Sr9 2.779393 1_555
O57 Sr0 2.779988 1_556
O58 P4 1.525903 1_555
O58 Sr13 2.382182 1_555
O58 Sr1 2.779393 1_555
O58 Sr10 2.779972 1_555
O59 P5 1.541098 1_555
O59 Sr11 2.850200 1_565
O59 Sr2 2.850214 1_555
O60 P6 1.532829 1_655
O60 Sr3 2.851161 1_556
O60 Sr6 2.859466 1_555
O61 P7 1.532838 1_655
O61 Sr7 2.851136 1_555
O61 Sr4 2.859463 1_545
O62 P8 1.540834 1_655
O62 Sr5 2.837970 1_555
O62 Sr8 2.838020 1_555
O63 P9 1.532836 1_455
O63 Sr0 2.851150 1_556
O63 Sr9 2.859460 1_555
O64 P10 1.532829 1_455
O64 Sr10 2.851142 1_555
O64 Sr1 2.859466 1_555
O65 P11 1.540834 1_455
O65 Sr11 2.837986 1_565
O65 Sr2 2.838004 1_555
O66 P12 1.538048 1_555
O66 Sr3 2.633845 1_555
O66 Sr10 2.940542 1_555
O67 P13 1.535598 1_555
O67 Sr4 2.623214 1_555
O67 Sr11 2.952483 1_565
O68 P14 1.534530 1_555
O68 Sr5 2.597253 1_555
O68 Sr9 2.847135 1_555
O69 P15 1.538022 1_555
O69 Sr0 2.633834 1_555
O69 Sr7 2.940576 1_555
O70 P16 1.535655 1_555
O70 Sr1 2.623183 1_555
O70 Sr8 2.952483 1_555
O71 P17 1.534516 1_565
O71 Sr2 2.597250 1_555
O71 Sr6 2.847200 1_555
O72 P12 1.532544 1_555
O72 Sr3 2.569008 1_455
O72 Sr10 2.722544 1_555
O73 P13 1.533700 1_555
O73 Sr4 2.578902 1_455
O73 Sr11 2.749228 1_565
O74 P14 1.533948 1_555
O74 Sr5 2.579176 1_455
O74 Sr9 2.825058 1_555
O75 P15 1.532609 1_555
O75 Sr0 2.569015 1_655
O75 Sr7 2.722567 1_555
O76 P16 1.533711 1_555
O76 Sr1 2.578921 1_655
O76 Sr8 2.749195 1_555
O77 P17 1.533959 1_565
O77 Sr2 2.579164 1_655
O77 Sr6 2.825129 1_555
O78 P18 1.535599 1_555
O78 Sr9 2.623217 1_555
O78 Sr5 2.952483 1_555
O79 P19 1.538049 1_555
O79 Sr10 2.633844 1_555
O79 Sr3 2.940544 1_555
O80 P20 1.534529 1_555
O80 Sr11 2.597255 1_555
O80 Sr4 2.847133 1_545
O81 P21 1.535658 1_555
O81 Sr6 2.623181 1_555
O81 Sr2 2.952484 1_555
O82 P22 1.538020 1_545
O82 Sr7 2.633838 1_555
O82 Sr0 2.940577 1_555
O83 P23 1.534521 1_555
O83 Sr8 2.597248 1_555
O83 Sr1 2.847199 1_555
O84 P18 1.533700 1_555
O84 Sr9 2.578901 1_655
O84 Sr5 2.749225 1_555
O85 P19 1.532541 1_555
O85 Sr10 2.569007 1_655
O85 Sr3 2.722545 1_555
O86 P20 1.533950 1_555
O86 Sr11 2.579180 1_655
O86 Sr4 2.825057 1_545
O87 P21 1.533708 1_555
O87 Sr6 2.578922 1_455
O87 Sr2 2.749197 1_555
O88 P22 1.532610 1_545
O88 Sr7 2.569015 1_455
O88 Sr0 2.722566 1_555
O89 P23 1.533960 1_555
O89 Sr8 2.579163 1_455
O89 Sr1 2.825128 1_555
