# generated using pymatgen
data_Tm11Ge10
_symmetry_space_group_name_H-M   'P 1'
_cell_length_a   11.06073399
_cell_length_b   11.06073399
_cell_length_c   11.06073399
_cell_angle_alpha   121.98870898
_cell_angle_beta   121.98870898
_cell_angle_gamma   86.58864154
_symmetry_Int_Tables_number   1
_chemical_formula_structural   Tm11Ge10
_chemical_formula_sum   'Tm22 Ge20'
_cell_volume   926.28585142
_cell_formula_units_Z   2
loop_
 _symmetry_equiv_pos_site_id
 _symmetry_equiv_pos_as_xyz
  1  'x, y, z'
loop_
 _atom_site_type_symbol
 _atom_site_label
 _atom_site_symmetry_multiplicity
 _atom_site_fract_x
 _atom_site_fract_y
 _atom_site_fract_z
 _atom_site_occupancy
  Tm  Tm0  1  0.80994483  0.06239023  0.25244540  1
  Tm  Tm1  1  0.80994483  0.55749943  0.74755460  1
  Tm  Tm2  1  0.06239023  0.80994483  0.25244540  1
  Tm  Tm3  1  0.55749943  0.80994483  0.74755460  1
  Tm  Tm4  1  0.19005517  0.93760977  0.74755460  1
  Tm  Tm5  1  0.19005517  0.44250057  0.25244540  1
  Tm  Tm6  1  0.93760977  0.19005517  0.74755460  1
  Tm  Tm7  1  0.44250057  0.19005517  0.25244540  1
  Tm  Tm8  1  0.17686784  0.17686784  0.35373468  1
  Tm  Tm9  1  0.82313216  0.82313216  0.64626532  1
  Tm  Tm10  1  0.17686784  0.82313216  0.00000000  1
  Tm  Tm11  1  0.82313216  0.17686784  -0.00000000  1
  Tm  Tm12  1  0.66007262  0.66007262  0.00000000  1
  Tm  Tm13  1  0.33992738  0.33992738  -0.00000000  1
  Tm  Tm14  1  0.60140012  0.92610759  0.32470848  1
  Tm  Tm15  1  0.60140012  0.27669264  0.67529152  1
  Tm  Tm16  1  0.92610759  0.60140012  0.32470848  1
  Tm  Tm17  1  0.27669264  0.60140012  0.67529152  1
  Tm  Tm18  1  0.39859988  0.07389241  0.67529152  1
  Tm  Tm19  1  0.39859988  0.72330736  0.32470848  1
  Tm  Tm20  1  0.07389241  0.39859988  0.67529152  1
  Tm  Tm21  1  0.72330736  0.39859988  0.32470848  1
  Ge  Ge0  1  0.35682870  -0.00000000  0.35682870  1
  Ge  Ge1  1  0.64317130  0.00000000  0.64317130  1
  Ge  Ge2  1  0.00000000  0.64317130  0.64317130  1
  Ge  Ge3  1  0.00000000  0.35682870  0.35682870  1
  Ge  Ge4  1  0.88355942  0.88355942  0.00000000  1
  Ge  Ge5  1  0.11644058  0.11644058  -0.00000000  1
  Ge  Ge6  1  0.37934299  0.37934299  0.75868698  1
  Ge  Ge7  1  0.62065701  0.62065701  0.24131302  1
  Ge  Ge8  1  0.37934299  0.62065701  0.00000000  1
  Ge  Ge9  1  0.62065701  0.37934299  -0.00000000  1
  Ge  Ge10  1  0.75000000  0.25000000  0.50000000  1
  Ge  Ge11  1  0.25000000  0.75000000  0.50000000  1
  Ge  Ge12  1  0.88974907  0.88974907  0.41691359  1
  Ge  Ge13  1  0.47283548  0.47283548  0.58308641  1
  Ge  Ge14  1  0.88974907  0.47283548  0.00000000  1
  Ge  Ge15  1  0.47283548  0.88974907  0.00000000  1
  Ge  Ge16  1  0.11025093  0.11025093  0.58308641  1
  Ge  Ge17  1  0.52716452  0.52716452  0.41691359  1
  Ge  Ge18  1  0.11025093  0.52716452  0.00000000  1
  Ge  Ge19  1  0.52716452  0.11025093  -0.00000000  1
loop_
_geom_bond_atom_site_label_1
_geom_bond_atom_site_label_2
_geom_bond_distance
_geom_bond_site_symmetry_2
Ge0 Tm10 2.706596 1_545
Ge0 Tm8 2.706596 1_555
Ge0 Tm18 2.925652 1_555
Ge0 Tm14 2.925658 1_545
Ge0 Tm15 2.925661 1_555
Ge0 Tm19 2.925667 1_545
Ge0 Tm7 3.258473 1_555
Ge0 Tm2 3.258473 1_545
Ge1 Tm11 2.706596 1_556
Ge1 Tm9 2.706596 1_545
Ge1 Tm14 2.925652 1_545
Ge1 Tm18 2.925658 1_555
Ge1 Tm19 2.925661 1_545
Ge1 Tm15 2.925667 1_555
Ge1 Tm3 3.258473 1_545
Ge1 Tm6 3.258473 1_555
Ge2 Tm10 2.706596 1_556
Ge2 Tm9 2.706596 1_455
Ge2 Tm16 2.925652 1_455
Ge2 Tm20 2.925658 1_555
Ge2 Tm21 2.925661 1_455
Ge2 Tm17 2.925667 1_555
Ge2 Tm1 3.258473 1_455
Ge2 Tm4 3.258473 1_555
Ge3 Tm11 2.706596 1_455
Ge3 Tm8 2.706596 1_555
Ge3 Tm20 2.925652 1_555
Ge3 Tm16 2.925658 1_455
Ge3 Tm17 2.925661 1_555
Ge3 Tm21 2.925667 1_455
Ge3 Tm5 3.258473 1_555
Ge3 Tm0 3.258473 1_455
Ge4 Tm1 2.955922 1_554
Ge4 Tm3 2.955922 1_554
Ge4 Tm2 2.955922 1_655
Ge4 Tm0 2.955922 1_565
Ge4 Tm9 3.273144 1_554
Ge4 Tm8 3.273153 1_665
Ge4 Tm10 3.273155 1_655
Ge4 Tm11 3.273155 1_565
Ge4 Tm12 3.598340 1_555
Ge5 Tm7 2.955922 1_555
Ge5 Tm5 2.955922 1_555
Ge5 Tm6 2.955922 1_454
Ge5 Tm4 2.955922 1_544
Ge5 Tm8 3.273144 1_555
Ge5 Tm9 3.273153 1_444
Ge5 Tm11 3.273155 1_455
Ge5 Tm10 3.273155 1_545
Ge5 Tm13 3.598340 1_555
Ge6 Ge9 2.588475 1_556
Ge6 Ge8 2.588475 1_556
Ge6 Tm20 3.021792 1_555
Ge6 Tm18 3.021792 1_555
Ge6 Tm15 3.021810 1_555
Ge6 Tm17 3.021810 1_555
Ge6 Tm8 3.071505 1_555
Ge6 Tm13 3.161107 1_556
Ge6 Tm12 3.161120 1_556
Ge7 Ge8 2.588475 1_555
Ge7 Ge9 2.588475 1_555
Ge7 Tm16 3.021792 1_555
Ge7 Tm14 3.021792 1_555
Ge7 Tm21 3.021810 1_555
Ge7 Tm19 3.021810 1_555
Ge7 Tm9 3.071505 1_555
Ge7 Tm12 3.161107 1_555
Ge7 Tm13 3.161120 1_555
Ge8 Tm20 3.021799 1_554
Ge8 Tm14 3.021799 1_555
Ge8 Tm17 3.021808 1_554
Ge8 Tm19 3.021808 1_555
Ge8 Tm10 3.071490 1_555
Ge8 Tm13 3.161118 1_555
Ge8 Tm12 3.161118 1_555
Ge9 Tm18 3.021799 1_554
Ge9 Tm16 3.021799 1_555
Ge9 Tm15 3.021808 1_554
Ge9 Tm21 3.021808 1_555
Ge9 Tm11 3.071490 1_555
Ge9 Tm13 3.161118 1_555
Ge9 Tm12 3.161118 1_555
Ge10 Tm0 2.825386 1_555
Ge10 Tm6 2.825386 1_555
Ge10 Tm1 2.825386 1_555
Ge10 Tm7 2.825386 1_555
Ge10 Tm21 3.043016 1_555
Ge10 Tm15 3.043016 1_555
Ge10 Tm14 3.043029 1_545
Ge10 Tm20 3.043029 1_655
Ge11 Tm4 2.825386 1_555
Ge11 Tm2 2.825386 1_555
Ge11 Tm3 2.825386 1_555
Ge11 Tm5 2.825386 1_555
Ge11 Tm19 3.043016 1_555
Ge11 Tm17 3.043016 1_555
Ge11 Tm18 3.043029 1_565
Ge11 Tm16 3.043029 1_455
Ge12 Ge16 2.546334 1_665
Ge12 Tm16 2.865217 1_555
Ge12 Tm14 2.865217 1_555
Ge12 Tm2 3.084361 1_655
Ge12 Tm0 3.084361 1_565
Ge12 Tm4 3.158418 1_655
Ge12 Tm6 3.158418 1_565
Ge12 Tm12 3.180633 1_555
Ge12 Tm9 3.398035 1_555
Ge13 Ge17 2.546334 1_555
Ge13 Tm17 2.865209 1_555
Ge13 Tm15 2.865209 1_555
Ge13 Tm3 3.084361 1_555
Ge13 Tm1 3.084361 1_555
Ge13 Tm5 3.158418 1_555
Ge13 Tm7 3.158418 1_555
Ge13 Tm12 3.180633 1_556
Ge13 Tm8 3.398021 1_555
Ge14 Ge18 2.546334 1_655
Ge14 Tm15 2.865218 1_554
Ge14 Tm16 2.865225 1_555
Ge14 Tm2 3.084361 1_655
Ge14 Tm1 3.084361 1_554
Ge14 Tm5 3.158418 1_655
Ge14 Tm6 3.158418 1_554
Ge14 Tm12 3.180633 1_555
Ge14 Tm11 3.398024 1_555
Ge15 Ge19 2.546334 1_565
Ge15 Tm17 2.865218 1_554
Ge15 Tm14 2.865225 1_555
Ge15 Tm0 3.084361 1_565
Ge15 Tm3 3.084361 1_554
Ge15 Tm7 3.158418 1_565
Ge15 Tm4 3.158418 1_554
Ge15 Tm12 3.180633 1_555
Ge15 Tm10 3.398024 1_555
Ge16 Tm18 2.865217 1_555
Ge16 Tm20 2.865217 1_555
Ge16 Tm4 3.084361 1_545
Ge16 Tm6 3.084361 1_455
Ge16 Tm0 3.158418 1_455
Ge16 Tm2 3.158418 1_545
Ge16 Tm13 3.180633 1_556
Ge16 Tm8 3.398035 1_555
Ge17 Tm19 2.865209 1_555
Ge17 Tm21 2.865209 1_555
Ge17 Tm7 3.084361 1_555
Ge17 Tm5 3.084361 1_555
Ge17 Tm3 3.158418 1_555
Ge17 Tm1 3.158418 1_555
Ge17 Tm13 3.180633 1_555
Ge17 Tm9 3.398021 1_555
Ge18 Tm19 2.865218 1_555
Ge18 Tm20 2.865225 1_554
Ge18 Tm5 3.084361 1_555
Ge18 Tm6 3.084361 1_454
Ge18 Tm2 3.158418 1_555
Ge18 Tm1 3.158418 1_454
Ge18 Tm13 3.180633 1_555
Ge18 Tm10 3.398024 1_555
Ge19 Tm21 2.865218 1_555
Ge19 Tm18 2.865225 1_554
Ge19 Tm4 3.084361 1_544
Ge19 Tm7 3.084361 1_555
Ge19 Tm0 3.158418 1_555
Ge19 Tm3 3.158418 1_544
Ge19 Tm13 3.180633 1_555
Ge19 Tm11 3.398024 1_555
