# generated using pymatgen
data_Mg6TiZn
_symmetry_space_group_name_H-M   'P 1'
_cell_length_a   4.88910000
_cell_length_b   6.25089500
_cell_length_c   10.84543300
_cell_angle_alpha   90.00000000
_cell_angle_beta   90.00000000
_cell_angle_gamma   90.00000000
_symmetry_Int_Tables_number   1
_chemical_formula_structural   Mg6TiZn
_chemical_formula_sum   'Mg12 Ti2 Zn2'
_cell_volume   331.44999735
_cell_formula_units_Z   2
loop_
 _symmetry_equiv_pos_site_id
 _symmetry_equiv_pos_as_xyz
  1  'x, y, z'
loop_
 _atom_site_type_symbol
 _atom_site_label
 _atom_site_symmetry_multiplicity
 _atom_site_fract_x
 _atom_site_fract_y
 _atom_site_fract_z
 _atom_site_occupancy
  Mg  Mg0  1  0.00000000  0.74280500  0.08676500  1
  Mg  Mg1  1  0.00000000  0.25719500  0.08676500  1
  Mg  Mg2  1  0.00000000  0.00000000  0.33280400  1
  Mg  Mg3  1  0.50000000  0.25753600  0.41714600  1
  Mg  Mg4  1  0.50000000  0.74246400  0.41714600  1
  Mg  Mg5  1  0.50000000  0.00000000  0.16577200  1
  Mg  Mg6  1  0.00000000  0.24280500  0.58676500  1
  Mg  Mg7  1  0.00000000  0.75719500  0.58676500  1
  Mg  Mg8  1  0.00000000  0.50000000  0.83280400  1
  Mg  Mg9  1  0.50000000  0.75753600  0.91714600  1
  Mg  Mg10  1  0.50000000  0.24246400  0.91714600  1
  Mg  Mg11  1  0.50000000  0.50000000  0.66577200  1
  Ti  Ti0  1  0.50000000  0.50000000  0.17403700  1
  Ti  Ti1  1  0.50000000  0.00000000  0.67403700  1
  Zn  Zn0  1  0.00000000  0.50000000  0.31956500  1
  Zn  Zn1  1  0.00000000  0.00000000  0.81956500  1
loop_
_geom_bond_atom_site_label_1
_geom_bond_atom_site_label_2
_geom_bond_distance
_geom_bond_site_symmetry_2
Mg0 Zn0 2.945889 1_555
Mg0 Ti0 3.029068 1_555
Mg0 Ti0 3.029068 1_455
Mg0 Mg1 3.035497 1_555
Mg0 Mg5 3.048727 1_565
Mg0 Mg5 3.048727 1_465
Mg0 Mg9 3.060784 1_554
Mg0 Mg9 3.060784 1_454
Mg0 Mg2 3.115293 1_565
Mg0 Mg8 3.144809 1_554
Mg0 Mg1 3.215398 1_565
Mg0 Zn1 3.313988 1_564
Mg1 Zn0 2.945889 1_555
Mg1 Ti0 3.029068 1_555
Mg1 Ti0 3.029068 1_455
Mg1 Mg5 3.048727 1_455
Mg1 Mg5 3.048727 1_555
Mg1 Mg10 3.060784 1_554
Mg1 Mg10 3.060784 1_454
Mg1 Mg2 3.115293 1_555
Mg1 Mg8 3.144809 1_554
Mg1 Zn1 3.313988 1_554
Mg2 Mg5 3.042611 1_555
Mg2 Mg5 3.042611 1_455
Mg2 Mg3 3.066611 1_455
Mg2 Mg4 3.066611 1_545
Mg2 Mg3 3.066611 1_555
Mg2 Mg4 3.066611 1_445
Mg2 Zn0 3.128744 1_555
Mg2 Zn0 3.128744 1_545
Mg2 Mg7 3.144809 1_545
Mg2 Mg6 3.144809 1_555
Mg3 Mg4 3.031234 1_555
Mg3 Ti0 3.041196 1_555
Mg3 Mg6 3.060784 1_555
Mg3 Mg6 3.060784 1_655
Mg3 Zn0 3.064790 1_555
Mg3 Zn0 3.064790 1_655
Mg3 Mg5 3.166078 1_555
Mg3 Ti1 3.217744 1_555
Mg3 Mg4 3.219661 1_545
Mg4 Ti0 3.041196 1_555
Mg4 Mg7 3.060784 1_655
Mg4 Mg7 3.060784 1_555
Mg4 Zn0 3.064790 1_555
Mg4 Zn0 3.064790 1_655
Mg4 Mg5 3.166078 1_565
Mg4 Ti1 3.217744 1_565
Mg5 Mg9 3.093214 1_544
Mg5 Ti0 3.126733 1_555
Mg5 Ti0 3.126733 1_545
Mg6 Zn1 2.945889 1_555
Mg6 Ti1 3.029068 1_455
Mg6 Ti1 3.029068 1_555
Mg6 Mg7 3.035497 1_545
Mg6 Mg8 3.115293 1_555
Mg6 Mg7 3.215398 1_555
Mg6 Zn0 3.313988 1_555
Mg7 Zn1 2.945889 1_565
Mg7 Ti1 3.029068 1_565
Mg7 Ti1 3.029068 1_465
Mg7 Mg8 3.115293 1_555
Mg7 Zn0 3.313988 1_555
Mg8 Mg9 3.066611 1_455
Mg8 Mg9 3.066611 1_555
Mg8 Zn1 3.128744 1_565
Mg8 Zn1 3.128744 1_555
Mg9 Ti1 3.041196 1_565
Mg9 Zn1 3.064790 1_665
Mg9 Zn1 3.064790 1_565
Mg9 Ti0 3.217744 1_556
Mg10 Mg9 3.031234 1_545
Mg10 Ti1 3.041196 1_555
Mg10 Zn1 3.064790 1_555
Mg10 Zn1 3.064790 1_655
Mg10 Mg8 3.066611 1_555
Mg10 Mg8 3.066611 1_655
Mg10 Mg5 3.093214 1_556
Mg10 Mg11 3.166078 1_555
Mg10 Ti0 3.217744 1_556
Mg10 Mg9 3.219661 1_555
Mg11 Mg8 3.042611 1_655
Mg11 Mg8 3.042611 1_555
Mg11 Mg7 3.048727 1_555
Mg11 Mg7 3.048727 1_655
Mg11 Mg6 3.048727 1_555
Mg11 Mg6 3.048727 1_655
Mg11 Mg4 3.093214 1_555
Mg11 Mg3 3.093214 1_555
Mg11 Ti1 3.126733 1_555
Mg11 Ti1 3.126733 1_565
Mg11 Mg9 3.166078 1_555
Ti0 Zn0 2.909794 1_655
Ti0 Zn0 2.909794 1_555
Ti1 Zn1 2.909794 1_555
Ti1 Zn1 2.909794 1_655
