# generated using pymatgen
data_CaCr(WO2)2
_symmetry_space_group_name_H-M   'P 1'
_cell_length_a   6.43662900
_cell_length_b   9.75573800
_cell_length_c   17.39528100
_cell_angle_alpha   90.00000000
_cell_angle_beta   90.00000000
_cell_angle_gamma   90.00000000
_symmetry_Int_Tables_number   1
_chemical_formula_structural   CaCr(WO2)2
_chemical_formula_sum   'Ca8 Cr8 W16 O32'
_cell_volume   1092.32042542
_cell_formula_units_Z   8
loop_
 _symmetry_equiv_pos_site_id
 _symmetry_equiv_pos_as_xyz
  1  'x, y, z'
loop_
 _atom_site_type_symbol
 _atom_site_label
 _atom_site_symmetry_multiplicity
 _atom_site_fract_x
 _atom_site_fract_y
 _atom_site_fract_z
 _atom_site_occupancy
  Ca  Ca0  1  0.79555900  0.75000000  0.31648900  1
  Ca  Ca1  1  0.20444100  0.25000000  0.68351100  1
  Ca  Ca2  1  0.20444100  0.75000000  0.81648900  1
  Ca  Ca3  1  0.79555900  0.25000000  0.18351100  1
  Ca  Ca4  1  0.61057000  0.75000000  0.53867400  1
  Ca  Ca5  1  0.38943000  0.25000000  0.46132600  1
  Ca  Ca6  1  0.38943000  0.75000000  0.03867400  1
  Ca  Ca7  1  0.61057000  0.25000000  0.96132600  1
  Cr  Cr0  1  0.61176300  0.93132000  0.86312400  1
  Cr  Cr1  1  0.38823700  0.06868000  0.13687600  1
  Cr  Cr2  1  0.38823700  0.43132000  0.13687600  1
  Cr  Cr3  1  0.38823700  0.56868000  0.36312400  1
  Cr  Cr4  1  0.61176300  0.56868000  0.86312400  1
  Cr  Cr5  1  0.61176300  0.43132000  0.63687600  1
  Cr  Cr6  1  0.61176300  0.06868000  0.63687600  1
  Cr  Cr7  1  0.38823700  0.93132000  0.36312400  1
  W  W0  1  0.13946300  0.75000000  0.48800900  1
  W  W1  1  0.86053700  0.25000000  0.51199100  1
  W  W2  1  0.86053700  0.75000000  0.98800900  1
  W  W3  1  0.13946300  0.25000000  0.01199100  1
  W  W4  1  0.94613900  0.92236200  0.13929100  1
  W  W5  1  0.05386100  0.07763800  0.86070900  1
  W  W6  1  0.05386100  0.42236200  0.86070900  1
  W  W7  1  0.05386100  0.57763800  0.63929100  1
  W  W8  1  0.94613900  0.57763800  0.13929100  1
  W  W9  1  0.94613900  0.42236200  0.36070900  1
  W  W10  1  0.94613900  0.07763800  0.36070900  1
  W  W11  1  0.05386100  0.92236200  0.63929100  1
  W  W12  1  0.77861400  0.75000000  0.73633300  1
  W  W13  1  0.22138600  0.25000000  0.26366700  1
  W  W14  1  0.22138600  0.75000000  0.23633300  1
  W  W15  1  0.77861400  0.25000000  0.76366700  1
  O  O0  1  0.90138900  0.88817700  0.82414600  1
  O  O1  1  0.09861100  0.11182300  0.17585400  1
  O  O2  1  0.09861100  0.38817700  0.17585400  1
  O  O3  1  0.09861100  0.61182300  0.32414600  1
  O  O4  1  0.90138900  0.61182300  0.82414600  1
  O  O5  1  0.90138900  0.38817700  0.67585400  1
  O  O6  1  0.90138900  0.11182300  0.67585400  1
  O  O7  1  0.09861100  0.88817700  0.32414600  1
  O  O8  1  0.31227400  0.96057800  0.85926700  1
  O  O9  1  0.68772600  0.03942200  0.14073300  1
  O  O10  1  0.68772600  0.46057800  0.14073300  1
  O  O11  1  0.68772600  0.53942200  0.35926700  1
  O  O12  1  0.31227400  0.53942200  0.85926700  1
  O  O13  1  0.31227400  0.46057800  0.64073300  1
  O  O14  1  0.31227400  0.03942200  0.64073300  1
  O  O15  1  0.68772600  0.96057800  0.35926700  1
  O  O16  1  0.67808400  0.90562200  0.97405400  1
  O  O17  1  0.32191600  0.09437800  0.02594600  1
  O  O18  1  0.32191600  0.40562200  0.02594600  1
  O  O19  1  0.32191600  0.59437800  0.47405400  1
  O  O20  1  0.67808400  0.59437800  0.97405400  1
  O  O21  1  0.67808400  0.40562200  0.52594600  1
  O  O22  1  0.67808400  0.09437800  0.52594600  1
  O  O23  1  0.32191600  0.90562200  0.47405400  1
  O  O24  1  0.72462800  0.87898200  0.63778500  1
  O  O25  1  0.27537200  0.12101800  0.36221500  1
  O  O26  1  0.27537200  0.37898200  0.36221500  1
  O  O27  1  0.27537200  0.62101800  0.13778500  1
  O  O28  1  0.72462800  0.62101800  0.63778500  1
  O  O29  1  0.72462800  0.37898200  0.86221500  1
  O  O30  1  0.72462800  0.12101800  0.86221500  1
  O  O31  1  0.27537200  0.87898200  0.13778500  1
loop_
_geom_bond_atom_site_label_1
_geom_bond_atom_site_label_2
_geom_bond_distance
_geom_bond_site_symmetry_2
Ca0 O15 2.292556 1_555
Ca0 O11 2.292556 1_555
Ca0 O3 2.374840 1_655
Ca0 O7 2.374840 1_655
Ca1 O13 2.292556 1_555
Ca1 O14 2.292556 1_555
Ca1 O5 2.374840 1_455
Ca1 O6 2.374840 1_455
Ca2 O8 2.292556 1_555
Ca2 O12 2.292556 1_555
Ca2 O0 2.374840 1_455
Ca2 O4 2.374840 1_455
Ca3 O10 2.292556 1_555
Ca3 O9 2.292556 1_555
Ca3 O2 2.374840 1_655
Ca3 O1 2.374840 1_655
Ca4 O24 2.257150 1_555
Ca4 O28 2.257150 1_555
Ca4 O23 2.649628 1_555
Ca4 O19 2.649628 1_555
Ca5 O25 2.257150 1_555
Ca5 O26 2.257150 1_555
Ca5 O21 2.649628 1_555
Ca5 O22 2.649628 1_555
Ca6 O31 2.257150 1_555
Ca6 O27 2.257150 1_555
Ca6 O16 2.649628 1_554
Ca6 O20 2.649628 1_554
Ca7 O29 2.257150 1_555
Ca7 O30 2.257150 1_555
Ca7 O18 2.649628 1_556
Ca7 O17 2.649628 1_556
Cr0 O8 1.949872 1_555
Cr0 O30 1.988188 1_565
Cr0 O16 1.992151 1_555
Cr0 O0 2.027850 1_555
Cr1 O9 1.949872 1_555
Cr1 O31 1.988188 1_545
Cr1 O17 1.992151 1_555
Cr1 O1 2.027850 1_555
Cr2 O10 1.949872 1_555
Cr2 O27 1.988188 1_555
Cr2 O18 1.992151 1_555
Cr2 O2 2.027850 1_555
Cr3 O11 1.949872 1_555
Cr3 O26 1.988188 1_555
Cr3 O19 1.992151 1_555
Cr3 O3 2.027850 1_555
Cr4 O12 1.949872 1_555
Cr4 O29 1.988188 1_555
Cr4 O20 1.992151 1_555
Cr4 O4 2.027850 1_555
Cr5 O13 1.949872 1_555
Cr5 O28 1.988188 1_555
Cr5 O21 1.992151 1_555
Cr5 O5 2.027850 1_555
Cr6 O14 1.949872 1_555
Cr6 O24 1.988188 1_545
Cr6 O22 1.992151 1_555
Cr6 O6 2.027850 1_555
Cr7 O15 1.949872 1_555
Cr7 O25 1.988188 1_565
Cr7 O23 1.992151 1_555
Cr7 O7 2.027850 1_555
O0 W12 2.185181 1_555
O0 W5 2.187239 1_665
O1 W13 2.185181 1_555
O1 W4 2.187239 1_445
O2 W13 2.185181 1_555
O2 W8 2.187239 1_455
O3 W14 2.185181 1_555
O3 W9 2.187239 1_455
O4 W12 2.185181 1_555
O4 W6 2.187239 1_655
O5 W15 2.185181 1_555
O5 W7 2.187239 1_655
O6 W15 2.185181 1_555
O6 W11 2.187239 1_645
O7 W14 2.185181 1_555
O7 W10 2.187239 1_465
O8 W5 2.017772 1_565
O9 W4 2.017772 1_545
O10 W8 2.017772 1_555
O11 W9 2.017772 1_555
O12 W6 2.017772 1_555
O13 W7 2.017772 1_555
O14 W11 2.017772 1_545
O15 W10 2.017772 1_565
O16 W2 1.934698 1_555
O17 W3 1.934698 1_555
O18 W3 1.934698 1_555
O19 W0 1.934698 1_555
O20 W2 1.934698 1_555
O21 W1 1.934698 1_555
O22 W1 1.934698 1_555
O23 W0 1.934698 1_555
O24 W12 2.154722 1_555
O24 W11 2.161154 1_655
O25 W13 2.154722 1_555
O25 W10 2.161154 1_455
O26 W13 2.154722 1_555
O26 W9 2.161154 1_455
O27 W14 2.154722 1_555
O27 W8 2.161154 1_455
O28 W12 2.154722 1_555
O28 W7 2.161154 1_655
O29 W15 2.154722 1_555
O29 W6 2.161154 1_655
O30 W15 2.154722 1_555
O30 W5 2.161154 1_655
O31 W14 2.154722 1_555
O31 W4 2.161154 1_455
