# generated using pymatgen
data_CsUCl4O3
_symmetry_space_group_name_H-M   'P 1'
_cell_length_a   9.45413500
_cell_length_b   6.93485900
_cell_length_c   7.79405860
_cell_angle_alpha   81.71442460
_cell_angle_beta   90.00000000
_cell_angle_gamma   90.00000000
_symmetry_Int_Tables_number   1
_chemical_formula_structural   CsUCl4O3
_chemical_formula_sum   'Cs2 U2 Cl8 O6'
_cell_volume   505.66879668
_cell_formula_units_Z   2
loop_
 _symmetry_equiv_pos_site_id
 _symmetry_equiv_pos_as_xyz
  1  'x, y, z'
loop_
 _atom_site_type_symbol
 _atom_site_label
 _atom_site_symmetry_multiplicity
 _atom_site_fract_x
 _atom_site_fract_y
 _atom_site_fract_z
 _atom_site_occupancy
  Cs  Cs0  1  0.25000000  0.03471700  0.22231000  1
  Cs  Cs1  1  0.75000000  0.96528300  0.77769000  1
  U  U0  1  0.25000000  0.41477300  0.62451200  1
  U  U1  1  0.75000000  0.58522700  0.37548800  1
  Cl  Cl0  1  0.55886800  0.26624700  0.44459400  1
  Cl  Cl1  1  0.05886800  0.73375300  0.55540600  1
  Cl  Cl2  1  0.44113200  0.73375300  0.55540600  1
  Cl  Cl3  1  0.94113200  0.26624700  0.44459400  1
  Cl  Cl4  1  0.54652300  0.69813700  0.12634500  1
  Cl  Cl5  1  0.04652300  0.30186300  0.87365500  1
  Cl  Cl6  1  0.45347700  0.30186300  0.87365500  1
  Cl  Cl7  1  0.95347700  0.69813700  0.12634500  1
  O  O0  1  0.25000000  0.44532400  0.38418200  1
  O  O1  1  0.75000000  0.55467600  0.61581800  1
  O  O2  1  0.25000000  0.14880200  0.61205300  1
  O  O3  1  0.75000000  0.85119800  0.38794700  1
  O  O4  1  0.25000000  0.59236900  0.79568000  1
  O  O5  1  0.75000000  0.40763100  0.20432000  1
loop_
_geom_bond_atom_site_label_1
_geom_bond_atom_site_label_2
_geom_bond_distance
_geom_bond_site_symmetry_2
Cs0 O2 3.247476 1_555
Cs0 O0 3.276495 1_555
Cs1 O3 3.247476 1_555
Cs1 O1 3.276495 1_555
Cl0 U1 2.846967 1_555
Cl0 U0 3.459839 1_555
Cl0 Cs1 3.577675 1_545
Cl0 Cs0 3.861111 1_555
Cl1 U0 2.846967 1_555
Cl1 U1 3.459839 1_455
Cl1 Cs0 3.577675 1_565
Cl1 Cs1 3.861111 1_455
Cl2 U0 2.846967 1_555
Cl2 U1 3.459839 1_555
Cl2 Cs0 3.577675 1_565
Cl2 Cs1 3.861111 1_555
Cl3 U1 2.846967 1_555
Cl3 U0 3.459839 1_655
Cl3 Cs1 3.577675 1_545
Cl3 Cs0 3.861111 1_655
Cl4 U1 2.765181 1_555
Cl4 Cs1 3.614735 1_554
Cl4 Cs0 3.790735 1_565
Cl5 U0 2.765181 1_555
Cl5 Cs0 3.614735 1_556
Cl5 Cs1 3.790735 1_445
Cl6 U0 2.765181 1_555
Cl6 Cs0 3.614735 1_556
Cl6 Cs1 3.790735 1_545
Cl7 U1 2.765181 1_555
Cl7 Cs1 3.614735 1_554
Cl7 Cs0 3.790735 1_665
O0 U0 1.854504 1_555
O1 U1 1.854504 1_555
O2 U0 1.860948 1_555
O3 U1 1.860948 1_555
O4 U0 1.941703 1_555
O5 U1 1.941703 1_555
