# generated using pymatgen
data_K5In3P6Se19
_symmetry_space_group_name_H-M   'P 1'
_cell_length_a   7.89838700
_cell_length_b   13.54156551
_cell_length_c   18.84881278
_cell_angle_alpha   86.73318689
_cell_angle_beta   88.42486484
_cell_angle_gamma   81.78960374
_symmetry_Int_Tables_number   1
_chemical_formula_structural   K5In3P6Se19
_chemical_formula_sum   'K10 In6 P12 Se38'
_cell_volume   1991.71573419
_cell_formula_units_Z   2
loop_
 _symmetry_equiv_pos_site_id
 _symmetry_equiv_pos_as_xyz
  1  'x, y, z'
loop_
 _atom_site_type_symbol
 _atom_site_label
 _atom_site_symmetry_multiplicity
 _atom_site_fract_x
 _atom_site_fract_y
 _atom_site_fract_z
 _atom_site_occupancy
  K  K0  1  0.73227300  0.40667500  0.07547500  1
  K  K1  1  0.26772700  0.59332500  0.92452500  1
  K  K2  1  0.94990200  0.15503500  0.44165800  1
  K  K3  1  0.05009800  0.84496500  0.55834200  1
  K  K4  1  0.75040600  0.78414100  0.20482900  1
  K  K5  1  0.24959400  0.21585900  0.79517100  1
  K  K6  1  0.57258600  0.64704300  0.39131000  1
  K  K7  1  0.42741400  0.35295700  0.60869000  1
  K  K8  1  0.23768500  0.88503600  0.08967900  1
  K  K9  1  0.76231500  0.11496400  0.91032100  1
  In  In0  1  0.50594100  0.09855700  0.32951600  1
  In  In1  1  0.49405900  0.90144300  0.67048400  1
  In  In2  1  0.24421900  0.26397700  0.15858100  1
  In  In3  1  0.75578100  0.73602300  0.84141900  1
  In  In4  1  0.18259700  0.43516500  0.32199000  1
  In  In5  1  0.81740300  0.56483500  0.67801000  1
  P  P0  1  0.63989800  0.05905200  0.13181700  1
  P  P1  1  0.36010200  0.94094800  0.86818300  1
  P  P2  1  0.86162300  0.09942300  0.19625600  1
  P  P3  1  0.13837700  0.90057700  0.80374400  1
  P  P4  1  0.12365300  0.56979800  0.14204600  1
  P  P5  1  0.87634700  0.43020200  0.85795400  1
  P  P6  1  0.37463800  0.60748200  0.18678300  1
  P  P7  1  0.62536200  0.39251800  0.81321700  1
  P  P8  1  0.91189800  0.43918300  0.50637800  1
  P  P9  1  0.08810200  0.56081700  0.49362200  1
  P  P10  1  0.50292700  0.93485200  0.46433400  1
  P  P11  1  0.49707300  0.06514800  0.53566600  1
  Se  Se0  1  0.21328500  0.23984700  0.29552000  1
  Se  Se1  1  0.78671500  0.76015300  0.70448000  1
  Se  Se2  1  0.45903800  0.99956500  0.21013000  1
  Se  Se3  1  0.54096200  0.00043500  0.78987000  1
  Se  Se4  1  0.51560300  0.20380900  0.07813800  1
  Se  Se5  1  0.48439700  0.79619100  0.92186200  1
  Se  Se6  1  0.73803000  0.95153100  0.05595900  1
  Se  Se7  1  0.26197000  0.04846900  0.94404100  1
  Se  Se8  1  0.73928800  0.21228100  0.27076000  1
  Se  Se9  1  0.26071200  0.78771900  0.72924000  1
  Se  Se10  1  0.99951100  0.17127100  0.10476400  1
  Se  Se11  1  0.00048900  0.82872900  0.89523600  1
  Se  Se12  1  0.00050200  0.96615100  0.24565800  1
  Se  Se13  1  0.99949800  0.03384900  0.75434200  1
  Se  Se14  1  0.17899300  0.43396200  0.07612200  1
  Se  Se15  1  0.82100700  0.56603800  0.92387800  1
  Se  Se16  1  0.95023200  0.53489600  0.23449300  1
  Se  Se17  1  0.04976800  0.46510400  0.76550700  1
  Se  Se18  1  0.01013900  0.69218100  0.07261600  1
  Se  Se19  1  0.98986100  0.30781900  0.92738400  1
  Se  Se20  1  0.47583800  0.46125200  0.24224400  1
  Se  Se21  1  0.52416200  0.53874800  0.75775600  1
  Se  Se22  1  0.30663900  0.73011500  0.25617600  1
  Se  Se23  1  0.69336100  0.26988500  0.74382400  1
  Se  Se24  1  0.53216100  0.64065100  0.09481200  1
  Se  Se25  1  0.46783900  0.35934900  0.90518800  1
  Se  Se26  1  0.84321200  0.41305700  0.39646000  1
  Se  Se27  1  0.15678800  0.58694300  0.60354000  1
  Se  Se28  1  0.02150100  0.30983800  0.56916300  1
  Se  Se29  1  0.97849900  0.69016200  0.43083700  1
  Se  Se30  1  0.67746000  0.52543900  0.55781200  1
  Se  Se31  1  0.32254000  0.47456100  0.44218800  1
  Se  Se32  1  0.27729100  0.96583800  0.39509000  1
  Se  Se33  1  0.72270900  0.03416200  0.60491000  1
  Se  Se34  1  0.73292700  0.93947300  0.39273900  1
  Se  Se35  1  0.26707300  0.06052700  0.60726100  1
  Se  Se36  1  0.50811200  0.80268400  0.53861400  1
  Se  Se37  1  0.49188800  0.19731600  0.46138600  1
loop_
_geom_bond_atom_site_label_1
_geom_bond_atom_site_label_2
_geom_bond_distance
_geom_bond_site_symmetry_2
K0 Se24 3.367403 1_555
K0 Se4 3.435146 1_555
K0 Se10 3.586562 1_555
K0 Se15 3.596141 1_554
K0 Se14 3.600183 1_655
K0 Se19 3.613680 1_554
K0 Se20 3.743890 1_555
K1 Se25 3.367403 1_555
K1 Se5 3.435146 1_555
K1 Se11 3.586562 1_555
K1 Se14 3.596141 1_556
K1 Se15 3.600183 1_455
K1 Se18 3.613680 1_556
K1 Se21 3.743890 1_555
K2 Se28 3.387863 1_655
K2 Se32 3.501474 1_645
K2 Se26 3.536006 1_555
K2 Se37 3.593277 1_555
K2 Se0 3.638807 1_655
K2 Se8 3.658711 1_555
K2 Se34 3.759046 1_545
K2 Se33 3.915243 1_555
K3 Se29 3.387863 1_455
K3 Se33 3.501474 1_465
K3 Se27 3.536006 1_555
K3 Se36 3.593277 1_555
K3 Se1 3.638807 1_455
K3 Se9 3.658711 1_555
K3 Se35 3.759046 1_565
K3 Se32 3.915243 1_555
K4 Se18 3.363420 1_655
K4 Se2 3.452416 1_555
K4 Se6 3.499747 1_555
K4 Se12 3.501335 1_655
K4 Se16 3.536575 1_555
K4 Se24 3.558031 1_555
K4 Se22 3.771269 1_555
K5 Se19 3.363420 1_455
K5 Se3 3.452416 1_555
K5 Se7 3.499747 1_555
K5 Se13 3.501335 1_455
K5 Se17 3.536575 1_555
K5 Se25 3.558031 1_555
K5 Se23 3.771269 1_555
K6 Se31 3.351659 1_555
K6 Se22 3.385003 1_555
K6 Se29 3.448246 1_555
K6 Se30 3.522989 1_555
K6 Se26 3.558079 1_555
K6 Se36 3.562730 1_555
K7 Se30 3.351659 1_555
K7 Se23 3.385003 1_555
K7 Se28 3.448246 1_555
K7 Se31 3.522989 1_555
K7 Se27 3.558079 1_555
K7 Se37 3.562730 1_555
K8 Se18 3.409084 1_555
K8 Se7 3.445324 1_564
K8 Se2 3.465611 1_555
K8 Se12 3.582914 1_555
K8 Se22 3.682894 1_555
K8 Se24 3.761432 1_555
K8 Se5 3.830848 1_554
K9 Se19 3.409084 1_555
K9 Se6 3.445324 1_546
K9 Se3 3.465611 1_555
K9 Se13 3.582914 1_555
K9 Se23 3.682894 1_555
K9 Se25 3.761432 1_555
K9 Se4 3.830848 1_556
In0 Se8 2.738445 1_555
In0 Se2 2.743983 1_545
In0 Se34 2.827871 1_545
In0 Se0 2.844800 1_555
In0 Se37 2.881023 1_555
In0 Se32 2.927516 1_545
In1 Se9 2.738445 1_555
In1 Se3 2.743983 1_565
In1 Se35 2.827871 1_565
In1 Se1 2.844800 1_555
In1 Se36 2.881023 1_555
In1 Se33 2.927516 1_565
In2 Se0 2.592440 1_555
In2 Se4 2.649672 1_555
In2 Se14 2.697638 1_555
In2 Se10 2.699375 1_455
In3 Se1 2.592440 1_555
In3 Se5 2.649672 1_555
In3 Se15 2.697638 1_555
In3 Se11 2.699375 1_655
In4 Se31 2.661407 1_555
In4 Se16 2.667728 1_455
In4 Se0 2.695159 1_555
In4 Se20 2.780359 1_555
In4 Se26 3.036439 1_455
In5 Se30 2.661407 1_555
In5 Se17 2.667728 1_655
In5 Se1 2.695159 1_555
In5 Se21 2.780359 1_555
In5 Se27 3.036439 1_655
P0 Se6 2.149219 1_545
P0 Se2 2.223880 1_545
P0 Se4 2.260298 1_555
P0 P2 2.303720 1_555
P1 Se7 2.149219 1_565
P1 Se3 2.223880 1_565
P1 Se5 2.260298 1_555
P1 P3 2.303720 1_555
P2 Se12 2.150931 1_645
P2 Se8 2.233738 1_555
P2 Se10 2.261602 1_555
P3 Se13 2.150931 1_465
P3 Se9 2.233738 1_555
P3 Se11 2.261602 1_555
P4 Se18 2.157757 1_555
P4 Se16 2.257381 1_455
P4 Se14 2.262652 1_555
P4 P6 2.308928 1_555
P5 Se19 2.157757 1_555
P5 Se17 2.257381 1_655
P5 Se15 2.262652 1_555
P5 P7 2.308928 1_555
P6 Se24 2.169607 1_555
P6 Se22 2.170527 1_555
P6 Se20 2.238477 1_555
P7 Se25 2.169607 1_555
P7 Se23 2.170527 1_555
P7 Se21 2.238477 1_555
P8 Se28 2.145875 1_655
P8 Se26 2.216322 1_555
P8 Se30 2.268379 1_555
P8 P9 2.301934 1_655
P9 Se29 2.145875 1_455
P9 Se27 2.216322 1_555
P9 Se31 2.268379 1_555
P10 Se36 2.204949 1_555
P10 Se32 2.215287 1_555
P10 Se34 2.239023 1_555
P10 P11 2.273034 1_565
P11 Se37 2.204949 1_555
P11 Se33 2.215287 1_555
P11 Se35 2.239023 1_555
