# generated using pymatgen
data_B2Mo(PbO2)6
_symmetry_space_group_name_H-M   'P 1'
_cell_length_a   9.77427764
_cell_length_b   9.77427764
_cell_length_c   11.83436645
_cell_angle_alpha   90.00000000
_cell_angle_beta   90.00000000
_cell_angle_gamma   142.19656082
_symmetry_Int_Tables_number   1
_chemical_formula_structural   B2Mo(PbO2)6
_chemical_formula_sum   'B4 Mo2 Pb12 O24'
_cell_volume   693.01491193
_cell_formula_units_Z   2
loop_
 _symmetry_equiv_pos_site_id
 _symmetry_equiv_pos_as_xyz
  1  'x, y, z'
loop_
 _atom_site_type_symbol
 _atom_site_label
 _atom_site_symmetry_multiplicity
 _atom_site_fract_x
 _atom_site_fract_y
 _atom_site_fract_z
 _atom_site_occupancy
  B  B0  1  0.74651584  0.25348416  0.50000000  1
  B  B1  1  0.74651584  0.25348416  -0.00000000  1
  B  B2  1  0.25348416  0.74651584  0.50000000  1
  B  B3  1  0.25348416  0.74651584  -0.00000000  1
  Mo  Mo0  1  0.26862694  0.26862694  0.25000000  1
  Mo  Mo1  1  0.73137306  0.73137306  0.75000000  1
  Pb  Pb0  1  0.08958245  0.50572276  0.25000000  1
  Pb  Pb1  1  0.49427724  0.91041755  0.75000000  1
  Pb  Pb2  1  0.91041755  0.49427724  0.75000000  1
  Pb  Pb3  1  0.50572276  0.08958245  0.25000000  1
  Pb  Pb4  1  0.86611023  0.65500401  0.40689868  1
  Pb  Pb5  1  0.34499599  0.13388977  0.59310132  1
  Pb  Pb6  1  0.86611023  0.65500401  0.09310132  1
  Pb  Pb7  1  0.34499599  0.13388977  0.90689868  1
  Pb  Pb8  1  0.13388977  0.34499599  0.59310132  1
  Pb  Pb9  1  0.65500401  0.86611023  0.40689868  1
  Pb  Pb10  1  0.13388977  0.34499599  0.90689868  1
  Pb  Pb11  1  0.65500401  0.86611023  0.09310132  1
  O  O0  1  0.15918689  0.72544105  0.40360181  1
  O  O1  1  0.27455895  0.84081311  0.59639819  1
  O  O2  1  0.15918689  0.72544105  0.09639819  1
  O  O3  1  0.27455895  0.84081311  0.90360181  1
  O  O4  1  0.84081311  0.27455895  0.59639819  1
  O  O5  1  0.72544105  0.15918689  0.40360181  1
  O  O6  1  0.84081311  0.27455895  0.90360181  1
  O  O7  1  0.72544105  0.15918689  0.09639819  1
  O  O8  1  0.67111789  0.32888211  0.50000000  1
  O  O9  1  0.67111789  0.32888211  -0.00000000  1
  O  O10  1  0.32888211  0.67111789  0.50000000  1
  O  O11  1  0.32888211  0.67111789  -0.00000000  1
  O  O12  1  0.77878094  0.47986658  0.25000000  1
  O  O13  1  0.52013342  0.22121906  0.75000000  1
  O  O14  1  0.22121906  0.52013342  0.75000000  1
  O  O15  1  0.47986658  0.77878094  0.25000000  1
  O  O16  1  0.17704216  0.02270351  0.25000000  1
  O  O17  1  0.97729649  0.82295784  0.75000000  1
  O  O18  1  0.82295784  0.97729649  0.75000000  1
  O  O19  1  0.02270351  0.17704216  0.25000000  1
  O  O20  1  0.42953196  0.42953196  0.37178225  1
  O  O21  1  0.57046804  0.57046804  0.62821775  1
  O  O22  1  0.42953196  0.42953196  0.12821775  1
  O  O23  1  0.57046804  0.57046804  0.87178225  1
loop_
_geom_bond_atom_site_label_1
_geom_bond_atom_site_label_2
_geom_bond_distance
_geom_bond_site_symmetry_2
B0 O5 1.375997 1_555
B0 O4 1.375997 1_555
B0 O8 1.394441 1_555
B1 O7 1.375997 1_555
B1 O6 1.375997 1_554
B1 O9 1.394441 1_555
B2 O0 1.375997 1_555
B2 O1 1.375997 1_555
B2 O10 1.394441 1_555
B3 O2 1.375997 1_555
B3 O3 1.375997 1_554
B3 O11 1.394441 1_555
Mo0 O20 1.765044 1_555
Mo0 O22 1.765044 1_555
Mo0 O16 1.782960 1_555
Mo0 O19 1.782960 1_555
Mo1 O21 1.765044 1_555
Mo1 O23 1.765044 1_555
Mo1 O17 1.782960 1_555
Mo1 O18 1.782960 1_555
O0 Pb4 2.359019 1_455
O0 Pb0 2.463832 1_555
O1 Pb5 2.359019 1_565
O1 Pb1 2.463832 1_555
O2 Pb6 2.359019 1_455
O2 Pb0 2.463832 1_555
O3 Pb7 2.359019 1_565
O3 Pb1 2.463832 1_555
O4 Pb8 2.359019 1_655
O4 Pb2 2.463832 1_555
O5 Pb9 2.359019 1_545
O5 Pb3 2.463832 1_555
O6 Pb10 2.359019 1_655
O6 Pb2 2.463832 1_555
O7 Pb11 2.359019 1_545
O7 Pb3 2.463832 1_555
O8 Pb4 2.325271 1_555
O8 Pb5 2.325271 1_555
O9 Pb6 2.325271 1_555
O9 Pb7 2.325271 1_554
O10 Pb9 2.325271 1_555
O10 Pb8 2.325271 1_555
O11 Pb11 2.325271 1_555
O11 Pb10 2.325271 1_554
O12 Pb6 2.190357 1_555
O12 Pb4 2.190357 1_555
O12 Pb3 2.363602 1_555
O13 Pb7 2.190357 1_555
O13 Pb5 2.190357 1_555
O13 Pb2 2.363602 1_555
O14 Pb8 2.190357 1_555
O14 Pb10 2.190357 1_555
O14 Pb1 2.363602 1_555
O15 Pb11 2.190357 1_555
O15 Pb9 2.190357 1_555
O15 Pb0 2.363602 1_555
O16 Pb3 2.725732 1_555
O17 Pb2 2.725732 1_555
O18 Pb1 2.725732 1_555
O19 Pb0 2.725732 1_555
