# generated using pymatgen
data_Ce2(Si2Pd7)3
_symmetry_space_group_name_H-M   'P 1'
_cell_length_a   8.68202818
_cell_length_b   8.68202818
_cell_length_c   8.68202818
_cell_angle_alpha   60.00000000
_cell_angle_beta   60.00000000
_cell_angle_gamma   60.00000000
_symmetry_Int_Tables_number   1
_chemical_formula_structural   Ce2(Si2Pd7)3
_chemical_formula_sum   'Ce2 Si6 Pd21'
_cell_volume   462.75228877
_cell_formula_units_Z   1
loop_
 _symmetry_equiv_pos_site_id
 _symmetry_equiv_pos_as_xyz
  1  'x, y, z'
loop_
 _atom_site_type_symbol
 _atom_site_label
 _atom_site_symmetry_multiplicity
 _atom_site_fract_x
 _atom_site_fract_y
 _atom_site_fract_z
 _atom_site_occupancy
  Ce  Ce0  1  0.75000000  0.75000000  0.75000000  1
  Ce  Ce1  1  0.25000000  0.25000000  0.25000000  1
  Si  Si0  1  0.73679000  0.73679000  0.26321000  1
  Si  Si1  1  0.26321000  0.73679000  0.26321000  1
  Si  Si2  1  0.73679000  0.26321000  0.26321000  1
  Si  Si3  1  0.26321000  0.26321000  0.73679000  1
  Si  Si4  1  0.73679000  0.26321000  0.73679000  1
  Si  Si5  1  0.26321000  0.73679000  0.73679000  1
  Pd  Pd0  1  0.00000000  0.00000000  0.00000000  1
  Pd  Pd1  1  0.61654200  0.61654200  0.15037400  1
  Pd  Pd2  1  0.61654200  0.15037400  0.61654200  1
  Pd  Pd3  1  0.15037400  0.61654200  0.61654200  1
  Pd  Pd4  1  0.61654200  0.61654200  0.61654200  1
  Pd  Pd5  1  0.38345800  0.38345800  0.84962600  1
  Pd  Pd6  1  0.38345800  0.84962600  0.38345800  1
  Pd  Pd7  1  0.84962600  0.38345800  0.38345800  1
  Pd  Pd8  1  0.38345800  0.38345800  0.38345800  1
  Pd  Pd9  1  0.00000000  0.00000000  0.34524800  1
  Pd  Pd10  1  0.65475200  0.00000000  0.34524800  1
  Pd  Pd11  1  0.00000000  0.65475200  0.34524800  1
  Pd  Pd12  1  0.65475200  0.34524800  0.00000000  1
  Pd  Pd13  1  0.00000000  0.34524800  0.00000000  1
  Pd  Pd14  1  0.00000000  0.34524800  0.65475200  1
  Pd  Pd15  1  0.34524800  0.65475200  0.00000000  1
  Pd  Pd16  1  0.34524800  0.00000000  0.65475200  1
  Pd  Pd17  1  0.34524800  0.00000000  0.00000000  1
  Pd  Pd18  1  0.00000000  0.00000000  0.65475200  1
  Pd  Pd19  1  0.00000000  0.65475200  0.00000000  1
  Pd  Pd20  1  0.65475200  0.00000000  0.00000000  1
loop_
_geom_bond_atom_site_label_1
_geom_bond_atom_site_label_2
_geom_bond_distance
_geom_bond_site_symmetry_2
Ce0 Pd2 2.838190 1_565
Ce0 Pd1 2.838190 1_556
Ce0 Pd3 2.838190 1_655
Ce0 Pd4 2.838190 1_555
Ce1 Pd8 2.838190 1_555
Ce1 Pd7 2.838190 1_455
Ce1 Pd5 2.838190 1_554
Ce1 Pd6 2.838190 1_545
Pd0 Pd15 2.997453 1_545
Pd0 Pd16 2.997453 1_554
Pd0 Pd19 2.997453 1_545
Pd0 Pd14 2.997453 1_554
Pd0 Pd17 2.997453 1_555
Pd0 Pd12 2.997453 1_455
Pd0 Pd18 2.997453 1_554
Pd0 Pd20 2.997453 1_455
Pd0 Pd11 2.997453 1_545
Pd0 Pd10 2.997453 1_455
Pd0 Pd9 2.997453 1_555
Pd0 Pd13 2.997453 1_555
Pd0 Si4 3.231756 1_454
Pd0 Si5 3.231756 1_544
Pd0 Si0 3.231756 1_445
Pd0 Si1 3.231756 1_545
Pd0 Si3 3.231756 1_554
Pd0 Si2 3.231756 1_455
Pd1 Si2 2.504992 1_555
Pd1 Si1 2.504992 1_555
Pd1 Si0 2.504992 1_555
Pd2 Si3 2.504992 1_555
Pd2 Si2 2.504992 1_555
Pd2 Si4 2.504992 1_555
Pd3 Si1 2.504992 1_555
Pd3 Si3 2.504992 1_555
Pd3 Si5 2.504992 1_555
Pd4 Si4 2.504992 1_555
Pd4 Si0 2.504992 1_555
Pd4 Si5 2.504992 1_555
Pd5 Si3 2.504992 1_555
Pd5 Si5 2.504992 1_555
Pd5 Si4 2.504992 1_555
Pd6 Si1 2.504992 1_555
Pd6 Si5 2.504992 1_555
Pd6 Si0 2.504992 1_555
Pd7 Si2 2.504992 1_555
Pd7 Si4 2.504992 1_555
Pd7 Si0 2.504992 1_555
Pd8 Si3 2.504992 1_555
Pd8 Si1 2.504992 1_555
Pd8 Si2 2.504992 1_555
Pd9 Si2 2.393623 1_455
Pd9 Si1 2.393623 1_545
Pd10 Si0 2.393623 1_545
Pd10 Si2 2.393623 1_555
Pd11 Si0 2.393623 1_455
Pd11 Si1 2.393623 1_555
Pd12 Si4 2.393623 1_554
Pd12 Si2 2.393623 1_555
Pd13 Si2 2.393623 1_455
Pd13 Si3 2.393623 1_554
Pd14 Si4 2.393623 1_455
Pd14 Si3 2.393623 1_555
Pd15 Si5 2.393623 1_554
Pd15 Si1 2.393623 1_555
Pd16 Si5 2.393623 1_545
Pd16 Si3 2.393623 1_555
Pd17 Si3 2.393623 1_554
Pd17 Si1 2.393623 1_545
Pd18 Si5 2.393623 1_545
Pd18 Si4 2.393623 1_455
Pd19 Si0 2.393623 1_455
Pd19 Si5 2.393623 1_554
Pd20 Si0 2.393623 1_545
Pd20 Si4 2.393623 1_554
