# generated using pymatgen
data_C6I3N4
_symmetry_space_group_name_H-M   'P 1'
_cell_length_a   11.17322800
_cell_length_b   9.38986900
_cell_length_c   10.89292763
_cell_angle_alpha   86.33887074
_cell_angle_beta   90.00000000
_cell_angle_gamma   90.00000000
_symmetry_Int_Tables_number   1
_chemical_formula_structural   C6I3N4
_chemical_formula_sum   'C24 I12 N16'
_cell_volume   1140.50077622
_cell_formula_units_Z   4
loop_
 _symmetry_equiv_pos_site_id
 _symmetry_equiv_pos_as_xyz
  1  'x, y, z'
loop_
 _atom_site_type_symbol
 _atom_site_label
 _atom_site_symmetry_multiplicity
 _atom_site_fract_x
 _atom_site_fract_y
 _atom_site_fract_z
 _atom_site_occupancy
  C  C0  1  0.35447800  0.61610400  0.91091100  1
  C  C1  1  0.85447800  0.38389600  0.58908900  1
  C  C2  1  0.64552200  0.38389600  0.08908900  1
  C  C3  1  0.14552200  0.61610400  0.41091100  1
  C  C4  1  0.41815500  0.84361000  0.90193500  1
  C  C5  1  0.91815500  0.15639000  0.59806500  1
  C  C6  1  0.58184500  0.15639000  0.09806500  1
  C  C7  1  0.08184500  0.84361000  0.40193500  1
  C  C8  1  0.35231200  0.86903500  0.11141500  1
  C  C9  1  0.85231200  0.13096500  0.38858500  1
  C  C10  1  0.64768800  0.13096500  0.88858500  1
  C  C11  1  0.14768800  0.86903500  0.61141500  1
  C  C12  1  0.21457300  0.79465100  0.96334600  1
  C  C13  1  0.71457300  0.20534900  0.53665400  1
  C  C14  1  0.78542700  0.20534900  0.03665400  1
  C  C15  1  0.28542700  0.79465100  0.46334600  1
  C  C16  1  0.28733700  0.63039100  0.11647500  1
  C  C17  1  0.78733700  0.36960900  0.38352500  1
  C  C18  1  0.71266300  0.36960900  0.88352500  1
  C  C19  1  0.21266300  0.63039100  0.61647500  1
  C  C20  1  0.48290800  0.69129500  0.06410300  1
  C  C21  1  0.98290800  0.30870500  0.43589700  1
  C  C22  1  0.51709200  0.30870500  0.93589700  1
  C  C23  1  0.01709200  0.69129500  0.56410300  1
  I  I0  1  0.06628900  0.10576300  0.13620000  1
  I  I1  1  0.56628900  0.89423700  0.36380000  1
  I  I2  1  0.93371100  0.89423700  0.86380000  1
  I  I3  1  0.43371100  0.10576300  0.63620000  1
  I  I4  1  0.26143100  0.24298500  0.25310400  1
  I  I5  1  0.76143100  0.75701500  0.24689600  1
  I  I6  1  0.73856900  0.75701500  0.74689600  1
  I  I7  1  0.23856900  0.24298500  0.75310400  1
  I  I8  1  0.44609600  0.40667200  0.36627000  1
  I  I9  1  0.94609600  0.59332800  0.13373000  1
  I  I10  1  0.55390400  0.59332800  0.63373000  1
  I  I11  1  0.05390400  0.40667200  0.86627000  1
  N  N0  1  0.38503000  0.59871100  0.03905700  1
  N  N1  1  0.88503000  0.40128900  0.46094300  1
  N  N2  1  0.61497000  0.40128900  0.96094300  1
  N  N3  1  0.11497000  0.59871100  0.53905700  1
  N  N4  1  0.31551500  0.75876600  0.88918000  1
  N  N5  1  0.81551500  0.24123400  0.61082000  1
  N  N6  1  0.68448500  0.24123400  0.11082000  1
  N  N7  1  0.18448500  0.75876600  0.38918000  1
  N  N8  1  0.44702300  0.83374300  0.03055500  1
  N  N9  1  0.94702300  0.16625700  0.46944500  1
  N  N10  1  0.55297700  0.16625700  0.96944500  1
  N  N11  1  0.05297700  0.83374300  0.53055500  1
  N  N12  1  0.25725600  0.77577700  0.08437500  1
  N  N13  1  0.75725600  0.22422300  0.41562500  1
  N  N14  1  0.74274400  0.22422300  0.91562500  1
  N  N15  1  0.24274400  0.77577700  0.58437500  1
loop_
_geom_bond_atom_site_label_1
_geom_bond_atom_site_label_2
_geom_bond_distance
_geom_bond_site_symmetry_2
C0 N4 1.414047 1_555
C0 N0 1.436170 1_556
C1 N5 1.414047 1_555
C1 N1 1.436170 1_555
C2 N6 1.414047 1_555
C2 N2 1.436170 1_554
C3 N7 1.414047 1_555
C3 N3 1.436170 1_555
C4 N4 1.408306 1_555
C4 N8 1.434915 1_556
C5 N5 1.408306 1_555
C5 N9 1.434915 1_555
C6 N6 1.408306 1_555
C6 N10 1.434915 1_554
C7 N7 1.408306 1_555
C7 N11 1.434915 1_555
C8 N12 1.419342 1_555
C8 N8 1.429249 1_555
C9 N13 1.419342 1_555
C9 N9 1.429249 1_555
C10 N14 1.419342 1_555
C10 N10 1.429249 1_555
C11 N15 1.419342 1_555
C11 N11 1.429249 1_555
C12 N12 1.402527 1_556
C12 N4 1.439800 1_555
C13 N13 1.402527 1_555
C13 N5 1.439800 1_555
C14 N14 1.402527 1_554
C14 N6 1.439800 1_555
C15 N15 1.402527 1_555
C15 N7 1.439800 1_555
C16 N0 1.422381 1_555
C16 N12 1.427556 1_555
C17 N1 1.422381 1_555
C17 N13 1.427556 1_555
C18 N2 1.422381 1_555
C18 N14 1.427556 1_555
C19 N3 1.422381 1_555
C19 N15 1.427556 1_555
C20 N8 1.421608 1_555
C20 N0 1.434045 1_555
C21 N9 1.421608 1_555
C21 N1 1.434045 1_555
C22 N10 1.421608 1_555
C22 N2 1.434045 1_555
C23 N11 1.421608 1_555
C23 N3 1.434045 1_555
I0 I4 2.871478 1_555
I1 I5 2.871478 1_555
I2 I6 2.871478 1_555
I3 I7 2.871478 1_555
I4 I8 2.895019 1_555
I5 I9 2.895019 1_555
I10 I6 2.895019 1_555
I11 I7 2.895019 1_555
