# generated using pymatgen
data_K4GeO4
_symmetry_space_group_name_H-M   'P 1'
_cell_length_a   6.55965214
_cell_length_b   10.43613819
_cell_length_c   10.48818114
_cell_angle_alpha   68.25865556
_cell_angle_beta   90.00000000
_cell_angle_gamma   90.00000000
_symmetry_Int_Tables_number   1
_chemical_formula_structural   K4GeO4
_chemical_formula_sum   'K16 Ge4 O16'
_cell_volume   666.91986335
_cell_formula_units_Z   4
loop_
 _symmetry_equiv_pos_site_id
 _symmetry_equiv_pos_as_xyz
  1  'x, y, z'
loop_
 _atom_site_type_symbol
 _atom_site_label
 _atom_site_symmetry_multiplicity
 _atom_site_fract_x
 _atom_site_fract_y
 _atom_site_fract_z
 _atom_site_occupancy
  K  K0  1  0.19572234  0.93258008  0.19994760  1
  K  K1  1  0.30427766  0.93258008  0.69994760  1
  K  K2  1  0.60593467  0.66354893  0.91477763  1
  K  K3  1  0.90851606  0.44187940  0.19612419  1
  K  K4  1  0.40851606  0.55812060  0.30387581  1
  K  K5  1  0.09148394  0.55812060  0.80387581  1
  K  K6  1  0.59148394  0.44187940  0.69612419  1
  K  K7  1  0.16546766  0.13524747  0.38909150  1
  K  K8  1  0.66546766  0.86475253  0.11090850  1
  K  K9  1  0.83453234  0.86475253  0.61090850  1
  K  K10  1  0.33453234  0.13524747  0.88909150  1
  K  K11  1  0.89406533  0.66354893  0.41477763  1
  K  K12  1  0.39406533  0.33645107  0.08522237  1
  K  K13  1  0.10593467  0.33645107  0.58522237  1
  K  K14  1  0.69572234  0.06741992  0.30005240  1
  K  K15  1  0.80427766  0.06741992  0.80005240  1
  Ge  Ge0  1  0.63404681  0.25810509  0.49210915  1
  Ge  Ge1  1  0.36595319  0.74189491  0.50789085  1
  Ge  Ge2  1  0.86595319  0.25810509  0.99210915  1
  Ge  Ge3  1  0.13404681  0.74189491  0.00789085  1
  O  O0  1  0.00096465  0.27612579  0.83973133  1
  O  O1  1  0.25654626  0.57868244  0.53395575  1
  O  O2  1  0.75654626  0.42131756  0.96604425  1
  O  O3  1  0.02991903  0.19937771  0.13849565  1
  O  O4  1  0.52991903  0.80062229  0.36150435  1
  O  O5  1  0.97008097  0.80062229  0.86150435  1
  O  O6  1  0.47008097  0.19937771  0.63849565  1
  O  O7  1  0.66541934  0.13473567  0.02196647  1
  O  O8  1  0.16541934  0.86526433  0.47803353  1
  O  O9  1  0.33458066  0.86526433  0.97803353  1
  O  O10  1  0.83458066  0.13473567  0.52196647  1
  O  O11  1  0.49903535  0.27612579  0.33973133  1
  O  O12  1  0.74345374  0.42131756  0.46604425  1
  O  O13  1  0.99903535  0.72387421  0.16026867  1
  O  O14  1  0.50096465  0.72387421  0.66026867  1
  O  O15  1  0.24345374  0.57868244  0.03395575  1
loop_
_geom_bond_atom_site_label_1
_geom_bond_atom_site_label_2
_geom_bond_distance
_geom_bond_site_symmetry_2
K0 O13 2.693207 1_455
K0 O8 2.742579 1_555
K0 O4 2.800839 1_555
K0 O9 2.819870 1_554
K0 O3 2.832202 1_565
K1 O14 2.693207 1_555
K1 O9 2.742579 1_555
K1 O5 2.800839 1_455
K1 O8 2.819870 1_555
K1 O6 2.832202 1_565
K2 O2 2.578521 1_555
K2 O14 2.598239 1_555
K2 O15 2.679621 1_556
K2 O5 2.733530 1_555
K2 O9 3.012432 1_555
K3 O2 2.691944 1_554
K3 O15 2.821238 1_655
K3 O13 2.887035 1_555
K3 O3 2.921914 1_655
K3 O12 2.963570 1_555
K3 O11 3.247392 1_555
K4 O1 2.691944 1_555
K4 O12 2.821238 1_555
K4 O11 2.887035 1_555
K4 O4 2.921914 1_555
K4 O15 2.963570 1_555
K4 O13 3.247392 1_455
K5 O15 2.691944 1_556
K5 O2 2.821238 1_455
K5 O0 2.887035 1_555
K5 O5 2.921914 1_455
K5 O1 2.963570 1_555
K5 O14 3.247392 1_555
K6 O12 2.691944 1_555
K6 O1 2.821238 1_555
K6 O14 2.887035 1_555
K6 O6 2.921914 1_555
K6 O2 2.963570 1_555
K6 O0 3.247392 1_655
K7 O10 2.578327 1_455
K7 O11 2.579424 1_555
K7 O3 2.615968 1_555
K7 O8 2.619500 1_545
K8 O9 2.578327 1_554
K8 O13 2.579424 1_555
K8 O4 2.615968 1_555
K8 O7 2.619500 1_565
K9 O8 2.578327 1_655
K9 O14 2.579424 1_555
K9 O5 2.615968 1_555
K9 O10 2.619500 1_565
K10 O7 2.578327 1_556
K10 O0 2.579424 1_555
K10 O6 2.615968 1_555
K10 O9 2.619500 1_545
K11 O12 2.578521 1_555
K11 O13 2.598239 1_555
K11 O1 2.679621 1_655
K11 O4 2.733530 1_555
K11 O8 3.012432 1_655
K12 O15 2.578521 1_555
K12 O11 2.598239 1_555
K12 O2 2.679621 1_554
K12 O3 2.733530 1_555
K12 O7 3.012432 1_555
K13 O1 2.578521 1_555
K13 O0 2.598239 1_555
K13 O12 2.679621 1_455
K13 O6 2.733530 1_555
K13 O10 3.012432 1_455
K14 O11 2.693207 1_555
K14 O7 2.742579 1_555
K14 O3 2.800839 1_655
K14 O10 2.819870 1_555
K14 O4 2.832202 1_545
K15 O0 2.693207 1_655
K15 O10 2.742579 1_555
K15 O6 2.800839 1_555
K15 O7 2.819870 1_556
K15 O5 2.832202 1_545
Ge0 O12 1.773720 1_555
Ge0 O11 1.775155 1_555
Ge0 O10 1.785327 1_555
Ge0 O6 1.786779 1_555
Ge1 O1 1.773720 1_555
Ge1 O14 1.775155 1_555
Ge1 O8 1.785327 1_555
Ge1 O4 1.786779 1_555
Ge2 O2 1.773720 1_555
Ge2 O0 1.775155 1_655
Ge2 O7 1.785327 1_556
Ge2 O3 1.786779 1_656
Ge3 O15 1.773720 1_555
Ge3 O13 1.775155 1_455
Ge3 O9 1.785327 1_554
Ge3 O5 1.786779 1_454
