# generated using pymatgen
data_CsTbMnSe3
_symmetry_space_group_name_H-M   'P 1'
_cell_length_a   8.38226082
_cell_length_b   8.38226082
_cell_length_c   11.10739700
_cell_angle_alpha   90.00000000
_cell_angle_beta   90.00000000
_cell_angle_gamma   150.51631238
_symmetry_Int_Tables_number   1
_chemical_formula_structural   CsTbMnSe3
_chemical_formula_sum   'Cs2 Tb2 Mn2 Se6'
_cell_volume   384.10931787
_cell_formula_units_Z   2
loop_
 _symmetry_equiv_pos_site_id
 _symmetry_equiv_pos_as_xyz
  1  'x, y, z'
loop_
 _atom_site_type_symbol
 _atom_site_label
 _atom_site_symmetry_multiplicity
 _atom_site_fract_x
 _atom_site_fract_y
 _atom_site_fract_z
 _atom_site_occupancy
  Cs  Cs0  1  0.25716400  0.74283600  0.25000000  1
  Cs  Cs1  1  0.74283600  0.25716400  0.75000000  1
  Tb  Tb0  1  0.00000000  0.00000000  0.00000000  1
  Tb  Tb1  1  0.00000000  0.00000000  0.50000000  1
  Mn  Mn0  1  0.53823300  0.46176700  0.25000000  1
  Mn  Mn1  1  0.46176700  0.53823300  0.75000000  1
  Se  Se0  1  0.61653500  0.38346500  0.05844400  1
  Se  Se1  1  0.38346500  0.61653500  0.94155600  1
  Se  Se2  1  0.38346500  0.61653500  0.55844400  1
  Se  Se3  1  0.61653500  0.38346500  0.44155600  1
  Se  Se4  1  0.94584500  0.05415500  0.25000000  1
  Se  Se5  1  0.05415500  0.94584500  0.75000000  1
loop_
_geom_bond_atom_site_label_1
_geom_bond_atom_site_label_2
_geom_bond_distance
_geom_bond_site_symmetry_2
Cs0 Se4 3.729243 1_565
Cs0 Se4 3.729243 1_455
Cs0 Se3 3.778222 1_565
Cs0 Se3 3.778222 1_455
Cs0 Se0 3.778222 1_565
Cs0 Se0 3.778222 1_455
Cs0 Se2 3.991306 1_555
Cs0 Se1 3.991306 1_554
Cs1 Se5 3.729243 1_655
Cs1 Se5 3.729243 1_545
Cs1 Se1 3.778222 1_655
Cs1 Se1 3.778222 1_545
Cs1 Se2 3.778222 1_655
Cs1 Se2 3.778222 1_545
Cs1 Se0 3.991306 1_556
Cs1 Se3 3.991306 1_555
Mn0 Se3 2.477630 1_555
Mn0 Se0 2.477630 1_555
Mn0 Se4 2.606377 1_565
Mn0 Se4 2.606377 1_455
Mn1 Se1 2.477630 1_555
Mn1 Se2 2.477630 1_555
Mn1 Se5 2.606377 1_655
Mn1 Se5 2.606377 1_545
Se0 Tb0 2.922440 1_555
Se0 Tb0 2.922440 1_665
Se1 Tb0 2.922440 1_556
Se1 Tb0 2.922440 1_666
Se2 Tb1 2.922440 1_555
Se2 Tb1 2.922440 1_665
Se3 Tb1 2.922440 1_555
Se3 Tb1 2.922440 1_665
Se4 Tb0 2.912348 1_655
Se4 Tb1 2.912348 1_655
Se5 Tb1 2.912348 1_565
Se5 Tb0 2.912348 1_566
