# generated using pymatgen
data_Na3Pm
_symmetry_space_group_name_H-M   'P 1'
_cell_length_a   7.43119282
_cell_length_b   7.43119282
_cell_length_c   5.79410400
_cell_angle_alpha   90.00000000
_cell_angle_beta   90.00000000
_cell_angle_gamma   120.00000731
_symmetry_Int_Tables_number   1
_chemical_formula_structural   Na3Pm
_chemical_formula_sum   'Na6 Pm2'
_cell_volume   277.09835432
_cell_formula_units_Z   2
loop_
 _symmetry_equiv_pos_site_id
 _symmetry_equiv_pos_as_xyz
  1  'x, y, z'
loop_
 _atom_site_type_symbol
 _atom_site_label
 _atom_site_symmetry_multiplicity
 _atom_site_fract_x
 _atom_site_fract_y
 _atom_site_fract_z
 _atom_site_occupancy
  Na  Na0  1  0.67548800  0.83774400  0.25000000  1
  Na  Na1  1  0.16225600  0.32451200  0.25000000  1
  Na  Na2  1  0.83774400  0.16225600  0.75000000  1
  Na  Na3  1  0.32451200  0.16225600  0.75000000  1
  Na  Na4  1  0.83774400  0.67548800  0.75000000  1
  Na  Na5  1  0.16225600  0.83774400  0.25000000  1
  Pm  Pm0  1  0.66666700  0.33333300  0.25000000  1
  Pm  Pm1  1  0.33333300  0.66666700  0.75000000  1
loop_
_geom_bond_atom_site_label_1
_geom_bond_atom_site_label_2
_geom_bond_distance
_geom_bond_site_symmetry_2
Na0 Na2 3.571337 1_565
Na0 Na2 3.571337 1_564
Na0 Na4 3.571337 1_554
Na0 Na4 3.571337 1_555
Na0 Na1 3.617266 1_665
Na0 Na5 3.617267 1_655
Na0 Pm1 3.638900 1_555
Na0 Pm1 3.638900 1_554
Na0 Pm0 3.716026 1_565
Na0 Pm0 3.716034 1_555
Na0 Na1 3.813926 1_555
Na0 Na5 3.813926 1_555
Na1 Na2 3.571337 1_455
Na1 Na2 3.571337 1_454
Na1 Na3 3.571337 1_554
Na1 Na3 3.571337 1_555
Na1 Na5 3.617267 1_545
Na1 Pm1 3.638900 1_554
Na1 Pm1 3.638900 1_555
Na1 Pm0 3.716026 1_455
Na1 Pm0 3.716034 1_555
Na1 Na5 3.813926 1_555
Na2 Na4 3.617267 1_545
Na2 Na3 3.617267 1_655
Na2 Pm0 3.638897 1_555
Na2 Pm0 3.638897 1_556
Na2 Pm1 3.716030 1_545
Na2 Pm1 3.716030 1_655
Na2 Na3 3.813926 1_555
Na2 Na4 3.813926 1_555
Na3 Na5 3.571337 1_545
Na3 Na5 3.571337 1_546
Na3 Na4 3.617266 1_445
Na3 Pm0 3.638900 1_555
Na3 Pm0 3.638900 1_556
Na3 Pm1 3.716026 1_545
Na3 Pm1 3.716034 1_555
Na3 Na4 3.813926 1_555
Na4 Na5 3.571337 1_656
Na4 Na5 3.571337 1_655
Na4 Pm0 3.638900 1_555
Na4 Pm0 3.638900 1_556
Na4 Pm1 3.716026 1_655
Na4 Pm1 3.716034 1_555
Na5 Pm1 3.638897 1_554
Na5 Pm1 3.638897 1_555
Na5 Pm0 3.716030 1_455
Na5 Pm0 3.716030 1_565
