# generated using pymatgen
data_CrCoO4
_symmetry_space_group_name_H-M   'P 1'
_cell_length_a   4.82277329
_cell_length_b   4.82286789
_cell_length_c   5.86854399
_cell_angle_alpha   90.00068686
_cell_angle_beta   89.99903059
_cell_angle_gamma   111.42049251
_symmetry_Int_Tables_number   1
_chemical_formula_structural   CrCoO4
_chemical_formula_sum   'Cr2 Co2 O8'
_cell_volume   127.07127557
_cell_formula_units_Z   2
loop_
 _symmetry_equiv_pos_site_id
 _symmetry_equiv_pos_as_xyz
  1  'x, y, z'
loop_
 _atom_site_type_symbol
 _atom_site_label
 _atom_site_symmetry_multiplicity
 _atom_site_fract_x
 _atom_site_fract_y
 _atom_site_fract_z
 _atom_site_occupancy
  Cr  Cr0  1  0.35903675  0.64104325  0.74999588  1
  Cr  Cr1  1  0.64095007  0.35900574  0.25001874  1
  Co  Co0  1  0.00000027  -0.00000488  -0.00000990  1
  Co  Co1  1  0.00000071  -0.00000540  0.50000294  1
  O  O0  1  0.23585016  0.76421234  0.52613855  1
  O  O1  1  0.76415815  0.23578683  0.02611769  1
  O  O2  1  0.78524518  0.74658935  0.25001293  1
  O  O3  1  0.25324667  0.21460452  0.25000424  1
  O  O4  1  0.21477317  0.25343926  0.74998240  1
  O  O5  1  0.74670525  0.78536879  0.74998902  1
  O  O6  1  0.23586300  0.76419574  0.97386721  1
  O  O7  1  0.76417162  0.23576648  0.47388132  1
loop_
_geom_bond_atom_site_label_1
_geom_bond_atom_site_label_2
_geom_bond_distance
_geom_bond_site_symmetry_2
Cr0 O6 1.639936 1_555
Cr0 O0 1.639968 1_555
Cr0 O4 1.740286 1_555
Cr0 O5 1.740543 1_555
Cr1 O7 1.640244 1_555
Cr1 O1 1.640316 1_555
Cr1 O2 1.740196 1_555
Cr1 O3 1.740702 1_555
Co0 O1 1.885519 1_455
Co0 O6 1.885629 1_544
Co0 O3 1.947407 1_555
Co0 O5 1.947475 1_444
Co0 O2 1.947987 1_445
Co0 O4 1.948026 1_554
Co1 O7 1.885391 1_455
Co1 O0 1.885520 1_545
Co1 O3 1.947326 1_555
Co1 O5 1.947397 1_445
Co1 O2 1.947845 1_445
Co1 O4 1.947906 1_555
