# generated using pymatgen
data_Dy2MgSe4
_symmetry_space_group_name_H-M   'P 1'
_cell_length_a   7.52063908
_cell_length_b   7.52063908
_cell_length_c   7.52063908
_cell_angle_alpha   110.49567774
_cell_angle_beta   110.49567774
_cell_angle_gamma   107.44118045
_symmetry_Int_Tables_number   1
_chemical_formula_structural   Dy2MgSe4
_chemical_formula_sum   'Dy4 Mg2 Se8'
_cell_volume   327.14106579
_cell_formula_units_Z   2
loop_
 _symmetry_equiv_pos_site_id
 _symmetry_equiv_pos_as_xyz
  1  'x, y, z'
loop_
 _atom_site_type_symbol
 _atom_site_label
 _atom_site_symmetry_multiplicity
 _atom_site_fract_x
 _atom_site_fract_y
 _atom_site_fract_z
 _atom_site_occupancy
  Dy  Dy0  1  0.87500000  0.75655000  0.38155000  1
  Dy  Dy1  1  0.50655000  0.12500000  0.88155000  1
  Dy  Dy2  1  0.37500000  0.49345000  0.61845000  1
  Dy  Dy3  1  0.24345000  0.62500000  0.11845000  1
  Mg  Mg0  1  0.00000000  0.00000000  0.00000000  1
  Mg  Mg1  1  0.75000000  0.25000000  0.50000000  1
  Se  Se0  1  0.50780600  0.37849600  0.26175400  1
  Se  Se1  1  0.75394800  0.49219400  0.87069100  1
  Se  Se2  1  0.11674300  0.24605200  0.73824600  1
  Se  Se3  1  0.62150400  0.88325700  0.12930900  1
  Se  Se4  1  0.24219400  0.00394800  0.37069100  1
  Se  Se5  1  0.99605200  0.36674300  0.23824600  1
  Se  Se6  1  0.63325700  0.87150400  0.62930900  1
  Se  Se7  1  0.12849600  0.75780600  0.76175400  1
loop_
_geom_bond_atom_site_label_1
_geom_bond_atom_site_label_2
_geom_bond_distance
_geom_bond_site_symmetry_2
Dy0 Se3 2.821983 1_555
Dy0 Se7 2.821985 1_655
Dy0 Se4 2.877296 1_665
Dy0 Se0 2.877300 1_555
Dy0 Se2 3.116255 1_665
Dy0 Se6 3.116257 1_555
Dy0 Se1 3.264818 1_554
Dy0 Se5 3.264818 1_555
Dy1 Se6 2.821983 1_545
Dy1 Se0 2.821985 1_556
Dy1 Se1 2.877296 1_555
Dy1 Se7 2.877300 1_545
Dy1 Se5 3.116255 1_556
Dy1 Se3 3.116257 1_546
Dy1 Se4 3.264818 1_555
Dy1 Se2 3.264818 1_555
Dy2 Se1 2.821988 1_555
Dy2 Se5 2.821988 1_455
Dy2 Se2 2.877296 1_555
Dy2 Se6 2.877301 1_555
Dy2 Se4 3.116255 1_555
Dy2 Se0 3.116256 1_555
Dy2 Se3 3.264817 1_556
Dy2 Se7 3.264825 1_555
Dy3 Se4 2.821988 1_565
Dy3 Se2 2.821988 1_554
Dy3 Se5 2.877296 1_455
Dy3 Se3 2.877301 1_555
Dy3 Se1 3.116255 1_454
Dy3 Se7 3.116256 1_554
Dy3 Se6 3.264817 1_555
Dy3 Se0 3.264825 1_555
Mg0 Se7 2.728415 1_544
Mg0 Se5 2.728421 1_455
Mg0 Se4 2.728421 1_555
Mg0 Se6 2.728423 1_444
Mg0 Se3 3.295085 1_445
Mg0 Se0 3.295090 1_555
Mg0 Se1 3.295092 1_444
Mg0 Se2 3.295092 1_554
Mg1 Se0 2.728415 1_555
Mg1 Se1 2.728421 1_555
Mg1 Se2 2.728421 1_655
Mg1 Se3 2.728423 1_545
Mg1 Se6 3.295085 1_545
Mg1 Se7 3.295090 1_655
Mg1 Se4 3.295092 1_555
Mg1 Se5 3.295092 1_555
