# generated using pymatgen
data_RbH3CN2O
_symmetry_space_group_name_H-M   'P 1'
_cell_length_a   7.35918200
_cell_length_b   7.62961300
_cell_length_c   14.28016500
_cell_angle_alpha   90.00000000
_cell_angle_beta   90.00000000
_cell_angle_gamma   90.00000000
_symmetry_Int_Tables_number   1
_chemical_formula_structural   RbH3CN2O
_chemical_formula_sum   'Rb8 H24 C8 N16 O8'
_cell_volume   801.79857255
_cell_formula_units_Z   8
loop_
 _symmetry_equiv_pos_site_id
 _symmetry_equiv_pos_as_xyz
  1  'x, y, z'
loop_
 _atom_site_type_symbol
 _atom_site_label
 _atom_site_symmetry_multiplicity
 _atom_site_fract_x
 _atom_site_fract_y
 _atom_site_fract_z
 _atom_site_occupancy
  Rb  Rb0  1  0.39510100  0.95750700  0.18948300  1
  Rb  Rb1  1  0.89510100  0.54249300  0.81051700  1
  Rb  Rb2  1  0.60489900  0.45750700  0.31051700  1
  Rb  Rb3  1  0.10489900  0.04249300  0.68948300  1
  Rb  Rb4  1  0.60489900  0.04249300  0.81051700  1
  Rb  Rb5  1  0.10489900  0.45750700  0.18948300  1
  Rb  Rb6  1  0.39510100  0.54249300  0.68948300  1
  Rb  Rb7  1  0.89510100  0.95750700  0.31051700  1
  H  H0  1  0.88940200  0.91036000  0.96245900  1
  H  H1  1  0.38940200  0.58964000  0.03754100  1
  H  H2  1  0.11059800  0.41036000  0.53754100  1
  H  H3  1  0.61059800  0.08964000  0.46245900  1
  H  H4  1  0.11059800  0.08964000  0.03754100  1
  H  H5  1  0.61059800  0.41036000  0.96245900  1
  H  H6  1  0.88940200  0.58964000  0.46245900  1
  H  H7  1  0.38940200  0.91036000  0.53754100  1
  H  H8  1  0.71498000  0.75983300  0.97744900  1
  H  H9  1  0.21498000  0.74016700  0.02255100  1
  H  H10  1  0.28502000  0.25983300  0.52255100  1
  H  H11  1  0.78502000  0.24016700  0.47744900  1
  H  H12  1  0.28502000  0.24016700  0.02255100  1
  H  H13  1  0.78502000  0.25983300  0.97744900  1
  H  H14  1  0.71498000  0.74016700  0.47744900  1
  H  H15  1  0.21498000  0.75983300  0.52255100  1
  H  H16  1  0.67112400  0.64693900  0.11963500  1
  H  H17  1  0.17112400  0.85306100  0.88036500  1
  H  H18  1  0.32887600  0.14693900  0.38036500  1
  H  H19  1  0.82887600  0.35306100  0.61963500  1
  H  H20  1  0.32887600  0.35306100  0.88036500  1
  H  H21  1  0.82887600  0.14693900  0.11963500  1
  H  H22  1  0.67112400  0.85306100  0.61963500  1
  H  H23  1  0.17112400  0.64693900  0.38036500  1
  C  C0  1  0.88092200  0.79408400  0.09306300  1
  C  C1  1  0.38092200  0.70591600  0.90693700  1
  C  C2  1  0.11907800  0.29408400  0.40693700  1
  C  C3  1  0.61907800  0.20591600  0.59306300  1
  C  C4  1  0.11907800  0.20591600  0.90693700  1
  C  C5  1  0.61907800  0.29408400  0.09306300  1
  C  C6  1  0.88092200  0.70591600  0.59306300  1
  C  C7  1  0.38092200  0.79408400  0.40693700  1
  N  N0  1  0.84008800  0.80252500  0.99751000  1
  N  N1  1  0.34008800  0.69747500  0.00249000  1
  N  N2  1  0.15991200  0.30252500  0.50249000  1
  N  N3  1  0.65991200  0.19747500  0.49751000  1
  N  N4  1  0.15991200  0.19747500  0.00249000  1
  N  N5  1  0.65991200  0.30252500  0.99751000  1
  N  N6  1  0.84008800  0.69747500  0.49751000  1
  N  N7  1  0.34008800  0.80252500  0.50249000  1
  N  N8  1  0.78031400  0.70240300  0.15315900  1
  N  N9  1  0.28031400  0.79759700  0.84684100  1
  N  N10  1  0.21968600  0.20240300  0.34684100  1
  N  N11  1  0.71968600  0.29759700  0.65315900  1
  N  N12  1  0.21968600  0.29759700  0.84684100  1
  N  N13  1  0.71968600  0.20240300  0.15315900  1
  N  N14  1  0.78031400  0.79759700  0.65315900  1
  N  N15  1  0.28031400  0.70240300  0.34684100  1
  O  O0  1  0.02791100  0.87489800  0.11882100  1
  O  O1  1  0.52791100  0.62510200  0.88117900  1
  O  O2  1  0.97208900  0.37489800  0.38117900  1
  O  O3  1  0.47208900  0.12510200  0.61882100  1
  O  O4  1  0.97208900  0.12510200  0.88117900  1
  O  O5  1  0.47208900  0.37489800  0.11882100  1
  O  O6  1  0.02791100  0.62510200  0.61882100  1
  O  O7  1  0.52791100  0.87489800  0.38117900  1
loop_
_geom_bond_atom_site_label_1
_geom_bond_atom_site_label_2
_geom_bond_distance
_geom_bond_site_symmetry_2
H0 N0 1.029145 1_555
H1 N1 1.029145 1_555
H2 N2 1.029145 1_555
H3 N3 1.029145 1_555
H4 N4 1.029145 1_555
H5 N5 1.029145 1_555
H6 N6 1.029145 1_555
H7 N7 1.029145 1_555
H8 N0 1.017761 1_555
H9 N1 1.017761 1_555
H10 N2 1.017761 1_555
H11 N3 1.017761 1_555
H12 N4 1.017761 1_555
H13 N5 1.017761 1_555
H14 N6 1.017761 1_555
H15 N7 1.017761 1_555
H16 N8 1.026618 1_555
H17 N9 1.026618 1_555
H18 N10 1.026618 1_555
H19 N11 1.026618 1_555
H20 N12 1.026618 1_555
H21 N13 1.026618 1_555
H22 N14 1.026618 1_555
H23 N15 1.026618 1_555
C0 O0 1.298300 1_655
C0 N8 1.331894 1_555
C0 N0 1.398694 1_554
C1 O1 1.298300 1_555
C1 N9 1.331894 1_555
C1 N1 1.398694 1_556
C2 O2 1.298300 1_455
C2 N10 1.331894 1_555
C2 N2 1.398694 1_555
C3 O3 1.298300 1_555
C3 N11 1.331894 1_555
C3 N3 1.398694 1_555
C4 O4 1.298300 1_455
C4 N12 1.331894 1_555
C4 N4 1.398694 1_556
C5 O5 1.298300 1_555
C5 N13 1.331894 1_555
C5 N5 1.398694 1_554
C6 O6 1.298300 1_655
C6 N14 1.331894 1_555
C6 N6 1.398694 1_555
C7 O7 1.298300 1_555
C7 N15 1.331894 1_555
C7 N7 1.398694 1_555
N8 Rb5 3.076687 1_655
N8 Rb7 3.090516 1_555
N9 Rb4 3.076687 1_565
N9 Rb6 3.090516 1_555
N10 Rb7 3.076687 1_445
N10 Rb5 3.090516 1_555
N11 Rb6 3.076687 1_555
N11 Rb4 3.090516 1_555
N12 Rb1 3.076687 1_455
N12 Rb3 3.090516 1_555
N13 Rb0 3.076687 1_545
N13 Rb2 3.090516 1_555
N14 Rb3 3.076687 1_665
N14 Rb1 3.090516 1_555
N15 Rb2 3.076687 1_555
N15 Rb0 3.090516 1_555
O0 Rb0 2.952531 1_555
O0 Rb7 2.974246 1_455
O1 Rb1 2.952531 1_555
O1 Rb6 2.974246 1_555
O2 Rb2 2.952531 1_555
O2 Rb5 2.974246 1_655
O3 Rb3 2.952531 1_555
O3 Rb4 2.974246 1_555
O4 Rb4 2.952531 1_555
O4 Rb3 2.974246 1_655
O5 Rb5 2.952531 1_555
O5 Rb2 2.974246 1_555
O6 Rb6 2.952531 1_555
O6 Rb1 2.974246 1_455
O7 Rb7 2.952531 1_555
O7 Rb0 2.974246 1_555
