# generated using pymatgen
data_Nd4Si2Se3O7
_symmetry_space_group_name_H-M   'P 1'
_cell_length_a   11.27998012
_cell_length_b   11.27998012
_cell_length_c   11.27998012
_cell_angle_alpha   114.55158504
_cell_angle_beta   114.55158504
_cell_angle_gamma   99.72824749
_symmetry_Int_Tables_number   1
_chemical_formula_structural   Nd4Si2Se3O7
_chemical_formula_sum   'Nd16 Si8 Se12 O28'
_cell_volume   1081.48950323
_cell_formula_units_Z   4
loop_
 _symmetry_equiv_pos_site_id
 _symmetry_equiv_pos_as_xyz
  1  'x, y, z'
loop_
 _atom_site_type_symbol
 _atom_site_label
 _atom_site_symmetry_multiplicity
 _atom_site_fract_x
 _atom_site_fract_y
 _atom_site_fract_z
 _atom_site_occupancy
  Nd  Nd0  1  0.32751700  0.67248300  0.00000000  1
  Nd  Nd1  1  0.67248300  0.32751700  0.00000000  1
  Nd  Nd2  1  0.42248300  0.92248300  0.84496700  1
  Nd  Nd3  1  0.07751700  0.57751700  0.15503300  1
  Nd  Nd4  1  0.32751700  0.32751700  0.65503300  1
  Nd  Nd5  1  0.07751700  0.92248300  0.50000000  1
  Nd  Nd6  1  0.42248300  0.57751700  0.50000000  1
  Nd  Nd7  1  0.67248300  0.67248300  0.34496700  1
  Nd  Nd8  1  0.04124000  0.80170300  0.76046300  1
  Nd  Nd9  1  0.04124000  0.28077700  0.23953700  1
  Nd  Nd10  1  0.19829700  0.95876000  0.23953700  1
  Nd  Nd11  1  0.03077700  0.29124000  0.73953700  1
  Nd  Nd12  1  0.55170300  0.29124000  0.26046300  1
  Nd  Nd13  1  0.70876000  0.96922300  0.26046300  1
  Nd  Nd14  1  0.70876000  0.44829700  0.73953700  1
  Nd  Nd15  1  0.71922300  0.95876000  0.76046300  1
  Si  Si0  1  0.28140700  0.40536400  0.12395700  1
  Si  Si1  1  0.28140700  0.15744900  0.87604300  1
  Si  Si2  1  0.59463600  0.71859300  0.87604300  1
  Si  Si3  1  0.90744900  0.53140700  0.37604300  1
  Si  Si4  1  0.15536400  0.53140700  0.62395700  1
  Si  Si5  1  0.46859300  0.09255100  0.62395700  1
  Si  Si6  1  0.46859300  0.84463600  0.37604300  1
  Si  Si7  1  0.84255100  0.71859300  0.12395700  1
  Se  Se0  1  0.50000000  0.50000000  0.00000000  1
  Se  Se1  1  0.25000000  0.75000000  0.50000000  1
  Se  Se2  1  0.75000000  0.25000000  0.50000000  1
  Se  Se3  1  0.00000000  0.00000000  0.00000000  1
  Se  Se4  1  0.87500000  0.97900900  0.60400900  1
  Se  Se5  1  0.72900900  0.62500000  0.60400900  1
  Se  Se6  1  0.02099100  0.12500000  0.39599100  1
  Se  Se7  1  0.37500000  0.27099100  0.39599100  1
  Se  Se8  1  0.87500000  0.27099100  0.89599100  1
  Se  Se9  1  0.02099100  0.62500000  0.89599100  1
  Se  Se10  1  0.72900900  0.12500000  0.10400900  1
  Se  Se11  1  0.37500000  0.97900900  0.10400900  1
  O  O0  1  0.76528200  0.76528200  0.00000000  1
  O  O1  1  0.51528200  0.01528200  0.50000000  1
  O  O2  1  0.98471800  0.48471800  0.50000000  1
  O  O3  1  0.23471800  0.23471800  0.00000000  1
  O  O4  1  0.20556700  0.97933800  0.77377100  1
  O  O5  1  0.20556700  0.43179600  0.22622900  1
  O  O6  1  0.02066200  0.79443300  0.22622900  1
  O  O7  1  0.18179600  0.45556700  0.72622900  1
  O  O8  1  0.72933800  0.45556700  0.27377100  1
  O  O9  1  0.54443300  0.81820400  0.27377100  1
  O  O10  1  0.54443300  0.27066200  0.72622900  1
  O  O11  1  0.56820400  0.79443300  0.77377100  1
  O  O12  1  0.29766700  0.05672300  0.52212700  1
  O  O13  1  0.53459600  0.77554000  0.47787300  1
  O  O14  1  0.94327700  0.70233300  0.47787300  1
  O  O15  1  0.52554000  0.54766700  0.74094400  1
  O  O16  1  0.52554000  0.78459600  0.97787300  1
  O  O17  1  0.22446000  0.46540400  0.52212700  1
  O  O18  1  0.29766700  0.77554000  0.24094400  1
  O  O19  1  0.94327700  0.46540400  0.24094400  1
  O  O20  1  0.22446000  0.70233300  0.75905600  1
  O  O21  1  0.80672300  0.54766700  0.02212700  1
  O  O22  1  0.21540400  0.47446000  0.02212700  1
  O  O23  1  0.45233300  0.19327700  0.97787300  1
  O  O24  1  0.80672300  0.78459600  0.25905600  1
  O  O25  1  0.45233300  0.47446000  0.25905600  1
  O  O26  1  0.21540400  0.19327700  0.74094400  1
  O  O27  1  0.53459600  0.05672300  0.75905600  1
loop_
_geom_bond_atom_site_label_1
_geom_bond_atom_site_label_2
_geom_bond_distance
_geom_bond_site_symmetry_2
Nd0 O7 2.523583 1_554
Nd0 O9 2.523583 1_555
Nd0 O22 2.534158 1_555
Nd0 O16 2.534158 1_554
Nd0 O18 2.668070 1_555
Nd0 O20 2.668070 1_554
Nd0 Se0 2.974900 1_555
Nd0 Se9 3.016493 1_554
Nd0 Se11 3.016493 1_555
Nd1 O10 2.523583 1_554
Nd1 O8 2.523583 1_555
Nd1 O23 2.534158 1_554
Nd1 O21 2.534158 1_555
Nd1 O19 2.668070 1_555
Nd1 O27 2.668070 1_554
Nd1 Se0 2.974900 1_555
Nd1 Se10 3.016493 1_555
Nd1 Se8 3.016493 1_554
Nd2 O4 2.523583 1_555
Nd2 O11 2.523587 1_555
Nd2 O20 2.534153 1_555
Nd2 O27 2.534167 1_565
Nd2 O16 2.668063 1_555
Nd2 O23 2.668070 1_565
Nd2 Se1 2.974908 1_555
Nd2 Se11 3.016482 1_556
Nd2 Se10 3.016491 1_566
Nd3 O6 2.523583 1_555
Nd3 O5 2.523587 1_555
Nd3 O18 2.534153 1_555
Nd3 O19 2.534167 1_455
Nd3 O22 2.668063 1_555
Nd3 O21 2.668070 1_455
Nd3 Se1 2.974908 1_555
Nd3 Se9 3.016482 1_554
Nd3 Se8 3.016491 1_454
Nd4 O10 2.523583 1_555
Nd4 O7 2.523587 1_555
Nd4 O15 2.534153 1_555
Nd4 O26 2.534167 1_555
Nd4 O17 2.668063 1_555
Nd4 O12 2.668070 1_555
Nd4 Se0 2.974908 1_556
Nd4 Se7 3.016482 1_555
Nd4 Se6 3.016491 1_555
Nd5 O4 2.523583 1_555
Nd5 O6 2.523583 1_555
Nd5 O12 2.534158 1_565
Nd5 O14 2.534158 1_455
Nd5 O24 2.668070 1_455
Nd5 O26 2.668070 1_565
Nd5 Se1 2.974900 1_555
Nd5 Se4 3.016493 1_455
Nd5 Se6 3.016493 1_565
Nd6 O11 2.523583 1_555
Nd6 O5 2.523583 1_555
Nd6 O17 2.534158 1_555
Nd6 O13 2.534158 1_555
Nd6 O15 2.668070 1_555
Nd6 O25 2.668070 1_555
Nd6 Se1 2.974900 1_555
Nd6 Se7 3.016493 1_555
Nd6 Se5 3.016493 1_555
Nd7 O8 2.523583 1_555
Nd7 O9 2.523587 1_555
Nd7 O25 2.534153 1_555
Nd7 O24 2.534167 1_555
Nd7 O13 2.668063 1_555
Nd7 O14 2.668070 1_555
Nd7 Se0 2.974908 1_555
Nd7 Se5 3.016482 1_555
Nd7 Se4 3.016491 1_555
Nd8 O4 2.395182 1_555
Nd8 O20 2.514624 1_555
Nd8 O14 2.514624 1_455
Nd8 Se3 2.982273 1_566
Nd8 Se9 3.005109 1_555
Nd8 Se5 3.005109 1_455
Nd8 Se11 3.475826 1_556
Nd8 Se4 3.475826 1_455
Nd9 O5 2.395182 1_555
Nd9 O17 2.514624 1_555
Nd9 O19 2.514624 1_455
Nd9 Se3 2.982273 1_555
Nd9 Se10 3.005109 1_455
Nd9 Se6 3.005109 1_555
Nd9 Se7 3.475826 1_555
Nd9 Se8 3.475826 1_454
Nd10 O6 2.395182 1_555
Nd10 O18 2.514624 1_555
Nd10 O12 2.514624 1_565
Nd10 Se3 2.982273 1_565
Nd10 Se7 3.005109 1_565
Nd10 Se11 3.005109 1_555
Nd10 Se6 3.475826 1_565
Nd10 Se9 3.475826 1_554
Nd11 O7 2.395182 1_555
Nd11 O22 2.514624 1_556
Nd11 O26 2.514624 1_555
Nd11 Se2 2.982273 1_455
Nd11 Se8 3.005109 1_455
Nd11 Se4 3.005109 1_445
Nd11 Se9 3.475826 1_555
Nd11 Se6 3.475826 1_555
Nd12 O8 2.395182 1_555
Nd12 O25 2.514624 1_555
Nd12 O23 2.514624 1_554
Nd12 Se2 2.982273 1_555
Nd12 Se7 3.005109 1_555
Nd12 Se11 3.005109 1_545
Nd12 Se5 3.475826 1_555
Nd12 Se10 3.475826 1_555
Nd13 O9 2.395182 1_555
Nd13 O24 2.514624 1_555
Nd13 O16 2.514624 1_554
Nd13 Se2 2.982273 1_565
Nd13 Se6 3.005109 1_665
Nd13 Se10 3.005109 1_565
Nd13 Se11 3.475826 1_555
Nd13 Se4 3.475826 1_555
Nd14 O10 2.395182 1_555
Nd14 O21 2.514624 1_556
Nd14 O15 2.514624 1_555
Nd14 Se2 2.982273 1_555
Nd14 Se9 3.005109 1_655
Nd14 Se5 3.005109 1_555
Nd14 Se8 3.475826 1_555
Nd14 Se7 3.475826 1_555
Nd15 O11 2.395182 1_555
Nd15 O27 2.514624 1_565
Nd15 O13 2.514624 1_555
Nd15 Se3 2.982273 1_666
Nd15 Se4 3.005109 1_555
Nd15 Se8 3.005109 1_565
Nd15 Se10 3.475826 1_566
Nd15 Se5 3.475826 1_555
O0 Si2 1.657226 1_554
O0 Si7 1.657229 1_555
O1 Si6 1.657226 1_545
O1 Si5 1.657229 1_555
O2 Si4 1.657226 1_655
O2 Si3 1.657229 1_555
O3 Si0 1.657226 1_555
O3 Si1 1.657229 1_554
O4 Si1 1.664947 1_565
O5 Si0 1.664957 1_555
O6 Si7 1.664947 1_455
O7 Si4 1.664957 1_555
O8 Si3 1.664947 1_555
O9 Si6 1.664957 1_555
O10 Si5 1.664947 1_555
O11 Si2 1.664957 1_555
O12 Si5 1.646371 1_555
O13 Si6 1.646374 1_555
O14 Si3 1.646371 1_555
O15 Si2 1.646374 1_555
O16 Si2 1.646374 1_555
O17 Si4 1.646374 1_555
O18 Si6 1.646374 1_555
O19 Si3 1.646382 1_555
O20 Si4 1.646374 1_555
O21 Si7 1.646371 1_555
O22 Si0 1.646374 1_555
O23 Si1 1.646371 1_555
O24 Si7 1.646382 1_555
O25 Si0 1.646374 1_555
O26 Si1 1.646382 1_555
O27 Si5 1.646382 1_555
