# generated using pymatgen
data_Cs3SbO4
_symmetry_space_group_name_H-M   'P 1'
_cell_length_a   6.85509030
_cell_length_b   9.23770517
_cell_length_c   12.92820591
_cell_angle_alpha   90.00000000
_cell_angle_beta   90.00000000
_cell_angle_gamma   90.00000000
_symmetry_Int_Tables_number   1
_chemical_formula_structural   Cs3SbO4
_chemical_formula_sum   'Cs12 Sb4 O16'
_cell_volume   818.68255786
_cell_formula_units_Z   4
loop_
 _symmetry_equiv_pos_site_id
 _symmetry_equiv_pos_as_xyz
  1  'x, y, z'
loop_
 _atom_site_type_symbol
 _atom_site_label
 _atom_site_symmetry_multiplicity
 _atom_site_fract_x
 _atom_site_fract_y
 _atom_site_fract_z
 _atom_site_occupancy
  Cs  Cs0  1  0.70207427  0.00651545  0.14645310  1
  Cs  Cs1  1  0.79792573  0.49348455  0.64645310  1
  Cs  Cs2  1  0.29792573  0.50651545  0.85354690  1
  Cs  Cs3  1  0.20207427  0.99348455  0.35354690  1
  Cs  Cs4  1  0.29792573  0.99348455  0.85354690  1
  Cs  Cs5  1  0.20207427  0.50651545  0.35354690  1
  Cs  Cs6  1  0.70207427  0.49348455  0.14645310  1
  Cs  Cs7  1  0.79792573  0.00651545  0.64645310  1
  Cs  Cs8  1  0.14989185  0.25000000  0.07605297  1
  Cs  Cs9  1  0.35010815  0.25000000  0.57605297  1
  Cs  Cs10  1  0.85010815  0.75000000  0.92394703  1
  Cs  Cs11  1  0.64989185  0.75000000  0.42394703  1
  Sb  Sb0  1  0.27495343  0.75000000  0.11273249  1
  Sb  Sb1  1  0.22504657  0.75000000  0.61273249  1
  Sb  Sb2  1  0.72504657  0.25000000  0.88726751  1
  Sb  Sb3  1  0.77495343  0.25000000  0.38726751  1
  O  O0  1  0.43218371  0.75000000  0.23350966  1
  O  O1  1  0.06781629  0.75000000  0.73350966  1
  O  O2  1  0.56781629  0.25000000  0.76649034  1
  O  O3  1  0.93218371  0.25000000  0.26649034  1
  O  O4  1  0.44361876  0.75000000  0.99623868  1
  O  O5  1  0.05638124  0.75000000  0.49623868  1
  O  O6  1  0.55638124  0.25000000  0.00376132  1
  O  O7  1  0.94361876  0.25000000  0.50376132  1
  O  O8  1  0.11925183  0.58087552  0.11150794  1
  O  O9  1  0.38074817  0.91912448  0.61150794  1
  O  O10  1  0.88074817  0.08087552  0.88849206  1
  O  O11  1  0.61925183  0.41912448  0.38849206  1
  O  O12  1  0.88074817  0.41912448  0.88849206  1
  O  O13  1  0.61925183  0.08087552  0.38849206  1
  O  O14  1  0.11925183  0.91912448  0.11150794  1
  O  O15  1  0.38074817  0.58087552  0.61150794  1
loop_
_geom_bond_atom_site_label_1
_geom_bond_atom_site_label_2
_geom_bond_distance
_geom_bond_site_symmetry_2
Cs0 O14 3.005698 1_645
Cs0 O6 3.075655 1_555
Cs0 O3 3.155253 1_555
Cs0 O0 3.210101 1_545
Cs0 O13 3.253560 1_555
Cs0 O4 3.539138 1_544
Cs0 O10 3.618577 1_554
Cs1 O15 3.005698 1_555
Cs1 O7 3.075655 1_555
Cs1 O2 3.155253 1_555
Cs1 O1 3.210101 1_655
Cs1 O12 3.253560 1_555
Cs1 O5 3.539138 1_655
Cs1 O11 3.618577 1_555
Cs2 O12 3.005698 1_455
Cs2 O4 3.075655 1_555
Cs2 O1 3.155253 1_555
Cs2 O2 3.210101 1_555
Cs2 O15 3.253560 1_555
Cs2 O6 3.539138 1_556
Cs2 O8 3.618577 1_556
Cs3 O13 3.005698 1_565
Cs3 O5 3.075655 1_555
Cs3 O0 3.155253 1_555
Cs3 O3 3.210101 1_465
Cs3 O14 3.253560 1_555
Cs3 O7 3.539138 1_465
Cs3 O9 3.618577 1_555
Cs4 O10 3.005698 1_465
Cs4 O4 3.075655 1_555
Cs4 O1 3.155253 1_555
Cs4 O2 3.210101 1_565
Cs4 O9 3.253560 1_555
Cs4 O6 3.539138 1_566
Cs4 O14 3.618577 1_556
Cs5 O11 3.005698 1_555
Cs5 O5 3.075655 1_555
Cs5 O0 3.155253 1_555
Cs5 O3 3.210101 1_455
Cs5 O8 3.253560 1_555
Cs5 O7 3.539138 1_455
Cs5 O15 3.618577 1_555
Cs6 O8 3.005698 1_655
Cs6 O6 3.075655 1_555
Cs6 O3 3.155253 1_555
Cs6 O0 3.210101 1_555
Cs6 O11 3.253560 1_555
Cs6 O4 3.539138 1_554
Cs6 O12 3.618577 1_554
Cs7 O9 3.005698 1_545
Cs7 O7 3.075655 1_555
Cs7 O2 3.155253 1_555
Cs7 O1 3.210101 1_645
Cs7 O10 3.253560 1_555
Cs7 O5 3.539138 1_645
Cs7 O13 3.618577 1_555
Cs8 O3 2.879027 1_455
Cs8 O6 2.939078 1_555
Cs8 O8 3.097838 1_555
Cs8 O14 3.097838 1_545
Cs8 O12 3.424131 1_454
Cs8 O10 3.424131 1_454
Cs9 O2 2.879027 1_555
Cs9 O7 2.939078 1_455
Cs9 O9 3.097838 1_545
Cs9 O15 3.097838 1_555
Cs9 O11 3.424131 1_555
Cs9 O13 3.424131 1_555
Cs10 O1 2.879027 1_655
Cs10 O4 2.939078 1_555
Cs10 O10 3.097838 1_565
Cs10 O12 3.097838 1_555
Cs10 O14 3.424131 1_656
Cs10 O8 3.424131 1_656
Cs11 O0 2.879027 1_555
Cs11 O5 2.939078 1_655
Cs11 O11 3.097838 1_555
Cs11 O13 3.097838 1_565
Cs11 O15 3.424131 1_555
Cs11 O9 3.424131 1_555
O0 Sb0 1.897309 1_555
O1 Sb1 1.897309 1_555
O2 Sb2 1.897309 1_555
O3 Sb3 1.897309 1_555
O4 Sb0 1.898694 1_556
O5 Sb1 1.898694 1_555
O6 Sb2 1.898694 1_554
O7 Sb3 1.898694 1_555
O8 Sb0 1.892177 1_555
O9 Sb1 1.892177 1_555
O10 Sb2 1.892177 1_555
O11 Sb3 1.892177 1_555
O12 Sb2 1.892177 1_555
O13 Sb3 1.892177 1_555
O14 Sb0 1.892177 1_555
O15 Sb1 1.892177 1_555
