# generated using pymatgen
data_Li4Co2OF7
_symmetry_space_group_name_H-M   'P 1'
_cell_length_a   6.03100606
_cell_length_b   5.99353211
_cell_length_c   5.96392033
_cell_angle_alpha   59.04697971
_cell_angle_beta   120.45327436
_cell_angle_gamma   120.08790868
_symmetry_Int_Tables_number   1
_chemical_formula_structural   Li4Co2OF7
_chemical_formula_sum   'Li4 Co2 O1 F7'
_cell_volume   150.69241519
_cell_formula_units_Z   1
loop_
 _symmetry_equiv_pos_site_id
 _symmetry_equiv_pos_as_xyz
  1  'x, y, z'
loop_
 _atom_site_type_symbol
 _atom_site_label
 _atom_site_symmetry_multiplicity
 _atom_site_fract_x
 _atom_site_fract_y
 _atom_site_fract_z
 _atom_site_occupancy
  Li  Li0  1  0.98666500  0.00043800  0.98091300  1
  Li  Li1  1  0.76429800  0.25128300  0.26735200  1
  Li  Li2  1  0.37327100  0.62296800  0.12449900  1
  Li  Li3  1  0.38114000  0.12363100  0.63298600  1
  Co  Co0  1  0.85658800  0.64798900  0.60363300  1
  Co  Co1  1  0.37998000  0.63293200  0.61502500  1
  O  O0  1  0.63569100  0.84055300  0.40706800  1
  F  F0  1  0.62771300  0.36978200  0.86743000  1
  F  F1  1  0.12485200  0.87253000  0.38825400  1
  F  F2  1  0.11259300  0.41011100  0.84260600  1
  F  F3  1  0.12742100  0.85771700  0.86680400  1
  F  F4  1  0.59522100  0.85568900  0.86610500  1
  F  F5  1  0.15596400  0.38136400  0.39420700  1
  F  F6  1  0.62860400  0.38301400  0.39312000  1
loop_
_geom_bond_atom_site_label_1
_geom_bond_atom_site_label_2
_geom_bond_distance
_geom_bond_site_symmetry_2
Li1 O0 1.996652 1_545
Li2 O0 2.129117 1_555
Co0 O0 1.745828 1_555
Co0 F3 2.020793 1_655
Co0 F6 2.025020 1_555
Co0 F1 2.055223 1_655
Co0 F2 2.081852 1_655
Co0 F0 2.087084 1_555
Co1 O0 1.972847 1_555
Co1 F5 2.007383 1_555
Co1 F4 2.014516 1_555
Co1 F1 2.089747 1_555
Co1 F2 2.102614 1_555
Co1 F0 2.150921 1_555
F0 Li1 1.929815 1_556
F0 Li3 2.038986 1_555
F1 Li0 1.963802 1_464
F1 Li3 2.103510 1_565
F2 Li0 1.991978 1_455
F2 Li2 2.107530 1_556
F3 Li0 1.956524 1_465
F3 Li2 2.024222 1_556
F3 Li3 2.063408 1_565
F4 Li0 1.927119 1_565
F4 Li2 2.029779 1_556
F4 Li3 2.035079 1_565
F5 Li1 1.925783 1_455
F5 Li3 2.034345 1_555
F5 Li2 2.059098 1_555
F6 Li1 1.932605 1_555
F6 Li3 2.059333 1_555
F6 Li2 2.087093 1_555
