# generated using pymatgen
data_Na3CrO4
_symmetry_space_group_name_H-M   'P 1'
_cell_length_a   5.46474728
_cell_length_b   7.10126316
_cell_length_c   12.09697384
_cell_angle_alpha   90.00000000
_cell_angle_beta   90.00000000
_cell_angle_gamma   90.00000000
_symmetry_Int_Tables_number   1
_chemical_formula_structural   Na3CrO4
_chemical_formula_sum   'Na12 Cr4 O16'
_cell_volume   469.44252831
_cell_formula_units_Z   4
loop_
 _symmetry_equiv_pos_site_id
 _symmetry_equiv_pos_as_xyz
  1  'x, y, z'
loop_
 _atom_site_type_symbol
 _atom_site_label
 _atom_site_symmetry_multiplicity
 _atom_site_fract_x
 _atom_site_fract_y
 _atom_site_fract_z
 _atom_site_occupancy
  Na  Na0  1  0.78711816  0.99492605  0.83674781  1
  Na  Na1  1  0.21288184  0.00507395  0.16325219  1
  Na  Na2  1  0.28711816  0.00507395  0.66325219  1
  Na  Na3  1  0.21288184  0.49492605  0.16325219  1
  Na  Na4  1  0.71288184  0.99492605  0.33674781  1
  Na  Na5  1  0.78711816  0.50507395  0.83674781  1
  Na  Na6  1  0.71288184  0.50507395  0.33674781  1
  Na  Na7  1  0.28711816  0.49492605  0.66325219  1
  Na  Na8  1  0.22728391  0.75000000  0.92564222  1
  Na  Na9  1  0.77271609  0.25000000  0.07435778  1
  Na  Na10  1  0.72728391  0.25000000  0.57435778  1
  Na  Na11  1  0.27271609  0.75000000  0.42564222  1
  Cr  Cr0  1  0.79952322  0.75000000  0.59028055  1
  Cr  Cr1  1  0.20047678  0.25000000  0.40971945  1
  Cr  Cr2  1  0.29952322  0.25000000  0.90971945  1
  Cr  Cr3  1  0.70047678  0.75000000  0.09028055  1
  O  O0  1  0.11061659  0.75000000  0.59595412  1
  O  O1  1  0.88938341  0.25000000  0.40404588  1
  O  O2  1  0.61061659  0.25000000  0.90404588  1
  O  O3  1  0.38938341  0.75000000  0.09595412  1
  O  O4  1  0.70428285  0.54800049  0.65423742  1
  O  O5  1  0.29571715  0.45199951  0.34576258  1
  O  O6  1  0.20428285  0.45199951  0.84576258  1
  O  O7  1  0.29571715  0.04800049  0.34576258  1
  O  O8  1  0.79571715  0.54800049  0.15423742  1
  O  O9  1  0.70428285  0.95199951  0.65423742  1
  O  O10  1  0.79571715  0.95199951  0.15423742  1
  O  O11  1  0.20428285  0.04800049  0.84576258  1
  O  O12  1  0.80031394  0.75000000  0.95635994  1
  O  O13  1  0.19968606  0.25000000  0.04364006  1
  O  O14  1  0.30031394  0.25000000  0.54364006  1
  O  O15  1  0.69968606  0.75000000  0.45635994  1
loop_
_geom_bond_atom_site_label_1
_geom_bond_atom_site_label_2
_geom_bond_distance
_geom_bond_site_symmetry_2
Na0 O2 2.207730 1_565
Na0 O12 2.263616 1_555
Na0 O9 2.274274 1_555
Na0 O11 2.313217 1_665
Na1 O3 2.207730 1_545
Na1 O13 2.263616 1_555
Na1 O7 2.274274 1_555
Na1 O10 2.313217 1_445
Na2 O0 2.207730 1_545
Na2 O14 2.263616 1_555
Na2 O11 2.274274 1_555
Na2 O9 2.313217 1_545
Na3 O3 2.207730 1_555
Na3 O13 2.263616 1_555
Na3 O5 2.274274 1_555
Na3 O8 2.313217 1_455
Na4 O1 2.207730 1_565
Na4 O15 2.263616 1_555
Na4 O10 2.274274 1_555
Na4 O7 2.313217 1_565
Na5 O2 2.207730 1_555
Na5 O12 2.263616 1_555
Na5 O4 2.274274 1_555
Na5 O6 2.313217 1_655
Na6 O1 2.207730 1_555
Na6 O15 2.263616 1_555
Na6 O8 2.274274 1_555
Na6 O5 2.313217 1_555
Na7 O0 2.207730 1_555
Na7 O14 2.263616 1_555
Na7 O6 2.274274 1_555
Na7 O4 2.313217 1_555
Na8 O3 2.242625 1_556
Na8 O11 2.329754 1_565
Na8 O6 2.329754 1_555
Na8 O12 2.362687 1_455
Na9 O2 2.242625 1_554
Na9 O10 2.329754 1_545
Na9 O8 2.329754 1_555
Na9 O13 2.362687 1_655
Na10 O1 2.242625 1_555
Na10 O4 2.329754 1_555
Na10 O9 2.329754 1_545
Na10 O14 2.362687 1_555
Na11 O0 2.242625 1_555
Na11 O7 2.329754 1_565
Na11 O5 2.329754 1_555
Na11 O15 2.362687 1_555
Cr0 O0 1.701431 1_655
Cr0 O15 1.709437 1_555
Cr0 O9 1.710884 1_555
Cr0 O4 1.710884 1_555
Cr1 O1 1.701431 1_455
Cr1 O14 1.709437 1_555
Cr1 O7 1.710884 1_555
Cr1 O5 1.710884 1_555
Cr2 O2 1.701431 1_555
Cr2 O13 1.709437 1_556
Cr2 O6 1.710884 1_555
Cr2 O11 1.710884 1_555
Cr3 O3 1.701431 1_555
Cr3 O12 1.709437 1_554
Cr3 O8 1.710884 1_555
Cr3 O10 1.710884 1_555
