# generated using pymatgen
data_TaCdBF10
_symmetry_space_group_name_H-M   'P 1'
_cell_length_a   9.57143800
_cell_length_b   8.45277100
_cell_length_c   9.11592650
_cell_angle_alpha   85.64391755
_cell_angle_beta   90.00000000
_cell_angle_gamma   90.00000000
_symmetry_Int_Tables_number   1
_chemical_formula_structural   TaCdBF10
_chemical_formula_sum   'Ta4 Cd4 B4 F40'
_cell_volume   735.39509921
_cell_formula_units_Z   4
loop_
 _symmetry_equiv_pos_site_id
 _symmetry_equiv_pos_as_xyz
  1  'x, y, z'
loop_
 _atom_site_type_symbol
 _atom_site_label
 _atom_site_symmetry_multiplicity
 _atom_site_fract_x
 _atom_site_fract_y
 _atom_site_fract_z
 _atom_site_occupancy
  Ta  Ta0  1  0.06812500  0.33363900  0.26134900  1
  Ta  Ta1  1  0.56812500  0.66636100  0.23865100  1
  Ta  Ta2  1  0.93187500  0.66636100  0.73865100  1
  Ta  Ta3  1  0.43187500  0.33363900  0.76134900  1
  Cd  Cd0  1  0.47644900  0.17956600  0.21528200  1
  Cd  Cd1  1  0.97644900  0.82043400  0.28471800  1
  Cd  Cd2  1  0.52355100  0.82043400  0.78471800  1
  Cd  Cd3  1  0.02355100  0.17956600  0.71528200  1
  B  B0  1  0.27034100  0.93395300  0.50493200  1
  B  B1  1  0.77034100  0.06604700  0.99506800  1
  B  B2  1  0.72965900  0.06604700  0.49506800  1
  B  B3  1  0.22965900  0.93395300  0.00493200  1
  F  F0  1  0.18712500  0.02405000  0.59653600  1
  F  F1  1  0.68712500  0.97595000  0.90346400  1
  F  F2  1  0.81287500  0.97595000  0.40346400  1
  F  F3  1  0.31287500  0.02405000  0.09653600  1
  F  F4  1  0.36133400  0.83393200  0.59254500  1
  F  F5  1  0.86133400  0.16606800  0.90745500  1
  F  F6  1  0.63866600  0.16606800  0.40745500  1
  F  F7  1  0.13866600  0.83393200  0.09254500  1
  F  F8  1  0.18214000  0.83811600  0.42339000  1
  F  F9  1  0.68214000  0.16188400  0.07661000  1
  F  F10  1  0.81786000  0.16188400  0.57661000  1
  F  F11  1  0.31786000  0.83811600  0.92339000  1
  F  F12  1  0.35054000  0.03659800  0.40931400  1
  F  F13  1  0.85054000  0.96340200  0.09068600  1
  F  F14  1  0.64946000  0.96340200  0.59068600  1
  F  F15  1  0.14946000  0.03659800  0.90931400  1
  F  F16  1  0.07653500  0.35150900  0.05432200  1
  F  F17  1  0.57653500  0.64849100  0.44567800  1
  F  F18  1  0.92346500  0.64849100  0.94567800  1
  F  F19  1  0.42346500  0.35150900  0.55432200  1
  F  F20  1  0.07392300  0.31054500  0.47717500  1
  F  F21  1  0.57392300  0.68945500  0.02282500  1
  F  F22  1  0.92607700  0.68945500  0.52282500  1
  F  F23  1  0.42607700  0.31054500  0.97717500  1
  F  F24  1  0.05893300  0.10428800  0.26681100  1
  F  F25  1  0.55893300  0.89571200  0.23318900  1
  F  F26  1  0.94106700  0.89571200  0.73318900  1
  F  F27  1  0.44106700  0.10428800  0.76681100  1
  F  F28  1  0.07058200  0.56184600  0.27296300  1
  F  F29  1  0.57058200  0.43815400  0.22703700  1
  F  F30  1  0.92941800  0.43815400  0.72703700  1
  F  F31  1  0.42941800  0.56184600  0.77296300  1
  F  F32  1  0.87214000  0.33970400  0.26247100  1
  F  F33  1  0.37214000  0.66029600  0.23752900  1
  F  F34  1  0.12786000  0.66029600  0.73752900  1
  F  F35  1  0.62786000  0.33970400  0.76247100  1
  F  F36  1  0.27354600  0.31905600  0.26034700  1
  F  F37  1  0.77354600  0.68094400  0.23965300  1
  F  F38  1  0.72645400  0.68094400  0.73965300  1
  F  F39  1  0.22645400  0.31905600  0.76034700  1
loop_
_geom_bond_atom_site_label_1
_geom_bond_atom_site_label_2
_geom_bond_distance
_geom_bond_site_symmetry_2
Cd0 F36 2.324697 1_555
Cd0 F6 2.337157 1_555
Cd0 F9 2.350545 1_555
Cd0 F3 2.359484 1_555
Cd0 F29 2.374131 1_555
Cd0 F12 2.390947 1_555
Cd0 F23 2.409253 1_554
Cd0 F25 2.519392 1_545
Cd1 F37 2.324697 1_555
Cd1 F7 2.337157 1_655
Cd1 F8 2.350545 1_655
Cd1 F2 2.359484 1_555
Cd1 F28 2.374131 1_655
Cd1 F13 2.390947 1_555
Cd1 F22 2.409253 1_555
Cd1 F24 2.519392 1_665
Cd2 F38 2.324697 1_555
Cd2 F4 2.337157 1_555
Cd2 F11 2.350545 1_555
Cd2 F1 2.359484 1_555
Cd2 F31 2.374131 1_555
Cd2 F14 2.390947 1_555
Cd2 F21 2.409253 1_556
Cd2 F27 2.519392 1_565
Cd3 F39 2.324697 1_555
Cd3 F5 2.337157 1_455
Cd3 F10 2.350545 1_455
Cd3 F0 2.359484 1_555
Cd3 F30 2.374131 1_455
Cd3 F15 2.390947 1_555
Cd3 F20 2.409253 1_555
Cd3 F26 2.519392 1_445
B0 F12 1.409579 1_565
B0 F0 1.417152 1_565
B0 F4 1.417259 1_555
B0 F8 1.418784 1_555
B1 F13 1.409579 1_546
B1 F1 1.417152 1_545
B1 F5 1.417259 1_555
B1 F9 1.418784 1_556
B2 F14 1.409579 1_545
B2 F2 1.417152 1_545
B2 F6 1.417259 1_555
B2 F10 1.418784 1_555
B3 F15 1.409579 1_564
B3 F3 1.417152 1_565
B3 F7 1.417259 1_555
B3 F11 1.418784 1_554
F16 Ta0 1.883528 1_555
F17 Ta1 1.883528 1_555
F18 Ta2 1.883528 1_555
F19 Ta3 1.883528 1_555
F20 Ta0 1.963089 1_555
F21 Ta1 1.963089 1_555
F22 Ta2 1.963089 1_555
F23 Ta3 1.963089 1_555
F24 Ta0 1.937505 1_555
F25 Ta1 1.937505 1_555
F26 Ta2 1.937505 1_555
F27 Ta3 1.937505 1_555
F28 Ta0 1.940040 1_555
F29 Ta1 1.940040 1_555
F30 Ta2 1.940040 1_555
F31 Ta3 1.940040 1_555
F32 Ta0 1.876608 1_655
F33 Ta1 1.876608 1_555
F34 Ta2 1.876608 1_455
F35 Ta3 1.876608 1_555
F36 Ta0 1.970099 1_555
F37 Ta1 1.970099 1_555
F38 Ta2 1.970099 1_555
F39 Ta3 1.970099 1_555
