# generated using pymatgen
data_Ba2V2CuClO7
_symmetry_space_group_name_H-M   'P 1'
_cell_length_a   9.10073500
_cell_length_b   9.10073500
_cell_length_c   5.51178200
_cell_angle_alpha   90.00000000
_cell_angle_beta   90.00000000
_cell_angle_gamma   90.00000000
_symmetry_Int_Tables_number   1
_chemical_formula_structural   Ba2V2CuClO7
_chemical_formula_sum   'Ba4 V4 Cu2 Cl2 O14'
_cell_volume   456.50440151
_cell_formula_units_Z   2
loop_
 _symmetry_equiv_pos_site_id
 _symmetry_equiv_pos_as_xyz
  1  'x, y, z'
loop_
 _atom_site_type_symbol
 _atom_site_label
 _atom_site_symmetry_multiplicity
 _atom_site_fract_x
 _atom_site_fract_y
 _atom_site_fract_z
 _atom_site_occupancy
  Ba  Ba0  1  0.17743300  0.67743300  0.38548700  1
  Ba  Ba1  1  0.82256700  0.32256700  0.38548700  1
  Ba  Ba2  1  0.67743300  0.82256700  0.38548700  1
  Ba  Ba3  1  0.32256700  0.17743300  0.38548700  1
  V  V0  1  0.63044700  0.13044700  0.92763100  1
  V  V1  1  0.36955300  0.86955300  0.92763100  1
  V  V2  1  0.13044700  0.36955300  0.92763100  1
  V  V3  1  0.86955300  0.63044700  0.92763100  1
  Cu  Cu0  1  0.00000000  0.00000000  0.99183600  1
  Cu  Cu1  1  0.50000000  0.50000000  0.99183600  1
  Cl  Cl0  1  0.00000000  0.00000000  0.53443600  1
  Cl  Cl1  1  0.50000000  0.50000000  0.53443600  1
  O  O0  1  0.00000000  0.50000000  0.07034200  1
  O  O1  1  0.50000000  0.00000000  0.07034200  1
  O  O2  1  0.62546700  0.12546700  0.61155400  1
  O  O3  1  0.37453300  0.87453300  0.61155400  1
  O  O4  1  0.12546700  0.37453300  0.61155400  1
  O  O5  1  0.87453300  0.62546700  0.61155400  1
  O  O6  1  0.08868600  0.20141900  0.04831000  1
  O  O7  1  0.91131400  0.79858100  0.04831000  1
  O  O8  1  0.20141900  0.91131400  0.04831000  1
  O  O9  1  0.41131400  0.70141900  0.04831000  1
  O  O10  1  0.79858100  0.08868600  0.04831000  1
  O  O11  1  0.58868600  0.29858100  0.04831000  1
  O  O12  1  0.29858100  0.41131400  0.04831000  1
  O  O13  1  0.70141900  0.58868600  0.04831000  1
loop_
_geom_bond_atom_site_label_1
_geom_bond_atom_site_label_2
_geom_bond_distance
_geom_bond_site_symmetry_2
Ba0 O3 2.826254 1_555
Ba0 O9 2.834067 1_555
Ba0 O8 2.834067 1_555
Ba0 O0 2.869177 1_555
Ba0 O5 3.061890 1_455
Ba0 O4 3.061890 1_555
Ba0 O7 3.245751 1_455
Ba0 O12 3.245751 1_555
Ba0 Cl0 3.449523 1_565
Ba0 Cl1 3.449523 1_555
Ba1 O2 2.826254 1_555
Ba1 O10 2.834067 1_555
Ba1 O11 2.834067 1_555
Ba1 O0 2.869177 1_655
Ba1 O5 3.061890 1_555
Ba1 O4 3.061890 1_655
Ba1 O13 3.245751 1_555
Ba1 O6 3.245751 1_655
Ba1 Cl1 3.449523 1_555
Ba1 Cl0 3.449523 1_655
Ba2 O5 2.826254 1_555
Ba2 O7 2.834067 1_555
Ba2 O13 2.834067 1_555
Ba2 O1 2.869177 1_565
Ba2 O3 3.061890 1_555
Ba2 O2 3.061890 1_565
Ba2 O9 3.245751 1_555
Ba2 O10 3.245751 1_565
Ba2 Cl1 3.449523 1_555
Ba2 Cl0 3.449523 1_665
Ba3 O4 2.826254 1_555
Ba3 O12 2.834067 1_555
Ba3 O6 2.834067 1_555
Ba3 O1 2.869177 1_555
Ba3 O3 3.061890 1_545
Ba3 O2 3.061890 1_555
Ba3 O8 3.245751 1_545
Ba3 O11 3.245751 1_555
Ba3 Cl0 3.449523 1_555
Ba3 Cl1 3.449523 1_555
Cu0 O8 2.026925 1_546
Cu0 O6 2.026925 1_556
Cu0 O10 2.026925 1_456
Cu0 O7 2.026925 1_446
Cu1 O13 2.026925 1_556
Cu1 O11 2.026925 1_556
Cu1 O12 2.026925 1_556
Cu1 O9 2.026925 1_556
Cl0 Cu0 2.521089 1_555
Cl1 Cu1 2.521089 1_555
O0 V3 1.854034 1_454
O0 V2 1.854034 1_554
O1 V0 1.854034 1_554
O1 V1 1.854034 1_544
O2 V0 1.743326 1_555
O3 V1 1.743326 1_555
O4 V2 1.743326 1_555
O5 V3 1.743326 1_555
O6 V2 1.711202 1_554
O7 V3 1.711202 1_554
O8 V1 1.711202 1_554
O9 V1 1.711202 1_554
O10 V0 1.711202 1_554
O11 V0 1.711202 1_554
O12 V2 1.711202 1_554
O13 V3 1.711202 1_554
