# generated using pymatgen
data_Ca2Nb2CoO8
_symmetry_space_group_name_H-M   'P 1'
_cell_length_a   10.02384303
_cell_length_b   10.02384303
_cell_length_c   5.47682306
_cell_angle_alpha   88.64278150
_cell_angle_beta   88.64278150
_cell_angle_gamma   37.05164606
_symmetry_Int_Tables_number   1
_chemical_formula_structural   Ca2Nb2CoO8
_chemical_formula_sum   'Ca4 Nb4 Co2 O16'
_cell_volume   331.46960975
_cell_formula_units_Z   2
loop_
 _symmetry_equiv_pos_site_id
 _symmetry_equiv_pos_as_xyz
  1  'x, y, z'
loop_
 _atom_site_type_symbol
 _atom_site_label
 _atom_site_symmetry_multiplicity
 _atom_site_fract_x
 _atom_site_fract_y
 _atom_site_fract_z
 _atom_site_occupancy
  Ca  Ca0  1  0.88702500  0.52998400  0.25595000  1
  Ca  Ca1  1  0.47001600  0.11297500  0.24405000  1
  Ca  Ca2  1  0.11297500  0.47001600  0.74405000  1
  Ca  Ca3  1  0.52998400  0.88702500  0.75595000  1
  Nb  Nb0  1  0.04254700  0.73626800  0.25024200  1
  Nb  Nb1  1  0.26373200  0.95745300  0.24975800  1
  Nb  Nb2  1  0.95745300  0.26373200  0.74975800  1
  Nb  Nb3  1  0.73626800  0.04254700  0.75024200  1
  Co  Co0  1  0.64338000  0.35662000  0.25000000  1
  Co  Co1  1  0.35662000  0.64338000  0.75000000  1
  O  O0  1  0.05696300  0.80477000  0.58749400  1
  O  O1  1  0.19523000  0.94303700  0.91250600  1
  O  O2  1  0.94303700  0.19523000  0.41250600  1
  O  O3  1  0.80477000  0.05696300  0.08749400  1
  O  O4  1  0.29909700  0.58748800  0.07903800  1
  O  O5  1  0.41251200  0.70090300  0.42096200  1
  O  O6  1  0.70090300  0.41251200  0.92096200  1
  O  O7  1  0.58748800  0.29909700  0.57903800  1
  O  O8  1  0.87996500  0.75523500  0.00020300  1
  O  O9  1  0.24476500  0.12003500  0.49979700  1
  O  O10  1  0.46734100  0.16510300  0.84353200  1
  O  O11  1  0.83489700  0.53265900  0.65646800  1
  O  O12  1  0.53265900  0.83489700  0.15646800  1
  O  O13  1  0.16510300  0.46734100  0.34353200  1
  O  O14  1  0.75523500  0.87996500  0.50020300  1
  O  O15  1  0.12003500  0.24476500  0.99979700  1
loop_
_geom_bond_atom_site_label_1
_geom_bond_atom_site_label_2
_geom_bond_distance
_geom_bond_site_symmetry_2
Ca0 O12 2.222489 1_555
Ca0 O15 2.230094 1_654
Ca0 O11 2.238662 1_555
Ca0 O13 2.376831 1_655
Ca0 O8 2.581622 1_555
Ca0 O9 2.823964 1_655
Ca0 O14 2.929680 1_555
Ca0 O2 3.031382 1_555
Ca1 O13 2.222489 1_555
Ca1 O14 2.230094 1_545
Ca1 O10 2.238662 1_554
Ca1 O12 2.376831 1_545
Ca1 O9 2.581622 1_555
Ca1 O8 2.823964 1_545
Ca1 O15 2.929680 1_554
Ca1 O3 3.031382 1_555
Ca2 O10 2.222489 1_555
Ca2 O8 2.230094 1_456
Ca2 O13 2.238662 1_555
Ca2 O11 2.376831 1_455
Ca2 O15 2.581622 1_555
Ca2 O14 2.823964 1_455
Ca2 O9 2.929680 1_555
Ca2 O0 3.031382 1_555
Ca3 O11 2.222489 1_555
Ca3 O9 2.230094 1_565
Ca3 O12 2.238662 1_556
Ca3 O10 2.376831 1_565
Ca3 O14 2.581622 1_555
Ca3 O15 2.823964 1_565
Ca3 O8 2.929680 1_556
Ca3 O1 3.031382 1_555
Nb0 O4 1.883320 1_555
Nb0 O13 1.927560 1_555
Nb0 O0 2.033505 1_555
Nb0 O8 2.041124 1_455
Nb0 O3 2.131704 1_465
Nb0 O14 2.351233 1_455
Nb1 O5 1.883320 1_555
Nb1 O12 1.927560 1_555
Nb1 O1 2.033505 1_554
Nb1 O9 2.041124 1_565
Nb1 O2 2.131704 1_465
Nb1 O15 2.351233 1_564
Nb2 O6 1.883320 1_555
Nb2 O11 1.927560 1_555
Nb2 O2 2.033505 1_555
Nb2 O15 2.041124 1_655
Nb2 O1 2.131704 1_645
Nb2 O9 2.351233 1_655
Nb3 O7 1.883320 1_555
Nb3 O10 1.927560 1_555
Nb3 O3 2.033505 1_556
Nb3 O14 2.041124 1_545
Nb3 O0 2.131704 1_645
Nb3 O8 2.351233 1_546
Co0 O7 2.076642 1_555
Co0 O6 2.076642 1_554
Co0 O3 2.175708 1_555
Co0 O2 2.175708 1_555
Co0 O4 2.333361 1_555
Co0 O5 2.333361 1_555
Co1 O4 2.076642 1_556
Co1 O5 2.076642 1_555
Co1 O0 2.175708 1_555
Co1 O1 2.175708 1_555
Co1 O7 2.333361 1_555
Co1 O6 2.333361 1_555
