# generated using pymatgen
data_Mg14ZrFe
_symmetry_space_group_name_H-M   'P 1'
_cell_length_a   6.36383127
_cell_length_b   6.17199988
_cell_length_c   10.07253378
_cell_angle_alpha   90.00000000
_cell_angle_beta   90.00000000
_cell_angle_gamma   119.00776016
_symmetry_Int_Tables_number   1
_chemical_formula_structural   Mg14ZrFe
_chemical_formula_sum   'Mg14 Zr1 Fe1'
_cell_volume   345.99509837
_cell_formula_units_Z   1
loop_
 _symmetry_equiv_pos_site_id
 _symmetry_equiv_pos_as_xyz
  1  'x, y, z'
loop_
 _atom_site_type_symbol
 _atom_site_label
 _atom_site_symmetry_multiplicity
 _atom_site_fract_x
 _atom_site_fract_y
 _atom_site_fract_z
 _atom_site_occupancy
  Mg  Mg0  1  0.16772072  0.33385986  0.62500000  1
  Mg  Mg1  1  0.16387547  0.83193724  0.62500000  1
  Mg  Mg2  1  0.65437602  0.31979313  0.12500000  1
  Mg  Mg3  1  0.66350628  0.33425389  0.62500000  1
  Mg  Mg4  1  0.65437602  0.83458189  0.12500000  1
  Mg  Mg5  1  0.66350628  0.82925139  0.62500000  1
  Mg  Mg6  1  0.33183490  0.16238009  0.36642154  1
  Mg  Mg7  1  0.33183490  0.16238009  0.88357846  1
  Mg  Mg8  1  0.33183490  0.66945581  0.36642154  1
  Mg  Mg9  1  0.33183490  0.66945581  0.88357846  1
  Mg  Mg10  1  0.84041765  0.17020933  0.37781463  1
  Mg  Mg11  1  0.84041765  0.17020933  0.87218537  1
  Mg  Mg12  1  0.85218346  0.67609223  0.35786457  1
  Mg  Mg13  1  0.85218346  0.67609223  0.89213543  1
  Zr  Zr0  1  0.15123068  0.32561484  0.12500000  1
  Fe  Fe0  1  0.16886673  0.83443286  0.12500000  1
loop_
_geom_bond_atom_site_label_1
_geom_bond_atom_site_label_2
_geom_bond_distance
_geom_bond_site_symmetry_2
Mg0 Mg10 3.085009 1_455
Mg0 Mg11 3.085009 1_455
Mg0 Mg1 3.086074 1_545
Mg0 Mg1 3.086074 1_555
Mg0 Mg5 3.153917 1_555
Mg0 Mg3 3.153917 1_555
Mg0 Mg6 3.172788 1_555
Mg0 Mg7 3.172788 1_555
Mg0 Mg8 3.172794 1_555
Mg0 Mg9 3.172794 1_555
Mg0 Mg5 3.209915 1_445
Mg0 Mg3 3.209916 1_455
Mg1 Mg8 3.157747 1_555
Mg1 Mg9 3.157747 1_555
Mg1 Mg6 3.157753 1_565
Mg1 Mg7 3.157753 1_565
Mg1 Mg3 3.176259 1_455
Mg1 Mg5 3.176260 1_455
Mg1 Mg3 3.187638 1_565
Mg1 Mg5 3.187638 1_555
Mg1 Mg12 3.201454 1_455
Mg1 Mg13 3.201454 1_455
Mg2 Mg4 2.994724 1_545
Mg2 Mg7 3.022627 1_554
Mg2 Mg6 3.022627 1_555
Mg2 Zr0 3.144632 1_655
Mg2 Mg4 3.177276 1_555
Mg2 Zr0 3.219510 1_555
Mg3 Mg5 3.055125 1_555
Mg3 Mg5 3.116875 1_545
Mg3 Mg6 3.192561 1_555
Mg3 Mg7 3.192561 1_555
Mg4 Mg9 3.022626 1_554
Mg4 Mg8 3.022626 1_555
Mg4 Zr0 3.144632 1_665
Mg4 Zr0 3.219509 1_555
Mg5 Mg8 3.192561 1_555
Mg5 Mg9 3.192561 1_555
Mg6 Mg8 3.042329 1_545
Mg6 Zr0 3.061425 1_555
Mg6 Mg8 3.129671 1_555
Mg7 Mg9 3.042329 1_545
Mg7 Zr0 3.061425 1_556
Mg7 Mg9 3.129671 1_555
Mg8 Zr0 3.061431 1_555
Mg9 Zr0 3.061431 1_556
Mg10 Zr0 3.078459 1_655
Mg10 Mg12 3.093229 1_555
Mg10 Mg12 3.093229 1_545
Mg10 Mg3 3.097930 1_555
Mg10 Mg5 3.097936 1_545
Mg10 Mg2 3.130294 1_555
Mg10 Mg4 3.130300 1_545
Mg10 Mg8 3.153101 1_655
Mg10 Mg6 3.153102 1_655
Mg10 Mg8 3.215428 1_545
Mg10 Mg6 3.215428 1_555
Mg11 Zr0 3.078459 1_656
Mg11 Mg13 3.093229 1_555
Mg11 Mg13 3.093229 1_545
Mg11 Mg3 3.097930 1_555
Mg11 Mg5 3.097936 1_545
Mg11 Mg2 3.130294 1_556
Mg11 Mg4 3.130300 1_546
Mg11 Mg9 3.153101 1_655
Mg11 Mg7 3.153102 1_655
Mg11 Mg9 3.215428 1_545
Mg11 Mg7 3.215428 1_555
Mg12 Mg4 3.039288 1_555
Mg12 Mg2 3.039295 1_555
Mg12 Mg6 3.073701 1_665
Mg12 Mg8 3.073701 1_655
Mg12 Mg5 3.267436 1_555
Mg12 Mg3 3.267442 1_555
Mg12 Mg6 3.292871 1_555
Mg12 Mg8 3.292871 1_555
Mg13 Mg4 3.039288 1_556
Mg13 Mg2 3.039295 1_556
Mg13 Mg7 3.073701 1_665
Mg13 Mg9 3.073701 1_655
Mg13 Mg5 3.267436 1_555
Mg13 Mg3 3.267442 1_555
Mg13 Mg7 3.292871 1_555
Mg13 Mg9 3.292871 1_555
Fe0 Mg13 2.933933 1_454
Fe0 Mg12 2.933933 1_455
Fe0 Mg9 3.008300 1_554
Fe0 Mg8 3.008300 1_555
Fe0 Mg7 3.008306 1_564
Fe0 Mg6 3.008306 1_565
Fe0 Zr0 3.087560 1_555
Fe0 Zr0 3.087561 1_565
Fe0 Mg2 3.089253 1_565
Fe0 Mg4 3.089253 1_555
Fe0 Mg2 3.274578 1_455
Fe0 Mg4 3.274578 1_455
