# generated using pymatgen
data_K2H3CO4F
_symmetry_space_group_name_H-M   'P 1'
_cell_length_a   5.42467093
_cell_length_b   7.38765300
_cell_length_c   7.56309883
_cell_angle_alpha   90.00000000
_cell_angle_beta   104.49659482
_cell_angle_gamma   90.00000000
_symmetry_Int_Tables_number   1
_chemical_formula_structural   K2H3CO4F
_chemical_formula_sum   'K4 H6 C2 O8 F2'
_cell_volume   293.44582021
_cell_formula_units_Z   2
loop_
 _symmetry_equiv_pos_site_id
 _symmetry_equiv_pos_as_xyz
  1  'x, y, z'
loop_
 _atom_site_type_symbol
 _atom_site_label
 _atom_site_symmetry_multiplicity
 _atom_site_fract_x
 _atom_site_fract_y
 _atom_site_fract_z
 _atom_site_occupancy
  K  K0  1  0.78693900  0.99747600  0.23285800  1
  K  K1  1  0.21306100  0.49747600  0.76714200  1
  K  K2  1  0.21306100  0.00252400  0.76714200  1
  K  K3  1  0.78693900  0.50252400  0.23285800  1
  H  H0  1  0.28073400  0.25000000  0.35568600  1
  H  H1  1  0.71926600  0.75000000  0.64431400  1
  H  H2  1  0.28649100  0.25000000  0.14721400  1
  H  H3  1  0.71350900  0.75000000  0.85278600  1
  H  H4  1  0.68907900  0.25000000  0.88459700  1
  H  H5  1  0.31092100  0.75000000  0.11540300  1
  C  C0  1  0.69038400  0.25000000  0.62337400  1
  C  C1  1  0.30961600  0.75000000  0.37662600  1
  O  O0  1  0.16928200  0.25000000  0.22822600  1
  O  O1  1  0.83071800  0.75000000  0.77177400  1
  O  O2  1  0.44848500  0.25000000  0.58373500  1
  O  O3  1  0.55151500  0.75000000  0.41626600  1
  O  O4  1  0.83431000  0.25000000  0.51495300  1
  O  O5  1  0.16569000  0.75000000  0.48504700  1
  O  O6  1  0.81728400  0.25000000  0.80627800  1
  O  O7  1  0.18271600  0.75000000  0.19372200  1
  F  F0  1  0.49493900  0.75000000  0.99023100  1
  F  F1  1  0.50506100  0.25000000  0.00976900  1
loop_
_geom_bond_atom_site_label_1
_geom_bond_atom_site_label_2
_geom_bond_distance
_geom_bond_site_symmetry_2
K0 O3 2.790084 1_555
K0 O0 2.796381 1_665
K0 O4 2.797095 1_565
K0 O7 2.890978 1_655
K0 O5 3.039724 1_655
K1 O2 2.790080 1_555
K1 O1 2.796381 1_455
K1 O5 2.797095 1_555
K1 O6 2.890978 1_455
K1 O4 3.039724 1_455
K2 O2 2.790080 1_555
K2 O1 2.796381 1_445
K2 O5 2.797095 1_545
K2 O6 2.890978 1_455
K2 O4 3.039724 1_455
K3 O3 2.790084 1_555
K3 O0 2.796381 1_655
K3 O4 2.797095 1_555
K3 O7 2.890978 1_655
K3 O5 3.039724 1_655
H0 O0 1.001511 1_555
H1 O1 1.001511 1_555
H2 O0 0.987272 1_555
H3 O1 0.987272 1_555
H4 O6 1.020186 1_555
H5 O7 1.020186 1_555
C0 O4 1.265895 1_555
C0 O2 1.270768 1_555
C0 O6 1.382285 1_555
C1 O5 1.265895 1_555
C1 O3 1.270768 1_555
C1 O7 1.382285 1_555
F0 H5 1.538121 1_556
F0 K2 2.715437 1_565
F0 K1 2.715437 1_555
F0 K0 2.786340 1_556
F0 K3 2.786340 1_556
F1 H4 1.538121 1_554
F1 K3 2.715437 1_555
F1 K0 2.715437 1_545
F1 K1 2.786340 1_554
F1 K2 2.786340 1_554
