# generated using pymatgen
data_MgZn
_symmetry_space_group_name_H-M   'P 1'
_cell_length_a   6.12741607
_cell_length_b   6.12741607
_cell_length_c   9.09032800
_cell_angle_alpha   90.00000000
_cell_angle_beta   90.00000000
_cell_angle_gamma   120.00000079
_symmetry_Int_Tables_number   1
_chemical_formula_structural   MgZn
_chemical_formula_sum   'Mg8 Zn8'
_cell_volume   295.57311257
_cell_formula_units_Z   8
loop_
 _symmetry_equiv_pos_site_id
 _symmetry_equiv_pos_as_xyz
  1  'x, y, z'
loop_
 _atom_site_type_symbol
 _atom_site_label
 _atom_site_symmetry_multiplicity
 _atom_site_fract_x
 _atom_site_fract_y
 _atom_site_fract_z
 _atom_site_occupancy
  Mg  Mg0_0  1  0.00000000  0.00000000  0.25000000  1
  Mg  Mg0_1  1  0.00000000  0.00000000  0.75000000  1
  Mg  Mg0_2  1  0.00000000  0.50000000  0.25000000  1
  Mg  Mg0_3  1  0.00000000  0.50000000  0.75000000  1
  Mg  Mg0_4  1  0.50000000  0.00000000  0.25000000  1
  Mg  Mg0_5  1  0.50000000  0.00000000  0.75000000  1
  Mg  Mg0_6  1  0.50000000  0.50000000  0.25000000  1
  Mg  Mg0_7  1  0.50000000  0.50000000  0.75000000  1
  Zn  Zn0_0  1  0.33333350  0.16666650  0.00000000  1
  Zn  Zn0_1  1  0.33333350  0.16666650  0.50000000  1
  Zn  Zn0_2  1  0.33333350  0.66666650  0.00000000  1
  Zn  Zn0_3  1  0.33333350  0.66666650  0.50000000  1
  Zn  Zn0_4  1  0.83333350  0.16666650  0.00000000  1
  Zn  Zn0_5  1  0.83333350  0.16666650  0.50000000  1
  Zn  Zn0_6  1  0.83333350  0.66666650  0.00000000  1
  Zn  Zn0_7  1  0.83333350  0.66666650  0.50000000  1
loop_
_geom_bond_atom_site_label_1
_geom_bond_atom_site_label_2
_geom_bond_distance
_geom_bond_site_symmetry_2
Mg0_0 Zn0_4 2.879825 1_455
Mg0_0 Zn0_5 2.879825 1_455
Mg0_0 Zn0_1 2.879827 1_555
Mg0_0 Zn0_6 2.879827 1_445
Mg0_0 Zn0_0 2.879827 1_555
Mg0_0 Zn0_7 2.879827 1_445
Mg0_0 Mg0_6 3.063708 1_445
Mg0_0 Mg0_6 3.063708 1_555
Mg0_0 Mg0_2 3.063708 1_545
Mg0_0 Mg0_4 3.063708 1_455
Mg0_0 Mg0_4 3.063708 1_555
Mg0_0 Mg0_2 3.063708 1_555
Mg0_1 Zn0_4 2.879825 1_456
Mg0_1 Zn0_5 2.879825 1_455
Mg0_1 Zn0_0 2.879827 1_556
Mg0_1 Zn0_1 2.879827 1_555
Mg0_1 Zn0_6 2.879827 1_446
Mg0_1 Zn0_7 2.879827 1_445
Mg0_1 Mg0_7 3.063708 1_445
Mg0_1 Mg0_7 3.063708 1_555
Mg0_1 Mg0_5 3.063708 1_555
Mg0_1 Mg0_3 3.063708 1_545
Mg0_1 Mg0_3 3.063708 1_555
Mg0_1 Mg0_5 3.063708 1_455
Mg0_2 Zn0_6 2.879825 1_455
Mg0_2 Zn0_7 2.879825 1_455
Mg0_2 Zn0_5 2.879827 1_455
Mg0_2 Zn0_2 2.879827 1_555
Mg0_2 Zn0_4 2.879827 1_455
Mg0_2 Zn0_3 2.879827 1_555
Mg0_2 Mg0_4 3.063708 1_565
Mg0_2 Mg0_4 3.063708 1_455
Mg0_2 Mg0_6 3.063708 1_555
Mg0_2 Mg0_6 3.063708 1_455
Mg0_3 Zn0_6 2.879825 1_456
Mg0_3 Zn0_7 2.879825 1_455
Mg0_3 Zn0_5 2.879827 1_455
Mg0_3 Zn0_4 2.879827 1_456
Mg0_3 Zn0_2 2.879827 1_556
Mg0_3 Zn0_3 2.879827 1_555
Mg0_3 Mg0_5 3.063708 1_455
Mg0_3 Mg0_5 3.063708 1_565
Mg0_3 Mg0_7 3.063708 1_455
Mg0_3 Mg0_7 3.063708 1_555
Mg0_4 Zn0_0 2.879825 1_555
Mg0_4 Zn0_1 2.879825 1_555
Mg0_4 Zn0_3 2.879827 1_545
Mg0_4 Zn0_5 2.879827 1_555
Mg0_4 Zn0_4 2.879827 1_555
Mg0_4 Zn0_2 2.879827 1_545
Mg0_4 Mg0_6 3.063708 1_555
Mg0_4 Mg0_6 3.063708 1_545
Mg0_5 Zn0_0 2.879825 1_556
Mg0_5 Zn0_1 2.879825 1_555
Mg0_5 Zn0_3 2.879827 1_545
Mg0_5 Zn0_5 2.879827 1_555
Mg0_5 Zn0_4 2.879827 1_556
Mg0_5 Zn0_2 2.879827 1_546
Mg0_5 Mg0_7 3.063708 1_545
Mg0_5 Mg0_7 3.063708 1_555
Mg0_6 Zn0_2 2.879825 1_555
Mg0_6 Zn0_3 2.879825 1_555
Mg0_6 Zn0_7 2.879827 1_555
Mg0_6 Zn0_0 2.879827 1_555
Mg0_6 Zn0_6 2.879827 1_555
Mg0_6 Zn0_1 2.879827 1_555
Mg0_7 Zn0_2 2.879825 1_556
Mg0_7 Zn0_3 2.879825 1_555
Mg0_7 Zn0_6 2.879827 1_556
Mg0_7 Zn0_7 2.879827 1_555
Mg0_7 Zn0_0 2.879827 1_556
Mg0_7 Zn0_1 2.879827 1_555
Zn0_0 Zn0_6 3.063708 1_555
Zn0_0 Zn0_6 3.063708 1_445
Zn0_0 Zn0_4 3.063708 1_455
Zn0_0 Zn0_2 3.063708 1_555
Zn0_0 Zn0_2 3.063708 1_545
Zn0_0 Zn0_4 3.063708 1_555
Zn0_1 Zn0_7 3.063708 1_445
Zn0_1 Zn0_7 3.063708 1_555
Zn0_1 Zn0_5 3.063708 1_455
Zn0_1 Zn0_3 3.063708 1_555
Zn0_1 Zn0_3 3.063708 1_545
Zn0_1 Zn0_5 3.063708 1_555
Zn0_2 Zn0_4 3.063708 1_455
Zn0_2 Zn0_4 3.063708 1_565
Zn0_2 Zn0_6 3.063708 1_555
Zn0_2 Zn0_6 3.063708 1_455
Zn0_3 Zn0_5 3.063708 1_455
Zn0_3 Zn0_5 3.063708 1_565
Zn0_3 Zn0_7 3.063708 1_555
Zn0_3 Zn0_7 3.063708 1_455
Zn0_4 Zn0_6 3.063708 1_545
Zn0_4 Zn0_6 3.063708 1_555
Zn0_5 Zn0_7 3.063708 1_545
Zn0_5 Zn0_7 3.063708 1_555
