# generated using pymatgen
data_Sr3LaTi2Mn2O12
_symmetry_space_group_name_H-M   'P 1'
_cell_length_a   5.58595076
_cell_length_b   9.56993677
_cell_length_c   9.56253330
_cell_angle_alpha   108.70706985
_cell_angle_beta   90.55206441
_cell_angle_gamma   90.71530619
_symmetry_Int_Tables_number   1
_chemical_formula_structural   Sr3LaTi2Mn2O12
_chemical_formula_sum   'Sr6 La2 Ti4 Mn4 O24'
_cell_volume   484.09266958
_cell_formula_units_Z   2
loop_
 _symmetry_equiv_pos_site_id
 _symmetry_equiv_pos_as_xyz
  1  'x, y, z'
loop_
 _atom_site_type_symbol
 _atom_site_label
 _atom_site_symmetry_multiplicity
 _atom_site_fract_x
 _atom_site_fract_y
 _atom_site_fract_z
 _atom_site_occupancy
  Sr  Sr0  1  0.00088900  0.37480100  0.12527300  1
  Sr  Sr1  1  0.50049500  0.87450100  0.12519700  1
  Sr  Sr2  1  0.00098300  0.62348100  0.86989100  1
  Sr  Sr3  1  0.50087200  0.12344800  0.86985100  1
  Sr  Sr4  1  0.50063600  0.62470600  0.37737100  1
  Sr  Sr5  1  0.00068200  0.12470900  0.37737400  1
  La  La0  1  0.49908600  0.37360900  0.62060200  1
  La  La1  1  0.99981100  0.87333800  0.62057100  1
  Ti  Ti0  1  0.49923100  0.49927000  0.99635100  1
  Ti  Ti1  1  0.99915700  0.99918000  0.99630200  1
  Ti  Ti2  1  0.50096800  0.24808500  0.24729700  1
  Ti  Ti3  1  0.00096800  0.74805500  0.24735300  1
  Mn  Mn0  1  0.50281000  0.99800900  0.50029200  1
  Mn  Mn1  1  0.00069300  0.25032600  0.74928100  1
  Mn  Mn2  1  0.00283100  0.49811100  0.50022900  1
  Mn  Mn3  1  0.50035700  0.75020100  0.74933300  1
  O  O0  1  0.25241000  0.62122300  0.62340900  1
  O  O1  1  0.75259400  0.12114900  0.62336800  1
  O  O2  1  0.00565000  0.37253500  0.62320900  1
  O  O3  1  0.50467300  0.87251200  0.62326800  1
  O  O4  1  0.76317200  0.61893900  0.62196900  1
  O  O5  1  0.26335300  0.11904100  0.62195100  1
  O  O6  1  0.24665000  0.12755600  0.12781500  1
  O  O7  1  0.74653100  0.62756400  0.12787500  1
  O  O8  1  0.49682400  0.37799100  0.12802000  1
  O  O9  1  0.99675300  0.87789400  0.12787600  1
  O  O10  1  0.74402800  0.12804500  0.12626900  1
  O  O11  1  0.24387200  0.62797500  0.12634700  1
  O  O12  1  0.74537500  0.87861600  0.87282100  1
  O  O13  1  0.24539900  0.37864100  0.87289200  1
  O  O14  1  0.75306400  0.37400600  0.38159000  1
  O  O15  1  0.25303300  0.87402700  0.38157300  1
  O  O16  1  0.00476800  0.62415800  0.38050700  1
  O  O17  1  0.50479500  0.12414400  0.38048900  1
  O  O18  1  0.49337700  0.62957300  0.87395600  1
  O  O19  1  0.99366400  0.12941900  0.87375400  1
  O  O20  1  0.26206900  0.37304800  0.38348600  1
  O  O21  1  0.76187200  0.87290000  0.38358100  1
  O  O22  1  0.22773700  0.88254700  0.87074800  1
  O  O23  1  0.72786900  0.38266600  0.87066100  1
loop_
_geom_bond_atom_site_label_1
_geom_bond_atom_site_label_2
_geom_bond_distance
_geom_bond_site_symmetry_2
La0 O20 2.613104 1_555
La0 O23 2.676555 1_555
La0 O14 2.702675 1_555
La0 O17 2.731233 1_555
La0 O0 2.748830 1_555
La0 O4 2.753525 1_555
La0 O2 2.756583 1_555
La0 O5 2.758544 1_555
La0 O13 2.797108 1_555
La0 O1 2.822918 1_555
La0 O2 2.829687 1_655
La0 O18 2.840338 1_555
La1 O21 2.614969 1_555
La1 O22 2.674929 1_655
La1 O15 2.701058 1_655
La1 O16 2.729196 1_655
La1 O1 2.752034 1_565
La1 O5 2.754913 1_665
La1 O4 2.759626 1_555
La1 O3 2.766121 1_555
La1 O12 2.798342 1_555
La1 O0 2.817655 1_655
La1 O3 2.820137 1_655
La1 O19 2.840131 1_565
Mn0 O17 1.912235 1_565
Mn0 O5 1.920542 1_565
Mn0 O15 1.925460 1_555
Mn0 O3 1.931688 1_555
Mn0 O1 1.938637 1_565
Mn0 O21 1.997606 1_555
Mn1 O19 1.907964 1_455
Mn1 O2 1.930344 1_555
Mn1 O13 1.941505 1_555
Mn1 O1 1.966945 1_455
Mn1 O5 2.076755 1_555
Mn1 O23 2.100727 1_455
Mn2 O16 1.910920 1_555
Mn2 O4 1.920854 1_455
Mn2 O14 1.925618 1_455
Mn2 O2 1.932383 1_555
Mn2 O0 1.938123 1_555
Mn2 O20 1.998256 1_555
Mn3 O18 1.906982 1_555
Mn3 O3 1.931033 1_555
Mn3 O12 1.942650 1_555
Mn3 O0 1.965595 1_555
Mn3 O4 2.077414 1_555
Mn3 O22 2.100034 1_555
O0 Sr2 2.749593 1_555
O0 Sr4 2.751571 1_555
O1 Sr3 2.750355 1_555
O1 Sr5 2.751019 1_655
O2 Sr5 2.751845 1_555
O2 Sr2 2.775135 1_555
O3 Sr4 2.752126 1_555
O3 Sr3 2.774403 1_565
O4 Sr2 2.694220 1_655
O4 Sr4 2.764642 1_555
O5 Sr3 2.693599 1_555
O5 Sr5 2.764584 1_555
O6 Ti2 1.932989 1_555
O6 Ti1 1.983726 1_444
O6 Sr0 2.757003 1_555
O6 Sr5 2.772627 1_555
O6 Sr1 2.814874 1_545
O6 Sr3 2.847787 1_554
O7 Ti3 1.933310 1_655
O7 Ti0 1.982715 1_554
O7 Sr1 2.755593 1_555
O7 Sr4 2.771928 1_555
O7 Sr0 2.813978 1_655
O7 Sr2 2.848666 1_654
O8 Ti2 1.938244 1_555
O8 Ti0 1.967201 1_554
O8 Sr4 2.765321 1_555
O8 Sr0 2.769834 1_555
O8 Sr0 2.816513 1_655
O8 Sr3 2.859020 1_554
O9 Ti3 1.939237 1_655
O9 Ti1 1.966501 1_554
O9 Sr5 2.766693 1_665
O9 Sr1 2.771633 1_555
O9 Sr1 2.814739 1_655
O9 Sr2 2.857293 1_654
O10 Ti2 1.928447 1_555
O10 Ti1 2.047273 1_544
O10 Sr0 2.750503 1_655
O10 Sr1 2.763959 1_545
O10 Sr3 2.779256 1_554
O10 Sr5 2.793945 1_655
O11 Ti3 1.927892 1_555
O11 Ti0 2.047664 1_554
O11 Sr1 2.748364 1_555
O11 Sr0 2.759393 1_555
O11 Sr2 2.779127 1_554
O11 Sr4 2.793403 1_555
O12 Ti1 1.946309 1_555
O12 Sr3 2.734553 1_565
O12 Sr1 2.796458 1_556
O12 Sr2 2.836354 1_655
O13 Ti0 1.946664 1_555
O13 Sr2 2.734454 1_555
O13 Sr0 2.794724 1_556
O13 Sr3 2.836169 1_555
O14 Ti2 2.003600 1_555
O14 Sr5 2.761960 1_655
O14 Sr4 2.809165 1_555
O14 Sr0 2.828627 1_655
O15 Ti3 2.003362 1_555
O15 Sr4 2.762150 1_555
O15 Sr5 2.808742 1_565
O15 Sr1 2.827269 1_555
O16 Ti3 1.999025 1_555
O16 Sr4 2.770303 1_555
O16 Sr0 2.813118 1_555
O16 Sr4 2.816016 1_455
O17 Ti2 1.999664 1_555
O17 Sr5 2.770404 1_655
O17 Sr1 2.814983 1_545
O17 Sr5 2.815912 1_555
O18 Ti0 1.965297 1_555
O18 Sr2 2.750015 1_555
O18 Sr1 2.766086 1_556
O18 Sr2 2.837173 1_655
O19 Ti1 1.965923 1_545
O19 Sr3 2.752236 1_555
O19 Sr0 2.770140 1_656
O19 Sr3 2.834892 1_655
O20 Ti2 1.995322 1_555
O20 Sr4 2.755207 1_555
O20 Sr5 2.757912 1_555
O20 Sr0 2.860655 1_555
O21 Ti3 1.995798 1_655
O21 Sr4 2.756054 1_555
O21 Sr5 2.757382 1_665
O21 Sr1 2.862194 1_555
O22 Ti1 1.877001 1_455
O22 Sr3 2.750983 1_565
O22 Sr2 2.767571 1_555
O22 Sr1 2.880858 1_556
O23 Ti0 1.877709 1_555
O23 Sr2 2.749898 1_655
O23 Sr3 2.769601 1_555
O23 Sr0 2.882416 1_656
