# generated using pymatgen
data_Sr2MgV2(Si2O7)2
_symmetry_space_group_name_H-M   'P 1'
_cell_length_a   5.60671243
_cell_length_b   7.28976500
_cell_length_c   8.96981756
_cell_angle_alpha   90.00000000
_cell_angle_beta   108.21189351
_cell_angle_gamma   90.00000000
_symmetry_Int_Tables_number   1
_chemical_formula_structural   Sr2MgV2(Si2O7)2
_chemical_formula_sum   'Sr2 Mg1 V2 Si4 O14'
_cell_volume   348.24636966
_cell_formula_units_Z   1
loop_
 _symmetry_equiv_pos_site_id
 _symmetry_equiv_pos_as_xyz
  1  'x, y, z'
loop_
 _atom_site_type_symbol
 _atom_site_label
 _atom_site_symmetry_multiplicity
 _atom_site_fract_x
 _atom_site_fract_y
 _atom_site_fract_z
 _atom_site_occupancy
  Sr  Sr0  1  0.12125200  0.75000000  0.24250400  1
  Sr  Sr1  1  0.86045800  0.25000000  0.72091600  1
  Mg  Mg0  1  0.32072100  0.75000000  0.64144100  1
  V  V0  1  0.89181000  0.75000000  0.78362000  1
  V  V1  1  0.10103400  0.25000000  0.20206900  1
  Si  Si0  1  0.41377300  0.46869000  0.82754600  1
  Si  Si1  1  0.60227000  0.52276100  0.20454100  1
  Si  Si2  1  0.60227000  0.97723900  0.20454100  1
  Si  Si3  1  0.41377300  0.03131000  0.82754600  1
  O  O0  1  0.62131800  0.75000000  0.24263500  1
  O  O1  1  0.38954000  0.25000000  0.77908000  1
  O  O2  1  0.50518800  0.50642500  0.01037500  1
  O  O3  1  0.50518800  0.99357500  0.01037500  1
  O  O4  1  0.59194000  0.55903200  0.72850800  1
  O  O5  1  0.88815700  0.44986500  0.27245200  1
  O  O6  1  0.38429500  0.05013500  0.27245200  1
  O  O7  1  0.13656800  0.94096800  0.72850800  1
  O  O8  1  0.99377600  0.25000000  0.98755400  1
  O  O9  1  0.99320800  0.75000000  0.98641600  1
  O  O10  1  0.88815700  0.05013500  0.27245200  1
  O  O11  1  0.59194000  0.94096800  0.72850800  1
  O  O12  1  0.13656800  0.55903200  0.72850800  1
  O  O13  1  0.38429500  0.44986500  0.27245200  1
loop_
_geom_bond_atom_site_label_1
_geom_bond_atom_site_label_2
_geom_bond_distance
_geom_bond_site_symmetry_2
Mg0 O11 2.029272 1_555
Mg0 O4 2.029272 1_555
Mg0 O7 2.029276 1_555
Mg0 O12 2.029276 1_555
O0 Si2 1.688019 1_555
O0 Si1 1.688019 1_555
O1 Si3 1.646815 1_555
O1 Si0 1.646815 1_555
O1 Sr1 2.846825 1_555
O1 Sr1 2.846825 1_455
O2 Si0 1.581894 1_554
O2 Si1 1.658671 1_555
O3 Si3 1.581894 1_564
O3 Si2 1.658671 1_555
O4 Si0 1.665964 1_555
O4 V0 2.118858 1_555
O4 Sr1 2.722175 1_555
O5 Si1 1.616285 1_555
O5 V1 2.101632 1_655
O5 Sr0 2.605100 1_655
O6 Si2 1.616280 1_545
O6 V1 2.101636 1_555
O6 Sr0 2.605100 1_545
O7 Si3 1.665964 1_565
O7 V0 2.118858 1_455
O7 Sr1 2.722175 1_465
O8 V1 1.827774 1_656
O8 Sr1 2.271888 1_555
O9 V0 1.727922 1_555
O9 Sr0 2.181996 1_656
O10 Si2 1.616285 1_545
O10 V1 2.101632 1_655
O10 Sr0 2.605100 1_645
O11 Si3 1.665964 1_565
O11 V0 2.118858 1_555
O11 Sr1 2.722175 1_565
O12 Si0 1.665964 1_555
O12 V0 2.118858 1_455
O12 Sr1 2.722175 1_455
O13 Si1 1.616280 1_555
O13 V1 2.101636 1_555
O13 Sr0 2.605100 1_555
