# generated using pymatgen
data_MgCo6(OF5)2
_symmetry_space_group_name_H-M   'P 1'
_cell_length_a   5.00666619
_cell_length_b   4.93119490
_cell_length_c   9.27614431
_cell_angle_alpha   91.15545140
_cell_angle_beta   92.01760893
_cell_angle_gamma   91.97600683
_symmetry_Int_Tables_number   1
_chemical_formula_structural   MgCo6(OF5)2
_chemical_formula_sum   'Mg1 Co6 O2 F10'
_cell_volume   228.68681981
_cell_formula_units_Z   1
loop_
 _symmetry_equiv_pos_site_id
 _symmetry_equiv_pos_as_xyz
  1  'x, y, z'
loop_
 _atom_site_type_symbol
 _atom_site_label
 _atom_site_symmetry_multiplicity
 _atom_site_fract_x
 _atom_site_fract_y
 _atom_site_fract_z
 _atom_site_occupancy
  Mg  Mg0  1  0.00166000  0.50056400  0.16195100  1
  Co  Co0  1  0.95867000  0.96642500  0.97969300  1
  Co  Co1  1  0.04333900  0.03490500  0.34513700  1
  Co  Co2  1  0.99975300  0.99833800  0.66237600  1
  Co  Co3  1  0.50126200  0.50279800  0.16278000  1
  Co  Co4  1  0.51215900  0.51192900  0.83642300  1
  Co  Co5  1  0.48784300  0.48574500  0.48900300  1
  O  O0  1  0.27486400  0.36128800  0.31267400  1
  O  O1  1  0.72782500  0.63963400  0.01182800  1
  F  F0  1  0.21715800  0.83677100  0.15603800  1
  F  F1  1  0.20808400  0.81682500  0.82997000  1
  F  F2  1  0.23181400  0.83115800  0.50323200  1
  F  F3  1  0.22531000  0.32896600  0.00423400  1
  F  F4  1  0.28944000  0.32136900  0.66748400  1
  F  F5  1  0.70948900  0.67614200  0.65774300  1
  F  F6  1  0.77882400  0.67281400  0.32026500  1
  F  F7  1  0.78583000  0.16511600  0.16840500  1
  F  F8  1  0.76838200  0.16743200  0.82153200  1
  F  F9  1  0.79218500  0.18178300  0.49494500  1
loop_
_geom_bond_atom_site_label_1
_geom_bond_atom_site_label_2
_geom_bond_distance
_geom_bond_site_symmetry_2
Mg0 O1 2.063514 1_455
Mg0 O0 2.065501 1_555
Co0 O1 1.984105 1_556
Co0 F8 2.016915 1_565
Co0 F1 2.043717 1_655
Co0 F0 2.170172 1_656
Co0 F3 2.197197 1_666
Co0 F7 2.206602 1_566
Co1 O0 1.984987 1_555
Co1 F2 2.019385 1_545
Co1 F9 2.045021 1_455
Co1 F7 2.170899 1_455
Co1 F6 2.189534 1_445
Co1 F0 2.210396 1_545
Co2 F1 2.076605 1_655
Co2 F9 2.078052 1_565
Co2 F2 2.084842 1_655
Co2 F8 2.086665 1_565
Co2 F5 2.114648 1_555
Co2 F4 2.115661 1_665
Co3 O1 1.949326 1_555
Co3 O0 1.949524 1_555
Co3 F6 2.120247 1_555
Co3 F3 2.128606 1_555
Co3 F0 2.213333 1_555
Co3 F7 2.228741 1_555
Co4 O1 1.999485 1_556
Co4 F4 2.080273 1_555
Co4 F5 2.119726 1_555
Co4 F8 2.168841 1_555
Co4 F1 2.176435 1_555
Co4 F3 2.329031 1_556
Co5 O0 1.995149 1_555
Co5 F5 2.075947 1_555
Co5 F4 2.121133 1_555
Co5 F2 2.171453 1_555
Co5 F9 2.174035 1_555
Co5 F6 2.355726 1_555
F0 Mg0 1.949413 1_555
F3 Mg0 2.059368 1_555
F6 Mg0 2.062333 1_655
F7 Mg0 1.947507 1_655
