# generated using pymatgen
data_Li2Cr3CoO8
_symmetry_space_group_name_H-M   'P 1'
_cell_length_a   8.34951675
_cell_length_b   8.31277956
_cell_length_c   8.28730061
_cell_angle_alpha   90.05972338
_cell_angle_beta   90.32572210
_cell_angle_gamma   89.76358833
_symmetry_Int_Tables_number   1
_chemical_formula_structural   Li2Cr3CoO8
_chemical_formula_sum   'Li8 Cr12 Co4 O32'
_cell_volume   575.18791998
_cell_formula_units_Z   4
loop_
 _symmetry_equiv_pos_site_id
 _symmetry_equiv_pos_as_xyz
  1  'x, y, z'
loop_
 _atom_site_type_symbol
 _atom_site_label
 _atom_site_symmetry_multiplicity
 _atom_site_fract_x
 _atom_site_fract_y
 _atom_site_fract_z
 _atom_site_occupancy
  Li  Li0  1  0.00064291  0.99744128  0.00076243  1
  Li  Li1  1  0.25290938  0.24992431  0.24825781  1
  Li  Li2  1  0.24560019  0.74786752  0.75115404  1
  Li  Li3  1  0.50088157  0.00276469  0.49772683  1
  Li  Li4  1  0.50035102  0.49635513  0.99959532  1
  Li  Li5  1  0.74803322  0.25277857  0.75041933  1
  Li  Li6  1  0.74989105  0.74911370  0.24877884  1
  Li  Li7  1  0.99817179  0.50172618  0.50200464  1
  Cr  Cr0  1  0.13141919  0.12387128  0.62558742  1
  Cr  Cr1  1  0.12353909  0.36921357  0.88015020  1
  Cr  Cr2  1  0.12050499  0.62230196  0.13075959  1
  Cr  Cr3  1  0.37854224  0.37621704  0.62607381  1
  Cr  Cr4  1  0.37501773  0.62836970  0.37579830  1
  Cr  Cr5  1  0.37204598  0.87783476  0.12478155  1
  Cr  Cr6  1  0.62962195  0.37870891  0.37457603  1
  Cr  Cr7  1  0.62746029  0.12860442  0.11962972  1
  Cr  Cr8  1  0.62129176  0.87594006  0.87207363  1
  Cr  Cr9  1  0.87987888  0.12376188  0.37026601  1
  Cr  Cr10  1  0.87092339  0.87465140  0.62213538  1
  Cr  Cr11  1  0.87014798  0.62038593  0.87737726  1
  Co  Co0  1  0.12785358  0.87736606  0.37459460  1
  Co  Co1  1  0.37506620  0.12368151  0.87412739  1
  Co  Co2  1  0.62308266  0.62630968  0.62588229  1
  Co  Co3  1  0.87674406  0.37366785  0.12593575  1
  O  O0  1  0.11993677  0.10572641  0.38406945  1
  O  O1  1  0.11316427  0.89114648  0.60537029  1
  O  O2  1  0.10953237  0.61068830  0.89026813  1
  O  O3  1  0.14378094  0.12650228  0.86196811  1
  O  O4  1  0.10439654  0.38288936  0.12124712  1
  O  O5  1  0.13436299  0.35250676  0.63639535  1
  O  O6  1  0.14217085  0.64766014  0.37801589  1
  O  O7  1  0.13422471  0.86479552  0.14850995  1
  O  O8  1  0.36117586  0.13101888  0.64301327  1
  O  O9  1  0.36361359  0.35175025  0.86766001  1
  O  O10  1  0.36693338  0.63602923  0.14660381  1
  O  O11  1  0.39081777  0.61718641  0.61312992  1
  O  O12  1  0.35785820  0.86774000  0.36588814  1
  O  O13  1  0.38899481  0.39222105  0.38530355  1
  O  O14  1  0.38737853  0.11742448  0.10130248  1
  O  O15  1  0.38703934  0.89285046  0.88047539  1
  O  O16  1  0.61659237  0.39903889  0.61707084  1
  O  O17  1  0.60918764  0.62431028  0.39493413  1
  O  O18  1  0.61508836  0.88458024  0.10237141  1
  O  O19  1  0.64882619  0.36734991  0.13368141  1
  O  O20  1  0.60600685  0.11201205  0.87667440  1
  O  O21  1  0.64373902  0.13699093  0.36263835  1
  O  O22  1  0.63021804  0.85859245  0.63662896  1
  O  O23  1  0.62662311  0.63704637  0.85404918  1
  O  O24  1  0.87155704  0.35853127  0.35896941  1
  O  O25  1  0.86774224  0.13848166  0.13897480  1
  O  O26  1  0.85278636  0.86412088  0.86364158  1
  O  O27  1  0.89454197  0.89221848  0.37801572  1
  O  O28  1  0.85097579  0.63548995  0.63350104  1
  O  O29  1  0.89487292  0.12051631  0.60512603  1
  O  O30  1  0.88314925  0.37996188  0.89782470  1
  O  O31  1  0.88309181  0.60390703  0.11836699  1
loop_
_geom_bond_atom_site_label_1
_geom_bond_atom_site_label_2
_geom_bond_distance
_geom_bond_site_symmetry_2
Li0 O25 1.979601 1_465
Li0 O3 1.982719 1_564
Li0 O7 1.983986 1_555
Li0 O26 2.009066 1_454
Li1 O4 1.960491 1_555
Li1 O14 1.989845 1_555
Li1 O0 1.991054 1_555
Li1 O13 1.993436 1_555
Li2 O2 1.987098 1_555
Li2 O11 1.990212 1_555
Li2 O15 1.997606 1_555
Li2 O1 2.019383 1_555
Li3 O12 1.968076 1_545
Li3 O22 1.976274 1_545
Li3 O21 1.987419 1_555
Li3 O8 1.987476 1_555
Li4 O19 1.974212 1_556
Li4 O9 1.984519 1_555
Li4 O23 1.990437 1_555
Li4 O10 2.018691 1_556
Li5 O30 1.968317 1_555
Li5 O16 1.970259 1_555
Li5 O20 1.974438 1_555
Li5 O29 2.040768 1_555
Li6 O31 1.965156 1_555
Li6 O17 1.988074 1_555
Li6 O18 1.995985 1_555
Li6 O27 2.003854 1_555
Li7 O24 1.983142 1_555
Li7 O28 1.983907 1_555
Li7 O6 2.000434 1_655
Li7 O5 2.012207 1_655
Cr0 O5 1.902866 1_555
Cr0 O8 1.924124 1_555
Cr0 O1 1.948181 1_545
Cr0 O3 1.961193 1_555
Cr0 O29 1.981661 1_455
Cr0 O0 2.008826 1_555
Cr1 O4 2.008395 1_556
Cr1 O2 2.011937 1_555
Cr1 O9 2.012401 1_555
Cr1 O30 2.014914 1_455
Cr1 O5 2.027196 1_555
Cr1 O3 2.029493 1_555
Cr2 O31 1.990864 1_455
Cr2 O4 1.996722 1_555
Cr2 O2 1.996862 1_554
Cr2 O7 2.024670 1_555
Cr2 O10 2.064617 1_555
Cr2 O6 2.066668 1_555
Cr3 O16 1.999238 1_555
Cr3 O13 2.002326 1_555
Cr3 O11 2.009176 1_555
Cr3 O9 2.017224 1_555
Cr3 O8 2.049043 1_555
Cr3 O5 2.051370 1_555
Cr4 O10 1.901343 1_555
Cr4 O6 1.950291 1_555
Cr4 O17 1.960882 1_555
Cr4 O13 1.967670 1_555
Cr4 O11 1.972772 1_555
Cr4 O12 1.996136 1_555
Cr5 O7 1.999913 1_555
Cr5 O12 2.004169 1_555
Cr5 O14 2.006026 1_565
Cr5 O10 2.019031 1_555
Cr5 O15 2.033212 1_554
Cr5 O18 2.039825 1_555
Cr6 O19 2.005798 1_555
Cr6 O13 2.014257 1_555
Cr6 O21 2.014677 1_555
Cr6 O16 2.020055 1_555
Cr6 O24 2.031147 1_555
Cr6 O17 2.054887 1_555
Cr7 O19 1.996592 1_555
Cr7 O14 2.011974 1_555
Cr7 O25 2.013730 1_555
Cr7 O21 2.018847 1_555
Cr7 O20 2.024991 1_554
Cr7 O18 2.036412 1_545
Cr8 O18 1.910811 1_556
Cr8 O26 1.936613 1_555
Cr8 O22 1.958191 1_555
Cr8 O15 1.961987 1_555
Cr8 O20 1.966378 1_565
Cr8 O23 1.991659 1_555
Cr9 O25 1.922879 1_555
Cr9 O27 1.929268 1_545
Cr9 O29 1.949875 1_555
Cr9 O24 1.954858 1_555
Cr9 O21 1.974922 1_555
Cr9 O0 2.011964 1_655
Cr10 O28 1.998109 1_555
Cr10 O26 2.010039 1_555
Cr10 O22 2.019017 1_555
Cr10 O1 2.033351 1_655
Cr10 O27 2.039242 1_555
Cr10 O29 2.059455 1_565
Cr11 O2 2.002286 1_655
Cr11 O31 2.004262 1_556
Cr11 O30 2.008376 1_555
Cr11 O28 2.030473 1_555
Cr11 O26 2.033957 1_555
Cr11 O23 2.045529 1_555
Co0 O7 1.877478 1_555
Co0 O0 1.900743 1_565
Co0 O6 1.912970 1_555
Co0 O1 1.920402 1_555
Co0 O12 1.923524 1_555
Co0 O27 1.951804 1_455
Co1 O14 1.885649 1_556
Co1 O9 1.898698 1_555
Co1 O8 1.919180 1_555
Co1 O15 1.921797 1_545
Co1 O20 1.930278 1_555
Co1 O3 1.933222 1_555
Co2 O16 1.891575 1_555
Co2 O23 1.892969 1_555
Co2 O28 1.905327 1_555
Co2 O17 1.916850 1_555
Co2 O22 1.934023 1_555
Co2 O11 1.943366 1_555
Co3 O30 1.892269 1_554
Co3 O4 1.903268 1_655
Co3 O19 1.905393 1_555
Co3 O31 1.915982 1_555
Co3 O24 1.936187 1_555
Co3 O25 1.959922 1_555
