# generated using pymatgen
data_Ca3(NbN2)2
_symmetry_space_group_name_H-M   'P 1'
_cell_length_a   8.44004346
_cell_length_b   7.96209503
_cell_length_c   5.37042262
_cell_angle_alpha   89.99999735
_cell_angle_beta   93.07768409
_cell_angle_gamma   118.14377073
_symmetry_Int_Tables_number   1
_chemical_formula_structural   Ca3(NbN2)2
_chemical_formula_sum   'Ca6 Nb4 N8'
_cell_volume   317.63450544
_cell_formula_units_Z   2
loop_
 _symmetry_equiv_pos_site_id
 _symmetry_equiv_pos_as_xyz
  1  'x, y, z'
loop_
 _atom_site_type_symbol
 _atom_site_label
 _atom_site_symmetry_multiplicity
 _atom_site_fract_x
 _atom_site_fract_y
 _atom_site_fract_z
 _atom_site_occupancy
  Ca  Ca0  1  0.26850700  0.00933800  0.00673500  1
  Ca  Ca1  1  0.73149300  0.74083100  0.49326500  1
  Ca  Ca2  1  0.73149300  0.99066200  0.99326500  1
  Ca  Ca3  1  0.26850700  0.25916900  0.50673500  1
  Ca  Ca4  1  0.00000000  0.60274500  0.75000000  1
  Ca  Ca5  1  0.00000000  0.39725500  0.25000000  1
  Nb  Nb0  1  0.62144700  0.20575200  0.56503300  1
  Nb  Nb1  1  0.37855300  0.58430500  0.93496700  1
  Nb  Nb2  1  0.37855300  0.79424800  0.43496700  1
  Nb  Nb3  1  0.62144700  0.41569500  0.06503300  1
  N  N0  1  0.33599100  0.00221800  0.56014200  1
  N  N1  1  0.66400900  0.66622800  0.93985800  1
  N  N2  1  0.66400900  0.99778200  0.43985800  1
  N  N3  1  0.33599100  0.33377200  0.06014200  1
  N  N4  1  0.77154500  0.30965600  0.89797600  1
  N  N5  1  0.22845500  0.53811100  0.60202400  1
  N  N6  1  0.22845500  0.69034400  0.10202400  1
  N  N7  1  0.77154500  0.46188900  0.39797600  1
loop_
_geom_bond_atom_site_label_1
_geom_bond_atom_site_label_2
_geom_bond_distance
_geom_bond_site_symmetry_2
Ca0 N3 2.382004 1_555
Ca0 N6 2.456759 1_545
Ca0 N0 2.501411 1_554
Ca0 N0 3.001545 1_555
Ca1 N2 2.382012 1_555
Ca1 N7 2.456759 1_555
Ca1 N1 2.501410 1_555
Ca1 N1 3.001544 1_554
Ca2 N1 2.382004 1_555
Ca2 N4 2.456759 1_565
Ca2 N2 2.501411 1_556
Ca2 N2 3.001545 1_555
Ca3 N0 2.382012 1_555
Ca3 N5 2.456759 1_555
Ca3 N3 2.501410 1_555
Ca3 N3 3.001544 1_556
Ca4 N5 2.390573 1_555
Ca4 N4 2.390573 1_455
Ca4 N6 2.473510 1_556
Ca4 N7 2.473510 1_455
Ca5 N7 2.390573 1_455
Ca5 N6 2.390573 1_555
Ca5 N4 2.473510 1_454
Ca5 N5 2.473510 1_555
N0 Nb2 1.977362 1_545
N0 Nb0 2.177474 1_555
N1 Nb3 1.977369 1_556
N1 Nb1 2.177472 1_555
N2 Nb0 1.977362 1_565
N2 Nb2 2.177474 1_555
N3 Nb1 1.977369 1_554
N3 Nb3 2.177472 1_555
N4 Nb3 2.062440 1_556
N4 Nb0 2.062634 1_555
N5 Nb2 2.062440 1_555
N5 Nb1 2.062634 1_555
N6 Nb1 2.062440 1_554
N6 Nb2 2.062634 1_555
N7 Nb0 2.062440 1_555
N7 Nb3 2.062634 1_555
