# generated using pymatgen
data_SmAl5
_symmetry_space_group_name_H-M   'P 1'
_cell_length_a   5.44843465
_cell_length_b   5.44843465
_cell_length_c   17.85511900
_cell_angle_alpha   90.00000000
_cell_angle_beta   90.00000000
_cell_angle_gamma   120.00000784
_symmetry_Int_Tables_number   1
_chemical_formula_structural   SmAl5
_chemical_formula_sum   'Sm4 Al20'
_cell_volume   459.02552723
_cell_formula_units_Z   4
loop_
 _symmetry_equiv_pos_site_id
 _symmetry_equiv_pos_as_xyz
  1  'x, y, z'
loop_
 _atom_site_type_symbol
 _atom_site_label
 _atom_site_symmetry_multiplicity
 _atom_site_fract_x
 _atom_site_fract_y
 _atom_site_fract_z
 _atom_site_occupancy
  Sm  Sm0  1  0.33333300  0.66666700  0.64944500  1
  Sm  Sm1  1  0.66666700  0.33333300  0.35055500  1
  Sm  Sm2  1  0.66666700  0.33333300  0.14944500  1
  Sm  Sm3  1  0.33333300  0.66666700  0.85055500  1
  Al  Al0  1  0.34176300  0.34176300  0.50000000  1
  Al  Al1  1  0.65823700  0.00000000  0.50000000  1
  Al  Al2  1  0.00000000  0.65823700  0.50000000  1
  Al  Al3  1  0.65823700  0.65823700  0.00000000  1
  Al  Al4  1  0.34176300  0.00000000  0.00000000  1
  Al  Al5  1  0.00000000  0.34176300  0.00000000  1
  Al  Al6  1  0.33333300  0.66666700  0.38056300  1
  Al  Al7  1  0.66666700  0.33333300  0.61943700  1
  Al  Al8  1  0.66666700  0.33333300  0.88056300  1
  Al  Al9  1  0.33333300  0.66666700  0.11943700  1
  Al  Al10  1  0.16519800  0.83480200  0.25000000  1
  Al  Al11  1  0.16519800  0.33039500  0.25000000  1
  Al  Al12  1  0.66960500  0.83480200  0.25000000  1
  Al  Al13  1  0.83480200  0.16519800  0.75000000  1
  Al  Al14  1  0.33039500  0.16519800  0.75000000  1
  Al  Al15  1  0.83480200  0.66960500  0.75000000  1
  Al  Al16  1  0.00000000  0.00000000  0.88443300  1
  Al  Al17  1  0.00000000  0.00000000  0.11556700  1
  Al  Al18  1  0.00000000  0.00000000  0.38443300  1
  Al  Al19  1  0.00000000  0.00000000  0.61556700  1
loop_
_geom_bond_atom_site_label_1
_geom_bond_atom_site_label_2
_geom_bond_distance
_geom_bond_site_symmetry_2
Sm0 Sm3 3.590843 1_555
Sm1 Sm2 3.590843 1_555
Al0 Al19 2.779423 1_555
Al0 Al18 2.779423 1_555
Al0 Al6 2.786559 1_555
Al0 Al7 2.786559 1_555
Al0 Al2 3.106644 1_655
Al0 Al1 3.106644 1_565
Al0 Al2 3.106644 1_555
Al0 Al1 3.106644 1_555
Al0 Sm0 3.215155 1_555
Al0 Sm1 3.215155 1_555
Al1 Al19 2.779423 1_655
Al1 Al18 2.779423 1_655
Al1 Al7 2.786555 1_555
Al1 Al6 2.786557 1_545
Al1 Al2 3.106644 1_545
Al1 Al2 3.106644 1_655
Al1 Sm1 3.215152 1_555
Al1 Sm0 3.215154 1_545
Al2 Al6 2.786555 1_555
Al2 Al7 2.786557 1_455
Al2 Sm0 3.215152 1_555
Al2 Sm1 3.215154 1_455
Al3 Al9 2.786559 1_555
Al3 Al8 2.786559 1_554
Al3 Al4 3.106644 1_555
Al3 Al5 3.106644 1_555
Al3 Al5 3.106644 1_655
Al3 Al4 3.106644 1_565
Al3 Sm2 3.215155 1_555
Al3 Sm3 3.215155 1_554
Al4 Al9 2.786555 1_545
Al4 Al8 2.786557 1_554
Al4 Al5 3.106644 1_545
Al4 Al5 3.106644 1_655
Al4 Sm3 3.215152 1_544
Al4 Sm2 3.215154 1_555
Al5 Al8 2.786555 1_454
Al5 Al9 2.786557 1_555
Al5 Sm2 3.215152 1_455
Al5 Sm3 3.215154 1_554
Al6 Sm1 3.190956 1_455
Al6 Sm1 3.190956 1_565
Al6 Sm1 3.190966 1_555
Al7 Sm0 3.190956 1_545
Al7 Sm0 3.190956 1_655
Al7 Sm0 3.190966 1_555
Al8 Sm3 3.190956 1_545
Al8 Sm3 3.190956 1_655
Al8 Sm3 3.190966 1_555
Al9 Sm2 3.190956 1_455
Al9 Sm2 3.190956 1_565
Al9 Sm2 3.190966 1_555
Al10 Al12 2.700206 1_455
Al10 Al11 2.700206 1_565
Al10 Al11 2.748229 1_555
Al10 Al12 2.748229 1_555
Al10 Al9 2.819955 1_555
Al10 Al6 2.819955 1_555
Al10 Al18 2.862150 1_565
Al10 Al17 2.862150 1_565
Al10 Sm2 3.262681 1_455
Al10 Sm1 3.262681 1_455
Al10 Sm1 3.262681 1_565
Al10 Sm2 3.262681 1_565
Al11 Al12 2.700206 1_445
Al11 Al12 2.748228 1_555
Al11 Al9 2.819960 1_555
Al11 Al6 2.819960 1_555
Al11 Al18 2.862148 1_555
Al11 Al17 2.862148 1_555
Al11 Sm2 3.262681 1_555
Al11 Sm1 3.262681 1_555
Al11 Sm2 3.262681 1_455
Al11 Sm1 3.262681 1_455
Al12 Al6 2.819960 1_555
Al12 Al9 2.819960 1_555
Al12 Al18 2.862148 1_665
Al12 Al17 2.862148 1_665
Al12 Sm1 3.262681 1_555
Al12 Sm2 3.262681 1_555
Al12 Sm1 3.262681 1_565
Al12 Sm2 3.262681 1_565
Al13 Al15 2.700206 1_545
Al13 Al14 2.700206 1_655
Al13 Al14 2.748229 1_555
Al13 Al15 2.748229 1_555
Al13 Al8 2.819955 1_555
Al13 Al7 2.819955 1_555
Al13 Al16 2.862150 1_655
Al13 Al19 2.862150 1_655
Al13 Sm3 3.262681 1_545
Al13 Sm3 3.262681 1_655
Al13 Sm0 3.262681 1_545
Al13 Sm0 3.262681 1_655
Al14 Al15 2.700206 1_445
Al14 Al15 2.748228 1_555
Al14 Al7 2.819960 1_555
Al14 Al8 2.819960 1_555
Al14 Al16 2.862148 1_555
Al14 Al19 2.862148 1_555
Al14 Sm3 3.262681 1_555
Al14 Sm0 3.262681 1_555
Al14 Sm3 3.262681 1_545
Al14 Sm0 3.262681 1_545
Al15 Al8 2.819960 1_555
Al15 Al7 2.819960 1_555
Al15 Al16 2.862148 1_665
Al15 Al19 2.862148 1_665
Al15 Sm3 3.262681 1_555
Al15 Sm0 3.262681 1_555
Al15 Sm3 3.262681 1_655
Al15 Sm0 3.262681 1_655
Al16 Al3 2.779423 1_446
Al16 Al5 2.779423 1_556
Al16 Al4 2.779423 1_556
Al16 Al8 3.146411 1_455
Al16 Al8 3.146415 1_445
Al16 Al8 3.146415 1_555
Al16 Sm3 3.203284 1_545
Al16 Sm3 3.203288 1_445
Al16 Sm3 3.203288 1_555
Al17 Al3 2.779423 1_445
Al17 Al4 2.779423 1_555
Al17 Al5 2.779423 1_555
Al17 Al9 3.146411 1_545
Al17 Al9 3.146415 1_555
Al17 Al9 3.146415 1_445
Al17 Sm2 3.203284 1_455
Al17 Sm2 3.203288 1_555
Al17 Sm2 3.203288 1_445
Al18 Al2 2.779423 1_545
Al18 Al6 3.146411 1_545
Al18 Al6 3.146415 1_445
Al18 Al6 3.146415 1_555
Al18 Sm1 3.203284 1_455
Al18 Sm1 3.203288 1_445
Al18 Sm1 3.203288 1_555
Al19 Al2 2.779423 1_545
Al19 Al7 3.146411 1_455
Al19 Al7 3.146415 1_445
Al19 Al7 3.146415 1_555
Al19 Sm0 3.203284 1_545
Al19 Sm0 3.203288 1_445
Al19 Sm0 3.203288 1_555
