# generated using pymatgen
data_Th3(Si3Ru)4
_symmetry_space_group_name_H-M   'P 1'
_cell_length_a   10.16917235
_cell_length_b   10.16917235
_cell_length_c   8.33798100
_cell_angle_alpha   90.00000000
_cell_angle_beta   90.00000000
_cell_angle_gamma   131.76589995
_symmetry_Int_Tables_number   1
_chemical_formula_structural   Th3(Si3Ru)4
_chemical_formula_sum   'Th6 Si24 Ru8'
_cell_volume   643.12700623
_cell_formula_units_Z   2
loop_
 _symmetry_equiv_pos_site_id
 _symmetry_equiv_pos_as_xyz
  1  'x, y, z'
loop_
 _atom_site_type_symbol
 _atom_site_label
 _atom_site_symmetry_multiplicity
 _atom_site_fract_x
 _atom_site_fract_y
 _atom_site_fract_z
 _atom_site_occupancy
  Th  Th0  1  0.00000000  0.00000000  0.00000000  1
  Th  Th1  1  0.50000000  0.50000000  0.50000000  1
  Th  Th2  1  0.00476000  0.50476000  0.25000000  1
  Th  Th3  1  0.99524000  0.49524000  0.75000000  1
  Th  Th4  1  0.49524000  0.99524000  0.75000000  1
  Th  Th5  1  0.50476000  0.00476000  0.25000000  1
  Si  Si0  1  0.70646700  0.29353300  0.00000000  1
  Si  Si1  1  0.29353300  0.70646700  0.00000000  1
  Si  Si2  1  0.79353300  0.20646700  0.50000000  1
  Si  Si3  1  0.20646700  0.79353300  0.50000000  1
  Si  Si4  1  0.33535300  0.33535300  0.16584000  1
  Si  Si5  1  0.66464700  0.66464700  0.83416000  1
  Si  Si6  1  0.16464700  0.16464700  0.66584000  1
  Si  Si7  1  0.83535300  0.83535300  0.33416000  1
  Si  Si8  1  0.84303400  0.60645700  0.00227500  1
  Si  Si9  1  0.15696600  0.39354300  0.99772500  1
  Si  Si10  1  0.65696600  0.89354300  0.50227500  1
  Si  Si11  1  0.10645700  0.34303400  0.49772500  1
  Si  Si12  1  0.34303400  0.10645700  0.49772500  1
  Si  Si13  1  0.89354300  0.65696600  0.50227500  1
  Si  Si14  1  0.39354300  0.15696600  0.99772500  1
  Si  Si15  1  0.60645700  0.84303400  0.00227500  1
  Si  Si16  1  0.88721500  0.12292600  0.27410700  1
  Si  Si17  1  0.11278500  0.87707400  0.72589300  1
  Si  Si18  1  0.61278500  0.37707400  0.77410700  1
  Si  Si19  1  0.62292600  0.38721500  0.22589300  1
  Si  Si20  1  0.38721500  0.62292600  0.22589300  1
  Si  Si21  1  0.37707400  0.61278500  0.77410700  1
  Si  Si22  1  0.87707400  0.11278500  0.72589300  1
  Si  Si23  1  0.12292600  0.88721500  0.27410700  1
  Ru  Ru0  1  0.83500500  0.16499500  0.00000000  1
  Ru  Ru1  1  0.16499500  0.83500500  0.00000000  1
  Ru  Ru2  1  0.66499500  0.33500500  0.50000000  1
  Ru  Ru3  1  0.33500500  0.66499500  0.50000000  1
  Ru  Ru4  1  0.12799500  0.12799500  0.37418600  1
  Ru  Ru5  1  0.87200500  0.87200500  0.62581400  1
  Ru  Ru6  1  0.37200500  0.37200500  0.87418600  1
  Ru  Ru7  1  0.62799500  0.62799500  0.12581400  1
loop_
_geom_bond_atom_site_label_1
_geom_bond_atom_site_label_2
_geom_bond_distance
_geom_bond_site_symmetry_2
Si0 Si14 2.483543 1_554
Si0 Si8 2.483543 1_555
Si0 Si18 2.501003 1_554
Si0 Si19 2.501003 1_555
Si0 Th5 3.025172 1_555
Si0 Th3 3.025172 1_554
Si0 Th4 3.079025 1_544
Si0 Th2 3.079025 1_655
Si1 Si9 2.483543 1_554
Si1 Si15 2.483543 1_555
Si1 Si20 2.501003 1_555
Si1 Si21 2.501003 1_554
Si1 Th2 3.025172 1_555
Si1 Th4 3.025172 1_554
Si1 Th3 3.079025 1_454
Si1 Th5 3.079025 1_565
Si2 Si22 2.501003 1_555
Si2 Th3 3.025172 1_555
Si2 Th5 3.025172 1_555
Si2 Th2 3.079025 1_655
Si2 Th4 3.079025 1_545
Si3 Th4 3.025172 1_555
Si3 Th2 3.025172 1_555
Si3 Th5 3.079025 1_565
Si3 Th3 3.079025 1_455
Si4 Si9 2.652515 1_554
Si4 Th1 3.104057 1_555
Si4 Th0 3.111070 1_555
Si5 Si8 2.652515 1_556
Si5 Th1 3.104057 1_555
Si5 Th0 3.111070 1_666
Si6 Th0 3.104057 1_556
Si6 Th1 3.111070 1_555
Si7 Th0 3.104057 1_665
Si7 Th1 3.111070 1_555
Si8 Th0 3.170850 1_665
Si8 Th2 3.210372 1_655
Si8 Th3 3.229774 1_554
Si9 Th0 3.170850 1_556
Si9 Th3 3.210372 1_455
Si9 Th2 3.229774 1_556
Si10 Si2 2.483543 1_565
Si10 Si22 2.609442 1_565
Si10 Si7 2.652515 1_555
Si10 Si16 2.695719 1_565
Si10 Th1 3.170850 1_555
Si10 Th4 3.210372 1_555
Si10 Th5 3.229774 1_565
Si11 Si2 2.483543 1_455
Si11 Si16 2.609442 1_455
Si11 Si6 2.652515 1_555
Si11 Si22 2.695719 1_455
Si11 Th1 3.170850 1_555
Si11 Th2 3.210372 1_555
Si11 Th3 3.229774 1_455
Si12 Si3 2.483543 1_545
Si12 Si23 2.609442 1_545
Si12 Si6 2.652515 1_555
Si12 Si17 2.695719 1_545
Si12 Th1 3.170850 1_555
Si12 Th5 3.210372 1_555
Si12 Th4 3.229774 1_545
Si13 Si3 2.483543 1_655
Si13 Si17 2.609442 1_655
Si13 Si7 2.652515 1_555
Si13 Si23 2.695719 1_655
Si13 Th1 3.170850 1_555
Si13 Th3 3.210372 1_555
Si13 Th2 3.229774 1_655
Si14 Si18 2.609442 1_555
Si14 Si4 2.652515 1_556
Si14 Si19 2.695719 1_556
Si14 Th0 3.170850 1_556
Si14 Th4 3.210372 1_545
Si14 Th5 3.229774 1_556
Si15 Si20 2.609442 1_555
Si15 Si5 2.652515 1_554
Si15 Si21 2.695719 1_554
Si15 Th0 3.170850 1_665
Si15 Th5 3.210372 1_565
Si15 Th4 3.229774 1_554
Si16 Si2 2.501003 1_555
Si16 Si7 2.650706 1_545
Si16 Th0 3.164107 1_655
Si16 Th2 3.219198 1_655
Si16 Th5 3.222527 1_555
Si17 Si3 2.501003 1_555
Si17 Si6 2.650706 1_565
Si17 Th0 3.164107 1_566
Si17 Th3 3.219198 1_455
Si17 Th4 3.222527 1_555
Si18 Si5 2.650706 1_555
Si18 Si8 2.695719 1_556
Si18 Th1 3.164107 1_555
Si18 Th4 3.219198 1_545
Si18 Th3 3.222527 1_555
Si19 Si8 2.609442 1_555
Si19 Si4 2.650706 1_555
Si19 Th1 3.164107 1_555
Si19 Th2 3.219198 1_655
Si19 Th5 3.222527 1_555
Si20 Si4 2.650706 1_555
Si20 Si9 2.695719 1_554
Si20 Th1 3.164107 1_555
Si20 Th5 3.219198 1_565
Si20 Th2 3.222527 1_555
Si21 Si9 2.609442 1_555
Si21 Si5 2.650706 1_555
Si21 Th1 3.164107 1_555
Si21 Th3 3.219198 1_455
Si21 Th4 3.222527 1_555
Si22 Si6 2.650706 1_655
Si22 Th0 3.164107 1_656
Si22 Th4 3.219198 1_545
Si22 Th3 3.222527 1_555
Si23 Si3 2.501003 1_555
Si23 Si7 2.650706 1_455
Si23 Th0 3.164107 1_565
Si23 Th5 3.219198 1_565
Si23 Th2 3.222527 1_555
Ru0 Si0 2.386059 1_555
Ru0 Si9 2.446320 1_654
Ru0 Si15 2.446320 1_545
Ru0 Si16 2.447652 1_555
Ru0 Si22 2.447652 1_554
Ru0 Th0 3.062813 1_655
Ru0 Th3 3.314900 1_554
Ru0 Th5 3.314900 1_555
Ru0 Th2 3.364119 1_655
Ru0 Th4 3.364119 1_544
Ru1 Si1 2.386059 1_555
Ru1 Si14 2.446320 1_564
Ru1 Si8 2.446320 1_455
Ru1 Si17 2.447652 1_554
Ru1 Si23 2.447652 1_555
Ru1 Th0 3.062813 1_565
Ru1 Th2 3.314900 1_555
Ru1 Th4 3.314900 1_554
Ru1 Th5 3.364119 1_565
Ru1 Th3 3.364119 1_454
Ru2 Si2 2.386059 1_555
Ru2 Si13 2.446320 1_555
Ru2 Si12 2.446320 1_555
Ru2 Si19 2.447652 1_555
Ru2 Si18 2.447652 1_555
Ru2 Th1 3.062813 1_555
Ru2 Th3 3.314900 1_555
Ru2 Th5 3.314900 1_555
Ru2 Th4 3.364119 1_545
Ru2 Th2 3.364119 1_655
Ru3 Si3 2.386059 1_555
Ru3 Si11 2.446320 1_555
Ru3 Si10 2.446320 1_555
Ru3 Si20 2.447652 1_555
Ru3 Si21 2.447652 1_555
Ru3 Th1 3.062813 1_555
Ru3 Th2 3.314900 1_555
Ru3 Th4 3.314900 1_555
Ru3 Th3 3.364119 1_455
Ru3 Th5 3.364119 1_565
Ru4 Si4 2.446885 1_555
Ru4 Si6 2.450806 1_555
Ru4 Si7 2.454732 1_445
Ru4 Si23 2.554633 1_545
Ru4 Si16 2.554633 1_455
Ru4 Si11 2.555194 1_555
Ru4 Si12 2.555194 1_555
Ru4 Th1 3.264607 1_555
Ru4 Th0 3.296290 1_555
Ru5 Si5 2.446885 1_555
Ru5 Si7 2.450806 1_555
Ru5 Si6 2.454732 1_665
Ru5 Si17 2.554633 1_655
Ru5 Si22 2.554633 1_565
Ru5 Si10 2.555194 1_555
Ru5 Si13 2.555194 1_555
Ru5 Th1 3.264607 1_555
Ru5 Th0 3.296290 1_666
Ru6 Si6 2.446885 1_555
Ru6 Si4 2.450806 1_556
Ru6 Si5 2.454732 1_555
Ru6 Si21 2.554633 1_555
Ru6 Si18 2.554633 1_555
Ru6 Si14 2.555194 1_555
Ru6 Si9 2.555194 1_555
Ru6 Th0 3.264607 1_556
Ru6 Th1 3.296290 1_555
Ru7 Si7 2.446885 1_555
Ru7 Si5 2.450806 1_554
Ru7 Si4 2.454732 1_555
Ru7 Si19 2.554633 1_555
Ru7 Si20 2.554633 1_555
Ru7 Si8 2.555194 1_555
Ru7 Si15 2.555194 1_555
Ru7 Th0 3.264607 1_665
Ru7 Th1 3.296290 1_555
