# generated using pymatgen
data_RbHo2Cl7
_symmetry_space_group_name_H-M   'P 1'
_cell_length_a   6.91332307
_cell_length_b   12.56147361
_cell_length_c   13.07502911
_cell_angle_alpha   90.00000000
_cell_angle_beta   90.00000000
_cell_angle_gamma   90.00000000
_symmetry_Int_Tables_number   1
_chemical_formula_structural   RbHo2Cl7
_chemical_formula_sum   'Rb4 Ho8 Cl28'
_cell_volume   1135.45547127
_cell_formula_units_Z   4
loop_
 _symmetry_equiv_pos_site_id
 _symmetry_equiv_pos_as_xyz
  1  'x, y, z'
loop_
 _atom_site_type_symbol
 _atom_site_label
 _atom_site_symmetry_multiplicity
 _atom_site_fract_x
 _atom_site_fract_y
 _atom_site_fract_z
 _atom_site_occupancy
  Rb  Rb0  1  0.25000000  0.80448474  0.04065548  1
  Rb  Rb1  1  0.75000000  0.19551526  0.95934452  1
  Rb  Rb2  1  0.75000000  0.30448474  0.45934452  1
  Rb  Rb3  1  0.25000000  0.69551526  0.54065548  1
  Ho  Ho0  1  0.25000000  0.45990885  0.23772054  1
  Ho  Ho1  1  0.75000000  0.54009115  0.76227946  1
  Ho  Ho2  1  0.75000000  0.95990885  0.26227946  1
  Ho  Ho3  1  0.25000000  0.04009115  0.73772054  1
  Ho  Ho4  1  0.25000000  0.15714816  0.24860942  1
  Ho  Ho5  1  0.75000000  0.84285184  0.75139058  1
  Ho  Ho6  1  0.75000000  0.65714816  0.25139058  1
  Ho  Ho7  1  0.25000000  0.34285184  0.74860942  1
  Cl  Cl0  1  0.00738590  0.30689178  0.17482058  1
  Cl  Cl1  1  0.99261410  0.69310822  0.82517942  1
  Cl  Cl2  1  0.99261410  0.80689178  0.32517942  1
  Cl  Cl3  1  0.50738590  0.69310822  0.82517942  1
  Cl  Cl4  1  0.00738590  0.19310822  0.67482058  1
  Cl  Cl5  1  0.49261410  0.30689178  0.17482058  1
  Cl  Cl6  1  0.49261410  0.19310822  0.67482058  1
  Cl  Cl7  1  0.50738590  0.80689178  0.32517942  1
  Cl  Cl8  1  0.01019200  0.57802493  0.12159122  1
  Cl  Cl9  1  0.98980800  0.42197507  0.87840878  1
  Cl  Cl10  1  0.98980800  0.07802493  0.37840878  1
  Cl  Cl11  1  0.51019200  0.42197507  0.87840878  1
  Cl  Cl12  1  0.01019200  0.92197507  0.62159122  1
  Cl  Cl13  1  0.48980800  0.57802493  0.12159122  1
  Cl  Cl14  1  0.48980800  0.92197507  0.62159122  1
  Cl  Cl15  1  0.51019200  0.07802493  0.37840878  1
  Cl  Cl16  1  0.00983288  0.03933570  0.13049536  1
  Cl  Cl17  1  0.99016712  0.96066430  0.86950464  1
  Cl  Cl18  1  0.99016712  0.53933570  0.36950464  1
  Cl  Cl19  1  0.50983288  0.96066430  0.86950464  1
  Cl  Cl20  1  0.00983288  0.46066430  0.63049536  1
  Cl  Cl21  1  0.49016712  0.03933570  0.13049536  1
  Cl  Cl22  1  0.49016712  0.46066430  0.63049536  1
  Cl  Cl23  1  0.50983288  0.53933570  0.36950464  1
  Cl  Cl24  1  0.25000000  0.31115174  0.39384182  1
  Cl  Cl25  1  0.75000000  0.68884826  0.60615818  1
  Cl  Cl26  1  0.75000000  0.81115174  0.10615818  1
  Cl  Cl27  1  0.25000000  0.18884826  0.89384182  1
loop_
_geom_bond_atom_site_label_1
_geom_bond_atom_site_label_2
_geom_bond_distance
_geom_bond_site_symmetry_2
Cl0 Ho0 2.680327 1_555
Cl0 Ho4 2.698559 1_555
Cl0 Rb1 3.614011 1_454
Cl1 Ho1 2.680327 1_555
Cl1 Ho5 2.698559 1_555
Cl1 Rb0 3.614011 1_656
Cl2 Ho2 2.680327 1_555
Cl2 Ho6 2.698559 1_555
Cl2 Rb3 3.614011 1_655
Cl3 Ho1 2.680327 1_555
Cl3 Ho5 2.698559 1_555
Cl3 Rb0 3.614011 1_556
Cl4 Ho3 2.680327 1_555
Cl4 Ho7 2.698559 1_555
Cl4 Rb2 3.614011 1_455
Cl5 Ho0 2.680327 1_555
Cl5 Ho4 2.698559 1_555
Cl5 Rb1 3.614011 1_554
Cl6 Ho3 2.680327 1_555
Cl6 Ho7 2.698559 1_555
Cl6 Rb2 3.614011 1_555
Cl7 Ho2 2.680327 1_555
Cl7 Ho6 2.698559 1_555
Cl7 Rb3 3.614011 1_555
Cl8 Ho6 2.665286 1_455
Cl8 Ho0 2.693595 1_555
Cl8 Rb0 3.458401 1_555
Cl9 Ho7 2.665286 1_655
Cl9 Ho1 2.693595 1_555
Cl9 Rb1 3.458401 1_555
Cl10 Ho4 2.665286 1_655
Cl10 Ho2 2.693595 1_545
Cl10 Rb2 3.458401 1_555
Cl11 Ho7 2.665286 1_555
Cl11 Ho1 2.693595 1_555
Cl11 Rb1 3.458401 1_555
Cl12 Ho5 2.665286 1_455
Cl12 Ho3 2.693595 1_565
Cl12 Rb3 3.458401 1_555
Cl13 Ho6 2.665286 1_555
Cl13 Ho0 2.693595 1_555
Cl13 Rb0 3.458401 1_555
Cl14 Ho5 2.665286 1_555
Cl14 Ho3 2.693595 1_565
Cl14 Rb3 3.458401 1_555
Cl15 Ho4 2.665286 1_555
Cl15 Ho2 2.693595 1_545
Cl15 Rb2 3.458401 1_555
Cl16 Ho2 2.681637 1_445
Cl16 Ho4 2.707743 1_555
Cl16 Rb1 3.476107 1_454
Cl16 Rb0 3.583229 1_545
Cl17 Ho3 2.681637 1_665
Cl17 Ho5 2.707743 1_555
Cl17 Rb0 3.476107 1_656
Cl17 Rb1 3.583229 1_565
Cl18 Ho0 2.681637 1_655
Cl18 Ho6 2.707743 1_555
Cl18 Rb3 3.476107 1_655
Cl18 Rb2 3.583229 1_555
Cl19 Ho3 2.681637 1_565
Cl19 Ho5 2.707743 1_555
Cl19 Rb0 3.476107 1_556
Cl19 Rb1 3.583229 1_565
Cl20 Ho1 2.681637 1_455
Cl20 Ho7 2.707743 1_555
Cl20 Rb2 3.476107 1_455
Cl20 Rb3 3.583229 1_555
Cl21 Ho2 2.681637 1_545
Cl21 Ho4 2.707743 1_555
Cl21 Rb1 3.476107 1_554
Cl21 Rb0 3.583229 1_545
Cl22 Ho1 2.681637 1_555
Cl22 Ho7 2.707743 1_555
Cl22 Rb2 3.476107 1_555
Cl22 Rb3 3.583229 1_555
Cl23 Ho0 2.681637 1_555
Cl23 Ho6 2.707743 1_555
Cl23 Rb3 3.476107 1_555
Cl23 Rb2 3.583229 1_555
Cl24 Ho4 2.710761 1_555
Cl24 Ho0 2.767411 1_555
Cl24 Rb2 3.562166 1_555
Cl24 Rb2 3.562166 1_455
Cl25 Ho5 2.710761 1_555
Cl25 Ho1 2.767411 1_555
Cl25 Rb3 3.562166 1_655
Cl25 Rb3 3.562166 1_555
Cl26 Ho6 2.710761 1_555
Cl26 Ho2 2.767411 1_555
Cl26 Rb0 3.562166 1_655
Cl26 Rb0 3.562166 1_555
Cl27 Ho7 2.710761 1_555
Cl27 Ho3 2.767411 1_555
Cl27 Rb1 3.562166 1_455
Cl27 Rb1 3.562166 1_555
