# generated using pymatgen
data_Rb8AsO3
_symmetry_space_group_name_H-M   'P 1'
_cell_length_a   7.31648800
_cell_length_b   7.31648800
_cell_length_c   7.31648800
_cell_angle_alpha   90.00000000
_cell_angle_beta   90.00000000
_cell_angle_gamma   90.00000000
_symmetry_Int_Tables_number   1
_chemical_formula_structural   Rb8AsO3
_chemical_formula_sum   'Rb8 As1 O3'
_cell_volume   391.65889465
_cell_formula_units_Z   1
loop_
 _symmetry_equiv_pos_site_id
 _symmetry_equiv_pos_as_xyz
  1  'x, y, z'
loop_
 _atom_site_type_symbol
 _atom_site_label
 _atom_site_symmetry_multiplicity
 _atom_site_fract_x
 _atom_site_fract_y
 _atom_site_fract_z
 _atom_site_occupancy
  Rb  Rb0  1  0.26381500  0.26381500  0.26381500  1
  Rb  Rb1  1  0.73618500  0.73618500  0.26381500  1
  Rb  Rb2  1  0.73618500  0.26381500  0.73618500  1
  Rb  Rb3  1  0.26381500  0.73618500  0.73618500  1
  Rb  Rb4  1  0.26381500  0.26381500  0.73618500  1
  Rb  Rb5  1  0.73618500  0.73618500  0.73618500  1
  Rb  Rb6  1  0.73618500  0.26381500  0.26381500  1
  Rb  Rb7  1  0.26381500  0.73618500  0.26381500  1
  As  As0  1  0.00000000  0.00000000  0.00000000  1
  O  O0  1  0.00000000  0.50000000  0.50000000  1
  O  O1  1  0.50000000  0.50000000  0.00000000  1
  O  O2  1  0.50000000  0.00000000  0.50000000  1
loop_
_geom_bond_atom_site_label_1
_geom_bond_atom_site_label_2
_geom_bond_distance
_geom_bond_site_symmetry_2
As0 Rb5 3.343203 1_444
As0 Rb4 3.343203 1_554
As0 Rb2 3.343203 1_454
As0 Rb1 3.343203 1_445
As0 Rb3 3.343203 1_544
As0 Rb7 3.343203 1_545
As0 Rb6 3.343203 1_455
As0 Rb0 3.343203 1_555
O0 Rb0 3.114153 1_555
O0 Rb1 3.114153 1_455
O0 Rb4 3.114153 1_555
O0 Rb3 3.114153 1_555
O0 Rb5 3.114153 1_455
O0 Rb2 3.114153 1_455
O0 Rb6 3.114153 1_455
O0 Rb7 3.114153 1_555
O1 Rb3 3.114153 1_554
O1 Rb1 3.114153 1_555
O1 Rb0 3.114153 1_555
O1 Rb4 3.114153 1_554
O1 Rb6 3.114153 1_555
O1 Rb5 3.114153 1_554
O1 Rb2 3.114153 1_554
O1 Rb7 3.114153 1_555
O2 Rb5 3.114153 1_545
O2 Rb0 3.114153 1_555
O2 Rb2 3.114153 1_555
O2 Rb4 3.114153 1_555
O2 Rb3 3.114153 1_545
O2 Rb6 3.114153 1_555
O2 Rb1 3.114153 1_545
O2 Rb7 3.114153 1_545
