# generated using pymatgen
data_Ta6Be15Ni8
_symmetry_space_group_name_H-M   'P 1'
_cell_length_a   7.51877672
_cell_length_b   7.51877285
_cell_length_c   7.51877386
_cell_angle_alpha   60.00232295
_cell_angle_beta   60.00234118
_cell_angle_gamma   60.00233138
_symmetry_Int_Tables_number   1
_chemical_formula_structural   Ta6Be15Ni8
_chemical_formula_sum   'Ta6 Be15 Ni8'
_cell_volume   300.57242631
_cell_formula_units_Z   1
loop_
 _symmetry_equiv_pos_site_id
 _symmetry_equiv_pos_as_xyz
  1  'x, y, z'
loop_
 _atom_site_type_symbol
 _atom_site_label
 _atom_site_symmetry_multiplicity
 _atom_site_fract_x
 _atom_site_fract_y
 _atom_site_fract_z
 _atom_site_occupancy
  Ta  Ta0  1  0.70343029  0.29657091  0.29657091  1
  Ta  Ta1  1  0.29657239  0.70342517  0.70342565  1
  Ta  Ta2  1  0.29657112  0.70342726  0.29657552  1
  Ta  Ta3  1  0.70342833  0.29657225  0.70342716  1
  Ta  Ta4  1  0.29657159  0.29657614  0.70342684  1
  Ta  Ta5  1  0.70342982  0.70342780  0.29657156  1
  Be  Be0  1  0.32663986  0.32664188  0.32664147  1
  Be  Be1  1  0.67336007  0.67335931  0.67335949  1
  Be  Be2  1  0.32664388  0.32664584  0.02006907  1
  Be  Be3  1  0.32664438  0.02006827  0.32664621  1
  Be  Be4  1  0.67335576  0.67335485  0.97993018  1
  Be  Be5  1  0.67335588  0.97992967  0.67335485  1
  Be  Be6  1  0.02006735  0.32664582  0.32664570  1
  Be  Be7  1  0.97992869  0.67335570  0.67335547  1
  Be  Be8  1  0.50000260  -0.00000004  -0.00000016  1
  Be  Be9  1  -0.00000259  0.50000343  0.50000103  1
  Be  Be10  1  -0.00000242  0.50000110  -0.00000058  1
  Be  Be11  1  0.50000399  -0.00000076  0.49999790  1
  Be  Be12  1  -0.00000253  -0.00000123  0.50000070  1
  Be  Be13  1  0.50000269  0.49999824  -0.00000019  1
  Be  Be14  1  0.99999768  0.00000037  0.00000155  1
  Ni  Ni0  1  0.12223560  0.12224262  0.12224184  1
  Ni  Ni1  1  0.87776027  0.87775305  0.87775340  1
  Ni  Ni2  1  0.12223097  0.12223808  0.63328783  1
  Ni  Ni3  1  0.12223178  0.63328718  0.12223724  1
  Ni  Ni4  1  0.87776484  0.87775807  0.36672517  1
  Ni  Ni5  1  0.87776409  0.36672574  0.87775823  1
  Ni  Ni6  1  0.63328990  0.12223536  0.12223417  1
  Ni  Ni7  1  0.36672173  0.87776091  0.87776176  1
loop_
_geom_bond_atom_site_label_1
_geom_bond_atom_site_label_2
_geom_bond_distance
_geom_bond_site_symmetry_2
Be0 Be13 2.174062 1_555
Be0 Be11 2.174069 1_555
Be0 Be9 2.174070 1_555
Be0 Be2 2.305019 1_555
Be0 Be6 2.305020 1_555
Be0 Be3 2.305023 1_555
Be0 Ni3 2.305488 1_555
Be0 Ni2 2.305492 1_555
Be0 Ni6 2.305506 1_555
Be0 Ta2 2.626442 1_555
Be0 Ta4 2.626445 1_555
Be0 Ta0 2.626460 1_555
Be1 Be9 2.174033 1_655
Be1 Be11 2.174051 1_565
Be1 Be13 2.174055 1_556
Be1 Be7 2.304992 1_555
Be1 Be5 2.305000 1_555
Be1 Be4 2.305003 1_555
Be1 Ni5 2.305423 1_555
Be1 Ni4 2.305428 1_555
Be1 Ni7 2.305439 1_555
Be1 Ta5 2.626451 1_555
Be1 Ta3 2.626451 1_555
Be1 Ta1 2.626469 1_555
Be2 Be8 2.174041 1_555
Be2 Be6 2.305162 1_555
Be2 Be3 2.305167 1_555
Be2 Ni0 2.305397 1_555
Be2 Ni3 2.305440 1_555
Be2 Ni6 2.305459 1_555
Be2 Ta4 2.626380 1_554
Be2 Ta1 2.626468 1_554
Be2 Ta3 2.626488 1_554
Be3 Be8 2.174042 1_555
Be3 Be6 2.305167 1_555
Be3 Ni0 2.305403 1_555
Be3 Ni2 2.305449 1_555
Be3 Ni6 2.305464 1_555
Be3 Ta2 2.626379 1_545
Be3 Ta1 2.626468 1_545
Be3 Ta5 2.626487 1_545
Be4 Be8 2.174037 1_566
Be4 Be7 2.305141 1_555
Be4 Be5 2.305149 1_555
Be4 Ni1 2.305332 1_555
Be4 Ni5 2.305378 1_555
Be4 Ni7 2.305396 1_555
Be4 Ta5 2.626395 1_556
Be4 Ta0 2.626480 1_556
Be4 Ta2 2.626499 1_556
Be5 Be8 2.174038 1_566
Be5 Be7 2.305138 1_555
Be5 Ni1 2.305333 1_555
Be5 Ni4 2.305381 1_555
Be5 Ni7 2.305399 1_555
Be5 Ta3 2.626394 1_565
Be5 Ta0 2.626482 1_565
Be5 Ta4 2.626501 1_565
Be6 Be9 2.173954 1_555
Be6 Ni0 2.305380 1_555
Be6 Ni3 2.305426 1_555
Be6 Ni2 2.305428 1_555
Be6 Ta0 2.626376 1_455
Be6 Ta5 2.626463 1_455
Be6 Ta3 2.626465 1_455
Be7 Be9 2.173918 1_655
Be7 Ni1 2.305306 1_555
Be7 Ni4 2.305355 1_555
Be7 Ni5 2.305356 1_555
Be7 Ta1 2.626381 1_655
Be7 Ta4 2.626468 1_655
Be7 Ta2 2.626469 1_655
Be8 Ni6 2.319526 1_555
Be8 Ni7 2.319531 1_544
Be8 Ni1 2.319635 1_544
Be8 Ni0 2.319694 1_555
Be8 Ta3 2.704078 1_554
Be8 Ta5 2.704080 1_545
Be8 Ta4 2.704107 1_554
Be8 Ta2 2.704107 1_545
Be9 Ni4 2.319619 1_455
Be9 Ni5 2.319635 1_455
Be9 Ni3 2.319676 1_555
Be9 Ni2 2.319686 1_555
Be9 Ta5 2.704035 1_455
Be9 Ta2 2.704043 1_555
Be9 Ta3 2.704052 1_455
Be9 Ta4 2.704054 1_555
Be10 Be4 2.174015 1_454
Be10 Be7 2.174027 1_454
Be10 Be6 2.174045 1_555
Be10 Be2 2.174046 1_555
Be10 Ni5 2.319482 1_454
Be10 Ni3 2.319532 1_555
Be10 Ni1 2.319599 1_454
Be10 Ni0 2.319640 1_555
Be10 Ta0 2.704070 1_455
Be10 Ta5 2.704076 1_455
Be10 Ta4 2.704077 1_554
Be10 Ta1 2.704085 1_554
Be11 Be5 2.173929 1_545
Be11 Be3 2.173947 1_555
Be11 Ni4 2.319658 1_545
Be11 Ni6 2.319676 1_555
Be11 Ni7 2.319677 1_545
Be11 Ni2 2.319735 1_555
Be11 Ta5 2.704041 1_545
Be11 Ta0 2.704041 1_555
Be11 Ta4 2.704082 1_555
Be11 Ta1 2.704083 1_545
Be12 Be5 2.174014 1_445
Be12 Be7 2.174021 1_445
Be12 Be3 2.174049 1_555
Be12 Be6 2.174050 1_555
Be12 Ni4 2.319475 1_445
Be12 Ni2 2.319544 1_555
Be12 Ni1 2.319604 1_445
Be12 Ni0 2.319643 1_555
Be12 Ta0 2.704068 1_455
Be12 Ta2 2.704072 1_545
Be12 Ta3 2.704084 1_455
Be12 Ta1 2.704089 1_545
Be13 Be4 2.173934 1_554
Be13 Be2 2.173946 1_555
Be13 Ni5 2.319661 1_554
Be13 Ni7 2.319669 1_554
Be13 Ni6 2.319671 1_555
Be13 Ni3 2.319722 1_555
Be13 Ta0 2.704044 1_555
Be13 Ta3 2.704047 1_554
Be13 Ta2 2.704076 1_555
Be13 Ta1 2.704077 1_554
Be14 Ni0 2.251277 1_655
Be14 Ni6 2.251306 1_555
Be14 Ni3 2.251337 1_645
Be14 Ni2 2.251341 1_654
Be14 Ni1 2.251353 1_544
Be14 Ni4 2.251402 1_545
Be14 Ni7 2.251406 1_644
Be14 Ni5 2.251412 1_554
Ni0 Ta0 2.610629 1_455
Ni0 Ta4 2.610693 1_554
Ni0 Ta2 2.610694 1_545
Ni1 Ta1 2.610663 1_655
Ni1 Ta5 2.610694 1_556
Ni1 Ta3 2.610702 1_565
Ni2 Ta4 2.610588 1_555
Ni2 Ta3 2.610602 1_455
Ni2 Ta1 2.610668 1_545
Ni3 Ta2 2.610586 1_555
Ni3 Ta5 2.610596 1_455
Ni3 Ta1 2.610660 1_554
Ni4 Ta5 2.610579 1_555
Ni4 Ta2 2.610614 1_655
Ni4 Ta0 2.610649 1_565
Ni5 Ta3 2.610588 1_555
Ni5 Ta4 2.610622 1_655
Ni5 Ta0 2.610648 1_556
Ni6 Ta0 2.610554 1_555
Ni6 Ta3 2.610630 1_554
Ni6 Ta5 2.610631 1_545
Ni7 Ta1 2.610598 1_555
Ni7 Ta2 2.610659 1_556
Ni7 Ta4 2.610669 1_565
