# generated using pymatgen
data_Mg6BiW
_symmetry_space_group_name_H-M   'P 1'
_cell_length_a   5.18516500
_cell_length_b   6.09403400
_cell_length_c   10.83976900
_cell_angle_alpha   90.00000000
_cell_angle_beta   90.00000000
_cell_angle_gamma   90.00000000
_symmetry_Int_Tables_number   1
_chemical_formula_structural   Mg6BiW
_chemical_formula_sum   'Mg12 Bi2 W2'
_cell_volume   342.52121910
_cell_formula_units_Z   2
loop_
 _symmetry_equiv_pos_site_id
 _symmetry_equiv_pos_as_xyz
  1  'x, y, z'
loop_
 _atom_site_type_symbol
 _atom_site_label
 _atom_site_symmetry_multiplicity
 _atom_site_fract_x
 _atom_site_fract_y
 _atom_site_fract_z
 _atom_site_occupancy
  Mg  Mg0  1  0.50000000  0.24803300  0.41683200  1
  Mg  Mg1  1  0.50000000  0.75196700  0.41683200  1
  Mg  Mg2  1  0.00000000  0.76733300  0.08526800  1
  Mg  Mg3  1  0.00000000  0.23266700  0.08526800  1
  Mg  Mg4  1  0.00000000  0.00000000  0.32444000  1
  Mg  Mg5  1  0.00000000  0.50000000  0.33759900  1
  Mg  Mg6  1  0.50000000  0.74803300  0.91683200  1
  Mg  Mg7  1  0.50000000  0.25196700  0.91683200  1
  Mg  Mg8  1  0.00000000  0.26733300  0.58526800  1
  Mg  Mg9  1  0.00000000  0.73266700  0.58526800  1
  Mg  Mg10  1  0.00000000  0.50000000  0.82444000  1
  Mg  Mg11  1  0.00000000  0.00000000  0.83759900  1
  Bi  Bi0  1  0.50000000  0.50000000  0.16917400  1
  Bi  Bi1  1  0.50000000  0.00000000  0.66917400  1
  W  W0  1  0.50000000  0.00000000  0.16458400  1
  W  W1  1  0.50000000  0.50000000  0.66458400  1
loop_
_geom_bond_atom_site_label_1
_geom_bond_atom_site_label_2
_geom_bond_distance
_geom_bond_site_symmetry_2
Mg0 Mg1 3.023043 1_545
Mg0 Mg1 3.070991 1_555
Mg0 W1 3.093551 1_555
Mg0 W0 3.124284 1_555
Mg0 Mg5 3.133191 1_655
Mg0 Mg5 3.133191 1_555
Mg0 Mg4 3.163732 1_655
Mg0 Mg4 3.163732 1_555
Mg0 Mg8 3.173151 1_555
Mg0 Mg8 3.173151 1_655
Mg1 W1 3.093551 1_555
Mg1 W0 3.124284 1_565
Mg1 Mg5 3.133191 1_655
Mg1 Mg5 3.133191 1_555
Mg1 Mg4 3.163732 1_565
Mg1 Mg4 3.163732 1_665
Mg1 Mg9 3.173151 1_555
Mg1 Mg9 3.173151 1_655
Mg2 Mg3 2.835761 1_565
Mg2 Mg4 2.954962 1_565
Mg2 W0 3.077510 1_565
Mg2 W0 3.077510 1_465
Mg2 Mg6 3.173151 1_454
Mg2 Mg6 3.173151 1_554
Mg2 Mg5 3.183623 1_555
Mg2 Mg3 3.258273 1_555
Mg3 Mg4 2.954962 1_555
Mg3 W0 3.077510 1_555
Mg3 W0 3.077510 1_455
Mg3 Mg7 3.173151 1_554
Mg3 Mg7 3.173151 1_454
Mg3 Mg5 3.183623 1_555
Mg4 Mg5 3.050354 1_545
Mg4 Mg5 3.050354 1_555
Mg4 W0 3.118347 1_455
Mg4 W0 3.118347 1_555
Mg4 Mg8 3.263096 1_555
Mg4 Mg9 3.263096 1_545
Mg5 Mg9 3.036094 1_555
Mg5 Mg8 3.036094 1_555
Mg6 Mg7 3.023043 1_555
Mg6 Mg7 3.070991 1_565
Mg6 W0 3.093551 1_566
Mg6 W1 3.124284 1_555
Mg7 W0 3.093551 1_556
Mg7 W1 3.124284 1_555
Mg8 Mg9 2.835761 1_555
Mg8 W1 3.077510 1_455
Mg8 W1 3.077510 1_555
Mg8 Mg9 3.258273 1_545
Mg9 W1 3.077510 1_455
Mg9 W1 3.077510 1_555
Mg10 Mg9 2.954962 1_555
Mg10 Mg8 2.954962 1_555
Mg10 Mg11 3.050354 1_565
Mg10 Mg11 3.050354 1_555
Mg10 W1 3.118347 1_455
Mg10 W1 3.118347 1_555
Mg10 Mg6 3.163732 1_555
Mg10 Mg7 3.163732 1_455
Mg10 Mg7 3.163732 1_555
Mg10 Mg6 3.163732 1_455
Mg10 Mg3 3.263096 1_556
Mg10 Mg2 3.263096 1_556
Mg11 Mg2 3.036094 1_546
Mg11 Mg3 3.036094 1_556
Mg11 Mg7 3.133191 1_455
Mg11 Mg6 3.133191 1_545
Mg11 Mg7 3.133191 1_555
Mg11 Mg6 3.133191 1_445
Mg11 Mg8 3.183623 1_555
Mg11 Mg9 3.183623 1_545
Bi0 W0 3.047423 1_555
Bi0 W0 3.047423 1_565
Bi0 Mg1 3.092666 1_555
Bi0 Mg0 3.092666 1_555
Bi0 Mg7 3.125176 1_554
Bi0 Mg6 3.125176 1_554
Bi0 Mg5 3.170902 1_655
Bi0 Mg5 3.170902 1_555
Bi0 Mg3 3.194182 1_655
Bi0 Mg2 3.194182 1_555
Bi0 Mg2 3.194182 1_655
Bi0 Mg3 3.194182 1_555
Bi1 W1 3.047423 1_545
Bi1 W1 3.047423 1_555
Bi1 Mg6 3.092666 1_545
Bi1 Mg7 3.092666 1_555
Bi1 Mg1 3.125176 1_545
Bi1 Mg0 3.125176 1_555
Bi1 Mg11 3.170902 1_655
Bi1 Mg11 3.170902 1_555
Bi1 Mg8 3.194182 1_555
Bi1 Mg9 3.194182 1_645
Bi1 Mg9 3.194182 1_545
Bi1 Mg8 3.194182 1_655
