# generated using pymatgen
data_K2W2O5
_symmetry_space_group_name_H-M   'P 1'
_cell_length_a   5.83249632
_cell_length_b   5.82295928
_cell_length_c   9.00617982
_cell_angle_alpha   109.10572987
_cell_angle_beta   109.06469836
_cell_angle_gamma   89.62125123
_symmetry_Int_Tables_number   1
_chemical_formula_structural   K2W2O5
_chemical_formula_sum   'K4 W4 O10'
_cell_volume   271.44176685
_cell_formula_units_Z   2
loop_
 _symmetry_equiv_pos_site_id
 _symmetry_equiv_pos_as_xyz
  1  'x, y, z'
loop_
 _atom_site_type_symbol
 _atom_site_label
 _atom_site_symmetry_multiplicity
 _atom_site_fract_x
 _atom_site_fract_y
 _atom_site_fract_z
 _atom_site_occupancy
  K  K0  1  0.39506500  0.86624500  0.75680300  1
  K  K1  1  0.64209900  0.12531300  0.24444700  1
  K  K2  1  0.89817900  0.38092800  0.75629300  1
  K  K3  1  0.13681700  0.61209200  0.24397100  1
  W  W0  1  0.01774000  0.00087900  0.99962000  1
  W  W1  1  0.51806000  0.50138700  0.00137200  1
  W  W2  1  0.75997800  0.73057700  0.49994200  1
  W  W3  1  0.27781500  0.22235200  0.50034700  1
  O  O0  1  0.77057400  0.25639500  0.00910400  1
  O  O1  1  0.77801900  0.76027800  0.98940300  1
  O  O2  1  0.25845900  0.24120900  0.01085500  1
  O  O3  1  0.26369600  0.74462100  0.99082400  1
  O  O4  1  0.88690300  0.90061900  0.73884900  1
  O  O5  1  0.15029000  0.10553500  0.26103600  1
  O  O6  1  0.38351900  0.34004200  0.73910800  1
  O  O7  1  0.65071900  0.66445000  0.26110600  1
  O  O8  1  0.01643700  0.52467600  0.50106700  1
  O  O9  1  0.50883500  0.52239700  0.49585600  1
loop_
_geom_bond_atom_site_label_1
_geom_bond_atom_site_label_2
_geom_bond_distance
_geom_bond_site_symmetry_2
K0 O1 2.743949 1_555
K0 O3 2.751368 1_555
K0 O8 2.806063 1_555
K0 O9 2.809480 1_555
K0 O6 2.814217 1_565
K0 O2 2.921434 1_566
K0 O4 2.924192 1_455
K0 O0 2.925163 1_566
K0 O4 2.937196 1_555
K0 O6 3.015701 1_555
K1 O7 2.735605 1_545
K1 O2 2.778903 1_555
K1 O0 2.782216 1_555
K1 O1 2.897203 1_544
K1 O3 2.908465 1_544
K1 O5 2.922066 1_655
K1 O5 2.925633 1_555
K1 O8 2.961184 1_655
K1 O9 2.962416 1_555
K1 O7 3.093464 1_555
K2 O4 2.749410 1_545
K2 O3 2.771476 1_655
K2 O1 2.771837 1_555
K2 O6 2.889104 1_655
K2 O2 2.895670 1_656
K2 O0 2.908407 1_556
K2 O8 2.960213 1_655
K2 O6 2.961922 1_555
K2 O9 3.016202 1_555
K2 O4 3.080319 1_555
K3 O2 2.749525 1_555
K3 O0 2.750622 1_455
K3 O9 2.769850 1_555
K3 O8 2.819875 1_555
K3 O5 2.826951 1_565
K3 O7 2.898020 1_455
K3 O1 2.918421 1_454
K3 O3 2.933008 1_554
K3 O7 2.963085 1_555
K3 O5 3.002683 1_555
O0 W1 2.044341 1_555
O0 W0 2.065939 1_654
O1 W0 1.945158 1_665
O1 W1 2.196923 1_556
O2 W0 1.944304 1_554
O2 W1 2.189659 1_555
O3 W1 2.045551 1_556
O3 W0 2.063815 1_565
O4 W2 1.931960 1_555
O4 W0 2.091984 1_665
O5 W3 1.913340 1_555
O5 W0 2.095235 1_554
O6 W3 1.910103 1_555
O6 W1 2.103261 1_556
O7 W2 1.935652 1_555
O7 W1 2.084584 1_555
O8 W2 1.910324 1_455
O8 W3 2.320923 1_555
O9 W2 1.890902 1_555
O9 W3 2.232197 1_555
