# generated using pymatgen
data_Li7Mn5O12
_symmetry_space_group_name_H-M   'P 1'
_cell_length_a   5.31043198
_cell_length_b   7.82618688
_cell_length_c   6.06517648
_cell_angle_alpha   75.32976811
_cell_angle_beta   68.68627400
_cell_angle_gamma   73.90104218
_symmetry_Int_Tables_number   1
_chemical_formula_structural   Li7Mn5O12
_chemical_formula_sum   'Li7 Mn5 O12'
_cell_volume   222.32433653
_cell_formula_units_Z   1
loop_
 _symmetry_equiv_pos_site_id
 _symmetry_equiv_pos_as_xyz
  1  'x, y, z'
loop_
 _atom_site_type_symbol
 _atom_site_label
 _atom_site_symmetry_multiplicity
 _atom_site_fract_x
 _atom_site_fract_y
 _atom_site_fract_z
 _atom_site_occupancy
  Li  Li0  1  0.50756600  0.15858000  0.82332000  1
  Li  Li1  1  0.48261400  0.48814600  0.98721100  1
  Li  Li2  1  0.49167600  0.84412100  0.17316800  1
  Li  Li3  1  0.52460700  0.16880800  0.35822100  1
  Li  Li4  1  0.49704100  0.49565600  0.49915000  1
  Li  Li5  1  0.49392500  0.83814100  0.65301100  1
  Li  Li6  1  0.99522200  0.00213400  0.49779500  1
  Mn  Mn0  1  0.00015500  0.00003200  0.99931900  1
  Mn  Mn1  1  0.99984100  0.67128400  0.83493500  1
  Mn  Mn2  1  0.00067700  0.32855100  0.16996300  1
  Mn  Mn3  1  0.00511000  0.67033900  0.34038700  1
  Mn  Mn4  1  0.99497400  0.32762600  0.65988400  1
  O  O0  1  0.23294600  0.08615600  0.67983000  1
  O  O1  1  0.22694400  0.42740900  0.84927800  1
  O  O2  1  0.23858900  0.76068500  0.02186700  1
  O  O3  1  0.20731600  0.08423400  0.14031100  1
  O  O4  1  0.23622800  0.42642200  0.34692000  1
  O  O5  1  0.21172400  0.73834800  0.49811000  1
  O  O6  1  0.76228800  0.23938200  0.98109700  1
  O  O7  1  0.80212900  0.58809900  0.17709000  1
  O  O8  1  0.76850000  0.90643800  0.32060900  1
  O  O9  1  0.76145700  0.25486500  0.48046900  1
  O  O10  1  0.76607600  0.58068800  0.65375800  1
  O  O11  1  0.79239600  0.91385600  0.85429700  1
loop_
_geom_bond_atom_site_label_1
_geom_bond_atom_site_label_2
_geom_bond_distance
_geom_bond_site_symmetry_2
Li0 O3 2.072844 1_556
Li0 O11 2.099776 1_545
Li0 O9 2.107472 1_555
Li0 O0 2.199177 1_555
Li0 O6 2.206195 1_555
Li0 O1 2.220446 1_555
Li1 O1 2.038203 1_555
Li1 O6 2.095332 1_555
Li1 O4 2.108721 1_556
Li1 O10 2.128468 1_555
Li1 O2 2.183822 1_556
Li2 O11 2.071724 1_554
Li2 O3 2.075243 1_565
Li2 O5 2.122695 1_555
Li2 O2 2.182122 1_555
Li2 O8 2.184670 1_555
Li2 O7 2.214870 1_555
Li3 O9 1.996506 1_555
Li3 O0 2.083871 1_555
Li3 O8 2.119752 1_545
Li3 O4 2.169957 1_555
Li3 O6 2.185872 1_554
Li4 O9 2.015127 1_555
Li4 O5 2.075606 1_555
Li4 O1 2.118572 1_555
Li4 O7 2.144190 1_555
Li4 O4 2.159538 1_555
Li4 O10 2.276098 1_555
Li5 O0 2.053991 1_565
Li5 O8 2.055670 1_555
Li5 O10 2.129232 1_555
Li5 O2 2.185124 1_556
Li5 O5 2.404727 1_555
Li5 O11 2.578332 1_555
Li6 O9 2.022890 1_555
Li6 O5 2.065677 1_645
Li6 O11 2.067796 1_545
Li6 O3 2.074363 1_655
Li6 O8 2.239139 1_545
Li6 O0 2.255309 1_655
Mn0 O3 1.935753 1_556
Mn0 O0 1.948489 1_555
Mn0 O6 1.949630 1_455
Mn0 O2 1.952296 1_546
Mn0 O11 1.965800 1_445
Mn0 O8 1.970111 1_446
Mn1 O11 1.921034 1_555
Mn1 O1 1.954593 1_655
Mn1 O5 1.956630 1_655
Mn1 O7 1.985858 1_556
Mn1 O10 2.264003 1_555
Mn1 O2 2.306766 1_656
Mn2 O9 1.900030 1_455
Mn2 O3 1.938964 1_555
Mn2 O1 1.969737 1_554
Mn2 O7 2.015736 1_455
Mn2 O4 2.286268 1_555
Mn2 O6 2.313190 1_454
Mn3 O8 1.927973 1_455
Mn3 O5 1.935734 1_555
Mn3 O10 1.944397 1_455
Mn3 O2 1.955111 1_555
Mn3 O4 1.962053 1_555
Mn3 O7 2.010182 1_455
Mn4 O6 1.959877 1_555
Mn4 O0 1.963116 1_655
Mn4 O4 1.969883 1_655
Mn4 O10 2.015387 1_555
Mn4 O9 2.175466 1_555
Mn4 O1 2.337390 1_655
