# generated using pymatgen
data_Ca2Sb2O7
_symmetry_space_group_name_H-M   'P 1'
_cell_length_a   7.34588769
_cell_length_b   7.34588769
_cell_length_c   7.34588769
_cell_angle_alpha   60.00000000
_cell_angle_beta   60.00000000
_cell_angle_gamma   60.00000000
_symmetry_Int_Tables_number   1
_chemical_formula_structural   Ca2Sb2O7
_chemical_formula_sum   'Ca4 Sb4 O14'
_cell_volume   280.29661622
_cell_formula_units_Z   2
loop_
 _symmetry_equiv_pos_site_id
 _symmetry_equiv_pos_as_xyz
  1  'x, y, z'
loop_
 _atom_site_type_symbol
 _atom_site_label
 _atom_site_symmetry_multiplicity
 _atom_site_fract_x
 _atom_site_fract_y
 _atom_site_fract_z
 _atom_site_occupancy
  Ca  Ca0  1  0.12500000  0.12500000  0.12500000  1
  Ca  Ca1  1  0.62500000  0.12500000  0.12500000  1
  Ca  Ca2  1  0.12500000  0.62500000  0.12500000  1
  Ca  Ca3  1  0.12500000  0.12500000  0.62500000  1
  Sb  Sb0  1  0.62500000  0.62500000  0.62500000  1
  Sb  Sb1  1  0.12500000  0.62500000  0.62500000  1
  Sb  Sb2  1  0.62500000  0.12500000  0.62500000  1
  Sb  Sb3  1  0.62500000  0.62500000  0.12500000  1
  O  O0  1  0.75000000  0.75000000  0.75000000  1
  O  O1  1  0.50000000  0.50000000  0.50000000  1
  O  O2  1  0.26510300  0.73489600  0.26510300  1
  O  O3  1  0.51510300  0.98489700  0.51510400  1
  O  O4  1  0.26510300  0.26510300  0.73489700  1
  O  O5  1  0.73489700  0.26510300  0.26510300  1
  O  O6  1  0.26510400  0.73489700  0.73489700  1
  O  O7  1  0.73489700  0.73489700  0.26510300  1
  O  O8  1  0.73489700  0.26510300  0.73489700  1
  O  O9  1  0.98489600  0.51510300  0.51510400  1
  O  O10  1  0.51510300  0.98489700  0.98489600  1
  O  O11  1  0.98489600  0.51510300  0.98489700  1
  O  O12  1  0.51510300  0.51510300  0.98489600  1
  O  O13  1  0.98489700  0.98489700  0.51510400  1
loop_
_geom_bond_atom_site_label_1
_geom_bond_atom_site_label_2
_geom_bond_distance
_geom_bond_site_symmetry_2
Ca0 O5 2.343300 1_455
Ca0 O4 2.343300 1_554
Ca0 O10 2.343301 1_544
Ca0 O11 2.343301 1_454
Ca0 O13 2.343306 1_445
Ca0 O2 2.343306 1_545
Ca1 O5 2.343300 1_555
Ca1 O7 2.343300 1_545
Ca1 O8 2.343300 1_554
Ca1 O12 2.343300 1_554
Ca1 O10 2.343306 1_544
Ca1 O3 2.343306 1_545
Ca2 O2 2.343294 1_555
Ca2 O7 2.343300 1_455
Ca2 O12 2.343300 1_554
Ca2 O6 2.343300 1_554
Ca2 O11 2.343306 1_454
Ca2 O9 2.343306 1_455
Ca3 O13 2.343294 1_445
Ca3 O8 2.343300 1_455
Ca3 O4 2.343300 1_555
Ca3 O6 2.343300 1_545
Ca3 O3 2.343301 1_545
Ca3 O9 2.343301 1_455
O0 Sb2 2.249210 1_565
O0 Sb1 2.249210 1_655
O0 Sb0 2.249210 1_555
O0 Sb3 2.249210 1_556
O1 Sb2 2.249210 1_555
O1 Sb1 2.249210 1_555
O1 Sb0 2.249210 1_555
O1 Sb3 2.249210 1_555
O2 Sb3 2.162421 1_555
O2 Sb1 2.162421 1_555
O3 Sb2 2.162416 1_565
O3 Sb0 2.162422 1_555
O4 Sb2 2.162421 1_555
O4 Sb1 2.162421 1_555
O5 Sb3 2.162421 1_555
O5 Sb2 2.162421 1_555
O6 Sb0 2.162415 1_555
O6 Sb1 2.162428 1_555
O7 Sb3 2.162421 1_555
O7 Sb0 2.162421 1_555
O8 Sb0 2.162421 1_555
O8 Sb2 2.162421 1_555
O9 Sb0 2.162416 1_555
O9 Sb1 2.162422 1_655
O10 Sb2 2.162416 1_565
O10 Sb3 2.162422 1_556
O11 Sb3 2.162416 1_556
O11 Sb1 2.162422 1_655
O12 Sb0 2.162415 1_555
O12 Sb3 2.162428 1_556
O13 Sb2 2.162421 1_565
O13 Sb1 2.162421 1_655
