# generated using pymatgen
data_Li4MnCo2NiO8
_symmetry_space_group_name_H-M   'P 1'
_cell_length_a   2.94347600
_cell_length_b   5.14632600
_cell_length_c   9.76522338
_cell_angle_alpha   78.97147845
_cell_angle_beta   90.00000000
_cell_angle_gamma   90.00000000
_symmetry_Int_Tables_number   1
_chemical_formula_structural   Li4MnCo2NiO8
_chemical_formula_sum   'Li4 Mn1 Co2 Ni1 O8'
_cell_volume   145.19259679
_cell_formula_units_Z   1
loop_
 _symmetry_equiv_pos_site_id
 _symmetry_equiv_pos_as_xyz
  1  'x, y, z'
loop_
 _atom_site_type_symbol
 _atom_site_label
 _atom_site_symmetry_multiplicity
 _atom_site_fract_x
 _atom_site_fract_y
 _atom_site_fract_z
 _atom_site_occupancy
  Li  Li0  1  0.00000000  0.75106800  0.26056000  1
  Li  Li1  1  0.50000000  0.00000000  0.00000000  1
  Li  Li2  1  0.00000000  0.24893200  0.73944000  1
  Li  Li3  1  0.50000000  0.50000000  0.50000000  1
  Mn  Mn0  1  0.00000000  0.50000000  0.00000000  1
  Co  Co0  1  0.50000000  0.23870100  0.26034900  1
  Co  Co1  1  0.50000000  0.76129900  0.73965100  1
  Ni  Ni0  1  0.00000000  0.00000000  0.50000000  1
  O  O0  1  0.50000000  0.60233800  0.11265700  1
  O  O1  1  0.00000000  0.84323200  0.87899000  1
  O  O2  1  0.50000000  0.09841200  0.63040600  1
  O  O3  1  0.00000000  0.37605400  0.36655100  1
  O  O4  1  0.50000000  0.39766200  0.88734300  1
  O  O5  1  0.00000000  0.62394600  0.63344900  1
  O  O6  1  0.50000000  0.90158800  0.36959400  1
  O  O7  1  0.00000000  0.15676800  0.12101000  1
loop_
_geom_bond_atom_site_label_1
_geom_bond_atom_site_label_2
_geom_bond_distance
_geom_bond_site_symmetry_2
Li0 O3 2.007913 1_555
Li0 O6 2.053116 1_455
Li0 O6 2.053116 1_555
Li0 O7 2.264435 1_565
Li0 O0 2.293653 1_555
Li0 O0 2.293653 1_455
Li1 O4 2.130035 1_554
Li1 O0 2.130035 1_545
Li1 O1 2.139637 1_644
Li1 O1 2.139637 1_544
Li1 O7 2.139637 1_655
Li1 O7 2.139637 1_555
Li2 O5 2.007913 1_555
Li2 O2 2.053116 1_555
Li2 O2 2.053116 1_455
Li2 O1 2.264435 1_545
Li2 O4 2.293653 1_555
Li2 O4 2.293653 1_455
Li3 O3 2.142228 1_555
Li3 O3 2.142228 1_655
Li3 O5 2.142228 1_555
Li3 O5 2.142228 1_655
Li3 O2 2.210428 1_555
Li3 O6 2.210428 1_555
Mn0 O1 1.928187 1_554
Mn0 O7 1.928187 1_555
Mn0 O4 1.968585 1_454
Mn0 O0 1.968585 1_555
Mn0 O0 1.968585 1_455
Mn0 O4 1.968585 1_554
Co0 O6 1.854675 1_545
Co0 O3 2.005415 1_655
Co0 O3 2.005415 1_555
Co0 O7 2.101131 1_555
Co0 O7 2.101131 1_655
Co0 O0 2.132970 1_555
Co1 O2 1.854675 1_565
Co1 O5 2.005415 1_655
Co1 O5 2.005415 1_555
Co1 O1 2.101131 1_555
Co1 O1 2.101131 1_655
Co1 O4 2.132970 1_555
Ni0 O2 2.071455 1_455
Ni0 O6 2.071455 1_545
Ni0 O2 2.071455 1_555
Ni0 O6 2.071455 1_445
Ni0 O5 2.116292 1_545
Ni0 O3 2.116292 1_555
