# generated using pymatgen
data_Sr2Al3FeO8
_symmetry_space_group_name_H-M   'P 1'
_cell_length_a   9.00122000
_cell_length_b   5.30345400
_cell_length_c   8.56351874
_cell_angle_alpha   86.06659714
_cell_angle_beta   90.00000000
_cell_angle_gamma   90.00000000
_symmetry_Int_Tables_number   1
_chemical_formula_structural   Sr2Al3FeO8
_chemical_formula_sum   'Sr4 Al6 Fe2 O16'
_cell_volume   407.83850767
_cell_formula_units_Z   2
loop_
 _symmetry_equiv_pos_site_id
 _symmetry_equiv_pos_as_xyz
  1  'x, y, z'
loop_
 _atom_site_type_symbol
 _atom_site_label
 _atom_site_symmetry_multiplicity
 _atom_site_fract_x
 _atom_site_fract_y
 _atom_site_fract_z
 _atom_site_occupancy
  Sr  Sr0  1  0.99658800  0.25071700  0.51405200  1
  Sr  Sr1  1  0.49658800  0.74928300  0.48594800  1
  Sr  Sr2  1  0.98613100  0.20056200  0.97048800  1
  Sr  Sr3  1  0.48613100  0.79943800  0.02951200  1
  Al  Al0  1  0.83791100  0.72619500  0.20500800  1
  Al  Al1  1  0.33791100  0.27380500  0.79499200  1
  Al  Al2  1  0.67146800  0.21986900  0.29053800  1
  Al  Al3  1  0.17146800  0.78013100  0.70946200  1
  Al  Al4  1  0.16269400  0.80109600  0.32424400  1
  Al  Al5  1  0.66269400  0.19890400  0.67575600  1
  Fe  Fe0  1  0.82600600  0.71060200  0.80715600  1
  Fe  Fe1  1  0.32600600  0.28939800  0.19284400  1
  O  O0  1  0.31405800  0.61384700  0.26779800  1
  O  O1  1  0.81405800  0.38615300  0.73220200  1
  O  O2  1  0.64967600  0.90555600  0.78961400  1
  O  O3  1  0.14967600  0.09444400  0.21038600  1
  O  O4  1  0.48724300  0.34636900  0.66377000  1
  O  O5  1  0.98724300  0.65363100  0.33623000  1
  O  O6  1  0.89052500  0.63911900  0.01596800  1
  O  O7  1  0.39052500  0.36088100  0.98403200  1
  O  O8  1  0.29511000  0.94545000  0.82650700  1
  O  O9  1  0.79511000  0.05455000  0.17349300  1
  O  O10  1  0.17347400  0.44387900  0.73462400  1
  O  O11  1  0.67347400  0.55612100  0.26537600  1
  O  O12  1  0.21725500  0.88145400  0.51399700  1
  O  O13  1  0.71725500  0.11854600  0.48600300  1
  O  O14  1  0.99076000  0.90663300  0.73413800  1
  O  O15  1  0.49076000  0.09336700  0.26586200  1
loop_
_geom_bond_atom_site_label_1
_geom_bond_atom_site_label_2
_geom_bond_distance
_geom_bond_site_symmetry_2
Al0 O5 1.777165 1_555
Al0 O6 1.777859 1_555
Al0 O9 1.785865 1_565
Al0 O11 1.790989 1_555
Al1 O4 1.777165 1_555
Al1 O7 1.777859 1_555
Al1 O8 1.785865 1_545
Al1 O10 1.790989 1_555
Al2 O9 1.769894 1_555
Al2 O13 1.771172 1_555
Al2 O15 1.777642 1_555
Al2 O11 1.781625 1_555
Al3 O8 1.769894 1_555
Al3 O12 1.771172 1_555
Al3 O14 1.777642 1_455
Al3 O10 1.781625 1_555
Al4 O5 1.762176 1_455
Al4 O0 1.772566 1_555
Al4 O12 1.777161 1_555
Al4 O3 1.782323 1_565
Al5 O4 1.762176 1_555
Al5 O1 1.772566 1_555
Al5 O13 1.777161 1_555
Al5 O2 1.782323 1_545
Fe0 O1 1.880399 1_555
Fe0 O14 1.892593 1_555
Fe0 O6 1.893548 1_556
Fe0 O2 1.894578 1_555
Fe1 O0 1.880399 1_555
Fe1 O15 1.892593 1_555
Fe1 O7 1.893548 1_554
Fe1 O3 1.894578 1_555
O0 Sr1 2.624758 1_555
O0 Sr3 2.693723 1_555
O1 Sr0 2.624758 1_555
O1 Sr2 2.693723 1_555
O2 Sr3 2.558446 1_556
O2 Sr1 3.105436 1_555
O3 Sr2 2.558446 1_454
O3 Sr0 3.105436 1_455
O4 Sr1 2.538816 1_555
O5 Sr0 2.538816 1_555
O6 Sr2 2.534995 1_554
O6 Sr2 3.098256 1_564
O7 Sr3 2.534995 1_556
O7 Sr3 3.098256 1_546
O8 Sr3 2.528544 1_556
O9 Sr2 2.528544 1_554
O10 Sr0 2.723569 1_455
O10 Sr2 2.868964 1_455
O11 Sr1 2.723569 1_555
O11 Sr3 2.868964 1_555
O12 Sr1 2.625650 1_555
O12 Sr0 2.789375 1_465
O13 Sr0 2.625650 1_555
O13 Sr1 2.789375 1_545
O14 Sr0 2.532401 1_565
O14 Sr2 2.638389 1_565
O15 Sr1 2.532401 1_545
O15 Sr3 2.638389 1_545
