# generated using pymatgen
data_Hf6Al2Pt
_symmetry_space_group_name_H-M   'P 1'
_cell_length_a   7.90340092
_cell_length_b   7.90340092
_cell_length_c   3.33365742
_cell_angle_alpha   90.00000000
_cell_angle_beta   90.00000000
_cell_angle_gamma   120.00000804
_symmetry_Int_Tables_number   1
_chemical_formula_structural   Hf6Al2Pt
_chemical_formula_sum   'Hf6 Al2 Pt1'
_cell_volume   180.33482006
_cell_formula_units_Z   1
loop_
 _symmetry_equiv_pos_site_id
 _symmetry_equiv_pos_as_xyz
  1  'x, y, z'
loop_
 _atom_site_type_symbol
 _atom_site_label
 _atom_site_symmetry_multiplicity
 _atom_site_fract_x
 _atom_site_fract_y
 _atom_site_fract_z
 _atom_site_occupancy
  Hf  Hf0  1  -0.00000000  0.73304618  0.50000000  1
  Hf  Hf1  1  0.26695382  0.26695382  0.50000000  1
  Hf  Hf2  1  0.73304618  -0.00000000  0.50000000  1
  Hf  Hf3  1  -0.00000000  0.39888107  -0.00000000  1
  Hf  Hf4  1  0.60111893  0.60111893  0.00000000  1
  Hf  Hf5  1  0.39888107  -0.00000000  -0.00000000  1
  Al  Al0  1  0.33333300  0.66666700  0.50000000  1
  Al  Al1  1  0.66666700  0.33333300  0.50000000  1
  Pt  Pt0  1  -0.00000000  -0.00000000  -0.00000000  1
loop_
_geom_bond_atom_site_label_1
_geom_bond_atom_site_label_2
_geom_bond_distance
_geom_bond_site_symmetry_2
Hf0 Pt0 2.688821 1_566
Hf0 Pt0 2.688821 1_565
Hf1 Pt0 2.688820 1_556
Hf1 Pt0 2.688820 1_555
Hf2 Pt0 2.688821 1_655
Hf2 Pt0 2.688821 1_656
Hf3 Pt0 3.152517 1_555
Hf4 Pt0 3.152517 1_665
Hf5 Pt0 3.152517 1_555
Al0 Hf0 2.932188 1_555
Al0 Hf2 2.932193 1_565
Al0 Hf1 2.932196 1_555
Al0 Hf5 2.936377 1_565
Al0 Hf5 2.936377 1_566
Al0 Hf3 2.936379 1_555
Al0 Hf3 2.936379 1_556
Al0 Hf4 2.936383 1_555
Al0 Hf4 2.936383 1_556
Al1 Hf2 2.932188 1_555
Al1 Hf0 2.932193 1_655
Al1 Hf1 2.932196 1_555
Al1 Hf3 2.936377 1_656
Al1 Hf3 2.936377 1_655
Al1 Hf5 2.936379 1_555
Al1 Hf5 2.936379 1_556
Al1 Hf4 2.936383 1_555
Al1 Hf4 2.936383 1_556
