# generated using pymatgen
data_CsInP2O7
_symmetry_space_group_name_H-M   'P 1'
_cell_length_a   10.52464000
_cell_length_b   7.86151400
_cell_length_c   8.74167892
_cell_angle_alpha   75.41675851
_cell_angle_beta   90.00000000
_cell_angle_gamma   90.00000000
_symmetry_Int_Tables_number   1
_chemical_formula_structural   CsInP2O7
_chemical_formula_sum   'Cs4 In4 P8 O28'
_cell_volume   699.98094457
_cell_formula_units_Z   4
loop_
 _symmetry_equiv_pos_site_id
 _symmetry_equiv_pos_as_xyz
  1  'x, y, z'
loop_
 _atom_site_type_symbol
 _atom_site_label
 _atom_site_symmetry_multiplicity
 _atom_site_fract_x
 _atom_site_fract_y
 _atom_site_fract_z
 _atom_site_occupancy
  Cs  Cs0  1  0.30007200  0.30435700  0.04202100  1
  Cs  Cs1  1  0.80007200  0.69564300  0.45797900  1
  Cs  Cs2  1  0.69992800  0.69564300  0.95797900  1
  Cs  Cs3  1  0.19992800  0.30435700  0.54202100  1
  In  In0  1  0.39837500  0.73839300  0.24237900  1
  In  In1  1  0.89837500  0.26160700  0.25762100  1
  In  In2  1  0.60162500  0.26160700  0.75762100  1
  In  In3  1  0.10162500  0.73839300  0.74237900  1
  P  P0  1  0.09176200  0.63414600  0.17000500  1
  P  P1  1  0.59176200  0.36585400  0.32999500  1
  P  P2  1  0.90823800  0.36585400  0.82999500  1
  P  P3  1  0.40823800  0.63414600  0.67000500  1
  P  P4  1  0.62906800  0.07266200  0.18271400  1
  P  P5  1  0.12906800  0.92733800  0.31728600  1
  P  P6  1  0.37093200  0.92733800  0.81728600  1
  P  P7  1  0.87093200  0.07266200  0.68271400  1
  O  O0  1  0.99643900  0.50290900  0.26890800  1
  O  O1  1  0.49643900  0.49709100  0.23109200  1
  O  O2  1  0.00356100  0.49709100  0.73109200  1
  O  O3  1  0.50356100  0.50290900  0.76890800  1
  O  O4  1  0.55603100  0.17527400  0.29880500  1
  O  O5  1  0.05603100  0.82472600  0.20119500  1
  O  O6  1  0.44396900  0.82472600  0.70119500  1
  O  O7  1  0.94396900  0.17527400  0.79880500  1
  O  O8  1  0.22718000  0.58635400  0.23301600  1
  O  O9  1  0.72718000  0.41364600  0.26698400  1
  O  O10  1  0.77282000  0.41364600  0.76698400  1
  O  O11  1  0.27282000  0.58635400  0.73301600  1
  O  O12  1  0.77053300  0.05760000  0.22824500  1
  O  O13  1  0.27053300  0.94240000  0.27175500  1
  O  O14  1  0.22946700  0.94240000  0.77175500  1
  O  O15  1  0.72946700  0.05760000  0.72824500  1
  O  O16  1  0.57300800  0.88680900  0.22490200  1
  O  O17  1  0.07300800  0.11319100  0.27509800  1
  O  O18  1  0.42699200  0.11319100  0.77509800  1
  O  O19  1  0.92699200  0.88680900  0.72490200  1
  O  O20  1  0.07890200  0.65402500  0.99398300  1
  O  O21  1  0.57890200  0.34597500  0.50601700  1
  O  O22  1  0.92109800  0.34597500  0.00601700  1
  O  O23  1  0.42109800  0.65402500  0.49398300  1
  O  O24  1  0.60211700  0.17984400  0.01499200  1
  O  O25  1  0.10211700  0.82015600  0.48500800  1
  O  O26  1  0.39788300  0.82015600  0.98500800  1
  O  O27  1  0.89788300  0.17984400  0.51499200  1
loop_
_geom_bond_atom_site_label_1
_geom_bond_atom_site_label_2
_geom_bond_distance
_geom_bond_site_symmetry_2
Cs0 O11 3.045984 1_554
Cs0 O13 3.057631 1_545
Cs0 O8 3.186666 1_555
Cs0 O1 3.249588 1_555
Cs0 O17 3.252528 1_555
Cs0 O3 3.293401 1_554
Cs0 O24 3.352009 1_555
Cs0 O18 3.354597 1_554
Cs0 O4 3.489764 1_555
Cs0 O20 3.545412 1_554
Cs1 O10 3.045984 1_555
Cs1 O12 3.057631 1_565
Cs1 O9 3.186666 1_555
Cs1 O0 3.249588 1_555
Cs1 O16 3.252528 1_555
Cs1 O2 3.293401 1_655
Cs1 O25 3.352009 1_655
Cs1 O19 3.354597 1_555
Cs1 O5 3.489764 1_655
Cs1 O21 3.545412 1_555
Cs2 O9 3.045984 1_556
Cs2 O15 3.057631 1_565
Cs2 O10 3.186666 1_555
Cs2 O3 3.249588 1_555
Cs2 O19 3.252528 1_555
Cs2 O1 3.293401 1_556
Cs2 O26 3.352009 1_555
Cs2 O16 3.354597 1_556
Cs2 O6 3.489764 1_555
Cs2 O22 3.545412 1_556
Cs3 O8 3.045984 1_555
Cs3 O14 3.057631 1_545
Cs3 O11 3.186666 1_555
Cs3 O2 3.249588 1_555
Cs3 O18 3.252528 1_555
Cs3 O0 3.293401 1_455
Cs3 O27 3.352009 1_455
Cs3 O17 3.354597 1_555
Cs3 O7 3.489764 1_455
Cs3 O23 3.545412 1_555
In0 O23 2.144770 1_555
In0 O13 2.157747 1_555
In0 O16 2.161711 1_555
In0 O8 2.175077 1_555
In0 O26 2.178713 1_554
In0 O1 2.183530 1_555
In1 O22 2.144770 1_555
In1 O12 2.157747 1_555
In1 O17 2.161711 1_655
In1 O9 2.175077 1_555
In1 O27 2.178713 1_555
In1 O0 2.183530 1_555
In2 O21 2.144770 1_555
In2 O15 2.157747 1_555
In2 O18 2.161711 1_555
In2 O10 2.175077 1_555
In2 O24 2.178713 1_556
In2 O3 2.183530 1_555
In3 O20 2.144770 1_555
In3 O14 2.157747 1_555
In3 O19 2.161711 1_455
In3 O11 2.175077 1_555
In3 O25 2.178713 1_555
In3 O2 2.183530 1_555
O0 P0 1.539236 1_655
O1 P1 1.539236 1_555
O2 P2 1.539236 1_455
O3 P3 1.539236 1_555
O4 P1 1.632854 1_555
O4 P4 1.638216 1_555
O5 P0 1.632854 1_555
O5 P5 1.638216 1_555
O6 P3 1.632854 1_555
O6 P6 1.638216 1_555
O7 P2 1.632854 1_555
O7 P7 1.638216 1_555
O8 P0 1.540007 1_555
O9 P1 1.540007 1_555
O10 P2 1.540007 1_555
O11 P3 1.540007 1_555
O12 P4 1.537997 1_555
O13 P5 1.537997 1_555
O14 P6 1.537997 1_555
O15 P7 1.537997 1_555
O16 P4 1.532172 1_565
O17 P5 1.532172 1_545
O18 P6 1.532172 1_545
O19 P7 1.532172 1_565
O20 P0 1.513053 1_556
O21 P1 1.513053 1_555
O22 P2 1.513053 1_554
O23 P3 1.513053 1_555
O24 P4 1.522495 1_555
O25 P5 1.522495 1_555
O26 P6 1.522495 1_555
O27 P7 1.522495 1_555
