# generated using pymatgen
data_Tl2Sn(GeO3)3
_symmetry_space_group_name_H-M   'P 1'
_cell_length_a   10.77717948
_cell_length_b   12.35725300
_cell_length_c   12.35684483
_cell_angle_alpha   119.99890846
_cell_angle_beta   90.00000001
_cell_angle_gamma   89.99991010
_symmetry_Int_Tables_number   1
_chemical_formula_structural   Tl2Sn(GeO3)3
_chemical_formula_sum   'Tl12 Sn6 Ge18 O54'
_cell_volume   1425.18110352
_cell_formula_units_Z   6
loop_
 _symmetry_equiv_pos_site_id
 _symmetry_equiv_pos_as_xyz
  1  'x, y, z'
loop_
 _atom_site_type_symbol
 _atom_site_label
 _atom_site_symmetry_multiplicity
 _atom_site_fract_x
 _atom_site_fract_y
 _atom_site_fract_z
 _atom_site_occupancy
  Tl  Tl0  1  0.97642158  0.36169412  0.00074228  1
  Tl  Tl1  1  0.97640982  0.99925721  0.36095284  1
  Tl  Tl2  1  0.97640829  0.63904610  0.63831048  1
  Tl  Tl3  1  0.47642158  0.36169412  0.36095183  1
  Tl  Tl4  1  0.47640829  0.63904610  0.00073562  1
  Tl  Tl5  1  0.47640982  0.99925721  0.63830437  1
  Tl  Tl6  1  0.02357842  0.63830588  0.99925772  1
  Tl  Tl7  1  0.02359018  0.00074279  0.63904716  1
  Tl  Tl8  1  0.02359171  0.36095390  0.36168952  1
  Tl  Tl9  1  0.52357842  0.63830588  0.63904817  1
  Tl  Tl10  1  0.52359171  0.36095390  0.99926438  1
  Tl  Tl11  1  0.52359018  0.00074279  0.36169563  1
  Sn  Sn0  1  0.50000000  -0.00000000  -0.00000000  1
  Sn  Sn1  1  0.00000000  -0.00000000  -0.00000000  1
  Sn  Sn2  1  0.99419110  0.33332956  0.66666699  1
  Sn  Sn3  1  0.49419110  0.33332956  0.66666258  1
  Sn  Sn4  1  0.00580890  0.66667044  0.33333301  1
  Sn  Sn5  1  0.50580890  0.66667044  0.33333742  1
  Ge  Ge0  1  0.75000726  0.17722437  -0.00000353  1
  Ge  Ge1  1  0.75000000  1.00000000  0.17721717  1
  Ge  Ge2  1  0.74999274  0.82277563  0.82277211  1
  Ge  Ge3  1  0.25000726  0.17722437  0.17722789  1
  Ge  Ge4  1  0.24999274  0.82277563  0.00000353  1
  Ge  Ge5  1  0.25000000  0.00000000  0.82278283  1
  Ge  Ge6  1  0.26066209  0.83460854  0.28281115  1
  Ge  Ge7  1  0.26065807  0.71720093  0.55180138  1
  Ge  Ge8  1  0.26066358  0.44820688  0.16540224  1
  Ge  Ge9  1  0.76066209  0.83460854  0.55179739  1
  Ge  Ge10  1  0.76066358  0.44820688  0.28280464  1
  Ge  Ge11  1  0.76065807  0.71720093  0.16539955  1
  Ge  Ge12  1  0.73933791  0.16539146  0.71718885  1
  Ge  Ge13  1  0.73934193  0.28279907  0.44819862  1
  Ge  Ge14  1  0.73933642  0.55179312  0.83459776  1
  Ge  Ge15  1  0.23933791  0.16539146  0.44820261  1
  Ge  Ge16  1  0.23933642  0.55179312  0.71719536  1
  Ge  Ge17  1  0.23934193  0.28279907  0.83460045  1
  O  O0  1  0.74998611  0.62160022  -0.00000168  1
  O  O1  1  0.75000000  1.00000000  0.62157589  1
  O  O2  1  0.75001389  0.37839978  0.37839809  1
  O  O3  1  0.24998611  0.62160022  0.62160191  1
  O  O4  1  0.25001389  0.37839978  0.00000168  1
  O  O5  1  0.25000000  0.00000000  0.37842411  1
  O  O6  1  0.30263498  0.79784555  0.12717161  1
  O  O7  1  0.30263113  0.87283310  0.67067616  1
  O  O8  1  0.30262254  0.32933628  0.20217584  1
  O  O9  1  0.80263498  0.79784555  0.67067394  1
  O  O10  1  0.80262254  0.32933628  0.12716043  1
  O  O11  1  0.80263113  0.87283310  0.20215694  1
  O  O12  1  0.69736502  0.20215445  0.87282839  1
  O  O13  1  0.69736887  0.12716690  0.32932384  1
  O  O14  1  0.69737746  0.67066372  0.79782416  1
  O  O15  1  0.19736502  0.20215445  0.32932606  1
  O  O16  1  0.19737746  0.67066372  0.87283957  1
  O  O17  1  0.19736887  0.12716690  0.79784306  1
  O  O18  1  0.38331529  0.08753396  0.15552383  1
  O  O19  1  0.38330664  0.84449520  0.93201401  1
  O  O20  1  0.38330381  0.06799194  0.91248435  1
  O  O21  1  0.88331529  0.08753396  0.93201012  1
  O  O22  1  0.88330381  0.06799194  0.15550759  1
  O  O23  1  0.88330664  0.84449520  0.91248118  1
  O  O24  1  0.61668471  0.91246604  0.84447617  1
  O  O25  1  0.61669336  0.15550480  0.06798599  1
  O  O26  1  0.61669619  0.93200806  0.08751565  1
  O  O27  1  0.11668471  0.91246604  0.06798988  1
  O  O28  1  0.11669619  0.93200806  0.84449241  1
  O  O29  1  0.11669336  0.15550480  0.08751882  1
  O  O30  1  0.11250040  0.77297819  0.27863142  1
  O  O31  1  0.11249623  0.72137436  0.49435041  1
  O  O32  1  0.11249672  0.50565527  0.22702364  1
  O  O33  1  0.61250040  0.77297819  0.49434677  1
  O  O34  1  0.61249672  0.50565527  0.27863163  1
  O  O35  1  0.61249623  0.72137436  0.22702395  1
  O  O36  1  0.88749960  0.22702181  0.72136858  1
  O  O37  1  0.88750377  0.27862564  0.50564959  1
  O  O38  1  0.88750328  0.49434473  0.77297636  1
  O  O39  1  0.38749960  0.22702181  0.50565323  1
  O  O40  1  0.38750328  0.49434473  0.72136837  1
  O  O41  1  0.38750377  0.27862564  0.77297605  1
  O  O42  1  0.38660433  0.81056240  0.35955974  1
  O  O43  1  0.38659829  0.64045220  0.45101427  1
  O  O44  1  0.38660330  0.54899351  0.18944457  1
  O  O45  1  0.88660433  0.81056240  0.45100266  1
  O  O46  1  0.88660330  0.54899351  0.35954894  1
  O  O47  1  0.88659829  0.64045220  0.18943794  1
  O  O48  1  0.61339567  0.18943760  0.64044026  1
  O  O49  1  0.61340171  0.35954780  0.54898573  1
  O  O50  1  0.61339670  0.45100649  0.81055543  1
  O  O51  1  0.11339567  0.18943760  0.54899734  1
  O  O52  1  0.11339670  0.45100649  0.64045106  1
  O  O53  1  0.11340171  0.35954780  0.81056206  1
loop_
_geom_bond_atom_site_label_1
_geom_bond_atom_site_label_2
_geom_bond_distance
_geom_bond_site_symmetry_2
Ge0 O21 1.751325 1_554
Ge0 O25 1.751454 1_555
Ge0 O12 1.835794 1_554
Ge0 O10 1.835851 1_555
Ge1 O26 1.751345 1_555
Ge1 O22 1.751345 1_565
Ge1 O13 1.835857 1_565
Ge1 O11 1.835857 1_555
Ge2 O24 1.751325 1_555
Ge2 O23 1.751453 1_555
Ge2 O9 1.835794 1_555
Ge2 O14 1.835851 1_555
Ge3 O18 1.751325 1_555
Ge3 O29 1.751453 1_555
Ge3 O15 1.835794 1_555
Ge3 O8 1.835851 1_555
Ge4 O27 1.751325 1_555
Ge4 O19 1.751454 1_554
Ge4 O6 1.835794 1_555
Ge4 O16 1.835851 1_554
Ge5 O20 1.751345 1_555
Ge5 O28 1.751345 1_545
Ge5 O7 1.835857 1_545
Ge5 O17 1.835857 1_555
Ge6 O30 1.758694 1_555
Ge6 O42 1.764019 1_555
Ge6 O5 1.780882 1_565
Ge6 O6 1.798911 1_555
Ge7 O31 1.758667 1_555
Ge7 O43 1.763976 1_555
Ge7 O3 1.780922 1_555
Ge7 O7 1.798910 1_555
Ge8 O32 1.758710 1_555
Ge8 O44 1.763974 1_555
Ge8 O4 1.780880 1_555
Ge8 O8 1.798926 1_555
Ge9 O33 1.758694 1_555
Ge9 O45 1.764019 1_555
Ge9 O1 1.780882 1_555
Ge9 O9 1.798911 1_555
Ge10 O34 1.758710 1_555
Ge10 O46 1.763974 1_555
Ge10 O2 1.780880 1_555
Ge10 O10 1.798926 1_555
Ge11 O35 1.758667 1_555
Ge11 O47 1.763976 1_555
Ge11 O0 1.780922 1_555
Ge11 O11 1.798911 1_555
Ge12 O36 1.758694 1_555
Ge12 O48 1.764019 1_555
Ge12 O1 1.780882 1_545
Ge12 O12 1.798911 1_555
Ge13 O37 1.758667 1_555
Ge13 O49 1.763976 1_555
Ge13 O2 1.780922 1_555
Ge13 O13 1.798910 1_555
Ge14 O38 1.758710 1_555
Ge14 O50 1.763974 1_555
Ge14 O0 1.780880 1_556
Ge14 O14 1.798926 1_555
Ge15 O39 1.758694 1_555
Ge15 O51 1.764019 1_555
Ge15 O5 1.780882 1_555
Ge15 O15 1.798911 1_555
Ge16 O40 1.758710 1_555
Ge16 O52 1.763974 1_555
Ge16 O3 1.780880 1_555
Ge16 O16 1.798926 1_555
Ge17 O41 1.758667 1_555
Ge17 O53 1.763976 1_555
Ge17 O4 1.780922 1_556
Ge17 O17 1.798911 1_555
O6 Tl4 2.594848 1_555
O7 Tl5 2.594823 1_555
O8 Tl3 2.594822 1_555
O9 Tl2 2.594848 1_555
O10 Tl0 2.594823 1_555
O11 Tl1 2.594823 1_555
O12 Tl10 2.594848 1_555
O13 Tl11 2.594823 1_555
O14 Tl9 2.594822 1_555
O15 Tl8 2.594848 1_555
O16 Tl6 2.594823 1_555
O17 Tl7 2.594823 1_555
O18 Sn0 2.089493 1_555
O19 Sn0 2.089426 1_566
O20 Sn0 2.089415 1_556
O21 Sn1 2.089493 1_656
O22 Sn1 2.089415 1_655
O23 Sn1 2.089426 1_666
O24 Sn0 2.089493 1_566
O25 Sn0 2.089426 1_555
O26 Sn0 2.089415 1_565
O27 Sn1 2.089493 1_565
O28 Sn1 2.089415 1_566
O29 Sn1 2.089426 1_555
O30 Sn4 2.095873 1_555
O30 Tl1 2.856617 1_455
O31 Sn4 2.095901 1_555
O31 Tl2 2.856608 1_455
O32 Sn4 2.095932 1_555
O32 Tl0 2.856507 1_455
O33 Sn5 2.095873 1_555
O33 Tl5 2.856617 1_555
O34 Sn5 2.095932 1_555
O34 Tl3 2.856507 1_555
O35 Sn5 2.095901 1_555
O35 Tl4 2.856608 1_555
O36 Sn2 2.095873 1_555
O36 Tl7 2.856617 1_655
O37 Sn2 2.095901 1_555
O37 Tl8 2.856608 1_655
O38 Sn2 2.095932 1_555
O38 Tl6 2.856507 1_655
O39 Sn3 2.095873 1_555
O39 Tl11 2.856617 1_555
O40 Sn3 2.095932 1_555
O40 Tl9 2.856507 1_555
O41 Sn3 2.095901 1_555
O41 Tl10 2.856608 1_555
O42 Sn5 2.083495 1_555
O42 Tl11 2.764274 1_565
O43 Sn5 2.083532 1_555
O43 Tl9 2.764118 1_555
O44 Sn5 2.083518 1_555
O44 Tl10 2.764257 1_554
O45 Sn4 2.083495 1_655
O45 Tl7 2.764274 1_665
O46 Sn4 2.083518 1_655
O46 Tl8 2.764257 1_655
O47 Sn4 2.083532 1_655
O47 Tl6 2.764118 1_654
O48 Sn3 2.083495 1_555
O48 Tl5 2.764274 1_545
O49 Sn3 2.083532 1_555
O49 Tl3 2.764118 1_555
O50 Sn3 2.083518 1_555
O50 Tl4 2.764257 1_556
O51 Sn2 2.083495 1_455
O51 Tl1 2.764274 1_445
O52 Sn2 2.083518 1_455
O52 Tl2 2.764257 1_455
O53 Sn2 2.083532 1_455
O53 Tl0 2.764118 1_456
