# generated using pymatgen
data_RbNi2F6
_symmetry_space_group_name_H-M   'P 1'
_cell_length_a   7.16419442
_cell_length_b   7.16419442
_cell_length_c   7.16419442
_cell_angle_alpha   120.41627662
_cell_angle_beta   117.47347695
_cell_angle_gamma   91.85574968
_symmetry_Int_Tables_number   1
_chemical_formula_structural   RbNi2F6
_chemical_formula_sum   'Rb2 Ni4 F12'
_cell_volume   263.79578978
_cell_formula_units_Z   2
loop_
 _symmetry_equiv_pos_site_id
 _symmetry_equiv_pos_as_xyz
  1  'x, y, z'
loop_
 _atom_site_type_symbol
 _atom_site_label
 _atom_site_symmetry_multiplicity
 _atom_site_fract_x
 _atom_site_fract_y
 _atom_site_fract_z
 _atom_site_occupancy
  Rb  Rb0  1  0.11586100  0.36586100  0.75000000  1
  Rb  Rb1  1  0.88413900  0.63413900  0.25000000  1
  Ni  Ni0  1  0.50000000  0.00000000  0.00000000  1
  Ni  Ni1  1  0.50000000  0.50000000  0.50000000  1
  Ni  Ni2  1  0.50000000  0.00000000  0.50000000  1
  Ni  Ni3  1  0.00000000  0.00000000  0.00000000  1
  F  F0  1  0.82817600  0.06234000  0.13965800  1
  F  F1  1  0.58328000  0.33328000  0.25000000  1
  F  F2  1  0.17182400  0.93766000  0.86034200  1
  F  F3  1  0.41672000  0.66672000  0.75000000  1
  F  F4  1  0.57731800  0.93766000  0.26583700  1
  F  F5  1  0.82141000  0.07141000  0.75000000  1
  F  F6  1  0.17859000  0.92859000  0.25000000  1
  F  F7  1  0.82817600  0.68851800  0.76583700  1
  F  F8  1  0.57731800  0.31148200  0.63965800  1
  F  F9  1  0.42268200  0.68851800  0.36034200  1
  F  F10  1  0.42268200  0.06234000  0.73416300  1
  F  F11  1  0.17182400  0.31148200  0.23416300  1
loop_
_geom_bond_atom_site_label_1
_geom_bond_atom_site_label_2
_geom_bond_distance
_geom_bond_site_symmetry_2
F0 Ni3 1.853483 1_655
F0 Ni0 2.009311 1_555
F0 Rb0 3.140522 1_655
F1 Ni1 1.963788 1_555
F1 Ni0 1.963788 1_555
F1 Rb1 2.998452 1_555
F2 Ni3 1.853483 1_566
F2 Ni0 2.009311 1_566
F2 Rb1 3.140522 1_455
F3 Ni0 1.963788 1_566
F3 Ni1 1.963788 1_555
F3 Rb0 2.998452 1_555
F4 Ni2 1.853476 1_565
F4 Ni0 2.009318 1_565
F4 Rb1 3.140522 1_555
F5 Ni2 1.990580 1_555
F5 Ni3 1.990580 1_656
F5 Rb0 2.934588 1_655
F6 Ni3 1.990580 1_565
F6 Ni2 1.990580 1_565
F6 Rb1 2.934588 1_455
F7 Ni3 1.853483 1_666
F7 Ni1 2.009312 1_555
F7 Rb0 3.140521 1_655
F8 Ni2 1.853483 1_555
F8 Ni1 2.009311 1_555
F8 Rb1 3.140522 1_556
F9 Ni2 1.853483 1_565
F9 Ni1 2.009311 1_555
F9 Rb0 3.140522 1_554
F10 Ni2 1.853476 1_555
F10 Ni0 2.009318 1_556
F10 Rb0 3.140522 1_555
F11 Ni3 1.853483 1_555
F11 Ni1 2.009312 1_555
F11 Rb1 3.140521 1_455
