# generated using pymatgen
data_Er(CrSi)2
_symmetry_space_group_name_H-M   'P 1'
_cell_length_a   6.00004316
_cell_length_b   6.00004316
_cell_length_c   6.00004316
_cell_angle_alpha   140.89635182
_cell_angle_beta   140.89635182
_cell_angle_gamma   56.49481147
_symmetry_Int_Tables_number   1
_chemical_formula_structural   Er(CrSi)2
_chemical_formula_sum   'Er1 Cr2 Si2'
_cell_volume   85.24357026
_cell_formula_units_Z   1
loop_
 _symmetry_equiv_pos_site_id
 _symmetry_equiv_pos_as_xyz
  1  'x, y, z'
loop_
 _atom_site_type_symbol
 _atom_site_label
 _atom_site_symmetry_multiplicity
 _atom_site_fract_x
 _atom_site_fract_y
 _atom_site_fract_z
 _atom_site_occupancy
  Er  Er0  1  -0.00000000  -0.00000000  0.00000000  1
  Cr  Cr0  1  0.75000000  0.25000000  0.50000000  1
  Cr  Cr1  1  0.25000000  0.75000000  0.50000000  1
  Si  Si0  1  0.61405984  0.61405984  -0.00000000  1
  Si  Si1  1  0.38594016  0.38594016  0.00000000  1
loop_
_geom_bond_atom_site_label_1
_geom_bond_atom_site_label_2
_geom_bond_distance
_geom_bond_site_symmetry_2
Er0 Si1 3.085073 1_545
Er0 Si1 3.085073 1_455
Er0 Si0 3.085073 1_444
Er0 Si0 3.085073 1_455
Er0 Si0 3.085073 1_545
Er0 Si0 3.085073 1_556
Er0 Si1 3.085073 1_444
Er0 Si1 3.085073 1_556
Cr0 Si1 2.469208 1_555
Cr0 Si0 2.469208 1_545
Cr0 Si0 2.469208 1_556
Cr0 Si1 2.469208 1_656
Cr0 Er0 3.319051 1_666
Cr0 Er0 3.319051 1_656
Cr0 Er0 3.319051 1_555
Cr0 Er0 3.319051 1_655
Cr1 Si1 2.469208 1_555
Cr1 Si0 2.469208 1_455
Cr1 Si0 2.469208 1_556
Cr1 Si1 2.469208 1_566
Cr1 Er0 3.319051 1_666
Cr1 Er0 3.319051 1_565
Cr1 Er0 3.319051 1_555
Cr1 Er0 3.319051 1_566
Si0 Si1 2.411458 1_555
