# generated using pymatgen
data_BaAlGeF
_symmetry_space_group_name_H-M   'P 1'
_cell_length_a   4.28584200
_cell_length_b   4.28584200
_cell_length_c   9.92161200
_cell_angle_alpha   90.00000000
_cell_angle_beta   90.00000000
_cell_angle_gamma   90.00000000
_symmetry_Int_Tables_number   1
_chemical_formula_structural   BaAlGeF
_chemical_formula_sum   'Ba2 Al2 Ge2 F2'
_cell_volume   182.24455109
_cell_formula_units_Z   2
loop_
 _symmetry_equiv_pos_site_id
 _symmetry_equiv_pos_as_xyz
  1  'x, y, z'
loop_
 _atom_site_type_symbol
 _atom_site_label
 _atom_site_symmetry_multiplicity
 _atom_site_fract_x
 _atom_site_fract_y
 _atom_site_fract_z
 _atom_site_occupancy
  Ba  Ba0  1  0.00000000  0.50000000  0.84044300  1
  Ba  Ba1  1  0.50000000  0.00000000  0.15955700  1
  Al  Al0  1  0.00000000  0.00000000  0.50000000  1
  Al  Al1  1  0.50000000  0.50000000  0.50000000  1
  Ge  Ge0  1  0.00000000  0.50000000  0.34379500  1
  Ge  Ge1  1  0.50000000  0.00000000  0.65620500  1
  F  F0  1  0.00000000  0.00000000  0.00000000  1
  F  F1  1  0.50000000  0.50000000  0.00000000  1
loop_
_geom_bond_atom_site_label_1
_geom_bond_atom_site_label_2
_geom_bond_distance
_geom_bond_site_symmetry_2
Ba0 F0 2.664244 1_556
Ba0 F1 2.664244 1_556
Ba0 F0 2.664244 1_566
Ba0 F1 2.664244 1_456
Ba0 Ge1 3.539149 1_455
Ba0 Ge1 3.539149 1_555
Ba0 Ge1 3.539149 1_565
Ba0 Ge1 3.539149 1_465
Ba1 F0 2.664244 1_555
Ba1 F1 2.664244 1_555
Ba1 F0 2.664244 1_655
Ba1 F1 2.664244 1_545
Ba1 Ge0 3.539149 1_555
Ba1 Ge0 3.539149 1_655
Ba1 Ge0 3.539149 1_545
Ba1 Ge0 3.539149 1_645
Al0 Ge1 2.644619 1_555
Al0 Ge1 2.644619 1_455
Al0 Ge0 2.644619 1_555
Al0 Ge0 2.644619 1_545
Al1 Ge1 2.644619 1_565
Al1 Ge1 2.644619 1_555
Al1 Ge0 2.644619 1_655
Al1 Ge0 2.644619 1_555
