# generated using pymatgen
data_Na4Co12P8H4O37
_symmetry_space_group_name_H-M   'P 1'
_cell_length_a   7.94238143
_cell_length_b   9.89737096
_cell_length_c   10.25658140
_cell_angle_alpha   99.64477301
_cell_angle_beta   89.83892300
_cell_angle_gamma   90.07809000
_symmetry_Int_Tables_number   1
_chemical_formula_structural   Na4Co12P8H4O37
_chemical_formula_sum   'Na4 Co12 P8 H4 O37'
_cell_volume   794.85691710
_cell_formula_units_Z   1
loop_
 _symmetry_equiv_pos_site_id
 _symmetry_equiv_pos_as_xyz
  1  'x, y, z'
loop_
 _atom_site_type_symbol
 _atom_site_label
 _atom_site_symmetry_multiplicity
 _atom_site_fract_x
 _atom_site_fract_y
 _atom_site_fract_z
 _atom_site_occupancy
  Na  Na0  1  0.52653664  0.93354553  0.31440880  1
  Na  Na1  1  0.02647996  0.06665901  0.18626339  1
  Na  Na2  1  0.47346336  0.06645447  0.68559120  1
  Na  Na3  1  0.97352004  0.93334099  0.81373661  1
  Co  Co0  1  0.51065135  0.62033197  0.43373607  1
  Co  Co1  1  0.01055302  0.37881842  0.06751887  1
  Co  Co2  1  0.48934865  0.37966803  0.56626393  1
  Co  Co3  1  0.98944698  0.62118158  0.93248113  1
  Co  Co4  1  0.84351333  0.18727297  0.51585270  1
  Co  Co5  1  0.34329173  0.81509671  0.98354140  1
  Co  Co6  1  0.15648667  0.81272703  0.48414730  1
  Co  Co7  1  0.65670827  0.18490329  0.01645860  1
  Co  Co8  1  0.67166416  0.68429943  0.76707899  1
  Co  Co9  1  0.17010266  0.31510289  0.72990448  1
  Co  Co10  1  0.32833584  0.31570057  0.23292101  1
  Co  Co11  1  0.82989734  0.68489711  0.27009552  1
  P  P0  1  0.75820574  0.88413032  0.55516852  1
  P  P1  1  0.25803806  0.11682557  0.94493771  1
  P  P2  1  0.24179426  0.11586968  0.44483148  1
  P  P3  1  0.74196194  0.88317443  0.05506229  1
  P  P4  1  0.27504286  0.64549552  0.71547697  1
  P  P5  1  0.77374927  0.35464540  0.78535646  1
  P  P6  1  0.72495714  0.35450448  0.28452303  1
  P  P7  1  0.22625073  0.64535460  0.21464354  1
  H  H0  1  0.74621720  0.53515730  0.55376115  1
  H  H1  1  0.23958950  0.46617947  0.94762369  1
  H  H2  1  0.25378280  0.46484270  0.44623885  1
  H  H3  1  0.76041050  0.53382053  0.05237631  1
  O  O0  1  0.78490103  0.51313127  0.81966554  1
  O  O1  1  0.28766201  0.48686121  0.68364074  1
  O  O2  1  0.21509897  0.48686873  0.18033446  1
  O  O3  1  0.71233799  0.51313879  0.31635926  1
  O  O4  1  0.04992219  0.11970753  0.42338756  1
  O  O5  1  0.54987059  0.87896261  0.07677637  1
  O  O6  1  0.95007781  0.88029247  0.57661244  1
  O  O7  1  0.45012941  0.12103739  0.92322363  1
  O  O8  1  0.66915029  0.86023020  0.68337877  1
  O  O9  1  0.17002871  0.14072398  0.81666729  1
  O  O10  1  0.33084971  0.13976980  0.31662123  1
  O  O11  1  0.82997129  0.85927602  0.18333271  1
  O  O12  1  0.39259630  0.69718087  0.28223992  1
  O  O13  1  0.89150661  0.30214604  0.21689736  1
  O  O14  1  0.60740370  0.30281913  0.71776008  1
  O  O15  1  0.10849339  0.69785396  0.78310264  1
  O  O16  1  0.63151126  0.55772786  0.58803422  1
  O  O17  1  0.12861766  0.44081226  0.91094740  1
  O  O18  1  0.36848874  0.44227214  0.41196578  1
  O  O19  1  0.87138234  0.55918774  0.08905260  1
  O  O20  1  0.69624516  0.29540849  0.41484587  1
  O  O21  1  0.19794543  0.70428654  0.08443006  1
  O  O22  1  0.30375484  0.70459151  0.58515413  1
  O  O23  1  0.80205457  0.29571346  0.91556994  1
  O  O24  1  0.42106265  0.69827478  0.81585510  1
  O  O25  1  0.92030041  0.30150964  0.68476354  1
  O  O26  1  0.57893735  0.30172522  0.18414490  1
  O  O27  1  0.07969959  0.69849036  0.31523646  1
  O  O28  1  0.80026936  0.77542799  0.93336247  1
  O  O29  1  0.30081929  0.22360785  0.56624408  1
  O  O30  1  0.19973064  0.22457201  0.06663753  1
  O  O31  1  0.69918071  0.77639215  0.43375592  1
  O  O32  1  0.70123754  0.02667048  0.52497773  1
  O  O33  1  0.20032006  0.97432240  0.97495208  1
  O  O34  1  0.29876246  0.97332952  0.47502227  1
  O  O35  1  0.79967994  0.02567760  0.02504792  1
  O  O36  1  0.00000000  0.50000000  0.50000000  1
loop_
_geom_bond_atom_site_label_1
_geom_bond_atom_site_label_2
_geom_bond_distance
_geom_bond_site_symmetry_2
Na0 O5 2.413119 1_555
Na0 O34 2.430917 1_555
Na0 O12 2.539653 1_555
Na0 O31 2.539906 1_555
Na0 O10 2.564185 1_565
Na0 O32 2.604904 1_565
Na0 O11 2.794865 1_555
Na1 O4 2.408270 1_555
Na1 O35 2.435871 1_455
Na1 O13 2.537644 1_455
Na1 O30 2.543380 1_555
Na1 O11 2.573060 1_445
Na1 O33 2.600344 1_544
Na1 O10 2.800784 1_555
Na2 O7 2.413119 1_555
Na2 O32 2.430917 1_555
Na2 O14 2.539653 1_555
Na2 O29 2.539906 1_555
Na2 O8 2.564185 1_545
Na2 O34 2.604904 1_545
Na2 O9 2.794865 1_555
Na3 O6 2.408270 1_555
Na3 O33 2.435871 1_655
Na3 O15 2.537644 1_655
Na3 O28 2.543380 1_555
Na3 O9 2.573060 1_665
Na3 O35 2.600344 1_566
Na3 O8 2.800784 1_555
Co0 O16 2.036819 1_555
Co0 O12 2.068387 1_555
Co0 O18 2.072359 1_555
Co0 O31 2.149758 1_555
Co0 O3 2.169498 1_555
Co0 O22 2.315828 1_555
Co1 O17 2.038330 1_554
Co1 O13 2.048585 1_455
Co1 O19 2.080706 1_455
Co1 O30 2.142385 1_555
Co1 O2 2.170944 1_555
Co1 O23 2.330002 1_454
Co2 O18 2.036819 1_555
Co2 O14 2.068387 1_555
Co2 O16 2.072359 1_555
Co2 O29 2.149758 1_555
Co2 O1 2.169498 1_555
Co2 O20 2.315828 1_555
Co3 O19 2.038330 1_556
Co3 O15 2.048585 1_655
Co3 O17 2.080706 1_655
Co3 O28 2.142385 1_555
Co3 O0 2.170944 1_555
Co3 O21 2.330002 1_656
Co4 O4 1.953434 1_655
Co4 O32 1.963844 1_555
Co4 O20 1.992127 1_555
Co4 O25 1.999847 1_555
Co5 O5 1.951782 1_556
Co5 O33 1.957721 1_555
Co5 O21 1.994066 1_556
Co5 O24 2.001515 1_555
Co6 O6 1.953434 1_455
Co6 O34 1.963844 1_555
Co6 O22 1.992127 1_555
Co6 O27 1.999847 1_555
Co7 O7 1.951782 1_554
Co7 O35 1.957721 1_555
Co7 O23 1.994066 1_554
Co7 O26 2.001515 1_555
Co8 O24 2.050112 1_555
Co8 O28 2.063344 1_555
Co8 O8 2.066499 1_555
Co8 O16 2.067535 1_555
Co8 O0 2.069505 1_555
Co9 O25 2.037739 1_455
Co9 O29 2.049148 1_555
Co9 O1 2.061620 1_555
Co9 O9 2.070081 1_555
Co9 O17 2.080415 1_555
Co10 O26 2.050112 1_555
Co10 O30 2.063344 1_555
Co10 O10 2.066499 1_555
Co10 O18 2.067535 1_555
Co10 O2 2.069505 1_555
Co11 O27 2.037739 1_655
Co11 O31 2.049148 1_555
Co11 O3 2.061620 1_555
Co11 O11 2.070081 1_555
Co11 O19 2.080415 1_555
H0 O16 0.987879 1_555
H1 O17 0.975186 1_555
H2 O18 0.987879 1_555
H3 O19 0.975186 1_555
O0 P5 1.551451 1_555
O1 P4 1.552489 1_555
O2 P7 1.551451 1_555
O3 P6 1.552489 1_555
O4 P2 1.541750 1_555
O5 P3 1.542729 1_555
O6 P0 1.541750 1_555
O7 P1 1.542729 1_555
O8 P0 1.544025 1_555
O9 P1 1.544439 1_555
O10 P2 1.544025 1_555
O11 P3 1.544439 1_555
O12 P7 1.540598 1_555
O13 P6 1.541332 1_555
O14 P5 1.540598 1_555
O15 P4 1.541332 1_555
O20 P6 1.562265 1_555
O21 P7 1.561247 1_555
O22 P4 1.562265 1_555
O23 P5 1.561247 1_555
O24 P4 1.581988 1_555
O25 P5 1.583976 1_555
O26 P6 1.581988 1_555
O27 P7 1.583976 1_555
O28 P3 1.569018 1_556
O29 P2 1.569878 1_555
O30 P1 1.569018 1_554
O31 P0 1.569878 1_555
O32 P0 1.561985 1_545
O33 P1 1.561119 1_565
O34 P2 1.561985 1_565
O35 P3 1.561119 1_545
