# generated using pymatgen
data_VO2
_symmetry_space_group_name_H-M   'P 1'
_cell_length_a   5.88359100
_cell_length_b   5.89004970
_cell_length_c   19.45529324
_cell_angle_alpha   90.62914537
_cell_angle_beta   98.44182471
_cell_angle_gamma   117.73433057
_symmetry_Int_Tables_number   1
_chemical_formula_structural   VO2
_chemical_formula_sum   'V16 O32'
_cell_volume   587.86700479
_cell_formula_units_Z   16
loop_
 _symmetry_equiv_pos_site_id
 _symmetry_equiv_pos_as_xyz
  1  'x, y, z'
loop_
 _atom_site_type_symbol
 _atom_site_label
 _atom_site_symmetry_multiplicity
 _atom_site_fract_x
 _atom_site_fract_y
 _atom_site_fract_z
 _atom_site_occupancy
  V  V0  1  0.26911500  0.65270300  0.86954700  1
  V  V1  1  0.97950200  0.25415300  0.73512200  1
  V  V2  1  0.73976000  0.12481500  0.87719200  1
  V  V3  1  0.81338000  0.15338600  0.46671500  1
  V  V4  1  0.75167900  0.86670900  0.62235500  1
  V  V5  1  0.67754100  0.60190600  0.77992300  1
  V  V6  1  0.31463600  0.40510400  0.22101300  1
  V  V7  1  0.25649000  0.37116300  0.62236600  1
  V  V8  1  0.25213400  0.12466400  0.37607300  1
  V  V9  1  0.19058300  0.84357500  0.53348400  1
  V  V10  1  0.75151500  0.62439500  0.37614800  1
  V  V11  1  0.25051600  0.87418000  0.13078000  1
  V  V12  1  0.75790000  0.39549100  0.12284500  1
  V  V13  1  0.69151000  0.09370300  0.28137600  1
  V  V14  1  0.47636700  0.98342600  0.99192300  1
  V  V15  1  0.17837400  0.35150300  0.02867900  1
  O  O0  1  0.62725200  0.26860500  0.93312800  1
  O  O1  1  0.37785000  0.91397700  0.82115900  1
  O  O2  1  0.17201700  0.82750200  0.94142900  1
  O  O3  1  0.60890400  0.82185700  0.93266500  1
  O  O4  1  0.88791800  0.42853100  0.81143000  1
  O  O5  1  0.11154600  0.51500800  0.68781800  1
  O  O6  1  0.36107400  0.44574500  0.80896800  1
  O  O7  1  0.88540200  0.17469300  0.55889700  1
  O  O8  1  0.67202900  0.07557500  0.68788200  1
  O  O9  1  0.10932800  0.33357000  0.93515000  1
  O  O10  1  0.10164900  0.08153500  0.68483500  1
  O  O11  1  0.85000400  0.94510900  0.81106700  1
  O  O12  1  0.65171200  0.83613200  0.43672200  1
  O  O13  1  0.38322500  0.68953300  0.57159700  1
  O  O14  1  0.90723100  0.71049800  0.56562200  1
  O  O15  1  0.38606300  0.43040400  0.31532200  1
  O  O16  1  0.10099700  0.28536300  0.43642900  1
  O  O17  1  0.61555000  0.57182800  0.68638600  1
  O  O18  1  0.61744000  0.31332100  0.43166200  1
  O  O19  1  0.35499600  0.15843100  0.56545100  1
  O  O20  1  0.88455200  0.93547200  0.31879500  1
  O  O21  1  0.15291500  0.09125900  0.18961200  1
  O  O22  1  0.40778000  0.96507900  0.31286900  1
  O  O23  1  0.87938600  0.67672500  0.08369000  1
  O  O24  1  0.59640300  0.53297700  0.18883900  1
  O  O25  1  0.11903800  0.82035300  0.43962200  1
  O  O26  1  0.11948700  0.55399300  0.18408800  1
  O  O27  1  0.84895500  0.40662200  0.31346400  1
  O  O28  1  0.38793000  0.18661300  0.06490700  1
  O  O29  1  0.85896000  0.20248800  0.05866800  1
  O  O30  1  0.62069000  0.08190000  0.18623800  1
  O  O31  1  0.35453700  0.69499300  0.06042700  1
loop_
_geom_bond_atom_site_label_1
_geom_bond_atom_site_label_2
_geom_bond_distance
_geom_bond_site_symmetry_2
O0 V2 1.747234 1_555
O0 V14 1.967346 1_545
O1 V0 1.719329 1_555
O1 V2 2.022915 1_565
O2 V14 1.716991 1_555
O2 V0 2.023006 1_555
O3 V14 1.942527 1_555
O3 V0 1.973768 1_555
O3 V2 1.987283 1_565
O4 V5 1.979414 1_555
O4 V1 2.065382 1_555
O4 V0 2.125656 1_655
O4 V2 2.126799 1_555
O5 V1 1.714994 1_455
O5 V7 2.008544 1_555
O6 V5 1.832638 1_555
O6 V0 1.984255 1_555
O6 V1 2.244334 1_455
O7 V3 1.770346 1_555
O7 V4 2.107122 1_545
O7 V7 2.110988 1_655
O8 V1 1.715591 1_555
O8 V4 2.008950 1_545
O9 V15 1.796123 1_556
O9 V2 2.067011 1_455
O9 V0 2.192342 1_555
O10 V1 1.836315 1_455
O10 V4 2.030968 1_445
O10 V7 2.035027 1_555
O11 V5 1.834825 1_555
O11 V2 2.012521 1_565
O11 V1 2.275038 1_565
O12 V3 1.701715 1_565
O12 V10 2.035068 1_555
O13 V9 1.839257 1_555
O13 V7 2.000882 1_555
O13 V4 2.001731 1_555
O14 V9 1.698592 1_655
O14 V4 1.990098 1_555
O15 V6 1.809600 1_555
O15 V8 2.064046 1_555
O15 V10 2.065371 1_555
O16 V3 1.701040 1_455
O16 V8 2.032497 1_555
O17 V5 1.792749 1_555
O17 V4 2.062949 1_555
O17 V7 2.069383 1_555
O18 V3 1.864287 1_555
O18 V8 2.022907 1_555
O18 V10 2.023420 1_555
O19 V9 1.700029 1_545
O19 V7 1.991454 1_555
O20 V13 1.856323 1_565
O20 V10 2.044844 1_555
O20 V8 2.045207 1_665
O21 V6 1.692096 1_555
O21 V11 2.029510 1_545
O22 V13 1.693957 1_565
O22 V8 2.083409 1_565
O23 V12 1.709006 1_555
O23 V11 1.996378 1_655
O24 V6 1.691240 1_555
O24 V12 2.063646 1_555
O25 V9 1.801616 1_555
O25 V8 2.093102 1_565
O25 V10 2.096348 1_455
O26 V6 1.819969 1_555
O26 V11 2.037432 1_555
O26 V12 2.049377 1_455
O27 V13 1.691365 1_555
O27 V10 2.077644 1_555
O28 V15 1.958207 1_555
O28 V12 2.068578 1_555
O28 V14 2.116226 1_544
O28 V11 2.157276 1_545
O29 V15 1.854856 1_655
O29 V12 2.005178 1_555
O29 V14 2.195405 1_544
O30 V13 1.829806 1_555
O30 V11 2.050715 1_545
O30 V12 2.130489 1_555
O31 V15 1.838986 1_555
O31 V11 2.043857 1_555
O31 V14 2.091188 1_554
