# generated using pymatgen
data_LiMn9CdO10
_symmetry_space_group_name_H-M   'P 1'
_cell_length_a   5.70015184
_cell_length_b   8.99539968
_cell_length_c   5.57979089
_cell_angle_alpha   71.86404750
_cell_angle_beta   103.75004006
_cell_angle_gamma   94.20642449
_symmetry_Int_Tables_number   1
_chemical_formula_structural   LiMn9CdO10
_chemical_formula_sum   'Li1 Mn9 Cd1 O10'
_cell_volume   264.09913393
_cell_formula_units_Z   1
loop_
 _symmetry_equiv_pos_site_id
 _symmetry_equiv_pos_as_xyz
  1  'x, y, z'
loop_
 _atom_site_type_symbol
 _atom_site_label
 _atom_site_symmetry_multiplicity
 _atom_site_fract_x
 _atom_site_fract_y
 _atom_site_fract_z
 _atom_site_occupancy
  Li  Li0  1  0.27541400  0.79784700  0.61088200  1
  Mn  Mn0  1  0.53701300  0.40705600  0.32843900  1
  Mn  Mn1  1  0.03242300  0.02749300  0.01436900  1
  Mn  Mn2  1  0.54540100  0.04606200  0.51393100  1
  Mn  Mn3  1  0.03596000  0.57213700  0.24498700  1
  Mn  Mn4  1  0.03983900  0.20236300  0.43153100  1
  Mn  Mn5  1  0.53308800  0.19267200  0.93166600  1
  Mn  Mn6  1  0.54969700  0.55330700  0.76396300  1
  Mn  Mn7  1  0.04309700  0.39740800  0.83652900  1
  Mn  Mn8  1  0.82101900  0.80013300  0.44844900  1
  Cd  Cd0  1  0.44592000  0.80060100  0.07407900  1
  O  O0  1  0.79055200  0.04752700  0.26673800  1
  O  O1  1  0.79497200  0.40285800  0.09537900  1
  O  O2  1  0.79095100  0.19719400  0.69423100  1
  O  O3  1  0.79367700  0.55246900  0.51753000  1
  O  O4  1  0.28791700  0.20327500  0.17240600  1
  O  O5  1  0.10791700  0.80009500  0.27615700  1
  O  O6  1  0.61416000  0.80006600  0.70121000  1
  O  O7  1  0.27386600  0.02732600  0.74800100  1
  O  O8  1  0.29102500  0.39638900  0.57852100  1
  O  O9  1  0.27704600  0.57259800  0.97719100  1
loop_
_geom_bond_atom_site_label_1
_geom_bond_atom_site_label_2
_geom_bond_distance
_geom_bond_site_symmetry_2
Li0 O6 1.876377 1_555
Li0 O5 1.879334 1_555
Li0 O9 2.387203 1_555
Li0 O7 2.415719 1_565
Mn0 O8 2.179326 1_555
Mn0 O1 2.191422 1_555
Mn0 O3 2.193008 1_555
Mn0 O9 2.319639 1_554
Mn0 O4 2.481605 1_555
Mn0 O2 2.534276 1_555
Mn1 O5 2.115014 1_545
Mn1 O2 2.203989 1_454
Mn1 O0 2.243562 1_455
Mn1 O7 2.253263 1_554
Mn1 O4 2.306205 1_555
Mn2 O6 2.152953 1_545
Mn2 O2 2.173094 1_555
Mn2 O0 2.181180 1_555
Mn2 O7 2.217099 1_555
Mn2 O4 2.254492 1_555
Mn3 O5 2.113779 1_555
Mn3 O1 2.200435 1_455
Mn3 O3 2.246391 1_455
Mn3 O9 2.256710 1_554
Mn3 O8 2.301297 1_555
Mn4 O0 2.165739 1_455
Mn4 O7 2.198700 1_555
Mn4 O4 2.247902 1_555
Mn4 O2 2.258301 1_455
Mn4 O8 2.394842 1_555
Mn4 O1 2.395377 1_455
Mn5 O4 2.181340 1_556
Mn5 O2 2.191054 1_555
Mn5 O0 2.193420 1_556
Mn5 O7 2.313536 1_555
Mn5 O8 2.444426 1_555
Mn5 O1 2.578867 1_556
Mn6 O6 2.154606 1_555
Mn6 O1 2.167124 1_556
Mn6 O3 2.177605 1_555
Mn6 O9 2.215434 1_555
Mn6 O8 2.261823 1_555
Mn7 O3 2.162735 1_455
Mn7 O9 2.200452 1_555
Mn7 O8 2.246577 1_555
Mn7 O1 2.261463 1_456
Mn7 O4 2.363502 1_556
Mn7 O2 2.430596 1_455
Mn8 O6 2.041898 1_555
Mn8 O5 2.084768 1_655
Mn8 O0 2.139840 1_565
Mn8 O3 2.139893 1_555
Cd0 O7 2.359405 1_564
Cd0 O9 2.361916 1_554
Cd0 O5 2.451872 1_555
Cd0 O6 2.490720 1_554
Cd0 Li0 2.543089 1_554
Cd0 Mn8 2.609172 1_555
