# generated using pymatgen
data_Li8Fe7O15
_symmetry_space_group_name_H-M   'P 1'
_cell_length_a   10.81984663
_cell_length_b   10.81984663
_cell_length_c   8.54654392
_cell_angle_alpha   79.93738006
_cell_angle_beta   79.93738006
_cell_angle_gamma   15.97666816
_symmetry_Int_Tables_number   1
_chemical_formula_structural   Li8Fe7O15
_chemical_formula_sum   'Li8 Fe7 O15'
_cell_volume   271.07307013
_cell_formula_units_Z   1
loop_
 _symmetry_equiv_pos_site_id
 _symmetry_equiv_pos_as_xyz
  1  'x, y, z'
loop_
 _atom_site_type_symbol
 _atom_site_label
 _atom_site_symmetry_multiplicity
 _atom_site_fract_x
 _atom_site_fract_y
 _atom_site_fract_z
 _atom_site_occupancy
  Li  Li0  1  0.16600400  0.16600400  0.82816400  1
  Li  Li1  1  0.03334700  0.03334700  0.76585800  1
  Li  Li2  1  0.96665300  0.96665300  0.23414200  1
  Li  Li3  1  0.83399600  0.83399600  0.17183600  1
  Li  Li4  1  0.09903700  0.09903700  0.30326500  1
  Li  Li5  1  0.23483400  0.23483400  0.37096400  1
  Li  Li6  1  0.90096300  0.90096300  0.69673500  1
  Li  Li7  1  0.76516600  0.76516600  0.62903600  1
  Fe  Fe0  1  0.43299100  0.43299100  0.96577800  1
  Fe  Fe1  1  0.30022500  0.30022500  0.88502600  1
  Fe  Fe2  1  0.69977500  0.69977500  0.11497400  1
  Fe  Fe3  1  0.56700900  0.56700900  0.03422200  1
  Fe  Fe4  1  0.36348400  0.36348400  0.42847900  1
  Fe  Fe5  1  0.50000000  0.50000000  0.50000000  1
  Fe  Fe6  1  0.63651600  0.63651600  0.57152100  1
  O  O0  1  0.86755700  0.86755700  0.93371500  1
  O  O1  1  0.73757000  0.73757000  0.87592400  1
  O  O2  1  0.00000000  0.00000000  0.00000000  1
  O  O3  1  0.59922900  0.59922900  0.80536500  1
  O  O4  1  0.13244300  0.13244300  0.06628500  1
  O  O5  1  0.40077100  0.40077100  0.19463500  1
  O  O6  1  0.26243000  0.26243000  0.12407600  1
  O  O7  1  0.93543900  0.93543900  0.46637700  1
  O  O8  1  0.80678000  0.80678000  0.40185600  1
  O  O9  1  0.66630000  0.66630000  0.33629300  1
  O  O10  1  0.53378600  0.53378600  0.26449100  1
  O  O11  1  0.46621400  0.46621400  0.73550900  1
  O  O12  1  0.06456100  0.06456100  0.53362300  1
  O  O13  1  0.33370000  0.33370000  0.66370700  1
  O  O14  1  0.19322000  0.19322000  0.59814400  1
loop_
_geom_bond_atom_site_label_1
_geom_bond_atom_site_label_2
_geom_bond_distance
_geom_bond_site_symmetry_2
Li0 O14 1.949420 1_555
Li0 O4 2.035300 1_556
Li0 O3 2.108315 1_455
Li0 O3 2.108315 1_545
Li0 O1 2.236185 1_455
Li0 O1 2.236185 1_545
Li1 O12 1.979495 1_555
Li1 O2 2.002619 1_556
Li1 O11 2.128287 1_455
Li1 O11 2.128287 1_545
Li1 O3 2.129896 1_545
Li1 O3 2.129896 1_455
Li2 O7 1.979495 1_555
Li2 O2 2.002619 1_665
Li2 O10 2.128287 1_565
Li2 O10 2.128287 1_655
Li2 O5 2.129896 1_655
Li2 O5 2.129896 1_565
Li3 O8 1.949420 1_555
Li3 O0 2.035300 1_554
Li3 O5 2.108315 1_565
Li3 O5 2.108315 1_655
Li3 O6 2.236185 1_655
Li3 O6 2.236185 1_565
Li4 O12 1.977020 1_555
Li4 O4 2.025570 1_555
Li4 O10 2.118859 1_455
Li4 O10 2.118859 1_545
Li4 O9 2.135867 1_545
Li4 O9 2.135867 1_455
Li5 O14 1.988492 1_555
Li5 O6 2.088460 1_555
Li5 O9 2.158543 1_455
Li5 O9 2.158543 1_545
Li5 O8 2.202590 1_455
Li5 O8 2.202590 1_545
Li6 O7 1.977020 1_555
Li6 O0 2.025570 1_555
Li6 O11 2.118859 1_655
Li6 O11 2.118859 1_565
Li6 O13 2.135867 1_565
Li6 O13 2.135867 1_655
Li7 O8 1.988492 1_555
Li7 O1 2.088460 1_555
Li7 O13 2.158543 1_565
Li7 O13 2.158543 1_655
Li7 O14 2.202590 1_655
Li7 O14 2.202590 1_565
Fe0 O5 1.955984 1_556
Fe0 O11 1.971168 1_555
Fe0 O0 2.106632 1_455
Fe0 O0 2.106632 1_545
Fe0 O2 2.134657 1_566
Fe0 O2 2.134657 1_656
Fe1 O13 1.900951 1_555
Fe1 O1 2.026489 1_545
Fe1 O1 2.026489 1_455
Fe1 O6 2.060617 1_556
Fe1 O0 2.174390 1_455
Fe1 O0 2.174390 1_545
Fe2 O9 1.900951 1_555
Fe2 O6 2.026489 1_655
Fe2 O6 2.026489 1_565
Fe2 O1 2.060617 1_554
Fe2 O4 2.174390 1_565
Fe2 O4 2.174390 1_655
Fe3 O3 1.955984 1_554
Fe3 O10 1.971168 1_555
Fe3 O4 2.106632 1_655
Fe3 O4 2.106632 1_565
Fe3 O2 2.134657 1_655
Fe3 O2 2.134657 1_565
Fe4 O8 1.971520 1_545
Fe4 O8 1.971520 1_455
Fe4 O13 1.999060 1_555
Fe4 O5 2.017225 1_555
Fe4 O7 2.218062 1_545
Fe4 O7 2.218062 1_455
Fe5 O11 2.015262 1_555
Fe5 O10 2.015262 1_555
Fe5 O7 2.097133 1_545
Fe5 O7 2.097133 1_455
Fe5 O12 2.097133 1_565
Fe5 O12 2.097133 1_655
Fe6 O14 1.971520 1_655
Fe6 O14 1.971520 1_565
Fe6 O9 1.999060 1_555
Fe6 O3 2.017225 1_555
Fe6 O12 2.218062 1_565
Fe6 O12 2.218062 1_655
