# generated using pymatgen
data_K7Nb14(P3O20)3
_symmetry_space_group_name_H-M   'P 1'
_cell_length_a   6.48972988
_cell_length_b   10.70819832
_cell_length_c   37.10508022
_cell_angle_alpha   90.00000000
_cell_angle_beta   90.00000000
_cell_angle_gamma   90.00000000
_symmetry_Int_Tables_number   1
_chemical_formula_structural   K7Nb14(P3O20)3
_chemical_formula_sum   'K14 Nb28 P18 O120'
_cell_volume   2578.55501292
_cell_formula_units_Z   2
loop_
 _symmetry_equiv_pos_site_id
 _symmetry_equiv_pos_as_xyz
  1  'x, y, z'
loop_
 _atom_site_type_symbol
 _atom_site_label
 _atom_site_symmetry_multiplicity
 _atom_site_fract_x
 _atom_site_fract_y
 _atom_site_fract_z
 _atom_site_occupancy
  K  K0  1  0.45167247  0.50000000  0.75000000  1
  K  K1  1  0.54832753  0.50000000  0.25000000  1
  K  K2  1  0.96320363  0.00000000  0.38751137  1
  K  K3  1  0.03679637  0.00000000  0.61248863  1
  K  K4  1  0.96320363  0.00000000  0.11248863  1
  K  K5  1  0.03679637  0.00000000  0.88751137  1
  K  K6  1  0.75292765  0.50000000  0.39277271  1
  K  K7  1  0.24707235  0.50000000  0.60722729  1
  K  K8  1  0.75292765  0.50000000  0.10722729  1
  K  K9  1  0.24707235  0.50000000  0.89277271  1
  K  K10  1  0.27383351  0.00000000  0.75000000  1
  K  K11  1  0.72616649  0.00000000  0.25000000  1
  K  K12  1  0.00000000  0.00000000  -0.00000000  1
  K  K13  1  0.00000000  0.00000000  0.50000000  1
  Nb  Nb0  1  0.51943919  0.00000000  0.94612865  1
  Nb  Nb1  1  0.48056081  0.00000000  0.05387135  1
  Nb  Nb2  1  0.51943919  0.00000000  0.55387135  1
  Nb  Nb3  1  0.48056081  0.00000000  0.44612865  1
  Nb  Nb4  1  0.95278589  0.68382245  0.75000000  1
  Nb  Nb5  1  0.04721411  0.31617755  0.25000000  1
  Nb  Nb6  1  0.95278589  0.31617755  0.75000000  1
  Nb  Nb7  1  0.04721411  0.68382245  0.25000000  1
  Nb  Nb8  1  0.74322053  0.67590902  0.94544109  1
  Nb  Nb9  1  0.25677947  0.32409098  0.05455891  1
  Nb  Nb10  1  0.74322053  0.32409098  0.55455891  1
  Nb  Nb11  1  0.25677947  0.67590902  0.05455891  1
  Nb  Nb12  1  0.25677947  0.67590902  0.44544109  1
  Nb  Nb13  1  0.74322053  0.32409098  0.94544109  1
  Nb  Nb14  1  0.25677947  0.32409098  0.44544109  1
  Nb  Nb15  1  0.74322053  0.67590902  0.55455891  1
  Nb  Nb16  1  0.75442880  0.67753803  0.84258660  1
  Nb  Nb17  1  0.24557120  0.32246197  0.15741340  1
  Nb  Nb18  1  0.75442880  0.32246197  0.65741340  1
  Nb  Nb19  1  0.24557120  0.67753803  0.15741340  1
  Nb  Nb20  1  0.24557120  0.67753803  0.34258660  1
  Nb  Nb21  1  0.75442880  0.32246197  0.84258660  1
  Nb  Nb22  1  0.24557120  0.32246197  0.34258660  1
  Nb  Nb23  1  0.75442880  0.67753803  0.65741340  1
  Nb  Nb24  1  0.54656305  0.00000000  0.84172533  1
  Nb  Nb25  1  0.45343695  0.00000000  0.15827467  1
  Nb  Nb26  1  0.54656305  0.00000000  0.65827467  1
  Nb  Nb27  1  0.45343695  0.00000000  0.34172533  1
  P  P0  1  0.75657752  0.73874667  0.46031572  1
  P  P1  1  0.24342248  0.26125333  0.53968428  1
  P  P2  1  0.75657752  0.26125333  0.03968428  1
  P  P3  1  0.24342248  0.73874667  0.53968428  1
  P  P4  1  0.24342248  0.73874667  0.96031572  1
  P  P5  1  0.75657752  0.26125333  0.46031572  1
  P  P6  1  0.24342248  0.26125333  0.96031572  1
  P  P7  1  0.75657752  0.73874667  0.03968428  1
  P  P8  1  0.77233875  0.00000000  0.75000000  1
  P  P9  1  0.22766125  0.00000000  0.25000000  1
  P  P10  1  0.74514907  0.73861540  0.32405740  1
  P  P11  1  0.25485093  0.26138460  0.67594260  1
  P  P12  1  0.74514907  0.26138460  0.17594260  1
  P  P13  1  0.25485093  0.73861540  0.67594260  1
  P  P14  1  0.25485093  0.73861540  0.82405740  1
  P  P15  1  0.74514907  0.26138460  0.32405740  1
  P  P16  1  0.25485093  0.26138460  0.82405740  1
  P  P17  1  0.74514907  0.73861540  0.17594260  1
  O  O0  1  0.43007448  0.66375567  0.94730956  1
  O  O1  1  0.56992552  0.33624433  0.05269044  1
  O  O2  1  0.43007448  0.33624433  0.55269044  1
  O  O3  1  0.56992552  0.66375567  0.05269044  1
  O  O4  1  0.56992552  0.66375567  0.44730956  1
  O  O5  1  0.43007448  0.33624433  0.94730956  1
  O  O6  1  0.56992552  0.33624433  0.44730956  1
  O  O7  1  0.43007448  0.66375567  0.55269044  1
  O  O8  1  0.78720240  0.70181002  0.28517220  1
  O  O9  1  0.21279760  0.29818998  0.71482780  1
  O  O10  1  0.78720240  0.29818998  0.21482780  1
  O  O11  1  0.21279760  0.70181002  0.71482780  1
  O  O12  1  0.21279760  0.70181002  0.78517220  1
  O  O13  1  0.78720240  0.29818998  0.28517220  1
  O  O14  1  0.21279760  0.29818998  0.78517220  1
  O  O15  1  0.78720240  0.70181002  0.21482780  1
  O  O16  1  0.93210399  0.70286101  0.34771201  1
  O  O17  1  0.06789601  0.29713899  0.65228799  1
  O  O18  1  0.93210399  0.29713899  0.15228799  1
  O  O19  1  0.06789601  0.70286101  0.65228799  1
  O  O20  1  0.06789601  0.70286101  0.84771201  1
  O  O21  1  0.93210399  0.29713899  0.34771201  1
  O  O22  1  0.06789601  0.29713899  0.84771201  1
  O  O23  1  0.93210399  0.70286101  0.15228799  1
  O  O24  1  0.29859269  0.87752579  0.82729349  1
  O  O25  1  0.70140731  0.12247421  0.17270651  1
  O  O26  1  0.29859269  0.12247421  0.67270651  1
  O  O27  1  0.70140731  0.87752579  0.17270651  1
  O  O28  1  0.70140731  0.87752579  0.32729349  1
  O  O29  1  0.29859269  0.12247421  0.82729349  1
  O  O30  1  0.70140731  0.12247421  0.32729349  1
  O  O31  1  0.29859269  0.87752579  0.67270651  1
  O  O32  1  0.63338897  0.00000000  0.78369391  1
  O  O33  1  0.36661103  0.00000000  0.21630609  1
  O  O34  1  0.63338897  0.00000000  0.71630609  1
  O  O35  1  0.36661103  0.00000000  0.28369391  1
  O  O36  1  0.91635426  0.88423783  0.75000000  1
  O  O37  1  0.08364574  0.11576217  0.25000000  1
  O  O38  1  0.91635426  0.11576217  0.75000000  1
  O  O39  1  0.08364574  0.88423783  0.25000000  1
  O  O40  1  0.94546099  0.68016722  0.44192801  1
  O  O41  1  0.05453901  0.31983278  0.55807199  1
  O  O42  1  0.94546099  0.31983278  0.05807199  1
  O  O43  1  0.05453901  0.68016722  0.55807199  1
  O  O44  1  0.05453901  0.68016722  0.94192801  1
  O  O45  1  0.94546099  0.31983278  0.44192801  1
  O  O46  1  0.05453901  0.31983278  0.94192801  1
  O  O47  1  0.94546099  0.68016722  0.05807199  1
  O  O48  1  0.46339096  0.00000000  0.89125678  1
  O  O49  1  0.53660904  0.00000000  0.10874322  1
  O  O50  1  0.46339096  0.00000000  0.60874322  1
  O  O51  1  0.53660904  0.00000000  0.39125678  1
  O  O52  1  0.72844749  0.86425579  0.84710925  1
  O  O53  1  0.27155251  0.13574421  0.15289075  1
  O  O54  1  0.72844749  0.13574421  0.65289075  1
  O  O55  1  0.27155251  0.86425579  0.15289075  1
  O  O56  1  0.27155251  0.86425579  0.34710925  1
  O  O57  1  0.72844749  0.13574421  0.84710925  1
  O  O58  1  0.27155251  0.13574421  0.34710925  1
  O  O59  1  0.72844749  0.86425579  0.65289075  1
  O  O60  1  0.76959775  0.68315931  0.78931077  1
  O  O61  1  0.23040225  0.31684069  0.21068923  1
  O  O62  1  0.76959775  0.31684069  0.71068923  1
  O  O63  1  0.23040225  0.68315931  0.21068923  1
  O  O64  1  0.23040225  0.68315931  0.28931077  1
  O  O65  1  0.76959775  0.31684069  0.78931077  1
  O  O66  1  0.23040225  0.31684069  0.28931077  1
  O  O67  1  0.76959775  0.68315931  0.71068923  1
  O  O68  1  0.70712602  0.86668111  0.94161211  1
  O  O69  1  0.29287398  0.13331889  0.05838789  1
  O  O70  1  0.70712602  0.13331889  0.55838789  1
  O  O71  1  0.29287398  0.86668111  0.05838789  1
  O  O72  1  0.29287398  0.86668111  0.44161211  1
  O  O73  1  0.70712602  0.13331889  0.94161211  1
  O  O74  1  0.29287398  0.13331889  0.44161211  1
  O  O75  1  0.70712602  0.86668111  0.55838789  1
  O  O76  1  0.73423646  0.65936503  0.89549443  1
  O  O77  1  0.26576354  0.34063497  0.10450557  1
  O  O78  1  0.73423646  0.34063497  0.60450557  1
  O  O79  1  0.26576354  0.65936503  0.10450557  1
  O  O80  1  0.26576354  0.65936503  0.39549443  1
  O  O81  1  0.73423646  0.34063497  0.89549443  1
  O  O82  1  0.26576354  0.34063497  0.39549443  1
  O  O83  1  0.73423646  0.65936503  0.60450557  1
  O  O84  1  0.79084549  0.50000000  0.84015777  1
  O  O85  1  0.20915451  0.50000000  0.15984223  1
  O  O86  1  0.79084549  0.50000000  0.65984223  1
  O  O87  1  0.20915451  0.50000000  0.34015777  1
  O  O88  1  0.74348108  0.87441107  0.44826207  1
  O  O89  1  0.25651892  0.12558893  0.55173793  1
  O  O90  1  0.74348108  0.12558893  0.05173793  1
  O  O91  1  0.25651892  0.87441107  0.55173793  1
  O  O92  1  0.25651892  0.87441107  0.94826207  1
  O  O93  1  0.74348108  0.12558893  0.44826207  1
  O  O94  1  0.25651892  0.12558893  0.94826207  1
  O  O95  1  0.74348108  0.87441107  0.05173793  1
  O  O96  1  0.50000000  0.00000000  -0.00000000  1
  O  O97  1  0.50000000  0.00000000  0.50000000  1
  O  O98  1  0.77436044  0.72797225  0.99916606  1
  O  O99  1  0.22563956  0.27202775  0.00083394  1
  O  O100  1  0.77436044  0.27202775  0.50083394  1
  O  O101  1  0.22563956  0.72797225  0.00083394  1
  O  O102  1  0.22563956  0.72797225  0.49916606  1
  O  O103  1  0.77436044  0.27202775  0.99916606  1
  O  O104  1  0.22563956  0.27202775  0.49916606  1
  O  O105  1  0.77436044  0.72797225  0.50083394  1
  O  O106  1  0.43963651  0.66256084  0.83867964  1
  O  O107  1  0.56036349  0.33743916  0.16132036  1
  O  O108  1  0.43963651  0.33743916  0.66132036  1
  O  O109  1  0.56036349  0.66256084  0.16132036  1
  O  O110  1  0.56036349  0.66256084  0.33867964  1
  O  O111  1  0.43963651  0.33743916  0.83867964  1
  O  O112  1  0.56036349  0.33743916  0.33867964  1
  O  O113  1  0.43963651  0.66256084  0.66132036  1
  O  O114  1  0.74707109  0.50000000  0.95643685  1
  O  O115  1  0.25292891  0.50000000  0.04356315  1
  O  O116  1  0.74707109  0.50000000  0.54356315  1
  O  O117  1  0.25292891  0.50000000  0.45643685  1
  O  O118  1  0.98656999  0.50000000  0.75000000  1
  O  O119  1  0.01343001  0.50000000  0.25000000  1
loop_
_geom_bond_atom_site_label_1
_geom_bond_atom_site_label_2
_geom_bond_distance
_geom_bond_site_symmetry_2
K0 O14 2.962506 1_555
K0 O9 2.962506 1_555
K0 O11 2.962506 1_555
K0 O12 2.962506 1_555
K0 O118 3.018389 1_455
K0 O67 3.198643 1_555
K0 O62 3.198643 1_555
K0 O60 3.198643 1_555
K0 O65 3.198643 1_555
K1 O13 2.962506 1_555
K1 O8 2.962506 1_555
K1 O15 2.962506 1_555
K1 O10 2.962506 1_555
K1 O119 3.018389 1_655
K1 O63 3.198643 1_555
K1 O64 3.198643 1_555
K1 O66 3.198643 1_555
K1 O61 3.198643 1_555
K2 O51 2.771970 1_555
K2 O58 2.892172 1_655
K2 O56 2.892172 1_645
K2 O88 2.987158 1_545
K2 O93 2.987158 1_555
K2 O28 3.098230 1_545
K2 O30 3.098230 1_555
K2 O72 3.262683 1_645
K2 O74 3.262683 1_655
K3 O50 2.771970 1_555
K3 O59 2.892172 1_445
K3 O54 2.892172 1_455
K3 O89 2.987158 1_555
K3 O91 2.987158 1_545
K3 O26 3.098230 1_555
K3 O31 3.098230 1_545
K3 O75 3.262683 1_445
K3 O70 3.262683 1_455
K4 O49 2.771970 1_555
K4 O53 2.892172 1_655
K4 O55 2.892172 1_645
K4 O95 2.987158 1_545
K4 O90 2.987158 1_555
K4 O27 3.098230 1_545
K4 O25 3.098230 1_555
K4 O71 3.262683 1_645
K4 O69 3.262683 1_655
K5 O48 2.771970 1_555
K5 O52 2.892172 1_445
K5 O57 2.892172 1_455
K5 O92 2.987158 1_545
K5 O94 2.987158 1_555
K5 O29 3.098230 1_555
K5 O24 3.098230 1_545
K5 O68 3.262683 1_445
K5 O73 3.262683 1_455
K6 O6 2.929210 1_555
K6 O4 2.929210 1_555
K6 O45 2.934271 1_555
K6 O40 2.934271 1_555
K6 O112 2.936058 1_555
K6 O110 2.936058 1_555
K6 O21 2.977654 1_555
K6 O16 2.977654 1_555
K7 O7 2.929210 1_555
K7 O2 2.929210 1_555
K7 O43 2.934271 1_555
K7 O41 2.934271 1_555
K7 O113 2.936058 1_555
K7 O108 2.936058 1_555
K7 O19 2.977654 1_555
K7 O17 2.977654 1_555
K8 O1 2.929210 1_555
K8 O3 2.929210 1_555
K8 O47 2.934271 1_555
K8 O42 2.934271 1_555
K8 O107 2.936058 1_555
K8 O109 2.936058 1_555
K8 O23 2.977654 1_555
K8 O18 2.977654 1_555
K9 O5 2.929210 1_555
K9 O0 2.929210 1_555
K9 O44 2.934271 1_555
K9 O46 2.934271 1_555
K9 O111 2.936058 1_555
K9 O106 2.936058 1_555
K9 O22 2.977654 1_555
K9 O20 2.977654 1_555
K10 O36 2.630353 1_445
K10 O38 2.630353 1_455
K10 O32 2.647239 1_555
K10 O34 2.647239 1_555
K10 O26 3.157706 1_555
K10 O29 3.157706 1_555
K10 O31 3.157706 1_545
K10 O24 3.157706 1_545
K11 O37 2.630353 1_655
K11 O39 2.630353 1_645
K11 O33 2.647239 1_555
K11 O35 2.647239 1_555
K11 O27 3.157706 1_545
K11 O25 3.157706 1_555
K11 O30 3.157706 1_555
K11 O28 3.157706 1_545
K12 O92 2.874948 1_544
K12 O94 2.874948 1_554
K12 O90 2.874948 1_455
K12 O95 2.874948 1_445
K12 O68 3.216253 1_444
K12 O71 3.216253 1_545
K12 O73 3.216253 1_454
K12 O69 3.216253 1_555
K12 O96 3.244865 1_555
K12 O96 3.244865 1_455
K12 O103 3.260428 1_454
K12 O98 3.260428 1_444
K12 O101 3.260428 1_545
K12 O99 3.260428 1_555
K13 O88 2.874948 1_445
K13 O93 2.874948 1_455
K13 O91 2.874948 1_545
K13 O89 2.874948 1_555
K13 O75 3.216253 1_445
K13 O72 3.216253 1_545
K13 O70 3.216253 1_455
K13 O74 3.216253 1_555
K13 O97 3.244865 1_555
K13 O97 3.244865 1_455
K13 O100 3.260428 1_455
K13 O105 3.260428 1_445
K13 O104 3.260428 1_555
K13 O102 3.260428 1_545
Nb0 O68 1.884079 1_545
Nb0 O73 1.884079 1_555
Nb0 O96 2.002878 1_556
Nb0 O48 2.068261 1_555
Nb0 O92 2.173990 1_545
Nb0 O94 2.173990 1_555
Nb1 O71 1.884079 1_545
Nb1 O69 1.884079 1_555
Nb1 O96 2.002878 1_555
Nb1 O49 2.068261 1_555
Nb1 O95 2.173990 1_545
Nb1 O90 2.173990 1_555
Nb2 O75 1.884079 1_545
Nb2 O70 1.884079 1_555
Nb2 O97 2.002878 1_555
Nb2 O50 2.068261 1_555
Nb2 O91 2.173990 1_545
Nb2 O89 2.173990 1_555
Nb3 O72 1.884079 1_545
Nb3 O74 1.884079 1_555
Nb3 O97 2.002878 1_555
Nb3 O51 2.068261 1_555
Nb3 O88 2.173990 1_545
Nb3 O93 2.173990 1_555
Nb4 O67 1.881753 1_555
Nb4 O60 1.881753 1_555
Nb4 O118 1.980580 1_555
Nb4 O11 2.141877 1_655
Nb4 O12 2.141877 1_655
Nb4 O36 2.159072 1_555
Nb5 O66 1.881753 1_555
Nb5 O61 1.881753 1_555
Nb5 O119 1.980580 1_555
Nb5 O13 2.141877 1_455
Nb5 O10 2.141877 1_455
Nb5 O37 2.159072 1_555
Nb6 O62 1.881753 1_555
Nb6 O65 1.881753 1_555
Nb6 O118 1.980580 1_555
Nb6 O14 2.141877 1_655
Nb6 O9 2.141877 1_655
Nb6 O38 2.159072 1_555
Nb7 O63 1.881753 1_555
Nb7 O64 1.881753 1_555
Nb7 O119 1.980580 1_555
Nb7 O8 2.141877 1_455
Nb7 O15 2.141877 1_455
Nb7 O39 2.159072 1_555
Nb8 O76 1.862636 1_555
Nb8 O114 1.927510 1_555
Nb8 O44 2.025087 1_655
Nb8 O0 2.037576 1_555
Nb8 O68 2.061114 1_555
Nb8 O98 2.079801 1_555
Nb9 O77 1.862636 1_555
Nb9 O115 1.927510 1_555
Nb9 O42 2.025087 1_455
Nb9 O1 2.037576 1_555
Nb9 O69 2.061114 1_555
Nb9 O99 2.079801 1_555
Nb10 O78 1.862636 1_555
Nb10 O116 1.927510 1_555
Nb10 O41 2.025087 1_655
Nb10 O2 2.037576 1_555
Nb10 O70 2.061114 1_555
Nb10 O100 2.079801 1_555
Nb11 O79 1.862636 1_555
Nb11 O115 1.927510 1_555
Nb11 O47 2.025087 1_455
Nb11 O3 2.037576 1_555
Nb11 O71 2.061114 1_555
Nb11 O101 2.079801 1_555
Nb12 O80 1.862636 1_555
Nb12 O117 1.927510 1_555
Nb12 O40 2.025087 1_455
Nb12 O4 2.037576 1_555
Nb12 O72 2.061114 1_555
Nb12 O102 2.079801 1_555
Nb13 O81 1.862636 1_555
Nb13 O114 1.927510 1_555
Nb13 O46 2.025087 1_655
Nb13 O5 2.037576 1_555
Nb13 O73 2.061114 1_555
Nb13 O103 2.079801 1_555
Nb14 O82 1.862636 1_555
Nb14 O117 1.927510 1_555
Nb14 O45 2.025087 1_455
Nb14 O6 2.037576 1_555
Nb14 O74 2.061114 1_555
Nb14 O104 2.079801 1_555
Nb15 O83 1.862636 1_555
Nb15 O116 1.927510 1_555
Nb15 O43 2.025087 1_655
Nb15 O7 2.037576 1_555
Nb15 O75 2.061114 1_555
Nb15 O105 2.079801 1_555
Nb16 O84 1.917865 1_555
Nb16 O76 1.977118 1_555
Nb16 O60 1.980169 1_555
Nb16 O52 2.013513 1_555
Nb16 O106 2.054324 1_555
Nb16 O20 2.061103 1_655
Nb17 O85 1.917865 1_555
Nb17 O77 1.977118 1_555
Nb17 O61 1.980169 1_555
Nb17 O53 2.013513 1_555
Nb17 O107 2.054324 1_555
Nb17 O18 2.061103 1_455
Nb18 O86 1.917865 1_555
Nb18 O78 1.977118 1_555
Nb18 O62 1.980169 1_555
Nb18 O54 2.013513 1_555
Nb18 O108 2.054324 1_555
Nb18 O17 2.061103 1_655
Nb19 O85 1.917865 1_555
Nb19 O79 1.977118 1_555
Nb19 O63 1.980169 1_555
Nb19 O55 2.013513 1_555
Nb19 O109 2.054324 1_555
Nb19 O23 2.061103 1_455
Nb20 O87 1.917865 1_555
Nb20 O80 1.977118 1_555
Nb20 O64 1.980169 1_555
Nb20 O56 2.013513 1_555
Nb20 O110 2.054324 1_555
Nb20 O16 2.061103 1_455
Nb21 O84 1.917865 1_555
Nb21 O81 1.977118 1_555
Nb21 O65 1.980169 1_555
Nb21 O57 2.013513 1_555
Nb21 O111 2.054324 1_555
Nb21 O22 2.061103 1_655
Nb22 O87 1.917865 1_555
Nb22 O82 1.977118 1_555
Nb22 O66 1.980169 1_555
Nb22 O58 2.013513 1_555
Nb22 O112 2.054324 1_555
Nb22 O21 2.061103 1_455
Nb23 O86 1.917865 1_555
Nb23 O83 1.977118 1_555
Nb23 O67 1.980169 1_555
Nb23 O59 2.013513 1_555
Nb23 O113 2.054324 1_555
Nb23 O19 2.061103 1_655
Nb24 O57 1.883107 1_555
Nb24 O52 1.883107 1_545
Nb24 O48 1.915491 1_555
Nb24 O29 2.143933 1_555
Nb24 O24 2.143933 1_545
Nb24 O32 2.225767 1_555
Nb25 O53 1.883107 1_555
Nb25 O55 1.883107 1_545
Nb25 O49 1.915491 1_555
Nb25 O25 2.143933 1_555
Nb25 O27 2.143933 1_545
Nb25 O33 2.225767 1_555
Nb26 O54 1.883107 1_555
Nb26 O59 1.883107 1_545
Nb26 O50 1.915491 1_555
Nb26 O26 2.143933 1_555
Nb26 O31 2.143933 1_545
Nb26 O34 2.225767 1_555
Nb27 O56 1.883107 1_545
Nb27 O58 1.883107 1_555
Nb27 O51 1.915491 1_555
Nb27 O30 2.143933 1_555
Nb27 O28 2.143933 1_545
Nb27 O35 2.225767 1_555
O0 P4 1.531351 1_555
O1 P2 1.531351 1_555
O2 P1 1.531351 1_555
O3 P7 1.531351 1_555
O4 P0 1.531351 1_555
O5 P6 1.531351 1_555
O6 P5 1.531351 1_555
O7 P3 1.531351 1_555
O8 P10 1.520393 1_555
O9 P11 1.520393 1_555
O10 P12 1.520393 1_555
O11 P13 1.520393 1_555
O12 P14 1.520393 1_555
O13 P15 1.520393 1_555
O14 P16 1.520393 1_555
O15 P17 1.520393 1_555
O16 P10 1.545645 1_555
O17 P11 1.545645 1_555
O18 P12 1.545645 1_555
O19 P13 1.545645 1_555
O20 P14 1.545645 1_555
O21 P15 1.545645 1_555
O22 P16 1.545645 1_555
O23 P17 1.545645 1_555
O24 P14 1.519078 1_555
O25 P12 1.519078 1_555
O26 P11 1.519078 1_555
O27 P17 1.519078 1_555
O28 P10 1.519078 1_555
O29 P16 1.519078 1_555
O30 P15 1.519078 1_555
O31 P13 1.519078 1_555
O32 P8 1.541488 1_555
O33 P9 1.541488 1_555
O34 P8 1.541488 1_555
O35 P9 1.541488 1_555
O36 P8 1.552461 1_565
O37 P9 1.552461 1_555
O38 P8 1.552461 1_555
O39 P9 1.552461 1_565
O40 P0 1.536742 1_555
O41 P1 1.536742 1_555
O42 P2 1.536742 1_555
O43 P3 1.536742 1_555
O44 P4 1.536742 1_555
O45 P5 1.536742 1_555
O46 P6 1.536742 1_555
O47 P7 1.536742 1_555
O88 P0 1.522385 1_555
O89 P1 1.522385 1_555
O90 P2 1.522385 1_555
O91 P3 1.522385 1_555
O92 P4 1.522385 1_555
O93 P5 1.522385 1_555
O94 P6 1.522385 1_555
O95 P7 1.522385 1_555
O98 P7 1.512262 1_556
O99 P6 1.512262 1_554
O100 P5 1.512262 1_555
O101 P4 1.512262 1_554
O102 P3 1.512262 1_555
O103 P2 1.512262 1_556
O104 P1 1.512262 1_555
O105 P0 1.512262 1_555
O106 P14 1.547815 1_555
O107 P12 1.547815 1_555
O108 P11 1.547815 1_555
O109 P17 1.547815 1_555
O110 P10 1.547815 1_555
O111 P16 1.547815 1_555
O112 P15 1.547815 1_555
O113 P13 1.547815 1_555
