# generated using pymatgen
data_H10PdC2S2(N4O3)2
_symmetry_space_group_name_H-M   'P 1'
_cell_length_a   9.07108000
_cell_length_b   9.39620600
_cell_length_c   15.42901836
_cell_angle_alpha   83.49434682
_cell_angle_beta   90.00000000
_cell_angle_gamma   90.00000000
_symmetry_Int_Tables_number   1
_chemical_formula_structural   H10PdC2S2(N4O3)2
_chemical_formula_sum   'H40 Pd4 C8 S8 N32 O24'
_cell_volume   1306.60470976
_cell_formula_units_Z   4
loop_
 _symmetry_equiv_pos_site_id
 _symmetry_equiv_pos_as_xyz
  1  'x, y, z'
loop_
 _atom_site_type_symbol
 _atom_site_label
 _atom_site_symmetry_multiplicity
 _atom_site_fract_x
 _atom_site_fract_y
 _atom_site_fract_z
 _atom_site_occupancy
  H  H0  1  0.81092100  0.98198800  0.68930100  1
  H  H1  1  0.18907900  0.01801200  0.31069900  1
  H  H2  1  0.31092100  0.01801200  0.81069900  1
  H  H3  1  0.68907900  0.98198800  0.18930100  1
  H  H4  1  0.14196600  0.64391500  0.87492000  1
  H  H5  1  0.85803400  0.35608500  0.12508000  1
  H  H6  1  0.64196600  0.35608500  0.62508000  1
  H  H7  1  0.35803400  0.64391500  0.37492000  1
  H  H8  1  0.32840900  0.53732000  0.52438900  1
  H  H9  1  0.67159100  0.46268000  0.47561100  1
  H  H10  1  0.82840900  0.46268000  0.97561100  1
  H  H11  1  0.17159100  0.53732000  0.02438900  1
  H  H12  1  0.26079400  0.58685800  0.79435400  1
  H  H13  1  0.73920600  0.41314200  0.20564600  1
  H  H14  1  0.76079400  0.41314200  0.70564600  1
  H  H15  1  0.23920600  0.58685800  0.29435400  1
  H  H16  1  0.87455600  0.86816700  0.10883400  1
  H  H17  1  0.12544400  0.13183300  0.89116600  1
  H  H18  1  0.37455600  0.13183300  0.39116600  1
  H  H19  1  0.62544400  0.86816700  0.60883400  1
  H  H20  1  0.88287500  0.91250000  0.99692500  1
  H  H21  1  0.11712500  0.08750000  0.00307500  1
  H  H22  1  0.38287500  0.08750000  0.50307500  1
  H  H23  1  0.61712500  0.91250000  0.49692500  1
  H  H24  1  0.13902500  0.42308600  0.61113400  1
  H  H25  1  0.86097500  0.57691400  0.38886600  1
  H  H26  1  0.63902500  0.57691400  0.88886600  1
  H  H27  1  0.36097500  0.42308600  0.11113400  1
  H  H28  1  0.26751700  0.30233500  0.58847800  1
  H  H29  1  0.73248300  0.69766500  0.41152200  1
  H  H30  1  0.76751700  0.69766500  0.91152200  1
  H  H31  1  0.23248300  0.30233500  0.08847800  1
  H  H32  1  0.44376100  0.79735100  0.81793700  1
  H  H33  1  0.55623900  0.20264900  0.18206300  1
  H  H34  1  0.94376100  0.20264900  0.68206300  1
  H  H35  1  0.05623900  0.79735100  0.31793700  1
  H  H36  1  0.95159300  0.92876600  0.34510000  1
  H  H37  1  0.04840700  0.07123400  0.65490000  1
  H  H38  1  0.45159300  0.07123400  0.15490000  1
  H  H39  1  0.54840700  0.92876600  0.84510000  1
  Pd  Pd0  1  0.01289300  0.25099800  0.51286600  1
  Pd  Pd1  1  0.98710700  0.74900200  0.48713400  1
  Pd  Pd2  1  0.51289300  0.74900200  0.98713400  1
  Pd  Pd3  1  0.48710700  0.25099800  0.01286600  1
  C  C0  1  0.29230400  0.48470000  0.91684400  1
  C  C1  1  0.70769600  0.51530000  0.08315600  1
  C  C2  1  0.79230400  0.51530000  0.58315600  1
  C  C3  1  0.20769600  0.48470000  0.41684400  1
  C  C4  1  0.26992400  0.97160900  0.94438200  1
  C  C5  1  0.73007600  0.02839100  0.05561800  1
  C  C6  1  0.76992400  0.02839100  0.55561800  1
  C  C7  1  0.23007600  0.97160900  0.44438200  1
  S  S0  1  0.93025000  0.62395900  0.61813200  1
  S  S1  1  0.06975000  0.37604100  0.38186800  1
  S  S2  1  0.43025000  0.37604100  0.88186800  1
  S  S3  1  0.56975000  0.62395900  0.11813200  1
  S  S4  1  0.17437100  0.87555700  0.54104100  1
  S  S5  1  0.82562900  0.12444300  0.45895900  1
  S  S6  1  0.67437100  0.12444300  0.95895900  1
  S  S7  1  0.32562900  0.87555700  0.04104100  1
  N  N0  1  0.22891100  0.58193100  0.85903500  1
  N  N1  1  0.77108900  0.41806900  0.14096500  1
  N  N2  1  0.72891100  0.41806900  0.64096500  1
  N  N3  1  0.27108900  0.58193100  0.35903500  1
  N  N4  1  0.93250300  0.84784300  0.81437900  1
  N  N5  1  0.06749700  0.15215700  0.18562100  1
  N  N6  1  0.43250300  0.15215700  0.68562100  1
  N  N7  1  0.56749700  0.84784300  0.31437900  1
  N  N8  1  0.42378000  0.65151200  0.65460000  1
  N  N9  1  0.57622000  0.34848800  0.34540000  1
  N  N10  1  0.92378000  0.34848800  0.84540000  1
  N  N11  1  0.07622000  0.65151200  0.15460000  1
  N  N12  1  0.46024100  0.86425200  0.86614700  1
  N  N13  1  0.53975900  0.13574800  0.13385300  1
  N  N14  1  0.96024100  0.13574800  0.63385300  1
  N  N15  1  0.03975900  0.86425200  0.36614700  1
  N  N16  1  0.33492100  0.95401300  0.86902400  1
  N  N17  1  0.66507900  0.04598700  0.13097600  1
  N  N18  1  0.83492100  0.04598700  0.63097600  1
  N  N19  1  0.16507900  0.95401300  0.36902400  1
  N  N20  1  0.18252500  0.36918200  0.56226000  1
  N  N21  1  0.81747500  0.63081800  0.43774000  1
  N  N22  1  0.68252500  0.63081800  0.93774000  1
  N  N23  1  0.31747500  0.36918200  0.06226000  1
  N  N24  1  0.65768000  0.93571900  0.55509500  1
  N  N25  1  0.34232000  0.06428100  0.44490500  1
  N  N26  1  0.15768000  0.06428100  0.94490500  1
  N  N27  1  0.84232000  0.93571900  0.05509500  1
  N  N28  1  0.25224700  0.47309900  0.00033800  1
  N  N29  1  0.74775300  0.52690100  0.99966200  1
  N  N30  1  0.75224700  0.52690100  0.49966200  1
  N  N31  1  0.24775300  0.47309900  0.50033800  1
  O  O0  1  0.46264800  0.64076100  0.57691900  1
  O  O1  1  0.53735200  0.35923900  0.42308100  1
  O  O2  1  0.96264800  0.35923900  0.92308100  1
  O  O3  1  0.03735200  0.64076100  0.07691900  1
  O  O4  1  0.80139400  0.88478100  0.79133000  1
  O  O5  1  0.19860600  0.11521900  0.20867000  1
  O  O6  1  0.30139400  0.11521900  0.70867000  1
  O  O7  1  0.69860600  0.88478100  0.29133000  1
  O  O8  1  0.04091100  0.88418200  0.76681400  1
  O  O9  1  0.95908900  0.11581800  0.23318600  1
  O  O10  1  0.54091100  0.11581800  0.73318600  1
  O  O11  1  0.45908900  0.88418200  0.26681400  1
  O  O12  1  0.49428400  0.73434000  0.69950400  1
  O  O13  1  0.50571600  0.26566000  0.30049600  1
  O  O14  1  0.99428400  0.26566000  0.80049600  1
  O  O15  1  0.00571600  0.73434000  0.19950400  1
  O  O16  1  0.95080600  0.77191200  0.88809500  1
  O  O17  1  0.04919400  0.22808800  0.11190500  1
  O  O18  1  0.45080600  0.22808800  0.61190500  1
  O  O19  1  0.54919400  0.77191200  0.38809500  1
  O  O20  1  0.31392500  0.57977200  0.68678000  1
  O  O21  1  0.68607500  0.42022800  0.31322000  1
  O  O22  1  0.81392500  0.42022800  0.81322000  1
  O  O23  1  0.18607500  0.57977200  0.18678000  1
loop_
_geom_bond_atom_site_label_1
_geom_bond_atom_site_label_2
_geom_bond_distance
_geom_bond_site_symmetry_2
H0 N18 1.046998 1_565
H0 O4 1.730328 1_555
H1 N19 1.046998 1_545
H1 O5 1.730328 1_555
H2 N16 1.046998 1_545
H2 O6 1.730328 1_555
H3 N17 1.046998 1_565
H3 O7 1.730328 1_555
H4 N0 1.026473 1_555
H5 N1 1.026473 1_555
H6 N2 1.026473 1_555
H7 N3 1.026473 1_555
H8 N31 1.043010 1_555
H9 N30 1.043010 1_555
H10 N29 1.043010 1_555
H11 N28 1.043010 1_555
H12 N0 1.035013 1_555
H12 O20 1.736826 1_555
H13 N1 1.035013 1_555
H13 O21 1.736826 1_555
H14 N2 1.035013 1_555
H14 O22 1.736826 1_555
H15 N3 1.035013 1_555
H15 O23 1.736826 1_555
H16 N27 1.027915 1_555
H17 N26 1.027915 1_555
H18 N25 1.027915 1_555
H19 N24 1.027915 1_555
H20 N27 1.016278 1_556
H21 N26 1.016278 1_554
H22 N25 1.016278 1_555
H23 N24 1.016278 1_555
H24 N20 1.033160 1_555
H25 N21 1.033160 1_555
H26 N22 1.033160 1_555
H27 N23 1.033160 1_555
H28 N20 1.046410 1_555
H29 N21 1.046410 1_555
H30 N22 1.046410 1_555
H31 N23 1.046410 1_555
H32 N12 1.037665 1_555
H33 N13 1.037665 1_555
H34 N14 1.037665 1_555
H35 N15 1.037665 1_555
H36 N15 1.033405 1_655
H37 N14 1.033405 1_455
H38 N13 1.033405 1_555
H39 N12 1.033405 1_555
Pd0 S1 2.278919 1_555
Pd0 S5 2.283743 1_455
Pd1 S0 2.278919 1_555
Pd1 S4 2.283743 1_655
Pd2 S3 2.278919 1_556
Pd2 S7 2.283743 1_556
Pd3 S2 2.278919 1_554
Pd3 S6 2.283743 1_554
C0 N28 1.331026 1_556
C0 N0 1.332757 1_555
C0 S2 1.739044 1_555
C1 N29 1.331026 1_554
C1 N1 1.332757 1_555
C1 S3 1.739044 1_555
C2 N30 1.331026 1_555
C2 N2 1.332757 1_555
C2 S0 1.739044 1_555
C3 N31 1.331026 1_555
C3 N3 1.332757 1_555
C3 S1 1.739044 1_555
C4 N16 1.330559 1_555
C4 N26 1.340361 1_565
C4 S7 1.728877 1_556
C5 N17 1.330559 1_555
C5 N27 1.340361 1_545
C5 S6 1.728877 1_554
C6 N18 1.330559 1_555
C6 N24 1.340361 1_545
C6 S5 1.728877 1_555
C7 N19 1.330559 1_555
C7 N25 1.340361 1_565
C7 S4 1.728877 1_555
N4 O8 1.251167 1_655
N4 O4 1.278044 1_555
N4 O16 1.283088 1_555
N5 O9 1.251167 1_455
N5 O5 1.278044 1_555
N5 O17 1.283088 1_555
N6 O10 1.251167 1_555
N6 O6 1.278044 1_555
N6 O18 1.283088 1_555
N7 O11 1.251167 1_555
N7 O7 1.278044 1_555
N7 O19 1.283088 1_555
N8 O0 1.264299 1_555
N8 O12 1.271579 1_555
N8 O20 1.272040 1_555
N9 O1 1.264299 1_555
N9 O13 1.271579 1_555
N9 O21 1.272040 1_555
N10 O2 1.264299 1_555
N10 O14 1.271579 1_555
N10 O22 1.272040 1_555
N11 O3 1.264299 1_555
N11 O15 1.271579 1_555
N11 O23 1.272040 1_555
N12 N16 1.419185 1_555
N12 Pd2 2.104126 1_555
N13 N17 1.419185 1_555
N13 Pd3 2.104126 1_555
N14 N18 1.419185 1_555
N14 Pd0 2.104126 1_655
N15 N19 1.419185 1_555
N15 Pd1 2.104126 1_455
N20 Pd0 2.091286 1_555
N21 Pd1 2.091286 1_555
N22 Pd2 2.091286 1_555
N23 Pd3 2.091286 1_555
