# generated using pymatgen
data_MnFeCo(PO4)3
_symmetry_space_group_name_H-M   'P 1'
_cell_length_a   5.97244200
_cell_length_b   9.90311900
_cell_length_c   14.54577313
_cell_angle_alpha   89.67980896
_cell_angle_beta   90.00000000
_cell_angle_gamma   90.00000000
_symmetry_Int_Tables_number   1
_chemical_formula_structural   MnFeCo(PO4)3
_chemical_formula_sum   'Mn4 Fe4 Co4 P12 O48'
_cell_volume   860.30801056
_cell_formula_units_Z   4
loop_
 _symmetry_equiv_pos_site_id
 _symmetry_equiv_pos_as_xyz
  1  'x, y, z'
loop_
 _atom_site_type_symbol
 _atom_site_label
 _atom_site_symmetry_multiplicity
 _atom_site_fract_x
 _atom_site_fract_y
 _atom_site_fract_z
 _atom_site_occupancy
  Mn  Mn0  1  0.00000000  0.21572600  0.14657100  1
  Mn  Mn1  1  0.00000000  0.21602800  0.81283400  1
  Mn  Mn2  1  0.50000000  0.28664700  0.31109400  1
  Mn  Mn3  1  0.50000000  0.28657000  0.97843800  1
  Fe  Fe0  1  0.00000000  0.21984300  0.48710300  1
  Fe  Fe1  1  0.50000000  0.27439700  0.65323000  1
  Fe  Fe2  1  0.00000000  0.72827800  0.01033500  1
  Fe  Fe3  1  0.00000000  0.72297600  0.34787900  1
  Co  Co0  1  0.00000000  0.72162100  0.68200100  1
  Co  Co1  1  0.50000000  0.77752900  0.51171700  1
  Co  Co2  1  0.50000000  0.78174400  0.18436200  1
  Co  Co3  1  0.50000000  0.77143100  0.84254100  1
  P  P0  1  0.50000000  0.10012700  0.13876500  1
  P  P1  1  0.50000000  0.09845900  0.47204800  1
  P  P2  1  0.50000000  0.09599500  0.80687200  1
  P  P3  1  0.00000000  0.40147000  0.30519600  1
  P  P4  1  0.00000000  0.40102800  0.63852200  1
  P  P5  1  0.00000000  0.40106100  0.97147100  1
  P  P6  1  0.50000000  0.60372700  0.03009900  1
  P  P7  1  0.50000000  0.59839600  0.36177200  1
  P  P8  1  0.50000000  0.59861500  0.69194500  1
  P  P9  1  0.00000000  0.90290400  0.19419000  1
  P  P10  1  0.00000000  0.90212700  0.86015600  1
  P  P11  1  0.00000000  0.89924200  0.53173500  1
  O  O0  1  0.00000000  0.05354000  0.21927200  1
  O  O1  1  0.00000000  0.05441600  0.88379600  1
  O  O2  1  0.00000000  0.05004900  0.55395600  1
  O  O3  1  0.50000000  0.12095400  0.24351200  1
  O  O4  1  0.50000000  0.12032200  0.91062400  1
  O  O5  1  0.50000000  0.11780100  0.57651400  1
  O  O6  1  0.70143900  0.17150100  0.08999000  1
  O  O7  1  0.29856100  0.17150100  0.08999000  1
  O  O8  1  0.29531300  0.16772300  0.42513800  1
  O  O9  1  0.70468700  0.16772300  0.42513800  1
  O  O10  1  0.30149900  0.16893500  0.75570900  1
  O  O11  1  0.69850100  0.16893500  0.75570900  1
  O  O12  1  0.79892600  0.32600700  0.59135400  1
  O  O13  1  0.20107400  0.32600700  0.59135400  1
  O  O14  1  0.79892600  0.32927200  0.25638700  1
  O  O15  1  0.20107400  0.32927200  0.25638700  1
  O  O16  1  0.79906700  0.32849300  0.92276500  1
  O  O17  1  0.20093300  0.32849300  0.92276500  1
  O  O18  1  0.00000000  0.37843300  0.40912600  1
  O  O19  1  0.00000000  0.37906100  0.07626900  1
  O  O20  1  0.00000000  0.37977300  0.74383400  1
  O  O21  1  0.50000000  0.44838500  0.71674600  1
  O  O22  1  0.50000000  0.45052500  0.04790400  1
  O  O23  1  0.50000000  0.44647600  0.38474900  1
  O  O24  1  0.00000000  0.55165500  0.61646900  1
  O  O25  1  0.00000000  0.55327700  0.28352800  1
  O  O26  1  0.00000000  0.55250400  0.95139300  1
  O  O27  1  0.50000000  0.62787900  0.92443800  1
  O  O28  1  0.50000000  0.61859400  0.25692100  1
  O  O29  1  0.50000000  0.61878000  0.58762100  1
  O  O30  1  0.29725000  0.67416500  0.07750400  1
  O  O31  1  0.70275000  0.67416500  0.07750400  1
  O  O32  1  0.29796100  0.67333100  0.74091800  1
  O  O33  1  0.70203900  0.67333100  0.74091800  1
  O  O34  1  0.29831600  0.67107700  0.41045700  1
  O  O35  1  0.70168400  0.67107700  0.41045700  1
  O  O36  1  0.79901600  0.82811100  0.24351200  1
  O  O37  1  0.20098400  0.82811100  0.24351200  1
  O  O38  1  0.79874400  0.82553900  0.58020000  1
  O  O39  1  0.20125600  0.82553900  0.58020000  1
  O  O40  1  0.80014600  0.82977000  0.91053800  1
  O  O41  1  0.19985400  0.82977000  0.91053800  1
  O  O42  1  0.00000000  0.88471900  0.75596100  1
  O  O43  1  0.00000000  0.87869600  0.42728500  1
  O  O44  1  0.00000000  0.88419900  0.09062900  1
  O  O45  1  0.50000000  0.94785900  0.11843300  1
  O  O46  1  0.50000000  0.94403100  0.78742000  1
  O  O47  1  0.50000000  0.94402200  0.45228000  1
loop_
_geom_bond_atom_site_label_1
_geom_bond_atom_site_label_2
_geom_bond_distance
_geom_bond_site_symmetry_2
Mn0 O19 1.908824 1_555
Mn0 O0 1.918076 1_555
Mn0 O7 2.013151 1_555
Mn0 O6 2.013151 1_455
Mn0 O15 2.297435 1_555
Mn0 O14 2.297435 1_455
Mn1 O1 1.899592 1_555
Mn1 O20 1.902283 1_555
Mn1 O10 2.038317 1_555
Mn1 O11 2.038317 1_455
Mn1 O16 2.292902 1_455
Mn1 O17 2.292902 1_555
Mn2 O23 1.916261 1_555
Mn2 O3 1.917514 1_555
Mn2 O14 1.998754 1_555
Mn2 O15 1.998754 1_555
Mn2 O8 2.368851 1_555
Mn2 O9 2.368851 1_555
Mn3 O22 1.917188 1_556
Mn3 O4 1.923979 1_555
Mn3 O16 2.003687 1_555
Mn3 O17 2.003687 1_555
Mn3 O6 2.314770 1_556
Mn3 O7 2.314770 1_556
Fe0 O18 1.932140 1_555
Fe0 O2 1.937718 1_555
Fe0 O8 2.048117 1_555
Fe0 O9 2.048117 1_455
Fe0 O13 2.205637 1_555
Fe0 O12 2.205637 1_455
Fe1 O5 1.915595 1_555
Fe1 O21 1.959636 1_555
Fe1 O12 2.062403 1_555
Fe1 O13 2.062403 1_555
Fe1 O11 2.168149 1_555
Fe1 O10 2.168149 1_555
Fe2 O44 1.941261 1_555
Fe2 O26 1.944689 1_554
Fe2 O31 2.094665 1_455
Fe2 O30 2.094665 1_555
Fe2 O41 2.127399 1_554
Fe2 O40 2.127399 1_454
Fe3 O25 1.928209 1_555
Fe3 O43 1.931864 1_555
Fe3 O34 2.064423 1_555
Fe3 O35 2.064423 1_455
Fe3 O37 2.193595 1_555
Fe3 O36 2.193595 1_455
Co0 O24 1.938992 1_555
Co0 O42 1.945657 1_555
Co0 O32 2.031100 1_555
Co0 O33 2.031100 1_455
Co0 O39 2.163218 1_555
Co0 O38 2.163218 1_455
Co1 O47 1.857436 1_555
Co1 O29 1.916019 1_555
Co1 O38 2.099314 1_555
Co1 O39 2.099314 1_555
Co1 O35 2.179240 1_555
Co1 O34 2.179240 1_555
Co2 O45 1.899536 1_555
Co2 O28 1.924924 1_555
Co2 O36 2.035878 1_555
Co2 O37 2.035878 1_555
Co2 O30 2.244053 1_555
Co2 O31 2.244053 1_555
Co3 O27 1.849633 1_555
Co3 O46 1.883922 1_555
Co3 O40 2.128816 1_555
Co3 O41 2.128816 1_555
Co3 O33 2.144978 1_555
Co3 O32 2.144978 1_555
O0 P9 1.537711 1_545
O1 P10 1.548713 1_545
O2 P11 1.529800 1_545
O3 P0 1.538665 1_555
O4 P2 1.529590 1_555
O5 P1 1.532626 1_555
O6 P0 1.563571 1_555
O7 P0 1.563571 1_555
O8 P1 1.557344 1_555
O9 P1 1.557344 1_555
O10 P2 1.573243 1_555
O11 P2 1.573243 1_555
O12 P4 1.571800 1_655
O13 P4 1.571800 1_555
O14 P3 1.569425 1_655
O15 P3 1.569425 1_555
O16 P5 1.569783 1_655
O17 P5 1.569783 1_555
O18 P3 1.527598 1_555
O19 P5 1.538653 1_554
O20 P4 1.545073 1_555
O21 P8 1.528898 1_555
O22 P6 1.537697 1_555
O23 P7 1.539333 1_555
O24 P4 1.524025 1_555
O25 P3 1.534321 1_555
O26 P5 1.526326 1_555
O27 P6 1.554099 1_556
O28 P7 1.537091 1_555
O29 P8 1.529450 1_555
O30 P6 1.560044 1_555
O31 P6 1.560044 1_555
O32 P8 1.586462 1_555
O33 P8 1.586462 1_555
O34 P7 1.573590 1_555
O35 P7 1.573590 1_555
O36 P9 1.580586 1_655
O37 P9 1.580586 1_555
O38 P11 1.571222 1_655
O39 P11 1.571222 1_555
O40 P10 1.571423 1_655
O41 P10 1.571423 1_555
O42 P10 1.526327 1_555
O43 P11 1.533997 1_555
O44 P9 1.518748 1_555
O45 P0 1.538277 1_565
O46 P2 1.532838 1_565
O47 P1 1.557782 1_565
