# generated using pymatgen
data_Ba6Y2Co4O15
_symmetry_space_group_name_H-M   'P 1'
_cell_length_a   5.99207333
_cell_length_b   7.98914674
_cell_length_c   18.36967173
_cell_angle_alpha   88.88547812
_cell_angle_beta   90.00000000
_cell_angle_gamma   90.00000000
_symmetry_Int_Tables_number   1
_chemical_formula_structural   Ba6Y2Co4O15
_chemical_formula_sum   'Ba12 Y4 Co8 O30'
_cell_volume   879.21834859
_cell_formula_units_Z   2
loop_
 _symmetry_equiv_pos_site_id
 _symmetry_equiv_pos_as_xyz
  1  'x, y, z'
loop_
 _atom_site_type_symbol
 _atom_site_label
 _atom_site_symmetry_multiplicity
 _atom_site_fract_x
 _atom_site_fract_y
 _atom_site_fract_z
 _atom_site_occupancy
  Ba  Ba0  1  0.28744295  0.00000000  0.25000000  1
  Ba  Ba1  1  0.71255705  0.00000000  0.75000000  1
  Ba  Ba2  1  0.32720888  0.50000000  0.25000000  1
  Ba  Ba3  1  0.67279112  0.50000000  0.75000000  1
  Ba  Ba4  1  0.74970234  0.97954461  0.08828104  1
  Ba  Ba5  1  0.74970234  0.02045539  0.41171896  1
  Ba  Ba6  1  0.25029766  0.02045539  0.91171896  1
  Ba  Ba7  1  0.25029766  0.97954461  0.58828104  1
  Ba  Ba8  1  0.24688141  0.49590252  0.57783915  1
  Ba  Ba9  1  0.24688141  0.50409748  0.92216085  1
  Ba  Ba10  1  0.75311859  0.50409748  0.42216085  1
  Ba  Ba11  1  0.75311859  0.49590252  0.07783915  1
  Y  Y0  1  0.25254756  0.75437230  0.41111627  1
  Y  Y1  1  0.25254756  0.24562770  0.08888373  1
  Y  Y2  1  0.74745244  0.24562770  0.58888373  1
  Y  Y3  1  0.74745244  0.75437230  0.91111627  1
  Co  Co0  1  0.25252098  0.75349318  0.06321042  1
  Co  Co1  1  0.25252098  0.24650682  0.43678958  1
  Co  Co2  1  0.74747902  0.24650682  0.93678958  1
  Co  Co3  1  0.74747902  0.75349318  0.56321042  1
  Co  Co4  1  0.77598783  0.76874075  0.26368704  1
  Co  Co5  1  0.77598783  0.23125925  0.23631296  1
  Co  Co6  1  0.22401217  0.23125925  0.73631296  1
  Co  Co7  1  0.22401217  0.76874075  0.76368704  1
  O  O0  1  0.81998010  0.00000000  0.25000000  1
  O  O1  1  0.18001990  0.00000000  0.75000000  1
  O  O2  1  0.76838985  0.95719952  0.60614375  1
  O  O3  1  0.76838985  0.04280048  0.89385625  1
  O  O4  1  0.23161015  0.04280048  0.39385625  1
  O  O5  1  0.23161015  0.95719952  0.10614375  1
  O  O6  1  0.24748789  0.53215545  0.08883999  1
  O  O7  1  0.24748789  0.46784455  0.41116001  1
  O  O8  1  0.75251211  0.46784455  0.91116001  1
  O  O9  1  0.75251211  0.53215545  0.58883999  1
  O  O10  1  0.03339050  0.71590624  0.31208161  1
  O  O11  1  0.03339050  0.28409376  0.18791839  1
  O  O12  1  0.96660950  0.28409376  0.68791839  1
  O  O13  1  0.96660950  0.71590624  0.81208161  1
  O  O14  1  0.54169216  0.75475842  0.33489375  1
  O  O15  1  0.54169216  0.24524158  0.16510625  1
  O  O16  1  0.45830784  0.24524158  0.66510625  1
  O  O17  1  0.45830784  0.75475842  0.83489375  1
  O  O18  1  0.49258852  0.76517180  0.50151911  1
  O  O19  1  0.49258852  0.23482820  0.99848089  1
  O  O20  1  0.50741148  0.23482820  0.49848089  1
  O  O21  1  0.50741148  0.76517180  0.00151911  1
  O  O22  1  0.01294856  0.76401571  0.99389604  1
  O  O23  1  0.01294856  0.23598429  0.50610396  1
  O  O24  1  0.98705144  0.23598429  0.00610396  1
  O  O25  1  0.98705144  0.76401571  0.49389604  1
  O  O26  1  0.35182685  0.70036808  0.68183950  1
  O  O27  1  0.35182685  0.29963192  0.81816050  1
  O  O28  1  0.64817315  0.29963192  0.31816050  1
  O  O29  1  0.64817315  0.70036808  0.18183950  1
loop_
_geom_bond_atom_site_label_1
_geom_bond_atom_site_label_2
_geom_bond_distance
_geom_bond_site_symmetry_2
Ba0 O5 2.692080 1_545
Ba0 O4 2.692080 1_555
Ba0 O0 2.801072 1_455
Ba0 O14 2.910811 1_545
Ba0 O15 2.910811 1_555
Ba0 O10 2.944257 1_545
Ba0 O11 2.944257 1_555
Ba0 O0 3.191002 1_555
Ba1 O3 2.692080 1_555
Ba1 O2 2.692080 1_545
Ba1 O1 2.801072 1_655
Ba1 O17 2.910811 1_545
Ba1 O16 2.910811 1_555
Ba1 O13 2.944257 1_545
Ba1 O12 2.944257 1_555
Ba1 O1 3.191002 1_555
Ba2 O10 2.729840 1_555
Ba2 O11 2.729840 1_555
Ba2 O28 2.784075 1_555
Ba2 O29 2.784075 1_555
Ba2 O15 2.889570 1_555
Ba2 O14 2.889570 1_555
Ba2 O6 3.004813 1_555
Ba2 O7 3.004813 1_555
Ba3 O12 2.729840 1_555
Ba3 O13 2.729840 1_555
Ba3 O27 2.784075 1_555
Ba3 O26 2.784075 1_555
Ba3 O16 2.889570 1_555
Ba3 O17 2.889570 1_555
Ba3 O8 3.004813 1_555
Ba3 O9 3.004813 1_555
Ba4 O21 2.772604 1_555
Ba4 O29 2.854701 1_555
Ba4 O15 2.857891 1_565
Ba4 O24 2.894561 1_565
Ba4 O5 2.911297 1_655
Ba4 O22 2.928370 1_654
Ba4 O0 3.008011 1_565
Ba4 O19 3.020503 1_564
Ba4 O5 3.126475 1_555
Ba5 O20 2.772604 1_555
Ba5 O28 2.854701 1_555
Ba5 O14 2.857891 1_545
Ba5 O25 2.894561 1_545
Ba5 O4 2.911297 1_655
Ba5 O23 2.928370 1_655
Ba5 O0 3.008011 1_555
Ba5 O18 3.020503 1_545
Ba5 O4 3.126475 1_555
Ba6 O19 2.772604 1_555
Ba6 O27 2.854701 1_555
Ba6 O17 2.857891 1_545
Ba6 O22 2.894561 1_545
Ba6 O3 2.911297 1_455
Ba6 O24 2.928370 1_456
Ba6 O1 3.008011 1_555
Ba6 O21 3.020503 1_546
Ba6 O3 3.126475 1_555
Ba7 O18 2.772604 1_555
Ba7 O26 2.854701 1_555
Ba7 O16 2.857891 1_565
Ba7 O23 2.894561 1_565
Ba7 O2 2.911297 1_455
Ba7 O25 2.928370 1_455
Ba7 O1 3.008011 1_565
Ba7 O20 3.020503 1_565
Ba7 O2 3.126475 1_555
Ba8 O26 2.614385 1_555
Ba8 O16 2.839051 1_555
Ba8 O23 2.849519 1_555
Ba8 O18 2.940009 1_555
Ba8 O9 2.983656 1_455
Ba8 O20 3.005146 1_555
Ba8 O25 3.043262 1_455
Ba8 O9 3.050663 1_555
Ba8 O7 3.074383 1_555
Ba8 O12 3.104789 1_455
Ba9 O27 2.614385 1_555
Ba9 O17 2.839051 1_555
Ba9 O22 2.849519 1_555
Ba9 O19 2.940009 1_555
Ba9 O8 2.983656 1_455
Ba9 O21 3.005146 1_556
Ba9 O24 3.043262 1_456
Ba9 O8 3.050663 1_555
Ba9 O6 3.074383 1_556
Ba9 O13 3.104789 1_455
Ba10 O28 2.614385 1_555
Ba10 O14 2.839051 1_555
Ba10 O25 2.849519 1_555
Ba10 O20 2.940009 1_555
Ba10 O7 2.983656 1_655
Ba10 O18 3.005146 1_555
Ba10 O23 3.043262 1_655
Ba10 O7 3.050663 1_555
Ba10 O9 3.074383 1_555
Ba10 O10 3.104789 1_655
Ba11 O29 2.614385 1_555
Ba11 O15 2.839051 1_555
Ba11 O24 2.849519 1_555
Ba11 O21 2.940009 1_555
Ba11 O6 2.983656 1_655
Ba11 O19 3.005146 1_554
Ba11 O22 3.043262 1_654
Ba11 O6 3.050663 1_555
Ba11 O8 3.074383 1_554
Ba11 O11 3.104789 1_655
Co0 O6 1.821281 1_555
Co0 O5 1.826525 1_555
Co0 O21 1.903040 1_555
Co0 O22 1.919613 1_554
Co1 O7 1.821281 1_555
Co1 O4 1.826525 1_555
Co1 O20 1.903040 1_555
Co1 O23 1.919613 1_555
Co2 O8 1.821281 1_555
Co2 O3 1.826525 1_555
Co2 O19 1.903040 1_555
Co2 O24 1.919613 1_556
Co3 O9 1.821281 1_555
Co3 O2 1.826525 1_555
Co3 O18 1.903040 1_555
Co3 O25 1.919613 1_555
Co4 O29 1.782538 1_555
Co4 O10 1.825597 1_655
Co4 O0 1.878330 1_565
Co4 O14 1.920613 1_555
Co5 O28 1.782538 1_555
Co5 O11 1.825597 1_655
Co5 O0 1.878330 1_555
Co5 O15 1.920613 1_555
Co6 O27 1.782538 1_555
Co6 O12 1.825597 1_455
Co6 O1 1.878330 1_555
Co6 O16 1.920613 1_555
Co7 O26 1.782538 1_555
Co7 O13 1.825597 1_455
Co7 O1 1.878330 1_565
Co7 O17 1.920613 1_555
O2 Y2 2.323278 1_565
O3 Y3 2.323278 1_545
O4 Y0 2.323278 1_545
O5 Y1 2.323278 1_565
O6 Y1 2.289298 1_555
O7 Y0 2.289298 1_555
O8 Y3 2.289298 1_555
O9 Y2 2.289298 1_555
O10 Y0 2.269429 1_555
O11 Y1 2.269429 1_555
O12 Y2 2.269429 1_555
O13 Y3 2.269429 1_555
O14 Y0 2.227593 1_555
O15 Y1 2.227593 1_555
O16 Y2 2.227593 1_555
O17 Y3 2.227593 1_555
O18 Y0 2.199926 1_555
O19 Y1 2.199926 1_556
O20 Y2 2.199926 1_555
O21 Y3 2.199926 1_554
O22 Y3 2.203113 1_455
O23 Y2 2.203113 1_455
O24 Y1 2.203113 1_655
O25 Y0 2.203113 1_655
