# generated using pymatgen
data_Li9Mn2Co5O16
_symmetry_space_group_name_H-M   'P 1'
_cell_length_a   5.90752000
_cell_length_b   7.71159258
_cell_length_c   7.78182280
_cell_angle_alpha   65.19666501
_cell_angle_beta   67.80974955
_cell_angle_gamma   68.59739133
_symmetry_Int_Tables_number   1
_chemical_formula_structural   Li9Mn2Co5O16
_chemical_formula_sum   'Li9 Mn2 Co5 O16'
_cell_volume   288.84343919
_cell_formula_units_Z   1
loop_
 _symmetry_equiv_pos_site_id
 _symmetry_equiv_pos_as_xyz
  1  'x, y, z'
loop_
 _atom_site_type_symbol
 _atom_site_label
 _atom_site_symmetry_multiplicity
 _atom_site_fract_x
 _atom_site_fract_y
 _atom_site_fract_z
 _atom_site_occupancy
  Li  Li0  1  0.12947000  0.36811600  0.87617900  1
  Li  Li1  1  0.00000000  0.00000000  0.00000000  1
  Li  Li2  1  0.37571200  0.12414200  0.63287800  1
  Li  Li3  1  0.25141900  0.75092500  0.74989000  1
  Li  Li4  1  0.62428800  0.87585800  0.36712200  1
  Li  Li5  1  0.50000000  0.50000000  0.50000000  1
  Li  Li6  1  0.87053000  0.63188400  0.12382100  1
  Li  Li7  1  0.74858100  0.24907500  0.25011000  1
  Li  Li8  1  0.50000000  0.00000000  0.00000000  1
  Mn  Mn0  1  0.74453800  0.75297100  0.74980700  1
  Mn  Mn1  1  0.25546200  0.24702900  0.25019300  1
  Co  Co0  1  0.62212700  0.36501800  0.87604900  1
  Co  Co1  1  0.37787300  0.63498200  0.12395100  1
  Co  Co2  1  0.12582400  0.88061800  0.36423700  1
  Co  Co3  1  0.00000000  0.50000000  0.50000000  1
  Co  Co4  1  0.87417600  0.11938200  0.63576300  1
  O  O0  1  0.74051600  0.51553100  0.97881200  1
  O  O1  1  0.59805000  0.14081000  0.13103500  1
  O  O2  1  0.98936300  0.25271900  0.75034200  1
  O  O3  1  0.87243800  0.87742500  0.85334800  1
  O  O4  1  0.24156800  0.01510800  0.48223900  1
  O  O5  1  0.09823500  0.63798300  0.61695400  1
  O  O6  1  0.48322400  0.73790000  0.25316400  1
  O  O7  1  0.35586700  0.37510500  0.36930000  1
  O  O8  1  0.51677600  0.26210000  0.74683600  1
  O  O9  1  0.40195000  0.85919000  0.86896500  1
  O  O10  1  0.75843200  0.98489200  0.51776100  1
  O  O11  1  0.64413300  0.62489500  0.63070000  1
  O  O12  1  0.01063700  0.74728100  0.24965800  1
  O  O13  1  0.90176500  0.36201700  0.38304600  1
  O  O14  1  0.25948400  0.48446900  0.02118800  1
  O  O15  1  0.12756200  0.12257500  0.14665200  1
loop_
_geom_bond_atom_site_label_1
_geom_bond_atom_site_label_2
_geom_bond_distance
_geom_bond_site_symmetry_2
Li0 O2 2.077694 1_455
Li0 O8 2.121823 1_555
Li0 O15 2.160889 1_556
Li0 O14 2.162296 1_556
Li0 O0 2.163104 1_455
Li0 O5 2.216523 1_555
Li1 O2 2.098242 1_454
Li1 O12 2.098242 1_545
Li1 O15 2.199616 1_555
Li1 O3 2.199616 1_444
Li1 O1 2.252880 1_455
Li1 O9 2.252880 1_544
Li2 O9 2.099641 1_545
Li2 O2 2.135592 1_455
Li2 O10 2.138376 1_545
Li2 O8 2.146982 1_555
Li2 O7 2.156812 1_555
Li2 O4 2.173504 1_555
Li3 O9 2.039570 1_555
Li3 O3 2.077410 1_455
Li3 O11 2.161577 1_555
Li3 O5 2.164707 1_555
Li3 O4 2.221906 1_565
Li3 O14 2.246430 1_556
Li4 O1 2.099641 1_565
Li4 O12 2.135592 1_655
Li4 O4 2.138376 1_565
Li4 O6 2.146982 1_555
Li4 O11 2.156812 1_555
Li4 O10 2.173504 1_555
Li5 O8 2.029684 1_555
Li5 O6 2.029684 1_555
Li5 O11 2.182126 1_555
Li5 O7 2.182126 1_555
Li5 O13 2.220674 1_555
Li5 O5 2.220674 1_555
Li6 O12 2.077694 1_655
Li6 O6 2.121823 1_555
Li6 O3 2.160889 1_554
Li6 O0 2.162296 1_554
Li6 O14 2.163104 1_655
Li6 O13 2.216523 1_555
Li7 O1 2.039570 1_555
Li7 O15 2.077410 1_655
Li7 O7 2.161577 1_555
Li7 O13 2.164707 1_555
Li7 O10 2.221906 1_545
Li7 O0 2.246430 1_554
Li8 O1 2.094894 1_555
Li8 O9 2.094894 1_544
Li8 O3 2.127735 1_544
Li8 O15 2.127735 1_555
Li8 O6 2.152705 1_545
Li8 O8 2.152705 1_554
Mn0 O9 1.906970 1_555
Mn0 O10 1.936923 1_555
Mn0 O3 1.943993 1_555
Mn0 O0 1.947076 1_555
Mn0 O11 1.948667 1_555
Mn0 O5 2.001549 1_655
Mn1 O1 1.906970 1_555
Mn1 O4 1.936923 1_555
Mn1 O15 1.943993 1_555
Mn1 O14 1.947076 1_555
Mn1 O7 1.948667 1_555
Mn1 O13 2.001549 1_455
Co0 O8 1.879110 1_555
Co0 O1 2.008677 1_556
Co0 O2 2.037143 1_555
Co0 O0 2.066285 1_555
Co0 O14 2.078133 1_556
Co0 O11 2.114433 1_555
Co1 O6 1.879110 1_555
Co1 O9 2.008677 1_554
Co1 O12 2.037143 1_555
Co1 O14 2.066285 1_555
Co1 O0 2.078133 1_554
Co1 O7 2.114433 1_555
Co2 O15 1.923200 1_565
Co2 O12 2.013332 1_555
Co2 O6 2.034669 1_555
Co2 O4 2.043839 1_565
Co2 O5 2.070808 1_555
Co2 O10 2.087604 1_455
Co3 O5 1.989845 1_555
Co3 O13 1.989845 1_455
Co3 O11 2.027488 1_455
Co3 O7 2.027488 1_555
Co3 O12 2.076926 1_555
Co3 O2 2.076926 1_455
Co4 O3 1.923200 1_545
Co4 O2 2.013332 1_555
Co4 O8 2.034669 1_555
Co4 O10 2.043839 1_545
Co4 O13 2.070808 1_555
Co4 O4 2.087604 1_655
