# generated using pymatgen
data_LiFe3O4
_symmetry_space_group_name_H-M   'P 1'
_cell_length_a   6.03141259
_cell_length_b   6.03141259
_cell_length_c   6.11147806
_cell_angle_alpha   59.70231966
_cell_angle_beta   59.70231966
_cell_angle_gamma   87.82211075
_symmetry_Int_Tables_number   1
_chemical_formula_structural   LiFe3O4
_chemical_formula_sum   'Li2 Fe6 O8'
_cell_volume   158.59502418
_cell_formula_units_Z   2
loop_
 _symmetry_equiv_pos_site_id
 _symmetry_equiv_pos_as_xyz
  1  'x, y, z'
loop_
 _atom_site_type_symbol
 _atom_site_label
 _atom_site_symmetry_multiplicity
 _atom_site_fract_x
 _atom_site_fract_y
 _atom_site_fract_z
 _atom_site_occupancy
  Li  Li0  1  0.50000000  0.00000000  0.00000000  1
  Li  Li1  1  0.00000000  0.50000000  0.50000000  1
  Fe  Fe0  1  0.00000000  0.00000000  0.00000000  1
  Fe  Fe1  1  0.00000000  0.50000000  0.00000000  1
  Fe  Fe2  1  0.50000000  0.50000000  0.50000000  1
  Fe  Fe3  1  0.50000000  0.50000000  0.00000000  1
  Fe  Fe4  1  0.50000000  0.00000000  0.50000000  1
  Fe  Fe5  1  0.00000000  0.00000000  0.50000000  1
  O  O0  1  0.75788300  0.26096700  0.99755000  1
  O  O1  1  0.72220200  0.73466300  0.02064200  1
  O  O2  1  0.26096700  0.75788300  0.49755000  1
  O  O3  1  0.26533700  0.27779800  0.47935800  1
  O  O4  1  0.73466300  0.72220200  0.52064200  1
  O  O5  1  0.73903300  0.24211700  0.50245000  1
  O  O6  1  0.27779800  0.26533700  0.97935800  1
  O  O7  1  0.24211700  0.73903300  0.00245000  1
loop_
_geom_bond_atom_site_label_1
_geom_bond_atom_site_label_2
_geom_bond_distance
_geom_bond_site_symmetry_2
Li0 O6 2.043781 1_554
Li0 O1 2.043781 1_545
Li0 O2 2.171095 1_545
Li0 O5 2.171095 1_554
Li0 O7 2.244050 1_545
Li0 O0 2.244050 1_554
Li1 O3 2.043781 1_555
Li1 O4 2.043781 1_455
Li1 O7 2.171095 1_555
Li1 O0 2.171095 1_455
Li1 O5 2.244050 1_455
Li1 O2 2.244050 1_555
Fe0 O7 2.105655 1_545
Fe0 O0 2.105655 1_454
Fe0 O1 2.274034 1_445
Fe0 O6 2.274034 1_554
Fe0 O4 2.275874 1_445
Fe0 O3 2.275874 1_554
Fe1 O0 2.101213 1_454
Fe1 O7 2.101213 1_555
Fe1 O6 2.147818 1_554
Fe1 O1 2.147818 1_455
Fe1 O5 2.194598 1_455
Fe1 O2 2.194598 1_554
Fe2 O3 2.076091 1_555
Fe2 O4 2.076091 1_555
Fe2 O5 2.079869 1_555
Fe2 O2 2.079869 1_555
Fe2 O6 2.093046 1_555
Fe2 O1 2.093046 1_555
Fe3 O1 2.076091 1_555
Fe3 O6 2.076091 1_554
Fe3 O7 2.079869 1_555
Fe3 O0 2.079869 1_554
Fe3 O3 2.093046 1_555
Fe3 O4 2.093046 1_554
Fe4 O2 2.101213 1_545
Fe4 O5 2.101213 1_555
Fe4 O4 2.147818 1_545
Fe4 O3 2.147818 1_555
Fe4 O0 2.194598 1_554
Fe4 O7 2.194598 1_546
Fe5 O5 2.105655 1_455
Fe5 O2 2.105655 1_545
Fe5 O4 2.274034 1_445
Fe5 O3 2.274034 1_555
Fe5 O1 2.275874 1_446
Fe5 O6 2.275874 1_554
