# generated using pymatgen
data_Yb6Ti4Al43
_symmetry_space_group_name_H-M   'P 1'
_cell_length_a   11.16380635
_cell_length_b   11.16380635
_cell_length_c   17.90142100
_cell_angle_alpha   90.00000000
_cell_angle_beta   90.00000000
_cell_angle_gamma   120.00000206
_symmetry_Int_Tables_number   1
_chemical_formula_structural   Yb6Ti4Al43
_chemical_formula_sum   'Yb12 Ti8 Al86'
_cell_volume   1932.15835733
_cell_formula_units_Z   2
loop_
 _symmetry_equiv_pos_site_id
 _symmetry_equiv_pos_as_xyz
  1  'x, y, z'
loop_
 _atom_site_type_symbol
 _atom_site_label
 _atom_site_symmetry_multiplicity
 _atom_site_fract_x
 _atom_site_fract_y
 _atom_site_fract_z
 _atom_site_occupancy
  Yb  Yb0  1  0.53059400  0.53059400  0.90560300  1
  Yb  Yb1  1  0.46940600  0.00000000  0.90560300  1
  Yb  Yb2  1  0.00000000  0.46940600  0.90560300  1
  Yb  Yb3  1  0.46940600  0.46940600  0.09439700  1
  Yb  Yb4  1  0.53059400  0.00000000  0.09439700  1
  Yb  Yb5  1  0.00000000  0.53059400  0.09439700  1
  Yb  Yb6  1  0.46940600  0.46940600  0.40560300  1
  Yb  Yb7  1  0.53059400  0.00000000  0.40560300  1
  Yb  Yb8  1  0.00000000  0.53059400  0.40560300  1
  Yb  Yb9  1  0.53059400  0.53059400  0.59439700  1
  Yb  Yb10  1  0.46940600  0.00000000  0.59439700  1
  Yb  Yb11  1  0.00000000  0.46940600  0.59439700  1
  Ti  Ti0  1  0.72924000  0.72924000  0.75000000  1
  Ti  Ti1  1  0.27076000  0.00000000  0.75000000  1
  Ti  Ti2  1  0.00000000  0.27076000  0.75000000  1
  Ti  Ti3  1  0.27076000  0.27076000  0.25000000  1
  Ti  Ti4  1  0.72924000  0.00000000  0.25000000  1
  Ti  Ti5  1  0.00000000  0.72924000  0.25000000  1
  Ti  Ti6  1  0.00000000  0.00000000  0.00000000  1
  Ti  Ti7  1  0.00000000  0.00000000  0.50000000  1
  Al  Al0  1  0.76516600  0.15771300  0.83577800  1
  Al  Al1  1  0.84228700  0.60745400  0.83577800  1
  Al  Al2  1  0.39254600  0.23483400  0.83577800  1
  Al  Al3  1  0.15771300  0.76516600  0.83577800  1
  Al  Al4  1  0.60745400  0.84228700  0.83577800  1
  Al  Al5  1  0.23483400  0.39254600  0.83577800  1
  Al  Al6  1  0.23483400  0.84228700  0.16422200  1
  Al  Al7  1  0.15771300  0.39254600  0.16422200  1
  Al  Al8  1  0.60745400  0.76516600  0.16422200  1
  Al  Al9  1  0.84228700  0.23483400  0.16422200  1
  Al  Al10  1  0.39254600  0.15771300  0.16422200  1
  Al  Al11  1  0.76516600  0.60745400  0.16422200  1
  Al  Al12  1  0.23483400  0.84228700  0.33577800  1
  Al  Al13  1  0.15771300  0.39254600  0.33577800  1
  Al  Al14  1  0.60745400  0.76516600  0.33577800  1
  Al  Al15  1  0.84228700  0.23483400  0.33577800  1
  Al  Al16  1  0.39254600  0.15771300  0.33577800  1
  Al  Al17  1  0.76516600  0.60745400  0.33577800  1
  Al  Al18  1  0.76516600  0.15771300  0.66422200  1
  Al  Al19  1  0.84228700  0.60745400  0.66422200  1
  Al  Al20  1  0.39254600  0.23483400  0.66422200  1
  Al  Al21  1  0.15771300  0.76516600  0.66422200  1
  Al  Al22  1  0.60745400  0.84228700  0.66422200  1
  Al  Al23  1  0.23483400  0.39254600  0.66422200  1
  Al  Al24  1  0.84502000  0.84502000  0.88409400  1
  Al  Al25  1  0.15498000  0.00000000  0.88409400  1
  Al  Al26  1  0.00000000  0.15498000  0.88409400  1
  Al  Al27  1  0.15498000  0.15498000  0.11590600  1
  Al  Al28  1  0.84502000  0.00000000  0.11590600  1
  Al  Al29  1  0.00000000  0.84502000  0.11590600  1
  Al  Al30  1  0.15498000  0.15498000  0.38409400  1
  Al  Al31  1  0.84502000  0.00000000  0.38409400  1
  Al  Al32  1  0.00000000  0.84502000  0.38409400  1
  Al  Al33  1  0.84502000  0.84502000  0.61590600  1
  Al  Al34  1  0.15498000  0.00000000  0.61590600  1
  Al  Al35  1  0.00000000  0.15498000  0.61590600  1
  Al  Al36  1  0.74883800  0.74883800  0.46942700  1
  Al  Al37  1  0.25116200  0.00000000  0.46942700  1
  Al  Al38  1  0.00000000  0.25116200  0.46942700  1
  Al  Al39  1  0.25116200  0.25116200  0.53057300  1
  Al  Al40  1  0.74883800  0.00000000  0.53057300  1
  Al  Al41  1  0.00000000  0.74883800  0.53057300  1
  Al  Al42  1  0.25116200  0.25116200  0.96942700  1
  Al  Al43  1  0.74883800  0.00000000  0.96942700  1
  Al  Al44  1  0.00000000  0.74883800  0.96942700  1
  Al  Al45  1  0.74883800  0.74883800  0.03057300  1
  Al  Al46  1  0.25116200  0.00000000  0.03057300  1
  Al  Al47  1  0.00000000  0.25116200  0.03057300  1
  Al  Al48  1  0.85032200  0.40211500  0.75000000  1
  Al  Al49  1  0.59788500  0.44820700  0.75000000  1
  Al  Al50  1  0.55179300  0.14967800  0.75000000  1
  Al  Al51  1  0.40211500  0.85032200  0.75000000  1
  Al  Al52  1  0.44820700  0.59788500  0.75000000  1
  Al  Al53  1  0.14967800  0.55179300  0.75000000  1
  Al  Al54  1  0.14967800  0.59788500  0.25000000  1
  Al  Al55  1  0.40211500  0.55179300  0.25000000  1
  Al  Al56  1  0.44820700  0.85032200  0.25000000  1
  Al  Al57  1  0.59788500  0.14967800  0.25000000  1
  Al  Al58  1  0.55179300  0.40211500  0.25000000  1
  Al  Al59  1  0.85032200  0.44820700  0.25000000  1
  Al  Al60  1  0.75283400  0.24716600  0.00000000  1
  Al  Al61  1  0.75283400  0.50566800  0.00000000  1
  Al  Al62  1  0.49433200  0.24716600  0.00000000  1
  Al  Al63  1  0.24716600  0.75283400  0.00000000  1
  Al  Al64  1  0.50566800  0.75283400  0.00000000  1
  Al  Al65  1  0.24716600  0.49433200  0.00000000  1
  Al  Al66  1  0.24716600  0.75283400  0.50000000  1
  Al  Al67  1  0.24716600  0.49433200  0.50000000  1
  Al  Al68  1  0.50566800  0.75283400  0.50000000  1
  Al  Al69  1  0.75283400  0.24716600  0.50000000  1
  Al  Al70  1  0.49433200  0.24716600  0.50000000  1
  Al  Al71  1  0.75283400  0.50566800  0.50000000  1
  Al  Al72  1  0.66666700  0.33333300  0.87435000  1
  Al  Al73  1  0.33333300  0.66666700  0.87435000  1
  Al  Al74  1  0.33333300  0.66666700  0.12565000  1
  Al  Al75  1  0.66666700  0.33333300  0.12565000  1
  Al  Al76  1  0.33333300  0.66666700  0.37435000  1
  Al  Al77  1  0.66666700  0.33333300  0.37435000  1
  Al  Al78  1  0.66666700  0.33333300  0.62565000  1
  Al  Al79  1  0.33333300  0.66666700  0.62565000  1
  Al  Al80  1  0.14758300  0.14758300  0.75000000  1
  Al  Al81  1  0.85241700  0.00000000  0.75000000  1
  Al  Al82  1  0.00000000  0.85241700  0.75000000  1
  Al  Al83  1  0.85241700  0.85241700  0.25000000  1
  Al  Al84  1  0.14758300  0.00000000  0.25000000  1
  Al  Al85  1  0.00000000  0.14758300  0.25000000  1
loop_
_geom_bond_atom_site_label_1
_geom_bond_atom_site_label_2
_geom_bond_distance
_geom_bond_site_symmetry_2
Yb0 Yb3 3.448022 1_556
Yb1 Yb4 3.448022 1_556
Yb2 Yb5 3.448022 1_556
Yb6 Yb9 3.448022 1_555
Yb10 Yb7 3.448022 1_555
Yb11 Yb8 3.448022 1_555
Ti0 Yb0 3.560484 1_555
Ti0 Yb9 3.560484 1_555
Ti1 Yb10 3.560484 1_555
Ti1 Yb1 3.560484 1_555
Ti2 Yb11 3.560484 1_555
Ti2 Yb2 3.560484 1_555
Ti3 Yb3 3.560484 1_555
Ti3 Yb6 3.560484 1_555
Ti4 Yb4 3.560484 1_555
Ti4 Yb7 3.560484 1_555
Ti5 Yb8 3.560484 1_555
Ti5 Yb5 3.560484 1_555
Al0 Ti2 2.741357 1_655
Al0 Al72 2.772322 1_555
Al0 Al26 2.775251 1_655
Al0 Al50 2.797582 1_555
Al0 Al48 2.848210 1_555
Al0 Al81 2.849854 1_555
Al0 Al43 2.921705 1_555
Al0 Al4 3.049583 1_545
Al0 Al18 3.071096 1_555
Al0 Yb1 3.122646 1_555
Al0 Al60 3.129885 1_556
Al0 Yb2 3.379515 1_655
Al1 Ti0 2.741349 1_555
Al1 Al72 2.772338 1_555
Al1 Al24 2.775240 1_555
Al1 Al48 2.797592 1_555
Al1 Al49 2.848211 1_555
Al1 Al82 2.849846 1_655
Al1 Al44 2.921702 1_655
Al1 Al3 3.049583 1_655
Al1 Al19 3.071096 1_555
Al1 Yb2 3.122654 1_655
Al1 Al61 3.129887 1_556
Al1 Yb0 3.379512 1_555
Al2 Ti1 2.741357 1_555
Al2 Al72 2.772342 1_555
Al2 Al25 2.775245 1_555
Al2 Al49 2.797587 1_555
Al2 Al50 2.848219 1_555
Al2 Al80 2.849845 1_555
Al2 Al42 2.921699 1_555
Al2 Al5 3.049563 1_555
Al2 Al20 3.071096 1_555
Al2 Yb0 3.122645 1_555
Al2 Al62 3.129888 1_556
Al2 Yb1 3.379522 1_555
Al3 Ti1 2.741357 1_565
Al3 Al73 2.772322 1_555
Al3 Al53 2.797582 1_555
Al3 Al51 2.848210 1_555
Al3 Al82 2.849854 1_555
Al3 Al44 2.921705 1_555
Al3 Yb2 3.122646 1_555
Al3 Al63 3.129885 1_556
Al3 Yb1 3.379515 1_565
Al4 Ti0 2.741349 1_555
Al4 Al73 2.772338 1_555
Al4 Al51 2.797592 1_555
Al4 Al52 2.848211 1_555
Al4 Al81 2.849846 1_565
Al4 Al43 2.921702 1_565
Al4 Yb1 3.122654 1_565
Al4 Al64 3.129887 1_556
Al4 Yb0 3.379512 1_555
Al5 Ti2 2.741357 1_555
Al5 Al73 2.772342 1_555
Al5 Al52 2.797587 1_555
Al5 Al53 2.848219 1_555
Al5 Al80 2.849845 1_555
Al5 Yb0 3.122645 1_555
Al5 Al65 3.129888 1_556
Al5 Yb2 3.379522 1_555
Al6 Ti5 2.741357 1_555
Al6 Al74 2.772322 1_555
Al6 Al84 2.849854 1_565
Al6 Yb4 3.122646 1_565
Al6 Al63 3.129885 1_555
Al6 Yb5 3.379515 1_555
Al7 Ti3 2.741349 1_555
Al7 Al74 2.772338 1_555
Al7 Al85 2.849846 1_555
Al7 Al9 3.049583 1_455
Al7 Yb5 3.122654 1_555
Al7 Yb3 3.379512 1_555
Al8 Ti4 2.741357 1_565
Al8 Al83 2.849845 1_555
Al8 Yb3 3.122645 1_555
Al8 Yb4 3.379522 1_565
Al9 Ti4 2.741357 1_555
Al9 Yb5 3.122646 1_655
Al9 Yb4 3.379515 1_555
Al10 Ti3 2.741349 1_555
Al10 Al75 2.772338 1_555
Al10 Al27 2.775240 1_555
Al10 Al57 2.797592 1_555
Al10 Al58 2.848211 1_555
Al10 Al84 2.849846 1_555
Al10 Al46 2.921702 1_555
Al10 Al6 3.049583 1_545
Al10 Al16 3.071096 1_555
Al10 Yb4 3.122654 1_555
Al10 Al62 3.129887 1_555
Al10 Yb3 3.379512 1_555
Al11 Ti5 2.741357 1_655
Al11 Al75 2.772342 1_555
Al11 Al29 2.775245 1_655
Al11 Al58 2.797587 1_555
Al11 Al59 2.848219 1_555
Al11 Al83 2.849845 1_555
Al11 Al45 2.921699 1_555
Al11 Al8 3.049563 1_555
Al11 Al17 3.071096 1_555
Al11 Yb3 3.122645 1_555
Al11 Al61 3.129888 1_555
Al11 Yb5 3.379522 1_655
Al12 Ti5 2.741357 1_555
Al12 Al76 2.772322 1_555
Al12 Al32 2.775251 1_555
Al12 Al56 2.797582 1_555
Al12 Al54 2.848210 1_555
Al12 Al84 2.849854 1_565
Al12 Al37 2.921705 1_565
Al12 Al16 3.049583 1_565
Al12 Al6 3.071096 1_555
Al12 Yb7 3.122646 1_565
Al12 Al66 3.129885 1_555
Al12 Yb8 3.379515 1_555
Al13 Ti3 2.741349 1_555
Al13 Al76 2.772338 1_555
Al13 Al30 2.775240 1_555
Al13 Al54 2.797592 1_555
Al13 Al55 2.848211 1_555
Al13 Al85 2.849846 1_555
Al13 Al38 2.921702 1_555
Al13 Al15 3.049583 1_455
Al13 Al7 3.071096 1_555
Al13 Yb8 3.122654 1_555
Al13 Al67 3.129887 1_555
Al13 Yb6 3.379512 1_555
Al14 Ti4 2.741357 1_565
Al14 Al76 2.772342 1_555
Al14 Al31 2.775245 1_565
Al14 Al55 2.797587 1_555
Al14 Al56 2.848219 1_555
Al14 Al83 2.849845 1_555
Al14 Al36 2.921699 1_555
Al14 Al17 3.049563 1_555
Al14 Al8 3.071096 1_555
Al14 Yb6 3.122645 1_555
Al14 Al68 3.129888 1_555
Al14 Yb7 3.379522 1_565
Al15 Ti4 2.741357 1_555
Al15 Al77 2.772322 1_555
Al15 Al31 2.775251 1_555
Al15 Al59 2.797582 1_555
Al15 Al57 2.848210 1_555
Al15 Al85 2.849854 1_655
Al15 Al38 2.921705 1_655
Al15 Al9 3.071096 1_555
Al15 Yb8 3.122646 1_655
Al15 Al69 3.129885 1_555
Al15 Yb7 3.379515 1_555
Al16 Ti3 2.741349 1_555
Al16 Al77 2.772338 1_555
Al16 Al30 2.775240 1_555
Al16 Al57 2.797592 1_555
Al16 Al58 2.848211 1_555
Al16 Al84 2.849846 1_555
Al16 Al37 2.921702 1_555
Al16 Yb7 3.122654 1_555
Al16 Al70 3.129887 1_555
Al16 Yb6 3.379512 1_555
Al17 Ti5 2.741357 1_655
Al17 Al77 2.772342 1_555
Al17 Al32 2.775245 1_655
Al17 Al58 2.797587 1_555
Al17 Al59 2.848219 1_555
Al17 Al83 2.849845 1_555
Al17 Al36 2.921699 1_555
Al17 Yb6 3.122645 1_555
Al17 Al71 3.129888 1_555
Al17 Yb8 3.379522 1_655
Al18 Ti2 2.741357 1_655
Al18 Al78 2.772322 1_555
Al18 Al35 2.775251 1_655
Al18 Al50 2.797582 1_555
Al18 Al48 2.848210 1_555
Al18 Al81 2.849854 1_555
Al18 Al40 2.921705 1_555
Al18 Al22 3.049583 1_545
Al18 Yb10 3.122646 1_555
Al18 Al69 3.129885 1_555
Al18 Yb11 3.379515 1_655
Al19 Ti0 2.741349 1_555
Al19 Al78 2.772338 1_555
Al19 Al33 2.775240 1_555
Al19 Al48 2.797592 1_555
Al19 Al49 2.848211 1_555
Al19 Al82 2.849846 1_655
Al19 Al41 2.921702 1_655
Al19 Al21 3.049583 1_655
Al19 Yb11 3.122654 1_655
Al19 Al71 3.129887 1_555
Al19 Yb9 3.379512 1_555
Al20 Ti1 2.741357 1_555
Al20 Al78 2.772342 1_555
Al20 Al34 2.775245 1_555
Al20 Al49 2.797587 1_555
Al20 Al50 2.848219 1_555
Al20 Al80 2.849845 1_555
Al20 Al39 2.921699 1_555
Al20 Al23 3.049563 1_555
Al20 Yb9 3.122645 1_555
Al20 Al70 3.129888 1_555
Al20 Yb10 3.379522 1_555
Al21 Ti1 2.741357 1_565
Al21 Al79 2.772322 1_555
Al21 Al34 2.775251 1_565
Al21 Al53 2.797582 1_555
Al21 Al51 2.848210 1_555
Al21 Al82 2.849854 1_555
Al21 Al41 2.921705 1_555
Al21 Al3 3.071096 1_555
Al21 Yb11 3.122646 1_555
Al21 Al66 3.129885 1_555
Al21 Yb10 3.379515 1_565
Al22 Ti0 2.741349 1_555
Al22 Al79 2.772338 1_555
Al22 Al33 2.775240 1_555
Al22 Al51 2.797592 1_555
Al22 Al52 2.848211 1_555
Al22 Al81 2.849846 1_565
Al22 Al40 2.921702 1_565
Al22 Al4 3.071096 1_555
Al22 Yb10 3.122654 1_565
Al22 Al68 3.129887 1_555
Al22 Yb9 3.379512 1_555
Al23 Ti2 2.741357 1_555
Al23 Al79 2.772342 1_555
Al23 Al35 2.775245 1_555
Al23 Al52 2.797587 1_555
Al23 Al53 2.848219 1_555
Al23 Al80 2.849845 1_555
Al23 Al39 2.921699 1_555
Al23 Al5 3.071096 1_555
Al23 Yb9 3.122645 1_555
Al23 Al67 3.129888 1_555
Al23 Yb11 3.379522 1_555
Al24 Ti6 2.701594 1_666
Al24 Ti0 2.726343 1_555
Al24 Al4 2.775240 1_555
Al24 Al45 2.833513 1_556
Al24 Al43 2.887511 1_565
Al24 Al44 2.887511 1_655
Al24 Al82 2.935931 1_655
Al24 Al81 2.935931 1_565
Al24 Al26 2.996737 1_665
Al24 Al25 2.996737 1_665
Al24 Yb0 3.531246 1_555
Al25 Ti6 2.701594 1_556
Al25 Ti1 2.726343 1_555
Al25 Al3 2.775251 1_545
Al25 Al46 2.833513 1_556
Al25 Al44 2.887510 1_545
Al25 Al42 2.887510 1_555
Al25 Al82 2.935931 1_545
Al25 Al80 2.935931 1_555
Al25 Al26 2.996737 1_555
Al25 Yb1 3.531246 1_555
Al26 Ti6 2.701594 1_556
Al26 Ti2 2.726343 1_555
Al26 Al5 2.775245 1_555
Al26 Al47 2.833513 1_556
Al26 Al43 2.887510 1_455
Al26 Al42 2.887510 1_555
Al26 Al81 2.935931 1_455
Al26 Al80 2.935931 1_555
Al26 Yb2 3.531246 1_555
Al27 Ti6 2.701594 1_555
Al27 Ti3 2.726343 1_555
Al27 Al7 2.775240 1_555
Al27 Al42 2.833513 1_554
Al27 Al47 2.887511 1_555
Al27 Al46 2.887511 1_555
Al27 Al84 2.935931 1_555
Al27 Al85 2.935931 1_555
Al27 Al28 2.996737 1_455
Al27 Al29 2.996737 1_545
Al27 Yb3 3.531246 1_555
Al28 Ti6 2.701594 1_655
Al28 Ti4 2.726343 1_555
Al28 Al8 2.775245 1_545
Al28 Al9 2.775251 1_555
Al28 Al43 2.833513 1_554
Al28 Al47 2.887510 1_655
Al28 Al45 2.887510 1_545
Al28 Al85 2.935931 1_655
Al28 Al83 2.935931 1_545
Al28 Al29 2.996737 1_645
Al28 Yb4 3.531246 1_555
Al29 Ti6 2.701594 1_565
Al29 Ti5 2.726343 1_555
Al29 Al6 2.775251 1_555
Al29 Al44 2.833513 1_554
Al29 Al46 2.887510 1_565
Al29 Al45 2.887510 1_455
Al29 Al84 2.935931 1_565
Al29 Al83 2.935931 1_455
Al29 Yb5 3.531246 1_555
Al30 Ti7 2.701594 1_555
Al30 Ti3 2.726343 1_555
Al30 Al39 2.833513 1_555
Al30 Al38 2.887511 1_555
Al30 Al37 2.887511 1_555
Al30 Al84 2.935931 1_555
Al30 Al85 2.935931 1_555
Al30 Al31 2.996737 1_455
Al30 Al32 2.996737 1_545
Al30 Yb6 3.531246 1_555
Al31 Ti7 2.701594 1_655
Al31 Ti4 2.726343 1_555
Al31 Al40 2.833513 1_555
Al31 Al38 2.887510 1_655
Al31 Al36 2.887510 1_545
Al31 Al85 2.935931 1_655
Al31 Al83 2.935931 1_545
Al31 Al32 2.996737 1_645
Al31 Yb7 3.531246 1_555
Al32 Ti7 2.701594 1_565
Al32 Ti5 2.726343 1_555
Al32 Al41 2.833513 1_555
Al32 Al37 2.887510 1_565
Al32 Al36 2.887510 1_455
Al32 Al84 2.935931 1_565
Al32 Al83 2.935931 1_455
Al32 Yb8 3.531246 1_555
Al33 Ti7 2.701594 1_665
Al33 Ti0 2.726343 1_555
Al33 Al36 2.833513 1_555
Al33 Al41 2.887511 1_655
Al33 Al40 2.887511 1_565
Al33 Al82 2.935931 1_655
Al33 Al81 2.935931 1_565
Al33 Al35 2.996737 1_665
Al33 Al34 2.996737 1_665
Al33 Yb9 3.531246 1_555
Al34 Ti7 2.701594 1_555
Al34 Ti1 2.726343 1_555
Al34 Al37 2.833513 1_555
Al34 Al41 2.887510 1_545
Al34 Al39 2.887510 1_555
Al34 Al82 2.935931 1_545
Al34 Al80 2.935931 1_555
Al34 Al35 2.996737 1_555
Al34 Yb10 3.531246 1_555
Al35 Ti7 2.701594 1_555
Al35 Ti2 2.726343 1_555
Al35 Al38 2.833513 1_555
Al35 Al40 2.887510 1_455
Al35 Al39 2.887510 1_555
Al35 Al81 2.935931 1_455
Al35 Al80 2.935931 1_555
Al35 Yb11 3.531246 1_555
Al36 Al71 2.791459 1_555
Al36 Al68 2.791459 1_555
Al36 Ti7 2.856839 1_665
Al36 Al40 3.010007 1_565
Al36 Al41 3.010007 1_655
Al36 Yb9 3.307719 1_555
Al36 Yb6 3.322173 1_555
Al37 Al70 2.791459 1_555
Al37 Al66 2.791459 1_545
Al37 Ti7 2.856839 1_555
Al37 Al41 3.010006 1_545
Al37 Al39 3.010007 1_555
Al37 Yb10 3.307719 1_555
Al37 Yb7 3.322173 1_555
Al38 Al67 2.791459 1_555
Al38 Al69 2.791459 1_455
Al38 Ti7 2.856839 1_555
Al38 Al40 3.010006 1_455
Al38 Al39 3.010007 1_555
Al38 Yb11 3.307719 1_555
Al38 Yb8 3.322173 1_555
Al39 Al70 2.791459 1_555
Al39 Al67 2.791459 1_555
Al39 Ti7 2.856839 1_555
Al39 Yb6 3.307719 1_555
Al39 Yb9 3.322173 1_555
Al40 Al68 2.791459 1_545
Al40 Al69 2.791459 1_555
Al40 Ti7 2.856839 1_655
Al40 Yb7 3.307719 1_555
Al40 Yb10 3.322173 1_555
Al41 Al71 2.791459 1_455
Al41 Al66 2.791459 1_555
Al41 Ti7 2.856839 1_565
Al41 Yb8 3.307719 1_555
Al41 Yb11 3.322173 1_555
Al42 Al65 2.791459 1_556
Al42 Al62 2.791459 1_556
Al42 Ti6 2.856839 1_556
Al42 Al5 2.921699 1_555
Al42 Al46 3.010007 1_556
Al42 Al47 3.010007 1_556
Al42 Yb3 3.307719 1_556
Al42 Yb0 3.322173 1_555
Al43 Al64 2.791459 1_546
Al43 Al60 2.791459 1_556
Al43 Ti6 2.856839 1_656
Al43 Al47 3.010006 1_656
Al43 Al45 3.010007 1_546
Al43 Yb4 3.307719 1_556
Al43 Yb1 3.322173 1_555
Al44 Al61 2.791459 1_456
Al44 Al63 2.791459 1_556
Al44 Ti6 2.856839 1_566
Al44 Al46 3.010006 1_566
Al44 Al45 3.010007 1_456
Al44 Yb5 3.307719 1_556
Al44 Yb2 3.322173 1_555
Al45 Al64 2.791459 1_555
Al45 Al61 2.791459 1_555
Al45 Ti6 2.856839 1_665
Al45 Al8 2.921699 1_555
Al45 Yb0 3.307719 1_554
Al45 Yb3 3.322173 1_555
Al46 Al62 2.791459 1_555
Al46 Al63 2.791459 1_545
Al46 Ti6 2.856839 1_555
Al46 Al6 2.921705 1_545
Al46 Yb1 3.307719 1_554
Al46 Yb4 3.322173 1_555
Al47 Al65 2.791459 1_555
Al47 Al60 2.791459 1_455
Al47 Ti6 2.856839 1_555
Al47 Al7 2.921702 1_555
Al47 Al9 2.921705 1_455
Al47 Yb2 3.307719 1_554
Al47 Yb5 3.322173 1_555
Al48 Ti2 2.718991 1_655
Al48 Al72 2.859059 1_555
Al48 Al78 2.859059 1_555
Al48 Al53 2.894216 1_655
Al48 Yb11 3.140114 1_655
Al48 Yb2 3.140114 1_655
Al49 Ti0 2.718991 1_555
Al49 Al78 2.859065 1_555
Al49 Al72 2.859065 1_555
Al49 Al52 2.894216 1_555
Al49 Yb9 3.140114 1_555
Al49 Yb0 3.140114 1_555
Al50 Ti1 2.718991 1_555
Al50 Al78 2.859059 1_555
Al50 Al72 2.859059 1_555
Al50 Al51 2.894216 1_545
Al50 Yb1 3.140114 1_555
Al50 Yb10 3.140114 1_555
Al51 Ti1 2.718991 1_565
Al51 Al79 2.859059 1_555
Al51 Al73 2.859059 1_555
Al51 Yb10 3.140114 1_565
Al51 Yb1 3.140114 1_565
Al52 Ti0 2.718991 1_555
Al52 Al73 2.859065 1_555
Al52 Al79 2.859065 1_555
Al52 Yb9 3.140114 1_555
Al52 Yb0 3.140114 1_555
Al53 Ti2 2.718991 1_555
Al53 Al79 2.859059 1_555
Al53 Al73 2.859059 1_555
Al53 Yb11 3.140114 1_555
Al53 Yb2 3.140114 1_555
Al54 Ti5 2.718991 1_555
Al54 Al7 2.797592 1_555
Al54 Al6 2.848210 1_555
Al54 Al74 2.859059 1_555
Al54 Al76 2.859059 1_555
Al54 Al59 2.894216 1_455
Al54 Yb8 3.140114 1_555
Al54 Yb5 3.140114 1_555
Al55 Ti3 2.718991 1_555
Al55 Al8 2.797587 1_555
Al55 Al7 2.848211 1_555
Al55 Al74 2.859065 1_555
Al55 Al76 2.859065 1_555
Al55 Al58 2.894216 1_555
Al55 Yb6 3.140114 1_555
Al55 Yb3 3.140114 1_555
Al56 Ti4 2.718991 1_565
Al56 Al6 2.797582 1_555
Al56 Al8 2.848219 1_555
Al56 Al74 2.859059 1_555
Al56 Al76 2.859059 1_555
Al56 Al57 2.894216 1_565
Al56 Yb4 3.140114 1_565
Al56 Yb7 3.140114 1_565
Al57 Ti4 2.718991 1_555
Al57 Al9 2.848210 1_555
Al57 Al75 2.859059 1_555
Al57 Al77 2.859059 1_555
Al57 Yb7 3.140114 1_555
Al57 Yb4 3.140114 1_555
Al58 Ti3 2.718991 1_555
Al58 Al75 2.859065 1_555
Al58 Al77 2.859065 1_555
Al58 Yb6 3.140114 1_555
Al58 Yb3 3.140114 1_555
Al59 Ti5 2.718991 1_655
Al59 Al9 2.797582 1_555
Al59 Al75 2.859059 1_555
Al59 Al77 2.859059 1_555
Al59 Yb8 3.140114 1_655
Al59 Yb5 3.140114 1_655
Al60 Al75 2.799190 1_555
Al60 Al72 2.799190 1_554
Al60 Al61 2.885866 1_555
Al60 Al62 2.885866 1_555
Al60 Yb2 3.127135 1_654
Al60 Yb4 3.127135 1_555
Al60 Al9 3.129885 1_555
Al60 Yb5 3.427868 1_655
Al60 Yb1 3.427868 1_554
Al61 Al75 2.799196 1_555
Al61 Al72 2.799196 1_554
Al61 Al62 2.885866 1_555
Al61 Yb5 3.127135 1_655
Al61 Yb0 3.127135 1_554
Al61 Yb3 3.427868 1_555
Al61 Yb2 3.427868 1_654
Al62 Al75 2.799196 1_555
Al62 Al72 2.799196 1_554
Al62 Yb1 3.127135 1_554
Al62 Yb3 3.127135 1_555
Al62 Yb0 3.427868 1_554
Al62 Yb4 3.427868 1_555
Al63 Al74 2.799190 1_555
Al63 Al73 2.799190 1_554
Al63 Al64 2.885866 1_555
Al63 Al65 2.885866 1_555
Al63 Yb1 3.127135 1_564
Al63 Yb5 3.127135 1_555
Al63 Yb2 3.427868 1_554
Al63 Yb4 3.427868 1_565
Al64 Al74 2.799196 1_555
Al64 Al73 2.799196 1_554
Al64 Al65 2.885866 1_555
Al64 Yb4 3.127135 1_565
Al64 Yb0 3.127135 1_554
Al64 Al8 3.129888 1_555
Al64 Yb3 3.427868 1_555
Al64 Yb1 3.427868 1_564
Al65 Al74 2.799196 1_555
Al65 Al73 2.799196 1_554
Al65 Yb2 3.127135 1_554
Al65 Yb3 3.127135 1_555
Al65 Al7 3.129887 1_555
Al65 Yb0 3.427868 1_554
Al65 Yb5 3.427868 1_555
Al66 Al76 2.799190 1_555
Al66 Al79 2.799190 1_555
Al66 Al67 2.885866 1_555
Al66 Al68 2.885866 1_555
Al66 Yb10 3.127135 1_565
Al66 Yb8 3.127135 1_555
Al66 Yb11 3.427868 1_555
Al66 Yb7 3.427868 1_565
Al67 Al76 2.799196 1_555
Al67 Al79 2.799196 1_555
Al67 Al68 2.885866 1_555
Al67 Yb11 3.127135 1_555
Al67 Yb6 3.127135 1_555
Al67 Yb9 3.427868 1_555
Al67 Yb8 3.427868 1_555
Al68 Al76 2.799196 1_555
Al68 Al79 2.799196 1_555
Al68 Yb7 3.127135 1_565
Al68 Yb9 3.127135 1_555
Al68 Yb6 3.427868 1_555
Al68 Yb10 3.427868 1_565
Al69 Al77 2.799190 1_555
Al69 Al78 2.799190 1_555
Al69 Al70 2.885866 1_555
Al69 Al71 2.885866 1_555
Al69 Yb11 3.127135 1_655
Al69 Yb7 3.127135 1_555
Al69 Yb10 3.427868 1_555
Al69 Yb8 3.427868 1_655
Al70 Al77 2.799196 1_555
Al70 Al78 2.799196 1_555
Al70 Al71 2.885866 1_555
Al70 Yb10 3.127135 1_555
Al70 Yb6 3.127135 1_555
Al70 Yb9 3.427868 1_555
Al70 Yb7 3.427868 1_555
Al71 Al77 2.799196 1_555
Al71 Al78 2.799196 1_555
Al71 Yb8 3.127135 1_655
Al71 Yb9 3.127135 1_555
Al71 Yb6 3.427868 1_555
Al71 Yb11 3.427868 1_655
Al72 Yb2 3.288696 1_655
Al72 Yb1 3.288697 1_555
Al72 Yb0 3.288706 1_555
Al73 Yb1 3.288696 1_565
Al73 Yb2 3.288697 1_555
Al73 Yb0 3.288706 1_555
Al74 Al8 2.772342 1_555
Al74 Yb5 3.288696 1_555
Al74 Yb4 3.288697 1_565
Al74 Yb3 3.288706 1_555
Al75 Al9 2.772322 1_555
Al75 Yb4 3.288696 1_555
Al75 Yb5 3.288697 1_655
Al75 Yb3 3.288706 1_555
Al76 Yb8 3.288696 1_555
Al76 Yb7 3.288697 1_565
Al76 Yb6 3.288706 1_555
Al77 Yb7 3.288696 1_555
Al77 Yb8 3.288697 1_655
Al77 Yb6 3.288706 1_555
Al78 Yb11 3.288696 1_655
Al78 Yb10 3.288697 1_555
Al78 Yb9 3.288706 1_555
Al79 Yb10 3.288696 1_565
Al79 Yb11 3.288697 1_555
Al79 Yb9 3.288706 1_555
Al80 Ti2 2.621288 1_555
Al80 Ti1 2.621288 1_555
Al80 Al81 2.853706 1_455
Al80 Al82 2.853706 1_545
Al81 Ti2 2.621288 1_655
Al81 Ti0 2.621288 1_545
Al81 Al82 2.853706 1_645
Al82 Ti1 2.621288 1_565
Al82 Ti0 2.621288 1_455
Al83 Ti4 2.621288 1_565
Al83 Ti5 2.621288 1_655
Al83 Al85 2.853706 1_665
Al83 Al84 2.853706 1_665
Al84 Ti5 2.621288 1_545
Al84 Ti3 2.621288 1_555
Al84 Al85 2.853706 1_555
Al85 Ti4 2.621288 1_455
Al85 Ti3 2.621288 1_555
Al85 Al9 2.849854 1_455
