# generated using pymatgen
data_Mg(CoO2)2
_symmetry_space_group_name_H-M   'P 1'
_cell_length_a   5.83073056
_cell_length_b   5.83073056
_cell_length_c   14.24548708
_cell_angle_alpha   89.72843177
_cell_angle_beta   89.72843177
_cell_angle_gamma   59.87428942
_symmetry_Int_Tables_number   1
_chemical_formula_structural   Mg(CoO2)2
_chemical_formula_sum   'Mg6 Co12 O24'
_cell_volume   418.88600497
_cell_formula_units_Z   6
loop_
 _symmetry_equiv_pos_site_id
 _symmetry_equiv_pos_as_xyz
  1  'x, y, z'
loop_
 _atom_site_type_symbol
 _atom_site_label
 _atom_site_symmetry_multiplicity
 _atom_site_fract_x
 _atom_site_fract_y
 _atom_site_fract_z
 _atom_site_occupancy
  Mg  Mg0  1  0.83645200  0.83645200  0.95961100  1
  Mg  Mg1  1  0.16145600  0.16145600  0.66913500  1
  Mg  Mg2  1  0.33151800  0.33151800  0.83463700  1
  Mg  Mg3  1  0.82715200  0.82715200  0.33385200  1
  Mg  Mg4  1  0.99422100  0.99422100  0.50093300  1
  Mg  Mg5  1  0.66070900  0.66070900  0.16610600  1
  Co  Co0  1  0.82939200  0.32821900  0.83424800  1
  Co  Co1  1  0.50049000  0.50049000  0.62150500  1
  Co  Co2  1  0.49624100  0.49624100  0.99816100  1
  Co  Co3  1  0.32821900  0.82939200  0.83424800  1
  Co  Co4  1  0.50130600  0.98872000  0.50120500  1
  Co  Co5  1  0.16638400  0.16638400  0.28983400  1
  Co  Co6  1  0.98872000  0.50130600  0.50120500  1
  Co  Co7  1  0.16401900  0.65882200  0.16654500  1
  Co  Co8  1  0.82170900  0.82170900  0.71202600  1
  Co  Co9  1  0.65882200  0.16401900  0.16654500  1
  Co  Co10  1  0.49012200  0.49012200  0.37798500  1
  Co  Co11  1  0.15806200  0.15806200  0.04129300  1
  O  O0  1  0.65558500  0.20110200  0.91524800  1
  O  O1  1  0.50605600  0.50605600  0.75705400  1
  O  O2  1  0.20110200  0.65558500  0.91524800  1
  O  O3  1  0.64555400  0.64555400  0.91263100  1
  O  O4  1  0.33665200  0.84277500  0.57899000  1
  O  O5  1  0.00077700  0.00077700  0.76011400  1
  O  O6  1  0.17005600  0.17005600  0.42450400  1
  O  O7  1  0.48318400  0.98843700  0.75802300  1
  O  O8  1  0.84277500  0.33665200  0.57899000  1
  O  O9  1  0.15146200  0.15146200  0.90877900  1
  O  O10  1  0.32006800  0.32006800  0.57573700  1
  O  O11  1  0.98843700  0.48318400  0.75802300  1
  O  O12  1  0.00284400  0.50679500  0.24423900  1
  O  O13  1  0.66875700  0.66875700  0.42633000  1
  O  O14  1  0.14976900  0.65242500  0.42232200  1
  O  O15  1  0.50679500  0.00284400  0.24423900  1
  O  O16  1  0.83609600  0.83609600  0.09732800  1
  O  O17  1  0.81854200  0.81854200  0.57600800  1
  O  O18  1  0.98781500  0.98781500  0.24176200  1
  O  O19  1  0.65242500  0.14976900  0.42232200  1
  O  O20  1  0.34304700  0.34304700  0.08511100  1
  O  O21  1  0.80354100  0.32516500  0.08223200  1
  O  O22  1  0.48747300  0.48747300  0.24213800  1
  O  O23  1  0.32516500  0.80354100  0.08223200  1
loop_
_geom_bond_atom_site_label_1
_geom_bond_atom_site_label_2
_geom_bond_distance
_geom_bond_site_symmetry_2
Mg0 O2 1.942934 1_655
Mg0 O0 1.942934 1_565
Mg0 O16 1.961829 1_556
Mg0 O3 2.045369 1_555
Mg1 O8 2.061579 1_455
Mg1 O4 2.061579 1_545
Mg1 O7 2.061775 1_545
Mg1 O11 2.061775 1_455
Mg1 O5 2.072014 1_555
Mg1 O10 2.077510 1_555
Mg2 O2 2.009304 1_555
Mg2 O0 2.009304 1_555
Mg2 O7 2.051989 1_545
Mg2 O11 2.051989 1_455
Mg2 O1 2.076327 1_555
Mg2 O9 2.098882 1_555
Mg3 O19 2.061887 1_565
Mg3 O14 2.061887 1_655
Mg3 O15 2.063398 1_565
Mg3 O12 2.063398 1_655
Mg3 O13 2.067506 1_555
Mg3 O18 2.081757 1_555
Mg4 O8 2.060258 1_565
Mg4 O4 2.060258 1_655
Mg4 O19 2.060471 1_565
Mg4 O14 2.060471 1_655
Mg4 O17 2.067559 1_555
Mg4 O6 2.078855 1_665
Mg5 O16 2.020465 1_555
Mg5 O22 2.053564 1_555
Mg5 O15 2.058727 1_565
Mg5 O12 2.058727 1_655
Mg5 O23 2.079932 1_555
Mg5 O21 2.079932 1_555
Co0 O0 1.908565 1_555
Co0 O11 1.917744 1_555
Co0 O9 1.944670 1_655
Co0 O3 1.958761 1_555
Co0 O5 1.962909 1_655
Co0 O1 1.971116 1_555
Co1 O8 1.828315 1_555
Co1 O4 1.828315 1_555
Co1 O1 1.932088 1_555
Co1 O10 1.939679 1_555
Co2 O0 1.903589 1_555
Co2 O2 1.903589 1_555
Co2 O3 1.934208 1_555
Co2 O23 1.963350 1_556
Co2 O21 1.963350 1_556
Co2 O20 1.977344 1_556
Co3 O2 1.908565 1_555
Co3 O7 1.917744 1_555
Co3 O9 1.944670 1_565
Co3 O3 1.958761 1_555
Co3 O5 1.962909 1_565
Co3 O1 1.971116 1_555
Co4 O4 1.916964 1_555
Co4 O17 1.925575 1_555
Co4 O19 1.931867 1_565
Co4 O13 1.937026 1_555
Co4 O10 1.983951 1_565
Co4 O6 2.000343 1_565
Co5 O15 1.834274 1_555
Co5 O12 1.834274 1_555
Co5 O6 1.919001 1_555
Co5 O18 1.933601 1_445
Co6 O8 1.916964 1_555
Co6 O17 1.925575 1_555
Co6 O14 1.931867 1_655
Co6 O13 1.937026 1_555
Co6 O10 1.983951 1_655
Co6 O6 2.000343 1_655
Co7 O12 1.926380 1_555
Co7 O16 1.928958 1_455
Co7 O23 1.952696 1_555
Co7 O22 1.957637 1_555
Co7 O20 1.976089 1_555
Co7 O18 1.978424 1_455
Co8 O7 1.827052 1_555
Co8 O11 1.827052 1_555
Co8 O17 1.938082 1_555
Co8 O5 1.938400 1_665
Co9 O15 1.926380 1_555
Co9 O16 1.928958 1_545
Co9 O21 1.952696 1_555
Co9 O22 1.957637 1_555
Co9 O20 1.976089 1_555
Co9 O18 1.978424 1_545
Co10 O14 1.827944 1_555
Co10 O19 1.827944 1_555
Co10 O22 1.935538 1_555
Co10 O13 1.935625 1_555
Co11 O23 1.880070 1_545
Co11 O21 1.880070 1_455
Co11 O9 1.889269 1_554
Co11 O20 1.974066 1_555
