# generated using pymatgen
data_La2MnRhO6
_symmetry_space_group_name_H-M   'P 1'
_cell_length_a   5.83087905
_cell_length_b   7.75261030
_cell_length_c   11.30849006
_cell_angle_alpha   88.87852730
_cell_angle_beta   89.98568836
_cell_angle_gamma   89.99704634
_symmetry_Int_Tables_number   1
_chemical_formula_structural   La2MnRhO6
_chemical_formula_sum   'La8 Mn4 Rh4 O24'
_cell_volume   511.09707414
_cell_formula_units_Z   4
loop_
 _symmetry_equiv_pos_site_id
 _symmetry_equiv_pos_as_xyz
  1  'x, y, z'
loop_
 _atom_site_type_symbol
 _atom_site_label
 _atom_site_symmetry_multiplicity
 _atom_site_fract_x
 _atom_site_fract_y
 _atom_site_fract_z
 _atom_site_occupancy
  La  La0  1  0.55514200  0.24914100  0.49298000  1
  La  La1  1  0.55518800  0.24915200  0.99297400  1
  La  La2  1  0.05523300  0.25088600  0.25699500  1
  La  La3  1  0.05517000  0.25087500  0.75702000  1
  La  La4  1  0.44482900  0.75085100  0.00703300  1
  La  La5  1  0.44483700  0.75077700  0.50700200  1
  La  La6  1  0.94487400  0.74916200  0.24297200  1
  La  La7  1  0.94478400  0.74920200  0.74300000  1
  Mn  Mn0  1  0.50002300  0.00005600  0.74998800  1
  Mn  Mn1  1  0.00001600  0.49992800  0.50002200  1
  Mn  Mn2  1  0.50008400  0.00007000  0.24999100  1
  Mn  Mn3  1  0.00005500  0.49993800  0.99999700  1
  Rh  Rh0  1  0.50001400  0.50007000  0.25001300  1
  Rh  Rh1  1  0.49997400  0.50008100  0.75002700  1
  Rh  Rh2  1  0.00001300  0.99994600  0.99998400  1
  Rh  Rh3  1  0.99998100  0.99991900  0.49997600  1
  O  O0  1  0.70425000  0.95353600  0.09977900  1
  O  O1  1  0.70417000  0.95356800  0.59980500  1
  O  O2  1  0.20434400  0.54646200  0.15025600  1
  O  O3  1  0.20426500  0.54646500  0.65023200  1
  O  O4  1  0.29564800  0.04639500  0.40016800  1
  O  O5  1  0.29569100  0.04644000  0.90018800  1
  O  O6  1  0.79557400  0.45356800  0.34981300  1
  O  O7  1  0.79564400  0.45358300  0.84979800  1
  O  O8  1  0.29598200  0.45192000  0.39916000  1
  O  O9  1  0.29602900  0.45194000  0.89919500  1
  O  O10  1  0.79606600  0.04808000  0.35078400  1
  O  O11  1  0.79602100  0.04805500  0.85090400  1
  O  O12  1  0.70405100  0.54788400  0.10094800  1
  O  O13  1  0.70403300  0.54788200  0.60095100  1
  O  O14  1  0.20408000  0.95212200  0.14899300  1
  O  O15  1  0.20402200  0.95213400  0.64903100  1
  O  O16  1  0.97226300  0.25620600  0.04670400  1
  O  O17  1  0.97223800  0.25619800  0.54671000  1
  O  O18  1  0.47227200  0.24379600  0.20329600  1
  O  O19  1  0.47226200  0.24379700  0.70328600  1
  O  O20  1  0.02774600  0.74353600  0.45329700  1
  O  O21  1  0.02772900  0.74359900  0.95330100  1
  O  O22  1  0.52772800  0.75641400  0.29670000  1
  O  O23  1  0.52767800  0.75636700  0.79672700  1
loop_
_geom_bond_atom_site_label_1
_geom_bond_atom_site_label_2
_geom_bond_distance
_geom_bond_site_symmetry_2
La0 O8 2.411601 1_555
La0 O19 2.426288 1_555
La0 O4 2.434583 1_555
La0 O17 2.507794 1_555
La0 O6 2.645177 1_555
La0 O10 2.661888 1_555
La0 O1 2.712415 1_545
La0 O13 2.778474 1_555
La1 O9 2.411444 1_555
La1 O18 2.426507 1_556
La1 O5 2.434291 1_555
La1 O16 2.507675 1_556
La1 O7 2.645330 1_555
La1 O11 2.660898 1_555
La1 O0 2.712660 1_546
La1 O12 2.778379 1_556
La2 O10 2.411381 1_455
La2 O16 2.426462 1_455
La2 O6 2.434460 1_455
La2 O18 2.507094 1_555
La2 O4 2.645798 1_555
La2 O8 2.661518 1_555
La2 O2 2.712055 1_555
La2 O14 2.778438 1_545
La3 O11 2.411844 1_455
La3 O17 2.426629 1_455
La3 O7 2.433909 1_455
La3 O19 2.507487 1_555
La3 O5 2.645837 1_555
La3 O9 2.662069 1_555
La3 O3 2.712353 1_555
La3 O15 2.778230 1_545
La4 O12 2.413224 1_555
La4 O23 2.426249 1_554
La4 O0 2.433678 1_555
La4 O21 2.507863 1_554
La4 O2 2.645548 1_555
La4 O14 2.660682 1_555
La4 O5 2.712821 1_564
La4 O9 2.778733 1_554
La5 O13 2.412934 1_555
La5 O22 2.426252 1_555
La5 O1 2.434182 1_555
La5 O20 2.507735 1_555
La5 O3 2.645514 1_555
La5 O15 2.661763 1_555
La5 O4 2.713051 1_565
La5 O8 2.778501 1_555
La6 O14 2.413209 1_655
La6 O20 2.426721 1_655
La6 O2 2.433354 1_655
La6 O22 2.507812 1_555
La6 O0 2.646048 1_555
La6 O12 2.661895 1_555
La6 O6 2.713019 1_555
La6 O10 2.778395 1_565
La7 O15 2.413138 1_655
La7 O21 2.426540 1_655
La7 O3 2.433843 1_655
La7 O23 2.507565 1_555
La7 O1 2.645994 1_555
La7 O13 2.662042 1_555
La7 O7 2.712674 1_555
La7 O11 2.778362 1_565
Mn0 O23 1.958434 1_545
Mn0 O19 1.958767 1_555
Mn0 O11 2.106497 1_555
Mn0 O15 2.106652 1_545
Mn0 O1 2.110477 1_545
Mn0 O5 2.111091 1_555
Mn1 O20 1.957822 1_555
Mn1 O17 1.958648 1_455
Mn1 O8 2.105526 1_555
Mn1 O13 2.105941 1_455
Mn1 O3 2.111630 1_555
Mn1 O6 2.112000 1_455
Mn2 O22 1.958098 1_545
Mn2 O18 1.958660 1_555
Mn2 O10 2.105678 1_555
Mn2 O14 2.106957 1_545
Mn2 O0 2.110871 1_545
Mn2 O4 2.111138 1_555
Mn3 O21 1.958107 1_555
Mn3 O16 1.958723 1_456
Mn3 O9 2.105180 1_555
Mn3 O12 2.106166 1_456
Mn3 O7 2.111799 1_455
Mn3 O2 2.112190 1_556
O0 Rh2 2.088142 1_654
O1 Rh3 2.088505 1_555
O2 Rh0 2.087875 1_555
O3 Rh1 2.088284 1_555
O4 Rh3 2.087841 1_445
O5 Rh2 2.087844 1_545
O6 Rh0 2.087745 1_555
O7 Rh1 2.088093 1_555
O8 Rh0 2.091365 1_555
O9 Rh1 2.091256 1_555
O10 Rh3 2.091857 1_545
O11 Rh2 2.091029 1_645
O12 Rh0 2.090214 1_555
O13 Rh1 2.090371 1_555
O14 Rh2 2.090276 1_554
O15 Rh3 2.090558 1_455
O16 Rh2 2.072014 1_644
O17 Rh3 2.072196 1_545
O18 Rh0 2.072142 1_555
O19 Rh1 2.072277 1_555
O20 Rh3 2.072813 1_455
O21 Rh2 2.072534 1_555
O22 Rh0 2.072560 1_555
O23 Rh1 2.072162 1_555
