# generated using pymatgen
data_FeB4O7
_symmetry_space_group_name_H-M   'P 1'
_cell_length_a   6.38728875
_cell_length_b   8.26967664
_cell_length_c   8.26960170
_cell_angle_alpha   78.52104002
_cell_angle_beta   110.81223293
_cell_angle_gamma   110.81123450
_symmetry_Int_Tables_number   1
_chemical_formula_structural   FeB4O7
_chemical_formula_sum   'Fe4 B16 O28'
_cell_volume   380.33989925
_cell_formula_units_Z   4
loop_
 _symmetry_equiv_pos_site_id
 _symmetry_equiv_pos_as_xyz
  1  'x, y, z'
loop_
 _atom_site_type_symbol
 _atom_site_label
 _atom_site_symmetry_multiplicity
 _atom_site_fract_x
 _atom_site_fract_y
 _atom_site_fract_z
 _atom_site_occupancy
  Fe  Fe0  1  0.22350400  0.48652100  0.73632700  1
  Fe  Fe1  1  0.77644800  0.51346600  0.26376100  1
  Fe  Fe2  1  0.22096100  0.98553700  0.23577900  1
  Fe  Fe3  1  0.77888900  0.01449600  0.76430600  1
  B  B0  1  0.29505700  0.10253700  0.60250600  1
  B  B1  1  0.29496100  0.60265300  0.10302800  1
  B  B2  1  0.29483400  0.35263000  0.35240700  1
  B  B3  1  0.29516100  0.85288400  0.85279200  1
  B  B4  1  0.70502500  0.89743100  0.39750400  1
  B  B5  1  0.70499900  0.39735200  0.89697500  1
  B  B6  1  0.70485300  0.14711200  0.14719900  1
  B  B7  1  0.70512600  0.64733600  0.64756500  1
  B  B8  1  0.08294200  0.78495800  0.53524300  1
  B  B9  1  0.08270000  0.28521100  0.03486600  1
  B  B10  1  0.68071200  0.33376700  0.58374400  1
  B  B11  1  0.68033000  0.83377500  0.08385600  1
  B  B12  1  0.91713400  0.21504700  0.46478400  1
  B  B13  1  0.91737000  0.71483100  0.96514500  1
  B  B14  1  0.31925500  0.66624600  0.41622300  1
  B  B15  1  0.31958500  0.16616200  0.91612100  1
  O  O0  1  0.90917200  0.32921100  0.57880600  1
  O  O1  1  0.90883000  0.82896300  0.07940200  1
  O  O2  1  0.09085000  0.67088000  0.42113000  1
  O  O3  1  0.09111100  0.17110900  0.92057900  1
  O  O4  1  0.19076000  0.25292500  0.50276800  1
  O  O5  1  0.19086000  0.75303700  0.00321100  1
  O  O6  1  0.24390500  0.02963600  0.77958200  1
  O  O7  1  0.24382700  0.52957900  0.27964200  1
  O  O8  1  0.80924300  0.74705000  0.49721500  1
  O  O9  1  0.80908600  0.24692500  0.99674700  1
  O  O10  1  0.75624000  0.97038400  0.22044300  1
  O  O11  1  0.75615100  0.47041900  0.72035300  1
  O  O12  1  0.19065400  0.96436200  0.48786900  1
  O  O13  1  0.19053300  0.46485500  0.98771000  1
  O  O14  1  0.54851100  0.16664400  0.64324100  1
  O  O15  1  0.54859600  0.66684700  0.14357600  1
  O  O16  1  0.19070600  0.73776100  0.71494800  1
  O  O17  1  0.19049100  0.23780100  0.21421800  1
  O  O18  1  0.54847900  0.39330000  0.41675900  1
  O  O19  1  0.54859600  0.89347700  0.91678600  1
  O  O20  1  0.80937800  0.03558700  0.51216300  1
  O  O21  1  0.80941900  0.53516000  0.01230100  1
  O  O22  1  0.45161000  0.83339700  0.35670400  1
  O  O23  1  0.45139800  0.33313600  0.85644700  1
  O  O24  1  0.80931400  0.26221800  0.28505300  1
  O  O25  1  0.80950200  0.76219700  0.78571100  1
  O  O26  1  0.45149100  0.60671800  0.58323500  1
  O  O27  1  0.45144500  0.10646900  0.08327300  1
loop_
_geom_bond_atom_site_label_1
_geom_bond_atom_site_label_2
_geom_bond_distance
_geom_bond_site_symmetry_2
Fe0 O0 2.092900 1_455
Fe0 O26 2.119444 1_555
Fe0 O23 2.120737 1_555
Fe0 O16 2.128058 1_555
Fe0 O13 2.129333 1_555
Fe1 O2 2.092971 1_655
Fe1 O18 2.118751 1_555
Fe1 O15 2.120573 1_555
Fe1 O24 2.128410 1_555
Fe1 O21 2.129933 1_555
Fe2 O1 2.079333 1_455
Fe2 O22 2.126676 1_555
Fe2 O27 2.128178 1_565
Fe2 O12 2.128716 1_555
Fe2 O17 2.130129 1_565
Fe3 O3 2.079416 1_655
Fe3 O14 2.125576 1_555
Fe3 O19 2.127198 1_545
Fe3 O20 2.129729 1_555
Fe3 O25 2.130977 1_545
B0 O14 1.445343 1_555
B0 O12 1.445524 1_545
B0 O4 1.568679 1_555
B0 O6 1.569446 1_555
B1 O15 1.446546 1_555
B1 O13 1.446823 1_554
B1 O7 1.566024 1_555
B1 O5 1.568144 1_555
B2 O18 1.446527 1_555
B2 O17 1.446660 1_555
B2 O4 1.567700 1_555
B2 O7 1.567960 1_555
B3 O19 1.445324 1_555
B3 O16 1.446047 1_555
B3 O6 1.567546 1_565
B3 O5 1.569110 1_556
B4 O22 1.445059 1_555
B4 O20 1.445540 1_565
B4 O8 1.568320 1_555
B4 O10 1.569546 1_555
B5 O23 1.446367 1_555
B5 O21 1.446931 1_556
B5 O11 1.566125 1_555
B5 O9 1.568315 1_555
B6 O27 1.445121 1_555
B6 O24 1.446016 1_555
B6 O10 1.567735 1_545
B6 O9 1.569053 1_554
B7 O26 1.446506 1_555
B7 O25 1.446552 1_555
B7 O8 1.567782 1_555
B7 O11 1.567783 1_555
B8 O12 1.436249 1_555
B8 O16 1.437961 1_555
B8 O2 1.484961 1_555
B8 O8 1.585086 1_455
B9 O17 1.436053 1_555
B9 O13 1.437589 1_554
B9 O3 1.487791 1_554
B9 O9 1.583968 1_454
B10 O18 1.434820 1_555
B10 O14 1.435444 1_555
B10 O0 1.488117 1_555
B10 O11 1.587399 1_555
B11 O15 1.433907 1_555
B11 O19 1.434634 1_554
B11 O1 1.487656 1_555
B11 O10 1.586392 1_555
B12 O20 1.436692 1_555
B12 O24 1.438159 1_555
B12 O0 1.485096 1_555
B12 O4 1.584732 1_655
B13 O25 1.436618 1_555
B13 O21 1.437927 1_556
B13 O1 1.488192 1_556
B13 O5 1.583375 1_656
B14 O26 1.434965 1_555
B14 O22 1.436030 1_555
B14 O2 1.487913 1_555
B14 O7 1.587333 1_555
B15 O23 1.434216 1_555
B15 O27 1.435368 1_556
B15 O3 1.487928 1_555
B15 O6 1.585880 1_555
