# generated using pymatgen
data_CeSe2
_symmetry_space_group_name_H-M   'P 1'
_cell_length_a   12.98004972
_cell_length_b   14.83020693
_cell_length_c   14.83508025
_cell_angle_alpha   90.59392730
_cell_angle_beta   90.00000000
_cell_angle_gamma   90.00000000
_symmetry_Int_Tables_number   1
_chemical_formula_structural   CeSe2
_chemical_formula_sum   'Ce16 Se32'
_cell_volume   2855.55239414
_cell_formula_units_Z   16
loop_
 _symmetry_equiv_pos_site_id
 _symmetry_equiv_pos_as_xyz
  1  'x, y, z'
loop_
 _atom_site_type_symbol
 _atom_site_label
 _atom_site_symmetry_multiplicity
 _atom_site_fract_x
 _atom_site_fract_y
 _atom_site_fract_z
 _atom_site_occupancy
  Ce  Ce0  1  0.87426913  0.83504958  0.64782023  1
  Ce  Ce1  1  0.37426913  0.16495042  0.85217977  1
  Ce  Ce2  1  0.12573087  0.16495042  0.35217977  1
  Ce  Ce3  1  0.62573087  0.83504958  0.14782023  1
  Ce  Ce4  1  0.40227976  0.34180574  0.15724450  1
  Ce  Ce5  1  0.90227976  0.65819426  0.34275550  1
  Ce  Ce6  1  0.59772024  0.65819426  0.84275550  1
  Ce  Ce7  1  0.09772024  0.34180574  0.65724450  1
  Ce  Ce8  1  0.64880402  0.40519297  0.41186870  1
  Ce  Ce9  1  0.14880402  0.59480703  0.08813130  1
  Ce  Ce10  1  0.35119598  0.59480703  0.58813130  1
  Ce  Ce11  1  0.85119598  0.40519297  0.91186870  1
  Ce  Ce12  1  0.13429394  0.89582162  0.90553129  1
  Ce  Ce13  1  0.63429394  0.10417838  0.59446871  1
  Ce  Ce14  1  0.86570606  0.10417838  0.09446871  1
  Ce  Ce15  1  0.36570606  0.89582162  0.40553129  1
  Se  Se0  1  0.27128246  0.27669066  0.28362332  1
  Se  Se1  1  0.77128246  0.72330934  0.21637668  1
  Se  Se2  1  0.72871754  0.72330934  0.71637668  1
  Se  Se3  1  0.22871754  0.27669066  0.78362332  1
  Se  Se4  1  0.50000000  0.50000000  0.50000000  1
  Se  Se5  1  0.00000000  0.50000000  -0.00000000  1
  Se  Se6  1  -0.00000000  0.00000000  -0.00000000  1
  Se  Se7  1  0.50000000  0.00000000  0.50000000  1
  Se  Se8  1  0.42475532  0.21823868  0.02201335  1
  Se  Se9  1  0.92475532  0.78176132  0.47798665  1
  Se  Se10  1  0.57524468  0.78176132  0.97798665  1
  Se  Se11  1  0.07524468  0.21823868  0.52201335  1
  Se  Se12  1  0.19252560  0.75296478  0.00601608  1
  Se  Se13  1  0.69252560  0.24703522  0.49398392  1
  Se  Se14  1  0.80747440  0.24703522  0.99398392  1
  Se  Se15  1  0.30747440  0.75296478  0.50601608  1
  Se  Se16  1  0.80405469  0.00736588  0.63849005  1
  Se  Se17  1  0.30405469  0.99263412  0.86150995  1
  Se  Se18  1  0.19594531  0.99263412  0.36150995  1
  Se  Se19  1  0.69594531  0.00736588  0.13849005  1
  Se  Se20  1  0.32860632  0.50051377  0.09229749  1
  Se  Se21  1  0.82860632  0.49948623  0.40770251  1
  Se  Se22  1  0.67139368  0.49948623  0.90770251  1
  Se  Se23  1  0.17139368  0.50051377  0.59229749  1
  Se  Se24  1  0.58699162  0.37066575  0.23951955  1
  Se  Se25  1  0.08699162  0.62933425  0.26048045  1
  Se  Se26  1  0.41300838  0.62933425  0.76048045  1
  Se  Se27  1  0.91300838  0.37066575  0.73951955  1
  Se  Se28  1  0.04630042  0.83207556  0.75173876  1
  Se  Se29  1  0.54630042  0.16792444  0.74826124  1
  Se  Se30  1  0.95369958  0.16792444  0.24826124  1
  Se  Se31  1  0.45369958  0.83207556  0.25173876  1
loop_
_geom_bond_atom_site_label_1
_geom_bond_atom_site_label_2
_geom_bond_distance
_geom_bond_site_symmetry_2
Ce0 Se9 2.713033 1_555
Ce0 Se28 2.714071 1_655
Ce0 Se2 2.717485 1_555
Ce0 Se16 2.718019 1_565
Ce1 Se8 2.713033 1_556
Ce1 Se29 2.714071 1_555
Ce1 Se3 2.717485 1_555
Ce1 Se17 2.718019 1_545
Ce2 Se11 2.713033 1_555
Ce2 Se30 2.714071 1_455
Ce2 Se0 2.717485 1_555
Ce2 Se18 2.718019 1_545
Ce3 Se10 2.713033 1_554
Ce3 Se31 2.714071 1_555
Ce3 Se1 2.717485 1_555
Ce3 Se19 2.718019 1_565
Ce4 Se0 2.715929 1_555
Ce4 Se8 2.718775 1_555
Ce4 Se24 2.722214 1_555
Ce4 Se20 2.725728 1_555
Ce5 Se1 2.715929 1_555
Ce5 Se9 2.718775 1_555
Ce5 Se25 2.722214 1_655
Ce5 Se21 2.725728 1_555
Ce6 Se2 2.715929 1_555
Ce6 Se10 2.718775 1_555
Ce6 Se26 2.722214 1_555
Ce6 Se22 2.725728 1_555
Ce7 Se3 2.715929 1_555
Ce7 Se11 2.718775 1_555
Ce7 Se27 2.722214 1_455
Ce7 Se23 2.725728 1_555
Ce8 Se13 2.714168 1_555
Ce8 Se4 2.716388 1_555
Ce8 Se21 2.721750 1_555
Ce8 Se24 2.723247 1_555
Ce9 Se12 2.714168 1_555
Ce9 Se5 2.716388 1_555
Ce9 Se20 2.721750 1_555
Ce9 Se25 2.723247 1_555
Ce10 Se15 2.714168 1_555
Ce10 Se4 2.716388 1_555
Ce10 Se23 2.721750 1_555
Ce10 Se26 2.723247 1_555
Ce11 Se14 2.714168 1_555
Ce11 Se5 2.716388 1_656
Ce11 Se22 2.721750 1_555
Ce11 Se27 2.723247 1_555
Ce12 Se6 2.710112 1_566
Ce12 Se12 2.710613 1_556
Ce12 Se28 2.712727 1_555
Ce12 Se17 2.713435 1_555
Ce13 Se7 2.710112 1_555
Ce13 Se13 2.710613 1_555
Ce13 Se29 2.712727 1_555
Ce13 Se16 2.713435 1_555
Ce14 Se6 2.710112 1_655
Ce14 Se14 2.710613 1_554
Ce14 Se30 2.712727 1_555
Ce14 Se19 2.713435 1_555
Ce15 Se7 2.710112 1_565
Ce15 Se15 2.710613 1_555
Ce15 Se31 2.712727 1_555
Ce15 Se18 2.713435 1_555
