# generated using pymatgen
data_Nd2Fe14C
_symmetry_space_group_name_H-M   'P 1'
_cell_length_a   8.76963700
_cell_length_b   8.76963700
_cell_length_c   11.94058200
_cell_angle_alpha   90.00000000
_cell_angle_beta   90.00000000
_cell_angle_gamma   90.00000000
_symmetry_Int_Tables_number   1
_chemical_formula_structural   Nd2Fe14C
_chemical_formula_sum   'Nd8 Fe56 C4'
_cell_volume   918.30876496
_cell_formula_units_Z   4
loop_
 _symmetry_equiv_pos_site_id
 _symmetry_equiv_pos_as_xyz
  1  'x, y, z'
loop_
 _atom_site_type_symbol
 _atom_site_label
 _atom_site_symmetry_multiplicity
 _atom_site_fract_x
 _atom_site_fract_y
 _atom_site_fract_z
 _atom_site_occupancy
  Nd  Nd0  1  0.23811300  0.76188700  0.50000000  1
  Nd  Nd1  1  0.76188700  0.23811300  0.50000000  1
  Nd  Nd2  1  0.26188700  0.26188700  0.00000000  1
  Nd  Nd3  1  0.73811300  0.73811300  0.00000000  1
  Nd  Nd4  1  0.64254000  0.64254000  0.50000000  1
  Nd  Nd5  1  0.35746000  0.35746000  0.50000000  1
  Nd  Nd6  1  0.85746000  0.14254000  0.00000000  1
  Nd  Nd7  1  0.14254000  0.85746000  0.00000000  1
  Fe  Fe0  1  0.00000000  0.50000000  0.50000000  1
  Fe  Fe1  1  0.50000000  0.00000000  0.00000000  1
  Fe  Fe2  1  0.50000000  0.00000000  0.50000000  1
  Fe  Fe3  1  0.00000000  0.50000000  0.00000000  1
  Fe  Fe4  1  0.50000000  0.50000000  0.10654500  1
  Fe  Fe5  1  0.00000000  0.00000000  0.60654500  1
  Fe  Fe6  1  0.50000000  0.50000000  0.89345500  1
  Fe  Fe7  1  0.00000000  0.00000000  0.39345500  1
  Fe  Fe8  1  0.18233100  0.81766900  0.25505000  1
  Fe  Fe9  1  0.81766900  0.18233100  0.25505000  1
  Fe  Fe10  1  0.31766900  0.31766900  0.75505000  1
  Fe  Fe11  1  0.68233100  0.68233100  0.75505000  1
  Fe  Fe12  1  0.81766900  0.18233100  0.74495000  1
  Fe  Fe13  1  0.18233100  0.81766900  0.74495000  1
  Fe  Fe14  1  0.68233100  0.68233100  0.24495000  1
  Fe  Fe15  1  0.31766900  0.31766900  0.24495000  1
  Fe  Fe16  1  0.40207000  0.59793000  0.29172200  1
  Fe  Fe17  1  0.59793000  0.40207000  0.29172200  1
  Fe  Fe18  1  0.09793000  0.09793000  0.79172200  1
  Fe  Fe19  1  0.90207000  0.90207000  0.79172200  1
  Fe  Fe20  1  0.59793000  0.40207000  0.70827800  1
  Fe  Fe21  1  0.40207000  0.59793000  0.70827800  1
  Fe  Fe22  1  0.90207000  0.90207000  0.20827800  1
  Fe  Fe23  1  0.09793000  0.09793000  0.20827800  1
  Fe  Fe24  1  0.14044000  0.53655900  0.32316900  1
  Fe  Fe25  1  0.85956000  0.46344100  0.32316900  1
  Fe  Fe26  1  0.35956000  0.03655900  0.82316900  1
  Fe  Fe27  1  0.64044000  0.96344100  0.82316900  1
  Fe  Fe28  1  0.85956000  0.46344100  0.67683100  1
  Fe  Fe29  1  0.14044000  0.53655900  0.67683100  1
  Fe  Fe30  1  0.64044000  0.96344100  0.17683100  1
  Fe  Fe31  1  0.35956000  0.03655900  0.17683100  1
  Fe  Fe32  1  0.53655900  0.14044000  0.32316900  1
  Fe  Fe33  1  0.46344100  0.85956000  0.32316900  1
  Fe  Fe34  1  0.03655900  0.35956000  0.82316900  1
  Fe  Fe35  1  0.96344100  0.64044000  0.82316900  1
  Fe  Fe36  1  0.46344100  0.85956000  0.67683100  1
  Fe  Fe37  1  0.53655900  0.14044000  0.67683100  1
  Fe  Fe38  1  0.96344100  0.64044000  0.17683100  1
  Fe  Fe39  1  0.03655900  0.35956000  0.17683100  1
  Fe  Fe40  1  0.93370000  0.72546200  0.37866800  1
  Fe  Fe41  1  0.06630000  0.27453800  0.37866800  1
  Fe  Fe42  1  0.56630000  0.22546200  0.87866800  1
  Fe  Fe43  1  0.43370000  0.77453800  0.87866800  1
  Fe  Fe44  1  0.06630000  0.27453800  0.62133200  1
  Fe  Fe45  1  0.93370000  0.72546200  0.62133200  1
  Fe  Fe46  1  0.43370000  0.77453800  0.12133200  1
  Fe  Fe47  1  0.56630000  0.22546200  0.12133200  1
  Fe  Fe48  1  0.72546200  0.93370000  0.37866800  1
  Fe  Fe49  1  0.27453800  0.06630000  0.37866800  1
  Fe  Fe50  1  0.22546200  0.56630000  0.87866800  1
  Fe  Fe51  1  0.77453800  0.43370000  0.87866800  1
  Fe  Fe52  1  0.27453800  0.06630000  0.62133200  1
  Fe  Fe53  1  0.72546200  0.93370000  0.62133200  1
  Fe  Fe54  1  0.77453800  0.43370000  0.12133200  1
  Fe  Fe55  1  0.22546200  0.56630000  0.12133200  1
  C  C0  1  0.87433900  0.87433900  0.50000000  1
  C  C1  1  0.12566100  0.12566100  0.50000000  1
  C  C2  1  0.62566100  0.37433900  0.00000000  1
  C  C3  1  0.37433900  0.62566100  0.00000000  1
loop_
_geom_bond_atom_site_label_1
_geom_bond_atom_site_label_2
_geom_bond_distance
_geom_bond_site_symmetry_2
Fe0 Fe29 2.465346 1_555
Fe0 Fe28 2.465346 1_455
Fe0 Fe25 2.465346 1_455
Fe0 Fe24 2.465346 1_555
Fe0 Fe44 2.519207 1_555
Fe0 Fe41 2.519207 1_555
Fe0 Fe45 2.519207 1_455
Fe0 Fe40 2.519207 1_455
Fe0 Nd0 3.104038 1_555
Fe0 Nd1 3.104038 1_455
Fe0 Nd5 3.374833 1_555
Fe0 Nd4 3.374833 1_455
Fe1 Fe26 2.465346 1_554
Fe1 Fe27 2.465346 1_544
Fe1 Fe31 2.465346 1_555
Fe1 Fe30 2.465346 1_545
Fe1 Fe47 2.519207 1_555
Fe1 Fe43 2.519207 1_544
Fe1 Fe42 2.519207 1_554
Fe1 Fe46 2.519207 1_545
Fe1 Nd2 3.104038 1_555
Fe1 Nd3 3.104038 1_545
Fe1 Nd6 3.374833 1_555
Fe1 Nd7 3.374833 1_545
Fe2 Fe37 2.465346 1_555
Fe2 Fe36 2.465346 1_545
Fe2 Fe33 2.465346 1_545
Fe2 Fe32 2.465346 1_555
Fe2 Fe52 2.519207 1_555
Fe2 Fe49 2.519207 1_555
Fe2 Fe53 2.519207 1_545
Fe2 Fe48 2.519207 1_545
Fe2 Nd1 3.104038 1_555
Fe2 Nd0 3.104038 1_545
Fe2 Nd5 3.374833 1_555
Fe2 Nd4 3.374833 1_545
Fe3 Fe34 2.465346 1_554
Fe3 Fe35 2.465346 1_454
Fe3 Fe38 2.465346 1_455
Fe3 Fe39 2.465346 1_555
Fe3 Fe50 2.519207 1_554
Fe3 Fe54 2.519207 1_455
Fe3 Fe51 2.519207 1_454
Fe3 Fe55 2.519207 1_555
Fe3 Nd2 3.104038 1_555
Fe3 Nd3 3.104038 1_455
Fe3 Nd7 3.374833 1_555
Fe3 Nd6 3.374833 1_455
Fe4 Nd2 3.215490 1_555
Fe4 Nd3 3.215490 1_555
Fe5 Nd1 3.215490 1_455
Fe5 Nd0 3.215490 1_545
Fe6 Nd2 3.215490 1_556
Fe6 Nd3 3.215490 1_556
Fe7 Fe9 2.800832 1_455
Fe7 Fe8 2.800832 1_545
Fe7 Nd1 3.215490 1_455
Fe7 Nd0 3.215490 1_545
Fe8 Nd0 3.005550 1_555
Fe8 Nd7 3.085170 1_555
Fe9 Nd1 3.005550 1_555
Fe9 Nd6 3.085170 1_555
Fe10 Fe26 2.621816 1_555
Fe10 Fe34 2.621816 1_555
Fe10 Fe20 2.626874 1_555
Fe10 Fe21 2.626874 1_555
Fe10 Fe37 2.640601 1_555
Fe10 Fe29 2.640601 1_555
Fe10 Fe52 2.748067 1_555
Fe10 Fe44 2.748067 1_555
Fe10 Fe50 2.754417 1_555
Fe10 Fe42 2.754417 1_555
Fe10 Fe18 2.760189 1_555
Fe10 Fe6 2.800832 1_555
Fe10 Nd2 3.005550 1_556
Fe10 Nd5 3.085170 1_555
Fe11 Fe27 2.621816 1_555
Fe11 Fe35 2.621816 1_555
Fe11 Fe21 2.626874 1_555
Fe11 Fe20 2.626874 1_555
Fe11 Fe28 2.640601 1_555
Fe11 Fe36 2.640601 1_555
Fe11 Fe45 2.748067 1_555
Fe11 Fe53 2.748067 1_555
Fe11 Fe51 2.754417 1_555
Fe11 Fe43 2.754417 1_555
Fe11 Fe19 2.760189 1_555
Fe11 Fe6 2.800832 1_555
Fe11 Nd3 3.005550 1_556
Fe11 Nd4 3.085170 1_555
Fe12 Fe37 2.621816 1_555
Fe12 Fe28 2.621816 1_555
Fe12 Fe19 2.626874 1_545
Fe12 Fe18 2.626874 1_655
Fe12 Fe27 2.640601 1_545
Fe12 Fe34 2.640601 1_655
Fe12 Fe42 2.748067 1_555
Fe12 Fe51 2.748067 1_555
Fe12 Fe53 2.754417 1_545
Fe12 Fe44 2.754417 1_655
Fe12 Fe20 2.760189 1_555
Fe12 Fe5 2.800832 1_655
Fe12 Nd1 3.005550 1_555
Fe12 Nd6 3.085170 1_556
Fe13 Fe29 2.621816 1_555
Fe13 Fe36 2.621816 1_555
Fe13 Fe19 2.626874 1_455
Fe13 Fe18 2.626874 1_565
Fe13 Fe35 2.640601 1_455
Fe13 Fe26 2.640601 1_565
Fe13 Fe43 2.748067 1_555
Fe13 Fe50 2.748067 1_555
Fe13 Fe52 2.754417 1_565
Fe13 Fe45 2.754417 1_455
Fe13 Fe21 2.760189 1_555
Fe13 Fe5 2.800832 1_565
Fe13 Nd0 3.005550 1_555
Fe13 Nd7 3.085170 1_556
Fe14 Fe30 2.621816 1_555
Fe14 Fe38 2.621816 1_555
Fe14 Fe17 2.626874 1_555
Fe14 Fe16 2.626874 1_555
Fe14 Fe33 2.640601 1_555
Fe14 Fe25 2.640601 1_555
Fe14 Fe40 2.748067 1_555
Fe14 Fe48 2.748067 1_555
Fe14 Fe54 2.754417 1_555
Fe14 Fe46 2.754417 1_555
Fe14 Fe22 2.760189 1_555
Fe14 Fe4 2.800832 1_555
Fe14 Nd3 3.005550 1_555
Fe14 Nd4 3.085170 1_555
Fe15 Fe31 2.621816 1_555
Fe15 Fe39 2.621816 1_555
Fe15 Fe17 2.626874 1_555
Fe15 Fe16 2.626874 1_555
Fe15 Fe24 2.640601 1_555
Fe15 Fe32 2.640601 1_555
Fe15 Fe49 2.748067 1_555
Fe15 Fe41 2.748067 1_555
Fe15 Fe55 2.754417 1_555
Fe15 Fe47 2.754417 1_555
Fe15 Fe23 2.760189 1_555
Fe15 Fe4 2.800832 1_555
Fe15 Nd2 3.005550 1_555
Fe15 Nd5 3.085170 1_555
Fe16 Fe24 2.386405 1_555
Fe16 Fe33 2.386405 1_555
Fe16 Fe17 2.429083 1_555
Fe16 Fe4 2.522730 1_555
Fe16 Fe55 2.571984 1_555
Fe16 Fe46 2.571984 1_555
Fe16 Fe8 2.760189 1_555
Fe16 Nd0 3.212438 1_555
Fe16 Nd5 3.284083 1_555
Fe16 Nd4 3.284083 1_555
Fe17 Fe32 2.386405 1_555
Fe17 Fe25 2.386405 1_555
Fe17 Fe4 2.522730 1_555
Fe17 Fe54 2.571984 1_555
Fe17 Fe47 2.571984 1_555
Fe17 Fe9 2.760189 1_555
Fe17 Nd1 3.212438 1_555
Fe17 Nd5 3.284083 1_555
Fe17 Nd4 3.284083 1_555
Fe18 Fe26 2.386405 1_555
Fe18 Fe34 2.386405 1_555
Fe18 Fe19 2.429083 1_445
Fe18 Fe5 2.522730 1_555
Fe18 Fe44 2.571984 1_555
Fe18 Fe52 2.571984 1_555
Fe18 Nd2 3.212438 1_556
Fe18 Nd7 3.284083 1_546
Fe18 Nd6 3.284083 1_456
Fe19 Fe35 2.386405 1_555
Fe19 Fe27 2.386405 1_555
Fe19 Fe5 2.522730 1_665
Fe19 Fe53 2.571984 1_555
Fe19 Fe45 2.571984 1_555
Fe19 Nd3 3.212438 1_556
Fe19 Nd6 3.284083 1_566
Fe19 Nd7 3.284083 1_656
Fe20 Fe37 2.386405 1_555
Fe20 Fe28 2.386405 1_555
Fe20 Fe21 2.429083 1_555
Fe20 Fe6 2.522730 1_555
Fe20 Fe51 2.571984 1_555
Fe20 Fe42 2.571984 1_555
Fe20 Nd1 3.212438 1_555
Fe20 Nd5 3.284083 1_555
Fe20 Nd4 3.284083 1_555
Fe21 Fe29 2.386405 1_555
Fe21 Fe36 2.386405 1_555
Fe21 Fe6 2.522730 1_555
Fe21 Fe50 2.571984 1_555
Fe21 Fe43 2.571984 1_555
Fe21 Nd0 3.212438 1_555
Fe21 Nd5 3.284083 1_555
Fe21 Nd4 3.284083 1_555
Fe22 Fe38 2.386405 1_555
Fe22 Fe30 2.386405 1_555
Fe22 Fe23 2.429083 1_665
Fe22 Fe7 2.522730 1_665
Fe22 Fe48 2.571984 1_555
Fe22 Fe40 2.571984 1_555
Fe22 Fe9 2.626874 1_565
Fe22 Fe8 2.626874 1_655
Fe22 Nd3 3.212438 1_555
Fe22 Nd7 3.284083 1_655
Fe22 Nd6 3.284083 1_565
Fe23 Fe39 2.386405 1_555
Fe23 Fe31 2.386405 1_555
Fe23 Fe7 2.522730 1_555
Fe23 Fe41 2.571984 1_555
Fe23 Fe49 2.571984 1_555
Fe23 Fe9 2.626874 1_455
Fe23 Fe8 2.626874 1_545
Fe23 Nd2 3.212438 1_555
Fe23 Nd7 3.284083 1_545
Fe23 Nd6 3.284083 1_455
Fe24 Fe41 2.478288 1_555
Fe24 Fe38 2.508499 1_455
Fe24 Fe39 2.508499 1_555
Fe24 Fe55 2.536200 1_555
Fe24 Fe40 2.543740 1_455
Fe24 Fe25 2.545308 1_455
Fe24 Fe8 2.621816 1_555
Fe24 Nd0 3.016078 1_555
Fe24 Nd5 3.247660 1_555
Fe25 Fe40 2.478288 1_555
Fe25 Fe39 2.508499 1_655
Fe25 Fe38 2.508499 1_555
Fe25 Fe54 2.536200 1_555
Fe25 Fe41 2.543740 1_655
Fe25 Fe9 2.621816 1_555
Fe25 Nd1 3.016078 1_555
Fe25 Nd4 3.247660 1_555
Fe26 Fe43 2.478288 1_545
Fe26 Fe37 2.508499 1_555
Fe26 Fe36 2.508499 1_545
Fe26 Fe52 2.536200 1_555
Fe26 Fe42 2.543740 1_555
Fe26 Fe27 2.545308 1_545
Fe26 Nd2 3.016078 1_556
Fe26 Nd7 3.247660 1_546
Fe27 Fe42 2.478288 1_565
Fe27 Fe37 2.508499 1_565
Fe27 Fe36 2.508499 1_555
Fe27 Fe53 2.536200 1_555
Fe27 Fe43 2.543740 1_555
Fe27 Nd3 3.016078 1_556
Fe27 Nd6 3.247660 1_566
Fe28 Fe45 2.478288 1_555
Fe28 Fe34 2.508499 1_655
Fe28 Fe35 2.508499 1_555
Fe28 Fe51 2.536200 1_555
Fe28 Fe44 2.543740 1_655
Fe28 Fe29 2.545308 1_655
Fe28 Nd1 3.016078 1_555
Fe28 Nd4 3.247660 1_555
Fe29 Fe44 2.478288 1_555
Fe29 Fe34 2.508499 1_555
Fe29 Fe35 2.508499 1_455
Fe29 Fe50 2.536200 1_555
Fe29 Fe45 2.543740 1_455
Fe29 Nd0 3.016078 1_555
Fe29 Nd5 3.247660 1_555
Fe30 Fe47 2.478288 1_565
Fe30 Fe32 2.508499 1_565
Fe30 Fe33 2.508499 1_555
Fe30 Fe48 2.536200 1_555
Fe30 Fe46 2.543740 1_555
Fe30 Fe31 2.545308 1_565
Fe30 Fe9 2.640601 1_565
Fe30 Nd3 3.016078 1_555
Fe30 Nd6 3.247660 1_565
Fe31 Fe46 2.478288 1_545
Fe31 Fe33 2.508499 1_545
Fe31 Fe32 2.508499 1_555
Fe31 Fe49 2.536200 1_555
Fe31 Fe47 2.543740 1_555
Fe31 Fe8 2.640601 1_545
Fe31 Nd2 3.016078 1_555
Fe31 Nd7 3.247660 1_545
Fe32 Fe49 2.478288 1_555
Fe32 Fe47 2.536200 1_555
Fe32 Fe48 2.543740 1_545
Fe32 Fe33 2.545308 1_545
Fe32 Fe9 2.621816 1_555
Fe32 Nd1 3.016078 1_555
Fe32 Nd5 3.247660 1_555
Fe33 Fe48 2.478288 1_555
Fe33 Fe46 2.536200 1_555
Fe33 Fe49 2.543740 1_565
Fe33 Fe8 2.621816 1_555
Fe33 Nd0 3.016078 1_555
Fe33 Nd4 3.247660 1_555
Fe34 Fe51 2.478288 1_455
Fe34 Fe44 2.536200 1_555
Fe34 Fe50 2.543740 1_555
Fe34 Fe35 2.545308 1_455
Fe34 Nd2 3.016078 1_556
Fe34 Nd6 3.247660 1_456
Fe35 Fe50 2.478288 1_655
Fe35 Fe45 2.536200 1_555
Fe35 Fe51 2.543740 1_555
Fe35 Nd3 3.016078 1_556
Fe35 Nd7 3.247660 1_656
Fe36 Fe53 2.478288 1_555
Fe36 Fe43 2.536200 1_555
Fe36 Fe52 2.543740 1_565
Fe36 Fe37 2.545308 1_565
Fe36 Nd0 3.016078 1_555
Fe36 Nd4 3.247660 1_555
Fe37 Fe52 2.478288 1_555
Fe37 Fe42 2.536200 1_555
Fe37 Fe53 2.543740 1_545
Fe37 Nd1 3.016078 1_555
Fe37 Nd5 3.247660 1_555
Fe38 Fe55 2.478288 1_655
Fe38 Fe40 2.536200 1_555
Fe38 Fe54 2.543740 1_555
Fe38 Fe39 2.545308 1_655
Fe38 Fe8 2.640601 1_655
Fe38 Nd3 3.016078 1_555
Fe38 Nd7 3.247660 1_655
Fe39 Fe54 2.478288 1_455
Fe39 Fe41 2.536200 1_555
Fe39 Fe55 2.543740 1_555
Fe39 Fe9 2.640601 1_455
Fe39 Nd2 3.016078 1_555
Fe39 Nd6 3.247660 1_455
Fe40 Fe8 2.754417 1_655
Fe40 Nd4 3.024475 1_555
Fe40 Nd0 3.054129 1_655
Fe41 Fe9 2.754417 1_455
Fe41 Nd5 3.024475 1_555
Fe41 Nd1 3.054129 1_455
Fe42 Nd6 3.024475 1_556
Fe42 Nd2 3.054129 1_556
Fe43 Nd7 3.024475 1_556
Fe43 Nd3 3.054129 1_556
Fe44 Nd5 3.024475 1_555
Fe44 Nd1 3.054129 1_455
Fe45 Nd4 3.024475 1_555
Fe45 Nd0 3.054129 1_655
Fe46 Fe8 2.748067 1_555
Fe46 Nd7 3.024475 1_555
Fe46 Nd3 3.054129 1_555
Fe47 Fe9 2.748067 1_555
Fe47 Nd6 3.024475 1_555
Fe47 Nd2 3.054129 1_555
Fe48 Fe9 2.754417 1_565
Fe48 Nd4 3.024475 1_555
Fe48 Nd1 3.054129 1_565
Fe49 Fe8 2.754417 1_545
Fe49 Nd5 3.024475 1_555
Fe49 Nd0 3.054129 1_545
Fe50 Nd7 3.024475 1_556
Fe50 Nd2 3.054129 1_556
Fe51 Nd6 3.024475 1_556
Fe51 Nd3 3.054129 1_556
Fe52 Nd5 3.024475 1_555
Fe52 Nd0 3.054129 1_545
Fe53 Nd4 3.024475 1_555
Fe53 Nd1 3.054129 1_565
Fe54 Fe9 2.748067 1_555
Fe54 Nd6 3.024475 1_555
Fe54 Nd3 3.054129 1_555
Fe55 Fe8 2.748067 1_555
Fe55 Nd7 3.024475 1_555
Fe55 Nd2 3.054129 1_555
C0 Fe5 2.011798 1_665
C0 Fe7 2.011798 1_665
C0 Fe48 2.018547 1_555
C0 Fe45 2.018547 1_555
C0 Fe40 2.018547 1_555
C0 Fe53 2.018547 1_555
C0 Nd4 2.874804 1_555
C1 Fe7 2.011798 1_555
C1 Fe5 2.011798 1_555
C1 Fe44 2.018547 1_555
C1 Fe41 2.018547 1_555
C1 Fe52 2.018547 1_555
C1 Fe49 2.018547 1_555
C1 Nd5 2.874804 1_555
C2 Fe4 2.011798 1_555
C2 Fe6 2.011798 1_554
C2 Fe54 2.018547 1_555
C2 Fe42 2.018547 1_554
C2 Fe47 2.018547 1_555
C2 Fe51 2.018547 1_554
C2 Nd6 2.874804 1_555
C3 Fe4 2.011798 1_555
C3 Fe6 2.011798 1_554
C3 Fe55 2.018547 1_555
C3 Fe46 2.018547 1_555
C3 Fe43 2.018547 1_554
C3 Fe50 2.018547 1_554
C3 Nd7 2.874804 1_555
