# generated using pymatgen
data_LaMoClO4
_symmetry_space_group_name_H-M   'P 1'
_cell_length_a   5.90318500
_cell_length_b   8.07667200
_cell_length_c   19.42328002
_cell_angle_alpha   89.99738938
_cell_angle_beta   90.00000000
_cell_angle_gamma   90.00000000
_symmetry_Int_Tables_number   1
_chemical_formula_structural   LaMoClO4
_chemical_formula_sum   'La8 Mo8 Cl8 O32'
_cell_volume   926.06487252
_cell_formula_units_Z   8
loop_
 _symmetry_equiv_pos_site_id
 _symmetry_equiv_pos_as_xyz
  1  'x, y, z'
loop_
 _atom_site_type_symbol
 _atom_site_label
 _atom_site_symmetry_multiplicity
 _atom_site_fract_x
 _atom_site_fract_y
 _atom_site_fract_z
 _atom_site_occupancy
  La  La0  1  0.69944900  0.37314800  0.10443200  1
  La  La1  1  0.19944900  0.12685200  0.89556800  1
  La  La2  1  0.30055100  0.62685200  0.89556800  1
  La  La3  1  0.80055100  0.87314800  0.10443200  1
  La  La4  1  0.70094100  0.37767500  0.60462800  1
  La  La5  1  0.20094100  0.12232500  0.39537200  1
  La  La6  1  0.29905900  0.62232500  0.39537200  1
  La  La7  1  0.79905900  0.87767500  0.60462800  1
  Mo  Mo0  1  0.74803600  0.40997300  0.82144000  1
  Mo  Mo1  1  0.24803600  0.09002700  0.17856000  1
  Mo  Mo2  1  0.25196400  0.59002700  0.17856000  1
  Mo  Mo3  1  0.75196400  0.90997300  0.82144000  1
  Mo  Mo4  1  0.75626800  0.34096000  0.32115100  1
  Mo  Mo5  1  0.25626800  0.15904000  0.67884900  1
  Mo  Mo6  1  0.24373200  0.65904000  0.67884900  1
  Mo  Mo7  1  0.74373200  0.84096000  0.32115100  1
  Cl  Cl0  1  0.76024000  0.12442000  0.98858700  1
  Cl  Cl1  1  0.26024000  0.37558000  0.01141300  1
  Cl  Cl2  1  0.23976000  0.87558000  0.01141300  1
  Cl  Cl3  1  0.73976000  0.62442000  0.98858700  1
  Cl  Cl4  1  0.75949800  0.12699100  0.48853700  1
  Cl  Cl5  1  0.25949800  0.37300900  0.51146300  1
  Cl  Cl6  1  0.24050200  0.87300900  0.51146300  1
  Cl  Cl7  1  0.74050200  0.62699100  0.48853700  1
  O  O0  1  0.76668200  0.37401400  0.73132400  1
  O  O1  1  0.26668200  0.12598600  0.26867600  1
  O  O2  1  0.23331800  0.62598600  0.26867600  1
  O  O3  1  0.73331800  0.87401400  0.73132400  1
  O  O4  1  0.81417300  0.12869600  0.82771800  1
  O  O5  1  0.31417300  0.37130400  0.17228200  1
  O  O6  1  0.18582700  0.87130400  0.17228200  1
  O  O7  1  0.68582700  0.62869600  0.82771800  1
  O  O8  1  0.98618400  0.15265100  0.13497600  1
  O  O9  1  0.48618400  0.34734900  0.86502400  1
  O  O10  1  0.01381600  0.84734900  0.86502400  1
  O  O11  1  0.51381600  0.65265100  0.13497600  1
  O  O12  1  0.52030000  0.10018000  0.13260300  1
  O  O13  1  0.02030000  0.39982000  0.86739700  1
  O  O14  1  0.47970000  0.89982000  0.86739700  1
  O  O15  1  0.97970000  0.60018000  0.13260300  1
  O  O16  1  0.76014500  0.37951400  0.23127000  1
  O  O17  1  0.26014500  0.12048600  0.76873000  1
  O  O18  1  0.23985500  0.62048600  0.76873000  1
  O  O19  1  0.73985500  0.87951400  0.23127000  1
  O  O20  1  0.81613800  0.12184300  0.32709800  1
  O  O21  1  0.31613800  0.37815700  0.67290200  1
  O  O22  1  0.18386200  0.87815700  0.67290200  1
  O  O23  1  0.68386200  0.62184300  0.32709800  1
  O  O24  1  0.97926300  0.15022200  0.63550400  1
  O  O25  1  0.47926300  0.34977800  0.36449600  1
  O  O26  1  0.02073700  0.84977800  0.36449600  1
  O  O27  1  0.52073700  0.65022200  0.63550400  1
  O  O28  1  0.51314200  0.09701800  0.63237900  1
  O  O29  1  0.01314200  0.40298200  0.36762100  1
  O  O30  1  0.48685800  0.90298200  0.36762100  1
  O  O31  1  0.98685800  0.59701800  0.63237900  1
loop_
_geom_bond_atom_site_label_1
_geom_bond_atom_site_label_2
_geom_bond_distance
_geom_bond_site_symmetry_2
La0 O16 2.490062 1_555
La0 O12 2.505650 1_555
La0 O8 2.527542 1_555
La0 O15 2.529577 1_555
La0 O11 2.578569 1_555
La0 O5 2.628630 1_555
La1 O17 2.490062 1_555
La1 O13 2.505650 1_555
La1 O9 2.527542 1_555
La1 O14 2.529577 1_545
La1 O10 2.578569 1_545
La1 O4 2.628630 1_455
La2 O18 2.490062 1_555
La2 O14 2.505650 1_555
La2 O10 2.527542 1_555
La2 O13 2.529577 1_555
La2 O9 2.578569 1_555
La2 O7 2.628630 1_555
La3 O19 2.490062 1_555
La3 O15 2.505650 1_555
La3 O11 2.527542 1_555
La3 O12 2.529577 1_565
La3 O8 2.578569 1_565
La3 O6 2.628630 1_655
La4 O0 2.491439 1_555
La4 O31 2.505553 1_555
La4 O27 2.517340 1_555
La4 O24 2.536486 1_555
La4 O28 2.580255 1_555
La4 O21 2.630317 1_555
La5 O1 2.491439 1_555
La5 O30 2.505553 1_545
La5 O26 2.517340 1_545
La5 O25 2.536486 1_555
La5 O29 2.580255 1_555
La5 O20 2.630317 1_455
La6 O2 2.491439 1_555
La6 O29 2.505553 1_555
La6 O25 2.517340 1_555
La6 O26 2.536486 1_555
La6 O30 2.580255 1_555
La6 O23 2.630317 1_555
La7 O3 2.491439 1_555
La7 O28 2.505553 1_565
La7 O24 2.517340 1_565
La7 O27 2.536486 1_555
La7 O31 2.580255 1_555
La7 O22 2.630317 1_655
Mo0 O0 1.777704 1_555
Mo0 O7 1.808441 1_555
Mo0 O9 1.833522 1_555
Mo0 O13 1.840296 1_655
Mo0 O4 2.308303 1_555
Mo1 O1 1.777704 1_555
Mo1 O6 1.808441 1_545
Mo1 O8 1.833522 1_455
Mo1 O12 1.840296 1_555
Mo1 O5 2.308303 1_555
Mo2 O2 1.777704 1_555
Mo2 O5 1.808441 1_555
Mo2 O11 1.833522 1_555
Mo2 O15 1.840296 1_455
Mo2 O6 2.308303 1_555
Mo3 O3 1.777704 1_555
Mo3 O4 1.808441 1_565
Mo3 O10 1.833522 1_655
Mo3 O14 1.840296 1_555
Mo3 O7 2.308303 1_555
Mo4 O16 1.773471 1_555
Mo4 O20 1.808369 1_555
Mo4 O29 1.834408 1_655
Mo4 O25 1.840596 1_555
Mo4 O23 2.311408 1_555
Mo5 O17 1.773471 1_555
Mo5 O21 1.808369 1_555
Mo5 O28 1.834408 1_555
Mo5 O24 1.840596 1_455
Mo5 O22 2.311408 1_545
Mo6 O18 1.773471 1_555
Mo6 O22 1.808369 1_555
Mo6 O31 1.834408 1_455
Mo6 O27 1.840596 1_555
Mo6 O21 2.311408 1_555
Mo7 O19 1.773471 1_555
Mo7 O23 1.808369 1_555
Mo7 O30 1.834408 1_555
Mo7 O26 1.840596 1_655
Mo7 O20 2.311408 1_565
Cl0 La0 3.037722 1_556
Cl0 La3 3.039366 1_546
Cl0 La1 3.160210 1_655
Cl1 La1 3.037722 1_554
Cl1 La2 3.039366 1_554
Cl1 La0 3.160210 1_555
Cl2 La2 3.037722 1_554
Cl2 La1 3.039366 1_564
Cl2 La3 3.160210 1_455
Cl3 La3 3.037722 1_556
Cl3 La0 3.039366 1_556
Cl3 La2 3.160210 1_555
Cl4 La7 3.032048 1_545
Cl4 La4 3.050199 1_555
Cl4 La5 3.172820 1_655
Cl5 La6 3.032048 1_555
Cl5 La5 3.050199 1_555
Cl5 La4 3.172820 1_555
Cl6 La5 3.032048 1_565
Cl6 La6 3.050199 1_555
Cl6 La7 3.172820 1_455
Cl7 La4 3.032048 1_555
Cl7 La7 3.050199 1_555
Cl7 La6 3.172820 1_555
