# generated using pymatgen
data_ZnPNO4
_symmetry_space_group_name_H-M   'P 1'
_cell_length_a   5.53115900
_cell_length_b   8.93275100
_cell_length_c   9.11300217
_cell_angle_alpha   89.59189704
_cell_angle_beta   90.00000000
_cell_angle_gamma   90.00000000
_symmetry_Int_Tables_number   1
_chemical_formula_structural   ZnPNO4
_chemical_formula_sum   'Zn4 P4 N4 O16'
_cell_volume   450.24803692
_cell_formula_units_Z   4
loop_
 _symmetry_equiv_pos_site_id
 _symmetry_equiv_pos_as_xyz
  1  'x, y, z'
loop_
 _atom_site_type_symbol
 _atom_site_label
 _atom_site_symmetry_multiplicity
 _atom_site_fract_x
 _atom_site_fract_y
 _atom_site_fract_z
 _atom_site_occupancy
  Zn  Zn0  1  0.82147600  0.32383200  0.90395800  1
  Zn  Zn1  1  0.32147600  0.67616800  0.09604200  1
  Zn  Zn2  1  0.86432600  0.82027400  0.58029500  1
  Zn  Zn3  1  0.36432600  0.17972600  0.41970500  1
  P  P0  1  0.85569100  0.19336700  0.57157100  1
  P  P1  1  0.35569100  0.80663300  0.42842900  1
  P  P2  1  0.82859300  0.69443200  0.90804200  1
  P  P3  1  0.32859300  0.30556800  0.09195800  1
  N  N0  1  0.85471200  0.00143000  0.19102300  1
  N  N1  1  0.35471200  0.99857000  0.80897700  1
  N  N2  1  0.31980700  0.49995000  0.69279000  1
  N  N3  1  0.81980700  0.50005000  0.30721000  1
  O  O0  1  0.05841700  0.27962200  0.05835300  1
  O  O1  1  0.55841700  0.72037800  0.94164700  1
  O  O2  1  0.90607800  0.19726500  0.73768600  1
  O  O3  1  0.40607800  0.80273500  0.26231400  1
  O  O4  1  0.86086500  0.53397000  0.84462600  1
  O  O5  1  0.36086500  0.46603000  0.15537400  1
  O  O6  1  0.98430000  0.71294500  0.04769700  1
  O  O7  1  0.48430000  0.28705500  0.95230300  1
  O  O8  1  0.90802300  0.80858100  0.79005200  1
  O  O9  1  0.40802300  0.19141900  0.20994800  1
  O  O10  1  0.84368700  0.03062400  0.51415700  1
  O  O11  1  0.34368700  0.96937600  0.48584300  1
  O  O12  1  0.06697000  0.27477600  0.49243700  1
  O  O13  1  0.56697000  0.72522400  0.50756300  1
  O  O14  1  0.11805500  0.72463100  0.46610500  1
  O  O15  1  0.61805500  0.27536900  0.53389500  1
loop_
_geom_bond_atom_site_label_1
_geom_bond_atom_site_label_2
_geom_bond_distance
_geom_bond_site_symmetry_2
O0 P3 1.543277 1_555
O0 Zn0 1.960934 1_454
O1 P2 1.543277 1_555
O1 Zn1 1.960934 1_556
O2 P0 1.539885 1_555
O2 Zn0 1.953857 1_555
O3 P1 1.539885 1_555
O3 Zn1 1.953857 1_555
O4 P2 1.559546 1_555
O4 Zn0 1.961861 1_555
O5 P3 1.559546 1_555
O5 Zn1 1.961861 1_555
O6 P2 1.546540 1_554
O6 Zn1 1.943731 1_655
O7 P3 1.546540 1_556
O7 Zn0 1.943731 1_555
O8 P2 1.540540 1_555
O8 Zn2 1.928828 1_555
O9 P3 1.540540 1_555
O9 Zn3 1.928828 1_555
O10 P0 1.549956 1_555
O10 Zn2 1.972517 1_545
O11 P1 1.549956 1_555
O11 Zn3 1.972517 1_565
O12 P0 1.551477 1_455
O12 Zn3 1.968081 1_555
O13 P1 1.551477 1_555
O13 Zn2 1.968081 1_555
O14 P1 1.542244 1_555
O14 Zn2 1.948086 1_455
O15 P0 1.542244 1_555
O15 Zn3 1.948086 1_555
