# generated using pymatgen
data_SrCa(RuO3)2
_symmetry_space_group_name_H-M   'P 1'
_cell_length_a   5.53011300
_cell_length_b   5.60654000
_cell_length_c   7.85578800
_cell_angle_alpha   90.00000000
_cell_angle_beta   90.00000000
_cell_angle_gamma   90.00000000
_symmetry_Int_Tables_number   1
_chemical_formula_structural   SrCa(RuO3)2
_chemical_formula_sum   'Sr2 Ca2 Ru4 O12'
_cell_volume   243.56713373
_cell_formula_units_Z   2
loop_
 _symmetry_equiv_pos_site_id
 _symmetry_equiv_pos_as_xyz
  1  'x, y, z'
loop_
 _atom_site_type_symbol
 _atom_site_label
 _atom_site_symmetry_multiplicity
 _atom_site_fract_x
 _atom_site_fract_y
 _atom_site_fract_z
 _atom_site_occupancy
  Sr  Sr0  1  0.25864800  0.53865300  0.00000000  1
  Sr  Sr1  1  0.74135200  0.03865300  0.00000000  1
  Ca  Ca0  1  0.24207600  0.44971600  0.50000000  1
  Ca  Ca1  1  0.75792400  0.94971600  0.50000000  1
  Ru  Ru0  1  0.74888500  0.49904300  0.74549200  1
  Ru  Ru1  1  0.25111500  0.99904300  0.25450800  1
  Ru  Ru2  1  0.74888500  0.49904300  0.25450800  1
  Ru  Ru3  1  0.25111500  0.99904300  0.74549200  1
  O  O0  1  0.54543900  0.79326000  0.78091400  1
  O  O1  1  0.45456100  0.29326000  0.21908600  1
  O  O2  1  0.95402800  0.20526300  0.29879200  1
  O  O3  1  0.04597200  0.70526300  0.70120800  1
  O  O4  1  0.95402800  0.20526300  0.70120800  1
  O  O5  1  0.04597200  0.70526300  0.29879200  1
  O  O6  1  0.54543900  0.79326000  0.21908600  1
  O  O7  1  0.45456100  0.29326000  0.78091400  1
  O  O8  1  0.18329300  0.99185900  0.00000000  1
  O  O9  1  0.81670700  0.49185900  0.00000000  1
  O  O10  1  0.33856800  0.02464000  0.50000000  1
  O  O11  1  0.66143200  0.52464000  0.50000000  1
loop_
_geom_bond_atom_site_label_1
_geom_bond_atom_site_label_2
_geom_bond_distance
_geom_bond_site_symmetry_2
Ca0 O11 2.356823 1_555
Ca0 O3 2.393171 1_555
Ca0 O5 2.393171 1_555
Ca0 O10 2.442214 1_555
Ca0 O4 2.629499 1_455
Ca0 O2 2.629499 1_455
Ca0 O7 2.649564 1_555
Ca0 O1 2.649564 1_555
Ca1 O10 2.356823 1_565
Ca1 O4 2.393171 1_565
Ca1 O2 2.393171 1_565
Ca1 O11 2.442214 1_555
Ca1 O3 2.629499 1_655
Ca1 O5 2.629499 1_655
Ca1 O0 2.649564 1_555
Ca1 O6 2.649564 1_555
O0 Ru3 2.014387 1_555
O0 Ru0 2.015990 1_555
O0 Sr1 2.455362 1_566
O0 Sr0 2.741381 1_556
O1 Ru2 2.014387 1_555
O1 Ru1 2.015990 1_545
O1 Sr0 2.455362 1_555
O1 Sr1 2.741381 1_555
O2 Ru2 2.030009 1_555
O2 Ru1 2.038867 1_645
O2 Sr1 2.786644 1_555
O3 Ru3 2.030009 1_555
O3 Ru0 2.038867 1_455
O3 Sr0 2.786644 1_556
O4 Ru0 2.030009 1_555
O4 Ru3 2.038867 1_645
O4 Sr1 2.786644 1_556
O5 Ru1 2.030009 1_555
O5 Ru2 2.038867 1_455
O5 Sr0 2.786644 1_555
O6 Ru1 2.014387 1_555
O6 Ru2 2.015990 1_555
O6 Sr1 2.455362 1_565
O6 Sr0 2.741381 1_555
O7 Ru0 2.014387 1_555
O7 Ru3 2.015990 1_545
O7 Sr0 2.455362 1_556
O7 Sr1 2.741381 1_556
O8 Ru1 2.034635 1_555
O8 Ru3 2.034635 1_554
O8 Sr1 2.458025 1_465
O8 Sr0 2.574863 1_555
O8 Sr0 3.093816 1_565
O8 Sr1 3.097261 1_565
O9 Ru2 2.034635 1_555
O9 Ru0 2.034635 1_554
O9 Sr0 2.458025 1_655
O9 Sr1 2.574863 1_555
O9 Sr1 3.093816 1_565
O9 Sr0 3.097261 1_555
O10 Ru3 1.993421 1_545
O10 Ru1 1.993421 1_545
O11 Ru0 1.993421 1_555
O11 Ru2 1.993421 1_555
