# generated using pymatgen
data_NaPuF4
_symmetry_space_group_name_H-M   'P 1'
_cell_length_a   6.06201829
_cell_length_b   7.12233339
_cell_length_c   7.12136307
_cell_angle_alpha   94.94588241
_cell_angle_beta   115.23995219
_cell_angle_gamma   115.06771691
_symmetry_Int_Tables_number   1
_chemical_formula_structural   NaPuF4
_chemical_formula_sum   'Na3 Pu3 F12'
_cell_volume   238.18045997
_cell_formula_units_Z   3
loop_
 _symmetry_equiv_pos_site_id
 _symmetry_equiv_pos_as_xyz
  1  'x, y, z'
loop_
 _atom_site_type_symbol
 _atom_site_label
 _atom_site_symmetry_multiplicity
 _atom_site_fract_x
 _atom_site_fract_y
 _atom_site_fract_z
 _atom_site_occupancy
  Na  Na0  1  0.83060684  0.16120139  0.51496245  1
  Na  Na1  1  0.33783135  0.67574375  0.98759690  1
  Na  Na2  1  0.22705712  0.89788747  0.55968477  1
  Pu  Pu0  1  0.99241002  0.98968064  0.99275382  1
  Pu  Pu1  1  0.49221246  0.49878284  0.49265758  1
  Pu  Pu2  1  0.73208776  0.39817423  0.07056772  1
  F  F0  1  0.24739929  0.65743626  0.28393269  1
  F  F1  1  0.78462000  0.18749324  0.82106302  1
  F  F2  1  0.86377348  0.49602017  0.45042034  1
  F  F3  1  0.39224623  0.01978903  0.97950043  1
  F  F4  1  0.33775822  0.30769912  0.71288940  1
  F  F5  1  0.80445929  0.76137250  0.17378343  1
  F  F6  1  0.38443061  0.12051800  0.36658526  1
  F  F7  1  0.89387044  0.61288523  0.86313140  1
  F  F8  1  0.97732012  0.21997086  0.26359134  1
  F  F9  1  0.49123080  0.74149983  0.74844092  1
  F  F10  1  0.86211461  0.87533543  0.61468568  1
  F  F11  1  0.34857333  0.37850701  0.10375386  1
loop_
_geom_bond_atom_site_label_1
_geom_bond_atom_site_label_2
_geom_bond_distance
_geom_bond_site_symmetry_2
F0 Pu1 2.349061 1_555
F0 Na1 2.396756 1_554
F0 Pu2 2.461125 1_455
F0 Na2 2.570980 1_555
F1 Na0 2.314441 1_555
F1 Pu0 2.356684 1_545
F1 Pu2 2.436768 1_556
F1 Na2 2.684827 1_545
F2 Pu1 2.403856 1_555
F2 Na0 2.408310 1_555
F2 Pu2 2.408788 1_555
F2 Na2 2.541846 1_655
F3 Na1 2.339287 1_545
F3 Pu0 2.384935 1_445
F3 Pu2 2.404627 1_556
F3 Na2 2.637646 1_545
F4 Pu1 2.393572 1_555
F4 Pu2 2.415876 1_556
F4 Na0 2.420688 1_455
F4 Na2 2.706819 1_545
F5 Na1 2.309042 1_554
F5 Pu0 2.376650 1_554
F5 Pu2 2.420711 1_555
F5 Na2 2.546572 1_655
F6 Na0 2.315557 1_555
F6 Na2 2.351239 1_545
F6 Pu0 2.429689 1_444
F6 Pu1 2.466236 1_555
F7 Na1 2.259505 1_655
F7 Pu2 2.415948 1_556
F7 Pu1 2.454519 1_555
F7 Pu0 2.480956 1_555
F8 Na0 2.311316 1_555
F8 Pu2 2.422271 1_555
F8 Pu0 2.480073 1_544
F8 Pu1 2.488728 1_655
F9 Na1 2.259164 1_555
F9 Na2 2.354983 1_555
F9 Pu1 2.404461 1_555
F9 Pu0 2.406872 1_555
F10 Na0 2.269233 1_565
F10 Na2 2.349925 1_655
F10 Pu0 2.408149 1_555
F10 Pu1 2.411721 1_555
F11 Na1 2.354379 1_554
F11 Pu2 2.383028 1_555
F11 Pu0 2.460917 1_444
F11 Pu1 2.462625 1_555
