# generated using pymatgen
data_Sr2La4Mg2RuO12
_symmetry_space_group_name_H-M   'P 1'
_cell_length_a   3.94049126
_cell_length_b   3.94049080
_cell_length_c   41.44904041
_cell_angle_alpha   106.59147177
_cell_angle_beta   106.59147078
_cell_angle_gamma   89.72326667
_symmetry_Int_Tables_number   1
_chemical_formula_structural   Sr2La4Mg2RuO12
_chemical_formula_sum   'Sr4 La8 Mg4 Ru2 O24'
_cell_volume   589.05689454
_cell_formula_units_Z   2
loop_
 _symmetry_equiv_pos_site_id
 _symmetry_equiv_pos_as_xyz
  1  'x, y, z'
loop_
 _atom_site_type_symbol
 _atom_site_label
 _atom_site_symmetry_multiplicity
 _atom_site_fract_x
 _atom_site_fract_y
 _atom_site_fract_z
 _atom_site_occupancy
  Sr  Sr0  1  0.35661800  0.35661800  0.95096400  1
  Sr  Sr1  1  0.35264200  0.35264200  0.11799200  1
  Sr  Sr2  1  0.64338200  0.64338200  0.21570200  1
  Sr  Sr3  1  0.64735800  0.64735800  0.04867500  1
  La  La0  1  0.34330100  0.34330100  0.78654100  1
  La  La1  1  0.66300900  0.66300900  0.87782200  1
  La  La2  1  0.34760400  0.34760400  0.62080000  1
  La  La3  1  0.64937200  0.64937200  0.71165900  1
  La  La4  1  0.35062800  0.35062800  0.45500700  1
  La  La5  1  0.65239600  0.65239600  0.54586700  1
  La  La6  1  0.33699100  0.33699100  0.28884500  1
  La  La7  1  0.65669900  0.65669900  0.38012600  1
  Mg  Mg0  1  0.99689300  0.99689300  0.83218800  1
  Mg  Mg1  1  0.99926700  0.99926700  0.66636200  1
  Mg  Mg2  1  0.00310700  0.00310700  0.33447800  1
  Mg  Mg3  1  0.00073300  0.00073300  0.50030500  1
  Ru  Ru0  1  0.00126900  0.00126900  0.16740400  1
  Ru  Ru1  1  0.99873100  0.99873100  0.99926300  1
  O  O0  1  0.99404900  0.49499600  0.83189100  1
  O  O1  1  0.13284500  0.13284500  0.88923900  1
  O  O2  1  0.99894300  0.49899200  0.66624800  1
  O  O3  1  0.15725500  0.15725500  0.72540600  1
  O  O4  1  0.49499600  0.99404900  0.83189100  1
  O  O5  1  0.00105700  0.50100800  0.50041900  1
  O  O6  1  0.15858600  0.15858600  0.55964800  1
  O  O7  1  0.83466500  0.83466500  0.94351800  1
  O  O8  1  0.49899200  0.99894300  0.66624800  1
  O  O9  1  0.00595100  0.50500400  0.33477500  1
  O  O10  1  0.16144600  0.16144600  0.39392600  1
  O  O11  1  0.83855400  0.83855400  0.77274000  1
  O  O12  1  0.50100800  0.00105700  0.50041900  1
  O  O13  1  0.00037200  0.50019400  0.16696900  1
  O  O14  1  0.16533500  0.16533500  0.22314900  1
  O  O15  1  0.84141400  0.84141400  0.60701900  1
  O  O16  1  0.50500400  0.00595100  0.33477500  1
  O  O17  1  0.15979200  0.15979200  0.05408700  1
  O  O18  1  0.84274500  0.84274500  0.44126100  1
  O  O19  1  0.50019400  0.00037200  0.16696900  1
  O  O20  1  0.86715500  0.86715500  0.27742700  1
  O  O21  1  0.49980600  0.99962800  0.99969800  1
  O  O22  1  0.84020800  0.84020800  0.11258000  1
  O  O23  1  0.99962800  0.49980600  0.99969800  1
loop_
_geom_bond_atom_site_label_1
_geom_bond_atom_site_label_2
_geom_bond_distance
_geom_bond_site_symmetry_2
La0 O3 2.319345 1_555
La0 O4 2.571451 1_545
La0 O0 2.571451 1_455
La0 O11 2.641547 1_445
La0 O4 2.662050 1_555
La0 O0 2.662050 1_555
La0 O11 2.835833 1_455
La0 O11 2.835833 1_545
La0 O11 3.042387 1_555
La1 O1 2.472167 1_665
La1 O7 2.496124 1_555
La1 O4 2.540567 1_555
La1 O0 2.540567 1_555
La1 O4 2.728086 1_545
La1 O0 2.728087 1_455
La1 O1 2.835986 1_655
La1 O1 2.835986 1_565
La1 O1 3.181825 1_555
La2 O6 2.320177 1_555
La2 O8 2.573020 1_545
La2 O2 2.573020 1_455
La2 O15 2.649625 1_445
La2 O8 2.665285 1_555
La2 O2 2.665286 1_555
La2 O15 2.835101 1_455
La2 O15 2.835101 1_545
La2 O15 3.033987 1_555
La3 O11 2.317516 1_555
La3 O8 2.574349 1_555
La3 O2 2.574349 1_555
La3 O3 2.659201 1_665
La3 O8 2.661885 1_545
La3 O2 2.661885 1_455
La3 O3 2.834190 1_655
La3 O3 2.834190 1_565
La3 O3 3.023889 1_555
La4 O10 2.317516 1_555
La4 O12 2.574383 1_555
La4 O5 2.574383 1_555
La4 O18 2.659210 1_445
La4 O12 2.661900 1_565
La4 O5 2.661900 1_655
La4 O18 2.834182 1_455
La4 O18 2.834182 1_545
La4 O18 3.023866 1_555
La5 O15 2.320177 1_555
La5 O12 2.573020 1_565
La5 O5 2.573020 1_655
La5 O6 2.649625 1_665
La5 O12 2.665285 1_555
La5 O5 2.665286 1_555
La5 O6 2.835101 1_655
La5 O6 2.835101 1_565
La5 O6 3.033987 1_555
La6 O20 2.472158 1_445
La6 O14 2.496124 1_555
La6 O16 2.540533 1_555
La6 O9 2.540533 1_555
La6 O16 2.728072 1_565
La6 O9 2.728072 1_655
La6 O20 2.835994 1_455
La6 O20 2.835994 1_545
La6 O20 3.181847 1_555
La7 O18 2.319345 1_555
La7 O16 2.571485 1_565
La7 O9 2.571485 1_655
La7 O10 2.641555 1_665
La7 O16 2.662065 1_555
La7 O9 2.662066 1_555
La7 O10 2.835824 1_655
La7 O10 2.835824 1_565
La7 O10 3.042364 1_555
Mg0 O0 1.966279 1_565
Mg0 O4 1.966279 1_655
Mg0 O0 1.974307 1_555
Mg0 O4 1.974307 1_555
Mg0 O1 2.172941 1_665
Mg0 O11 2.257863 1_555
Mg1 O2 1.969991 1_555
Mg1 O8 1.969991 1_555
Mg1 O2 1.970510 1_565
Mg1 O8 1.970510 1_655
Mg1 O3 2.242329 1_665
Mg1 O15 2.253931 1_555
Mg2 O9 1.966279 1_545
Mg2 O16 1.966279 1_455
Mg2 O9 1.974307 1_555
Mg2 O16 1.974307 1_555
Mg2 O20 2.172941 1_445
Mg2 O10 2.257863 1_555
Mg3 O5 1.969991 1_555
Mg3 O12 1.969991 1_555
Mg3 O5 1.970510 1_545
Mg3 O12 1.970510 1_455
Mg3 O18 2.242329 1_445
Mg3 O6 2.253931 1_555
O1 Sr0 2.351906 1_555
O7 Ru1 2.114840 1_555
O7 Sr0 2.793928 1_565
O7 Sr0 2.793928 1_655
O7 Sr0 2.805626 1_665
O7 Sr0 2.809007 1_555
O13 Ru0 1.969420 1_565
O13 Ru0 1.971211 1_555
O13 Sr2 2.694172 1_555
O13 Sr1 2.704341 1_555
O13 Sr2 2.709529 1_455
O13 Sr1 2.712002 1_455
O14 Ru0 2.114840 1_555
O14 Sr2 2.793932 1_545
O14 Sr2 2.793932 1_455
O14 Sr2 2.805613 1_445
O14 Sr2 2.809028 1_555
O17 Ru1 2.079911 1_444
O17 Sr1 2.424378 1_555
O17 Sr3 2.779751 1_445
O17 Sr3 2.787262 1_545
O17 Sr3 2.787262 1_455
O17 Sr3 2.821459 1_555
O19 Ru0 1.969420 1_655
O19 Ru0 1.971211 1_555
O19 Sr2 2.694172 1_555
O19 Sr1 2.704341 1_555
O19 Sr2 2.709528 1_545
O19 Sr1 2.712002 1_545
O20 Sr2 2.351906 1_555
O21 Ru1 1.969420 1_455
O21 Ru1 1.971211 1_555
O21 Sr0 2.694189 1_555
O21 Sr3 2.704341 1_556
O21 Sr0 2.709563 1_565
O21 Sr3 2.712002 1_566
O22 Ru0 2.079911 1_665
O22 Sr3 2.424378 1_555
O22 Sr1 2.779751 1_665
O22 Sr1 2.787262 1_565
O22 Sr1 2.787262 1_655
O22 Sr1 2.821459 1_555
O23 Ru1 1.969420 1_545
O23 Ru1 1.971211 1_555
O23 Sr0 2.694190 1_555
O23 Sr3 2.704341 1_556
O23 Sr0 2.709563 1_655
O23 Sr3 2.712002 1_656
