# generated using pymatgen
data_K3Sb5O14
_symmetry_space_group_name_H-M   'P 1'
_cell_length_a   7.27646100
_cell_length_b   7.45808000
_cell_length_c   24.69179300
_cell_angle_alpha   90.00000000
_cell_angle_beta   90.00000000
_cell_angle_gamma   90.00000000
_symmetry_Int_Tables_number   1
_chemical_formula_structural   K3Sb5O14
_chemical_formula_sum   'K12 Sb20 O56'
_cell_volume   1339.98479690
_cell_formula_units_Z   4
loop_
 _symmetry_equiv_pos_site_id
 _symmetry_equiv_pos_as_xyz
  1  'x, y, z'
loop_
 _atom_site_type_symbol
 _atom_site_label
 _atom_site_symmetry_multiplicity
 _atom_site_fract_x
 _atom_site_fract_y
 _atom_site_fract_z
 _atom_site_occupancy
  K  K0  1  0.22211200  0.50000000  0.01527200  1
  K  K1  1  0.72211200  0.50000000  0.48472800  1
  K  K2  1  0.77788800  0.50000000  0.98472800  1
  K  K3  1  0.27788800  0.50000000  0.51527200  1
  K  K4  1  0.12628100  0.00000000  0.29403800  1
  K  K5  1  0.62628100  0.00000000  0.20596200  1
  K  K6  1  0.87371900  0.00000000  0.70596200  1
  K  K7  1  0.37371900  0.00000000  0.79403800  1
  K  K8  1  0.10276600  0.50000000  0.38332900  1
  K  K9  1  0.60276600  0.50000000  0.11667100  1
  K  K10  1  0.89723400  0.50000000  0.61667100  1
  K  K11  1  0.39723400  0.50000000  0.88332900  1
  Sb  Sb0  1  0.09349800  0.00000000  0.93778800  1
  Sb  Sb1  1  0.59349800  0.00000000  0.56221200  1
  Sb  Sb2  1  0.90650200  0.00000000  0.06221200  1
  Sb  Sb3  1  0.40650200  0.00000000  0.43778800  1
  Sb  Sb4  1  0.08201900  0.00000000  0.55709700  1
  Sb  Sb5  1  0.58201900  0.00000000  0.94290300  1
  Sb  Sb6  1  0.91798100  0.00000000  0.44290300  1
  Sb  Sb7  1  0.41798100  0.00000000  0.05709700  1
  Sb  Sb8  1  0.32496000  0.50000000  0.25621700  1
  Sb  Sb9  1  0.82496000  0.50000000  0.24378300  1
  Sb  Sb10  1  0.67504000  0.50000000  0.74378300  1
  Sb  Sb11  1  0.17504000  0.50000000  0.75621700  1
  Sb  Sb12  1  0.10994300  0.73559700  0.14533200  1
  Sb  Sb13  1  0.60994300  0.26440300  0.35466800  1
  Sb  Sb14  1  0.89005700  0.73559700  0.85466800  1
  Sb  Sb15  1  0.39005700  0.26440300  0.64533200  1
  Sb  Sb16  1  0.89005700  0.26440300  0.85466800  1
  Sb  Sb17  1  0.39005700  0.73559700  0.64533200  1
  Sb  Sb18  1  0.10994300  0.26440300  0.14533200  1
  Sb  Sb19  1  0.60994300  0.73559700  0.35466800  1
  O  O0  1  0.95371700  0.74353900  0.07387000  1
  O  O1  1  0.45371700  0.25646100  0.42613000  1
  O  O2  1  0.04628300  0.74353900  0.92613000  1
  O  O3  1  0.54628300  0.25646100  0.57387000  1
  O  O4  1  0.04628300  0.25646100  0.92613000  1
  O  O5  1  0.54628300  0.74353900  0.57387000  1
  O  O6  1  0.95371700  0.25646100  0.07387000  1
  O  O7  1  0.45371700  0.74353900  0.42613000  1
  O  O8  1  0.87814300  0.68454000  0.18510800  1
  O  O9  1  0.37814300  0.31546000  0.31489200  1
  O  O10  1  0.12185700  0.68454000  0.81489200  1
  O  O11  1  0.62185700  0.31546000  0.68510800  1
  O  O12  1  0.12185700  0.31546000  0.81489200  1
  O  O13  1  0.62185700  0.68454000  0.68510800  1
  O  O14  1  0.87814300  0.31546000  0.18510800  1
  O  O15  1  0.37814300  0.68454000  0.31489200  1
  O  O16  1  0.83923700  0.80223400  0.39632400  1
  O  O17  1  0.33923700  0.19776600  0.10367600  1
  O  O18  1  0.16076300  0.80223400  0.60367600  1
  O  O19  1  0.66076300  0.19776600  0.89632400  1
  O  O20  1  0.16076300  0.19776600  0.60367600  1
  O  O21  1  0.33855300  0.00000000  0.90604000  1
  O  O22  1  0.66076300  0.80223400  0.89632400  1
  O  O23  1  0.33923700  0.80223400  0.10367600  1
  O  O24  1  0.76118700  0.72573900  0.28843000  1
  O  O25  1  0.26118700  0.27426100  0.21157000  1
  O  O26  1  0.23881300  0.72573900  0.71157000  1
  O  O27  1  0.73881300  0.27426100  0.78843000  1
  O  O28  1  0.23881300  0.27426100  0.71157000  1
  O  O29  1  0.73881300  0.72573900  0.78843000  1
  O  O30  1  0.76118700  0.27426100  0.28843000  1
  O  O31  1  0.26118700  0.72573900  0.21157000  1
  O  O32  1  0.50000000  0.82076700  0.00000000  1
  O  O33  1  0.00000000  0.17923300  0.50000000  1
  O  O34  1  0.50000000  0.17923300  0.00000000  1
  O  O35  1  0.00000000  0.82076700  0.50000000  1
  O  O36  1  0.16058000  0.00000000  0.01762900  1
  O  O37  1  0.66058000  0.00000000  0.48237100  1
  O  O38  1  0.83942000  0.00000000  0.98237100  1
  O  O39  1  0.33942000  0.00000000  0.51762900  1
  O  O40  1  0.18317400  0.50000000  0.11947400  1
  O  O41  1  0.68317400  0.50000000  0.38052600  1
  O  O42  1  0.81682600  0.50000000  0.88052600  1
  O  O43  1  0.31682600  0.50000000  0.61947400  1
  O  O44  1  0.02756800  0.00000000  0.14263000  1
  O  O45  1  0.52756800  0.00000000  0.35737000  1
  O  O46  1  0.97243200  0.00000000  0.85737000  1
  O  O47  1  0.47243200  0.00000000  0.64263000  1
  O  O48  1  0.06489500  0.50000000  0.28154600  1
  O  O49  1  0.56489500  0.50000000  0.21845400  1
  O  O50  1  0.93510500  0.50000000  0.71845400  1
  O  O51  1  0.43510500  0.50000000  0.78154600  1
  O  O52  1  0.16144700  0.00000000  0.40604000  1
  O  O53  1  0.66144700  0.00000000  0.09396000  1
  O  O54  1  0.83855300  0.00000000  0.59396000  1
  O  O55  1  0.83923700  0.19776600  0.39632400  1
loop_
_geom_bond_atom_site_label_1
_geom_bond_atom_site_label_2
_geom_bond_distance
_geom_bond_site_symmetry_2
K0 O40 2.588487 1_555
K0 O6 3.034243 1_455
K0 O0 3.034243 1_455
K0 O4 3.127411 1_554
K0 O2 3.127411 1_554
K0 O32 3.154992 1_555
K0 O34 3.154992 1_555
K1 O41 2.588487 1_555
K1 O1 3.034243 1_555
K1 O7 3.034243 1_555
K1 O5 3.127411 1_555
K1 O3 3.127411 1_555
K1 O35 3.154992 1_655
K1 O33 3.154992 1_655
K2 O42 2.588487 1_555
K2 O4 3.034243 1_655
K2 O2 3.034243 1_655
K2 O0 3.127411 1_556
K2 O6 3.127411 1_556
K2 O32 3.154992 1_556
K2 O34 3.154992 1_556
K3 O43 2.588487 1_555
K3 O3 3.034243 1_555
K3 O5 3.034243 1_555
K3 O1 3.127411 1_555
K3 O7 3.127411 1_555
K3 O35 3.154992 1_555
K3 O33 3.154992 1_555
K4 O52 2.777343 1_555
K4 O9 3.026404 1_555
K4 O15 3.026404 1_545
K4 O25 3.048601 1_555
K4 O31 3.048601 1_545
K4 O45 3.312327 1_555
K4 O30 3.355677 1_455
K4 O24 3.355677 1_445
K5 O53 2.777343 1_555
K5 O14 3.026404 1_555
K5 O8 3.026404 1_545
K5 O30 3.048601 1_555
K5 O24 3.048601 1_545
K5 O44 3.312327 1_655
K5 O25 3.355677 1_555
K5 O31 3.355677 1_545
K6 O54 2.777343 1_555
K6 O11 3.026404 1_555
K6 O13 3.026404 1_545
K6 O27 3.048601 1_555
K6 O29 3.048601 1_545
K6 O47 3.312327 1_555
K6 O28 3.355677 1_655
K6 O26 3.355677 1_645
K7 O21 2.777343 1_555
K7 O12 3.026404 1_555
K7 O10 3.026404 1_545
K7 O28 3.048601 1_555
K7 O26 3.048601 1_545
K7 O46 3.312327 1_455
K7 O27 3.355677 1_555
K7 O29 3.355677 1_545
K8 O48 2.528267 1_555
K8 O9 2.960552 1_555
K8 O15 2.960552 1_555
K8 O55 2.976725 1_455
K8 O16 2.976725 1_455
K8 O41 3.053929 1_455
K8 O7 3.307152 1_555
K8 O1 3.307152 1_555
K9 O49 2.528267 1_555
K9 O8 2.960552 1_555
K9 O14 2.960552 1_555
K9 O17 2.976725 1_555
K9 O23 2.976725 1_555
K9 O40 3.053929 1_555
K9 O6 3.307152 1_555
K9 O0 3.307152 1_555
K10 O50 2.528267 1_555
K10 O13 2.960552 1_555
K10 O11 2.960552 1_555
K10 O18 2.976725 1_655
K10 O20 2.976725 1_655
K10 O43 3.053929 1_655
K10 O5 3.307152 1_555
K10 O3 3.307152 1_555
K11 O51 2.528267 1_555
K11 O10 2.960552 1_555
K11 O12 2.960552 1_555
K11 O22 2.976725 1_555
K11 O19 2.976725 1_555
K11 O42 3.053929 1_555
K11 O2 3.307152 1_555
K11 O4 3.307152 1_555
O0 Sb2 1.964520 1_565
O0 Sb12 2.099835 1_655
O1 Sb3 1.964520 1_555
O1 Sb13 2.099835 1_555
O2 Sb0 1.964520 1_565
O2 Sb14 2.099835 1_455
O3 Sb1 1.964520 1_555
O3 Sb15 2.099835 1_555
O4 Sb0 1.964520 1_555
O4 Sb16 2.099835 1_455
O5 Sb1 1.964520 1_565
O5 Sb17 2.099835 1_555
O6 Sb2 1.964520 1_555
O6 Sb18 2.099835 1_655
O7 Sb3 1.964520 1_565
O7 Sb19 2.099835 1_555
O8 Sb12 1.988593 1_655
O8 Sb9 2.035434 1_555
O9 Sb13 1.988593 1_555
O9 Sb8 2.035434 1_555
O10 Sb14 1.988593 1_455
O10 Sb11 2.035434 1_555
O11 Sb15 1.988593 1_555
O11 Sb10 2.035434 1_555
O12 Sb16 1.988593 1_455
O12 Sb11 2.035434 1_555
O13 Sb17 1.988593 1_555
O13 Sb10 2.035434 1_555
O14 Sb18 1.988593 1_655
O14 Sb9 2.035434 1_555
O15 Sb19 1.988593 1_555
O15 Sb8 2.035434 1_555
O16 Sb6 1.956162 1_565
O16 Sb19 2.022042 1_555
O17 Sb7 1.956162 1_555
O17 Sb18 2.022042 1_555
O18 Sb4 1.956162 1_565
O18 Sb17 2.022042 1_555
O19 Sb5 1.956162 1_555
O19 Sb16 2.022042 1_555
O20 Sb4 1.956162 1_555
O20 Sb15 2.022042 1_555
O21 Sb0 1.947842 1_555
O21 Sb5 1.991721 1_555
O22 Sb5 1.956162 1_565
O22 Sb14 2.022042 1_555
O23 Sb7 1.956162 1_565
O23 Sb12 2.022042 1_555
O24 Sb19 1.972695 1_555
O24 Sb9 2.065210 1_555
O25 Sb18 1.972695 1_555
O25 Sb8 2.065210 1_555
O26 Sb17 1.972695 1_555
O26 Sb11 2.065210 1_555
O27 Sb16 1.972695 1_555
O27 Sb10 2.065210 1_555
O28 Sb15 1.972695 1_555
O28 Sb11 2.065210 1_555
O29 Sb14 1.972695 1_555
O29 Sb10 2.065210 1_555
O30 Sb13 1.972695 1_555
O30 Sb9 2.065210 1_555
O31 Sb12 1.972695 1_555
O31 Sb8 2.065210 1_555
O32 Sb7 2.032400 1_565
O32 Sb5 2.032400 1_564
O33 Sb4 2.032400 1_555
O33 Sb6 2.032400 1_455
O34 Sb7 2.032400 1_555
O34 Sb5 2.032400 1_554
O35 Sb4 2.032400 1_565
O35 Sb6 2.032400 1_465
O36 Sb0 2.030947 1_554
O36 Sb7 2.111334 1_555
O36 Sb2 2.151710 1_455
O37 Sb1 2.030947 1_555
O37 Sb6 2.111334 1_555
O37 Sb3 2.151710 1_555
O38 Sb2 2.030947 1_556
O38 Sb5 2.111334 1_555
O38 Sb0 2.151710 1_655
O39 Sb3 2.030947 1_555
O39 Sb4 2.111334 1_555
O39 Sb1 2.151710 1_555
O40 Sb12 1.943966 1_555
O40 Sb18 1.943966 1_555
O41 Sb19 1.943966 1_555
O41 Sb13 1.943966 1_555
O42 Sb14 1.943966 1_555
O42 Sb16 1.943966 1_555
O43 Sb17 1.943966 1_555
O43 Sb15 1.943966 1_555
O44 Sb18 2.062104 1_555
O44 Sb12 2.062104 1_545
O44 Sb2 2.172304 1_455
O45 Sb13 2.062104 1_555
O45 Sb19 2.062104 1_545
O45 Sb3 2.172304 1_555
O46 Sb16 2.062104 1_555
O46 Sb14 2.062104 1_545
O46 Sb0 2.172304 1_655
O47 Sb15 2.062104 1_555
O47 Sb17 2.062104 1_545
O47 Sb1 2.172304 1_555
O48 Sb9 1.979274 1_455
O48 Sb8 1.993025 1_555
O49 Sb8 1.979274 1_555
O49 Sb9 1.993025 1_555
O50 Sb11 1.979274 1_655
O50 Sb10 1.993025 1_555
O51 Sb10 1.979274 1_555
O51 Sb11 1.993025 1_555
O52 Sb3 1.947842 1_555
O52 Sb6 1.991721 1_455
O53 Sb2 1.947842 1_555
O53 Sb7 1.991721 1_555
O54 Sb1 1.947842 1_555
O54 Sb4 1.991721 1_655
O55 Sb6 1.956162 1_555
O55 Sb13 2.022042 1_555
