# generated using pymatgen
data_Hf6Ga16Ni7
_symmetry_space_group_name_H-M   'P 1'
_cell_length_a   8.51730058
_cell_length_b   8.51730058
_cell_length_c   8.51730058
_cell_angle_alpha   60.00000000
_cell_angle_beta   60.00000000
_cell_angle_gamma   60.00000000
_symmetry_Int_Tables_number   1
_chemical_formula_structural   Hf6Ga16Ni7
_chemical_formula_sum   'Hf6 Ga16 Ni7'
_cell_volume   436.90893335
_cell_formula_units_Z   1
loop_
 _symmetry_equiv_pos_site_id
 _symmetry_equiv_pos_as_xyz
  1  'x, y, z'
loop_
 _atom_site_type_symbol
 _atom_site_label
 _atom_site_symmetry_multiplicity
 _atom_site_fract_x
 _atom_site_fract_y
 _atom_site_fract_z
 _atom_site_occupancy
  Hf  Hf0  1  0.69034200  0.69034200  0.30965800  1
  Hf  Hf1  1  0.30965800  0.69034200  0.30965800  1
  Hf  Hf2  1  0.69034200  0.30965800  0.30965800  1
  Hf  Hf3  1  0.30965800  0.30965800  0.69034200  1
  Hf  Hf4  1  0.69034200  0.30965800  0.69034200  1
  Hf  Hf5  1  0.30965800  0.69034200  0.69034200  1
  Ga  Ga0  1  0.88038300  0.88038300  0.35885100  1
  Ga  Ga1  1  0.88038300  0.35885100  0.88038300  1
  Ga  Ga2  1  0.35885100  0.88038300  0.88038300  1
  Ga  Ga3  1  0.88038300  0.88038300  0.88038300  1
  Ga  Ga4  1  0.11961700  0.11961700  0.64114900  1
  Ga  Ga5  1  0.11961700  0.64114900  0.11961700  1
  Ga  Ga6  1  0.64114900  0.11961700  0.11961700  1
  Ga  Ga7  1  0.11961700  0.11961700  0.11961700  1
  Ga  Ga8  1  0.66209900  0.66209900  0.01370400  1
  Ga  Ga9  1  0.66209900  0.01370400  0.66209900  1
  Ga  Ga10  1  0.01370400  0.66209900  0.66209900  1
  Ga  Ga11  1  0.66209900  0.66209900  0.66209900  1
  Ga  Ga12  1  0.33790100  0.33790100  0.98629600  1
  Ga  Ga13  1  0.33790100  0.98629600  0.33790100  1
  Ga  Ga14  1  0.98629600  0.33790100  0.33790100  1
  Ga  Ga15  1  0.33790100  0.33790100  0.33790100  1
  Ni  Ni0  1  0.00000000  0.00000000  0.00000000  1
  Ni  Ni1  1  0.00000000  0.00000000  0.50000000  1
  Ni  Ni2  1  0.50000000  0.00000000  0.50000000  1
  Ni  Ni3  1  0.00000000  0.50000000  0.50000000  1
  Ni  Ni4  1  0.50000000  0.50000000  0.00000000  1
  Ni  Ni5  1  0.00000000  0.50000000  0.00000000  1
  Ni  Ni6  1  0.50000000  0.00000000  0.00000000  1
loop_
_geom_bond_atom_site_label_1
_geom_bond_atom_site_label_2
_geom_bond_distance
_geom_bond_site_symmetry_2
Hf0 Ni3 3.095874 1_655
Hf0 Ni2 3.095874 1_565
Hf0 Ni6 3.095874 1_565
Hf0 Ni5 3.095874 1_655
Hf1 Ni4 3.095874 1_555
Hf1 Ni1 3.095874 1_565
Hf1 Ni6 3.095874 1_565
Hf1 Ni3 3.095874 1_555
Hf2 Ni4 3.095874 1_555
Hf2 Ni2 3.095874 1_555
Hf2 Ni5 3.095874 1_655
Hf2 Ni1 3.095874 1_655
Hf3 Ni6 3.095874 1_556
Hf3 Ni2 3.095874 1_555
Hf3 Ni5 3.095874 1_556
Hf3 Ni3 3.095874 1_555
Hf4 Ni3 3.095874 1_655
Hf4 Ni6 3.095874 1_556
Hf4 Ni4 3.095874 1_556
Hf4 Ni1 3.095874 1_655
Hf5 Ni5 3.095874 1_556
Hf5 Ni1 3.095874 1_565
Hf5 Ni2 3.095874 1_565
Hf5 Ni4 3.095874 1_556
Ga0 Ni0 2.495574 1_665
Ga0 Ni3 2.647434 1_655
Ga0 Ni2 2.647434 1_565
Ga0 Ni1 2.647434 1_665
Ga0 Ga11 2.727062 1_555
Ga0 Ga10 2.727067 1_655
Ga0 Ga9 2.727067 1_565
Ga0 Ga5 2.881641 1_655
Ga0 Ga6 2.881641 1_565
Ga0 Ga7 2.881641 1_665
Ga0 Hf0 3.064620 1_555
Ga0 Hf1 3.064620 1_655
Ga0 Hf2 3.064620 1_565
Ga1 Ni0 2.495574 1_656
Ga1 Ni3 2.647434 1_655
Ga1 Ni4 2.647434 1_556
Ga1 Ni5 2.647434 1_656
Ga1 Ga11 2.727062 1_555
Ga1 Ga10 2.727067 1_655
Ga1 Ga8 2.727067 1_556
Ga1 Ga6 2.881641 1_556
Ga1 Ga4 2.881641 1_655
Ga1 Ga7 2.881641 1_656
Ga1 Hf4 3.064620 1_555
Ga1 Hf3 3.064620 1_655
Ga1 Hf2 3.064620 1_556
Ga2 Ni0 2.495574 1_566
Ga2 Ni2 2.647434 1_565
Ga2 Ni4 2.647434 1_556
Ga2 Ni6 2.647434 1_566
Ga2 Ga9 2.727067 1_565
Ga2 Ga8 2.727067 1_556
Ga2 Ga5 2.881641 1_556
Ga2 Ga4 2.881641 1_565
Ga2 Ga7 2.881641 1_566
Ga2 Hf5 3.064620 1_555
Ga2 Hf1 3.064620 1_556
Ga2 Hf3 3.064620 1_565
Ga3 Ni0 2.495574 1_666
Ga3 Ni6 2.647434 1_566
Ga3 Ni1 2.647434 1_665
Ga3 Ni5 2.647434 1_656
Ga3 Ga9 2.727060 1_565
Ga3 Ga8 2.727060 1_556
Ga3 Ga6 2.881641 1_566
Ga3 Ga4 2.881641 1_665
Ga3 Ga5 2.881641 1_656
Ga3 Hf4 3.064620 1_565
Ga3 Hf5 3.064620 1_655
Ga3 Hf0 3.064620 1_556
Ga4 Ni0 2.495574 1_556
Ga4 Ni1 2.647434 1_555
Ga4 Ni3 2.647434 1_555
Ga4 Ni2 2.647434 1_555
Ga4 Hf5 3.064620 1_545
Ga4 Hf4 3.064620 1_455
Ga4 Hf3 3.064620 1_555
Ga5 Ni0 2.495574 1_565
Ga5 Ni5 2.647434 1_555
Ga5 Ni4 2.647434 1_555
Ga5 Ni3 2.647434 1_555
Ga5 Hf5 3.064620 1_554
Ga5 Hf0 3.064620 1_455
Ga5 Hf1 3.064620 1_555
Ga6 Ni0 2.495574 1_655
Ga6 Ni6 2.647434 1_555
Ga6 Ni4 2.647434 1_555
Ga6 Ni2 2.647434 1_555
Ga6 Hf0 3.064620 1_545
Ga6 Hf4 3.064620 1_554
Ga6 Hf2 3.064620 1_555
Ga7 Ni0 2.495574 1_555
Ga7 Ni6 2.647434 1_555
Ga7 Ni1 2.647434 1_555
Ga7 Ni5 2.647434 1_555
Ga7 Hf2 3.064620 1_455
Ga7 Hf1 3.064620 1_545
Ga7 Hf3 3.064620 1_554
Ga8 Ni6 2.460577 1_565
Ga8 Ni5 2.460577 1_655
Ga8 Ni4 2.460584 1_555
Ga8 Hf0 2.782161 1_555
Ga8 Hf2 2.782166 1_555
Ga8 Hf1 2.782166 1_555
Ga9 Ni1 2.460577 1_655
Ga9 Ni6 2.460577 1_556
Ga9 Ni2 2.460584 1_555
Ga9 Hf4 2.782161 1_555
Ga9 Hf3 2.782166 1_555
Ga9 Hf2 2.782166 1_555
Ga10 Ni5 2.460577 1_556
Ga10 Ni1 2.460577 1_565
Ga10 Ni3 2.460584 1_555
Ga10 Ga3 2.727060 1_455
Ga10 Hf5 2.782161 1_555
Ga10 Hf3 2.782166 1_555
Ga10 Hf1 2.782166 1_555
Ga11 Ni3 2.460579 1_655
Ga11 Ni2 2.460579 1_565
Ga11 Ni4 2.460579 1_556
Ga11 Ga2 2.727062 1_555
Ga11 Hf4 2.782169 1_555
Ga11 Hf0 2.782169 1_555
Ga11 Hf5 2.782169 1_555
Ga12 Ni6 2.460577 1_556
Ga12 Ni5 2.460577 1_556
Ga12 Ni4 2.460584 1_556
Ga12 Ga7 2.727060 1_556
Ga12 Ga6 2.727067 1_556
Ga12 Ga5 2.727067 1_556
Ga12 Hf3 2.782161 1_555
Ga12 Hf5 2.782166 1_555
Ga12 Hf4 2.782166 1_555
Ga13 Ni1 2.460577 1_565
Ga13 Ni6 2.460577 1_565
Ga13 Ni2 2.460584 1_565
Ga13 Ga7 2.727060 1_565
Ga13 Ga6 2.727067 1_565
Ga13 Ga4 2.727067 1_565
Ga13 Hf1 2.782161 1_555
Ga13 Hf5 2.782166 1_555
Ga13 Hf0 2.782166 1_555
Ga14 Ni1 2.460577 1_655
Ga14 Ni5 2.460577 1_655
Ga14 Ni3 2.460584 1_655
Ga14 Ga7 2.727060 1_655
Ga14 Ga4 2.727067 1_655
Ga14 Ga5 2.727067 1_655
Ga14 Hf2 2.782161 1_555
Ga14 Hf0 2.782166 1_555
Ga14 Hf4 2.782166 1_555
Ga15 Ni2 2.460579 1_555
Ga15 Ni4 2.460579 1_555
Ga15 Ni3 2.460579 1_555
Ga15 Ga4 2.727062 1_555
Ga15 Ga6 2.727062 1_555
Ga15 Ga5 2.727062 1_555
Ga15 Hf1 2.782169 1_555
Ga15 Hf3 2.782169 1_555
Ga15 Hf2 2.782169 1_555
