# generated using pymatgen
data_LiV4(NiO6)2
_symmetry_space_group_name_H-M   'P 1'
_cell_length_a   6.88744325
_cell_length_b   6.72924022
_cell_length_c   5.75272059
_cell_angle_alpha   73.30411707
_cell_angle_beta   103.42009197
_cell_angle_gamma   98.16177759
_symmetry_Int_Tables_number   1
_chemical_formula_structural   LiV4(NiO6)2
_chemical_formula_sum   'Li1 V4 Ni2 O12'
_cell_volume   247.59706110
_cell_formula_units_Z   1
loop_
 _symmetry_equiv_pos_site_id
 _symmetry_equiv_pos_as_xyz
  1  'x, y, z'
loop_
 _atom_site_type_symbol
 _atom_site_label
 _atom_site_symmetry_multiplicity
 _atom_site_fract_x
 _atom_site_fract_y
 _atom_site_fract_z
 _atom_site_occupancy
  Li  Li0  1  0.26910900  0.41235800  0.32353200  1
  V  V0  1  0.19925300  0.63280000  0.73597100  1
  V  V1  1  0.39098700  0.86096200  0.19881000  1
  V  V2  1  0.61318700  0.20129800  0.77129000  1
  V  V3  1  0.78270900  0.39286200  0.25442900  1
  Ni  Ni0  1  0.07634200  0.09570200  0.76915400  1
  Ni  Ni1  1  0.91543000  0.93807000  0.26963000  1
  O  O0  1  0.03775400  0.83169800  0.64061100  1
  O  O1  1  0.07096700  0.39481300  0.77471200  1
  O  O2  1  0.16877100  0.99372100  0.14364900  1
  O  O3  1  0.33779000  0.65328400  0.50480400  1
  O  O4  1  0.38489700  0.07067400  0.80564200  1
  O  O5  1  0.33905300  0.63591300  0.03932200  1
  O  O6  1  0.66477500  0.39425100  0.94174100  1
  O  O7  1  0.63191600  0.96539000  0.28620500  1
  O  O8  1  0.59196800  0.33207000  0.44916600  1
  O  O9  1  0.79825300  0.03797000  0.86409100  1
  O  O10  1  0.87144500  0.63656300  0.24010600  1
  O  O11  1  0.98539500  0.23960400  0.36213500  1
loop_
_geom_bond_atom_site_label_1
_geom_bond_atom_site_label_2
_geom_bond_distance
_geom_bond_site_symmetry_2
Li0 O5 1.978612 1_555
Li0 O3 2.112901 1_555
Li0 O11 2.151092 1_455
Li0 O8 2.264892 1_555
Ni0 O1 2.027905 1_555
Ni0 O2 2.038490 1_546
Ni0 O9 2.066404 1_455
Ni0 O0 2.074395 1_545
Ni0 O4 2.112572 1_555
Ni0 O11 2.236331 1_455
Ni1 O2 1.988860 1_655
Ni1 O7 2.013530 1_555
Ni1 O0 2.058071 1_655
Ni1 O10 2.058326 1_555
Ni1 O11 2.203723 1_565
Ni1 O9 2.219205 1_564
O0 V0 1.745618 1_555
O1 V0 1.696944 1_555
O2 V1 1.800315 1_555
O3 V0 1.773196 1_555
O3 V1 1.981522 1_555
O4 V2 1.713454 1_555
O4 V1 2.290790 1_546
O5 V0 1.791151 1_554
O5 V1 1.937881 1_555
O6 V3 1.791605 1_556
O6 V2 1.792341 1_555
O7 V1 1.727656 1_555
O8 V2 1.789838 1_555
O8 V3 1.848087 1_555
O9 V2 1.691871 1_555
O10 V3 1.652517 1_555
O11 V3 1.742533 1_555
