# generated using pymatgen
data_Li7Mn2(CoO4)3
_symmetry_space_group_name_H-M   'P 1'
_cell_length_a   5.03345837
_cell_length_b   5.03345837
_cell_length_c   9.79320736
_cell_angle_alpha   84.94274715
_cell_angle_beta   84.94274715
_cell_angle_gamma   120.37868918
_symmetry_Int_Tables_number   1
_chemical_formula_structural   Li7Mn2(CoO4)3
_chemical_formula_sum   'Li7 Mn2 Co3 O12'
_cell_volume   210.65971987
_cell_formula_units_Z   1
loop_
 _symmetry_equiv_pos_site_id
 _symmetry_equiv_pos_as_xyz
  1  'x, y, z'
loop_
 _atom_site_type_symbol
 _atom_site_label
 _atom_site_symmetry_multiplicity
 _atom_site_fract_x
 _atom_site_fract_y
 _atom_site_fract_z
 _atom_site_occupancy
  Li  Li0  1  0.74814000  0.74413000  0.74662800  1
  Li  Li1  1  0.57817700  0.90921200  0.25357800  1
  Li  Li2  1  0.25587000  0.25186000  0.25337200  1
  Li  Li3  1  0.09078800  0.42182300  0.74642200  1
  Li  Li4  1  0.91308700  0.58557400  0.25357600  1
  Li  Li5  1  0.41442600  0.08691300  0.74642400  1
  Li  Li6  1  0.49919600  0.50080400  0.50000000  1
  Mn  Mn0  1  0.99919400  0.00080600  0.00000000  1
  Mn  Mn1  1  0.83385600  0.16614400  0.50000000  1
  Co  Co0  1  0.67040600  0.32959400  0.00000000  1
  Co  Co1  1  0.33276800  0.66723200  0.00000000  1
  Co  Co2  1  0.16477900  0.83522100  0.50000000  1
  O  O0  1  0.64820900  0.64173700  0.11742300  1
  O  O1  1  0.46084700  0.82135400  0.61183000  1
  O  O2  1  0.10471000  0.10085200  0.60960000  1
  O  O3  1  0.95077800  0.26945200  0.11637000  1
  O  O4  1  0.82759700  0.46807100  0.60959200  1
  O  O5  1  0.28556200  0.97692500  0.11426300  1
  O  O6  1  0.89914800  0.89529000  0.39040000  1
  O  O7  1  0.73054800  0.04922200  0.88363000  1
  O  O8  1  0.35826300  0.35179100  0.88257700  1
  O  O9  1  0.17864600  0.53915300  0.38817000  1
  O  O10  1  0.02307500  0.71443800  0.88573700  1
  O  O11  1  0.53192900  0.17240300  0.39040800  1
loop_
_geom_bond_atom_site_label_1
_geom_bond_atom_site_label_2
_geom_bond_distance
_geom_bond_site_symmetry_2
Li0 O2 2.034005 1_665
Li0 O10 2.073413 1_655
Li0 O7 2.155478 1_565
Li0 O8 2.163265 1_555
Li0 O4 2.165178 1_555
Li0 O1 2.190780 1_555
Li1 O11 2.043203 1_565
Li1 O3 2.073020 1_565
Li1 O0 2.104381 1_555
Li1 O9 2.135947 1_555
Li1 O6 2.211349 1_555
Li1 O5 2.219674 1_555
Li2 O6 2.034005 1_445
Li2 O5 2.073413 1_545
Li2 O3 2.155478 1_455
Li2 O0 2.163265 1_555
Li2 O11 2.165178 1_555
Li2 O9 2.190780 1_555
Li3 O4 2.043203 1_455
Li3 O7 2.073020 1_455
Li3 O8 2.104381 1_555
Li3 O1 2.135947 1_555
Li3 O2 2.211349 1_555
Li3 O10 2.219674 1_555
Li4 O9 2.037385 1_655
Li4 O0 2.064833 1_555
Li4 O5 2.143962 1_655
Li4 O6 2.166336 1_555
Li4 O11 2.195773 1_555
Li4 O3 2.238456 1_555
Li5 O1 2.037385 1_545
Li5 O8 2.064833 1_555
Li5 O10 2.143962 1_545
Li5 O2 2.166336 1_555
Li5 O4 2.195773 1_555
Li5 O7 2.238456 1_555
Li6 O6 2.085136 1_555
Li6 O2 2.085136 1_555
Li6 O1 2.104575 1_555
Li6 O9 2.104575 1_555
Li6 O11 2.113876 1_555
Li6 O4 2.113876 1_555
Mn0 O7 1.934600 1_554
Mn0 O3 1.934600 1_555
Mn0 O0 1.938031 1_545
Mn0 O8 1.938031 1_654
Mn0 O10 1.944275 1_644
Mn0 O5 1.944275 1_645
Mn1 O1 1.934726 1_545
Mn1 O9 1.934726 1_655
Mn1 O6 1.941056 1_545
Mn1 O2 1.941056 1_655
Mn1 O4 1.947434 1_555
Mn1 O11 1.947434 1_555
Co0 O5 1.986295 1_545
Co0 O10 1.986295 1_654
Co0 O3 2.009186 1_555
Co0 O7 2.009186 1_554
Co0 O0 2.068051 1_555
Co0 O8 2.068051 1_554
Co1 O7 2.078992 1_564
Co1 O3 2.078992 1_455
Co1 O0 2.088490 1_555
Co1 O8 2.088490 1_554
Co1 O10 2.091373 1_554
Co1 O5 2.091373 1_555
Co2 O11 1.898538 1_565
Co2 O4 1.898538 1_455
Co2 O2 1.906784 1_565
Co2 O6 1.906784 1_455
Co2 O1 1.950533 1_555
Co2 O9 1.950533 1_555
