# generated using pymatgen
data_Li9Mn2Co5O16
_symmetry_space_group_name_H-M   'P 1'
_cell_length_a   5.91109600
_cell_length_b   6.43836279
_cell_length_c   7.87727237
_cell_angle_alpha   86.09304218
_cell_angle_beta   75.94694056
_cell_angle_gamma   76.98003855
_symmetry_Int_Tables_number   1
_chemical_formula_structural   Li9Mn2Co5O16
_chemical_formula_sum   'Li9 Mn2 Co5 O16'
_cell_volume   283.31402860
_cell_formula_units_Z   1
loop_
 _symmetry_equiv_pos_site_id
 _symmetry_equiv_pos_as_xyz
  1  'x, y, z'
loop_
 _atom_site_type_symbol
 _atom_site_label
 _atom_site_symmetry_multiplicity
 _atom_site_fract_x
 _atom_site_fract_y
 _atom_site_fract_z
 _atom_site_occupancy
  Li  Li0  1  0.07499700  0.13373100  0.62176200  1
  Li  Li1  1  0.81191000  0.62138200  0.12713700  1
  Li  Li2  1  0.54861100  0.12989300  0.61985700  1
  Li  Li3  1  0.94068200  0.86247100  0.38500400  1
  Li  Li4  1  0.68959100  0.38465400  0.86767600  1
  Li  Li5  1  0.43495400  0.86164100  0.38564300  1
  Li  Li6  1  0.31407300  0.62280800  0.13107400  1
  Li  Li7  1  0.18050500  0.38429800  0.86077100  1
  Li  Li8  1  0.24685300  0.50266900  0.50239700  1
  Mn  Mn0  1  0.00466600  0.99858700  0.99883500  1
  Mn  Mn1  1  0.62088200  0.25298100  0.25497600  1
  Co  Co0  1  0.74602100  0.49985400  0.50227600  1
  Co  Co1  1  0.50567000  0.99891300  0.00020900  1
  Co  Co2  1  0.37007100  0.75058400  0.74392100  1
  Co  Co3  1  0.12534900  0.25235500  0.25806700  1
  Co  Co4  1  0.88145800  0.74690800  0.74531300  1
  O  O0  1  0.27500100  0.05239400  0.81958800  1
  O  O1  1  0.01671900  0.53769600  0.31675700  1
  O  O2  1  0.79541200  0.04220500  0.83499200  1
  O  O3  1  0.13582800  0.81383000  0.57511500  1
  O  O4  1  0.89887300  0.29308400  0.06514400  1
  O  O5  1  0.64132300  0.79615600  0.56749600  1
  O  O6  1  0.53484200  0.54360300  0.30558400  1
  O  O7  1  0.41793800  0.28994800  0.08389200  1
  O  O8  1  0.83038200  0.20436700  0.42015600  1
  O  O9  1  0.60221400  0.71358400  0.92787000  1
  O  O10  1  0.35959200  0.18330800  0.42285400  1
  O  O11  1  0.73727200  0.94977600  0.18119200  1
  O  O12  1  0.47957700  0.45609500  0.68394000  1
  O  O13  1  0.20958000  0.96129900  0.16791700  1
  O  O14  1  0.11229900  0.70182800  0.93710400  1
  O  O15  1  0.95685900  0.45709700  0.68548000  1
loop_
_geom_bond_atom_site_label_1
_geom_bond_atom_site_label_2
_geom_bond_distance
_geom_bond_site_symmetry_2
Li0 O3 2.052241 1_545
Li0 O10 2.068973 1_555
Li0 O15 2.095515 1_455
Li0 O0 2.145895 1_555
Li0 O2 2.203551 1_455
Li0 O8 2.353746 1_455
Li1 O6 2.016082 1_555
Li1 O11 2.111267 1_555
Li1 O1 2.112270 1_655
Li1 O4 2.121232 1_555
Li1 O14 2.163295 1_654
Li1 O9 2.199796 1_554
Li2 O0 2.088300 1_555
Li2 O10 2.090709 1_555
Li2 O8 2.112656 1_555
Li2 O12 2.119077 1_555
Li2 O5 2.137258 1_545
Li2 O2 2.453184 1_555
Li3 O3 2.069691 1_655
Li3 O5 2.097976 1_555
Li3 O1 2.115600 1_655
Li3 O8 2.167022 1_565
Li3 O13 2.200684 1_655
Li3 O11 2.202092 1_555
Li4 O15 1.978112 1_555
Li4 O12 2.090940 1_555
Li4 O9 2.121698 1_555
Li4 O2 2.167136 1_555
Li4 O4 2.185977 1_556
Li4 O7 2.196043 1_556
Li5 O10 2.043786 1_565
Li5 O5 2.062160 1_555
Li5 O3 2.085617 1_555
Li5 O6 2.095129 1_555
Li5 O11 2.245866 1_555
Li5 O13 2.387990 1_555
Li6 O6 2.080518 1_555
Li6 O7 2.124315 1_555
Li6 O14 2.126432 1_554
Li6 O1 2.146017 1_555
Li6 O13 2.146583 1_555
Li6 O9 2.191303 1_554
Li7 O12 2.088976 1_555
Li7 O14 2.093315 1_555
Li7 O15 2.095976 1_455
Li7 O0 2.110050 1_555
Li7 O4 2.172139 1_456
Li7 O7 2.469050 1_556
Li8 O15 2.018118 1_455
Li8 O3 2.038066 1_555
Li8 O6 2.058090 1_555
Li8 O10 2.102352 1_555
Li8 O12 2.176811 1_555
Li8 O1 2.196071 1_555
Mn0 O4 1.923820 1_466
Mn0 O11 1.928769 1_456
Mn0 O14 1.928843 1_555
Mn0 O0 1.937587 1_565
Mn0 O2 1.960601 1_465
Mn0 O13 1.976778 1_556
Mn1 O6 1.868987 1_555
Mn1 O10 1.890755 1_555
Mn1 O8 1.968999 1_555
Mn1 O7 1.981097 1_555
Mn1 O4 1.987009 1_555
Mn1 O11 1.994311 1_545
Co0 O12 1.912638 1_555
Co0 O5 1.932214 1_555
Co0 O1 1.935695 1_655
Co0 O8 1.967241 1_555
Co0 O15 2.091988 1_555
Co0 O6 2.181651 1_555
Co1 O9 1.880823 1_554
Co1 O7 1.943970 1_565
Co1 O2 1.946272 1_564
Co1 O13 1.972728 1_555
Co1 O0 2.160072 1_564
Co1 O11 2.167493 1_555
Co2 O12 1.912515 1_555
Co2 O5 1.913796 1_555
Co2 O14 1.939159 1_555
Co2 O0 1.987484 1_565
Co2 O3 2.101791 1_555
Co2 O9 2.193328 1_555
Co3 O1 1.855031 1_555
Co3 O13 1.962911 1_545
Co3 O8 1.968149 1_455
Co3 O7 1.980717 1_555
Co3 O10 2.077668 1_555
Co3 O4 2.223957 1_455
Co4 O3 1.864978 1_655
Co4 O15 1.882953 1_555
Co4 O9 1.950228 1_555
Co4 O2 1.986259 1_565
Co4 O5 2.186244 1_555
Co4 O14 2.234189 1_655
