# generated using pymatgen
data_La2MnSb4
_symmetry_space_group_name_H-M   'P 1'
_cell_length_a   4.47777400
_cell_length_b   4.47777400
_cell_length_c   10.23423200
_cell_angle_alpha   90.00000000
_cell_angle_beta   90.00000000
_cell_angle_gamma   90.00000000
_symmetry_Int_Tables_number   1
_chemical_formula_structural   La2MnSb4
_chemical_formula_sum   'La2 Mn1 Sb4'
_cell_volume   205.20105930
_cell_formula_units_Z   1
loop_
 _symmetry_equiv_pos_site_id
 _symmetry_equiv_pos_as_xyz
  1  'x, y, z'
loop_
 _atom_site_type_symbol
 _atom_site_label
 _atom_site_symmetry_multiplicity
 _atom_site_fract_x
 _atom_site_fract_y
 _atom_site_fract_z
 _atom_site_occupancy
  La  La0  1  0.50000000  0.00000000  0.74916100  1
  La  La1  1  0.00000000  0.50000000  0.25083900  1
  Mn  Mn0  1  0.50000000  0.50000000  0.00000000  1
  Sb  Sb0  1  0.50000000  0.00000000  0.14122100  1
  Sb  Sb1  1  0.00000000  0.50000000  0.85877900  1
  Sb  Sb2  1  0.50000000  0.50000000  0.50000000  1
  Sb  Sb3  1  0.00000000  0.00000000  0.50000000  1
loop_
_geom_bond_atom_site_label_1
_geom_bond_atom_site_label_2
_geom_bond_distance
_geom_bond_site_symmetry_2
La0 Sb1 3.359135 1_555
La0 Sb1 3.359135 1_655
La0 Sb1 3.359135 1_545
La0 Sb1 3.359135 1_645
La0 Sb2 3.393371 1_555
La0 Sb3 3.393371 1_555
La0 Sb2 3.393371 1_545
La0 Sb3 3.393371 1_655
La0 Mn0 3.406295 1_556
La0 Mn0 3.406295 1_546
La1 Sb0 3.359135 1_455
La1 Sb0 3.359135 1_555
La1 Sb0 3.359135 1_565
La1 Sb0 3.359135 1_465
La1 Sb3 3.393371 1_565
La1 Sb2 3.393371 1_455
La1 Sb3 3.393371 1_555
La1 Sb2 3.393371 1_555
La1 Mn0 3.406295 1_455
La1 Mn0 3.406295 1_555
Mn0 Sb1 2.664859 1_654
Mn0 Sb0 2.664859 1_565
Mn0 Sb0 2.664859 1_555
Mn0 Sb1 2.664859 1_554
Sb2 Sb3 3.166264 1_665
Sb2 Sb3 3.166264 1_555
Sb2 Sb3 3.166264 1_565
Sb2 Sb3 3.166264 1_655
