# generated using pymatgen
data_Mg3Si2O9
_symmetry_space_group_name_H-M   'P 1'
_cell_length_a   5.40706196
_cell_length_b   5.40706196
_cell_length_c   14.21014300
_cell_angle_alpha   90.00000000
_cell_angle_beta   90.00000000
_cell_angle_gamma   119.99999945
_symmetry_Int_Tables_number   1
_chemical_formula_structural   Mg3Si2O9
_chemical_formula_sum   'Mg6 Si4 O18'
_cell_volume   359.79222498
_cell_formula_units_Z   2
loop_
 _symmetry_equiv_pos_site_id
 _symmetry_equiv_pos_as_xyz
  1  'x, y, z'
loop_
 _atom_site_type_symbol
 _atom_site_label
 _atom_site_symmetry_multiplicity
 _atom_site_fract_x
 _atom_site_fract_y
 _atom_site_fract_z
 _atom_site_occupancy
  Mg  Mg0  1  0.66685100  0.97629000  0.92467800  1
  Mg  Mg1  1  0.30943900  0.33314900  0.92467800  1
  Mg  Mg2  1  0.33314900  0.02371000  0.42467800  1
  Mg  Mg3  1  0.02371000  0.69056100  0.92467800  1
  Mg  Mg4  1  0.69056100  0.66685100  0.42467800  1
  Mg  Mg5  1  0.97629000  0.30943900  0.42467800  1
  Si  Si0  1  0.00000000  0.00000000  0.62447100  1
  Si  Si1  1  0.00000000  0.00000000  0.12447100  1
  Si  Si2  1  0.66666700  0.33333300  0.62509900  1
  Si  Si3  1  0.33333300  0.66666700  0.12509900  1
  O  O0  1  0.81249000  0.14485800  0.66163900  1
  O  O1  1  0.33236700  0.18751000  0.66163900  1
  O  O2  1  0.18751000  0.85514200  0.16163900  1
  O  O3  1  0.85514200  0.66763300  0.66163900  1
  O  O4  1  0.66763300  0.81249000  0.16163900  1
  O  O5  1  0.14485800  0.33236700  0.16163900  1
  O  O6  1  0.00000000  0.00000000  0.00829100  1
  O  O7  1  0.00000000  0.00000000  0.50829100  1
  O  O8  1  0.66666700  0.33333300  0.97800700  1
  O  O9  1  0.33333300  0.66666700  0.47800700  1
  O  O10  1  0.66595500  0.63866700  0.86041900  1
  O  O11  1  0.97271200  0.33404500  0.86041900  1
  O  O12  1  0.33404500  0.36133300  0.36041900  1
  O  O13  1  0.36133300  0.02728800  0.86041900  1
  O  O14  1  0.02728800  0.66595500  0.36041900  1
  O  O15  1  0.63866700  0.97271200  0.36041900  1
  O  O16  1  0.66666700  0.33333300  0.50892400  1
  O  O17  1  0.33333300  0.66666700  0.00892400  1
loop_
_geom_bond_atom_site_label_1
_geom_bond_atom_site_label_2
_geom_bond_distance
_geom_bond_site_symmetry_2
Mg0 O13 2.023443 1_565
Mg0 O11 2.027726 1_565
Mg0 O10 2.039022 1_555
Mg0 O8 2.074425 1_565
Mg0 O6 2.107628 1_666
Mg0 O17 2.113987 1_556
Mg1 O10 2.023443 1_555
Mg1 O13 2.027726 1_555
Mg1 O11 2.039022 1_455
Mg1 O8 2.074430 1_555
Mg1 O6 2.107628 1_556
Mg1 O17 2.113989 1_556
Mg2 O15 2.023443 1_545
Mg2 O14 2.027726 1_545
Mg2 O12 2.039022 1_555
Mg2 O9 2.074425 1_545
Mg2 O7 2.107628 1_555
Mg2 O16 2.113987 1_555
Mg3 O11 2.023443 1_455
Mg3 O10 2.027726 1_455
Mg3 O13 2.039022 1_565
Mg3 O8 2.074428 1_455
Mg3 O6 2.107628 1_566
Mg3 O17 2.113984 1_556
Mg4 O12 2.023443 1_555
Mg4 O15 2.027726 1_555
Mg4 O14 2.039022 1_655
Mg4 O9 2.074430 1_555
Mg4 O7 2.107628 1_665
Mg4 O16 2.113989 1_555
Mg5 O14 2.023443 1_655
Mg5 O12 2.027726 1_655
Mg5 O15 2.039022 1_545
Mg5 O9 2.074428 1_655
Mg5 O7 2.107628 1_655
Mg5 O16 2.113984 1_555
O0 Si0 1.647580 1_655
O0 Si2 1.653296 1_555
O1 Si0 1.647576 1_555
O1 Si2 1.653305 1_555
O2 Si1 1.647580 1_565
O2 Si3 1.653296 1_555
O3 Si0 1.647576 1_665
O3 Si2 1.653304 1_555
O4 Si1 1.647576 1_665
O4 Si3 1.653305 1_555
O5 Si1 1.647576 1_555
O5 Si3 1.653304 1_555
O6 Si1 1.650934 1_555
O7 Si0 1.650934 1_555
O16 Si2 1.650863 1_555
O17 Si3 1.650863 1_555
