# generated using pymatgen
data_Zr3(MnGa3)2
_symmetry_space_group_name_H-M   'P 1'
_cell_length_a   5.40315800
_cell_length_b   7.71834300
_cell_length_c   8.75473200
_cell_angle_alpha   90.00000000
_cell_angle_beta   90.00000000
_cell_angle_gamma   90.00000000
_symmetry_Int_Tables_number   1
_chemical_formula_structural   Zr3(MnGa3)2
_chemical_formula_sum   'Zr6 Mn4 Ga12'
_cell_volume   365.10232448
_cell_formula_units_Z   2
loop_
 _symmetry_equiv_pos_site_id
 _symmetry_equiv_pos_as_xyz
  1  'x, y, z'
loop_
 _atom_site_type_symbol
 _atom_site_label
 _atom_site_symmetry_multiplicity
 _atom_site_fract_x
 _atom_site_fract_y
 _atom_site_fract_z
 _atom_site_occupancy
  Zr  Zr0  1  0.50000000  0.15293700  0.78069400  1
  Zr  Zr1  1  0.50000000  0.15293700  0.21930600  1
  Zr  Zr2  1  0.00000000  0.84706300  0.71930600  1
  Zr  Zr3  1  0.00000000  0.84706300  0.28069400  1
  Zr  Zr4  1  0.50000000  0.71990000  0.50000000  1
  Zr  Zr5  1  0.00000000  0.28010000  0.00000000  1
  Mn  Mn0  1  0.25000000  0.50000000  0.25000000  1
  Mn  Mn1  1  0.25000000  0.50000000  0.75000000  1
  Mn  Mn2  1  0.75000000  0.50000000  0.25000000  1
  Mn  Mn3  1  0.75000000  0.50000000  0.75000000  1
  Ga  Ga0  1  0.50000000  0.76392800  0.18694200  1
  Ga  Ga1  1  0.50000000  0.76392800  0.81305800  1
  Ga  Ga2  1  0.00000000  0.23607200  0.31305800  1
  Ga  Ga3  1  0.00000000  0.23607200  0.68694200  1
  Ga  Ga4  1  0.50000000  0.36749100  0.50000000  1
  Ga  Ga5  1  0.00000000  0.63250900  0.00000000  1
  Ga  Ga6  1  0.00000000  0.56391000  0.50000000  1
  Ga  Ga7  1  0.50000000  0.43609000  0.00000000  1
  Ga  Ga8  1  0.26032100  0.04350900  0.50000000  1
  Ga  Ga9  1  0.73967900  0.04350900  0.50000000  1
  Ga  Ga10  1  0.23967900  0.95649100  0.00000000  1
  Ga  Ga11  1  0.76032100  0.95649100  0.00000000  1
loop_
_geom_bond_atom_site_label_1
_geom_bond_atom_site_label_2
_geom_bond_distance
_geom_bond_site_symmetry_2
Mn0 Mn2 2.701579 1_455
Mn0 Mn2 2.701579 1_555
Mn0 Zr3 3.012067 1_555
Mn0 Zr1 3.012067 1_555
Mn0 Zr5 3.081504 1_555
Mn0 Zr4 3.081504 1_555
Mn1 Mn3 2.701579 1_455
Mn1 Mn3 2.701579 1_555
Mn1 Zr2 3.012067 1_555
Mn1 Zr0 3.012067 1_555
Mn1 Zr5 3.081504 1_556
Mn1 Zr4 3.081504 1_555
Mn2 Zr1 3.012067 1_555
Mn2 Zr3 3.012067 1_655
Mn2 Zr5 3.081504 1_655
Mn2 Zr4 3.081504 1_555
Mn3 Zr0 3.012067 1_555
Mn3 Zr2 3.012067 1_655
Mn3 Zr5 3.081504 1_656
Mn3 Zr4 3.081504 1_555
Ga0 Mn2 2.505817 1_555
Ga0 Mn0 2.505817 1_555
Ga0 Ga11 2.620293 1_555
Ga0 Ga10 2.620293 1_555
Ga0 Zr4 2.761726 1_555
Ga0 Zr3 2.895502 1_555
Ga0 Zr3 2.895502 1_655
Ga0 Zr1 3.015844 1_565
Ga1 Mn3 2.505817 1_555
Ga1 Mn1 2.505817 1_555
Ga1 Ga11 2.620293 1_556
Ga1 Ga10 2.620293 1_556
Ga1 Zr4 2.761726 1_555
Ga1 Zr2 2.895502 1_555
Ga1 Zr2 2.895502 1_655
Ga1 Zr0 3.015844 1_565
Ga2 Mn0 2.505817 1_555
Ga2 Mn2 2.505817 1_455
Ga2 Ga8 2.620293 1_555
Ga2 Ga9 2.620293 1_455
Ga2 Zr5 2.761726 1_555
Ga2 Zr1 2.895502 1_555
Ga2 Zr1 2.895502 1_455
Ga2 Zr3 3.015844 1_545
Ga3 Mn3 2.505817 1_455
Ga3 Mn1 2.505817 1_555
Ga3 Ga8 2.620293 1_555
Ga3 Ga9 2.620293 1_455
Ga3 Zr5 2.761726 1_556
Ga3 Zr0 2.895502 1_455
Ga3 Zr0 2.895502 1_555
Ga3 Zr2 3.015844 1_545
Ga4 Zr4 2.720014 1_555
Ga4 Mn1 2.767848 1_555
Ga4 Mn2 2.767848 1_555
Ga4 Mn3 2.767848 1_555
Ga4 Mn0 2.767848 1_555
Ga4 Ga9 2.816045 1_555
Ga4 Ga8 2.816045 1_555
Ga4 Zr0 2.963302 1_555
Ga4 Zr1 2.963302 1_555
Ga5 Zr5 2.720014 1_555
Ga5 Mn3 2.767848 1_454
Ga5 Mn0 2.767848 1_555
Ga5 Mn1 2.767848 1_554
Ga5 Mn2 2.767848 1_455
Ga5 Zr2 2.963302 1_554
Ga5 Zr3 2.963302 1_555
Ga6 Mn1 2.618834 1_555
Ga6 Mn2 2.618834 1_455
Ga6 Mn3 2.618834 1_455
Ga6 Mn0 2.618834 1_555
Ga6 Zr2 2.909047 1_555
Ga6 Zr3 2.909047 1_555
Ga6 Zr4 2.957720 1_455
Ga6 Zr4 2.957720 1_555
Ga7 Mn0 2.618834 1_555
Ga7 Mn1 2.618834 1_554
Ga7 Mn2 2.618834 1_555
Ga7 Mn3 2.618834 1_554
Ga7 Zr0 2.909047 1_554
Ga7 Zr1 2.909047 1_555
Ga7 Zr5 2.957720 1_555
Ga7 Zr5 2.957720 1_655
Ga8 Ga9 2.590047 1_555
Ga8 Ga9 2.813111 1_455
Ga8 Zr4 2.813488 1_545
Ga8 Zr3 2.821992 1_545
Ga8 Zr2 2.821992 1_545
Ga8 Zr0 2.903318 1_555
Ga8 Zr1 2.903318 1_555
Ga9 Zr4 2.813488 1_545
Ga9 Zr2 2.821992 1_645
Ga9 Zr3 2.821992 1_645
Ga9 Zr0 2.903318 1_555
Ga9 Zr1 2.903318 1_555
Ga10 Ga11 2.590047 1_455
Ga10 Ga11 2.813111 1_555
Ga10 Zr5 2.813488 1_565
Ga10 Ga5 2.816045 1_555
Ga10 Zr0 2.821992 1_564
Ga10 Zr1 2.821992 1_565
Ga10 Zr2 2.903318 1_554
Ga10 Zr3 2.903318 1_555
Ga11 Zr5 2.813488 1_665
Ga11 Ga5 2.816045 1_655
Ga11 Zr1 2.821992 1_565
Ga11 Zr0 2.821992 1_564
Ga11 Zr2 2.903318 1_654
Ga11 Zr3 2.903318 1_655
