# generated using pymatgen
data_Ca3N2
_symmetry_space_group_name_H-M   'P 1'
_cell_length_a   6.57503857
_cell_length_b   6.57503757
_cell_length_c   6.57503773
_cell_angle_alpha   56.04671973
_cell_angle_beta   56.04673021
_cell_angle_gamma   56.04673457
_symmetry_Int_Tables_number   1
_chemical_formula_structural   Ca3N2
_chemical_formula_sum   'Ca6 N4'
_cell_volume   182.58832953
_cell_formula_units_Z   2
loop_
 _symmetry_equiv_pos_site_id
 _symmetry_equiv_pos_as_xyz
  1  'x, y, z'
loop_
 _atom_site_type_symbol
 _atom_site_label
 _atom_site_symmetry_multiplicity
 _atom_site_fract_x
 _atom_site_fract_y
 _atom_site_fract_z
 _atom_site_occupancy
  Ca  Ca0  1  0.75000000  0.45067741  0.04932259  1
  Ca  Ca1  1  0.04932259  0.75000000  0.45067741  1
  Ca  Ca2  1  0.45067741  0.04932259  0.75000000  1
  Ca  Ca3  1  0.95067741  0.25000000  0.54932259  1
  Ca  Ca4  1  0.25000000  0.54932259  0.95067741  1
  Ca  Ca5  1  0.54932259  0.95067741  0.25000000  1
  N  N0  1  0.85365565  0.85365565  0.85365565  1
  N  N1  1  0.64634435  0.64634435  0.64634435  1
  N  N2  1  0.14634535  0.14634535  0.14634535  1
  N  N3  1  0.35365565  0.35365565  0.35365565  1
loop_
_geom_bond_atom_site_label_1
_geom_bond_atom_site_label_2
_geom_bond_distance
_geom_bond_site_symmetry_2
Ca0 N3 2.410047 1_555
Ca0 N2 2.410055 1_655
Ca0 N0 2.523889 1_554
Ca0 N1 2.523889 1_554
Ca1 N3 2.410047 1_555
Ca1 N2 2.410054 1_565
Ca1 N0 2.523889 1_455
Ca1 N1 2.523889 1_455
Ca2 N3 2.410047 1_555
Ca2 N2 2.410055 1_556
Ca2 N1 2.523889 1_545
Ca2 N0 2.523889 1_545
Ca3 N0 2.410047 1_545
Ca3 N1 2.410047 1_555
Ca3 N2 2.523878 1_655
Ca3 N3 2.523889 1_655
Ca4 N1 2.410047 1_555
Ca4 N0 2.410048 1_455
Ca4 N2 2.523877 1_556
Ca4 N3 2.523889 1_556
Ca5 N1 2.410047 1_555
Ca5 N0 2.410047 1_554
Ca5 N2 2.523878 1_565
Ca5 N3 2.523889 1_565
