# generated using pymatgen
data_Ni2ClO3
_symmetry_space_group_name_H-M   'P 1'
_cell_length_a   5.74841300
_cell_length_b   6.30401800
_cell_length_c   8.30613600
_cell_angle_alpha   90.00000000
_cell_angle_beta   90.00000000
_cell_angle_gamma   90.00000000
_symmetry_Int_Tables_number   1
_chemical_formula_structural   Ni2ClO3
_chemical_formula_sum   'Ni8 Cl4 O12'
_cell_volume   300.99857887
_cell_formula_units_Z   4
loop_
 _symmetry_equiv_pos_site_id
 _symmetry_equiv_pos_as_xyz
  1  'x, y, z'
loop_
 _atom_site_type_symbol
 _atom_site_label
 _atom_site_symmetry_multiplicity
 _atom_site_fract_x
 _atom_site_fract_y
 _atom_site_fract_z
 _atom_site_occupancy
  Ni  Ni0  1  0.50000000  0.00000000  0.50000000  1
  Ni  Ni1  1  0.00000000  0.50000000  0.00000000  1
  Ni  Ni2  1  0.50000000  0.50000000  0.50000000  1
  Ni  Ni3  1  0.00000000  0.00000000  0.00000000  1
  Ni  Ni4  1  0.29810300  0.75000000  0.75404900  1
  Ni  Ni5  1  0.79810300  0.75000000  0.74595100  1
  Ni  Ni6  1  0.70189700  0.25000000  0.24595100  1
  Ni  Ni7  1  0.20189700  0.25000000  0.25404900  1
  Cl  Cl0  1  0.32436200  0.75000000  0.02951300  1
  Cl  Cl1  1  0.82436200  0.75000000  0.47048700  1
  Cl  Cl2  1  0.67563800  0.25000000  0.97048700  1
  Cl  Cl3  1  0.17563800  0.25000000  0.52951300  1
  O  O0  1  0.31000200  0.75000000  0.52442300  1
  O  O1  1  0.81000200  0.75000000  0.97557700  1
  O  O2  1  0.68999800  0.25000000  0.47557700  1
  O  O3  1  0.18999800  0.25000000  0.02442300  1
  O  O4  1  0.04428400  0.94676800  0.77411800  1
  O  O5  1  0.54428400  0.55323200  0.72588200  1
  O  O6  1  0.95571600  0.44676800  0.22588200  1
  O  O7  1  0.45571600  0.05323200  0.27411800  1
  O  O8  1  0.95571600  0.05323200  0.22588200  1
  O  O9  1  0.45571600  0.44676800  0.27411800  1
  O  O10  1  0.04428400  0.55323200  0.77411800  1
  O  O11  1  0.54428400  0.94676800  0.72588200  1
loop_
_geom_bond_atom_site_label_1
_geom_bond_atom_site_label_2
_geom_bond_distance
_geom_bond_site_symmetry_2
Ni0 O11 1.922905 1_545
Ni0 O7 1.922905 1_555
Ni0 O0 1.928164 1_545
Ni0 O2 1.928164 1_555
Ni1 O6 1.922905 1_455
Ni1 O10 1.922905 1_554
Ni1 O3 1.928164 1_555
Ni1 O1 1.928164 1_454
Ni2 O5 1.922905 1_555
Ni2 O9 1.922905 1_555
Ni2 O0 1.928164 1_555
Ni2 O2 1.928164 1_555
Ni3 O8 1.922905 1_455
Ni3 O4 1.922905 1_544
Ni3 O3 1.928164 1_555
Ni3 O1 1.928164 1_444
Ni4 O11 1.896326 1_555
Ni4 O5 1.896326 1_555
Ni4 O0 1.908531 1_555
Ni4 O4 1.922316 1_555
Ni4 O10 1.922316 1_555
Ni5 O4 1.896326 1_655
Ni5 O10 1.896326 1_655
Ni5 O1 1.908531 1_555
Ni5 O11 1.922316 1_555
Ni5 O5 1.922316 1_555
Ni6 O9 1.896326 1_555
Ni6 O7 1.896326 1_555
Ni6 O2 1.908531 1_555
Ni6 O6 1.922316 1_555
Ni6 O8 1.922316 1_555
Ni7 O6 1.896326 1_455
Ni7 O8 1.896326 1_455
Ni7 O3 1.908531 1_555
Ni7 O9 1.922316 1_555
Ni7 O7 1.922316 1_555
Cl0 Ni4 2.293015 1_554
Cl0 Ni3 2.453669 1_565
Cl0 Ni1 2.453669 1_555
Cl1 Ni5 2.293015 1_555
Cl1 Ni0 2.453669 1_565
Cl1 Ni2 2.453669 1_555
Cl2 Ni6 2.293015 1_556
Cl2 Ni3 2.453669 1_656
Cl2 Ni1 2.453669 1_656
Cl3 Ni7 2.293015 1_555
Cl3 Ni2 2.453669 1_555
Cl3 Ni0 2.453669 1_555
