# generated using pymatgen
data_Pr2TiO5
_symmetry_space_group_name_H-M   'P 1'
_cell_length_a   3.87545844
_cell_length_b   10.86849022
_cell_length_c   11.49881868
_cell_angle_alpha   90.00000000
_cell_angle_beta   90.00000000
_cell_angle_gamma   90.00000000
_symmetry_Int_Tables_number   1
_chemical_formula_structural   Pr2TiO5
_chemical_formula_sum   'Pr8 Ti4 O20'
_cell_volume   484.33463711
_cell_formula_units_Z   4
loop_
 _symmetry_equiv_pos_site_id
 _symmetry_equiv_pos_as_xyz
  1  'x, y, z'
loop_
 _atom_site_type_symbol
 _atom_site_label
 _atom_site_symmetry_multiplicity
 _atom_site_fract_x
 _atom_site_fract_y
 _atom_site_fract_z
 _atom_site_occupancy
  Pr  Pr0  1  0.25000000  0.13745736  0.94281402  1
  Pr  Pr1  1  0.25000000  0.63745736  0.55718598  1
  Pr  Pr2  1  0.75000000  0.86254264  0.05718598  1
  Pr  Pr3  1  0.75000000  0.36254264  0.44281402  1
  Pr  Pr4  1  0.75000000  0.39789540  0.78161460  1
  Pr  Pr5  1  0.75000000  0.89789540  0.71838540  1
  Pr  Pr6  1  0.25000000  0.60210460  0.21838540  1
  Pr  Pr7  1  0.25000000  0.10210460  0.28161460  1
  Ti  Ti0  1  0.25000000  0.18651533  0.62564544  1
  Ti  Ti1  1  0.25000000  0.68651533  0.87435456  1
  Ti  Ti2  1  0.75000000  0.81348467  0.37435456  1
  Ti  Ti3  1  0.75000000  0.31348467  0.12564544  1
  O  O0  1  0.25000000  0.22347097  0.46538652  1
  O  O1  1  0.25000000  0.72347097  0.03461348  1
  O  O2  1  0.75000000  0.77652903  0.53461348  1
  O  O3  1  0.75000000  0.27652903  0.96538652  1
  O  O4  1  0.25000000  0.49062055  0.39669804  1
  O  O5  1  0.25000000  0.99062055  0.10330196  1
  O  O6  1  0.75000000  0.50937945  0.60330196  1
  O  O7  1  0.75000000  0.00937945  0.89669804  1
  O  O8  1  0.25000000  0.26283184  0.12276296  1
  O  O9  1  0.25000000  0.76283184  0.37723704  1
  O  O10  1  0.75000000  0.73716816  0.87723704  1
  O  O11  1  0.75000000  0.23716816  0.62276296  1
  O  O12  1  0.25000000  0.02720803  0.66211089  1
  O  O13  1  0.25000000  0.52720803  0.83788911  1
  O  O14  1  0.75000000  0.97279197  0.33788911  1
  O  O15  1  0.75000000  0.47279197  0.16211089  1
  O  O16  1  0.25000000  0.27122936  0.77063890  1
  O  O17  1  0.25000000  0.77122936  0.72936110  1
  O  O18  1  0.75000000  0.72877064  0.22936110  1
  O  O19  1  0.75000000  0.22877064  0.27063890  1
loop_
_geom_bond_atom_site_label_1
_geom_bond_atom_site_label_2
_geom_bond_distance
_geom_bond_site_symmetry_2
O0 Ti0 1.886052 1_555
O0 Pr3 2.471193 1_455
O0 Pr3 2.471193 1_555
O0 Pr7 2.491062 1_555
O1 Ti1 1.886052 1_554
O1 Pr2 2.471193 1_555
O1 Pr2 2.471193 1_455
O1 Pr6 2.491062 1_555
O2 Ti2 1.886052 1_555
O2 Pr1 2.471193 1_655
O2 Pr1 2.471193 1_555
O2 Pr5 2.491062 1_555
O3 Ti3 1.886052 1_556
O3 Pr0 2.471193 1_555
O3 Pr0 2.471193 1_655
O3 Pr4 2.491062 1_555
O4 Pr6 2.381639 1_555
O4 Pr1 2.439766 1_555
O4 Pr3 2.444114 1_555
O4 Pr3 2.444114 1_455
O5 Pr7 2.381639 1_565
O5 Pr0 2.439766 1_564
O5 Pr2 2.444114 1_555
O5 Pr2 2.444114 1_455
O6 Pr4 2.381639 1_555
O6 Pr3 2.439766 1_555
O6 Pr1 2.444114 1_655
O6 Pr1 2.444114 1_555
O7 Pr5 2.381639 1_545
O7 Pr2 2.439766 1_546
O7 Pr0 2.444114 1_555
O7 Pr0 2.444114 1_655
O8 Ti3 2.014687 1_555
O8 Ti3 2.014687 1_455
O8 Pr0 2.477570 1_554
O8 Pr7 2.527453 1_555
O9 Ti2 2.014687 1_555
O9 Ti2 2.014687 1_455
O9 Pr1 2.477570 1_555
O9 Pr6 2.527453 1_555
O10 Ti1 2.014687 1_655
O10 Ti1 2.014687 1_555
O10 Pr2 2.477570 1_556
O10 Pr5 2.527453 1_555
O11 Ti0 2.014687 1_655
O11 Ti0 2.014687 1_555
O11 Pr3 2.477570 1_555
O11 Pr4 2.527453 1_555
O12 Ti0 1.781480 1_555
O12 Pr5 2.479670 1_445
O12 Pr5 2.479670 1_545
O13 Ti1 1.781480 1_555
O13 Pr4 2.479670 1_455
O13 Pr4 2.479670 1_555
O14 Ti2 1.781480 1_555
O14 Pr7 2.479670 1_565
O14 Pr7 2.479670 1_665
O15 Ti3 1.781480 1_555
O15 Pr6 2.479670 1_655
O15 Pr6 2.479670 1_555
O16 Ti0 1.904586 1_555
O16 Pr4 2.380323 1_555
O16 Pr4 2.380323 1_455
O16 Pr0 2.456313 1_555
O17 Ti1 1.904586 1_555
O17 Pr5 2.380323 1_555
O17 Pr5 2.380323 1_455
O17 Pr1 2.456313 1_555
O18 Ti2 1.904586 1_555
O18 Pr6 2.380323 1_555
O18 Pr6 2.380323 1_655
O18 Pr2 2.456313 1_555
O19 Ti3 1.904586 1_555
O19 Pr7 2.380323 1_555
O19 Pr7 2.380323 1_655
O19 Pr3 2.456313 1_555
