# generated using pymatgen
data_Mo2W(SeS2)2
_symmetry_space_group_name_H-M   'P 1'
_cell_length_a   3.23096185
_cell_length_b   3.23096185
_cell_length_c   29.65828700
_cell_angle_alpha   90.00000000
_cell_angle_beta   90.00000000
_cell_angle_gamma   119.99999697
_symmetry_Int_Tables_number   1
_chemical_formula_structural   Mo2W(SeS2)2
_chemical_formula_sum   'Mo2 W1 Se2 S4'
_cell_volume   268.12688895
_cell_formula_units_Z   1
loop_
 _symmetry_equiv_pos_site_id
 _symmetry_equiv_pos_as_xyz
  1  'x, y, z'
loop_
 _atom_site_type_symbol
 _atom_site_label
 _atom_site_symmetry_multiplicity
 _atom_site_fract_x
 _atom_site_fract_y
 _atom_site_fract_z
 _atom_site_occupancy
  Mo  Mo0  1  0.33333300  0.66666700  0.11564300  1
  Mo  Mo1  1  0.33333300  0.66666700  0.57832600  1
  W  W0  1  0.66666700  0.33333300  0.34696400  1
  Se  Se0  1  0.66666700  0.33333300  0.52077400  1
  Se  Se1  1  0.66666700  0.33333300  0.63589100  1
  S  S0  1  0.33333300  0.66666700  0.39952100  1
  S  S1  1  0.66666700  0.33333300  0.06326200  1
  S  S2  1  0.66666700  0.33333300  0.16803000  1
  S  S3  1  0.33333300  0.66666700  0.29443100  1
loop_
_geom_bond_atom_site_label_1
_geom_bond_atom_site_label_2
_geom_bond_distance
_geom_bond_site_symmetry_2
Mo0 S1 2.427582 1_455
Mo0 S1 2.427582 1_565
Mo0 S1 2.427587 1_555
Mo0 S2 2.427696 1_455
Mo0 S2 2.427696 1_565
Mo0 S2 2.427700 1_555
Mo1 Se0 2.528475 1_455
Mo1 Se0 2.528475 1_565
Mo1 Se0 2.528479 1_555
Mo1 Se1 2.528735 1_455
Mo1 Se1 2.528735 1_565
Mo1 Se1 2.528739 1_555
S0 W0 2.430926 1_455
S0 W0 2.430926 1_565
S0 W0 2.430930 1_555
S3 W0 2.430470 1_455
S3 W0 2.430470 1_565
S3 W0 2.430474 1_555
