# generated using pymatgen
data_NbNi2
_symmetry_space_group_name_H-M   'P 1'
_cell_length_a   4.79273158
_cell_length_b   4.79273158
_cell_length_c   4.79273158
_cell_angle_alpha   60.00000000
_cell_angle_beta   60.00000000
_cell_angle_gamma   60.00000000
_symmetry_Int_Tables_number   1
_chemical_formula_structural   NbNi2
_chemical_formula_sum   'Nb2 Ni4'
_cell_volume   77.84564513
_cell_formula_units_Z   2
loop_
 _symmetry_equiv_pos_site_id
 _symmetry_equiv_pos_as_xyz
  1  'x, y, z'
loop_
 _atom_site_type_symbol
 _atom_site_label
 _atom_site_symmetry_multiplicity
 _atom_site_fract_x
 _atom_site_fract_y
 _atom_site_fract_z
 _atom_site_occupancy
  Nb  Nb0  1  0.25000000  0.25000000  0.25000000  1
  Nb  Nb1  1  0.00000000  0.00000000  0.00000000  1
  Ni  Ni0  1  0.62500000  0.62500000  0.12500000  1
  Ni  Ni1  1  0.62500000  0.12500000  0.62500000  1
  Ni  Ni2  1  0.12500000  0.62500000  0.62500000  1
  Ni  Ni3  1  0.62500000  0.62500000  0.62500000  1
loop_
_geom_bond_atom_site_label_1
_geom_bond_atom_site_label_2
_geom_bond_distance
_geom_bond_site_symmetry_2
Nb0 Ni3 2.809988 1_554
Nb0 Ni2 2.809988 1_555
Nb0 Ni1 2.809988 1_554
Nb0 Ni0 2.809988 1_455
Nb0 Ni2 2.809988 1_545
Nb0 Ni1 2.809988 1_455
Nb0 Ni0 2.809988 1_555
Nb0 Ni2 2.809988 1_554
Nb0 Ni1 2.809988 1_555
Nb0 Ni3 2.809988 1_545
Nb0 Ni0 2.809988 1_545
Nb0 Ni3 2.809988 1_455
Nb0 Nb1 2.934937 1_556
Nb0 Nb1 2.934937 1_555
Nb0 Nb1 2.934937 1_565
Nb0 Nb1 2.934937 1_655
Nb1 Ni0 2.809988 1_445
Nb1 Ni2 2.809988 1_544
Nb1 Ni0 2.809988 1_455
Nb1 Ni1 2.809988 1_554
Nb1 Ni2 2.809988 1_545
Nb1 Ni3 2.809988 1_445
Nb1 Ni3 2.809988 1_544
Nb1 Ni3 2.809988 1_454
Nb1 Ni2 2.809988 1_554
Nb1 Ni1 2.809988 1_455
Nb1 Ni1 2.809988 1_454
Nb1 Ni0 2.809988 1_545
Ni0 Ni3 2.396366 1_554
Ni0 Ni1 2.396366 1_564
Ni0 Ni2 2.396366 1_654
Ni0 Ni3 2.396366 1_555
Ni0 Ni1 2.396366 1_555
Ni0 Ni2 2.396366 1_555
Ni1 Ni3 2.396366 1_555
Ni1 Ni3 2.396366 1_545
Ni1 Ni2 2.396366 1_645
Ni1 Ni2 2.396366 1_555
Ni2 Ni3 2.396366 1_555
Ni2 Ni3 2.396366 1_455
