# generated using pymatgen
data_Lu6MnSb2
_symmetry_space_group_name_H-M   'P 1'
_cell_length_a   7.92240982
_cell_length_b   7.92243588
_cell_length_c   4.24745299
_cell_angle_alpha   90.00000000
_cell_angle_beta   90.00000000
_cell_angle_gamma   120.00017362
_symmetry_Int_Tables_number   1
_chemical_formula_structural   Lu6MnSb2
_chemical_formula_sum   'Lu6 Mn1 Sb2'
_cell_volume   230.87371440
_cell_formula_units_Z   1
loop_
 _symmetry_equiv_pos_site_id
 _symmetry_equiv_pos_as_xyz
  1  'x, y, z'
loop_
 _atom_site_type_symbol
 _atom_site_label
 _atom_site_symmetry_multiplicity
 _atom_site_fract_x
 _atom_site_fract_y
 _atom_site_fract_z
 _atom_site_occupancy
  Lu  Lu0  1  0.23694709  0.00000140  0.50000000  1
  Lu  Lu1  1  0.00000087  0.23694541  0.50000000  1
  Lu  Lu2  1  0.76305221  0.76305270  0.50000000  1
  Lu  Lu3  1  0.60414276  0.00000051  -0.00000000  1
  Lu  Lu4  1  0.00000046  0.60414194  0.00000000  1
  Lu  Lu5  1  0.39585845  0.39585839  0.00000000  1
  Mn  Mn0  1  -0.00000034  -0.00000148  -0.00000000  1
  Sb  Sb0  1  0.33332944  0.66666913  0.50000000  1
  Sb  Sb1  1  0.66667006  0.33333200  0.50000000  1
loop_
_geom_bond_atom_site_label_1
_geom_bond_atom_site_label_2
_geom_bond_distance
_geom_bond_site_symmetry_2
Lu0 Mn0 2.834437 1_555
Lu0 Mn0 2.834437 1_556
Lu0 Sb0 3.094087 1_545
Lu0 Sb1 3.094112 1_555
Lu1 Mn0 2.834442 1_556
Lu1 Mn0 2.834442 1_555
Lu1 Sb1 3.094092 1_455
Lu1 Sb0 3.094117 1_555
Lu2 Mn0 2.834439 1_665
Lu2 Mn0 2.834439 1_666
Lu2 Sb1 3.094133 1_555
Lu2 Sb0 3.094134 1_555
Lu3 Mn0 3.136148 1_655
Lu3 Sb1 3.228195 1_555
Lu3 Sb1 3.228195 1_554
Lu3 Sb0 3.228207 1_545
Lu3 Sb0 3.228207 1_544
Lu4 Mn0 3.136152 1_565
Lu4 Sb0 3.228174 1_555
Lu4 Sb0 3.228174 1_554
Lu4 Sb1 3.228194 1_454
Lu4 Sb1 3.228194 1_455
Lu5 Mn0 3.136157 1_555
Lu5 Sb1 3.228231 1_555
Lu5 Sb1 3.228231 1_554
Lu5 Sb0 3.228241 1_554
Lu5 Sb0 3.228241 1_555
