# generated using pymatgen
data_FeP3(HO)6
_symmetry_space_group_name_H-M   'P 1'
_cell_length_a   7.44840020
_cell_length_b   7.44840020
_cell_length_c   7.44840100
_cell_angle_alpha   102.28504019
_cell_angle_beta   102.28504019
_cell_angle_gamma   102.28504173
_symmetry_Int_Tables_number   1
_chemical_formula_structural   FeP3(HO)6
_chemical_formula_sum   'Fe2 P6 H12 O12'
_cell_volume   379.83527579
_cell_formula_units_Z   2
loop_
 _symmetry_equiv_pos_site_id
 _symmetry_equiv_pos_as_xyz
  1  'x, y, z'
loop_
 _atom_site_type_symbol
 _atom_site_label
 _atom_site_symmetry_multiplicity
 _atom_site_fract_x
 _atom_site_fract_y
 _atom_site_fract_z
 _atom_site_occupancy
  Fe  Fe0  1  0.00000000  0.00000000  0.00000000  1
  Fe  Fe1  1  0.50000000  0.50000000  0.50000000  1
  P  P0  1  0.42890500  0.25795900  0.04776500  1
  P  P1  1  0.25795900  0.04776500  0.42890500  1
  P  P2  1  0.04776500  0.42890500  0.25795900  1
  P  P3  1  0.57109500  0.74204100  0.95223500  1
  P  P4  1  0.74204100  0.95223500  0.57109500  1
  P  P5  1  0.95223500  0.57109500  0.74204100  1
  H  H0  1  0.56556100  0.23025000  0.94652100  1
  H  H1  1  0.23025000  0.94652100  0.56556100  1
  H  H2  1  0.94652100  0.56556100  0.23025000  1
  H  H3  1  0.43443900  0.76975000  0.05347900  1
  H  H4  1  0.76975000  0.05347900  0.43443900  1
  H  H5  1  0.05347900  0.43443900  0.76975000  1
  H  H6  1  0.33785600  0.38404300  0.97082100  1
  H  H7  1  0.38404300  0.97082100  0.33785600  1
  H  H8  1  0.97082100  0.33785600  0.38404300  1
  H  H9  1  0.66214400  0.61595700  0.02917900  1
  H  H10  1  0.61595700  0.02917900  0.66214400  1
  H  H11  1  0.02917900  0.66214400  0.61595700  1
  O  O0  1  0.28108000  0.06638900  0.00559300  1
  O  O1  1  0.06638900  0.00559300  0.28108000  1
  O  O2  1  0.00559300  0.28108000  0.06638900  1
  O  O3  1  0.71892000  0.93361100  0.99440700  1
  O  O4  1  0.93361100  0.99440700  0.71892000  1
  O  O5  1  0.99440700  0.71892000  0.93361100  1
  O  O6  1  0.54069800  0.35208800  0.25635500  1
  O  O7  1  0.35208800  0.25635500  0.54069800  1
  O  O8  1  0.25635500  0.54069800  0.35208800  1
  O  O9  1  0.45930200  0.64791200  0.74364500  1
  O  O10  1  0.64791200  0.74364500  0.45930200  1
  O  O11  1  0.74364500  0.45930200  0.64791200  1
loop_
_geom_bond_atom_site_label_1
_geom_bond_atom_site_label_2
_geom_bond_distance
_geom_bond_site_symmetry_2
Fe0 O0 2.035427 1_555
Fe0 O3 2.035427 1_444
Fe0 O2 2.035427 1_555
Fe0 O5 2.035427 1_444
Fe0 O1 2.035427 1_555
Fe0 O4 2.035427 1_444
Fe1 O7 2.030868 1_555
Fe1 O10 2.030868 1_555
Fe1 O8 2.030869 1_555
Fe1 O11 2.030869 1_555
Fe1 O9 2.030869 1_555
Fe1 O6 2.030869 1_555
H0 P0 1.413201 1_556
H1 P1 1.413201 1_565
H2 P2 1.413201 1_655
H3 P3 1.413201 1_554
H4 P4 1.413201 1_545
H5 P5 1.413201 1_455
H6 P0 1.415978 1_556
H7 P1 1.415978 1_565
H8 P2 1.415978 1_655
H9 P3 1.415978 1_554
H10 P4 1.415978 1_545
H11 P5 1.415978 1_455
O0 P0 1.529876 1_555
O1 P1 1.529877 1_555
O2 P2 1.529877 1_555
O3 P3 1.529876 1_555
O4 P4 1.529877 1_555
O5 P5 1.529877 1_555
O6 P0 1.528482 1_555
O7 P1 1.528482 1_555
O8 P2 1.528482 1_555
O9 P3 1.528482 1_555
O10 P4 1.528482 1_555
O11 P5 1.528482 1_555
