# generated using pymatgen
data_Mg14SiBO16
_symmetry_space_group_name_H-M   'P 1'
_cell_length_a   8.48102075
_cell_length_b   8.70556758
_cell_length_c   4.21784479
_cell_angle_alpha   90.00000000
_cell_angle_beta   90.00000000
_cell_angle_gamma   90.00000000
_symmetry_Int_Tables_number   1
_chemical_formula_structural   Mg14SiBO16
_chemical_formula_sum   'Mg14 Si1 B1 O16'
_cell_volume   311.41233531
_cell_formula_units_Z   1
loop_
 _symmetry_equiv_pos_site_id
 _symmetry_equiv_pos_as_xyz
  1  'x, y, z'
loop_
 _atom_site_type_symbol
 _atom_site_label
 _atom_site_symmetry_multiplicity
 _atom_site_fract_x
 _atom_site_fract_y
 _atom_site_fract_z
 _atom_site_occupancy
  Mg  Mg0  1  0.50000000  0.00000000  -0.00000000  1
  Mg  Mg1  1  0.50000000  0.50000000  -0.00000000  1
  Mg  Mg2  1  -0.00000000  0.26302324  0.50000000  1
  Mg  Mg3  1  -0.00000000  0.73697676  0.50000000  1
  Mg  Mg4  1  0.50000000  0.25295845  0.50000000  1
  Mg  Mg5  1  0.50000000  0.74704155  0.50000000  1
  Mg  Mg6  1  0.24842193  0.00000000  0.50000000  1
  Mg  Mg7  1  0.24530479  0.50000000  0.50000000  1
  Mg  Mg8  1  0.75157807  0.00000000  0.50000000  1
  Mg  Mg9  1  0.75469521  0.50000000  0.50000000  1
  Mg  Mg10  1  0.24479370  0.26075279  -0.00000000  1
  Mg  Mg11  1  0.24479370  0.73924721  -0.00000000  1
  Mg  Mg12  1  0.75520630  0.26075279  -0.00000000  1
  Mg  Mg13  1  0.75520630  0.73924721  -0.00000000  1
  Si  Si0  1  -0.00000000  0.00000000  -0.00000000  1
  B  B0  1  -0.00000000  0.50000000  -0.00000000  1
  O  O0  1  0.22714504  0.00000000  -0.00000000  1
  O  O1  1  0.26871235  0.50000000  0.00000000  1
  O  O2  1  0.77285496  0.00000000  -0.00000000  1
  O  O3  1  0.73128765  0.50000000  -0.00000000  1
  O  O4  1  0.24698569  0.24872216  0.50000000  1
  O  O5  1  0.24698569  0.75127784  0.50000000  1
  O  O6  1  0.75301431  0.24872216  0.50000000  1
  O  O7  1  0.75301431  0.75127784  0.50000000  1
  O  O8  1  -0.00000000  0.00000000  0.50000000  1
  O  O9  1  -0.00000000  0.50000000  0.50000000  1
  O  O10  1  0.50000000  0.00000000  0.50000000  1
  O  O11  1  0.50000000  0.50000000  0.50000000  1
  O  O12  1  -0.00000000  0.19265835  -0.00000000  1
  O  O13  1  -0.00000000  0.80734165  -0.00000000  1
  O  O14  1  0.50000000  0.24010122  0.00000000  1
  O  O15  1  0.50000000  0.75989878  -0.00000000  1
loop_
_geom_bond_atom_site_label_1
_geom_bond_atom_site_label_2
_geom_bond_distance
_geom_bond_site_symmetry_2
Mg0 O14 2.090217 1_555
Mg0 O15 2.090217 1_545
Mg0 O10 2.108922 1_555
Mg0 O10 2.108922 1_554
Mg0 O0 2.314089 1_555
Mg0 O2 2.314089 1_555
Mg1 O3 1.961555 1_555
Mg1 O1 1.961555 1_555
Mg1 O11 2.108922 1_554
Mg1 O11 2.108922 1_555
Mg1 O15 2.262566 1_555
Mg1 O14 2.262566 1_555
Mg2 O9 2.063017 1_555
Mg2 O4 2.098387 1_555
Mg2 O6 2.098387 1_455
Mg2 O12 2.196085 1_555
Mg2 O12 2.196085 1_556
Mg2 O8 2.289767 1_555
Mg3 O9 2.063017 1_555
Mg3 O5 2.098387 1_555
Mg3 O7 2.098387 1_455
Mg3 O13 2.196085 1_556
Mg3 O13 2.196085 1_555
Mg3 O8 2.289767 1_565
Mg4 O14 2.111891 1_556
Mg4 O14 2.111891 1_555
Mg4 O4 2.146137 1_555
Mg4 O6 2.146137 1_555
Mg4 O11 2.150637 1_555
Mg4 O10 2.202147 1_555
Mg5 O15 2.111891 1_556
Mg5 O15 2.111891 1_555
Mg5 O5 2.146137 1_555
Mg5 O7 2.146137 1_555
Mg5 O11 2.150637 1_555
Mg5 O10 2.202147 1_565
Mg6 O8 2.106872 1_555
Mg6 O0 2.116628 1_555
Mg6 O0 2.116628 1_556
Mg6 O10 2.133639 1_555
Mg6 O4 2.165302 1_555
Mg6 O5 2.165302 1_545
Mg7 O9 2.080435 1_555
Mg7 O1 2.118245 1_556
Mg7 O1 2.118245 1_555
Mg7 O11 2.160075 1_555
Mg7 O4 2.187563 1_555
Mg7 O5 2.187563 1_555
Mg8 O8 2.106872 1_655
Mg8 O2 2.116628 1_556
Mg8 O2 2.116628 1_555
Mg8 O10 2.133639 1_555
Mg8 O6 2.165302 1_555
Mg8 O7 2.165302 1_545
Mg9 O9 2.080435 1_655
Mg9 O3 2.118245 1_556
Mg9 O3 2.118245 1_555
Mg9 O11 2.160075 1_555
Mg9 O6 2.187563 1_555
Mg9 O7 2.187563 1_555
Mg10 O1 2.092638 1_555
Mg10 O4 2.111603 1_554
Mg10 O4 2.111603 1_555
Mg10 O12 2.159075 1_555
Mg10 O14 2.171864 1_555
Mg10 O0 2.274930 1_555
Mg11 O1 2.092638 1_555
Mg11 O5 2.111603 1_555
Mg11 O5 2.111603 1_554
Mg11 O13 2.159075 1_555
Mg11 O15 2.171864 1_555
Mg11 O0 2.274930 1_565
Mg12 O3 2.092638 1_555
Mg12 O6 2.111603 1_555
Mg12 O6 2.111603 1_554
Mg12 O12 2.159075 1_655
Mg12 O14 2.171864 1_555
Mg12 O2 2.274930 1_555
Mg13 O3 2.092638 1_555
Mg13 O7 2.111603 1_555
Mg13 O7 2.111603 1_554
Mg13 O13 2.159075 1_655
Mg13 O15 2.171864 1_555
Mg13 O2 2.274930 1_565
B0 O9 2.108922 1_555
B0 O9 2.108922 1_554
O0 Si0 1.926422 1_555
O2 Si0 1.926422 1_655
O8 Si0 2.108922 1_555
O8 Si0 2.108922 1_556
O12 Si0 1.677200 1_555
O13 Si0 1.677200 1_565
