# generated using pymatgen
data_Sr3Sc2N4
_symmetry_space_group_name_H-M   'P 1'
_cell_length_a   6.18763600
_cell_length_b   10.99476900
_cell_length_c   9.88290200
_cell_angle_alpha   90.00000000
_cell_angle_beta   90.00000000
_cell_angle_gamma   90.00000000
_symmetry_Int_Tables_number   1
_chemical_formula_structural   Sr3Sc2N4
_chemical_formula_sum   'Sr12 Sc8 N16'
_cell_volume   672.34991713
_cell_formula_units_Z   4
loop_
 _symmetry_equiv_pos_site_id
 _symmetry_equiv_pos_as_xyz
  1  'x, y, z'
loop_
 _atom_site_type_symbol
 _atom_site_label
 _atom_site_symmetry_multiplicity
 _atom_site_fract_x
 _atom_site_fract_y
 _atom_site_fract_z
 _atom_site_occupancy
  Sr  Sr0  1  0.61565000  0.15411800  0.41366400  1
  Sr  Sr1  1  0.88435000  0.84588200  0.41366400  1
  Sr  Sr2  1  0.61565000  0.34588200  0.08633600  1
  Sr  Sr3  1  0.88435000  0.65411800  0.08633600  1
  Sr  Sr4  1  0.38435000  0.84588200  0.58633600  1
  Sr  Sr5  1  0.11565000  0.15411800  0.58633600  1
  Sr  Sr6  1  0.38435000  0.65411800  0.91366400  1
  Sr  Sr7  1  0.11565000  0.34588200  0.91366400  1
  Sr  Sr8  1  0.75000000  0.50000000  0.40599700  1
  Sr  Sr9  1  0.75000000  0.00000000  0.09400300  1
  Sr  Sr10  1  0.25000000  0.50000000  0.59400300  1
  Sr  Sr11  1  0.25000000  0.00000000  0.90599700  1
  Sc  Sc0  1  0.75000000  0.50000000  0.73902400  1
  Sc  Sc1  1  0.75000000  0.00000000  0.76097600  1
  Sc  Sc2  1  0.25000000  0.50000000  0.26097600  1
  Sc  Sc3  1  0.25000000  0.00000000  0.23902400  1
  Sc  Sc4  1  0.65865700  0.25000000  0.75000000  1
  Sc  Sc5  1  0.84134300  0.75000000  0.75000000  1
  Sc  Sc6  1  0.34134300  0.75000000  0.25000000  1
  Sc  Sc7  1  0.15865700  0.25000000  0.25000000  1
  N  N0  1  0.88039000  0.35576700  0.62836300  1
  N  N1  1  0.61961000  0.64423300  0.62836300  1
  N  N2  1  0.88039000  0.14423300  0.87163700  1
  N  N3  1  0.61961000  0.85576700  0.87163700  1
  N  N4  1  0.11961000  0.64423300  0.37163700  1
  N  N5  1  0.38039000  0.35576700  0.37163700  1
  N  N6  1  0.11961000  0.85576700  0.12836300  1
  N  N7  1  0.38039000  0.14423300  0.12836300  1
  N  N8  1  0.50307900  0.40172000  0.83980800  1
  N  N9  1  0.99692100  0.59828000  0.83980800  1
  N  N10  1  0.50307900  0.09828000  0.66019200  1
  N  N11  1  0.99692100  0.90172000  0.66019200  1
  N  N12  1  0.49692100  0.59828000  0.16019200  1
  N  N13  1  0.00307900  0.40172000  0.16019200  1
  N  N14  1  0.49692100  0.90172000  0.33980800  1
  N  N15  1  0.00307900  0.09828000  0.33980800  1
loop_
_geom_bond_atom_site_label_1
_geom_bond_atom_site_label_2
_geom_bond_distance
_geom_bond_site_symmetry_2
N0 Sc0 2.088492 1_555
N0 Sc4 2.163284 1_555
N0 Sr5 2.684595 1_655
N0 Sr10 2.803663 1_655
N0 Sr8 2.827590 1_555
N0 Sr7 3.175065 1_655
N1 Sc0 2.088492 1_555
N1 Sc5 2.163284 1_555
N1 Sr4 2.684595 1_555
N1 Sr10 2.803663 1_555
N1 Sr8 2.827590 1_555
N1 Sr6 3.175065 1_555
N2 Sc1 2.088492 1_555
N2 Sc4 2.163284 1_555
N2 Sr7 2.684595 1_655
N2 Sr11 2.803663 1_655
N2 Sr9 2.827590 1_556
N2 Sr5 3.175065 1_655
N3 Sc1 2.088492 1_565
N3 Sc5 2.163284 1_555
N3 Sr6 2.684595 1_555
N3 Sr11 2.803663 1_565
N3 Sr9 2.827590 1_566
N3 Sr4 3.175065 1_555
N4 Sc2 2.088492 1_555
N4 Sc6 2.163284 1_555
N4 Sr1 2.684595 1_455
N4 Sr8 2.803663 1_455
N4 Sr10 2.827590 1_555
N4 Sr3 3.175065 1_455
N5 Sc2 2.088492 1_555
N5 Sc7 2.163284 1_555
N5 Sr0 2.684595 1_555
N5 Sr8 2.803663 1_555
N5 Sr10 2.827590 1_555
N5 Sr2 3.175065 1_555
N6 Sc3 2.088492 1_565
N6 Sc6 2.163284 1_555
N6 Sr3 2.684595 1_455
N6 Sr9 2.803663 1_465
N6 Sr11 2.827590 1_564
N6 Sr1 3.175065 1_455
N7 Sc3 2.088492 1_555
N7 Sc7 2.163284 1_555
N7 Sr2 2.684595 1_555
N7 Sr9 2.803663 1_555
N7 Sr11 2.827590 1_554
N7 Sr0 3.175065 1_555
N8 Sc0 2.119921 1_555
N8 Sc4 2.120644 1_555
N8 Sr7 2.580034 1_555
N8 Sr2 2.607334 1_556
N8 Sr6 2.961998 1_555
N8 Sr10 3.085643 1_555
N9 Sc0 2.119921 1_555
N9 Sc5 2.120644 1_555
N9 Sr6 2.580034 1_655
N9 Sr3 2.607334 1_556
N9 Sr7 2.961998 1_655
N9 Sr10 3.085643 1_655
N10 Sc1 2.119921 1_555
N10 Sc4 2.120644 1_555
N10 Sr5 2.580034 1_555
N10 Sr0 2.607334 1_555
N10 Sr4 2.961998 1_545
N10 Sr11 3.085643 1_555
N11 Sc1 2.119921 1_565
N11 Sc5 2.120644 1_555
N11 Sr4 2.580034 1_655
N11 Sr1 2.607334 1_555
N11 Sr5 2.961998 1_665
N11 Sr11 3.085643 1_665
N12 Sc2 2.119921 1_555
N12 Sc6 2.120644 1_555
N12 Sr3 2.580034 1_555
N12 Sr6 2.607334 1_554
N12 Sr2 2.961998 1_555
N12 Sr8 3.085643 1_555
N13 Sc2 2.119921 1_555
N13 Sc7 2.120644 1_555
N13 Sr2 2.580034 1_455
N13 Sr7 2.607334 1_554
N13 Sr3 2.961998 1_455
N13 Sr8 3.085643 1_455
N14 Sc3 2.119921 1_565
N14 Sc6 2.120644 1_555
N14 Sr1 2.580034 1_555
N14 Sr4 2.607334 1_555
N14 Sr0 2.961998 1_565
N14 Sr9 3.085643 1_565
N15 Sc3 2.119921 1_555
N15 Sc7 2.120644 1_555
N15 Sr0 2.580034 1_455
N15 Sr5 2.607334 1_555
N15 Sr1 2.961998 1_445
N15 Sr9 3.085643 1_455
