# generated using pymatgen
data_Li5V3P8O29
_symmetry_space_group_name_H-M   'P 1'
_cell_length_a   9.74126440
_cell_length_b   9.71915771
_cell_length_c   14.14069159
_cell_angle_alpha   91.49934150
_cell_angle_beta   91.40091615
_cell_angle_gamma   60.59713365
_symmetry_Int_Tables_number   1
_chemical_formula_structural   Li5V3P8O29
_chemical_formula_sum   'Li10 V6 P16 O58'
_cell_volume   1165.84243560
_cell_formula_units_Z   2
loop_
 _symmetry_equiv_pos_site_id
 _symmetry_equiv_pos_as_xyz
  1  'x, y, z'
loop_
 _atom_site_type_symbol
 _atom_site_label
 _atom_site_symmetry_multiplicity
 _atom_site_fract_x
 _atom_site_fract_y
 _atom_site_fract_z
 _atom_site_occupancy
  Li  Li0  1  0.90521185  0.32897968  0.56621574  1
  Li  Li1  1  0.75962211  0.33693867  0.05985723  1
  Li  Li2  1  0.32799053  0.90693797  0.06626940  1
  Li  Li3  1  0.67552561  0.23384397  0.43834845  1
  Li  Li4  1  0.33783395  0.76010640  0.55916626  1
  Li  Li5  1  0.65303438  0.10841202  0.93863759  1
  Li  Li6  1  0.23267559  0.67618061  0.93837742  1
  Li  Li7  1  0.10555711  0.65550896  0.43759557  1
  Li  Li8  1  0.98721560  0.99604981  0.00499925  1
  Li  Li9  1  0.99650940  0.98833315  0.50469888  1
  V  V0  1  0.56632546  0.43328854  0.25240340  1
  V  V1  1  0.43084272  0.56741420  0.75198780  1
  V  V2  1  0.56522322  0.99667975  0.74484092  1
  V  V3  1  0.43916651  0.00396720  0.25432895  1
  V  V4  1  0.99650510  0.56415623  0.24344008  1
  V  V5  1  0.00219827  0.43586148  0.75291426  1
  P  P0  1  0.91665496  0.78923155  0.83539717  1
  P  P1  1  0.79003895  0.91587016  0.33394374  1
  P  P2  1  0.91606283  0.31539613  0.35018915  1
  P  P3  1  0.66174970  0.66527849  0.13132935  1
  P  P4  1  0.66247358  0.66239020  0.63088117  1
  P  P5  1  0.77331299  0.31823271  0.83992680  1
  P  P6  1  0.68255610  0.22373038  0.65804354  1
  P  P7  1  0.31503600  0.91726311  0.85045058  1
  P  P8  1  0.68921820  0.08330583  0.15133336  1
  P  P9  1  0.31621680  0.77591513  0.34136402  1
  P  P10  1  0.22436545  0.68286023  0.15881748  1
  P  P11  1  0.33019639  0.34075092  0.36690783  1
  P  P12  1  0.34053943  0.32942257  0.86683634  1
  P  P13  1  0.08305020  0.68745175  0.65209792  1
  P  P14  1  0.21441394  0.07883653  0.66565461  1
  P  P15  1  0.07916053  0.21203424  0.16523543  1
  O  O0  1  0.01872094  0.76389950  0.55868146  1
  O  O1  1  0.92836745  0.74176165  0.33511452  1
  O  O2  1  0.76868802  0.02080583  0.05827427  1
  O  O3  1  0.74240083  0.92743491  0.83589789  1
  O  O4  1  0.92457487  0.62839168  0.83160667  1
  O  O5  1  0.80902340  0.67071928  0.18060831  1
  O  O6  1  0.91897913  0.47038302  0.32946781  1
  O  O7  1  0.98164148  0.19746079  0.08623141  1
  O  O8  1  0.91312418  0.34947800  0.83574763  1
  O  O9  1  0.66999385  0.80835067  0.68145306  1
  O  O10  1  0.63102373  0.91818075  0.32959873  1
  O  O11  1  0.80937211  0.51054990  0.66876300  1
  O  O12  1  0.66867176  0.66188286  0.02632442  1
  O  O13  1  0.65486916  0.67318132  0.52588748  1
  O  O14  1  0.67437572  0.51044588  0.16991329  1
  O  O15  1  0.46959807  0.91980365  0.83016064  1
  O  O16  1  0.51195813  0.81205826  0.17252235  1
  O  O17  1  0.74568614  0.34186392  0.34153221  1
  O  O18  1  0.79353796  0.20449604  0.74983157  1
  O  O19  1  0.77450769  0.21497582  0.57104030  1
  O  O20  1  0.77285369  0.23510841  0.92831887  1
  O  O21  1  0.61817549  0.47461606  0.82573999  1
  O  O22  1  0.50794314  0.67572708  0.67057863  1
  O  O23  1  0.65874651  0.25625187  0.16579948  1
  O  O24  1  0.47180007  0.61765428  0.32583717  1
  O  O25  1  0.34856320  0.91336706  0.34040959  1
  O  O26  1  0.81110603  0.98340353  0.23468988  1
  O  O27  1  0.81143400  0.00921856  0.41340761  1
  O  O28  1  0.19709544  0.98249558  0.58659835  1
  O  O29  1  0.65615627  0.07891588  0.66107901  1
  O  O30  1  0.52808997  0.37773280  0.66942019  1
  O  O31  1  0.34133826  0.74602893  0.84144616  1
  O  O32  1  0.49046470  0.32508133  0.33441262  1
  O  O33  1  0.37781547  0.52769535  0.16964655  1
  O  O34  1  0.21523911  0.77438157  0.07155863  1
  O  O35  1  0.23278987  0.77050152  0.42887035  1
  O  O36  1  0.20402114  0.79408404  0.25032011  1
  O  O37  1  0.25516240  0.65715686  0.66482431  1
  O  O38  1  0.48964381  0.18913495  0.81608254  1
  O  O39  1  0.53542109  0.07987068  0.16541928  1
  O  O40  1  0.32594956  0.49050868  0.83411407  1
  O  O41  1  0.36944818  0.30993529  0.97104692  1
  O  O42  1  0.31191468  0.36153355  0.47138223  1
  O  O43  1  0.18955134  0.48735191  0.31694911  1
  O  O44  1  0.37823218  0.07131837  0.67127742  1
  O  O45  1  0.32875112  0.19103743  0.32269092  1
  O  O46  1  0.08058834  0.65443075  0.16168740  1
  O  O47  1  0.98394358  0.80939580  0.73530698  1
  O  O48  1  0.00889472  0.81526950  0.91363233  1
  O  O49  1  0.08022840  0.53255699  0.66923786  1
  O  O50  1  0.19569059  0.32415852  0.82386509  1
  O  O51  1  0.07083046  0.37770282  0.17113724  1
  O  O52  1  0.25097429  0.07978956  0.16270703  1
  O  O53  1  0.24081147  0.98787625  0.94316814  1
  O  O54  1  0.19519720  0.01315570  0.76541478  1
  O  O55  1  0.07981889  0.25190862  0.66271264  1
  O  O56  1  0.98707140  0.24168591  0.44287139  1
  O  O57  1  0.01242584  0.19520667  0.26518640  1
loop_
_geom_bond_atom_site_label_1
_geom_bond_atom_site_label_2
_geom_bond_distance
_geom_bond_site_symmetry_2
Li0 O56 1.929795 1_555
Li0 O55 2.001269 1_655
Li0 O19 2.060797 1_555
Li0 O11 2.098367 1_555
Li1 O7 1.939718 1_555
Li1 O20 2.060587 1_554
Li1 O14 2.122772 1_555
Li1 O23 2.171406 1_555
Li2 O53 1.927072 1_554
Li2 O52 1.984289 1_565
Li2 O34 2.066454 1_555
Li2 O16 2.153505 1_555
Li3 O27 1.946254 1_555
Li3 O19 2.059117 1_555
Li3 O17 2.066185 1_555
Li3 O32 2.136648 1_555
Li4 O28 1.942769 1_555
Li4 O35 2.065921 1_555
Li4 O22 2.122759 1_555
Li4 O37 2.193229 1_555
Li5 O2 1.973963 1_556
Li5 O20 2.080600 1_555
Li5 O3 2.094514 1_545
Li5 O38 2.205066 1_555
Li5 O41 2.525829 1_555
Li6 O48 1.948288 1_555
Li6 O34 2.061289 1_556
Li6 O31 2.070090 1_555
Li6 O40 2.138245 1_555
Li7 O0 1.964313 1_555
Li7 O35 2.043347 1_555
Li7 O1 2.074262 1_455
Li7 O43 2.204628 1_555
Li7 O42 2.611060 1_555
Li8 O48 2.081157 1_654
Li8 O2 2.173234 1_565
Li8 O7 2.221577 1_565
Li8 O34 2.401321 1_655
Li8 O20 2.488331 1_564
Li8 O53 2.604354 1_654
Li9 O27 2.120989 1_565
Li9 O28 2.224040 1_655
Li9 O0 2.236796 1_655
Li9 O19 2.392207 1_565
Li9 O35 2.479289 1_655
Li9 O56 2.592790 1_565
O0 P13 1.497809 1_555
O1 P1 1.562358 1_555
O1 V4 1.975021 1_555
O2 P8 1.498723 1_555
O3 P0 1.564276 1_555
O3 V2 1.971262 1_555
O4 P0 1.526403 1_555
O4 V5 1.963257 1_655
O5 P3 1.603193 1_555
O5 V4 1.819076 1_555
O6 P2 1.556038 1_555
O6 V4 1.913006 1_555
O7 P15 1.497498 1_655
O8 P5 1.536738 1_555
O8 V5 1.909512 1_655
O9 P4 1.604874 1_555
O9 V2 1.822092 1_555
O10 P1 1.537846 1_555
O10 V3 1.933929 1_565
O11 P4 1.562964 1_555
O11 V5 2.017000 1_655
O12 P3 1.486788 1_555
O13 P4 1.488595 1_555
O14 P3 1.560549 1_555
O14 V0 1.977797 1_555
O15 P7 1.551724 1_555
O15 V2 1.914965 1_555
O16 P3 1.567714 1_555
O16 V3 1.987083 1_565
O17 P2 1.551841 1_555
O17 V0 1.963991 1_555
O18 P5 1.615119 1_555
O18 P6 1.622972 1_555
O19 P6 1.515499 1_555
O20 P5 1.507216 1_555
O21 P5 1.542721 1_555
O21 V1 1.889791 1_555
O22 P4 1.563275 1_555
O22 V1 1.969651 1_555
O23 P8 1.565379 1_555
O23 V0 1.921847 1_555
O24 P9 1.555868 1_555
O24 V0 1.861795 1_555
O25 P9 1.516117 1_555
O25 V3 1.976801 1_565
O26 P8 1.612885 1_565
O26 P1 1.623992 1_555
O27 P1 1.500026 1_545
O28 P14 1.498682 1_565
O29 P6 1.551795 1_555
O29 V2 1.903264 1_545
O30 P6 1.522545 1_555
O30 V1 1.971270 1_555
O31 P7 1.556731 1_555
O31 V1 1.956245 1_555
O32 P11 1.571524 1_555
O32 V0 1.966159 1_555
O33 P10 1.523021 1_555
O33 V0 1.969810 1_555
O34 P10 1.515278 1_555
O35 P9 1.512926 1_555
O36 P10 1.615869 1_555
O36 P9 1.623801 1_555
O37 P13 1.559916 1_555
O37 V1 1.922535 1_555
O38 P12 1.593432 1_555
O38 V2 1.908179 1_545
O39 P8 1.532769 1_555
O39 V3 1.946646 1_555
O40 P12 1.581672 1_555
O40 V1 1.950586 1_555
O41 P12 1.492865 1_555
O42 P11 1.488952 1_555
O43 P11 1.579519 1_555
O43 V4 1.934099 1_455
O44 P14 1.561357 1_555
O44 V2 1.890949 1_545
O45 P11 1.574961 1_555
O45 V3 1.853582 1_555
O46 P10 1.556581 1_555
O46 V4 1.892657 1_455
O47 P13 1.606319 1_655
O47 P0 1.630113 1_555
O48 P0 1.501771 1_455
O49 P13 1.544643 1_555
O49 V5 1.914326 1_555
O50 P12 1.546005 1_555
O50 V5 1.921775 1_555
O51 P15 1.571995 1_555
O51 V4 1.872014 1_455
O52 P15 1.530614 1_555
O52 V3 2.046875 1_555
O53 P7 1.491570 1_555
O54 P7 1.612151 1_545
O54 P14 1.615529 1_555
O55 P14 1.544589 1_555
O55 V5 1.998893 1_555
O56 P2 1.492508 1_555
O57 P2 1.611061 1_455
O57 P15 1.615055 1_555
