# generated using pymatgen
data_K2Ba5(Si2O5)6
_symmetry_space_group_name_H-M   'P 1'
_cell_length_a   12.70358507
_cell_length_b   12.70358507
_cell_length_c   8.37622287
_cell_angle_alpha   88.10314559
_cell_angle_beta   88.10314559
_cell_angle_gamma   35.97489817
_symmetry_Int_Tables_number   1
_chemical_formula_structural   K2Ba5(Si2O5)6
_chemical_formula_sum   'K2 Ba5 Si12 O30'
_cell_volume   793.58665299
_cell_formula_units_Z   1
loop_
 _symmetry_equiv_pos_site_id
 _symmetry_equiv_pos_as_xyz
  1  'x, y, z'
loop_
 _atom_site_type_symbol
 _atom_site_label
 _atom_site_symmetry_multiplicity
 _atom_site_fract_x
 _atom_site_fract_y
 _atom_site_fract_z
 _atom_site_occupancy
  K  K0  1  0.05112500  0.05051600  0.74740200  1
  K  K1  1  0.94948400  0.94887500  0.25259800  1
  Ba  Ba0  1  0.65045700  0.64596700  0.75898000  1
  Ba  Ba1  1  0.35403300  0.34954300  0.24102000  1
  Ba  Ba2  1  0.49958300  0.50041700  0.50000000  1
  Ba  Ba3  1  0.80334400  0.80524000  0.99542200  1
  Ba  Ba4  1  0.19476000  0.19665600  0.00457800  1
  Si  Si0  1  0.76343900  0.35775400  0.05136900  1
  Si  Si1  1  0.35771700  0.76385700  0.05137800  1
  Si  Si2  1  0.23614300  0.64228300  0.94862200  1
  Si  Si3  1  0.64224600  0.23656100  0.94863100  1
  Si  Si4  1  0.06014000  0.48582200  0.68148300  1
  Si  Si5  1  0.47676000  0.07135000  0.66903600  1
  Si  Si6  1  0.92865000  0.52324000  0.33096400  1
  Si  Si7  1  0.51417800  0.93986000  0.31851700  1
  Si  Si8  1  0.89800900  0.30197600  0.38635900  1
  Si  Si9  1  0.30158100  0.89930200  0.38668300  1
  Si  Si10  1  0.10069800  0.69841900  0.61331700  1
  Si  Si11  1  0.69802400  0.10199100  0.61364100  1
  O  O0  1  0.27653300  0.28642700  0.69010600  1
  O  O1  1  0.71357300  0.72346700  0.30989400  1
  O  O2  1  0.03561700  0.63499000  0.68436300  1
  O  O3  1  0.62640900  0.04549900  0.68553600  1
  O  O4  1  0.95450100  0.37359100  0.31446400  1
  O  O5  1  0.36501000  0.96438300  0.31563700  1
  O  O6  1  0.55993000  0.56016300  0.99971000  1
  O  O7  1  0.43983700  0.44007000  0.00029000  1
  O  O8  1  0.08044300  0.08097400  0.39294900  1
  O  O9  1  0.91902600  0.91955700  0.60705100  1
  O  O10  1  0.78224300  0.21775700  0.00000000  1
  O  O11  1  0.21803900  0.78196100  0.00000000  1
  O  O12  1  0.77005000  0.34898200  0.25027200  1
  O  O13  1  0.34981900  0.77070400  0.25028000  1
  O  O14  1  0.22929600  0.65018100  0.74972000  1
  O  O15  1  0.65101800  0.22995000  0.74972800  1
  O  O16  1  0.90178100  0.32023900  0.95758900  1
  O  O17  1  0.32044800  0.90215800  0.95802500  1
  O  O18  1  0.09784200  0.67955200  0.04197500  1
  O  O19  1  0.67976100  0.09821900  0.04241100  1
  O  O20  1  0.95306800  0.51837900  0.82900700  1
  O  O21  1  0.51396600  0.95167300  0.80280800  1
  O  O22  1  0.04832700  0.48603400  0.19719200  1
  O  O23  1  0.48162100  0.04693200  0.17099300  1
  O  O24  1  0.79396300  0.38146400  0.55415400  1
  O  O25  1  0.38225800  0.79363300  0.55378200  1
  O  O26  1  0.20636700  0.61774200  0.44621800  1
  O  O27  1  0.61853600  0.20603700  0.44584600  1
  O  O28  1  0.98008300  0.50973400  0.51375400  1
  O  O29  1  0.49026600  0.01991700  0.48624600  1
loop_
_geom_bond_atom_site_label_1
_geom_bond_atom_site_label_2
_geom_bond_distance
_geom_bond_site_symmetry_2
K0 O16 2.845370 1_455
K0 O17 2.848340 1_545
K0 O24 2.938953 1_455
K0 O25 2.941945 1_545
K0 O11 2.953380 1_546
K0 O10 2.954865 1_456
K0 O8 3.031047 1_555
K1 O19 2.845370 1_565
K1 O18 2.848340 1_655
K1 O27 2.938953 1_565
K1 O26 2.941945 1_655
K1 O11 2.953380 1_655
K1 O10 2.954865 1_565
K1 O9 3.031047 1_555
Ba0 O21 2.715985 1_555
Ba0 O20 2.784017 1_555
Ba0 O24 2.795962 1_555
Ba0 O25 2.812650 1_555
Ba0 O6 2.882097 1_555
Ba0 O16 2.931939 1_555
Ba0 O17 2.959749 1_555
Ba1 O22 2.715985 1_555
Ba1 O23 2.784017 1_555
Ba1 O27 2.795962 1_555
Ba1 O26 2.812650 1_555
Ba1 O7 2.882097 1_555
Ba1 O19 2.931939 1_555
Ba1 O18 2.959749 1_555
Ba2 O25 2.716626 1_555
Ba2 O26 2.716626 1_555
Ba2 O24 2.719330 1_555
Ba2 O27 2.719330 1_555
Ba2 O12 2.995668 1_555
Ba2 O15 2.995668 1_555
Ba2 O13 2.999882 1_555
Ba2 O14 2.999882 1_555
Ba3 O19 2.659078 1_566
Ba3 O18 2.661739 1_656
Ba3 O20 2.789763 1_555
Ba3 O23 2.807861 1_566
Ba3 O22 2.907545 1_656
Ba3 O21 2.950087 1_555
Ba3 O2 3.115742 1_655
Ba3 O3 3.140590 1_565
Ba3 O1 3.294773 1_556
Ba4 O16 2.659078 1_454
Ba4 O17 2.661739 1_544
Ba4 O23 2.789763 1_555
Ba4 O20 2.807861 1_454
Ba4 O21 2.907545 1_544
Ba4 O22 2.950087 1_555
Ba4 O5 3.115742 1_545
Ba4 O4 3.140590 1_455
Ba4 O0 3.294773 1_554
O0 Si4 1.645906 1_555
O0 Si5 1.649221 1_555
O1 Si7 1.645906 1_555
O1 Si6 1.649221 1_555
O2 Si10 1.643438 1_555
O2 Si4 1.653957 1_555
O3 Si11 1.642321 1_555
O3 Si5 1.656790 1_555
O4 Si8 1.642321 1_555
O4 Si6 1.656790 1_555
O5 Si9 1.643438 1_555
O5 Si7 1.653957 1_555
O6 Si0 1.650325 1_556
O6 Si1 1.650389 1_556
O7 Si3 1.650325 1_554
O7 Si2 1.650389 1_554
O8 Si8 1.650231 1_455
O8 Si9 1.650903 1_545
O9 Si11 1.650231 1_565
O9 Si10 1.650903 1_655
O10 Si3 1.661738 1_554
O10 Si0 1.661738 1_555
O11 Si2 1.664368 1_554
O11 Si1 1.664368 1_555
O12 Si0 1.666445 1_555
O12 Si8 1.674761 1_555
O13 Si1 1.666658 1_555
O13 Si9 1.675303 1_555
O14 Si2 1.666658 1_555
O14 Si10 1.675303 1_555
O15 Si3 1.666445 1_555
O15 Si11 1.674761 1_555
O16 Si0 1.584467 1_556
O17 Si1 1.584168 1_556
O18 Si2 1.584168 1_554
O19 Si3 1.584467 1_554
O20 Si4 1.600050 1_655
O21 Si5 1.596730 1_565
O22 Si6 1.596730 1_455
O23 Si7 1.600050 1_545
O24 Si8 1.597753 1_555
O25 Si9 1.598505 1_555
O26 Si10 1.598505 1_555
O27 Si11 1.597753 1_555
O28 Si4 1.633016 1_655
O28 Si6 1.633393 1_555
O29 Si7 1.633016 1_545
O29 Si5 1.633393 1_555
