# generated using pymatgen
data_Mg3Si4
_symmetry_space_group_name_H-M   'P 1'
_cell_length_a   7.91851902
_cell_length_b   7.91851902
_cell_length_c   9.98523761
_cell_angle_alpha   51.59031484
_cell_angle_beta   51.59031484
_cell_angle_gamma   32.00887257
_symmetry_Int_Tables_number   1
_chemical_formula_structural   Mg3Si4
_chemical_formula_sum   'Mg6 Si8'
_cell_volume   253.23301064
_cell_formula_units_Z   2
loop_
 _symmetry_equiv_pos_site_id
 _symmetry_equiv_pos_as_xyz
  1  'x, y, z'
loop_
 _atom_site_type_symbol
 _atom_site_label
 _atom_site_symmetry_multiplicity
 _atom_site_fract_x
 _atom_site_fract_y
 _atom_site_fract_z
 _atom_site_occupancy
  Mg  Mg0  1  0.26997800  0.26997800  0.44339200  1
  Mg  Mg1  1  0.59834000  0.59834000  0.48430900  1
  Mg  Mg2  1  0.36908600  0.36908600  0.89047200  1
  Mg  Mg3  1  0.15463600  0.15463600  0.91091300  1
  Mg  Mg4  1  0.99490000  0.99490000  0.33863100  1
  Mg  Mg5  1  0.87494200  0.87494200  0.14043800  1
  Si  Si0  1  0.85576800  0.85576800  0.74836600  1
  Si  Si1  1  0.56172000  0.56172000  0.85469500  1
  Si  Si2  1  0.20885100  0.20885100  0.23400100  1
  Si  Si3  1  0.69563200  0.69563200  0.08305900  1
  Si  Si4  1  0.02779900  0.02779900  0.75526800  1
  Si  Si5  1  0.37172700  0.37172700  0.60400800  1
  Si  Si6  1  0.76560900  0.76560900  0.61830900  1
  Si  Si7  1  0.51104200  0.51104200  0.14078800  1
loop_
_geom_bond_atom_site_label_1
_geom_bond_atom_site_label_2
_geom_bond_distance
_geom_bond_site_symmetry_2
Mg0 Si6 2.769714 1_545
Mg0 Si6 2.769714 1_455
Mg0 Si2 2.784324 1_555
Mg0 Si5 2.860521 1_555
Mg0 Si7 2.874618 1_555
Mg0 Si4 2.906688 1_555
Mg1 Si5 2.828344 1_555
Mg1 Si2 2.899701 1_655
Mg1 Si2 2.899701 1_565
Mg1 Si4 3.079634 1_565
Mg1 Si4 3.079634 1_655
Mg1 Si3 3.251996 1_555
Mg2 Si2 2.626868 1_556
Mg2 Si0 2.681963 1_545
Mg2 Si0 2.681963 1_455
Mg2 Si1 2.715327 1_555
Mg2 Si5 2.834592 1_555
Mg2 Si4 2.865352 1_565
Mg2 Si4 2.865352 1_655
Mg2 Si3 2.978759 1_456
Mg2 Si3 2.978759 1_546
Mg2 Mg3 3.136563 1_555
Mg3 Si5 2.687271 1_555
Mg3 Si1 2.847587 1_455
Mg3 Si1 2.847587 1_545
Mg3 Si7 2.885751 1_456
Mg3 Si7 2.885751 1_546
Mg3 Si3 3.081782 1_456
Mg3 Si3 3.081782 1_546
Mg3 Si6 3.126739 1_455
Mg3 Si6 3.126739 1_545
Mg3 Si4 3.165869 1_555
Mg3 Si0 3.217428 1_545
Mg3 Si0 3.217428 1_455
Mg3 Mg4 3.275447 1_446
Mg3 Mg5 3.281389 1_446
Mg4 Si2 2.702041 1_665
Mg4 Si6 2.716997 1_555
Mg4 Si7 2.846400 1_655
Mg4 Si7 2.846400 1_565
Mg4 Si5 2.980150 1_655
Mg4 Si5 2.980150 1_565
Mg4 Si0 3.165947 1_555
Mg4 Si3 3.245965 1_565
Mg4 Si3 3.245965 1_655
Mg5 Si4 2.939021 1_664
Mg5 Si2 2.996462 1_565
Mg5 Si2 2.996462 1_655
Mg5 Si7 3.011401 1_565
Mg5 Si7 3.011401 1_655
Mg5 Si3 3.130660 1_555
Si0 Si6 2.423701 1_555
Si0 Si5 2.539803 1_655
Si0 Si5 2.539803 1_565
Si0 Si3 2.565207 1_556
Si0 Si4 2.663925 1_665
Si1 Si6 2.394755 1_555
Si1 Si7 2.430444 1_556
Si1 Si4 2.584861 1_565
Si1 Si4 2.584861 1_655
Si2 Si3 2.733254 1_545
Si2 Si3 2.733254 1_455
Si3 Si7 2.476849 1_555
Si5 Si6 2.664278 1_455
Si5 Si6 2.664278 1_545
