# generated using pymatgen
data_Li9Mn7O16
_symmetry_space_group_name_H-M   'P 1'
_cell_length_a   5.09991051
_cell_length_b   5.09991051
_cell_length_c   21.38037027
_cell_angle_alpha   83.14487185
_cell_angle_beta   83.14487185
_cell_angle_gamma   32.79072107
_symmetry_Int_Tables_number   1
_chemical_formula_structural   Li9Mn7O16
_chemical_formula_sum   'Li9 Mn7 O16'
_cell_volume   298.81945679
_cell_formula_units_Z   1
loop_
 _symmetry_equiv_pos_site_id
 _symmetry_equiv_pos_as_xyz
  1  'x, y, z'
loop_
 _atom_site_type_symbol
 _atom_site_label
 _atom_site_symmetry_multiplicity
 _atom_site_fract_x
 _atom_site_fract_y
 _atom_site_fract_z
 _atom_site_occupancy
  Li  Li0  1  0.25184500  0.25184500  0.44040500  1
  Li  Li1  1  0.74815500  0.74815500  0.55959500  1
  Li  Li2  1  0.25662700  0.25662700  0.68265200  1
  Li  Li3  1  0.74877800  0.74877800  0.81264500  1
  Li  Li4  1  0.24985800  0.24985800  0.93742200  1
  Li  Li5  1  0.75014200  0.75014200  0.06257800  1
  Li  Li6  1  0.25122200  0.25122200  0.18735500  1
  Li  Li7  1  0.74337300  0.74337300  0.31734800  1
  Li  Li8  1  0.50000000  0.50000000  0.50000000  1
  Mn  Mn0  1  0.99034200  0.99034200  0.38329800  1
  Mn  Mn1  1  0.00965800  0.00965800  0.61670200  1
  Mn  Mn2  1  0.50469600  0.50469600  0.74544900  1
  Mn  Mn3  1  0.99972800  0.99972800  0.87345700  1
  Mn  Mn4  1  0.50000000  0.50000000  0.00000000  1
  Mn  Mn5  1  0.00027200  0.00027200  0.12654300  1
  Mn  Mn6  1  0.49530400  0.49530400  0.25455100  1
  O  O0  1  0.38303200  0.38303200  0.34943500  1
  O  O1  1  0.88417400  0.88417400  0.45919600  1
  O  O2  1  0.39114500  0.39114500  0.59709000  1
  O  O3  1  0.89343900  0.89343900  0.71468200  1
  O  O4  1  0.38306100  0.38306100  0.84671900  1
  O  O5  1  0.88326500  0.88326500  0.97358300  1
  O  O6  1  0.38420500  0.38420500  0.09948300  1
  O  O7  1  0.88224900  0.88224900  0.22491700  1
  O  O8  1  0.11582600  0.11582600  0.54080400  1
  O  O9  1  0.61696800  0.61696800  0.65056500  1
  O  O10  1  0.11775100  0.11775100  0.77508300  1
  O  O11  1  0.61579500  0.61579500  0.90051700  1
  O  O12  1  0.11673500  0.11673500  0.02641700  1
  O  O13  1  0.61693900  0.61693900  0.15328100  1
  O  O14  1  0.10656100  0.10656100  0.28531800  1
  O  O15  1  0.60885500  0.60885500  0.40291000  1
loop_
_geom_bond_atom_site_label_1
_geom_bond_atom_site_label_2
_geom_bond_distance
_geom_bond_site_symmetry_2
Li0 O1 2.009902 1_545
Li0 O1 2.009902 1_455
Li0 O0 2.193048 1_555
Li0 O15 2.225230 1_455
Li0 O15 2.225230 1_545
Li0 O8 2.380813 1_555
Li1 O8 2.009902 1_655
Li1 O8 2.009902 1_565
Li1 O9 2.193048 1_555
Li1 O2 2.225230 1_655
Li1 O2 2.225230 1_565
Li1 O1 2.380813 1_555
Li2 O2 2.116576 1_555
Li2 O3 2.135760 1_455
Li2 O3 2.135760 1_545
Li2 O9 2.154917 1_455
Li2 O9 2.154917 1_545
Li2 O10 2.254726 1_555
Li3 O4 2.137209 1_565
Li3 O4 2.137209 1_655
Li3 O11 2.148153 1_555
Li3 O10 2.148764 1_655
Li3 O10 2.148764 1_565
Li3 O3 2.377564 1_555
Li4 O5 2.150617 1_545
Li4 O5 2.150617 1_455
Li4 O11 2.161766 1_455
Li4 O11 2.161766 1_545
Li4 O12 2.168063 1_556
Li4 O4 2.197868 1_555
Li5 O12 2.150617 1_655
Li5 O12 2.150617 1_565
Li5 O6 2.161766 1_565
Li5 O6 2.161766 1_655
Li5 O5 2.168063 1_554
Li5 O13 2.197868 1_555
Li6 O13 2.137209 1_455
Li6 O13 2.137209 1_545
Li6 O6 2.148153 1_555
Li6 O7 2.148764 1_545
Li6 O7 2.148764 1_455
Li6 O14 2.377564 1_555
Li7 O15 2.116576 1_555
Li7 O14 2.135760 1_565
Li7 O14 2.135760 1_655
Li7 O0 2.154917 1_655
Li7 O0 2.154917 1_565
Li7 O7 2.254726 1_555
Li8 O8 2.088986 1_565
Li8 O8 2.088986 1_655
Li8 O1 2.088986 1_545
Li8 O1 2.088986 1_455
Li8 O15 2.212100 1_555
Li8 O2 2.212100 1_555
Mn0 O1 1.814659 1_555
Mn0 O15 1.927134 1_565
Mn0 O15 1.927134 1_655
Mn0 O0 1.971838 1_655
Mn0 O0 1.971838 1_565
Mn0 O14 2.255845 1_665
Mn1 O8 1.814659 1_555
Mn1 O2 1.927134 1_455
Mn1 O2 1.927134 1_545
Mn1 O9 1.971838 1_455
Mn1 O9 1.971838 1_545
Mn1 O3 2.255845 1_445
Mn2 O3 1.966801 1_545
Mn2 O3 1.966801 1_455
Mn2 O10 1.967702 1_565
Mn2 O10 1.967702 1_655
Mn2 O9 2.183521 1_555
Mn2 O4 2.337387 1_555
Mn3 O11 1.964768 1_565
Mn3 O11 1.964768 1_655
Mn3 O4 1.965872 1_655
Mn3 O4 1.965872 1_565
Mn3 O10 2.270031 1_665
Mn3 O5 2.296597 1_555
Mn4 O12 1.963802 1_655
Mn4 O12 1.963802 1_565
Mn4 O5 1.963802 1_544
Mn4 O5 1.963802 1_454
Mn4 O11 2.282146 1_554
Mn4 O6 2.282146 1_555
Mn5 O6 1.964768 1_545
Mn5 O6 1.964768 1_455
Mn5 O13 1.965872 1_455
Mn5 O13 1.965872 1_545
Mn5 O7 2.270031 1_445
Mn5 O12 2.296597 1_555
Mn6 O14 1.966801 1_565
Mn6 O14 1.966801 1_655
Mn6 O7 1.967702 1_545
Mn6 O7 1.967702 1_455
Mn6 O0 2.183521 1_555
Mn6 O13 2.337387 1_555
