# generated using pymatgen
data_Na2TbO3
_symmetry_space_group_name_H-M   'P 1'
_cell_length_a   6.00980372
_cell_length_b   6.00980372
_cell_length_c   6.00980372
_cell_angle_alpha   146.68185549
_cell_angle_beta   134.12859137
_cell_angle_gamma   57.86577397
_symmetry_Int_Tables_number   1
_chemical_formula_structural   Na2TbO3
_chemical_formula_sum   'Na2 Tb1 O3'
_cell_volume   84.89097256
_cell_formula_units_Z   1
loop_
 _symmetry_equiv_pos_site_id
 _symmetry_equiv_pos_as_xyz
  1  'x, y, z'
loop_
 _atom_site_type_symbol
 _atom_site_label
 _atom_site_symmetry_multiplicity
 _atom_site_fract_x
 _atom_site_fract_y
 _atom_site_fract_z
 _atom_site_occupancy
  Na  Na0  1  0.67524900  0.67524900  0.00000000  1
  Na  Na1  1  0.32475100  0.32475100  0.00000000  1
  Tb  Tb0  1  0.00000000  0.00000000  0.00000000  1
  O  O0  1  0.50000000  0.00000000  0.50000000  1
  O  O1  1  0.14441200  0.64441200  0.50000000  1
  O  O2  1  0.85558800  0.35558800  0.50000000  1
loop_
_geom_bond_atom_site_label_1
_geom_bond_atom_site_label_2
_geom_bond_distance
_geom_bond_site_symmetry_2
Na0 O1 2.364366 1_554
Na0 O1 2.364366 1_655
Na0 O0 2.523256 1_565
Na0 O0 2.523256 1_554
Na0 O2 2.562637 1_565
Na0 O2 2.562637 1_554
Na1 O2 2.364366 1_454
Na1 O2 2.364366 1_555
Na1 O0 2.523256 1_554
Na1 O0 2.523256 1_565
Na1 O1 2.562637 1_555
Na1 O1 2.562637 1_544
O0 Tb0 2.342008 1_555
O0 Tb0 2.342008 1_656
O1 Tb0 2.296960 1_555
O1 Tb0 2.296960 1_566
O2 Tb0 2.296960 1_666
O2 Tb0 2.296960 1_655
