# generated using pymatgen
data_DyErTe2
_symmetry_space_group_name_H-M   'P 1'
_cell_length_a   4.32582295
_cell_length_b   4.32582295
_cell_length_c   6.10356003
_cell_angle_alpha   90.00000000
_cell_angle_beta   90.00000000
_cell_angle_gamma   90.00000000
_symmetry_Int_Tables_number   1
_chemical_formula_structural   DyErTe2
_chemical_formula_sum   'Dy1 Er1 Te2'
_cell_volume   114.21435752
_cell_formula_units_Z   1
loop_
 _symmetry_equiv_pos_site_id
 _symmetry_equiv_pos_as_xyz
  1  'x, y, z'
loop_
 _atom_site_type_symbol
 _atom_site_label
 _atom_site_symmetry_multiplicity
 _atom_site_fract_x
 _atom_site_fract_y
 _atom_site_fract_z
 _atom_site_occupancy
  Dy  Dy0  1  -0.00000000  -0.00000000  -0.00000000  1
  Er  Er0  1  0.50000000  0.50000000  0.50000000  1
  Te  Te0  1  -0.00000000  -0.00000000  0.50000000  1
  Te  Te1  1  0.50000000  0.50000000  -0.00000000  1
loop_
_geom_bond_atom_site_label_1
_geom_bond_atom_site_label_2
_geom_bond_distance
_geom_bond_site_symmetry_2
Dy0 Te0 3.051780 1_555
Dy0 Te0 3.051780 1_554
Dy0 Te1 3.058819 1_555
Dy0 Te1 3.058819 1_445
Dy0 Te1 3.058819 1_455
Dy0 Te1 3.058819 1_545
Er0 Te1 3.051780 1_556
Er0 Te1 3.051780 1_555
Er0 Te0 3.058819 1_555
Er0 Te0 3.058819 1_565
Er0 Te0 3.058819 1_665
Er0 Te0 3.058819 1_655
