# generated using pymatgen
data_BaNaNdWO6
_symmetry_space_group_name_H-M   'P 1'
_cell_length_a   8.52421793
_cell_length_b   8.50802834
_cell_length_c   8.49412241
_cell_angle_alpha   90.00000000
_cell_angle_beta   90.00000000
_cell_angle_gamma   90.00000000
_symmetry_Int_Tables_number   1
_chemical_formula_structural   BaNaNdWO6
_chemical_formula_sum   'Ba4 Na4 Nd4 W4 O24'
_cell_volume   616.03017763
_cell_formula_units_Z   4
loop_
 _symmetry_equiv_pos_site_id
 _symmetry_equiv_pos_as_xyz
  1  'x, y, z'
loop_
 _atom_site_type_symbol
 _atom_site_label
 _atom_site_symmetry_multiplicity
 _atom_site_fract_x
 _atom_site_fract_y
 _atom_site_fract_z
 _atom_site_occupancy
  Ba  Ba0  1  -0.00000000  -0.00000000  -0.00000000  1
  Ba  Ba1  1  0.50000000  0.50000000  0.50000000  1
  Ba  Ba2  1  -0.00000000  0.50000000  0.50000000  1
  Ba  Ba3  1  0.50000000  -0.00000000  -0.00000000  1
  Na  Na0  1  0.50000000  -0.00000000  0.50000000  1
  Na  Na1  1  0.50000000  0.50000000  -0.00000000  1
  Na  Na2  1  -0.00000000  0.50000000  -0.00000000  1
  Na  Na3  1  -0.00000000  -0.00000000  0.50000000  1
  Nd  Nd0  1  0.75000000  0.75000000  0.75000000  1
  Nd  Nd1  1  0.25000000  0.25000000  0.75000000  1
  Nd  Nd2  1  0.25000000  0.75000000  0.25000000  1
  Nd  Nd3  1  0.75000000  0.25000000  0.25000000  1
  W  W0  1  0.25000000  0.25000000  0.25000000  1
  W  W1  1  0.75000000  0.75000000  0.25000000  1
  W  W2  1  0.75000000  0.25000000  0.75000000  1
  W  W3  1  0.25000000  0.75000000  0.75000000  1
  O  O0  1  0.02372235  0.22332459  0.28807422  1
  O  O1  1  0.97627765  0.77667541  0.28807422  1
  O  O2  1  0.97627765  0.22332459  0.71192578  1
  O  O3  1  0.02372235  0.77667541  0.71192578  1
  O  O4  1  0.26944284  0.02283516  0.21817202  1
  O  O5  1  0.26944284  0.97716484  0.78182798  1
  O  O6  1  0.73055716  0.97716484  0.21817202  1
  O  O7  1  0.73055716  0.02283516  0.78182798  1
  O  O8  1  0.20873639  0.27048812  0.02396691  1
  O  O9  1  0.79126361  0.27048812  0.97603309  1
  O  O10  1  0.20873639  0.72951188  0.97603309  1
  O  O11  1  0.79126361  0.72951188  0.02396691  1
  O  O12  1  0.47627765  0.27667541  0.21192578  1
  O  O13  1  0.52372235  0.72332459  0.21192578  1
  O  O14  1  0.52372235  0.27667541  0.78807422  1
  O  O15  1  0.47627765  0.72332459  0.78807422  1
  O  O16  1  0.23055716  0.47716484  0.28182798  1
  O  O17  1  0.23055716  0.52283516  0.71817202  1
  O  O18  1  0.76944284  0.52283516  0.28182798  1
  O  O19  1  0.76944284  0.47716484  0.71817202  1
  O  O20  1  0.29126361  0.22951188  0.47603309  1
  O  O21  1  0.70873639  0.22951188  0.52396691  1
  O  O22  1  0.29126361  0.77048812  0.52396691  1
  O  O23  1  0.70873639  0.77048812  0.47603309  1
loop_
_geom_bond_atom_site_label_1
_geom_bond_atom_site_label_2
_geom_bond_distance
_geom_bond_site_symmetry_2
Ba0 O11 2.916073 1_445
Ba0 O10 2.916073 1_544
Ba0 O9 2.916073 1_454
Ba0 O8 2.916073 1_555
Ba0 O7 2.957577 1_454
Ba0 O6 2.957577 1_445
Ba0 O5 2.957577 1_544
Ba0 O4 2.957577 1_555
Ba0 O0 3.104608 1_555
Ba0 O1 3.104608 1_445
Ba0 O2 3.104608 1_454
Ba0 O3 3.104608 1_544
Ba1 O22 2.916073 1_555
Ba1 O20 2.916073 1_555
Ba1 O23 2.916073 1_555
Ba1 O21 2.916073 1_555
Ba1 O18 2.957577 1_555
Ba1 O19 2.957577 1_555
Ba1 O16 2.957577 1_555
Ba1 O17 2.957577 1_555
Ba1 O12 3.104608 1_555
Ba1 O13 3.104608 1_555
Ba1 O14 3.104608 1_555
Ba1 O15 3.104608 1_555
Ba2 O17 2.708229 1_555
Ba2 O18 2.708229 1_455
Ba2 O19 2.708229 1_455
Ba2 O16 2.708229 1_555
Ba2 O1 2.970265 1_455
Ba2 O2 2.970265 1_455
Ba2 O3 2.970265 1_555
Ba2 O0 2.970265 1_555
Ba3 O4 2.708229 1_555
Ba3 O5 2.708229 1_544
Ba3 O6 2.708229 1_545
Ba3 O7 2.708229 1_554
Ba3 O13 2.970265 1_545
Ba3 O15 2.970265 1_544
Ba3 O14 2.970265 1_554
Ba3 O12 2.970265 1_555
Na0 O23 2.649607 1_545
Na0 O22 2.649607 1_545
Na0 O21 2.649607 1_555
Na0 O20 2.649607 1_555
Na1 O14 2.625173 1_554
Na1 O12 2.625173 1_555
Na1 O13 2.625173 1_555
Na1 O15 2.625173 1_554
Na2 O8 2.649607 1_555
Na2 O9 2.649607 1_454
Na2 O11 2.649607 1_455
Na2 O10 2.649607 1_554
Na3 O2 2.625173 1_455
Na3 O0 2.625173 1_555
Na3 O3 2.625173 1_545
Na3 O1 2.625173 1_445
Nd0 O19 2.342849 1_555
Nd0 O7 2.342849 1_565
Nd0 O11 2.359987 1_556
Nd0 O23 2.359987 1_555
Nd0 O3 2.366484 1_655
Nd0 O15 2.366484 1_555
Nd1 O17 2.342849 1_555
Nd1 O5 2.342849 1_545
Nd1 O8 2.359987 1_556
Nd1 O20 2.359987 1_555
Nd1 O2 2.366484 1_455
Nd1 O14 2.366484 1_555
Nd2 O16 2.342849 1_555
Nd2 O4 2.342849 1_565
Nd2 O22 2.359987 1_555
Nd2 O10 2.359987 1_554
Nd2 O1 2.366484 1_455
Nd2 O13 2.366484 1_555
Nd3 O6 2.342849 1_545
Nd3 O18 2.342849 1_555
Nd3 O21 2.359987 1_555
Nd3 O9 2.359987 1_554
Nd3 O0 2.366484 1_655
Nd3 O12 2.366484 1_555
O0 W0 1.968889 1_555
O1 W1 1.968889 1_555
O2 W2 1.968889 1_555
O3 W3 1.968889 1_555
O4 W0 1.958567 1_555
O5 W3 1.958567 1_555
O6 W1 1.958567 1_555
O7 W2 1.958567 1_555
O8 W0 1.959675 1_555
O9 W2 1.959675 1_555
O10 W3 1.959675 1_555
O11 W1 1.959675 1_555
O12 W0 1.968889 1_555
O13 W1 1.968889 1_555
O14 W2 1.968889 1_555
O15 W3 1.968889 1_555
O16 W0 1.958567 1_555
O17 W3 1.958567 1_555
O18 W1 1.958567 1_555
O19 W2 1.958567 1_555
O20 W0 1.959675 1_555
O21 W2 1.959675 1_555
O22 W3 1.959675 1_555
O23 W1 1.959675 1_555
