# generated using pymatgen
data_MnH6(CN2)4
_symmetry_space_group_name_H-M   'P 1'
_cell_length_a   8.68228600
_cell_length_b   9.15410793
_cell_length_c   12.87337727
_cell_angle_alpha   72.69473303
_cell_angle_beta   76.26856181
_cell_angle_gamma   89.51947659
_symmetry_Int_Tables_number   1
_chemical_formula_structural   MnH6(CN2)4
_chemical_formula_sum   'Mn4 H24 C16 N32'
_cell_volume   946.78584367
_cell_formula_units_Z   4
loop_
 _symmetry_equiv_pos_site_id
 _symmetry_equiv_pos_as_xyz
  1  'x, y, z'
loop_
 _atom_site_type_symbol
 _atom_site_label
 _atom_site_symmetry_multiplicity
 _atom_site_fract_x
 _atom_site_fract_y
 _atom_site_fract_z
 _atom_site_occupancy
  Mn  Mn0  1  0.72456700  0.20559400  0.97609300  1
  Mn  Mn1  1  0.27543300  0.79440600  0.02390700  1
  Mn  Mn2  1  0.87801200  0.83108100  0.04243600  1
  Mn  Mn3  1  0.12198800  0.16891900  0.95756400  1
  H  H0  1  0.55772600  0.35333000  0.21022500  1
  H  H1  1  0.44227400  0.64667000  0.78977500  1
  H  H2  1  0.18489300  0.26503500  0.50124600  1
  H  H3  1  0.81510700  0.73496500  0.49875400  1
  H  H4  1  0.38382900  0.25241000  0.61316700  1
  H  H5  1  0.61617100  0.74759000  0.38683300  1
  H  H6  1  0.75151900  0.35006600  0.30492500  1
  H  H7  1  0.24848100  0.64993400  0.69507500  1
  H  H8  1  0.20472300  0.20005000  0.27951000  1
  H  H9  1  0.79527700  0.79995000  0.72049000  1
  H  H10  1  0.14499500  0.37916700  0.29585900  1
  H  H11  1  0.85500500  0.62083300  0.70414100  1
  H  H12  1  0.30613800  0.37254300  0.18215800  1
  H  H13  1  0.69386200  0.62745700  0.81784200  1
  H  H14  1  0.81715900  0.36263400  0.48146500  1
  H  H15  1  0.18284100  0.63736600  0.51853500  1
  H  H16  1  0.66503000  0.34251200  0.60397600  1
  H  H17  1  0.33497000  0.65748800  0.39602400  1
  H  H18  1  0.84117200  0.12677900  0.63435500  1
  H  H19  1  0.15882800  0.87322100  0.36564500  1
  H  H20  1  0.64543000  0.05701300  0.64496200  1
  H  H21  1  0.35457000  0.94298700  0.35503800  1
  H  H22  1  0.79749400  0.07379700  0.52097700  1
  H  H23  1  0.20250600  0.92620300  0.47902300  1
  C  C0  1  0.35911800  0.31039600  0.34386500  1
  C  C1  1  0.64088200  0.68960400  0.65613500  1
  C  C2  1  0.31116500  0.28116800  0.46002200  1
  C  C3  1  0.68883500  0.71883200  0.53997800  1
  C  C4  1  0.42299400  0.27502900  0.52237100  1
  C  C5  1  0.57700600  0.72497100  0.47762900  1
  C  C6  1  0.58654700  0.29972500  0.47015700  1
  C  C7  1  0.41345300  0.70027500  0.52984300  1
  C  C8  1  0.62906100  0.32898800  0.35443600  1
  C  C9  1  0.37093900  0.67101200  0.64556400  1
  C  C10  1  0.24833700  0.31660000  0.27074700  1
  C  C11  1  0.75166300  0.68340000  0.72925300  1
  C  C12  1  0.70969400  0.29225200  0.53587000  1
  C  C13  1  0.29030600  0.70774800  0.46413000  1
  C  C14  1  0.75116500  0.12731000  0.58706300  1
  C  C15  1  0.24883500  0.87269000  0.41293700  1
  N  N0  1  0.88844000  0.06467300  0.08045500  1
  N  N1  1  0.11156000  0.93532700  0.91954500  1
  N  N2  1  0.87006700  0.05906500  0.17855100  1
  N  N3  1  0.12993300  0.94093500  0.82144900  1
  N  N4  1  0.85253200  0.05324000  0.27192700  1
  N  N5  1  0.14746800  0.94675900  0.72807300  1
  N  N6  1  0.72866000  0.97552600  0.93599700  1
  N  N7  1  0.27134000  0.02447400  0.06400300  1
  N  N8  1  0.61519900  0.92918700  0.91489200  1
  N  N9  1  0.38480100  0.07081300  0.08510800  1
  N  N10  1  0.50308600  0.88508000  0.89329100  1
  N  N11  1  0.49691400  0.11492000  0.10670900  1
  N  N12  1  0.71755900  0.39363500  0.04934100  1
  N  N13  1  0.28244100  0.60636500  0.95065900  1
  N  N14  1  0.78751300  0.51681900  0.01424100  1
  N  N15  1  0.21248700  0.48318100  0.98575900  1
  N  N16  1  0.85534000  0.63924700  0.97926700  1
  N  N17  1  0.14466000  0.36075300  0.02073300  1
  N  N18  1  0.95485200  0.26939400  0.85987800  1
  N  N19  1  0.04514800  0.73060600  0.14012200  1
  N  N20  1  0.98243800  0.33016800  0.75945200  1
  N  N21  1  0.01756200  0.66983200  0.24054800  1
  N  N22  1  0.00863600  0.38982000  0.66275700  1
  N  N23  1  0.99136400  0.61018000  0.33724300  1
  N  N24  1  0.58870700  0.30038100  0.85134000  1
  N  N25  1  0.41129300  0.69961900  0.14866000  1
  N  N26  1  0.46024200  0.28213800  0.83915700  1
  N  N27  1  0.53975800  0.71786200  0.16084300  1
  N  N28  1  0.33281700  0.26800900  0.82318500  1
  N  N29  1  0.66718300  0.73199100  0.17681500  1
  N  N30  1  0.51769600  0.33277600  0.29615200  1
  N  N31  1  0.48230400  0.66722400  0.70384800  1
loop_
_geom_bond_atom_site_label_1
_geom_bond_atom_site_label_2
_geom_bond_distance
_geom_bond_site_symmetry_2
Mn0 N18 2.157924 1_555
Mn0 N24 2.185554 1_555
Mn0 N12 2.189189 1_556
Mn0 N11 2.245535 1_556
Mn0 N0 2.310636 1_556
Mn0 N6 2.310842 1_545
Mn1 N19 2.157924 1_555
Mn1 N25 2.185554 1_555
Mn1 N13 2.189189 1_554
Mn1 N10 2.245535 1_554
Mn1 N1 2.310636 1_554
Mn1 N7 2.310842 1_565
Mn2 N19 2.165405 1_655
Mn2 N16 2.171447 1_554
Mn2 N29 2.181066 1_555
Mn2 N6 2.245943 1_554
Mn2 N1 2.266386 1_654
Mn2 N0 2.338182 1_565
Mn3 N18 2.165405 1_455
Mn3 N17 2.171447 1_556
Mn3 N28 2.181066 1_555
Mn3 N7 2.245943 1_556
Mn3 N0 2.266386 1_456
Mn3 N1 2.338182 1_545
H0 N30 1.036613 1_555
H1 N31 1.036613 1_555
C0 N30 1.357670 1_555
C0 C2 1.396150 1_555
C0 C10 1.487089 1_555
C1 N31 1.357670 1_555
C1 C3 1.396150 1_555
C1 C11 1.487089 1_555
C2 H2 1.088697 1_555
C3 H3 1.088697 1_555
C4 H4 1.092347 1_555
C4 C6 1.407552 1_555
C5 H5 1.092347 1_555
C5 C7 1.407552 1_555
C6 C8 1.389412 1_555
C7 C9 1.389412 1_555
C8 H6 1.087411 1_555
C8 N30 1.351831 1_555
C9 H7 1.087411 1_555
C9 N31 1.351831 1_555
C10 H12 1.095380 1_555
C10 H10 1.096095 1_555
C10 H8 1.099686 1_555
C11 H13 1.095380 1_555
C11 H11 1.096095 1_555
C11 H9 1.099686 1_555
C12 H16 1.098333 1_555
C12 H14 1.098904 1_555
C12 C6 1.502409 1_555
C13 H17 1.098333 1_555
C13 H15 1.098904 1_555
C13 C7 1.502409 1_555
C14 H18 1.097908 1_555
C14 H22 1.098959 1_555
C14 H20 1.100969 1_555
C15 H19 1.097908 1_555
C15 H23 1.098959 1_555
C15 H21 1.100969 1_555
N0 N2 1.220143 1_555
N1 N3 1.220143 1_555
N2 N4 1.160217 1_555
N3 N5 1.160219 1_555
N6 N8 1.194494 1_555
N7 N9 1.194494 1_555
N10 N8 1.178874 1_555
N11 N9 1.178874 1_555
N12 N14 1.192769 1_555
N13 N15 1.192769 1_555
N14 N16 1.179205 1_554
N15 N17 1.179205 1_556
N18 N20 1.210619 1_555
N19 N21 1.210619 1_555
N20 N22 1.167348 1_655
N21 N23 1.167348 1_455
N24 N26 1.182493 1_555
N25 N27 1.182493 1_555
N26 N28 1.187101 1_555
N27 N29 1.187101 1_555
