# generated using pymatgen
data_Li9Mn7O16
_symmetry_space_group_name_H-M   'P 1'
_cell_length_a   3.00846800
_cell_length_b   9.95264257
_cell_length_c   10.16320282
_cell_angle_alpha   77.90162530
_cell_angle_beta   88.02117431
_cell_angle_gamma   85.40445995
_symmetry_Int_Tables_number   1
_chemical_formula_structural   Li9Mn7O16
_chemical_formula_sum   'Li9 Mn7 O16'
_cell_volume   296.54406687
_cell_formula_units_Z   1
loop_
 _symmetry_equiv_pos_site_id
 _symmetry_equiv_pos_as_xyz
  1  'x, y, z'
loop_
 _atom_site_type_symbol
 _atom_site_label
 _atom_site_symmetry_multiplicity
 _atom_site_fract_x
 _atom_site_fract_y
 _atom_site_fract_z
 _atom_site_occupancy
  Li  Li0  1  0.98901600  0.49139400  0.76221100  1
  Li  Li1  1  0.49598300  0.24892100  0.37395800  1
  Li  Li2  1  0.00000000  0.00000000  0.00000000  1
  Li  Li3  1  0.50401700  0.75107900  0.62604200  1
  Li  Li4  1  0.51370000  0.25977200  0.87868700  1
  Li  Li5  1  0.00000000  0.00000000  0.50000000  1
  Li  Li6  1  0.48630000  0.74022800  0.12131300  1
  Li  Li7  1  0.01098400  0.50860600  0.23778900  1
  Li  Li8  1  0.50000000  0.50000000  0.00000000  1
  Mn  Mn0  1  0.99478400  0.74072900  0.88107400  1
  Mn  Mn1  1  0.00521600  0.25927100  0.11892600  1
  Mn  Mn2  1  0.50000000  0.50000000  0.50000000  1
  Mn  Mn3  1  0.49032500  0.99623900  0.74856500  1
  Mn  Mn4  1  0.00140500  0.75103800  0.37335800  1
  Mn  Mn5  1  0.99859500  0.24896200  0.62664200  1
  Mn  Mn6  1  0.50967500  0.00376100  0.25143500  1
  O  O0  1  0.52606500  0.64242900  0.82230300  1
  O  O1  1  0.96412200  0.37204800  0.44775900  1
  O  O2  1  0.52989300  0.13642400  0.07513400  1
  O  O3  1  0.96497600  0.87198700  0.69922700  1
  O  O4  1  0.99196800  0.36376100  0.94886600  1
  O  O5  1  0.46651500  0.12274100  0.57160000  1
  O  O6  1  0.97256100  0.87867600  0.19521400  1
  O  O7  1  0.46578900  0.62248400  0.31976500  1
  O  O8  1  0.53421100  0.37751600  0.68023500  1
  O  O9  1  0.03502400  0.12801300  0.30077300  1
  O  O10  1  0.47010700  0.86357600  0.92486600  1
  O  O11  1  0.03587800  0.62795200  0.55224100  1
  O  O12  1  0.02743900  0.12132400  0.80478600  1
  O  O13  1  0.53348500  0.87725900  0.42840000  1
  O  O14  1  0.00803200  0.63623900  0.05113400  1
  O  O15  1  0.47393500  0.35757100  0.17769700  1
loop_
_geom_bond_atom_site_label_1
_geom_bond_atom_site_label_2
_geom_bond_distance
_geom_bond_site_symmetry_2
Li0 O4 2.049779 1_555
Li0 O0 2.136119 1_555
Li0 O8 2.138664 1_555
Li0 O8 2.161598 1_655
Li0 O11 2.283650 1_655
Li0 O0 2.466823 1_655
Li1 O15 2.060539 1_555
Li1 O5 2.137258 1_555
Li1 O9 2.147170 1_655
Li1 O1 2.147734 1_455
Li1 O9 2.153667 1_555
Li1 O1 2.186921 1_555
Li2 O12 2.097988 1_554
Li2 O6 2.097988 1_445
Li2 O2 2.116415 1_455
Li2 O10 2.116415 1_544
Li2 O2 2.415273 1_555
Li2 O10 2.415273 1_444
Li3 O0 2.060539 1_555
Li3 O13 2.137258 1_555
Li3 O3 2.147170 1_455
Li3 O11 2.147734 1_655
Li3 O3 2.153667 1_555
Li3 O11 2.186921 1_555
Li4 O4 2.003837 1_455
Li4 O4 2.066181 1_555
Li4 O8 2.111215 1_555
Li4 O2 2.113130 1_556
Li4 O12 2.205435 1_655
Li4 O12 2.331431 1_555
Li5 O5 2.139055 1_455
Li5 O13 2.139055 1_545
Li5 O3 2.158590 1_445
Li5 O9 2.158590 1_555
Li5 O5 2.170143 1_555
Li5 O13 2.170143 1_445
Li6 O14 2.003837 1_655
Li6 O14 2.066181 1_555
Li6 O7 2.111215 1_555
Li6 O10 2.113130 1_554
Li6 O6 2.205435 1_455
Li6 O6 2.331431 1_555
Li7 O14 2.049779 1_555
Li7 O15 2.136119 1_555
Li7 O7 2.138664 1_555
Li7 O7 2.161598 1_455
Li7 O1 2.283650 1_455
Li7 O15 2.466823 1_455
Li8 O0 2.052321 1_554
Li8 O15 2.052321 1_555
Li8 O4 2.054245 1_554
Li8 O14 2.054245 1_555
Li8 O14 2.264280 1_655
Li8 O4 2.264280 1_454
Mn0 O14 1.820707 1_656
Mn0 O0 1.948608 1_655
Mn0 O0 1.956164 1_555
Mn0 O10 2.013672 1_555
Mn0 O3 2.027535 1_555
Mn0 O10 2.071248 1_655
Mn1 O4 1.820707 1_454
Mn1 O15 1.948608 1_455
Mn1 O15 1.956164 1_555
Mn1 O2 2.013672 1_555
Mn1 O9 2.027535 1_555
Mn1 O2 2.071248 1_455
Mn2 O11 1.949494 1_555
Mn2 O1 1.949494 1_555
Mn2 O8 1.977093 1_555
Mn2 O7 1.977093 1_555
Mn2 O11 2.274689 1_655
Mn2 O1 2.274689 1_455
Mn3 O3 1.935799 1_555
Mn3 O12 1.944484 1_565
Mn3 O5 1.967295 1_565
Mn3 O10 1.992776 1_555
Mn3 O3 2.215067 1_455
Mn3 O12 2.274141 1_665
Mn4 O13 1.956923 1_455
Mn4 O7 1.959248 1_555
Mn4 O11 1.968694 1_555
Mn4 O6 1.982001 1_455
Mn4 O13 2.265411 1_555
Mn4 O7 2.283272 1_455
Mn5 O5 1.956923 1_655
Mn5 O8 1.959248 1_555
Mn5 O1 1.968694 1_555
Mn5 O12 1.982001 1_655
Mn5 O5 2.265411 1_555
Mn5 O8 2.283272 1_655
Mn6 O9 1.935799 1_555
Mn6 O6 1.944484 1_545
Mn6 O13 1.967295 1_545
Mn6 O2 1.992776 1_555
Mn6 O9 2.215067 1_655
Mn6 O6 2.274141 1_445
