# generated using pymatgen
data_YAl7Fe5
_symmetry_space_group_name_H-M   'P 1'
_cell_length_a   5.02765900
_cell_length_b   6.60520115
_cell_length_c   6.60520115
_cell_angle_alpha   98.34696956
_cell_angle_beta   112.36981593
_cell_angle_gamma   67.63018407
_symmetry_Int_Tables_number   1
_chemical_formula_structural   YAl7Fe5
_chemical_formula_sum   'Y1 Al7 Fe5'
_cell_volume   187.57865564
_cell_formula_units_Z   1
loop_
 _symmetry_equiv_pos_site_id
 _symmetry_equiv_pos_as_xyz
  1  'x, y, z'
loop_
 _atom_site_type_symbol
 _atom_site_label
 _atom_site_symmetry_multiplicity
 _atom_site_fract_x
 _atom_site_fract_y
 _atom_site_fract_z
 _atom_site_occupancy
  Y  Y0  1  0.00445500  0.99554500  0.00445500  1
  Al  Al0  1  0.65960300  0.34039700  0.65960300  1
  Al  Al1  1  0.33727200  0.66272800  0.33727200  1
  Al  Al2  1  0.99129200  0.35197900  0.33456400  1
  Al  Al3  1  0.99129200  0.66543600  0.64802100  1
  Al  Al4  1  0.27701400  0.22298600  0.77701400  1
  Al  Al5  1  0.50452500  0.78397400  0.79302500  1
  Al  Al6  1  0.50452500  0.20697500  0.21602600  1
  Fe  Fe0  1  0.49696600  0.00150400  0.49932900  1
  Fe  Fe1  1  0.00085900  0.00150400  0.49932900  1
  Fe  Fe2  1  0.49696600  0.50067100  0.99849600  1
  Fe  Fe3  1  0.00085900  0.50067100  0.99849600  1
  Fe  Fe4  1  0.73437300  0.76562700  0.23437300  1
loop_
_geom_bond_atom_site_label_1
_geom_bond_atom_site_label_2
_geom_bond_distance
_geom_bond_site_symmetry_2
Al0 Fe2 2.616546 1_555
Al0 Fe0 2.616546 1_555
Al0 Fe3 2.616546 1_655
Al0 Fe1 2.616546 1_655
Al0 Al4 2.710788 1_555
Al0 Al4 2.710788 1_655
Al0 Al1 2.784890 1_555
Al0 Al5 2.829045 1_555
Al0 Al6 2.829045 1_555
Al0 Y0 2.979468 1_646
Al1 Fe2 2.610666 1_554
Al1 Fe0 2.610666 1_565
Al1 Fe1 2.610666 1_565
Al1 Fe3 2.610666 1_554
Al1 Fe4 2.666405 1_555
Al1 Fe4 2.666405 1_455
Al1 Y0 2.875488 1_555
Al1 Al6 2.880358 1_555
Al1 Al5 2.880358 1_555
Al2 Fe2 2.577713 1_554
Al2 Fe3 2.577715 1_654
Al2 Fe4 2.599903 1_555
Al2 Fe1 2.674438 1_655
Al2 Fe0 2.674440 1_655
Al2 Al3 2.707195 1_555
Al2 Al6 2.761805 1_555
Al2 Al6 2.761805 1_655
Al2 Al4 2.815344 1_655
Al2 Y0 2.966871 1_645
Al3 Fe0 2.577713 1_565
Al3 Fe1 2.577715 1_665
Al3 Fe4 2.599903 1_555
Al3 Fe3 2.674438 1_655
Al3 Fe2 2.674440 1_655
Al3 Al5 2.761805 1_555
Al3 Al5 2.761805 1_655
Al3 Al4 2.815344 1_655
Al3 Y0 2.966871 1_656
Al4 Fe0 2.502131 1_555
Al4 Fe2 2.502131 1_555
Al4 Fe1 2.502131 1_555
Al4 Fe3 2.502131 1_555
Al4 Al6 2.683366 1_556
Al4 Al5 2.683366 1_545
Al4 Y0 3.190733 1_546
Al4 Y0 3.190734 1_646
Al5 Fe2 2.485111 1_555
Al5 Fe3 2.485114 1_655
Al5 Fe1 2.557496 1_565
Al5 Fe0 2.557498 1_565
Al5 Fe4 2.698185 1_556
Al5 Y0 3.107401 1_556
Al5 Y0 3.107405 1_656
Al6 Fe0 2.485111 1_555
Al6 Fe1 2.485114 1_655
Al6 Fe3 2.557496 1_554
Al6 Fe2 2.557498 1_554
Al6 Fe4 2.698185 1_545
Al6 Y0 3.107401 1_545
Al6 Y0 3.107405 1_645
Fe0 Fe1 2.494257 1_555
Fe0 Fe4 2.509534 1_545
Fe0 Fe1 2.533402 1_655
Fe0 Y0 3.270113 1_545
Fe0 Y0 3.335492 1_646
Fe1 Fe4 2.509534 1_445
Fe1 Y0 3.270113 1_545
Fe1 Y0 3.335492 1_546
Fe2 Fe3 2.494257 1_555
Fe2 Fe4 2.509534 1_556
Fe2 Fe3 2.533402 1_655
Fe2 Y0 3.270113 1_556
Fe2 Y0 3.335492 1_646
Fe3 Fe4 2.509534 1_456
Fe3 Y0 3.270113 1_556
Fe3 Y0 3.335492 1_546
Fe4 Y0 3.203958 1_655
Fe4 Y0 3.203958 1_555
