# generated using pymatgen
data_CsNaMg6
_symmetry_space_group_name_H-M   'P 1'
_cell_length_a   6.98155298
_cell_length_b   6.98155298
_cell_length_c   5.79841500
_cell_angle_alpha   90.00000000
_cell_angle_beta   90.00000000
_cell_angle_gamma   121.72171378
_symmetry_Int_Tables_number   1
_chemical_formula_structural   CsNaMg6
_chemical_formula_sum   'Cs1 Na1 Mg6'
_cell_volume   240.40573746
_cell_formula_units_Z   1
loop_
 _symmetry_equiv_pos_site_id
 _symmetry_equiv_pos_as_xyz
  1  'x, y, z'
loop_
 _atom_site_type_symbol
 _atom_site_label
 _atom_site_symmetry_multiplicity
 _atom_site_fract_x
 _atom_site_fract_y
 _atom_site_fract_z
 _atom_site_occupancy
  Cs  Cs0  1  0.33286500  0.66713500  0.50000000  1
  Na  Na0  1  0.83313600  0.16686400  0.50000000  1
  Mg  Mg0  1  0.32898300  0.16468800  0.50000000  1
  Mg  Mg1  1  0.83531200  0.67101700  0.50000000  1
  Mg  Mg2  1  0.16404000  0.31677600  0.00000000  1
  Mg  Mg3  1  0.68322400  0.83596000  0.00000000  1
  Mg  Mg4  1  0.66451000  0.33549000  0.00000000  1
  Mg  Mg5  1  0.15793500  0.84206500  0.00000000  1
loop_
_geom_bond_atom_site_label_1
_geom_bond_atom_site_label_2
_geom_bond_distance
_geom_bond_site_symmetry_2
Cs0 Na0 3.399545 1_565
Cs0 Na0 3.399545 1_455
Cs0 Mg0 3.488019 1_565
Cs0 Mg1 3.488019 1_455
Cs0 Mg0 3.493686 1_555
Cs0 Mg1 3.493686 1_555
Cs0 Mg3 3.570156 1_555
Cs0 Mg2 3.570156 1_555
Cs0 Mg2 3.570156 1_556
Cs0 Mg3 3.570156 1_556
Cs0 Mg5 3.599576 1_555
Cs0 Mg5 3.599576 1_556
Mg0 Mg1 3.356512 1_445
Mg0 Mg1 3.442574 1_555
Mg0 Na0 3.469794 1_455
Mg0 Mg5 3.475094 1_545
Mg0 Mg5 3.475094 1_546
Mg0 Mg2 3.484931 1_555
Mg0 Mg2 3.484931 1_556
Mg0 Na0 3.511807 1_555
Mg0 Mg4 3.518129 1_556
Mg0 Mg4 3.518129 1_555
Mg1 Na0 3.469794 1_565
Mg1 Mg5 3.475094 1_655
Mg1 Mg5 3.475094 1_656
Mg1 Mg3 3.484931 1_556
Mg1 Mg3 3.484931 1_555
Mg1 Na0 3.511807 1_555
Mg1 Mg4 3.518129 1_555
Mg1 Mg4 3.518129 1_556
Mg2 Mg5 3.292009 1_545
Mg2 Na0 3.506464 1_455
Mg2 Na0 3.506464 1_454
Mg3 Mg5 3.292009 1_655
Mg3 Na0 3.506464 1_565
Mg3 Na0 3.506464 1_564
Mg4 Mg5 3.400489 1_545
Mg4 Mg5 3.400489 1_655
Mg4 Na0 3.554547 1_554
Mg4 Na0 3.554547 1_555
