# generated using pymatgen
data_Ba2LaMn2O7
_symmetry_space_group_name_H-M   'P 1'
_cell_length_a   4.06511500
_cell_length_b   10.85329457
_cell_length_c   7.87580200
_cell_angle_alpha   79.54698101
_cell_angle_beta   90.00364511
_cell_angle_gamma   100.79479065
_symmetry_Int_Tables_number   1
_chemical_formula_structural   Ba2LaMn2O7
_chemical_formula_sum   'Ba4 La2 Mn4 O14'
_cell_volume   335.45894508
_cell_formula_units_Z   2
loop_
 _symmetry_equiv_pos_site_id
 _symmetry_equiv_pos_as_xyz
  1  'x, y, z'
loop_
 _atom_site_type_symbol
 _atom_site_label
 _atom_site_symmetry_multiplicity
 _atom_site_fract_x
 _atom_site_fract_y
 _atom_site_fract_z
 _atom_site_occupancy
  Ba  Ba0  1  0.68153400  0.36307400  0.15920500  1
  Ba  Ba1  1  0.68151800  0.36305800  0.65925300  1
  Ba  Ba2  1  0.31846600  0.63692500  0.84079500  1
  Ba  Ba3  1  0.31848100  0.63694100  0.34074900  1
  La  La0  1  0.49999600  0.00000200  0.24998600  1
  La  La1  1  0.49999800  0.99999800  0.75001500  1
  Mn  Mn0  1  0.90693800  0.81386700  0.04652200  1
  Mn  Mn1  1  0.09306200  0.18612800  0.95347800  1
  Mn  Mn2  1  0.90690900  0.81381000  0.54654500  1
  Mn  Mn3  1  0.09309700  0.18620000  0.45345200  1
  O  O0  1  0.00000100  0.00000100  0.50000100  1
  O  O1  1  0.00000000  0.99999900  0.00000000  1
  O  O2  1  0.81380400  0.62758600  0.09308500  1
  O  O3  1  0.81380200  0.62757900  0.59309700  1
  O  O4  1  0.18619700  0.37241300  0.90691600  1
  O  O5  1  0.18619900  0.37242100  0.40690300  1
  O  O6  1  0.41355800  0.82710500  0.04319800  1
  O  O7  1  0.41355500  0.82709900  0.54320400  1
  O  O8  1  0.91390200  0.82780800  0.79319400  1
  O  O9  1  0.91390400  0.82781000  0.29290700  1
  O  O10  1  0.58644200  0.17289400  0.95680200  1
  O  O11  1  0.58644600  0.17290200  0.45679500  1
  O  O12  1  0.08609700  0.17219000  0.20678700  1
  O  O13  1  0.08609500  0.17218900  0.70711200  1
loop_
_geom_bond_atom_site_label_1
_geom_bond_atom_site_label_2
_geom_bond_distance
_geom_bond_site_symmetry_2
Ba0 O2 2.771514 1_555
Ba0 O10 2.801058 1_554
Ba0 O11 2.801540 1_555
Ba0 O4 2.831221 1_554
Ba0 O4 2.831362 1_654
Ba0 O5 2.831620 1_655
Ba0 O5 2.831851 1_555
Ba0 O12 2.851557 1_555
Ba0 O12 2.851600 1_655
Ba1 O3 2.771609 1_555
Ba1 O11 2.801151 1_555
Ba1 O10 2.801265 1_555
Ba1 O4 2.831472 1_655
Ba1 O5 2.831513 1_555
Ba1 O4 2.831644 1_555
Ba1 O5 2.831689 1_655
Ba1 O13 2.851428 1_555
Ba1 O13 2.851509 1_655
Ba2 O4 2.771514 1_555
Ba2 O6 2.801058 1_556
Ba2 O7 2.801558 1_555
Ba2 O2 2.831229 1_556
Ba2 O2 2.831365 1_456
Ba2 O3 2.831617 1_455
Ba2 O3 2.831850 1_555
Ba2 O8 2.851548 1_555
Ba2 O8 2.851594 1_455
Ba3 O5 2.771598 1_555
Ba3 O7 2.801152 1_555
Ba3 O6 2.801276 1_555
Ba3 O2 2.831471 1_455
Ba3 O3 2.831508 1_555
Ba3 O2 2.831655 1_555
Ba3 O3 2.831675 1_455
Ba3 O9 2.851428 1_555
Ba3 O9 2.851508 1_455
La0 O10 2.675294 1_554
La0 O7 2.675553 1_545
La0 O6 2.675633 1_545
La0 O11 2.675780 1_555
La0 O12 2.717756 1_555
La0 O9 2.717780 1_445
La0 O12 2.717785 1_655
La0 O9 2.717818 1_545
La0 O1 2.829672 1_545
La0 O0 2.829858 1_655
La0 O1 2.829884 1_645
La0 O0 2.830006 1_555
La1 O6 2.675294 1_556
La1 O11 2.675570 1_565
La1 O10 2.675618 1_565
La1 O7 2.675783 1_555
La1 O8 2.717781 1_455
La1 O8 2.717788 1_555
La1 O13 2.717789 1_665
La1 O13 2.717794 1_565
La1 O1 2.829684 1_656
La1 O0 2.829829 1_565
La1 O1 2.829856 1_556
La1 O0 2.830018 1_665
Mn0 O1 1.950261 1_655
Mn0 O2 1.951822 1_555
Mn0 O8 1.973126 1_554
Mn0 O9 1.973348 1_555
Mn0 O6 2.037281 1_555
Mn0 O6 2.037288 1_655
Mn1 O1 1.950230 1_546
Mn1 O4 1.951864 1_555
Mn1 O12 1.972980 1_556
Mn1 O13 1.973188 1_555
Mn1 O10 2.037270 1_555
Mn1 O10 2.037293 1_455
Mn2 O0 1.950879 1_665
Mn2 O3 1.951299 1_555
Mn2 O9 1.975491 1_555
Mn2 O8 1.975572 1_555
Mn2 O7 2.037316 1_555
Mn2 O7 2.037327 1_655
Mn3 O0 1.950963 1_555
Mn3 O5 1.951194 1_555
Mn3 O13 1.975651 1_555
Mn3 O12 1.975731 1_555
Mn3 O11 2.037320 1_555
Mn3 O11 2.037335 1_455
