# generated using pymatgen
data_Y4NiB13
_symmetry_space_group_name_H-M   'P 1'
_cell_length_a   7.34828900
_cell_length_b   7.34828900
_cell_length_c   6.94249000
_cell_angle_alpha   90.00000000
_cell_angle_beta   90.00000000
_cell_angle_gamma   90.00000000
_symmetry_Int_Tables_number   1
_chemical_formula_structural   Y4NiB13
_chemical_formula_sum   'Y8 Ni2 B26'
_cell_volume   374.87607092
_cell_formula_units_Z   2
loop_
 _symmetry_equiv_pos_site_id
 _symmetry_equiv_pos_as_xyz
  1  'x, y, z'
loop_
 _atom_site_type_symbol
 _atom_site_label
 _atom_site_symmetry_multiplicity
 _atom_site_fract_x
 _atom_site_fract_y
 _atom_site_fract_z
 _atom_site_occupancy
  Y  Y0  1  0.68495800  0.18027700  0.50000000  1
  Y  Y1  1  0.31504200  0.81972300  0.50000000  1
  Y  Y2  1  0.18495800  0.31972300  0.00000000  1
  Y  Y3  1  0.81504200  0.68027700  0.00000000  1
  Y  Y4  1  0.81972300  0.68495800  0.50000000  1
  Y  Y5  1  0.18027700  0.31504200  0.50000000  1
  Y  Y6  1  0.68027700  0.18495800  0.00000000  1
  Y  Y7  1  0.31972300  0.81504200  0.00000000  1
  Ni  Ni0  1  0.50000000  0.50000000  0.50000000  1
  Ni  Ni1  1  0.00000000  0.00000000  0.00000000  1
  B  B0  1  0.50000000  0.50000000  0.00000000  1
  B  B1  1  0.00000000  0.00000000  0.50000000  1
  B  B2  1  0.90693600  0.40693600  0.25000000  1
  B  B3  1  0.09306400  0.59306400  0.25000000  1
  B  B4  1  0.40693600  0.09306400  0.75000000  1
  B  B5  1  0.59306400  0.90693600  0.75000000  1
  B  B6  1  0.59306400  0.90693600  0.25000000  1
  B  B7  1  0.40693600  0.09306400  0.25000000  1
  B  B8  1  0.90693600  0.40693600  0.75000000  1
  B  B9  1  0.09306400  0.59306400  0.75000000  1
  B  B10  1  0.53985000  0.66983800  0.24357000  1
  B  B11  1  0.46015000  0.33016200  0.24357000  1
  B  B12  1  0.03985000  0.83016200  0.74357000  1
  B  B13  1  0.96015000  0.16983800  0.74357000  1
  B  B14  1  0.33016200  0.53985000  0.24357000  1
  B  B15  1  0.66983800  0.46015000  0.24357000  1
  B  B16  1  0.16983800  0.03985000  0.74357000  1
  B  B17  1  0.83016200  0.96015000  0.74357000  1
  B  B18  1  0.46015000  0.33016200  0.75643000  1
  B  B19  1  0.53985000  0.66983800  0.75643000  1
  B  B20  1  0.96015000  0.16983800  0.25643000  1
  B  B21  1  0.03985000  0.83016200  0.25643000  1
  B  B22  1  0.66983800  0.46015000  0.75643000  1
  B  B23  1  0.33016200  0.53985000  0.75643000  1
  B  B24  1  0.83016200  0.96015000  0.25643000  1
  B  B25  1  0.16983800  0.03985000  0.25643000  1
loop_
_geom_bond_atom_site_label_1
_geom_bond_atom_site_label_2
_geom_bond_distance
_geom_bond_site_symmetry_2
Ni0 Y1 2.714218 1_555
Ni0 Y0 2.714218 1_555
Ni0 Y5 2.714218 1_555
Ni0 Y4 2.714218 1_555
Ni1 Y6 2.714218 1_455
Ni1 Y2 2.714218 1_555
Ni1 Y3 2.714218 1_445
Ni1 Y7 2.714218 1_545
B0 B22 2.121962 1_554
B0 B19 2.121962 1_554
B0 B10 2.121962 1_555
B0 B15 2.121962 1_555
B0 B23 2.121962 1_554
B0 B18 2.121962 1_554
B0 B11 2.121962 1_555
B0 B14 2.121962 1_555
B0 Y3 2.667249 1_555
B0 Y7 2.667249 1_555
B0 Y2 2.667249 1_555
B0 Y6 2.667249 1_555
B1 B25 2.121962 1_555
B1 B20 2.121962 1_455
B1 B21 2.121962 1_545
B1 B24 2.121962 1_445
B1 B13 2.121962 1_455
B1 B16 2.121962 1_555
B1 B17 2.121962 1_445
B1 B12 2.121962 1_545
B1 Y1 2.667249 1_545
B1 Y5 2.667249 1_555
B1 Y0 2.667249 1_455
B1 Y4 2.667249 1_445
B2 B20 1.786165 1_555
B2 B3 1.934251 1_655
B2 Y5 2.739123 1_655
B2 Y3 2.739123 1_555
B2 Y2 2.756245 1_655
B2 Y4 2.756245 1_555
B2 Y0 2.906396 1_555
B2 Y6 2.906396 1_555
B3 Y2 2.739123 1_555
B3 Y4 2.739123 1_455
B3 Y5 2.756245 1_555
B3 Y3 2.756245 1_455
B3 Y7 2.906396 1_555
B3 Y1 2.906396 1_555
B4 B5 1.934251 1_545
B4 Y1 2.739123 1_545
B4 Y6 2.739123 1_556
B4 Y7 2.756245 1_546
B4 Y0 2.756245 1_555
B4 Y5 2.906396 1_555
B4 Y2 2.906396 1_556
B5 Y7 2.739123 1_556
B5 Y0 2.739123 1_565
B5 Y1 2.756245 1_555
B5 Y6 2.756245 1_566
B5 Y3 2.906396 1_556
B5 Y4 2.906396 1_555
B6 B7 1.934251 1_565
B6 Y7 2.739123 1_555
B6 Y0 2.739123 1_565
B6 Y1 2.756245 1_555
B6 Y6 2.756245 1_565
B6 Y3 2.906396 1_555
B6 Y4 2.906396 1_555
B7 Y1 2.739123 1_545
B7 Y6 2.739123 1_555
B7 Y7 2.756245 1_545
B7 Y0 2.756245 1_555
B7 Y5 2.906396 1_555
B7 Y2 2.906396 1_555
B8 B9 1.934251 1_655
B8 Y5 2.739123 1_655
B8 Y3 2.739123 1_556
B8 Y2 2.756245 1_656
B8 Y4 2.756245 1_555
B8 Y0 2.906396 1_555
B8 Y6 2.906396 1_556
B9 Y2 2.739123 1_556
B9 Y4 2.739123 1_455
B9 Y5 2.756245 1_555
B9 Y3 2.756245 1_456
B9 Y7 2.906396 1_556
B9 Y1 2.906396 1_555
B10 B6 1.786165 1_555
B10 B15 1.812898 1_555
B10 B14 1.812898 1_555
B10 Ni0 2.193772 1_555
B10 Y7 2.571848 1_555
B10 Y3 2.637150 1_555
B10 Y1 2.666714 1_555
B10 Y4 2.722358 1_555
B11 B7 1.786165 1_555
B11 B15 1.812898 1_555
B11 B14 1.812898 1_555
B11 Ni0 2.193772 1_555
B11 Y6 2.571848 1_555
B11 Y2 2.637150 1_555
B11 Y0 2.666714 1_555
B11 Y5 2.722358 1_555
B12 B9 1.786165 1_555
B12 B16 1.812898 1_565
B12 B17 1.812898 1_455
B12 Ni1 2.193772 1_566
B12 Y4 2.571848 1_455
B12 Y1 2.637150 1_555
B12 Y3 2.666714 1_456
B12 Y7 2.722358 1_556
B13 B8 1.786165 1_555
B13 B16 1.812898 1_655
B13 B17 1.812898 1_545
B13 Ni1 2.193772 1_656
B13 Y5 2.571848 1_655
B13 Y0 2.637150 1_555
B13 Y2 2.666714 1_656
B13 Y6 2.722358 1_556
B14 B3 1.786165 1_555
B14 Ni0 2.193772 1_555
B14 Y2 2.571848 1_555
B14 Y7 2.637150 1_555
B14 Y5 2.666714 1_555
B14 Y1 2.722358 1_555
B15 B2 1.786165 1_555
B15 Ni0 2.193772 1_555
B15 Y3 2.571848 1_555
B15 Y6 2.637150 1_555
B15 Y4 2.666714 1_555
B15 Y0 2.722358 1_555
B16 B4 1.786165 1_555
B16 Ni1 2.193772 1_556
B16 Y1 2.571848 1_545
B16 Y5 2.637150 1_555
B16 Y7 2.666714 1_546
B16 Y2 2.722358 1_556
B17 B5 1.786165 1_555
B17 Ni1 2.193772 1_666
B17 Y0 2.571848 1_565
B17 Y4 2.637150 1_555
B17 Y6 2.666714 1_566
B17 Y3 2.722358 1_556
B18 B4 1.786165 1_555
B18 B22 1.812898 1_555
B18 B23 1.812898 1_555
B18 Ni0 2.193772 1_555
B18 Y6 2.571848 1_556
B18 Y2 2.637150 1_556
B18 Y0 2.666714 1_555
B18 Y5 2.722358 1_555
B19 B5 1.786165 1_555
B19 B22 1.812898 1_555
B19 B23 1.812898 1_555
B19 Ni0 2.193772 1_555
B19 Y7 2.571848 1_556
B19 Y3 2.637150 1_556
B19 Y1 2.666714 1_555
B19 Y4 2.722358 1_555
B20 B25 1.812898 1_655
B20 B24 1.812898 1_545
B20 Ni1 2.193772 1_655
B20 Y5 2.571848 1_655
B20 Y0 2.637150 1_555
B20 Y2 2.666714 1_655
B20 Y6 2.722358 1_555
B21 B3 1.786165 1_555
B21 B25 1.812898 1_565
B21 B24 1.812898 1_455
B21 Ni1 2.193772 1_565
B21 Y4 2.571848 1_455
B21 Y1 2.637150 1_555
B21 Y3 2.666714 1_455
B21 Y7 2.722358 1_555
B22 B8 1.786165 1_555
B22 Ni0 2.193772 1_555
B22 Y3 2.571848 1_556
B22 Y6 2.637150 1_556
B22 Y4 2.666714 1_555
B22 Y0 2.722358 1_555
B23 B9 1.786165 1_555
B23 Ni0 2.193772 1_555
B23 Y2 2.571848 1_556
B23 Y7 2.637150 1_556
B23 Y5 2.666714 1_555
B23 Y1 2.722358 1_555
B24 B6 1.786165 1_555
B24 Ni1 2.193772 1_665
B24 Y0 2.571848 1_565
B24 Y4 2.637150 1_555
B24 Y6 2.666714 1_565
B24 Y3 2.722358 1_555
B25 B7 1.786165 1_555
B25 Ni1 2.193772 1_555
B25 Y1 2.571848 1_545
B25 Y5 2.637150 1_555
B25 Y7 2.666714 1_545
B25 Y2 2.722358 1_555
