# generated using pymatgen
data_TiNi3
_symmetry_space_group_name_H-M   'P 1'
_cell_length_a   5.05360022
_cell_length_b   5.05360238
_cell_length_c   8.23143202
_cell_angle_alpha   90.00000000
_cell_angle_beta   90.00000000
_cell_angle_gamma   120.00000576
_symmetry_Int_Tables_number   1
_chemical_formula_structural   TiNi3
_chemical_formula_sum   'Ti4 Ni12'
_cell_volume   182.05723950
_cell_formula_units_Z   4
loop_
 _symmetry_equiv_pos_site_id
 _symmetry_equiv_pos_as_xyz
  1  'x, y, z'
loop_
 _atom_site_type_symbol
 _atom_site_label
 _atom_site_symmetry_multiplicity
 _atom_site_fract_x
 _atom_site_fract_y
 _atom_site_fract_z
 _atom_site_occupancy
  Ti  Ti0  1  0.66666700  0.33333300  0.75000000  1
  Ti  Ti1  1  0.33333300  0.66666700  0.25000000  1
  Ti  Ti2  1  0.00000000  -0.00000000  0.50000000  1
  Ti  Ti3  1  0.00000000  -0.00000000  0.00000000  1
  Ni  Ni0  1  0.50000000  0.50000000  0.00000000  1
  Ni  Ni1  1  0.50000000  -0.00000000  0.50000000  1
  Ni  Ni2  1  0.82784972  0.65569743  0.25000000  1
  Ni  Ni3  1  0.17215028  0.82784972  0.75000000  1
  Ni  Ni4  1  0.65569743  0.82784972  0.75000000  1
  Ni  Ni5  1  0.34430257  0.17215028  0.25000000  1
  Ni  Ni6  1  0.82784972  0.17215028  0.25000000  1
  Ni  Ni7  1  0.17215028  0.34430257  0.75000000  1
  Ni  Ni8  1  0.00000000  0.50000000  0.00000000  1
  Ni  Ni9  1  0.00000000  0.50000000  0.50000000  1
  Ni  Ni10  1  0.50000000  0.50000000  0.50000000  1
  Ni  Ni11  1  0.50000000  -0.00000000  0.00000000  1
loop_
_geom_bond_atom_site_label_1
_geom_bond_atom_site_label_2
_geom_bond_distance
_geom_bond_site_symmetry_2
Ni0 Ni2 2.509044 1_555
Ni0 Ni7 2.509044 1_554
Ni0 Ni5 2.509044 1_555
Ni0 Ni4 2.509044 1_554
Ni0 Ti0 2.522504 1_554
Ni0 Ti1 2.522504 1_555
Ni0 Ni8 2.526800 1_555
Ni0 Ni8 2.526800 1_655
Ni0 Ti3 2.526800 1_665
Ni0 Ti3 2.526800 1_555
Ni0 Ni11 2.526801 1_555
Ni0 Ni11 2.526801 1_565
Ni1 Ni4 2.509039 1_545
Ni1 Ni5 2.509039 1_555
Ni1 Ni6 2.509044 1_555
Ni1 Ni3 2.509044 1_545
Ni1 Ti0 2.522502 1_555
Ni1 Ti1 2.522502 1_545
Ni1 Ti2 2.526800 1_655
Ni1 Ti2 2.526800 1_555
Ni1 Ni9 2.526800 1_655
Ni1 Ni9 2.526800 1_545
Ni1 Ni10 2.526801 1_545
Ni1 Ni10 2.526801 1_555
Ni2 Ni5 2.443654 1_555
Ni2 Ni6 2.443655 1_555
Ni2 Ni8 2.509039 1_655
Ni2 Ni9 2.509039 1_655
Ni2 Ti1 2.527249 1_655
Ni2 Ti1 2.527264 1_555
Ni2 Ti2 2.550568 1_665
Ni2 Ti3 2.550568 1_665
Ni2 Ni5 2.609947 1_665
Ni2 Ni6 2.609947 1_565
Ni3 Ni4 2.443654 1_555
Ni3 Ni7 2.443655 1_555
Ni3 Ni9 2.509044 1_555
Ni3 Ni8 2.509044 1_556
Ni3 Ti0 2.527256 1_455
Ni3 Ti0 2.527256 1_565
Ni3 Ti3 2.550563 1_566
Ni3 Ti2 2.550563 1_565
Ni3 Ni4 2.609946 1_455
Ni3 Ni7 2.609947 1_565
Ni4 Ni7 2.443654 1_555
Ni4 Ti0 2.527250 1_565
Ni4 Ti0 2.527265 1_555
Ni4 Ti2 2.550568 1_665
Ni4 Ti3 2.550568 1_666
Ni4 Ni7 2.609947 1_665
Ni5 Ni6 2.443654 1_555
Ni5 Ti1 2.527250 1_545
Ni5 Ti1 2.527265 1_555
Ni5 Ti2 2.550568 1_555
Ni5 Ti3 2.550568 1_555
Ni5 Ni6 2.609946 1_455
Ni6 Ni8 2.509044 1_655
Ni6 Ni9 2.509044 1_655
Ni6 Ti1 2.527256 1_655
Ni6 Ti1 2.527256 1_545
Ni6 Ti3 2.550563 1_655
Ni6 Ti2 2.550563 1_655
Ni7 Ni9 2.509039 1_555
Ni7 Ni8 2.509039 1_556
Ni7 Ti0 2.527249 1_455
Ni7 Ti0 2.527264 1_555
Ni7 Ti3 2.550568 1_556
Ni7 Ti2 2.550568 1_555
Ni8 Ti1 2.522502 1_555
Ni8 Ti0 2.522502 1_454
Ni8 Ti3 2.526801 1_555
Ni8 Ti3 2.526801 1_565
Ni9 Ti1 2.522502 1_555
Ni9 Ti0 2.522502 1_455
Ni9 Ti2 2.526801 1_555
Ni9 Ti2 2.526801 1_565
Ni10 Ni2 2.509044 1_555
Ni10 Ni7 2.509044 1_555
Ni10 Ni4 2.509044 1_555
Ni10 Ni5 2.509044 1_555
Ni10 Ti0 2.522504 1_555
Ni10 Ti1 2.522504 1_555
Ni10 Ni9 2.526800 1_555
Ni10 Ni9 2.526800 1_655
Ni10 Ti2 2.526800 1_665
Ni10 Ti2 2.526800 1_555
Ni11 Ni5 2.509039 1_555
Ni11 Ni4 2.509039 1_544
Ni11 Ni3 2.509044 1_544
Ni11 Ni6 2.509044 1_555
Ni11 Ti1 2.522502 1_545
Ni11 Ti0 2.522502 1_554
Ni11 Ti3 2.526800 1_555
Ni11 Ti3 2.526800 1_655
Ni11 Ni8 2.526800 1_655
Ni11 Ni8 2.526800 1_545
