# generated using pymatgen
data_K2VAgS2
_symmetry_space_group_name_H-M   'P 1'
_cell_length_a   11.89891900
_cell_length_b   7.48540610
_cell_length_c   13.41726407
_cell_angle_alpha   69.36384647
_cell_angle_beta   63.67782041
_cell_angle_gamma   37.36289626
_symmetry_Int_Tables_number   1
_chemical_formula_structural   K2VAgS2
_chemical_formula_sum   'K8 V4 Ag4 S8'
_cell_volume   650.03516229
_cell_formula_units_Z   4
loop_
 _symmetry_equiv_pos_site_id
 _symmetry_equiv_pos_as_xyz
  1  'x, y, z'
loop_
 _atom_site_type_symbol
 _atom_site_label
 _atom_site_symmetry_multiplicity
 _atom_site_fract_x
 _atom_site_fract_y
 _atom_site_fract_z
 _atom_site_occupancy
  K  K0  1  0.74779300  0.17364000  0.55276500  1
  K  K1  1  0.69944200  0.82636000  0.55276500  1
  K  K2  1  0.07856700  0.17364000  0.44723500  1
  K  K3  1  0.00220700  0.32636000  0.94723500  1
  K  K4  1  0.47419800  0.82636000  0.44723500  1
  K  K5  1  0.05055800  0.67364000  0.94723500  1
  K  K6  1  0.67143300  0.32636000  0.05276500  1
  K  K7  1  0.27580200  0.67364000  0.05276500  1
  V  V0  1  0.87500000  0.25000000  0.25000000  1
  V  V1  1  0.87500000  0.75000000  0.25000000  1
  V  V2  1  0.87500000  0.25000000  0.75000000  1
  V  V3  1  0.37500000  0.75000000  0.75000000  1
  Ag  Ag0  1  0.37500000  0.25000000  0.25000000  1
  Ag  Ag1  1  0.37500000  0.75000000  0.25000000  1
  Ag  Ag2  1  0.37500000  0.25000000  0.75000000  1
  Ag  Ag3  1  0.87500000  0.75000000  0.75000000  1
  S  S0  1  0.12274200  0.21498900  0.17658000  1
  S  S1  1  0.70067800  0.78501100  0.17658000  1
  S  S2  1  0.66226900  0.21498900  0.82342000  1
  S  S3  1  0.62725800  0.28501100  0.32342000  1
  S  S4  1  0.51431100  0.78501100  0.82342000  1
  S  S5  1  0.04932200  0.71498900  0.32342000  1
  S  S6  1  0.08773100  0.28501100  0.67658000  1
  S  S7  1  0.23568900  0.71498900  0.67658000  1
loop_
_geom_bond_atom_site_label_1
_geom_bond_atom_site_label_2
_geom_bond_distance
_geom_bond_site_symmetry_2
K0 K1 3.076679 1_545
K0 K4 3.225238 1_555
K0 S2 3.366462 1_555
K0 S5 3.493345 1_645
K0 S3 3.525081 1_555
K0 V3 3.536783 1_555
K0 K2 3.543100 1_655
K0 S7 3.581549 1_555
K0 V0 3.661359 1_555
K0 V2 3.951549 1_555
K1 K2 3.225238 1_655
K1 S4 3.366462 1_555
K1 S3 3.493345 1_565
K1 S5 3.525081 1_655
K1 V2 3.536783 1_555
K1 K4 3.543100 1_555
K1 S6 3.581549 1_655
K1 V1 3.661359 1_555
K1 V3 3.951549 1_555
K2 K4 3.076679 1_545
K2 S0 3.366462 1_555
K2 S7 3.493345 1_545
K2 S6 3.525081 1_555
K2 V1 3.536783 1_455
K2 S5 3.581548 1_555
K2 V2 3.661359 1_455
K2 V0 3.951549 1_455
K3 K5 3.076679 1_555
K3 K7 3.225238 1_546
K3 S6 3.366462 1_555
K3 S1 3.493345 1_456
K3 S0 3.525081 1_556
K3 V3 3.536783 1_545
K3 K6 3.543100 1_456
K3 S4 3.581549 1_545
K3 V0 3.661359 1_456
K3 V2 3.951549 1_455
K4 S1 3.366463 1_555
K4 S6 3.493345 1_565
K4 S7 3.525081 1_555
K4 V0 3.536783 1_555
K4 S3 3.581548 1_555
K4 V3 3.661359 1_555
K4 V1 3.951549 1_555
K5 K6 3.225238 1_466
K5 S7 3.366462 1_555
K5 S0 3.493345 1_556
K5 S1 3.525081 1_456
K5 V2 3.536783 1_465
K5 K7 3.543100 1_556
K5 S2 3.581549 1_465
K5 V1 3.661359 1_456
K5 V3 3.951549 1_555
K6 K7 3.076679 1_555
K6 S3 3.366462 1_555
K6 S4 3.493345 1_554
K6 S2 3.525081 1_554
K6 V1 3.536783 1_545
K6 S1 3.581548 1_545
K6 V2 3.661359 1_554
K6 V0 3.951549 1_555
K7 S5 3.366463 1_555
K7 S2 3.493345 1_554
K7 S4 3.525081 1_554
K7 V0 3.536783 1_465
K7 S0 3.581548 1_565
K7 V3 3.661359 1_554
K7 V1 3.951549 1_455
Ag0 S5 2.385960 1_555
Ag0 S1 2.385960 1_545
Ag0 K4 3.058990 1_545
Ag0 K7 3.058990 1_555
Ag0 K6 3.692143 1_555
Ag0 K2 3.692143 1_555
Ag1 S3 2.385960 1_555
Ag1 S0 2.385960 1_565
Ag1 K6 3.058990 1_555
Ag1 K2 3.058990 1_565
Ag1 K4 3.692143 1_555
Ag1 K7 3.692143 1_555
Ag2 S7 2.385960 1_555
Ag2 S4 2.385960 1_545
Ag2 K1 3.058990 1_545
Ag2 K5 3.058990 1_555
Ag2 K3 3.692143 1_555
Ag2 K0 3.692143 1_555
Ag3 S6 2.385960 1_655
Ag3 S2 2.385960 1_565
Ag3 K0 3.058990 1_565
Ag3 K3 3.058990 1_655
Ag3 K1 3.692143 1_555
Ag3 K5 3.692143 1_655
S0 V0 2.471354 1_455
S0 V1 2.671652 1_455
S1 V1 2.471354 1_555
S1 V0 2.671652 1_555
S2 V2 2.471354 1_555
S2 V3 2.671652 1_555
S3 V0 2.471354 1_555
S3 V1 2.671652 1_545
S4 V3 2.471354 1_555
S4 V2 2.671652 1_555
S5 V1 2.471354 1_455
S5 V0 2.671652 1_465
S6 V2 2.471354 1_455
S6 V3 2.671652 1_545
S7 V3 2.471354 1_555
S7 V2 2.671652 1_465
