# generated using pymatgen
data_SrYCoO4
_symmetry_space_group_name_H-M   'P 1'
_cell_length_a   5.34232328
_cell_length_b   8.59684768
_cell_length_c   8.63628857
_cell_angle_alpha   79.71557041
_cell_angle_beta   71.97638714
_cell_angle_gamma   71.90271845
_symmetry_Int_Tables_number   1
_chemical_formula_structural   SrYCoO4
_chemical_formula_sum   'Sr4 Y4 Co4 O16'
_cell_volume   357.02413291
_cell_formula_units_Z   4
loop_
 _symmetry_equiv_pos_site_id
 _symmetry_equiv_pos_as_xyz
  1  'x, y, z'
loop_
 _atom_site_type_symbol
 _atom_site_label
 _atom_site_symmetry_multiplicity
 _atom_site_fract_x
 _atom_site_fract_y
 _atom_site_fract_z
 _atom_site_occupancy
  Sr  Sr0  1  0.35552200  0.63917800  0.64985500  1
  Sr  Sr1  1  0.85533000  0.39803100  0.89109600  1
  Sr  Sr2  1  0.35536100  0.13937600  0.14965100  1
  Sr  Sr3  1  0.85551700  0.89813000  0.39082900  1
  Y  Y0  1  0.13511300  0.60223000  0.12327600  1
  Y  Y1  1  0.63912500  0.37536400  0.34645600  1
  Y  Y2  1  0.13699300  0.10244100  0.62283500  1
  Y  Y3  1  0.63977700  0.87565100  0.84614300  1
  Co  Co0  1  0.49543700  0.25627200  0.75279700  1
  Co  Co1  1  0.00216200  0.99831900  0.99719300  1
  Co  Co2  1  0.49534900  0.75624800  0.25271500  1
  Co  Co3  1  0.00210600  0.49850000  0.49749500  1
  O  O0  1  0.15872900  0.87032000  0.80893400  1
  O  O1  1  0.66772600  0.55146500  0.11970400  1
  O  O2  1  0.16040800  0.37000700  0.30955500  1
  O  O3  1  0.66486300  0.05188700  0.61918500  1
  O  O4  1  0.31799100  0.44735700  0.91728200  1
  O  O5  1  0.82627500  0.15881800  0.18917000  1
  O  O6  1  0.31768700  0.94758000  0.41676800  1
  O  O7  1  0.82593100  0.65891100  0.68927600  1
  O  O8  1  0.78330200  0.85169000  0.09310600  1
  O  O9  1  0.24088500  0.62453600  0.38425900  1
  O  O10  1  0.78367900  0.35149100  0.59311400  1
  O  O11  1  0.24098700  0.12431700  0.88423100  1
  O  O12  1  0.27213200  0.85067600  0.09246800  1
  O  O13  1  0.75009900  0.62483400  0.38479000  1
  O  O14  1  0.27155500  0.35148900  0.59325700  1
  O  O15  1  0.74995500  0.12488700  0.88456300  1
loop_
_geom_bond_atom_site_label_1
_geom_bond_atom_site_label_2
_geom_bond_distance
_geom_bond_site_symmetry_2
Co0 O15 1.990977 1_555
Co0 O11 1.991620 1_555
Co0 O14 2.001957 1_555
Co0 O10 2.002260 1_555
Co0 O3 2.080302 1_555
Co0 O4 2.155829 1_555
Co1 O11 1.861161 1_565
Co1 O15 1.862201 1_465
Co1 O8 1.893590 1_456
Co1 O12 1.895353 1_556
Co1 O0 1.944058 1_555
Co1 O5 2.140775 1_466
Co2 O9 1.990496 1_555
Co2 O13 1.993707 1_555
Co2 O8 2.001972 1_555
Co2 O12 2.003753 1_555
Co2 O1 2.080194 1_555
Co2 O6 2.154951 1_555
Co3 O13 1.861330 1_455
Co3 O9 1.861712 1_555
Co3 O14 1.893832 1_555
Co3 O10 1.894223 1_455
Co3 O2 1.944298 1_555
Co3 O7 2.139010 1_455
O0 Y2 2.324863 1_565
O0 Sr0 2.392575 1_555
O0 Y3 2.677056 1_455
O0 Y3 2.701721 1_555
O1 Y1 2.247254 1_555
O1 Sr1 2.350836 1_554
O1 Y0 2.674987 1_655
O1 Y0 2.732522 1_555
O2 Y0 2.326381 1_555
O2 Sr2 2.393254 1_555
O2 Y1 2.688319 1_555
O2 Y1 2.689889 1_455
O3 Y3 2.249115 1_545
O3 Sr3 2.350614 1_545
O3 Y2 2.699415 1_655
O3 Y2 2.707587 1_555
O4 Y0 2.203222 1_556
O4 Sr0 2.579272 1_555
O4 Sr1 2.710679 1_555
O4 Sr1 2.715047 1_455
O4 Sr2 3.016547 1_556
O5 Y1 2.283982 1_555
O5 Sr3 2.576281 1_545
O5 Sr2 2.695124 1_655
O5 Sr2 2.699348 1_555
O5 Sr1 2.990105 1_554
O6 Y2 2.203613 1_565
O6 Sr2 2.577136 1_565
O6 Sr3 2.712111 1_455
O6 Sr3 2.713556 1_555
O6 Sr0 3.022502 1_555
O7 Y3 2.283108 1_555
O7 Sr1 2.578236 1_555
O7 Sr0 2.697252 1_555
O7 Sr0 2.697351 1_655
O7 Sr3 2.992459 1_555
O8 Y0 2.408100 1_655
O8 Y3 2.436466 1_554
O8 Sr2 2.794547 1_565
O8 Sr3 2.827630 1_555
O9 Y1 2.492006 1_555
O9 Y0 2.538905 1_555
O9 Sr0 2.583127 1_555
O9 Sr3 2.596317 1_455
O10 Y2 2.409476 1_655
O10 Y1 2.437153 1_555
O10 Sr0 2.795252 1_555
O10 Sr1 2.828722 1_555
O11 Y3 2.490980 1_545
O11 Y2 2.536320 1_555
O11 Sr2 2.581922 1_556
O11 Sr1 2.597624 1_455
O12 Y0 2.411712 1_555
O12 Y3 2.437739 1_554
O12 Sr2 2.803675 1_565
O12 Sr3 2.832314 1_455
O13 Y1 2.495103 1_555
O13 Y0 2.530423 1_655
O13 Sr0 2.579192 1_555
O13 Sr3 2.593055 1_555
O14 Y2 2.411081 1_555
O14 Y1 2.438310 1_555
O14 Sr0 2.795273 1_555
O14 Sr1 2.827758 1_455
O15 Y3 2.491126 1_545
O15 Y2 2.537215 1_655
O15 Sr2 2.579309 1_556
O15 Sr1 2.592728 1_555
