# generated using pymatgen
data_Ce4Cu3(SO)4
_symmetry_space_group_name_H-M   'P 1'
_cell_length_a   9.15756480
_cell_length_b   9.15756480
_cell_length_c   9.15756480
_cell_angle_alpha   145.14605324
_cell_angle_beta   145.14605324
_cell_angle_gamma   50.11692530
_symmetry_Int_Tables_number   1
_chemical_formula_structural   Ce4Cu3(SO)4
_chemical_formula_sum   'Ce4 Cu3 S4 O4'
_cell_volume   249.59358304
_cell_formula_units_Z   1
loop_
 _symmetry_equiv_pos_site_id
 _symmetry_equiv_pos_as_xyz
  1  'x, y, z'
loop_
 _atom_site_type_symbol
 _atom_site_label
 _atom_site_symmetry_multiplicity
 _atom_site_fract_x
 _atom_site_fract_y
 _atom_site_fract_z
 _atom_site_occupancy
  Ce  Ce0  1  0.42198500  0.42198500  0.49891900  1
  Ce  Ce1  1  0.92306600  0.92306600  0.50108100  1
  Ce  Ce2  1  0.57801500  0.07693400  0.00000000  1
  Ce  Ce3  1  0.07693400  0.57801500  0.00000000  1
  Cu  Cu0  1  0.00000000  0.00000000  0.00000000  1
  Cu  Cu1  1  0.00000000  0.50000000  0.50000000  1
  Cu  Cu2  1  0.50000000  0.00000000  0.50000000  1
  S  S0  1  0.66700100  0.66700100  0.50122500  1
  S  S1  1  0.16577600  0.16577600  0.49877500  1
  S  S2  1  0.33299900  0.83422400  0.00000000  1
  S  S3  1  0.83422400  0.33299900  0.00000000  1
  O  O0  1  0.25037800  0.25037800  0.00000000  1
  O  O1  1  0.74962200  0.74962200  0.00000000  1
  O  O2  1  0.75000000  0.25000000  0.50000000  1
  O  O3  1  0.25000000  0.75000000  0.50000000  1
loop_
_geom_bond_atom_site_label_1
_geom_bond_atom_site_label_2
_geom_bond_distance
_geom_bond_site_symmetry_2
Ce0 O0 2.326605 1_555
Ce0 O3 2.326626 1_555
Ce0 O2 2.326626 1_555
Ce0 O1 2.326665 1_556
Ce0 S3 3.108600 1_455
Ce0 S2 3.108600 1_545
Ce0 S2 3.119740 1_556
Ce0 S3 3.119740 1_556
Ce1 O0 2.326605 1_666
Ce1 O2 2.326626 1_565
Ce1 O3 2.326626 1_655
Ce1 O1 2.326665 1_555
Ce1 S3 3.108600 1_566
Ce1 S2 3.108600 1_656
Ce1 S2 3.119740 1_555
Ce1 S3 3.119740 1_555
Ce2 O1 2.326605 1_545
Ce2 O2 2.326626 1_555
Ce2 O3 2.326626 1_544
Ce2 O0 2.326665 1_555
Ce2 S1 3.108600 1_655
Ce2 S0 3.108600 1_544
Ce2 S1 3.119740 1_554
Ce2 S0 3.119740 1_555
Ce3 O1 2.326605 1_455
Ce3 O3 2.326626 1_555
Ce3 O2 2.326626 1_454
Ce3 O0 2.326665 1_555
Ce3 S1 3.108600 1_565
Ce3 S0 3.108600 1_454
Ce3 S1 3.119740 1_554
Ce3 S0 3.119740 1_555
Cu0 S2 2.380524 1_545
Cu0 S3 2.380524 1_455
Cu0 S0 2.380524 1_444
Cu0 S1 2.380524 1_555
Cu1 S3 2.384391 1_455
Cu1 S2 2.384391 1_556
Cu1 S0 2.384391 1_455
Cu1 S1 2.384391 1_555
Cu2 S3 2.384391 1_556
Cu2 S2 2.384391 1_545
Cu2 S0 2.384391 1_545
Cu2 S1 2.384391 1_555
