# generated using pymatgen
data_Li9Mn2Co5O16
_symmetry_space_group_name_H-M   'P 1'
_cell_length_a   2.90094500
_cell_length_b   10.11012949
_cell_length_c   10.61014346
_cell_angle_alpha   113.77555669
_cell_angle_beta   96.53049505
_cell_angle_gamma   90.77693556
_symmetry_Int_Tables_number   1
_chemical_formula_structural   Li9Mn2Co5O16
_chemical_formula_sum   'Li9 Mn2 Co5 O16'
_cell_volume   282.32203402
_cell_formula_units_Z   1
loop_
 _symmetry_equiv_pos_site_id
 _symmetry_equiv_pos_as_xyz
  1  'x, y, z'
loop_
 _atom_site_type_symbol
 _atom_site_label
 _atom_site_symmetry_multiplicity
 _atom_site_fract_x
 _atom_site_fract_y
 _atom_site_fract_z
 _atom_site_occupancy
  Li  Li0  1  0.12754100  0.68611300  0.25201600  1
  Li  Li1  1  0.87587900  0.82440700  0.75780800  1
  Li  Li2  1  0.61697300  0.94138100  0.24489900  1
  Li  Li3  1  0.62283300  0.43833300  0.25000500  1
  Li  Li4  1  0.37716700  0.56166700  0.74999500  1
  Li  Li5  1  0.12412100  0.17559300  0.24219200  1
  Li  Li6  1  0.87245900  0.31388700  0.74798400  1
  Li  Li7  1  0.38302700  0.05861900  0.75510100  1
  Li  Li8  1  0.50000000  0.00000000  0.00000000  1
  Mn  Mn0  1  0.00169800  0.75634300  0.00234000  1
  Mn  Mn1  1  0.99830200  0.24365700  0.99766000  1
  Co  Co0  1  0.75189800  0.87501900  0.50002100  1
  Co  Co1  1  0.24810200  0.12498100  0.49997900  1
  Co  Co2  1  0.74795300  0.37544500  0.50006400  1
  Co  Co3  1  0.50000000  0.50000000  0.00000000  1
  Co  Co4  1  0.25204700  0.62455500  0.49993600  1
  O  O0  1  0.54680200  0.70854800  0.10636800  1
  O  O1  1  0.32691600  0.84012000  0.61610000  1
  O  O2  1  0.05999100  0.94834000  0.11776800  1
  O  O3  1  0.04607300  0.46454000  0.10587900  1
  O  O4  1  0.81899400  0.59034200  0.61623800  1
  O  O5  1  0.55012800  0.22549800  0.11130000  1
  O  O6  1  0.31615100  0.34264900  0.61769700  1
  O  O7  1  0.82380300  0.09352500  0.61473100  1
  O  O8  1  0.68384900  0.65735100  0.38230300  1
  O  O9  1  0.44987200  0.77450200  0.88870000  1
  O  O10  1  0.17619700  0.90647500  0.38526900  1
  O  O11  1  0.18100600  0.40965800  0.38376200  1
  O  O12  1  0.95392700  0.53546000  0.89412100  1
  O  O13  1  0.67308400  0.15988000  0.38390000  1
  O  O14  1  0.45319800  0.29145200  0.89363200  1
  O  O15  1  0.94000900  0.05166000  0.88223200  1
loop_
_geom_bond_atom_site_label_1
_geom_bond_atom_site_label_2
_geom_bond_distance
_geom_bond_site_symmetry_2
Li0 O8 2.090662 1_455
Li0 O10 2.094910 1_555
Li0 O8 2.104589 1_555
Li0 O3 2.140059 1_555
Li0 O0 2.149764 1_555
Li0 O0 2.231262 1_455
Li1 O1 2.115840 1_555
Li1 O15 2.131452 1_565
Li1 O1 2.152281 1_655
Li1 O9 2.156157 1_555
Li1 O4 2.224950 1_555
Li1 O9 2.240017 1_655
Li2 O2 1.986070 1_655
Li2 O2 2.004744 1_555
Li2 O13 2.095287 1_565
Li2 O10 2.196000 1_555
Li2 O10 2.205496 1_655
Li2 O0 2.207304 1_555
Li3 O5 2.050423 1_555
Li3 O8 2.081226 1_555
Li3 O11 2.115735 1_555
Li3 O11 2.131147 1_655
Li3 O3 2.158952 1_655
Li3 O3 2.228184 1_555
Li4 O9 2.050423 1_555
Li4 O6 2.081226 1_555
Li4 O4 2.115735 1_555
Li4 O4 2.131147 1_455
Li4 O12 2.158952 1_455
Li4 O12 2.228184 1_555
Li5 O13 2.115840 1_555
Li5 O2 2.131452 1_545
Li5 O13 2.152281 1_455
Li5 O5 2.156157 1_555
Li5 O11 2.224950 1_555
Li5 O5 2.240017 1_455
Li6 O6 2.090662 1_655
Li6 O7 2.094910 1_555
Li6 O6 2.104589 1_555
Li6 O12 2.140059 1_555
Li6 O14 2.149764 1_555
Li6 O14 2.231262 1_655
Li7 O15 1.986070 1_455
Li7 O15 2.004744 1_555
Li7 O1 2.095287 1_545
Li7 O7 2.196000 1_555
Li7 O7 2.205496 1_455
Li7 O14 2.207304 1_555
Li8 O15 2.081912 1_554
Li8 O2 2.081912 1_545
Li8 O9 2.096283 1_544
Li8 O5 2.096283 1_555
Li8 O15 2.135564 1_454
Li8 O2 2.135564 1_645
Mn0 O2 1.823069 1_555
Mn0 O9 1.925208 1_554
Mn0 O9 1.948726 1_454
Mn0 O0 1.984249 1_455
Mn0 O0 2.001520 1_555
Mn0 O12 2.052440 1_454
Mn1 O15 1.823069 1_555
Mn1 O5 1.925208 1_556
Mn1 O5 1.948726 1_656
Mn1 O14 1.984249 1_655
Mn1 O14 2.001520 1_555
Mn1 O3 2.052440 1_656
Co0 O10 1.934178 1_655
Co0 O1 1.960932 1_555
Co0 O8 2.039054 1_555
Co0 O7 2.041293 1_565
Co0 O10 2.058344 1_555
Co0 O1 2.079169 1_655
Co1 O7 1.934178 1_455
Co1 O13 1.960932 1_555
Co1 O6 2.039054 1_555
Co1 O10 2.041293 1_545
Co1 O7 2.058344 1_555
Co1 O13 2.079169 1_455
Co2 O11 1.976244 1_655
Co2 O6 1.978593 1_555
Co2 O4 2.013188 1_555
Co2 O13 2.019016 1_555
Co2 O11 2.060408 1_555
Co2 O6 2.065231 1_655
Co3 O12 1.942411 1_554
Co3 O3 1.942411 1_555
Co3 O0 1.943297 1_555
Co3 O14 1.943297 1_554
Co3 O3 1.958402 1_655
Co3 O12 1.958402 1_454
Co4 O4 1.976244 1_455
Co4 O8 1.978593 1_555
Co4 O11 2.013188 1_555
Co4 O1 2.019016 1_555
Co4 O4 2.060408 1_555
Co4 O8 2.065231 1_455
