# generated using pymatgen
data_HfSb
_symmetry_space_group_name_H-M   'P 1'
_cell_length_a   5.60700811
_cell_length_b   5.60700811
_cell_length_c   5.60700811
_cell_angle_alpha   90.00000000
_cell_angle_beta   90.00000000
_cell_angle_gamma   90.00000000
_symmetry_Int_Tables_number   1
_chemical_formula_structural   HfSb
_chemical_formula_sum   'Hf4 Sb4'
_cell_volume   176.27614844
_cell_formula_units_Z   4
loop_
 _symmetry_equiv_pos_site_id
 _symmetry_equiv_pos_as_xyz
  1  'x, y, z'
loop_
 _atom_site_type_symbol
 _atom_site_label
 _atom_site_symmetry_multiplicity
 _atom_site_fract_x
 _atom_site_fract_y
 _atom_site_fract_z
 _atom_site_occupancy
  Hf  Hf0  1  0.35631921  0.85631921  0.64368079  1
  Hf  Hf1  1  0.85631921  0.64368079  0.35631921  1
  Hf  Hf2  1  0.64368079  0.35631921  0.85631921  1
  Hf  Hf3  1  0.14368079  0.14368079  0.14368079  1
  Sb  Sb0  1  0.65628728  0.15628728  0.34371272  1
  Sb  Sb1  1  0.15628728  0.34371272  0.65628728  1
  Sb  Sb2  1  0.34371272  0.65628728  0.15628728  1
  Sb  Sb3  1  0.84371272  0.84371272  0.84371272  1
loop_
_geom_bond_atom_site_label_1
_geom_bond_atom_site_label_2
_geom_bond_distance
_geom_bond_site_symmetry_2
Hf0 Sb0 2.913177 1_565
Hf0 Sb3 2.954867 1_555
Hf0 Sb2 2.954867 1_555
Hf0 Sb1 2.954867 1_565
Hf0 Sb3 3.086082 1_455
Hf0 Sb2 3.086082 1_556
Hf0 Sb1 3.086082 1_555
Hf1 Sb1 2.913177 1_655
Hf1 Sb0 2.954867 1_555
Hf1 Sb3 2.954867 1_555
Hf1 Sb2 2.954867 1_655
Hf1 Sb3 3.086082 1_554
Hf1 Sb0 3.086082 1_565
Hf1 Sb2 3.086082 1_555
Hf2 Sb2 2.913177 1_556
Hf2 Sb3 2.954867 1_555
Hf2 Sb1 2.954867 1_555
Hf2 Sb0 2.954867 1_556
Hf2 Sb1 3.086082 1_655
Hf2 Sb3 3.086082 1_545
Hf2 Sb0 3.086082 1_555
Hf3 Sb3 2.913177 1_444
Hf3 Sb0 2.954867 1_455
Hf3 Sb1 2.954867 1_554
Hf3 Sb2 2.954867 1_545
Hf3 Sb2 3.086082 1_555
Hf3 Sb1 3.086082 1_555
Hf3 Sb0 3.086082 1_555
