# generated using pymatgen
data_Mg2InN2
_symmetry_space_group_name_H-M   'P 1'
_cell_length_a   3.55167023
_cell_length_b   3.55271305
_cell_length_c   6.25839288
_cell_angle_alpha   90.00000030
_cell_angle_beta   90.04332952
_cell_angle_gamma   120.00973066
_symmetry_Int_Tables_number   1
_chemical_formula_structural   Mg2InN2
_chemical_formula_sum   'Mg2 In1 N2'
_cell_volume   68.38226217
_cell_formula_units_Z   1
loop_
 _symmetry_equiv_pos_site_id
 _symmetry_equiv_pos_as_xyz
  1  'x, y, z'
loop_
 _atom_site_type_symbol
 _atom_site_label
 _atom_site_symmetry_multiplicity
 _atom_site_fract_x
 _atom_site_fract_y
 _atom_site_fract_z
 _atom_site_occupancy
  Mg  Mg0  1  0.66690373  0.33345237  0.14705532  1
  Mg  Mg1  1  0.33309627  0.66654763  0.85294468  1
  In  In0  1  -0.00000000  0.00000000  0.50000000  1
  N  N0  1  0.66628063  0.33313932  0.78789051  1
  N  N1  1  0.33371937  0.66686068  0.21210949  1
loop_
_geom_bond_atom_site_label_1
_geom_bond_atom_site_label_2
_geom_bond_distance
_geom_bond_site_symmetry_2
Mg0 N1 2.090488 1_655
Mg0 N1 2.090927 1_545
Mg0 N1 2.090930 1_555
Mg0 N0 2.247794 1_554
Mg1 N0 2.090488 1_455
Mg1 N0 2.090927 1_565
Mg1 N0 2.090930 1_555
Mg1 N1 2.247794 1_556
In0 N0 2.727432 1_555
In0 N1 2.727432 1_445
In0 N1 2.730993 1_545
In0 N0 2.730993 1_455
In0 N0 2.730998 1_445
In0 N1 2.730998 1_555
