# generated using pymatgen
data_PrTeAs
_symmetry_space_group_name_H-M   'P 1'
_cell_length_a   4.16353513
_cell_length_b   7.82507677
_cell_length_c   10.30957707
_cell_angle_alpha   90.00000000
_cell_angle_beta   90.00000000
_cell_angle_gamma   90.00000000
_symmetry_Int_Tables_number   1
_chemical_formula_structural   PrTeAs
_chemical_formula_sum   'Pr4 Te4 As4'
_cell_volume   335.88583564
_cell_formula_units_Z   4
loop_
 _symmetry_equiv_pos_site_id
 _symmetry_equiv_pos_as_xyz
  1  'x, y, z'
loop_
 _atom_site_type_symbol
 _atom_site_label
 _atom_site_symmetry_multiplicity
 _atom_site_fract_x
 _atom_site_fract_y
 _atom_site_fract_z
 _atom_site_occupancy
  Pr  Pr0  1  0.25000000  0.72581724  0.84239893  1
  Pr  Pr1  1  0.75000000  0.27418276  0.15760107  1
  Pr  Pr2  1  0.75000000  0.77418276  0.34239893  1
  Pr  Pr3  1  0.25000000  0.22581724  0.65760107  1
  Te  Te0  1  0.25000000  0.59089425  0.14910505  1
  Te  Te1  1  0.75000000  0.40910575  0.85089495  1
  Te  Te2  1  0.75000000  0.90910575  0.64910505  1
  Te  Te3  1  0.25000000  0.09089425  0.35089495  1
  As  As0  1  0.25000000  0.58993584  0.53823479  1
  As  As1  1  0.75000000  0.41006416  0.46176521  1
  As  As2  1  0.75000000  0.91006416  0.03823479  1
  As  As3  1  0.25000000  0.08993584  0.96176521  1
loop_
_geom_bond_atom_site_label_1
_geom_bond_atom_site_label_2
_geom_bond_distance
_geom_bond_site_symmetry_2
Pr0 Te2 3.219004 1_455
Pr0 Te2 3.219004 1_555
Pr0 Te1 3.237801 1_455
Pr0 Te1 3.237801 1_555
Pr0 Te0 3.333615 1_556
Pr1 Te3 3.219004 1_655
Pr1 Te3 3.219004 1_555
Pr1 Te0 3.237801 1_555
Pr1 Te0 3.237801 1_655
Pr1 Te1 3.333615 1_554
Pr2 Te0 3.219004 1_555
Pr2 Te0 3.219004 1_655
Pr2 Te3 3.237801 1_565
Pr2 Te3 3.237801 1_665
Pr2 Te2 3.333615 1_555
Pr3 Te1 3.219004 1_555
Pr3 Te1 3.219004 1_455
Pr3 Te2 3.237801 1_545
Pr3 Te2 3.237801 1_445
Pr3 Te3 3.333615 1_555
As0 As1 2.633698 1_555
As0 As1 2.633698 1_455
As0 Pr3 3.103655 1_555
As0 Pr2 3.238624 1_555
As0 Pr2 3.238624 1_455
As0 Pr0 3.311168 1_555
As1 Pr2 3.103655 1_555
As1 Pr3 3.238624 1_555
As1 Pr3 3.238624 1_655
As1 Pr1 3.311168 1_555
As2 As3 2.633698 1_564
As2 As3 2.633698 1_664
As2 Pr1 3.103655 1_565
As2 Pr0 3.238624 1_654
As2 Pr0 3.238624 1_554
As2 Pr2 3.311168 1_555
As3 Pr0 3.103655 1_545
As3 Pr1 3.238624 1_556
As3 Pr1 3.238624 1_456
As3 Pr3 3.311168 1_555
