# generated using pymatgen
data_MoPO4
_symmetry_space_group_name_H-M   'P 1'
_cell_length_a   9.66991410
_cell_length_b   9.66991410
_cell_length_c   16.69118751
_cell_angle_alpha   60.49675858
_cell_angle_beta   60.49675858
_cell_angle_gamma   31.57563304
_symmetry_Int_Tables_number   1
_chemical_formula_structural   MoPO4
_chemical_formula_sum   'Mo8 P8 O32'
_cell_volume   702.10816310
_cell_formula_units_Z   8
loop_
 _symmetry_equiv_pos_site_id
 _symmetry_equiv_pos_as_xyz
  1  'x, y, z'
loop_
 _atom_site_type_symbol
 _atom_site_label
 _atom_site_symmetry_multiplicity
 _atom_site_fract_x
 _atom_site_fract_y
 _atom_site_fract_z
 _atom_site_occupancy
  Mo  Mo0  1  0.38046500  0.83864300  0.01428700  1
  Mo  Mo1  1  0.16135700  0.61953500  0.48571300  1
  Mo  Mo2  1  0.61953500  0.16135700  0.98571300  1
  Mo  Mo3  1  0.00000000  0.50000000  0.00000000  1
  Mo  Mo4  1  0.83864300  0.38046500  0.51428700  1
  Mo  Mo5  1  0.68589400  0.31410600  0.75000000  1
  Mo  Mo6  1  0.31410600  0.68589400  0.25000000  1
  Mo  Mo7  1  0.50000000  0.00000000  0.50000000  1
  P  P0  1  0.48158000  0.94370300  0.14043700  1
  P  P1  1  0.78520200  0.24149100  0.38123400  1
  P  P2  1  0.51842000  0.05629700  0.85956300  1
  P  P3  1  0.24149100  0.78520200  0.88123400  1
  P  P4  1  0.94370300  0.48158000  0.64043700  1
  P  P5  1  0.05629700  0.51842000  0.35956300  1
  P  P6  1  0.21479800  0.75850900  0.61876600  1
  P  P7  1  0.75850900  0.21479800  0.11876600  1
  O  O0  1  0.23530700  0.21293500  0.92717400  1
  O  O1  1  0.70887100  0.14353000  0.08302600  1
  O  O2  1  0.21293500  0.23530700  0.42717400  1
  O  O3  1  0.58103800  0.27340100  0.45458100  1
  O  O4  1  0.69266100  0.77181000  0.92856200  1
  O  O5  1  0.66706000  0.42980900  0.29071700  1
  O  O6  1  0.72659900  0.41896200  0.04541900  1
  O  O7  1  0.93674300  0.04967400  0.86616100  1
  O  O8  1  0.41896200  0.72659900  0.54541900  1
  O  O9  1  0.85647000  0.29112900  0.41697400  1
  O  O10  1  0.57671700  0.15900500  0.86863400  1
  O  O11  1  0.94693500  0.44662900  0.73520000  1
  O  O12  1  0.29112900  0.85647000  0.91697400  1
  O  O13  1  0.04967400  0.93674300  0.36616100  1
  O  O14  1  0.76469300  0.78706500  0.07282600  1
  O  O15  1  0.42328300  0.84099500  0.13136600  1
  O  O16  1  0.44662900  0.94693500  0.23520000  1
  O  O17  1  0.27340100  0.58103800  0.95458100  1
  O  O18  1  0.15900500  0.57671700  0.36863400  1
  O  O19  1  0.05306500  0.55337100  0.26480000  1
  O  O20  1  0.95032600  0.06325700  0.63383900  1
  O  O21  1  0.77181000  0.69266100  0.42856200  1
  O  O22  1  0.06325700  0.95032600  0.13383900  1
  O  O23  1  0.42980900  0.66706000  0.79071700  1
  O  O24  1  0.14353000  0.70887100  0.58302600  1
  O  O25  1  0.78706500  0.76469300  0.57282600  1
  O  O26  1  0.55337100  0.05306500  0.76480000  1
  O  O27  1  0.22819000  0.30733900  0.57143800  1
  O  O28  1  0.30733900  0.22819000  0.07143800  1
  O  O29  1  0.57019100  0.33294000  0.20928300  1
  O  O30  1  0.33294000  0.57019100  0.70928300  1
  O  O31  1  0.84099500  0.42328300  0.63136600  1
loop_
_geom_bond_atom_site_label_1
_geom_bond_atom_site_label_2
_geom_bond_distance
_geom_bond_site_symmetry_2
Mo0 O12 2.065611 1_554
Mo0 O6 2.105676 1_555
Mo0 O15 2.201719 1_555
Mo0 O4 2.216003 1_554
Mo0 O22 2.237510 1_555
Mo0 O0 2.314012 1_564
Mo1 O24 2.065611 1_555
Mo1 O3 2.105676 1_555
Mo1 O18 2.201719 1_555
Mo1 O27 2.216003 1_555
Mo1 O13 2.237510 1_555
Mo1 O25 2.314012 1_455
Mo2 O1 2.065611 1_556
Mo2 O17 2.105676 1_555
Mo2 O10 2.201719 1_555
Mo2 O28 2.216003 1_556
Mo2 O7 2.237510 1_555
Mo2 O14 2.314012 1_546
Mo3 O14 2.048788 1_455
Mo3 O0 2.048788 1_554
Mo3 O28 2.063072 1_555
Mo3 O4 2.063072 1_454
Mo4 O9 2.065611 1_555
Mo4 O8 2.105676 1_555
Mo4 O31 2.201719 1_555
Mo4 O21 2.216003 1_555
Mo4 O20 2.237510 1_555
Mo4 O2 2.314012 1_655
Mo5 O30 2.113979 1_555
Mo5 O23 2.113979 1_555
Mo5 O31 2.235792 1_555
Mo5 O10 2.235792 1_555
Mo5 O7 2.315643 1_555
Mo5 O20 2.315643 1_555
Mo6 O29 2.113979 1_555
Mo6 O5 2.113979 1_555
Mo6 O15 2.235792 1_555
Mo6 O18 2.235792 1_555
Mo6 O13 2.315643 1_555
Mo6 O22 2.315643 1_555
Mo7 O25 2.048788 1_545
Mo7 O2 2.048788 1_555
Mo7 O27 2.063072 1_555
Mo7 O21 2.063072 1_545
O0 P2 1.624104 1_555
O1 P7 1.520453 1_555
O2 P5 1.624104 1_555
O3 P1 1.563698 1_555
O4 P2 1.620503 1_565
O5 P1 1.532744 1_555
O6 P7 1.563698 1_555
O7 P3 1.594688 1_645
O8 P6 1.563698 1_555
O9 P1 1.520453 1_555
O10 P2 1.585330 1_555
O11 P4 1.456422 1_555
O12 P3 1.520453 1_555
O13 P1 1.594688 1_465
O14 P0 1.624104 1_555
O15 P0 1.585330 1_555
O16 P0 1.456422 1_555
O17 P3 1.563698 1_555
O18 P5 1.585330 1_555
O19 P5 1.456422 1_555
O20 P6 1.594688 1_645
O21 P5 1.620503 1_655
O22 P7 1.594688 1_465
O23 P3 1.532744 1_555
O24 P6 1.520453 1_555
O25 P4 1.624104 1_555
O26 P2 1.456422 1_555
O27 P4 1.620503 1_455
O28 P0 1.620503 1_545
O29 P7 1.532744 1_555
O30 P6 1.532744 1_555
O31 P4 1.585330 1_555
