# generated using pymatgen
data_Ba(CO2)2
_symmetry_space_group_name_H-M   'P 1'
_cell_length_a   6.98078100
_cell_length_b   7.84013700
_cell_length_c   9.01260700
_cell_angle_alpha   90.00000000
_cell_angle_beta   90.00000000
_cell_angle_gamma   90.00000000
_symmetry_Int_Tables_number   1
_chemical_formula_structural   Ba(CO2)2
_chemical_formula_sum   'Ba4 C8 O16'
_cell_volume   493.26249930
_cell_formula_units_Z   4
loop_
 _symmetry_equiv_pos_site_id
 _symmetry_equiv_pos_as_xyz
  1  'x, y, z'
loop_
 _atom_site_type_symbol
 _atom_site_label
 _atom_site_symmetry_multiplicity
 _atom_site_fract_x
 _atom_site_fract_y
 _atom_site_fract_z
 _atom_site_occupancy
  Ba  Ba0  1  0.08762400  0.79239200  0.17366100  1
  Ba  Ba1  1  0.91237600  0.29239200  0.32633900  1
  Ba  Ba2  1  0.58762400  0.70760800  0.82633900  1
  Ba  Ba3  1  0.41237600  0.20760800  0.67366100  1
  C  C0  1  0.58264700  0.63237700  0.20484000  1
  C  C1  1  0.41735300  0.13237700  0.29516000  1
  C  C2  1  0.08264700  0.86762300  0.79516000  1
  C  C3  1  0.91735300  0.36762300  0.70484000  1
  C  C4  1  0.24868900  0.36453100  0.00918900  1
  C  C5  1  0.75131100  0.86453100  0.49081100  1
  C  C6  1  0.74868900  0.13546900  0.99081100  1
  C  C7  1  0.25131100  0.63546900  0.50918900  1
  O  O0  1  0.74868400  0.57996400  0.17627900  1
  O  O1  1  0.25131600  0.07996400  0.32372100  1
  O  O2  1  0.24868400  0.92003600  0.82372100  1
  O  O3  1  0.75131600  0.42003600  0.67627900  1
  O  O4  1  0.47625000  0.73186600  0.13461600  1
  O  O5  1  0.52375000  0.23186600  0.36538400  1
  O  O6  1  0.97625000  0.76813400  0.86538400  1
  O  O7  1  0.02375000  0.26813400  0.63461600  1
  O  O8  1  0.36854500  0.42138000  0.91779300  1
  O  O9  1  0.63145500  0.92138000  0.58220700  1
  O  O10  1  0.86854500  0.07862000  0.08220700  1
  O  O11  1  0.13145500  0.57862000  0.41779300  1
  O  O12  1  0.15027000  0.43513400  0.10739000  1
  O  O13  1  0.84973000  0.93513400  0.39261000  1
  O  O14  1  0.65027000  0.06486600  0.89261000  1
  O  O15  1  0.34973000  0.56486600  0.60739000  1
loop_
_geom_bond_atom_site_label_1
_geom_bond_atom_site_label_2
_geom_bond_distance
_geom_bond_site_symmetry_2
Ba0 O4 2.776492 1_555
Ba0 O11 2.782763 1_555
Ba0 O13 2.811444 1_455
Ba0 O10 2.837974 1_465
Ba0 O1 2.866717 1_565
Ba0 O6 2.891372 1_454
Ba0 O0 2.893544 1_455
Ba0 O12 2.897122 1_555
Ba1 O5 2.776492 1_555
Ba1 O10 2.782763 1_555
Ba1 O12 2.811444 1_655
Ba1 O11 2.837974 1_655
Ba1 O0 2.866717 1_555
Ba1 O7 2.891372 1_655
Ba1 O1 2.893544 1_655
Ba1 O13 2.897122 1_545
Ba2 O6 2.776492 1_555
Ba2 O9 2.782763 1_555
Ba2 O15 2.811444 1_555
Ba2 O8 2.837974 1_555
Ba2 O3 2.866717 1_555
Ba2 O4 2.891372 1_556
Ba2 O2 2.893544 1_555
Ba2 O14 2.897122 1_565
Ba3 O7 2.776492 1_555
Ba3 O8 2.782763 1_555
Ba3 O14 2.811444 1_555
Ba3 O9 2.837974 1_545
Ba3 O2 2.866717 1_545
Ba3 O5 2.891372 1_555
Ba3 O3 2.893544 1_555
Ba3 O15 2.897122 1_555
C0 O4 1.249252 1_555
C0 O0 1.256407 1_555
C1 O5 1.249252 1_555
C1 O1 1.256407 1_555
C2 O6 1.249252 1_455
C2 O2 1.256407 1_555
C3 O7 1.249252 1_655
C3 O3 1.256407 1_555
C4 O12 1.249695 1_555
C4 O8 1.255869 1_554
C5 O13 1.249695 1_555
C5 O9 1.255869 1_555
C6 O14 1.249695 1_555
C6 O10 1.255869 1_556
C7 O15 1.249695 1_555
C7 O11 1.255869 1_555
