# generated using pymatgen
data_NaCaCeBiO6
_symmetry_space_group_name_H-M   'P 1'
_cell_length_a   8.42739457
_cell_length_b   8.41212466
_cell_length_c   8.40947240
_cell_angle_alpha   90.00000000
_cell_angle_beta   90.00000000
_cell_angle_gamma   90.00000000
_symmetry_Int_Tables_number   1
_chemical_formula_structural   NaCaCeBiO6
_chemical_formula_sum   'Na4 Ca4 Ce4 Bi4 O24'
_cell_volume   596.16678709
_cell_formula_units_Z   4
loop_
 _symmetry_equiv_pos_site_id
 _symmetry_equiv_pos_as_xyz
  1  'x, y, z'
loop_
 _atom_site_type_symbol
 _atom_site_label
 _atom_site_symmetry_multiplicity
 _atom_site_fract_x
 _atom_site_fract_y
 _atom_site_fract_z
 _atom_site_occupancy
  Na  Na0  1  0.00000000  0.50000000  0.50000000  1
  Na  Na1  1  0.50000000  0.50000000  0.00000000  1
  Na  Na2  1  0.50000000  -0.00000000  -0.00000000  1
  Na  Na3  1  0.00000000  -0.00000000  0.50000000  1
  Ca  Ca0  1  0.50000000  -0.00000000  0.50000000  1
  Ca  Ca1  1  -0.00000000  0.50000000  -0.00000000  1
  Ca  Ca2  1  -0.00000000  -0.00000000  -0.00000000  1
  Ca  Ca3  1  0.50000000  0.50000000  0.50000000  1
  Ce  Ce0  1  0.25000000  0.25000000  0.25000000  1
  Ce  Ce1  1  0.75000000  0.75000000  0.25000000  1
  Ce  Ce2  1  0.75000000  0.25000000  0.75000000  1
  Ce  Ce3  1  0.25000000  0.75000000  0.75000000  1
  Bi  Bi0  1  0.75000000  0.75000000  0.75000000  1
  Bi  Bi1  1  0.25000000  0.25000000  0.75000000  1
  Bi  Bi2  1  0.25000000  0.75000000  0.25000000  1
  Bi  Bi3  1  0.75000000  0.25000000  0.25000000  1
  O  O0  1  0.99407907  0.19094001  0.28341188  1
  O  O1  1  0.00592093  0.80905999  0.28341188  1
  O  O2  1  0.00592093  0.19094001  0.71658812  1
  O  O3  1  0.99407907  0.80905999  0.71658812  1
  O  O4  1  0.29255031  0.99443649  0.19630564  1
  O  O5  1  0.29255031  0.00556351  0.80369436  1
  O  O6  1  0.70744969  0.00556351  0.19630564  1
  O  O7  1  0.70744969  0.99443649  0.80369436  1
  O  O8  1  0.18594834  0.29002472  0.99315625  1
  O  O9  1  0.81405166  0.29002472  0.00684375  1
  O  O10  1  0.18594834  0.70997528  0.00684375  1
  O  O11  1  0.81405166  0.70997528  0.99315625  1
  O  O12  1  0.50592093  0.30905999  0.21658812  1
  O  O13  1  0.49407907  0.69094001  0.21658812  1
  O  O14  1  0.49407907  0.30905999  0.78341188  1
  O  O15  1  0.50592093  0.69094001  0.78341188  1
  O  O16  1  0.20744969  0.50556351  0.30369436  1
  O  O17  1  0.20744969  0.49443649  0.69630564  1
  O  O18  1  0.79255031  0.49443649  0.30369436  1
  O  O19  1  0.79255031  0.50556351  0.69630564  1
  O  O20  1  0.31405166  0.20997528  0.50684375  1
  O  O21  1  0.68594834  0.20997528  0.49315625  1
  O  O22  1  0.31405166  0.79002472  0.49315625  1
  O  O23  1  0.68594834  0.79002472  0.50684375  1
loop_
_geom_bond_atom_site_label_1
_geom_bond_atom_site_label_2
_geom_bond_distance
_geom_bond_site_symmetry_2
Na0 O19 2.404960 1_455
Na0 O17 2.404960 1_555
Na0 O16 2.404960 1_555
Na0 O18 2.404960 1_455
Na1 O12 2.428965 1_555
Na1 O13 2.428965 1_555
Na1 O14 2.428965 1_554
Na1 O15 2.428965 1_554
Na2 O7 2.404960 1_544
Na2 O5 2.404960 1_554
Na2 O4 2.404960 1_545
Na2 O6 2.404960 1_555
Na3 O0 2.428965 1_455
Na3 O3 2.428965 1_445
Na3 O2 2.428965 1_555
Na3 O1 2.428965 1_545
Ca0 O20 2.361978 1_555
Ca0 O22 2.361978 1_545
Ca0 O21 2.361978 1_555
Ca0 O23 2.361978 1_545
Ca1 O10 2.361978 1_555
Ca1 O8 2.361978 1_554
Ca1 O11 2.361978 1_454
Ca1 O9 2.361978 1_455
Ca2 O2 2.874497 1_554
Ca2 O1 2.874497 1_545
Ca2 O0 2.874497 1_455
Ca2 O3 2.874497 1_444
Ca2 O10 2.900214 1_545
Ca2 O8 2.900214 1_554
Ca2 O11 2.900214 1_444
Ca2 O9 2.900214 1_455
Ca2 O5 2.967457 1_554
Ca2 O7 2.967457 1_444
Ca2 O6 2.967457 1_455
Ca2 O4 2.967457 1_545
Ca3 O14 2.874497 1_555
Ca3 O15 2.874497 1_555
Ca3 O12 2.874497 1_555
Ca3 O13 2.874497 1_555
Ca3 O22 2.900214 1_555
Ca3 O21 2.900214 1_555
Ca3 O20 2.900214 1_555
Ca3 O23 2.900214 1_555
Ca3 O19 2.967457 1_555
Ca3 O17 2.967457 1_555
Ca3 O16 2.967457 1_555
Ca3 O18 2.967457 1_555
Ce0 O4 2.225815 1_545
Ce0 O16 2.225815 1_555
Ce0 O0 2.230994 1_455
Ce0 O12 2.230994 1_555
Ce0 O20 2.251664 1_555
Ce0 O8 2.251664 1_554
Ce1 O18 2.225815 1_555
Ce1 O6 2.225815 1_565
Ce1 O13 2.230994 1_555
Ce1 O1 2.230994 1_655
Ce1 O11 2.251664 1_554
Ce1 O23 2.251664 1_555
Ce2 O7 2.225815 1_545
Ce2 O19 2.225815 1_555
Ce2 O14 2.230994 1_555
Ce2 O2 2.230994 1_655
Ce2 O21 2.251664 1_555
Ce2 O9 2.251664 1_556
Ce3 O5 2.225815 1_565
Ce3 O17 2.225815 1_555
Ce3 O15 2.230994 1_555
Ce3 O3 2.230994 1_455
Ce3 O22 2.251664 1_555
Ce3 O10 2.251664 1_556
Bi0 O15 2.134672 1_555
Bi0 O3 2.134672 1_555
Bi0 O7 2.135546 1_555
Bi0 O19 2.135546 1_555
Bi0 O11 2.141496 1_555
Bi0 O23 2.141496 1_555
Bi1 O2 2.134672 1_555
Bi1 O14 2.134672 1_555
Bi1 O17 2.135546 1_555
Bi1 O5 2.135546 1_555
Bi1 O8 2.141496 1_555
Bi1 O20 2.141496 1_555
Bi2 O1 2.134672 1_555
Bi2 O13 2.134672 1_555
Bi2 O4 2.135546 1_555
Bi2 O16 2.135546 1_555
Bi2 O22 2.141496 1_555
Bi2 O10 2.141496 1_555
Bi3 O12 2.134672 1_555
Bi3 O0 2.134672 1_555
Bi3 O18 2.135546 1_555
Bi3 O6 2.135546 1_555
Bi3 O9 2.141496 1_555
Bi3 O21 2.141496 1_555
