# generated using pymatgen
data_MgTeO4
_symmetry_space_group_name_H-M   'P 1'
_cell_length_a   4.69210010
_cell_length_b   5.03034667
_cell_length_c   5.58572576
_cell_angle_alpha   90.00000000
_cell_angle_beta   90.00000000
_cell_angle_gamma   93.11564068
_symmetry_Int_Tables_number   1
_chemical_formula_structural   MgTeO4
_chemical_formula_sum   'Mg2 Te2 O8'
_cell_volume   131.64439596
_cell_formula_units_Z   2
loop_
 _symmetry_equiv_pos_site_id
 _symmetry_equiv_pos_as_xyz
  1  'x, y, z'
loop_
 _atom_site_type_symbol
 _atom_site_label
 _atom_site_symmetry_multiplicity
 _atom_site_fract_x
 _atom_site_fract_y
 _atom_site_fract_z
 _atom_site_occupancy
  Mg  Mg0  1  0.00000000  0.75000000  0.84689879  1
  Mg  Mg1  1  0.00000000  0.25000000  0.15310121  1
  Te  Te0  1  0.50000000  0.75000000  0.33351441  1
  Te  Te1  1  0.50000000  0.25000000  0.66648559  1
  O  O0  1  0.75983965  0.40519233  0.87756733  1
  O  O1  1  0.24016035  0.59480767  0.12243267  1
  O  O2  1  0.24016035  0.09480767  0.87756733  1
  O  O3  1  0.75983965  0.90519233  0.12243267  1
  O  O4  1  0.71797226  0.93378183  0.60447103  1
  O  O5  1  0.28202774  0.06621817  0.39552897  1
  O  O6  1  0.28202774  0.56621817  0.60447103  1
  O  O7  1  0.71797226  0.43378183  0.39552897  1
loop_
_geom_bond_atom_site_label_1
_geom_bond_atom_site_label_2
_geom_bond_distance
_geom_bond_site_symmetry_2
Mg0 O0 2.023656 1_455
Mg0 O2 2.023656 1_565
Mg0 O1 2.084124 1_556
Mg0 O3 2.084124 1_456
Mg0 O6 2.138333 1_555
Mg0 O4 2.138333 1_455
Mg1 O1 2.023656 1_555
Mg1 O3 2.023656 1_445
Mg1 O2 2.084124 1_554
Mg1 O0 2.084124 1_454
Mg1 O7 2.138333 1_455
Mg1 O5 2.138333 1_555
O0 Te1 1.839175 1_555
O1 Te0 1.839175 1_555
O2 Te1 1.839175 1_555
O3 Te0 1.839175 1_555
O4 Te1 1.968028 1_565
O4 Te0 2.022018 1_555
O5 Te0 1.968028 1_545
O5 Te1 2.022018 1_555
O6 Te1 1.968028 1_555
O6 Te0 2.022018 1_555
O7 Te0 1.968028 1_555
O7 Te1 2.022018 1_555
