# generated using pymatgen
data_LaMg(FeO3)2
_symmetry_space_group_name_H-M   'P 1'
_cell_length_a   5.35397500
_cell_length_b   5.49575300
_cell_length_c   7.71288100
_cell_angle_alpha   90.00000000
_cell_angle_beta   90.00000000
_cell_angle_gamma   90.00000000
_symmetry_Int_Tables_number   1
_chemical_formula_structural   LaMg(FeO3)2
_chemical_formula_sum   'La2 Mg2 Fe4 O12'
_cell_volume   226.94476824
_cell_formula_units_Z   2
loop_
 _symmetry_equiv_pos_site_id
 _symmetry_equiv_pos_as_xyz
  1  'x, y, z'
loop_
 _atom_site_type_symbol
 _atom_site_label
 _atom_site_symmetry_multiplicity
 _atom_site_fract_x
 _atom_site_fract_y
 _atom_site_fract_z
 _atom_site_occupancy
  La  La0  1  0.00728500  0.71718900  0.00000000  1
  La  La1  1  0.50728500  0.28281100  0.50000000  1
  Mg  Mg0  1  0.47349400  0.19410000  0.00000000  1
  Mg  Mg1  1  0.97349400  0.80590000  0.50000000  1
  Fe  Fe0  1  0.99948000  0.24977100  0.24806900  1
  Fe  Fe1  1  0.49948000  0.75022900  0.74806900  1
  Fe  Fe2  1  0.99948000  0.24977100  0.75193100  1
  Fe  Fe3  1  0.49948000  0.75022900  0.25193100  1
  O  O0  1  0.36910400  0.72890900  0.50000000  1
  O  O1  1  0.80752600  0.55137400  0.69168800  1
  O  O2  1  0.80752600  0.55137400  0.30831200  1
  O  O3  1  0.30752600  0.44862600  0.80831200  1
  O  O4  1  0.30752600  0.44862600  0.19168800  1
  O  O5  1  0.86910400  0.27109100  0.00000000  1
  O  O6  1  0.07579500  0.20521100  0.50000000  1
  O  O7  1  0.73015700  0.01786400  0.30401100  1
  O  O8  1  0.73015700  0.01786400  0.69598900  1
  O  O9  1  0.23015700  0.98213600  0.19598900  1
  O  O10  1  0.23015700  0.98213600  0.80401100  1
  O  O11  1  0.57579500  0.79478900  0.00000000  1
loop_
_geom_bond_atom_site_label_1
_geom_bond_atom_site_label_2
_geom_bond_distance
_geom_bond_site_symmetry_2
La0 O11 2.349221 1_455
La0 O9 2.414349 1_555
La0 O10 2.414349 1_554
La0 O5 2.560838 1_455
La0 O4 2.635965 1_555
La0 O3 2.635965 1_554
La0 O2 2.762069 1_455
La0 O1 2.762069 1_454
La1 O6 2.349221 1_555
La1 O8 2.414349 1_555
La1 O7 2.414349 1_555
La1 O0 2.560838 1_555
La1 O1 2.635965 1_555
La1 O2 2.635965 1_555
La1 O3 2.762069 1_555
La1 O4 2.762069 1_555
Mg0 O5 2.159936 1_555
Mg0 O4 2.220840 1_555
Mg0 O3 2.220840 1_554
Mg0 O11 2.261833 1_545
Mg0 O9 2.310712 1_545
Mg0 O10 2.310712 1_544
Mg1 O0 2.159936 1_655
Mg1 O1 2.220840 1_555
Mg1 O2 2.220840 1_555
Mg1 O6 2.261833 1_665
Mg1 O8 2.310712 1_565
Mg1 O7 2.310712 1_565
Fe0 O9 1.962165 1_645
Fe0 O7 1.972244 1_555
Fe0 O6 2.000652 1_655
Fe0 O2 2.004875 1_555
Fe0 O4 2.025718 1_655
Fe0 O5 2.040047 1_555
Fe1 O8 1.962165 1_565
Fe1 O10 1.972244 1_555
Fe1 O11 2.000652 1_556
Fe1 O3 2.004875 1_555
Fe1 O1 2.025718 1_555
Fe1 O0 2.040047 1_555
Fe2 O10 1.962165 1_645
Fe2 O8 1.972244 1_555
Fe2 O6 2.000652 1_655
Fe2 O1 2.004875 1_555
Fe2 O3 2.025718 1_655
Fe2 O5 2.040047 1_556
Fe3 O7 1.962165 1_565
Fe3 O9 1.972244 1_555
Fe3 O11 2.000652 1_555
Fe3 O4 2.004875 1_555
Fe3 O2 2.025718 1_555
Fe3 O0 2.040047 1_555
