# generated using pymatgen
data_HoCuSe2
_symmetry_space_group_name_H-M   'P 1'
_cell_length_a   4.06312841
_cell_length_b   4.06312841
_cell_length_c   6.38946321
_cell_angle_alpha   90.00000000
_cell_angle_beta   90.00000000
_cell_angle_gamma   119.99999429
_symmetry_Int_Tables_number   1
_chemical_formula_structural   HoCuSe2
_chemical_formula_sum   'Ho1 Cu1 Se2'
_cell_volume   91.35159323
_cell_formula_units_Z   1
loop_
 _symmetry_equiv_pos_site_id
 _symmetry_equiv_pos_as_xyz
  1  'x, y, z'
loop_
 _atom_site_type_symbol
 _atom_site_label
 _atom_site_symmetry_multiplicity
 _atom_site_fract_x
 _atom_site_fract_y
 _atom_site_fract_z
 _atom_site_occupancy
  Ho  Ho0  1  0.66666700  0.33333300  0.98799350  1
  Cu  Cu0  1  0.00000000  0.00000000  0.37226582  1
  Se  Se0  1  0.00000000  -0.00000000  0.75243489  1
  Se  Se1  1  0.33333300  0.66666700  0.25930579  1
loop_
_geom_bond_atom_site_label_1
_geom_bond_atom_site_label_2
_geom_bond_distance
_geom_bond_site_symmetry_2
Ho0 Se0 2.787167 1_655
Ho0 Se0 2.787170 1_555
Ho0 Se0 2.787170 1_665
Ho0 Se1 2.916874 1_546
Ho0 Se1 2.916874 1_656
Ho0 Se1 2.916880 1_556
Cu0 Se0 2.429076 1_555
Cu0 Se1 2.454368 1_545
Cu0 Se1 2.454371 1_445
Cu0 Se1 2.454371 1_555
