# generated using pymatgen
data_CeS2
_symmetry_space_group_name_H-M   'P 1'
_cell_length_a   4.08115384
_cell_length_b   8.15076413
_cell_length_c   8.11700580
_cell_angle_alpha   89.85585400
_cell_angle_beta   90.01132270
_cell_angle_gamma   89.99998908
_symmetry_Int_Tables_number   1
_chemical_formula_structural   CeS2
_chemical_formula_sum   'Ce4 S8'
_cell_volume   270.00746094
_cell_formula_units_Z   4
loop_
 _symmetry_equiv_pos_site_id
 _symmetry_equiv_pos_as_xyz
  1  'x, y, z'
loop_
 _atom_site_type_symbol
 _atom_site_label
 _atom_site_symmetry_multiplicity
 _atom_site_fract_x
 _atom_site_fract_y
 _atom_site_fract_z
 _atom_site_occupancy
  Ce  Ce0  1  0.71243991  0.72295862  0.62848227  1
  Ce  Ce1  1  0.21245044  0.27705377  0.87150131  1
  Ce  Ce2  1  0.28756009  0.27704138  0.37151773  1
  Ce  Ce3  1  0.78754956  0.72294623  0.12849869  1
  S  S0  1  0.15185386  0.99704321  0.60576193  1
  S  S1  1  0.65193292  0.00296212  0.89419492  1
  S  S2  1  0.84814614  0.00295679  0.39423807  1
  S  S3  1  0.34806708  0.99703788  0.10580508  1
  S  S4  1  0.76009725  0.36556406  0.12560715  1
  S  S5  1  0.26007190  0.63443582  0.37438883  1
  S  S6  1  0.23990275  0.63443594  0.87439285  1
  S  S7  1  0.73992810  0.36556418  0.62561117  1
loop_
_geom_bond_atom_site_label_1
_geom_bond_atom_site_label_2
_geom_bond_distance
_geom_bond_site_symmetry_2
Ce0 S5 2.861607 1_555
Ce0 S6 2.866744 1_555
Ce0 S0 2.870332 1_655
Ce0 S7 2.915349 1_555
Ce0 S2 3.018100 1_565
Ce0 S6 3.021562 1_655
Ce0 S5 3.127111 1_655
Ce0 S1 3.153781 1_565
Ce0 S0 3.202612 1_555
Ce1 S4 2.862140 1_456
Ce1 S7 2.866032 1_455
Ce1 S1 2.870492 1_555
Ce1 S6 2.915245 1_555
Ce1 S3 3.018308 1_546
Ce1 S7 3.022034 1_555
Ce1 S4 3.126614 1_556
Ce1 S0 3.153933 1_545
Ce1 S1 3.202493 1_455
Ce2 S7 2.861607 1_555
Ce2 S4 2.866744 1_555
Ce2 S2 2.870332 1_455
Ce2 S5 2.915349 1_555
Ce2 S0 3.018100 1_545
Ce2 S4 3.021562 1_455
Ce2 S7 3.127111 1_455
Ce2 S3 3.153781 1_545
Ce2 S2 3.202612 1_555
Ce3 S6 2.862140 1_654
Ce3 S5 2.866032 1_655
Ce3 S3 2.870492 1_555
Ce3 S4 2.915245 1_555
Ce3 S1 3.018308 1_564
Ce3 S5 3.022034 1_555
Ce3 S6 3.126614 1_554
Ce3 S2 3.153933 1_565
Ce3 S3 3.202493 1_655
S0 S2 2.117842 1_465
S1 S3 2.119187 1_546
