# generated using pymatgen
data_NaGa
_symmetry_space_group_name_H-M   'P 1'
_cell_length_a   4.55070436
_cell_length_b   4.55070436
_cell_length_c   4.89775100
_cell_angle_alpha   90.00000000
_cell_angle_beta   90.00000000
_cell_angle_gamma   96.56629241
_symmetry_Int_Tables_number   1
_chemical_formula_structural   NaGa
_chemical_formula_sum   'Na2 Ga2'
_cell_volume   100.76174528
_cell_formula_units_Z   2
loop_
 _symmetry_equiv_pos_site_id
 _symmetry_equiv_pos_as_xyz
  1  'x, y, z'
loop_
 _atom_site_type_symbol
 _atom_site_label
 _atom_site_symmetry_multiplicity
 _atom_site_fract_x
 _atom_site_fract_y
 _atom_site_fract_z
 _atom_site_occupancy
  Na  Na0  1  0.63460800  0.36539200  0.25000000  1
  Na  Na1  1  0.36539200  0.63460800  0.75000000  1
  Ga  Ga0  1  0.08655700  0.91344300  0.25000000  1
  Ga  Ga1  1  0.91344300  0.08655700  0.75000000  1
loop_
_geom_bond_atom_site_label_1
_geom_bond_atom_site_label_2
_geom_bond_distance
_geom_bond_site_symmetry_2
Ga0 Ga1 2.716644 1_464
Ga0 Ga1 2.716644 1_465
Ga0 Na0 3.045810 1_565
Ga0 Na0 3.045810 1_455
Ga0 Na0 3.070396 1_465
Ga0 Na1 3.096033 1_555
Ga0 Na1 3.096033 1_554
Ga1 Na1 3.045810 1_655
Ga1 Na1 3.045810 1_545
Ga1 Na1 3.070396 1_645
Ga1 Na0 3.096033 1_555
Ga1 Na0 3.096033 1_556
