# generated using pymatgen
data_TmCu4Ag
_symmetry_space_group_name_H-M   'P 1'
_cell_length_a   4.96935316
_cell_length_b   4.96935316
_cell_length_c   4.96935746
_cell_angle_alpha   59.99997138
_cell_angle_beta   59.99997138
_cell_angle_gamma   59.99994276
_symmetry_Int_Tables_number   1
_chemical_formula_structural   TmCu4Ag
_chemical_formula_sum   'Tm1 Cu4 Ag1'
_cell_volume   86.77299537
_cell_formula_units_Z   1
loop_
 _symmetry_equiv_pos_site_id
 _symmetry_equiv_pos_as_xyz
  1  'x, y, z'
loop_
 _atom_site_type_symbol
 _atom_site_label
 _atom_site_symmetry_multiplicity
 _atom_site_fract_x
 _atom_site_fract_y
 _atom_site_fract_z
 _atom_site_occupancy
  Tm  Tm0  1  0.75000000  0.75000000  0.75000000  1
  Cu  Cu0  1  0.37435204  0.37435204  0.37435104  1
  Cu  Cu1  1  0.87694489  0.37435204  0.37435204  1
  Cu  Cu2  1  0.37435204  0.87694489  0.37435204  1
  Cu  Cu3  1  0.37435204  0.37435204  0.87694589  1
  Ag  Ag0  1  -0.00000000  0.00000000  -0.00000000  1
loop_
_geom_bond_atom_site_label_1
_geom_bond_atom_site_label_2
_geom_bond_distance
_geom_bond_site_symmetry_2
Cu0 Cu3 2.471784 1_554
Cu0 Cu1 2.471789 1_455
Cu0 Cu2 2.471789 1_545
Cu0 Cu2 2.497564 1_555
Cu0 Cu1 2.497564 1_555
Cu0 Cu3 2.497573 1_555
Cu0 Tm0 2.914923 1_554
Cu0 Tm0 2.914926 1_545
Cu0 Tm0 2.914926 1_455
Cu1 Cu3 2.471789 1_654
Cu1 Cu2 2.471790 1_645
Cu1 Cu2 2.497559 1_555
Cu1 Cu3 2.497564 1_555
Cu1 Tm0 2.914924 1_555
Cu1 Tm0 2.914927 1_545
Cu1 Tm0 2.914928 1_554
Cu2 Cu3 2.471789 1_564
Cu2 Cu3 2.497564 1_555
Cu2 Tm0 2.914924 1_555
Cu2 Tm0 2.914927 1_455
Cu2 Tm0 2.914928 1_554
Cu3 Tm0 2.914921 1_555
Cu3 Tm0 2.914928 1_545
Cu3 Tm0 2.914928 1_455
Ag0 Cu3 2.912173 1_544
Ag0 Cu3 2.912173 1_454
Ag0 Cu0 2.912175 1_455
Ag0 Cu0 2.912175 1_545
Ag0 Cu2 2.912176 1_445
Ag0 Cu1 2.912176 1_445
Ag0 Cu1 2.912178 1_454
Ag0 Cu2 2.912178 1_544
Ag0 Cu0 2.912182 1_554
Ag0 Cu2 2.912182 1_545
Ag0 Cu1 2.912182 1_455
Ag0 Cu3 2.912184 1_554
Ag0 Tm0 3.043093 1_454
Ag0 Tm0 3.043093 1_544
Ag0 Tm0 3.043097 1_445
Ag0 Tm0 3.043097 1_444
