# generated using pymatgen
data_Mg(SbO2)2
_symmetry_space_group_name_H-M   'P 1'
_cell_length_a   6.54584015
_cell_length_b   6.54584015
_cell_length_c   6.54584063
_cell_angle_alpha   61.75746570
_cell_angle_beta   61.75746570
_cell_angle_gamma   61.75746820
_symmetry_Int_Tables_number   1
_chemical_formula_structural   Mg(SbO2)2
_chemical_formula_sum   'Mg2 Sb4 O8'
_cell_volume   206.13659840
_cell_formula_units_Z   2
loop_
 _symmetry_equiv_pos_site_id
 _symmetry_equiv_pos_as_xyz
  1  'x, y, z'
loop_
 _atom_site_type_symbol
 _atom_site_label
 _atom_site_symmetry_multiplicity
 _atom_site_fract_x
 _atom_site_fract_y
 _atom_site_fract_z
 _atom_site_occupancy
  Mg  Mg0  1  0.99547100  0.99547100  0.99547100  1
  Mg  Mg1  1  0.37201400  0.37201400  0.37201400  1
  Sb  Sb0  1  0.77494300  0.77494300  0.77494300  1
  Sb  Sb1  1  0.87273600  0.38082400  0.38082400  1
  Sb  Sb2  1  0.38082400  0.38082400  0.87273600  1
  Sb  Sb3  1  0.38082400  0.87273600  0.38082400  1
  O  O0  1  0.59152200  0.14925100  0.59152200  1
  O  O1  1  0.59152200  0.59152200  0.14925100  1
  O  O2  1  0.14925100  0.59152200  0.59152200  1
  O  O3  1  0.64969100  0.64969100  0.64969100  1
  O  O4  1  0.13422300  0.13422300  0.13422300  1
  O  O5  1  0.59759700  0.12969500  0.12969500  1
  O  O6  1  0.12969500  0.12969500  0.59759700  1
  O  O7  1  0.12969500  0.59759700  0.12969500  1
loop_
_geom_bond_atom_site_label_1
_geom_bond_atom_site_label_2
_geom_bond_distance
_geom_bond_site_symmetry_2
Mg0 O7 2.173987 1_656
Mg0 O5 2.173987 1_566
Mg0 O6 2.173987 1_665
Mg0 O4 2.194737 1_666
Mg1 O1 2.059984 1_555
Mg1 O0 2.059984 1_555
Mg1 O2 2.059984 1_555
Mg1 O6 2.271597 1_555
Mg1 O5 2.271597 1_555
Mg1 O7 2.271597 1_555
O0 Sb0 2.163893 1_545
O0 Sb1 2.418239 1_555
O0 Sb2 2.418239 1_555
O1 Sb0 2.163893 1_554
O1 Sb1 2.418239 1_555
O1 Sb3 2.418239 1_555
O2 Sb0 2.163893 1_455
O2 Sb3 2.418239 1_555
O2 Sb2 2.418239 1_555
O3 Sb0 1.981198 1_555
O3 Sb2 2.528696 1_555
O3 Sb3 2.528696 1_555
O3 Sb1 2.528696 1_555
O4 Sb2 2.318910 1_554
O4 Sb1 2.318910 1_455
O4 Sb3 2.318910 1_545
O5 Sb3 2.231437 1_545
O5 Sb2 2.231437 1_554
O6 Sb3 2.231437 1_545
O6 Sb1 2.231437 1_455
O7 Sb1 2.231437 1_455
O7 Sb2 2.231437 1_554
