# generated using pymatgen
data_Bi2Pd3Se2
_symmetry_space_group_name_H-M   'P 1'
_cell_length_a   7.31571869
_cell_length_b   7.31571869
_cell_length_c   8.49647827
_cell_angle_alpha   55.96807734
_cell_angle_beta   55.96807734
_cell_angle_gamma   71.36149925
_symmetry_Int_Tables_number   1
_chemical_formula_structural   Bi2Pd3Se2
_chemical_formula_sum   'Bi4 Pd6 Se4'
_cell_volume   312.28850512
_cell_formula_units_Z   2
loop_
 _symmetry_equiv_pos_site_id
 _symmetry_equiv_pos_as_xyz
  1  'x, y, z'
loop_
 _atom_site_type_symbol
 _atom_site_label
 _atom_site_symmetry_multiplicity
 _atom_site_fract_x
 _atom_site_fract_y
 _atom_site_fract_z
 _atom_site_occupancy
  Bi  Bi0  1  0.24946475  0.24946475  0.73612018  1
  Bi  Bi1  1  0.75053525  0.75053525  0.26387982  1
  Bi  Bi2  1  0.20332314  0.20332314  0.31422094  1
  Bi  Bi3  1  0.79667686  0.79667686  0.68577906  1
  Pd  Pd0  1  -0.00000000  0.50000000  0.50000000  1
  Pd  Pd1  1  0.50000000  -0.00000000  0.50000000  1
  Pd  Pd2  1  0.03117799  0.03117799  0.18739642  1
  Pd  Pd3  1  0.96882201  0.96882201  0.81260358  1
  Pd  Pd4  1  0.71481530  0.28518470  0.50000000  1
  Pd  Pd5  1  0.28518470  0.71481530  0.50000000  1
  Se  Se0  1  0.74183879  0.31934623  0.18211685  1
  Se  Se1  1  0.31934623  0.74183879  0.18211685  1
  Se  Se2  1  0.25816121  0.68065377  0.81788315  1
  Se  Se3  1  0.68065377  0.25816121  0.81788315  1
loop_
_geom_bond_atom_site_label_1
_geom_bond_atom_site_label_2
_geom_bond_distance
_geom_bond_site_symmetry_2
Bi0 Pd2 2.779354 1_556
Bi0 Pd4 2.831961 1_555
Bi0 Pd5 2.831961 1_555
Bi0 Pd0 2.925600 1_555
Bi0 Pd1 2.925600 1_555
Bi0 Pd3 2.925810 1_445
Bi1 Pd3 2.779354 1_554
Bi1 Pd5 2.831961 1_555
Bi1 Pd4 2.831961 1_555
Bi1 Pd0 2.925600 1_655
Bi1 Pd1 2.925600 1_565
Bi1 Pd2 2.925810 1_665
Bi2 Pd2 2.895653 1_555
Bi2 Pd1 2.925374 1_555
Bi2 Pd0 2.925374 1_555
Bi2 Pd5 2.999679 1_545
Bi2 Pd4 2.999679 1_455
Bi2 Pd3 3.071804 1_445
Bi3 Pd3 2.895653 1_555
Bi3 Pd0 2.925374 1_655
Bi3 Pd1 2.925374 1_565
Bi3 Pd5 2.999679 1_655
Bi3 Pd4 2.999679 1_565
Bi3 Pd2 3.071804 1_665
Pd0 Se3 2.472576 1_455
Pd0 Se1 2.472576 1_555
Pd1 Se2 2.472576 1_545
Pd1 Se0 2.472576 1_555
Pd2 Se1 2.464745 1_545
Pd2 Se0 2.464745 1_455
Pd3 Se3 2.464745 1_565
Pd3 Se2 2.464745 1_655
Pd4 Se0 2.464696 1_555
Pd4 Se3 2.464696 1_555
Pd5 Se1 2.464696 1_555
Pd5 Se2 2.464696 1_555
