# generated using pymatgen
data_Sm2Co17N2
_symmetry_space_group_name_H-M   'P 1'
_cell_length_a   6.33903932
_cell_length_b   6.33903932
_cell_length_c   6.37711672
_cell_angle_alpha   84.07648240
_cell_angle_beta   84.07648240
_cell_angle_gamma   83.79645829
_symmetry_Int_Tables_number   1
_chemical_formula_structural   Sm2Co17N2
_chemical_formula_sum   'Sm2 Co17 N2'
_cell_volume   252.29329111
_cell_formula_units_Z   1
loop_
 _symmetry_equiv_pos_site_id
 _symmetry_equiv_pos_as_xyz
  1  'x, y, z'
loop_
 _atom_site_type_symbol
 _atom_site_label
 _atom_site_symmetry_multiplicity
 _atom_site_fract_x
 _atom_site_fract_y
 _atom_site_fract_z
 _atom_site_occupancy
  Sm  Sm0  1  0.34992000  0.34992000  0.33305900  1
  Sm  Sm1  1  0.65008000  0.65008000  0.66694100  1
  Co  Co0  1  0.09936000  0.09936000  0.09018100  1
  Co  Co1  1  0.90064000  0.90064000  0.90981900  1
  Co  Co2  1  0.65443600  0.65443600  0.13367500  1
  Co  Co3  1  0.65281800  0.14265000  0.66028400  1
  Co  Co4  1  0.14265000  0.65281800  0.66028400  1
  Co  Co5  1  0.34556400  0.34556400  0.86632500  1
  Co  Co6  1  0.34718200  0.85735000  0.33971600  1
  Co  Co7  1  0.85735000  0.34718200  0.33971600  1
  Co  Co8  1  0.71842000  0.28158000  0.00000000  1
  Co  Co9  1  0.28300100  0.99724300  0.71635000  1
  Co  Co10  1  0.00275700  0.71699900  0.28365000  1
  Co  Co11  1  0.71699900  0.00275700  0.28365000  1
  Co  Co12  1  0.99724300  0.28300100  0.71635000  1
  Co  Co13  1  0.28158000  0.71842000  0.00000000  1
  Co  Co14  1  0.00000000  0.00000000  0.50000000  1
  Co  Co15  1  0.00000000  0.50000000  0.00000000  1
  Co  Co16  1  0.50000000  0.00000000  0.00000000  1
  N  N0  1  0.50000000  0.00000000  0.50000000  1
  N  N1  1  0.00000000  0.50000000  0.50000000  1
loop_
_geom_bond_atom_site_label_1
_geom_bond_atom_site_label_2
_geom_bond_distance
_geom_bond_site_symmetry_2
Co0 Co1 2.331876 1_444
Co0 Co5 2.552679 1_554
Co0 Co15 2.570014 1_555
Co0 Co16 2.570014 1_555
Co0 Co7 2.616279 1_455
Co0 Co6 2.616279 1_545
Co0 Co14 2.651384 1_555
Co0 Co9 2.653359 1_544
Co0 Co12 2.653359 1_454
Co0 Co8 2.653848 1_455
Co0 Co13 2.653848 1_545
Co0 Co10 2.705480 1_545
Co0 Co11 2.705480 1_455
Co0 Sm0 3.000861 1_555
Co1 Co2 2.552679 1_556
Co1 Co15 2.570014 1_656
Co1 Co16 2.570014 1_566
Co1 Co4 2.616279 1_655
Co1 Co3 2.616279 1_565
Co1 Co14 2.651384 1_665
Co1 Co10 2.653359 1_656
Co1 Co11 2.653359 1_566
Co1 Co13 2.653848 1_656
Co1 Co8 2.653848 1_566
Co1 Co9 2.705480 1_655
Co1 Co12 2.705480 1_565
Co1 Sm1 3.000861 1_555
Co2 Co6 2.540407 1_555
Co2 Co7 2.540407 1_555
Co2 Co8 2.571940 1_555
Co2 Sm0 2.976783 1_555
Co2 Sm1 2.982394 1_554
Co2 Sm1 3.395244 1_555
Co3 N0 1.839937 1_555
Co3 Co8 2.510132 1_556
Co3 Co5 2.540407 1_555
Co4 N1 1.839937 1_555
Co4 Co5 2.540407 1_555
Co5 Co8 2.571940 1_556
Co5 Co9 2.578908 1_545
Co5 Sm1 2.976783 1_555
Co5 Sm0 2.982394 1_556
Co5 Sm0 3.395244 1_555
Co6 N0 1.839937 1_565
Co7 N1 1.839937 1_655
Co7 Co8 2.510132 1_555
Co8 Sm0 3.017055 1_555
Co8 Sm1 3.017055 1_554
Co9 N0 1.845136 1_565
Co10 N1 1.845136 1_555
Co10 Co14 2.370914 1_565
Co10 Co15 2.385327 1_555
Co10 Co13 2.395042 1_555
Co10 Co2 2.578908 1_455
Co11 N0 1.845136 1_555
Co11 Co14 2.370914 1_655
Co11 Co16 2.385327 1_555
Co11 Co8 2.395042 1_555
Co11 Co2 2.578908 1_545
Co12 N1 1.845136 1_655
Co12 Co14 2.370914 1_655
Co12 Co15 2.385327 1_656
Co12 Co8 2.395042 1_556
Co12 Co5 2.578908 1_655
Co13 Co15 2.374278 1_555
Co13 Co16 2.374278 1_565
Co13 Co9 2.395042 1_554
Co13 Co4 2.510132 1_554
Co13 Co6 2.510132 1_555
Co13 Co5 2.571940 1_554
Co13 Co2 2.571940 1_555
Co13 Sm0 3.017055 1_555
Co13 Sm1 3.017055 1_554
Co14 Co9 2.370914 1_545
Co14 Co3 2.449973 1_455
Co14 Co6 2.449973 1_545
Co14 Co4 2.449973 1_545
Co14 Co7 2.449973 1_455
Co14 Sm1 3.326013 1_445
Co14 Sm0 3.326013 1_555
Co15 Co8 2.374278 1_455
Co15 Co7 2.408578 1_455
Co15 Co4 2.408578 1_554
Co15 Co2 2.409755 1_455
Co15 Co5 2.409755 1_554
Co15 Sm1 3.230445 1_454
Co15 Sm0 3.230445 1_555
Co16 Co8 2.374278 1_555
Co16 Co9 2.385327 1_544
Co16 Co6 2.408578 1_545
Co16 Co3 2.408578 1_554
Co16 Co2 2.409755 1_545
Co16 Co5 2.409755 1_554
Co16 Sm0 3.230445 1_555
Co16 Sm1 3.230445 1_544
N0 Sm1 2.494845 1_545
N0 Sm0 2.494845 1_555
N1 Sm1 2.494845 1_455
N1 Sm0 2.494845 1_555
