# generated using pymatgen
data_Ho4CrS7
_symmetry_space_group_name_H-M   'P 1'
_cell_length_a   6.46983857
_cell_length_b   6.46983857
_cell_length_c   11.30621107
_cell_angle_alpha   75.00943861
_cell_angle_beta   75.00943861
_cell_angle_gamma   33.99711573
_symmetry_Int_Tables_number   1
_chemical_formula_structural   Ho4CrS7
_chemical_formula_sum   'Ho4 Cr1 S7'
_cell_volume   254.76289806
_cell_formula_units_Z   1
loop_
 _symmetry_equiv_pos_site_id
 _symmetry_equiv_pos_as_xyz
  1  'x, y, z'
loop_
 _atom_site_type_symbol
 _atom_site_label
 _atom_site_symmetry_multiplicity
 _atom_site_fract_x
 _atom_site_fract_y
 _atom_site_fract_z
 _atom_site_occupancy
  Ho  Ho0  1  0.69345000  0.69345000  0.20788400  1
  Ho  Ho1  1  0.30723800  0.30723800  0.80140200  1
  Ho  Ho2  1  0.99828600  0.99828600  0.00757100  1
  Ho  Ho3  1  0.11316500  0.11316500  0.56270500  1
  Cr  Cr0  1  0.88476900  0.88476900  0.42508200  1
  S  S0  1  0.74786100  0.74786100  0.63279800  1
  S  S1  1  0.27299900  0.27299900  0.35249100  1
  S  S2  1  0.33584900  0.33584900  0.05220000  1
  S  S3  1  0.65958900  0.65958900  0.94744300  1
  S  S4  1  0.03076100  0.03076100  0.23128500  1
  S  S5  1  0.96387200  0.96387200  0.78527000  1
  S  S6  1  0.49216000  0.49216000  0.49386900  1
loop_
_geom_bond_atom_site_label_1
_geom_bond_atom_site_label_2
_geom_bond_distance
_geom_bond_site_symmetry_2
Ho0 S4 2.722552 1_565
Ho0 S4 2.722552 1_655
Ho0 S1 2.844333 1_565
Ho0 S1 2.844333 1_655
Ho0 S2 2.846576 1_565
Ho0 S2 2.846576 1_655
Ho0 S3 3.084425 1_554
Ho0 S6 3.507480 1_555
Ho1 S5 2.678877 1_455
Ho1 S5 2.678877 1_545
Ho1 S3 2.830218 1_455
Ho1 S3 2.830218 1_545
Ho1 S0 2.917014 1_545
Ho1 S0 2.917014 1_455
Ho1 S2 2.951085 1_556
Ho2 S5 2.660345 1_554
Ho2 S4 2.666268 1_665
Ho2 S3 2.699959 1_564
Ho2 S3 2.699959 1_654
Ho2 S2 2.706256 1_565
Ho2 S2 2.706256 1_655
Ho3 S1 2.649109 1_555
Ho3 S6 2.656267 1_455
Ho3 S6 2.656267 1_545
Ho3 S5 2.688914 1_445
Ho3 S0 2.774578 1_455
Ho3 S0 2.774578 1_545
Cr0 S4 2.433788 1_665
Cr0 S0 2.496644 1_555
Cr0 S6 2.550970 1_655
Cr0 S6 2.550970 1_565
Cr0 S1 2.603483 1_565
Cr0 S1 2.603483 1_655
