# generated using pymatgen
data_CaLa2Fe2(TeO6)2
_symmetry_space_group_name_H-M   'P 1'
_cell_length_a   5.59149105
_cell_length_b   5.57125502
_cell_length_c   9.91837641
_cell_angle_alpha   89.89300279
_cell_angle_beta   89.97422851
_cell_angle_gamma   60.09591569
_symmetry_Int_Tables_number   1
_chemical_formula_structural   CaLa2Fe2(TeO6)2
_chemical_formula_sum   'Ca1 La2 Fe2 Te2 O12'
_cell_volume   267.83665056
_cell_formula_units_Z   1
loop_
 _symmetry_equiv_pos_site_id
 _symmetry_equiv_pos_as_xyz
  1  'x, y, z'
loop_
 _atom_site_type_symbol
 _atom_site_label
 _atom_site_symmetry_multiplicity
 _atom_site_fract_x
 _atom_site_fract_y
 _atom_site_fract_z
 _atom_site_occupancy
  Ca  Ca0  1  0.66630100  0.66761500  0.05523000  1
  La  La0  1  0.00144600  0.99869100  0.49499200  1
  La  La1  1  0.00063800  0.00056500  0.97158200  1
  Fe  Fe0  1  0.32783500  0.33594100  0.74238300  1
  Fe  Fe1  1  0.66714800  0.66704900  0.36487900  1
  Te  Te0  1  0.66708300  0.66515900  0.73462000  1
  Te  Te1  1  0.33331100  0.33387200  0.23577000  1
  O  O0  1  0.96623300  0.37200300  0.63214700  1
  O  O1  1  0.65875800  0.95778500  0.62580400  1
  O  O2  1  0.37643300  0.64866900  0.63365900  1
  O  O3  1  0.63553000  0.06542400  0.12636500  1
  O  O4  1  0.29973400  0.63949000  0.12826300  1
  O  O5  1  0.06344000  0.30221500  0.12643400  1
  O  O6  1  0.04003100  0.60918700  0.35571200  1
  O  O7  1  0.34918800  0.03789500  0.35383400  1
  O  O8  1  0.61232500  0.34882600  0.35473100  1
  O  O9  1  0.39967500  0.96706100  0.85344600  1
  O  O10  1  0.63844500  0.40434200  0.85967200  1
  O  O11  1  0.95894600  0.64070900  0.85672800  1
loop_
_geom_bond_atom_site_label_1
_geom_bond_atom_site_label_2
_geom_bond_distance
_geom_bond_site_symmetry_2
Ca0 O5 2.250032 1_655
Ca0 O3 2.250527 1_565
Ca0 O4 2.251405 1_555
Ca0 O10 2.485248 1_554
Ca0 O11 2.515928 1_554
Ca0 O9 2.553732 1_554
La0 O0 2.411842 1_465
La0 O1 2.416392 1_455
La0 O2 2.450777 1_555
La0 O6 2.491590 1_555
La0 O7 2.491668 1_565
La0 O8 2.497026 1_465
La1 O10 2.417445 1_455
La1 O11 2.417902 1_445
La1 O4 2.427910 1_546
La1 O5 2.430043 1_556
La1 O3 2.432862 1_456
La1 O9 2.443208 1_545
Fe0 O2 2.176480 1_555
Fe0 O9 2.183380 1_545
Fe0 O0 2.218105 1_455
Fe0 O11 2.221871 1_455
Fe0 O10 2.275590 1_555
Fe0 O1 2.306415 1_545
Fe1 O7 1.943777 1_565
Fe1 O6 1.946551 1_655
Fe1 O8 1.946758 1_555
O0 Te0 1.943984 1_555
O1 Te0 1.934599 1_555
O2 Te0 1.950135 1_555
O3 Te1 1.937602 1_555
O4 Te1 1.935457 1_555
O5 Te1 1.936926 1_555
O6 Te1 1.988501 1_555
O7 Te1 1.986235 1_555
O8 Te1 1.991144 1_555
O9 Te0 1.987939 1_555
O10 Te0 1.974981 1_555
O11 Te0 1.981948 1_555
