# generated using pymatgen
data_CeAl3Au
_symmetry_space_group_name_H-M   'P 1'
_cell_length_a   6.25057762
_cell_length_b   6.25057762
_cell_length_c   6.25057762
_cell_angle_alpha   139.58926066
_cell_angle_beta   139.58926066
_cell_angle_gamma   58.47748186
_symmetry_Int_Tables_number   1
_chemical_formula_structural   CeAl3Au
_chemical_formula_sum   'Ce1 Al3 Au1'
_cell_volume   101.68140101
_cell_formula_units_Z   1
loop_
 _symmetry_equiv_pos_site_id
 _symmetry_equiv_pos_as_xyz
  1  'x, y, z'
loop_
 _atom_site_type_symbol
 _atom_site_label
 _atom_site_symmetry_multiplicity
 _atom_site_fract_x
 _atom_site_fract_y
 _atom_site_fract_z
 _atom_site_occupancy
  Ce  Ce0  1  0.99125954  0.99125954  -0.00000000  1
  Al  Al0  1  0.40143620  0.40143620  0.00000000  1
  Al  Al1  1  0.25298716  0.75298716  0.50000000  1
  Al  Al2  1  0.75298716  0.25298716  0.50000000  1
  Au  Au0  1  0.62932994  0.62932994  -0.00000000  1
loop_
_geom_bond_atom_site_label_1
_geom_bond_atom_site_label_2
_geom_bond_distance
_geom_bond_site_symmetry_2
Al0 Au0 2.485958 1_555
Al0 Al1 2.698696 1_555
Al0 Al1 2.698696 1_544
Al0 Al2 2.698696 1_555
Al0 Al2 2.698696 1_454
Al0 Ce0 3.206469 1_455
Al0 Ce0 3.206469 1_556
Al0 Ce0 3.206469 1_545
Al0 Ce0 3.206469 1_444
Al1 Au0 2.545630 1_556
Al1 Au0 2.545630 1_455
Al1 Ce0 3.378814 1_556
Al1 Ce0 3.378814 1_455
Al1 Ce0 3.579371 1_456
Al1 Ce0 3.579371 1_445
Al2 Au0 2.545630 1_556
Al2 Au0 2.545630 1_545
Al2 Ce0 3.378814 1_556
Al2 Ce0 3.378814 1_545
Al2 Ce0 3.579371 1_546
Al2 Ce0 3.579371 1_445
Au0 Ce0 3.404380 1_455
Au0 Ce0 3.404380 1_556
Au0 Ce0 3.404380 1_545
Au0 Ce0 3.404380 1_444
