# generated using pymatgen
data_Mg14CoSb
_symmetry_space_group_name_H-M   'P 1'
_cell_length_a   6.23864285
_cell_length_b   6.23864237
_cell_length_c   10.25316221
_cell_angle_alpha   90.00000000
_cell_angle_beta   90.00000000
_cell_angle_gamma   120.00000258
_symmetry_Int_Tables_number   1
_chemical_formula_structural   Mg14CoSb
_chemical_formula_sum   'Mg14 Co1 Sb1'
_cell_volume   345.59596488
_cell_formula_units_Z   1
loop_
 _symmetry_equiv_pos_site_id
 _symmetry_equiv_pos_as_xyz
  1  'x, y, z'
loop_
 _atom_site_type_symbol
 _atom_site_label
 _atom_site_symmetry_multiplicity
 _atom_site_fract_x
 _atom_site_fract_y
 _atom_site_fract_z
 _atom_site_occupancy
  Mg  Mg0  1  0.16211158  0.83105529  0.12500000  1
  Mg  Mg1  1  0.16712836  0.83356368  0.62500000  1
  Mg  Mg2  1  0.66894471  0.33788842  0.12500000  1
  Mg  Mg3  1  0.66643632  0.33287164  0.62500000  1
  Mg  Mg4  1  0.66894471  0.83105529  0.12500000  1
  Mg  Mg5  1  0.66643632  0.83356368  0.62500000  1
  Mg  Mg6  1  0.32821034  0.17178966  0.35726171  1
  Mg  Mg7  1  0.32821034  0.17178966  0.89273829  1
  Mg  Mg8  1  0.32821034  0.65642168  0.35726171  1
  Mg  Mg9  1  0.32821034  0.65642168  0.89273829  1
  Mg  Mg10  1  0.84357832  0.17178966  0.35726171  1
  Mg  Mg11  1  0.84357832  0.17178966  0.89273829  1
  Mg  Mg12  1  0.83333300  0.66666700  0.37585484  1
  Mg  Mg13  1  0.83333300  0.66666700  0.87414516  1
  Co  Co0  1  0.16666700  0.33333300  0.12500000  1
  Sb  Sb0  1  0.16666700  0.33333300  0.62500000  1
loop_
_geom_bond_atom_site_label_1
_geom_bond_atom_site_label_2
_geom_bond_distance
_geom_bond_site_symmetry_2
Mg0 Mg9 3.010121 1_554
Mg0 Mg8 3.010121 1_555
Mg0 Mg7 3.010128 1_564
Mg0 Mg6 3.010128 1_565
Mg0 Mg2 3.076692 1_455
Mg0 Mg4 3.076692 1_455
Mg0 Mg12 3.125832 1_455
Mg0 Mg13 3.125832 1_454
Mg0 Mg2 3.161951 1_565
Mg0 Mg4 3.161951 1_555
Mg1 Sb0 3.119322 1_555
Mg1 Sb0 3.119322 1_565
Mg1 Mg13 3.126977 1_455
Mg1 Mg12 3.126977 1_455
Mg1 Mg8 3.298135 1_555
Mg1 Mg9 3.298135 1_555
Mg1 Mg6 3.298141 1_565
Mg1 Mg7 3.298141 1_565
Mg2 Mg7 3.010128 1_554
Mg2 Mg6 3.010128 1_555
Mg2 Mg4 3.076692 1_555
Mg2 Mg4 3.161951 1_545
Mg3 Sb0 3.119322 1_655
Mg3 Sb0 3.119322 1_555
Mg3 Mg6 3.298141 1_555
Mg3 Mg7 3.298141 1_555
Mg4 Mg9 3.010128 1_554
Mg4 Mg8 3.010128 1_555
Mg5 Sb0 3.119322 1_555
Mg5 Sb0 3.119322 1_665
Mg5 Mg8 3.298141 1_555
Mg5 Mg9 3.298141 1_555
Mg6 Mg8 3.023446 1_555
Mg6 Mg8 3.215197 1_545
Mg6 Sb0 3.253149 1_555
Mg7 Mg9 3.023446 1_555
Mg7 Mg9 3.215197 1_545
Mg7 Sb0 3.253149 1_555
Mg8 Sb0 3.253154 1_555
Mg9 Sb0 3.253154 1_555
Mg10 Mg2 3.010121 1_555
Mg10 Mg4 3.010128 1_545
Mg10 Mg8 3.023446 1_655
Mg10 Mg6 3.023446 1_655
Mg10 Mg12 3.125631 1_545
Mg10 Mg12 3.125631 1_555
Mg10 Mg8 3.215197 1_545
Mg10 Mg6 3.215197 1_555
Mg10 Sb0 3.253154 1_655
Mg10 Mg3 3.298135 1_555
Mg10 Mg5 3.298141 1_545
Mg11 Mg2 3.010121 1_556
Mg11 Mg4 3.010128 1_546
Mg11 Mg9 3.023446 1_655
Mg11 Mg7 3.023446 1_655
Mg11 Mg13 3.125631 1_545
Mg11 Mg13 3.125631 1_555
Mg11 Mg9 3.215197 1_545
Mg11 Mg7 3.215197 1_555
Mg11 Sb0 3.253154 1_655
Mg11 Mg3 3.298135 1_555
Mg11 Mg5 3.298141 1_545
Mg12 Mg6 3.125631 1_665
Mg12 Mg6 3.125631 1_555
Mg12 Mg8 3.125632 1_555
Mg12 Mg8 3.125632 1_655
Mg12 Mg4 3.125826 1_555
Mg12 Mg2 3.125832 1_555
Mg12 Mg5 3.126971 1_555
Mg12 Mg3 3.126977 1_555
Mg13 Mg7 3.125631 1_665
Mg13 Mg7 3.125631 1_555
Mg13 Mg9 3.125632 1_555
Mg13 Mg9 3.125632 1_655
Mg13 Mg4 3.125826 1_556
Mg13 Mg2 3.125832 1_556
Mg13 Mg5 3.126971 1_555
Mg13 Mg3 3.126977 1_555
Co0 Mg7 2.952659 1_554
Co0 Mg6 2.952659 1_555
Co0 Mg9 2.952666 1_554
Co0 Mg8 2.952666 1_555
Co0 Mg11 2.952666 1_454
Co0 Mg10 2.952666 1_455
Co0 Mg4 3.119418 1_445
Co0 Mg0 3.119418 1_545
Co0 Mg4 3.119418 1_555
Co0 Mg0 3.119418 1_555
Co0 Mg2 3.119419 1_555
Co0 Mg2 3.119419 1_455
