# generated using pymatgen
data_VZnP2O7
_symmetry_space_group_name_H-M   'P 1'
_cell_length_a   7.18538725
_cell_length_b   8.89732861
_cell_length_c   9.64607022
_cell_angle_alpha   73.72327209
_cell_angle_beta   103.02419984
_cell_angle_gamma   68.04438369
_symmetry_Int_Tables_number   1
_chemical_formula_structural   VZnP2O7
_chemical_formula_sum   'V4 Zn4 P8 O28'
_cell_volume   509.88392926
_cell_formula_units_Z   4
loop_
 _symmetry_equiv_pos_site_id
 _symmetry_equiv_pos_as_xyz
  1  'x, y, z'
loop_
 _atom_site_type_symbol
 _atom_site_label
 _atom_site_symmetry_multiplicity
 _atom_site_fract_x
 _atom_site_fract_y
 _atom_site_fract_z
 _atom_site_occupancy
  V  V0  1  0.16034400  0.37715100  0.81080000  1
  V  V1  1  0.83964000  0.62302100  0.18916900  1
  V  V2  1  0.16039300  0.87691400  0.31081900  1
  V  V3  1  0.83959600  0.12304700  0.68919100  1
  Zn  Zn0  1  0.65171000  0.83668800  0.81518500  1
  Zn  Zn1  1  0.65173100  0.33664200  0.31519400  1
  Zn  Zn2  1  0.34828900  0.66337400  0.68478400  1
  Zn  Zn3  1  0.34824800  0.16332100  0.18478600  1
  P  P0  1  0.68482300  0.60386200  0.48697800  1
  P  P1  1  0.68471000  0.10393300  0.98694500  1
  P  P2  1  0.31526500  0.89604400  0.01307500  1
  P  P3  1  0.31521300  0.39611600  0.51300800  1
  P  P4  1  0.19572400  0.09510800  0.51591600  1
  P  P5  1  0.19579200  0.59509200  0.01598900  1
  P  P6  1  0.80424600  0.40490900  0.98404300  1
  P  P7  1  0.80423200  0.90490500  0.48406300  1
  O  O0  1  0.68541000  0.05462100  0.84576000  1
  O  O1  1  0.68557200  0.55454900  0.34580600  1
  O  O2  1  0.31450000  0.44543500  0.65419100  1
  O  O3  1  0.31456700  0.94539500  0.15424400  1
  O  O4  1  0.86013700  0.45934500  0.63933700  1
  O  O5  1  0.86001700  0.95939200  0.13930200  1
  O  O6  1  0.13991300  0.04049700  0.86072400  1
  O  O7  1  0.13991800  0.54066300  0.36065700  1
  O  O8  1  0.45882900  0.67785800  0.49505600  1
  O  O9  1  0.45873600  0.17798500  0.99501700  1
  O  O10  1  0.54121500  0.82204500  0.00495600  1
  O  O11  1  0.54119500  0.32208800  0.50493500  1
  O  O12  1  0.65077300  0.58398500  0.84442400  1
  O  O13  1  0.65074300  0.08395600  0.34444800  1
  O  O14  1  0.34923400  0.91604100  0.65553600  1
  O  O15  1  0.34922700  0.41599200  0.15557000  1
  O  O16  1  0.21608800  0.08980300  0.36153400  1
  O  O17  1  0.21622500  0.58988300  0.86159400  1
  O  O18  1  0.78383800  0.41019000  0.13842200  1
  O  O19  1  0.78386700  0.91019400  0.63845200  1
  O  O20  1  0.27051200  0.22786000  0.56144800  1
  O  O21  1  0.27065500  0.72774500  0.06166900  1
  O  O22  1  0.72944400  0.27217300  0.93847600  1
  O  O23  1  0.72944400  0.77215500  0.43853000  1
  O  O24  1  0.04070800  0.83392500  0.49596300  1
  O  O25  1  0.04070300  0.33396100  0.99594500  1
  O  O26  1  0.95930100  0.66608200  0.00402100  1
  O  O27  1  0.95926700  0.16605600  0.50403600  1
loop_
_geom_bond_atom_site_label_1
_geom_bond_atom_site_label_2
_geom_bond_distance
_geom_bond_site_symmetry_2
O0 P1 1.543897 1_555
O0 Zn0 2.131878 1_545
O0 V3 2.149909 1_555
O1 P0 1.543815 1_555
O1 Zn1 2.132208 1_555
O1 V1 2.149847 1_555
O2 P3 1.543921 1_555
O2 Zn2 2.132265 1_555
O2 V0 2.149674 1_555
O3 P2 1.543931 1_555
O3 Zn3 2.131641 1_565
O3 V2 2.150021 1_555
O4 P0 1.514973 1_555
O4 V0 2.111336 1_655
O5 P1 1.515004 1_564
O5 V2 2.111798 1_655
O6 P2 1.514860 1_546
O6 V3 2.111403 1_455
O7 P3 1.514962 1_555
O7 V1 2.111439 1_455
O8 P0 1.537130 1_555
O8 V2 2.138085 1_555
O8 Zn2 2.143915 1_555
O9 P1 1.536999 1_555
O9 V0 2.138070 1_555
O9 Zn3 2.143995 1_556
O10 P2 1.537006 1_555
O10 V1 2.137896 1_555
O10 Zn0 2.144050 1_554
O11 P3 1.537045 1_555
O11 V3 2.137997 1_555
O11 Zn1 2.143988 1_555
O12 P6 1.543494 1_555
O12 Zn2 2.080361 1_555
O12 Zn0 2.188954 1_555
O13 P7 1.543377 1_545
O13 Zn3 2.080563 1_555
O13 Zn1 2.188934 1_555
O14 P4 1.543491 1_565
O14 Zn0 2.080437 1_555
O14 Zn2 2.188647 1_555
O15 P5 1.543414 1_555
O15 Zn1 2.080496 1_555
O15 Zn3 2.188832 1_555
O16 P4 1.540696 1_555
O16 Zn3 2.192145 1_555
O16 V2 2.232768 1_545
O17 P5 1.540744 1_556
O17 Zn2 2.192064 1_555
O17 V0 2.232319 1_555
O18 P6 1.540706 1_554
O18 Zn1 2.192119 1_555
O18 V1 2.232737 1_555
O19 P7 1.540728 1_555
O19 Zn0 2.191989 1_555
O19 V3 2.232661 1_565
O20 P4 1.592422 1_555
O20 P3 1.611734 1_555
O21 P5 1.592470 1_555
O21 P2 1.611798 1_555
O22 P6 1.592481 1_555
O22 P1 1.611769 1_555
O23 P7 1.592410 1_555
O23 P0 1.611692 1_555
O24 P7 1.538902 1_455
O24 V2 2.151896 1_555
O24 Zn2 2.152467 1_555
O25 P6 1.538776 1_455
O25 V0 2.151868 1_555
O25 Zn3 2.152466 1_556
O26 P5 1.538811 1_655
O26 V1 2.151878 1_555
O26 Zn0 2.152609 1_554
O27 P4 1.538837 1_655
O27 V3 2.151940 1_555
O27 Zn1 2.152392 1_555
