# generated using pymatgen
data_Ca4Co5(TeO6)3
_symmetry_space_group_name_H-M   'P 1'
_cell_length_a   9.21722767
_cell_length_b   9.21722767
_cell_length_c   10.65840276
_cell_angle_alpha   85.58216278
_cell_angle_beta   85.58216278
_cell_angle_gamma   60.80075803
_symmetry_Int_Tables_number   1
_chemical_formula_structural   Ca4Co5(TeO6)3
_chemical_formula_sum   'Ca8 Co10 Te6 O36'
_cell_volume   787.28601497
_cell_formula_units_Z   2
loop_
 _symmetry_equiv_pos_site_id
 _symmetry_equiv_pos_as_xyz
  1  'x, y, z'
loop_
 _atom_site_type_symbol
 _atom_site_label
 _atom_site_symmetry_multiplicity
 _atom_site_fract_x
 _atom_site_fract_y
 _atom_site_fract_z
 _atom_site_occupancy
  Ca  Ca0  1  0.32738800  0.06297600  0.09577200  1
  Ca  Ca1  1  0.35671500  0.67550700  0.95203600  1
  Ca  Ca2  1  0.93702400  0.67261200  0.40422800  1
  Ca  Ca3  1  0.32449300  0.64328500  0.54796400  1
  Ca  Ca4  1  0.67550700  0.35671500  0.45203600  1
  Ca  Ca5  1  0.06297600  0.32738800  0.59577200  1
  Ca  Ca6  1  0.67261200  0.93702400  0.90422800  1
  Ca  Ca7  1  0.64328500  0.32449300  0.04796400  1
  Co  Co0  1  0.31107800  0.97803700  0.72553100  1
  Co  Co1  1  0.97803700  0.31107800  0.22553100  1
  Co  Co2  1  0.10655200  0.54920800  0.06466200  1
  Co  Co3  1  0.54920800  0.10655200  0.56466200  1
  Co  Co4  1  0.45079200  0.89344800  0.43533800  1
  Co  Co5  1  0.82766700  0.17233300  0.75000000  1
  Co  Co6  1  0.17233300  0.82766700  0.25000000  1
  Co  Co7  1  0.89344800  0.45079200  0.93533800  1
  Co  Co8  1  0.68892200  0.02196300  0.27446900  1
  Co  Co9  1  0.02196300  0.68892200  0.77446900  1
  Te  Te0  1  0.67950400  0.65176200  0.69276500  1
  Te  Te1  1  0.00000000  0.00000000  0.00000000  1
  Te  Te2  1  0.00000000  0.00000000  0.50000000  1
  Te  Te3  1  0.65176200  0.67950400  0.19276500  1
  Te  Te4  1  0.32049600  0.34823800  0.30723500  1
  Te  Te5  1  0.34823800  0.32049600  0.80723500  1
  O  O0  1  0.87812200  0.59432200  0.59191600  1
  O  O1  1  0.22879200  0.93987800  0.55616300  1
  O  O2  1  0.43204700  0.77571100  0.29133400  1
  O  O3  1  0.91570500  0.95102900  0.16223900  1
  O  O4  1  0.06012200  0.77120800  0.94383700  1
  O  O5  1  0.04897100  0.08429500  0.33776100  1
  O  O6  1  0.57999800  0.58535700  0.07458100  1
  O  O7  1  0.89736200  0.21643200  0.57391000  1
  O  O8  1  0.10263800  0.78356800  0.42609000  1
  O  O9  1  0.19767300  0.30345000  0.18228500  1
  O  O10  1  0.47339200  0.75751700  0.79783600  1
  O  O11  1  0.80232700  0.69655000  0.81771500  1
  O  O12  1  0.77120800  0.06012200  0.44383700  1
  O  O13  1  0.56399200  0.88050000  0.60401900  1
  O  O14  1  0.24248300  0.52660800  0.70216400  1
  O  O15  1  0.42000200  0.41464300  0.92541900  1
  O  O16  1  0.52660800  0.24248300  0.20216400  1
  O  O17  1  0.11950000  0.43600800  0.89598100  1
  O  O18  1  0.22428900  0.56795300  0.20866600  1
  O  O19  1  0.75751700  0.47339200  0.29783600  1
  O  O20  1  0.59432200  0.87812200  0.09191600  1
  O  O21  1  0.43600800  0.11950000  0.39598100  1
  O  O22  1  0.78356800  0.10263800  0.92609000  1
  O  O23  1  0.58535700  0.57999800  0.57458100  1
  O  O24  1  0.56795300  0.22428900  0.70866600  1
  O  O25  1  0.95102900  0.91570500  0.66223900  1
  O  O26  1  0.30345000  0.19767300  0.68228500  1
  O  O27  1  0.41464300  0.42000200  0.42541900  1
  O  O28  1  0.93987800  0.22879200  0.05616300  1
  O  O29  1  0.88050000  0.56399200  0.10401900  1
  O  O30  1  0.12187800  0.40567800  0.40808400  1
  O  O31  1  0.08429500  0.04897100  0.83776100  1
  O  O32  1  0.21643200  0.89736200  0.07391000  1
  O  O33  1  0.69655000  0.80232700  0.31771500  1
  O  O34  1  0.77571100  0.43204700  0.79133400  1
  O  O35  1  0.40567800  0.12187800  0.90808400  1
loop_
_geom_bond_atom_site_label_1
_geom_bond_atom_site_label_2
_geom_bond_distance
_geom_bond_site_symmetry_2
Ca0 O9 2.179904 1_555
Ca0 O35 2.193136 1_554
Ca0 O20 2.205282 1_545
Ca0 O32 2.246145 1_545
Ca1 O10 2.181425 1_555
Ca1 O15 2.216574 1_555
Ca1 O32 2.260855 1_556
Ca1 O6 2.282628 1_556
Ca1 O4 2.435425 1_555
Ca2 O33 2.179904 1_555
Ca2 O0 2.193136 1_555
Ca2 O30 2.205282 1_655
Ca2 O8 2.246145 1_655
Ca3 O14 2.181425 1_555
Ca3 O23 2.216574 1_555
Ca3 O8 2.260855 1_555
Ca3 O27 2.282628 1_555
Ca3 O1 2.435425 1_555
Ca4 O19 2.181425 1_555
Ca4 O27 2.216574 1_555
Ca4 O7 2.260855 1_555
Ca4 O23 2.282628 1_555
Ca4 O12 2.435425 1_555
Ca5 O26 2.179904 1_555
Ca5 O30 2.193136 1_555
Ca5 O0 2.205282 1_455
Ca5 O7 2.246145 1_455
Ca6 O11 2.179904 1_555
Ca6 O20 2.193136 1_556
Ca6 O35 2.205282 1_565
Ca6 O22 2.246145 1_565
Ca7 O16 2.181425 1_555
Ca7 O6 2.216574 1_555
Ca7 O22 2.260855 1_554
Ca7 O15 2.282628 1_554
Ca7 O28 2.435425 1_555
Co0 O10 1.983146 1_555
Co0 O26 2.009502 1_565
Co0 O1 2.127603 1_555
Co0 O31 2.151642 1_565
Co0 O13 2.364178 1_555
Co1 O19 1.983146 1_555
Co1 O9 2.009502 1_655
Co1 O28 2.127603 1_555
Co1 O5 2.151642 1_655
Co1 O29 2.364178 1_555
Co2 O18 2.010897 1_555
Co2 O29 2.032964 1_455
Co2 O17 2.114163 1_554
Co2 O4 2.202985 1_554
Co2 O9 2.297109 1_555
Co3 O24 2.010897 1_555
Co3 O13 2.032964 1_545
Co3 O21 2.114163 1_555
Co3 O12 2.202985 1_555
Co3 O26 2.297109 1_555
Co4 O2 2.010897 1_555
Co4 O21 2.032964 1_565
Co4 O13 2.114163 1_555
Co4 O1 2.202985 1_555
Co4 O33 2.297109 1_555
Co5 O7 2.012935 1_555
Co5 O22 2.012935 1_555
Co5 O34 2.272741 1_555
Co5 O24 2.272741 1_555
Co5 O25 2.305592 1_545
Co5 O31 2.305592 1_655
Co6 O8 2.012935 1_555
Co6 O32 2.012935 1_555
Co6 O2 2.272741 1_555
Co6 O18 2.272741 1_555
Co6 O3 2.305592 1_455
Co6 O5 2.305592 1_565
Co7 O34 2.010897 1_555
Co7 O17 2.032964 1_655
Co7 O29 2.114163 1_556
Co7 O28 2.202985 1_556
Co7 O11 2.297109 1_555
Co8 O16 1.983146 1_555
Co8 O33 2.009502 1_545
Co8 O12 2.127603 1_555
Co8 O3 2.151642 1_545
Co8 O21 2.364178 1_555
Co9 O14 1.983146 1_555
Co9 O11 2.009502 1_455
Co9 O4 2.127603 1_555
Co9 O25 2.151642 1_455
Co9 O17 2.364178 1_555
O0 Te0 1.904207 1_555
O1 Te2 2.028726 1_565
O2 Te3 2.013684 1_555
O3 Te1 1.952570 1_665
O4 Te1 2.028726 1_566
O5 Te2 1.952570 1_555
O6 Te3 1.906334 1_555
O7 Te2 1.944505 1_655
O8 Te2 1.944505 1_565
O9 Te4 1.999652 1_555
O10 Te0 1.961393 1_555
O11 Te0 1.999652 1_555
O12 Te2 2.028726 1_655
O13 Te0 2.032508 1_555
O14 Te5 1.961393 1_555
O15 Te5 1.906334 1_555
O16 Te4 1.961393 1_555
O17 Te5 2.032508 1_555
O18 Te4 2.013684 1_555
O19 Te3 1.961393 1_555
O20 Te3 1.904207 1_555
O21 Te4 2.032508 1_555
O22 Te1 1.944505 1_656
O23 Te0 1.906334 1_555
O24 Te5 2.013684 1_555
O25 Te2 1.952570 1_665
O26 Te5 1.999652 1_555
O27 Te4 1.906334 1_555
O28 Te1 2.028726 1_655
O29 Te3 2.032508 1_555
O30 Te4 1.904207 1_555
O31 Te1 1.952570 1_556
O32 Te1 1.944505 1_565
O33 Te3 1.999652 1_555
O34 Te0 2.013684 1_555
O35 Te5 1.904207 1_555
