# generated using pymatgen
data_V2O5
_symmetry_space_group_name_H-M   'P 1'
_cell_length_a   12.24977865
_cell_length_b   12.00618424
_cell_length_c   12.73006024
_cell_angle_alpha   88.55032072
_cell_angle_beta   89.78379060
_cell_angle_gamma   91.35959511
_symmetry_Int_Tables_number   1
_chemical_formula_structural   V2O5
_chemical_formula_sum   'V30 O75'
_cell_volume   1871.10531891
_cell_formula_units_Z   15
loop_
 _symmetry_equiv_pos_site_id
 _symmetry_equiv_pos_as_xyz
  1  'x, y, z'
loop_
 _atom_site_type_symbol
 _atom_site_label
 _atom_site_symmetry_multiplicity
 _atom_site_fract_x
 _atom_site_fract_y
 _atom_site_fract_z
 _atom_site_occupancy
  V  V0  1  0.84470077  0.02857600  0.09710566  1
  V  V1  1  0.45285328  0.89812419  0.37941720  1
  V  V2  1  0.04609262  0.78778517  0.34091819  1
  V  V3  1  0.48968641  0.29378429  0.06893778  1
  V  V4  1  0.94612002  0.97299687  0.87373651  1
  V  V5  1  0.56836915  0.00742973  0.77097795  1
  V  V6  1  0.63513687  0.68058370  0.07252637  1
  V  V7  1  0.24305545  0.72504555  0.26798781  1
  V  V8  1  0.04183845  0.12168550  0.58300799  1
  V  V9  1  0.38117759  0.52975771  0.11791018  1
  V  V10  1  0.63621562  0.08244260  0.42874186  1
  V  V11  1  0.24228776  0.30478363  0.48552083  1
  V  V12  1  0.71439792  0.90603424  0.23963302  1
  V  V13  1  0.19526188  0.96510541  0.77770922  1
  V  V14  1  0.15016063  0.56919799  0.97145839  1
  V  V15  1  0.83349065  0.25392803  0.46060862  1
  V  V16  1  0.39022410  0.46800589  0.66324395  1
  V  V17  1  0.14909922  0.11891113  0.10872684  1
  V  V18  1  0.21083573  0.68907704  0.72709384  1
  V  V19  1  0.85255040  0.20730213  0.91997491  1
  V  V20  1  0.57640648  0.43400581  0.83226367  1
  V  V21  1  0.55734803  0.84277022  0.59592993  1
  V  V22  1  0.84484785  0.69104426  0.34287367  1
  V  V23  1  0.22531179  0.34313834  0.94960996  1
  V  V24  1  0.90467462  0.33372808  0.69495045  1
  V  V25  1  0.24980003  0.11636811  0.36727566  1
  V  V26  1  0.66717937  0.44356879  0.57433949  1
  V  V27  1  0.39742294  0.04190853  0.98410252  1
  V  V28  1  0.65073079  0.73767016  0.80873069  1
  V  V29  1  0.64341178  0.32030703  0.31006576  1
  O  O0  1  0.28488937  0.50992741  0.00147886  1
  O  O1  1  0.07092282  0.91373164  0.37864954  1
  O  O2  1  0.96599823  0.20072782  0.67853043  1
  O  O3  1  0.49166936  0.06800794  0.87564501  1
  O  O4  1  0.32116052  0.59046612  0.70320813  1
  O  O5  1  0.50486534  0.48893017  0.59201749  1
  O  O6  1  0.25896030  0.05237679  0.05576845  1
  O  O7  1  0.65317853  0.89194070  0.80542677  1
  O  O8  1  0.80766769  0.34856431  0.58253393  1
  O  O9  1  0.15606249  0.68955775  0.37507987  1
  O  O10  1  0.48077523  0.93757462  0.67817189  1
  O  O11  1  0.08685525  0.62325776  0.06893220  1
  O  O12  1  0.86817104  0.33123531  0.83428701  1
  O  O13  1  0.86520270  0.93632374  0.98993219  1
  O  O14  1  0.43098630  0.92214896  0.03116148  1
  O  O15  1  0.14895047  0.06556861  0.68853124  1
  O  O16  1  0.57409273  0.35858798  0.95442093  1
  O  O17  1  0.21398370  0.30242235  0.82991154  1
  O  O18  1  0.61659508  0.74605921  0.95079387  1
  O  O19  1  0.14753499  0.80566109  0.21009669  1
  O  O20  1  0.73092400  0.59054161  0.06651054  1
  O  O21  1  0.35869466  0.30392623  0.98107117  1
  O  O22  1  0.30366397  0.68652422  0.51637166  1
  O  O23  1  0.40652168  0.39288899  0.15439958  1
  O  O24  1  0.59164451  0.57334680  0.84216045  1
  O  O25  1  0.93385797  0.73854323  0.24464288  1
  O  O26  1  0.72630821  0.15014174  0.51215102  1
  O  O27  1  0.85905215  0.17946698  0.06157461  1
  O  O28  1  0.32927413  0.59462823  0.48524307  1
  O  O29  1  0.35266932  0.80488962  0.31276928  1
  O  O30  1  0.96181618  0.12206347  0.87676004  1
  O  O31  1  0.77574490  0.70558268  0.79069490  1
  O  O32  1  0.29211907  0.01487151  0.86009250  1
  O  O33  1  0.11122378  0.66100377  0.64985468  1
  O  O34  1  0.86693073  0.95080867  0.21279989  1
  O  O35  1  0.54551403  0.91001057  0.28362314  1
  O  O36  1  0.72109485  0.00705228  0.34962331  1
  O  O37  1  0.78550850  0.54512459  0.29101993  1
  O  O38  1  0.99789283  0.42867401  0.67560032  1
  O  O39  1  0.96777903  0.20682100  0.47626817  1
  O  O40  1  0.70588149  0.01604681  0.12124179  1
  O  O41  1  0.17376204  0.16274846  0.49624125  1
  O  O42  1  0.14463701  0.24721954  0.04008092  1
  O  O43  1  0.79143195  0.27872320  0.33029250  1
  O  O44  1  0.87887898  0.94107905  0.77074541  1
  O  O45  1  0.50569870  0.61037882  0.10687083  1
  O  O46  1  0.60100066  0.32501316  0.17724109  1
  O  O47  1  0.43681515  0.40987580  0.78140879  1
  O  O48  1  0.08406579  0.92145729  0.86058088  1
  O  O49  1  0.72229733  0.56666363  0.55975797  1
  O  O50  1  0.31134265  0.36321392  0.59818061  1
  O  O51  1  0.16090314  0.39548136  0.43626688  1
  O  O52  1  0.47018453  0.14688114  0.07150218  1
  O  O53  1  0.98272832  0.00403787  0.56407359  1
  O  O54  1  0.74211158  0.78090833  0.35305087  1
  O  O55  1  0.09593296  0.44004493  0.94279258  1
  O  O56  1  0.17533091  0.13560146  0.24992110  1
  O  O57  1  0.32540341  0.25473060  0.38407560  1
  O  O58  1  0.74207856  0.14175797  0.88662534  1
  O  O59  1  0.29116121  0.60899106  0.20203385  1
  O  O60  1  0.68137070  0.88570936  0.57201240  1
  O  O61  1  0.52236229  0.00033163  0.47501384  1
  O  O62  1  0.84195170  0.52852312  0.37991321  1
  O  O63  1  0.56758118  0.72721407  0.68594411  1
  O  O64  1  0.16501381  0.66482906  0.85738639  1
  O  O65  1  0.94638433  0.72970657  0.43734611  1
  O  O66  1  0.03102432  0.04808989  0.09566285  1
  O  O67  1  0.57636193  0.18168678  0.34862430  1
  O  O68  1  0.33800417  0.00658170  0.37900892  1
  O  O69  1  0.63314351  0.39059091  0.43156074  1
  O  O70  1  0.65496936  0.39391946  0.72800270  1
  O  O71  1  0.67962335  0.79035287  0.15896200  1
  O  O72  1  0.48895577  0.79371791  0.47436170  1
  O  O73  1  0.63152566  0.10683891  0.70579493  1
  O  O74  1  0.23984069  0.83996073  0.71772718  1
loop_
_geom_bond_atom_site_label_1
_geom_bond_atom_site_label_2
_geom_bond_distance
_geom_bond_site_symmetry_2
O0 V14 1.850131 1_554
O0 V9 1.913766 1_555
O0 V23 2.231549 1_554
O1 V2 1.620435 1_555
O2 V24 1.797352 1_555
O2 V8 1.825940 1_655
O3 V5 1.805298 1_555
O3 V27 1.812793 1_555
O4 V16 1.797196 1_555
O4 V18 1.847064 1_555
O5 V16 1.679140 1_555
O5 V26 2.086826 1_555
O6 V17 1.724859 1_555
O6 V27 1.931121 1_554
O7 V5 1.798683 1_565
O7 V28 1.851142 1_555
O8 V24 1.871298 1_555
O8 V15 1.975527 1_555
O8 V26 2.088565 1_555
O9 V7 1.764594 1_555
O9 V2 1.857017 1_555
O10 V5 1.807627 1_565
O10 V21 1.837138 1_555
O11 V14 1.618551 1_554
O12 V24 1.826958 1_555
O12 V19 1.828473 1_555
O13 V0 1.799528 1_566
O13 V4 1.816486 1_555
O14 V27 1.606759 1_564
O15 V13 1.741702 1_545
O15 V8 1.997374 1_555
O16 V20 1.779366 1_555
O16 V3 1.921635 1_556
O17 V23 1.617455 1_555
O18 V6 1.737959 1_556
O18 V28 1.860398 1_555
O19 V7 1.695055 1_555
O19 V2 2.077815 1_555
O20 V6 1.617116 1_555
O21 V23 1.756021 1_555
O21 V3 1.963850 1_556
O22 O28 1.228972 1_555
O23 V9 1.731812 1_555
O23 V3 1.936981 1_555
O24 V20 1.686865 1_555
O24 V28 2.117719 1_555
O25 V22 1.732606 1_555
O25 V2 1.937167 1_655
O26 V10 1.736661 1_555
O26 V15 1.892507 1_555
O27 V19 1.827338 1_554
O27 V0 1.860189 1_555
O29 V7 1.737599 1_555
O29 V1 1.862711 1_555
O30 V4 1.796876 1_545
O30 V19 1.797063 1_555
O31 V28 1.605030 1_555
O32 V13 1.694715 1_545
O32 V27 2.069522 1_555
O33 V18 1.604885 1_555
O34 V0 1.749447 1_565
O34 V12 1.958356 1_555
O35 V1 1.664005 1_555
O35 V12 2.143144 1_555
O36 V10 1.731382 1_555
O36 V12 1.876245 1_545
O37 O62 1.341408 1_555
O37 V22 2.008756 1_555
O38 V24 1.608097 1_555
O39 V15 1.762547 1_555
O39 V8 1.922813 1_655
O40 V0 1.729258 1_555
O40 V12 1.983410 1_545
O41 V11 1.884340 1_555
O41 V25 1.983007 1_555
O41 V8 1.998954 1_555
O42 V17 1.753852 1_555
O42 V23 1.870713 1_554
O43 V15 1.759221 1_555
O43 V29 1.908740 1_555
O44 V4 1.600888 1_555
O45 V9 1.790203 1_555
O45 V6 1.824393 1_555
O46 V29 1.770683 1_555
O46 V3 1.979099 1_555
O47 V16 1.745807 1_555
O47 V20 1.849689 1_555
O48 V13 1.780525 1_555
O48 V4 1.821846 1_455
O49 V26 1.616272 1_555
O50 V16 1.789898 1_555
O50 V11 1.815607 1_555
O51 V11 1.610744 1_555
O52 V3 1.773688 1_555
O52 V27 1.909413 1_554
O53 V8 1.596108 1_655
O54 V22 1.683732 1_555
O54 V12 2.091619 1_555
O55 V14 1.720604 1_555
O55 V23 1.989079 1_555
O56 V25 1.766393 1_555
O56 V17 1.842179 1_555
O57 V11 1.767446 1_555
O57 V25 1.899872 1_555
O58 V19 1.612919 1_555
O59 V7 1.757296 1_555
O59 V9 1.833056 1_555
O60 V21 1.618024 1_555
O61 V10 1.778525 1_555
O61 V1 1.935354 1_545
O62 V22 1.995252 1_555
O63 V21 1.783960 1_555
O63 V28 1.874121 1_555
O64 V18 1.763992 1_555
O64 V14 1.834077 1_555
O65 V22 1.794711 1_555
O65 V2 1.841156 1_655
O66 V17 1.671320 1_555
O66 V0 2.288836 1_455
O67 V10 1.727183 1_555
O67 V29 1.891083 1_555
O68 V25 1.728010 1_555
O68 V1 1.939484 1_545
O69 V29 1.785941 1_555
O69 V26 1.983341 1_555
O70 V20 1.721643 1_555
O70 V26 2.034394 1_555
O71 V12 1.792343 1_555
O71 V6 1.813394 1_555
O72 V1 1.783651 1_555
O72 V21 1.864456 1_555
O73 V5 1.616418 1_555
O74 V13 1.797951 1_555
O74 V18 1.838568 1_555
