# generated using pymatgen
data_NiH4(NO4)2
_symmetry_space_group_name_H-M   'P 1'
_cell_length_a   5.91274336
_cell_length_b   6.25398900
_cell_length_c   8.55918937
_cell_angle_alpha   90.00000000
_cell_angle_beta   90.92560814
_cell_angle_gamma   90.00000000
_symmetry_Int_Tables_number   1
_chemical_formula_structural   NiH4(NO4)2
_chemical_formula_sum   'Ni2 H8 N4 O16'
_cell_volume   316.46238977
_cell_formula_units_Z   2
loop_
 _symmetry_equiv_pos_site_id
 _symmetry_equiv_pos_as_xyz
  1  'x, y, z'
loop_
 _atom_site_type_symbol
 _atom_site_label
 _atom_site_symmetry_multiplicity
 _atom_site_fract_x
 _atom_site_fract_y
 _atom_site_fract_z
 _atom_site_occupancy
  Ni  Ni0  1  0.00000000  0.50000000  0.00000000  1
  Ni  Ni1  1  0.00000000  0.00000000  0.50000000  1
  H  H0  1  0.39592400  0.69998200  0.99779600  1
  H  H1  1  0.60407600  0.19998200  0.50220400  1
  H  H2  1  0.60407600  0.30001800  0.00220400  1
  H  H3  1  0.39592400  0.80001800  0.49779600  1
  H  H4  1  0.23237000  0.80314200  0.11658200  1
  H  H5  1  0.76763000  0.30314200  0.38341800  1
  H  H6  1  0.76763000  0.19685800  0.88341800  1
  H  H7  1  0.23237000  0.69685800  0.61658200  1
  N  N0  1  0.23829900  0.16982900  0.79521700  1
  N  N1  1  0.76170100  0.66982900  0.70478300  1
  N  N2  1  0.76170100  0.83017100  0.20478300  1
  N  N3  1  0.23829900  0.33017100  0.29521700  1
  O  O0  1  0.04758600  0.13594700  0.72804100  1
  O  O1  1  0.95241400  0.63594700  0.77195900  1
  O  O2  1  0.95241400  0.86405300  0.27195900  1
  O  O3  1  0.04758600  0.36405300  0.22804100  1
  O  O4  1  0.41635000  0.09216400  0.74710600  1
  O  O5  1  0.58365000  0.59216400  0.75289400  1
  O  O6  1  0.58365000  0.90783600  0.25289400  1
  O  O7  1  0.41635000  0.40783600  0.24710600  1
  O  O8  1  0.24350400  0.28846400  0.91815000  1
  O  O9  1  0.75649600  0.78846400  0.58185000  1
  O  O10  1  0.75649600  0.71153600  0.08185000  1
  O  O11  1  0.24350400  0.21153600  0.41815000  1
  O  O12  1  0.23663100  0.73689600  0.01279200  1
  O  O13  1  0.76336900  0.23689600  0.48720800  1
  O  O14  1  0.76336900  0.26310400  0.98720800  1
  O  O15  1  0.23663100  0.76310400  0.51279200  1
loop_
_geom_bond_atom_site_label_1
_geom_bond_atom_site_label_2
_geom_bond_distance
_geom_bond_site_symmetry_2
Ni0 O14 2.039510 1_454
Ni0 O12 2.039510 1_555
Ni0 O8 2.084832 1_554
Ni0 O10 2.084832 1_455
Ni0 O3 2.143358 1_555
Ni0 O1 2.143358 1_454
Ni1 O15 2.039510 1_545
Ni1 O13 2.039510 1_455
Ni1 O11 2.084832 1_555
Ni1 O9 2.084832 1_445
Ni1 O2 2.143358 1_445
Ni1 O0 2.143358 1_555
H0 O12 0.980191 1_556
H1 O13 0.980191 1_555
H2 O14 0.980191 1_554
H3 O15 0.980191 1_555
H4 O12 0.980910 1_555
H5 O13 0.980910 1_555
H6 O14 0.980910 1_555
H7 O15 0.980910 1_555
N0 O4 1.236051 1_555
N0 O0 1.275191 1_555
N0 O8 1.287446 1_555
N1 O5 1.236051 1_555
N1 O1 1.275191 1_555
N1 O9 1.287446 1_555
N2 O6 1.236051 1_555
N2 O2 1.275191 1_555
N2 O10 1.287446 1_555
N3 O7 1.236051 1_555
N3 O3 1.275191 1_555
N3 O11 1.287446 1_555
