# generated using pymatgen
data_PuB4Os
_symmetry_space_group_name_H-M   'P 1'
_cell_length_a   5.99208500
_cell_length_b   11.61273600
_cell_length_c   3.53962000
_cell_angle_alpha   90.00000000
_cell_angle_beta   90.00000000
_cell_angle_gamma   90.00000000
_symmetry_Int_Tables_number   1
_chemical_formula_structural   PuB4Os
_chemical_formula_sum   'Pu4 B16 Os4'
_cell_volume   246.30269212
_cell_formula_units_Z   4
loop_
 _symmetry_equiv_pos_site_id
 _symmetry_equiv_pos_as_xyz
  1  'x, y, z'
loop_
 _atom_site_type_symbol
 _atom_site_label
 _atom_site_symmetry_multiplicity
 _atom_site_fract_x
 _atom_site_fract_y
 _atom_site_fract_z
 _atom_site_occupancy
  Pu  Pu0  1  0.62641100  0.35005100  0.00000000  1
  Pu  Pu1  1  0.37358900  0.64994900  0.00000000  1
  Pu  Pu2  1  0.12641100  0.14994900  0.00000000  1
  Pu  Pu3  1  0.87358900  0.85005100  0.00000000  1
  B  B0  1  0.78653700  0.18702800  0.50000000  1
  B  B1  1  0.21346300  0.81297200  0.50000000  1
  B  B2  1  0.28653700  0.31297200  0.50000000  1
  B  B3  1  0.71346300  0.68702800  0.50000000  1
  B  B4  1  0.86510700  0.03132100  0.50000000  1
  B  B5  1  0.13489300  0.96867900  0.50000000  1
  B  B6  1  0.36510700  0.46867900  0.50000000  1
  B  B7  1  0.63489300  0.53132100  0.50000000  1
  B  B8  1  0.88605100  0.45306100  0.50000000  1
  B  B9  1  0.11394900  0.54693900  0.50000000  1
  B  B10  1  0.38605100  0.04693900  0.50000000  1
  B  B11  1  0.61394900  0.95306100  0.50000000  1
  B  B12  1  0.97144300  0.30837500  0.50000000  1
  B  B13  1  0.02855700  0.69162500  0.50000000  1
  B  B14  1  0.47144300  0.19162500  0.50000000  1
  B  B15  1  0.52855700  0.80837500  0.50000000  1
  Os  Os0  1  0.63814000  0.09261900  0.00000000  1
  Os  Os1  1  0.36186000  0.90738100  0.00000000  1
  Os  Os2  1  0.13814000  0.40738100  0.00000000  1
  Os  Os3  1  0.86186000  0.59261900  0.00000000  1
loop_
_geom_bond_atom_site_label_1
_geom_bond_atom_site_label_2
_geom_bond_distance
_geom_bond_site_symmetry_2
B0 B12 1.792586 1_555
B0 B4 1.868470 1_555
B0 B14 1.888825 1_555
B0 Os0 2.263823 1_555
B0 Os0 2.263823 1_556
B0 Pu2 2.732249 1_656
B0 Pu2 2.732249 1_655
B0 Pu0 2.763483 1_555
B0 Pu0 2.763483 1_556
B1 B13 1.792586 1_555
B1 B5 1.868470 1_555
B1 B15 1.888825 1_555
B1 Os1 2.263823 1_556
B1 Os1 2.263823 1_555
B1 Pu3 2.732249 1_456
B1 Pu3 2.732249 1_455
B1 Pu1 2.763483 1_556
B1 Pu1 2.763483 1_555
B2 B6 1.868470 1_555
B2 Os2 2.263823 1_556
B2 Os2 2.263823 1_555
B2 Pu0 2.732249 1_556
B2 Pu0 2.732249 1_555
B2 Pu2 2.763483 1_555
B2 Pu2 2.763483 1_556
B3 B7 1.868470 1_555
B3 Os3 2.263823 1_556
B3 Os3 2.263823 1_555
B3 Pu1 2.732249 1_555
B3 Pu1 2.732249 1_556
B3 Pu3 2.763483 1_555
B3 Pu3 2.763483 1_556
B4 B5 1.772712 1_645
B4 Os0 2.342767 1_555
B4 Os0 2.342767 1_556
B4 Pu2 2.735249 1_656
B4 Pu2 2.735249 1_655
B4 Pu3 2.750638 1_546
B4 Pu3 2.750638 1_545
B5 Os1 2.342767 1_556
B5 Os1 2.342767 1_555
B5 Pu3 2.735249 1_456
B5 Pu3 2.735249 1_455
B5 Pu2 2.750638 1_565
B5 Pu2 2.750638 1_566
B6 B9 1.758080 1_555
B6 B7 1.772712 1_555
B6 Os2 2.342767 1_556
B6 Os2 2.342767 1_555
B6 Pu0 2.735249 1_556
B6 Pu0 2.735249 1_555
B6 Pu1 2.750638 1_556
B6 Pu1 2.750638 1_555
B7 B8 1.758080 1_555
B7 Os3 2.342767 1_556
B7 Os3 2.342767 1_555
B7 Pu1 2.735249 1_555
B7 Pu1 2.735249 1_556
B7 Pu0 2.750638 1_555
B7 Pu0 2.750638 1_556
B8 B9 1.747373 1_655
B8 Os2 2.386494 1_656
B8 Os2 2.386494 1_655
B8 Os3 2.404110 1_555
B8 Os3 2.404110 1_556
B8 Pu0 2.642661 1_555
B8 Pu0 2.642661 1_556
B9 Os3 2.386494 1_456
B9 Os3 2.386494 1_455
B9 Os2 2.404110 1_556
B9 Os2 2.404110 1_555
B9 Pu1 2.642661 1_556
B9 Pu1 2.642661 1_555
B10 B11 1.747373 1_545
B10 B14 1.756384 1_555
B10 B5 1.758080 1_545
B10 Os0 2.386494 1_555
B10 Os0 2.386494 1_556
B10 Os1 2.404110 1_546
B10 Os1 2.404110 1_545
B10 Pu2 2.642661 1_556
B10 Pu2 2.642661 1_555
B11 B15 1.756384 1_555
B11 B4 1.758080 1_565
B11 Os1 2.386494 1_556
B11 Os1 2.386494 1_555
B11 Os0 2.404110 1_565
B11 Os0 2.404110 1_566
B11 Pu3 2.642661 1_556
B11 Pu3 2.642661 1_555
B12 B8 1.756384 1_555
B12 B2 1.888825 1_655
B12 Os2 2.334916 1_656
B12 Os2 2.334916 1_655
B12 Pu2 2.716469 1_656
B12 Pu2 2.716469 1_655
B12 Pu0 2.764209 1_555
B12 Pu0 2.764209 1_556
B13 B9 1.756384 1_555
B13 B3 1.888825 1_455
B13 Os3 2.334916 1_456
B13 Os3 2.334916 1_455
B13 Pu3 2.716469 1_456
B13 Pu3 2.716469 1_455
B13 Pu1 2.764209 1_556
B13 Pu1 2.764209 1_555
B14 B2 1.792586 1_555
B14 Os0 2.334916 1_555
B14 Os0 2.334916 1_556
B14 Pu0 2.716469 1_555
B14 Pu0 2.716469 1_556
B14 Pu2 2.764209 1_556
B14 Pu2 2.764209 1_555
B15 B3 1.792586 1_555
B15 Os1 2.334916 1_555
B15 Os1 2.334916 1_556
B15 Pu1 2.716469 1_555
B15 Pu1 2.716469 1_556
B15 Pu3 2.764209 1_555
B15 Pu3 2.764209 1_556
Os0 Os1 2.714401 1_545
Os0 Pu0 2.990316 1_555
Os0 Pu2 3.000552 1_655
Os0 Pu2 3.137766 1_555
Os0 Pu3 3.150436 1_545
Os1 Pu1 2.990316 1_555
Os1 Pu3 3.000552 1_455
Os1 Pu3 3.137766 1_555
Os1 Pu2 3.150436 1_565
Os2 Os3 2.714401 1_455
Os2 Pu2 2.990316 1_555
Os2 Pu0 3.000552 1_555
Os2 Pu0 3.137766 1_455
Os2 Pu1 3.150436 1_555
Os3 Pu3 2.990316 1_555
Os3 Pu1 3.000552 1_555
Os3 Pu1 3.137766 1_655
Os3 Pu0 3.150436 1_555
