# generated using pymatgen
data_KNa2Zn3(PO4)3
_symmetry_space_group_name_H-M   'P 1'
_cell_length_a   17.90930380
_cell_length_b   17.90930380
_cell_length_c   8.29936300
_cell_angle_alpha   90.00000000
_cell_angle_beta   90.00000000
_cell_angle_gamma   119.99999927
_symmetry_Int_Tables_number   1
_chemical_formula_structural   KNa2Zn3(PO4)3
_chemical_formula_sum   'K8 Na16 Zn24 P24 O96'
_cell_volume   2305.32841028
_cell_formula_units_Z   8
loop_
 _symmetry_equiv_pos_site_id
 _symmetry_equiv_pos_as_xyz
  1  'x, y, z'
loop_
 _atom_site_type_symbol
 _atom_site_label
 _atom_site_symmetry_multiplicity
 _atom_site_fract_x
 _atom_site_fract_y
 _atom_site_fract_z
 _atom_site_occupancy
  K  K0  1  0.00000000  0.00000000  0.34361100  1
  K  K1  1  0.00000000  0.00000000  0.84361100  1
  K  K2  1  0.99918300  0.50193000  0.32845000  1
  K  K3  1  0.49725300  0.99918300  0.82845000  1
  K  K4  1  0.50193000  0.50274700  0.82845000  1
  K  K5  1  0.49807000  0.49725300  0.32845000  1
  K  K6  1  0.50274700  0.00081700  0.32845000  1
  K  K7  1  0.00081700  0.49807000  0.82845000  1
  Na  Na0  1  0.32214900  0.15283100  0.81020100  1
  Na  Na1  1  0.16931800  0.32214900  0.31020100  1
  Na  Na2  1  0.15283100  0.83068200  0.31020100  1
  Na  Na3  1  0.84716900  0.16931800  0.81020100  1
  Na  Na4  1  0.83068200  0.67785100  0.81020100  1
  Na  Na5  1  0.67785100  0.84716900  0.31020100  1
  Na  Na6  1  0.15763700  0.33850800  0.86065400  1
  Na  Na7  1  0.81912900  0.15763700  0.36065400  1
  Na  Na8  1  0.33850800  0.18087100  0.36065400  1
  Na  Na9  1  0.66149200  0.81912900  0.86065400  1
  Na  Na10  1  0.18087100  0.84236300  0.86065400  1
  Na  Na11  1  0.84236300  0.66149200  0.36065400  1
  Na  Na12  1  0.33333300  0.66666700  0.36514500  1
  Na  Na13  1  0.66666700  0.33333300  0.86514500  1
  Na  Na14  1  0.33333300  0.66666700  0.80511100  1
  Na  Na15  1  0.66666700  0.33333300  0.30511100  1
  Zn  Zn0  1  0.16191900  0.17251900  0.00688600  1
  Zn  Zn1  1  0.98939900  0.16191900  0.50688600  1
  Zn  Zn2  1  0.17251900  0.01060100  0.50688600  1
  Zn  Zn3  1  0.82748100  0.98939900  0.00688600  1
  Zn  Zn4  1  0.01060100  0.83808100  0.00688600  1
  Zn  Zn5  1  0.83808100  0.82748100  0.50688600  1
  Zn  Zn6  1  0.00424000  0.33580100  0.16814300  1
  Zn  Zn7  1  0.66843800  0.00424000  0.66814300  1
  Zn  Zn8  1  0.33580100  0.33156200  0.66814300  1
  Zn  Zn9  1  0.66419900  0.66843800  0.16814300  1
  Zn  Zn10  1  0.33156200  0.99576000  0.16814300  1
  Zn  Zn11  1  0.99576000  0.66419900  0.66814300  1
  Zn  Zn12  1  0.50848600  0.33927500  0.15990800  1
  Zn  Zn13  1  0.16921100  0.50848600  0.65990800  1
  Zn  Zn14  1  0.33927500  0.83078900  0.65990800  1
  Zn  Zn15  1  0.66072500  0.16921100  0.15990800  1
  Zn  Zn16  1  0.83078900  0.49151400  0.15990800  1
  Zn  Zn17  1  0.49151400  0.66072500  0.65990800  1
  Zn  Zn18  1  0.32940000  0.49550200  0.16053500  1
  Zn  Zn19  1  0.83389700  0.32940000  0.66053500  1
  Zn  Zn20  1  0.49550200  0.16610300  0.66053500  1
  Zn  Zn21  1  0.50449800  0.83389700  0.16053500  1
  Zn  Zn22  1  0.16610300  0.67060000  0.16053500  1
  Zn  Zn23  1  0.67060000  0.50449800  0.66053500  1
  P  P0  1  0.15963200  0.17378600  0.61263400  1
  P  P1  1  0.98584600  0.15963200  0.11263400  1
  P  P2  1  0.17378600  0.01415400  0.11263400  1
  P  P3  1  0.82621400  0.98584600  0.61263400  1
  P  P4  1  0.01415400  0.84036800  0.61263400  1
  P  P5  1  0.84036800  0.82621400  0.11263400  1
  P  P6  1  0.00963600  0.33846900  0.55947100  1
  P  P7  1  0.67116800  0.00963600  0.05947100  1
  P  P8  1  0.33846900  0.32883200  0.05947100  1
  P  P9  1  0.66153100  0.67116800  0.55947100  1
  P  P10  1  0.32883200  0.99036400  0.55947100  1
  P  P11  1  0.99036400  0.66153100  0.05947100  1
  P  P12  1  0.17062000  0.51153800  0.05372400  1
  P  P13  1  0.65908200  0.17062000  0.55372400  1
  P  P14  1  0.51153800  0.34091800  0.55372400  1
  P  P15  1  0.48846200  0.65908200  0.05372400  1
  P  P16  1  0.34091800  0.82938000  0.05372400  1
  P  P17  1  0.82938000  0.48846200  0.55372400  1
  P  P18  1  0.32606900  0.48795900  0.55177200  1
  P  P19  1  0.83811000  0.32606900  0.05177200  1
  P  P20  1  0.48795900  0.16189000  0.05177200  1
  P  P21  1  0.51204100  0.83811000  0.55177200  1
  P  P22  1  0.16189000  0.67393100  0.55177200  1
  P  P23  1  0.67393100  0.51204100  0.05177200  1
  O  O0  1  0.03972900  0.25771200  0.07177500  1
  O  O1  1  0.78201700  0.03972900  0.57177500  1
  O  O2  1  0.25771200  0.21798300  0.57177500  1
  O  O3  1  0.74228800  0.78201700  0.07177500  1
  O  O4  1  0.21798300  0.96027100  0.07177500  1
  O  O5  1  0.96027100  0.74228800  0.57177500  1
  O  O6  1  0.12023100  0.57434500  0.56212700  1
  O  O7  1  0.54588600  0.12023100  0.06212700  1
  O  O8  1  0.57434500  0.45411400  0.06212700  1
  O  O9  1  0.42565500  0.54588600  0.56212700  1
  O  O10  1  0.45411400  0.87976900  0.56212700  1
  O  O11  1  0.87976900  0.42565500  0.06212700  1
  O  O12  1  0.20135400  0.05650500  0.28207500  1
  O  O13  1  0.14484900  0.20135400  0.78207500  1
  O  O14  1  0.05650500  0.85515100  0.78207500  1
  O  O15  1  0.94349500  0.14484900  0.28207500  1
  O  O16  1  0.85515100  0.79864600  0.28207500  1
  O  O17  1  0.79864600  0.94349500  0.78207500  1
  O  O18  1  0.24075600  0.28483000  0.10410600  1
  O  O19  1  0.95592600  0.24075600  0.60410600  1
  O  O20  1  0.28483000  0.04407400  0.60410600  1
  O  O21  1  0.71517000  0.95592600  0.10410600  1
  O  O22  1  0.04407400  0.75924400  0.10410600  1
  O  O23  1  0.75924400  0.71517000  0.60410600  1
  O  O24  1  0.21397200  0.45532300  0.07431500  1
  O  O25  1  0.75864800  0.21397200  0.57431500  1
  O  O26  1  0.45532300  0.24135200  0.57431500  1
  O  O27  1  0.54467700  0.75864800  0.07431500  1
  O  O28  1  0.24135200  0.78602800  0.07431500  1
  O  O29  1  0.78602800  0.54467700  0.57431500  1
  O  O30  1  0.11314800  0.20138500  0.48714700  1
  O  O31  1  0.91176300  0.11314800  0.98714700  1
  O  O32  1  0.20138500  0.08823700  0.98714700  1
  O  O33  1  0.79861500  0.91176300  0.48714700  1
  O  O34  1  0.08823700  0.88685200  0.48714700  1
  O  O35  1  0.88685200  0.79861500  0.98714700  1
  O  O36  1  0.07157000  0.45162300  0.07143600  1
  O  O37  1  0.61994700  0.07157000  0.57143600  1
  O  O38  1  0.45162300  0.38005300  0.57143600  1
  O  O39  1  0.54837700  0.61994700  0.07143600  1
  O  O40  1  0.38005300  0.92843000  0.07143600  1
  O  O41  1  0.92843000  0.54837700  0.57143600  1
  O  O42  1  0.05041300  0.62231600  0.06245300  1
  O  O43  1  0.42809700  0.05041300  0.56245300  1
  O  O44  1  0.62231600  0.57190300  0.56245300  1
  O  O45  1  0.37768400  0.42809700  0.06245300  1
  O  O46  1  0.57190300  0.94958700  0.06245300  1
  O  O47  1  0.94958700  0.37768400  0.56245300  1
  O  O48  1  0.12139600  0.07448100  0.60674700  1
  O  O49  1  0.04691500  0.12139600  0.10674700  1
  O  O50  1  0.07448100  0.95308500  0.10674700  1
  O  O51  1  0.92551900  0.04691500  0.60674700  1
  O  O52  1  0.95308500  0.87860400  0.60674700  1
  O  O53  1  0.87860400  0.92551900  0.10674700  1
  O  O54  1  0.28571400  0.54646800  0.58229900  1
  O  O55  1  0.73924600  0.28571400  0.08229900  1
  O  O56  1  0.54646800  0.26075400  0.08229900  1
  O  O57  1  0.45353200  0.73924600  0.58229900  1
  O  O58  1  0.26075400  0.71428600  0.58229900  1
  O  O59  1  0.71428600  0.45353200  0.08229900  1
  O  O60  1  0.20489500  0.58536400  0.18198200  1
  O  O61  1  0.61953100  0.20489500  0.68198200  1
  O  O62  1  0.58536400  0.38046900  0.68198200  1
  O  O63  1  0.41463600  0.61953100  0.18198200  1
  O  O64  1  0.38046900  0.79510500  0.18198200  1
  O  O65  1  0.79510500  0.41463600  0.68198200  1
  O  O66  1  0.08410600  0.38571700  0.68442900  1
  O  O67  1  0.69838900  0.08410600  0.18442900  1
  O  O68  1  0.38571700  0.30161100  0.18442900  1
  O  O69  1  0.61428300  0.69838900  0.68442900  1
  O  O70  1  0.30161100  0.91589400  0.68442900  1
  O  O71  1  0.91589400  0.61428300  0.18442900  1
  O  O72  1  0.19161400  0.55531900  0.88515300  1
  O  O73  1  0.63629500  0.19161400  0.38515300  1
  O  O74  1  0.55531900  0.36370500  0.38515300  1
  O  O75  1  0.44468100  0.63629500  0.88515300  1
  O  O76  1  0.36370500  0.80838600  0.88515300  1
  O  O77  1  0.80838600  0.44468100  0.38515300  1
  O  O78  1  0.05164200  0.35053700  0.39047900  1
  O  O79  1  0.70110500  0.05164200  0.89047900  1
  O  O80  1  0.35053700  0.29889500  0.89047900  1
  O  O81  1  0.64946300  0.70110500  0.39047900  1
  O  O82  1  0.29889500  0.94835800  0.39047900  1
  O  O83  1  0.94835800  0.64946300  0.89047900  1
  O  O84  1  0.29276500  0.41387600  0.67889700  1
  O  O85  1  0.87888800  0.29276500  0.17889700  1
  O  O86  1  0.41387600  0.12111200  0.17889700  1
  O  O87  1  0.58612400  0.87888800  0.67889700  1
  O  O88  1  0.12111200  0.70723500  0.67889700  1
  O  O89  1  0.70723500  0.58612400  0.17889700  1
  O  O90  1  0.30115800  0.44574600  0.38241300  1
  O  O91  1  0.85541200  0.30115800  0.88241300  1
  O  O92  1  0.44574600  0.14458800  0.88241300  1
  O  O93  1  0.55425400  0.85541200  0.38241300  1
  O  O94  1  0.14458800  0.69884200  0.38241300  1
  O  O95  1  0.69884200  0.55425400  0.88241300  1
loop_
_geom_bond_atom_site_label_1
_geom_bond_atom_site_label_2
_geom_bond_distance
_geom_bond_site_symmetry_2
K0 O50 2.733217 1_545
K0 O49 2.733217 1_555
K0 O53 2.733217 1_445
K0 O51 2.894006 1_455
K0 O52 2.894006 1_445
K0 O48 2.894006 1_555
K1 O51 2.733217 1_455
K1 O52 2.733217 1_445
K1 O48 2.733217 1_555
K1 O50 2.894006 1_546
K1 O49 2.894006 1_556
K1 O53 2.894006 1_446
K2 O6 2.707638 1_655
K2 O41 2.723678 1_555
K2 O47 2.745085 1_555
K2 O36 2.865364 1_655
K2 O42 2.895796 1_655
K2 O11 2.898930 1_555
K3 O7 2.707638 1_566
K3 O40 2.723678 1_556
K3 O46 2.745085 1_556
K3 O37 2.865364 1_565
K3 O43 2.895796 1_565
K3 O10 2.898930 1_555
K4 O8 2.707638 1_556
K4 O39 2.723678 1_556
K4 O45 2.745085 1_556
K4 O38 2.865364 1_555
K4 O44 2.895796 1_555
K4 O9 2.898930 1_555
K5 O9 2.707638 1_555
K5 O38 2.723678 1_555
K5 O44 2.745085 1_555
K5 O39 2.865364 1_555
K5 O45 2.895796 1_555
K5 O8 2.898930 1_555
K6 O10 2.707638 1_545
K6 O37 2.723678 1_555
K6 O43 2.745085 1_555
K6 O40 2.865364 1_545
K6 O46 2.895796 1_545
K6 O7 2.898930 1_555
K7 O11 2.707638 1_456
K7 O36 2.723678 1_556
K7 O42 2.745085 1_556
K7 O41 2.865364 1_455
K7 O47 2.895796 1_455
K7 O6 2.898930 1_555
Na0 O92 2.368014 1_555
Na0 O32 2.381296 1_555
Na0 O20 2.421640 1_555
Na0 O80 2.493067 1_555
Na0 O2 2.820529 1_555
Na0 O26 2.872851 1_555
Na1 O90 2.368014 1_555
Na1 O30 2.381296 1_555
Na1 O18 2.421640 1_555
Na1 O78 2.493067 1_555
Na1 O0 2.820529 1_555
Na1 O24 2.872849 1_555
Na2 O94 2.368014 1_555
Na2 O34 2.381296 1_555
Na2 O22 2.421640 1_555
Na2 O82 2.493067 1_555
Na2 O4 2.820529 1_555
Na2 O28 2.872861 1_555
Na3 O91 2.368014 1_555
Na3 O31 2.381296 1_555
Na3 O19 2.421640 1_555
Na3 O79 2.493067 1_555
Na3 O1 2.820529 1_555
Na3 O25 2.872861 1_555
Na4 O95 2.368014 1_555
Na4 O35 2.381296 1_555
Na4 O23 2.421640 1_555
Na4 O83 2.493067 1_555
Na4 O5 2.820529 1_555
Na4 O29 2.872849 1_555
Na5 O93 2.368014 1_555
Na5 O33 2.381296 1_555
Na5 O21 2.421640 1_555
Na5 O81 2.493067 1_555
Na5 O3 2.820529 1_555
Na5 O27 2.872851 1_555
Na6 O66 2.387782 1_555
Na6 O13 2.439010 1_555
Na6 O24 2.535425 1_556
Na6 O0 2.562697 1_556
Na6 O84 2.586017 1_555
Na6 O18 2.941693 1_556
Na7 O67 2.387783 1_555
Na7 O15 2.439010 1_555
Na7 O25 2.535436 1_555
Na7 O1 2.562697 1_555
Na7 O85 2.586018 1_555
Na7 O19 2.941693 1_555
Na8 O68 2.387783 1_555
Na8 O12 2.439010 1_555
Na8 O26 2.535425 1_555
Na8 O2 2.562697 1_555
Na8 O86 2.586005 1_555
Na8 O20 2.941693 1_555
Na9 O69 2.387783 1_555
Na9 O17 2.439010 1_555
Na9 O27 2.535425 1_556
Na9 O3 2.562697 1_556
Na9 O87 2.586005 1_555
Na9 O21 2.941693 1_556
Na10 O70 2.387783 1_555
Na10 O14 2.439010 1_555
Na10 O28 2.535436 1_556
Na10 O4 2.562697 1_556
Na10 O88 2.586018 1_555
Na10 O22 2.941693 1_556
Na11 O71 2.387782 1_555
Na11 O16 2.439010 1_555
Na11 O29 2.535425 1_555
Na11 O5 2.562697 1_555
Na11 O89 2.586017 1_555
Na11 O23 2.941693 1_555
Na12 O64 2.524426 1_555
Na12 O60 2.524428 1_555
Na12 O63 2.524440 1_555
Na12 O58 2.602593 1_555
Na12 O57 2.602604 1_555
Na12 O54 2.602605 1_555
Na13 O61 2.524426 1_555
Na13 O65 2.524428 1_555
Na13 O62 2.524440 1_555
Na13 O55 2.602593 1_556
Na13 O56 2.602604 1_556
Na13 O59 2.602605 1_556
Na14 O76 2.408005 1_555
Na14 O72 2.408010 1_555
Na14 O75 2.408021 1_555
Na14 O58 2.635328 1_555
Na14 O57 2.635338 1_555
Na14 O54 2.635340 1_555
Na15 O73 2.408005 1_555
Na15 O77 2.408010 1_555
Na15 O74 2.408021 1_555
Na15 O55 2.635328 1_555
Na15 O56 2.635338 1_555
Na15 O59 2.635340 1_555
O0 P1 1.560961 1_455
O0 Zn6 1.971894 1_555
O1 P3 1.560961 1_545
O1 Zn7 1.971910 1_555
O2 P0 1.560961 1_555
O2 Zn8 1.971907 1_555
O3 P5 1.560961 1_555
O3 Zn9 1.971907 1_555
O4 P2 1.560961 1_565
O4 Zn10 1.971910 1_555
O5 P4 1.560961 1_655
O5 Zn11 1.971894 1_555
O6 P22 1.553803 1_555
O6 Zn13 1.963130 1_555
O7 P20 1.553803 1_555
O7 Zn15 1.963130 1_555
O8 P23 1.553803 1_555
O8 Zn12 1.963130 1_555
O9 P18 1.553803 1_555
O9 Zn17 1.963130 1_555
O10 P21 1.553803 1_555
O10 Zn14 1.963130 1_555
O11 P19 1.553803 1_555
O11 Zn16 1.963130 1_555
O12 P2 1.556316 1_555
O12 Zn2 1.999791 1_555
O13 P0 1.556316 1_555
O13 Zn0 1.999796 1_556
O14 P4 1.556316 1_555
O14 Zn4 1.999790 1_556
O15 P1 1.556316 1_555
O15 Zn1 1.999790 1_555
O16 P5 1.556316 1_555
O16 Zn5 1.999796 1_555
O17 P3 1.556316 1_555
O17 Zn3 1.999791 1_556
O18 P8 1.562558 1_555
O18 Zn0 1.962236 1_555
O19 P6 1.562557 1_655
O19 Zn1 1.962224 1_555
O20 P10 1.562542 1_545
O20 Zn2 1.962239 1_555
O21 P7 1.562542 1_565
O21 Zn3 1.962239 1_555
O22 P11 1.562557 1_455
O22 Zn4 1.962224 1_555
O23 P9 1.562558 1_555
O23 Zn5 1.962236 1_555
O24 P12 1.557966 1_555
O24 Zn18 1.953397 1_555
O25 P13 1.557950 1_555
O25 Zn19 1.953397 1_555
O26 P14 1.557951 1_555
O26 Zn20 1.953397 1_555
O27 P15 1.557951 1_555
O27 Zn21 1.953397 1_555
O28 P16 1.557950 1_555
O28 Zn22 1.953397 1_555
O29 P17 1.557966 1_555
O29 Zn23 1.953397 1_555
O30 P0 1.559965 1_555
O30 Zn1 1.967675 1_455
O31 P1 1.559965 1_556
O31 Zn3 1.967672 1_546
O32 P2 1.559965 1_556
O32 Zn0 1.967658 1_556
O33 P3 1.559965 1_555
O33 Zn5 1.967658 1_555
O34 P4 1.559965 1_555
O34 Zn2 1.967672 1_565
O35 P5 1.559965 1_556
O35 Zn4 1.967675 1_656
O36 P12 1.554451 1_555
O36 Zn6 1.974752 1_555
O37 P13 1.554451 1_555
O37 Zn7 1.974739 1_555
O38 P14 1.554451 1_555
O38 Zn8 1.974754 1_555
O39 P15 1.554451 1_555
O39 Zn9 1.974754 1_555
O40 P16 1.554451 1_555
O40 Zn10 1.974739 1_555
O41 P17 1.554451 1_555
O41 Zn11 1.974752 1_555
O42 P11 1.551036 1_455
O42 Zn22 1.977778 1_555
O43 P10 1.551050 1_545
O43 Zn20 1.977777 1_555
O44 P9 1.551052 1_555
O44 Zn23 1.977764 1_555
O45 P8 1.551052 1_555
O45 Zn18 1.977764 1_555
O46 P7 1.551050 1_565
O46 Zn21 1.977777 1_555
O47 P6 1.551036 1_655
O47 Zn19 1.977778 1_555
O48 P0 1.554492 1_555
O48 Zn2 1.970144 1_555
O49 P1 1.554492 1_455
O49 Zn0 1.970159 1_555
O50 P2 1.554492 1_565
O50 Zn4 1.970158 1_555
O51 P3 1.554492 1_545
O51 Zn1 1.970158 1_555
O52 P4 1.554492 1_655
O52 Zn5 1.970159 1_555
O53 P5 1.554492 1_555
O53 Zn3 1.970144 1_555
O54 P18 1.562640 1_555
O54 Zn13 1.952363 1_555
O55 P19 1.562640 1_555
O55 Zn15 1.952363 1_555
O56 P20 1.562640 1_555
O56 Zn12 1.952363 1_555
O57 P21 1.562640 1_555
O57 Zn17 1.952363 1_555
O58 P22 1.562640 1_555
O58 Zn14 1.952363 1_555
O59 P23 1.562640 1_555
O59 Zn16 1.952363 1_555
O60 P12 1.564101 1_555
O60 Zn22 1.976140 1_555
O61 P13 1.564101 1_555
O61 Zn20 1.976157 1_555
O62 P14 1.564101 1_555
O62 Zn23 1.976153 1_555
O63 P15 1.564101 1_555
O63 Zn18 1.976153 1_555
O64 P16 1.564101 1_555
O64 Zn21 1.976157 1_555
O65 P17 1.564101 1_555
O65 Zn19 1.976140 1_555
O66 P6 1.562611 1_555
O66 Zn13 1.961535 1_555
O67 P7 1.562613 1_555
O67 Zn15 1.961535 1_555
O68 P8 1.562601 1_555
O68 Zn12 1.961535 1_555
O69 P9 1.562601 1_555
O69 Zn17 1.961535 1_555
O70 P10 1.562613 1_555
O70 Zn14 1.961535 1_555
O71 P11 1.562611 1_555
O71 Zn16 1.961535 1_555
O72 P12 1.555199 1_556
O72 Zn13 2.005635 1_555
O73 P13 1.555199 1_555
O73 Zn15 2.005635 1_555
O74 P14 1.555199 1_555
O74 Zn12 2.005635 1_555
O75 P15 1.555199 1_556
O75 Zn17 2.005635 1_555
O76 P16 1.555199 1_556
O76 Zn14 2.005635 1_555
O77 P17 1.555199 1_555
O77 Zn16 2.005635 1_555
O78 P6 1.554719 1_555
O78 Zn6 1.992796 1_555
O79 P7 1.554717 1_556
O79 Zn7 1.992797 1_555
O80 P8 1.554711 1_556
O80 Zn8 1.992802 1_555
O81 P9 1.554711 1_555
O81 Zn9 1.992802 1_555
O82 P10 1.554717 1_555
O82 Zn10 1.992797 1_555
O83 P11 1.554719 1_556
O83 Zn11 1.992796 1_555
O84 P18 1.561369 1_555
O84 Zn8 1.977741 1_555
O85 P19 1.561357 1_555
O85 Zn6 1.977775 1_655
O86 P20 1.561368 1_555
O86 Zn10 1.977769 1_545
O87 P21 1.561368 1_555
O87 Zn7 1.977769 1_565
O88 P22 1.561357 1_555
O88 Zn11 1.977775 1_455
O89 P23 1.561369 1_555
O89 Zn9 1.977741 1_555
O90 P18 1.552074 1_555
O90 Zn18 1.997521 1_555
O91 P19 1.552074 1_556
O91 Zn19 1.997527 1_555
O92 P20 1.552074 1_556
O92 Zn20 1.997521 1_555
O93 P21 1.552074 1_555
O93 Zn21 1.997521 1_555
O94 P22 1.552074 1_555
O94 Zn22 1.997527 1_555
O95 P23 1.552074 1_556
O95 Zn23 1.997521 1_555
