# generated using pymatgen
data_LiMn2V4O8
_symmetry_space_group_name_H-M   'P 1'
_cell_length_a   6.03966225
_cell_length_b   6.41135086
_cell_length_c   6.02943747
_cell_angle_alpha   61.87405723
_cell_angle_beta   60.04993362
_cell_angle_gamma   61.57622095
_symmetry_Int_Tables_number   1
_chemical_formula_structural   LiMn2V4O8
_chemical_formula_sum   'Li1 Mn2 V4 O8'
_cell_volume   169.33047938
_cell_formula_units_Z   1
loop_
 _symmetry_equiv_pos_site_id
 _symmetry_equiv_pos_as_xyz
  1  'x, y, z'
loop_
 _atom_site_type_symbol
 _atom_site_label
 _atom_site_symmetry_multiplicity
 _atom_site_fract_x
 _atom_site_fract_y
 _atom_site_fract_z
 _atom_site_occupancy
  Li  Li0  1  0.00000000  0.50000000  0.00000000  1
  Mn  Mn0  1  0.14529700  0.06610800  0.14394000  1
  Mn  Mn1  1  0.85470200  0.93389000  0.85606300  1
  V  V0  1  0.50000000  0.50000100  0.99999900  1
  V  V1  1  0.50000000  0.99999800  0.50000000  1
  V  V2  1  0.50000000  0.50000100  0.50000000  1
  V  V3  1  0.99999900  0.50000100  0.50000000  1
  O  O0  1  0.73012500  0.27290600  0.24745800  1
  O  O1  1  0.75407000  0.71907400  0.75388700  1
  O  O2  1  0.24593100  0.28092600  0.24611300  1
  O  O3  1  0.24793500  0.27777800  0.72751000  1
  O  O4  1  0.72858400  0.30522700  0.73155300  1
  O  O5  1  0.26987500  0.72709400  0.75254100  1
  O  O6  1  0.75206700  0.72222300  0.27248900  1
  O  O7  1  0.27141600  0.69477400  0.26844700  1
loop_
_geom_bond_atom_site_label_1
_geom_bond_atom_site_label_2
_geom_bond_distance
_geom_bond_site_symmetry_2
Li0 O1 2.151903 1_454
Li0 O2 2.151907 1_555
Li0 O3 2.165863 1_554
Li0 O6 2.165863 1_455
Li0 O5 2.187595 1_554
Li0 O0 2.187595 1_455
Mn0 O7 1.992809 1_545
Mn0 O0 2.118395 1_455
Mn0 O3 2.136450 1_554
Mn0 O2 2.148610 1_555
Mn1 O4 1.992825 1_565
Mn1 O5 2.118397 1_655
Mn1 O6 2.136428 1_556
Mn1 O1 2.148603 1_555
O0 V0 2.091366 1_554
O0 V2 2.102584 1_555
O0 V1 2.236479 1_545
O1 V3 2.071983 1_555
O1 V0 2.083878 1_555
O1 V1 2.248756 1_555
O2 V3 2.071993 1_455
O2 V0 2.083883 1_554
O2 V1 2.248756 1_545
O3 V3 2.081183 1_455
O3 V2 2.089569 1_555
O3 V1 2.237902 1_545
O4 V2 2.013493 1_555
O4 V0 2.029392 1_555
O4 V3 2.053188 1_555
O5 V0 2.091362 1_555
O5 V2 2.102570 1_555
O5 V1 2.236459 1_555
O6 V3 2.081169 1_555
O6 V2 2.089573 1_555
O6 V1 2.237881 1_555
O7 V2 2.013493 1_555
O7 V0 2.029397 1_554
O7 V3 2.053192 1_455
