# generated using pymatgen
data_La2ZrCuO6
_symmetry_space_group_name_H-M   'P 1'
_cell_length_a   7.92240600
_cell_length_b   7.90387000
_cell_length_c   8.69172228
_cell_angle_alpha   87.85235290
_cell_angle_beta   90.00000000
_cell_angle_gamma   90.00000000
_symmetry_Int_Tables_number   1
_chemical_formula_structural   La2ZrCuO6
_chemical_formula_sum   'La8 Zr4 Cu4 O24'
_cell_volume   543.87307396
_cell_formula_units_Z   4
loop_
 _symmetry_equiv_pos_site_id
 _symmetry_equiv_pos_as_xyz
  1  'x, y, z'
loop_
 _atom_site_type_symbol
 _atom_site_label
 _atom_site_symmetry_multiplicity
 _atom_site_fract_x
 _atom_site_fract_y
 _atom_site_fract_z
 _atom_site_occupancy
  La  La0  1  0.75000000  0.28486800  0.72853800  1
  La  La1  1  0.25000000  0.71513200  0.27146200  1
  La  La2  1  0.75000000  0.79658200  0.74073300  1
  La  La3  1  0.25000000  0.20341800  0.25926700  1
  La  La4  1  0.75000000  0.28325500  0.29421900  1
  La  La5  1  0.25000000  0.71674500  0.70578100  1
  La  La6  1  0.75000000  0.76904300  0.30686500  1
  La  La7  1  0.25000000  0.23095700  0.69313500  1
  Zr  Zr0  1  0.00000000  0.50000000  0.00000000  1
  Zr  Zr1  1  0.50000000  0.50000000  0.00000000  1
  Zr  Zr2  1  0.00000000  0.00000000  0.00000000  1
  Zr  Zr3  1  0.50000000  0.00000000  0.00000000  1
  Cu  Cu0  1  0.00000000  0.50000000  0.50000000  1
  Cu  Cu1  1  0.50000000  0.50000000  0.50000000  1
  Cu  Cu2  1  0.00000000  0.00000000  0.50000000  1
  Cu  Cu3  1  0.50000000  0.00000000  0.50000000  1
  O  O0  1  0.75000000  0.02866900  0.46847100  1
  O  O1  1  0.25000000  0.97133100  0.53152900  1
  O  O2  1  0.75000000  0.52920600  0.91196300  1
  O  O3  1  0.25000000  0.47079400  0.08803700  1
  O  O4  1  0.96813800  0.75052100  0.54689300  1
  O  O5  1  0.03186200  0.24947900  0.45310700  1
  O  O6  1  0.46813800  0.24947900  0.45310700  1
  O  O7  1  0.53186200  0.75052100  0.54689300  1
  O  O8  1  0.75000000  0.47208900  0.51077400  1
  O  O9  1  0.25000000  0.52791100  0.48922600  1
  O  O10  1  0.44321200  0.94211900  0.23223400  1
  O  O11  1  0.55678800  0.05788100  0.76776600  1
  O  O12  1  0.94321200  0.05788100  0.76776600  1
  O  O13  1  0.05678800  0.94211900  0.23223400  1
  O  O14  1  0.94681300  0.56622900  0.22717300  1
  O  O15  1  0.05318700  0.43377100  0.77282700  1
  O  O16  1  0.44681300  0.43377100  0.77282700  1
  O  O17  1  0.55318700  0.56622900  0.22717300  1
  O  O18  1  0.75000000  0.91429700  0.03634200  1
  O  O19  1  0.25000000  0.08570300  0.96365800  1
  O  O20  1  0.94648300  0.24810400  0.07707000  1
  O  O21  1  0.05351700  0.75189600  0.92293000  1
  O  O22  1  0.44648300  0.75189600  0.92293000  1
  O  O23  1  0.55351700  0.24810400  0.07707000  1
loop_
_geom_bond_atom_site_label_1
_geom_bond_atom_site_label_2
_geom_bond_distance
_geom_bond_site_symmetry_2
La0 O8 2.358449 1_555
La0 O11 2.373219 1_555
La0 O12 2.373219 1_555
La0 O2 2.549918 1_555
La0 O16 2.708638 1_555
La0 O15 2.708638 1_655
La1 O9 2.358449 1_555
La1 O13 2.373219 1_555
La1 O10 2.373219 1_555
La1 O3 2.549918 1_555
La1 O14 2.708638 1_455
La1 O17 2.708638 1_555
La2 O7 2.450239 1_555
La2 O4 2.450239 1_555
La2 O2 2.538763 1_555
La2 O12 2.588433 1_565
La2 O11 2.588433 1_565
La2 O18 2.765210 1_556
La2 O22 2.893555 1_555
La2 O21 2.893555 1_655
La2 O0 2.939318 1_565
La3 O5 2.450239 1_555
La3 O6 2.450239 1_555
La3 O3 2.538763 1_555
La3 O13 2.588433 1_545
La3 O10 2.588433 1_545
La3 O19 2.765210 1_554
La3 O23 2.893555 1_555
La3 O20 2.893555 1_455
La3 O1 2.939318 1_545
La4 O8 2.445604 1_555
La4 O20 2.470187 1_555
La4 O23 2.470187 1_555
La4 O0 2.472742 1_555
La4 O6 2.633862 1_555
La4 O5 2.633862 1_655
La4 O14 2.770459 1_555
La4 O17 2.770459 1_555
La5 O9 2.445604 1_555
La5 O21 2.470187 1_555
La5 O22 2.470187 1_555
La5 O1 2.472742 1_555
La5 O7 2.633862 1_555
La5 O4 2.633862 1_455
La5 O16 2.770459 1_555
La5 O15 2.770459 1_555
La6 O17 2.358784 1_555
La6 O14 2.358784 1_555
La6 O0 2.529810 1_565
La6 O18 2.577673 1_555
La6 O7 2.708802 1_555
La6 O4 2.708802 1_555
La6 O10 2.851830 1_555
La6 O13 2.851830 1_655
La6 O8 2.887587 1_555
La7 O16 2.358784 1_555
La7 O15 2.358784 1_555
La7 O1 2.529810 1_545
La7 O19 2.577673 1_555
La7 O6 2.708802 1_555
La7 O5 2.708802 1_555
La7 O12 2.851830 1_455
La7 O11 2.851830 1_555
La7 O9 2.887587 1_555
Cu0 O9 1.994660 1_555
Cu0 O8 1.994660 1_455
Cu0 O5 2.052088 1_555
Cu0 O4 2.052088 1_455
Cu0 O14 2.445766 1_455
Cu0 O15 2.445766 1_555
Cu1 O8 1.994660 1_555
Cu1 O9 1.994660 1_555
Cu1 O7 2.052088 1_555
Cu1 O6 2.052088 1_555
Cu1 O17 2.445766 1_555
Cu1 O16 2.445766 1_555
Cu2 O0 2.011112 1_455
Cu2 O1 2.011112 1_545
Cu2 O4 2.014397 1_445
Cu2 O5 2.014397 1_555
Cu2 O12 2.430647 1_455
Cu2 O13 2.430647 1_545
Cu3 O0 2.011112 1_555
Cu3 O1 2.011112 1_545
Cu3 O7 2.014397 1_545
Cu3 O6 2.014397 1_555
Cu3 O11 2.430647 1_555
Cu3 O10 2.430647 1_545
O2 Zr0 2.132686 1_656
O2 Zr1 2.132686 1_556
O3 Zr0 2.132686 1_555
O3 Zr1 2.132686 1_555
O10 Zr3 2.101639 1_565
O11 Zr3 2.101639 1_556
O12 Zr2 2.101639 1_656
O13 Zr2 2.101639 1_565
O14 Zr0 2.104230 1_655
O15 Zr0 2.104230 1_556
O16 Zr1 2.104230 1_556
O17 Zr1 2.104230 1_555
O18 Zr2 2.113143 1_665
O18 Zr3 2.113143 1_565
O19 Zr3 2.113143 1_556
O19 Zr2 2.113143 1_556
O20 Zr0 2.119534 1_655
O20 Zr2 2.138315 1_655
O21 Zr0 2.119534 1_556
O21 Zr2 2.138315 1_566
O22 Zr1 2.119534 1_556
O22 Zr3 2.138315 1_566
O23 Zr1 2.119534 1_555
O23 Zr3 2.138315 1_555
