# generated using pymatgen
data_Ti8Co3NiSn4
_symmetry_space_group_name_H-M   'P 1'
_cell_length_a   15.06662690
_cell_length_b   15.06662690
_cell_length_c   15.06662648
_cell_angle_alpha   17.31712291
_cell_angle_beta   17.31712291
_cell_angle_gamma   17.31712018
_symmetry_Int_Tables_number   1
_chemical_formula_structural   Ti8Co3NiSn4
_chemical_formula_sum   'Ti8 Co3 Ni1 Sn4'
_cell_volume   264.43151574
_cell_formula_units_Z   1
loop_
 _symmetry_equiv_pos_site_id
 _symmetry_equiv_pos_as_xyz
  1  'x, y, z'
loop_
 _atom_site_type_symbol
 _atom_site_label
 _atom_site_symmetry_multiplicity
 _atom_site_fract_x
 _atom_site_fract_y
 _atom_site_fract_z
 _atom_site_occupancy
  Ti  Ti0  1  0.56247100  0.56247100  0.56247100  1
  Ti  Ti1  1  0.81250900  0.81250900  0.81250900  1
  Ti  Ti2  1  0.06258800  0.06258800  0.06258800  1
  Ti  Ti3  1  0.31242300  0.31242300  0.31242300  1
  Ti  Ti4  1  0.18749100  0.18749100  0.18749100  1
  Ti  Ti5  1  0.43752900  0.43752900  0.43752900  1
  Ti  Ti6  1  0.68757700  0.68757700  0.68757700  1
  Ti  Ti7  1  0.93741200  0.93741200  0.93741200  1
  Co  Co0  1  0.25004300  0.25004300  0.25004300  1
  Co  Co1  1  0.50000000  0.50000000  0.50000000  1
  Co  Co2  1  0.74995700  0.74995700  0.74995700  1
  Ni  Ni0  1  0.00000000  0.00000000  0.00000000  1
  Sn  Sn0  1  0.87498500  0.87498500  0.87498500  1
  Sn  Sn1  1  0.12501500  0.12501500  0.12501500  1
  Sn  Sn2  1  0.37488800  0.37488800  0.37488800  1
  Sn  Sn3  1  0.62511200  0.62511200  0.62511200  1
loop_
_geom_bond_atom_site_label_1
_geom_bond_atom_site_label_2
_geom_bond_distance
_geom_bond_site_symmetry_2
Co0 Ti7 2.776492 1_544
Co0 Ti7 2.776492 1_454
Co0 Ti7 2.776492 1_445
Co0 Ti3 2.776640 1_555
Co0 Ti0 2.779504 1_545
Co0 Ti0 2.779504 1_455
Co0 Ti0 2.779504 1_554
Co0 Ti4 2.784296 1_555
Co1 Ti1 2.778299 1_545
Co1 Ti1 2.778299 1_455
Co1 Ti4 2.778299 1_565
Co1 Ti4 2.778299 1_655
Co1 Ti1 2.778299 1_554
Co1 Ti4 2.778299 1_556
Co1 Ti5 2.780690 1_555
Co1 Ti0 2.780690 1_555
Co2 Ti2 2.776492 1_566
Co2 Ti2 2.776492 1_656
Co2 Ti2 2.776492 1_665
Co2 Ti6 2.776640 1_555
Co2 Ti5 2.779504 1_565
Co2 Ti5 2.779504 1_655
Co2 Ti5 2.779504 1_556
Co2 Ti1 2.784296 1_555
Ni0 Ti3 2.779578 1_545
Ni0 Ti6 2.779578 1_454
Ni0 Ti3 2.779578 1_455
Ni0 Ti6 2.779578 1_544
Ni0 Ti6 2.779578 1_445
Ni0 Ti3 2.779578 1_554
Ni0 Ti7 2.785898 1_444
Ni0 Ti2 2.785898 1_555
Sn0 Ti0 2.778225 1_565
Sn0 Ti0 2.778225 1_655
Sn0 Ti0 2.778225 1_556
Sn0 Ti4 2.778343 1_566
Sn0 Ti4 2.778343 1_656
Sn0 Ti4 2.778344 1_665
Sn0 Ti7 2.778732 1_555
Sn0 Ti1 2.780913 1_555
Sn1 Ti5 2.778225 1_545
Sn1 Ti5 2.778225 1_455
Sn1 Ti5 2.778225 1_554
Sn1 Ti1 2.778343 1_544
Sn1 Ti1 2.778343 1_454
Sn1 Ti1 2.778344 1_445
Sn1 Ti2 2.778732 1_555
Sn1 Ti4 2.780913 1_555
Sn2 Ti6 2.775636 1_545
Sn2 Ti6 2.775636 1_455
Sn2 Ti6 2.775636 1_554
Sn2 Ti3 2.780423 1_555
Sn2 Ti2 2.781416 1_655
Sn2 Ti2 2.781416 1_565
Sn2 Ti2 2.781417 1_556
Sn2 Ti5 2.788257 1_555
Sn3 Ti3 2.775636 1_565
Sn3 Ti3 2.775636 1_655
Sn3 Ti3 2.775636 1_556
Sn3 Ti6 2.780423 1_555
Sn3 Ti7 2.781416 1_545
Sn3 Ti7 2.781416 1_455
Sn3 Ti7 2.781417 1_554
Sn3 Ti0 2.788257 1_555
