# generated using pymatgen
data_AlF3
_symmetry_space_group_name_H-M   'P 1'
_cell_length_a   5.11945381
_cell_length_b   5.11945381
_cell_length_c   6.34950900
_cell_angle_alpha   90.00000000
_cell_angle_beta   90.00000000
_cell_angle_gamma   119.99999757
_symmetry_Int_Tables_number   1
_chemical_formula_structural   AlF3
_chemical_formula_sum   'Al3 F9'
_cell_volume   144.11793930
_cell_formula_units_Z   3
loop_
 _symmetry_equiv_pos_site_id
 _symmetry_equiv_pos_as_xyz
  1  'x, y, z'
loop_
 _atom_site_type_symbol
 _atom_site_label
 _atom_site_symmetry_multiplicity
 _atom_site_fract_x
 _atom_site_fract_y
 _atom_site_fract_z
 _atom_site_occupancy
  Al  Al0  1  0.00000000  0.00000000  0.00000000  1
  Al  Al1  1  0.66666700  0.33333300  0.33349400  1
  Al  Al2  1  0.33333300  0.66666700  0.66650600  1
  F  F0  1  0.00000000  0.47648300  0.50000000  1
  F  F1  1  0.47648300  0.00000000  0.50000000  1
  F  F2  1  0.52351700  0.52351700  0.50000000  1
  F  F3  1  0.17479600  0.33347600  0.83334400  1
  F  F4  1  0.15868000  0.82520400  0.83334400  1
  F  F5  1  0.66652400  0.84132000  0.83334400  1
  F  F6  1  0.82520400  0.15868000  0.16665600  1
  F  F7  1  0.33347600  0.17479600  0.16665600  1
  F  F8  1  0.84132000  0.66652400  0.16665600  1
loop_
_geom_bond_atom_site_label_1
_geom_bond_atom_site_label_2
_geom_bond_distance
_geom_bond_site_symmetry_2
Al0 F4 1.818624 1_544
Al0 F6 1.818624 1_455
Al0 F5 1.818624 1_444
Al0 F8 1.818624 1_445
Al0 F3 1.818624 1_554
Al0 F7 1.818624 1_555
Al1 F6 1.818266 1_555
Al1 F8 1.818270 1_555
Al1 F7 1.818270 1_555
Al1 F0 1.821070 1_655
Al1 F1 1.821070 1_555
Al1 F2 1.821074 1_555
Al2 F4 1.818266 1_555
Al2 F5 1.818270 1_555
Al2 F3 1.818270 1_555
Al2 F1 1.821070 1_565
Al2 F0 1.821070 1_555
Al2 F2 1.821074 1_555
