# generated using pymatgen
data_Gd2Si2O7
_symmetry_space_group_name_H-M   'P 1'
_cell_length_a   6.74854100
_cell_length_b   6.62296900
_cell_length_c   12.72865550
_cell_angle_alpha   71.84367560
_cell_angle_beta   90.00000000
_cell_angle_gamma   90.00000000
_symmetry_Int_Tables_number   1
_chemical_formula_structural   Gd2Si2O7
_chemical_formula_sum   'Gd8 Si8 O28'
_cell_volume   540.58585724
_cell_formula_units_Z   4
loop_
 _symmetry_equiv_pos_site_id
 _symmetry_equiv_pos_as_xyz
  1  'x, y, z'
loop_
 _atom_site_type_symbol
 _atom_site_label
 _atom_site_symmetry_multiplicity
 _atom_site_fract_x
 _atom_site_fract_y
 _atom_site_fract_z
 _atom_site_occupancy
  Gd  Gd0  1  0.82991900  0.15755700  0.15131600  1
  Gd  Gd1  1  0.32991900  0.84244300  0.34868400  1
  Gd  Gd2  1  0.17008100  0.84244300  0.84868400  1
  Gd  Gd3  1  0.67008100  0.15755700  0.65131600  1
  Gd  Gd4  1  0.61115100  0.47205700  0.86294000  1
  Gd  Gd5  1  0.11115100  0.52794300  0.63706000  1
  Gd  Gd6  1  0.38884900  0.52794300  0.13706000  1
  Gd  Gd7  1  0.88884900  0.47205700  0.36294000  1
  Si  Si0  1  0.91830900  0.71149700  0.11140100  1
  Si  Si1  1  0.41830900  0.28850300  0.38859900  1
  Si  Si2  1  0.08169100  0.28850300  0.88859900  1
  Si  Si3  1  0.58169100  0.71149700  0.61140100  1
  Si  Si4  1  0.67134200  0.89653300  0.91453300  1
  Si  Si5  1  0.17134200  0.10346700  0.58546700  1
  Si  Si6  1  0.32865800  0.10346700  0.08546700  1
  Si  Si7  1  0.82865800  0.89653300  0.41453300  1
  O  O0  1  0.10502900  0.66362900  0.04264800  1
  O  O1  1  0.60502900  0.33637100  0.45735200  1
  O  O2  1  0.89497100  0.33637100  0.95735200  1
  O  O3  1  0.39497100  0.66362900  0.54264800  1
  O  O4  1  0.83070000  0.78336500  0.85402500  1
  O  O5  1  0.33070000  0.21663500  0.64597500  1
  O  O6  1  0.16930000  0.21663500  0.14597500  1
  O  O7  1  0.66930000  0.78336500  0.35402500  1
  O  O8  1  0.59487800  0.12820900  0.83866900  1
  O  O9  1  0.09487800  0.87179100  0.66133100  1
  O  O10  1  0.40512200  0.87179100  0.16133100  1
  O  O11  1  0.90512200  0.12820900  0.33866900  1
  O  O12  1  0.98131100  0.80144900  0.21238500  1
  O  O13  1  0.48131100  0.19855100  0.28761500  1
  O  O14  1  0.01868900  0.19855100  0.78761500  1
  O  O15  1  0.51868900  0.80144900  0.71238500  1
  O  O16  1  0.72224500  0.90759700  0.53150400  1
  O  O17  1  0.22224500  0.09240300  0.96849600  1
  O  O18  1  0.27775500  0.09240300  0.46849600  1
  O  O19  1  0.77775500  0.90759700  0.03150400  1
  O  O20  1  0.01509600  0.72479000  0.45029300  1
  O  O21  1  0.51509600  0.27521000  0.04970700  1
  O  O22  1  0.98490400  0.27521000  0.54970700  1
  O  O23  1  0.48490400  0.72479000  0.95029300  1
  O  O24  1  0.72365800  0.50214000  0.66823300  1
  O  O25  1  0.22365800  0.49786000  0.83176700  1
  O  O26  1  0.27634200  0.49786000  0.33176700  1
  O  O27  1  0.77634200  0.50214000  0.16823300  1
loop_
_geom_bond_atom_site_label_1
_geom_bond_atom_site_label_2
_geom_bond_distance
_geom_bond_site_symmetry_2
Gd0 O6 2.320934 1_655
Gd0 O27 2.385713 1_555
Gd0 O11 2.386107 1_555
Gd0 O2 2.422498 1_554
Gd0 O12 2.463327 1_545
Gd0 O21 2.483092 1_555
Gd0 O19 2.600717 1_545
Gd1 O7 2.320934 1_555
Gd1 O26 2.385713 1_555
Gd1 O10 2.386107 1_555
Gd1 O3 2.422498 1_555
Gd1 O13 2.463327 1_565
Gd1 O20 2.483092 1_555
Gd1 O18 2.600717 1_565
Gd2 O4 2.320934 1_455
Gd2 O25 2.385713 1_555
Gd2 O9 2.386107 1_555
Gd2 O0 2.422498 1_556
Gd2 O14 2.463327 1_565
Gd2 O23 2.483092 1_555
Gd2 O17 2.600717 1_565
Gd3 O5 2.320934 1_555
Gd3 O24 2.385713 1_555
Gd3 O8 2.386107 1_555
Gd3 O1 2.422498 1_555
Gd3 O15 2.463327 1_545
Gd3 O22 2.483092 1_555
Gd3 O16 2.600717 1_545
Gd4 O2 2.290708 1_555
Gd4 O8 2.394167 1_555
Gd4 O21 2.416575 1_556
Gd4 O23 2.433887 1_555
Gd4 O15 2.493092 1_555
Gd4 O4 2.512620 1_555
Gd4 O24 2.539821 1_555
Gd4 O25 2.642476 1_555
Gd5 O3 2.290708 1_555
Gd5 O9 2.394167 1_555
Gd5 O20 2.416575 1_555
Gd5 O22 2.433887 1_455
Gd5 O14 2.493092 1_555
Gd5 O5 2.512620 1_555
Gd5 O25 2.539821 1_555
Gd5 O24 2.642476 1_455
Gd6 O0 2.290708 1_555
Gd6 O10 2.394167 1_555
Gd6 O23 2.416575 1_554
Gd6 O21 2.433887 1_555
Gd6 O13 2.493092 1_555
Gd6 O6 2.512620 1_555
Gd6 O26 2.539821 1_555
Gd6 O27 2.642476 1_555
Gd7 O1 2.290708 1_555
Gd7 O11 2.394167 1_555
Gd7 O22 2.416575 1_555
Gd7 O20 2.433887 1_655
Gd7 O12 2.493092 1_555
Gd7 O7 2.512620 1_555
Gd7 O27 2.539821 1_555
Gd7 O26 2.642476 1_655
O0 Si0 1.620831 1_455
O1 Si1 1.620831 1_555
O2 Si2 1.620831 1_655
O3 Si3 1.620831 1_555
O4 Si4 1.634401 1_555
O5 Si5 1.634401 1_555
O6 Si6 1.634401 1_555
O7 Si7 1.634401 1_555
O8 Si4 1.621626 1_545
O9 Si5 1.621626 1_565
O10 Si6 1.621626 1_565
O11 Si7 1.621626 1_545
O12 Si0 1.632532 1_555
O13 Si1 1.632532 1_555
O14 Si2 1.632532 1_555
O15 Si3 1.632532 1_555
O16 Si3 1.672601 1_555
O16 Si7 1.675068 1_555
O17 Si2 1.672601 1_555
O17 Si6 1.675068 1_556
O18 Si1 1.672601 1_555
O18 Si5 1.675068 1_555
O19 Si0 1.672601 1_555
O19 Si4 1.675068 1_554
O20 Si7 1.661727 1_455
O21 Si6 1.661727 1_555
O22 Si5 1.661727 1_655
O23 Si4 1.661727 1_555
O24 Si3 1.654886 1_555
O25 Si2 1.654886 1_555
O26 Si1 1.654886 1_555
O27 Si0 1.654886 1_555
