# generated using pymatgen
data_Cr(CN)3
_symmetry_space_group_name_H-M   'P 1'
_cell_length_a   6.98271400
_cell_length_b   6.98031463
_cell_length_c   12.41129800
_cell_angle_alpha   90.00000000
_cell_angle_beta   90.00000000
_cell_angle_gamma   120.01137127
_symmetry_Int_Tables_number   1
_chemical_formula_structural   Cr(CN)3
_chemical_formula_sum   'Cr4 C12 N12'
_cell_volume   523.83837817
_cell_formula_units_Z   4
loop_
 _symmetry_equiv_pos_site_id
 _symmetry_equiv_pos_as_xyz
  1  'x, y, z'
loop_
 _atom_site_type_symbol
 _atom_site_label
 _atom_site_symmetry_multiplicity
 _atom_site_fract_x
 _atom_site_fract_y
 _atom_site_fract_z
 _atom_site_occupancy
  Cr  Cr0  1  0.33301600  0.66603300  0.25000000  1
  Cr  Cr1  1  0.66698400  0.33396700  0.75000000  1
  Cr  Cr2  1  0.00000000  0.00000000  0.50000000  1
  Cr  Cr3  1  0.00000000  0.00000000  0.00000000  1
  C  C0  1  0.73515500  0.86763200  0.40708200  1
  C  C1  1  0.13247800  0.86763200  0.40708200  1
  C  C2  1  0.13223200  0.26446400  0.40715600  1
  C  C3  1  0.26484500  0.13236800  0.59291800  1
  C  C4  1  0.86752200  0.13236800  0.59291800  1
  C  C5  1  0.86776800  0.73553600  0.59284400  1
  C  C6  1  0.26484500  0.13236800  0.90708200  1
  C  C7  1  0.86752200  0.13236800  0.90708200  1
  C  C8  1  0.86776800  0.73553600  0.90715600  1
  C  C9  1  0.73515500  0.86763200  0.09291800  1
  C  C10  1  0.13247800  0.86763200  0.09291800  1
  C  C11  1  0.13223200  0.26446400  0.09284400  1
  N  N0  1  0.58038200  0.79025000  0.34948000  1
  N  N1  1  0.20986700  0.79025000  0.34948000  1
  N  N2  1  0.20983700  0.41967500  0.34942400  1
  N  N3  1  0.41961800  0.20975000  0.65052000  1
  N  N4  1  0.79013300  0.20975000  0.65052000  1
  N  N5  1  0.79016300  0.58032500  0.65057600  1
  N  N6  1  0.41961800  0.20975000  0.84948000  1
  N  N7  1  0.79013300  0.20975000  0.84948000  1
  N  N8  1  0.79016300  0.58032500  0.84942400  1
  N  N9  1  0.58038200  0.79025000  0.15052000  1
  N  N10  1  0.20986700  0.79025000  0.15052000  1
  N  N11  1  0.20983700  0.41967500  0.15057600  1
loop_
_geom_bond_atom_site_label_1
_geom_bond_atom_site_label_2
_geom_bond_distance
_geom_bond_site_symmetry_2
Cr0 N2 1.933937 1_555
Cr0 N11 1.933937 1_555
Cr0 N9 1.939474 1_555
Cr0 N1 1.939474 1_555
Cr0 N0 1.939474 1_555
Cr0 N10 1.939474 1_555
Cr1 N8 1.933937 1_555
Cr1 N5 1.933937 1_555
Cr1 N4 1.939474 1_555
Cr1 N7 1.939474 1_555
Cr1 N3 1.939474 1_555
Cr1 N6 1.939474 1_555
C0 N0 1.177665 1_555
C0 Cr2 1.973422 1_665
C1 N1 1.177656 1_555
C1 Cr2 1.973427 1_565
C2 N2 1.180493 1_555
C2 Cr2 1.970570 1_555
C3 N3 1.177665 1_555
C3 Cr2 1.973422 1_555
C4 N4 1.177656 1_555
C4 Cr2 1.973427 1_655
C5 N5 1.180493 1_555
C5 Cr2 1.970570 1_665
C6 N6 1.177665 1_555
C6 Cr3 1.973422 1_556
C7 N7 1.177656 1_555
C7 Cr3 1.973427 1_656
C8 N8 1.180493 1_555
C8 Cr3 1.970570 1_666
C9 N9 1.177665 1_555
C9 Cr3 1.973422 1_665
C10 N10 1.177656 1_555
C10 Cr3 1.973427 1_565
C11 N11 1.180493 1_555
C11 Cr3 1.970570 1_555
