# generated using pymatgen
data_HfMg14MnO16
_symmetry_space_group_name_H-M   'P 1'
_cell_length_a   8.67616600
_cell_length_b   8.67836300
_cell_length_c   4.33429700
_cell_angle_alpha   90.00000000
_cell_angle_beta   90.00000000
_cell_angle_gamma   90.00000000
_symmetry_Int_Tables_number   1
_chemical_formula_structural   HfMg14MnO16
_chemical_formula_sum   'Hf1 Mg14 Mn1 O16'
_cell_volume   326.35053719
_cell_formula_units_Z   1
loop_
 _symmetry_equiv_pos_site_id
 _symmetry_equiv_pos_as_xyz
  1  'x, y, z'
loop_
 _atom_site_type_symbol
 _atom_site_label
 _atom_site_symmetry_multiplicity
 _atom_site_fract_x
 _atom_site_fract_y
 _atom_site_fract_z
 _atom_site_occupancy
  Hf  Hf0  1  0.00000000  0.50000000  0.00000000  1
  Mg  Mg0  1  0.50000000  0.00000000  0.00000000  1
  Mg  Mg1  1  0.50000000  0.50000000  0.00000000  1
  Mg  Mg2  1  0.00000000  0.24229700  0.50000000  1
  Mg  Mg3  1  0.00000000  0.75770300  0.50000000  1
  Mg  Mg4  1  0.50000000  0.24856800  0.50000000  1
  Mg  Mg5  1  0.50000000  0.75143200  0.50000000  1
  Mg  Mg6  1  0.25233200  0.00000000  0.50000000  1
  Mg  Mg7  1  0.25725400  0.50000000  0.50000000  1
  Mg  Mg8  1  0.74766800  0.00000000  0.50000000  1
  Mg  Mg9  1  0.74274600  0.50000000  0.50000000  1
  Mg  Mg10  1  0.25619000  0.24481000  0.00000000  1
  Mg  Mg11  1  0.25619000  0.75519000  0.00000000  1
  Mg  Mg12  1  0.74381000  0.24481000  0.00000000  1
  Mg  Mg13  1  0.74381000  0.75519000  0.00000000  1
  Mn  Mn0  1  0.00000000  0.00000000  0.00000000  1
  O  O0  1  0.25862800  0.00000000  0.00000000  1
  O  O1  1  0.25388100  0.50000000  0.00000000  1
  O  O2  1  0.74137200  0.00000000  0.00000000  1
  O  O3  1  0.74611900  0.50000000  0.00000000  1
  O  O4  1  0.24818700  0.25049200  0.50000000  1
  O  O5  1  0.24818700  0.74950800  0.50000000  1
  O  O6  1  0.75181300  0.25049200  0.50000000  1
  O  O7  1  0.75181300  0.74950800  0.50000000  1
  O  O8  1  0.00000000  0.00000000  0.50000000  1
  O  O9  1  0.00000000  0.50000000  0.50000000  1
  O  O10  1  0.50000000  0.00000000  0.50000000  1
  O  O11  1  0.50000000  0.50000000  0.50000000  1
  O  O12  1  0.00000000  0.25367100  0.00000000  1
  O  O13  1  0.00000000  0.74632900  0.00000000  1
  O  O14  1  0.50000000  0.25133600  0.00000000  1
  O  O15  1  0.50000000  0.74866400  0.00000000  1
loop_
_geom_bond_atom_site_label_1
_geom_bond_atom_site_label_2
_geom_bond_distance
_geom_bond_site_symmetry_2
Hf0 O12 2.137732 1_555
Hf0 O13 2.137732 1_555
Hf0 O9 2.167149 1_555
Hf0 O9 2.167149 1_554
Hf0 O3 2.202714 1_455
Hf0 O1 2.202714 1_555
Mg0 O0 2.094184 1_555
Mg0 O2 2.094184 1_555
Mg0 O10 2.167149 1_555
Mg0 O10 2.167149 1_554
Mg0 O15 2.181185 1_545
Mg0 O14 2.181185 1_555
Mg1 O3 2.135369 1_555
Mg1 O1 2.135369 1_555
Mg1 O14 2.157996 1_555
Mg1 O15 2.157996 1_555
Mg1 O11 2.167149 1_554
Mg1 O11 2.167149 1_555
Mg2 O8 2.102741 1_555
Mg2 O4 2.154486 1_555
Mg2 O6 2.154486 1_455
Mg2 O12 2.169395 1_556
Mg2 O12 2.169395 1_555
Mg2 O9 2.236440 1_555
Mg3 O8 2.102741 1_565
Mg3 O5 2.154486 1_555
Mg3 O7 2.154486 1_455
Mg3 O13 2.169395 1_556
Mg3 O13 2.169395 1_555
Mg3 O9 2.236440 1_555
Mg4 O10 2.157163 1_555
Mg4 O14 2.167282 1_556
Mg4 O14 2.167282 1_555
Mg4 O11 2.182018 1_555
Mg4 O6 2.184835 1_555
Mg4 O4 2.184835 1_555
Mg5 O10 2.157163 1_565
Mg5 O15 2.167282 1_556
Mg5 O15 2.167282 1_555
Mg5 O11 2.182018 1_555
Mg5 O7 2.184835 1_555
Mg5 O5 2.184835 1_555
Mg6 O10 2.148809 1_555
Mg6 O0 2.167837 1_555
Mg6 O0 2.167837 1_556
Mg6 O4 2.174158 1_555
Mg6 O5 2.174158 1_545
Mg6 O8 2.189274 1_555
Mg7 O11 2.106105 1_555
Mg7 O5 2.166750 1_555
Mg7 O4 2.166750 1_555
Mg7 O1 2.167346 1_556
Mg7 O1 2.167346 1_555
Mg7 O9 2.231978 1_555
Mg8 O10 2.148809 1_555
Mg8 O2 2.167837 1_556
Mg8 O2 2.167837 1_555
Mg8 O6 2.174158 1_555
Mg8 O7 2.174158 1_545
Mg8 O8 2.189274 1_655
Mg9 O11 2.106105 1_555
Mg9 O7 2.166750 1_555
Mg9 O6 2.166750 1_555
Mg9 O3 2.167346 1_556
Mg9 O3 2.167346 1_555
Mg9 O9 2.231978 1_655
Mg10 O14 2.116094 1_555
Mg10 O0 2.124655 1_555
Mg10 O4 2.168821 1_554
Mg10 O4 2.168821 1_555
Mg10 O1 2.214722 1_555
Mg10 O12 2.224077 1_555
Mg11 O15 2.116094 1_555
Mg11 O0 2.124655 1_565
Mg11 O5 2.168821 1_554
Mg11 O5 2.168821 1_555
Mg11 O1 2.214722 1_555
Mg11 O13 2.224077 1_555
Mg12 O14 2.116094 1_555
Mg12 O2 2.124655 1_555
Mg12 O6 2.168821 1_554
Mg12 O6 2.168821 1_555
Mg12 O3 2.214722 1_555
Mg12 O12 2.224077 1_655
Mg13 O15 2.116094 1_555
Mg13 O2 2.124655 1_565
Mg13 O7 2.168821 1_555
Mg13 O7 2.168821 1_554
Mg13 O3 2.214722 1_555
Mg13 O13 2.224077 1_655
Mn0 O8 2.167149 1_554
Mn0 O8 2.167149 1_555
Mn0 O13 2.201449 1_545
Mn0 O12 2.201449 1_555
Mn0 O2 2.243899 1_455
Mn0 O0 2.243899 1_555
