# generated using pymatgen
data_Tb2MnSbO7
_symmetry_space_group_name_H-M   'P 1'
_cell_length_a   7.33561938
_cell_length_b   7.33561938
_cell_length_c   7.33561938
_cell_angle_alpha   121.68410471
_cell_angle_beta   118.63933783
_cell_angle_gamma   89.74044119
_symmetry_Int_Tables_number   1
_chemical_formula_structural   Tb2MnSbO7
_chemical_formula_sum   'Tb4 Mn2 Sb2 O14'
_cell_volume   278.19030471
_cell_formula_units_Z   2
loop_
 _symmetry_equiv_pos_site_id
 _symmetry_equiv_pos_as_xyz
  1  'x, y, z'
loop_
 _atom_site_type_symbol
 _atom_site_label
 _atom_site_symmetry_multiplicity
 _atom_site_fract_x
 _atom_site_fract_y
 _atom_site_fract_z
 _atom_site_occupancy
  Tb  Tb0  1  0.00000000  0.50000000  0.00000000  1
  Tb  Tb1  1  0.00000000  0.00000000  0.50000000  1
  Tb  Tb2  1  0.00000000  0.50000000  0.50000000  1
  Tb  Tb3  1  0.50000000  0.50000000  0.00000000  1
  Mn  Mn0  1  0.50000000  0.00000000  0.00000000  1
  Mn  Mn1  1  0.50000000  0.50000000  0.50000000  1
  Sb  Sb0  1  0.50000000  0.00000000  0.50000000  1
  Sb  Sb1  1  0.00000000  0.00000000  0.00000000  1
  O  O0  1  0.87304100  0.62304100  0.25000000  1
  O  O1  1  0.12695900  0.37695900  0.75000000  1
  O  O2  1  0.82793500  0.07793500  0.75000000  1
  O  O3  1  0.41867900  0.66867900  0.75000000  1
  O  O4  1  0.84194300  0.66687800  0.76028400  1
  O  O5  1  0.40659400  0.08165900  0.73971600  1
  O  O6  1  0.84194300  0.08165900  0.17506500  1
  O  O7  1  0.40659400  0.66687800  0.32493500  1
  O  O8  1  0.17206500  0.92206500  0.25000000  1
  O  O9  1  0.58132100  0.33132100  0.25000000  1
  O  O10  1  0.15805700  0.33312200  0.23971600  1
  O  O11  1  0.59340600  0.91834100  0.26028400  1
  O  O12  1  0.15805700  0.91834100  0.82493500  1
  O  O13  1  0.59340600  0.33312200  0.67506500  1
loop_
_geom_bond_atom_site_label_1
_geom_bond_atom_site_label_2
_geom_bond_distance
_geom_bond_site_symmetry_2
Mn0 O3 1.976969 1_544
Mn0 O9 1.976969 1_555
Mn0 O6 2.101799 1_555
Mn0 O11 2.101799 1_545
Mn0 O12 2.101799 1_544
Mn0 O5 2.101799 1_554
Mn1 O9 1.976969 1_555
Mn1 O3 1.976969 1_555
Mn1 O13 2.101799 1_555
Mn1 O4 2.101799 1_555
Mn1 O7 2.101799 1_555
Mn1 O10 2.101799 1_555
O0 Tb0 2.221721 1_655
O0 Tb1 2.221721 1_665
O0 Tb2 2.266974 1_655
O0 Tb3 2.266974 1_555
O1 Tb1 2.221721 1_555
O1 Tb0 2.221721 1_556
O1 Tb3 2.266974 1_556
O1 Tb2 2.266974 1_555
O2 Sb1 2.039394 1_656
O2 Sb0 2.039394 1_555
O2 Tb1 2.528678 1_655
O2 Tb0 2.528678 1_656
O3 Tb2 2.564858 1_555
O3 Tb3 2.564858 1_556
O4 Sb1 1.991297 1_666
O4 Tb2 2.478389 1_655
O4 Tb0 2.495810 1_656
O5 Sb0 1.991297 1_555
O5 Tb3 2.478389 1_556
O5 Tb1 2.495810 1_555
O6 Sb1 1.991297 1_655
O6 Tb2 2.478389 1_655
O6 Tb1 2.495810 1_655
O7 Sb0 1.991297 1_565
O7 Tb3 2.478389 1_555
O7 Tb0 2.495810 1_555
O8 Sb0 2.039394 1_565
O8 Sb1 2.039394 1_565
O8 Tb0 2.528678 1_555
O8 Tb1 2.528678 1_565
O9 Tb2 2.564858 1_655
O9 Tb3 2.564858 1_555
O10 Sb1 1.991297 1_555
O10 Tb2 2.478389 1_555
O10 Tb0 2.495810 1_555
O11 Sb0 1.991297 1_565
O11 Tb3 2.478389 1_555
O11 Tb1 2.495810 1_665
O12 Sb1 1.991297 1_566
O12 Tb2 2.478389 1_555
O12 Tb1 2.495810 1_565
O13 Sb0 1.991297 1_555
O13 Tb3 2.478389 1_556
O13 Tb0 2.495810 1_656
