# generated using pymatgen
data_Li7Mn5O12
_symmetry_space_group_name_H-M   'P 1'
_cell_length_a   6.49941644
_cell_length_b   7.74179195
_cell_length_c   9.90965979
_cell_angle_alpha   94.46958426
_cell_angle_beta   98.96058241
_cell_angle_gamma   114.15971174
_symmetry_Int_Tables_number   1
_chemical_formula_structural   Li7Mn5O12
_chemical_formula_sum   'Li14 Mn10 O24'
_cell_volume   443.81050316
_cell_formula_units_Z   2
loop_
 _symmetry_equiv_pos_site_id
 _symmetry_equiv_pos_as_xyz
  1  'x, y, z'
loop_
 _atom_site_type_symbol
 _atom_site_label
 _atom_site_symmetry_multiplicity
 _atom_site_fract_x
 _atom_site_fract_y
 _atom_site_fract_z
 _atom_site_occupancy
  Li  Li0  1  0.32865700  0.41511700  0.07970100  1
  Li  Li1  1  0.33790700  0.91817000  0.58689200  1
  Li  Li2  1  0.17943900  0.70033200  0.05062700  1
  Li  Li3  1  0.17062000  0.19483800  0.54356200  1
  Li  Li4  1  0.48691800  0.63333700  0.61557800  1
  Li  Li5  1  0.49635100  0.13825000  0.12348000  1
  Li  Li6  1  0.84810500  0.05474800  0.71988500  1
  Li  Li7  1  0.84367800  0.54787500  0.21958100  1
  Li  Li8  1  0.82323900  0.78555000  0.44672900  1
  Li  Li9  1  0.81848900  0.27871300  0.94709700  1
  Li  Li10  1  0.17293100  0.46936800  0.79815400  1
  Li  Li11  1  0.15227600  0.94750500  0.28712300  1
  Li  Li12  1  0.51473200  0.38568500  0.37955400  1
  Li  Li13  1  0.49294000  0.86390400  0.86812500  1
  Mn  Mn0  1  0.33323800  0.66677700  0.33339400  1
  Mn  Mn1  1  0.33334200  0.16659100  0.83334400  1
  Mn  Mn2  1  0.00574300  0.00370000  0.00525800  1
  Mn  Mn3  1  0.01176000  0.51031500  0.50691500  1
  Mn  Mn4  1  0.65457600  0.82291900  0.15970200  1
  Mn  Mn5  1  0.66079800  0.32951300  0.66145100  1
  Mn  Mn6  1  0.00326200  0.25233700  0.25059300  1
  Mn  Mn7  1  0.01079100  0.75483900  0.75064500  1
  Mn  Mn8  1  0.66387700  0.08119700  0.41609900  1
  Mn  Mn9  1  0.65574100  0.57830100  0.91595700  1
  O  O0  1  0.74960000  0.29578800  0.31003000  1
  O  O1  1  0.78472900  0.82044000  0.83336800  1
  O  O2  1  0.91709800  0.03750500  0.35644100  1
  O  O3  1  0.88208000  0.51282500  0.83343800  1
  O  O4  1  0.08788000  0.21095400  0.89899500  1
  O  O5  1  0.09070000  0.71711200  0.39717800  1
  O  O6  1  0.57598500  0.61643400  0.26968300  1
  O  O7  1  0.57877100  0.12215800  0.76760700  1
  O  O8  1  0.42397900  0.63875300  0.97331800  1
  O  O9  1  0.45555200  0.16550800  0.49522300  1
  O  O10  1  0.24282100  0.69464800  0.69340000  1
  O  O11  1  0.21135700  0.16786100  0.17167000  1
  O  O12  1  0.75645800  0.04604400  0.05951200  1
  O  O13  1  0.75438200  0.55192100  0.56430300  1
  O  O14  1  0.91023700  0.28725800  0.60717300  1
  O  O15  1  0.91216700  0.78139900  0.10243500  1
  O  O16  1  0.10460600  0.48948900  0.17238500  1
  O  O17  1  0.10707900  0.99160900  0.67375500  1
  O  O18  1  0.56242000  0.84407400  0.49421100  1
  O  O19  1  0.55946400  0.34152700  0.99297400  1
  O  O20  1  0.41327100  0.87578800  0.22774700  1
  O  O21  1  0.41407900  0.37365200  0.72368700  1
  O  O22  1  0.25330200  0.45793600  0.43897200  1
  O  O23  1  0.25257300  0.95943000  0.94305500  1
loop_
_geom_bond_atom_site_label_1
_geom_bond_atom_site_label_2
_geom_bond_distance
_geom_bond_site_symmetry_2
Li0 O8 2.025505 1_554
Li0 O16 2.077533 1_555
Li0 O19 2.082887 1_554
Li0 O11 2.090406 1_555
Li0 O4 2.194341 1_554
Li0 O6 2.259789 1_555
Li1 O10 2.025556 1_555
Li1 O18 2.079040 1_555
Li1 O17 2.083062 1_555
Li1 O9 2.089369 1_565
Li1 O7 2.194070 1_565
Li1 O5 2.257110 1_555
Li2 O16 2.048589 1_555
Li2 O8 2.069513 1_554
Li2 O20 2.084025 1_555
Li2 O15 2.189756 1_455
Li2 O23 2.257546 1_554
Li2 O3 2.528929 1_454
Li3 O17 2.064224 1_545
Li3 O9 2.077046 1_555
Li3 O21 2.132677 1_555
Li3 O2 2.165742 1_455
Li3 O14 2.241982 1_455
Li3 O22 2.262373 1_555
Li4 O18 2.045330 1_555
Li4 O10 2.068202 1_555
Li4 O22 2.079987 1_555
Li4 O13 2.190776 1_555
Li4 O21 2.264570 1_555
Li4 O1 2.533586 1_555
Li5 O19 2.066757 1_554
Li5 O11 2.077899 1_555
Li5 O23 2.135403 1_544
Li5 O0 2.161408 1_555
Li5 O12 2.240638 1_555
Li5 O20 2.256283 1_545
Li6 O17 2.039445 1_645
Li6 O4 2.074256 1_655
Li6 O14 2.123590 1_555
Li6 O7 2.127793 1_555
Li6 O1 2.139026 1_545
Li7 O16 2.034863 1_655
Li7 O5 2.104790 1_655
Li7 O0 2.110115 1_555
Li7 O6 2.130545 1_555
Li7 O15 2.154901 1_555
Li8 O18 2.035737 1_555
Li8 O6 2.101484 1_555
Li8 O2 2.108425 1_565
Li8 O5 2.126719 1_655
Li8 O13 2.158124 1_555
Li9 O19 2.037518 1_555
Li9 O7 2.077293 1_555
Li9 O12 2.122810 1_556
Li9 O4 2.130924 1_655
Li9 O3 2.138782 1_555
Li10 O10 2.026401 1_555
Li10 O8 2.099165 1_555
Li10 O3 2.125340 1_455
Li10 O21 2.185384 1_555
Li10 O4 2.210192 1_555
Li10 O14 2.256481 1_455
Li11 O11 2.066766 1_565
Li11 O5 2.094242 1_555
Li11 O2 2.101895 1_465
Li11 O15 2.130592 1_455
Li11 O20 2.136096 1_555
Li11 O9 2.540588 1_565
Li12 O9 2.067012 1_555
Li12 O6 2.095526 1_555
Li12 O0 2.100420 1_555
Li12 O13 2.130206 1_555
Li12 O22 2.141253 1_555
Li12 O11 2.539071 1_555
Li13 O8 2.028566 1_555
Li13 O10 2.093696 1_555
Li13 O1 2.129831 1_555
Li13 O23 2.181829 1_555
Li13 O7 2.207109 1_565
Li13 O12 2.261230 1_566
Mn0 O22 1.929762 1_555
Mn0 O20 1.931226 1_555
Mn0 O5 1.952201 1_555
Mn0 O6 1.953195 1_555
Mn0 O16 1.971884 1_555
Mn0 O18 1.971924 1_555
Mn1 O21 1.945880 1_555
Mn1 O23 1.946826 1_545
Mn1 O19 1.951678 1_555
Mn1 O17 1.951848 1_545
Mn1 O4 1.955348 1_555
Mn1 O7 1.955789 1_555
Mn2 O12 1.923601 1_455
Mn2 O4 1.925005 1_554
Mn2 O11 1.927994 1_555
Mn2 O23 1.948392 1_544
Mn2 O15 1.960377 1_445
Mn2 O1 2.042224 1_444
Mn3 O5 1.944663 1_555
Mn3 O22 1.972332 1_555
Mn3 O13 1.983507 1_455
Mn3 O14 1.985807 1_455
Mn3 O10 2.162658 1_555
Mn3 O0 2.368792 1_455
Mn4 O6 1.944407 1_555
Mn4 O20 1.973266 1_555
Mn4 O15 1.984020 1_555
Mn4 O12 1.985924 1_565
Mn4 O8 2.160686 1_554
Mn4 O2 2.368715 1_565
Mn5 O14 1.924312 1_555
Mn5 O7 1.924892 1_555
Mn5 O9 1.925658 1_555
Mn5 O21 1.947356 1_555
Mn5 O13 1.960858 1_555
Mn5 O3 2.043510 1_555
Mn6 O16 1.948390 1_555
Mn6 O11 1.960221 1_555
Mn6 O2 1.967867 1_455
Mn6 O0 1.975784 1_455
Mn6 O22 2.265796 1_555
Mn6 O12 2.279189 1_455
Mn7 O10 1.900978 1_555
Mn7 O17 1.938923 1_555
Mn7 O1 2.002450 1_455
Mn7 O3 2.013407 1_455
Mn7 O13 2.258596 1_455
Mn7 O23 2.274259 1_555
Mn8 O18 1.947715 1_545
Mn8 O9 1.961761 1_555
Mn8 O0 1.967779 1_555
Mn8 O2 1.974881 1_555
Mn8 O20 2.266226 1_545
Mn8 O14 2.277689 1_555
Mn9 O8 1.900909 1_555
Mn9 O19 1.939600 1_555
Mn9 O3 2.002550 1_555
Mn9 O1 2.013251 1_555
Mn9 O15 2.259966 1_556
Mn9 O21 2.273262 1_555
