# generated using pymatgen
data_Li5Fe3(SbO5)2
_symmetry_space_group_name_H-M   'P 1'
_cell_length_a   5.35624000
_cell_length_b   5.36501694
_cell_length_c   8.23978194
_cell_angle_alpha   108.09095926
_cell_angle_beta   102.59830607
_cell_angle_gamma   100.70295041
_symmetry_Int_Tables_number   1
_chemical_formula_structural   Li5Fe3(SbO5)2
_chemical_formula_sum   'Li5 Fe3 Sb2 O10'
_cell_volume   211.29983780
_cell_formula_units_Z   1
loop_
 _symmetry_equiv_pos_site_id
 _symmetry_equiv_pos_as_xyz
  1  'x, y, z'
loop_
 _atom_site_type_symbol
 _atom_site_label
 _atom_site_symmetry_multiplicity
 _atom_site_fract_x
 _atom_site_fract_y
 _atom_site_fract_z
 _atom_site_occupancy
  Li  Li0  1  0.89476300  0.22994700  0.60166300  1
  Li  Li1  1  0.29879000  0.41096900  0.20455800  1
  Li  Li2  1  0.50000000  0.50000000  0.50000000  1
  Li  Li3  1  0.70121000  0.58903100  0.79544200  1
  Li  Li4  1  0.10523700  0.77005300  0.39833700  1
  Fe  Fe0  1  0.50000000  0.00000000  0.00000000  1
  Fe  Fe1  1  0.89867800  0.70205400  0.10242800  1
  Fe  Fe2  1  0.10132200  0.29794600  0.89757200  1
  Sb  Sb0  1  0.70979100  0.10996100  0.30028400  1
  Sb  Sb1  1  0.29020900  0.89003900  0.69971600  1
  O  O0  1  0.08035100  0.05465600  0.15676800  1
  O  O1  1  0.69945000  0.34230800  0.06438600  1
  O  O2  1  0.32730900  0.13898200  0.45370400  1
  O  O3  1  0.48702000  0.21652100  0.75903300  1
  O  O4  1  0.90088600  0.44281200  0.34371200  1
  O  O5  1  0.09911400  0.55718800  0.65628800  1
  O  O6  1  0.51298000  0.78347900  0.24096700  1
  O  O7  1  0.67269100  0.86101800  0.54629600  1
  O  O8  1  0.30055000  0.65769200  0.93561400  1
  O  O9  1  0.91964900  0.94534400  0.84323200  1
loop_
_geom_bond_atom_site_label_1
_geom_bond_atom_site_label_2
_geom_bond_distance
_geom_bond_site_symmetry_2
Li0 O5 1.750288 1_655
Li0 O7 1.966885 1_545
Li1 O0 1.918087 1_555
Li1 O6 2.006528 1_555
Li2 O7 1.863952 1_555
Li2 O2 1.863952 1_555
Li3 O9 1.918087 1_555
Li3 O3 2.006528 1_555
Li4 O4 1.750288 1_455
Li4 O2 1.966885 1_565
Fe0 O8 1.792863 1_544
Fe0 O1 1.792863 1_555
Fe1 O0 1.823765 1_665
Fe1 O1 1.917136 1_555
Fe2 O9 1.823765 1_445
Fe2 O8 1.917136 1_555
O3 Sb1 1.725082 1_545
O4 Sb0 1.768917 1_555
O5 Sb1 1.768917 1_555
O6 Sb0 1.725082 1_565
