# generated using pymatgen
data_LaNiAs
_symmetry_space_group_name_H-M   'P 1'
_cell_length_a   4.16314569
_cell_length_b   4.16314569
_cell_length_c   16.40022402
_cell_angle_alpha   90.00000000
_cell_angle_beta   90.00000000
_cell_angle_gamma   120.00000582
_symmetry_Int_Tables_number   1
_chemical_formula_structural   LaNiAs
_chemical_formula_sum   'La4 Ni4 As4'
_cell_volume   246.16346962
_cell_formula_units_Z   4
loop_
 _symmetry_equiv_pos_site_id
 _symmetry_equiv_pos_as_xyz
  1  'x, y, z'
loop_
 _atom_site_type_symbol
 _atom_site_label
 _atom_site_symmetry_multiplicity
 _atom_site_fract_x
 _atom_site_fract_y
 _atom_site_fract_z
 _atom_site_occupancy
  La  La0  1  0.00000000  -0.00000000  0.25000000  1
  La  La1  1  0.00000000  -0.00000000  0.75000000  1
  La  La2  1  0.00000000  -0.00000000  0.00000000  1
  La  La3  1  0.00000000  -0.00000000  0.50000000  1
  Ni  Ni0  1  0.33333300  0.66666700  0.12716503  1
  Ni  Ni1  1  0.66666700  0.33333300  0.87283497  1
  Ni  Ni2  1  0.66666700  0.33333300  0.62716503  1
  Ni  Ni3  1  0.33333300  0.66666700  0.37283497  1
  As  As0  1  0.33333300  0.66666700  0.62378036  1
  As  As1  1  0.66666700  0.33333300  0.37621964  1
  As  As2  1  0.66666700  0.33333300  0.12378036  1
  As  As3  1  0.33333300  0.66666700  0.87621964  1
loop_
_geom_bond_atom_site_label_1
_geom_bond_atom_site_label_2
_geom_bond_distance
_geom_bond_site_symmetry_2
La0 Ni3 3.136167 1_545
La0 Ni0 3.136167 1_545
La0 Ni3 3.136170 1_555
La0 Ni3 3.136170 1_445
La0 Ni0 3.136170 1_445
La0 Ni0 3.136170 1_555
La1 Ni1 3.136167 1_455
La1 Ni2 3.136167 1_455
La1 Ni1 3.136170 1_445
La1 Ni1 3.136170 1_555
La1 Ni2 3.136170 1_445
La1 Ni2 3.136170 1_555
La2 Ni0 3.182249 1_545
La2 Ni1 3.182249 1_454
La2 Ni1 3.182251 1_444
La2 Ni0 3.182251 1_445
La2 Ni1 3.182251 1_554
La2 Ni0 3.182251 1_555
La3 Ni3 3.182249 1_545
La3 Ni2 3.182249 1_455
La3 Ni3 3.182251 1_445
La3 Ni2 3.182251 1_445
La3 Ni2 3.182251 1_555
La3 Ni3 3.182251 1_555
As0 Ni2 2.404232 1_455
As0 Ni2 2.404232 1_565
As0 Ni2 2.404239 1_555
As0 La3 3.146149 1_565
As0 La3 3.146152 1_665
As0 La3 3.146152 1_555
As0 La1 3.172109 1_565
As0 La1 3.172112 1_555
As0 La1 3.172112 1_665
As1 Ni3 2.404232 1_545
As1 Ni3 2.404232 1_655
As1 Ni3 2.404239 1_555
As1 La3 3.146149 1_655
As1 La3 3.146152 1_555
As1 La3 3.146152 1_665
As1 La0 3.172109 1_655
As1 La0 3.172112 1_555
As1 La0 3.172112 1_665
As2 Ni0 2.404232 1_545
As2 Ni0 2.404232 1_655
As2 Ni0 2.404239 1_555
As2 La2 3.146149 1_655
As2 La2 3.146152 1_555
As2 La2 3.146152 1_665
As2 La0 3.172109 1_655
As2 La0 3.172112 1_555
As2 La0 3.172112 1_665
As3 Ni1 2.404232 1_455
As3 Ni1 2.404232 1_565
As3 Ni1 2.404239 1_555
As3 La2 3.146149 1_566
As3 La2 3.146152 1_666
As3 La2 3.146152 1_556
As3 La1 3.172109 1_565
As3 La1 3.172112 1_555
As3 La1 3.172112 1_665
