# generated using pymatgen
data_Li2TiFeO4
_symmetry_space_group_name_H-M   'P 1'
_cell_length_a   5.26536143
_cell_length_b   5.98149628
_cell_length_c   10.35529899
_cell_angle_alpha   73.48393543
_cell_angle_beta   80.78252433
_cell_angle_gamma   90.06692515
_symmetry_Int_Tables_number   1
_chemical_formula_structural   Li2TiFeO4
_chemical_formula_sum   'Li8 Ti4 Fe4 O16'
_cell_volume   308.26742192
_cell_formula_units_Z   4
loop_
 _symmetry_equiv_pos_site_id
 _symmetry_equiv_pos_as_xyz
  1  'x, y, z'
loop_
 _atom_site_type_symbol
 _atom_site_label
 _atom_site_symmetry_multiplicity
 _atom_site_fract_x
 _atom_site_fract_y
 _atom_site_fract_z
 _atom_site_occupancy
  Li  Li0  1  0.50009500  0.75002300  0.49994800  1
  Li  Li1  1  0.49999800  0.24996500  0.50004700  1
  Li  Li2  1  0.00094600  0.50396900  0.99326500  1
  Li  Li3  1  0.99903000  0.99602700  0.00675000  1
  Li  Li4  1  0.50001700  0.25005000  0.99999300  1
  Li  Li5  1  0.50003300  0.74998200  0.00000000  1
  Li  Li6  1  0.99999500  0.99959700  0.50000700  1
  Li  Li7  1  0.99999300  0.50036900  0.50000100  1
  Ti  Ti0  1  0.22935300  0.37858500  0.24291400  1
  Ti  Ti1  1  0.27034200  0.87149200  0.25647700  1
  Ti  Ti2  1  0.77061900  0.12138300  0.75713300  1
  Ti  Ti3  1  0.72965000  0.62850700  0.74348600  1
  Fe  Fe0  1  0.25023000  0.87548400  0.74989500  1
  Fe  Fe1  1  0.74981100  0.62449800  0.25009800  1
  Fe  Fe2  1  0.25008400  0.37473600  0.74989700  1
  Fe  Fe3  1  0.74990000  0.12532500  0.25007500  1
  O  O0  1  0.41269500  0.56607000  0.86961600  1
  O  O1  1  0.40102000  0.07337200  0.85536900  1
  O  O2  1  0.91269200  0.31672000  0.36828600  1
  O  O3  1  0.90006900  0.82271900  0.35649400  1
  O  O4  1  0.08732400  0.18332900  0.63173600  1
  O  O5  1  0.09986100  0.67734200  0.64350200  1
  O  O6  1  0.58727900  0.93386400  0.13037800  1
  O  O7  1  0.59900900  0.42659900  0.14463700  1
  O  O8  1  0.35774400  0.06043800  0.36740200  1
  O  O9  1  0.35802800  0.57271700  0.36687100  1
  O  O10  1  0.85851300  0.82122700  0.86707200  1
  O  O11  1  0.85809600  0.31210100  0.86744900  1
  O  O12  1  0.14148600  0.67874500  0.13292400  1
  O  O13  1  0.14188900  0.18792700  0.13254300  1
  O  O14  1  0.64224100  0.43953100  0.63259600  1
  O  O15  1  0.64195800  0.92730600  0.63313900  1
loop_
_geom_bond_atom_site_label_1
_geom_bond_atom_site_label_2
_geom_bond_distance
_geom_bond_site_symmetry_2
Li0 O9 2.177777 1_555
Li0 O15 2.178183 1_555
Li0 O8 2.185646 1_565
Li0 O14 2.185942 1_555
Li0 O3 2.336541 1_555
Li0 O5 2.338088 1_555
Li1 O14 2.223260 1_555
Li1 O8 2.223937 1_555
Li1 O15 2.236976 1_545
Li1 O9 2.237750 1_555
Li1 O4 2.340844 1_555
Li1 O2 2.341222 1_555
Li2 O11 2.177701 1_455
Li2 O10 2.186001 1_455
Li2 O12 2.220965 1_556
Li2 O13 2.236176 1_556
Li2 O0 2.305665 1_555
Li2 O7 2.381730 1_456
Li3 O13 2.177664 1_665
Li3 O12 2.186075 1_655
Li3 O10 2.221171 1_554
Li3 O11 2.236391 1_564
Li3 O6 2.305597 1_555
Li3 O1 2.381991 1_664
Li4 O0 2.087382 1_555
Li4 O6 2.088032 1_546
Li4 O11 2.110943 1_555
Li4 O13 2.111170 1_556
Li4 O7 2.185986 1_556
Li4 O1 2.186340 1_555
Li5 O6 2.070117 1_555
Li5 O0 2.070456 1_554
Li5 O10 2.114561 1_554
Li5 O12 2.114819 1_555
Li5 O7 2.204913 1_555
Li5 O1 2.204980 1_564
Li6 O4 2.081367 1_665
Li6 O2 2.098040 1_565
Li6 O8 2.109947 1_665
Li6 O15 2.113781 1_555
Li6 O3 2.178967 1_555
Li6 O5 2.196402 1_655
Li7 O2 2.080842 1_555
Li7 O4 2.097793 1_655
Li7 O14 2.109913 1_555
Li7 O9 2.113770 1_655
Li7 O5 2.179140 1_655
Li7 O3 2.196956 1_555
Fe0 O1 2.057924 1_565
Fe0 O5 2.065190 1_555
Fe0 O4 2.163895 1_565
Fe0 O0 2.175532 1_555
Fe0 O15 2.190583 1_555
Fe0 O10 2.191911 1_455
Fe1 O7 2.057900 1_555
Fe1 O3 2.065283 1_555
Fe1 O2 2.163671 1_555
Fe1 O6 2.175502 1_555
Fe1 O9 2.190898 1_555
Fe1 O12 2.191712 1_655
Fe2 O1 2.058133 1_555
Fe2 O5 2.065048 1_555
Fe2 O4 2.161609 1_555
Fe2 O0 2.173538 1_555
Fe2 O11 2.194556 1_455
Fe2 O14 2.194588 1_555
Fe3 O7 2.057509 1_555
Fe3 O3 2.065000 1_545
Fe3 O2 2.162046 1_555
Fe3 O6 2.173908 1_545
Fe3 O13 2.194484 1_655
Fe3 O8 2.194688 1_555
O0 Ti3 1.911405 1_555
O1 Ti2 2.025555 1_555
O2 Ti0 1.906401 1_655
O3 Ti1 2.034405 1_655
O4 Ti2 1.906704 1_455
O5 Ti3 2.034011 1_455
O6 Ti1 1.911176 1_555
O7 Ti0 2.025950 1_555
O8 Ti1 1.927372 1_545
O8 Ti0 2.151187 1_555
O9 Ti1 1.929569 1_555
O9 Ti0 2.139935 1_555
O10 Ti2 1.934489 1_565
O10 Ti3 2.131237 1_555
O11 Ti2 1.930488 1_555
O11 Ti3 2.141703 1_555
O12 Ti0 1.934652 1_555
O12 Ti1 2.131062 1_555
O13 Ti0 1.930647 1_555
O13 Ti1 2.141722 1_545
O14 Ti3 1.927230 1_555
O14 Ti2 2.151365 1_555
O15 Ti3 1.929510 1_555
O15 Ti2 2.139978 1_565
