# generated using pymatgen
data_Sr2LiZrCrO6
_symmetry_space_group_name_H-M   'P 1'
_cell_length_a   5.68922894
_cell_length_b   6.09431534
_cell_length_c   5.68875210
_cell_angle_alpha   89.99950254
_cell_angle_beta   119.99084026
_cell_angle_gamma   117.78950191
_symmetry_Int_Tables_number   1
_chemical_formula_structural   Sr2LiZrCrO6
_chemical_formula_sum   'Sr2 Li1 Zr1 Cr1 O6'
_cell_volume   143.96871772
_cell_formula_units_Z   1
loop_
 _symmetry_equiv_pos_site_id
 _symmetry_equiv_pos_as_xyz
  1  'x, y, z'
loop_
 _atom_site_type_symbol
 _atom_site_label
 _atom_site_symmetry_multiplicity
 _atom_site_fract_x
 _atom_site_fract_y
 _atom_site_fract_z
 _atom_site_occupancy
  Sr  Sr0  1  0.52561400  0.28890300  0.76295700  1
  Sr  Sr1  1  0.58763300  0.88213800  0.29418300  1
  Li  Li0  1  0.26047900  0.39145200  0.13033900  1
  Zr  Zr0  1  0.00778000  0.51205700  0.50399300  1
  Cr  Cr0  1  0.97094800  0.95674300  0.98555600  1
  O  O0  1  0.98558900  0.22515300  0.23919700  1
  O  O1  1  0.98012100  0.72917800  0.74948300  1
  O  O2  1  0.47873500  0.22599400  0.23955200  1
  O  O3  1  0.49827800  0.72740200  0.74897000  1
  O  O4  1  0.97969200  0.72837900  0.22997300  1
  O  O5  1  0.98554700  0.22545800  0.74674700  1
loop_
_geom_bond_atom_site_label_1
_geom_bond_atom_site_label_2
_geom_bond_distance
_geom_bond_site_symmetry_2
Li0 O2 1.827802 1_555
Li0 O5 1.828683 1_454
Li0 O0 1.829406 1_455
Li0 Sr1 2.520177 1_555
Cr0 O1 1.966523 1_555
Cr0 O4 1.966730 1_556
Cr0 O3 1.968109 1_555
Cr0 O0 2.125441 1_566
Cr0 O5 2.126093 1_565
Cr0 O2 2.129067 1_666
O0 Zr0 2.224036 1_655
O0 Sr1 2.426641 1_545
O0 Sr0 2.863420 1_554
O0 Sr0 2.864126 1_655
O1 Zr0 2.034652 1_655
O1 Sr0 2.760492 1_555
O1 Sr1 2.950501 1_656
O1 Sr1 2.953396 1_555
O2 Zr0 2.223112 1_655
O2 Sr1 2.426916 1_545
O2 Sr0 2.862608 1_555
O2 Sr0 2.862940 1_554
O3 Zr0 2.036903 1_555
O3 Sr0 2.747205 1_555
O3 Sr1 2.951094 1_555
O3 Sr1 2.957070 1_556
O4 Zr0 2.034913 1_655
O4 Sr0 2.755431 1_554
O4 Sr1 2.947730 1_655
O4 Sr1 2.958065 1_555
O5 Zr0 2.223140 1_655
O5 Sr1 2.426437 1_545
O5 Sr0 2.861741 1_555
O5 Sr0 2.864897 1_655
