# generated using pymatgen
data_Hf
_symmetry_space_group_name_H-M   'P 1'
_cell_length_a   9.92465860
_cell_length_b   9.92465958
_cell_length_c   6.17246450
_cell_angle_alpha   90.00000000
_cell_angle_beta   90.00000000
_cell_angle_gamma   119.99928571
_symmetry_Int_Tables_number   1
_chemical_formula_structural   Hf
_chemical_formula_sum   Hf24
_cell_volume   526.53052470
_cell_formula_units_Z   24
loop_
 _symmetry_equiv_pos_site_id
 _symmetry_equiv_pos_as_xyz
  1  'x, y, z'
loop_
 _atom_site_type_symbol
 _atom_site_label
 _atom_site_symmetry_multiplicity
 _atom_site_fract_x
 _atom_site_fract_y
 _atom_site_fract_z
 _atom_site_occupancy
  Hf  Hf0_0  1  0.33335748  0.16668592  0.25000000  1
  Hf  Hf0_1  1  0.33335748  0.16668592  0.75000000  1
  Hf  Hf0_2  1  0.33335748  0.66668592  0.25000000  1
  Hf  Hf0_3  1  0.33335748  0.66668592  0.75000000  1
  Hf  Hf0_4  1  0.83335748  0.16668592  0.25000000  1
  Hf  Hf0_5  1  0.83335748  0.16668592  0.75000000  1
  Hf  Hf0_6  1  0.83335748  0.66668592  0.25000000  1
  Hf  Hf0_7  1  0.83335748  0.66668592  0.75000000  1
  Hf  Hf1_0  1  0.16668592  0.33335748  0.25000000  1
  Hf  Hf1_1  1  0.16668592  0.33335748  0.75000000  1
  Hf  Hf1_2  1  0.16668592  0.83335748  0.25000000  1
  Hf  Hf1_3  1  0.16668592  0.83335748  0.75000000  1
  Hf  Hf1_4  1  0.66668592  0.33335748  0.25000000  1
  Hf  Hf1_5  1  0.66668592  0.33335748  0.75000000  1
  Hf  Hf1_6  1  0.66668592  0.83335747  0.25000000  1
  Hf  Hf1_7  1  0.66668592  0.83335747  0.75000000  1
  Hf  Hf2_0  1  0.00000661  0.00000661  0.00000000  1
  Hf  Hf2_1  1  0.00000661  0.00000661  0.50000000  1
  Hf  Hf2_2  1  0.00000660  0.50000661  0.00000000  1
  Hf  Hf2_3  1  0.00000660  0.50000661  0.50000000  1
  Hf  Hf2_4  1  0.50000661  0.00000660  0.00000000  1
  Hf  Hf2_5  1  0.50000661  0.00000660  0.50000000  1
  Hf  Hf2_6  1  0.50000660  0.50000660  0.00000000  1
  Hf  Hf2_7  1  0.50000660  0.50000660  0.50000000  1
loop_
_geom_bond_atom_site_label_1
_geom_bond_atom_site_label_2
_geom_bond_distance
_geom_bond_site_symmetry_2
Hf0_0 Hf1_4 2.864981 1_555
Hf0_0 Hf1_2 2.864981 1_545
Hf0_0 Hf1_0 2.865076 1_555
Hf0_0 Hf0_1 3.086232 1_554
Hf0_0 Hf0_1 3.086232 1_555
Hf0_0 Hf2_6 3.254065 1_555
Hf0_0 Hf2_7 3.254065 1_555
Hf0_0 Hf2_5 3.254097 1_555
Hf0_0 Hf2_4 3.254097 1_555
Hf0_0 Hf2_0 3.254294 1_555
Hf0_0 Hf2_1 3.254294 1_555
Hf0_1 Hf1_5 2.864981 1_555
Hf0_1 Hf1_3 2.864981 1_545
Hf0_1 Hf1_1 2.865076 1_555
Hf0_1 Hf2_6 3.254065 1_556
Hf0_1 Hf2_7 3.254065 1_555
Hf0_1 Hf2_5 3.254097 1_555
Hf0_1 Hf2_4 3.254097 1_556
Hf0_1 Hf2_0 3.254294 1_556
Hf0_1 Hf2_1 3.254294 1_555
Hf0_2 Hf1_6 2.864981 1_555
Hf0_2 Hf1_0 2.864981 1_555
Hf0_2 Hf1_2 2.865076 1_555
Hf0_2 Hf0_3 3.086232 1_554
Hf0_2 Hf0_3 3.086232 1_555
Hf0_2 Hf2_4 3.254065 1_565
Hf0_2 Hf2_5 3.254065 1_565
Hf0_2 Hf2_7 3.254097 1_555
Hf0_2 Hf2_6 3.254097 1_555
Hf0_2 Hf2_2 3.254294 1_555
Hf0_2 Hf2_3 3.254294 1_555
Hf0_3 Hf1_7 2.864981 1_555
Hf0_3 Hf1_1 2.864981 1_555
Hf0_3 Hf1_3 2.865076 1_555
Hf0_3 Hf2_5 3.254065 1_565
Hf0_3 Hf2_4 3.254065 1_566
Hf0_3 Hf2_7 3.254097 1_555
Hf0_3 Hf2_6 3.254097 1_556
Hf0_3 Hf2_3 3.254294 1_555
Hf0_3 Hf2_2 3.254294 1_556
Hf0_4 Hf1_0 2.864981 1_655
Hf0_4 Hf1_6 2.864981 1_545
Hf0_4 Hf1_4 2.865076 1_555
Hf0_4 Hf0_5 3.086232 1_554
Hf0_4 Hf0_5 3.086232 1_555
Hf0_4 Hf2_3 3.254065 1_655
Hf0_4 Hf2_2 3.254065 1_655
Hf0_4 Hf2_0 3.254097 1_655
Hf0_4 Hf2_1 3.254097 1_655
Hf0_4 Hf2_5 3.254294 1_555
Hf0_4 Hf2_4 3.254294 1_555
Hf0_5 Hf1_1 2.864981 1_655
Hf0_5 Hf1_7 2.864981 1_545
Hf0_5 Hf1_5 2.865076 1_555
Hf0_5 Hf2_3 3.254065 1_655
Hf0_5 Hf2_2 3.254065 1_656
Hf0_5 Hf2_0 3.254097 1_656
Hf0_5 Hf2_1 3.254097 1_655
Hf0_5 Hf2_5 3.254294 1_555
Hf0_5 Hf2_4 3.254294 1_556
Hf0_6 Hf1_2 2.864981 1_655
Hf0_6 Hf1_4 2.864981 1_555
Hf0_6 Hf1_6 2.865076 1_555
Hf0_6 Hf0_7 3.086232 1_554
Hf0_6 Hf0_7 3.086232 1_555
Hf0_6 Hf2_0 3.254065 1_665
Hf0_6 Hf2_1 3.254065 1_665
Hf0_6 Hf2_2 3.254097 1_655
Hf0_6 Hf2_3 3.254097 1_655
Hf0_6 Hf2_7 3.254294 1_555
Hf0_6 Hf2_6 3.254294 1_555
Hf0_7 Hf1_3 2.864981 1_655
Hf0_7 Hf1_5 2.864981 1_555
Hf0_7 Hf1_7 2.865076 1_555
Hf0_7 Hf2_1 3.254065 1_665
Hf0_7 Hf2_0 3.254065 1_666
Hf0_7 Hf2_2 3.254097 1_656
Hf0_7 Hf2_3 3.254097 1_655
Hf0_7 Hf2_7 3.254294 1_555
Hf0_7 Hf2_6 3.254294 1_556
Hf1_0 Hf1_1 3.086232 1_554
Hf1_0 Hf1_1 3.086232 1_555
Hf1_0 Hf2_7 3.254065 1_555
Hf1_0 Hf2_6 3.254065 1_555
Hf1_0 Hf2_3 3.254097 1_555
Hf1_0 Hf2_2 3.254097 1_555
Hf1_0 Hf2_1 3.254294 1_555
Hf1_0 Hf2_0 3.254294 1_555
Hf1_1 Hf2_7 3.254065 1_555
Hf1_1 Hf2_6 3.254065 1_556
Hf1_1 Hf2_3 3.254097 1_555
Hf1_1 Hf2_2 3.254097 1_556
Hf1_1 Hf2_1 3.254294 1_555
Hf1_1 Hf2_0 3.254294 1_556
Hf1_2 Hf1_3 3.086232 1_554
Hf1_2 Hf1_3 3.086232 1_555
Hf1_2 Hf2_5 3.254065 1_565
Hf1_2 Hf2_4 3.254065 1_565
Hf1_2 Hf2_1 3.254097 1_565
Hf1_2 Hf2_0 3.254097 1_565
Hf1_2 Hf2_2 3.254294 1_555
Hf1_2 Hf2_3 3.254294 1_555
Hf1_3 Hf2_4 3.254065 1_566
Hf1_3 Hf2_5 3.254065 1_565
Hf1_3 Hf2_1 3.254097 1_565
Hf1_3 Hf2_0 3.254097 1_566
Hf1_3 Hf2_2 3.254294 1_556
Hf1_3 Hf2_3 3.254294 1_555
Hf1_4 Hf1_5 3.086232 1_555
Hf1_4 Hf1_5 3.086232 1_554
Hf1_4 Hf2_3 3.254065 1_655
Hf1_4 Hf2_2 3.254065 1_655
Hf1_4 Hf2_7 3.254097 1_555
Hf1_4 Hf2_6 3.254097 1_555
Hf1_4 Hf2_5 3.254294 1_555
Hf1_4 Hf2_4 3.254294 1_555
Hf1_5 Hf2_3 3.254065 1_655
Hf1_5 Hf2_2 3.254065 1_656
Hf1_5 Hf2_7 3.254097 1_555
Hf1_5 Hf2_6 3.254097 1_556
Hf1_5 Hf2_5 3.254294 1_555
Hf1_5 Hf2_4 3.254294 1_556
Hf1_6 Hf1_7 3.086232 1_555
Hf1_6 Hf1_7 3.086232 1_554
Hf1_6 Hf2_0 3.254065 1_665
Hf1_6 Hf2_1 3.254065 1_665
Hf1_6 Hf2_5 3.254097 1_565
Hf1_6 Hf2_4 3.254097 1_565
Hf1_6 Hf2_6 3.254294 1_555
Hf1_6 Hf2_7 3.254294 1_555
Hf1_7 Hf2_0 3.254065 1_666
Hf1_7 Hf2_1 3.254065 1_665
Hf1_7 Hf2_5 3.254097 1_565
Hf1_7 Hf2_4 3.254097 1_566
Hf1_7 Hf2_6 3.254294 1_556
Hf1_7 Hf2_7 3.254294 1_555
Hf2_0 Hf2_1 3.086232 1_555
Hf2_0 Hf2_1 3.086232 1_554
Hf2_2 Hf2_3 3.086232 1_555
Hf2_2 Hf2_3 3.086232 1_554
Hf2_4 Hf2_5 3.086232 1_554
Hf2_4 Hf2_5 3.086232 1_555
Hf2_6 Hf2_7 3.086232 1_555
Hf2_6 Hf2_7 3.086232 1_554
