# generated using pymatgen
data_CsScUSe5
_symmetry_space_group_name_H-M   'P 1'
_cell_length_a   4.15904300
_cell_length_b   10.71371900
_cell_length_c   11.04657300
_cell_angle_alpha   90.00000000
_cell_angle_beta   100.85069825
_cell_angle_gamma   90.00000000
_symmetry_Int_Tables_number   1
_chemical_formula_structural   CsScUSe5
_chemical_formula_sum   'Cs2 Sc2 U2 Se10'
_cell_volume   483.42182484
_cell_formula_units_Z   2
loop_
 _symmetry_equiv_pos_site_id
 _symmetry_equiv_pos_as_xyz
  1  'x, y, z'
loop_
 _atom_site_type_symbol
 _atom_site_label
 _atom_site_symmetry_multiplicity
 _atom_site_fract_x
 _atom_site_fract_y
 _atom_site_fract_z
 _atom_site_occupancy
  Cs  Cs0  1  0.15863300  0.75000000  0.31726600  1
  Cs  Cs1  1  0.84136700  0.25000000  0.68273400  1
  Sc  Sc0  1  0.00000000  0.50000000  0.00000000  1
  Sc  Sc1  1  0.00000000  0.00000000  0.00000000  1
  U  U0  1  0.38327700  0.75000000  0.76655300  1
  U  U1  1  0.61672300  0.25000000  0.23344700  1
  Se  Se0  1  0.80476400  0.63856300  0.60952700  1
  Se  Se1  1  0.19523600  0.36143700  0.39047300  1
  Se  Se2  1  0.80476400  0.86143700  0.60952700  1
  Se  Se3  1  0.19523600  0.13856300  0.39047300  1
  Se  Se4  1  0.58283600  0.51364000  0.16567300  1
  Se  Se5  1  0.41716400  0.48636000  0.83432700  1
  Se  Se6  1  0.58283600  0.98636000  0.16567300  1
  Se  Se7  1  0.41716400  0.01364000  0.83432700  1
  Se  Se8  1  0.97862600  0.75000000  0.95725300  1
  Se  Se9  1  0.02137400  0.25000000  0.04274700  1
loop_
_geom_bond_atom_site_label_1
_geom_bond_atom_site_label_2
_geom_bond_distance
_geom_bond_site_symmetry_2
Cs0 Se4 3.666302 1_555
Cs0 Se6 3.666302 1_555
Cs0 Se4 3.666304 1_455
Cs0 Se6 3.666304 1_455
Cs0 Se8 3.905807 1_454
Cs0 Se2 3.975366 1_455
Cs0 Se0 3.975366 1_455
Cs0 Se2 3.975368 1_555
Cs0 Se0 3.975368 1_555
Cs0 Se3 4.238041 1_565
Cs0 Se1 4.238041 1_555
Cs1 Se5 3.666302 1_555
Cs1 Se7 3.666302 1_555
Cs1 Se7 3.666304 1_655
Cs1 Se5 3.666304 1_655
Cs1 Se9 3.905807 1_656
Cs1 Se3 3.975366 1_655
Cs1 Se1 3.975366 1_655
Cs1 Se1 3.975368 1_555
Cs1 Se3 3.975368 1_555
Cs1 Se0 4.238041 1_555
Cs1 Se2 4.238041 1_545
Sc0 Se9 2.718283 1_555
Sc0 Se8 2.718283 1_454
Sc0 Se4 2.752526 1_555
Sc0 Se5 2.752526 1_454
Sc0 Se4 2.752529 1_455
Sc0 Se5 2.752529 1_554
Sc1 Se9 2.718283 1_555
Sc1 Se8 2.718283 1_444
Sc1 Se6 2.752526 1_545
Sc1 Se7 2.752526 1_454
Sc1 Se6 2.752529 1_445
Sc1 Se7 2.752529 1_554
Se0 Se2 2.387809 1_555
Se0 U0 2.941432 1_655
Se0 U0 2.941432 1_555
Se1 Se3 2.387809 1_555
Se1 U1 2.941432 1_455
Se1 U1 2.941432 1_555
Se2 U0 2.941432 1_655
Se2 U0 2.941432 1_555
Se3 U1 2.941432 1_455
Se3 U1 2.941432 1_555
Se4 U1 2.918700 1_555
Se5 U0 2.918700 1_555
Se6 U1 2.918700 1_565
Se7 U0 2.918700 1_545
Se8 U0 2.933396 1_555
Se8 U0 2.933402 1_655
Se9 U1 2.933396 1_555
Se9 U1 2.933402 1_455
