# generated using pymatgen
data_Li6Mn2OF11
_symmetry_space_group_name_H-M   'P 1'
_cell_length_a   5.08568700
_cell_length_b   5.52872410
_cell_length_c   8.76583334
_cell_angle_alpha   107.53196705
_cell_angle_beta   89.99606517
_cell_angle_gamma   117.06514993
_symmetry_Int_Tables_number   1
_chemical_formula_structural   Li6Mn2OF11
_chemical_formula_sum   'Li6 Mn2 O1 F11'
_cell_volume   206.54398580
_cell_formula_units_Z   1
loop_
 _symmetry_equiv_pos_site_id
 _symmetry_equiv_pos_as_xyz
  1  'x, y, z'
loop_
 _atom_site_type_symbol
 _atom_site_label
 _atom_site_symmetry_multiplicity
 _atom_site_fract_x
 _atom_site_fract_y
 _atom_site_fract_z
 _atom_site_occupancy
  Li  Li0  1  0.20533100  0.34427700  0.06472800  1
  Li  Li1  1  0.05239600  0.40410300  0.69374600  1
  Li  Li2  1  0.97114600  0.60487900  0.32824500  1
  Li  Li3  1  0.26554000  0.14441900  0.40292500  1
  Li  Li4  1  0.75577100  0.61078200  0.93886400  1
  Li  Li5  1  0.46013400  0.12785200  0.83002100  1
  Mn  Mn0  1  0.73569100  0.90061500  0.56776200  1
  Mn  Mn1  1  0.51793700  0.85851700  0.18001800  1
  O  O0  1  0.78746200  0.87030800  0.37884800  1
  F  F0  1  0.28492500  0.02137400  0.22329500  1
  F  F1  1  0.77866100  0.57116700  0.69211300  1
  F  F2  1  0.68787300  0.63482600  0.13665600  1
  F  F3  1  0.71242400  0.25072000  0.47330300  1
  F  F4  1  0.24235700  0.78899200  0.98290000  1
  F  F5  1  0.31872300  0.72568200  0.53444900  1
  F  F6  1  0.77729200  0.21504400  0.02855000  1
  F  F7  1  0.33029600  0.37777300  0.87357900  1
  F  F8  1  0.15192400  0.10163300  0.61401400  1
  F  F9  1  0.21448300  0.47046700  0.28126500  1
  F  F10  1  0.72270200  0.97099500  0.76546000  1
loop_
_geom_bond_atom_site_label_1
_geom_bond_atom_site_label_2
_geom_bond_distance
_geom_bond_site_symmetry_2
Li1 Mn0 2.372898 1_445
Li2 O0 2.019451 1_555
Li3 O0 2.169564 1_445
Mn0 O0 1.647001 1_555
Mn1 O0 2.184358 1_555
F0 Li3 1.538681 1_555
F0 Mn1 1.767490 1_545
F1 Li1 1.992350 1_655
F1 Li4 2.116069 1_555
F1 Mn0 2.472239 1_555
F2 Li4 1.745234 1_554
F2 Mn1 1.763594 1_555
F2 Li0 2.191577 1_555
F2 Li2 2.303970 1_555
F3 Li3 2.111274 1_555
F3 Li1 2.263077 1_655
F3 Mn0 2.370724 1_545
F3 Li2 2.517412 1_555
F3 Mn1 2.641908 1_545
F4 Mn1 2.051240 1_556
F4 Li4 2.189924 1_455
F4 Li5 2.481252 1_565
F4 Li1 2.601168 1_555
F5 Mn0 1.865759 1_555
F5 Li2 2.244262 1_455
F5 Li1 2.499895 1_555
F6 Li0 1.948856 1_655
F6 Li5 2.156380 1_554
F6 Mn1 2.568781 1_545
F7 Li5 1.733035 1_555
F7 Li0 1.823586 1_556
F7 Li4 1.920564 1_555
F7 Li1 2.197594 1_555
F8 Mn0 1.862331 1_445
F8 Li1 1.899278 1_555
F8 Li3 1.988185 1_555
F8 Li5 2.385684 1_555
F9 Li2 1.704630 1_455
F9 Li0 1.806771 1_555
F9 Li3 2.457317 1_555
F10 Mn0 1.666172 1_555
F10 Li5 1.900921 1_565
F10 Li1 2.488669 1_665
