# generated using pymatgen
data_Sr3Rh3N5
_symmetry_space_group_name_H-M   'P 1'
_cell_length_a   6.35611455
_cell_length_b   7.85301938
_cell_length_c   8.37345751
_cell_angle_alpha   104.38295460
_cell_angle_beta   110.89516790
_cell_angle_gamma   101.54030941
_symmetry_Int_Tables_number   1
_chemical_formula_structural   Sr3Rh3N5
_chemical_formula_sum   'Sr6 Rh6 N10'
_cell_volume   358.47585942
_cell_formula_units_Z   2
loop_
 _symmetry_equiv_pos_site_id
 _symmetry_equiv_pos_as_xyz
  1  'x, y, z'
loop_
 _atom_site_type_symbol
 _atom_site_label
 _atom_site_symmetry_multiplicity
 _atom_site_fract_x
 _atom_site_fract_y
 _atom_site_fract_z
 _atom_site_occupancy
  Sr  Sr0  1  0.73751000  0.40653700  0.59052000  1
  Sr  Sr1  1  0.26249000  0.59346300  0.40948000  1
  Sr  Sr2  1  0.67451400  0.84799100  0.88649900  1
  Sr  Sr3  1  0.32548600  0.15200900  0.11350100  1
  Sr  Sr4  1  0.71900300  0.68050900  0.23736700  1
  Sr  Sr5  1  0.28099700  0.31949100  0.76263300  1
  Rh  Rh0  1  0.86090600  0.34518400  0.99918600  1
  Rh  Rh1  1  0.13909400  0.65481600  0.00081400  1
  Rh  Rh2  1  0.74619000  0.99000700  0.58469600  1
  Rh  Rh3  1  0.25381000  0.00999300  0.41530400  1
  Rh  Rh4  1  0.07643800  0.81034200  0.68388000  1
  Rh  Rh5  1  0.92356200  0.18965800  0.31612000  1
  N  N0  1  0.91129900  0.14894700  0.83524500  1
  N  N1  1  0.08870100  0.85105300  0.16475500  1
  N  N2  1  0.71963100  0.72942800  0.57763200  1
  N  N3  1  0.28036900  0.27057200  0.42236800  1
  N  N4  1  0.72491800  0.51388100  0.90206200  1
  N  N5  1  0.27508200  0.48611900  0.09793800  1
  N  N6  1  0.29468300  0.95820000  0.63021600  1
  N  N7  1  0.70531700  0.04180000  0.36978400  1
  N  N8  1  0.20860100  0.63834700  0.78231700  1
  N  N9  1  0.79139900  0.36165300  0.21768300  1
loop_
_geom_bond_atom_site_label_1
_geom_bond_atom_site_label_2
_geom_bond_distance
_geom_bond_site_symmetry_2
N0 Rh2 1.914457 1_545
N0 Rh0 1.955007 1_555
N0 Sr2 2.752541 1_545
N0 Sr5 2.801716 1_655
N0 Sr3 2.816275 1_656
N1 Rh3 1.914457 1_565
N1 Rh1 1.955007 1_555
N1 Sr3 2.752541 1_565
N1 Sr4 2.801716 1_455
N1 Sr2 2.816275 1_454
N2 Rh2 2.003496 1_555
N2 Rh4 2.010466 1_655
N2 Sr1 2.580459 1_555
N2 Sr0 2.587793 1_555
N2 Sr2 2.660370 1_555
N2 Sr4 2.777229 1_555
N3 Rh3 2.003496 1_555
N3 Rh5 2.010466 1_455
N3 Sr0 2.580459 1_555
N3 Sr1 2.587793 1_555
N3 Sr3 2.660370 1_555
N3 Sr5 2.777229 1_555
N4 Rh0 1.911948 1_555
N4 Rh1 2.380290 1_656
N4 Sr0 2.570150 1_555
N4 Sr5 2.587705 1_555
N4 Sr2 2.734999 1_555
N4 Sr4 2.804711 1_556
N5 Rh1 1.911948 1_555
N5 Rh0 2.380290 1_454
N5 Sr1 2.570150 1_555
N5 Sr4 2.587705 1_555
N5 Sr3 2.734999 1_555
N5 Sr5 2.804711 1_554
N6 Rh4 1.879847 1_555
N6 Rh3 1.882485 1_565
N6 Sr5 2.809180 1_565
N6 Sr1 2.920253 1_555
N6 Sr2 3.040714 1_555
N7 Rh5 1.879847 1_555
N7 Rh2 1.882485 1_545
N7 Sr4 2.809180 1_545
N7 Sr0 2.920253 1_555
N7 Sr3 3.040714 1_555
N8 Rh4 1.929398 1_555
N8 Rh1 2.010257 1_556
N8 Sr5 2.611307 1_555
N8 Sr2 2.781055 1_555
N8 Sr0 2.792015 1_455
N8 Sr1 3.201943 1_555
N9 Rh5 1.929398 1_555
N9 Rh0 2.010257 1_554
N9 Sr4 2.611307 1_555
N9 Sr3 2.781055 1_555
N9 Sr1 2.792015 1_655
N9 Sr0 3.201943 1_555
