# generated using pymatgen
data_CsNaMg14O15
_symmetry_space_group_name_H-M   'P 1'
_cell_length_a   4.19958000
_cell_length_b   8.37208000
_cell_length_c   10.69363700
_cell_angle_alpha   90.00000000
_cell_angle_beta   90.00000000
_cell_angle_gamma   90.00000000
_symmetry_Int_Tables_number   1
_chemical_formula_structural   CsNaMg14O15
_chemical_formula_sum   'Cs1 Na1 Mg14 O15'
_cell_volume   375.97993296
_cell_formula_units_Z   1
loop_
 _symmetry_equiv_pos_site_id
 _symmetry_equiv_pos_as_xyz
  1  'x, y, z'
loop_
 _atom_site_type_symbol
 _atom_site_label
 _atom_site_symmetry_multiplicity
 _atom_site_fract_x
 _atom_site_fract_y
 _atom_site_fract_z
 _atom_site_occupancy
  Cs  Cs0  1  0.00000000  0.50000000  0.43855000  1
  Na  Na0  1  0.00000000  0.00000000  0.02292800  1
  Mg  Mg0  1  0.00000000  0.50000000  0.97922000  1
  Mg  Mg1  1  0.00000000  0.00000000  0.48266700  1
  Mg  Mg2  1  0.50000000  0.75957500  0.98504400  1
  Mg  Mg3  1  0.50000000  0.24042500  0.98504400  1
  Mg  Mg4  1  0.50000000  0.75822700  0.57697600  1
  Mg  Mg5  1  0.50000000  0.24177300  0.57697600  1
  Mg  Mg6  1  0.50000000  0.00000000  0.79185800  1
  Mg  Mg7  1  0.50000000  0.50000000  0.77253800  1
  Mg  Mg8  1  0.50000000  0.00000000  0.27228300  1
  Mg  Mg9  1  0.50000000  0.50000000  0.16885700  1
  Mg  Mg10  1  0.00000000  0.72952400  0.77041900  1
  Mg  Mg11  1  0.00000000  0.27047600  0.77041900  1
  Mg  Mg12  1  0.00000000  0.75126300  0.18172000  1
  Mg  Mg13  1  0.00000000  0.24873700  0.18172000  1
  O  O0  1  0.00000000  0.50000000  0.78943600  1
  O  O1  1  0.00000000  0.00000000  0.25768900  1
  O  O2  1  0.00000000  0.50000000  0.17597100  1
  O  O3  1  0.50000000  0.76793300  0.77163800  1
  O  O4  1  0.50000000  0.23206700  0.77163800  1
  O  O5  1  0.50000000  0.75122100  0.19324000  1
  O  O6  1  0.50000000  0.24877900  0.19324000  1
  O  O7  1  0.50000000  0.00000000  0.96828200  1
  O  O8  1  0.50000000  0.50000000  0.97690000  1
  O  O9  1  0.50000000  0.00000000  0.46938000  1
  O  O10  1  0.50000000  0.50000000  0.58594800  1
  O  O11  1  0.00000000  0.74505200  0.98008100  1
  O  O12  1  0.00000000  0.25494800  0.98008100  1
  O  O13  1  0.00000000  0.80262600  0.58962800  1
  O  O14  1  0.00000000  0.19737400  0.58962800  1
loop_
_geom_bond_atom_site_label_1
_geom_bond_atom_site_label_2
_geom_bond_distance
_geom_bond_site_symmetry_2
Cs0 O10 2.625565 1_555
Cs0 O10 2.625565 1_455
Cs0 O2 2.807925 1_555
Cs0 O13 3.004871 1_555
Cs0 O14 3.004871 1_555
Na0 O7 2.179587 1_454
Na0 O7 2.179587 1_554
Na0 O12 2.183070 1_554
Na0 O11 2.183070 1_544
Na0 O1 2.510449 1_555
Mg0 O0 2.029481 1_555
Mg0 O11 2.051616 1_555
Mg0 O12 2.051616 1_555
Mg0 O8 2.099937 1_455
Mg0 O8 2.099937 1_555
Mg0 O2 2.103984 1_556
Mg1 O14 2.009679 1_555
Mg1 O13 2.009679 1_545
Mg1 O9 2.104592 1_455
Mg1 O9 2.104592 1_555
Mg1 O1 2.405833 1_555
Mg2 O7 2.020823 1_565
Mg2 O11 2.103977 1_655
Mg2 O11 2.103977 1_555
Mg2 O8 2.174927 1_555
Mg2 O5 2.227471 1_556
Mg2 O3 2.283159 1_555
Mg3 O7 2.020823 1_555
Mg3 O12 2.103977 1_655
Mg3 O12 2.103977 1_555
Mg3 O8 2.174927 1_555
Mg3 O6 2.227471 1_556
Mg3 O4 2.283159 1_555
Mg4 O3 2.083230 1_555
Mg4 O13 2.136725 1_655
Mg4 O13 2.136725 1_555
Mg4 O10 2.164025 1_555
Mg4 O9 2.328308 1_565
Mg5 O4 2.083230 1_555
Mg5 O14 2.136725 1_555
Mg5 O14 2.136725 1_655
Mg5 O10 2.164025 1_555
Mg5 O9 2.328308 1_555
Mg6 O7 1.886614 1_555
Mg6 O4 1.954878 1_555
Mg6 O3 1.954878 1_545
Mg7 O10 1.995326 1_555
Mg7 O0 2.107551 1_555
Mg7 O0 2.107551 1_655
Mg7 O8 2.185373 1_555
Mg7 O3 2.243177 1_555
Mg7 O4 2.243177 1_555
Mg8 O1 2.105582 1_655
Mg8 O1 2.105582 1_555
Mg8 O9 2.107684 1_555
Mg8 O6 2.247778 1_555
Mg8 O5 2.247778 1_545
Mg9 O8 2.052718 1_554
Mg9 O2 2.101168 1_555
Mg9 O2 2.101168 1_655
Mg9 O5 2.119343 1_555
Mg9 O6 2.119343 1_555
Mg10 O0 1.932324 1_555
Mg10 O13 2.027872 1_555
Mg10 O3 2.124310 1_455
Mg10 O3 2.124310 1_555
Mg10 O11 2.245815 1_555
Mg11 O0 1.932324 1_555
Mg11 O14 2.027872 1_555
Mg11 O4 2.124310 1_455
Mg11 O4 2.124310 1_555
Mg11 O12 2.245815 1_555
Mg12 O5 2.103401 1_455
Mg12 O5 2.103401 1_555
Mg12 O2 2.104492 1_555
Mg12 O11 2.156881 1_554
Mg12 O1 2.235297 1_565
Mg13 O6 2.103401 1_455
Mg13 O6 2.103401 1_555
Mg13 O2 2.104492 1_555
Mg13 O12 2.156881 1_554
Mg13 O1 2.235297 1_555
