# generated using pymatgen
data_Sm2Fe15Si2
_symmetry_space_group_name_H-M   'P 1'
_cell_length_a   6.38312728
_cell_length_b   6.38312728
_cell_length_c   6.38312752
_cell_angle_alpha   81.69925531
_cell_angle_beta   81.69925531
_cell_angle_gamma   81.69926407
_symmetry_Int_Tables_number   1
_chemical_formula_structural   Sm2Fe15Si2
_chemical_formula_sum   'Sm2 Fe15 Si2'
_cell_volume   252.62094539
_cell_formula_units_Z   1
loop_
 _symmetry_equiv_pos_site_id
 _symmetry_equiv_pos_as_xyz
  1  'x, y, z'
loop_
 _atom_site_type_symbol
 _atom_site_label
 _atom_site_symmetry_multiplicity
 _atom_site_fract_x
 _atom_site_fract_y
 _atom_site_fract_z
 _atom_site_occupancy
  Sm  Sm0  1  0.65538800  0.65538800  0.65538800  1
  Sm  Sm1  1  0.34461200  0.34461200  0.34461200  1
  Fe  Fe0  1  0.00000000  0.00000000  0.50000000  1
  Fe  Fe1  1  0.50000000  0.00000000  0.00000000  1
  Fe  Fe2  1  0.00000000  0.50000000  0.00000000  1
  Fe  Fe3  1  0.71033200  0.28966800  0.00000000  1
  Fe  Fe4  1  0.00000000  0.71033200  0.28966800  1
  Fe  Fe5  1  0.28966800  0.00000000  0.71033200  1
  Fe  Fe6  1  0.00000000  0.28966800  0.71033200  1
  Fe  Fe7  1  0.71033200  0.00000000  0.28966800  1
  Fe  Fe8  1  0.28966800  0.71033200  0.00000000  1
  Fe  Fe9  1  0.33948000  0.33948000  0.84471000  1
  Fe  Fe10  1  0.84471000  0.33948000  0.33948000  1
  Fe  Fe11  1  0.33948000  0.84471000  0.33948000  1
  Fe  Fe12  1  0.66052000  0.66052000  0.15529000  1
  Fe  Fe13  1  0.15529000  0.66052000  0.66052000  1
  Fe  Fe14  1  0.66052000  0.15529000  0.66052000  1
  Si  Si0  1  0.89842500  0.89842500  0.89842500  1
  Si  Si1  1  0.10157500  0.10157500  0.10157500  1
loop_
_geom_bond_atom_site_label_1
_geom_bond_atom_site_label_2
_geom_bond_distance
_geom_bond_site_symmetry_2
Fe0 Fe13 2.400003 1_545
Fe0 Fe10 2.400003 1_455
Fe0 Fe14 2.400003 1_455
Fe0 Fe11 2.400003 1_545
Fe0 Fe6 2.436808 1_555
Fe0 Fe5 2.436808 1_555
Fe0 Fe4 2.436808 1_545
Fe0 Fe7 2.436808 1_455
Fe0 Si1 2.545148 1_555
Fe0 Si0 2.545148 1_445
Fe0 Sm1 3.286083 1_555
Fe0 Sm0 3.286083 1_445
Fe1 Fe11 2.400003 1_545
Fe1 Fe14 2.400003 1_554
Fe1 Fe9 2.400003 1_554
Fe1 Fe12 2.400003 1_545
Fe1 Fe3 2.436807 1_555
Fe1 Fe8 2.436807 1_545
Fe1 Fe7 2.436808 1_555
Fe1 Fe5 2.436808 1_554
Fe1 Si0 2.545148 1_544
Fe1 Si1 2.545148 1_555
Fe1 Sm1 3.286084 1_555
Fe1 Sm0 3.286084 1_544
Fe2 Fe9 2.400003 1_554
Fe2 Fe8 2.436807 1_555
Fe2 Fe3 2.436807 1_455
Fe2 Fe4 2.436808 1_555
Fe2 Fe6 2.436808 1_554
Fe2 Si0 2.545148 1_454
Fe2 Si1 2.545148 1_555
Fe2 Sm1 3.286084 1_555
Fe2 Sm0 3.286084 1_454
Fe3 Fe7 2.418757 1_555
Fe3 Fe6 2.418757 1_654
Fe3 Fe9 2.656397 1_554
Fe3 Si1 2.734166 1_655
Fe3 Si0 2.734166 1_544
Fe3 Sm1 2.985792 1_555
Fe3 Sm0 2.985792 1_554
Fe4 Fe8 2.418757 1_555
Fe4 Fe7 2.418757 1_465
Fe4 Si1 2.734165 1_565
Fe4 Si0 2.734165 1_454
Fe4 Sm0 2.985792 1_455
Fe4 Sm1 2.985792 1_555
Fe5 Fe8 2.418757 1_546
Fe5 Fe6 2.418757 1_555
Fe5 Fe9 2.519294 1_555
Fe5 Si0 2.734165 1_445
Fe5 Si1 2.734165 1_556
Fe5 Sm1 2.985792 1_555
Fe5 Sm0 2.985792 1_545
Fe6 Fe9 2.519294 1_555
Fe6 Si0 2.734165 1_445
Fe6 Si1 2.734165 1_556
Fe6 Sm1 2.985792 1_555
Fe6 Sm0 2.985792 1_455
Fe7 Si1 2.734165 1_655
Fe7 Si0 2.734165 1_544
Fe7 Sm0 2.985792 1_545
Fe7 Sm1 2.985792 1_555
Fe8 Fe9 2.656397 1_554
Fe8 Si0 2.734166 1_454
Fe8 Si1 2.734166 1_565
Fe8 Sm1 2.985792 1_555
Fe8 Sm0 2.985792 1_554
Fe9 Si1 2.555087 1_556
Fe9 Sm0 3.059350 1_555
Fe9 Sm1 3.183103 1_555
Fe9 Sm1 3.200766 1_556
Fe10 Fe2 2.400003 1_655
Fe10 Fe14 2.443719 1_555
Fe10 Fe12 2.443719 1_555
Fe10 Fe7 2.519294 1_555
Fe10 Fe3 2.519294 1_555
Fe10 Si1 2.555087 1_655
Fe10 Fe4 2.656397 1_655
Fe10 Fe6 2.656397 1_655
Fe10 Sm0 3.059351 1_555
Fe10 Sm1 3.183102 1_555
Fe10 Sm1 3.200766 1_655
Fe11 Fe13 2.443719 1_555
Fe11 Fe12 2.443719 1_555
Fe11 Fe4 2.519294 1_555
Fe11 Fe8 2.519294 1_555
Fe11 Si1 2.555087 1_565
Fe11 Fe7 2.656397 1_565
Fe11 Fe5 2.656397 1_565
Fe11 Sm0 3.059351 1_555
Fe11 Sm1 3.183102 1_555
Fe11 Sm1 3.200766 1_565
Fe12 Fe2 2.400003 1_655
Fe12 Fe4 2.519294 1_655
Fe12 Fe7 2.519294 1_565
Fe12 Si0 2.555087 1_554
Fe12 Fe3 2.656397 1_555
Fe12 Fe8 2.656397 1_555
Fe12 Sm1 3.059350 1_555
Fe12 Sm0 3.183103 1_555
Fe12 Sm0 3.200766 1_554
Fe13 Fe2 2.400003 1_556
Fe13 Fe9 2.443719 1_555
Fe13 Fe5 2.519294 1_565
Fe13 Fe8 2.519294 1_556
Fe13 Si0 2.555087 1_455
Fe13 Fe6 2.656397 1_555
Fe13 Fe4 2.656397 1_555
Fe13 Sm1 3.059351 1_555
Fe13 Sm0 3.183102 1_555
Fe13 Sm0 3.200766 1_455
Fe14 Fe9 2.443719 1_555
Fe14 Fe6 2.519294 1_655
Fe14 Fe3 2.519294 1_556
Fe14 Si0 2.555087 1_545
Fe14 Fe5 2.656397 1_555
Fe14 Fe7 2.656397 1_555
Fe14 Sm1 3.059351 1_555
Fe14 Sm0 3.183102 1_555
Fe14 Sm0 3.200766 1_545
Si0 Si1 2.549725 1_666
Si0 Sm0 3.050344 1_555
Si1 Sm1 3.050344 1_555
