# generated using pymatgen
data_Cu(AgO)2
_symmetry_space_group_name_H-M   'P 1'
_cell_length_a   5.14570190
_cell_length_b   5.14570190
_cell_length_c   5.14570190
_cell_angle_alpha   133.60003956
_cell_angle_beta   133.60003956
_cell_angle_gamma   67.71338013
_symmetry_Int_Tables_number   1
_chemical_formula_structural   Cu(AgO)2
_chemical_formula_sum   'Cu1 Ag2 O2'
_cell_volume   70.23643671
_cell_formula_units_Z   1
loop_
 _symmetry_equiv_pos_site_id
 _symmetry_equiv_pos_as_xyz
  1  'x, y, z'
loop_
 _atom_site_type_symbol
 _atom_site_label
 _atom_site_symmetry_multiplicity
 _atom_site_fract_x
 _atom_site_fract_y
 _atom_site_fract_z
 _atom_site_occupancy
  Cu  Cu0  1  0.00000000  0.00000000  0.00000000  1
  Ag  Ag0  1  0.75000000  0.25000000  0.50000000  1
  Ag  Ag1  1  0.25000000  0.75000000  0.50000000  1
  O  O0  1  0.50000000  0.00000000  0.50000000  1
  O  O1  1  0.00000000  0.50000000  0.50000000  1
loop_
_geom_bond_atom_site_label_1
_geom_bond_atom_site_label_2
_geom_bond_distance
_geom_bond_site_symmetry_2
Cu0 O0 2.027106 1_555
Cu0 O0 2.027106 1_454
Cu0 O1 2.027106 1_544
Cu0 O1 2.027106 1_555
Ag0 O0 2.136582 1_555
Ag0 O1 2.136582 1_655
Ag1 O1 2.136582 1_555
Ag1 O0 2.136582 1_565
