# generated using pymatgen
data_HoAlRh
_symmetry_space_group_name_H-M   'P 1'
_cell_length_a   4.12765099
_cell_length_b   6.84681168
_cell_length_c   7.94350493
_cell_angle_alpha   90.00000000
_cell_angle_beta   90.00000000
_cell_angle_gamma   90.00000000
_symmetry_Int_Tables_number   1
_chemical_formula_structural   HoAlRh
_chemical_formula_sum   'Ho4 Al4 Rh4'
_cell_volume   224.49337083
_cell_formula_units_Z   4
loop_
 _symmetry_equiv_pos_site_id
 _symmetry_equiv_pos_as_xyz
  1  'x, y, z'
loop_
 _atom_site_type_symbol
 _atom_site_label
 _atom_site_symmetry_multiplicity
 _atom_site_fract_x
 _atom_site_fract_y
 _atom_site_fract_z
 _atom_site_occupancy
  Ho  Ho0  1  0.25000000  0.53742531  0.17961435  1
  Ho  Ho1  1  0.75000000  0.46257469  0.82038465  1
  Ho  Ho2  1  0.75000000  0.96257469  0.67961435  1
  Ho  Ho3  1  0.25000000  0.03742531  0.32038465  1
  Al  Al0  1  0.25000000  0.63465306  0.55982382  1
  Al  Al1  1  0.75000000  0.36534694  0.44017618  1
  Al  Al2  1  0.75000000  0.86534694  0.05982382  1
  Al  Al3  1  0.25000000  0.13465306  0.94017618  1
  Rh  Rh0  1  0.25000000  0.76372579  0.87880114  1
  Rh  Rh1  1  0.75000000  0.23627421  0.12119886  1
  Rh  Rh2  1  0.75000000  0.73627421  0.37880114  1
  Rh  Rh3  1  0.25000000  0.26372579  0.62119886  1
loop_
_geom_bond_atom_site_label_1
_geom_bond_atom_site_label_2
_geom_bond_distance
_geom_bond_site_symmetry_2
Ho0 Rh0 2.847897 1_554
Ho0 Rh2 2.935386 1_455
Ho0 Rh2 2.935386 1_555
Ho0 Rh1 2.954019 1_555
Ho0 Rh1 2.954019 1_455
Ho1 Rh1 2.847904 1_556
Ho1 Rh3 2.935382 1_655
Ho1 Rh3 2.935382 1_555
Ho1 Rh0 2.954020 1_655
Ho1 Rh0 2.954020 1_555
Ho2 Rh2 2.847897 1_555
Ho2 Rh0 2.935386 1_555
Ho2 Rh0 2.935386 1_655
Ho2 Rh3 2.954019 1_565
Ho2 Rh3 2.954019 1_665
Ho3 Rh3 2.847904 1_555
Ho3 Rh1 2.935382 1_555
Ho3 Rh1 2.935382 1_455
Ho3 Rh2 2.954020 1_545
Ho3 Rh2 2.954020 1_445
Al0 Rh3 2.586041 1_555
Al0 Rh2 2.609828 1_455
Al0 Rh2 2.609828 1_555
Al0 Rh0 2.683491 1_555
Al1 Rh2 2.586041 1_555
Al1 Rh3 2.609828 1_655
Al1 Rh3 2.609828 1_555
Al1 Rh1 2.683491 1_555
Al2 Rh1 2.586041 1_565
Al2 Rh0 2.609828 1_654
Al2 Rh0 2.609828 1_554
Al2 Rh2 2.683491 1_555
Al3 Rh0 2.586041 1_545
Al3 Rh1 2.609828 1_556
Al3 Rh1 2.609828 1_456
Al3 Rh3 2.683491 1_555
