# generated using pymatgen
data_Bi(W2Cl5)3
_symmetry_space_group_name_H-M   'P 1'
_cell_length_a   12.71534000
_cell_length_b   14.00425500
_cell_length_c   15.71111282
_cell_angle_alpha   61.25742384
_cell_angle_beta   90.00000000
_cell_angle_gamma   90.00000000
_symmetry_Int_Tables_number   1
_chemical_formula_structural   Bi(W2Cl5)3
_chemical_formula_sum   'Bi4 W24 Cl60'
_cell_volume   2452.95771732
_cell_formula_units_Z   4
loop_
 _symmetry_equiv_pos_site_id
 _symmetry_equiv_pos_as_xyz
  1  'x, y, z'
loop_
 _atom_site_type_symbol
 _atom_site_label
 _atom_site_symmetry_multiplicity
 _atom_site_fract_x
 _atom_site_fract_y
 _atom_site_fract_z
 _atom_site_occupancy
  Bi  Bi0  1  0.18890200  0.20877700  0.69355300  1
  Bi  Bi1  1  0.68890200  0.79122300  0.80644700  1
  Bi  Bi2  1  0.81109800  0.79122300  0.30644700  1
  Bi  Bi3  1  0.31109800  0.20877700  0.19355300  1
  W  W0  1  0.32084100  0.72429200  0.44593700  1
  W  W1  1  0.82084100  0.27570800  0.05406300  1
  W  W2  1  0.67915900  0.27570800  0.55406300  1
  W  W3  1  0.17915900  0.72429200  0.94593700  1
  W  W4  1  0.22561900  0.87502100  0.47139500  1
  W  W5  1  0.72561900  0.12497900  0.02860500  1
  W  W6  1  0.77438100  0.12497900  0.52860500  1
  W  W7  1  0.27438100  0.87502100  0.97139500  1
  W  W8  1  0.37967300  0.76134900  0.58876500  1
  W  W9  1  0.87967300  0.23865100  0.91123500  1
  W  W10  1  0.62032700  0.23865100  0.41123500  1
  W  W11  1  0.12032700  0.76134900  0.08876500  1
  W  W12  1  0.28017400  0.57866700  0.62745600  1
  W  W13  1  0.78017400  0.42133300  0.87254400  1
  W  W14  1  0.71982600  0.42133300  0.37254400  1
  W  W15  1  0.21982600  0.57866700  0.12745600  1
  W  W16  1  0.12633500  0.69375300  0.51064600  1
  W  W17  1  0.62633500  0.30624700  0.98935400  1
  W  W18  1  0.87366500  0.30624700  0.48935400  1
  W  W19  1  0.37366500  0.69375300  0.01064600  1
  W  W20  1  0.18513200  0.73034300  0.65346000  1
  W  W21  1  0.68513200  0.26965700  0.84654000  1
  W  W22  1  0.81486800  0.26965700  0.34654000  1
  W  W23  1  0.31486800  0.73034300  0.15346000  1
  Cl  Cl0  1  0.10323500  0.05357200  0.68295900  1
  Cl  Cl1  1  0.60323500  0.94642800  0.81704100  1
  Cl  Cl2  1  0.89676500  0.94642800  0.31704100  1
  Cl  Cl3  1  0.39676500  0.05357200  0.18295900  1
  Cl  Cl4  1  0.32479600  0.22877900  0.57210600  1
  Cl  Cl5  1  0.82479600  0.77122100  0.92789400  1
  Cl  Cl6  1  0.67520400  0.77122100  0.42789400  1
  Cl  Cl7  1  0.17520400  0.22877900  0.07210600  1
  Cl  Cl8  1  0.41319400  0.89558800  0.41699200  1
  Cl  Cl9  1  0.91319400  0.10441200  0.08300800  1
  Cl  Cl10  1  0.58680600  0.10441200  0.58300800  1
  Cl  Cl11  1  0.08680600  0.89558800  0.91699200  1
  Cl  Cl12  1  0.46416000  0.61509600  0.56192800  1
  Cl  Cl13  1  0.96416000  0.38490400  0.93807200  1
  Cl  Cl14  1  0.53584000  0.38490400  0.43807200  1
  Cl  Cl15  1  0.03584000  0.61509600  0.06192800  1
  Cl  Cl16  1  0.22566700  0.55099000  0.48868100  1
  Cl  Cl17  1  0.72566700  0.44901000  0.01131900  1
  Cl  Cl18  1  0.77433300  0.44901000  0.51131900  1
  Cl  Cl19  1  0.27433300  0.55099000  0.98868100  1
  Cl  Cl20  1  0.17011600  0.83207100  0.34076200  1
  Cl  Cl21  1  0.67011600  0.16792900  0.15923800  1
  Cl  Cl22  1  0.82988400  0.16792900  0.65923800  1
  Cl  Cl23  1  0.32988400  0.83207100  0.84076200  1
  Cl  Cl24  1  0.28069100  0.90559800  0.60806400  1
  Cl  Cl25  1  0.78069100  0.09440200  0.89193600  1
  Cl  Cl26  1  0.71930900  0.09440200  0.39193600  1
  Cl  Cl27  1  0.21930900  0.90559800  0.10806400  1
  Cl  Cl28  1  0.33584000  0.62043300  0.75921500  1
  Cl  Cl29  1  0.83584000  0.37956700  0.74078500  1
  Cl  Cl30  1  0.66416000  0.37956700  0.24078500  1
  Cl  Cl31  1  0.16416000  0.62043300  0.25921500  1
  Cl  Cl32  1  0.09234400  0.55767500  0.68495800  1
  Cl  Cl33  1  0.59234400  0.44232500  0.81504200  1
  Cl  Cl34  1  0.90765600  0.44232500  0.31504200  1
  Cl  Cl35  1  0.40765600  0.55767500  0.18495800  1
  Cl  Cl36  1  0.04164300  0.83775300  0.53881700  1
  Cl  Cl37  1  0.54164300  0.16224700  0.96118300  1
  Cl  Cl38  1  0.95835700  0.16224700  0.46118300  1
  Cl  Cl39  1  0.45835700  0.83775300  0.03881700  1
  Cl  Cl40  1  0.40907900  0.72534200  0.29971700  1
  Cl  Cl41  1  0.90907900  0.27465800  0.20028300  1
  Cl  Cl42  1  0.59092100  0.27465800  0.70028300  1
  Cl  Cl43  1  0.09092100  0.72534200  0.79971700  1
  Cl  Cl44  1  0.18713500  0.07226000  0.35808100  1
  Cl  Cl45  1  0.68713500  0.92774000  0.14191900  1
  Cl  Cl46  1  0.81286500  0.92774000  0.64191900  1
  Cl  Cl47  1  0.31286500  0.07226000  0.85808100  1
  Cl  Cl48  1  0.54531800  0.80804700  0.63882400  1
  Cl  Cl49  1  0.04531800  0.19195300  0.86117600  1
  Cl  Cl50  1  0.45468200  0.19195300  0.36117600  1
  Cl  Cl51  1  0.95468200  0.80804700  0.13882400  1
  Cl  Cl52  1  0.31240000  0.38354300  0.72951900  1
  Cl  Cl53  1  0.81240000  0.61645700  0.77048100  1
  Cl  Cl54  1  0.68760000  0.61645700  0.27048100  1
  Cl  Cl55  1  0.18760000  0.38354300  0.22951900  1
  Cl  Cl56  1  0.95862100  0.64826000  0.45462700  1
  Cl  Cl57  1  0.45862100  0.35174000  0.04537300  1
  Cl  Cl58  1  0.04137900  0.35174000  0.54537300  1
  Cl  Cl59  1  0.54137900  0.64826000  0.95462700  1
loop_
_geom_bond_atom_site_label_1
_geom_bond_atom_site_label_2
_geom_bond_distance
_geom_bond_site_symmetry_2
Bi0 Cl4 2.488157 1_555
Bi0 Cl0 2.507272 1_555
Bi0 Cl47 2.840509 1_555
Bi0 Cl58 2.909330 1_555
Bi0 Cl49 3.118905 1_555
Bi0 Cl52 3.178896 1_555
Bi1 Cl5 2.488157 1_555
Bi1 Cl1 2.507272 1_555
Bi1 Cl46 2.840509 1_555
Bi1 Cl59 2.909330 1_555
Bi1 Cl48 3.118905 1_555
Bi1 Cl53 3.178896 1_555
Bi2 Cl6 2.488157 1_555
Bi2 Cl2 2.507272 1_555
Bi2 Cl45 2.840509 1_555
Bi2 Cl56 2.909330 1_555
Bi2 Cl51 3.118905 1_555
Bi2 Cl54 3.178896 1_555
Bi3 Cl7 2.488157 1_555
Bi3 Cl3 2.507272 1_555
Bi3 Cl44 2.840509 1_555
Bi3 Cl57 2.909330 1_555
Bi3 Cl50 3.118905 1_555
Bi3 Cl55 3.178896 1_555
Cl8 W8 2.473788 1_555
Cl8 W4 2.503071 1_555
Cl8 W0 2.508226 1_555
Cl9 W9 2.473788 1_554
Cl9 W5 2.503071 1_555
Cl9 W1 2.508226 1_555
Cl10 W10 2.473788 1_555
Cl10 W6 2.503071 1_555
Cl10 W2 2.508226 1_555
Cl11 W11 2.473788 1_556
Cl11 W7 2.503071 1_555
Cl11 W3 2.508226 1_555
Cl12 W12 2.507597 1_555
Cl12 W0 2.510026 1_555
Cl12 W8 2.521387 1_555
Cl13 W13 2.507597 1_555
Cl13 W1 2.510026 1_556
Cl13 W9 2.521387 1_555
Cl14 W14 2.507597 1_555
Cl14 W2 2.510026 1_555
Cl14 W10 2.521387 1_555
Cl15 W15 2.507597 1_555
Cl15 W3 2.510026 1_554
Cl15 W11 2.521387 1_555
Cl16 W12 2.489395 1_555
Cl16 W0 2.497630 1_555
Cl16 W16 2.524891 1_555
Cl17 W13 2.489395 1_554
Cl17 W1 2.497630 1_555
Cl17 W17 2.524891 1_554
Cl18 W14 2.489395 1_555
Cl18 W2 2.497630 1_555
Cl18 W18 2.524891 1_555
Cl19 W15 2.489395 1_556
Cl19 W3 2.497630 1_555
Cl19 W19 2.524891 1_556
Cl20 W16 2.492712 1_555
Cl20 W4 2.501882 1_555
Cl20 W0 2.506593 1_555
Cl21 W17 2.492712 1_554
Cl21 W5 2.501882 1_555
Cl21 W1 2.506593 1_555
Cl22 W18 2.492712 1_555
Cl22 W6 2.501882 1_555
Cl22 W2 2.506593 1_555
Cl23 W19 2.492712 1_556
Cl23 W7 2.501882 1_555
Cl23 W3 2.506593 1_555
Cl24 W4 2.483662 1_555
Cl24 W20 2.514999 1_555
Cl24 W8 2.519101 1_555
Cl25 W5 2.483662 1_556
Cl25 W21 2.514999 1_555
Cl25 W9 2.519101 1_555
Cl26 W6 2.483662 1_555
Cl26 W22 2.514999 1_555
Cl26 W10 2.519101 1_555
Cl27 W7 2.483662 1_554
Cl27 W23 2.514999 1_555
Cl27 W11 2.519101 1_555
Cl28 W12 2.508550 1_555
Cl28 W8 2.508764 1_555
Cl28 W20 2.518420 1_555
Cl29 W13 2.508550 1_555
Cl29 W9 2.508764 1_555
Cl29 W21 2.518420 1_555
Cl30 W14 2.508550 1_555
Cl30 W10 2.508764 1_555
Cl30 W22 2.518420 1_555
Cl31 W15 2.508550 1_555
Cl31 W11 2.508764 1_555
Cl31 W23 2.518420 1_555
Cl32 W16 2.509819 1_555
Cl32 W20 2.516580 1_555
Cl32 W12 2.520168 1_555
Cl33 W17 2.509819 1_555
Cl33 W21 2.516580 1_555
Cl33 W13 2.520168 1_555
Cl34 W18 2.509819 1_555
Cl34 W22 2.516580 1_555
Cl34 W14 2.520168 1_555
Cl35 W19 2.509819 1_555
Cl35 W23 2.516580 1_555
Cl35 W15 2.520168 1_555
Cl36 W20 2.495992 1_555
Cl36 W16 2.506135 1_555
Cl36 W4 2.516974 1_555
Cl37 W21 2.495992 1_555
Cl37 W17 2.506135 1_555
Cl37 W5 2.516974 1_556
Cl38 W22 2.495992 1_555
Cl38 W18 2.506135 1_555
Cl38 W6 2.516974 1_555
Cl39 W23 2.495992 1_555
Cl39 W19 2.506135 1_555
Cl39 W7 2.516974 1_554
Cl40 W0 2.550304 1_555
Cl40 W23 2.562287 1_555
Cl41 W1 2.550304 1_555
Cl41 W22 2.562287 1_555
Cl42 W2 2.550304 1_555
Cl42 W21 2.562287 1_555
Cl43 W3 2.550304 1_555
Cl43 W20 2.562287 1_555
Cl44 W4 2.511802 1_545
Cl45 W5 2.511802 1_565
Cl46 W6 2.511802 1_565
Cl47 W7 2.511802 1_545
Cl48 W8 2.444813 1_555
Cl49 W9 2.444813 1_455
Cl50 W10 2.444813 1_555
Cl51 W11 2.444813 1_655
Cl52 W12 2.447852 1_555
Cl53 W13 2.447852 1_555
Cl54 W14 2.447852 1_555
Cl55 W15 2.447852 1_555
Cl56 W16 2.503499 1_655
Cl57 W17 2.503499 1_554
Cl58 W18 2.503499 1_455
Cl59 W19 2.503499 1_556
