# generated using pymatgen
data_Sr4RuN4
_symmetry_space_group_name_H-M   'P 1'
_cell_length_a   10.69541000
_cell_length_b   4.12403200
_cell_length_c   16.31277200
_cell_angle_alpha   90.00000000
_cell_angle_beta   90.00000000
_cell_angle_gamma   90.00000000
_symmetry_Int_Tables_number   1
_chemical_formula_structural   Sr4RuN4
_chemical_formula_sum   'Sr16 Ru4 N16'
_cell_volume   719.52722352
_cell_formula_units_Z   4
loop_
 _symmetry_equiv_pos_site_id
 _symmetry_equiv_pos_as_xyz
  1  'x, y, z'
loop_
 _atom_site_type_symbol
 _atom_site_label
 _atom_site_symmetry_multiplicity
 _atom_site_fract_x
 _atom_site_fract_y
 _atom_site_fract_z
 _atom_site_occupancy
  Sr  Sr0  1  0.58819200  0.25000000  0.91949000  1
  Sr  Sr1  1  0.08819200  0.25000000  0.58051000  1
  Sr  Sr2  1  0.41180800  0.75000000  0.08051000  1
  Sr  Sr3  1  0.91180800  0.75000000  0.41949000  1
  Sr  Sr4  1  0.64609400  0.25000000  0.51994600  1
  Sr  Sr5  1  0.14609400  0.25000000  0.98005400  1
  Sr  Sr6  1  0.35390600  0.75000000  0.48005400  1
  Sr  Sr7  1  0.85390600  0.75000000  0.01994600  1
  Sr  Sr8  1  0.71475200  0.25000000  0.73446400  1
  Sr  Sr9  1  0.21475200  0.25000000  0.76553600  1
  Sr  Sr10  1  0.28524800  0.75000000  0.26553600  1
  Sr  Sr11  1  0.78524800  0.75000000  0.23446400  1
  Sr  Sr12  1  0.04211500  0.25000000  0.17204600  1
  Sr  Sr13  1  0.54211500  0.25000000  0.32795400  1
  Sr  Sr14  1  0.95788500  0.75000000  0.82795400  1
  Sr  Sr15  1  0.45788500  0.75000000  0.67204600  1
  Ru  Ru0  1  0.62920400  0.25000000  0.12952700  1
  Ru  Ru1  1  0.12920400  0.25000000  0.37047300  1
  Ru  Ru2  1  0.37079600  0.75000000  0.87047300  1
  Ru  Ru3  1  0.87079600  0.75000000  0.62952700  1
  N  N0  1  0.30209800  0.25000000  0.36628300  1
  N  N1  1  0.80209800  0.25000000  0.13371700  1
  N  N2  1  0.69790200  0.75000000  0.63371700  1
  N  N3  1  0.19790200  0.75000000  0.86628300  1
  N  N4  1  0.94067000  0.25000000  0.91785500  1
  N  N5  1  0.44067000  0.25000000  0.58214500  1
  N  N6  1  0.05933000  0.75000000  0.08214500  1
  N  N7  1  0.55933000  0.75000000  0.41785500  1
  N  N8  1  0.97213600  0.25000000  0.32437700  1
  N  N9  1  0.47213600  0.25000000  0.17562300  1
  N  N10  1  0.02786400  0.75000000  0.67562300  1
  N  N11  1  0.52786400  0.75000000  0.82437700  1
  N  N12  1  0.81911200  0.25000000  0.88863600  1
  N  N13  1  0.31911200  0.25000000  0.61136400  1
  N  N14  1  0.18088800  0.75000000  0.11136400  1
  N  N15  1  0.68088800  0.75000000  0.38863600  1
loop_
_geom_bond_atom_site_label_1
_geom_bond_atom_site_label_2
_geom_bond_distance
_geom_bond_site_symmetry_2
N0 Ru1 1.850435 1_555
N0 Sr13 2.642128 1_555
N0 Sr10 2.642983 1_555
N0 Sr10 2.642983 1_545
N0 Sr6 2.829026 1_545
N0 Sr6 2.829026 1_555
N1 Ru0 1.850435 1_555
N1 Sr12 2.642128 1_655
N1 Sr11 2.642983 1_545
N1 Sr11 2.642983 1_555
N1 Sr7 2.829026 1_555
N1 Sr7 2.829026 1_545
N2 Ru3 1.850435 1_555
N2 Sr15 2.642128 1_555
N2 Sr8 2.642983 1_555
N2 Sr8 2.642983 1_565
N2 Sr4 2.829026 1_565
N2 Sr4 2.829026 1_555
N3 Ru2 1.850435 1_555
N3 Sr14 2.642128 1_455
N3 Sr9 2.642983 1_555
N3 Sr9 2.642983 1_565
N3 Sr5 2.829026 1_565
N3 Sr5 2.829026 1_555
N4 Sr5 2.420064 1_655
N4 Sr14 2.537033 1_555
N4 Sr14 2.537033 1_545
N4 Sr7 2.808303 1_556
N4 Sr7 2.808303 1_546
N5 Sr4 2.420064 1_555
N5 Sr15 2.537033 1_545
N5 Sr15 2.537033 1_555
N5 Sr6 2.808303 1_555
N5 Sr6 2.808303 1_545
N6 Sr7 2.420064 1_455
N6 Sr12 2.537033 1_565
N6 Sr12 2.537033 1_555
N6 Sr5 2.808303 1_554
N6 Sr5 2.808303 1_564
N7 Sr6 2.420064 1_555
N7 Sr13 2.537033 1_565
N7 Sr13 2.537033 1_555
N7 Sr4 2.808303 1_555
N7 Sr4 2.808303 1_565
N8 Ru1 1.840522 1_655
N8 Sr12 2.595210 1_655
N8 Sr3 2.659993 1_545
N8 Sr3 2.659993 1_555
N8 Sr11 3.224684 1_545
N8 Sr11 3.224684 1_555
N9 Ru0 1.840522 1_555
N9 Sr13 2.595210 1_555
N9 Sr2 2.659993 1_555
N9 Sr2 2.659993 1_545
N9 Sr10 3.224684 1_555
N9 Sr10 3.224684 1_545
N10 Ru3 1.840522 1_455
N10 Sr14 2.595210 1_455
N10 Sr1 2.659993 1_555
N10 Sr1 2.659993 1_565
N10 Sr9 3.224684 1_555
N10 Sr9 3.224684 1_565
N11 Ru2 1.840522 1_555
N11 Sr15 2.595210 1_555
N11 Sr0 2.659993 1_555
N11 Sr0 2.659993 1_565
N11 Sr8 3.224684 1_555
N11 Sr8 3.224684 1_565
N12 N4 1.384732 1_555
N12 Sr0 2.520547 1_555
N12 Sr14 2.726673 1_545
N12 Sr14 2.726673 1_555
N12 Sr8 2.751532 1_555
N12 Sr7 2.996446 1_556
N12 Sr7 2.996446 1_546
N13 N5 1.384732 1_555
N13 Sr1 2.520547 1_555
N13 Sr15 2.726673 1_545
N13 Sr15 2.726673 1_555
N13 Sr9 2.751532 1_555
N13 Sr6 2.996446 1_555
N13 Sr6 2.996446 1_545
N14 N6 1.384732 1_555
N14 Sr2 2.520547 1_555
N14 Sr12 2.726673 1_565
N14 Sr12 2.726673 1_555
N14 Sr10 2.751532 1_555
N14 Sr5 2.996446 1_554
N14 Sr5 2.996446 1_564
N15 N7 1.384732 1_555
N15 Sr3 2.520547 1_555
N15 Sr13 2.726673 1_555
N15 Sr13 2.726673 1_565
N15 Sr11 2.751532 1_555
N15 Sr4 2.996446 1_555
N15 Sr4 2.996446 1_565
