# generated using pymatgen
data_U5SiS4
_symmetry_space_group_name_H-M   'P 1'
_cell_length_a   6.75963416
_cell_length_b   6.75963416
_cell_length_c   6.75963416
_cell_angle_alpha   99.58599060
_cell_angle_beta   99.58599060
_cell_angle_gamma   131.83169011
_symmetry_Int_Tables_number   1
_chemical_formula_structural   U5SiS4
_chemical_formula_sum   'U5 Si1 S4'
_cell_volume   210.10382013
_cell_formula_units_Z   1
loop_
 _symmetry_equiv_pos_site_id
 _symmetry_equiv_pos_as_xyz
  1  'x, y, z'
loop_
 _atom_site_type_symbol
 _atom_site_label
 _atom_site_symmetry_multiplicity
 _atom_site_fract_x
 _atom_site_fract_y
 _atom_site_fract_z
 _atom_site_occupancy
  U  U0  1  0.39888100  0.80444400  0.20332500  1
  U  U1  1  0.00000000  0.00000000  0.00000000  1
  U  U2  1  0.60111900  0.19555600  0.79667500  1
  U  U3  1  0.19555600  0.39888100  0.59443700  1
  U  U4  1  0.80444400  0.60111900  0.40556300  1
  Si  Si0  1  0.50000000  0.50000000  0.00000000  1
  S  S0  1  0.10247900  0.70089700  0.80337500  1
  S  S1  1  0.70089700  0.89752100  0.59841800  1
  S  S2  1  0.29910300  0.10247900  0.40158200  1
  S  S3  1  0.89752100  0.29910300  0.19662500  1
loop_
_geom_bond_atom_site_label_1
_geom_bond_atom_site_label_2
_geom_bond_distance
_geom_bond_site_symmetry_2
Si0 U1 2.758458 1_555
Si0 U1 2.758458 1_665
Si0 U0 2.799723 1_555
Si0 U4 2.799723 1_555
Si0 U3 2.799723 1_554
Si0 U2 2.799723 1_554
S0 U0 2.740126 1_556
S0 U4 2.742954 1_455
S0 U3 2.758138 1_555
S0 U2 2.758874 1_565
S0 U2 2.758880 1_455
S0 U1 2.759353 1_566
S1 U4 2.740120 1_555
S1 U2 2.742960 1_565
S1 U0 2.758141 1_555
S1 U3 2.758877 1_665
S1 U3 2.758877 1_555
S1 U1 2.759350 1_666
S2 U3 2.740120 1_555
S2 U0 2.742960 1_545
S2 U2 2.758141 1_555
S2 U4 2.758877 1_555
S2 U4 2.758877 1_445
S2 U1 2.759350 1_555
S3 U2 2.740126 1_554
S3 U3 2.742954 1_655
S3 U4 2.758138 1_555
S3 U0 2.758874 1_545
S3 U0 2.758880 1_655
S3 U1 2.759353 1_655
