# generated using pymatgen
data_PrAl2
_symmetry_space_group_name_H-M   'P 1'
_cell_length_a   5.70230887
_cell_length_b   5.70230828
_cell_length_c   5.70230926
_cell_angle_alpha   59.99998841
_cell_angle_beta   59.99999185
_cell_angle_gamma   59.99998768
_symmetry_Int_Tables_number   1
_chemical_formula_structural   PrAl2
_chemical_formula_sum   'Pr2 Al4'
_cell_volume   131.11038562
_cell_formula_units_Z   2
loop_
 _symmetry_equiv_pos_site_id
 _symmetry_equiv_pos_as_xyz
  1  'x, y, z'
loop_
 _atom_site_type_symbol
 _atom_site_label
 _atom_site_symmetry_multiplicity
 _atom_site_fract_x
 _atom_site_fract_y
 _atom_site_fract_z
 _atom_site_occupancy
  Pr  Pr0  1  0.12500000  0.12500000  0.12500000  1
  Pr  Pr1  1  0.87500000  0.87500000  0.87500000  1
  Al  Al0  1  0.50000000  0.00000000  0.50000000  1
  Al  Al1  1  -0.00000000  0.50000000  0.50000000  1
  Al  Al2  1  0.50000000  0.50000000  0.50000000  1
  Al  Al3  1  0.50000000  0.50000000  0.00000000  1
loop_
_geom_bond_atom_site_label_1
_geom_bond_atom_site_label_2
_geom_bond_distance
_geom_bond_site_symmetry_2
Pr0 Pr1 3.491936 1_454
Pr0 Pr1 3.491936 1_544
Pr0 Pr1 3.491937 1_445
Pr0 Pr1 3.491937 1_444
Al0 Al1 2.851154 1_555
Al0 Al1 2.851154 1_645
Al0 Al3 2.851154 1_555
Al0 Al3 2.851154 1_546
Al0 Al2 2.851154 1_555
Al0 Al2 2.851154 1_545
Al0 Pr0 3.343275 1_655
Al0 Pr1 3.343275 1_445
Al0 Pr1 3.343275 1_544
Al0 Pr0 3.343275 1_556
Al0 Pr1 3.343275 1_545
Al0 Pr0 3.343275 1_555
Al1 Al3 2.851154 1_456
Al1 Al3 2.851154 1_555
Al1 Al2 2.851154 1_455
Al1 Al2 2.851154 1_555
Al1 Pr1 3.343274 1_445
Al1 Pr0 3.343274 1_565
Al1 Pr0 3.343275 1_556
Al1 Pr1 3.343275 1_454
Al1 Pr1 3.343275 1_455
Al1 Pr0 3.343275 1_555
Al2 Al3 2.851155 1_555
Al2 Al3 2.851155 1_556
Al2 Pr1 3.343274 1_545
Al2 Pr0 3.343274 1_565
Al2 Pr1 3.343274 1_455
Al2 Pr0 3.343274 1_655
Al2 Pr1 3.343275 1_554
Al2 Pr0 3.343275 1_556
Al3 Pr1 3.343274 1_544
Al3 Pr0 3.343274 1_565
Al3 Pr0 3.343275 1_655
Al3 Pr1 3.343275 1_454
Al3 Pr0 3.343275 1_555
Al3 Pr1 3.343275 1_554
