# generated using pymatgen
data_Fe2Cu13(GeS8)2
_symmetry_space_group_name_H-M   'P 1'
_cell_length_a   10.55017525
_cell_length_b   10.55017525
_cell_length_c   10.55017525
_cell_angle_alpha   90.00000000
_cell_angle_beta   90.00000000
_cell_angle_gamma   90.00000000
_symmetry_Int_Tables_number   1
_chemical_formula_structural   Fe2Cu13(GeS8)2
_chemical_formula_sum   'Fe4 Cu26 Ge4 S32'
_cell_volume   1174.29989326
_cell_formula_units_Z   2
loop_
 _symmetry_equiv_pos_site_id
 _symmetry_equiv_pos_as_xyz
  1  'x, y, z'
loop_
 _atom_site_type_symbol
 _atom_site_label
 _atom_site_symmetry_multiplicity
 _atom_site_fract_x
 _atom_site_fract_y
 _atom_site_fract_z
 _atom_site_occupancy
  Fe  Fe0  1  0.75081889  0.24918111  0.24918111  1
  Fe  Fe1  1  0.24918111  0.24918111  0.75081889  1
  Fe  Fe2  1  0.24918111  0.75081889  0.24918111  1
  Fe  Fe3  1  0.75081889  0.75081889  0.75081889  1
  Cu  Cu0  1  0.50000000  0.24662465  0.50000000  1
  Cu  Cu1  1  0.75337535  0.50000000  0.50000000  1
  Cu  Cu2  1  0.50000000  0.50000000  0.24662465  1
  Cu  Cu3  1  0.24662465  0.50000000  0.50000000  1
  Cu  Cu4  1  0.50000000  0.50000000  0.75337535  1
  Cu  Cu5  1  0.50000000  0.75337535  0.50000000  1
  Cu  Cu6  1  0.73979285  -0.00000000  0.00000000  1
  Cu  Cu7  1  -0.00000000  0.26020715  0.00000000  1
  Cu  Cu8  1  -0.00000000  -0.00000000  0.73979285  1
  Cu  Cu9  1  -0.00000000  0.73979285  0.00000000  1
  Cu  Cu10  1  -0.00000000  -0.00000000  0.26020715  1
  Cu  Cu11  1  0.26020715  -0.00000000  0.00000000  1
  Cu  Cu12  1  0.50000000  0.50000000  0.50000000  1
  Cu  Cu13  1  -0.00000000  -0.00000000  0.00000000  1
  Cu  Cu14  1  -0.00000000  0.24462900  0.50000000  1
  Cu  Cu15  1  0.75537100  0.50000000  0.00000000  1
  Cu  Cu16  1  0.50000000  -0.00000000  0.24462900  1
  Cu  Cu17  1  0.24462900  0.50000000  0.00000000  1
  Cu  Cu18  1  0.50000000  -0.00000000  0.75537100  1
  Cu  Cu19  1  -0.00000000  0.75537100  0.50000000  1
  Cu  Cu20  1  0.50000000  0.24435869  0.00000000  1
  Cu  Cu21  1  0.75564131  -0.00000000  0.50000000  1
  Cu  Cu22  1  -0.00000000  0.50000000  0.24435869  1
  Cu  Cu23  1  0.24435869  -0.00000000  0.50000000  1
  Cu  Cu24  1  -0.00000000  0.50000000  0.75564131  1
  Cu  Cu25  1  0.50000000  0.75564131  0.00000000  1
  Ge  Ge0  1  0.74673962  0.25326038  0.74673962  1
  Ge  Ge1  1  0.74673962  0.74673962  0.25326038  1
  Ge  Ge2  1  0.25326038  0.74673962  0.74673962  1
  Ge  Ge3  1  0.25326038  0.25326038  0.25326038  1
  S  S0  1  0.87042486  0.12966104  0.37238575  1
  S  S1  1  0.87033896  0.37238575  0.12957514  1
  S  S2  1  0.62761425  0.12957514  0.12966104  1
  S  S3  1  0.12957514  0.12966104  0.62761425  1
  S  S4  1  0.12966104  0.37238575  0.87042486  1
  S  S5  1  0.37238575  0.12957514  0.87033896  1
  S  S6  1  0.12957514  0.87033896  0.37238575  1
  S  S7  1  0.12966104  0.62761425  0.12957514  1
  S  S8  1  0.37238575  0.87042486  0.12966104  1
  S  S9  1  0.87042486  0.87033896  0.62761425  1
  S  S10  1  0.87033896  0.62761425  0.87042486  1
  S  S11  1  0.62761425  0.87042486  0.87033896  1
  S  S12  1  0.62566804  0.37419823  0.87690520  1
  S  S13  1  0.87690520  0.37433196  0.62580177  1
  S  S14  1  0.62580177  0.12309480  0.62566804  1
  S  S15  1  0.62566804  0.62580177  0.12309480  1
  S  S16  1  0.87690520  0.62566804  0.37419823  1
  S  S17  1  0.62580177  0.87690520  0.37433196  1
  S  S18  1  0.37433196  0.62580177  0.87690520  1
  S  S19  1  0.12309480  0.62566804  0.62580177  1
  S  S20  1  0.37419823  0.87690520  0.62566804  1
  S  S21  1  0.37433196  0.37419823  0.12309480  1
  S  S22  1  0.12309480  0.37433196  0.37419823  1
  S  S23  1  0.37419823  0.12309480  0.37433196  1
  S  S24  1  0.62877340  0.37122660  0.37122660  1
  S  S25  1  0.37122660  0.37122660  0.62877340  1
  S  S26  1  0.37122660  0.62877340  0.37122660  1
  S  S27  1  0.62877340  0.62877340  0.62877340  1
  S  S28  1  0.87264362  0.12735638  0.87264362  1
  S  S29  1  0.87264362  0.87264362  0.12735638  1
  S  S30  1  0.12735638  0.87264362  0.87264362  1
  S  S31  1  0.12735638  0.12735638  0.12735638  1
loop_
_geom_bond_atom_site_label_1
_geom_bond_atom_site_label_2
_geom_bond_distance
_geom_bond_site_symmetry_2
Fe0 S0 2.207232 1_555
Fe0 S1 2.207232 1_555
Fe0 S2 2.207232 1_555
Fe0 S24 2.230191 1_555
Fe1 S4 2.207232 1_555
Fe1 S5 2.207232 1_555
Fe1 S3 2.207232 1_555
Fe1 S25 2.230191 1_555
Fe2 S8 2.207232 1_555
Fe2 S6 2.207232 1_555
Fe2 S7 2.207232 1_555
Fe2 S26 2.230191 1_555
Fe3 S11 2.207232 1_555
Fe3 S9 2.207232 1_555
Fe3 S10 2.207232 1_555
Fe3 S27 2.230191 1_555
Cu0 S23 2.284257 1_555
Cu0 S14 2.284257 1_555
Cu0 S24 2.328001 1_555
Cu0 S25 2.328001 1_555
Cu1 S16 2.284257 1_555
Cu1 S13 2.284257 1_555
Cu1 S24 2.328001 1_555
Cu1 S27 2.328001 1_555
Cu2 S21 2.284257 1_555
Cu2 S15 2.284257 1_555
Cu2 S24 2.328001 1_555
Cu2 S26 2.328001 1_555
Cu3 S22 2.284257 1_555
Cu3 S19 2.284257 1_555
Cu3 S25 2.328001 1_555
Cu3 S26 2.328001 1_555
Cu4 S12 2.284257 1_555
Cu4 S18 2.284257 1_555
Cu4 S25 2.328001 1_555
Cu4 S27 2.328001 1_555
Cu5 S20 2.284257 1_555
Cu5 S17 2.284257 1_555
Cu5 S26 2.328001 1_555
Cu5 S27 2.328001 1_555
Cu6 S2 2.267324 1_555
Cu6 S11 2.267324 1_544
Cu6 S28 2.361181 1_554
Cu6 S29 2.361181 1_545
Cu7 S1 2.267324 1_455
Cu7 S4 2.267324 1_554
Cu7 S31 2.361181 1_555
Cu7 S28 2.361181 1_454
Cu8 S3 2.267324 1_555
Cu8 S9 2.267324 1_445
Cu8 S30 2.361181 1_545
Cu8 S28 2.361181 1_455
Cu9 S7 2.267324 1_555
Cu9 S10 2.267324 1_454
Cu9 S30 2.361181 1_554
Cu9 S29 2.361181 1_455
Cu10 S6 2.267324 1_545
Cu10 S0 2.267324 1_455
Cu10 S31 2.361181 1_555
Cu10 S29 2.361181 1_445
Cu11 S5 2.267324 1_554
Cu11 S8 2.267324 1_545
Cu11 S31 2.361181 1_555
Cu11 S30 2.361181 1_544
Cu12 S24 2.353133 1_555
Cu12 S25 2.353133 1_555
Cu12 S26 2.353133 1_555
Cu12 S27 2.353133 1_555
Cu13 S31 2.327239 1_555
Cu13 S29 2.327239 1_445
Cu13 S30 2.327239 1_544
Cu13 S28 2.327239 1_454
Cu14 S3 2.269949 1_555
Cu14 S0 2.269949 1_455
Cu14 S22 2.306638 1_555
Cu14 S13 2.306638 1_455
Cu15 S1 2.269949 1_555
Cu15 S10 2.269949 1_554
Cu15 S12 2.306638 1_554
Cu15 S15 2.306638 1_555
Cu16 S8 2.269949 1_545
Cu16 S2 2.269949 1_555
Cu16 S17 2.306638 1_545
Cu16 S23 2.306638 1_555
Cu17 S7 2.269949 1_555
Cu17 S4 2.269949 1_554
Cu17 S21 2.306638 1_555
Cu17 S18 2.306638 1_554
Cu18 S5 2.269949 1_555
Cu18 S11 2.269949 1_545
Cu18 S20 2.306638 1_545
Cu18 S14 2.306638 1_555
Cu19 S6 2.269949 1_555
Cu19 S9 2.269949 1_455
Cu19 S16 2.306638 1_455
Cu19 S19 2.306638 1_555
Cu20 S5 2.269456 1_554
Cu20 S2 2.269456 1_555
Cu20 S12 2.306682 1_554
Cu20 S21 2.306682 1_555
Cu21 S0 2.269456 1_555
Cu21 S9 2.269456 1_545
Cu21 S17 2.306682 1_545
Cu21 S14 2.306682 1_555
Cu22 S1 2.269456 1_455
Cu22 S7 2.269456 1_555
Cu22 S16 2.306682 1_455
Cu22 S22 2.306682 1_555
Cu23 S6 2.269456 1_545
Cu23 S3 2.269456 1_555
Cu23 S20 2.306682 1_545
Cu23 S23 2.306682 1_555
Cu24 S10 2.269456 1_455
Cu24 S4 2.269456 1_555
Cu24 S13 2.306682 1_455
Cu24 S19 2.306682 1_555
Cu25 S8 2.269456 1_555
Cu25 S11 2.269456 1_554
Cu25 S18 2.306682 1_554
Cu25 S15 2.306682 1_555
Ge0 S13 2.268346 1_555
Ge0 S14 2.268346 1_555
Ge0 S12 2.268346 1_555
Ge0 S28 2.300699 1_555
Ge1 S17 2.268346 1_555
Ge1 S16 2.268346 1_555
Ge1 S15 2.268346 1_555
Ge1 S29 2.300699 1_555
Ge2 S18 2.268346 1_555
Ge2 S20 2.268346 1_555
Ge2 S19 2.268346 1_555
Ge2 S30 2.300699 1_555
Ge3 S23 2.268346 1_555
Ge3 S22 2.268346 1_555
Ge3 S21 2.268346 1_555
Ge3 S31 2.300699 1_555
