# generated using pymatgen
data_K2Na4Ca5(Si6O17)2
_symmetry_space_group_name_H-M   'P 1'
_cell_length_a   10.45198365
_cell_length_b   10.45198365
_cell_length_c   12.85676837
_cell_angle_alpha   70.82385530
_cell_angle_beta   109.17614470
_cell_angle_gamma   137.17600277
_symmetry_Int_Tables_number   1
_chemical_formula_structural   K2Na4Ca5(Si6O17)2
_chemical_formula_sum   'K2 Na4 Ca5 Si12 O34'
_cell_volume   893.32423051
_cell_formula_units_Z   1
loop_
 _symmetry_equiv_pos_site_id
 _symmetry_equiv_pos_as_xyz
  1  'x, y, z'
loop_
 _atom_site_type_symbol
 _atom_site_label
 _atom_site_symmetry_multiplicity
 _atom_site_fract_x
 _atom_site_fract_y
 _atom_site_fract_z
 _atom_site_occupancy
  K  K0  1  0.15832400  0.84167600  0.49251500  1
  K  K1  1  0.82905300  0.17094700  0.50313200  1
  Na  Na0  1  0.00326200  0.99673800  0.99378700  1
  Na  Na1  1  0.48828600  0.51171400  0.94133100  1
  Na  Na2  1  0.74559400  0.25440600  0.00443100  1
  Na  Na3  1  0.55365400  0.44634600  0.47236100  1
  Ca  Ca0  1  0.25162200  0.74837800  0.99887600  1
  Ca  Ca1  1  0.95581600  0.60335000  0.16364300  1
  Ca  Ca2  1  0.39665000  0.04418400  0.16364300  1
  Ca  Ca3  1  0.08027500  0.40985600  0.83357700  1
  Ca  Ca4  1  0.59014400  0.91972500  0.83357700  1
  Si  Si0  1  0.05948800  0.35349100  0.24240400  1
  Si  Si1  1  0.64650900  0.94051200  0.24240400  1
  Si  Si2  1  0.94155000  0.66613500  0.73816000  1
  Si  Si3  1  0.33386500  0.05845000  0.73816000  1
  Si  Si4  1  0.30540800  0.69459200  0.36969200  1
  Si  Si5  1  0.69871900  0.30128100  0.69867600  1
  Si  Si6  1  0.17874500  0.22391500  0.74126400  1
  Si  Si7  1  0.77608500  0.82125500  0.74126400  1
  Si  Si8  1  0.81226600  0.77905600  0.26074400  1
  Si  Si9  1  0.22094400  0.18773400  0.26074400  1
  Si  Si10  1  0.37109300  0.62890700  0.62986100  1
  Si  Si11  1  0.58952400  0.41047600  0.17878500  1
  O  O0  1  0.02919900  0.46255500  0.13058900  1
  O  O1  1  0.53744500  0.97080100  0.13058900  1
  O  O2  1  0.01766800  0.59259800  0.84733600  1
  O  O3  1  0.40740200  0.98233200  0.84733600  1
  O  O4  1  0.16753600  0.47369500  0.34917900  1
  O  O5  1  0.52630500  0.83246400  0.34917900  1
  O  O6  1  0.82619000  0.52649900  0.63979900  1
  O  O7  1  0.47350100  0.17381000  0.63979900  1
  O  O8  1  0.85544300  0.14455700  0.28396900  1
  O  O9  1  0.12440000  0.87560000  0.68097800  1
  O  O10  1  0.18569200  0.32685500  0.22566200  1
  O  O11  1  0.67314500  0.81430800  0.22566200  1
  O  O12  1  0.80928700  0.68440200  0.75805100  1
  O  O13  1  0.31559800  0.19071300  0.75805100  1
  O  O14  1  0.31174300  0.68825700  0.50055400  1
  O  O15  1  0.69305700  0.30694300  0.82461300  1
  O  O16  1  0.32793400  0.67206600  0.71623900  1
  O  O17  1  0.78163900  0.21836100  0.70016400  1
  O  O18  1  0.22000600  0.77999400  0.29192000  1
  O  O19  1  0.66931800  0.33068200  0.27937900  1
  O  O20  1  0.24469000  0.40098800  0.63863600  1
  O  O21  1  0.59901200  0.75531000  0.63863600  1
  O  O22  1  0.81466100  0.68436100  0.38468300  1
  O  O23  1  0.31563900  0.18533900  0.38468300  1
  O  O24  1  0.18736900  0.26830000  0.85291400  1
  O  O25  1  0.73170000  0.81263100  0.85291400  1
  O  O26  1  0.72671300  0.64056800  0.16822700  1
  O  O27  1  0.35943200  0.27328700  0.16822700  1
  O  O28  1  0.35913500  0.64086500  0.94596500  1
  O  O29  1  0.87148000  0.12852000  0.95124600  1
  O  O30  1  0.14545600  0.85454400  0.04748800  1
  O  O31  1  0.61752300  0.38247700  0.07254000  1
  O  O32  1  0.96071600  0.03928400  0.69027200  1
  O  O33  1  0.02208900  0.97791100  0.21948800  1
loop_
_geom_bond_atom_site_label_1
_geom_bond_atom_site_label_2
_geom_bond_distance
_geom_bond_site_symmetry_2
K0 O23 2.662755 1_565
K0 O22 2.662755 1_455
K0 O9 2.726854 1_555
K0 O14 2.950831 1_555
K0 O6 3.151843 1_455
K0 O7 3.151843 1_565
K0 O18 3.205747 1_555
K1 O32 2.829143 1_555
K1 O17 2.986292 1_555
K1 O8 3.037190 1_555
K1 O21 3.185335 1_545
K1 O20 3.185335 1_655
K1 O5 3.242067 1_545
K1 O4 3.242067 1_655
K1 O19 3.410098 1_555
Na0 O29 2.426244 1_465
Na0 O25 2.437215 1_455
Na0 O24 2.437215 1_565
Na0 O30 2.605036 1_556
Na0 O33 2.793628 1_556
Na1 O25 2.338902 1_555
Na1 O24 2.338902 1_555
Na1 O31 2.485462 1_556
Na1 O28 2.535062 1_555
Na2 O15 2.173056 1_554
Na2 O1 2.418766 1_545
Na2 O0 2.418766 1_655
Na2 O29 2.766157 1_554
Na2 O31 2.918730 1_555
Na3 O23 2.263721 1_555
Na3 O22 2.263721 1_555
Na3 O7 2.665697 1_555
Na3 O6 2.665697 1_555
Ca0 O2 2.353779 1_555
Ca0 O3 2.353779 1_555
Ca0 O30 2.360224 1_556
Ca0 O28 2.417638 1_555
Ca0 O1 2.504397 1_556
Ca0 O0 2.504397 1_556
Ca1 O30 2.187969 1_655
Ca1 O0 2.283661 1_655
Ca1 O18 2.298632 1_655
Ca1 O31 2.507063 1_555
Ca1 O19 2.631706 1_555
Ca1 O26 2.713483 1_555
Ca2 O30 2.187969 1_545
Ca2 O1 2.283661 1_545
Ca2 O18 2.298632 1_545
Ca2 O31 2.507063 1_555
Ca2 O19 2.631706 1_555
Ca2 O27 2.713483 1_555
Ca3 O24 2.347054 1_555
Ca3 O29 2.351822 1_455
Ca3 O28 2.369590 1_555
Ca3 O16 2.435201 1_555
Ca3 O2 2.497811 1_555
Ca3 O17 2.502960 1_455
Ca4 O25 2.347054 1_555
Ca4 O29 2.351822 1_565
Ca4 O28 2.369590 1_555
Ca4 O16 2.435201 1_555
Ca4 O3 2.497811 1_555
Ca4 O17 2.502960 1_565
O0 Si0 1.618682 1_555
O1 Si1 1.618682 1_555
O2 Si2 1.627440 1_455
O3 Si3 1.627440 1_565
O4 Si4 1.657298 1_555
O4 Si0 1.664828 1_555
O5 Si4 1.657298 1_555
O5 Si1 1.664828 1_555
O6 Si5 1.667539 1_555
O6 Si2 1.677062 1_555
O7 Si5 1.667539 1_555
O7 Si3 1.677062 1_555
O8 Si0 1.659243 1_655
O8 Si1 1.659243 1_545
O9 Si3 1.647455 1_565
O9 Si2 1.647455 1_455
O10 Si0 1.621233 1_555
O10 Si9 1.642999 1_555
O11 Si1 1.621233 1_555
O11 Si8 1.642999 1_555
O12 Si2 1.632301 1_555
O12 Si7 1.639858 1_555
O13 Si3 1.632301 1_555
O13 Si6 1.639858 1_555
O14 Si4 1.643018 1_555
O14 Si10 1.656169 1_555
O15 Si5 1.661223 1_555
O16 Si10 1.611517 1_555
O17 Si5 1.607069 1_555
O18 Si4 1.609169 1_555
O19 Si11 1.633065 1_555
O20 Si10 1.654614 1_555
O20 Si6 1.662327 1_555
O21 Si10 1.654614 1_555
O21 Si7 1.662327 1_555
O22 Si8 1.579046 1_555
O23 Si9 1.579046 1_555
O24 Si6 1.604685 1_555
O25 Si7 1.604685 1_555
O26 Si11 1.647147 1_555
O26 Si8 1.686212 1_555
O27 Si11 1.647147 1_555
O27 Si9 1.686212 1_555
O31 Si11 1.639511 1_555
O32 Si7 1.657021 1_545
O32 Si6 1.657021 1_655
O33 Si9 1.662653 1_565
O33 Si8 1.662653 1_455
