# generated using pymatgen
data_MgCr2O4
_symmetry_space_group_name_H-M   'P 1'
_cell_length_a   5.98465949
_cell_length_b   5.98465949
_cell_length_c   14.70269300
_cell_angle_alpha   90.00000000
_cell_angle_beta   90.00000000
_cell_angle_gamma   119.99999432
_symmetry_Int_Tables_number   1
_chemical_formula_structural   MgCr2O4
_chemical_formula_sum   'Mg6 Cr12 O24'
_cell_volume   456.04367391
_cell_formula_units_Z   6
loop_
 _symmetry_equiv_pos_site_id
 _symmetry_equiv_pos_as_xyz
  1  'x, y, z'
loop_
 _atom_site_type_symbol
 _atom_site_label
 _atom_site_symmetry_multiplicity
 _atom_site_fract_x
 _atom_site_fract_y
 _atom_site_fract_z
 _atom_site_occupancy
  Mg  Mg0  1  0.00000000  0.00000000  0.95337200  1
  Mg  Mg1  1  0.66666700  0.33333300  0.62488500  1
  Mg  Mg2  1  0.66666700  0.33333300  0.99571100  1
  Mg  Mg3  1  0.33333300  0.66666700  0.29197000  1
  Mg  Mg4  1  0.00000000  0.00000000  0.71034400  1
  Mg  Mg5  1  0.66666700  0.33333300  0.37545200  1
  Cr  Cr0  1  0.50118700  0.00237300  0.83299500  1
  Cr  Cr1  1  0.99762700  0.49881300  0.83299500  1
  Cr  Cr2  1  0.16679100  0.33358300  0.50057100  1
  Cr  Cr3  1  0.50118700  0.49881300  0.83299500  1
  Cr  Cr4  1  0.33333300  0.66666700  0.66721100  1
  Cr  Cr5  1  0.66641700  0.83320900  0.50057100  1
  Cr  Cr6  1  0.83446700  0.66893400  0.16746500  1
  Cr  Cr7  1  0.16679100  0.83320900  0.50057100  1
  Cr  Cr8  1  0.83446700  0.16553300  0.16746500  1
  Cr  Cr9  1  0.00000000  0.00000000  0.33447900  1
  Cr  Cr10  1  0.33106600  0.16553300  0.16746500  1
  Cr  Cr11  1  0.33333300  0.66666700  0.04398500  1
  O  O0  1  0.35741900  0.17870900  0.90976100  1
  O  O1  1  0.66666700  0.33333300  0.76014100  1
  O  O2  1  0.82129100  0.17870900  0.90976100  1
  O  O3  1  0.82129100  0.64258100  0.90976100  1
  O  O4  1  0.18207100  0.36414200  0.75319800  1
  O  O5  1  0.02905700  0.51452900  0.57931000  1
  O  O6  1  0.18207100  0.81792900  0.75319800  1
  O  O7  1  0.33333300  0.66666700  0.90798000  1
  O  O8  1  0.48547100  0.51452900  0.57931000  1
  O  O9  1  0.33333300  0.66666700  0.42745600  1
  O  O10  1  0.63585800  0.81792900  0.75319800  1
  O  O11  1  0.48547100  0.97094300  0.57931000  1
  O  O12  1  0.84798800  0.69597700  0.42017900  1
  O  O13  1  0.69683200  0.84841600  0.24663000  1
  O  O14  1  0.84798800  0.15201200  0.42017900  1
  O  O15  1  0.00000000  0.00000000  0.57279300  1
  O  O16  1  0.00000000  0.00000000  0.09417800  1
  O  O17  1  0.15158400  0.84841600  0.24663000  1
  O  O18  1  0.30402300  0.15201200  0.42017900  1
  O  O19  1  0.15158400  0.30316800  0.24663000  1
  O  O20  1  0.50783900  0.01567800  0.09044400  1
  O  O21  1  0.66666700  0.33333300  0.23835300  1
  O  O22  1  0.50783900  0.49216100  0.09044400  1
  O  O23  1  0.98432200  0.49216100  0.09044400  1
loop_
_geom_bond_atom_site_label_1
_geom_bond_atom_site_label_2
_geom_bond_distance
_geom_bond_site_symmetry_2
Mg0 O2 1.960282 1_455
Mg0 O0 1.960287 1_555
Mg0 O3 1.960287 1_445
Mg0 O16 2.070227 1_556
Mg1 O1 1.988627 1_555
Mg1 O5 1.994169 1_655
Mg1 O11 1.994169 1_545
Mg1 O8 1.994178 1_555
Mg2 O2 2.041046 1_555
Mg2 O0 2.041046 1_555
Mg2 O3 2.041046 1_555
Mg2 O23 2.156499 1_556
Mg2 O20 2.156499 1_556
Mg2 O22 2.156503 1_556
Mg3 O9 1.992009 1_555
Mg3 O17 1.998423 1_555
Mg3 O19 1.998428 1_555
Mg3 O13 1.998428 1_555
Mg4 O6 1.989695 1_545
Mg4 O4 1.989695 1_555
Mg4 O10 1.989695 1_445
Mg4 O15 2.022370 1_555
Mg5 O14 1.991246 1_555
Mg5 O12 1.991256 1_555
Mg5 O18 1.991256 1_555
Mg5 O21 2.015725 1_555
Cr0 O0 2.008944 1_555
Cr0 O2 2.008944 1_555
Cr0 O1 2.022299 1_555
Cr0 O10 2.033258 1_545
Cr0 O6 2.033262 1_545
Cr0 O7 2.059802 1_545
Cr1 O3 2.008944 1_555
Cr1 O2 2.008944 1_555
Cr1 O1 2.022299 1_555
Cr1 O4 2.033258 1_655
Cr1 O6 2.033262 1_655
Cr1 O7 2.059802 1_655
Cr2 O5 2.021130 1_555
Cr2 O8 2.021130 1_555
Cr2 O15 2.028964 1_555
Cr2 O9 2.033670 1_555
Cr2 O18 2.035882 1_555
Cr2 O14 2.035883 1_455
Cr3 O0 2.008944 1_555
Cr3 O3 2.008944 1_555
Cr3 O1 2.022298 1_555
Cr3 O4 2.033263 1_555
Cr3 O10 2.033263 1_555
Cr3 O7 2.059811 1_555
Cr4 O6 2.014136 1_555
Cr4 O10 2.014140 1_555
Cr4 O4 2.014140 1_555
Cr4 O8 2.038933 1_555
Cr4 O5 2.038933 1_555
Cr4 O11 2.038933 1_555
Cr5 O11 2.021130 1_555
Cr5 O8 2.021130 1_555
Cr5 O15 2.028964 1_665
Cr5 O9 2.033670 1_555
Cr5 O12 2.035882 1_555
Cr5 O14 2.035883 1_565
Cr6 O13 2.017863 1_555
Cr6 O17 2.017864 1_655
Cr6 O16 2.026143 1_665
Cr6 O21 2.027733 1_555
Cr6 O23 2.038299 1_555
Cr6 O22 2.038299 1_555
Cr7 O5 2.021130 1_555
Cr7 O11 2.021130 1_555
Cr7 O15 2.028959 1_565
Cr7 O9 2.033670 1_555
Cr7 O18 2.035883 1_565
Cr7 O12 2.035883 1_455
Cr8 O13 2.017864 1_545
Cr8 O19 2.017864 1_655
Cr8 O16 2.026143 1_655
Cr8 O21 2.027728 1_555
Cr8 O23 2.038299 1_555
Cr8 O20 2.038299 1_555
Cr9 O12 2.017552 1_445
Cr9 O18 2.017552 1_555
Cr9 O14 2.017556 1_455
Cr9 O17 2.034009 1_545
Cr9 O19 2.034009 1_555
Cr9 O13 2.034009 1_445
Cr10 O19 2.017863 1_555
Cr10 O17 2.017864 1_545
Cr10 O16 2.026143 1_555
Cr10 O21 2.027733 1_555
Cr10 O20 2.038299 1_555
Cr10 O22 2.038299 1_555
Cr11 O20 1.933553 1_565
Cr11 O23 1.933553 1_455
Cr11 O22 1.933558 1_555
Cr11 O7 1.999640 1_554
