# generated using pymatgen
data_Fe2As2PbO10
_symmetry_space_group_name_H-M   'P 1'
_cell_length_a   9.32688935
_cell_length_b   9.32688935
_cell_length_c   11.96307800
_cell_angle_alpha   90.00000000
_cell_angle_beta   90.00000000
_cell_angle_gamma   130.28269956
_symmetry_Int_Tables_number   1
_chemical_formula_structural   Fe2As2PbO10
_chemical_formula_sum   'Fe8 As8 Pb4 O40'
_cell_volume   793.89574217
_cell_formula_units_Z   4
loop_
 _symmetry_equiv_pos_site_id
 _symmetry_equiv_pos_as_xyz
  1  'x, y, z'
loop_
 _atom_site_type_symbol
 _atom_site_label
 _atom_site_symmetry_multiplicity
 _atom_site_fract_x
 _atom_site_fract_y
 _atom_site_fract_z
 _atom_site_occupancy
  Fe  Fe0  1  0.49334300  0.24328300  0.36955300  1
  Fe  Fe1  1  0.50665700  0.75671700  0.36955300  1
  Fe  Fe2  1  0.24328300  0.49334300  0.13044700  1
  Fe  Fe3  1  0.75671700  0.50665700  0.13044700  1
  Fe  Fe4  1  0.50665700  0.75671700  0.63044700  1
  Fe  Fe5  1  0.49334300  0.24328300  0.63044700  1
  Fe  Fe6  1  0.75671700  0.50665700  0.86955300  1
  Fe  Fe7  1  0.24328300  0.49334300  0.86955300  1
  As  As0  1  0.22789500  0.30837500  0.50000000  1
  As  As1  1  0.77210500  0.69162400  0.50000000  1
  As  As2  1  0.30837500  0.22789500  0.00000000  1
  As  As3  1  0.69162400  0.77210500  0.00000000  1
  As  As4  1  0.78831900  0.21168100  0.25000000  1
  As  As5  1  0.21168100  0.78831900  0.25000000  1
  As  As6  1  0.21168100  0.78831900  0.75000000  1
  As  As7  1  0.78831900  0.21168100  0.75000000  1
  Pb  Pb0  1  0.00000000  0.00000000  0.25000000  1
  Pb  Pb1  1  0.00000000  0.00000000  0.75000000  1
  Pb  Pb2  1  0.00000000  0.50000000  0.50000000  1
  Pb  Pb3  1  0.50000000  0.00000000  0.00000000  1
  O  O0  1  0.73036800  0.76931700  0.38270600  1
  O  O1  1  0.26963200  0.23068300  0.38270600  1
  O  O2  1  0.76931700  0.73036800  0.11729400  1
  O  O3  1  0.23068300  0.26963200  0.11729400  1
  O  O4  1  0.26963200  0.23068300  0.61729400  1
  O  O5  1  0.73036800  0.76931700  0.61729400  1
  O  O6  1  0.23068300  0.26963200  0.88270600  1
  O  O7  1  0.76931700  0.73036800  0.88270600  1
  O  O8  1  0.44574100  0.62024500  0.00000000  1
  O  O9  1  0.55425900  0.37975500  0.00000000  1
  O  O10  1  0.62024500  0.44574100  0.50000000  1
  O  O11  1  0.37975500  0.55425900  0.50000000  1
  O  O12  1  0.00527500  0.22777500  0.50000000  1
  O  O13  1  0.99472500  0.77222500  0.50000000  1
  O  O14  1  0.22777500  0.00527500  0.00000000  1
  O  O15  1  0.77222500  0.99472500  0.00000000  1
  O  O16  1  0.67067100  0.97521700  0.25673000  1
  O  O17  1  0.32932900  0.02478300  0.25673000  1
  O  O18  1  0.97521700  0.67067100  0.24327000  1
  O  O19  1  0.02478300  0.32932900  0.24327000  1
  O  O20  1  0.32932900  0.02478300  0.74327000  1
  O  O21  1  0.67067100  0.97521700  0.74327000  1
  O  O22  1  0.02478300  0.32932900  0.75673000  1
  O  O23  1  0.97521700  0.67067100  0.75673000  1
  O  O24  1  0.73411000  0.28147300  0.36535400  1
  O  O25  1  0.26589000  0.71852700  0.36535400  1
  O  O26  1  0.28147300  0.73411000  0.13464600  1
  O  O27  1  0.71852700  0.26589000  0.13464600  1
  O  O28  1  0.26589000  0.71852700  0.63464600  1
  O  O29  1  0.73411000  0.28147300  0.63464600  1
  O  O30  1  0.71852700  0.26589000  0.86535400  1
  O  O31  1  0.28147300  0.73411000  0.86535400  1
  O  O32  1  0.57984900  0.90129100  0.50000000  1
  O  O33  1  0.42015100  0.09870900  0.50000000  1
  O  O34  1  0.90129100  0.57984900  0.00000000  1
  O  O35  1  0.09870900  0.42015100  0.00000000  1
  O  O36  1  0.58714600  0.41285400  0.25000000  1
  O  O37  1  0.41285400  0.58714600  0.25000000  1
  O  O38  1  0.41285400  0.58714600  0.75000000  1
  O  O39  1  0.58714600  0.41285400  0.75000000  1
loop_
_geom_bond_atom_site_label_1
_geom_bond_atom_site_label_2
_geom_bond_distance
_geom_bond_site_symmetry_2
Fe0 O36 1.876977 1_555
Fe0 O33 1.878630 1_555
Fe0 O1 2.018684 1_555
Fe0 O24 2.034163 1_555
Fe0 O17 2.069703 1_555
Fe0 O10 2.124098 1_555
Fe1 O37 1.876977 1_555
Fe1 O32 1.878630 1_555
Fe1 O0 2.018684 1_555
Fe1 O25 2.034163 1_555
Fe1 O16 2.069703 1_555
Fe1 O11 2.124098 1_555
Fe2 O37 1.876977 1_555
Fe2 O35 1.878630 1_555
Fe2 O3 2.018684 1_555
Fe2 O26 2.034163 1_555
Fe2 O19 2.069703 1_555
Fe2 O8 2.124098 1_555
Fe3 O36 1.876977 1_555
Fe3 O34 1.878630 1_555
Fe3 O2 2.018684 1_555
Fe3 O27 2.034163 1_555
Fe3 O18 2.069703 1_555
Fe3 O9 2.124098 1_555
Fe4 O38 1.876977 1_555
Fe4 O32 1.878630 1_555
Fe4 O5 2.018684 1_555
Fe4 O28 2.034163 1_555
Fe4 O21 2.069703 1_555
Fe4 O11 2.124098 1_555
Fe5 O39 1.876977 1_555
Fe5 O33 1.878630 1_555
Fe5 O4 2.018684 1_555
Fe5 O29 2.034163 1_555
Fe5 O20 2.069703 1_555
Fe5 O10 2.124098 1_555
Fe6 O39 1.876977 1_555
Fe6 O34 1.878630 1_556
Fe6 O7 2.018684 1_555
Fe6 O30 2.034163 1_555
Fe6 O23 2.069703 1_555
Fe6 O9 2.124098 1_556
Fe7 O38 1.876977 1_555
Fe7 O35 1.878630 1_556
Fe7 O6 2.018684 1_555
Fe7 O31 2.034163 1_555
Fe7 O22 2.069703 1_555
Fe7 O8 2.124098 1_556
As0 O12 1.690545 1_555
As0 O1 1.735034 1_555
As0 O4 1.735034 1_555
As0 O11 1.750760 1_555
As1 O13 1.690542 1_555
As1 O0 1.735039 1_555
As1 O5 1.735039 1_555
As1 O10 1.750752 1_555
As2 O14 1.690545 1_555
As2 O3 1.735034 1_555
As2 O6 1.735034 1_554
As2 O9 1.750760 1_555
As3 O15 1.690542 1_555
As3 O2 1.735039 1_555
As3 O7 1.735039 1_554
As3 O8 1.750752 1_555
As4 O16 1.716169 1_545
As4 O19 1.716169 1_655
As4 O24 1.734738 1_555
As4 O27 1.734738 1_555
As5 O18 1.716169 1_455
As5 O17 1.716169 1_565
As5 O25 1.734738 1_555
As5 O26 1.734738 1_555
As6 O23 1.716169 1_455
As6 O20 1.716169 1_565
As6 O31 1.734738 1_555
As6 O28 1.734738 1_555
As7 O21 1.716169 1_545
As7 O22 1.716169 1_655
As7 O30 1.734738 1_555
As7 O29 1.734738 1_555
O0 Pb0 2.545022 1_665
O1 Pb0 2.545022 1_555
O2 Pb0 2.545022 1_665
O3 Pb0 2.545022 1_555
O4 Pb1 2.545022 1_555
O5 Pb1 2.545022 1_665
O6 Pb1 2.545022 1_555
O7 Pb1 2.545022 1_665
O12 Pb2 2.571097 1_555
O13 Pb2 2.571097 1_655
O14 Pb3 2.571097 1_555
O15 Pb3 2.571097 1_565
O24 Pb2 2.522441 1_655
O25 Pb2 2.522441 1_555
O26 Pb3 2.522441 1_565
O27 Pb3 2.522441 1_555
O28 Pb2 2.522441 1_555
O29 Pb2 2.522441 1_655
O30 Pb3 2.522441 1_556
O31 Pb3 2.522441 1_566
