# generated using pymatgen
data_SbPbBrO2
_symmetry_space_group_name_H-M   'P 1'
_cell_length_a   7.07096901
_cell_length_b   7.07096901
_cell_length_c   7.07096901
_cell_angle_alpha   147.71427563
_cell_angle_beta   147.71427563
_cell_angle_gamma   46.30733201
_symmetry_Int_Tables_number   1
_chemical_formula_structural   SbPbBrO2
_chemical_formula_sum   'Sb1 Pb1 Br1 O2'
_cell_volume   100.51255490
_cell_formula_units_Z   1
loop_
 _symmetry_equiv_pos_site_id
 _symmetry_equiv_pos_as_xyz
  1  'x, y, z'
loop_
 _atom_site_type_symbol
 _atom_site_label
 _atom_site_symmetry_multiplicity
 _atom_site_fract_x
 _atom_site_fract_y
 _atom_site_fract_z
 _atom_site_occupancy
  Sb  Sb0  1  0.32894600  0.32894600  0.00000000  1
  Pb  Pb0  1  0.63881400  0.63881400  0.00000000  1
  Br  Br0  1  0.99800700  0.99800700  0.00000000  1
  O  O0  1  0.75501700  0.25501700  0.50000000  1
  O  O1  1  0.25501700  0.75501700  0.50000000  1
loop_
_geom_bond_atom_site_label_1
_geom_bond_atom_site_label_2
_geom_bond_distance
_geom_bond_site_symmetry_2
Br0 Pb0 3.328995 1_666
Br0 Pb0 3.328995 1_554
Br0 Pb0 3.328995 1_655
Br0 Pb0 3.328995 1_565
O0 Sb0 2.188400 1_555
O0 Sb0 2.188400 1_656
O0 Pb0 2.479526 1_556
O0 Pb0 2.479526 1_545
O1 Sb0 2.188400 1_555
O1 Sb0 2.188400 1_566
O1 Pb0 2.479526 1_556
O1 Pb0 2.479526 1_455
