# generated using pymatgen
data_Cs3As2Cl9
_symmetry_space_group_name_H-M   'P 1'
_cell_length_a   7.56753340
_cell_length_b   7.56753340
_cell_length_c   9.13853300
_cell_angle_alpha   90.00000000
_cell_angle_beta   90.00000000
_cell_angle_gamma   119.99999479
_symmetry_Int_Tables_number   1
_chemical_formula_structural   Cs3As2Cl9
_chemical_formula_sum   'Cs3 As2 Cl9'
_cell_volume   453.22706072
_cell_formula_units_Z   1
loop_
 _symmetry_equiv_pos_site_id
 _symmetry_equiv_pos_as_xyz
  1  'x, y, z'
loop_
 _atom_site_type_symbol
 _atom_site_label
 _atom_site_symmetry_multiplicity
 _atom_site_fract_x
 _atom_site_fract_y
 _atom_site_fract_z
 _atom_site_occupancy
  Cs  Cs0  1  0.00000000  0.00000000  0.00000000  1
  Cs  Cs1  1  0.66666700  0.33333300  0.67999800  1
  Cs  Cs2  1  0.33333300  0.66666700  0.32000200  1
  As  As0  1  0.66666700  0.33333300  0.18288100  1
  As  As1  1  0.33333300  0.66666700  0.81711900  1
  Cl  Cl0  1  0.48425200  0.00000000  0.00000000  1
  Cl  Cl1  1  0.51574800  0.51574800  0.00000000  1
  Cl  Cl2  1  0.00000000  0.48425200  0.00000000  1
  Cl  Cl3  1  0.17320800  0.80524100  0.67578500  1
  Cl  Cl4  1  0.63203300  0.82679200  0.67578500  1
  Cl  Cl5  1  0.19475900  0.36796700  0.67578500  1
  Cl  Cl6  1  0.82679200  0.63203300  0.32421500  1
  Cl  Cl7  1  0.80524100  0.17320800  0.32421500  1
  Cl  Cl8  1  0.36796700  0.19475900  0.32421500  1
loop_
_geom_bond_atom_site_label_1
_geom_bond_atom_site_label_2
_geom_bond_distance
_geom_bond_site_symmetry_2
As0 Cl7 2.346689 1_555
As0 Cl6 2.346694 1_555
As0 Cl8 2.346694 1_555
As0 Cl2 2.753110 1_655
As0 Cl0 2.753110 1_555
As0 Cl1 2.753115 1_555
As1 Cl3 2.346689 1_555
As1 Cl4 2.346694 1_555
As1 Cl5 2.346694 1_555
As1 Cl0 2.753110 1_566
As1 Cl2 2.753110 1_556
As1 Cl1 2.753115 1_556
Cl0 Cs2 3.652164 1_545
Cl0 Cs1 3.652165 1_554
Cl0 Cs0 3.664593 1_555
Cl0 Cs0 3.902940 1_655
Cl1 Cs1 3.652168 1_554
Cl1 Cs2 3.652168 1_555
Cl1 Cs0 3.664593 1_665
Cl1 Cs0 3.902941 1_555
Cl2 Cs1 3.652164 1_454
Cl2 Cs2 3.652165 1_555
Cl2 Cs0 3.664593 1_555
Cl2 Cs0 3.902940 1_565
Cl3 Cs1 3.709374 1_455
Cl3 Cs2 3.796042 1_555
Cl3 Cs0 3.821078 1_566
Cl3 Cs1 3.872161 1_565
Cl4 Cs1 3.709370 1_565
Cl4 Cs2 3.796045 1_555
Cl4 Cs0 3.821078 1_666
Cl4 Cs1 3.872164 1_555
Cl5 Cs1 3.709378 1_555
Cl5 Cs2 3.796045 1_555
Cl5 Cs0 3.821078 1_556
Cl5 Cs1 3.872157 1_455
Cl6 Cs2 3.709370 1_655
Cl6 Cs1 3.796045 1_555
Cl6 Cs0 3.821078 1_665
Cl6 Cs2 3.872164 1_555
Cl7 Cs2 3.709374 1_545
Cl7 Cs1 3.796042 1_555
Cl7 Cs0 3.821078 1_655
Cl7 Cs2 3.872161 1_655
Cl8 Cs2 3.709378 1_555
Cl8 Cs1 3.796045 1_555
Cl8 Cs0 3.821078 1_555
Cl8 Cs2 3.872157 1_545
