# generated using pymatgen
data_Pr6Fe13Cu
_symmetry_space_group_name_H-M   'P 1'
_cell_length_a   8.05565800
_cell_length_b   8.05565800
_cell_length_c   12.78155756
_cell_angle_alpha   108.36855221
_cell_angle_beta   108.36855221
_cell_angle_gamma   90.00000000
_symmetry_Int_Tables_number   1
_chemical_formula_structural   Pr6Fe13Cu
_chemical_formula_sum   'Pr12 Fe26 Cu2'
_cell_volume   742.51864208
_cell_formula_units_Z   2
loop_
 _symmetry_equiv_pos_site_id
 _symmetry_equiv_pos_as_xyz
  1  'x, y, z'
loop_
 _atom_site_type_symbol
 _atom_site_label
 _atom_site_symmetry_multiplicity
 _atom_site_fract_x
 _atom_site_fract_y
 _atom_site_fract_z
 _atom_site_occupancy
  Pr  Pr0  1  0.97564500  0.47564500  0.62306500  1
  Pr  Pr1  1  0.64742100  0.14742100  0.62306500  1
  Pr  Pr2  1  0.14742100  0.97564500  0.62306500  1
  Pr  Pr3  1  0.47564500  0.64742100  0.62306500  1
  Pr  Pr4  1  0.02435500  0.52435500  0.37693500  1
  Pr  Pr5  1  0.35257900  0.85257900  0.37693500  1
  Pr  Pr6  1  0.85257900  0.02435500  0.37693500  1
  Pr  Pr7  1  0.52435500  0.35257900  0.37693500  1
  Pr  Pr8  1  0.60976600  0.60976600  0.21953100  1
  Pr  Pr9  1  0.10976600  0.10976600  0.21953100  1
  Pr  Pr10  1  0.39023400  0.39023400  0.78046900  1
  Pr  Pr11  1  0.89023400  0.89023400  0.78046900  1
  Fe  Fe0  1  0.11843000  0.61843000  0.88077200  1
  Fe  Fe1  1  0.76234200  0.26234200  0.88077200  1
  Fe  Fe2  1  0.26234200  0.11843000  0.88077200  1
  Fe  Fe3  1  0.61843000  0.76234200  0.88077200  1
  Fe  Fe4  1  0.88157000  0.38157000  0.11922800  1
  Fe  Fe5  1  0.23765800  0.73765800  0.11922800  1
  Fe  Fe6  1  0.73765800  0.88157000  0.11922800  1
  Fe  Fe7  1  0.38157000  0.23765800  0.11922800  1
  Fe  Fe8  1  0.71104900  0.56689600  0.00000000  1
  Fe  Fe9  1  0.28895100  0.43310400  0.00000000  1
  Fe  Fe10  1  0.78895100  0.06689600  0.00000000  1
  Fe  Fe11  1  0.21104900  0.93310400  0.00000000  1
  Fe  Fe12  1  0.56689600  0.28895100  0.00000000  1
  Fe  Fe13  1  0.43310400  0.71104900  0.00000000  1
  Fe  Fe14  1  0.06689600  0.21104900  0.00000000  1
  Fe  Fe15  1  0.93310400  0.78895100  0.00000000  1
  Fe  Fe16  1  0.29066200  0.79066200  0.80928600  1
  Fe  Fe17  1  0.51862400  0.01862400  0.80928600  1
  Fe  Fe18  1  0.01862400  0.29066200  0.80928600  1
  Fe  Fe19  1  0.79066200  0.51862400  0.80928600  1
  Fe  Fe20  1  0.70933800  0.20933800  0.19071400  1
  Fe  Fe21  1  0.48137600  0.98137600  0.19071400  1
  Fe  Fe22  1  0.98137600  0.70933800  0.19071400  1
  Fe  Fe23  1  0.20933800  0.48137600  0.19071400  1
  Fe  Fe24  1  0.00000000  0.50000000  0.00000000  1
  Fe  Fe25  1  0.50000000  0.00000000  0.00000000  1
  Cu  Cu0  1  0.25000000  0.25000000  0.50000000  1
  Cu  Cu1  1  0.75000000  0.75000000  0.50000000  1
loop_
_geom_bond_atom_site_label_1
_geom_bond_atom_site_label_2
_geom_bond_distance
_geom_bond_site_symmetry_2
Fe0 Fe24 2.444443 1_556
Fe0 Fe11 2.480620 1_556
Fe0 Fe13 2.480620 1_556
Fe0 Fe16 2.506553 1_555
Fe0 Fe19 2.543503 1_455
Fe0 Fe18 2.543503 1_555
Fe0 Fe15 2.559812 1_456
Fe0 Fe9 2.559812 1_556
Fe0 Fe5 2.728435 1_556
Fe0 Pr0 2.952975 1_455
Fe0 Pr11 3.178183 1_455
Fe0 Pr10 3.178183 1_555
Fe1 Fe24 2.444443 1_656
Fe1 Fe12 2.480620 1_556
Fe1 Fe10 2.480620 1_556
Fe1 Fe17 2.506553 1_555
Fe1 Fe18 2.543503 1_655
Fe1 Fe19 2.543503 1_555
Fe1 Fe8 2.559812 1_556
Fe1 Fe14 2.559812 1_656
Fe1 Fe4 2.728435 1_556
Fe1 Pr1 2.952975 1_555
Fe1 Pr10 3.178186 1_555
Fe1 Pr11 3.178186 1_545
Fe2 Fe25 2.444443 1_556
Fe2 Fe9 2.480620 1_556
Fe2 Fe7 2.728435 1_556
Fe2 Pr2 2.952975 1_545
Fe2 Pr10 3.178180 1_555
Fe2 Pr11 3.178190 1_445
Fe3 Fe8 2.480620 1_556
Fe3 Fe6 2.728435 1_556
Fe3 Pr3 2.952975 1_555
Fe3 Pr11 3.178180 1_555
Fe3 Pr10 3.178190 1_555
Fe4 Fe8 2.559812 1_555
Fe4 Pr4 2.952975 1_655
Fe4 Pr8 3.178183 1_555
Fe4 Pr9 3.178183 1_655
Fe5 Fe9 2.559812 1_555
Fe5 Pr5 2.952975 1_555
Fe5 Pr9 3.178186 1_565
Fe5 Pr8 3.178186 1_555
Fe6 Fe8 2.480620 1_555
Fe6 Pr6 2.952975 1_565
Fe6 Pr8 3.178180 1_555
Fe6 Pr9 3.178190 1_665
Fe7 Fe9 2.480620 1_555
Fe7 Pr7 2.952975 1_555
Fe7 Pr9 3.178180 1_555
Fe7 Pr8 3.178190 1_555
Fe8 Pr8 3.080660 1_555
Fe8 Pr10 3.080666 1_554
Fe9 Pr10 3.080660 1_554
Fe9 Pr8 3.080666 1_555
Fe10 Fe25 2.389256 1_555
Fe10 Fe4 2.480620 1_555
Fe10 Fe14 2.522251 1_655
Fe10 Fe15 2.522251 1_545
Fe10 Fe12 2.529744 1_555
Fe10 Fe3 2.559812 1_544
Fe10 Fe6 2.559812 1_545
Fe10 Fe20 2.625339 1_555
Fe10 Fe17 2.625339 1_554
Fe10 Pr11 3.080661 1_544
Fe10 Pr9 3.080664 1_655
Fe11 Fe25 2.389256 1_565
Fe11 Fe5 2.480620 1_555
Fe11 Fe15 2.522251 1_455
Fe11 Fe14 2.522251 1_565
Fe11 Fe13 2.529744 1_555
Fe11 Fe7 2.559812 1_565
Fe11 Fe2 2.559812 1_564
Fe11 Fe21 2.625339 1_555
Fe11 Fe16 2.625339 1_554
Fe11 Pr9 3.080661 1_565
Fe11 Pr11 3.080664 1_454
Fe12 Fe25 2.389256 1_555
Fe12 Fe4 2.480620 1_555
Fe12 Fe9 2.522251 1_555
Fe12 Fe8 2.522251 1_555
Fe12 Fe7 2.559812 1_555
Fe12 Fe2 2.559812 1_554
Fe12 Fe17 2.625339 1_554
Fe12 Fe20 2.625339 1_555
Fe12 Pr10 3.080661 1_554
Fe12 Pr8 3.080664 1_555
Fe13 Fe25 2.389256 1_565
Fe13 Fe5 2.480620 1_555
Fe13 Fe9 2.522251 1_555
Fe13 Fe8 2.522251 1_555
Fe13 Fe6 2.559812 1_555
Fe13 Fe3 2.559812 1_554
Fe13 Fe21 2.625339 1_555
Fe13 Fe16 2.625339 1_554
Fe13 Pr8 3.080661 1_555
Fe13 Pr10 3.080664 1_554
Fe14 Fe24 2.389256 1_555
Fe14 Fe2 2.480620 1_554
Fe14 Fe7 2.480620 1_555
Fe14 Fe9 2.529744 1_555
Fe14 Fe4 2.559812 1_455
Fe14 Fe23 2.625339 1_555
Fe14 Fe18 2.625339 1_554
Fe14 Pr9 3.080660 1_555
Fe14 Pr11 3.080666 1_444
Fe15 Fe24 2.389256 1_655
Fe15 Fe3 2.480620 1_554
Fe15 Fe6 2.480620 1_555
Fe15 Fe8 2.529744 1_555
Fe15 Fe5 2.559812 1_655
Fe15 Fe22 2.625339 1_555
Fe15 Fe19 2.625339 1_554
Fe15 Pr11 3.080660 1_554
Fe15 Pr9 3.080666 1_665
Fe16 Fe25 2.539292 1_566
Fe16 Fe2 2.543503 1_565
Fe16 Fe3 2.543503 1_555
Fe16 Fe17 2.597039 1_565
Fe16 Pr3 3.117984 1_555
Fe16 Pr2 3.117984 1_555
Fe16 Pr10 3.259088 1_555
Fe16 Pr11 3.259088 1_455
Fe16 Pr0 3.306233 1_455
Fe17 Fe25 2.539292 1_556
Fe17 Fe2 2.543503 1_555
Fe17 Fe3 2.543503 1_545
Fe17 Pr3 3.117979 1_545
Fe17 Pr2 3.117979 1_545
Fe17 Pr10 3.259083 1_555
Fe17 Pr11 3.259083 1_545
Fe17 Pr1 3.306241 1_555
Fe18 Fe2 2.506553 1_555
Fe18 Fe24 2.539292 1_556
Fe18 Fe19 2.597039 1_455
Fe18 Fe9 2.625339 1_556
Fe18 Pr1 3.117978 1_455
Fe18 Pr0 3.117985 1_455
Fe18 Pr10 3.259081 1_555
Fe18 Pr11 3.259091 1_445
Fe18 Pr2 3.306237 1_545
Fe19 Fe3 2.506553 1_555
Fe19 Fe24 2.539292 1_656
Fe19 Fe8 2.625339 1_556
Fe19 Pr1 3.117978 1_555
Fe19 Pr0 3.117985 1_555
Fe19 Pr11 3.259081 1_555
Fe19 Pr10 3.259091 1_555
Fe19 Pr3 3.306237 1_555
Fe20 Fe4 2.506553 1_555
Fe20 Fe25 2.539292 1_555
Fe20 Fe7 2.543503 1_555
Fe20 Fe6 2.543503 1_545
Fe20 Fe21 2.597039 1_545
Fe20 Pr6 3.117984 1_555
Fe20 Pr7 3.117984 1_555
Fe20 Pr9 3.259088 1_655
Fe20 Pr8 3.259088 1_555
Fe20 Pr4 3.306233 1_655
Fe21 Fe5 2.506553 1_555
Fe21 Fe25 2.539292 1_565
Fe21 Fe7 2.543503 1_565
Fe21 Fe6 2.543503 1_555
Fe21 Pr6 3.117979 1_565
Fe21 Pr7 3.117979 1_565
Fe21 Pr8 3.259083 1_555
Fe21 Pr9 3.259083 1_565
Fe21 Pr5 3.306241 1_555
Fe22 Fe6 2.506553 1_555
Fe22 Fe24 2.539292 1_655
Fe22 Fe5 2.543503 1_655
Fe22 Fe4 2.543503 1_555
Fe22 Fe23 2.597039 1_655
Fe22 Fe8 2.625339 1_555
Fe22 Pr5 3.117978 1_655
Fe22 Pr4 3.117985 1_655
Fe22 Pr8 3.259081 1_555
Fe22 Pr9 3.259091 1_665
Fe22 Pr6 3.306237 1_565
Fe23 Fe7 2.506553 1_555
Fe23 Fe24 2.539292 1_555
Fe23 Fe5 2.543503 1_555
Fe23 Fe4 2.543503 1_455
Fe23 Fe9 2.625339 1_555
Fe23 Pr5 3.117978 1_555
Fe23 Pr4 3.117985 1_555
Fe23 Pr9 3.259081 1_555
Fe23 Pr8 3.259091 1_555
Fe23 Pr7 3.306237 1_555
Fe24 Fe8 2.389256 1_455
Fe24 Fe9 2.389256 1_555
Fe24 Fe5 2.444443 1_555
Fe24 Fe4 2.444443 1_455
Fe25 Fe7 2.444443 1_555
Fe25 Fe3 2.444443 1_544
Fe25 Fe6 2.444443 1_545
Cu0 Pr9 3.209151 1_555
Cu0 Pr10 3.209151 1_555
Cu0 Pr7 3.324437 1_555
Cu0 Pr2 3.324437 1_545
Cu0 Pr0 3.324440 1_455
Cu0 Pr4 3.324440 1_555
Cu0 Pr5 3.324444 1_545
Cu0 Pr1 3.324444 1_555
Cu0 Pr6 3.324447 1_455
Cu0 Pr3 3.324447 1_555
Cu1 Pr8 3.209151 1_555
Cu1 Pr11 3.209151 1_555
Cu1 Pr6 3.324437 1_565
Cu1 Pr3 3.324437 1_555
Cu1 Pr4 3.324440 1_655
Cu1 Pr0 3.324440 1_555
Cu1 Pr5 3.324444 1_555
Cu1 Pr1 3.324444 1_565
Cu1 Pr7 3.324447 1_555
Cu1 Pr2 3.324447 1_655
