# generated using pymatgen
data_SmPaO4
_symmetry_space_group_name_H-M   'P 1'
_cell_length_a   3.82240846
_cell_length_b   3.82240846
_cell_length_c   5.46884627
_cell_angle_alpha   90.00000000
_cell_angle_beta   90.00000000
_cell_angle_gamma   90.00000000
_symmetry_Int_Tables_number   1
_chemical_formula_structural   SmPaO4
_chemical_formula_sum   'Sm1 Pa1 O4'
_cell_volume   79.90425427
_cell_formula_units_Z   1
loop_
 _symmetry_equiv_pos_site_id
 _symmetry_equiv_pos_as_xyz
  1  'x, y, z'
loop_
 _atom_site_type_symbol
 _atom_site_label
 _atom_site_symmetry_multiplicity
 _atom_site_fract_x
 _atom_site_fract_y
 _atom_site_fract_z
 _atom_site_occupancy
  Sm  Sm0  1  0.00000000  -0.00000000  -0.00000000  1
  Pa  Pa0  1  0.50000000  0.50000000  0.50000000  1
  O  O0  1  0.50000000  0.00000000  0.73456222  1
  O  O1  1  0.00000000  0.50000000  0.26543778  1
  O  O2  1  0.50000000  0.00000000  0.26543778  1
  O  O3  1  -0.00000000  0.50000000  0.73456222  1
loop_
_geom_bond_atom_site_label_1
_geom_bond_atom_site_label_2
_geom_bond_distance
_geom_bond_site_symmetry_2
O0 Pa0 2.301790 1_555
O0 Pa0 2.301790 1_545
O0 Sm0 2.399991 1_656
O0 Sm0 2.399991 1_556
O1 Pa0 2.301790 1_455
O1 Pa0 2.301790 1_555
O1 Sm0 2.399991 1_555
O1 Sm0 2.399991 1_565
O2 Pa0 2.301790 1_555
O2 Pa0 2.301790 1_545
O2 Sm0 2.399991 1_555
O2 Sm0 2.399991 1_655
O3 Pa0 2.301790 1_455
O3 Pa0 2.301790 1_555
O3 Sm0 2.399991 1_566
O3 Sm0 2.399991 1_556
