# generated using pymatgen
data_Sb2SN2O5F6
_symmetry_space_group_name_H-M   'P 1'
_cell_length_a   8.66063800
_cell_length_b   8.66063800
_cell_length_c   14.41411300
_cell_angle_alpha   90.00000000
_cell_angle_beta   90.00000000
_cell_angle_gamma   90.00000000
_symmetry_Int_Tables_number   1
_chemical_formula_structural   Sb2SN2O5F6
_chemical_formula_sum   'Sb8 S4 N8 O20 F24'
_cell_volume   1081.15433702
_cell_formula_units_Z   4
loop_
 _symmetry_equiv_pos_site_id
 _symmetry_equiv_pos_as_xyz
  1  'x, y, z'
loop_
 _atom_site_type_symbol
 _atom_site_label
 _atom_site_symmetry_multiplicity
 _atom_site_fract_x
 _atom_site_fract_y
 _atom_site_fract_z
 _atom_site_occupancy
  Sb  Sb0  1  0.38138300  0.15750900  0.13555000  1
  Sb  Sb1  1  0.61861700  0.84249100  0.63555000  1
  Sb  Sb2  1  0.34249100  0.88138300  0.38555000  1
  Sb  Sb3  1  0.11861700  0.65750900  0.11445000  1
  Sb  Sb4  1  0.65750900  0.11861700  0.88555000  1
  Sb  Sb5  1  0.88138300  0.34249100  0.61445000  1
  Sb  Sb6  1  0.15750900  0.38138300  0.86445000  1
  Sb  Sb7  1  0.84249100  0.61861700  0.36445000  1
  S  S0  1  0.04740100  0.04740100  0.00000000  1
  S  S1  1  0.95259900  0.95259900  0.50000000  1
  S  S2  1  0.45259900  0.54740100  0.25000000  1
  S  S3  1  0.54740100  0.45259900  0.75000000  1
  N  N0  1  0.15729000  0.31334100  0.37096000  1
  N  N1  1  0.84271000  0.68665900  0.87096000  1
  N  N2  1  0.18665900  0.65729000  0.62096000  1
  N  N3  1  0.34271000  0.81334100  0.87904000  1
  N  N4  1  0.81334100  0.34271000  0.12096000  1
  N  N5  1  0.65729000  0.18665900  0.37904000  1
  N  N6  1  0.31334100  0.15729000  0.62904000  1
  N  N7  1  0.68665900  0.84271000  0.12904000  1
  O  O0  1  0.56574500  0.56574500  0.00000000  1
  O  O1  1  0.43425500  0.43425500  0.50000000  1
  O  O2  1  0.93425500  0.06574500  0.25000000  1
  O  O3  1  0.06574500  0.93425500  0.75000000  1
  O  O4  1  0.10443200  0.13104000  0.08459300  1
  O  O5  1  0.89556800  0.86896000  0.58459300  1
  O  O6  1  0.36896000  0.60443200  0.33459300  1
  O  O7  1  0.39556800  0.63104000  0.16540700  1
  O  O8  1  0.63104000  0.39556800  0.83459300  1
  O  O9  1  0.60443200  0.36896000  0.66540700  1
  O  O10  1  0.13104000  0.10443200  0.91540700  1
  O  O11  1  0.86896000  0.89556800  0.41540700  1
  O  O12  1  0.42293200  0.37858000  0.24468100  1
  O  O13  1  0.57706800  0.62142000  0.74468100  1
  O  O14  1  0.12142000  0.92293200  0.49468100  1
  O  O15  1  0.07706800  0.87858000  0.00531900  1
  O  O16  1  0.87858000  0.07706800  0.99468100  1
  O  O17  1  0.92293200  0.12142000  0.50531900  1
  O  O18  1  0.37858000  0.42293200  0.75531900  1
  O  O19  1  0.62142000  0.57706800  0.25531900  1
  F  F0  1  0.11484000  0.46007400  0.17607800  1
  F  F1  1  0.88516000  0.53992600  0.67607800  1
  F  F2  1  0.03992600  0.61484000  0.42607800  1
  F  F3  1  0.38516000  0.96007400  0.07392200  1
  F  F4  1  0.96007400  0.38516000  0.92607800  1
  F  F5  1  0.61484000  0.03992600  0.57392200  1
  F  F6  1  0.46007400  0.11484000  0.82392200  1
  F  F7  1  0.53992600  0.88516000  0.32392200  1
  F  F8  1  0.28727000  0.05690900  0.24525500  1
  F  F9  1  0.71273000  0.94309100  0.74525500  1
  F  F10  1  0.44309100  0.78727000  0.49525500  1
  F  F11  1  0.21273000  0.55690900  0.00474500  1
  F  F12  1  0.55690900  0.21273000  0.99525500  1
  F  F13  1  0.78727000  0.44309100  0.50474500  1
  F  F14  1  0.05690900  0.28727000  0.75474500  1
  F  F15  1  0.94309100  0.71273000  0.25474500  1
  F  F16  1  0.37772900  0.08601300  0.43182500  1
  F  F17  1  0.62227100  0.91398700  0.93182500  1
  F  F18  1  0.41398700  0.87772900  0.68182500  1
  F  F19  1  0.12227100  0.58601300  0.81817500  1
  F  F20  1  0.58601300  0.12227100  0.18182500  1
  F  F21  1  0.87772900  0.41398700  0.31817500  1
  F  F22  1  0.08601300  0.37772900  0.56817500  1
  F  F23  1  0.91398700  0.62227100  0.06817500  1
loop_
_geom_bond_atom_site_label_1
_geom_bond_atom_site_label_2
_geom_bond_distance
_geom_bond_site_symmetry_2
O4 S0 1.501813 1_555
O4 Sb0 2.518966 1_555
O5 S1 1.501813 1_555
O5 Sb1 2.518966 1_555
O6 S2 1.501813 1_555
O6 Sb2 2.518966 1_555
O7 S2 1.501813 1_555
O7 Sb3 2.518966 1_555
O8 S3 1.501813 1_555
O8 Sb4 2.518966 1_555
O9 S3 1.501813 1_555
O9 Sb5 2.518966 1_555
O10 S0 1.501813 1_556
O10 Sb6 2.518966 1_555
O11 S1 1.501813 1_555
O11 Sb7 2.518966 1_555
O12 S2 1.486480 1_555
O12 Sb0 2.503927 1_555
O13 S3 1.486480 1_555
O13 Sb1 2.503927 1_555
O14 S1 1.486480 1_455
O14 Sb2 2.503927 1_555
O15 S0 1.486480 1_565
O15 Sb3 2.503927 1_555
O16 S0 1.486480 1_656
O16 Sb4 2.503927 1_555
O17 S1 1.486480 1_545
O17 Sb5 2.503927 1_555
O18 S3 1.486480 1_555
O18 Sb6 2.503927 1_555
O19 S2 1.486480 1_555
O19 Sb7 2.503927 1_555
F0 Sb3 1.927167 1_555
F1 Sb5 1.927167 1_555
F2 Sb7 1.927167 1_455
F3 Sb0 1.927167 1_565
F4 Sb6 1.927167 1_655
F5 Sb1 1.927167 1_545
F6 Sb4 1.927167 1_555
F7 Sb2 1.927167 1_555
F8 Sb0 1.980898 1_555
F8 Sb2 2.574692 1_545
F9 Sb1 1.980898 1_555
F9 Sb4 2.574692 1_565
F10 Sb2 1.980898 1_555
F10 Sb1 2.574692 1_555
F11 Sb3 1.980898 1_555
F11 Sb6 2.574692 1_554
F12 Sb4 1.980898 1_555
F12 Sb0 2.574692 1_556
F13 Sb5 1.980898 1_555
F13 Sb7 2.574692 1_555
F14 Sb6 1.980898 1_555
F14 Sb5 2.574692 1_455
F15 Sb7 1.980898 1_555
F15 Sb3 2.574692 1_655
F16 Sb2 1.918028 1_545
F17 Sb4 1.918028 1_565
F18 Sb1 1.918028 1_555
F19 Sb6 1.918028 1_555
F20 Sb0 1.918028 1_555
F21 Sb7 1.918028 1_555
F22 Sb5 1.918028 1_455
F23 Sb3 1.918028 1_655
