# generated using pymatgen
data_AlGeMo
_symmetry_space_group_name_H-M   'P 1'
_cell_length_a   4.81662063
_cell_length_b   4.81660492
_cell_length_c   6.67148099
_cell_angle_alpha   90.00162223
_cell_angle_beta   89.99733356
_cell_angle_gamma   119.99983924
_symmetry_Int_Tables_number   1
_chemical_formula_structural   AlGeMo
_chemical_formula_sum   'Al3 Ge3 Mo3'
_cell_volume   134.04081333
_cell_formula_units_Z   3
loop_
 _symmetry_equiv_pos_site_id
 _symmetry_equiv_pos_as_xyz
  1  'x, y, z'
loop_
 _atom_site_type_symbol
 _atom_site_label
 _atom_site_symmetry_multiplicity
 _atom_site_fract_x
 _atom_site_fract_y
 _atom_site_fract_z
 _atom_site_occupancy
  Al  Al0  1  0.66507026  0.83254991  -0.00001731  1
  Al  Al1  1  0.16748638  0.83254749  0.66667788  1
  Al  Al2  1  0.16747625  0.33494748  0.33333901  1
  Ge  Ge0  1  0.00766082  0.50382529  0.99997432  1
  Ge  Ge1  1  0.49616302  0.50382223  0.66670046  1
  Ge  Ge2  1  0.49617285  0.99234966  0.33332478  1
  Mo  Mo0  1  0.33900848  0.16949269  -0.00000660  1
  Mo  Mo1  1  0.83047771  0.16949330  0.66667666  1
  Mo  Mo2  1  0.83048324  0.66097293  0.33332981  1
loop_
_geom_bond_atom_site_label_1
_geom_bond_atom_site_label_2
_geom_bond_distance
_geom_bond_site_symmetry_2
Al0 Ge1 2.612393 1_554
Al0 Ge2 2.612621 1_555
Al0 Mo1 2.630641 1_564
Al0 Mo2 2.631020 1_555
Al0 Ge0 2.742267 1_554
Al0 Mo0 2.765719 1_565
Al0 Mo0 2.765942 1_555
Al0 Ge0 2.800297 1_664
Al0 Ge0 2.800460 1_654
Al0 Mo0 2.811214 1_665
Al1 Ge0 2.612475 1_555
Al1 Ge2 2.612669 1_555
Al1 Mo0 2.630684 1_566
Al1 Mo2 2.631050 1_455
Al1 Ge1 2.742224 1_555
Al1 Mo1 2.765675 1_565
Al1 Mo1 2.765930 1_455
Al1 Ge1 2.800295 1_565
Al1 Ge1 2.800506 1_455
Al1 Mo1 2.811270 1_465
Al2 Ge1 2.612804 1_555
Al2 Ge0 2.612840 1_554
Al2 Mo1 2.630891 1_455
Al2 Mo0 2.630901 1_555
Al2 Ge2 2.742228 1_555
Al2 Mo2 2.765742 1_555
Al2 Mo2 2.765779 1_455
Al2 Ge2 2.800374 1_545
Al2 Ge2 2.800423 1_445
Al2 Mo2 2.811356 1_445
Ge0 Mo1 2.625179 1_455
Ge0 Mo2 2.625443 1_456
Ge0 Mo0 2.776714 1_566
Ge0 Mo0 2.776765 1_556
Ge0 Mo0 2.789165 1_456
Ge1 Mo0 2.625160 1_556
Ge1 Mo2 2.625527 1_555
Ge1 Mo1 2.776729 1_565
Ge1 Mo1 2.776797 1_455
Ge1 Mo1 2.789117 1_555
Ge2 Mo0 2.625367 1_565
Ge2 Mo1 2.625473 1_565
Ge2 Mo2 2.776793 1_555
Ge2 Mo2 2.776815 1_455
Ge2 Mo2 2.789034 1_565
