# generated using pymatgen
data_Ti4S8N
_symmetry_space_group_name_H-M   'P 1'
_cell_length_a   3.42037500
_cell_length_b   5.88916200
_cell_length_c   14.79821434
_cell_angle_alpha   82.34504292
_cell_angle_beta   90.00000000
_cell_angle_gamma   90.00000000
_symmetry_Int_Tables_number   1
_chemical_formula_structural   Ti4S8N
_chemical_formula_sum   'Ti4 S8 N1'
_cell_volume   295.42609565
_cell_formula_units_Z   1
loop_
 _symmetry_equiv_pos_site_id
 _symmetry_equiv_pos_as_xyz
  1  'x, y, z'
loop_
 _atom_site_type_symbol
 _atom_site_label
 _atom_site_symmetry_multiplicity
 _atom_site_fract_x
 _atom_site_fract_y
 _atom_site_fract_z
 _atom_site_occupancy
  Ti  Ti0  1  0.00000000  0.56894700  0.29698000  1
  Ti  Ti1  1  0.50000000  0.06874900  0.29732200  1
  Ti  Ti2  1  0.00000000  0.43121500  0.70283500  1
  Ti  Ti3  1  0.50000000  0.93106400  0.70309000  1
  S  S0  1  0.50000000  0.29913100  0.60611200  1
  S  S1  1  0.00000000  0.79941100  0.60618300  1
  S  S2  1  0.50000000  0.70063300  0.39390900  1
  S  S3  1  0.00000000  0.20079700  0.39398200  1
  S  S4  1  0.50000000  0.43264800  0.20003700  1
  S  S5  1  0.00000000  0.93301300  0.20005900  1
  S  S6  1  0.50000000  0.56696900  0.80000700  1
  S  S7  1  0.00000000  0.06735400  0.80011400  1
  N  N0  1  0.50000000  0.16677000  0.99927000  1
loop_
_geom_bond_atom_site_label_1
_geom_bond_atom_site_label_2
_geom_bond_distance
_geom_bond_site_symmetry_2
S0 Ti2 2.423867 1_555
S0 Ti2 2.423867 1_655
S0 Ti3 2.435013 1_545
S1 Ti3 2.424580 1_455
S1 Ti3 2.424580 1_555
S1 Ti2 2.433363 1_555
S2 Ti0 2.424864 1_655
S2 Ti0 2.424864 1_555
S2 Ti1 2.432529 1_565
S3 Ti1 2.423192 1_555
S3 Ti1 2.423192 1_455
S3 Ti0 2.435577 1_555
S4 Ti1 2.417298 1_555
S4 Ti0 2.435951 1_555
S4 Ti0 2.435951 1_655
S5 Ti0 2.415526 1_555
S5 Ti1 2.437601 1_465
S5 Ti1 2.437601 1_565
S6 Ti3 2.415636 1_555
S6 Ti2 2.436790 1_655
S6 Ti2 2.436790 1_555
S7 Ti2 2.417075 1_555
S7 Ti3 2.436688 1_445
S7 Ti3 2.436688 1_545
