# generated using pymatgen
data_Mg6TiSi
_symmetry_space_group_name_H-M   'P 1'
_cell_length_a   4.78367900
_cell_length_b   6.29040300
_cell_length_c   10.71080800
_cell_angle_alpha   90.00000000
_cell_angle_beta   90.00000000
_cell_angle_gamma   90.00000000
_symmetry_Int_Tables_number   1
_chemical_formula_structural   Mg6TiSi
_chemical_formula_sum   'Mg12 Ti2 Si2'
_cell_volume   322.30180187
_cell_formula_units_Z   2
loop_
 _symmetry_equiv_pos_site_id
 _symmetry_equiv_pos_as_xyz
  1  'x, y, z'
loop_
 _atom_site_type_symbol
 _atom_site_label
 _atom_site_symmetry_multiplicity
 _atom_site_fract_x
 _atom_site_fract_y
 _atom_site_fract_z
 _atom_site_occupancy
  Mg  Mg0  1  0.00000000  0.25326300  0.08334400  1
  Mg  Mg1  1  0.00000000  0.74673700  0.08334400  1
  Mg  Mg2  1  0.00000000  0.50000000  0.83334200  1
  Mg  Mg3  1  0.50000000  0.24672300  0.91323800  1
  Mg  Mg4  1  0.50000000  0.75327700  0.91323800  1
  Mg  Mg5  1  0.50000000  0.50000000  0.66729700  1
  Mg  Mg6  1  0.00000000  0.75326300  0.58334400  1
  Mg  Mg7  1  0.00000000  0.24673700  0.58334400  1
  Mg  Mg8  1  0.00000000  0.00000000  0.33334200  1
  Mg  Mg9  1  0.50000000  0.74672300  0.41323800  1
  Mg  Mg10  1  0.50000000  0.25327700  0.41323800  1
  Mg  Mg11  1  0.50000000  0.00000000  0.16729700  1
  Ti  Ti0  1  0.00000000  0.50000000  0.32151800  1
  Ti  Ti1  1  0.00000000  0.00000000  0.82151800  1
  Si  Si0  1  0.50000000  0.50000000  0.18467800  1
  Si  Si1  1  0.50000000  0.00000000  0.68467800  1
loop_
_geom_bond_atom_site_label_1
_geom_bond_atom_site_label_2
_geom_bond_distance
_geom_bond_site_symmetry_2
Mg0 Ti0 2.986088 1_555
Mg0 Mg3 3.007021 1_554
Mg0 Mg3 3.007021 1_454
Mg0 Mg11 3.011232 1_455
Mg0 Mg11 3.011232 1_555
Mg0 Si0 3.050878 1_555
Mg0 Si0 3.050878 1_455
Mg0 Mg2 3.095019 1_554
Mg0 Mg1 3.104150 1_555
Mg0 Mg8 3.115770 1_555
Mg0 Mg1 3.186253 1_545
Mg0 Ti1 3.225296 1_554
Mg1 Ti0 2.986088 1_555
Mg1 Mg4 3.007021 1_554
Mg1 Mg4 3.007021 1_454
Mg1 Mg11 3.011232 1_565
Mg1 Mg11 3.011232 1_465
Mg1 Si0 3.050878 1_555
Mg1 Si0 3.050878 1_455
Mg1 Mg2 3.095019 1_554
Mg1 Mg8 3.115770 1_565
Mg1 Ti1 3.225296 1_564
Mg2 Mg5 2.980583 1_555
Mg2 Mg5 2.980583 1_455
Mg2 Mg3 2.998589 1_455
Mg2 Mg4 2.998589 1_455
Mg2 Mg3 2.998589 1_555
Mg2 Mg4 2.998589 1_555
Mg2 Mg7 3.115770 1_555
Mg2 Mg6 3.115770 1_555
Mg2 Ti1 3.147750 1_565
Mg2 Ti1 3.147750 1_555
Mg3 Si1 2.898564 1_555
Mg3 Ti1 3.015736 1_655
Mg3 Ti1 3.015736 1_555
Mg3 Mg5 3.078552 1_555
Mg4 Si1 2.898564 1_565
Mg4 Ti1 3.015736 1_665
Mg4 Ti1 3.015736 1_565
Mg4 Mg5 3.078552 1_555
Mg5 Mg7 3.011232 1_655
Mg5 Mg6 3.011232 1_555
Mg5 Mg6 3.011232 1_655
Mg5 Mg7 3.011232 1_555
Mg5 Mg9 3.132646 1_555
Mg5 Si1 3.150706 1_555
Mg5 Si1 3.150706 1_565
Mg6 Ti1 2.986088 1_565
Mg6 Mg9 3.007021 1_555
Mg6 Mg9 3.007021 1_455
Mg6 Si1 3.050878 1_465
Mg6 Si1 3.050878 1_565
Mg6 Mg8 3.095019 1_565
Mg6 Mg7 3.104150 1_565
Mg6 Mg7 3.186253 1_555
Mg6 Ti0 3.225296 1_555
Mg7 Ti1 2.986088 1_555
Mg7 Si1 3.050878 1_455
Mg7 Si1 3.050878 1_555
Mg7 Mg8 3.095019 1_555
Mg7 Ti0 3.225296 1_555
Mg8 Mg9 2.998589 1_545
Mg8 Mg9 2.998589 1_445
Mg8 Ti0 3.147750 1_545
Mg8 Ti0 3.147750 1_555
Mg9 Si0 2.898564 1_555
Mg9 Ti0 3.015736 1_655
Mg9 Ti0 3.015736 1_555
Mg10 Si0 2.898564 1_555
Mg10 Mg8 2.998589 1_655
Mg10 Mg8 2.998589 1_555
Mg10 Mg7 3.007021 1_655
Mg10 Mg7 3.007021 1_555
Mg10 Ti0 3.015736 1_655
Mg10 Ti0 3.015736 1_555
Mg10 Mg11 3.078552 1_555
Mg10 Mg5 3.132646 1_555
Mg11 Mg8 2.980583 1_555
Mg11 Mg8 2.980583 1_655
Mg11 Mg9 3.078552 1_545
Mg11 Mg4 3.132646 1_544
Mg11 Mg3 3.132646 1_554
Mg11 Si0 3.150706 1_545
Mg11 Si0 3.150706 1_555
Si0 Ti0 2.805187 1_555
Si0 Ti0 2.805187 1_655
Si1 Ti1 2.805187 1_655
Si1 Ti1 2.805187 1_555
