# generated using pymatgen
data_SnO
_symmetry_space_group_name_H-M   'P 1'
_cell_length_a   11.74936953
_cell_length_b   12.73501600
_cell_length_c   12.18052392
_cell_angle_alpha   88.88833631
_cell_angle_beta   98.26715525
_cell_angle_gamma   88.01321933
_symmetry_Int_Tables_number   1
_chemical_formula_structural   SnO
_chemical_formula_sum   'Sn40 O40'
_cell_volume   1801.98088293
_cell_formula_units_Z   40
loop_
 _symmetry_equiv_pos_site_id
 _symmetry_equiv_pos_as_xyz
  1  'x, y, z'
loop_
 _atom_site_type_symbol
 _atom_site_label
 _atom_site_symmetry_multiplicity
 _atom_site_fract_x
 _atom_site_fract_y
 _atom_site_fract_z
 _atom_site_occupancy
  Sn  Sn0  1  0.80648960  0.10628377  0.75794443  1
  Sn  Sn1  1  0.73315024  0.52285375  0.15510373  1
  Sn  Sn2  1  0.59409519  0.54909968  0.52817470  1
  Sn  Sn3  1  0.68354305  0.84038212  0.24419261  1
  Sn  Sn4  1  0.96201390  0.98644810  0.53839329  1
  Sn  Sn5  1  0.30577143  0.19209635  0.47218905  1
  Sn  Sn6  1  0.90304215  0.52282048  0.62441372  1
  Sn  Sn7  1  0.27404770  0.84915551  0.12067431  1
  Sn  Sn8  1  0.16900490  0.93187811  0.36380248  1
  Sn  Sn9  1  0.66948094  0.30743243  0.91601645  1
  Sn  Sn10  1  0.64846511  0.05145670  0.00169299  1
  Sn  Sn11  1  0.43685565  0.82246175  0.41651442  1
  Sn  Sn12  1  0.91818731  0.96118625  0.19639707  1
  Sn  Sn13  1  0.05144718  0.24353824  0.65728207  1
  Sn  Sn14  1  0.74630304  0.21840760  0.24889086  1
  Sn  Sn15  1  0.40746677  0.15691980  0.18248291  1
  Sn  Sn16  1  0.52800628  0.06647343  0.70115407  1
  Sn  Sn17  1  0.97095348  0.16902082  0.01683384  1
  Sn  Sn18  1  0.33847267  0.06696800  0.92980727  1
  Sn  Sn19  1  0.08595926  0.94538594  0.84454134  1
  Sn  Sn20  1  0.40232912  0.45232287  0.00743540  1
  Sn  Sn21  1  0.02275171  0.44326615  0.19002485  1
  Sn  Sn22  1  0.30115768  0.46590630  0.26315493  1
  Sn  Sn23  1  0.49659885  0.68834378  0.09920628  1
  Sn  Sn24  1  0.58754259  0.65727964  0.80218402  1
  Sn  Sn25  1  0.01467166  0.73189480  0.68564719  1
  Sn  Sn26  1  0.71447265  0.33268990  0.64162141  1
  Sn  Sn27  1  0.37833851  0.30138169  0.76619460  1
  Sn  Sn28  1  0.24982486  0.65512233  0.57138530  1
  Sn  Sn29  1  0.15358150  0.57016009  0.96259646  1
  Sn  Sn30  1  0.53738847  0.08280290  0.43129355  1
  Sn  Sn31  1  0.98842564  0.72662761  0.08749658  1
  Sn  Sn32  1  0.17358044  0.41109148  0.52265636  1
  Sn  Sn33  1  0.89641099  0.44424878  0.91829538  1
  Sn  Sn34  1  0.01818090  0.20288128  0.37166331  1
  Sn  Sn35  1  0.28882822  0.94912267  0.66314126  1
  Sn  Sn36  1  0.19487531  0.28391613  0.99960014  1
  Sn  Sn37  1  0.91415615  0.70472159  0.41617984  1
  Sn  Sn38  1  0.71102897  0.85516541  0.61935363  1
  Sn  Sn39  1  0.32942108  0.74181631  0.84401419  1
  O  O0  1  0.00557917  0.39977455  0.58041468  1
  O  O1  1  0.96563592  0.15593054  0.52597812  1
  O  O2  1  0.51882856  0.72057556  0.93354065  1
  O  O3  1  0.48467349  0.07555485  0.05497173  1
  O  O4  1  0.82636993  0.45004523  0.74798794  1
  O  O5  1  0.83596018  0.77566494  0.54363644  1
  O  O6  1  0.52840112  0.52260220  0.11021172  1
  O  O7  1  0.33215534  0.60702742  0.97766714  1
  O  O8  1  0.07137591  0.73520089  0.52758772  1
  O  O9  1  0.26035095  0.12358382  0.06775934  1
  O  O10  1  0.28161216  0.22186989  0.87634768  1
  O  O11  1  0.15132218  0.75382176  0.16697891  1
  O  O12  1  0.73755734  0.95575348  0.13555355  1
  O  O13  1  0.49450291  0.17421559  0.81616097  1
  O  O14  1  0.63332707  0.12323044  0.31091008  1
  O  O15  1  0.19064017  0.66497206  0.72555060  1
  O  O16  1  0.29706388  0.89144838  0.50114006  1
  O  O17  1  0.86453469  0.83553861  0.30122198  1
  O  O18  1  0.15305691  0.44019487  0.33919866  1
  O  O19  1  0.73871876  0.45673743  0.98623178  1
  O  O20  1  0.23524332  0.42934059  0.91785299  1
  O  O21  1  0.67792732  0.68895318  0.15266536  1
  O  O22  1  0.59762890  0.15418575  0.58093600  1
  O  O23  1  0.58358833  0.91971163  0.48298544  1
  O  O24  1  0.42274624  0.68076002  0.72093090  1
  O  O25  1  0.94283692  0.59317663  0.16930465  1
  O  O26  1  0.48823596  0.38039557  0.90056126  1
  O  O27  1  0.83276271  0.98245878  0.64903759  1
  O  O28  1  0.32235321  0.90738988  0.28364192  1
  O  O29  1  0.96724569  0.06832753  0.86948997  1
  O  O30  1  0.55989908  0.41886934  0.61102834  1
  O  O31  1  0.34806860  0.33748773  0.11337048  1
  O  O32  1  0.17120718  0.09783452  0.39473546  1
  O  O33  1  0.34151341  0.10083368  0.62107901  1
  O  O34  1  0.75537873  0.47708059  0.52518495  1
  O  O35  1  0.17281880  0.50123358  0.12803603  1
  O  O36  1  0.89390394  0.10092792  0.28494299  1
  O  O37  1  0.69818814  0.20141993  0.06653208  1
  O  O38  1  0.87650980  0.28197000  0.91823890  1
  O  O39  1  0.10552592  0.98725010  0.67843564  1
loop_
_geom_bond_atom_site_label_1
_geom_bond_atom_site_label_2
_geom_bond_distance
_geom_bond_site_symmetry_2
O0 Sn6 2.069170 1_455
O0 Sn32 2.197086 1_555
O0 Sn13 2.198663 1_555
O1 Sn13 2.121959 1_655
O1 Sn34 2.141818 1_655
O1 Sn4 2.163044 1_545
O2 Sn24 2.058625 1_555
O2 Sn23 2.106054 1_556
O2 Sn39 2.337463 1_555
O3 Sn10 2.131846 1_555
O3 Sn18 2.133861 1_554
O3 Sn15 2.170551 1_555
O4 Sn6 2.080819 1_555
O4 Sn33 2.117750 1_555
O4 Sn26 2.315642 1_555
O5 Sn38 2.086324 1_555
O5 Sn37 2.116042 1_555
O5 Sn25 2.559036 1_655
O6 Sn20 2.040710 1_555
O6 Sn23 2.129006 1_555
O6 Sn1 2.389264 1_555
O7 Sn20 2.113408 1_556
O7 Sn29 2.148760 1_555
O7 Sn39 2.338911 1_555
O7 Sn23 2.524422 1_556
O8 Sn25 2.126004 1_555
O8 Sn37 2.180294 1_455
O8 Sn28 2.286823 1_555
O9 Sn15 2.121318 1_555
O9 Sn18 2.151864 1_554
O9 Sn36 2.256502 1_554
O10 Sn36 2.084932 1_555
O10 Sn18 2.120253 1_555
O10 Sn27 2.140724 1_555
O11 Sn7 2.049391 1_555
O11 Sn31 2.060694 1_455
O12 Sn3 2.131494 1_555
O12 Sn10 2.140860 1_565
O12 Sn12 2.148951 1_555
O13 Sn16 2.048337 1_555
O13 Sn27 2.103693 1_555
O14 Sn14 2.041126 1_555
O14 Sn30 2.042572 1_555
O15 Sn28 2.098592 1_555
O15 Sn25 2.193168 1_555
O15 Sn39 2.277588 1_555
O16 Sn8 2.125181 1_555
O16 Sn35 2.132792 1_555
O16 Sn11 2.225762 1_555
O17 Sn3 2.138443 1_555
O17 Sn37 2.164113 1_555
O17 Sn12 2.193215 1_555
O18 Sn22 2.117621 1_555
O18 Sn21 2.200031 1_555
O18 Sn32 2.235108 1_555
O19 Sn33 2.137392 1_555
O19 Sn9 2.231333 1_555
O19 Sn1 2.246409 1_556
O20 Sn29 2.121951 1_555
O20 Sn20 2.136930 1_556
O20 Sn36 2.184361 1_555
O21 Sn23 2.136695 1_555
O21 Sn1 2.189322 1_555
O21 Sn3 2.244383 1_555
O22 Sn30 2.094655 1_555
O22 Sn16 2.098924 1_555
O22 Sn26 2.754727 1_555
O23 Sn30 2.185793 1_565
O23 Sn38 2.196178 1_555
O23 Sn11 2.224216 1_555
O24 Sn24 2.053117 1_555
O24 Sn39 2.124489 1_555
O24 Sn28 2.560719 1_555
O25 Sn31 2.078234 1_555
O25 Sn21 2.092581 1_655
O25 Sn1 2.634036 1_555
O26 Sn20 1.978005 1_556
O26 Sn27 2.214653 1_555
O26 Sn9 2.274727 1_555
O27 Sn0 2.122931 1_565
O27 Sn4 2.171719 1_555
O27 Sn38 2.199813 1_555
O28 Sn7 2.138873 1_555
O28 Sn8 2.185329 1_555
O28 Sn11 2.191830 1_555
O29 Sn19 2.116147 1_645
O29 Sn0 2.195537 1_555
O29 Sn17 2.222161 1_556
O30 Sn2 2.007076 1_555
O30 Sn26 2.071964 1_555
O31 Sn20 2.106684 1_555
O31 Sn36 2.242786 1_554
O31 Sn15 2.475529 1_555
O31 Sn22 2.578654 1_555
O32 Sn5 2.139479 1_555
O32 Sn8 2.154350 1_545
O32 Sn34 2.185088 1_555
O33 Sn5 2.116951 1_555
O33 Sn35 2.124661 1_545
O33 Sn16 2.290500 1_555
O34 Sn6 2.074746 1_555
O34 Sn2 2.081849 1_555
O34 Sn26 2.404124 1_555
O35 Sn22 2.096528 1_555
O35 Sn29 2.160787 1_554
O35 Sn21 2.162268 1_555
O36 Sn12 2.130593 1_545
O36 Sn34 2.162124 1_655
O36 Sn14 2.239259 1_555
O37 Sn10 2.148377 1_555
O37 Sn14 2.228507 1_555
O37 Sn9 2.234327 1_554
O38 Sn17 2.044914 1_556
O38 Sn33 2.087851 1_555
O38 Sn9 2.439009 1_555
O39 Sn19 2.128628 1_555
O39 Sn4 2.219849 1_455
O39 Sn35 2.226031 1_555
