# generated using pymatgen
data_Sr2ZrMoO6
_symmetry_space_group_name_H-M   'P 1'
_cell_length_a   4.12534300
_cell_length_b   4.12534300
_cell_length_c   8.37562600
_cell_angle_alpha   90.00000000
_cell_angle_beta   90.00000000
_cell_angle_gamma   90.00000000
_symmetry_Int_Tables_number   1
_chemical_formula_structural   Sr2ZrMoO6
_chemical_formula_sum   'Sr2 Zr1 Mo1 O6'
_cell_volume   142.54021307
_cell_formula_units_Z   1
loop_
 _symmetry_equiv_pos_site_id
 _symmetry_equiv_pos_as_xyz
  1  'x, y, z'
loop_
 _atom_site_type_symbol
 _atom_site_label
 _atom_site_symmetry_multiplicity
 _atom_site_fract_x
 _atom_site_fract_y
 _atom_site_fract_z
 _atom_site_occupancy
  Sr  Sr0  1  0.50000000  0.50000000  0.24878900  1
  Sr  Sr1  1  0.50000000  0.50000000  0.75121100  1
  Zr  Zr0  1  0.00000000  0.00000000  0.00000000  1
  Mo  Mo0  1  0.00000000  0.00000000  0.50000000  1
  O  O0  1  0.00000000  0.00000000  0.25169300  1
  O  O1  1  0.00000000  0.00000000  0.74830700  1
  O  O2  1  0.00000000  0.50000000  0.00000000  1
  O  O3  1  0.00000000  0.50000000  0.50000000  1
  O  O4  1  0.50000000  0.00000000  0.00000000  1
  O  O5  1  0.50000000  0.00000000  0.50000000  1
loop_
_geom_bond_atom_site_label_1
_geom_bond_atom_site_label_2
_geom_bond_distance
_geom_bond_site_symmetry_2
Mo0 O5 2.062671 1_555
Mo0 O3 2.062671 1_545
Mo0 O5 2.062671 1_455
Mo0 O3 2.062671 1_555
Mo0 O1 2.079727 1_555
Mo0 O0 2.079727 1_555
O0 Zr0 2.108086 1_555
O0 Sr0 2.917159 1_545
O0 Sr0 2.917159 1_455
O0 Sr0 2.917159 1_555
O0 Sr0 2.917159 1_445
O1 Zr0 2.108086 1_556
O1 Sr1 2.917159 1_445
O1 Sr1 2.917159 1_545
O1 Sr1 2.917159 1_555
O1 Sr1 2.917159 1_455
O2 Zr0 2.062671 1_565
O2 Zr0 2.062671 1_555
O2 Sr0 2.932010 1_455
O2 Sr0 2.932010 1_555
O2 Sr1 2.932010 1_454
O2 Sr1 2.932010 1_554
O3 Sr1 2.946462 1_455
O3 Sr1 2.946462 1_555
O3 Sr0 2.946462 1_455
O3 Sr0 2.946462 1_555
O4 Zr0 2.062671 1_655
O4 Zr0 2.062671 1_555
O4 Sr0 2.932010 1_545
O4 Sr0 2.932010 1_555
O4 Sr1 2.932010 1_554
O4 Sr1 2.932010 1_544
O5 Sr1 2.946462 1_545
O5 Sr1 2.946462 1_555
O5 Sr0 2.946462 1_555
O5 Sr0 2.946462 1_545
