# generated using pymatgen
data_MgTi4(CuO4)3
_symmetry_space_group_name_H-M   'P 1'
_cell_length_a   6.42641252
_cell_length_b   6.42641252
_cell_length_c   6.42641252
_cell_angle_alpha   109.47122063
_cell_angle_beta   109.47122063
_cell_angle_gamma   109.47122063
_symmetry_Int_Tables_number   1
_chemical_formula_structural   MgTi4(CuO4)3
_chemical_formula_sum   'Mg1 Ti4 Cu3 O12'
_cell_volume   204.30731201
_cell_formula_units_Z   1
loop_
 _symmetry_equiv_pos_site_id
 _symmetry_equiv_pos_as_xyz
  1  'x, y, z'
loop_
 _atom_site_type_symbol
 _atom_site_label
 _atom_site_symmetry_multiplicity
 _atom_site_fract_x
 _atom_site_fract_y
 _atom_site_fract_z
 _atom_site_occupancy
  Mg  Mg0  1  0.00000000  0.00000000  0.00000000  1
  Ti  Ti0  1  0.50000000  0.50000000  0.50000000  1
  Ti  Ti1  1  0.00000000  0.50000000  0.00000000  1
  Ti  Ti2  1  0.00000000  0.00000000  0.50000000  1
  Ti  Ti3  1  0.50000000  0.00000000  0.00000000  1
  Cu  Cu0  1  0.50000000  0.50000000  0.00000000  1
  Cu  Cu1  1  0.50000000  0.00000000  0.50000000  1
  Cu  Cu2  1  0.00000000  0.50000000  0.50000000  1
  O  O0  1  0.30084700  0.82460600  0.12545300  1
  O  O1  1  0.69915300  0.17539400  0.87454700  1
  O  O2  1  0.69915300  0.82460600  0.52375800  1
  O  O3  1  0.87454700  0.69915300  0.17539400  1
  O  O4  1  0.82460600  0.12545300  0.30084700  1
  O  O5  1  0.17539400  0.47624200  0.30084700  1
  O  O6  1  0.47624200  0.30084700  0.17539400  1
  O  O7  1  0.17539400  0.87454700  0.69915300  1
  O  O8  1  0.30084700  0.17539400  0.47624200  1
  O  O9  1  0.12545300  0.30084700  0.82460600  1
  O  O10  1  0.82460600  0.52375800  0.69915300  1
  O  O11  1  0.52375800  0.69915300  0.82460600  1
loop_
_geom_bond_atom_site_label_1
_geom_bond_atom_site_label_2
_geom_bond_distance
_geom_bond_site_symmetry_2
Mg0 O0 2.584153 1_545
Mg0 O4 2.584153 1_455
Mg0 O9 2.584153 1_554
Mg0 O3 2.584153 1_445
Mg0 O7 2.584153 1_544
Mg0 O1 2.584153 1_454
Mg0 O8 2.584158 1_555
Mg0 O5 2.584158 1_555
Mg0 O6 2.584158 1_555
Mg0 O10 2.584158 1_444
Mg0 O11 2.584158 1_444
Mg0 O2 2.584158 1_444
Cu0 O11 1.969252 1_554
Cu0 O6 1.969252 1_555
Cu0 O3 1.969252 1_555
Cu0 O9 1.969252 1_554
Cu1 O2 1.969252 1_545
Cu1 O8 1.969252 1_555
Cu1 O1 1.969252 1_555
Cu1 O0 1.969252 1_545
Cu2 O10 1.969252 1_455
Cu2 O5 1.969252 1_555
Cu2 O7 1.969252 1_555
Cu2 O4 1.969252 1_455
O0 Ti3 1.972416 1_565
O0 Ti1 1.972416 1_555
O1 Ti3 1.972416 1_556
O1 Ti1 1.972416 1_656
O2 Ti2 1.972412 1_665
O2 Ti0 1.972419 1_555
O3 Ti1 1.972416 1_655
O3 Ti2 1.972416 1_665
O4 Ti2 1.972416 1_655
O4 Ti3 1.972416 1_555
O5 Ti1 1.972412 1_555
O5 Ti0 1.972419 1_555
O6 Ti3 1.972412 1_555
O6 Ti0 1.972419 1_555
O7 Ti2 1.972416 1_565
O7 Ti3 1.972416 1_566
O8 Ti2 1.972412 1_555
O8 Ti0 1.972419 1_555
O9 Ti1 1.972416 1_556
O9 Ti2 1.972416 1_555
O10 Ti1 1.972412 1_656
O10 Ti0 1.972419 1_555
O11 Ti3 1.972412 1_566
O11 Ti0 1.972419 1_555
