# generated using pymatgen
data_Y2Cr3O12
_symmetry_space_group_name_H-M   'P 1'
_cell_length_a   5.08544600
_cell_length_b   6.83183980
_cell_length_c   14.19336220
_cell_angle_alpha   85.06196718
_cell_angle_beta   80.04991258
_cell_angle_gamma   68.25076794
_symmetry_Int_Tables_number   1
_chemical_formula_structural   Y2Cr3O12
_chemical_formula_sum   'Y4 Cr6 O24'
_cell_volume   450.99611201
_cell_formula_units_Z   2
loop_
 _symmetry_equiv_pos_site_id
 _symmetry_equiv_pos_as_xyz
  1  'x, y, z'
loop_
 _atom_site_type_symbol
 _atom_site_label
 _atom_site_symmetry_multiplicity
 _atom_site_fract_x
 _atom_site_fract_y
 _atom_site_fract_z
 _atom_site_occupancy
  Y  Y0  1  0.37302300  0.12751000  0.12309100  1
  Y  Y1  1  0.37992300  0.79302100  0.45378200  1
  Y  Y2  1  0.62697700  0.87249000  0.87690900  1
  Y  Y3  1  0.62007700  0.20697900  0.54621800  1
  Cr  Cr0  1  0.88588100  0.28444600  0.95488200  1
  Cr  Cr1  1  0.86653500  0.96695100  0.29578900  1
  Cr  Cr2  1  0.87152800  0.62681800  0.62212100  1
  Cr  Cr3  1  0.13346500  0.03304900  0.70421100  1
  Cr  Cr4  1  0.11411900  0.71555400  0.04511800  1
  Cr  Cr5  1  0.12847200  0.37318200  0.37787900  1
  O  O0  1  0.82205100  0.20856900  0.68063900  1
  O  O1  1  0.77052700  0.87411500  0.02728600  1
  O  O2  1  0.81912100  0.55832500  0.36630300  1
  O  O3  1  0.88259300  0.51617600  0.90942500  1
  O  O4  1  0.93778100  0.16437300  0.23835300  1
  O  O5  1  0.94506800  0.83296800  0.56090100  1
  O  O6  1  0.30588500  0.11062700  0.77324300  1
  O  O7  1  0.24241700  0.82679700  0.11530000  1
  O  O8  1  0.32054800  0.45329900  0.44424900  1
  O  O9  1  0.68279800  0.69593300  0.72737000  1
  O  O10  1  0.68332800  0.30702700  0.06084300  1
  O  O11  1  0.64815000  0.01390700  0.40662700  1
  O  O12  1  0.31667200  0.69297300  0.93915700  1
  O  O13  1  0.31720200  0.30406700  0.27263000  1
  O  O14  1  0.35185000  0.98609300  0.59337300  1
  O  O15  1  0.06221900  0.83562700  0.76164700  1
  O  O16  1  0.11740700  0.48382400  0.09057500  1
  O  O17  1  0.05493200  0.16703200  0.43909900  1
  O  O18  1  0.22947300  0.12588500  0.97271400  1
  O  O19  1  0.17794900  0.79143100  0.31936100  1
  O  O20  1  0.18087900  0.44167500  0.63369700  1
  O  O21  1  0.75758300  0.17320300  0.88470000  1
  O  O22  1  0.69411500  0.88937300  0.22675700  1
  O  O23  1  0.67945200  0.54670100  0.55575100  1
loop_
_geom_bond_atom_site_label_1
_geom_bond_atom_site_label_2
_geom_bond_distance
_geom_bond_site_symmetry_2
Cr0 O21 1.648619 1_555
Cr0 O3 1.652620 1_555
Cr0 O10 1.653332 1_556
Cr0 O18 1.730182 1_655
Cr1 O4 1.638834 1_565
Cr1 O22 1.655425 1_555
Cr1 O19 1.662697 1_655
Cr1 O11 1.740756 1_565
Cr2 O9 1.632721 1_555
Cr2 O20 1.637277 1_655
Cr2 O23 1.715830 1_555
Cr2 O5 1.716330 1_555
Cr3 O15 1.638834 1_545
Cr3 O6 1.655425 1_555
Cr3 O0 1.662697 1_455
Cr3 O14 1.740756 1_545
Cr4 O7 1.648619 1_555
Cr4 O16 1.652620 1_555
Cr4 O12 1.653332 1_554
Cr4 O1 1.730182 1_455
Cr5 O13 1.632721 1_555
Cr5 O2 1.637277 1_455
Cr5 O8 1.715830 1_555
Cr5 O17 1.716330 1_555
O0 Y3 2.320386 1_555
O1 Y2 2.374249 1_554
O1 Y0 2.407118 1_565
O2 Y1 2.414848 1_555
O3 Y2 2.344640 1_555
O4 Y0 2.458736 1_655
O5 Y1 2.395561 1_655
O5 Y3 2.490303 1_565
O6 Y2 2.434654 1_545
O7 Y0 2.397866 1_565
O8 Y3 2.385301 1_555
O8 Y1 2.466519 1_555
O9 Y2 2.453393 1_555
O10 Y0 2.353901 1_555
O11 Y1 2.371067 1_545
O11 Y3 2.428633 1_555
O12 Y2 2.353901 1_555
O13 Y0 2.453393 1_555
O14 Y3 2.371067 1_565
O14 Y1 2.428633 1_555
O15 Y2 2.458736 1_455
O16 Y0 2.344640 1_555
O17 Y3 2.395561 1_455
O17 Y1 2.490303 1_545
O18 Y0 2.374249 1_556
O18 Y2 2.407118 1_545
O19 Y1 2.320386 1_555
O20 Y3 2.414848 1_555
O21 Y2 2.397866 1_545
O22 Y0 2.434654 1_565
O23 Y1 2.385301 1_555
O23 Y3 2.466519 1_555
