# generated using pymatgen
data_BaAsAu
_symmetry_space_group_name_H-M   'P 1'
_cell_length_a   4.58084649
_cell_length_b   4.58084649
_cell_length_c   9.16844897
_cell_angle_alpha   90.00000000
_cell_angle_beta   90.00000000
_cell_angle_gamma   120.00001198
_symmetry_Int_Tables_number   1
_chemical_formula_structural   BaAsAu
_chemical_formula_sum   'Ba2 As2 Au2'
_cell_volume   166.61646950
_cell_formula_units_Z   2
loop_
 _symmetry_equiv_pos_site_id
 _symmetry_equiv_pos_as_xyz
  1  'x, y, z'
loop_
 _atom_site_type_symbol
 _atom_site_label
 _atom_site_symmetry_multiplicity
 _atom_site_fract_x
 _atom_site_fract_y
 _atom_site_fract_z
 _atom_site_occupancy
  Ba  Ba0  1  -0.00000000  0.00000000  0.50000000  1
  Ba  Ba1  1  -0.00000000  0.00000000  0.00000000  1
  As  As0  1  0.33333300  0.66666700  0.25000000  1
  As  As1  1  0.66666700  0.33333300  0.75000000  1
  Au  Au0  1  0.33333300  0.66666700  0.75000000  1
  Au  Au1  1  0.66666700  0.33333300  0.25000000  1
loop_
_geom_bond_atom_site_label_1
_geom_bond_atom_site_label_2
_geom_bond_distance
_geom_bond_site_symmetry_2
As0 Au1 2.644750 1_455
As0 Au1 2.644750 1_565
As0 Au1 2.644758 1_555
As0 Ba0 3.499783 1_565
As0 Ba1 3.499783 1_565
As0 Ba0 3.499786 1_665
As0 Ba1 3.499786 1_665
As0 Ba1 3.499786 1_555
As0 Ba0 3.499786 1_555
As1 Au0 2.644750 1_545
As1 Au0 2.644750 1_655
As1 Au0 2.644758 1_555
As1 Ba0 3.499783 1_655
As1 Ba1 3.499783 1_656
As1 Ba0 3.499786 1_665
As1 Ba1 3.499786 1_666
As1 Ba1 3.499786 1_556
As1 Ba0 3.499786 1_555
Au0 Ba0 3.499783 1_565
Au0 Ba1 3.499783 1_566
Au0 Ba0 3.499786 1_665
Au0 Ba1 3.499786 1_666
Au0 Ba1 3.499786 1_556
Au0 Ba0 3.499786 1_555
Au1 Ba0 3.499783 1_655
Au1 Ba1 3.499783 1_655
Au1 Ba0 3.499786 1_665
Au1 Ba1 3.499786 1_665
Au1 Ba1 3.499786 1_555
Au1 Ba0 3.499786 1_555
