# generated using pymatgen
data_Na5LiFe2P2(CO7)2
_symmetry_space_group_name_H-M   'P 1'
_cell_length_a   6.69460100
_cell_length_b   8.93266348
_cell_length_c   10.38901843
_cell_angle_alpha   91.08370193
_cell_angle_beta   90.21697846
_cell_angle_gamma   90.35294932
_symmetry_Int_Tables_number   1
_chemical_formula_structural   Na5LiFe2P2(CO7)2
_chemical_formula_sum   'Na10 Li2 Fe4 P4 C4 O28'
_cell_volume   621.14207643
_cell_formula_units_Z   2
loop_
 _symmetry_equiv_pos_site_id
 _symmetry_equiv_pos_as_xyz
  1  'x, y, z'
loop_
 _atom_site_type_symbol
 _atom_site_label
 _atom_site_symmetry_multiplicity
 _atom_site_fract_x
 _atom_site_fract_y
 _atom_site_fract_z
 _atom_site_occupancy
  Na  Na0  1  0.24517900  0.91899900  0.87992500  1
  Na  Na1  1  0.25113700  0.91869000  0.38175700  1
  Na  Na2  1  0.00006600  0.73911500  0.62427800  1
  Na  Na3  1  0.50056000  0.73821500  0.62449000  1
  Na  Na4  1  0.00187100  0.73715900  0.12510800  1
  Na  Na5  1  0.49668700  0.73713700  0.12668000  1
  Na  Na6  1  0.50483600  0.26017700  0.87230500  1
  Na  Na7  1  0.50309600  0.26477300  0.38036200  1
  Na  Na8  1  0.99656900  0.26339900  0.37814100  1
  Na  Na9  1  0.75355700  0.08439000  0.11937500  1
  Li  Li0  1  0.98599600  0.27612300  0.87757800  1
  Li  Li1  1  0.75756200  0.09109100  0.62455100  1
  Fe  Fe0  1  0.74948300  0.64509300  0.88885100  1
  Fe  Fe1  1  0.75091400  0.64672100  0.39228000  1
  Fe  Fe2  1  0.24775700  0.35249400  0.61527800  1
  Fe  Fe3  1  0.24661100  0.35225700  0.10612800  1
  P  P0  1  0.24525500  0.58284800  0.84911600  1
  P  P1  1  0.24978900  0.58543200  0.35328800  1
  P  P2  1  0.75463800  0.40289500  0.65069500  1
  P  P3  1  0.74844000  0.41440500  0.14493600  1
  C  C0  1  0.75743300  0.94537200  0.85979500  1
  C  C1  1  0.75000100  0.94549500  0.36910100  1
  C  C2  1  0.24753800  0.06062200  0.63611300  1
  C  C3  1  0.24920600  0.06009900  0.13474500  1
  O  O0  1  0.25114100  0.91661200  0.64464700  1
  O  O1  1  0.25134600  0.91578000  0.14281900  1
  O  O2  1  0.75085700  0.88457300  0.97297900  1
  O  O3  1  0.75189500  0.89301700  0.48532700  1
  O  O4  1  0.74725600  0.85836000  0.75820400  1
  O  O5  1  0.75095000  0.85238700  0.27037200  1
  O  O6  1  0.06237300  0.68167000  0.88601100  1
  O  O7  1  0.43429700  0.67301300  0.89305700  1
  O  O8  1  0.06439400  0.68146600  0.39247100  1
  O  O9  1  0.43749700  0.68142500  0.39219600  1
  O  O10  1  0.25106200  0.56235700  0.69944400  1
  O  O11  1  0.75023500  0.55699900  0.58459400  1
  O  O12  1  0.24849800  0.56201200  0.20410000  1
  O  O13  1  0.74783100  0.56899100  0.08075300  1
  O  O14  1  0.23299500  0.42603000  0.90998500  1
  O  O15  1  0.77136400  0.42896100  0.80025300  1
  O  O16  1  0.25000000  0.43308800  0.42054600  1
  O  O17  1  0.75379000  0.43682700  0.29404200  1
  O  O18  1  0.56604500  0.30603700  0.61907300  1
  O  O19  1  0.93176400  0.30390500  0.60505700  1
  O  O20  1  0.56018700  0.31969700  0.10641300  1
  O  O21  1  0.93224600  0.31963200  0.10056200  1
  O  O22  1  0.24220000  0.14600000  0.73900500  1
  O  O23  1  0.24619300  0.14460800  0.23821000  1
  O  O24  1  0.24928000  0.12363500  0.52400000  1
  O  O25  1  0.24967600  0.12286800  0.02266100  1
  O  O26  1  0.77324300  0.08924800  0.84741500  1
  O  O27  1  0.74720400  0.08780100  0.35092600  1
loop_
_geom_bond_atom_site_label_1
_geom_bond_atom_site_label_2
_geom_bond_distance
_geom_bond_site_symmetry_2
Na0 O25 2.326602 1_566
Na0 O6 2.443302 1_555
Na0 O0 2.444476 1_555
Na0 O22 2.523487 1_565
Na0 O7 2.548337 1_555
Na0 O1 2.732064 1_556
Na1 O24 2.330989 1_565
Na1 O8 2.458250 1_555
Na1 O9 2.469903 1_555
Na1 O1 2.481982 1_555
Na1 O23 2.532177 1_565
Na1 O0 2.731583 1_555
Na2 O0 2.309910 1_555
Na2 O11 2.355758 1_455
Na2 O4 2.432878 1_455
Na2 O10 2.448602 1_555
Na2 O8 2.492784 1_555
Na2 O3 2.611348 1_455
Na2 O6 2.806759 1_555
Na3 O0 2.322541 1_555
Na3 O11 2.366252 1_555
Na3 O4 2.390292 1_555
Na3 O10 2.426458 1_555
Na3 O9 2.490575 1_555
Na3 O3 2.626565 1_555
Na3 O7 2.896306 1_555
Na4 O13 2.301670 1_455
Na4 O1 2.307111 1_555
Na4 O12 2.432566 1_555
Na4 O5 2.478004 1_455
Na4 O6 2.558013 1_554
Na4 O2 2.672376 1_454
Na4 O8 2.860769 1_555
Na5 O1 2.301410 1_555
Na5 O13 2.306625 1_555
Na5 O12 2.424959 1_555
Na5 O5 2.467152 1_555
Na5 O7 2.515993 1_554
Na5 O2 2.692973 1_554
Na5 O9 2.841039 1_555
Na6 O26 2.376825 1_555
Na6 O14 2.382583 1_555
Na6 O22 2.440387 1_555
Na6 O15 2.456998 1_555
Na6 O20 2.505431 1_556
Na6 O25 2.632335 1_556
Na6 O18 2.702566 1_555
Na7 O27 2.297934 1_555
Na7 O16 2.306233 1_555
Na7 O17 2.452491 1_555
Na7 O23 2.487801 1_555
Na7 O18 2.533637 1_555
Na7 O24 2.601450 1_555
Na7 O20 2.923285 1_555
Na8 O27 2.296649 1_555
Na8 O16 2.303816 1_655
Na8 O19 2.419515 1_555
Na8 O17 2.424127 1_555
Na8 O23 2.452333 1_655
Na8 O24 2.606769 1_655
Na9 O2 2.322943 1_544
Na9 O27 2.405745 1_555
Na9 O21 2.423051 1_555
Na9 O20 2.480912 1_555
Na9 O5 2.622738 1_545
Na9 O26 2.830108 1_554
Li0 O14 2.142934 1_655
Li0 O15 2.151923 1_555
Li0 O26 2.204743 1_555
Li0 O21 2.370881 1_556
Li0 O22 2.519012 1_655
Li1 O19 2.236938 1_555
Li1 O3 2.264065 1_545
Li1 O18 2.316800 1_555
Li1 O26 2.317694 1_555
Li1 O4 2.522452 1_545
Fe0 O6 2.118415 1_655
Fe0 O13 2.118564 1_556
Fe0 O7 2.126774 1_555
Fe0 O15 2.129158 1_555
Fe0 O2 2.295452 1_555
Fe0 O4 2.360013 1_555
Fe1 O17 2.117899 1_555
Fe1 O8 2.119545 1_655
Fe1 O9 2.122866 1_555
Fe1 O11 2.166741 1_555
Fe1 O5 2.251032 1_555
Fe1 O3 2.386245 1_555
Fe2 O10 2.053452 1_555
Fe2 O19 2.158707 1_455
Fe2 O16 2.160215 1_555
Fe2 O18 2.173706 1_555
Fe2 O24 2.237320 1_555
Fe2 O22 2.268298 1_555
Fe3 O12 2.115245 1_555
Fe3 O20 2.121091 1_555
Fe3 O21 2.123272 1_455
Fe3 O14 2.155240 1_554
Fe3 O25 2.210073 1_555
Fe3 O23 2.328023 1_555
C0 O26 1.297749 1_565
C0 O4 1.300179 1_555
C0 O2 1.305304 1_555
C1 O27 1.288886 1_565
C1 O3 1.303559 1_555
C1 O5 1.308308 1_555
C2 O0 1.291483 1_545
C2 O22 1.302057 1_555
C2 O24 1.303232 1_555
C3 O1 1.293625 1_545
C3 O25 1.301928 1_555
C3 O23 1.302050 1_555
O6 P0 1.558587 1_555
O7 P0 1.558169 1_555
O8 P1 1.563897 1_555
O9 P1 1.564461 1_555
O10 P0 1.562898 1_555
O11 P2 1.550316 1_555
O12 P1 1.560030 1_555
O13 P3 1.544766 1_555
O14 P0 1.549632 1_555
O15 P2 1.570223 1_555
O16 P1 1.541463 1_555
O17 P3 1.558447 1_555
O18 P2 1.556660 1_555
O19 P2 1.553738 1_555
O20 P3 1.560263 1_555
O21 P3 1.563883 1_555
