# generated using pymatgen
data_MgSb3O7
_symmetry_space_group_name_H-M   'P 1'
_cell_length_a   5.45291200
_cell_length_b   10.53012600
_cell_length_c   10.56050200
_cell_angle_alpha   90.00000000
_cell_angle_beta   90.00000000
_cell_angle_gamma   90.00000000
_symmetry_Int_Tables_number   1
_chemical_formula_structural   MgSb3O7
_chemical_formula_sum   'Mg4 Sb12 O28'
_cell_volume   606.38244527
_cell_formula_units_Z   4
loop_
 _symmetry_equiv_pos_site_id
 _symmetry_equiv_pos_as_xyz
  1  'x, y, z'
loop_
 _atom_site_type_symbol
 _atom_site_label
 _atom_site_symmetry_multiplicity
 _atom_site_fract_x
 _atom_site_fract_y
 _atom_site_fract_z
 _atom_site_occupancy
  Mg  Mg0  1  0.69002500  0.75000000  0.14761100  1
  Mg  Mg1  1  0.19002500  0.25000000  0.35238900  1
  Mg  Mg2  1  0.30997500  0.25000000  0.85238900  1
  Mg  Mg3  1  0.80997500  0.75000000  0.64761100  1
  Sb  Sb0  1  0.34015400  0.98717300  0.62578300  1
  Sb  Sb1  1  0.84015400  0.01282700  0.87421700  1
  Sb  Sb2  1  0.65984600  0.48717300  0.37421700  1
  Sb  Sb3  1  0.15984600  0.51282700  0.12578300  1
  Sb  Sb4  1  0.29020900  0.75000000  0.85488700  1
  Sb  Sb5  1  0.79020900  0.25000000  0.64511300  1
  Sb  Sb6  1  0.70979100  0.25000000  0.14511300  1
  Sb  Sb7  1  0.20979100  0.75000000  0.35488700  1
  Sb  Sb8  1  0.84015400  0.48717300  0.87421700  1
  Sb  Sb9  1  0.34015400  0.51282700  0.62578300  1
  Sb  Sb10  1  0.15984600  0.98717300  0.12578300  1
  Sb  Sb11  1  0.65984600  0.01282700  0.37421700  1
  O  O0  1  0.97417400  0.13187900  0.21268500  1
  O  O1  1  0.47417400  0.86812100  0.28731500  1
  O  O2  1  0.02582600  0.63187900  0.78731500  1
  O  O3  1  0.52582600  0.36812100  0.71268500  1
  O  O4  1  0.02582600  0.86812100  0.78731500  1
  O  O5  1  0.52582600  0.13187900  0.71268500  1
  O  O6  1  0.97417400  0.36812100  0.21268500  1
  O  O7  1  0.47417400  0.63187900  0.28731500  1
  O  O8  1  0.48077700  0.12327000  0.21669900  1
  O  O9  1  0.98077700  0.87673000  0.28330100  1
  O  O10  1  0.51922300  0.62327000  0.78330100  1
  O  O11  1  0.01922300  0.37673000  0.71669900  1
  O  O12  1  0.51922300  0.87673000  0.78330100  1
  O  O13  1  0.01922300  0.12327000  0.71669900  1
  O  O14  1  0.48077700  0.37673000  0.21669900  1
  O  O15  1  0.98077700  0.62327000  0.28330100  1
  O  O16  1  0.15205800  0.75000000  0.53447000  1
  O  O17  1  0.65205800  0.25000000  0.96553000  1
  O  O18  1  0.84794200  0.25000000  0.46553000  1
  O  O19  1  0.34794200  0.75000000  0.03447000  1
  O  O20  1  0.14983400  0.40887900  0.95543800  1
  O  O21  1  0.64983400  0.59112100  0.54456200  1
  O  O22  1  0.85016600  0.90887900  0.04456200  1
  O  O23  1  0.35016600  0.09112100  0.45543800  1
  O  O24  1  0.85016600  0.59112100  0.04456200  1
  O  O25  1  0.35016600  0.40887900  0.45543800  1
  O  O26  1  0.14983400  0.09112100  0.95543800  1
  O  O27  1  0.64983400  0.90887900  0.54456200  1
loop_
_geom_bond_atom_site_label_1
_geom_bond_atom_site_label_2
_geom_bond_distance
_geom_bond_site_symmetry_2
Mg0 O22 2.178487 1_555
Mg0 O24 2.178487 1_555
Mg0 O19 2.215205 1_555
Mg0 O7 2.260336 1_555
Mg0 O1 2.260336 1_555
Mg0 O15 2.519492 1_555
Mg0 O9 2.519492 1_555
Mg1 O25 2.178487 1_555
Mg1 O23 2.178487 1_555
Mg1 O18 2.215205 1_455
Mg1 O6 2.260336 1_455
Mg1 O0 2.260336 1_455
Mg1 O14 2.519492 1_555
Mg1 O8 2.519492 1_555
Mg2 O26 2.178487 1_555
Mg2 O20 2.178487 1_555
Mg2 O17 2.215205 1_555
Mg2 O5 2.260336 1_555
Mg2 O3 2.260336 1_555
Mg2 O11 2.519492 1_555
Mg2 O13 2.519492 1_555
Mg3 O27 2.178487 1_555
Mg3 O21 2.178487 1_555
Mg3 O16 2.215205 1_655
Mg3 O4 2.260336 1_655
Mg3 O2 2.260336 1_655
Mg3 O10 2.519492 1_555
Mg3 O12 2.519492 1_555
O0 Sb6 2.033397 1_555
O0 Sb10 2.046746 1_645
O1 Sb7 2.033397 1_555
O1 Sb11 2.046746 1_565
O2 Sb4 2.033397 1_555
O2 Sb8 2.046746 1_455
O3 Sb5 2.033397 1_555
O3 Sb9 2.046746 1_555
O4 Sb4 2.033397 1_555
O4 Sb1 2.046746 1_465
O5 Sb5 2.033397 1_555
O5 Sb0 2.046746 1_545
O6 Sb6 2.033397 1_555
O6 Sb3 2.046746 1_655
O7 Sb7 2.033397 1_555
O7 Sb2 2.046746 1_555
O8 Sb6 1.977837 1_555
O8 Sb11 2.252354 1_555
O8 Sb10 2.457272 1_545
O9 Sb7 1.977837 1_655
O9 Sb10 2.252354 1_655
O9 Sb11 2.457272 1_565
O10 Sb4 1.977837 1_555
O10 Sb9 2.252354 1_555
O10 Sb8 2.457272 1_555
O11 Sb5 1.977837 1_455
O11 Sb8 2.252354 1_455
O11 Sb9 2.457272 1_555
O12 Sb4 1.977837 1_555
O12 Sb0 2.252354 1_555
O12 Sb1 2.457272 1_565
O13 Sb5 1.977837 1_455
O13 Sb1 2.252354 1_455
O13 Sb0 2.457272 1_545
O14 Sb6 1.977837 1_555
O14 Sb2 2.252354 1_555
O14 Sb3 2.457272 1_555
O15 Sb7 1.977837 1_655
O15 Sb3 2.252354 1_655
O15 Sb2 2.457272 1_555
O16 Sb7 1.922438 1_555
O17 Sb6 1.922438 1_556
O18 Sb5 1.922438 1_555
O19 Sb4 1.922438 1_554
O20 Sb8 2.065668 1_455
O20 Sb3 2.106476 1_556
O21 Sb9 2.065668 1_555
O21 Sb2 2.106476 1_555
O22 Sb10 2.065668 1_655
O22 Sb1 2.106476 1_564
O23 Sb11 2.065668 1_555
O23 Sb0 2.106476 1_545
O24 Sb3 2.065668 1_655
O24 Sb8 2.106476 1_554
O25 Sb2 2.065668 1_555
O25 Sb9 2.106476 1_555
O26 Sb1 2.065668 1_455
O26 Sb10 2.106476 1_546
O27 Sb0 2.065668 1_555
O27 Sb11 2.106476 1_565
