# generated using pymatgen
data_Hf3AlAu2
_symmetry_space_group_name_H-M   'P 1'
_cell_length_a   8.70395273
_cell_length_b   8.70395273
_cell_length_c   8.70395273
_cell_angle_alpha   60.00000000
_cell_angle_beta   60.00000000
_cell_angle_gamma   60.00000000
_symmetry_Int_Tables_number   1
_chemical_formula_structural   Hf3AlAu2
_chemical_formula_sum   'Hf12 Al4 Au8'
_cell_volume   466.26688661
_cell_formula_units_Z   4
loop_
 _symmetry_equiv_pos_site_id
 _symmetry_equiv_pos_as_xyz
  1  'x, y, z'
loop_
 _atom_site_type_symbol
 _atom_site_label
 _atom_site_symmetry_multiplicity
 _atom_site_fract_x
 _atom_site_fract_y
 _atom_site_fract_z
 _atom_site_occupancy
  Hf  Hf0  1  0.80508700  0.80508700  0.19491300  1
  Hf  Hf1  1  0.19491300  0.19491300  0.80508700  1
  Hf  Hf2  1  0.80508700  0.19491300  0.80508700  1
  Hf  Hf3  1  0.19491300  0.80508700  0.19491300  1
  Hf  Hf4  1  0.19491300  0.80508700  0.80508700  1
  Hf  Hf5  1  0.80508700  0.19491300  0.19491300  1
  Hf  Hf6  1  0.44491300  0.44491300  0.05508700  1
  Hf  Hf7  1  0.05508700  0.05508700  0.44491300  1
  Hf  Hf8  1  0.44491300  0.05508700  0.44491300  1
  Hf  Hf9  1  0.05508700  0.44491300  0.05508700  1
  Hf  Hf10  1  0.05508700  0.44491300  0.44491300  1
  Hf  Hf11  1  0.44491300  0.05508700  0.05508700  1
  Al  Al0  1  0.12500000  0.62500000  0.62500000  1
  Al  Al1  1  0.62500000  0.12500000  0.62500000  1
  Al  Al2  1  0.62500000  0.62500000  0.12500000  1
  Al  Al3  1  0.62500000  0.62500000  0.62500000  1
  Au  Au0  1  0.76603400  0.41132200  0.41132200  1
  Au  Au1  1  0.41132200  0.76603400  0.41132200  1
  Au  Au2  1  0.41132200  0.41132200  0.76603400  1
  Au  Au3  1  0.41132200  0.41132200  0.41132200  1
  Au  Au4  1  0.48396600  0.83867800  0.83867800  1
  Au  Au5  1  0.83867800  0.48396600  0.83867800  1
  Au  Au6  1  0.83867800  0.83867800  0.48396600  1
  Au  Au7  1  0.83867800  0.83867800  0.83867800  1
loop_
_geom_bond_atom_site_label_1
_geom_bond_atom_site_label_2
_geom_bond_distance
_geom_bond_site_symmetry_2
Al0 Au7 2.705148 1_455
Al0 Au1 2.705148 1_555
Al0 Au2 2.705148 1_555
Al0 Au3 2.705148 1_555
Al0 Au5 2.705148 1_455
Al0 Au6 2.705148 1_455
Al1 Au7 2.705148 1_545
Al1 Au0 2.705148 1_555
Al1 Au2 2.705148 1_555
Al1 Au3 2.705148 1_555
Al1 Au6 2.705148 1_545
Al1 Au4 2.705148 1_545
Al2 Au7 2.705148 1_554
Al2 Au0 2.705148 1_555
Al2 Au1 2.705148 1_555
Al2 Au3 2.705148 1_555
Al2 Au4 2.705148 1_554
Al2 Au5 2.705148 1_554
Al3 Au4 2.705148 1_555
Al3 Au5 2.705148 1_555
Al3 Au6 2.705148 1_555
Al3 Au0 2.705148 1_555
Al3 Au1 2.705148 1_555
Al3 Au2 2.705148 1_555
Au0 Hf7 2.838555 1_655
Au0 Hf9 2.838555 1_655
Au0 Hf10 2.838555 1_655
Au0 Hf5 3.078799 1_555
Au0 Hf2 3.078799 1_555
Au0 Hf0 3.078799 1_555
Au1 Hf7 2.838555 1_565
Au1 Hf11 2.838555 1_565
Au1 Hf8 2.838555 1_565
Au1 Hf3 3.078799 1_555
Au1 Hf0 3.078799 1_555
Au1 Hf4 3.078799 1_555
Au2 Hf9 2.838555 1_556
Au2 Hf11 2.838555 1_556
Au2 Hf6 2.838555 1_556
Au2 Hf1 3.078799 1_555
Au2 Hf2 3.078799 1_555
Au2 Hf4 3.078799 1_555
Au3 Hf6 2.838555 1_555
Au3 Hf8 2.838555 1_555
Au3 Hf10 2.838555 1_555
Au3 Hf3 3.078799 1_555
Au3 Hf1 3.078799 1_555
Au3 Hf5 3.078799 1_555
Au4 Hf4 2.838555 1_555
Au4 Hf3 2.838555 1_556
Au4 Hf1 2.838555 1_565
Au4 Hf6 3.078799 1_556
Au4 Hf8 3.078799 1_565
Au4 Hf11 3.078799 1_566
Au5 Hf2 2.838555 1_555
Au5 Hf1 2.838555 1_655
Au5 Hf5 2.838555 1_556
Au5 Hf6 3.078799 1_556
Au5 Hf10 3.078799 1_655
Au5 Hf9 3.078799 1_656
Au6 Hf0 2.838555 1_555
Au6 Hf3 2.838555 1_655
Au6 Hf5 2.838555 1_565
Au6 Hf10 3.078799 1_655
Au6 Hf8 3.078799 1_565
Au6 Hf7 3.078799 1_665
Au7 Hf2 2.838555 1_565
Au7 Hf4 2.838555 1_655
Au7 Hf0 2.838555 1_556
Au7 Hf7 3.078799 1_665
Au7 Hf9 3.078799 1_656
Au7 Hf11 3.078799 1_566
