# generated using pymatgen
data_RbYbZnSe3
_symmetry_space_group_name_H-M   'P 1'
_cell_length_a   7.88802371
_cell_length_b   7.88802371
_cell_length_c   10.78115695
_cell_angle_alpha   90.00000000
_cell_angle_beta   90.00000000
_cell_angle_gamma   149.93875112
_symmetry_Int_Tables_number   1
_chemical_formula_structural   RbYbZnSe3
_chemical_formula_sum   'Rb2 Yb2 Zn2 Se6'
_cell_volume   336.02757288
_cell_formula_units_Z   2
loop_
 _symmetry_equiv_pos_site_id
 _symmetry_equiv_pos_as_xyz
  1  'x, y, z'
loop_
 _atom_site_type_symbol
 _atom_site_label
 _atom_site_symmetry_multiplicity
 _atom_site_fract_x
 _atom_site_fract_y
 _atom_site_fract_z
 _atom_site_occupancy
  Rb  Rb0  1  0.25539768  0.74460232  0.25000000  1
  Rb  Rb1  1  0.74460232  0.25539768  0.75000000  1
  Yb  Yb0  1  0.00000000  0.00000000  0.00000000  1
  Yb  Yb1  1  0.00000000  0.00000000  0.50000000  1
  Zn  Zn0  1  0.53792837  0.46207163  0.25000000  1
  Zn  Zn1  1  0.46207163  0.53792837  0.75000000  1
  Se  Se0  1  0.62088457  0.37911543  0.05811755  1
  Se  Se1  1  0.37911543  0.62088457  0.94188245  1
  Se  Se2  1  0.37911543  0.62088457  0.55811755  1
  Se  Se3  1  0.62088457  0.37911543  0.44188245  1
  Se  Se4  1  0.93980812  0.06019188  0.25000000  1
  Se  Se5  1  0.06019188  0.93980812  0.75000000  1
loop_
_geom_bond_atom_site_label_1
_geom_bond_atom_site_label_2
_geom_bond_distance
_geom_bond_site_symmetry_2
Rb0 Se4 3.475523 1_455
Rb0 Se4 3.475523 1_565
Rb0 Se3 3.558738 1_565
Rb0 Se3 3.558738 1_455
Rb0 Se0 3.558738 1_565
Rb0 Se0 3.558738 1_455
Rb0 Se2 3.819425 1_555
Rb0 Se1 3.819425 1_554
Rb1 Se5 3.475523 1_545
Rb1 Se5 3.475523 1_655
Rb1 Se1 3.558738 1_655
Rb1 Se1 3.558738 1_545
Rb1 Se2 3.558738 1_655
Rb1 Se2 3.558738 1_545
Rb1 Se0 3.819425 1_556
Rb1 Se3 3.819425 1_555
Se0 Zn0 2.424281 1_555
Se0 Yb0 2.823049 1_555
Se0 Yb0 2.823049 1_665
Se1 Zn1 2.424281 1_555
Se1 Yb0 2.823049 1_556
Se1 Yb0 2.823049 1_666
Se2 Zn1 2.424281 1_555
Se2 Yb1 2.823049 1_555
Se2 Yb1 2.823049 1_665
Se3 Zn0 2.424281 1_555
Se3 Yb1 2.823049 1_555
Se3 Yb1 2.823049 1_665
Se4 Zn0 2.533703 1_655
Se4 Zn0 2.533703 1_545
Se4 Yb0 2.847044 1_655
Se4 Yb1 2.847044 1_655
Se5 Zn1 2.533703 1_565
Se5 Zn1 2.533703 1_455
Se5 Yb0 2.847044 1_566
Se5 Yb1 2.847044 1_565
