# generated using pymatgen
data_MoPdRu2
_symmetry_space_group_name_H-M   'P 1'
_cell_length_a   5.54686921
_cell_length_b   5.54686921
_cell_length_c   17.78932000
_cell_angle_alpha   90.00000000
_cell_angle_beta   90.00000000
_cell_angle_gamma   120.00001447
_symmetry_Int_Tables_number   1
_chemical_formula_structural   MoPdRu2
_chemical_formula_sum   'Mo8 Pd8 Ru16'
_cell_volume   474.00810507
_cell_formula_units_Z   8
loop_
 _symmetry_equiv_pos_site_id
 _symmetry_equiv_pos_as_xyz
  1  'x, y, z'
loop_
 _atom_site_type_symbol
 _atom_site_label
 _atom_site_symmetry_multiplicity
 _atom_site_fract_x
 _atom_site_fract_y
 _atom_site_fract_z
 _atom_site_occupancy
  Mo  Mo0_0  1  0.16666650  0.33333350  0.00000000  1
  Mo  Mo0_1  1  0.16666650  0.33333350  0.50000000  1
  Mo  Mo0_2  1  0.16666650  0.83333350  0.00000000  1
  Mo  Mo0_3  1  0.16666650  0.83333350  0.50000000  1
  Mo  Mo0_4  1  0.66666650  0.33333350  0.00000000  1
  Mo  Mo0_5  1  0.66666650  0.33333350  0.50000000  1
  Mo  Mo0_6  1  0.66666650  0.83333350  0.00000000  1
  Mo  Mo0_7  1  0.66666650  0.83333350  0.50000000  1
  Pd  Pd0_0  1  0.16666650  0.33333350  0.25000000  1
  Pd  Pd0_1  1  0.16666650  0.33333350  0.75000000  1
  Pd  Pd0_2  1  0.16666650  0.83333350  0.25000000  1
  Pd  Pd0_3  1  0.16666650  0.83333350  0.75000000  1
  Pd  Pd0_4  1  0.66666650  0.33333350  0.25000000  1
  Pd  Pd0_5  1  0.66666650  0.33333350  0.75000000  1
  Pd  Pd0_6  1  0.66666650  0.83333350  0.25000000  1
  Pd  Pd0_7  1  0.66666650  0.83333350  0.75000000  1
  Ru  Ru0_0  1  0.00000000  0.00000000  0.12107550  1
  Ru  Ru0_1  1  0.00000000  0.00000000  0.62107550  1
  Ru  Ru0_2  1  0.00000000  0.50000000  0.12107550  1
  Ru  Ru0_3  1  0.00000000  0.50000000  0.62107550  1
  Ru  Ru0_4  1  0.50000000  0.00000000  0.12107550  1
  Ru  Ru0_5  1  0.50000000  0.00000000  0.62107550  1
  Ru  Ru0_6  1  0.50000000  0.50000000  0.12107550  1
  Ru  Ru0_7  1  0.50000000  0.50000000  0.62107550  1
  Ru  Ru1_0  1  0.00000000  0.00000000  0.37892450  1
  Ru  Ru1_1  1  0.00000000  0.00000000  0.87892450  1
  Ru  Ru1_2  1  0.00000000  0.50000000  0.37892450  1
  Ru  Ru1_3  1  0.00000000  0.50000000  0.87892450  1
  Ru  Ru1_4  1  0.50000000  0.00000000  0.37892450  1
  Ru  Ru1_5  1  0.50000000  0.00000000  0.87892450  1
  Ru  Ru1_6  1  0.50000000  0.50000000  0.37892450  1
  Ru  Ru1_7  1  0.50000000  0.50000000  0.87892450  1
loop_
_geom_bond_atom_site_label_1
_geom_bond_atom_site_label_2
_geom_bond_distance
_geom_bond_site_symmetry_2
Mo0_0 Ru1_3 2.683850 1_554
Mo0_0 Ru0_2 2.683850 1_555
Mo0_0 Ru0_6 2.683851 1_555
Mo0_0 Ru0_0 2.683851 1_555
Mo0_0 Ru1_7 2.683851 1_554
Mo0_0 Ru1_1 2.683851 1_554
Mo0_0 Mo0_6 2.773434 1_445
Mo0_0 Mo0_6 2.773434 1_555
Mo0_0 Mo0_2 2.773435 1_555
Mo0_0 Mo0_2 2.773435 1_545
Mo0_0 Mo0_4 2.773435 1_455
Mo0_0 Mo0_4 2.773435 1_555
Mo0_1 Ru1_2 2.683850 1_555
Mo0_1 Ru0_3 2.683850 1_555
Mo0_1 Ru0_1 2.683851 1_555
Mo0_1 Ru1_6 2.683851 1_555
Mo0_1 Ru0_7 2.683851 1_555
Mo0_1 Ru1_0 2.683851 1_555
Mo0_1 Mo0_7 2.773434 1_445
Mo0_1 Mo0_7 2.773434 1_555
Mo0_1 Mo0_3 2.773435 1_555
Mo0_1 Mo0_5 2.773435 1_455
Mo0_1 Mo0_3 2.773435 1_545
Mo0_1 Mo0_5 2.773435 1_555
Mo0_2 Ru1_1 2.683850 1_564
Mo0_2 Ru0_0 2.683850 1_565
Mo0_2 Ru0_4 2.683851 1_565
Mo0_2 Ru1_5 2.683851 1_564
Mo0_2 Ru1_3 2.683851 1_554
Mo0_2 Ru0_2 2.683851 1_555
Mo0_2 Mo0_4 2.773434 1_565
Mo0_2 Mo0_4 2.773434 1_455
Mo0_2 Mo0_6 2.773435 1_455
Mo0_2 Mo0_6 2.773435 1_555
Mo0_3 Ru1_0 2.683850 1_565
Mo0_3 Ru0_1 2.683850 1_565
Mo0_3 Ru0_3 2.683851 1_555
Mo0_3 Ru1_2 2.683851 1_555
Mo0_3 Ru0_5 2.683851 1_565
Mo0_3 Ru1_4 2.683851 1_565
Mo0_3 Mo0_5 2.773434 1_455
Mo0_3 Mo0_5 2.773434 1_565
Mo0_3 Mo0_7 2.773435 1_455
Mo0_3 Mo0_7 2.773435 1_555
Mo0_4 Ru0_6 2.683850 1_555
Mo0_4 Ru1_7 2.683850 1_554
Mo0_4 Ru0_4 2.683851 1_555
Mo0_4 Ru1_5 2.683851 1_554
Mo0_4 Ru0_2 2.683851 1_655
Mo0_4 Ru1_3 2.683851 1_654
Mo0_4 Mo0_6 2.773435 1_545
Mo0_4 Mo0_6 2.773435 1_555
Mo0_5 Ru1_6 2.683850 1_555
Mo0_5 Ru0_7 2.683850 1_555
Mo0_5 Ru1_4 2.683851 1_555
Mo0_5 Ru0_5 2.683851 1_555
Mo0_5 Ru0_3 2.683851 1_655
Mo0_5 Ru1_2 2.683851 1_655
Mo0_5 Mo0_7 2.773435 1_545
Mo0_5 Mo0_7 2.773435 1_555
Mo0_6 Ru0_4 2.683850 1_565
Mo0_6 Ru1_5 2.683850 1_564
Mo0_6 Ru0_0 2.683851 1_665
Mo0_6 Ru1_1 2.683851 1_664
Mo0_6 Ru0_6 2.683851 1_555
Mo0_6 Ru1_7 2.683851 1_554
Mo0_7 Ru0_5 2.683850 1_565
Mo0_7 Ru1_4 2.683850 1_565
Mo0_7 Ru0_1 2.683851 1_665
Mo0_7 Ru1_0 2.683851 1_665
Mo0_7 Ru1_6 2.683851 1_555
Mo0_7 Ru0_7 2.683851 1_555
Pd0_0 Pd0_6 2.773434 1_445
Pd0_0 Pd0_6 2.773434 1_555
Pd0_0 Pd0_2 2.773435 1_555
Pd0_0 Pd0_4 2.773435 1_455
Pd0_0 Pd0_2 2.773435 1_545
Pd0_0 Pd0_4 2.773435 1_555
Pd0_0 Ru1_2 2.797145 1_555
Pd0_0 Ru0_2 2.797145 1_555
Pd0_0 Ru0_6 2.797146 1_555
Pd0_0 Ru1_6 2.797146 1_555
Pd0_0 Ru1_0 2.797146 1_555
Pd0_0 Ru0_0 2.797146 1_555
Pd0_1 Pd0_7 2.773434 1_445
Pd0_1 Pd0_7 2.773434 1_555
Pd0_1 Pd0_3 2.773435 1_555
Pd0_1 Pd0_5 2.773435 1_455
Pd0_1 Pd0_3 2.773435 1_545
Pd0_1 Pd0_5 2.773435 1_555
Pd0_1 Ru0_3 2.797145 1_555
Pd0_1 Ru1_3 2.797145 1_555
Pd0_1 Ru0_7 2.797146 1_555
Pd0_1 Ru0_1 2.797146 1_555
Pd0_1 Ru1_7 2.797146 1_555
Pd0_1 Ru1_1 2.797146 1_555
Pd0_2 Pd0_4 2.773434 1_565
Pd0_2 Pd0_4 2.773434 1_455
Pd0_2 Pd0_6 2.773435 1_555
Pd0_2 Pd0_6 2.773435 1_455
Pd0_2 Ru1_0 2.797145 1_565
Pd0_2 Ru0_0 2.797145 1_565
Pd0_2 Ru0_4 2.797146 1_565
Pd0_2 Ru1_2 2.797146 1_555
Pd0_2 Ru1_4 2.797146 1_565
Pd0_2 Ru0_2 2.797146 1_555
Pd0_3 Pd0_5 2.773434 1_565
Pd0_3 Pd0_5 2.773434 1_455
Pd0_3 Pd0_7 2.773435 1_455
Pd0_3 Pd0_7 2.773435 1_555
Pd0_3 Ru0_1 2.797145 1_565
Pd0_3 Ru1_1 2.797145 1_565
Pd0_3 Ru0_5 2.797146 1_565
Pd0_3 Ru0_3 2.797146 1_555
Pd0_3 Ru1_5 2.797146 1_565
Pd0_3 Ru1_3 2.797146 1_555
Pd0_4 Pd0_6 2.773435 1_545
Pd0_4 Pd0_6 2.773435 1_555
Pd0_4 Ru0_6 2.797145 1_555
Pd0_4 Ru1_6 2.797145 1_555
Pd0_4 Ru0_4 2.797146 1_555
Pd0_4 Ru1_4 2.797146 1_555
Pd0_4 Ru0_2 2.797146 1_655
Pd0_4 Ru1_2 2.797146 1_655
Pd0_5 Pd0_7 2.773435 1_545
Pd0_5 Pd0_7 2.773435 1_555
Pd0_5 Ru0_7 2.797145 1_555
Pd0_5 Ru1_7 2.797145 1_555
Pd0_5 Ru0_5 2.797146 1_555
Pd0_5 Ru0_3 2.797146 1_655
Pd0_5 Ru1_5 2.797146 1_555
Pd0_5 Ru1_3 2.797146 1_655
Pd0_6 Ru1_4 2.797145 1_565
Pd0_6 Ru0_4 2.797145 1_565
Pd0_6 Ru1_0 2.797146 1_665
Pd0_6 Ru0_0 2.797146 1_665
Pd0_6 Ru0_6 2.797146 1_555
Pd0_6 Ru1_6 2.797146 1_555
Pd0_7 Ru0_5 2.797145 1_565
Pd0_7 Ru1_5 2.797145 1_565
Pd0_7 Ru0_1 2.797146 1_665
Pd0_7 Ru0_7 2.797146 1_555
Pd0_7 Ru1_1 2.797146 1_665
Pd0_7 Ru1_7 2.797146 1_555
Ru0_0 Ru0_6 2.773434 1_555
Ru0_0 Ru0_6 2.773434 1_445
Ru0_0 Ru0_4 2.773435 1_555
Ru0_0 Ru0_2 2.773435 1_545
Ru0_0 Ru0_2 2.773435 1_555
Ru0_0 Ru0_4 2.773435 1_455
Ru0_1 Ru0_7 2.773434 1_555
Ru0_1 Ru0_7 2.773434 1_445
Ru0_1 Ru0_5 2.773435 1_555
Ru0_1 Ru0_3 2.773435 1_555
Ru0_1 Ru0_3 2.773435 1_545
Ru0_1 Ru0_5 2.773435 1_455
Ru0_2 Ru0_4 2.773434 1_455
Ru0_2 Ru0_4 2.773434 1_565
Ru0_2 Ru0_6 2.773435 1_555
Ru0_2 Ru0_6 2.773435 1_455
Ru0_3 Ru0_5 2.773434 1_455
Ru0_3 Ru0_5 2.773434 1_565
Ru0_3 Ru0_7 2.773435 1_555
Ru0_3 Ru0_7 2.773435 1_455
Ru0_4 Ru0_6 2.773435 1_555
Ru0_4 Ru0_6 2.773435 1_545
Ru0_5 Ru0_7 2.773435 1_555
Ru0_5 Ru0_7 2.773435 1_545
Ru1_0 Ru1_6 2.773434 1_555
Ru1_0 Ru1_6 2.773434 1_445
Ru1_0 Ru1_4 2.773435 1_555
Ru1_0 Ru1_2 2.773435 1_545
Ru1_0 Ru1_2 2.773435 1_555
Ru1_0 Ru1_4 2.773435 1_455
Ru1_1 Ru1_7 2.773434 1_555
Ru1_1 Ru1_7 2.773434 1_445
Ru1_1 Ru1_5 2.773435 1_555
Ru1_1 Ru1_3 2.773435 1_545
Ru1_1 Ru1_5 2.773435 1_455
Ru1_1 Ru1_3 2.773435 1_555
Ru1_2 Ru1_4 2.773434 1_565
Ru1_2 Ru1_4 2.773434 1_455
Ru1_2 Ru1_6 2.773435 1_455
Ru1_2 Ru1_6 2.773435 1_555
Ru1_3 Ru1_5 2.773434 1_455
Ru1_3 Ru1_5 2.773434 1_565
Ru1_3 Ru1_7 2.773435 1_455
Ru1_3 Ru1_7 2.773435 1_555
Ru1_4 Ru1_6 2.773435 1_555
Ru1_4 Ru1_6 2.773435 1_545
Ru1_5 Ru1_7 2.773435 1_555
Ru1_5 Ru1_7 2.773435 1_545
