# generated using pymatgen
data_Mg2Ti3CoS8
_symmetry_space_group_name_H-M   'P 1'
_cell_length_a   7.31221376
_cell_length_b   7.30406715
_cell_length_c   7.31380690
_cell_angle_alpha   59.28631660
_cell_angle_beta   59.26522527
_cell_angle_gamma   59.24039681
_symmetry_Int_Tables_number   1
_chemical_formula_structural   Mg2Ti3CoS8
_chemical_formula_sum   'Mg2 Ti3 Co1 S8'
_cell_volume   271.58155067
_cell_formula_units_Z   1
loop_
 _symmetry_equiv_pos_site_id
 _symmetry_equiv_pos_as_xyz
  1  'x, y, z'
loop_
 _atom_site_type_symbol
 _atom_site_label
 _atom_site_symmetry_multiplicity
 _atom_site_fract_x
 _atom_site_fract_y
 _atom_site_fract_z
 _atom_site_occupancy
  Mg  Mg0  1  0.87741000  0.87769100  0.87780800  1
  Mg  Mg1  1  0.12258900  0.12231200  0.12218800  1
  Ti  Ti0  1  0.50000000  0.49999900  0.00000700  1
  Ti  Ti1  1  0.99999900  0.50000100  0.50000600  1
  Ti  Ti2  1  0.50000100  0.99999100  0.50000100  1
  Co  Co0  1  0.50000100  0.50000700  0.49999100  1
  S  S0  1  0.74198800  0.74240700  0.74226700  1
  S  S1  1  0.26695800  0.26709200  0.71221000  1
  S  S2  1  0.26683600  0.71229600  0.26720500  1
  S  S3  1  0.71181200  0.26717200  0.26740800  1
  S  S4  1  0.73314900  0.28771900  0.73278900  1
  S  S5  1  0.28819200  0.73281600  0.73259500  1
  S  S6  1  0.25801500  0.25758000  0.25774300  1
  S  S7  1  0.73305400  0.73291100  0.28778300  1
loop_
_geom_bond_atom_site_label_1
_geom_bond_atom_site_label_2
_geom_bond_distance
_geom_bond_site_symmetry_2
Mg0 S4 2.423702 1_565
Mg0 S7 2.427139 1_556
Mg0 S5 2.430262 1_655
Mg0 S0 2.438133 1_555
Mg1 S2 2.423630 1_545
Mg1 S1 2.427158 1_554
Mg1 S3 2.430232 1_455
Mg1 S6 2.438145 1_555
Co0 S5 2.398425 1_555
Co0 S3 2.398451 1_555
Co0 S1 2.402429 1_555
Co0 S7 2.402430 1_555
Co0 S4 2.403309 1_555
Co0 S2 2.403336 1_555
S0 Ti2 2.490864 1_555
S0 Ti1 2.490919 1_555
S0 Ti0 2.491034 1_556
S1 Ti2 2.471431 1_545
S1 Ti1 2.473097 1_455
S2 Ti1 2.472372 1_455
S2 Ti0 2.473046 1_555
S3 Ti2 2.471541 1_545
S3 Ti0 2.473910 1_555
S4 Ti1 2.472384 1_555
S4 Ti0 2.473077 1_556
S5 Ti2 2.471498 1_555
S5 Ti0 2.473954 1_556
S6 Ti2 2.490820 1_545
S6 Ti1 2.491005 1_455
S6 Ti0 2.491074 1_555
S7 Ti2 2.471357 1_555
S7 Ti1 2.473114 1_555
