# generated using pymatgen
data_Nd2AgRu
_symmetry_space_group_name_H-M   'P 1'
_cell_length_a   5.12447073
_cell_length_b   5.12447073
_cell_length_c   5.12447073
_cell_angle_alpha   60.00000000
_cell_angle_beta   60.00000000
_cell_angle_gamma   60.00000000
_symmetry_Int_Tables_number   1
_chemical_formula_structural   Nd2AgRu
_chemical_formula_sum   'Nd2 Ag1 Ru1'
_cell_volume   95.15509597
_cell_formula_units_Z   1
loop_
 _symmetry_equiv_pos_site_id
 _symmetry_equiv_pos_as_xyz
  1  'x, y, z'
loop_
 _atom_site_type_symbol
 _atom_site_label
 _atom_site_symmetry_multiplicity
 _atom_site_fract_x
 _atom_site_fract_y
 _atom_site_fract_z
 _atom_site_occupancy
  Nd  Nd0  1  0.25000000  0.25000000  0.25000000  1
  Nd  Nd1  1  0.75000000  0.75000000  0.75000000  1
  Ag  Ag0  1  0.50000000  0.50000000  0.50000000  1
  Ru  Ru0  1  0.00000000  0.00000000  0.00000000  1
loop_
_geom_bond_atom_site_label_1
_geom_bond_atom_site_label_2
_geom_bond_distance
_geom_bond_site_symmetry_2
Nd0 Ru0 3.138085 1_556
Nd0 Ru0 3.138085 1_555
Nd0 Ru0 3.138085 1_655
Nd0 Ru0 3.138085 1_565
Nd1 Ru0 3.138085 1_666
Nd1 Ru0 3.138085 1_665
Nd1 Ru0 3.138085 1_656
Nd1 Ru0 3.138085 1_566
Ag0 Nd1 3.138085 1_555
Ag0 Nd0 3.138085 1_555
Ag0 Nd1 3.138085 1_554
Ag0 Nd0 3.138085 1_556
Ag0 Nd1 3.138085 1_455
Ag0 Nd0 3.138085 1_565
Ag0 Nd1 3.138085 1_545
Ag0 Nd0 3.138085 1_655
