# generated using pymatgen
data_TlIn2GaTe4
_symmetry_space_group_name_H-M   'P 1'
_cell_length_a   7.05413743
_cell_length_b   7.05413743
_cell_length_c   7.05413743
_cell_angle_alpha   119.83127301
_cell_angle_beta   104.59133128
_cell_angle_gamma   104.51476756
_symmetry_Int_Tables_number   1
_chemical_formula_structural   TlIn2GaTe4
_chemical_formula_sum   'Tl1 In2 Ga1 Te4'
_cell_volume   263.48682853
_cell_formula_units_Z   1
loop_
 _symmetry_equiv_pos_site_id
 _symmetry_equiv_pos_as_xyz
  1  'x, y, z'
loop_
 _atom_site_type_symbol
 _atom_site_label
 _atom_site_symmetry_multiplicity
 _atom_site_fract_x
 _atom_site_fract_y
 _atom_site_fract_z
 _atom_site_occupancy
  Tl  Tl0  1  0.00000000  0.50000000  0.50000000  1
  In  In0  1  0.50000000  0.50000000  0.00000000  1
  In  In1  1  0.00000000  0.00000000  0.00000000  1
  Ga  Ga0  1  0.50000000  0.00000000  0.50000000  1
  Te  Te0  1  0.84960400  0.40641200  0.90652100  1
  Te  Te1  1  0.15039600  0.05691700  0.55680800  1
  Te  Te2  1  0.49989100  0.94308300  0.09347900  1
  Te  Te3  1  0.50010900  0.59358800  0.44319200  1
loop_
_geom_bond_atom_site_label_1
_geom_bond_atom_site_label_2
_geom_bond_distance
_geom_bond_site_symmetry_2
In0 Te3 2.855686 1_555
In0 Te1 2.855686 1_554
In0 Te2 2.855686 1_555
In0 Te0 2.855686 1_554
In1 Tl0 3.536060 1_555
In1 Tl0 3.536060 1_544
In1 Te2 3.582223 1_545
In1 Te1 3.582223 1_555
In1 Te0 3.582223 1_454
In1 Te3 3.582223 1_444
Ga0 Te3 2.690334 1_545
Ga0 Te0 2.690334 1_555
Ga0 Te1 2.690334 1_555
Ga0 Te2 2.690334 1_545
Te0 Tl0 3.584707 1_655
Te1 Tl0 3.584707 1_545
Te2 Tl0 3.584707 1_665
Te3 Tl0 3.584707 1_555
