# generated using pymatgen
data_Sr2FeSnO6
_symmetry_space_group_name_H-M   'P 1'
_cell_length_a   7.00988624
_cell_length_b   7.01237154
_cell_length_c   12.09857324
_cell_angle_alpha   101.21097445
_cell_angle_beta   101.19162777
_cell_angle_gamma   109.17441944
_symmetry_Int_Tables_number   1
_chemical_formula_structural   Sr2FeSnO6
_chemical_formula_sum   'Sr8 Fe4 Sn4 O24'
_cell_volume   529.21904179
_cell_formula_units_Z   4
loop_
 _symmetry_equiv_pos_site_id
 _symmetry_equiv_pos_as_xyz
  1  'x, y, z'
loop_
 _atom_site_type_symbol
 _atom_site_label
 _atom_site_symmetry_multiplicity
 _atom_site_fract_x
 _atom_site_fract_y
 _atom_site_fract_z
 _atom_site_occupancy
  Sr  Sr0  1  0.50041900  0.50044900  0.00079300  1
  Sr  Sr1  1  0.74856900  0.74853000  0.49912700  1
  Sr  Sr2  1  0.00039400  0.00033400  0.00082900  1
  Sr  Sr3  1  0.25062400  0.25061100  0.49917500  1
  Sr  Sr4  1  0.87498700  0.37495700  0.24993100  1
  Sr  Sr5  1  0.12504300  0.62513500  0.75009500  1
  Sr  Sr6  1  0.37491800  0.87494600  0.24990800  1
  Sr  Sr7  1  0.62504400  0.12500500  0.75008400  1
  Fe  Fe0  1  0.37484600  0.37485000  0.24962900  1
  Fe  Fe1  1  0.62511300  0.62512800  0.75032900  1
  Fe  Fe2  1  0.87493700  0.87488600  0.24975600  1
  Fe  Fe3  1  0.12520300  0.12535900  0.75039100  1
  Sn  Sn0  1  0.49989100  0.99995100  0.99989700  1
  Sn  Sn1  1  0.75017000  0.24993000  0.50011300  1
  Sn  Sn2  1  0.00000800  0.49996000  0.99991100  1
  Sn  Sn3  1  0.24992900  0.75018000  0.50011200  1
  O  O0  1  0.74999900  0.24991900  0.99991000  1
  O  O1  1  0.00004000  0.50002500  0.50006300  1
  O  O2  1  0.24992600  0.74998800  0.99989900  1
  O  O3  1  0.50004200  0.00002000  0.50007100  1
  O  O4  1  0.61837100  0.61833900  0.25019100  1
  O  O5  1  0.86809100  0.86806800  0.74975300  1
  O  O6  1  0.13187200  0.13187600  0.25025800  1
  O  O7  1  0.38165300  0.38168400  0.74978800  1
  O  O8  1  0.55854000  0.31420500  0.37288300  1
  O  O9  1  0.80828800  0.56373000  0.87201600  1
  O  O10  1  0.05956800  0.81365200  0.37297900  1
  O  O11  1  0.31017800  0.06336300  0.87335400  1
  O  O12  1  0.69012100  0.93656400  0.12673100  1
  O  O13  1  0.94028000  0.18638200  0.62696000  1
  O  O14  1  0.19161000  0.43605600  0.12777900  1
  O  O15  1  0.44149100  0.68588500  0.62723900  1
  O  O16  1  0.43606400  0.19166600  0.12780300  1
  O  O17  1  0.68586300  0.44149200  0.62724100  1
  O  O18  1  0.93655100  0.69009800  0.12671900  1
  O  O19  1  0.18633600  0.94032500  0.62700200  1
  O  O20  1  0.81367800  0.05951200  0.37299800  1
  O  O21  1  0.06334700  0.31015200  0.87337600  1
  O  O22  1  0.31424100  0.55850500  0.37288200  1
  O  O23  1  0.56375500  0.80828200  0.87202500  1
loop_
_geom_bond_atom_site_label_1
_geom_bond_atom_site_label_2
_geom_bond_distance
_geom_bond_site_symmetry_2
Fe0 O16 1.969288 1_555
Fe0 O14 1.969893 1_555
Fe0 O4 1.976318 1_555
Fe0 O6 1.976821 1_555
Fe0 O22 1.980217 1_555
Fe0 O8 1.980795 1_555
Fe1 O23 1.968690 1_555
Fe1 O9 1.969114 1_555
Fe1 O7 1.975956 1_555
Fe1 O5 1.976482 1_555
Fe1 O17 1.979392 1_555
Fe1 O15 1.979631 1_555
Fe2 O20 1.986684 1_565
Fe2 O10 1.986702 1_655
Fe2 O18 1.987125 1_555
Fe2 O12 1.987652 1_555
Fe2 O6 2.085890 1_665
Fe2 O4 2.086390 1_555
Fe3 O21 1.987706 1_555
Fe3 O13 1.988707 1_455
Fe3 O19 1.989010 1_545
Fe3 O11 1.989087 1_555
Fe3 O7 2.085703 1_555
Fe3 O5 2.087286 1_445
O0 Sn2 2.031545 1_655
O0 Sn0 2.031601 1_545
O0 Sr7 2.847638 1_555
O0 Sr4 2.849860 1_556
O0 Sr2 2.856936 1_656
O0 Sr0 2.857675 1_556
O1 Sn3 2.031327 1_555
O1 Sn1 2.031407 1_455
O1 Sr5 2.849986 1_555
O1 Sr4 2.851125 1_455
O1 Sr1 2.856923 1_455
O1 Sr3 2.857044 1_555
O2 Sn0 2.031061 1_555
O2 Sn2 2.031175 1_555
O2 Sr5 2.847387 1_555
O2 Sr6 2.849723 1_556
O2 Sr2 2.856351 1_566
O2 Sr0 2.857232 1_556
O3 Sn3 2.031321 1_545
O3 Sn1 2.031329 1_555
O3 Sr7 2.849769 1_555
O3 Sr6 2.851479 1_545
O3 Sr3 2.857116 1_555
O3 Sr1 2.857161 1_545
O4 Sr1 2.837902 1_555
O4 Sr0 2.843260 1_555
O4 Sr4 2.857525 1_555
O4 Sr6 2.857917 1_555
O5 Sr5 2.856895 1_655
O5 Sr1 2.857115 1_555
O5 Sr7 2.857492 1_565
O5 Sr2 2.862443 1_666
O6 Sr3 2.837628 1_555
O6 Sr2 2.843681 1_555
O6 Sr4 2.857342 1_455
O6 Sr6 2.857445 1_545
O7 Sr3 2.857017 1_555
O7 Sr5 2.857883 1_555
O7 Sr7 2.857986 1_555
O7 Sr0 2.861567 1_556
O8 Sn1 2.059586 1_555
O8 Sr3 2.846987 1_555
O8 Sr1 2.849493 1_555
O8 Sr4 2.867315 1_555
O8 Sr6 2.868534 1_545
O9 Sn2 2.063253 1_655
O9 Sr5 2.860388 1_655
O9 Sr7 2.862662 1_555
O9 Sr0 2.868243 1_556
O9 Sr2 2.870102 1_666
O10 Sn3 2.050415 1_555
O10 Sr6 2.861965 1_555
O10 Sr1 2.863419 1_455
O10 Sr3 2.864441 1_565
O10 Sr4 2.865446 1_455
O11 Sn0 2.042800 1_545
O11 Sr7 2.860852 1_555
O11 Sr5 2.863316 1_545
O11 Sr2 2.867788 1_556
O11 Sr0 2.868663 1_556
O12 Sn0 2.047133 1_554
O12 Sr2 2.857055 1_665
O12 Sr0 2.858788 1_555
O12 Sr6 2.862009 1_555
O12 Sr4 2.864110 1_565
O13 Sn1 2.047404 1_555
O13 Sr7 2.861754 1_555
O13 Sr5 2.866014 1_655
O13 Sr3 2.873747 1_655
O13 Sr1 2.874273 1_545
O14 Sn2 2.063100 1_554
O14 Sr0 2.858133 1_555
O14 Sr2 2.859575 1_555
O14 Sr4 2.861577 1_455
O14 Sr6 2.864140 1_555
O15 Sn3 2.058565 1_555
O15 Sr1 2.857927 1_555
O15 Sr3 2.860248 1_555
O15 Sr5 2.866511 1_555
O15 Sr7 2.867381 1_565
O16 Sn0 2.063290 1_544
O16 Sr2 2.858794 1_555
O16 Sr0 2.859114 1_555
O16 Sr6 2.862700 1_545
O16 Sr4 2.863732 1_555
O17 Sn1 2.058361 1_555
O17 Sr1 2.858645 1_555
O17 Sr3 2.859496 1_555
O17 Sr5 2.867154 1_655
O17 Sr7 2.867582 1_555
O18 Sn2 2.046575 1_654
O18 Sr2 2.857676 1_665
O18 Sr0 2.858276 1_555
O18 Sr4 2.862900 1_555
O18 Sr6 2.863339 1_655
O19 Sn3 2.047813 1_555
O19 Sr5 2.862180 1_555
O19 Sr7 2.865019 1_565
O19 Sr1 2.873351 1_455
O19 Sr3 2.874717 1_565
O20 Sn1 2.050385 1_555
O20 Sr4 2.863433 1_555
O20 Sr3 2.863746 1_655
O20 Sr1 2.864088 1_545
O20 Sr6 2.865343 1_545
O21 Sn2 2.042565 1_555
O21 Sr5 2.862571 1_555
O21 Sr7 2.863247 1_455
O21 Sr0 2.867955 1_556
O21 Sr2 2.868718 1_556
O22 Sn3 2.059658 1_555
O22 Sr3 2.847795 1_555
O22 Sr1 2.848948 1_555
O22 Sr4 2.867847 1_455
O22 Sr6 2.868427 1_555
O23 Sn0 2.062979 1_555
O23 Sr7 2.861332 1_565
O23 Sr5 2.861986 1_555
O23 Sr0 2.868890 1_556
O23 Sr2 2.869708 1_666
