# generated using pymatgen
data_Ca(SbO2)2
_symmetry_space_group_name_H-M   'P 1'
_cell_length_a   6.49190300
_cell_length_b   7.13489575
_cell_length_c   18.20639933
_cell_angle_alpha   91.91721497
_cell_angle_beta   89.26792501
_cell_angle_gamma   116.14102416
_symmetry_Int_Tables_number   1
_chemical_formula_structural   Ca(SbO2)2
_chemical_formula_sum   'Ca6 Sb12 O24'
_cell_volume   756.61804401
_cell_formula_units_Z   6
loop_
 _symmetry_equiv_pos_site_id
 _symmetry_equiv_pos_as_xyz
  1  'x, y, z'
loop_
 _atom_site_type_symbol
 _atom_site_label
 _atom_site_symmetry_multiplicity
 _atom_site_fract_x
 _atom_site_fract_y
 _atom_site_fract_z
 _atom_site_occupancy
  Ca  Ca0  1  0.87515000  0.14668400  0.02626600  1
  Ca  Ca1  1  0.25359100  0.77285800  0.34783400  1
  Ca  Ca2  1  0.33421400  0.15815200  0.16747000  1
  Ca  Ca3  1  0.90225900  0.20900100  0.67349600  1
  Ca  Ca4  1  0.03282900  0.49278100  0.50907100  1
  Ca  Ca5  1  0.73429800  0.91870500  0.83348600  1
  Sb  Sb0  1  0.83935400  0.68822800  0.15952600  1
  Sb  Sb1  1  0.45266100  0.39186300  0.36186200  1
  Sb  Sb2  1  0.48481900  0.42995100  0.01567700  1
  Sb  Sb3  1  0.32676500  0.66076500  0.17540900  1
  Sb  Sb4  1  0.47733100  0.98167700  0.55066800  1
  Sb  Sb5  1  0.23270100  0.91245200  0.72881300  1
  Sb  Sb6  1  0.94117100  0.97608400  0.43946600  1
  Sb  Sb7  1  0.23113200  0.46498700  0.83454500  1
  Sb  Sb8  1  0.81313300  0.12532300  0.27443900  1
  Sb  Sb9  1  0.67676100  0.35884700  0.84041200  1
  Sb  Sb10  1  0.52688400  0.56467600  0.64662300  1
  Sb  Sb11  1  0.10012400  0.77696100  0.95940300  1
  O  O0  1  0.62225500  0.28553700  0.07487900  1
  O  O1  1  0.37053300  0.40503500  0.25995600  1
  O  O2  1  0.22763700  0.38293400  0.09143200  1
  O  O3  1  0.72469300  0.72974300  0.05498400  1
  O  O4  1  0.25345200  0.49813300  0.41146500  1
  O  O5  1  0.06365600  0.59798900  0.24203400  1
  O  O6  1  0.25390200  0.00162000  0.62144300  1
  O  O7  1  0.48760700  0.99007000  0.24368300  1
  O  O8  1  0.96662000  0.71833200  0.44281700  1
  O  O9  1  0.16348700  0.80572800  0.11870000  1
  O  O10  1  0.22003400  0.08534900  0.37525200  1
  O  O11  1  0.92784800  0.99597200  0.19354400  1
  O  O12  1  0.07202500  0.08370400  0.75850000  1
  O  O13  1  0.63760300  0.86731400  0.61879400  1
  O  O14  1  0.21702300  0.47016900  0.61051600  1
  O  O15  1  0.56482000  0.09774400  0.75428400  1
  O  O16  1  0.80706400  0.22101400  0.90660300  1
  O  O17  1  0.71865100  0.90218600  0.35418200  1
  O  O18  1  0.96090100  0.44624000  0.77549600  1
  O  O19  1  0.72413800  0.25817500  0.56630200  1
  O  O20  1  0.14989700  0.06705700  0.96553900  1
  O  O21  1  0.83652100  0.67899500  0.88749500  1
  O  O22  1  0.47088700  0.61438800  0.75383800  1
  O  O23  1  0.32356900  0.76657800  0.87379600  1
loop_
_geom_bond_atom_site_label_1
_geom_bond_atom_site_label_2
_geom_bond_distance
_geom_bond_site_symmetry_2
Ca0 O20 2.350957 1_654
Ca0 O16 2.351923 1_554
Ca0 O0 2.407833 1_555
Ca0 O2 2.453983 1_655
Ca0 O3 2.758203 1_545
Ca1 O5 2.309056 1_555
Ca1 O4 2.309672 1_555
Ca1 O10 2.370329 1_565
Ca1 O8 2.436513 1_455
Ca1 O7 2.520679 1_555
Ca1 O17 2.743518 1_555
Ca2 O1 2.332262 1_555
Ca2 O7 2.356720 1_545
Ca2 O0 2.385132 1_555
Ca2 O9 2.399916 1_545
Ca2 O11 2.416344 1_445
Ca2 O2 2.473498 1_555
Ca3 O12 2.326648 1_655
Ca3 O14 2.385474 1_655
Ca3 O18 2.387183 1_555
Ca3 O19 2.393745 1_555
Ca3 O15 2.460870 1_555
Ca3 O13 2.465276 1_545
Ca4 O8 2.232087 1_455
Ca4 O19 2.238550 1_455
Ca4 O4 2.258775 1_555
Ca4 O14 2.261300 1_555
Ca5 O21 2.337041 1_555
Ca5 O16 2.360880 1_565
Ca5 O12 2.411109 1_665
Ca5 O23 2.505904 1_555
Ca5 O22 2.514441 1_555
Ca5 O15 2.514734 1_565
O0 Sb2 1.982038 1_555
O1 Sb1 1.953584 1_555
O1 Sb3 2.536788 1_555
O2 Sb2 2.069046 1_555
O2 Sb3 2.319374 1_555
O3 Sb2 2.122113 1_555
O3 Sb0 2.129016 1_555
O4 Sb1 1.962485 1_555
O5 Sb3 1.974536 1_555
O5 Sb0 2.395445 1_455
O6 Sb4 1.976450 1_545
O6 Sb5 2.060147 1_545
O7 Sb8 1.976829 1_565
O7 Sb3 2.414907 1_555
O8 Sb6 1.920560 1_555
O9 Sb0 2.032343 1_455
O9 Sb3 2.079614 1_555
O10 Sb6 2.003803 1_445
O10 Sb1 2.058854 1_555
O11 Sb8 2.015483 1_565
O11 Sb0 2.083602 1_555
O12 Sb5 1.984338 1_545
O13 Sb10 2.032775 1_555
O13 Sb4 2.033616 1_555
O14 Sb10 1.934482 1_555
O15 Sb5 2.020983 1_545
O15 Sb9 2.257933 1_555
O16 Sb9 1.993324 1_555
O17 Sb6 2.026602 1_555
O17 Sb8 2.071261 1_565
O18 Sb7 2.020665 1_655
O18 Sb9 2.041651 1_555
O19 Sb4 1.931040 1_545
O20 Sb11 1.948617 1_545
O20 Sb2 2.682663 1_556
O21 Sb11 2.018180 1_655
O21 Sb9 2.198253 1_555
O22 Sb10 2.029141 1_555
O22 Sb7 2.074209 1_555
O23 Sb7 2.066725 1_555
O23 Sb11 2.137309 1_555
