# generated using pymatgen
data_Nb2CuS4
_symmetry_space_group_name_H-M   'P 1'
_cell_length_a   3.39287705
_cell_length_b   3.39287705
_cell_length_c   12.79902509
_cell_angle_alpha   90.00000000
_cell_angle_beta   90.00000000
_cell_angle_gamma   119.99997992
_symmetry_Int_Tables_number   1
_chemical_formula_structural   Nb2CuS4
_chemical_formula_sum   'Nb2 Cu1 S4'
_cell_volume   127.59799619
_cell_formula_units_Z   1
loop_
 _symmetry_equiv_pos_site_id
 _symmetry_equiv_pos_as_xyz
  1  'x, y, z'
loop_
 _atom_site_type_symbol
 _atom_site_label
 _atom_site_symmetry_multiplicity
 _atom_site_fract_x
 _atom_site_fract_y
 _atom_site_fract_z
 _atom_site_occupancy
  Nb  Nb0  1  0.33333300  0.66666700  0.75867592  1
  Nb  Nb1  1  -0.00000000  0.00000000  0.24199659  1
  Cu  Cu0  1  0.33333300  0.66666700  0.53548346  1
  S  S0  1  0.33333300  0.66666700  0.36428021  1
  S  S1  1  -0.00000000  0.00000000  0.63223862  1
  S  S2  1  -0.00000000  0.00000000  0.87728979  1
  S  S3  1  0.33333300  0.66666700  0.12403440  1
loop_
_geom_bond_atom_site_label_1
_geom_bond_atom_site_label_2
_geom_bond_distance
_geom_bond_site_symmetry_2
Nb0 S2 2.478296 1_565
Nb0 S2 2.478299 1_555
Nb0 S2 2.478299 1_665
Nb0 S1 2.540868 1_565
Nb0 S1 2.540870 1_665
Nb0 S1 2.540870 1_555
Nb1 S3 2.473195 1_545
Nb1 S3 2.473198 1_445
Nb1 S3 2.473198 1_555
Nb1 S0 2.507343 1_545
Nb1 S0 2.507346 1_555
Nb1 S0 2.507346 1_445
Cu0 S0 2.191235 1_555
Cu0 S1 2.317490 1_565
Cu0 S1 2.317493 1_555
Cu0 S1 2.317493 1_665
