# generated using pymatgen
data_Cs2CdGe3S8
_symmetry_space_group_name_H-M   'P 1'
_cell_length_a   7.56961558
_cell_length_b   12.97401136
_cell_length_c   17.33072556
_cell_angle_alpha   90.00000000
_cell_angle_beta   90.00000000
_cell_angle_gamma   90.00000000
_symmetry_Int_Tables_number   1
_chemical_formula_structural   Cs2CdGe3S8
_chemical_formula_sum   'Cs8 Cd4 Ge12 S32'
_cell_volume   1702.02072285
_cell_formula_units_Z   4
loop_
 _symmetry_equiv_pos_site_id
 _symmetry_equiv_pos_as_xyz
  1  'x, y, z'
loop_
 _atom_site_type_symbol
 _atom_site_label
 _atom_site_symmetry_multiplicity
 _atom_site_fract_x
 _atom_site_fract_y
 _atom_site_fract_z
 _atom_site_occupancy
  Cs  Cs0  1  0.74763374  0.36720303  0.55459677  1
  Cs  Cs1  1  0.75236626  0.63279697  0.05459677  1
  Cs  Cs2  1  0.24763374  0.13279697  0.44540323  1
  Cs  Cs3  1  0.25236626  0.86720303  0.94540323  1
  Cs  Cs4  1  0.23071608  0.19470928  0.84820967  1
  Cs  Cs5  1  0.26928392  0.80529072  0.34820967  1
  Cs  Cs6  1  0.73071608  0.30529072  0.15179033  1
  Cs  Cs7  1  0.76928392  0.69470928  0.65179033  1
  Cd  Cd0  1  0.52756960  0.50143246  0.84822605  1
  Cd  Cd1  1  0.97243040  0.49856754  0.34822605  1
  Cd  Cd2  1  0.02756960  0.99856754  0.15177395  1
  Cd  Cd3  1  0.47243040  0.00143246  0.65177395  1
  Ge  Ge0  1  0.46930723  0.47065648  0.34613311  1
  Ge  Ge1  1  0.03069277  0.52934352  0.84613311  1
  Ge  Ge2  1  0.96930723  0.02934352  0.65386689  1
  Ge  Ge3  1  0.53069277  0.97065648  0.15386689  1
  Ge  Ge4  1  0.26127939  0.44631658  0.01750539  1
  Ge  Ge5  1  0.23872061  0.55368342  0.51750539  1
  Ge  Ge6  1  0.76127939  0.05368342  0.98249461  1
  Ge  Ge7  1  0.73872061  0.94631658  0.48249461  1
  Ge  Ge8  1  0.26850145  0.45285781  0.67713229  1
  Ge  Ge9  1  0.23149855  0.54714219  0.17713229  1
  Ge  Ge10  1  0.76850145  0.04714219  0.32286771  1
  Ge  Ge11  1  0.73149855  0.95285781  0.82286771  1
  S  S0  1  0.50105113  0.38395569  0.72976185  1
  S  S1  1  0.99894887  0.61604431  0.22976185  1
  S  S2  1  0.00105113  0.11604431  0.27023815  1
  S  S3  1  0.49894887  0.88395569  0.77023815  1
  S  S4  1  0.98785391  0.92354745  0.76042832  1
  S  S5  1  0.51214609  0.07645255  0.26042832  1
  S  S6  1  0.48785391  0.57645255  0.23957168  1
  S  S7  1  0.01214609  0.42354745  0.73957168  1
  S  S8  1  0.73445198  0.12696272  0.65604719  1
  S  S9  1  0.76554802  0.87303728  0.15604719  1
  S  S10  1  0.23445198  0.37303728  0.34395281  1
  S  S11  1  0.26554802  0.62696272  0.84395281  1
  S  S12  1  0.20974840  0.12530494  0.65015531  1
  S  S13  1  0.29025160  0.87469506  0.15015531  1
  S  S14  1  0.70974840  0.37469506  0.34984469  1
  S  S15  1  0.79025160  0.62530494  0.84984469  1
  S  S16  1  0.00666778  0.11338658  0.03080852  1
  S  S17  1  0.49333222  0.88661342  0.53080852  1
  S  S18  1  0.50666778  0.38661342  0.96919148  1
  S  S19  1  0.99333222  0.61338658  0.46919148  1
  S  S20  1  0.98422896  0.91484916  0.55224171  1
  S  S21  1  0.51577104  0.08515084  0.05224171  1
  S  S22  1  0.48422896  0.58515084  0.44775829  1
  S  S23  1  0.01577104  0.41484916  0.94775829  1
  S  S24  1  0.23191504  0.38490687  0.55659498  1
  S  S25  1  0.26808496  0.61509313  0.05659498  1
  S  S26  1  0.73191504  0.11509313  0.44340502  1
  S  S27  1  0.76808496  0.88490687  0.94340502  1
  S  S28  1  0.21361533  0.37902854  0.13674371  1
  S  S29  1  0.28638467  0.62097146  0.63674371  1
  S  S30  1  0.71361533  0.12097146  0.86325629  1
  S  S31  1  0.78638467  0.87902854  0.36325629  1
loop_
_geom_bond_atom_site_label_1
_geom_bond_atom_site_label_2
_geom_bond_distance
_geom_bond_site_symmetry_2
Cs0 S14 3.561398 1_555
Cs0 S0 3.570280 1_555
Cs0 S8 3.579972 1_555
Cs0 S24 3.673175 1_655
Cs0 S26 3.798190 1_555
Cs0 S7 3.849707 1_655
Cs0 S24 3.910697 1_555
Cs0 S22 3.924227 1_555
Cs0 S19 3.981379 1_555
Cs1 S15 3.561398 1_554
Cs1 S1 3.570280 1_555
Cs1 S9 3.579972 1_555
Cs1 S25 3.673175 1_555
Cs1 S27 3.798190 1_554
Cs1 S6 3.849707 1_555
Cs1 S25 3.910697 1_655
Cs1 S23 3.924227 1_654
Cs1 S18 3.981379 1_554
Cs2 S12 3.561398 1_555
Cs2 S2 3.570280 1_555
Cs2 S10 3.579972 1_555
Cs2 S26 3.673175 1_555
Cs2 S24 3.798190 1_555
Cs2 S5 3.849707 1_555
Cs2 S26 3.910697 1_455
Cs2 S20 3.924227 1_445
Cs2 S17 3.981379 1_545
Cs3 S13 3.561398 1_556
Cs3 S3 3.570280 1_555
Cs3 S11 3.579972 1_555
Cs3 S27 3.673175 1_455
Cs3 S25 3.798190 1_556
Cs3 S4 3.849707 1_455
Cs3 S27 3.910697 1_555
Cs3 S21 3.924227 1_566
Cs3 S16 3.981379 1_566
Cs4 S12 3.552119 1_555
Cs4 S23 3.712287 1_555
Cs4 S16 3.742190 1_556
Cs4 S30 3.787466 1_555
Cs4 S0 3.798662 1_555
Cs4 S18 3.867607 1_555
Cs4 S7 3.885465 1_555
Cs4 S30 4.037897 1_455
Cs5 S13 3.552119 1_555
Cs5 S22 3.712287 1_555
Cs5 S17 3.742190 1_555
Cs5 S31 3.787466 1_455
Cs5 S1 3.798662 1_455
Cs5 S19 3.867607 1_455
Cs5 S6 3.885465 1_555
Cs5 S31 4.037897 1_555
Cs6 S14 3.552119 1_555
Cs6 S21 3.712287 1_555
Cs6 S18 3.742190 1_554
Cs6 S28 3.787466 1_655
Cs6 S2 3.798662 1_655
Cs6 S16 3.867607 1_655
Cs6 S5 3.885465 1_555
Cs6 S28 4.037897 1_555
Cs7 S15 3.552119 1_555
Cs7 S20 3.712287 1_555
Cs7 S19 3.742190 1_555
Cs7 S29 3.787466 1_555
Cs7 S3 3.798662 1_555
Cs7 S17 3.867607 1_555
Cs7 S4 3.885465 1_555
Cs7 S29 4.037897 1_655
Cd0 S15 2.556829 1_555
Cd0 S0 2.564841 1_555
Cd0 S11 2.567452 1_555
Cd0 S18 2.576645 1_555
Cd1 S14 2.556829 1_555
Cd1 S1 2.564841 1_555
Cd1 S10 2.567452 1_655
Cd1 S19 2.576645 1_555
Cd2 S13 2.556829 1_555
Cd2 S2 2.564841 1_565
Cd2 S9 2.567452 1_455
Cd2 S16 2.576645 1_565
Cd3 S12 2.556829 1_555
Cd3 S3 2.564841 1_545
Cd3 S8 2.567452 1_555
Cd3 S17 2.576645 1_545
Ge0 S10 2.183100 1_555
Ge0 S14 2.206070 1_555
Ge0 S6 2.305290 1_555
Ge0 S22 2.306791 1_555
Ge1 S11 2.183100 1_555
Ge1 S15 2.206070 1_455
Ge1 S7 2.305290 1_555
Ge1 S23 2.306791 1_555
Ge2 S8 2.183100 1_555
Ge2 S12 2.206070 1_655
Ge2 S4 2.305290 1_545
Ge2 S20 2.306791 1_545
Ge3 S9 2.183100 1_555
Ge3 S13 2.206070 1_555
Ge3 S5 2.305290 1_565
Ge3 S21 2.306791 1_565
Ge4 S18 2.179765 1_554
Ge4 S23 2.254209 1_554
Ge4 S28 2.272150 1_555
Ge4 S25 2.292688 1_555
Ge5 S19 2.179765 1_455
Ge5 S22 2.254209 1_555
Ge5 S29 2.272150 1_555
Ge5 S24 2.292688 1_555
Ge6 S16 2.179765 1_656
Ge6 S21 2.254209 1_556
Ge6 S30 2.272150 1_555
Ge6 S27 2.292688 1_545
Ge7 S17 2.179765 1_555
Ge7 S20 2.254209 1_555
Ge7 S31 2.272150 1_555
Ge7 S26 2.292688 1_565
Ge8 S0 2.174802 1_555
Ge8 S7 2.254146 1_555
Ge8 S24 2.284256 1_555
Ge8 S29 2.294669 1_555
Ge9 S1 2.174802 1_455
Ge9 S6 2.254146 1_555
Ge9 S25 2.284256 1_555
Ge9 S28 2.294669 1_555
Ge10 S2 2.174802 1_655
Ge10 S5 2.254146 1_555
Ge10 S26 2.284256 1_555
Ge10 S31 2.294669 1_545
Ge11 S3 2.174802 1_555
Ge11 S4 2.254146 1_555
Ge11 S27 2.284256 1_555
Ge11 S30 2.294669 1_565
