# generated using pymatgen
data_V18Cu2O45
_symmetry_space_group_name_H-M   'P 1'
_cell_length_a   16.97431636
_cell_length_b   9.25285763
_cell_length_c   14.52702564
_cell_angle_alpha   68.04914236
_cell_angle_beta   37.54622566
_cell_angle_gamma   58.72738058
_symmetry_Int_Tables_number   1
_chemical_formula_structural   V18Cu2O45
_chemical_formula_sum   'V18 Cu2 O45'
_cell_volume   1185.27886129
_cell_formula_units_Z   1
loop_
 _symmetry_equiv_pos_site_id
 _symmetry_equiv_pos_as_xyz
  1  'x, y, z'
loop_
 _atom_site_type_symbol
 _atom_site_label
 _atom_site_symmetry_multiplicity
 _atom_site_fract_x
 _atom_site_fract_y
 _atom_site_fract_z
 _atom_site_occupancy
  V  V0  1  0.28165900  0.10508400  0.11095700  1
  V  V1  1  0.07161700  0.78312400  0.09282300  1
  V  V2  1  0.06151400  0.40493300  0.54111900  1
  V  V3  1  0.57019100  0.21100900  0.07555200  1
  V  V4  1  0.24215800  0.61560100  0.43104600  1
  V  V5  1  0.50674100  0.74021500  0.09087300  1
  V  V6  1  0.17307600  0.24731000  0.89221600  1
  V  V7  1  0.37893100  0.39890700  0.55448200  1
  V  V8  1  0.05170200  0.87893200  0.89069900  1
  V  V9  1  0.94619200  0.17188900  0.11968800  1
  V  V10  1  0.56145400  0.61792800  0.43806600  1
  V  V11  1  0.85061800  0.70820900  0.11553100  1
  V  V12  1  0.49973100  0.26910100  0.90448200  1
  V  V13  1  0.69969000  0.41507800  0.56466000  1
  V  V14  1  0.35848700  0.82077500  0.91439800  1
  V  V15  1  0.90610100  0.61035100  0.43389200  1
  V  V16  1  0.84639600  0.25955200  0.89717900  1
  V  V17  1  0.77613000  0.77505300  0.94757600  1
  Cu  Cu0  1  0.55406200  0.00786400  0.39514700  1
  Cu  Cu1  1  0.76479100  0.99688200  0.59612600  1
  O  O0  1  0.02865900  0.98110000  0.99494200  1
  O  O1  1  0.04885700  0.26864000  0.08776400  1
  O  O2  1  0.01166000  0.70416800  0.03145400  1
  O  O3  1  0.30120900  0.99521900  0.01808200  1
  O  O4  1  0.11810100  0.18796300  0.27376000  1
  O  O5  1  0.03306700  0.62410300  0.23348500  1
  O  O6  1  0.99637400  0.95045500  0.19538900  1
  O  O7  1  0.18836900  0.22123800  0.45968500  1
  O  O8  1  0.46427100  0.28597200  0.05550500  1
  O  O9  1  0.13024800  0.56030100  0.46904200  1
  O  O10  1  0.35740600  0.66934000  0.02182900  1
  O  O11  1  0.67659600  0.99279400  0.01223100  1
  O  O12  1  0.47482800  0.23318600  0.25022900  1
  O  O13  1  0.27717300  0.47157200  0.52827800  1
  O  O14  1  0.40382700  0.61274900  0.23380700  1
  O  O15  1  0.15425400  0.80464900  0.50527400  1
  O  O16  1  0.39038500  0.95772000  0.13520300  1
  O  O17  1  0.27966900  0.03905500  0.84559800  1
  O  O18  1  0.49435800  0.20101200  0.47530900  1
  O  O19  1  0.78090800  0.32217500  0.04345100  1
  O  O20  1  0.26539400  0.39331900  0.75184500  1
  O  O21  1  0.46559000  0.53495200  0.46484800  1
  O  O22  1  0.63766700  0.70411600  0.07014000  1
  O  O23  1  0.21643300  0.79636700  0.73185100  1
  O  O24  1  0.77589700  0.26341700  0.26106100  1
  O  O25  1  0.34369600  0.27923100  0.99241900  1
  O  O26  1  0.60120900  0.48796900  0.53912900  1
  O  O27  1  0.75507400  0.58822900  0.25299600  1
  O  O28  1  0.24552600  0.72954000  0.94993700  1
  O  O29  1  0.49842600  0.82828100  0.46372700  1
  O  O30  1  0.73677300  0.90712900  0.19196100  1
  O  O31  1  0.62769400  0.08289100  0.80217000  1
  O  O32  1  0.79529100  0.20723700  0.51363100  1
  O  O33  1  0.56904100  0.41639100  0.76749100  1
  O  O34  1  0.79661200  0.54081400  0.48229700  1
  O  O35  1  0.52220100  0.77354300  0.74402800  1
  O  O36  1  0.70161400  0.29843400  0.94453800  1
  O  O37  1  0.97910100  0.45936800  0.49202900  1
  O  O38  1  0.59482100  0.67966900  0.92969300  1
  O  O39  1  0.82596500  0.80131100  0.51229000  1
  O  O40  1  0.95573300  0.03386100  0.85685700  1
  O  O41  1  0.94040500  0.38566800  0.74299900  1
  O  O42  1  0.87014200  0.76041600  0.77325300  1
  O  O43  1  0.05119100  0.26962000  0.91415400  1
  O  O44  1  0.89197600  0.69421800  0.95962900  1
loop_
_geom_bond_atom_site_label_1
_geom_bond_atom_site_label_2
_geom_bond_distance
_geom_bond_site_symmetry_2
Cu0 O18 1.838819 1_555
Cu0 O29 1.882853 1_545
Cu0 O30 1.933714 1_545
Cu1 O39 1.878175 1_555
Cu1 O32 1.952204 1_565
Cu1 O31 1.954684 1_565
O0 V8 1.756994 1_555
O0 V9 2.040471 1_466
O0 V1 2.054068 1_556
O1 V6 1.744590 1_554
O1 V9 2.020187 1_455
O2 V11 1.897184 1_455
O2 V8 1.929549 1_554
O2 V1 2.249870 1_555
O3 V0 1.711446 1_565
O3 V14 1.919752 1_554
O4 V0 1.619532 1_555
O5 V15 1.787467 1_455
O5 V1 1.843954 1_555
O6 V1 1.703671 1_655
O6 V9 2.030226 1_565
O7 V2 1.609095 1_555
O8 V3 1.784084 1_555
O8 V12 1.806769 1_554
O9 V2 1.789721 1_555
O9 V4 1.819418 1_555
O10 V14 1.657027 1_554
O11 V3 1.775658 1_565
O11 V17 1.777683 1_554
O12 V3 1.622476 1_555
O13 V4 1.796105 1_555
O13 V7 1.796105 1_555
O14 V4 1.803928 1_555
O14 V5 1.819475 1_555
O15 V4 1.611823 1_555
O16 V5 1.786379 1_555
O16 V0 1.856992 1_565
O17 V6 1.690657 1_555
O17 V14 2.161913 1_545
O18 V7 1.670606 1_555
O19 V16 1.610224 1_554
O20 V7 1.779822 1_555
O20 V6 1.873568 1_555
O21 V7 1.761708 1_555
O21 V10 1.859716 1_555
O22 V17 1.793619 1_554
O22 V5 1.839664 1_555
O23 V8 1.611098 1_555
O24 V9 1.623496 1_555
O25 V12 1.766984 1_555
O25 V0 1.866121 1_556
O26 V13 1.735638 1_555
O26 V10 1.861579 1_555
O27 V11 1.710768 1_555
O27 V10 1.925720 1_555
O28 V1 1.673920 1_556
O28 V14 2.107296 1_555
O29 V10 1.679287 1_555
O30 V11 1.669609 1_555
O31 V12 1.674943 1_555
O32 V13 1.673171 1_555
O33 V12 1.768110 1_555
O33 V13 1.799232 1_555
O34 V15 1.787006 1_555
O34 V13 1.821219 1_555
O35 V14 1.637207 1_555
O36 V16 1.796782 1_555
O36 V3 1.800865 1_556
O37 V15 1.783401 1_555
O37 V2 1.816876 1_655
O38 V5 1.609826 1_556
O39 V15 1.679866 1_555
O40 V8 1.808020 1_645
O40 V16 1.820799 1_555
O41 V16 1.799010 1_555
O41 V2 1.813314 1_655
O42 V17 1.612997 1_555
O43 V6 1.727661 1_555
O43 V9 2.031127 1_456
O44 V11 1.800700 1_556
O44 V17 1.837911 1_555
