# generated using pymatgen
data_Li5Mn(CoO4)2
_symmetry_space_group_name_H-M   'P 1'
_cell_length_a   2.88301000
_cell_length_b   9.82738458
_cell_length_c   5.10293428
_cell_angle_alpha   100.37295428
_cell_angle_beta   90.00000000
_cell_angle_gamma   90.00000000
_symmetry_Int_Tables_number   1
_chemical_formula_structural   Li5Mn(CoO4)2
_chemical_formula_sum   'Li5 Mn1 Co2 O8'
_cell_volume   142.21571023
_cell_formula_units_Z   1
loop_
 _symmetry_equiv_pos_site_id
 _symmetry_equiv_pos_as_xyz
  1  'x, y, z'
loop_
 _atom_site_type_symbol
 _atom_site_label
 _atom_site_symmetry_multiplicity
 _atom_site_fract_x
 _atom_site_fract_y
 _atom_site_fract_z
 _atom_site_occupancy
  Li  Li0  1  0.00000000  0.76325100  0.27179600  1
  Li  Li1  1  0.50000000  0.24485000  0.24662900  1
  Li  Li2  1  0.00000000  0.23674900  0.72820400  1
  Li  Li3  1  0.50000000  0.75515000  0.75337100  1
  Li  Li4  1  0.50000000  0.00000000  0.50000000  1
  Mn  Mn0  1  0.00000000  0.00000000  0.00000000  1
  Co  Co0  1  0.50000000  0.50000000  0.00000000  1
  Co  Co1  1  0.00000000  0.50000000  0.50000000  1
  O  O0  1  0.00000000  0.11647000  0.34340500  1
  O  O1  1  0.50000000  0.61594500  0.38021700  1
  O  O2  1  0.00000000  0.61266100  0.88095800  1
  O  O3  1  0.50000000  0.11066800  0.88686600  1
  O  O4  1  0.00000000  0.38733900  0.11904200  1
  O  O5  1  0.50000000  0.88933200  0.11313400  1
  O  O6  1  0.00000000  0.88353000  0.65659500  1
  O  O7  1  0.50000000  0.38405500  0.61978300  1
loop_
_geom_bond_atom_site_label_1
_geom_bond_atom_site_label_2
_geom_bond_distance
_geom_bond_site_symmetry_2
Li0 O6 2.101691 1_555
Li0 O5 2.151732 1_455
Li0 O5 2.151732 1_555
Li0 O1 2.183598 1_555
Li0 O1 2.183598 1_455
Li0 O2 2.259414 1_554
Li1 O0 2.034187 1_555
Li1 O0 2.034187 1_655
Li1 O3 2.058499 1_554
Li1 O7 2.135255 1_555
Li1 O4 2.188826 1_555
Li1 O4 2.188826 1_655
Li2 O0 2.101691 1_555
Li2 O3 2.151732 1_455
Li2 O3 2.151732 1_555
Li2 O7 2.183598 1_455
Li2 O7 2.183598 1_555
Li2 O4 2.259414 1_556
Li3 O6 2.034187 1_655
Li3 O6 2.034187 1_555
Li3 O5 2.058499 1_556
Li3 O1 2.135255 1_555
Li3 O2 2.188826 1_555
Li3 O2 2.188826 1_655
Li4 O5 2.075314 1_545
Li4 O3 2.075314 1_555
Li4 O0 2.087093 1_555
Li4 O0 2.087093 1_655
Li4 O6 2.087093 1_545
Li4 O6 2.087093 1_645
Mn0 O6 1.912751 1_544
Mn0 O0 1.912751 1_555
Mn0 O3 1.954522 1_554
Mn0 O3 1.954522 1_454
Mn0 O5 1.954522 1_545
Mn0 O5 1.954522 1_445
Co0 O2 1.978624 1_554
Co0 O2 1.978624 1_654
Co0 O4 1.978624 1_555
Co0 O4 1.978624 1_655
Co0 O1 2.065590 1_555
Co0 O7 2.065590 1_554
Co1 O1 2.000170 1_455
Co1 O1 2.000170 1_555
Co1 O7 2.000170 1_455
Co1 O7 2.000170 1_555
Co1 O2 2.056669 1_555
Co1 O4 2.056669 1_555
