# generated using pymatgen
data_MoI2
_symmetry_space_group_name_H-M   'P 1'
_cell_length_a   10.43751738
_cell_length_b   10.43751738
_cell_length_c   12.78316470
_cell_angle_alpha   90.00000000
_cell_angle_beta   90.00000000
_cell_angle_gamma   104.49193756
_symmetry_Int_Tables_number   1
_chemical_formula_structural   MoI2
_chemical_formula_sum   'Mo12 I24'
_cell_volume   1348.31137802
_cell_formula_units_Z   12
loop_
 _symmetry_equiv_pos_site_id
 _symmetry_equiv_pos_as_xyz
  1  'x, y, z'
loop_
 _atom_site_type_symbol
 _atom_site_label
 _atom_site_symmetry_multiplicity
 _atom_site_fract_x
 _atom_site_fract_y
 _atom_site_fract_z
 _atom_site_occupancy
  Mo  Mo0  1  0.63171320  0.63171320  0.43377572  1
  Mo  Mo1  1  0.36828680  0.36828680  0.56622428  1
  Mo  Mo2  1  0.86828680  0.86828680  0.93377572  1
  Mo  Mo3  1  0.13171320  0.13171320  0.06622428  1
  Mo  Mo4  1  0.56635827  0.56635827  0.63163901  1
  Mo  Mo5  1  0.43364173  0.43364173  0.36836099  1
  Mo  Mo6  1  0.93364173  0.93364173  0.13163901  1
  Mo  Mo7  1  0.06635827  0.06635827  0.86836099  1
  Mo  Mo8  1  0.38597924  0.61402076  0.50000000  1
  Mo  Mo9  1  0.11402076  0.88597924  0.00000000  1
  Mo  Mo10  1  0.61402076  0.38597924  0.50000000  1
  Mo  Mo11  1  0.88597924  0.11402076  0.00000000  1
  I  I0  1  0.58865113  0.82753968  0.56905107  1
  I  I1  1  0.17246032  0.41134887  0.43094893  1
  I  I2  1  0.91134887  0.67246032  0.06905107  1
  I  I3  1  0.32753968  0.08865113  0.93094893  1
  I  I4  1  0.41134887  0.17246032  0.43094893  1
  I  I5  1  0.82753968  0.58865113  0.56905107  1
  I  I6  1  0.08865113  0.32753968  0.93094893  1
  I  I7  1  0.67246032  0.91134887  0.06905107  1
  I  I8  1  0.45003688  0.68854222  0.29200434  1
  I  I9  1  0.31145878  0.54996312  0.70799566  1
  I  I10  1  0.04996312  0.81145778  0.79200434  1
  I  I11  1  0.18854222  0.95003688  0.20799566  1
  I  I12  1  0.54996312  0.31145878  0.70799566  1
  I  I13  1  0.68854222  0.45003688  0.29200434  1
  I  I14  1  0.95003688  0.18854222  0.20799566  1
  I  I15  1  0.81145778  0.04996312  0.79200434  1
  I  I16  1  0.65625863  0.65625863  0.84405007  1
  I  I17  1  0.34374237  0.34374237  0.15594993  1
  I  I18  1  0.84374137  0.84374137  0.34405007  1
  I  I19  1  0.15625863  0.15625863  0.65594993  1
  I  I20  1  0.21364378  0.78635622  0.50000000  1
  I  I21  1  0.28635622  0.71364378  0.00000000  1
  I  I22  1  0.78635622  0.21364378  0.50000000  1
  I  I23  1  0.71364378  0.28635622  0.00000000  1
loop_
_geom_bond_atom_site_label_1
_geom_bond_atom_site_label_2
_geom_bond_distance
_geom_bond_site_symmetry_2
Mo0 Mo10 2.663114 1_555
Mo0 Mo8 2.663114 1_555
Mo0 Mo4 2.663683 1_555
Mo0 Mo5 2.666123 1_555
Mo1 Mo8 2.663114 1_555
Mo1 Mo10 2.663114 1_555
Mo1 Mo5 2.663683 1_555
Mo1 Mo4 2.666123 1_555
Mo2 Mo9 2.663114 1_656
Mo2 Mo6 2.663683 1_556
Mo2 Mo7 2.666123 1_665
Mo3 Mo9 2.663114 1_545
Mo3 Mo7 2.663683 1_554
Mo3 Mo6 2.666123 1_445
Mo4 Mo8 2.663180 1_555
Mo5 Mo8 2.663180 1_555
Mo6 Mo9 2.663180 1_655
Mo7 Mo9 2.663180 1_546
Mo10 Mo4 2.663180 1_555
Mo10 Mo5 2.663180 1_555
Mo11 Mo2 2.663114 1_544
Mo11 Mo3 2.663114 1_655
Mo11 Mo6 2.663180 1_545
Mo11 Mo7 2.663180 1_654
I0 Mo4 2.794340 1_555
I0 Mo0 2.798177 1_555
I0 Mo8 2.803788 1_555
I1 Mo5 2.794340 1_555
I1 Mo1 2.798177 1_555
I1 Mo8 2.803788 1_555
I2 Mo6 2.794340 1_555
I2 Mo2 2.798177 1_554
I2 Mo9 2.803788 1_655
I3 Mo7 2.794340 1_555
I3 Mo3 2.798177 1_556
I3 Mo9 2.803788 1_546
I4 Mo5 2.794340 1_555
I4 Mo1 2.798177 1_555
I4 Mo10 2.803788 1_555
I5 Mo4 2.794340 1_555
I5 Mo0 2.798177 1_555
I5 Mo10 2.803788 1_555
I6 Mo7 2.794340 1_555
I6 Mo3 2.798177 1_556
I6 Mo11 2.803788 1_456
I7 Mo6 2.794340 1_555
I7 Mo2 2.798177 1_554
I7 Mo11 2.803788 1_565
I8 Mo0 2.791937 1_555
I8 Mo5 2.798672 1_555
I8 Mo8 2.803783 1_555
I9 Mo1 2.791933 1_555
I9 Mo4 2.798662 1_555
I9 Mo8 2.803780 1_555
I10 Mo2 2.791937 1_455
I10 Mo7 2.798672 1_565
I10 Mo9 2.803783 1_556
I11 Mo3 2.791937 1_565
I11 Mo6 2.798672 1_455
I11 Mo9 2.803783 1_555
I12 Mo1 2.791933 1_555
I12 Mo4 2.798662 1_555
I12 Mo10 2.803780 1_555
I13 Mo0 2.791937 1_555
I13 Mo5 2.798672 1_555
I13 Mo10 2.803783 1_555
I14 Mo3 2.791937 1_655
I14 Mo6 2.798672 1_545
I14 Mo11 2.803783 1_555
I15 Mo2 2.791937 1_545
I15 Mo7 2.798672 1_655
I15 Mo11 2.803783 1_556
I16 Mo2 2.942710 1_555
I16 Mo4 2.948400 1_555
I17 Mo3 2.942721 1_555
I17 Mo5 2.948395 1_555
I18 Mo0 2.942710 1_555
I18 Mo6 2.948400 1_555
I19 Mo1 2.942710 1_555
I19 Mo7 2.948400 1_555
I20 Mo8 2.844358 1_555
I21 Mo9 2.844358 1_555
I22 Mo10 2.844358 1_555
I23 Mo11 2.844358 1_555
