# generated using pymatgen
data_Ba2YTlCo2O7
_symmetry_space_group_name_H-M   'P 1'
_cell_length_a   3.93417924
_cell_length_b   13.16039363
_cell_length_c   7.98849685
_cell_angle_alpha   72.38791171
_cell_angle_beta   90.05106887
_cell_angle_gamma   90.01925331
_symmetry_Int_Tables_number   1
_chemical_formula_structural   Ba2YTlCo2O7
_chemical_formula_sum   'Ba4 Y2 Tl2 Co4 O14'
_cell_volume   394.21997033
_cell_formula_units_Z   2
loop_
 _symmetry_equiv_pos_site_id
 _symmetry_equiv_pos_as_xyz
  1  'x, y, z'
loop_
 _atom_site_type_symbol
 _atom_site_label
 _atom_site_symmetry_multiplicity
 _atom_site_fract_x
 _atom_site_fract_y
 _atom_site_fract_z
 _atom_site_occupancy
  Ba  Ba0  1  0.49205800  0.20860100  0.14235800  1
  Ba  Ba1  1  0.50758800  0.20863600  0.64200600  1
  Ba  Ba2  1  0.50764200  0.79142000  0.85067700  1
  Ba  Ba3  1  0.49195200  0.79137200  0.35032500  1
  Y  Y0  1  0.50107200  0.50002000  0.99770700  1
  Y  Y1  1  0.50098600  0.49992700  0.49814500  1
  Tl  Tl0  1  0.00005200  0.99987200  0.46413300  1
  Tl  Tl1  1  0.99999100  0.00016500  0.96368100  1
  Co  Co0  1  0.00061100  0.36701400  0.31465100  1
  Co  Co1  1  0.00051100  0.63246600  0.18093900  1
  Co  Co2  1  0.00093900  0.36691700  0.81472700  1
  Co  Co3  1  0.00110300  0.63334500  0.68049400  1
  O  O0  1  0.49808700  0.00001000  0.30317600  1
  O  O1  1  0.49694900  0.00014300  0.80222900  1
  O  O2  1  0.99890100  0.17086600  0.41866800  1
  O  O3  1  0.99764100  0.17091000  0.91889100  1
  O  O4  1  0.99747300  0.82961200  0.08920700  1
  O  O5  1  0.99889400  0.82887400  0.58931300  1
  O  O6  1  0.99719900  0.38505000  0.05572700  1
  O  O7  1  0.00487400  0.38484400  0.55592400  1
  O  O8  1  0.50075800  0.38649500  0.80416300  1
  O  O9  1  0.50092000  0.38646300  0.30417200  1
  O  O10  1  0.50107000  0.61337300  0.68994100  1
  O  O11  1  0.50062400  0.61334400  0.18992700  1
  O  O12  1  0.00487500  0.61524000  0.93942400  1
  O  O13  1  0.99722400  0.61502600  0.43939000  1
loop_
_geom_bond_atom_site_label_1
_geom_bond_atom_site_label_2
_geom_bond_distance
_geom_bond_site_symmetry_2
Ba0 O0 2.655683 1_555
Ba0 O3 2.783053 1_454
Ba0 O3 2.816387 1_554
Ba0 O2 2.868223 1_455
Ba0 O2 2.902476 1_555
Ba0 O6 2.947828 1_455
Ba0 O6 2.974483 1_555
Ba0 O8 2.992285 1_554
Ba0 O9 2.997010 1_555
Ba1 O1 2.653958 1_555
Ba1 O2 2.776657 1_555
Ba1 O2 2.822217 1_455
Ba1 O3 2.860853 1_555
Ba1 O3 2.916607 1_455
Ba1 O7 2.951675 1_655
Ba1 O7 2.966093 1_555
Ba1 O9 2.989802 1_555
Ba1 O8 2.998762 1_555
Ba2 O1 2.655862 1_565
Ba2 O5 2.778724 1_555
Ba2 O5 2.824671 1_455
Ba2 O4 2.858245 1_556
Ba2 O4 2.915312 1_456
Ba2 O12 2.951458 1_655
Ba2 O12 2.965737 1_555
Ba2 O10 2.993404 1_555
Ba2 O11 2.999050 1_556
Ba3 O0 2.656271 1_565
Ba3 O4 2.783351 1_455
Ba3 O4 2.816247 1_555
Ba3 O5 2.868560 1_455
Ba3 O5 2.903245 1_555
Ba3 O13 2.946309 1_455
Ba3 O13 2.974068 1_555
Ba3 O11 2.991500 1_555
Ba3 O10 3.000540 1_555
Co0 O9 1.980975 1_455
Co0 O9 1.983365 1_555
Co0 O6 2.009405 1_455
Co0 O7 2.010938 1_555
Co0 O2 2.460902 1_455
Co1 O11 1.981202 1_455
Co1 O11 1.982126 1_555
Co1 O13 2.007200 1_455
Co1 O12 2.009674 1_554
Co1 O4 2.473487 1_455
Co2 O8 1.981652 1_555
Co2 O8 1.983088 1_455
Co2 O7 2.008762 1_555
Co2 O6 2.010408 1_456
Co2 O3 2.459194 1_455
Co3 O10 1.982874 1_555
Co3 O10 1.983090 1_455
Co3 O12 2.009286 1_555
Co3 O13 2.012212 1_455
Co3 O5 2.453152 1_455
O0 Tl0 2.344240 1_545
O0 Tl0 2.355265 1_645
O1 Tl1 2.343224 1_455
O1 Tl1 2.361318 1_555
O2 Tl0 2.168273 1_645
O3 Tl1 2.165850 1_555
O4 Tl1 2.163699 1_564
O5 Tl0 2.168528 1_655
O6 Y0 2.426905 1_554
O6 Y0 2.451328 1_654
O7 Y1 2.427541 1_555
O7 Y1 2.452362 1_455
O8 Y1 2.448732 1_555
O8 Y0 2.453670 1_555
O9 Y0 2.452144 1_554
O9 Y1 2.455820 1_555
O10 Y1 2.441478 1_555
O10 Y0 2.459793 1_555
O11 Y0 2.442948 1_554
O11 Y1 2.462996 1_555
O12 Y0 2.428993 1_555
O12 Y0 2.452955 1_455
O13 Y1 2.428087 1_555
O13 Y1 2.452096 1_655
