# generated using pymatgen
data_CsBaLiP2O7
_symmetry_space_group_name_H-M   'P 1'
_cell_length_a   10.98438700
_cell_length_b   7.18070800
_cell_length_c   10.88136559
_cell_angle_alpha   74.43818744
_cell_angle_beta   90.00000000
_cell_angle_gamma   90.00000000
_symmetry_Int_Tables_number   1
_chemical_formula_structural   CsBaLiP2O7
_chemical_formula_sum   'Cs4 Ba4 Li4 P8 O28'
_cell_volume   826.81206102
_cell_formula_units_Z   4
loop_
 _symmetry_equiv_pos_site_id
 _symmetry_equiv_pos_as_xyz
  1  'x, y, z'
loop_
 _atom_site_type_symbol
 _atom_site_label
 _atom_site_symmetry_multiplicity
 _atom_site_fract_x
 _atom_site_fract_y
 _atom_site_fract_z
 _atom_site_occupancy
  Cs  Cs0  1  0.32770100  0.24878200  0.49578600  1
  Cs  Cs1  1  0.82770100  0.75121800  0.00421400  1
  Cs  Cs2  1  0.67229900  0.75121800  0.50421400  1
  Cs  Cs3  1  0.17229900  0.24878200  0.99578600  1
  Ba  Ba0  1  0.94255500  0.19402000  0.62255900  1
  Ba  Ba1  1  0.44255500  0.80598000  0.87744100  1
  Ba  Ba2  1  0.05744500  0.80598000  0.37744100  1
  Ba  Ba3  1  0.55744500  0.19402000  0.12255900  1
  Li  Li0  1  0.75895600  0.33439400  0.85933800  1
  Li  Li1  1  0.25895600  0.66560600  0.64066200  1
  Li  Li2  1  0.24104400  0.66560600  0.14066200  1
  Li  Li3  1  0.74104400  0.33439400  0.35933800  1
  P  P0  1  0.98499800  0.62268700  0.69700800  1
  P  P1  1  0.48499800  0.37731300  0.80299200  1
  P  P2  1  0.01500200  0.37731300  0.30299200  1
  P  P3  1  0.51500200  0.62268700  0.19700800  1
  P  P4  1  0.63583100  0.16119500  0.66367800  1
  P  P5  1  0.13583100  0.83880500  0.83632200  1
  P  P6  1  0.36416900  0.83880500  0.33632200  1
  P  P7  1  0.86416900  0.16119500  0.16367800  1
  O  O0  1  0.54578300  0.34377900  0.67281500  1
  O  O1  1  0.04578300  0.65622100  0.82718500  1
  O  O2  1  0.45421700  0.65622100  0.32718500  1
  O  O3  1  0.95421700  0.34377900  0.17281500  1
  O  O4  1  0.08599600  0.53521400  0.63030900  1
  O  O5  1  0.58599600  0.46478600  0.86969100  1
  O  O6  1  0.91400400  0.46478600  0.36969100  1
  O  O7  1  0.41400400  0.53521400  0.13030900  1
  O  O8  1  0.94196700  0.81815800  0.61134500  1
  O  O9  1  0.44196700  0.18184200  0.88865500  1
  O  O10  1  0.05803300  0.18184200  0.38865500  1
  O  O11  1  0.55803300  0.81815800  0.11134500  1
  O  O12  1  0.72132300  0.12015600  0.77969700  1
  O  O13  1  0.22132300  0.87984400  0.72030300  1
  O  O14  1  0.27867700  0.87984400  0.22030300  1
  O  O15  1  0.77867700  0.12015600  0.27969700  1
  O  O16  1  0.88143400  0.47981900  0.74442900  1
  O  O17  1  0.38143400  0.52018100  0.75557100  1
  O  O18  1  0.11856600  0.52018100  0.25557100  1
  O  O19  1  0.61856600  0.47981900  0.24442900  1
  O  O20  1  0.70598500  0.24208900  0.53913200  1
  O  O21  1  0.20598500  0.75791100  0.96086800  1
  O  O22  1  0.29401500  0.75791100  0.46086800  1
  O  O23  1  0.79401500  0.24208900  0.03913200  1
  O  O24  1  0.55057900  0.99496200  0.66124100  1
  O  O25  1  0.05057900  0.00503800  0.83875900  1
  O  O26  1  0.44942100  0.00503800  0.33875900  1
  O  O27  1  0.94942100  0.99496200  0.16124100  1
loop_
_geom_bond_atom_site_label_1
_geom_bond_atom_site_label_2
_geom_bond_distance
_geom_bond_site_symmetry_2
Cs0 O26 3.061892 1_555
Cs0 O0 3.258754 1_555
Cs0 O10 3.265715 1_555
Cs0 O24 3.285755 1_545
Cs0 O13 3.298429 1_545
Cs0 O2 3.313127 1_555
Cs1 O27 3.061892 1_555
Cs1 O1 3.258754 1_654
Cs1 O11 3.265715 1_555
Cs1 O25 3.285755 1_664
Cs1 O12 3.298429 1_564
Cs1 O3 3.313127 1_555
Cs2 O24 3.061892 1_555
Cs2 O2 3.258754 1_555
Cs2 O8 3.265715 1_555
Cs2 O26 3.285755 1_565
Cs2 O15 3.298429 1_565
Cs2 O0 3.313127 1_555
Cs3 O25 3.061892 1_555
Cs3 O3 3.258754 1_456
Cs3 O9 3.265715 1_555
Cs3 O27 3.285755 1_446
Cs3 O14 3.298429 1_546
Cs3 O1 3.313127 1_555
Ba0 O25 2.659143 1_655
Ba0 O8 2.734227 1_545
Ba0 O20 2.743668 1_555
Ba0 O16 2.807355 1_555
Ba0 O10 2.866019 1_655
Ba0 O6 2.929023 1_555
Ba0 O4 2.933103 1_655
Ba0 O12 2.936624 1_555
Ba1 O24 2.659143 1_555
Ba1 O9 2.734227 1_565
Ba1 O21 2.743668 1_555
Ba1 O17 2.807355 1_555
Ba1 O11 2.866019 1_556
Ba1 O7 2.929023 1_556
Ba1 O5 2.933103 1_555
Ba1 O13 2.936624 1_555
Ba2 O27 2.659143 1_455
Ba2 O10 2.734227 1_565
Ba2 O22 2.743668 1_555
Ba2 O18 2.807355 1_555
Ba2 O8 2.866019 1_455
Ba2 O4 2.929023 1_555
Ba2 O6 2.933103 1_455
Ba2 O14 2.936624 1_555
Ba3 O26 2.659143 1_555
Ba3 O11 2.734227 1_545
Ba3 O23 2.743668 1_555
Ba3 O19 2.807355 1_555
Ba3 O9 2.866019 1_554
Ba3 O5 2.929023 1_554
Ba3 O7 2.933103 1_555
Ba3 O15 2.936624 1_555
Li0 O23 1.928568 1_556
Li0 O16 1.939912 1_555
Li0 O12 2.000953 1_555
Li0 O5 2.134344 1_555
Li1 O22 1.928568 1_555
Li1 O17 1.939912 1_555
Li1 O13 2.000953 1_555
Li1 O4 2.134344 1_555
Li2 O21 1.928568 1_554
Li2 O18 1.939912 1_555
Li2 O14 2.000953 1_555
Li2 O7 2.134344 1_555
Li3 O20 1.928568 1_555
Li3 O19 1.939912 1_555
Li3 O15 2.000953 1_555
Li3 O6 2.134344 1_555
O0 P1 1.641123 1_555
O0 P4 1.666471 1_555
O1 P0 1.641123 1_455
O1 P5 1.666471 1_555
O2 P3 1.641123 1_555
O2 P6 1.666471 1_555
O3 P2 1.641123 1_655
O3 P7 1.666471 1_555
O4 P0 1.548114 1_455
O5 P1 1.548114 1_555
O6 P2 1.548114 1_655
O7 P3 1.548114 1_555
O8 P0 1.536368 1_555
O9 P1 1.536368 1_555
O10 P2 1.536368 1_555
O11 P3 1.536368 1_555
O12 P4 1.537160 1_555
O13 P5 1.537160 1_555
O14 P6 1.537160 1_555
O15 P7 1.537160 1_555
O16 P0 1.526037 1_555
O17 P1 1.526037 1_555
O18 P2 1.526037 1_555
O19 P3 1.526037 1_555
O20 P4 1.531503 1_555
O21 P5 1.531503 1_555
O22 P6 1.531503 1_555
O23 P7 1.531503 1_555
O24 P4 1.522977 1_565
O25 P5 1.522977 1_545
O26 P6 1.522977 1_545
O27 P7 1.522977 1_565
