# generated using pymatgen
data_K2GdCl5
_symmetry_space_group_name_H-M   'P 1'
_cell_length_a   7.95393560
_cell_length_b   8.61420369
_cell_length_c   12.69467006
_cell_angle_alpha   90.00000000
_cell_angle_beta   90.00000000
_cell_angle_gamma   90.00000000
_symmetry_Int_Tables_number   1
_chemical_formula_structural   K2GdCl5
_chemical_formula_sum   'K8 Gd4 Cl20'
_cell_volume   869.79844118
_cell_formula_units_Z   4
loop_
 _symmetry_equiv_pos_site_id
 _symmetry_equiv_pos_as_xyz
  1  'x, y, z'
loop_
 _atom_site_type_symbol
 _atom_site_label
 _atom_site_symmetry_multiplicity
 _atom_site_fract_x
 _atom_site_fract_y
 _atom_site_fract_z
 _atom_site_occupancy
  K  K0  1  0.94744296  0.00411752  0.82807960  1
  K  K1  1  0.05255704  0.99588248  0.17192040  1
  K  K2  1  0.44744296  0.99588248  0.67192040  1
  K  K3  1  0.05255704  0.50411752  0.17192040  1
  K  K4  1  0.55255704  0.00411752  0.32807960  1
  K  K5  1  0.94744296  0.49588248  0.82807960  1
  K  K6  1  0.55255704  0.49588248  0.32807960  1
  K  K7  1  0.44744296  0.50411752  0.67192040  1
  Gd  Gd0  1  0.92480185  0.75000000  0.50504882  1
  Gd  Gd1  1  0.07519815  0.25000000  0.49495118  1
  Gd  Gd2  1  0.42480185  0.25000000  0.99495118  1
  Gd  Gd3  1  0.57519815  0.75000000  0.00504882  1
  Cl  Cl0  1  0.12464100  0.75000000  0.67760734  1
  Cl  Cl1  1  0.87535900  0.25000000  0.32239266  1
  Cl  Cl2  1  0.62464100  0.25000000  0.82239266  1
  Cl  Cl3  1  0.37535900  0.75000000  0.17760734  1
  Cl  Cl4  1  0.83620194  0.04314786  0.57582894  1
  Cl  Cl5  1  0.16379806  0.95685214  0.42417106  1
  Cl  Cl6  1  0.33620194  0.95685214  0.92417106  1
  Cl  Cl7  1  0.16379806  0.54314786  0.42417106  1
  Cl  Cl8  1  0.66379806  0.04314786  0.07582894  1
  Cl  Cl9  1  0.83620194  0.45685214  0.57582894  1
  Cl  Cl10  1  0.66379806  0.45685214  0.07582894  1
  Cl  Cl11  1  0.33620194  0.54314786  0.92417106  1
  Cl  Cl12  1  0.58067426  0.75000000  0.50961597  1
  Cl  Cl13  1  0.41932574  0.25000000  0.49038403  1
  Cl  Cl14  1  0.08067426  0.25000000  0.99038403  1
  Cl  Cl15  1  0.91932574  0.75000000  0.00961597  1
  Cl  Cl16  1  0.66136921  0.75000000  0.79782940  1
  Cl  Cl17  1  0.33863079  0.25000000  0.20217060  1
  Cl  Cl18  1  0.16136921  0.25000000  0.70217060  1
  Cl  Cl19  1  0.83863079  0.75000000  0.29782940  1
loop_
_geom_bond_atom_site_label_1
_geom_bond_atom_site_label_2
_geom_bond_distance
_geom_bond_site_symmetry_2
Cl0 Gd0 2.706501 1_455
Cl0 K5 3.229106 1_455
Cl0 K0 3.229106 1_465
Cl0 K2 3.329230 1_555
Cl0 K7 3.329230 1_555
Cl1 Gd1 2.706501 1_655
Cl1 K1 3.229106 1_645
Cl1 K3 3.229106 1_655
Cl1 K4 3.329230 1_555
Cl1 K6 3.329230 1_555
Cl2 Gd2 2.706501 1_555
Cl2 K7 3.229106 1_555
Cl2 K2 3.229106 1_545
Cl2 K0 3.329230 1_555
Cl2 K5 3.329230 1_555
Cl3 Gd3 2.706501 1_555
Cl3 K6 3.229106 1_555
Cl3 K4 3.229106 1_565
Cl3 K3 3.329230 1_555
Cl3 K1 3.329230 1_555
Cl4 Gd0 2.771425 1_545
Cl4 Gd1 2.800508 1_655
Cl4 K0 3.339199 1_555
Cl4 K2 3.348923 1_545
Cl5 Gd1 2.771425 1_565
Cl5 Gd0 2.800508 1_455
Cl5 K1 3.339199 1_555
Cl5 K4 3.348923 1_565
Cl6 Gd2 2.771425 1_565
Cl6 Gd3 2.800508 1_556
Cl6 K2 3.339199 1_555
Cl6 K0 3.348923 1_465
Cl7 Gd1 2.771425 1_555
Cl7 Gd0 2.800508 1_455
Cl7 K3 3.339199 1_555
Cl7 K6 3.348923 1_555
Cl8 Gd3 2.771425 1_545
Cl8 Gd2 2.800508 1_554
Cl8 K4 3.339199 1_555
Cl8 K1 3.348923 1_645
Cl9 Gd0 2.771425 1_555
Cl9 Gd1 2.800508 1_655
Cl9 K5 3.339199 1_555
Cl9 K7 3.348923 1_555
Cl10 Gd3 2.771425 1_555
Cl10 Gd2 2.800508 1_554
Cl10 K6 3.339199 1_555
Cl10 K3 3.348923 1_655
Cl11 Gd2 2.771425 1_555
Cl11 Gd3 2.800508 1_556
Cl11 K7 3.339199 1_555
Cl11 K5 3.348923 1_455
Cl12 Gd0 2.737783 1_555
Cl12 K2 3.139190 1_555
Cl12 K7 3.139190 1_555
Cl12 K6 3.186338 1_555
Cl12 K4 3.186338 1_565
Cl13 Gd1 2.737783 1_555
Cl13 K4 3.139190 1_555
Cl13 K6 3.139190 1_555
Cl13 K7 3.186338 1_555
Cl13 K2 3.186338 1_545
Cl14 Gd2 2.737783 1_555
Cl14 K0 3.139190 1_455
Cl14 K5 3.139190 1_455
Cl14 K3 3.186338 1_556
Cl14 K1 3.186338 1_546
Cl15 Gd3 2.737783 1_555
Cl15 K3 3.139190 1_655
Cl15 K1 3.139190 1_655
Cl15 K5 3.186338 1_554
Cl15 K0 3.186338 1_564
Cl16 Gd3 2.718407 1_556
Cl16 K7 3.152199 1_555
Cl16 K2 3.152199 1_555
Cl16 K5 3.180688 1_555
Cl16 K0 3.180688 1_565
Cl17 Gd2 2.718407 1_554
Cl17 K4 3.152199 1_555
Cl17 K6 3.152199 1_555
Cl17 K3 3.180688 1_555
Cl17 K1 3.180688 1_545
Cl18 Gd1 2.718407 1_555
Cl18 K5 3.152199 1_455
Cl18 K0 3.152199 1_455
Cl18 K2 3.180688 1_545
Cl18 K7 3.180688 1_555
Cl19 Gd0 2.718407 1_555
Cl19 K3 3.152199 1_655
Cl19 K1 3.152199 1_655
Cl19 K6 3.180688 1_555
Cl19 K4 3.180688 1_565
