# generated using pymatgen
data_Nd(Al5Fe)2
_symmetry_space_group_name_H-M   'P 1'
_cell_length_a   6.84781702
_cell_length_b   6.84781702
_cell_length_c   9.09225900
_cell_angle_alpha   90.00000000
_cell_angle_beta   90.00000000
_cell_angle_gamma   97.33794311
_symmetry_Int_Tables_number   1
_chemical_formula_structural   Nd(Al5Fe)2
_chemical_formula_sum   'Nd2 Al20 Fe4'
_cell_volume   422.86779394
_cell_formula_units_Z   2
loop_
 _symmetry_equiv_pos_site_id
 _symmetry_equiv_pos_as_xyz
  1  'x, y, z'
loop_
 _atom_site_type_symbol
 _atom_site_label
 _atom_site_symmetry_multiplicity
 _atom_site_fract_x
 _atom_site_fract_y
 _atom_site_fract_z
 _atom_site_occupancy
  Nd  Nd0  1  0.87671400  0.12328600  0.75000000  1
  Nd  Nd1  1  0.12328600  0.87671400  0.25000000  1
  Al  Al0  1  0.62466400  0.37533600  0.54813200  1
  Al  Al1  1  0.37533600  0.62466400  0.45186800  1
  Al  Al2  1  0.37533600  0.62466400  0.04813200  1
  Al  Al3  1  0.62466400  0.37533600  0.95186800  1
  Al  Al4  1  0.22946700  0.22946700  0.50000000  1
  Al  Al5  1  0.77053300  0.77053300  0.50000000  1
  Al  Al6  1  0.77053300  0.77053300  0.00000000  1
  Al  Al7  1  0.22946700  0.22946700  0.00000000  1
  Al  Al8  1  0.83998400  0.16001600  0.09856100  1
  Al  Al9  1  0.16001600  0.83998400  0.90143900  1
  Al  Al10  1  0.16001600  0.83998400  0.59856100  1
  Al  Al11  1  0.83998400  0.16001600  0.40143900  1
  Al  Al12  1  0.86547300  0.58639000  0.75000000  1
  Al  Al13  1  0.13452700  0.41361000  0.25000000  1
  Al  Al14  1  0.41361000  0.13452700  0.75000000  1
  Al  Al15  1  0.58639000  0.86547300  0.25000000  1
  Al  Al16  1  0.22138600  0.48034900  0.75000000  1
  Al  Al17  1  0.77861400  0.51965100  0.25000000  1
  Al  Al18  1  0.51965100  0.77861400  0.75000000  1
  Al  Al19  1  0.48034900  0.22138600  0.25000000  1
  Fe  Fe0  1  0.00000000  0.50000000  0.50000000  1
  Fe  Fe1  1  0.00000000  0.50000000  0.00000000  1
  Fe  Fe2  1  0.50000000  0.00000000  0.00000000  1
  Fe  Fe3  1  0.50000000  0.00000000  0.50000000  1
loop_
_geom_bond_atom_site_label_1
_geom_bond_atom_site_label_2
_geom_bond_distance
_geom_bond_site_symmetry_2
Al0 Al11 2.585040 1_555
Al0 Fe0 2.639299 1_655
Al0 Fe3 2.639299 1_555
Al0 Al1 2.709393 1_555
Al0 Al12 2.751012 1_555
Al0 Al14 2.751012 1_555
Al0 Al5 2.796871 1_555
Al0 Al4 2.796871 1_555
Al0 Al17 3.028157 1_555
Al0 Al19 3.028157 1_555
Al0 Nd0 3.176146 1_555
Al1 Al10 2.585040 1_555
Al1 Fe0 2.639299 1_555
Al1 Fe3 2.639299 1_565
Al1 Al15 2.751012 1_555
Al1 Al13 2.751012 1_555
Al1 Al5 2.796871 1_555
Al1 Al4 2.796871 1_555
Al1 Al18 3.028157 1_555
Al1 Al16 3.028157 1_555
Al1 Nd1 3.176146 1_555
Al2 Al9 2.585040 1_554
Al2 Fe1 2.639299 1_555
Al2 Fe2 2.639299 1_565
Al2 Al3 2.709393 1_554
Al2 Al6 2.796871 1_555
Al2 Al7 2.796871 1_555
Al2 Nd1 3.176146 1_555
Al3 Al8 2.585040 1_556
Al3 Fe1 2.639299 1_656
Al3 Fe2 2.639299 1_556
Al3 Al6 2.796871 1_556
Al3 Al7 2.796871 1_556
Al3 Nd0 3.176146 1_555
Al4 Fe0 2.577734 1_555
Al4 Fe3 2.577734 1_555
Al4 Nd0 3.328951 1_455
Al4 Nd1 3.328951 1_545
Al5 Fe3 2.577734 1_565
Al5 Fe0 2.577734 1_655
Al5 Nd0 3.328951 1_565
Al5 Nd1 3.328951 1_655
Al6 Fe2 2.577734 1_565
Al6 Fe1 2.577734 1_655
Al6 Al8 2.796195 1_565
Al6 Al9 2.796195 1_654
Al6 Nd0 3.328951 1_564
Al6 Nd1 3.328951 1_655
Al7 Fe1 2.577734 1_555
Al7 Fe2 2.577734 1_555
Al7 Al9 2.796195 1_544
Al7 Al8 2.796195 1_455
Al7 Nd0 3.328951 1_454
Al7 Nd1 3.328951 1_545
Al8 Fe2 2.602379 1_555
Al8 Fe1 2.602379 1_655
Al8 Nd0 3.191639 1_554
Al8 Nd1 3.222499 1_645
Al9 Fe1 2.602379 1_556
Al9 Fe2 2.602379 1_566
Al9 Nd1 3.191639 1_556
Al9 Nd0 3.222499 1_465
Al10 Fe0 2.602379 1_555
Al10 Fe3 2.602379 1_565
Al10 Al9 2.753845 1_555
Al10 Al4 2.796195 1_565
Al10 Al5 2.796195 1_455
Al10 Al14 2.843423 1_565
Al10 Al12 2.843423 1_455
Al10 Al18 2.898597 1_555
Al10 Al16 2.898597 1_555
Al10 Nd1 3.191639 1_555
Al10 Nd0 3.222499 1_465
Al11 Fe3 2.602379 1_555
Al11 Fe0 2.602379 1_655
Al11 Al8 2.753845 1_555
Al11 Al4 2.796195 1_655
Al11 Al5 2.796195 1_545
Al11 Al13 2.843423 1_655
Al11 Al15 2.843423 1_545
Al11 Al17 2.898597 1_555
Al11 Al19 2.898597 1_555
Al11 Nd0 3.191639 1_555
Al11 Nd1 3.222499 1_645
Al12 Fe0 2.550420 1_655
Al12 Fe1 2.550420 1_656
Al12 Al16 2.630485 1_655
Al12 Al6 2.718266 1_556
Al12 Al5 2.718266 1_555
Al12 Al3 2.751012 1_555
Al12 Al9 2.843423 1_655
Al12 Al18 2.852538 1_555
Al12 Nd0 3.181999 1_555
Al12 Nd0 3.667529 1_565
Al13 Fe0 2.550420 1_555
Al13 Fe1 2.550420 1_555
Al13 Al17 2.630485 1_455
Al13 Al7 2.718266 1_555
Al13 Al4 2.718266 1_555
Al13 Al2 2.751012 1_555
Al13 Al8 2.843423 1_455
Al13 Al19 2.852538 1_555
Al13 Nd1 3.181999 1_555
Al13 Nd1 3.667529 1_545
Al14 Fe2 2.550420 1_556
Al14 Fe3 2.550420 1_555
Al14 Al18 2.630485 1_545
Al14 Al7 2.718266 1_556
Al14 Al4 2.718266 1_555
Al14 Al3 2.751012 1_555
Al14 Al9 2.843423 1_545
Al14 Al16 2.852538 1_555
Al14 Nd0 3.181999 1_555
Al14 Nd0 3.667529 1_455
Al15 Fe2 2.550420 1_565
Al15 Fe3 2.550420 1_565
Al15 Al19 2.630485 1_565
Al15 Al5 2.718266 1_555
Al15 Al6 2.718266 1_555
Al15 Al2 2.751012 1_555
Al15 Al8 2.843423 1_565
Al15 Al17 2.852538 1_555
Al15 Nd1 3.181999 1_555
Al15 Nd1 3.667529 1_655
Al16 Al18 2.697721 1_555
Al16 Fe0 2.745056 1_555
Al16 Fe1 2.745056 1_556
Al16 Al4 2.854063 1_555
Al16 Al7 2.854063 1_556
Al16 Al9 2.898597 1_555
Al16 Al2 3.028157 1_556
Al16 Nd0 3.174135 1_455
Al17 Al19 2.697721 1_555
Al17 Fe0 2.745056 1_655
Al17 Fe1 2.745056 1_655
Al17 Al5 2.854063 1_555
Al17 Al6 2.854063 1_555
Al17 Al8 2.898597 1_555
Al17 Al3 3.028157 1_554
Al17 Nd1 3.174135 1_655
Al18 Fe3 2.745056 1_565
Al18 Fe2 2.745056 1_566
Al18 Al5 2.854063 1_555
Al18 Al6 2.854063 1_556
Al18 Al9 2.898597 1_555
Al18 Al2 3.028157 1_556
Al18 Nd0 3.174135 1_565
Al19 Fe3 2.745056 1_555
Al19 Fe2 2.745056 1_555
Al19 Al7 2.854063 1_555
Al19 Al4 2.854063 1_555
Al19 Al8 2.898597 1_555
Al19 Al3 3.028157 1_554
Al19 Nd1 3.174135 1_545
Fe0 Nd1 3.460915 1_555
Fe0 Nd0 3.460915 1_455
Fe1 Nd1 3.460915 1_555
Fe1 Nd0 3.460915 1_454
Fe2 Nd0 3.460915 1_554
Fe2 Nd1 3.460915 1_545
Fe3 Nd0 3.460915 1_555
Fe3 Nd1 3.460915 1_545
