# generated using pymatgen
data_Ca3Fe6(SnO8)2
_symmetry_space_group_name_H-M   'P 1'
_cell_length_a   3.10792500
_cell_length_b   9.35753411
_cell_length_c   10.95788761
_cell_angle_alpha   89.52356150
_cell_angle_beta   90.00000000
_cell_angle_gamma   90.00000000
_symmetry_Int_Tables_number   1
_chemical_formula_structural   Ca3Fe6(SnO8)2
_chemical_formula_sum   'Ca3 Fe6 Sn2 O16'
_cell_volume   318.67190443
_cell_formula_units_Z   1
loop_
 _symmetry_equiv_pos_site_id
 _symmetry_equiv_pos_as_xyz
  1  'x, y, z'
loop_
 _atom_site_type_symbol
 _atom_site_label
 _atom_site_symmetry_multiplicity
 _atom_site_fract_x
 _atom_site_fract_y
 _atom_site_fract_z
 _atom_site_occupancy
  Ca  Ca0  1  0.25000000  0.25471000  0.83940300  1
  Ca  Ca1  1  0.25000000  0.75588900  0.66127100  1
  Ca  Ca2  1  0.75000000  0.74345900  0.15414300  1
  Fe  Fe0  1  0.25000000  0.93846700  0.88695300  1
  Fe  Fe1  1  0.25000000  0.43611600  0.61073000  1
  Fe  Fe2  1  0.75000000  0.06633700  0.10758600  1
  Fe  Fe3  1  0.75000000  0.55141900  0.39574300  1
  Fe  Fe4  1  0.75000000  0.09315300  0.60278300  1
  Fe  Fe5  1  0.75000000  0.58689700  0.89245000  1
  Sn  Sn0  1  0.25000000  0.92177500  0.39497200  1
  Sn  Sn1  1  0.25000000  0.41055800  0.10960600  1
  O  O0  1  0.25000000  0.61658400  0.02591500  1
  O  O1  1  0.25000000  0.11142600  0.48659300  1
  O  O2  1  0.75000000  0.38262100  0.97459300  1
  O  O3  1  0.75000000  0.87538300  0.52486800  1
  O  O4  1  0.25000000  0.91602100  0.06985900  1
  O  O5  1  0.25000000  0.42985500  0.43378600  1
  O  O6  1  0.75000000  0.08229600  0.92318700  1
  O  O7  1  0.75000000  0.58399900  0.58038300  1
  O  O8  1  0.25000000  0.70602300  0.33441900  1
  O  O9  1  0.25000000  0.19661000  0.13804700  1
  O  O10  1  0.75000000  0.29748700  0.67055200  1
  O  O11  1  0.75000000  0.79476300  0.83671200  1
  O  O12  1  0.25000000  0.02578600  0.71744600  1
  O  O13  1  0.25000000  0.52909600  0.78797300  1
  O  O14  1  0.75000000  0.96153100  0.27453600  1
  O  O15  1  0.75000000  0.48273900  0.21549100  1
loop_
_geom_bond_atom_site_label_1
_geom_bond_atom_site_label_2
_geom_bond_distance
_geom_bond_site_symmetry_2
Ca0 O6 2.415787 1_555
Ca0 O6 2.415787 1_455
Ca0 O10 2.446659 1_455
Ca0 O10 2.446659 1_555
Ca0 O2 2.464035 1_555
Ca0 O2 2.464035 1_455
Ca0 O12 2.534249 1_555
Ca0 O13 2.624117 1_555
Ca1 O7 2.410666 1_555
Ca1 O7 2.410666 1_455
Ca1 O3 2.423097 1_455
Ca1 O3 2.423097 1_555
Ca1 O11 2.500923 1_455
Ca1 O11 2.500923 1_555
Ca1 O13 2.526350 1_555
Ca1 O12 2.604472 1_565
Ca2 O0 2.413794 1_655
Ca2 O0 2.413794 1_555
Ca2 O4 2.418764 1_555
Ca2 O4 2.418764 1_655
Ca2 O14 2.439122 1_555
Ca2 O15 2.525224 1_555
Ca2 O8 2.535426 1_555
Ca2 O8 2.535426 1_655
Fe0 O4 2.013501 1_556
Fe0 O12 2.022987 1_565
Fe0 O6 2.095886 1_465
Fe0 O6 2.095886 1_565
Fe0 O11 2.130366 1_555
Fe0 O11 2.130366 1_455
Fe1 O5 1.940304 1_555
Fe1 O7 2.105395 1_555
Fe1 O7 2.105395 1_455
Fe1 O10 2.124420 1_555
Fe1 O10 2.124420 1_455
Fe1 O13 2.134781 1_555
Fe2 O9 2.004751 1_555
Fe2 O9 2.004751 1_655
Fe2 O6 2.024896 1_554
Fe2 O14 2.068516 1_545
Fe2 O4 2.138659 1_645
Fe2 O4 2.138659 1_545
Fe3 O5 1.968423 1_555
Fe3 O5 1.968423 1_655
Fe3 O7 2.048610 1_555
Fe3 O15 2.082182 1_555
Fe3 O8 2.223323 1_555
Fe3 O8 2.223323 1_655
Fe4 O1 2.015303 1_555
Fe4 O1 2.015303 1_655
Fe4 O10 2.056954 1_555
Fe4 O12 2.092300 1_555
Fe4 O12 2.092300 1_655
Fe4 O3 2.215958 1_545
Fe5 O13 2.007067 1_555
Fe5 O13 2.007067 1_655
Fe5 O11 2.033900 1_555
Fe5 O2 2.106062 1_555
Fe5 O0 2.153513 1_556
Fe5 O0 2.153513 1_656
O0 Sn1 2.128005 1_555
O1 Sn0 2.046223 1_545
O2 Sn1 2.162953 1_556
O2 Sn1 2.162953 1_656
O3 Sn0 2.149187 1_655
O3 Sn0 2.149187 1_555
O8 Sn0 2.130385 1_555
O9 Sn1 2.023576 1_555
O14 Sn0 2.070436 1_555
O14 Sn0 2.070436 1_655
O15 Sn1 2.056766 1_655
O15 Sn1 2.056766 1_555
