# generated using pymatgen
data_La3MnFeS7
_symmetry_space_group_name_H-M   'P 1'
_cell_length_a   10.25793226
_cell_length_b   10.25793226
_cell_length_c   6.03964200
_cell_angle_alpha   90.00000000
_cell_angle_beta   90.00000000
_cell_angle_gamma   120.00000166
_symmetry_Int_Tables_number   1
_chemical_formula_structural   La3MnFeS7
_chemical_formula_sum   'La6 Mn2 Fe2 S14'
_cell_volume   550.37851791
_cell_formula_units_Z   2
loop_
 _symmetry_equiv_pos_site_id
 _symmetry_equiv_pos_as_xyz
  1  'x, y, z'
loop_
 _atom_site_type_symbol
 _atom_site_label
 _atom_site_symmetry_multiplicity
 _atom_site_fract_x
 _atom_site_fract_y
 _atom_site_fract_z
 _atom_site_occupancy
  La  La0  1  0.62396000  0.85951800  0.74075200  1
  La  La1  1  0.76444200  0.62396000  0.24075200  1
  La  La2  1  0.85951800  0.23555800  0.24075200  1
  La  La3  1  0.14048200  0.76444200  0.74075200  1
  La  La4  1  0.23555800  0.37604000  0.74075200  1
  La  La5  1  0.37604000  0.14048200  0.24075200  1
  Mn  Mn0  1  0.00000000  0.00000000  0.51676000  1
  Mn  Mn1  1  0.00000000  0.00000000  0.01676000  1
  Fe  Fe0  1  0.66666700  0.33333300  0.65557400  1
  Fe  Fe1  1  0.33333300  0.66666700  0.15557400  1
  S  S0  1  0.66666700  0.33333300  0.02612000  1
  S  S1  1  0.33333300  0.66666700  0.52612000  1
  S  S2  1  0.48222600  0.58288600  0.01414200  1
  S  S3  1  0.89934000  0.48222600  0.51414200  1
  S  S4  1  0.58288600  0.10066000  0.51414200  1
  S  S5  1  0.41711400  0.89934000  0.01414200  1
  S  S6  1  0.10066000  0.51777400  0.01414200  1
  S  S7  1  0.51777400  0.41711400  0.51414200  1
  S  S8  1  0.76576100  0.91176500  0.27895400  1
  S  S9  1  0.85399600  0.76576100  0.77895400  1
  S  S10  1  0.23423900  0.08823500  0.77895400  1
  S  S11  1  0.14600400  0.23423900  0.27895400  1
  S  S12  1  0.08823500  0.85399600  0.27895400  1
  S  S13  1  0.91176500  0.14600400  0.77895400  1
loop_
_geom_bond_atom_site_label_1
_geom_bond_atom_site_label_2
_geom_bond_distance
_geom_bond_site_symmetry_2
La0 S5 2.874384 1_556
La0 S1 2.929845 1_555
La0 S13 2.954565 1_565
La0 S2 2.960896 1_556
La0 S9 2.969141 1_555
La0 S4 3.035081 1_565
La0 S8 3.066354 1_555
La0 S8 3.491351 1_556
La1 S7 2.874384 1_555
La1 S0 2.929847 1_555
La1 S8 2.954565 1_555
La1 S3 2.960896 1_555
La1 S12 2.969141 1_655
La1 S2 3.035081 1_555
La1 S9 3.066354 1_554
La1 S9 3.491351 1_555
La2 S3 2.874384 1_555
La2 S0 2.929838 1_555
La2 S11 2.954565 1_655
La2 S4 2.960896 1_555
La2 S8 2.969141 1_545
La2 S6 3.035081 1_655
La2 S13 3.066354 1_554
La2 S13 3.491351 1_555
La3 S6 2.874384 1_556
La3 S1 2.929838 1_555
La3 S9 2.954565 1_455
La3 S5 2.960896 1_556
La3 S10 2.969141 1_565
La3 S3 3.035081 1_455
La3 S12 3.066354 1_555
La3 S12 3.491351 1_556
La4 S2 2.874384 1_556
La4 S1 2.929847 1_555
La4 S10 2.954565 1_555
La4 S6 2.960896 1_556
La4 S13 2.969141 1_455
La4 S7 3.035081 1_555
La4 S11 3.066354 1_555
La4 S11 3.491351 1_556
La5 S4 2.874384 1_555
La5 S0 2.929845 1_555
La5 S12 2.954565 1_545
La5 S7 2.960896 1_555
La5 S11 2.969141 1_555
La5 S5 3.035081 1_545
La5 S10 3.066354 1_554
La5 S10 3.491351 1_555
Mn0 S11 2.545733 1_555
Mn0 S8 2.545733 1_445
Mn0 S12 2.545733 1_545
Mn0 S9 2.631646 1_445
Mn0 S10 2.631646 1_555
Mn0 S13 2.631646 1_455
Mn1 S9 2.545733 1_444
Mn1 S10 2.545733 1_554
Mn1 S13 2.545733 1_454
Mn1 S11 2.631646 1_555
Mn1 S8 2.631646 1_445
Mn1 S12 2.631646 1_545
Fe0 S0 2.237965 1_556
Fe0 S4 2.261325 1_555
Fe0 S3 2.261326 1_555
Fe0 S7 2.261334 1_555
Fe1 S1 2.237965 1_555
Fe1 S5 2.261325 1_555
Fe1 S6 2.261326 1_555
Fe1 S2 2.261334 1_555
