# generated using pymatgen
data_La(NiSn)2
_symmetry_space_group_name_H-M   'P 1'
_cell_length_a   4.45345745
_cell_length_b   4.45345745
_cell_length_c   10.24631888
_cell_angle_alpha   90.00000000
_cell_angle_beta   90.00000000
_cell_angle_gamma   90.00000000
_symmetry_Int_Tables_number   1
_chemical_formula_structural   La(NiSn)2
_chemical_formula_sum   'La2 Ni4 Sn4'
_cell_volume   203.21814471
_cell_formula_units_Z   2
loop_
 _symmetry_equiv_pos_site_id
 _symmetry_equiv_pos_as_xyz
  1  'x, y, z'
loop_
 _atom_site_type_symbol
 _atom_site_label
 _atom_site_symmetry_multiplicity
 _atom_site_fract_x
 _atom_site_fract_y
 _atom_site_fract_z
 _atom_site_occupancy
  La  La0  1  0.75000000  0.75000000  0.24087628  1
  La  La1  1  0.25000000  0.25000000  0.75912372  1
  Ni  Ni0  1  0.75000000  0.25000000  0.00000000  1
  Ni  Ni1  1  0.25000000  0.75000000  0.00000000  1
  Ni  Ni2  1  0.75000000  0.75000000  0.62828410  1
  Ni  Ni3  1  0.25000000  0.25000000  0.37171590  1
  Sn  Sn0  1  0.75000000  0.25000000  0.50000000  1
  Sn  Sn1  1  0.25000000  0.75000000  0.50000000  1
  Sn  Sn2  1  0.75000000  0.75000000  0.87653857  1
  Sn  Sn3  1  0.25000000  0.25000000  0.12346143  1
loop_
_geom_bond_atom_site_label_1
_geom_bond_atom_site_label_2
_geom_bond_distance
_geom_bond_site_symmetry_2
La0 Ni1 3.324126 1_555
La0 Ni1 3.324126 1_655
La0 Ni0 3.324126 1_555
La0 Ni0 3.324126 1_565
La0 Sn3 3.371056 1_655
La0 Sn3 3.371056 1_565
La0 Sn3 3.371056 1_665
La0 Sn3 3.371056 1_555
La0 Ni3 3.422560 1_655
La0 Ni3 3.422560 1_565
La0 Ni3 3.422560 1_555
La0 Ni3 3.422560 1_665
La0 Sn0 3.465211 1_555
La0 Sn1 3.465211 1_555
La0 Sn1 3.465211 1_655
La0 Sn0 3.465211 1_565
La1 Ni0 3.324126 1_556
La1 Ni1 3.324126 1_556
La1 Ni1 3.324126 1_546
La1 Ni0 3.324126 1_456
La1 Sn2 3.371056 1_455
La1 Sn2 3.371056 1_555
La1 Sn2 3.371056 1_445
La1 Sn2 3.371056 1_545
La1 Ni2 3.422560 1_555
La1 Ni2 3.422560 1_545
La1 Ni2 3.422560 1_445
La1 Ni2 3.422560 1_455
La1 Sn1 3.465211 1_545
La1 Sn1 3.465211 1_555
La1 Sn0 3.465211 1_555
La1 Sn0 3.465211 1_455
Ni0 Sn2 2.560978 1_554
Ni0 Sn2 2.560978 1_544
Ni0 Sn3 2.560978 1_655
Ni0 Sn3 2.560978 1_555
Ni1 Sn2 2.560978 1_454
Ni1 Sn2 2.560978 1_554
Ni1 Sn3 2.560978 1_565
Ni1 Sn3 2.560978 1_555
Ni2 Sn2 2.543694 1_555
Ni2 Sn1 2.585744 1_555
Ni2 Sn1 2.585744 1_655
Ni2 Sn0 2.585744 1_565
Ni2 Sn0 2.585744 1_555
Ni3 Sn3 2.543694 1_555
Ni3 Sn1 2.585744 1_545
Ni3 Sn1 2.585744 1_555
Ni3 Sn0 2.585744 1_455
Ni3 Sn0 2.585744 1_555
