# generated using pymatgen
data_CaPBrO8
_symmetry_space_group_name_H-M   'P 1'
_cell_length_a   10.97103554
_cell_length_b   10.97103554
_cell_length_c   7.05533326
_cell_angle_alpha   85.53459955
_cell_angle_beta   85.53459955
_cell_angle_gamma   33.93508030
_symmetry_Int_Tables_number   1
_chemical_formula_structural   CaPBrO8
_chemical_formula_sum   'Ca2 P2 Br2 O16'
_cell_volume   472.49844251
_cell_formula_units_Z   2
loop_
 _symmetry_equiv_pos_site_id
 _symmetry_equiv_pos_as_xyz
  1  'x, y, z'
loop_
 _atom_site_type_symbol
 _atom_site_label
 _atom_site_symmetry_multiplicity
 _atom_site_fract_x
 _atom_site_fract_y
 _atom_site_fract_z
 _atom_site_occupancy
  Ca  Ca0  1  0.34789800  0.65210200  0.25000000  1
  Ca  Ca1  1  0.65210200  0.34789800  0.75000000  1
  P  P0  1  0.83469600  0.16530400  0.25000000  1
  P  P1  1  0.16530400  0.83469600  0.75000000  1
  Br  Br0  1  0.50000000  0.00000000  0.50000000  1
  Br  Br1  1  0.00000000  0.50000000  0.00000000  1
  O  O0  1  0.94798800  0.94416000  0.25394600  1
  O  O1  1  0.05584000  0.05201200  0.24605400  1
  O  O2  1  0.05201200  0.05584000  0.74605400  1
  O  O3  1  0.94416000  0.94798800  0.75394600  1
  O  O4  1  0.68504300  0.30945300  0.42255700  1
  O  O5  1  0.69054700  0.31495700  0.07744300  1
  O  O6  1  0.31495700  0.69054700  0.57744300  1
  O  O7  1  0.30945300  0.68504300  0.92255700  1
  O  O8  1  0.20294900  0.50860800  0.34118400  1
  O  O9  1  0.49139200  0.79705100  0.15881600  1
  O  O10  1  0.79705100  0.49139200  0.65881600  1
  O  O11  1  0.50860800  0.20294900  0.84118400  1
  O  O12  1  0.93636600  0.38861000  0.53109800  1
  O  O13  1  0.61139000  0.06363400  0.96890200  1
  O  O14  1  0.06363400  0.61139000  0.46890200  1
  O  O15  1  0.38861000  0.93636600  0.03109800  1
loop_
_geom_bond_atom_site_label_1
_geom_bond_atom_site_label_2
_geom_bond_distance
_geom_bond_site_symmetry_2
Ca0 O6 2.326888 1_555
Ca0 O7 2.326888 1_554
Ca0 O0 2.486913 1_455
Ca0 O1 2.486913 1_565
Ca0 O4 2.492214 1_555
Ca0 O5 2.492214 1_555
Ca0 O8 3.042731 1_555
Ca0 O9 3.042731 1_555
Ca1 O4 2.326888 1_555
Ca1 O5 2.326888 1_556
Ca1 O2 2.486913 1_655
Ca1 O3 2.486913 1_545
Ca1 O7 2.492214 1_555
Ca1 O6 2.492214 1_555
Ca1 O10 3.042731 1_555
Ca1 O11 3.042731 1_555
O0 P0 1.556600 1_565
O1 P0 1.556600 1_455
O2 P1 1.556600 1_545
O3 P1 1.556600 1_655
O4 P0 1.535873 1_555
O5 P0 1.535873 1_555
O6 P1 1.535873 1_555
O7 P1 1.535873 1_555
O10 O12 1.226172 1_555
O11 O13 1.226172 1_555
O14 O8 1.226172 1_555
O15 O9 1.226172 1_555
