# generated using pymatgen
data_Sc5Si3
_symmetry_space_group_name_H-M   'P 1'
_cell_length_a   8.37793925
_cell_length_b   8.37793925
_cell_length_c   5.55740700
_cell_angle_alpha   90.00000000
_cell_angle_beta   90.00000000
_cell_angle_gamma   119.99999404
_symmetry_Int_Tables_number   1
_chemical_formula_structural   Sc5Si3
_chemical_formula_sum   'Sc10 Si6'
_cell_volume   337.81371281
_cell_formula_units_Z   2
loop_
 _symmetry_equiv_pos_site_id
 _symmetry_equiv_pos_as_xyz
  1  'x, y, z'
loop_
 _atom_site_type_symbol
 _atom_site_label
 _atom_site_symmetry_multiplicity
 _atom_site_fract_x
 _atom_site_fract_y
 _atom_site_fract_z
 _atom_site_occupancy
  Sc  Sc0  1  0.66666700  0.33333300  0.25000000  1
  Sc  Sc1  1  0.33333300  0.66666700  0.25000000  1
  Sc  Sc2  1  0.33333300  0.66666700  0.75000000  1
  Sc  Sc3  1  0.66666700  0.33333300  0.75000000  1
  Sc  Sc4  1  0.74848800  0.74848800  0.25000000  1
  Sc  Sc5  1  0.25151200  0.00000000  0.25000000  1
  Sc  Sc6  1  0.00000000  0.25151200  0.25000000  1
  Sc  Sc7  1  0.25151200  0.25151200  0.75000000  1
  Sc  Sc8  1  0.74848800  0.00000000  0.75000000  1
  Sc  Sc9  1  0.00000000  0.74848800  0.75000000  1
  Si  Si0  1  0.37429600  0.37429600  0.25000000  1
  Si  Si1  1  0.62570400  0.00000000  0.25000000  1
  Si  Si2  1  0.00000000  0.62570400  0.25000000  1
  Si  Si3  1  0.62570400  0.62570400  0.75000000  1
  Si  Si4  1  0.37429600  0.00000000  0.75000000  1
  Si  Si5  1  0.00000000  0.37429600  0.75000000  1
loop_
_geom_bond_atom_site_label_1
_geom_bond_atom_site_label_2
_geom_bond_distance
_geom_bond_site_symmetry_2
Sc0 Si1 2.637848 1_555
Sc0 Si2 2.637851 1_655
Sc0 Si0 2.637856 1_555
Sc1 Si2 2.637848 1_555
Sc1 Si1 2.637851 1_565
Sc1 Si0 2.637856 1_555
Sc2 Si4 2.637848 1_565
Sc2 Si5 2.637851 1_555
Sc2 Si3 2.637856 1_555
Sc3 Si5 2.637848 1_655
Sc3 Si4 2.637851 1_555
Sc3 Si3 2.637856 1_555
Sc4 Si1 2.768726 1_565
Sc4 Si2 2.768726 1_655
Sc4 Si3 2.963000 1_555
Sc4 Si3 2.963000 1_554
Sc4 Si0 3.134958 1_555
Sc5 Si0 2.768726 1_555
Sc5 Si2 2.768727 1_545
Sc5 Si4 2.963000 1_555
Sc5 Si4 2.963000 1_554
Sc5 Si1 3.134958 1_555
Sc6 Si0 2.768726 1_555
Sc6 Si1 2.768727 1_455
Sc6 Si5 2.963000 1_554
Sc6 Si5 2.963000 1_555
Sc6 Si2 3.134958 1_555
Sc7 Si5 2.768726 1_555
Sc7 Si4 2.768726 1_555
Sc7 Si0 2.963000 1_556
Sc7 Si0 2.963000 1_555
Sc7 Si3 3.134958 1_555
Sc8 Si3 2.768726 1_545
Sc8 Si5 2.768727 1_655
Sc8 Si1 2.963000 1_555
Sc8 Si1 2.963000 1_556
Sc8 Si4 3.134958 1_555
Sc9 Si3 2.768726 1_455
Sc9 Si4 2.768727 1_565
Sc9 Si2 2.963000 1_556
Sc9 Si2 2.963000 1_555
Sc9 Si5 3.134958 1_555
