# generated using pymatgen
data_Sr8MnFe7O24
_symmetry_space_group_name_H-M   'P 1'
_cell_length_a   7.82326300
_cell_length_b   7.82326300
_cell_length_c   7.82326300
_cell_angle_alpha   90.00000000
_cell_angle_beta   90.00000000
_cell_angle_gamma   90.00000000
_symmetry_Int_Tables_number   1
_chemical_formula_structural   Sr8MnFe7O24
_chemical_formula_sum   'Sr8 Mn1 Fe7 O24'
_cell_volume   478.81063866
_cell_formula_units_Z   1
loop_
 _symmetry_equiv_pos_site_id
 _symmetry_equiv_pos_as_xyz
  1  'x, y, z'
loop_
 _atom_site_type_symbol
 _atom_site_label
 _atom_site_symmetry_multiplicity
 _atom_site_fract_x
 _atom_site_fract_y
 _atom_site_fract_z
 _atom_site_occupancy
  Sr  Sr0  1  0.24979100  0.75020900  0.75020900  1
  Sr  Sr1  1  0.24979100  0.75020900  0.24979100  1
  Sr  Sr2  1  0.24979100  0.24979100  0.75020900  1
  Sr  Sr3  1  0.24979100  0.24979100  0.24979100  1
  Sr  Sr4  1  0.75020900  0.75020900  0.75020900  1
  Sr  Sr5  1  0.75020900  0.75020900  0.24979100  1
  Sr  Sr6  1  0.75020900  0.24979100  0.75020900  1
  Sr  Sr7  1  0.75020900  0.24979100  0.24979100  1
  Mn  Mn0  1  0.00000000  0.00000000  0.00000000  1
  Fe  Fe0  1  0.00000000  0.50000000  0.50000000  1
  Fe  Fe1  1  0.00000000  0.50000000  0.00000000  1
  Fe  Fe2  1  0.00000000  0.00000000  0.50000000  1
  Fe  Fe3  1  0.50000000  0.50000000  0.50000000  1
  Fe  Fe4  1  0.50000000  0.50000000  0.00000000  1
  Fe  Fe5  1  0.50000000  0.00000000  0.50000000  1
  Fe  Fe6  1  0.50000000  0.00000000  0.00000000  1
  O  O0  1  0.24944300  0.50000000  0.50000000  1
  O  O1  1  0.25098900  0.50000000  0.00000000  1
  O  O2  1  0.25098900  0.00000000  0.50000000  1
  O  O3  1  0.24730500  0.00000000  0.00000000  1
  O  O4  1  0.75055700  0.50000000  0.50000000  1
  O  O5  1  0.74901100  0.50000000  0.00000000  1
  O  O6  1  0.74901100  0.00000000  0.50000000  1
  O  O7  1  0.75269500  0.00000000  0.00000000  1
  O  O8  1  0.00000000  0.74901100  0.50000000  1
  O  O9  1  0.00000000  0.75269500  0.00000000  1
  O  O10  1  0.00000000  0.25098900  0.50000000  1
  O  O11  1  0.00000000  0.24730500  0.00000000  1
  O  O12  1  0.50000000  0.75055700  0.50000000  1
  O  O13  1  0.50000000  0.74901100  0.00000000  1
  O  O14  1  0.50000000  0.24944300  0.50000000  1
  O  O15  1  0.50000000  0.25098900  0.00000000  1
  O  O16  1  0.00000000  0.50000000  0.74901100  1
  O  O17  1  0.00000000  0.50000000  0.25098900  1
  O  O18  1  0.00000000  0.00000000  0.75269500  1
  O  O19  1  0.00000000  0.00000000  0.24730500  1
  O  O20  1  0.50000000  0.50000000  0.75055700  1
  O  O21  1  0.50000000  0.50000000  0.24944300  1
  O  O22  1  0.50000000  0.00000000  0.74901100  1
  O  O23  1  0.50000000  0.00000000  0.25098900  1
loop_
_geom_bond_atom_site_label_1
_geom_bond_atom_site_label_2
_geom_bond_distance
_geom_bond_site_symmetry_2
Mn0 O11 1.934732 1_555
Mn0 O18 1.934732 1_554
Mn0 O19 1.934732 1_555
Mn0 O3 1.934732 1_555
Mn0 O7 1.934732 1_455
Mn0 O9 1.934732 1_545
Fe0 O10 1.948079 1_555
Fe0 O17 1.948079 1_555
Fe0 O8 1.948079 1_555
Fe0 O16 1.948079 1_555
Fe0 O4 1.951458 1_455
Fe0 O0 1.951458 1_555
Fe1 O16 1.963553 1_554
Fe1 O17 1.963553 1_555
Fe1 O1 1.963553 1_555
Fe1 O5 1.963553 1_455
Fe1 O9 1.976899 1_555
Fe1 O11 1.976899 1_555
Fe2 O10 1.963553 1_555
Fe2 O8 1.963553 1_545
Fe2 O2 1.963553 1_555
Fe2 O6 1.963553 1_455
Fe2 O18 1.976899 1_555
Fe2 O19 1.976899 1_555
Fe3 O12 1.960173 1_555
Fe3 O0 1.960173 1_555
Fe3 O20 1.960173 1_555
Fe3 O4 1.960173 1_555
Fe3 O21 1.960173 1_555
Fe3 O14 1.960173 1_555
Fe4 O13 1.948079 1_555
Fe4 O1 1.948079 1_555
Fe4 O15 1.948079 1_555
Fe4 O5 1.948079 1_555
Fe4 O20 1.951458 1_554
Fe4 O21 1.951458 1_555
Fe5 O22 1.948079 1_555
Fe5 O2 1.948079 1_555
Fe5 O23 1.948079 1_555
Fe5 O6 1.948079 1_555
Fe5 O12 1.951458 1_545
Fe5 O14 1.951458 1_555
Fe6 O22 1.963553 1_554
Fe6 O23 1.963553 1_555
Fe6 O15 1.963553 1_555
Fe6 O13 1.963553 1_545
Fe6 O7 1.976899 1_555
Fe6 O3 1.976899 1_555
O0 Sr1 2.768255 1_555
O0 Sr2 2.768255 1_555
O0 Sr3 2.768255 1_555
O0 Sr0 2.768255 1_555
O1 Sr0 2.765958 1_554
O1 Sr2 2.765958 1_554
O1 Sr3 2.765958 1_555
O1 Sr1 2.765958 1_555
O2 Sr0 2.765958 1_545
O2 Sr1 2.765958 1_545
O2 Sr2 2.765958 1_555
O2 Sr3 2.765958 1_555
O3 Sr2 2.763697 1_554
O3 Sr0 2.763697 1_544
O3 Sr3 2.763697 1_555
O3 Sr1 2.763697 1_545
O4 Sr7 2.768255 1_555
O4 Sr5 2.768255 1_555
O4 Sr6 2.768255 1_555
O4 Sr4 2.768255 1_555
O5 Sr6 2.765958 1_554
O5 Sr4 2.765958 1_554
O5 Sr5 2.765958 1_555
O5 Sr7 2.765958 1_555
O6 Sr5 2.765958 1_545
O6 Sr4 2.765958 1_545
O6 Sr6 2.765958 1_555
O6 Sr7 2.765958 1_555
O7 Sr4 2.763697 1_544
O7 Sr5 2.763697 1_545
O7 Sr6 2.763697 1_554
O7 Sr7 2.763697 1_555
O8 Sr4 2.765958 1_455
O8 Sr5 2.765958 1_455
O8 Sr0 2.765958 1_555
O8 Sr1 2.765958 1_555
O9 Sr5 2.763697 1_455
O9 Sr0 2.763697 1_554
O9 Sr4 2.763697 1_454
O9 Sr1 2.763697 1_555
O10 Sr7 2.765958 1_455
O10 Sr6 2.765958 1_455
O10 Sr2 2.765958 1_555
O10 Sr3 2.765958 1_555
O11 Sr2 2.763697 1_554
O11 Sr6 2.763697 1_454
O11 Sr7 2.763697 1_455
O11 Sr3 2.763697 1_555
O12 Sr1 2.768255 1_555
O12 Sr5 2.768255 1_555
O12 Sr0 2.768255 1_555
O12 Sr4 2.768255 1_555
O13 Sr0 2.765958 1_554
O13 Sr4 2.765958 1_554
O13 Sr5 2.765958 1_555
O13 Sr1 2.765958 1_555
O14 Sr7 2.768255 1_555
O14 Sr2 2.768255 1_555
O14 Sr3 2.768255 1_555
O14 Sr6 2.768255 1_555
O15 Sr6 2.765958 1_554
O15 Sr2 2.765958 1_554
O15 Sr3 2.765958 1_555
O15 Sr7 2.765958 1_555
O16 Sr4 2.765958 1_455
O16 Sr6 2.765958 1_455
O16 Sr2 2.765958 1_555
O16 Sr0 2.765958 1_555
O17 Sr7 2.765958 1_455
O17 Sr5 2.765958 1_455
O17 Sr3 2.765958 1_555
O17 Sr1 2.765958 1_555
O18 Sr0 2.763697 1_545
O18 Sr6 2.763697 1_455
O18 Sr4 2.763697 1_445
O18 Sr2 2.763697 1_555
O19 Sr1 2.763697 1_545
O19 Sr7 2.763697 1_455
O19 Sr5 2.763697 1_445
O19 Sr3 2.763697 1_555
O20 Sr6 2.768255 1_555
O20 Sr2 2.768255 1_555
O20 Sr0 2.768255 1_555
O20 Sr4 2.768255 1_555
O21 Sr1 2.768255 1_555
O21 Sr7 2.768255 1_555
O21 Sr5 2.768255 1_555
O21 Sr3 2.768255 1_555
O22 Sr0 2.765958 1_545
O22 Sr4 2.765958 1_545
O22 Sr2 2.765958 1_555
O22 Sr6 2.765958 1_555
O23 Sr5 2.765958 1_545
O23 Sr1 2.765958 1_545
O23 Sr3 2.765958 1_555
O23 Sr7 2.765958 1_555
