# generated using pymatgen
data_Na3Cr2(AsO4)3
_symmetry_space_group_name_H-M   'P 1'
_cell_length_a   10.68824131
_cell_length_b   10.68824131
_cell_length_c   10.68824131
_cell_angle_alpha   109.47122063
_cell_angle_beta   109.47122063
_cell_angle_gamma   109.47122063
_symmetry_Int_Tables_number   1
_chemical_formula_structural   Na3Cr2(AsO4)3
_chemical_formula_sum   'Na12 Cr8 As12 O48'
_cell_volume   939.93292086
_cell_formula_units_Z   4
loop_
 _symmetry_equiv_pos_site_id
 _symmetry_equiv_pos_as_xyz
  1  'x, y, z'
loop_
 _atom_site_type_symbol
 _atom_site_label
 _atom_site_symmetry_multiplicity
 _atom_site_fract_x
 _atom_site_fract_y
 _atom_site_fract_z
 _atom_site_occupancy
  Na  Na0  1  0.25000000  0.87500000  0.62500000  1
  Na  Na1  1  0.87500000  0.62500000  0.25000000  1
  Na  Na2  1  0.62500000  0.87500000  0.75000000  1
  Na  Na3  1  0.87500000  0.75000000  0.62500000  1
  Na  Na4  1  0.62500000  0.25000000  0.87500000  1
  Na  Na5  1  0.75000000  0.62500000  0.87500000  1
  Na  Na6  1  0.75000000  0.12500000  0.37500000  1
  Na  Na7  1  0.12500000  0.37500000  0.75000000  1
  Na  Na8  1  0.37500000  0.12500000  0.25000000  1
  Na  Na9  1  0.12500000  0.25000000  0.37500000  1
  Na  Na10  1  0.37500000  0.75000000  0.12500000  1
  Na  Na11  1  0.25000000  0.37500000  0.12500000  1
  Cr  Cr0  1  0.00000000  0.00000000  0.00000000  1
  Cr  Cr1  1  0.00000000  0.50000000  0.00000000  1
  Cr  Cr2  1  0.50000000  0.00000000  0.00000000  1
  Cr  Cr3  1  0.00000000  0.00000000  0.50000000  1
  Cr  Cr4  1  0.50000000  0.00000000  0.50000000  1
  Cr  Cr5  1  0.00000000  0.50000000  0.50000000  1
  Cr  Cr6  1  0.50000000  0.50000000  0.00000000  1
  Cr  Cr7  1  0.50000000  0.50000000  0.50000000  1
  As  As0  1  0.25000000  0.12500000  0.87500000  1
  As  As1  1  0.75000000  0.87500000  0.12500000  1
  As  As2  1  0.37500000  0.25000000  0.62500000  1
  As  As3  1  0.62500000  0.37500000  0.25000000  1
  As  As4  1  0.12500000  0.75000000  0.87500000  1
  As  As5  1  0.87500000  0.12500000  0.75000000  1
  As  As6  1  0.75000000  0.37500000  0.62500000  1
  As  As7  1  0.37500000  0.62500000  0.75000000  1
  As  As8  1  0.12500000  0.87500000  0.25000000  1
  As  As9  1  0.87500000  0.25000000  0.12500000  1
  As  As10  1  0.62500000  0.75000000  0.37500000  1
  As  As11  1  0.25000000  0.62500000  0.37500000  1
  O  O0  1  0.80159600  0.88596200  0.98989300  1
  O  O1  1  0.61403800  0.41563400  0.10393100  1
  O  O2  1  0.51010700  0.39606900  0.81170300  1
  O  O3  1  0.69840400  0.68829700  0.08436600  1
  O  O4  1  0.69840400  0.51010700  0.61403800  1
  O  O5  1  0.68829700  0.08436600  0.69840400  1
  O  O6  1  0.39606900  0.08436600  0.88596200  1
  O  O7  1  0.08436600  0.69840400  0.68829700  1
  O  O8  1  0.10393100  0.98989300  0.68829700  1
  O  O9  1  0.41563400  0.81170300  0.80159600  1
  O  O10  1  0.81170300  0.80159600  0.41563400  1
  O  O11  1  0.61403800  0.69840400  0.51010700  1
  O  O12  1  0.08436600  0.88596200  0.39606900  1
  O  O13  1  0.68829700  0.10393100  0.98989300  1
  O  O14  1  0.51010700  0.61403800  0.69840400  1
  O  O15  1  0.88596200  0.39606900  0.08436600  1
  O  O16  1  0.98989300  0.68829700  0.10393100  1
  O  O17  1  0.10393100  0.61403800  0.41563400  1
  O  O18  1  0.39606900  0.81170300  0.51010700  1
  O  O19  1  0.89606900  0.01010700  0.31170300  1
  O  O20  1  0.81170300  0.51010700  0.39606900  1
  O  O21  1  0.98989300  0.80159600  0.88596200  1
  O  O22  1  0.41563400  0.10393100  0.61403800  1
  O  O23  1  0.80159600  0.41563400  0.81170300  1
  O  O24  1  0.19840400  0.11403800  0.01010700  1
  O  O25  1  0.38596200  0.58436600  0.89606900  1
  O  O26  1  0.48989300  0.60393100  0.18829700  1
  O  O27  1  0.30159600  0.31170300  0.91563400  1
  O  O28  1  0.30159600  0.48989300  0.38596200  1
  O  O29  1  0.31170300  0.91563400  0.30159600  1
  O  O30  1  0.60393100  0.91563400  0.11403800  1
  O  O31  1  0.91563400  0.30159600  0.31170300  1
  O  O32  1  0.19840400  0.58436600  0.18829700  1
  O  O33  1  0.58436600  0.89606900  0.38596200  1
  O  O34  1  0.01010700  0.19840400  0.11403800  1
  O  O35  1  0.11403800  0.01010700  0.19840400  1
  O  O36  1  0.18829700  0.48989300  0.60393100  1
  O  O37  1  0.60393100  0.18829700  0.48989300  1
  O  O38  1  0.89606900  0.38596200  0.58436600  1
  O  O39  1  0.01010700  0.31170300  0.89606900  1
  O  O40  1  0.11403800  0.60393100  0.91563400  1
  O  O41  1  0.48989300  0.38596200  0.30159600  1
  O  O42  1  0.31170300  0.89606900  0.01010700  1
  O  O43  1  0.91563400  0.11403800  0.60393100  1
  O  O44  1  0.38596200  0.30159600  0.48989300  1
  O  O45  1  0.18829700  0.19840400  0.58436600  1
  O  O46  1  0.58436600  0.18829700  0.19840400  1
  O  O47  1  0.88596200  0.98989300  0.80159600  1
loop_
_geom_bond_atom_site_label_1
_geom_bond_atom_site_label_2
_geom_bond_distance
_geom_bond_site_symmetry_2
Na0 O17 2.414853 1_555
Na0 O6 2.414853 1_565
Na0 O8 2.414853 1_555
Na0 O18 2.414853 1_555
Na0 O12 2.564476 1_555
Na0 O9 2.564476 1_555
Na0 O7 2.564476 1_555
Na0 O22 2.564476 1_565
Na1 O12 2.414853 1_655
Na1 O1 2.414853 1_555
Na1 O20 2.414853 1_555
Na1 O16 2.414853 1_555
Na1 O17 2.564476 1_655
Na1 O3 2.564476 1_555
Na1 O15 2.564476 1_555
Na1 O10 2.564476 1_555
Na2 O5 2.414853 1_565
Na2 O9 2.414853 1_555
Na2 O14 2.414853 1_555
Na2 O47 2.414853 1_555
Na2 O0 2.564476 1_555
Na2 O13 2.564476 1_565
Na2 O11 2.564476 1_555
Na2 O18 2.564476 1_555
Na3 O7 2.414853 1_655
Na3 O10 2.414853 1_555
Na3 O21 2.414853 1_555
Na3 O11 2.414853 1_555
Na3 O8 2.564476 1_655
Na3 O4 2.564476 1_555
Na3 O20 2.564476 1_555
Na3 O47 2.564476 1_555
Na4 O15 2.414853 1_556
Na4 O22 2.414853 1_555
Na4 O13 2.414853 1_555
Na4 O2 2.414853 1_555
Na4 O1 2.564476 1_556
Na4 O5 2.564476 1_555
Na4 O23 2.564476 1_555
Na4 O6 2.564476 1_555
Na5 O3 2.414853 1_556
Na5 O0 2.414853 1_555
Na5 O23 2.414853 1_555
Na5 O4 2.414853 1_555
Na5 O21 2.564476 1_555
Na5 O2 2.564476 1_555
Na5 O14 2.564476 1_555
Na5 O16 2.564476 1_556
Na6 O37 2.414853 1_555
Na6 O19 2.414853 1_555
Na6 O38 2.414853 1_555
Na6 O30 2.414853 1_545
Na6 O31 2.564476 1_555
Na6 O43 2.564476 1_555
Na6 O46 2.564476 1_555
Na6 O33 2.564476 1_545
Na7 O39 2.414853 1_555
Na7 O36 2.414853 1_555
Na7 O43 2.414853 1_455
Na7 O25 2.414853 1_555
Na7 O40 2.564476 1_555
Na7 O45 2.564476 1_555
Na7 O27 2.564476 1_555
Na7 O38 2.564476 1_455
Na8 O35 2.414853 1_555
Na8 O41 2.414853 1_555
Na8 O29 2.414853 1_545
Na8 O46 2.414853 1_555
Na8 O44 2.564476 1_555
Na8 O37 2.564476 1_555
Na8 O42 2.564476 1_545
Na8 O24 2.564476 1_555
Na9 O44 2.414853 1_555
Na9 O34 2.414853 1_555
Na9 O31 2.414853 1_455
Na9 O45 2.414853 1_555
Na9 O28 2.564476 1_555
Na9 O36 2.564476 1_555
Na9 O19 2.564476 1_455
Na9 O35 2.564476 1_555
Na10 O42 2.414853 1_555
Na10 O26 2.414853 1_555
Na10 O33 2.414853 1_555
Na10 O40 2.414853 1_554
Na10 O25 2.564476 1_554
Na10 O32 2.564476 1_555
Na10 O29 2.564476 1_555
Na10 O30 2.564476 1_555
Na11 O27 2.414853 1_554
Na11 O24 2.414853 1_555
Na11 O28 2.414853 1_555
Na11 O32 2.414853 1_555
Na11 O39 2.564476 1_554
Na11 O26 2.564476 1_555
Na11 O34 2.564476 1_555
Na11 O41 2.564476 1_555
Cr0 O35 2.007626 1_555
Cr0 O34 2.007626 1_555
Cr0 O21 2.007626 1_444
Cr0 O0 2.007626 1_444
Cr0 O47 2.007626 1_444
Cr0 O24 2.007626 1_555
Cr1 O15 2.007626 1_455
Cr1 O32 2.007626 1_555
Cr1 O23 2.007626 1_454
Cr1 O39 2.007626 1_554
Cr1 O40 2.007626 1_554
Cr1 O16 2.007626 1_455
Cr2 O46 2.007626 1_555
Cr2 O6 2.007626 1_554
Cr2 O30 2.007626 1_545
Cr2 O42 2.007626 1_545
Cr2 O13 2.007626 1_554
Cr2 O9 2.007626 1_544
Cr3 O45 2.007626 1_555
Cr3 O12 2.007626 1_545
Cr3 O19 2.007626 1_455
Cr3 O10 2.007626 1_445
Cr3 O43 2.007626 1_455
Cr3 O8 2.007626 1_545
Cr4 O37 2.007626 1_555
Cr4 O29 2.007626 1_545
Cr4 O22 2.007626 1_555
Cr4 O33 2.007626 1_545
Cr4 O18 2.007626 1_545
Cr4 O5 2.007626 1_555
Cr5 O17 2.007626 1_555
Cr5 O36 2.007626 1_555
Cr5 O31 2.007626 1_455
Cr5 O20 2.007626 1_455
Cr5 O7 2.007626 1_555
Cr5 O38 2.007626 1_455
Cr6 O1 2.007626 1_555
Cr6 O27 2.007626 1_554
Cr6 O26 2.007626 1_555
Cr6 O25 2.007626 1_554
Cr6 O2 2.007626 1_554
Cr6 O3 2.007626 1_555
Cr7 O28 2.007626 1_555
Cr7 O41 2.007626 1_555
Cr7 O4 2.007626 1_555
Cr7 O44 2.007626 1_555
Cr7 O14 2.007626 1_555
Cr7 O11 2.007626 1_555
As0 O8 1.733138 1_545
As0 O6 1.733138 1_555
As0 O27 1.733138 1_555
As0 O24 1.733138 1_556
As1 O3 1.733138 1_555
As1 O0 1.733138 1_554
As1 O30 1.733138 1_555
As1 O19 1.733138 1_565
As2 O44 1.733138 1_555
As2 O2 1.733138 1_555
As2 O22 1.733138 1_555
As2 O45 1.733138 1_555
As3 O41 1.733138 1_555
As3 O20 1.733138 1_555
As3 O1 1.733138 1_555
As3 O46 1.733138 1_555
As4 O7 1.733138 1_555
As4 O40 1.733138 1_555
As4 O21 1.733138 1_455
As4 O42 1.733138 1_556
As5 O5 1.733138 1_555
As5 O47 1.733138 1_545
As5 O43 1.733138 1_555
As5 O39 1.733138 1_655
As6 O23 1.733138 1_555
As6 O4 1.733138 1_555
As6 O38 1.733138 1_555
As6 O37 1.733138 1_555
As7 O9 1.733138 1_555
As7 O25 1.733138 1_555
As7 O14 1.733138 1_555
As7 O36 1.733138 1_555
As8 O16 1.733138 1_455
As8 O12 1.733138 1_555
As8 O29 1.733138 1_555
As8 O35 1.733138 1_565
As9 O13 1.733138 1_554
As9 O31 1.733138 1_555
As9 O15 1.733138 1_555
As9 O34 1.733138 1_655
As10 O10 1.733138 1_555
As10 O33 1.733138 1_555
As10 O11 1.733138 1_555
As10 O26 1.733138 1_555
As11 O28 1.733138 1_555
As11 O18 1.733138 1_555
As11 O17 1.733138 1_555
As11 O32 1.733138 1_555
