# generated using pymatgen
data_Mg4Si3
_symmetry_space_group_name_H-M   'P 1'
_cell_length_a   5.56352400
_cell_length_b   6.41602544
_cell_length_c   7.88276729
_cell_angle_alpha   72.04427030
_cell_angle_beta   81.94831759
_cell_angle_gamma   81.17112748
_symmetry_Int_Tables_number   1
_chemical_formula_structural   Mg4Si3
_chemical_formula_sum   'Mg8 Si6'
_cell_volume   263.21400364
_cell_formula_units_Z   2
loop_
 _symmetry_equiv_pos_site_id
 _symmetry_equiv_pos_as_xyz
  1  'x, y, z'
loop_
 _atom_site_type_symbol
 _atom_site_label
 _atom_site_symmetry_multiplicity
 _atom_site_fract_x
 _atom_site_fract_y
 _atom_site_fract_z
 _atom_site_occupancy
  Mg  Mg0  1  0.15978700  0.50533300  0.20345300  1
  Mg  Mg1  1  0.82084300  0.03985500  0.97454700  1
  Mg  Mg2  1  0.75793800  0.85111400  0.67805100  1
  Mg  Mg3  1  0.65694200  0.21219500  0.31518200  1
  Mg  Mg4  1  0.46564600  0.46382600  0.88229400  1
  Mg  Mg5  1  0.38292100  0.66872400  0.47822400  1
  Mg  Mg6  1  0.90154300  0.38864300  0.59359100  1
  Mg  Mg7  1  0.29151200  0.02192100  0.09587300  1
  Si  Si0  1  0.17385500  0.08567100  0.44924000  1
  Si  Si1  1  0.64063100  0.64569300  0.12686400  1
  Si  Si2  1  0.22205300  0.87835600  0.77402900  1
  Si  Si3  1  0.89577900  0.80526100  0.33962100  1
  Si  Si4  1  0.94699100  0.46546600  0.92864500  1
  Si  Si5  1  0.43374000  0.21791300  0.66029800  1
loop_
_geom_bond_atom_site_label_1
_geom_bond_atom_site_label_2
_geom_bond_distance
_geom_bond_site_symmetry_2
Mg0 Si3 2.641385 1_455
Mg0 Si4 2.704199 1_454
Mg0 Si0 2.787679 1_555
Mg0 Si1 2.878191 1_555
Mg0 Si1 2.978724 1_455
Mg1 Si1 2.722389 1_546
Mg1 Si2 2.804642 1_645
Mg1 Si4 2.826364 1_555
Mg1 Si3 2.862484 1_546
Mg2 Si5 2.715870 1_565
Mg2 Si3 2.762818 1_555
Mg2 Si4 2.810736 1_555
Mg2 Si2 2.835065 1_655
Mg2 Si2 2.963349 1_555
Mg2 Si0 3.016396 1_665
Mg3 Si3 2.704843 1_545
Mg3 Si1 2.713353 1_555
Mg3 Si5 2.836465 1_555
Mg3 Si0 2.888676 1_555
Mg3 Si0 3.106774 1_655
Mg4 Si2 2.730702 1_555
Mg4 Si5 2.731036 1_555
Mg4 Si4 2.755046 1_555
Mg4 Si4 2.856171 1_455
Mg4 Si1 2.878816 1_556
Mg5 Si0 2.702580 1_565
Mg5 Si5 2.794462 1_555
Mg5 Si3 2.969349 1_455
Mg5 Si1 2.970453 1_555
Mg5 Si2 3.004450 1_555
Mg5 Si3 3.066970 1_555
Mg6 Si0 2.710267 1_655
Mg6 Si3 2.801122 1_555
Mg6 Si4 2.882804 1_555
Mg6 Si5 2.895988 1_555
Mg6 Si5 3.054290 1_655
Mg7 Si1 2.826532 1_545
Mg7 Si0 2.909356 1_555
Mg7 Si3 2.929020 1_445
Mg7 Si2 3.042864 1_544
Si0 Si2 2.525693 1_545
Si0 Si5 2.738471 1_555
Si0 Si3 2.926497 1_445
Si1 Si4 2.539024 1_554
Si1 Si3 2.836826 1_555
Si2 Si5 2.494935 1_565
