# generated using pymatgen
data_Eu3Sb
_symmetry_space_group_name_H-M   'P 1'
_cell_length_a   7.23494461
_cell_length_b   7.23494461
_cell_length_c   5.77652900
_cell_angle_alpha   90.00000000
_cell_angle_beta   90.00000000
_cell_angle_gamma   120.00000555
_symmetry_Int_Tables_number   1
_chemical_formula_structural   Eu3Sb
_chemical_formula_sum   'Eu6 Sb2'
_cell_volume   261.85929008
_cell_formula_units_Z   2
loop_
 _symmetry_equiv_pos_site_id
 _symmetry_equiv_pos_as_xyz
  1  'x, y, z'
loop_
 _atom_site_type_symbol
 _atom_site_label
 _atom_site_symmetry_multiplicity
 _atom_site_fract_x
 _atom_site_fract_y
 _atom_site_fract_z
 _atom_site_occupancy
  Eu  Eu0  1  0.17505300  0.35010600  0.25000000  1
  Eu  Eu1  1  0.64989400  0.82494700  0.25000000  1
  Eu  Eu2  1  0.17505300  0.82494700  0.25000000  1
  Eu  Eu3  1  0.82494700  0.64989400  0.75000000  1
  Eu  Eu4  1  0.35010600  0.17505300  0.75000000  1
  Eu  Eu5  1  0.82494700  0.17505300  0.75000000  1
  Sb  Sb0  1  0.33333300  0.66666700  0.75000000  1
  Sb  Sb1  1  0.66666700  0.33333300  0.25000000  1
loop_
_geom_bond_atom_site_label_1
_geom_bond_atom_site_label_2
_geom_bond_distance
_geom_bond_site_symmetry_2
Eu0 Sb0 3.503738 1_555
Eu0 Sb0 3.503738 1_554
Eu0 Sb1 3.618995 1_455
Eu0 Sb1 3.619002 1_555
Eu1 Sb0 3.503738 1_555
Eu1 Sb0 3.503738 1_554
Eu1 Sb1 3.618995 1_565
Eu1 Sb1 3.619002 1_555
Eu2 Sb0 3.503735 1_555
Eu2 Sb0 3.503735 1_554
Eu2 Sb1 3.618998 1_455
Eu2 Sb1 3.618998 1_565
Eu3 Sb1 3.503738 1_556
Eu3 Sb1 3.503738 1_555
Eu3 Sb0 3.618995 1_655
Eu3 Sb0 3.619002 1_555
Eu4 Sb1 3.503738 1_556
Eu4 Sb1 3.503738 1_555
Eu4 Sb0 3.618995 1_545
Eu4 Sb0 3.619002 1_555
Eu5 Sb1 3.503735 1_556
Eu5 Sb1 3.503735 1_555
Eu5 Sb0 3.618998 1_545
Eu5 Sb0 3.618998 1_655
