# generated using pymatgen
data_Zr5Sc5Ga6
_symmetry_space_group_name_H-M   'P 1'
_cell_length_a   8.06381211
_cell_length_b   8.06381211
_cell_length_c   5.85941300
_cell_angle_alpha   90.00000000
_cell_angle_beta   90.00000000
_cell_angle_gamma   119.69763164
_symmetry_Int_Tables_number   1
_chemical_formula_structural   Zr5Sc5Ga6
_chemical_formula_sum   'Zr5 Sc5 Ga6'
_cell_volume   330.96398008
_cell_formula_units_Z   1
loop_
 _symmetry_equiv_pos_site_id
 _symmetry_equiv_pos_as_xyz
  1  'x, y, z'
loop_
 _atom_site_type_symbol
 _atom_site_label
 _atom_site_symmetry_multiplicity
 _atom_site_fract_x
 _atom_site_fract_y
 _atom_site_fract_z
 _atom_site_occupancy
  Zr  Zr0  1  0.99981900  0.76201400  0.00000000  1
  Zr  Zr1  1  0.76201400  0.99981900  0.00000000  1
  Zr  Zr2  1  0.76166300  0.76166300  0.50000000  1
  Zr  Zr3  1  0.99904600  0.23463700  0.50000000  1
  Zr  Zr4  1  0.23463700  0.99904600  0.50000000  1
  Sc  Sc0  1  0.66740500  0.33324200  0.24984900  1
  Sc  Sc1  1  0.33324200  0.66740500  0.24984900  1
  Sc  Sc2  1  0.33324200  0.66740500  0.75015100  1
  Sc  Sc3  1  0.66740500  0.33324200  0.75015100  1
  Sc  Sc4  1  0.23900900  0.23900900  0.00000000  1
  Ga  Ga0  1  0.60520700  0.60520700  0.00000000  1
  Ga  Ga1  1  0.99835500  0.39711100  0.00000000  1
  Ga  Ga2  1  0.39711100  0.99835500  0.00000000  1
  Ga  Ga3  1  0.39926100  0.39926100  0.50000000  1
  Ga  Ga4  1  0.00064600  0.60194700  0.50000000  1
  Ga  Ga5  1  0.60194700  0.00064600  0.50000000  1
loop_
_geom_bond_atom_site_label_1
_geom_bond_atom_site_label_2
_geom_bond_distance
_geom_bond_site_symmetry_2
Ga0 Zr0 2.781672 1_555
Ga0 Zr1 2.781672 1_555
Ga0 Sc1 2.879967 1_555
Ga0 Sc2 2.879967 1_554
Ga0 Sc3 2.879967 1_554
Ga0 Sc0 2.879967 1_555
Ga0 Sc4 2.966437 1_555
Ga0 Zr2 3.192094 1_554
Ga0 Zr2 3.192094 1_555
Ga1 Sc4 2.800479 1_655
Ga1 Zr1 2.801071 1_545
Ga1 Sc3 2.858082 1_554
Ga1 Sc0 2.858082 1_555
Ga1 Sc1 2.890385 1_655
Ga1 Sc2 2.890385 1_654
Ga1 Zr0 2.936678 1_555
Ga1 Zr3 3.210446 1_555
Ga1 Zr3 3.210446 1_554
Ga2 Sc4 2.800479 1_565
Ga2 Zr0 2.801071 1_455
Ga2 Sc2 2.858082 1_554
Ga2 Sc1 2.858082 1_555
Ga2 Sc3 2.890385 1_564
Ga2 Sc0 2.890385 1_565
Ga2 Zr1 2.936678 1_555
Ga2 Zr4 3.210446 1_555
Ga2 Zr4 3.210446 1_554
Ga3 Zr3 2.816468 1_455
Ga3 Zr4 2.816468 1_545
Ga3 Sc0 2.871891 1_555
Ga3 Sc3 2.871891 1_555
Ga3 Sc2 2.871891 1_555
Ga3 Sc1 2.871891 1_555
Ga3 Zr2 2.935687 1_555
Ga3 Sc4 3.204428 1_556
Ga3 Sc4 3.204428 1_555
Ga4 Zr4 2.797718 1_555
Ga4 Zr2 2.798527 1_455
Ga4 Sc2 2.866597 1_555
Ga4 Sc1 2.866597 1_555
Ga4 Sc0 2.880119 1_455
Ga4 Sc3 2.880119 1_455
Ga4 Zr3 2.955548 1_455
Ga4 Zr0 3.202778 1_456
Ga4 Zr0 3.202778 1_455
Ga5 Zr3 2.797718 1_555
Ga5 Zr2 2.798527 1_545
Ga5 Sc3 2.866597 1_555
Ga5 Sc0 2.866597 1_555
Ga5 Sc1 2.880119 1_545
Ga5 Sc2 2.880119 1_545
Ga5 Zr4 2.955548 1_545
Ga5 Zr1 3.202778 1_546
Ga5 Zr1 3.202778 1_545
