# generated using pymatgen
data_Tb4MgAl2(FeO6)2
_symmetry_space_group_name_H-M   'P 1'
_cell_length_a   5.40606779
_cell_length_b   5.86653858
_cell_length_c   8.21601467
_cell_angle_alpha   94.57272150
_cell_angle_beta   85.01076509
_cell_angle_gamma   95.16656541
_symmetry_Int_Tables_number   1
_chemical_formula_structural   Tb4MgAl2(FeO6)2
_chemical_formula_sum   'Tb4 Mg1 Al2 Fe2 O12'
_cell_volume   257.84858828
_cell_formula_units_Z   1
loop_
 _symmetry_equiv_pos_site_id
 _symmetry_equiv_pos_as_xyz
  1  'x, y, z'
loop_
 _atom_site_type_symbol
 _atom_site_label
 _atom_site_symmetry_multiplicity
 _atom_site_fract_x
 _atom_site_fract_y
 _atom_site_fract_z
 _atom_site_occupancy
  Tb  Tb0  1  0.56974900  0.56424400  0.25491400  1
  Tb  Tb1  1  0.97689800  0.07420800  0.22075300  1
  Tb  Tb2  1  0.44772600  0.07145800  0.47090500  1
  Tb  Tb3  1  0.00060000  0.93399300  0.78525400  1
  Mg  Mg0  1  0.48971500  0.31984400  0.85704900  1
  Al  Al0  1  0.03340000  0.44395500  0.54303900  1
  Al  Al1  1  0.47235900  0.90984100  0.00400400  1
  Fe  Fe0  1  0.98589100  0.49206000  0.95135800  1
  Fe  Fe1  1  0.52720500  0.67523600  0.65791000  1
  O  O0  1  0.35026000  0.88629800  0.22366500  1
  O  O1  1  0.24430500  0.34145400  0.35628400  1
  O  O2  1  0.60308800  0.00305500  0.77647800  1
  O  O3  1  0.80922600  0.52720800  0.72993000  1
  O  O4  1  0.78242000  0.80197900  0.03914500  1
  O  O5  1  0.76783900  0.33611300  0.41986800  1
  O  O6  1  0.18752400  0.25085000  0.66751700  1
  O  O7  1  0.32856000  0.63291400  0.91373100  1
  O  O8  1  0.22894300  0.11375200  0.98327900  1
  O  O9  1  0.21398300  0.73123200  0.57077400  1
  O  O10  1  0.75682300  0.83595100  0.41425300  1
  O  O11  1  0.72348500  0.29244900  0.06167700  1
loop_
_geom_bond_atom_site_label_1
_geom_bond_atom_site_label_2
_geom_bond_distance
_geom_bond_site_symmetry_2
Mg0 O8 2.040450 1_555
Mg0 O2 2.050884 1_555
Mg0 O7 2.104842 1_555
Mg0 O11 2.213303 1_556
Mg0 O3 2.250467 1_555
Mg0 O6 2.341036 1_555
Al0 O5 1.863451 1_455
Al0 O9 1.877878 1_555
Al0 O6 1.877895 1_555
Al0 O1 1.920409 1_555
Al0 O3 1.930894 1_455
Al1 O7 1.863991 1_554
Al1 O0 1.878290 1_555
Al1 O8 1.883251 1_564
Al1 O4 1.896783 1_555
Al1 O2 2.038774 1_564
Al1 O11 2.549365 1_565
Fe0 O11 1.962554 1_556
Fe0 O7 1.968638 1_655
Fe0 O3 2.159132 1_555
Fe0 O4 2.246986 1_556
Fe1 O9 1.958633 1_555
Fe1 O3 1.976374 1_555
Fe1 O2 2.108204 1_565
Fe1 O7 2.296771 1_555
Fe1 O10 2.468875 1_555
O0 Tb2 2.305454 1_565
O0 Tb0 2.361690 1_555
O0 Tb1 2.388134 1_465
O1 Tb0 2.236483 1_555
O1 Tb2 2.310145 1_555
O1 Tb1 2.319744 1_455
O2 Tb3 2.230666 1_645
O2 Tb2 2.785255 1_555
O3 Tb3 2.536955 1_655
O4 Tb1 2.339390 1_565
O4 Tb3 2.451001 1_654
O4 Tb0 2.482052 1_555
O5 Tb2 2.252757 1_555
O5 Tb0 2.361032 1_555
O5 Tb1 2.429964 1_555
O6 Tb3 2.278288 1_545
O6 Tb2 2.301308 1_555
O8 Tb3 2.263691 1_545
O8 Tb1 2.295648 1_456
O9 Tb3 2.325986 1_555
O9 Tb2 2.424949 1_565
O10 Tb0 2.210118 1_555
O10 Tb2 2.257368 1_565
O10 Tb1 2.371171 1_565
O11 Tb0 2.315010 1_555
O11 Tb1 2.473530 1_555
