# generated using pymatgen
data_LiIn4(HgO4)2
_symmetry_space_group_name_H-M   'P 1'
_cell_length_a   6.58512856
_cell_length_b   6.87975880
_cell_length_c   6.58512856
_cell_angle_alpha   61.41704060
_cell_angle_beta   60.01702150
_cell_angle_gamma   61.41704060
_symmetry_Int_Tables_number   1
_chemical_formula_structural   LiIn4(HgO4)2
_chemical_formula_sum   'Li1 In4 Hg2 O8'
_cell_volume   215.38827265
_cell_formula_units_Z   1
loop_
 _symmetry_equiv_pos_site_id
 _symmetry_equiv_pos_as_xyz
  1  'x, y, z'
loop_
 _atom_site_type_symbol
 _atom_site_label
 _atom_site_symmetry_multiplicity
 _atom_site_fract_x
 _atom_site_fract_y
 _atom_site_fract_z
 _atom_site_occupancy
  Li  Li0  1  0.00103300  0.50000100  0.00103300  1
  In  In0  1  0.50008600  0.50000100  0.00007500  1
  In  In1  1  0.49997000  0.00003800  0.49997000  1
  In  In2  1  0.00007500  0.50000100  0.50008600  1
  In  In3  1  0.49995400  0.50003400  0.49995400  1
  Hg  Hg0  1  0.14624500  0.06052400  0.14624500  1
  Hg  Hg1  1  0.85339800  0.93945300  0.85339800  1
  O  O0  1  0.25821000  0.27134900  0.25821000  1
  O  O1  1  0.71203900  0.27101600  0.25854800  1
  O  O2  1  0.74171000  0.72875400  0.28784500  1
  O  O3  1  0.72711100  0.31872200  0.72711100  1
  O  O4  1  0.27293000  0.68125300  0.27293000  1
  O  O5  1  0.25854800  0.27101600  0.71203900  1
  O  O6  1  0.28784500  0.72875400  0.74171000  1
  O  O7  1  0.74147200  0.72908400  0.74147200  1
loop_
_geom_bond_atom_site_label_1
_geom_bond_atom_site_label_2
_geom_bond_distance
_geom_bond_site_symmetry_2
Li0 O0 2.445213 1_555
Li0 O2 2.451333 1_455
Li0 O6 2.451333 1_554
Li0 O5 2.462930 1_554
Li0 O1 2.462930 1_455
Li0 O7 2.468132 1_454
In0 O4 2.166488 1_555
In0 O3 2.167152 1_554
In0 O1 2.243144 1_555
In0 O0 2.243601 1_555
In0 O7 2.243674 1_554
In0 O6 2.243819 1_554
In1 O7 2.321135 1_545
In1 O1 2.321493 1_555
In1 O5 2.321493 1_555
In1 O2 2.323337 1_545
In1 O6 2.323337 1_545
In1 O0 2.323683 1_555
In2 O4 2.166488 1_555
In2 O3 2.167152 1_455
In2 O5 2.243144 1_555
In2 O0 2.243601 1_555
In2 O7 2.243674 1_455
In2 O2 2.243819 1_455
In3 O4 2.165924 1_555
In3 O3 2.167200 1_555
In3 O5 2.243250 1_555
In3 O1 2.243250 1_555
In3 O6 2.243406 1_555
In3 O2 2.243406 1_555
Hg0 O4 2.174896 1_545
Hg0 O1 2.401846 1_455
Hg0 O5 2.401846 1_554
Hg0 O0 2.404339 1_555
Hg0 Li0 2.520180 1_555
Hg1 O3 2.174883 1_565
Hg1 O7 2.401142 1_555
Hg1 O6 2.403288 1_655
Hg1 O2 2.403288 1_556
Hg1 Li0 2.520032 1_656
