# generated using pymatgen
data_Ca6AlCr3(SiO4)6
_symmetry_space_group_name_H-M   'P 1'
_cell_length_a   10.47035866
_cell_length_b   10.47035866
_cell_length_c   12.10744863
_cell_angle_alpha   54.86218503
_cell_angle_beta   54.86218503
_cell_angle_gamma   70.65123976
_symmetry_Int_Tables_number   1
_chemical_formula_structural   Ca6AlCr3(SiO4)6
_chemical_formula_sum   'Ca12 Al2 Cr6 Si12 O48'
_cell_volume   887.64260664
_cell_formula_units_Z   2
loop_
 _symmetry_equiv_pos_site_id
 _symmetry_equiv_pos_as_xyz
  1  'x, y, z'
loop_
 _atom_site_type_symbol
 _atom_site_label
 _atom_site_symmetry_multiplicity
 _atom_site_fract_x
 _atom_site_fract_y
 _atom_site_fract_z
 _atom_site_occupancy
  Ca  Ca0  1  0.62503000  0.37497000  0.75000000  1
  Ca  Ca1  1  0.87543000  0.12457000  0.25000000  1
  Ca  Ca2  1  0.75025400  0.74978600  0.62518200  1
  Ca  Ca3  1  0.25021400  0.24974600  0.87481800  1
  Ca  Ca4  1  0.62519800  0.12521900  0.62500500  1
  Ca  Ca5  1  0.87478100  0.37480200  0.87499500  1
  Ca  Ca6  1  0.37497000  0.62503000  0.25000000  1
  Ca  Ca7  1  0.12457000  0.87543000  0.75000000  1
  Ca  Ca8  1  0.24974600  0.25021400  0.37481800  1
  Ca  Ca9  1  0.74978600  0.75025400  0.12518200  1
  Ca  Ca10  1  0.37480200  0.87478100  0.37499500  1
  Ca  Ca11  1  0.12521900  0.62519800  0.12500500  1
  Al  Al0  1  0.00000000  0.50000000  0.50000000  1
  Al  Al1  1  0.50000000  0.00000000  0.00000000  1
  Cr  Cr0  1  0.50000000  0.00000000  0.50000000  1
  Cr  Cr1  1  0.00000000  0.50000000  0.00000000  1
  Cr  Cr2  1  0.50000000  0.50000000  0.00000000  1
  Cr  Cr3  1  0.00000000  0.00000000  0.50000000  1
  Cr  Cr4  1  0.50000000  0.50000000  0.50000000  1
  Cr  Cr5  1  0.00000000  0.00000000  0.00000000  1
  Si  Si0  1  0.37468400  0.62531600  0.75000000  1
  Si  Si1  1  0.12693800  0.87306200  0.25000000  1
  Si  Si2  1  0.74785800  0.75202600  0.87618300  1
  Si  Si3  1  0.24797400  0.25214200  0.62381700  1
  Si  Si4  1  0.87646100  0.37579700  0.37564800  1
  Si  Si5  1  0.62420300  0.12353900  0.12435200  1
  Si  Si6  1  0.62531600  0.37468400  0.25000000  1
  Si  Si7  1  0.87306200  0.12693800  0.75000000  1
  Si  Si8  1  0.25214200  0.24797400  0.12381700  1
  Si  Si9  1  0.75202600  0.74785800  0.37618300  1
  Si  Si10  1  0.12353900  0.62420300  0.62435200  1
  Si  Si11  1  0.37579700  0.87646100  0.87564800  1
  O  O0  1  0.31082400  0.88620200  0.19669400  1
  O  O1  1  0.11379800  0.68917600  0.30330600  1
  O  O2  1  0.19421700  0.61633500  0.89296300  1
  O  O3  1  0.38366500  0.80578300  0.60703700  1
  O  O4  1  0.19634900  0.39484800  0.49238900  1
  O  O5  1  0.29635800  0.10810500  0.58637700  1
  O  O6  1  0.89189500  0.70364200  0.91362300  1
  O  O7  1  0.60515200  0.80365100  0.00761100  1
  O  O8  1  0.49130100  0.08658800  0.30512800  1
  O  O9  1  0.58337400  0.99195500  0.11299700  1
  O  O10  1  0.91341200  0.50869900  0.19487200  1
  O  O11  1  0.00804500  0.41662600  0.38700300  1
  O  O12  1  0.68917600  0.11379800  0.80330600  1
  O  O13  1  0.88620200  0.31082400  0.69669400  1
  O  O14  1  0.80578300  0.38366500  0.10703700  1
  O  O15  1  0.61633500  0.19421700  0.39296300  1
  O  O16  1  0.80365100  0.60515200  0.50761100  1
  O  O17  1  0.70364200  0.89189500  0.41362300  1
  O  O18  1  0.10810500  0.29635800  0.08637700  1
  O  O19  1  0.39484800  0.19634900  0.99238900  1
  O  O20  1  0.50869900  0.91341200  0.69487200  1
  O  O21  1  0.41662600  0.00804500  0.88700300  1
  O  O22  1  0.08658800  0.49130100  0.80512800  1
  O  O23  1  0.99195500  0.58337400  0.61299700  1
  O  O24  1  0.79634100  0.89316300  0.69441700  1
  O  O25  1  0.70286200  0.60755800  0.88444500  1
  O  O26  1  0.10683700  0.20365900  0.80558300  1
  O  O27  1  0.39244200  0.29713800  0.61555500  1
  O  O28  1  0.50963400  0.58723300  0.79647100  1
  O  O29  1  0.41276700  0.49036600  0.70352900  1
  O  O30  1  0.08765200  0.00764500  0.10770300  1
  O  O31  1  0.99235500  0.91234800  0.39229700  1
  O  O32  1  0.69440800  0.38388100  0.50935700  1
  O  O33  1  0.88449900  0.19487700  0.41275200  1
  O  O34  1  0.80512300  0.11550100  0.08724800  1
  O  O35  1  0.61611900  0.30559200  0.99064300  1
  O  O36  1  0.20365900  0.10683700  0.30558300  1
  O  O37  1  0.29713800  0.39244200  0.11555500  1
  O  O38  1  0.89316300  0.79634100  0.19441700  1
  O  O39  1  0.60755800  0.70286200  0.38444500  1
  O  O40  1  0.49036600  0.41276700  0.20352900  1
  O  O41  1  0.58723300  0.50963400  0.29647100  1
  O  O42  1  0.91234800  0.99235500  0.89229700  1
  O  O43  1  0.00764500  0.08765200  0.60770300  1
  O  O44  1  0.30559200  0.61611900  0.49064300  1
  O  O45  1  0.11550100  0.80512300  0.58724800  1
  O  O46  1  0.19487700  0.88449900  0.91275200  1
  O  O47  1  0.38388100  0.69440800  0.00935700  1
loop_
_geom_bond_atom_site_label_1
_geom_bond_atom_site_label_2
_geom_bond_distance
_geom_bond_site_symmetry_2
Ca0 O28 2.365015 1_555
Ca0 O29 2.365015 1_555
Ca0 O13 2.365562 1_555
Ca0 O12 2.365562 1_555
Ca0 O35 2.514170 1_555
Ca0 O32 2.514170 1_555
Ca0 O19 2.538930 1_555
Ca0 O16 2.538930 1_555
Ca1 O30 2.371308 1_655
Ca1 O31 2.371308 1_545
Ca1 O15 2.371535 1_555
Ca1 O14 2.371535 1_555
Ca1 O18 2.518212 1_655
Ca1 O17 2.518212 1_545
Ca1 O33 2.522949 1_555
Ca1 O34 2.522949 1_555
Ca2 O24 2.362906 1_555
Ca2 O17 2.363006 1_555
Ca2 O25 2.373426 1_555
Ca2 O16 2.374124 1_555
Ca2 O28 2.511775 1_555
Ca2 O20 2.525878 1_555
Ca2 O31 2.525932 1_555
Ca2 O23 2.531084 1_555
Ca3 O26 2.362906 1_555
Ca3 O18 2.363006 1_556
Ca3 O27 2.373426 1_555
Ca3 O19 2.374124 1_555
Ca3 O29 2.511775 1_555
Ca3 O22 2.525878 1_555
Ca3 O30 2.525932 1_556
Ca3 O21 2.531084 1_555
Ca4 O20 2.359444 1_545
Ca4 O32 2.363872 1_555
Ca4 O33 2.372873 1_555
Ca4 O21 2.378705 1_555
Ca4 O24 2.513717 1_545
Ca4 O15 2.518501 1_555
Ca4 O27 2.523784 1_555
Ca4 O12 2.537258 1_555
Ca5 O22 2.359444 1_655
Ca5 O35 2.363872 1_555
Ca5 O34 2.372873 1_556
Ca5 O23 2.378705 1_555
Ca5 O26 2.513717 1_655
Ca5 O14 2.518501 1_556
Ca5 O25 2.523784 1_555
Ca5 O13 2.537258 1_555
Ca6 O41 2.365015 1_555
Ca6 O40 2.365015 1_555
Ca6 O0 2.365562 1_555
Ca6 O1 2.365562 1_555
Ca6 O44 2.514170 1_555
Ca6 O47 2.514170 1_555
Ca6 O4 2.538930 1_555
Ca6 O7 2.538930 1_555
Ca7 O43 2.371308 1_565
Ca7 O42 2.371308 1_455
Ca7 O2 2.371535 1_555
Ca7 O3 2.371535 1_555
Ca7 O5 2.518212 1_565
Ca7 O6 2.518212 1_455
Ca7 O46 2.522949 1_555
Ca7 O45 2.522949 1_555
Ca8 O36 2.362906 1_555
Ca8 O5 2.363006 1_555
Ca8 O37 2.373426 1_555
Ca8 O4 2.374124 1_555
Ca8 O40 2.511775 1_555
Ca8 O8 2.525878 1_555
Ca8 O43 2.525932 1_555
Ca8 O11 2.531084 1_555
Ca9 O38 2.362906 1_555
Ca9 O6 2.363006 1_554
Ca9 O39 2.373426 1_555
Ca9 O7 2.374124 1_555
Ca9 O41 2.511775 1_555
Ca9 O10 2.525878 1_555
Ca9 O42 2.525932 1_554
Ca9 O9 2.531084 1_555
Ca10 O8 2.359444 1_565
Ca10 O44 2.363872 1_555
Ca10 O45 2.372873 1_555
Ca10 O9 2.378705 1_555
Ca10 O36 2.513717 1_565
Ca10 O3 2.518501 1_555
Ca10 O39 2.523784 1_555
Ca10 O0 2.537258 1_555
Ca11 O10 2.359444 1_455
Ca11 O47 2.363872 1_555
Ca11 O46 2.372873 1_554
Ca11 O11 2.378705 1_555
Ca11 O38 2.513717 1_455
Ca11 O2 2.518501 1_554
Ca11 O37 2.523784 1_555
Ca11 O1 2.537258 1_555
Al0 O23 1.958117 1_455
Al0 O11 1.958117 1_555
Al0 O4 1.961128 1_555
Al0 O16 1.961128 1_455
Al0 O13 1.970339 1_455
Al0 O1 1.970339 1_555
Al1 O9 1.958117 1_545
Al1 O21 1.958117 1_554
Al1 O7 1.961128 1_545
Al1 O19 1.961128 1_554
Al1 O0 1.970339 1_545
Al1 O12 1.970339 1_554
Cr0 O15 2.022163 1_555
Cr0 O3 2.022163 1_545
Cr0 O5 2.029233 1_555
Cr0 O17 2.029233 1_545
Cr0 O20 2.031606 1_545
Cr0 O8 2.031606 1_555
Cr1 O2 2.022163 1_554
Cr1 O14 2.022163 1_455
Cr1 O18 2.029233 1_555
Cr1 O6 2.029233 1_454
Cr1 O10 2.031606 1_455
Cr1 O22 2.031606 1_554
Cr2 O25 2.021859 1_554
Cr2 O37 2.021859 1_555
Cr2 O40 2.025071 1_555
Cr2 O28 2.025071 1_554
Cr2 O47 2.025185 1_555
Cr2 O35 2.025185 1_554
Cr3 O43 2.023735 1_555
Cr3 O31 2.023735 1_445
Cr3 O45 2.023873 1_545
Cr3 O33 2.023873 1_455
Cr3 O36 2.027572 1_555
Cr3 O24 2.027572 1_445
Cr4 O39 2.021859 1_555
Cr4 O27 2.021859 1_555
Cr4 O29 2.025071 1_555
Cr4 O41 2.025071 1_555
Cr4 O32 2.025185 1_555
Cr4 O44 2.025185 1_555
Cr5 O30 2.023735 1_555
Cr5 O42 2.023735 1_444
Cr5 O34 2.023873 1_455
Cr5 O46 2.023873 1_544
Cr5 O26 2.027572 1_554
Cr5 O38 2.027572 1_445
O0 Si1 1.668951 1_555
O1 Si1 1.668951 1_555
O2 Si0 1.655562 1_555
O3 Si0 1.655562 1_555
O4 Si3 1.665802 1_555
O5 Si3 1.659179 1_555
O6 Si2 1.659179 1_555
O7 Si2 1.665802 1_554
O8 Si5 1.659138 1_555
O9 Si5 1.666059 1_565
O10 Si4 1.659138 1_555
O11 Si4 1.666059 1_455
O12 Si7 1.668951 1_555
O13 Si7 1.668951 1_555
O14 Si6 1.655562 1_555
O15 Si6 1.655562 1_555
O16 Si9 1.665802 1_555
O17 Si9 1.659179 1_555
O18 Si8 1.659179 1_555
O19 Si8 1.665802 1_556
O20 Si11 1.659138 1_555
O21 Si11 1.666059 1_545
O22 Si10 1.659138 1_555
O23 Si10 1.666059 1_655
O24 Si2 1.658995 1_555
O25 Si2 1.662473 1_555
O26 Si3 1.658995 1_555
O27 Si3 1.662473 1_555
O28 Si0 1.660000 1_555
O29 Si0 1.660000 1_555
O30 Si1 1.661388 1_545
O31 Si1 1.661388 1_655
O32 Si4 1.661358 1_555
O33 Si4 1.659993 1_555
O34 Si5 1.659993 1_555
O35 Si5 1.661358 1_556
O36 Si8 1.658995 1_555
O37 Si8 1.662473 1_555
O38 Si9 1.658995 1_555
O39 Si9 1.662473 1_555
O40 Si6 1.660000 1_555
O41 Si6 1.660000 1_555
O42 Si7 1.661388 1_565
O43 Si7 1.661388 1_455
O44 Si10 1.661358 1_555
O45 Si10 1.659993 1_555
O46 Si11 1.659993 1_555
O47 Si11 1.661358 1_554
