# generated using pymatgen
data_KPrSiSe4
_symmetry_space_group_name_H-M   'P 1'
_cell_length_a   7.08219400
_cell_length_b   6.87010500
_cell_length_c   9.17922785
_cell_angle_alpha   72.41942893
_cell_angle_beta   90.00000000
_cell_angle_gamma   90.00000000
_symmetry_Int_Tables_number   1
_chemical_formula_structural   KPrSiSe4
_chemical_formula_sum   'K2 Pr2 Si2 Se8'
_cell_volume   425.75897802
_cell_formula_units_Z   2
loop_
 _symmetry_equiv_pos_site_id
 _symmetry_equiv_pos_as_xyz
  1  'x, y, z'
loop_
 _atom_site_type_symbol
 _atom_site_label
 _atom_site_symmetry_multiplicity
 _atom_site_fract_x
 _atom_site_fract_y
 _atom_site_fract_z
 _atom_site_occupancy
  K  K0  1  0.29574700  0.76236600  0.93492300  1
  K  K1  1  0.79574700  0.23763400  0.06507700  1
  Pr  Pr0  1  0.30630600  0.72872500  0.44964400  1
  Pr  Pr1  1  0.80630600  0.27127500  0.55035600  1
  Si  Si0  1  0.77300000  0.71831600  0.67892700  1
  Si  Si1  1  0.27300000  0.28168400  0.32107300  1
  Se  Se0  1  0.03858000  0.52451100  0.27017300  1
  Se  Se1  1  0.27055400  0.08540900  0.16234000  1
  Se  Se2  1  0.77055400  0.91459100  0.83766000  1
  Se  Se3  1  0.54143500  0.47918300  0.28699000  1
  Se  Se4  1  0.04143500  0.52081700  0.71301000  1
  Se  Se5  1  0.22236800  0.08880900  0.56955500  1
  Se  Se6  1  0.72236800  0.91119100  0.43044500  1
  Se  Se7  1  0.53858000  0.47548900  0.72982700  1
loop_
_geom_bond_atom_site_label_1
_geom_bond_atom_site_label_2
_geom_bond_distance
_geom_bond_site_symmetry_2
K0 Se5 3.464678 1_565
K0 Se1 3.480476 1_566
K0 Se4 3.491289 1_555
K0 Se0 3.524150 1_556
K0 Se7 3.553552 1_555
K0 Se2 3.554482 1_555
K0 Se3 3.668570 1_556
K0 Se2 3.893787 1_455
K1 Se6 3.464678 1_545
K1 Se2 3.480476 1_544
K1 Se3 3.491289 1_555
K1 Se7 3.524150 1_554
K1 Se0 3.553552 1_655
K1 Se1 3.554482 1_655
K1 Se4 3.668570 1_654
K1 Se1 3.893787 1_555
Pr0 Se1 3.019921 1_565
Pr0 Se4 3.052442 1_555
Pr0 Se5 3.054432 1_565
Pr0 Se3 3.080180 1_555
Pr0 Se7 3.105532 1_555
Pr0 Se0 3.110247 1_555
Pr0 Se6 3.186166 1_555
Pr1 Se2 3.019921 1_545
Pr1 Se3 3.052442 1_555
Pr1 Se6 3.054432 1_545
Pr1 Se4 3.080180 1_655
Pr1 Se0 3.105532 1_655
Pr1 Se7 3.110247 1_555
Pr1 Se5 3.186166 1_655
Se0 Si1 2.299300 1_555
Se1 Si1 2.264602 1_555
Se2 Si0 2.264602 1_555
Se3 Si1 2.301450 1_555
Se4 Si0 2.301450 1_455
Se5 Si1 2.293691 1_555
Se6 Si0 2.293691 1_555
Se7 Si0 2.299300 1_555
