# generated using pymatgen
data_CdCu4H14(SO9)2
_symmetry_space_group_name_H-M   'P 1'
_cell_length_a   22.32938800
_cell_length_b   5.61174500
_cell_length_c   6.19965822
_cell_angle_alpha   88.06828093
_cell_angle_beta   90.00000000
_cell_angle_gamma   90.00000000
_symmetry_Int_Tables_number   1
_chemical_formula_structural   CdCu4H14(SO9)2
_chemical_formula_sum   'Cd2 Cu8 H28 S4 O36'
_cell_volume   776.41804416
_cell_formula_units_Z   2
loop_
 _symmetry_equiv_pos_site_id
 _symmetry_equiv_pos_as_xyz
  1  'x, y, z'
loop_
 _atom_site_type_symbol
 _atom_site_label
 _atom_site_symmetry_multiplicity
 _atom_site_fract_x
 _atom_site_fract_y
 _atom_site_fract_z
 _atom_site_occupancy
  Cd  Cd0  1  0.25000000  0.38490100  0.48238700  1
  Cd  Cd1  1  0.75000000  0.61509900  0.51761300  1
  Cu  Cu0  1  0.00082000  0.00037000  0.25119600  1
  Cu  Cu1  1  0.50082000  0.99963000  0.74880400  1
  Cu  Cu2  1  0.99918000  0.99963000  0.74880400  1
  Cu  Cu3  1  0.49918000  0.00037000  0.25119600  1
  Cu  Cu4  1  0.00000000  0.50000000  0.50000000  1
  Cu  Cu5  1  0.50000000  0.50000000  0.50000000  1
  Cu  Cu6  1  0.00000000  0.50000000  0.00000000  1
  Cu  Cu7  1  0.50000000  0.50000000  0.00000000  1
  H  H0  1  0.91757200  0.82385700  0.48141300  1
  H  H1  1  0.41757200  0.17614300  0.51858700  1
  H  H2  1  0.08242800  0.17614300  0.51858700  1
  H  H3  1  0.58242800  0.82385700  0.48141300  1
  H  H4  1  0.08032900  0.17940200  0.00568500  1
  H  H5  1  0.58032900  0.82059800  0.99431500  1
  H  H6  1  0.91967100  0.82059800  0.99431500  1
  H  H7  1  0.41967100  0.17940200  0.00568500  1
  H  H8  1  0.91410300  0.43540800  0.23842900  1
  H  H9  1  0.41410300  0.56459200  0.76157100  1
  H  H10  1  0.08589700  0.56459200  0.76157100  1
  H  H11  1  0.58589700  0.43540800  0.23842900  1
  H  H12  1  0.28599400  0.08403300  0.15018700  1
  H  H13  1  0.78599400  0.91596700  0.84981300  1
  H  H14  1  0.71400600  0.91596700  0.84981300  1
  H  H15  1  0.21400600  0.08403300  0.15018700  1
  H  H16  1  0.28603200  0.53209900  0.88690100  1
  H  H17  1  0.78603200  0.46790100  0.11309900  1
  H  H18  1  0.71396800  0.46790100  0.11309900  1
  H  H19  1  0.21396800  0.53209900  0.88690100  1
  H  H20  1  0.32570100  0.94211800  0.53341800  1
  H  H21  1  0.82570100  0.05788200  0.46658200  1
  H  H22  1  0.67429900  0.05788200  0.46658200  1
  H  H23  1  0.17429900  0.94211800  0.53341800  1
  H  H24  1  0.33076300  0.04364000  0.76393100  1
  H  H25  1  0.83076300  0.95636000  0.23606900  1
  H  H26  1  0.66923700  0.95636000  0.23606900  1
  H  H27  1  0.16923700  0.04364000  0.76393100  1
  S  S0  1  0.13769500  0.69391600  0.17764200  1
  S  S1  1  0.63769500  0.30608400  0.82235800  1
  S  S2  1  0.86230500  0.30608400  0.82235800  1
  S  S3  1  0.36230500  0.69391600  0.17764200  1
  O  O0  1  0.14957900  0.50020100  0.02583200  1
  O  O1  1  0.64957900  0.49979900  0.97416800  1
  O  O2  1  0.85042100  0.49979900  0.97416800  1
  O  O3  1  0.35042100  0.50020100  0.02583200  1
  O  O4  1  0.15249900  0.93150000  0.07395000  1
  O  O5  1  0.65249900  0.06850000  0.92605000  1
  O  O6  1  0.84750100  0.06850000  0.92605000  1
  O  O7  1  0.34750100  0.93150000  0.07395000  1
  O  O8  1  0.07306200  0.68874800  0.24068200  1
  O  O9  1  0.57306200  0.31125200  0.75931800  1
  O  O10  1  0.92693800  0.31125200  0.75931800  1
  O  O11  1  0.42693800  0.68874800  0.24068200  1
  O  O12  1  0.17474700  0.66100000  0.37976200  1
  O  O13  1  0.67474700  0.33900000  0.62023800  1
  O  O14  1  0.82525300  0.33900000  0.62023800  1
  O  O15  1  0.32525300  0.66100000  0.37976200  1
  O  O16  1  0.96179300  0.82584100  0.49511200  1
  O  O17  1  0.46179300  0.17415900  0.50488800  1
  O  O18  1  0.03820700  0.17415900  0.50488800  1
  O  O19  1  0.53820700  0.82584100  0.49511200  1
  O  O20  1  0.03606500  0.17595200  0.99855400  1
  O  O21  1  0.53606500  0.82404800  0.00144600  1
  O  O22  1  0.96393500  0.82404800  0.00144600  1
  O  O23  1  0.46393500  0.17595200  0.99855400  1
  O  O24  1  0.95666100  0.39351200  0.25294200  1
  O  O25  1  0.45666100  0.60648800  0.74705800  1
  O  O26  1  0.04333900  0.60648800  0.74705800  1
  O  O27  1  0.54333900  0.39351200  0.25294200  1
  O  O28  1  0.25000000  0.18209500  0.18187200  1
  O  O29  1  0.75000000  0.81790500  0.81812800  1
  O  O30  1  0.25000000  0.56545600  0.79449000  1
  O  O31  1  0.75000000  0.43454400  0.20551000  1
  O  O32  1  0.33119400  0.09351700  0.60982700  1
  O  O33  1  0.83119400  0.90648300  0.39017300  1
  O  O34  1  0.66880600  0.90648300  0.39017300  1
  O  O35  1  0.16880600  0.09351700  0.60982700  1
loop_
_geom_bond_atom_site_label_1
_geom_bond_atom_site_label_2
_geom_bond_distance
_geom_bond_site_symmetry_2
Cd0 O30 2.214219 1_555
Cd0 O28 2.215698 1_555
Cd0 O12 2.358508 1_555
Cd0 O15 2.358508 1_555
Cd0 O35 2.549106 1_555
Cd0 O32 2.549106 1_555
Cd1 O31 2.214219 1_555
Cd1 O29 2.215698 1_555
Cd1 O14 2.358508 1_555
Cd1 O13 2.358508 1_555
Cd1 O33 2.549106 1_555
Cd1 O34 2.549106 1_555
Cu0 O16 1.976249 1_445
Cu0 O20 1.984807 1_554
Cu0 O22 2.039149 1_445
Cu0 O18 2.055527 1_555
Cu0 O8 2.381636 1_545
Cu0 O24 2.416895 1_455
Cu1 O17 1.976249 1_565
Cu1 O21 1.984807 1_556
Cu1 O23 2.039149 1_565
Cu1 O19 2.055527 1_555
Cu1 O9 2.381636 1_565
Cu1 O25 2.416895 1_555
Cu2 O18 1.976249 1_665
Cu2 O22 1.984807 1_556
Cu2 O20 2.039149 1_665
Cu2 O16 2.055527 1_555
Cu2 O10 2.381636 1_565
Cu2 O26 2.416895 1_655
Cu3 O19 1.976249 1_545
Cu3 O23 1.984807 1_554
Cu3 O21 2.039149 1_545
Cu3 O17 2.055527 1_555
Cu3 O11 2.381636 1_545
Cu3 O27 2.416895 1_555
Cu4 O26 1.923889 1_555
Cu4 O24 1.923889 1_455
Cu4 O18 2.017071 1_555
Cu4 O16 2.017071 1_455
Cu4 O10 2.500664 1_455
Cu4 O8 2.500664 1_555
Cu5 O25 1.923889 1_555
Cu5 O27 1.923889 1_555
Cu5 O17 2.017071 1_555
Cu5 O19 2.017071 1_555
Cu5 O9 2.500664 1_555
Cu5 O11 2.500664 1_555
Cu6 O26 1.920819 1_554
Cu6 O24 1.920819 1_455
Cu6 O20 1.989109 1_554
Cu6 O22 1.989109 1_455
Cu6 O10 2.473162 1_454
Cu6 O8 2.473162 1_555
Cu7 O25 1.920819 1_554
Cu7 O27 1.920819 1_555
Cu7 O23 1.989109 1_554
Cu7 O21 1.989109 1_555
Cu7 O9 2.473162 1_554
Cu7 O11 2.473162 1_555
H0 O16 0.991168 1_555
H1 O17 0.991168 1_555
H2 O18 0.991168 1_555
H3 O19 0.991168 1_555
H4 O20 0.989595 1_554
H5 O21 0.989595 1_556
H6 O22 0.989595 1_556
H7 O23 0.989595 1_554
H8 O24 0.982347 1_555
H9 O25 0.982347 1_555
H10 O26 0.982347 1_555
H11 O27 0.982347 1_555
H12 O28 0.997334 1_555
H12 O7 1.693997 1_545
H13 O29 0.997334 1_555
H13 O6 1.693997 1_565
H14 O29 0.997334 1_555
H14 O5 1.693997 1_565
H15 O28 0.997334 1_555
H15 O4 1.693997 1_545
H16 O30 1.001689 1_555
H16 O3 1.682469 1_556
H17 O31 1.001689 1_555
H17 O2 1.682469 1_554
H18 O31 1.001689 1_555
H18 O1 1.682469 1_554
H19 O30 1.001689 1_555
H19 O0 1.682469 1_556
H20 O32 0.994193 1_565
H21 O33 0.994193 1_545
H22 O34 0.994193 1_545
H23 O35 0.994193 1_565
H24 O32 0.986499 1_555
H25 O33 0.986499 1_555
H26 O34 0.986499 1_555
H27 O35 0.986499 1_555
O0 S0 1.485576 1_555
O1 S1 1.485576 1_555
O2 S2 1.485576 1_555
O3 S3 1.485576 1_555
O4 S0 1.497444 1_555
O5 S1 1.497444 1_555
O6 S2 1.497444 1_555
O7 S3 1.497444 1_555
O8 S0 1.495223 1_555
O9 S1 1.495223 1_555
O10 S2 1.495223 1_555
O11 S3 1.495223 1_555
O12 S0 1.507719 1_555
O13 S1 1.507719 1_555
O14 S2 1.507719 1_555
O15 S3 1.507719 1_555
