# generated using pymatgen
data_Al4Si2Ni13(SbO14)2
_symmetry_space_group_name_H-M   'P 1'
_cell_length_a   11.62761389
_cell_length_b   11.62761389
_cell_length_c   8.79156088
_cell_angle_alpha   87.50770190
_cell_angle_beta   87.50770190
_cell_angle_gamma   152.95714213
_symmetry_Int_Tables_number   1
_chemical_formula_structural   Al4Si2Ni13(SbO14)2
_chemical_formula_sum   'Al4 Si2 Ni13 Sb2 O28'
_cell_volume   530.99043112
_cell_formula_units_Z   1
loop_
 _symmetry_equiv_pos_site_id
 _symmetry_equiv_pos_as_xyz
  1  'x, y, z'
loop_
 _atom_site_type_symbol
 _atom_site_label
 _atom_site_symmetry_multiplicity
 _atom_site_fract_x
 _atom_site_fract_y
 _atom_site_fract_z
 _atom_site_occupancy
  Al  Al0  1  0.50958400  0.93898600  0.32768100  1
  Al  Al1  1  0.06101400  0.49041600  0.67231900  1
  Al  Al2  1  0.49041600  0.06101400  0.67231900  1
  Al  Al3  1  0.93898600  0.50958400  0.32768100  1
  Si  Si0  1  0.76316400  0.76316400  0.68988600  1
  Si  Si1  1  0.23683600  0.23683600  0.31011400  1
  Ni  Ni0  1  0.36000900  0.07234600  0.35913700  1
  Ni  Ni1  1  0.20743400  0.34606400  0.64766500  1
  Ni  Ni2  1  0.92765400  0.63999100  0.64086300  1
  Ni  Ni3  1  0.63999100  0.92765400  0.64086300  1
  Ni  Ni4  1  0.79256600  0.65393600  0.35233500  1
  Ni  Ni5  1  0.28725300  0.71274700  0.00000000  1
  Ni  Ni6  1  0.65393600  0.79256600  0.35233500  1
  Ni  Ni7  1  0.00000000  0.00000000  0.00000000  1
  Ni  Ni8  1  0.42797900  0.57202100  0.00000000  1
  Ni  Ni9  1  0.34606400  0.20743400  0.64766500  1
  Ni  Ni10  1  0.07234600  0.36000900  0.35913700  1
  Ni  Ni11  1  0.57202100  0.42797900  0.00000000  1
  Ni  Ni12  1  0.71274700  0.28725300  0.00000000  1
  Sb  Sb0  1  0.85976200  0.14023800  0.00000000  1
  Sb  Sb1  1  0.14023800  0.85976200  0.00000000  1
  O  O0  1  0.01718500  0.31500400  0.60042200  1
  O  O1  1  0.38220700  0.82735900  0.63460800  1
  O  O2  1  0.06605900  0.06605900  0.64458200  1
  O  O3  1  0.68959800  0.68959800  0.87967900  1
  O  O4  1  0.61779300  0.17264100  0.36539200  1
  O  O5  1  0.98281500  0.68499600  0.39957800  1
  O  O6  1  0.40659300  0.98680600  0.88243500  1
  O  O7  1  0.59340700  0.01319400  0.11756500  1
  O  O8  1  0.31040200  0.31040200  0.12032100  1
  O  O9  1  0.72587300  0.87468300  0.11858300  1
  O  O10  1  0.59206500  0.71232700  0.61650400  1
  O  O11  1  0.68499600  0.98281500  0.39957800  1
  O  O12  1  0.01319400  0.59340700  0.11756500  1
  O  O13  1  0.12531700  0.27412700  0.88141700  1
  O  O14  1  0.28767300  0.40793500  0.38349600  1
  O  O15  1  0.93394100  0.93394100  0.35541800  1
  O  O16  1  0.87468300  0.72587300  0.11858300  1
  O  O17  1  0.27412700  0.12531700  0.88141700  1
  O  O18  1  0.98680600  0.40659300  0.88243500  1
  O  O19  1  0.57703200  0.86411100  0.87765200  1
  O  O20  1  0.42296800  0.13588900  0.12234800  1
  O  O21  1  0.71232700  0.59206500  0.61650400  1
  O  O22  1  0.86411100  0.57703200  0.87765200  1
  O  O23  1  0.82735900  0.38220700  0.63460800  1
  O  O24  1  0.40793500  0.28767300  0.38349600  1
  O  O25  1  0.13588900  0.42296800  0.12234800  1
  O  O26  1  0.31500400  0.01718500  0.60042200  1
  O  O27  1  0.17264100  0.61779300  0.36539200  1
loop_
_geom_bond_atom_site_label_1
_geom_bond_atom_site_label_2
_geom_bond_distance
_geom_bond_site_symmetry_2
Al0 O4 1.760580 1_565
Al0 O11 1.762911 1_555
Al0 O27 1.767012 1_555
Al0 O7 1.820306 1_565
Al1 O23 1.760580 1_455
Al1 O0 1.762911 1_555
Al1 O1 1.767012 1_555
Al1 O18 1.820306 1_455
Al2 O1 1.760580 1_545
Al2 O26 1.762911 1_555
Al2 O23 1.767012 1_555
Al2 O6 1.820306 1_545
Al3 O27 1.760580 1_655
Al3 O5 1.762911 1_555
Al3 O4 1.767012 1_555
Al3 O12 1.820306 1_655
Ni0 O4 2.034864 1_555
Ni0 O5 2.045716 1_445
Ni0 O20 2.045892 1_555
Ni0 O24 2.048592 1_555
Ni0 O26 2.090995 1_555
Ni1 O2 1.944463 1_555
Ni1 O0 1.966295 1_555
Ni1 O10 2.019284 1_555
Ni1 O13 2.022798 1_555
Ni1 O14 2.291819 1_555
Ni2 O23 2.034864 1_555
Ni2 O26 2.045716 1_665
Ni2 O22 2.045892 1_555
Ni2 O21 2.048592 1_555
Ni2 O5 2.090995 1_555
Ni3 O1 2.034864 1_555
Ni3 O0 2.045716 1_665
Ni3 O19 2.045892 1_555
Ni3 O10 2.048592 1_555
Ni3 O11 2.090995 1_555
Ni4 O15 1.944463 1_555
Ni4 O5 1.966295 1_555
Ni4 O24 2.019284 1_555
Ni4 O16 2.022798 1_555
Ni4 O21 2.291819 1_555
Ni5 O7 2.103832 1_565
Ni5 O18 2.103832 1_454
Ni5 O19 2.136389 1_554
Ni5 O25 2.136389 1_555
Ni5 O6 2.204649 1_554
Ni5 O12 2.204649 1_555
Ni6 O15 1.944463 1_555
Ni6 O11 1.966295 1_555
Ni6 O14 2.019284 1_555
Ni6 O9 2.022798 1_555
Ni6 O10 2.291819 1_555
Ni7 O8 2.152097 1_555
Ni7 O3 2.152097 1_444
Ni7 O9 2.162247 1_445
Ni7 O16 2.162247 1_445
Ni7 O17 2.162247 1_554
Ni7 O13 2.162247 1_554
Ni8 O9 2.094902 1_555
Ni8 O13 2.094902 1_554
Ni8 O3 2.104258 1_554
Ni8 O8 2.104258 1_555
Ni8 O19 2.174954 1_554
Ni8 O25 2.174954 1_555
Ni9 O2 1.944463 1_555
Ni9 O26 1.966295 1_555
Ni9 O21 2.019284 1_555
Ni9 O17 2.022798 1_555
Ni9 O24 2.291819 1_555
Ni10 O27 2.034864 1_555
Ni10 O11 2.045716 1_445
Ni10 O25 2.045892 1_555
Ni10 O14 2.048592 1_555
Ni10 O0 2.090995 1_555
Ni11 O16 2.094902 1_555
Ni11 O17 2.094902 1_554
Ni11 O3 2.104258 1_554
Ni11 O8 2.104258 1_555
Ni11 O22 2.174954 1_554
Ni11 O20 2.174954 1_555
Ni12 O12 2.103832 1_655
Ni12 O6 2.103832 1_544
Ni12 O22 2.136389 1_554
Ni12 O20 2.136389 1_555
Ni12 O18 2.204649 1_554
Ni12 O7 2.204649 1_555
O2 Si0 1.620803 1_445
O3 Si0 1.641914 1_555
O6 Sb1 2.069164 1_556
O7 Sb0 2.069164 1_555
O8 Si1 1.641914 1_555
O9 Sb0 2.015127 1_565
O10 Si0 1.665402 1_555
O12 Sb1 2.069164 1_555
O13 Sb0 2.015127 1_456
O14 Si1 1.665402 1_555
O15 Si1 1.620803 1_665
O16 Sb1 2.015127 1_655
O17 Sb1 2.015127 1_546
O18 Sb0 2.069164 1_556
O19 Sb0 2.019606 1_566
O20 Sb1 2.019606 1_545
O21 Si0 1.665402 1_555
O22 Sb1 2.019606 1_656
O24 Si1 1.665402 1_555
O25 Sb0 2.019606 1_455
