# generated using pymatgen
data_UVS3
_symmetry_space_group_name_H-M   'P 1'
_cell_length_a   6.08649800
_cell_length_b   6.98295000
_cell_length_c   8.96812200
_cell_angle_alpha   90.00000000
_cell_angle_beta   90.00000000
_cell_angle_gamma   90.00000000
_symmetry_Int_Tables_number   1
_chemical_formula_structural   UVS3
_chemical_formula_sum   'U4 V4 S12'
_cell_volume   381.16053133
_cell_formula_units_Z   4
loop_
 _symmetry_equiv_pos_site_id
 _symmetry_equiv_pos_as_xyz
  1  'x, y, z'
loop_
 _atom_site_type_symbol
 _atom_site_label
 _atom_site_symmetry_multiplicity
 _atom_site_fract_x
 _atom_site_fract_y
 _atom_site_fract_z
 _atom_site_occupancy
  U  U0  1  0.55501500  0.38641500  0.75000000  1
  U  U1  1  0.44498500  0.61358500  0.25000000  1
  U  U2  1  0.05501500  0.11358500  0.25000000  1
  U  U3  1  0.94498500  0.88641500  0.75000000  1
  V  V0  1  0.00000000  0.50000000  0.00000000  1
  V  V1  1  0.00000000  0.50000000  0.50000000  1
  V  V2  1  0.50000000  0.00000000  0.50000000  1
  V  V3  1  0.50000000  0.00000000  0.00000000  1
  S  S0  1  0.83645200  0.18494300  0.56115600  1
  S  S1  1  0.16354800  0.81505700  0.06115600  1
  S  S2  1  0.33645200  0.31505700  0.06115600  1
  S  S3  1  0.66354800  0.68494300  0.56115600  1
  S  S4  1  0.83645200  0.18494300  0.93884400  1
  S  S5  1  0.16354800  0.81505700  0.43884400  1
  S  S6  1  0.33645200  0.31505700  0.43884400  1
  S  S7  1  0.66354800  0.68494300  0.93884400  1
  S  S8  1  0.85390200  0.45634300  0.25000000  1
  S  S9  1  0.14609800  0.54365700  0.75000000  1
  S  S10  1  0.35390200  0.04365700  0.75000000  1
  S  S11  1  0.64609800  0.95634300  0.25000000  1
loop_
_geom_bond_atom_site_label_1
_geom_bond_atom_site_label_2
_geom_bond_distance
_geom_bond_site_symmetry_2
S0 V1 2.476250 1_655
S0 V2 2.482375 1_555
S0 U3 2.765892 1_545
S0 U0 2.789576 1_555
S0 U2 3.131254 1_655
S1 V0 2.476250 1_555
S1 V3 2.482375 1_565
S1 U2 2.765892 1_565
S1 U1 2.789576 1_555
S1 U3 3.131254 1_454
S2 V3 2.476250 1_555
S2 V0 2.482375 1_555
S2 U1 2.765892 1_555
S2 U2 2.789576 1_555
S2 U0 3.131254 1_554
S3 V2 2.476250 1_565
S3 V1 2.482375 1_655
S3 U0 2.765892 1_555
S3 U3 2.789576 1_555
S3 U1 3.131254 1_555
S4 V0 2.476250 1_656
S4 V3 2.482375 1_556
S4 U3 2.765892 1_545
S4 U0 2.789576 1_555
S4 U2 3.131254 1_656
S5 V1 2.476250 1_555
S5 V2 2.482375 1_565
S5 U2 2.765892 1_565
S5 U1 2.789576 1_555
S5 U3 3.131254 1_455
S6 V2 2.476250 1_555
S6 V1 2.482375 1_555
S6 U1 2.765892 1_555
S6 U2 2.789576 1_555
S6 U0 3.131254 1_555
S7 V3 2.476250 1_566
S7 V0 2.482375 1_656
S7 U0 2.765892 1_555
S7 U3 2.789576 1_555
S7 U1 3.131254 1_556
S8 V1 2.431123 1_655
S8 V0 2.431123 1_655
S8 U2 2.688311 1_655
S8 U1 2.720316 1_555
S9 V1 2.431123 1_555
S9 V0 2.431123 1_556
S9 U3 2.688311 1_455
S9 U0 2.720316 1_555
S10 V3 2.431123 1_556
S10 V2 2.431123 1_555
S10 U0 2.688311 1_555
S10 U3 2.720316 1_445
S11 V3 2.431123 1_565
S11 V2 2.431123 1_565
S11 U1 2.688311 1_555
S11 U2 2.720316 1_665
