# generated using pymatgen
data_Zr2ZnTc
_symmetry_space_group_name_H-M   'P 1'
_cell_length_a   11.05346604
_cell_length_b   11.05346604
_cell_length_c   11.05346604
_cell_angle_alpha   123.69301359
_cell_angle_beta   119.28550067
_cell_angle_gamma   87.48363552
_symmetry_Int_Tables_number   1
_chemical_formula_structural   Zr2ZnTc
_chemical_formula_sum   'Zr2 Zn1 Tc1'
_cell_volume   930.65339565
_cell_formula_units_Z   1
loop_
 _symmetry_equiv_pos_site_id
 _symmetry_equiv_pos_as_xyz
  1  'x, y, z'
loop_
 _atom_site_type_symbol
 _atom_site_label
 _atom_site_symmetry_multiplicity
 _atom_site_fract_x
 _atom_site_fract_y
 _atom_site_fract_z
 _atom_site_occupancy
  Zr  Zr0  1  0.00000000  0.28431100  0.28431100  1
  Zr  Zr1  1  0.00000000  0.71568900  0.71568900  1
  Zn  Zn0  1  0.00000000  0.00000000  0.00000000  1
  Tc  Tc0  1  0.00000000  0.50000000  0.50000000  1
loop_
_geom_bond_atom_site_label_1
_geom_bond_atom_site_label_2
_geom_bond_distance
_geom_bond_site_symmetry_2
Zn0 Zr1 2.965600 1_544
Zn0 Zr0 2.965600 1_555
Tc0 Zr1 2.249815 1_555
Tc0 Zr0 2.249815 1_555
