# generated using pymatgen
data_K2Ru(NO2)5
_symmetry_space_group_name_H-M   'P 1'
_cell_length_a   12.69883600
_cell_length_b   7.20091200
_cell_length_c   12.77167813
_cell_angle_alpha   87.05921606
_cell_angle_beta   90.00000000
_cell_angle_gamma   90.00000000
_symmetry_Int_Tables_number   1
_chemical_formula_structural   K2Ru(NO2)5
_chemical_formula_sum   'K8 Ru4 N20 O40'
_cell_volume   1166.34512938
_cell_formula_units_Z   4
loop_
 _symmetry_equiv_pos_site_id
 _symmetry_equiv_pos_as_xyz
  1  'x, y, z'
loop_
 _atom_site_type_symbol
 _atom_site_label
 _atom_site_symmetry_multiplicity
 _atom_site_fract_x
 _atom_site_fract_y
 _atom_site_fract_z
 _atom_site_occupancy
  K  K0  1  0.63847800  0.27314700  0.28047200  1
  K  K1  1  0.13847800  0.72685300  0.21952800  1
  K  K2  1  0.36152200  0.72685300  0.71952800  1
  K  K3  1  0.86152200  0.27314700  0.78047200  1
  K  K4  1  0.96412000  0.24342100  0.37499300  1
  K  K5  1  0.46412000  0.75657900  0.12500700  1
  K  K6  1  0.03588000  0.75657900  0.62500700  1
  K  K7  1  0.53588000  0.24342100  0.87499300  1
  Ru  Ru0  1  0.28788700  0.25512500  0.39992800  1
  Ru  Ru1  1  0.78788700  0.74487500  0.10007200  1
  Ru  Ru2  1  0.71211300  0.74487500  0.60007200  1
  Ru  Ru3  1  0.21211300  0.25512500  0.89992800  1
  N  N0  1  0.40257700  0.21237900  0.48598400  1
  N  N1  1  0.90257700  0.78762100  0.01401600  1
  N  N2  1  0.59742300  0.78762100  0.51401600  1
  N  N3  1  0.09742300  0.21237900  0.98598400  1
  N  N4  1  0.35748200  0.09757400  0.27967000  1
  N  N5  1  0.85748200  0.90242600  0.22033000  1
  N  N6  1  0.64251800  0.90242600  0.72033000  1
  N  N7  1  0.14251800  0.09757400  0.77967000  1
  N  N8  1  0.21072000  0.40720000  0.52027100  1
  N  N9  1  0.71072000  0.59280000  0.97972900  1
  N  N10  1  0.78928000  0.59280000  0.47972900  1
  N  N11  1  0.28928000  0.40720000  0.02027100  1
  N  N12  1  0.21240900  0.00403700  0.45774100  1
  N  N13  1  0.71240900  0.99596300  0.04225900  1
  N  N14  1  0.78759100  0.99596300  0.54225900  1
  N  N15  1  0.28759100  0.00403700  0.95774100  1
  N  N16  1  0.36863100  0.50103300  0.33771800  1
  N  N17  1  0.86863100  0.49896700  0.16228200  1
  N  N18  1  0.63136900  0.49896700  0.66228200  1
  N  N19  1  0.13136900  0.50103300  0.83771800  1
  O  O0  1  0.17825700  0.32408700  0.31685600  1
  O  O1  1  0.67825700  0.67591300  0.18314400  1
  O  O2  1  0.82174300  0.67591300  0.68314400  1
  O  O3  1  0.32174300  0.32408700  0.81685600  1
  O  O4  1  0.45447000  0.06902800  0.27776100  1
  O  O5  1  0.95447000  0.93097200  0.22223900  1
  O  O6  1  0.54553000  0.93097200  0.72223900  1
  O  O7  1  0.04553000  0.06902800  0.77776100  1
  O  O8  1  0.29893300  0.03099100  0.21307900  1
  O  O9  1  0.79893300  0.96900900  0.28692100  1
  O  O10  1  0.70106700  0.96900900  0.78692100  1
  O  O11  1  0.20106700  0.03099100  0.71307900  1
  O  O12  1  0.46556300  0.49129100  0.31904900  1
  O  O13  1  0.96556300  0.50870900  0.18095100  1
  O  O14  1  0.53443700  0.50870900  0.68095100  1
  O  O15  1  0.03443700  0.49129100  0.81904900  1
  O  O16  1  0.32074500  0.64974900  0.31741000  1
  O  O17  1  0.82074500  0.35025100  0.18259000  1
  O  O18  1  0.67925500  0.35025100  0.68259000  1
  O  O19  1  0.17925500  0.64974900  0.81741000  1
  O  O20  1  0.26350000  0.47383200  0.59109200  1
  O  O21  1  0.76350000  0.52616800  0.90890800  1
  O  O22  1  0.73650000  0.52616800  0.40890800  1
  O  O23  1  0.23650000  0.47383200  0.09109200  1
  O  O24  1  0.11280900  0.42747500  0.51659200  1
  O  O25  1  0.61280900  0.57252500  0.98340800  1
  O  O26  1  0.88719100  0.57252500  0.48340800  1
  O  O27  1  0.38719100  0.42747500  0.01659200  1
  O  O28  1  0.26411000  0.89099500  0.51395700  1
  O  O29  1  0.76411000  0.10900500  0.98604300  1
  O  O30  1  0.73589000  0.10900500  0.48604300  1
  O  O31  1  0.23589000  0.89099500  0.01395700  1
  O  O32  1  0.11833400  0.96986700  0.43514100  1
  O  O33  1  0.61833400  0.03013300  0.06485900  1
  O  O34  1  0.88166600  0.03013300  0.56485900  1
  O  O35  1  0.38166600  0.96986700  0.93514100  1
  O  O36  1  0.47823500  0.20149700  0.53811600  1
  O  O37  1  0.97823500  0.79850300  0.96188400  1
  O  O38  1  0.52176500  0.79850300  0.46188400  1
  O  O39  1  0.02176500  0.20149700  0.03811600  1
loop_
_geom_bond_atom_site_label_1
_geom_bond_atom_site_label_2
_geom_bond_distance
_geom_bond_site_symmetry_2
K0 O17 2.675279 1_555
K0 O12 2.758859 1_555
K0 O4 2.761696 1_555
K0 O22 2.804719 1_555
K0 O9 2.989392 1_545
K0 O30 3.082537 1_555
K0 O1 3.137204 1_555
K0 O33 3.347416 1_555
K1 O16 2.675279 1_555
K1 O13 2.758859 1_455
K1 O5 2.761696 1_455
K1 O23 2.804719 1_555
K1 O8 2.989392 1_565
K1 O31 3.082537 1_555
K1 O0 3.137204 1_555
K1 O32 3.347416 1_555
K2 O19 2.675279 1_555
K2 O14 2.758859 1_555
K2 O6 2.761696 1_555
K2 O20 2.804719 1_555
K2 O11 2.989392 1_565
K2 O28 3.082537 1_555
K2 O3 3.137204 1_555
K2 O35 3.347416 1_555
K3 O18 2.675279 1_555
K3 O15 2.758859 1_655
K3 O7 2.761696 1_655
K3 O21 2.804719 1_555
K3 O10 2.989392 1_545
K3 O29 3.082537 1_555
K3 O2 3.137204 1_555
K3 O34 3.347416 1_555
K4 O32 2.854856 1_645
K4 O0 2.870368 1_655
K4 O26 2.970600 1_555
K4 O24 2.972917 1_655
K4 O34 2.992203 1_555
K4 O13 3.050501 1_555
K4 O5 3.055101 1_545
K4 O17 3.122678 1_555
K4 O9 3.130210 1_545
K5 O33 2.854856 1_565
K5 O1 2.870368 1_555
K5 O27 2.970600 1_555
K5 O25 2.972917 1_554
K5 O35 2.992203 1_554
K5 O12 3.050501 1_555
K5 O4 3.055101 1_565
K5 O16 3.122678 1_555
K5 O8 3.130210 1_565
K6 O34 2.854856 1_465
K6 O2 2.870368 1_455
K6 O24 2.970600 1_555
K6 O26 2.972917 1_455
K6 O32 2.992203 1_555
K6 O15 3.050501 1_555
K6 O7 3.055101 1_565
K6 O19 3.122678 1_555
K6 O11 3.130210 1_565
K7 O35 2.854856 1_545
K7 O3 2.870368 1_555
K7 O25 2.970600 1_555
K7 O27 2.972917 1_556
K7 O33 2.992203 1_556
K7 O14 3.050501 1_555
K7 O6 3.055101 1_545
K7 O18 3.122678 1_555
K7 O10 3.130210 1_545
N0 O36 1.169261 1_555
N0 Ru0 1.840977 1_555
N1 O37 1.169261 1_554
N1 Ru1 1.840977 1_555
N2 O38 1.169261 1_555
N2 Ru2 1.840977 1_555
N3 O39 1.169261 1_556
N3 Ru3 1.840977 1_555
N4 O8 1.244119 1_555
N4 O4 1.249114 1_555
N4 Ru0 2.146147 1_555
N5 O9 1.244119 1_555
N5 O5 1.249114 1_555
N5 Ru1 2.146147 1_555
N6 O10 1.244119 1_555
N6 O6 1.249114 1_555
N6 Ru2 2.146147 1_555
N7 O11 1.244119 1_555
N7 O7 1.249114 1_555
N7 Ru3 2.146147 1_555
N8 O20 1.241814 1_555
N8 O24 1.252499 1_555
N8 Ru0 2.166674 1_555
N9 O21 1.241814 1_555
N9 O25 1.252499 1_555
N9 Ru1 2.166674 1_556
N10 O22 1.241814 1_555
N10 O26 1.252499 1_555
N10 Ru2 2.166674 1_555
N11 O23 1.241814 1_555
N11 O27 1.252499 1_555
N11 Ru3 2.166674 1_554
N12 O28 1.244657 1_545
N12 O32 1.256310 1_545
N12 Ru0 2.143825 1_555
N13 O29 1.244657 1_564
N13 O33 1.256310 1_565
N13 Ru1 2.143825 1_555
N14 O30 1.244657 1_565
N14 O34 1.256310 1_565
N14 Ru2 2.143825 1_555
N15 O31 1.244657 1_546
N15 O35 1.256310 1_545
N15 Ru3 2.143825 1_555
N16 O16 1.247141 1_555
N16 O12 1.256448 1_555
N16 Ru0 2.161912 1_555
N17 O17 1.247141 1_555
N17 O13 1.256448 1_555
N17 Ru1 2.161912 1_555
N18 O18 1.247141 1_555
N18 O14 1.256448 1_555
N18 Ru2 2.161912 1_555
N19 O19 1.247141 1_555
N19 O15 1.256448 1_555
N19 Ru3 2.161912 1_555
O0 Ru0 1.804534 1_555
O1 Ru1 1.804534 1_555
O2 Ru2 1.804534 1_555
O3 Ru3 1.804534 1_555
