# generated using pymatgen
data_Np3Cd
_symmetry_space_group_name_H-M   'P 1'
_cell_length_a   5.65826871
_cell_length_b   5.65826871
_cell_length_c   5.65826871
_cell_angle_alpha   132.52929288
_cell_angle_beta   132.52929288
_cell_angle_gamma   69.39434004
_symmetry_Int_Tables_number   1
_chemical_formula_structural   Np3Cd
_chemical_formula_sum   'Np3 Cd1'
_cell_volume   96.52340444
_cell_formula_units_Z   1
loop_
 _symmetry_equiv_pos_site_id
 _symmetry_equiv_pos_as_xyz
  1  'x, y, z'
loop_
 _atom_site_type_symbol
 _atom_site_label
 _atom_site_symmetry_multiplicity
 _atom_site_fract_x
 _atom_site_fract_y
 _atom_site_fract_z
 _atom_site_occupancy
  Np  Np0  1  0.75000000  0.25000000  0.50000000  1
  Np  Np1  1  0.25000000  0.75000000  0.50000000  1
  Np  Np2  1  0.50000000  0.50000000  0.00000000  1
  Cd  Cd0  1  0.00000000  0.00000000  0.00000000  1
loop_
_geom_bond_atom_site_label_1
_geom_bond_atom_site_label_2
_geom_bond_distance
_geom_bond_site_symmetry_2
Np0 Np1 3.220907 1_656
Np0 Np1 3.220907 1_544
Np0 Np1 3.220907 1_555
Np0 Np1 3.220907 1_645
Np0 Np2 3.255390 1_545
Np0 Np2 3.255390 1_555
Np0 Np2 3.255390 1_556
Np0 Np2 3.255390 1_656
Np1 Np2 3.255390 1_566
Np1 Np2 3.255390 1_555
Np1 Np2 3.255390 1_455
Np1 Np2 3.255390 1_556
Cd0 Np2 3.220907 1_444
Cd0 Np2 3.220907 1_455
Cd0 Np2 3.220907 1_556
Cd0 Np2 3.220907 1_545
Cd0 Np0 3.255390 1_555
Cd0 Np0 3.255390 1_454
Cd0 Np0 3.255390 1_444
Cd0 Np1 3.255390 1_545
Cd0 Np1 3.255390 1_444
Cd0 Np1 3.255390 1_544
Cd0 Np1 3.255390 1_555
Cd0 Np0 3.255390 1_455
