# generated using pymatgen
data_Yb(ZnGe)2
_symmetry_space_group_name_H-M   'P 1'
_cell_length_a   6.22115812
_cell_length_b   6.22115812
_cell_length_c   6.22115812
_cell_angle_alpha   140.40200005
_cell_angle_beta   140.40200005
_cell_angle_gamma   57.24342468
_symmetry_Int_Tables_number   1
_chemical_formula_structural   Yb(ZnGe)2
_chemical_formula_sum   'Yb1 Zn2 Ge2'
_cell_volume   96.99638718
_cell_formula_units_Z   1
loop_
 _symmetry_equiv_pos_site_id
 _symmetry_equiv_pos_as_xyz
  1  'x, y, z'
loop_
 _atom_site_type_symbol
 _atom_site_label
 _atom_site_symmetry_multiplicity
 _atom_site_fract_x
 _atom_site_fract_y
 _atom_site_fract_z
 _atom_site_occupancy
  Yb  Yb0  1  0.00000000  0.00000000  0.00000000  1
  Zn  Zn0  1  0.75000000  0.25000000  0.50000000  1
  Zn  Zn1  1  0.25000000  0.75000000  0.50000000  1
  Ge  Ge0  1  0.38617800  0.38617800  0.00000000  1
  Ge  Ge1  1  0.61382200  0.61382200  0.00000000  1
loop_
_geom_bond_atom_site_label_1
_geom_bond_atom_site_label_2
_geom_bond_distance
_geom_bond_site_symmetry_2
Yb0 Zn1 3.449048 1_544
Yb0 Zn1 3.449048 1_545
Yb0 Zn1 3.449048 1_555
Yb0 Zn1 3.449048 1_444
Yb0 Zn0 3.449048 1_455
Yb0 Zn0 3.449048 1_454
Yb0 Zn0 3.449048 1_444
Yb0 Zn0 3.449048 1_555
Ge0 Ge1 2.486301 1_555
Ge0 Zn0 2.579260 1_555
Ge0 Zn0 2.579260 1_454
Ge0 Zn1 2.579260 1_544
Ge0 Zn1 2.579260 1_555
Ge0 Yb0 3.228985 1_666
Ge0 Yb0 3.228985 1_655
Ge0 Yb0 3.228985 1_565
Ge0 Yb0 3.228985 1_554
Ge1 Zn1 2.579260 1_554
Ge1 Zn0 2.579260 1_554
Ge1 Zn0 2.579260 1_565
Ge1 Zn1 2.579260 1_655
Ge1 Yb0 3.228985 1_666
Ge1 Yb0 3.228985 1_655
Ge1 Yb0 3.228985 1_565
Ge1 Yb0 3.228985 1_554
