# generated using pymatgen
data_Cs2NaTlF6
_symmetry_space_group_name_H-M   'P 1'
_cell_length_a   6.49226273
_cell_length_b   6.49226273
_cell_length_c   6.49226273
_cell_angle_alpha   60.00000000
_cell_angle_beta   60.00000000
_cell_angle_gamma   60.00000000
_symmetry_Int_Tables_number   1
_chemical_formula_structural   Cs2NaTlF6
_chemical_formula_sum   'Cs2 Na1 Tl1 F6'
_cell_volume   193.49656581
_cell_formula_units_Z   1
loop_
 _symmetry_equiv_pos_site_id
 _symmetry_equiv_pos_as_xyz
  1  'x, y, z'
loop_
 _atom_site_type_symbol
 _atom_site_label
 _atom_site_symmetry_multiplicity
 _atom_site_fract_x
 _atom_site_fract_y
 _atom_site_fract_z
 _atom_site_occupancy
  Cs  Cs0  1  0.75000000  0.75000000  0.75000000  1
  Cs  Cs1  1  0.25000000  0.25000000  0.25000000  1
  Na  Na0  1  0.50000000  0.50000000  0.50000000  1
  Tl  Tl0  1  0.00000000  0.00000000  0.00000000  1
  F  F0  1  0.75905300  0.24094700  0.24094600  1
  F  F1  1  0.24094700  0.24094700  0.75905300  1
  F  F2  1  0.24094600  0.75905300  0.75905300  1
  F  F3  1  0.24094700  0.75905300  0.24094700  1
  F  F4  1  0.75905300  0.24094700  0.75905300  1
  F  F5  1  0.75905300  0.75905400  0.24094600  1
loop_
_geom_bond_atom_site_label_1
_geom_bond_atom_site_label_2
_geom_bond_distance
_geom_bond_site_symmetry_2
Cs0 F2 3.247189 1_655
Cs0 F0 3.247192 1_556
Cs0 F5 3.247192 1_556
Cs0 F1 3.247195 1_655
Cs0 F4 3.247195 1_565
Cs0 F1 3.247195 1_565
Cs0 F3 3.247195 1_556
Cs0 F3 3.247195 1_655
Cs0 F4 3.247195 1_555
Cs0 F0 3.247199 1_565
Cs0 F5 3.247199 1_555
Cs0 F2 3.247202 1_555
Cs1 F0 3.247192 1_555
Cs1 F5 3.247192 1_545
Cs1 F3 3.247195 1_555
Cs1 F4 3.247195 1_554
Cs1 F1 3.247195 1_554
Cs1 F3 3.247195 1_545
Cs1 F4 3.247195 1_455
Cs1 F1 3.247195 1_555
Cs1 F2 3.247195 1_554
Cs1 F2 3.247195 1_545
Cs1 F0 3.247199 1_455
Cs1 F5 3.247199 1_455
F0 Tl0 2.212237 1_655
F0 Na0 2.378486 1_555
F1 Tl0 2.212242 1_556
F1 Na0 2.378481 1_555
F2 Tl0 2.212242 1_566
F2 Na0 2.378481 1_555
F3 Tl0 2.212242 1_565
F3 Na0 2.378481 1_555
F4 Tl0 2.212242 1_656
F4 Na0 2.378481 1_555
F5 Tl0 2.212237 1_665
F5 Na0 2.378486 1_555
