# generated using pymatgen
data_CeMg14Al
_symmetry_space_group_name_H-M   'P 1'
_cell_length_a   6.43305758
_cell_length_b   6.43305705
_cell_length_c   10.32068114
_cell_angle_alpha   90.00000000
_cell_angle_beta   90.00000000
_cell_angle_gamma   120.00000271
_symmetry_Int_Tables_number   1
_chemical_formula_structural   CeMg14Al
_chemical_formula_sum   'Ce1 Mg14 Al1'
_cell_volume   369.89104919
_cell_formula_units_Z   1
loop_
 _symmetry_equiv_pos_site_id
 _symmetry_equiv_pos_as_xyz
  1  'x, y, z'
loop_
 _atom_site_type_symbol
 _atom_site_label
 _atom_site_symmetry_multiplicity
 _atom_site_fract_x
 _atom_site_fract_y
 _atom_site_fract_z
 _atom_site_occupancy
  Ce  Ce0  1  0.16666700  0.33333300  0.62500000  1
  Mg  Mg0  1  0.16147512  0.83073706  0.12500000  1
  Mg  Mg1  1  0.18092017  0.84045959  0.62500000  1
  Mg  Mg2  1  0.66926294  0.33852488  0.12500000  1
  Mg  Mg3  1  0.65954041  0.31907983  0.62500000  1
  Mg  Mg4  1  0.66926294  0.83073706  0.12500000  1
  Mg  Mg5  1  0.65954041  0.84045959  0.62500000  1
  Mg  Mg6  1  0.33287528  0.16712472  0.36547669  1
  Mg  Mg7  1  0.33287528  0.16712472  0.88452331  1
  Mg  Mg8  1  0.33287528  0.66575157  0.36547669  1
  Mg  Mg9  1  0.33287528  0.66575157  0.88452331  1
  Mg  Mg10  1  0.83424843  0.16712472  0.36547669  1
  Mg  Mg11  1  0.83424843  0.16712472  0.88452331  1
  Mg  Mg12  1  0.83333300  0.66666700  0.38650912  1
  Mg  Mg13  1  0.83333300  0.66666700  0.86349088  1
  Al  Al0  1  0.16666700  0.33333300  0.12500000  1
loop_
_geom_bond_atom_site_label_1
_geom_bond_atom_site_label_2
_geom_bond_distance
_geom_bond_site_symmetry_2
Ce0 Mg1 3.217509 1_545
Ce0 Mg5 3.217509 1_555
Ce0 Mg5 3.217509 1_445
Ce0 Mg1 3.217509 1_555
Ce0 Mg3 3.217509 1_555
Ce0 Mg3 3.217509 1_455
Ce0 Mg7 3.256359 1_555
Ce0 Mg6 3.256359 1_555
Ce0 Mg9 3.256366 1_555
Ce0 Mg8 3.256366 1_555
Ce0 Mg11 3.256366 1_455
Ce0 Mg10 3.256366 1_455
Mg0 Mg8 3.110033 1_555
Mg0 Mg9 3.110033 1_554
Mg0 Mg6 3.110039 1_565
Mg0 Mg7 3.110039 1_564
Mg0 Mg2 3.166429 1_455
Mg0 Mg4 3.166429 1_455
Mg0 Mg12 3.259823 1_455
Mg0 Mg13 3.259823 1_454
Mg0 Mg2 3.266628 1_565
Mg0 Mg4 3.266628 1_555
Mg1 Mg3 3.078991 1_565
Mg1 Mg5 3.078992 1_555
Mg1 Mg13 3.131831 1_455
Mg1 Mg12 3.131831 1_455
Mg1 Mg9 3.239064 1_555
Mg1 Mg8 3.239064 1_555
Mg1 Mg7 3.239070 1_565
Mg1 Mg6 3.239070 1_565
Mg1 Mg3 3.354066 1_455
Mg1 Mg5 3.354066 1_455
Mg2 Mg7 3.110039 1_554
Mg2 Mg6 3.110039 1_555
Mg2 Mg4 3.166429 1_555
Mg2 Mg4 3.266628 1_545
Mg3 Mg5 3.078991 1_545
Mg3 Mg7 3.239070 1_555
Mg3 Mg6 3.239070 1_555
Mg3 Mg5 3.354066 1_555
Mg4 Mg8 3.110040 1_555
Mg4 Mg9 3.110040 1_554
Mg5 Mg9 3.239070 1_555
Mg5 Mg8 3.239070 1_555
Mg6 Mg8 3.207695 1_555
Mg6 Mg8 3.225362 1_545
Mg7 Mg9 3.207695 1_555
Mg7 Mg9 3.225362 1_545
Mg10 Mg2 3.110033 1_555
Mg10 Mg4 3.110039 1_545
Mg10 Mg8 3.207695 1_655
Mg10 Mg6 3.207695 1_655
Mg10 Mg12 3.223849 1_555
Mg10 Mg12 3.223849 1_545
Mg10 Mg8 3.225362 1_545
Mg10 Mg6 3.225362 1_555
Mg10 Mg3 3.239064 1_555
Mg10 Mg5 3.239070 1_545
Mg11 Mg2 3.110033 1_556
Mg11 Mg4 3.110039 1_546
Mg11 Mg9 3.207695 1_655
Mg11 Mg7 3.207695 1_655
Mg11 Mg13 3.223849 1_555
Mg11 Mg13 3.223849 1_545
Mg11 Mg9 3.225362 1_545
Mg11 Mg7 3.225362 1_555
Mg11 Mg3 3.239064 1_555
Mg11 Mg5 3.239070 1_545
Mg12 Mg5 3.131824 1_555
Mg12 Mg3 3.131831 1_555
Mg12 Mg6 3.223849 1_665
Mg12 Mg6 3.223849 1_555
Mg12 Mg8 3.223849 1_655
Mg12 Mg8 3.223849 1_555
Mg12 Mg4 3.259817 1_555
Mg12 Mg2 3.259823 1_555
Mg13 Mg5 3.131824 1_555
Mg13 Mg3 3.131831 1_555
Mg13 Mg7 3.223849 1_665
Mg13 Mg7 3.223849 1_555
Mg13 Mg9 3.223849 1_655
Mg13 Mg9 3.223849 1_555
Mg13 Mg4 3.259817 1_556
Mg13 Mg2 3.259823 1_556
Al0 Mg6 3.096690 1_555
Al0 Mg7 3.096690 1_554
Al0 Mg8 3.096696 1_555
Al0 Mg9 3.096696 1_554
Al0 Mg10 3.096696 1_455
Al0 Mg11 3.096696 1_454
Al0 Mg0 3.216659 1_545
Al0 Mg4 3.216659 1_445
Al0 Mg4 3.216659 1_555
Al0 Mg0 3.216659 1_555
Al0 Mg2 3.216659 1_455
Al0 Mg2 3.216659 1_555
