# generated using pymatgen
data_MgV3O8
_symmetry_space_group_name_H-M   'P 1'
_cell_length_a   6.73546920
_cell_length_b   6.73546920
_cell_length_c   7.67803529
_cell_angle_alpha   67.44557726
_cell_angle_beta   67.44557726
_cell_angle_gamma   79.49528843
_symmetry_Int_Tables_number   1
_chemical_formula_structural   MgV3O8
_chemical_formula_sum   'Mg2 V6 O16'
_cell_volume   296.82751853
_cell_formula_units_Z   2
loop_
 _symmetry_equiv_pos_site_id
 _symmetry_equiv_pos_as_xyz
  1  'x, y, z'
loop_
 _atom_site_type_symbol
 _atom_site_label
 _atom_site_symmetry_multiplicity
 _atom_site_fract_x
 _atom_site_fract_y
 _atom_site_fract_z
 _atom_site_occupancy
  Mg  Mg0  1  0.93258922  0.30422169  0.70013181  1
  Mg  Mg1  1  0.69577831  0.06741078  0.29986819  1
  V  V0  1  0.37776606  0.37557453  0.78025995  1
  V  V1  1  0.62442547  0.62223394  0.21974005  1
  V  V2  1  0.82325080  0.81197877  0.70405397  1
  V  V3  1  0.18802123  0.17674920  0.29594603  1
  V  V4  1  0.27965921  0.92369178  0.72920725  1
  V  V5  1  0.07630822  0.72034079  0.27079275  1
  O  O0  1  0.80235691  0.19764309  0.00000000  1
  O  O1  1  0.18465129  0.81534871  0.00000000  1
  O  O2  1  -0.00857121  -0.00617395  0.68785360  1
  O  O3  1  0.00617395  0.00857121  0.31214640  1
  O  O4  1  0.24048931  0.22799681  0.72023342  1
  O  O5  1  0.77200319  0.75951069  0.27976658  1
  O  O6  1  0.95517663  0.63243476  0.58320122  1
  O  O7  1  0.60111749  0.93027055  0.63982723  1
  O  O8  1  0.06972945  0.39888251  0.36017277  1
  O  O9  1  0.36756524  0.04482337  0.41679878  1
  O  O10  1  0.29484814  0.63797238  0.71932631  1
  O  O11  1  0.63914239  0.34881545  0.67853801  1
  O  O12  1  0.65118455  0.36085761  0.32146199  1
  O  O13  1  0.36202762  0.70515186  0.28067369  1
  O  O14  1  0.72641919  0.66211466  0.95445177  1
  O  O15  1  0.33788534  0.27358081  0.04554823  1
loop_
_geom_bond_atom_site_label_1
_geom_bond_atom_site_label_2
_geom_bond_distance
_geom_bond_site_symmetry_2
Mg0 O0 1.999555 1_556
Mg0 O11 2.005238 1_555
Mg0 O6 2.052210 1_555
Mg0 O2 2.087397 1_655
Mg0 O4 2.093988 1_655
Mg0 O8 2.271887 1_655
Mg1 O0 1.999555 1_555
Mg1 O12 2.005238 1_555
Mg1 O9 2.052210 1_555
Mg1 O3 2.087397 1_655
Mg1 O5 2.093988 1_545
Mg1 O7 2.271887 1_545
O1 V5 1.802948 1_555
O1 V4 1.802948 1_554
O2 V2 1.754923 1_445
O2 V4 2.028861 1_545
O3 V3 1.754923 1_555
O3 V5 2.028861 1_545
O4 V0 1.751816 1_555
O4 V4 1.995946 1_545
O5 V1 1.751816 1_555
O5 V5 1.995946 1_655
O6 V2 1.717415 1_555
O6 V5 2.086930 1_655
O7 V2 1.716520 1_555
O7 V4 2.008158 1_555
O8 V3 1.716520 1_555
O8 V5 2.008158 1_555
O9 V3 1.717415 1_555
O9 V4 2.086930 1_545
O10 V0 1.691337 1_555
O10 V4 1.937525 1_555
O11 V0 1.636863 1_555
O12 V1 1.636863 1_555
O13 V1 1.691337 1_555
O13 V5 1.937525 1_555
O14 V2 1.711713 1_555
O14 V1 1.807527 1_556
O15 V3 1.711713 1_555
O15 V0 1.807527 1_554
