# generated using pymatgen
data_Ho4Ga12Ni
_symmetry_space_group_name_H-M   'P 1'
_cell_length_a   7.33715757
_cell_length_b   7.33715757
_cell_length_c   7.33715757
_cell_angle_alpha   109.47122063
_cell_angle_beta   109.47122063
_cell_angle_gamma   109.47122063
_symmetry_Int_Tables_number   1
_chemical_formula_structural   Ho4Ga12Ni
_chemical_formula_sum   'Ho4 Ga12 Ni1'
_cell_volume   304.06164978
_cell_formula_units_Z   1
loop_
 _symmetry_equiv_pos_site_id
 _symmetry_equiv_pos_as_xyz
  1  'x, y, z'
loop_
 _atom_site_type_symbol
 _atom_site_label
 _atom_site_symmetry_multiplicity
 _atom_site_fract_x
 _atom_site_fract_y
 _atom_site_fract_z
 _atom_site_occupancy
  Ho  Ho0  1  -0.00000000  -0.00000000  0.50000000  1
  Ho  Ho1  1  -0.00000000  0.50000000  -0.00000000  1
  Ho  Ho2  1  0.50000000  -0.00000000  -0.00000000  1
  Ho  Ho3  1  0.50000000  0.50000000  0.50000000  1
  Ga  Ga0  1  0.75000000  0.25000000  0.50000000  1
  Ga  Ga1  1  0.75000000  0.50000000  0.25000000  1
  Ga  Ga2  1  0.50000000  0.25000000  0.75000000  1
  Ga  Ga3  1  0.25000000  0.50000000  0.75000000  1
  Ga  Ga4  1  0.25000000  0.75000000  0.50000000  1
  Ga  Ga5  1  0.50000000  0.75000000  0.25000000  1
  Ga  Ga6  1  0.71233055  0.71233055  -0.00000000  1
  Ga  Ga7  1  0.28766945  0.00000000  0.28766945  1
  Ga  Ga8  1  0.00000000  0.28766945  0.28766945  1
  Ga  Ga9  1  0.28766945  0.28766945  0.00000000  1
  Ga  Ga10  1  0.71233055  -0.00000000  0.71233055  1
  Ga  Ga11  1  -0.00000000  0.71233055  0.71233055  1
  Ni  Ni0  1  -0.00000000  -0.00000000  -0.00000000  1
loop_
_geom_bond_atom_site_label_1
_geom_bond_atom_site_label_2
_geom_bond_distance
_geom_bond_site_symmetry_2
Ga0 Ga11 2.778891 1_655
Ga0 Ga8 2.778891 1_655
Ga0 Ga10 2.778891 1_555
Ga0 Ga7 2.778891 1_555
Ga0 Ga2 2.995382 1_555
Ga0 Ga1 2.995382 1_555
Ga0 Ho2 2.995382 1_555
Ga0 Ho3 2.995382 1_555
Ga0 Ho1 2.995382 1_656
Ga0 Ho0 2.995382 1_655
Ga0 Ga5 2.995382 1_545
Ga0 Ga3 2.995382 1_655
Ga1 Ga9 2.778891 1_555
Ga1 Ga11 2.778891 1_655
Ga1 Ga8 2.778891 1_655
Ga1 Ga6 2.778891 1_555
Ga1 Ga5 2.995382 1_555
Ga1 Ga2 2.995382 1_554
Ga1 Ho1 2.995382 1_655
Ga1 Ho3 2.995382 1_555
Ga1 Ho0 2.995382 1_665
Ga1 Ho2 2.995382 1_555
Ga1 Ga4 2.995382 1_655
Ga2 Ga7 2.778891 1_555
Ga2 Ga9 2.778891 1_556
Ga2 Ga6 2.778891 1_556
Ga2 Ho2 2.995382 1_556
Ga2 Ho3 2.995382 1_555
Ga2 Ga3 2.995382 1_555
Ga2 Ga4 2.995382 1_545
Ga2 Ho0 2.995382 1_555
Ga2 Ho1 2.995382 1_656
Ga3 Ga8 2.778891 1_555
Ga3 Ga6 2.778891 1_556
Ga3 Ga9 2.778891 1_556
Ga3 Ho3 2.995382 1_555
Ga3 Ga4 2.995382 1_555
Ga3 Ga5 2.995382 1_556
Ga3 Ho1 2.995382 1_556
Ga3 Ho2 2.995382 1_566
Ga3 Ho0 2.995382 1_555
Ga4 Ga7 2.778891 1_565
Ga4 Ga8 2.778891 1_555
Ga4 Ho0 2.995382 1_565
Ga4 Ho2 2.995382 1_566
Ga4 Ga5 2.995382 1_555
Ga4 Ho3 2.995382 1_555
Ga4 Ho1 2.995382 1_555
Ga5 Ga6 2.778891 1_555
Ga5 Ga9 2.778891 1_555
Ga5 Ga7 2.778891 1_565
Ga5 Ho3 2.995382 1_555
Ga5 Ho2 2.995382 1_565
Ga5 Ho1 2.995382 1_555
Ga5 Ho0 2.995382 1_665
Ga6 Ni0 2.437199 1_665
Ga6 Ho2 3.012336 1_565
Ga6 Ho3 3.012336 1_554
Ga6 Ho0 3.012336 1_665
Ga6 Ho1 3.012336 1_655
Ga7 Ni0 2.437199 1_555
Ga7 Ho1 3.012336 1_545
Ga7 Ho0 3.012336 1_555
Ga7 Ho3 3.012336 1_555
Ga7 Ho2 3.012336 1_555
Ga8 Ni0 2.437199 1_555
Ga8 Ho2 3.012336 1_455
Ga8 Ho0 3.012336 1_555
Ga8 Ho3 3.012336 1_555
Ga8 Ho1 3.012336 1_555
Ga9 Ni0 2.437199 1_555
Ga9 Ho3 3.012336 1_555
Ga9 Ho0 3.012336 1_554
Ga9 Ho2 3.012336 1_555
Ga9 Ho1 3.012336 1_555
Ga10 Ni0 2.437199 1_656
Ga10 Ga5 2.778891 1_545
Ga10 Ga2 2.778891 1_555
Ga10 Ga4 2.778891 1_545
Ga10 Ho0 3.012336 1_655
Ga10 Ho2 3.012336 1_556
Ga10 Ho3 3.012336 1_545
Ga10 Ho1 3.012336 1_656
Ga11 Ni0 2.437199 1_566
Ga11 Ga4 2.778891 1_555
Ga11 Ga3 2.778891 1_555
Ga11 Ho1 3.012336 1_556
Ga11 Ho0 3.012336 1_565
Ga11 Ho2 3.012336 1_566
Ga11 Ho3 3.012336 1_455
