# generated using pymatgen
data_CdRh3F6
_symmetry_space_group_name_H-M   'P 1'
_cell_length_a   4.76374294
_cell_length_b   6.73017419
_cell_length_c   13.86992356
_cell_angle_alpha   81.46980006
_cell_angle_beta   86.41724214
_cell_angle_gamma   101.92776223
_symmetry_Int_Tables_number   1
_chemical_formula_structural   CdRh3F6
_chemical_formula_sum   'Cd1 Rh3 F6'
_cell_volume   428.26868526
_cell_formula_units_Z   1
loop_
 _symmetry_equiv_pos_site_id
 _symmetry_equiv_pos_as_xyz
  1  'x, y, z'
loop_
 _atom_site_type_symbol
 _atom_site_label
 _atom_site_symmetry_multiplicity
 _atom_site_fract_x
 _atom_site_fract_y
 _atom_site_fract_z
 _atom_site_occupancy
  Cd  Cd0  1  0.00000000  0.00000000  0.00000000  1
  Rh  Rh0  1  0.00000000  0.00000000  0.50000000  1
  Rh  Rh1  1  0.50000000  0.50000000  0.00000000  1
  Rh  Rh2  1  0.00000000  0.50000000  0.00000000  1
  F  F0  1  0.95948200  0.28544100  0.91108600  1
  F  F1  1  0.04051800  0.71455900  0.08891400  1
  F  F2  1  0.93244400  0.93285900  0.63655900  1
  F  F3  1  0.06755600  0.06714100  0.36344100  1
  F  F4  1  0.58712000  0.81232700  0.97353400  1
  F  F5  1  0.41288000  0.18767300  0.02646600  1
loop_
_geom_bond_atom_site_label_1
_geom_bond_atom_site_label_2
_geom_bond_distance
_geom_bond_site_symmetry_2
Cd0 F1 2.174583 1_545
Cd0 F0 2.174583 1_454
Cd0 F5 2.190777 1_555
Cd0 F4 2.190777 1_444
F0 Rh2 2.021420 1_656
F1 Rh2 2.021420 1_555
F2 Rh0 1.872173 1_665
F3 Rh0 1.872173 1_555
F4 Rh1 2.029016 1_556
F5 Rh1 2.029016 1_555
