# generated using pymatgen
data_Ce2Al2PdPt
_symmetry_space_group_name_H-M   'P 1'
_cell_length_a   4.44794700
_cell_length_b   7.21283800
_cell_length_c   7.87911600
_cell_angle_alpha   90.00000000
_cell_angle_beta   90.00000000
_cell_angle_gamma   90.00000000
_symmetry_Int_Tables_number   1
_chemical_formula_structural   Ce2Al2PdPt
_chemical_formula_sum   'Ce4 Al4 Pd2 Pt2'
_cell_volume   252.78032984
_cell_formula_units_Z   2
loop_
 _symmetry_equiv_pos_site_id
 _symmetry_equiv_pos_as_xyz
  1  'x, y, z'
loop_
 _atom_site_type_symbol
 _atom_site_label
 _atom_site_symmetry_multiplicity
 _atom_site_fract_x
 _atom_site_fract_y
 _atom_site_fract_z
 _atom_site_occupancy
  Ce  Ce0  1  0.50000000  0.46843700  0.56877100  1
  Ce  Ce1  1  0.50000000  0.96843700  0.43122900  1
  Ce  Ce2  1  0.00000000  0.52830500  0.92869200  1
  Ce  Ce3  1  0.00000000  0.02830500  0.07130800  1
  Al  Al0  1  0.50000000  0.35216700  0.18016600  1
  Al  Al1  1  0.50000000  0.85216700  0.81983400  1
  Al  Al2  1  0.00000000  0.64931300  0.31521400  1
  Al  Al3  1  0.00000000  0.14931300  0.68478600  1
  Pd  Pd0  1  0.00000000  0.78307900  0.63853800  1
  Pd  Pd1  1  0.00000000  0.28307900  0.36146200  1
  Pt  Pt0  1  0.50000000  0.21870000  0.86152700  1
  Pt  Pt1  1  0.50000000  0.71870000  0.13847300  1
loop_
_geom_bond_atom_site_label_1
_geom_bond_atom_site_label_2
_geom_bond_distance
_geom_bond_site_symmetry_2
Ce0 Pt0 2.926670 1_555
Ce0 Pd1 3.066194 1_655
Ce0 Pd1 3.066194 1_555
Ce0 Pd0 3.224700 1_555
Ce0 Pd0 3.224700 1_655
Ce1 Pt1 2.926670 1_555
Ce1 Pd0 3.066194 1_555
Ce1 Pd0 3.066194 1_655
Ce1 Pd1 3.224700 1_565
Ce1 Pd1 3.224700 1_665
Ce2 Pd0 2.933163 1_555
Ce2 Pt1 3.092575 1_456
Ce2 Pt1 3.092575 1_556
Ce2 Pt0 3.195776 1_455
Ce2 Pt0 3.195776 1_555
Ce3 Pd1 2.933163 1_555
Ce3 Pt0 3.092575 1_454
Ce3 Pt0 3.092575 1_554
Ce3 Pt1 3.195776 1_545
Ce3 Pt1 3.195776 1_445
Al0 Pt1 2.664074 1_555
Al0 Pt0 2.688833 1_554
Al0 Pd1 2.689769 1_555
Al0 Pd1 2.689769 1_655
Al0 Ce0 3.174637 1_555
Al0 Ce2 3.238214 1_654
Al0 Ce2 3.238214 1_554
Al0 Ce3 3.337431 1_555
Al0 Ce3 3.337431 1_655
Al0 Ce1 3.402016 1_545
Al1 Pt0 2.664074 1_565
Al1 Pt1 2.688833 1_556
Al1 Pd0 2.689769 1_555
Al1 Pd0 2.689769 1_655
Al1 Ce1 3.174637 1_555
Al1 Ce3 3.238214 1_566
Al1 Ce3 3.238214 1_666
Al1 Ce2 3.337431 1_555
Al1 Ce2 3.337431 1_655
Al1 Ce0 3.402016 1_555
Al2 Pd1 2.666601 1_555
Al2 Pt1 2.671286 1_555
Al2 Pt1 2.671286 1_455
Al2 Pd0 2.724095 1_555
Al2 Ce2 3.168055 1_554
Al2 Ce0 3.261800 1_555
Al2 Ce0 3.261800 1_455
Al2 Ce1 3.328643 1_455
Al2 Ce1 3.328643 1_555
Al2 Ce3 3.341525 1_565
Al3 Pd0 2.666601 1_545
Al3 Pt0 2.671286 1_455
Al3 Pt0 2.671286 1_555
Al3 Pd1 2.724095 1_555
Al3 Ce3 3.168055 1_556
Al3 Ce1 3.261800 1_445
Al3 Ce1 3.261800 1_545
Al3 Ce0 3.328643 1_455
Al3 Ce0 3.328643 1_555
Al3 Ce2 3.341525 1_555
