# generated using pymatgen
data_Nb2O2F3
_symmetry_space_group_name_H-M   'P 1'
_cell_length_a   5.22934870
_cell_length_b   5.76813152
_cell_length_c   7.04528086
_cell_angle_alpha   109.02716492
_cell_angle_beta   111.64952519
_cell_angle_gamma   90.01324390
_symmetry_Int_Tables_number   1
_chemical_formula_structural   Nb2O2F3
_chemical_formula_sum   'Nb4 O4 F6'
_cell_volume   184.96375563
_cell_formula_units_Z   2
loop_
 _symmetry_equiv_pos_site_id
 _symmetry_equiv_pos_as_xyz
  1  'x, y, z'
loop_
 _atom_site_type_symbol
 _atom_site_label
 _atom_site_symmetry_multiplicity
 _atom_site_fract_x
 _atom_site_fract_y
 _atom_site_fract_z
 _atom_site_occupancy
  Nb  Nb0  1  0.40486776  0.31255501  0.31893005  1
  Nb  Nb1  1  0.59513224  0.68744499  0.68106995  1
  Nb  Nb2  1  0.08489816  0.18755559  0.68110906  1
  Nb  Nb3  1  0.91510184  0.81244441  0.31889094  1
  O  O0  1  0.24258767  0.64055295  0.40192804  1
  O  O1  1  0.75741233  0.35944705  0.59807196  1
  O  O2  1  0.15989090  0.14065920  0.40210412  1
  O  O3  1  0.84010910  0.85934080  0.59789588  1
  F  F0  1  0.10594787  0.25012878  0.00049028  1
  F  F1  1  0.89405213  0.74987122  0.99950972  1
  F  F2  1  0.55284190  0.96886052  0.20481678  1
  F  F3  1  0.44715810  0.03113948  0.79518322  1
  F  F4  1  0.65354728  0.46851352  0.20438806  1
  F  F5  1  0.34645272  0.53148648  0.79561194  1
loop_
_geom_bond_atom_site_label_1
_geom_bond_atom_site_label_2
_geom_bond_distance
_geom_bond_site_symmetry_2
Nb0 O2 1.974785 1_555
Nb0 O0 2.070517 1_555
Nb0 O1 2.077815 1_555
Nb1 O3 1.974785 1_555
Nb1 O1 2.070517 1_555
Nb1 O0 2.077815 1_555
Nb2 O1 1.974297 1_455
Nb2 O3 2.070732 1_445
Nb2 O2 2.076764 1_555
Nb3 O0 1.974297 1_655
Nb3 O2 2.070732 1_665
Nb3 O3 2.076764 1_555
F0 Nb0 2.119382 1_555
F0 Nb2 2.119707 1_554
F1 Nb1 2.119382 1_555
F1 Nb3 2.119707 1_556
F2 Nb3 2.097337 1_555
F2 Nb0 2.143792 1_565
F3 Nb2 2.097337 1_555
F3 Nb1 2.143792 1_545
F4 Nb0 2.097314 1_555
F4 Nb3 2.144358 1_555
F5 Nb1 2.097314 1_555
F5 Nb2 2.144358 1_555
