# generated using pymatgen
data_FeTe3BrO7
_symmetry_space_group_name_H-M   'P 1'
_cell_length_a   7.50220600
_cell_length_b   11.09849200
_cell_length_c   11.27237368
_cell_angle_alpha   69.97217802
_cell_angle_beta   90.00000000
_cell_angle_gamma   90.00000000
_symmetry_Int_Tables_number   1
_chemical_formula_structural   FeTe3BrO7
_chemical_formula_sum   'Fe4 Te12 Br4 O28'
_cell_volume   881.81470634
_cell_formula_units_Z   4
loop_
 _symmetry_equiv_pos_site_id
 _symmetry_equiv_pos_as_xyz
  1  'x, y, z'
loop_
 _atom_site_type_symbol
 _atom_site_label
 _atom_site_symmetry_multiplicity
 _atom_site_fract_x
 _atom_site_fract_y
 _atom_site_fract_z
 _atom_site_occupancy
  Fe  Fe0  1  0.86998900  0.41221200  0.11325900  1
  Fe  Fe1  1  0.36998900  0.08778800  0.88674100  1
  Fe  Fe2  1  0.13001100  0.58778800  0.88674100  1
  Fe  Fe3  1  0.63001100  0.91221200  0.11325900  1
  Te  Te0  1  0.51044300  0.23225100  0.09775700  1
  Te  Te1  1  0.01044300  0.26774900  0.90224300  1
  Te  Te2  1  0.48955700  0.76774900  0.90224300  1
  Te  Te3  1  0.98955700  0.73225100  0.09775700  1
  Te  Te4  1  0.97412700  0.06714300  0.23304300  1
  Te  Te5  1  0.47412700  0.43285700  0.76695700  1
  Te  Te6  1  0.02587300  0.93285700  0.76695700  1
  Te  Te7  1  0.52587300  0.56714300  0.23304300  1
  Te  Te8  1  0.10150500  0.42717900  0.36744700  1
  Te  Te9  1  0.60150500  0.07282100  0.63255300  1
  Te  Te10  1  0.89849500  0.57282100  0.63255300  1
  Te  Te11  1  0.39849500  0.92717900  0.36744700  1
  Br  Br0  1  0.71218900  0.37839700  0.49399400  1
  Br  Br1  1  0.21218900  0.12160300  0.50600600  1
  Br  Br2  1  0.28781100  0.62160300  0.50600600  1
  Br  Br3  1  0.78781100  0.87839700  0.49399400  1
  O  O0  1  0.50980600  0.08820400  0.03953900  1
  O  O1  1  0.00980600  0.41179600  0.96046100  1
  O  O2  1  0.49019400  0.91179600  0.96046100  1
  O  O3  1  0.99019400  0.58820400  0.03953900  1
  O  O4  1  0.76097800  0.23906100  0.13013000  1
  O  O5  1  0.26097800  0.26093900  0.86987000  1
  O  O6  1  0.23902200  0.76093900  0.86987000  1
  O  O7  1  0.73902200  0.73906100  0.13013000  1
  O  O8  1  0.10813800  0.16677300  0.08755700  1
  O  O9  1  0.60813800  0.33322700  0.91244300  1
  O  O10  1  0.89186200  0.83322700  0.91244300  1
  O  O11  1  0.39186200  0.66677300  0.08755700  1
  O  O12  1  0.64195200  0.47064000  0.14582700  1
  O  O13  1  0.14195200  0.02936000  0.85417300  1
  O  O14  1  0.35804800  0.52936000  0.85417300  1
  O  O15  1  0.85804800  0.97064000  0.14582700  1
  O  O16  1  0.00152200  0.34151000  0.26358900  1
  O  O17  1  0.50152200  0.15849000  0.73641100  1
  O  O18  1  0.99847800  0.65849000  0.73641100  1
  O  O19  1  0.49847800  0.84151000  0.26358900  1
  O  O20  1  0.32849700  0.44071200  0.27775400  1
  O  O21  1  0.82849700  0.05928800  0.72224600  1
  O  O22  1  0.67150300  0.55928800  0.72224600  1
  O  O23  1  0.17150300  0.94071200  0.27775400  1
  O  O24  1  0.99445100  0.40530300  0.72169700  1
  O  O25  1  0.49445100  0.09469700  0.27830300  1
  O  O26  1  0.00554900  0.59469700  0.27830300  1
  O  O27  1  0.50554900  0.90530300  0.72169700  1
loop_
_geom_bond_atom_site_label_1
_geom_bond_atom_site_label_2
_geom_bond_distance
_geom_bond_site_symmetry_2
Fe0 O16 1.884219 1_655
Fe0 O12 1.909218 1_555
Fe0 O1 2.018015 1_654
Fe0 O4 2.036581 1_555
Fe0 O3 2.051146 1_555
Fe1 O17 1.884219 1_555
Fe1 O13 1.909218 1_555
Fe1 O0 2.018015 1_556
Fe1 O5 2.036581 1_555
Fe1 O2 2.051146 1_545
Fe2 O18 1.884219 1_455
Fe2 O14 1.909218 1_555
Fe2 O3 2.018015 1_456
Fe2 O6 2.036581 1_555
Fe2 O1 2.051146 1_555
Fe3 O19 1.884219 1_555
Fe3 O15 1.909218 1_555
Fe3 O2 2.018015 1_554
Fe3 O7 2.036581 1_555
Fe3 O0 2.051146 1_565
Br0 Te8 3.213976 1_655
Br0 Te7 3.282374 1_555
Br0 Te9 3.317018 1_555
Br0 Te10 3.370120 1_555
Br1 Te9 3.213976 1_555
Br1 Te6 3.282374 1_545
Br1 Te8 3.317018 1_555
Br1 Te11 3.370120 1_545
Br2 Te10 3.213976 1_455
Br2 Te5 3.282374 1_555
Br2 Te11 3.317018 1_555
Br2 Te8 3.370120 1_555
Br3 Te11 3.213976 1_555
Br3 Te4 3.282374 1_565
Br3 Te10 3.317018 1_555
Br3 Te9 3.370120 1_565
O0 Te0 1.924883 1_555
O1 Te1 1.924883 1_555
O2 Te2 1.924883 1_555
O3 Te3 1.924883 1_555
O4 Te0 1.921077 1_555
O4 Te4 2.455060 1_555
O5 Te1 1.921077 1_555
O5 Te5 2.455060 1_555
O6 Te2 1.921077 1_555
O6 Te6 2.455060 1_555
O7 Te3 1.921077 1_555
O7 Te7 2.455060 1_555
O8 Te4 1.918561 1_455
O8 Te1 2.133833 1_554
O9 Te5 1.918561 1_555
O9 Te0 2.133833 1_556
O10 Te6 1.918561 1_655
O10 Te3 2.133833 1_556
O11 Te7 1.918561 1_555
O11 Te2 2.133833 1_554
O12 Te7 1.895595 1_555
O13 Te6 1.895595 1_545
O14 Te5 1.895595 1_555
O15 Te4 1.895595 1_565
O16 Te8 1.897285 1_555
O17 Te9 1.897285 1_555
O18 Te10 1.897285 1_555
O19 Te11 1.897285 1_555
O20 Te8 1.959791 1_555
O20 Te7 1.982725 1_555
O21 Te9 1.959791 1_555
O21 Te6 1.982725 1_645
O22 Te10 1.959791 1_555
O22 Te5 1.982725 1_555
O23 Te11 1.959791 1_555
O23 Te4 1.982725 1_465
O24 Te10 1.924822 1_555
O24 Te1 2.087786 1_655
O25 Te11 1.924822 1_545
O25 Te0 2.087786 1_555
O26 Te8 1.924822 1_555
O26 Te3 2.087786 1_455
O27 Te9 1.924822 1_565
O27 Te2 2.087786 1_555
