# generated using pymatgen
data_Li5Co4(BO3)4
_symmetry_space_group_name_H-M   'P 1'
_cell_length_a   5.11208221
_cell_length_b   5.05004517
_cell_length_c   11.68007723
_cell_angle_alpha   87.41645333
_cell_angle_beta   89.48990681
_cell_angle_gamma   60.12530164
_symmetry_Int_Tables_number   1
_chemical_formula_structural   Li5Co4(BO3)4
_chemical_formula_sum   'Li5 Co4 B4 O12'
_cell_volume   261.16898728
_cell_formula_units_Z   1
loop_
 _symmetry_equiv_pos_site_id
 _symmetry_equiv_pos_as_xyz
  1  'x, y, z'
loop_
 _atom_site_type_symbol
 _atom_site_label
 _atom_site_symmetry_multiplicity
 _atom_site_fract_x
 _atom_site_fract_y
 _atom_site_fract_z
 _atom_site_occupancy
  Li  Li0  1  0.32218600  0.66562100  0.33179100  1
  Li  Li1  1  0.33332700  0.66053900  0.90760700  1
  Li  Li2  1  0.66285700  0.31931100  0.15942800  1
  Li  Li3  1  0.64356900  0.35018500  0.53066800  1
  Li  Li4  1  0.62820000  0.35113000  0.71962700  1
  Co  Co0  1  0.98544600  0.67152300  0.65383200  1
  Co  Co1  1  0.31794600  0.01861100  0.09757900  1
  Co  Co2  1  0.71585600  0.94268600  0.90944800  1
  Co  Co3  1  0.01612500  0.32697900  0.34144500  1
  B  B0  1  0.00774000  0.33783000  0.87934300  1
  B  B1  1  0.31860000  0.01056500  0.62038000  1
  B  B2  1  0.67639900  0.98183800  0.36825600  1
  B  B3  1  0.99670600  0.67042700  0.13512100  1
  O  O0  1  0.03104700  0.26944900  0.61124600  1
  O  O1  1  0.25914400  0.08032200  0.92719500  1
  O  O2  1  0.04356800  0.58061700  0.83156000  1
  O  O3  1  0.57503800  0.04304000  0.62844100  1
  O  O4  1  0.27156300  0.66002200  0.14087100  1
  O  O5  1  0.35008600  0.71894900  0.62432600  1
  O  O6  1  0.66388600  0.26738900  0.36469700  1
  O  O7  1  0.73227000  0.35430500  0.87626600  1
  O  O8  1  0.41584400  0.97235500  0.35285900  1
  O  O9  1  0.98856700  0.40056800  0.16296800  1
  O  O10  1  0.73651500  0.93974800  0.10680700  1
  O  O11  1  0.95091600  0.72058900  0.38544100  1
loop_
_geom_bond_atom_site_label_1
_geom_bond_atom_site_label_2
_geom_bond_distance
_geom_bond_site_symmetry_2
Li0 O8 1.861332 1_555
Li0 O11 1.881924 1_455
Li0 O6 1.919928 1_555
Li0 O4 2.250276 1_555
Li1 O7 1.892262 1_555
Li1 O2 1.948683 1_555
Li1 O1 1.982807 1_565
Li2 O4 1.885243 1_555
Li2 O10 1.891232 1_545
Li2 O9 1.904189 1_555
Li2 O6 2.399842 1_555
Li3 O6 1.992444 1_555
Li3 O0 2.041984 1_655
Li3 O3 2.051175 1_555
Li3 O5 2.070440 1_555
Li4 O7 1.912863 1_555
Li4 O5 1.980304 1_555
Li4 O3 2.050540 1_555
Li4 O0 2.273350 1_655
Co0 O0 2.010496 1_655
Co0 O3 2.012289 1_565
Co0 O5 2.019101 1_655
Co0 O2 2.097017 1_655
Co1 O10 1.974862 1_545
Co1 O4 1.983509 1_545
Co1 O1 2.002345 1_554
Co1 O9 2.003375 1_455
Co2 O2 2.012146 1_655
Co2 O1 2.089223 1_565
Co2 O7 2.139807 1_565
Co2 O10 2.307567 1_556
Co3 O8 1.933441 1_545
Co3 O11 1.937850 1_455
Co3 O6 1.982549 1_455
Co3 O9 2.094480 1_455
B0 O7 1.369388 1_455
B0 O1 1.391950 1_555
B0 O2 1.417223 1_555
B1 O5 1.398096 1_545
B1 O0 1.398987 1_555
B1 O3 1.404305 1_555
B2 O8 1.370179 1_555
B2 O11 1.373674 1_555
B2 O6 1.409987 1_565
B3 O10 1.376037 1_555
B3 O4 1.381797 1_655
B3 O9 1.407491 1_555
