# generated using pymatgen
data_La3Y(MnSi)4
_symmetry_space_group_name_H-M   'P 1'
_cell_length_a   4.00047200
_cell_length_b   4.00047200
_cell_length_c   15.19793700
_cell_angle_alpha   90.00000000
_cell_angle_beta   90.00000000
_cell_angle_gamma   90.00000000
_symmetry_Int_Tables_number   1
_chemical_formula_structural   La3Y(MnSi)4
_chemical_formula_sum   'La3 Y1 Mn4 Si4'
_cell_volume   243.22438280
_cell_formula_units_Z   1
loop_
 _symmetry_equiv_pos_site_id
 _symmetry_equiv_pos_as_xyz
  1  'x, y, z'
loop_
 _atom_site_type_symbol
 _atom_site_label
 _atom_site_symmetry_multiplicity
 _atom_site_fract_x
 _atom_site_fract_y
 _atom_site_fract_z
 _atom_site_occupancy
  La  La0  1  0.50000000  0.50000000  0.65985900  1
  La  La1  1  0.00000000  0.00000000  0.32978700  1
  La  La2  1  0.00000000  0.00000000  0.84199600  1
  Y  Y0  1  0.50000000  0.50000000  0.15495100  1
  Mn  Mn0  1  0.50000000  0.00000000  0.00624200  1
  Mn  Mn1  1  0.50000000  0.00000000  0.49651400  1
  Mn  Mn2  1  0.00000000  0.50000000  0.00624200  1
  Mn  Mn3  1  0.00000000  0.50000000  0.49651400  1
  Si  Si0  1  0.50000000  0.50000000  0.40731900  1
  Si  Si1  1  0.50000000  0.50000000  0.91706700  1
  Si  Si2  1  0.00000000  0.00000000  0.09809600  1
  Si  Si3  1  0.00000000  0.00000000  0.58541200  1
loop_
_geom_bond_atom_site_label_1
_geom_bond_atom_site_label_2
_geom_bond_distance
_geom_bond_site_symmetry_2
La0 Si3 3.046645 1_555
La0 Si3 3.046645 1_665
La0 Si3 3.046645 1_565
La0 Si3 3.046645 1_655
La1 Si0 3.064366 1_455
La1 Si0 3.064366 1_545
La1 Si0 3.064366 1_555
La1 Si0 3.064366 1_445
La1 Mn3 3.228254 1_555
La1 Mn1 3.228254 1_455
La1 Mn3 3.228254 1_545
La1 Mn1 3.228254 1_555
La1 Si2 3.521225 1_555
La1 Y0 3.881020 1_455
La1 Y0 3.881020 1_545
La1 Y0 3.881020 1_555
La1 Y0 3.881020 1_445
La2 Si1 3.050180 1_555
La2 Si1 3.050180 1_545
La2 Si1 3.050180 1_455
La2 Si1 3.050180 1_445
Mn0 Si1 2.416137 1_554
Mn0 Si1 2.416137 1_544
Mn0 Si2 2.439208 1_655
Mn0 Si2 2.439208 1_555
Mn0 Y0 3.018089 1_545
Mn0 Y0 3.018089 1_555
Mn1 Si3 2.413778 1_555
Mn1 Si3 2.413778 1_655
Mn1 Si0 2.416307 1_545
Mn1 Si0 2.416307 1_555
Mn2 Si1 2.416137 1_554
Mn2 Si1 2.416137 1_454
Mn2 Si2 2.439208 1_565
Mn2 Si2 2.439208 1_555
Mn2 Y0 3.018089 1_555
Mn2 Y0 3.018089 1_455
Mn3 Si3 2.413778 1_565
Mn3 Si3 2.413778 1_555
Mn3 Si0 2.416307 1_455
Mn3 Si0 2.416307 1_555
Si2 Y0 2.957790 1_545
Si2 Y0 2.957790 1_555
Si2 Y0 2.957790 1_445
Si2 Y0 2.957790 1_455
