# generated using pymatgen
data_Ho
_symmetry_space_group_name_H-M   'P 1'
_cell_length_a   7.05479185
_cell_length_b   7.05479037
_cell_length_c   7.05479074
_cell_angle_alpha   59.99999817
_cell_angle_beta   60.00000513
_cell_angle_gamma   60.00000808
_symmetry_Int_Tables_number   1
_chemical_formula_structural   Ho
_chemical_formula_sum   Ho8
_cell_volume   248.27757443
_cell_formula_units_Z   8
loop_
 _symmetry_equiv_pos_site_id
 _symmetry_equiv_pos_as_xyz
  1  'x, y, z'
loop_
 _atom_site_type_symbol
 _atom_site_label
 _atom_site_symmetry_multiplicity
 _atom_site_fract_x
 _atom_site_fract_y
 _atom_site_fract_z
 _atom_site_occupancy
  Ho  Ho0_0  1  0.00000000  0.00000000  0.00000000  1
  Ho  Ho0_1  1  0.00000000  0.00000000  0.50000000  1
  Ho  Ho0_2  1  0.00000000  0.50000000  0.00000000  1
  Ho  Ho0_3  1  0.00000000  0.50000000  0.50000000  1
  Ho  Ho0_4  1  0.50000000  0.00000000  0.00000000  1
  Ho  Ho0_5  1  0.50000000  0.00000000  0.50000000  1
  Ho  Ho0_6  1  0.50000000  0.50000000  1.00000000  1
  Ho  Ho0_7  1  0.50000000  0.50000000  0.50000000  1
loop_
_geom_bond_atom_site_label_1
_geom_bond_atom_site_label_2
_geom_bond_distance
_geom_bond_site_symmetry_2
Ho0_0 Ho0_3 3.527395 1_545
Ho0_0 Ho0_3 3.527395 1_554
Ho0_0 Ho0_2 3.527395 1_545
Ho0_0 Ho0_2 3.527395 1_555
Ho0_0 Ho0_1 3.527395 1_555
Ho0_0 Ho0_1 3.527395 1_554
Ho0_0 Ho0_5 3.527396 1_554
Ho0_0 Ho0_5 3.527396 1_455
Ho0_0 Ho0_4 3.527396 1_455
Ho0_0 Ho0_4 3.527396 1_555
Ho0_0 Ho0_6 3.527396 1_544
Ho0_0 Ho0_6 3.527396 1_454
Ho0_1 Ho0_2 3.527395 1_555
Ho0_1 Ho0_2 3.527395 1_546
Ho0_1 Ho0_3 3.527395 1_545
Ho0_1 Ho0_3 3.527395 1_555
Ho0_1 Ho0_4 3.527396 1_555
Ho0_1 Ho0_4 3.527396 1_456
Ho0_1 Ho0_5 3.527396 1_455
Ho0_1 Ho0_5 3.527396 1_555
Ho0_1 Ho0_7 3.527396 1_545
Ho0_1 Ho0_7 3.527396 1_455
Ho0_2 Ho0_3 3.527395 1_555
Ho0_2 Ho0_3 3.527395 1_554
Ho0_2 Ho0_7 3.527396 1_455
Ho0_2 Ho0_7 3.527396 1_554
Ho0_2 Ho0_6 3.527396 1_554
Ho0_2 Ho0_6 3.527396 1_454
Ho0_2 Ho0_4 3.527396 1_465
Ho0_2 Ho0_4 3.527396 1_555
Ho0_3 Ho0_6 3.527396 1_455
Ho0_3 Ho0_6 3.527396 1_554
Ho0_3 Ho0_7 3.527396 1_555
Ho0_3 Ho0_7 3.527396 1_455
Ho0_3 Ho0_5 3.527396 1_465
Ho0_3 Ho0_5 3.527396 1_555
Ho0_4 Ho0_7 3.527395 1_545
Ho0_4 Ho0_7 3.527395 1_554
Ho0_4 Ho0_6 3.527395 1_544
Ho0_4 Ho0_6 3.527395 1_554
Ho0_4 Ho0_5 3.527395 1_555
Ho0_4 Ho0_5 3.527395 1_554
Ho0_5 Ho0_6 3.527395 1_545
Ho0_5 Ho0_6 3.527395 1_554
Ho0_5 Ho0_7 3.527395 1_545
Ho0_5 Ho0_7 3.527395 1_555
Ho0_6 Ho0_7 3.527395 1_555
Ho0_6 Ho0_7 3.527395 1_556
