# generated using pymatgen
data_AgCO2
_symmetry_space_group_name_H-M   'P 1'
_cell_length_a   7.03901800
_cell_length_b   3.25029800
_cell_length_c   9.54601817
_cell_angle_alpha   80.99164569
_cell_angle_beta   90.00000000
_cell_angle_gamma   90.00000000
_symmetry_Int_Tables_number   1
_chemical_formula_structural   AgCO2
_chemical_formula_sum   'Ag4 C4 O8'
_cell_volume   215.70857291
_cell_formula_units_Z   4
loop_
 _symmetry_equiv_pos_site_id
 _symmetry_equiv_pos_as_xyz
  1  'x, y, z'
loop_
 _atom_site_type_symbol
 _atom_site_label
 _atom_site_symmetry_multiplicity
 _atom_site_fract_x
 _atom_site_fract_y
 _atom_site_fract_z
 _atom_site_occupancy
  Ag  Ag0  1  0.50142200  0.95428800  0.85047400  1
  Ag  Ag1  1  0.99857800  0.95428800  0.35047400  1
  Ag  Ag2  1  0.49857800  0.04571200  0.14952600  1
  Ag  Ag3  1  0.00142200  0.04571200  0.64952600  1
  C  C0  1  0.38890500  0.98572500  0.49881600  1
  C  C1  1  0.11109500  0.98572500  0.99881600  1
  C  C2  1  0.61109500  0.01427500  0.50118400  1
  C  C3  1  0.88890500  0.01427500  0.00118400  1
  O  O0  1  0.19204900  0.86821300  0.11661300  1
  O  O1  1  0.80795100  0.13178700  0.88338700  1
  O  O2  1  0.30974700  0.08304600  0.37903900  1
  O  O3  1  0.30795100  0.86821300  0.61661300  1
  O  O4  1  0.19025300  0.08304600  0.87903900  1
  O  O5  1  0.69204900  0.13178700  0.38338700  1
  O  O6  1  0.80974700  0.91695400  0.12096100  1
  O  O7  1  0.69025300  0.91695400  0.62096100  1
loop_
_geom_bond_atom_site_label_1
_geom_bond_atom_site_label_2
_geom_bond_distance
_geom_bond_site_symmetry_2
Ag0 O4 2.254497 1_565
Ag0 O1 2.268001 1_565
Ag0 O7 2.581649 1_555
Ag0 O3 2.666885 1_555
Ag1 O2 2.254497 1_665
Ag1 O5 2.268001 1_565
Ag1 O6 2.581649 1_555
Ag1 O0 2.666885 1_655
Ag2 O6 2.254497 1_545
Ag2 O0 2.268001 1_545
Ag2 O2 2.581649 1_555
Ag2 O5 2.666885 1_555
Ag3 O7 2.254497 1_445
Ag3 O3 2.268001 1_545
Ag3 O4 2.581649 1_555
Ag3 O1 2.666885 1_455
C0 O3 1.265141 1_555
C0 O2 1.266733 1_565
C1 O0 1.265141 1_556
C1 O4 1.266733 1_565
C2 O5 1.265141 1_555
C2 O7 1.266733 1_545
C3 O1 1.265141 1_554
C3 O6 1.266733 1_545
