# generated using pymatgen
data_CaMg14Fe
_symmetry_space_group_name_H-M   'P 1'
_cell_length_a   6.39401291
_cell_length_b   6.39401239
_cell_length_c   10.09661594
_cell_angle_alpha   90.00000000
_cell_angle_beta   90.00000000
_cell_angle_gamma   120.00000274
_symmetry_Int_Tables_number   1
_chemical_formula_structural   CaMg14Fe
_chemical_formula_sum   'Ca1 Mg14 Fe1'
_cell_volume   357.48139067
_cell_formula_units_Z   1
loop_
 _symmetry_equiv_pos_site_id
 _symmetry_equiv_pos_as_xyz
  1  'x, y, z'
loop_
 _atom_site_type_symbol
 _atom_site_label
 _atom_site_symmetry_multiplicity
 _atom_site_fract_x
 _atom_site_fract_y
 _atom_site_fract_z
 _atom_site_occupancy
  Ca  Ca0  1  0.16666700  0.33333300  0.12500000  1
  Mg  Mg0  1  0.17678701  0.83839300  0.12500000  1
  Mg  Mg1  1  0.16006831  0.83003365  0.62500000  1
  Mg  Mg2  1  0.66160700  0.32321299  0.12500000  1
  Mg  Mg3  1  0.66996635  0.33993169  0.62500000  1
  Mg  Mg4  1  0.66160700  0.83839300  0.12500000  1
  Mg  Mg5  1  0.66996635  0.83003365  0.62500000  1
  Mg  Mg6  1  0.32837603  0.17162397  0.39564141  1
  Mg  Mg7  1  0.32837603  0.17162397  0.85435859  1
  Mg  Mg8  1  0.32837603  0.65675306  0.39564141  1
  Mg  Mg9  1  0.32837603  0.65675306  0.85435859  1
  Mg  Mg10  1  0.84324694  0.17162397  0.39564141  1
  Mg  Mg11  1  0.84324694  0.17162397  0.85435859  1
  Mg  Mg12  1  0.83333300  0.66666700  0.36589654  1
  Mg  Mg13  1  0.83333300  0.66666700  0.88410346  1
  Fe  Fe0  1  0.16666700  0.33333300  0.62500000  1
loop_
_geom_bond_atom_site_label_1
_geom_bond_atom_site_label_2
_geom_bond_distance
_geom_bond_site_symmetry_2
Ca0 Mg0 3.197497 1_555
Ca0 Mg4 3.197497 1_555
Ca0 Mg4 3.197497 1_445
Ca0 Mg0 3.197497 1_545
Ca0 Mg2 3.197498 1_455
Ca0 Mg2 3.197498 1_555
Ca0 Mg7 3.267136 1_554
Ca0 Mg6 3.267136 1_555
Ca0 Mg9 3.267142 1_554
Ca0 Mg8 3.267142 1_555
Ca0 Mg11 3.267142 1_454
Ca0 Mg10 3.267142 1_455
Mg0 Mg12 3.087518 1_455
Mg0 Mg13 3.087518 1_454
Mg0 Mg2 3.099945 1_565
Mg0 Mg4 3.099945 1_555
Mg0 Mg2 3.294067 1_455
Mg0 Mg4 3.294068 1_455
Mg0 Mg9 3.298628 1_554
Mg0 Mg8 3.298628 1_555
Mg0 Mg7 3.298634 1_564
Mg0 Mg6 3.298634 1_565
Mg1 Mg8 2.990103 1_555
Mg1 Mg9 2.990103 1_555
Mg1 Mg6 2.990110 1_565
Mg1 Mg7 2.990110 1_565
Mg1 Mg3 3.133718 1_455
Mg1 Mg5 3.133718 1_455
Mg1 Mg13 3.180758 1_455
Mg1 Mg12 3.180758 1_455
Mg1 Mg3 3.260294 1_565
Mg1 Mg5 3.260295 1_555
Mg2 Mg4 3.099945 1_545
Mg2 Mg4 3.294067 1_555
Mg2 Mg7 3.298634 1_554
Mg2 Mg6 3.298634 1_555
Mg3 Mg6 2.990110 1_555
Mg3 Mg7 2.990110 1_555
Mg3 Mg5 3.133718 1_555
Mg3 Mg5 3.260294 1_545
Mg4 Mg9 3.298634 1_554
Mg4 Mg8 3.298634 1_555
Mg5 Mg8 2.990110 1_555
Mg5 Mg9 2.990110 1_555
Mg6 Mg8 3.101921 1_555
Mg6 Mg8 3.292091 1_545
Mg7 Mg9 3.101921 1_555
Mg7 Mg9 3.292091 1_545
Mg10 Mg3 2.990103 1_555
Mg10 Mg5 2.990110 1_545
Mg10 Mg8 3.101921 1_655
Mg10 Mg6 3.101922 1_655
Mg10 Mg12 3.211550 1_545
Mg10 Mg12 3.211550 1_555
Mg10 Mg8 3.292091 1_545
Mg10 Mg6 3.292091 1_555
Mg10 Mg2 3.298628 1_555
Mg10 Mg4 3.298634 1_545
Mg11 Mg3 2.990103 1_555
Mg11 Mg5 2.990110 1_545
Mg11 Mg9 3.101921 1_655
Mg11 Mg7 3.101922 1_655
Mg11 Mg13 3.211550 1_545
Mg11 Mg13 3.211550 1_555
Mg11 Mg9 3.292091 1_545
Mg11 Mg7 3.292091 1_555
Mg11 Mg2 3.298628 1_556
Mg11 Mg4 3.298634 1_546
Mg12 Mg4 3.087511 1_555
Mg12 Mg2 3.087518 1_555
Mg12 Mg5 3.180752 1_555
Mg12 Mg3 3.180758 1_555
Mg12 Mg6 3.211550 1_665
Mg12 Mg6 3.211550 1_555
Mg12 Mg8 3.211551 1_555
Mg12 Mg8 3.211551 1_655
Mg13 Mg4 3.087511 1_556
Mg13 Mg2 3.087518 1_556
Mg13 Mg5 3.180752 1_555
Mg13 Mg3 3.180758 1_555
Mg13 Mg7 3.211550 1_665
Mg13 Mg7 3.211550 1_555
Mg13 Mg9 3.211551 1_555
Mg13 Mg9 3.211551 1_655
Fe0 Mg6 2.927449 1_555
Fe0 Mg7 2.927449 1_555
Fe0 Mg8 2.927456 1_555
Fe0 Mg9 2.927456 1_555
Fe0 Mg10 2.927456 1_455
Fe0 Mg11 2.927456 1_455
Fe0 Mg1 3.197215 1_555
Fe0 Mg5 3.197215 1_445
Fe0 Mg5 3.197215 1_555
Fe0 Mg1 3.197215 1_545
Fe0 Mg3 3.197215 1_455
Fe0 Mg3 3.197215 1_555
