# generated using pymatgen
data_Tb3Pm
_symmetry_space_group_name_H-M   'P 1'
_cell_length_a   6.21206876
_cell_length_b   6.21206876
_cell_length_c   6.21206876
_cell_angle_alpha   131.76909609
_cell_angle_beta   131.76909609
_cell_angle_gamma   70.59395989
_symmetry_Int_Tables_number   1
_chemical_formula_structural   Tb3Pm
_chemical_formula_sum   'Tb3 Pm1'
_cell_volume   130.64577701
_cell_formula_units_Z   1
loop_
 _symmetry_equiv_pos_site_id
 _symmetry_equiv_pos_as_xyz
  1  'x, y, z'
loop_
 _atom_site_type_symbol
 _atom_site_label
 _atom_site_symmetry_multiplicity
 _atom_site_fract_x
 _atom_site_fract_y
 _atom_site_fract_z
 _atom_site_occupancy
  Tb  Tb0  1  0.75000000  0.25000000  0.50000000  1
  Tb  Tb1  1  0.25000000  0.75000000  0.50000000  1
  Tb  Tb2  1  0.50000000  0.50000000  -0.00000000  1
  Pm  Pm0  1  -0.00000000  -0.00000000  -0.00000000  1
loop_
_geom_bond_atom_site_label_1
_geom_bond_atom_site_label_2
_geom_bond_distance
_geom_bond_site_symmetry_2
Tb0 Tb2 3.587261 1_555
Tb0 Tb2 3.587261 1_556
Tb0 Tb2 3.587261 1_656
Tb0 Tb2 3.587261 1_545
Tb0 Tb1 3.589424 1_656
Tb0 Tb1 3.589424 1_544
Tb0 Tb1 3.589424 1_645
Tb0 Tb1 3.589424 1_555
Tb1 Tb2 3.587261 1_555
Tb1 Tb2 3.587261 1_556
Tb1 Tb2 3.587261 1_566
Tb1 Tb2 3.587261 1_455
Pm0 Tb1 3.587261 1_544
Pm0 Tb1 3.587261 1_545
Pm0 Tb0 3.587261 1_555
Pm0 Tb0 3.587261 1_454
Pm0 Tb0 3.587261 1_455
Pm0 Tb1 3.587261 1_444
Pm0 Tb1 3.587261 1_555
Pm0 Tb0 3.587261 1_444
Pm0 Tb2 3.589424 1_455
Pm0 Tb2 3.589424 1_556
Pm0 Tb2 3.589424 1_545
Pm0 Tb2 3.589424 1_444
