# generated using pymatgen
data_TiFeN2
_symmetry_space_group_name_H-M   'P 1'
_cell_length_a   2.94337000
_cell_length_b   2.94542515
_cell_length_c   9.31508100
_cell_angle_alpha   90.00000000
_cell_angle_beta   90.00000000
_cell_angle_gamma   119.97692152
_symmetry_Int_Tables_number   1
_chemical_formula_structural   TiFeN2
_chemical_formula_sum   'Ti2 Fe2 N4'
_cell_volume   69.95376073
_cell_formula_units_Z   2
loop_
 _symmetry_equiv_pos_site_id
 _symmetry_equiv_pos_as_xyz
  1  'x, y, z'
loop_
 _atom_site_type_symbol
 _atom_site_label
 _atom_site_symmetry_multiplicity
 _atom_site_fract_x
 _atom_site_fract_y
 _atom_site_fract_z
 _atom_site_occupancy
  Ti  Ti0  1  0.66888600  0.33777100  0.25000000  1
  Ti  Ti1  1  0.33111400  0.66222900  0.75000000  1
  Fe  Fe0  1  0.00000000  0.00000000  0.00000000  1
  Fe  Fe1  1  0.00000000  0.00000000  0.50000000  1
  N  N0  1  0.66627800  0.33255800  0.88740800  1
  N  N1  1  0.33372200  0.66744200  0.11259200  1
  N  N2  1  0.33372200  0.66744200  0.38740800  1
  N  N3  1  0.66627800  0.33255800  0.61259200  1
loop_
_geom_bond_atom_site_label_1
_geom_bond_atom_site_label_2
_geom_bond_distance
_geom_bond_site_symmetry_2
Fe0 N1 1.996440 1_445
Fe0 N0 1.996440 1_554
Fe0 N1 1.996444 1_545
Fe0 N0 1.996444 1_454
Fe0 N1 1.999978 1_555
Fe0 N0 1.999978 1_444
Fe1 N2 1.996440 1_445
Fe1 N3 1.996440 1_555
Fe1 N2 1.996444 1_545
Fe1 N3 1.996444 1_455
Fe1 N2 1.999978 1_555
Fe1 N3 1.999978 1_445
N0 Ti1 2.124066 1_555
N0 Ti1 2.124068 1_655
N0 Ti1 2.136206 1_545
N1 Ti0 2.124066 1_555
N1 Ti0 2.124068 1_455
N1 Ti0 2.136206 1_565
N2 Ti0 2.124066 1_555
N2 Ti0 2.124068 1_455
N2 Ti0 2.136206 1_565
N3 Ti1 2.124066 1_555
N3 Ti1 2.124068 1_655
N3 Ti1 2.136206 1_545
