# generated using pymatgen
data_Tm4CdPt
_symmetry_space_group_name_H-M   'P 1'
_cell_length_a   9.49216431
_cell_length_b   9.49217813
_cell_length_c   9.49217417
_cell_angle_alpha   60.00001952
_cell_angle_beta   59.99997790
_cell_angle_gamma   60.00000062
_symmetry_Int_Tables_number   1
_chemical_formula_structural   Tm4CdPt
_chemical_formula_sum   'Tm16 Cd4 Pt4'
_cell_volume   604.75827695
_cell_formula_units_Z   4
loop_
 _symmetry_equiv_pos_site_id
 _symmetry_equiv_pos_as_xyz
  1  'x, y, z'
loop_
 _atom_site_type_symbol
 _atom_site_label
 _atom_site_symmetry_multiplicity
 _atom_site_fract_x
 _atom_site_fract_y
 _atom_site_fract_z
 _atom_site_occupancy
  Tm  Tm0  1  0.35311984  0.35312075  0.35312049  1
  Tm  Tm1  1  0.35312047  0.35312125  0.94063983  1
  Tm  Tm2  1  0.35312032  0.94063989  0.35312059  1
  Tm  Tm3  1  0.94063897  0.35312140  0.35312044  1
  Tm  Tm4  1  0.81028320  0.18971615  0.18971643  1
  Tm  Tm5  1  0.18971674  0.81028260  0.81028412  1
  Tm  Tm6  1  0.18971599  0.81028145  0.18971602  1
  Tm  Tm7  1  0.81028415  0.18971664  0.81028229  1
  Tm  Tm8  1  0.18971627  0.18971646  0.81028190  1
  Tm  Tm9  1  0.81028543  0.81028128  0.18971667  1
  Tm  Tm10  1  0.93600604  0.56399427  0.56399440  1
  Tm  Tm11  1  0.56399642  0.93600385  0.93600359  1
  Tm  Tm12  1  0.56399506  0.93600559  0.56399584  1
  Tm  Tm13  1  0.93600432  0.56399604  0.93600496  1
  Tm  Tm14  1  0.56399448  0.56399473  0.93600680  1
  Tm  Tm15  1  0.93600393  0.93600439  0.56399626  1
  Cd  Cd0  1  0.58189832  0.58189677  0.58189787  1
  Cd  Cd1  1  0.58189567  0.58189465  0.25431374  1
  Cd  Cd2  1  0.58189457  0.25431588  0.58189479  1
  Cd  Cd3  1  0.25431303  0.58189427  0.58189550  1
  Pt  Pt0  1  0.14344967  0.14345096  0.14345015  1
  Pt  Pt1  1  0.14344973  0.14345066  0.56965042  1
  Pt  Pt2  1  0.14344941  0.56965173  0.14344986  1
  Pt  Pt3  1  0.56964996  0.14345136  0.14345005  1
loop_
_geom_bond_atom_site_label_1
_geom_bond_atom_site_label_2
_geom_bond_distance
_geom_bond_site_symmetry_2
Cd0 Cd2 3.109489 1_555
Cd0 Cd1 3.109508 1_555
Cd0 Cd3 3.109517 1_555
Cd0 Tm10 3.200347 1_555
Cd0 Tm14 3.200362 1_555
Cd0 Tm12 3.200365 1_555
Cd0 Tm3 3.309596 1_555
Cd0 Tm1 3.309605 1_555
Cd0 Tm2 3.309619 1_555
Cd0 Tm7 3.437536 1_555
Cd0 Tm9 3.437544 1_555
Cd0 Tm5 3.437545 1_555
Cd1 Cd2 3.109447 1_555
Cd1 Cd3 3.109465 1_555
Cd1 Tm14 3.200374 1_554
Cd1 Tm13 3.200382 1_554
Cd1 Tm11 3.200395 1_554
Cd1 Tm0 3.309592 1_555
Cd1 Tm3 3.309593 1_555
Cd1 Tm2 3.309612 1_555
Cd1 Tm4 3.437550 1_555
Cd1 Tm9 3.437554 1_555
Cd1 Tm6 3.437557 1_555
Cd2 Cd3 3.109445 1_555
Cd2 Tm12 3.200393 1_545
Cd2 Tm15 3.200399 1_545
Cd2 Tm11 3.200401 1_545
Cd2 Tm0 3.309593 1_555
Cd2 Tm3 3.309596 1_555
Cd2 Tm1 3.309603 1_555
Cd2 Tm7 3.437550 1_555
Cd2 Tm8 3.437552 1_555
Cd2 Tm4 3.437556 1_555
Cd3 Tm10 3.200371 1_455
Cd3 Tm13 3.200386 1_455
Cd3 Tm15 3.200394 1_455
Cd3 Tm0 3.309584 1_555
Cd3 Tm1 3.309607 1_555
Cd3 Tm2 3.309618 1_555
Cd3 Tm8 3.437543 1_555
Cd3 Tm6 3.437557 1_555
Cd3 Tm5 3.437563 1_555
Pt0 Tm4 2.793230 1_455
Pt0 Tm8 2.793248 1_554
Pt0 Tm6 2.793261 1_545
Pt0 Tm3 2.815360 1_455
Pt0 Tm1 2.815362 1_554
Pt0 Tm2 2.815362 1_545
Pt0 Tm13 3.441862 1_454
Pt0 Tm15 3.441870 1_445
Pt0 Tm11 3.441875 1_544
Pt1 Tm8 2.793206 1_555
Pt1 Tm7 2.793215 1_455
Pt1 Tm5 2.793241 1_545
Pt1 Tm0 2.815356 1_555
Pt1 Tm2 2.815359 1_545
Pt1 Tm3 2.815360 1_455
Pt1 Tm10 3.441846 1_455
Pt1 Tm12 3.441859 1_545
Pt1 Tm15 3.441870 1_445
Pt2 Tm6 2.793193 1_555
Pt2 Tm9 2.793199 1_455
Pt2 Tm5 2.793217 1_554
Pt2 Tm1 2.815358 1_554
Pt2 Tm3 2.815359 1_455
Pt2 Tm0 2.815362 1_555
Pt2 Tm10 3.441847 1_455
Pt2 Tm14 3.441849 1_554
Pt2 Tm13 3.441861 1_454
Pt3 Tm4 2.793213 1_555
Pt3 Tm7 2.793237 1_554
Pt3 Tm9 2.793258 1_545
Pt3 Tm1 2.815352 1_554
Pt3 Tm0 2.815354 1_555
Pt3 Tm2 2.815361 1_545
Pt3 Tm14 3.441846 1_554
Pt3 Tm12 3.441866 1_545
Pt3 Tm11 3.441883 1_544
