# generated using pymatgen
data_Ca3Mn2(GeO4)3
_symmetry_space_group_name_H-M   'P 1'
_cell_length_a   10.84038628
_cell_length_b   10.84038571
_cell_length_c   10.84038585
_cell_angle_alpha   109.47122090
_cell_angle_beta   109.47121983
_cell_angle_gamma   109.47121990
_symmetry_Int_Tables_number   1
_chemical_formula_structural   Ca3Mn2(GeO4)3
_chemical_formula_sum   'Ca12 Mn8 Ge12 O48'
_cell_volume   980.64619932
_cell_formula_units_Z   4
loop_
 _symmetry_equiv_pos_site_id
 _symmetry_equiv_pos_as_xyz
  1  'x, y, z'
loop_
 _atom_site_type_symbol
 _atom_site_label
 _atom_site_symmetry_multiplicity
 _atom_site_fract_x
 _atom_site_fract_y
 _atom_site_fract_z
 _atom_site_occupancy
  Ca  Ca0  1  0.62500000  0.25000000  0.87500000  1
  Ca  Ca1  1  0.87500000  0.75000000  0.62500000  1
  Ca  Ca2  1  0.75000000  0.62500000  0.87500000  1
  Ca  Ca3  1  0.25000000  0.87500000  0.62500000  1
  Ca  Ca4  1  0.87500000  0.62500000  0.25000000  1
  Ca  Ca5  1  0.62500000  0.87500000  0.75000000  1
  Ca  Ca6  1  0.37500000  0.75000000  0.12500000  1
  Ca  Ca7  1  0.12500000  0.25000000  0.37500000  1
  Ca  Ca8  1  0.25000000  0.37500000  0.12500000  1
  Ca  Ca9  1  0.75000000  0.12500000  0.37500000  1
  Ca  Ca10  1  0.12500000  0.37500000  0.75000000  1
  Ca  Ca11  1  0.37500000  0.12500000  0.25000000  1
  Mn  Mn0  1  0.50000000  0.50000000  0.50000000  1
  Mn  Mn1  1  0.50000000  0.50000000  0.00000000  1
  Mn  Mn2  1  0.50000000  0.00000000  0.50000000  1
  Mn  Mn3  1  0.00000000  0.50000000  0.50000000  1
  Mn  Mn4  1  0.50000000  0.00000000  0.00000000  1
  Mn  Mn5  1  0.00000000  0.00000000  0.50000000  1
  Mn  Mn6  1  0.00000000  0.50000000  0.00000000  1
  Mn  Mn7  1  0.00000000  0.00000000  0.00000000  1
  Ge  Ge0  1  0.87500000  0.12500000  0.75000000  1
  Ge  Ge1  1  0.12500000  0.87500000  0.25000000  1
  Ge  Ge2  1  0.25000000  0.62500000  0.37500000  1
  Ge  Ge3  1  0.12500000  0.75000000  0.87500000  1
  Ge  Ge4  1  0.75000000  0.87500000  0.12500000  1
  Ge  Ge5  1  0.37500000  0.25000000  0.62500000  1
  Ge  Ge6  1  0.62500000  0.75000000  0.37500000  1
  Ge  Ge7  1  0.87500000  0.25000000  0.12500000  1
  Ge  Ge8  1  0.25000000  0.12500000  0.87500000  1
  Ge  Ge9  1  0.75000000  0.37500000  0.62500000  1
  Ge  Ge10  1  0.37500000  0.62500000  0.75000000  1
  Ge  Ge11  1  0.62500000  0.37500000  0.25000000  1
  O  O0  1  0.79540490  0.41490063  0.81354103  1
  O  O1  1  0.08509937  0.88050427  0.39864040  1
  O  O2  1  0.68645897  0.10135960  0.98186286  1
  O  O3  1  0.70459510  0.51813714  0.61949573  1
  O  O4  1  0.70459510  0.68645897  0.08509937  1
  O  O5  1  0.51813714  0.61949573  0.70459510  1
  O  O6  1  0.10135960  0.61949573  0.41490063  1
  O  O7  1  0.61949573  0.70459510  0.51813714  1
  O  O8  1  0.39864040  0.81354103  0.51813714  1
  O  O9  1  0.88050427  0.98186286  0.79540490  1
  O  O10  1  0.98186286  0.79540490  0.88050427  1
  O  O11  1  0.08509937  0.70459510  0.68645897  1
  O  O12  1  0.61949573  0.41490063  0.10135960  1
  O  O13  1  0.51813714  0.39864040  0.81354103  1
  O  O14  1  0.68645897  0.08509937  0.70459510  1
  O  O15  1  0.41490063  0.10135960  0.61949573  1
  O  O16  1  0.81354103  0.51813714  0.39864040  1
  O  O17  1  0.39864040  0.08509937  0.88050427  1
  O  O18  1  0.10135960  0.98186286  0.68645897  1
  O  O19  1  0.60135960  0.18645897  0.48186286  1
  O  O20  1  0.98186286  0.68645897  0.10135960  1
  O  O21  1  0.81354103  0.79540490  0.41490063  1
  O  O22  1  0.88050427  0.39864040  0.08509937  1
  O  O23  1  0.79540490  0.88050427  0.98186286  1
  O  O24  1  0.20459510  0.58509937  0.18645897  1
  O  O25  1  0.91490063  0.11949573  0.60135960  1
  O  O26  1  0.31354103  0.89864040  0.01813714  1
  O  O27  1  0.29540490  0.48186286  0.38050427  1
  O  O28  1  0.29540490  0.31354103  0.91490063  1
  O  O29  1  0.48186286  0.38050427  0.29540490  1
  O  O30  1  0.89864040  0.38050427  0.58509937  1
  O  O31  1  0.38050427  0.29540490  0.48186286  1
  O  O32  1  0.20459510  0.11949573  0.01813714  1
  O  O33  1  0.11949573  0.60135960  0.91490063  1
  O  O34  1  0.18645897  0.20459510  0.58509937  1
  O  O35  1  0.58509937  0.18645897  0.20459510  1
  O  O36  1  0.01813714  0.31354103  0.89864040  1
  O  O37  1  0.89864040  0.01813714  0.31354103  1
  O  O38  1  0.60135960  0.91490063  0.11949573  1
  O  O39  1  0.18645897  0.48186286  0.60135960  1
  O  O40  1  0.58509937  0.89864040  0.38050427  1
  O  O41  1  0.31354103  0.91490063  0.29540490  1
  O  O42  1  0.48186286  0.60135960  0.18645897  1
  O  O43  1  0.38050427  0.58509937  0.89864040  1
  O  O44  1  0.91490063  0.29540490  0.31354103  1
  O  O45  1  0.01813714  0.20459510  0.11949573  1
  O  O46  1  0.11949573  0.01813714  0.20459510  1
  O  O47  1  0.41490063  0.81354103  0.79540490  1
loop_
_geom_bond_atom_site_label_1
_geom_bond_atom_site_label_2
_geom_bond_distance
_geom_bond_site_symmetry_2
Ca0 O2 2.414074 1_555
Ca0 O13 2.414074 1_555
Ca0 O15 2.414081 1_555
Ca0 O22 2.414081 1_556
Ca0 O12 2.542581 1_556
Ca0 O14 2.542581 1_555
Ca0 O0 2.542581 1_555
Ca0 O17 2.542582 1_555
Ca1 O10 2.414080 1_555
Ca1 O7 2.414080 1_555
Ca1 O21 2.414081 1_555
Ca1 O11 2.414081 1_655
Ca1 O9 2.542573 1_555
Ca1 O3 2.542573 1_555
Ca1 O16 2.542575 1_555
Ca1 O18 2.542575 1_655
Ca2 O23 2.414080 1_555
Ca2 O3 2.414080 1_555
Ca2 O0 2.414081 1_555
Ca2 O4 2.414081 1_556
Ca2 O10 2.542573 1_555
Ca2 O5 2.542573 1_555
Ca2 O13 2.542575 1_555
Ca2 O20 2.542575 1_556
Ca3 O18 2.414074 1_555
Ca3 O8 2.414074 1_555
Ca3 O6 2.414081 1_555
Ca3 O17 2.414081 1_565
Ca3 O15 2.542581 1_565
Ca3 O11 2.542581 1_555
Ca3 O47 2.542581 1_555
Ca3 O1 2.542581 1_555
Ca4 O16 2.414074 1_555
Ca4 O20 2.414074 1_555
Ca4 O1 2.414081 1_655
Ca4 O12 2.414081 1_555
Ca4 O22 2.542581 1_555
Ca4 O21 2.542581 1_555
Ca4 O4 2.542581 1_555
Ca4 O6 2.542582 1_655
Ca5 O5 2.414080 1_555
Ca5 O9 2.414080 1_555
Ca5 O14 2.414081 1_565
Ca5 O47 2.414081 1_555
Ca5 O7 2.542573 1_555
Ca5 O23 2.542573 1_555
Ca5 O2 2.542575 1_565
Ca5 O8 2.542575 1_555
Ca6 O26 2.414074 1_555
Ca6 O42 2.414074 1_555
Ca6 O40 2.414081 1_555
Ca6 O33 2.414081 1_554
Ca6 O43 2.542581 1_554
Ca6 O41 2.542581 1_555
Ca6 O24 2.542581 1_555
Ca6 O38 2.542582 1_555
Ca7 O45 2.414080 1_555
Ca7 O31 2.414080 1_555
Ca7 O34 2.414081 1_555
Ca7 O44 2.414081 1_455
Ca7 O46 2.542573 1_555
Ca7 O27 2.542573 1_555
Ca7 O39 2.542575 1_555
Ca7 O37 2.542575 1_455
Ca8 O32 2.414080 1_555
Ca8 O27 2.414080 1_555
Ca8 O24 2.414081 1_555
Ca8 O28 2.414081 1_554
Ca8 O45 2.542573 1_555
Ca8 O29 2.542573 1_555
Ca8 O42 2.542575 1_555
Ca8 O36 2.542575 1_554
Ca9 O37 2.414074 1_555
Ca9 O19 2.414074 1_555
Ca9 O30 2.414081 1_555
Ca9 O38 2.414081 1_545
Ca9 O40 2.542581 1_545
Ca9 O44 2.542581 1_555
Ca9 O35 2.542581 1_555
Ca9 O25 2.542581 1_555
Ca10 O39 2.414074 1_555
Ca10 O36 2.414074 1_555
Ca10 O25 2.414081 1_455
Ca10 O43 2.414081 1_555
Ca10 O33 2.542581 1_555
Ca10 O34 2.542581 1_555
Ca10 O28 2.542581 1_555
Ca10 O30 2.542582 1_455
Ca11 O29 2.414080 1_555
Ca11 O46 2.414080 1_555
Ca11 O41 2.414081 1_545
Ca11 O35 2.414081 1_555
Ca11 O31 2.542573 1_555
Ca11 O32 2.542573 1_555
Ca11 O26 2.542575 1_545
Ca11 O19 2.542575 1_555
Mn0 O5 2.063942 1_555
Mn0 O29 2.063942 1_555
Mn0 O7 2.063942 1_555
Mn0 O31 2.063942 1_555
Mn0 O3 2.063942 1_555
Mn0 O27 2.063942 1_555
Mn1 O43 2.063947 1_554
Mn1 O12 2.063947 1_555
Mn1 O4 2.063947 1_555
Mn1 O28 2.063947 1_554
Mn1 O13 2.063954 1_554
Mn1 O42 2.063954 1_555
Mn2 O40 2.063947 1_545
Mn2 O15 2.063947 1_555
Mn2 O14 2.063947 1_555
Mn2 O41 2.063947 1_545
Mn2 O8 2.063954 1_545
Mn2 O19 2.063954 1_555
Mn3 O11 2.063947 1_555
Mn3 O44 2.063947 1_455
Mn3 O6 2.063947 1_555
Mn3 O30 2.063947 1_455
Mn3 O16 2.063954 1_455
Mn3 O39 2.063954 1_555
Mn4 O47 2.063947 1_544
Mn4 O35 2.063947 1_555
Mn4 O17 2.063947 1_554
Mn4 O38 2.063947 1_545
Mn4 O2 2.063954 1_554
Mn4 O26 2.063954 1_545
Mn5 O25 2.063947 1_455
Mn5 O1 2.063947 1_545
Mn5 O21 2.063947 1_445
Mn5 O34 2.063947 1_555
Mn5 O37 2.063954 1_455
Mn5 O18 2.063954 1_545
Mn6 O33 2.063947 1_554
Mn6 O22 2.063947 1_455
Mn6 O24 2.063947 1_555
Mn6 O0 2.063947 1_454
Mn6 O36 2.063954 1_554
Mn6 O20 2.063954 1_455
Mn7 O10 2.063942 1_444
Mn7 O45 2.063942 1_555
Mn7 O46 2.063942 1_555
Mn7 O9 2.063942 1_444
Mn7 O32 2.063942 1_555
Mn7 O23 2.063942 1_444
Ge0 O25 1.790181 1_555
Ge0 O14 1.790181 1_555
Ge0 O36 1.790183 1_655
Ge0 O9 1.790191 1_545
Ge1 O1 1.790181 1_555
Ge1 O41 1.790181 1_555
Ge1 O20 1.790183 1_455
Ge1 O46 1.790191 1_565
Ge2 O24 1.790181 1_555
Ge2 O6 1.790181 1_555
Ge2 O8 1.790183 1_555
Ge2 O27 1.790191 1_555
Ge3 O33 1.790181 1_555
Ge3 O11 1.790181 1_555
Ge3 O26 1.790183 1_556
Ge3 O10 1.790191 1_455
Ge4 O4 1.790181 1_555
Ge4 O38 1.790181 1_555
Ge4 O37 1.790183 1_565
Ge4 O23 1.790191 1_554
Ge5 O15 1.790181 1_555
Ge5 O34 1.790181 1_555
Ge5 O13 1.790183 1_555
Ge5 O31 1.790191 1_555
Ge6 O40 1.790181 1_555
Ge6 O21 1.790181 1_555
Ge6 O42 1.790183 1_555
Ge6 O7 1.790191 1_555
Ge7 O22 1.790181 1_555
Ge7 O44 1.790181 1_555
Ge7 O2 1.790183 1_554
Ge7 O45 1.790191 1_655
Ge8 O28 1.790181 1_555
Ge8 O17 1.790181 1_555
Ge8 O18 1.790183 1_545
Ge8 O32 1.790191 1_556
Ge9 O0 1.790181 1_555
Ge9 O30 1.790181 1_555
Ge9 O19 1.790183 1_555
Ge9 O3 1.790191 1_555
Ge10 O47 1.790181 1_555
Ge10 O43 1.790181 1_555
Ge10 O39 1.790183 1_555
Ge10 O5 1.790191 1_555
Ge11 O35 1.790181 1_555
Ge11 O12 1.790181 1_555
Ge11 O16 1.790183 1_555
Ge11 O29 1.790191 1_555
