# generated using pymatgen
data_Mn12Zn4CN3
_symmetry_space_group_name_H-M   'P 1'
_cell_length_a   3.86117300
_cell_length_b   3.86117300
_cell_length_c   15.19334700
_cell_angle_alpha   90.00000000
_cell_angle_beta   90.00000000
_cell_angle_gamma   90.00000000
_symmetry_Int_Tables_number   1
_chemical_formula_structural   Mn12Zn4CN3
_chemical_formula_sum   'Mn12 Zn4 C1 N3'
_cell_volume   226.51239813
_cell_formula_units_Z   1
loop_
 _symmetry_equiv_pos_site_id
 _symmetry_equiv_pos_as_xyz
  1  'x, y, z'
loop_
 _atom_site_type_symbol
 _atom_site_label
 _atom_site_symmetry_multiplicity
 _atom_site_fract_x
 _atom_site_fract_y
 _atom_site_fract_z
 _atom_site_occupancy
  Mn  Mn0  1  0.00000000  0.00000000  0.12666000  1
  Mn  Mn1  1  0.00000000  0.00000000  0.37554200  1
  Mn  Mn2  1  0.00000000  0.00000000  0.62445800  1
  Mn  Mn3  1  0.00000000  0.00000000  0.87334000  1
  Mn  Mn4  1  0.00000000  0.50000000  0.00000000  1
  Mn  Mn5  1  0.00000000  0.50000000  0.25146300  1
  Mn  Mn6  1  0.00000000  0.50000000  0.50000000  1
  Mn  Mn7  1  0.00000000  0.50000000  0.74853700  1
  Mn  Mn8  1  0.50000000  0.00000000  0.00000000  1
  Mn  Mn9  1  0.50000000  0.00000000  0.25146300  1
  Mn  Mn10  1  0.50000000  0.00000000  0.50000000  1
  Mn  Mn11  1  0.50000000  0.00000000  0.74853700  1
  Zn  Zn0  1  0.50000000  0.50000000  0.12459400  1
  Zn  Zn1  1  0.50000000  0.50000000  0.37528900  1
  Zn  Zn2  1  0.50000000  0.50000000  0.62471100  1
  Zn  Zn3  1  0.50000000  0.50000000  0.87540600  1
  C  C0  1  0.00000000  0.00000000  0.00000000  1
  N  N0  1  0.00000000  0.00000000  0.25186800  1
  N  N1  1  0.00000000  0.00000000  0.50000000  1
  N  N2  1  0.00000000  0.00000000  0.74813200  1
loop_
_geom_bond_atom_site_label_1
_geom_bond_atom_site_label_2
_geom_bond_distance
_geom_bond_site_symmetry_2
Mn0 N0 1.902329 1_555
Mn0 Zn0 2.730442 1_455
Mn0 Zn0 2.730442 1_555
Mn0 Zn0 2.730442 1_445
Mn0 Zn0 2.730442 1_545
Mn1 N0 1.879022 1_555
Mn1 N1 1.890934 1_555
Mn1 Zn1 2.730264 1_455
Mn1 Zn1 2.730264 1_545
Mn1 Zn1 2.730264 1_555
Mn1 Zn1 2.730264 1_445
Mn2 N2 1.879022 1_555
Mn2 N1 1.890934 1_555
Mn2 Zn2 2.730264 1_455
Mn2 Zn2 2.730264 1_555
Mn2 Zn2 2.730264 1_445
Mn2 Zn2 2.730264 1_545
Mn3 N2 1.902329 1_555
Mn3 Zn3 2.730442 1_455
Mn3 Zn3 2.730442 1_545
Mn3 Zn3 2.730442 1_445
Mn3 Zn3 2.730442 1_555
Mn4 Zn3 2.703814 1_554
Mn4 Zn3 2.703814 1_454
Mn4 Zn0 2.703814 1_455
Mn4 Zn0 2.703814 1_555
Mn5 N0 1.930596 1_565
Mn5 N0 1.930596 1_555
Mn5 Zn1 2.695658 1_455
Mn5 Zn1 2.695658 1_555
Mn5 Zn0 2.728126 1_455
Mn5 Zn0 2.728126 1_555
Mn6 N1 1.930586 1_555
Mn6 N1 1.930586 1_565
Mn6 Zn2 2.705059 1_555
Mn6 Zn1 2.705059 1_455
Mn6 Zn2 2.705059 1_455
Mn6 Zn1 2.705059 1_555
Mn7 N2 1.930596 1_555
Mn7 N2 1.930596 1_565
Mn7 Zn2 2.695658 1_455
Mn7 Zn2 2.695658 1_555
Mn7 Zn3 2.728126 1_455
Mn7 Zn3 2.728126 1_555
Mn8 Zn3 2.703814 1_554
Mn8 Zn3 2.703814 1_544
Mn8 Zn0 2.703814 1_555
Mn8 Zn0 2.703814 1_545
Mn9 N0 1.930596 1_655
Mn9 N0 1.930596 1_555
Mn9 Zn1 2.695658 1_555
Mn9 Zn1 2.695658 1_545
Mn9 Zn0 2.728126 1_555
Mn9 Zn0 2.728126 1_545
Mn10 N1 1.930586 1_555
Mn10 N1 1.930586 1_655
Mn10 Zn2 2.705059 1_555
Mn10 Zn2 2.705059 1_545
Mn10 Zn1 2.705059 1_545
Mn10 Zn1 2.705059 1_555
Mn11 N2 1.930596 1_555
Mn11 N2 1.930596 1_655
Mn11 Zn2 2.695658 1_545
Mn11 Zn2 2.695658 1_555
Mn11 Zn3 2.728126 1_545
Mn11 Zn3 2.728126 1_555
C0 Mn0 1.924389 1_555
C0 Mn3 1.924389 1_554
C0 Mn8 1.930586 1_555
C0 Mn8 1.930586 1_455
C0 Mn4 1.930586 1_545
C0 Mn4 1.930586 1_555
