# generated using pymatgen
data_Ho4Ga12Pt
_symmetry_space_group_name_H-M   'P 1'
_cell_length_a   7.38103073
_cell_length_b   7.38103073
_cell_length_c   7.38103073
_cell_angle_alpha   109.47122063
_cell_angle_beta   109.47122063
_cell_angle_gamma   109.47122063
_symmetry_Int_Tables_number   1
_chemical_formula_structural   Ho4Ga12Pt
_chemical_formula_sum   'Ho4 Ga12 Pt1'
_cell_volume   309.54881798
_cell_formula_units_Z   1
loop_
 _symmetry_equiv_pos_site_id
 _symmetry_equiv_pos_as_xyz
  1  'x, y, z'
loop_
 _atom_site_type_symbol
 _atom_site_label
 _atom_site_symmetry_multiplicity
 _atom_site_fract_x
 _atom_site_fract_y
 _atom_site_fract_z
 _atom_site_occupancy
  Ho  Ho0  1  0.50000000  0.50000000  0.50000000  1
  Ho  Ho1  1  -0.00000000  -0.00000000  0.50000000  1
  Ho  Ho2  1  -0.00000000  0.50000000  -0.00000000  1
  Ho  Ho3  1  0.50000000  -0.00000000  -0.00000000  1
  Ga  Ga0  1  -0.00000000  0.29827868  0.29827868  1
  Ga  Ga1  1  0.00000000  0.70172132  0.70172132  1
  Ga  Ga2  1  0.29827868  -0.00000000  0.29827868  1
  Ga  Ga3  1  0.70172132  0.00000000  0.70172132  1
  Ga  Ga4  1  0.29827868  0.29827868  -0.00000000  1
  Ga  Ga5  1  0.70172132  0.70172132  0.00000000  1
  Ga  Ga6  1  0.50000000  0.75000000  0.25000000  1
  Ga  Ga7  1  0.50000000  0.25000000  0.75000000  1
  Ga  Ga8  1  0.25000000  0.50000000  0.75000000  1
  Ga  Ga9  1  0.75000000  0.50000000  0.25000000  1
  Ga  Ga10  1  0.75000000  0.25000000  0.50000000  1
  Ga  Ga11  1  0.25000000  0.75000000  0.50000000  1
  Pt  Pt0  1  0.00000000  -0.00000000  -0.00000000  1
loop_
_geom_bond_atom_site_label_1
_geom_bond_atom_site_label_2
_geom_bond_distance
_geom_bond_site_symmetry_2
Ga0 Pt0 2.542193 1_555
Ga0 Ga11 2.737842 1_555
Ga0 Ga8 2.737842 1_555
Ga0 Ga10 2.737842 1_455
Ga0 Ga9 2.737842 1_455
Ga0 Ho0 3.041257 1_555
Ga0 Ho3 3.041257 1_455
Ga0 Ho2 3.041257 1_555
Ga0 Ho1 3.041257 1_555
Ga1 Pt0 2.542193 1_566
Ga1 Ga11 2.737842 1_555
Ga1 Ga10 2.737842 1_455
Ga1 Ga9 2.737842 1_455
Ga1 Ga8 2.737842 1_555
Ga1 Ho1 3.041257 1_565
Ga1 Ho2 3.041257 1_556
Ga1 Ho3 3.041257 1_566
Ga1 Ho0 3.041257 1_455
Ga2 Pt0 2.542193 1_555
Ga2 Ga6 2.737842 1_545
Ga2 Ga7 2.737842 1_555
Ga2 Ho0 3.041257 1_555
Ga2 Ho3 3.041257 1_555
Ga2 Ho1 3.041257 1_555
Ga2 Ho2 3.041257 1_545
Ga3 Pt0 2.542193 1_656
Ga3 Ga6 2.737842 1_545
Ga3 Ga7 2.737842 1_555
Ga3 Ho1 3.041257 1_655
Ga3 Ho0 3.041257 1_545
Ga3 Ho3 3.041257 1_556
Ga3 Ho2 3.041257 1_656
Ga4 Pt0 2.542193 1_555
Ga4 Ga6 2.737842 1_555
Ga4 Ga9 2.737842 1_555
Ga4 Ga8 2.737842 1_554
Ga4 Ga7 2.737842 1_554
Ga4 Ho2 3.041257 1_555
Ga4 Ho3 3.041257 1_555
Ga4 Ho1 3.041257 1_554
Ga4 Ho0 3.041257 1_555
Ga5 Pt0 2.542193 1_665
Ga5 Ga6 2.737842 1_555
Ga5 Ga9 2.737842 1_555
Ga5 Ga8 2.737842 1_554
Ga5 Ga7 2.737842 1_554
Ga5 Ho3 3.041257 1_565
Ga5 Ho1 3.041257 1_665
Ga5 Ho2 3.041257 1_655
Ga5 Ho0 3.041257 1_554
Ga6 Ho3 3.013293 1_565
Ga6 Ho0 3.013293 1_555
Ga6 Ga9 3.013293 1_555
Ga6 Ho2 3.013293 1_555
Ga6 Ga8 3.013293 1_554
Ga6 Ho1 3.013293 1_665
Ga7 Ho3 3.013293 1_556
Ga7 Ho2 3.013293 1_656
Ga7 Ga8 3.013293 1_555
Ga7 Ga9 3.013293 1_556
Ga7 Ho0 3.013293 1_555
Ga7 Ho1 3.013293 1_555
Ga8 Ho2 3.013293 1_556
Ga8 Ho0 3.013293 1_555
Ga8 Ho3 3.013293 1_566
Ga8 Ho1 3.013293 1_555
Ga9 Ho2 3.013293 1_655
Ga9 Ho0 3.013293 1_555
Ga9 Ho3 3.013293 1_555
Ga9 Ho1 3.013293 1_665
Ga10 Ga3 2.737842 1_555
Ga10 Ga2 2.737842 1_555
Ga10 Ga7 3.013293 1_555
Ga10 Ga8 3.013293 1_655
Ga10 Ho2 3.013293 1_656
Ga10 Ga9 3.013293 1_555
Ga10 Ga6 3.013293 1_545
Ga10 Ho1 3.013293 1_655
Ga10 Ho0 3.013293 1_555
Ga10 Ho3 3.013293 1_555
Ga11 Ga3 2.737842 1_565
Ga11 Ga2 2.737842 1_565
Ga11 Ga9 3.013293 1_455
Ga11 Ga7 3.013293 1_565
Ga11 Ga8 3.013293 1_555
Ga11 Ho0 3.013293 1_555
Ga11 Ho1 3.013293 1_565
Ga11 Ho3 3.013293 1_566
Ga11 Ga6 3.013293 1_555
Ga11 Ho2 3.013293 1_555
