# generated using pymatgen
data_S3N
_symmetry_space_group_name_H-M   'P 1'
_cell_length_a   7.81346200
_cell_length_b   8.61456200
_cell_length_c   13.26321700
_cell_angle_alpha   90.00000000
_cell_angle_beta   90.00000000
_cell_angle_gamma   90.00000000
_symmetry_Int_Tables_number   1
_chemical_formula_structural   S3N
_chemical_formula_sum   'S24 N8'
_cell_volume   892.74120541
_cell_formula_units_Z   8
loop_
 _symmetry_equiv_pos_site_id
 _symmetry_equiv_pos_as_xyz
  1  'x, y, z'
loop_
 _atom_site_type_symbol
 _atom_site_label
 _atom_site_symmetry_multiplicity
 _atom_site_fract_x
 _atom_site_fract_y
 _atom_site_fract_z
 _atom_site_occupancy
  S  S0  1  0.25928500  0.64187800  0.13682700  1
  S  S1  1  0.24071500  0.14187800  0.36317300  1
  S  S2  1  0.74071500  0.35812200  0.63682700  1
  S  S3  1  0.75928500  0.85812200  0.86317300  1
  S  S4  1  0.74071500  0.35812200  0.86317300  1
  S  S5  1  0.75928500  0.85812200  0.63682700  1
  S  S6  1  0.25928500  0.64187800  0.36317300  1
  S  S7  1  0.24071500  0.14187800  0.13682700  1
  S  S8  1  0.01013700  0.71968800  0.10976700  1
  S  S9  1  0.48986300  0.21968800  0.39023300  1
  S  S10  1  0.98986300  0.28031200  0.60976700  1
  S  S11  1  0.51013700  0.78031200  0.89023300  1
  S  S12  1  0.98986300  0.28031200  0.89023300  1
  S  S13  1  0.51013700  0.78031200  0.60976700  1
  S  S14  1  0.01013700  0.71968800  0.39023300  1
  S  S15  1  0.48986300  0.21968800  0.10976700  1
  S  S16  1  0.83180900  0.54310400  0.13718200  1
  S  S17  1  0.66819100  0.04310400  0.36281800  1
  S  S18  1  0.16819100  0.45689600  0.63718200  1
  S  S19  1  0.33180900  0.95689600  0.86281800  1
  S  S20  1  0.16819100  0.45689600  0.86281800  1
  S  S21  1  0.33180900  0.95689600  0.63718200  1
  S  S22  1  0.83180900  0.54310400  0.36281800  1
  S  S23  1  0.66819100  0.04310400  0.13718200  1
  N  N0  1  0.32683300  0.67405700  0.25000000  1
  N  N1  1  0.17316700  0.17405700  0.25000000  1
  N  N2  1  0.67316700  0.32594300  0.75000000  1
  N  N3  1  0.82683300  0.82594300  0.75000000  1
  N  N4  1  0.75546500  0.54372300  0.25000000  1
  N  N5  1  0.74453500  0.04372300  0.25000000  1
  N  N6  1  0.24453500  0.45627700  0.75000000  1
  N  N7  1  0.25546500  0.95627700  0.75000000  1
loop_
_geom_bond_atom_site_label_1
_geom_bond_atom_site_label_2
_geom_bond_distance
_geom_bond_site_symmetry_2
S0 S8 2.089925 1_555
S1 S9 2.089925 1_555
S10 S2 2.089925 1_555
S10 S18 2.094682 1_655
S11 S3 2.089925 1_555
S11 S19 2.094682 1_555
S12 S4 2.089925 1_555
S12 S20 2.094682 1_655
S13 S5 2.089925 1_555
S13 S21 2.094682 1_555
S14 S6 2.089925 1_555
S14 S22 2.094682 1_455
S15 S7 2.089925 1_555
S15 S23 2.094682 1_555
S16 S8 2.094682 1_655
S17 S9 2.094682 1_555
N0 S0 1.615090 1_555
N0 S6 1.615090 1_555
N1 S7 1.615090 1_555
N1 S1 1.615090 1_555
N2 S4 1.615090 1_555
N2 S2 1.615090 1_555
N3 S3 1.615090 1_555
N3 S5 1.615090 1_555
N4 S22 1.610856 1_555
N4 S16 1.610856 1_555
N5 S17 1.610856 1_555
N5 S23 1.610856 1_555
N6 S18 1.610856 1_555
N6 S20 1.610856 1_555
N7 S21 1.610856 1_555
N7 S19 1.610856 1_555
