# generated using pymatgen
data_Na2Ti(SiO4)2
_symmetry_space_group_name_H-M   'P 1'
_cell_length_a   15.21261028
_cell_length_b   15.21261028
_cell_length_c   5.30668764
_cell_angle_alpha   87.36802626
_cell_angle_beta   87.36802626
_cell_angle_gamma   33.50768156
_symmetry_Int_Tables_number   1
_chemical_formula_structural   Na2Ti(SiO4)2
_chemical_formula_sum   'Na8 Ti4 Si8 O32'
_cell_volume   677.18680846
_cell_formula_units_Z   4
loop_
 _symmetry_equiv_pos_site_id
 _symmetry_equiv_pos_as_xyz
  1  'x, y, z'
loop_
 _atom_site_type_symbol
 _atom_site_label
 _atom_site_symmetry_multiplicity
 _atom_site_fract_x
 _atom_site_fract_y
 _atom_site_fract_z
 _atom_site_occupancy
  Na  Na0  1  0.96101100  0.35997000  0.60596700  1
  Na  Na1  1  0.35997000  0.96101100  0.10596700  1
  Na  Na2  1  0.03898900  0.64003000  0.39403300  1
  Na  Na3  1  0.64003000  0.03898900  0.89403300  1
  Na  Na4  1  0.66747200  0.33252800  0.25000000  1
  Na  Na5  1  0.33252800  0.66747200  0.75000000  1
  Na  Na6  1  0.92830600  0.07169400  0.75000000  1
  Na  Na7  1  0.07169400  0.92830600  0.25000000  1
  Ti  Ti0  1  0.76072200  0.57094000  0.12765300  1
  Ti  Ti1  1  0.57094000  0.76072200  0.62765300  1
  Ti  Ti2  1  0.23927800  0.42906000  0.87234700  1
  Ti  Ti3  1  0.42906000  0.23927800  0.37234700  1
  Si  Si0  1  0.85506900  0.67204900  0.76884200  1
  Si  Si1  1  0.67204900  0.85506900  0.26884200  1
  Si  Si2  1  0.14493100  0.32795100  0.23115800  1
  Si  Si3  1  0.32795100  0.14493100  0.73115800  1
  Si  Si4  1  0.99600200  0.19514000  0.07095900  1
  Si  Si5  1  0.19514000  0.99600200  0.57095900  1
  Si  Si6  1  0.00399800  0.80486000  0.92904100  1
  Si  Si7  1  0.80486000  0.00399800  0.42904100  1
  O  O0  1  0.22499300  0.20762900  0.99574800  1
  O  O1  1  0.20762900  0.22499300  0.49574800  1
  O  O2  1  0.77500700  0.79237100  0.00425200  1
  O  O3  1  0.79237100  0.77500700  0.50425200  1
  O  O4  1  0.95298500  0.47449200  0.23805300  1
  O  O5  1  0.47449200  0.95298500  0.73805300  1
  O  O6  1  0.04701500  0.52550800  0.76194700  1
  O  O7  1  0.52550800  0.04701500  0.26194700  1
  O  O8  1  0.88340800  0.37526300  0.01368700  1
  O  O9  1  0.37526300  0.88340800  0.51368700  1
  O  O10  1  0.11659200  0.62473700  0.98631300  1
  O  O11  1  0.62473700  0.11659200  0.48631300  1
  O  O12  1  0.90807700  0.17609600  0.07166700  1
  O  O13  1  0.17609600  0.90807700  0.57166700  1
  O  O14  1  0.09192300  0.82390400  0.92833300  1
  O  O15  1  0.82390400  0.09192300  0.42833300  1
  O  O16  1  0.70029700  0.57224900  0.43977900  1
  O  O17  1  0.57224900  0.70029700  0.93977900  1
  O  O18  1  0.29970300  0.42775100  0.56022100  1
  O  O19  1  0.42775100  0.29970300  0.06022100  1
  O  O20  1  0.08630800  0.13760500  0.34333800  1
  O  O21  1  0.13760500  0.08630800  0.84333800  1
  O  O22  1  0.91369200  0.86239500  0.65666200  1
  O  O23  1  0.86239500  0.91369200  0.15666200  1
  O  O24  1  0.79006000  0.62446700  0.78308200  1
  O  O25  1  0.62446700  0.79006000  0.28308200  1
  O  O26  1  0.20994000  0.37553300  0.21691800  1
  O  O27  1  0.37553300  0.20994000  0.71691800  1
  O  O28  1  0.60881000  0.48818100  0.57862600  1
  O  O29  1  0.48818100  0.60881000  0.07862600  1
  O  O30  1  0.39119000  0.51181900  0.42137400  1
  O  O31  1  0.51181900  0.39119000  0.92137400  1
loop_
_geom_bond_atom_site_label_1
_geom_bond_atom_site_label_2
_geom_bond_distance
_geom_bond_site_symmetry_2
Na0 O8 2.341536 1_556
Na0 O16 2.374321 1_555
Na0 O1 2.386578 1_655
Na0 O4 2.493342 1_555
Na0 O20 2.540671 1_655
Na0 O24 2.551352 1_555
Na0 O21 2.704389 1_655
Na1 O9 2.341536 1_555
Na1 O17 2.374321 1_554
Na1 O0 2.386578 1_564
Na1 O5 2.493342 1_554
Na1 O21 2.540671 1_564
Na1 O25 2.551352 1_555
Na1 O20 2.704389 1_565
Na2 O10 2.341536 1_554
Na2 O18 2.374321 1_555
Na2 O3 2.386578 1_455
Na2 O6 2.493342 1_555
Na2 O22 2.540671 1_455
Na2 O26 2.551352 1_555
Na2 O23 2.704389 1_455
Na3 O11 2.341536 1_555
Na3 O19 2.374321 1_556
Na3 O2 2.386578 1_546
Na3 O7 2.493342 1_556
Na3 O23 2.540671 1_546
Na3 O27 2.551352 1_555
Na3 O22 2.704389 1_545
Na4 O15 2.306314 1_555
Na4 O12 2.306314 1_555
Na4 O31 2.481324 1_554
Na4 O28 2.481324 1_555
Na4 O30 2.586714 1_555
Na4 O29 2.586714 1_555
Na5 O14 2.306314 1_555
Na5 O13 2.306314 1_555
Na5 O30 2.481324 1_555
Na5 O29 2.481324 1_556
Na5 O31 2.586714 1_555
Na5 O28 2.586714 1_555
Na6 O15 2.217353 1_555
Na6 O12 2.217353 1_556
Na6 O14 2.354249 1_645
Na6 O13 2.354249 1_645
Na7 O14 2.217353 1_554
Na7 O13 2.217353 1_555
Na7 O15 2.354249 1_465
Na7 O12 2.354249 1_465
O0 Si2 1.657401 1_556
O0 Si3 1.662574 1_555
O1 Si3 1.657401 1_555
O1 Si2 1.662574 1_555
O2 Si0 1.657401 1_554
O2 Si1 1.662574 1_555
O3 Si1 1.657401 1_555
O3 Si0 1.662574 1_555
O4 Si2 1.624721 1_655
O4 Ti0 1.993137 1_555
O5 Si3 1.624721 1_565
O5 Ti1 1.993137 1_555
O6 Si0 1.624721 1_455
O6 Ti2 1.993137 1_555
O7 Si1 1.624721 1_545
O7 Ti3 1.993137 1_555
O8 Si4 1.636770 1_555
O8 Ti0 1.872695 1_555
O9 Si5 1.636770 1_555
O9 Ti1 1.872695 1_555
O10 Si6 1.636770 1_555
O10 Ti2 1.872695 1_555
O11 Si7 1.636770 1_555
O11 Ti3 1.872695 1_555
O12 Si4 1.587037 1_555
O13 Si5 1.587037 1_555
O14 Si6 1.587037 1_555
O15 Si7 1.587037 1_555
O16 Ti0 1.849743 1_555
O16 Ti1 1.939178 1_555
O17 Ti1 1.849743 1_555
O17 Ti0 1.939178 1_556
O18 Ti2 1.849743 1_555
O18 Ti3 1.939178 1_555
O19 Ti3 1.849743 1_555
O19 Ti2 1.939178 1_554
O20 Si4 1.674407 1_455
O20 Si5 1.684544 1_545
O21 Si5 1.674407 1_545
O21 Si4 1.684544 1_456
O22 Si6 1.674407 1_655
O22 Si7 1.684544 1_565
O23 Si7 1.674407 1_565
O23 Si6 1.684544 1_654
O24 Si0 1.639995 1_555
O24 Ti0 2.144791 1_556
O24 Ti1 2.159035 1_555
O25 Si1 1.639995 1_555
O25 Ti1 2.144791 1_555
O25 Ti0 2.159035 1_555
O26 Si2 1.639995 1_555
O26 Ti2 2.144791 1_554
O26 Ti3 2.159035 1_555
O27 Si3 1.639995 1_555
O27 Ti3 2.144791 1_555
O27 Ti2 2.159035 1_555
