# generated using pymatgen
data_Y6MoO12
_symmetry_space_group_name_H-M   'P 1'
_cell_length_a   9.71369293
_cell_length_b   6.42409864
_cell_length_c   6.51049310
_cell_angle_alpha   115.53187267
_cell_angle_beta   105.51681301
_cell_angle_gamma   80.29165385
_symmetry_Int_Tables_number   1
_chemical_formula_structural   Y6MoO12
_chemical_formula_sum   'Y6 Mo1 O12'
_cell_volume   352.56573871
_cell_formula_units_Z   1
loop_
 _symmetry_equiv_pos_site_id
 _symmetry_equiv_pos_as_xyz
  1  'x, y, z'
loop_
 _atom_site_type_symbol
 _atom_site_label
 _atom_site_symmetry_multiplicity
 _atom_site_fract_x
 _atom_site_fract_y
 _atom_site_fract_z
 _atom_site_occupancy
  Y  Y0  1  0.99182300  0.70347300  0.30042300  1
  Y  Y1  1  0.00817700  0.29652700  0.69957700  1
  Y  Y2  1  0.66461000  0.06495800  0.20249800  1
  Y  Y3  1  0.33539000  0.93504200  0.79750200  1
  Y  Y4  1  0.73330200  0.73251600  0.62188500  1
  Y  Y5  1  0.26669800  0.26748400  0.37811500  1
  Mo  Mo0  1  0.00000000  0.00000000  0.00000000  1
  O  O0  1  0.97338300  0.94391900  0.67713900  1
  O  O1  1  0.02661700  0.05608100  0.32286100  1
  O  O2  1  0.96439500  0.67710000  0.91605700  1
  O  O3  1  0.03560500  0.32290000  0.08394300  1
  O  O4  1  0.79913300  0.06546400  0.96794400  1
  O  O5  1  0.20086700  0.93453600  0.03205600  1
  O  O6  1  0.55590400  0.83366400  0.79070300  1
  O  O7  1  0.44409600  0.16633600  0.20929700  1
  O  O8  1  0.79058400  0.36291900  0.50110700  1
  O  O9  1  0.20941600  0.63708100  0.49889300  1
  O  O10  1  0.75332900  0.78295500  0.31296500  1
  O  O11  1  0.24667100  0.21704500  0.68703500  1
loop_
_geom_bond_atom_site_label_1
_geom_bond_atom_site_label_2
_geom_bond_distance
_geom_bond_site_symmetry_2
Mo0 O5 1.899601 1_545
Mo0 O4 1.899601 1_454
Mo0 O0 1.924272 1_444
Mo0 O1 1.924272 1_555
Mo0 O2 1.970984 1_444
Mo0 O3 1.970984 1_555
O0 Y1 2.283241 1_665
O0 Y0 2.304198 1_555
O0 Y4 2.758715 1_555
O1 Y0 2.283241 1_445
O1 Y1 2.304198 1_555
O1 Y5 2.758715 1_555
O2 Y1 2.268083 1_655
O2 Y0 2.377980 1_556
O2 Y4 2.617573 1_555
O3 Y0 2.268083 1_455
O3 Y1 2.377980 1_554
O3 Y5 2.617573 1_555
O4 Y2 2.261147 1_556
O4 Y4 2.365634 1_545
O5 Y3 2.261147 1_554
O5 Y5 2.365634 1_565
O6 Y3 2.137681 1_555
O6 Y4 2.149340 1_555
O6 Y2 2.467998 1_566
O7 Y2 2.137681 1_555
O7 Y5 2.149340 1_555
O7 Y3 2.467998 1_544
O8 Y4 2.178180 1_555
O8 Y1 2.242486 1_655
O8 Y2 2.291308 1_555
O9 Y5 2.178180 1_555
O9 Y0 2.242486 1_455
O9 Y3 2.291308 1_555
O10 Y2 2.192451 1_565
O10 Y4 2.231640 1_555
O10 Y0 2.302305 1_555
O11 Y3 2.192451 1_545
O11 Y5 2.231640 1_555
O11 Y1 2.302305 1_555
