# generated using pymatgen
data_Gd2P7Rh12
_symmetry_space_group_name_H-M   'P 1'
_cell_length_a   9.64236745
_cell_length_b   9.64236745
_cell_length_c   3.88074500
_cell_angle_alpha   90.00000000
_cell_angle_beta   90.00000000
_cell_angle_gamma   119.99999619
_symmetry_Int_Tables_number   1
_chemical_formula_structural   Gd2P7Rh12
_chemical_formula_sum   'Gd2 P7 Rh12'
_cell_volume   312.47344070
_cell_formula_units_Z   1
loop_
 _symmetry_equiv_pos_site_id
 _symmetry_equiv_pos_as_xyz
  1  'x, y, z'
loop_
 _atom_site_type_symbol
 _atom_site_label
 _atom_site_symmetry_multiplicity
 _atom_site_fract_x
 _atom_site_fract_y
 _atom_site_fract_z
 _atom_site_occupancy
  Gd  Gd0  1  0.33333300  0.66666700  0.25097900  1
  Gd  Gd1  1  0.66666700  0.33333300  0.74902100  1
  P  P0  1  0.00000000  0.00000000  0.50000000  1
  P  P1  1  0.40400700  0.11748500  0.24680600  1
  P  P2  1  0.71347800  0.59599300  0.24680600  1
  P  P3  1  0.88251500  0.28652200  0.24680600  1
  P  P4  1  0.59599300  0.88251500  0.75319400  1
  P  P5  1  0.28652200  0.40400700  0.75319400  1
  P  P6  1  0.11748500  0.71347800  0.75319400  1
  Rh  Rh0  1  0.44891500  0.38156800  0.24892400  1
  Rh  Rh1  1  0.93265300  0.55108500  0.24892400  1
  Rh  Rh2  1  0.61843200  0.06734700  0.24892400  1
  Rh  Rh3  1  0.55108500  0.61843200  0.75107600  1
  Rh  Rh4  1  0.06734700  0.44891500  0.75107600  1
  Rh  Rh5  1  0.38156800  0.93265300  0.75107600  1
  Rh  Rh6  1  0.14916400  0.88810000  0.25020100  1
  Rh  Rh7  1  0.73893600  0.85083600  0.25020100  1
  Rh  Rh8  1  0.11190000  0.26106400  0.25020100  1
  Rh  Rh9  1  0.85083600  0.11190000  0.74979900  1
  Rh  Rh10  1  0.26106400  0.14916400  0.74979900  1
  Rh  Rh11  1  0.88810000  0.73893600  0.74979900  1
loop_
_geom_bond_atom_site_label_1
_geom_bond_atom_site_label_2
_geom_bond_distance
_geom_bond_site_symmetry_2
Gd0 P6 3.034250 1_554
Gd0 P4 3.034255 1_554
Gd0 P5 3.034257 1_554
Gd0 P6 3.045224 1_555
Gd0 P4 3.045229 1_555
Gd0 P5 3.045231 1_555
Gd0 Rh5 3.060214 1_554
Gd0 Rh4 3.060217 1_554
Gd0 Rh3 3.060221 1_554
Gd0 Rh5 3.060691 1_555
Gd0 Rh4 3.060694 1_555
Gd0 Rh3 3.060699 1_555
Gd1 P3 3.034250 1_556
Gd1 P1 3.034255 1_556
Gd1 P2 3.034257 1_556
Gd1 P3 3.045224 1_555
Gd1 P1 3.045229 1_555
Gd1 P2 3.045231 1_555
Gd1 Rh2 3.060214 1_556
Gd1 Rh1 3.060217 1_556
Gd1 Rh0 3.060221 1_556
Gd1 Rh2 3.060691 1_555
Gd1 Rh1 3.060694 1_555
Gd1 Rh0 3.060699 1_555
P0 Rh6 2.392599 1_545
P0 Rh9 2.392599 1_455
P0 Rh11 2.392599 1_445
P0 Rh8 2.392599 1_555
P0 Rh7 2.392599 1_445
P0 Rh10 2.392599 1_555
P1 Rh6 2.344249 1_545
P1 Rh2 2.346950 1_555
P1 Rh0 2.359877 1_555
P1 Rh10 2.476725 1_554
P1 Rh10 2.494858 1_555
P1 Rh5 2.557053 1_544
P1 Rh5 2.582079 1_545
P2 Rh7 2.344248 1_555
P2 Rh0 2.346951 1_555
P2 Rh1 2.359877 1_555
P2 Rh11 2.476725 1_554
P2 Rh11 2.494858 1_555
P2 Rh3 2.557053 1_554
P2 Rh3 2.582079 1_555
P3 Rh8 2.344248 1_655
P3 Rh1 2.346950 1_555
P3 Rh2 2.359877 1_555
P3 Rh9 2.476725 1_554
P3 Rh9 2.494858 1_555
P3 Rh4 2.557053 1_654
P3 Rh4 2.582079 1_655
P4 Rh9 2.344249 1_565
P4 Rh5 2.346950 1_555
P4 Rh3 2.359877 1_555
P4 Rh7 2.476725 1_556
P4 Rh7 2.494858 1_555
P4 Rh2 2.557053 1_566
P4 Rh2 2.582079 1_565
P5 Rh10 2.344248 1_555
P5 Rh3 2.346951 1_555
P5 Rh4 2.359877 1_555
P5 Rh8 2.476725 1_556
P5 Rh8 2.494858 1_555
P5 Rh0 2.557053 1_556
P5 Rh0 2.582079 1_555
P6 Rh11 2.344248 1_455
P6 Rh4 2.346950 1_555
P6 Rh5 2.359877 1_555
P6 Rh6 2.476725 1_556
P6 Rh6 2.494858 1_555
P6 Rh1 2.557053 1_456
P6 Rh1 2.582079 1_455
