# generated using pymatgen
data_B11H2CCl11
_symmetry_space_group_name_H-M   'P 1'
_cell_length_a   9.37888100
_cell_length_b   14.84924065
_cell_length_c   15.83719882
_cell_angle_alpha   73.23180798
_cell_angle_beta   75.21654719
_cell_angle_gamma   82.38883159
_symmetry_Int_Tables_number   1
_chemical_formula_structural   B11H2CCl11
_chemical_formula_sum   'B44 H8 C4 Cl44'
_cell_volume   2037.81508414
_cell_formula_units_Z   4
loop_
 _symmetry_equiv_pos_site_id
 _symmetry_equiv_pos_as_xyz
  1  'x, y, z'
loop_
 _atom_site_type_symbol
 _atom_site_label
 _atom_site_symmetry_multiplicity
 _atom_site_fract_x
 _atom_site_fract_y
 _atom_site_fract_z
 _atom_site_occupancy
  B  B0  1  0.57549100  0.53582600  0.80468200  1
  B  B1  1  0.42450900  0.46417400  0.19531800  1
  B  B2  1  0.38156000  0.51371800  0.84389200  1
  B  B3  1  0.61844000  0.48628200  0.15610800  1
  B  B4  1  0.27919200  0.62507500  0.84030500  1
  B  B5  1  0.72080800  0.37492500  0.15969500  1
  B  B6  1  0.41115500  0.71583000  0.79858600  1
  B  B7  1  0.58884500  0.28417000  0.20141400  1
  B  B8  1  0.59365800  0.66034700  0.77582800  1
  B  B9  1  0.40634200  0.33965300  0.22417200  1
  B  B10  1  0.60789700  0.60363000  0.68793600  1
  B  B11  1  0.39210300  0.39637000  0.31206400  1
  B  B12  1  0.47736000  0.51471000  0.73073600  1
  B  B13  1  0.52264000  0.48529000  0.26926400  1
  B  B14  1  0.29216400  0.56848700  0.75193100  1
  B  B15  1  0.70783600  0.43151300  0.24806900  1
  B  B16  1  0.31410300  0.69329500  0.72500900  1
  B  B17  1  0.68589700  0.30670500  0.27499100  1
  B  B18  1  0.50518000  0.71598400  0.68406500  1
  B  B19  1  0.49482000  0.28401600  0.31593500  1
  B  B20  1  0.43270900  0.62457600  0.65528200  1
  B  B21  1  0.56729100  0.37542400  0.34471800  1
  B  B22  1  0.77520700  0.04361400  0.82228200  1
  B  B23  1  0.22479300  0.95638600  0.17771800  1
  B  B24  1  0.96079300  0.99322800  0.81717700  1
  B  B25  1  0.03920700  0.00677200  0.18282300  1
  B  B26  1  0.07750000  0.08391100  0.81084100  1
  B  B27  1  0.92250000  0.91608900  0.18915900  1
  B  B28  1  0.96308900  0.19026500  0.81294400  1
  B  B29  1  0.03691100  0.80973500  0.18705600  1
  B  B30  1  0.77527600  0.16504700  0.82068800  1
  B  B31  1  0.22472400  0.83495300  0.17931200  1
  B  B32  1  0.77152400  0.13401600  0.71929100  1
  B  B33  1  0.22847600  0.86598400  0.28070900  1
  B  B34  1  0.88730800  0.02692400  0.71694600  1
  B  B35  1  0.11269200  0.97307600  0.28305400  1
  B  B36  1  0.07104000  0.05218500  0.71145800  1
  B  B37  1  0.92896000  0.94781500  0.28854200  1
  B  B38  1  0.07607300  0.17429700  0.70704100  1
  B  B39  1  0.92392700  0.82570300  0.29295900  1
  B  B40  1  0.88807400  0.22173100  0.71491400  1
  B  B41  1  0.11192600  0.77826900  0.28508600  1
  B  B42  1  0.95728700  0.13901400  0.64907100  1
  B  B43  1  0.04271300  0.86098600  0.35092900  1
  H  H0  1  0.45969600  0.59970600  0.93143700  1
  H  H1  1  0.54030400  0.40029400  0.06856300  1
  H  H2  1  0.87447700  0.06198500  0.94330800  1
  H  H3  1  0.12552300  0.93801500  0.05669200  1
  H  H4  1  0.69082500  0.37346500  0.68218100  1
  H  H5  1  0.30917500  0.62653500  0.31781900  1
  H  H6  1  0.20343000  0.88355700  0.67595900  1
  H  H7  1  0.79657000  0.11644300  0.32404100  1
  C  C0  1  0.45257400  0.60561200  0.86236300  1
  C  C1  1  0.54742600  0.39438800  0.13763700  1
  C  C2  1  0.89595300  0.08162400  0.86955100  1
  C  C3  1  0.10404700  0.91837600  0.13044900  1
  Cl  Cl0  1  0.70716400  0.45747200  0.85552100  1
  Cl  Cl1  1  0.29283600  0.54252800  0.14447900  1
  Cl  Cl2  1  0.32254500  0.41301700  0.93231100  1
  Cl  Cl3  1  0.67745500  0.58698300  0.06768900  1
  Cl  Cl4  1  0.11770100  0.63317000  0.92462100  1
  Cl  Cl5  1  0.88229900  0.36683000  0.07537900  1
  Cl  Cl6  1  0.38239900  0.81488600  0.84229800  1
  Cl  Cl7  1  0.61760100  0.18511400  0.15770200  1
  Cl  Cl8  1  0.74198100  0.70330900  0.79865200  1
  Cl  Cl9  1  0.25801900  0.29669100  0.20134800  1
  Cl  Cl10  1  0.77784300  0.59095300  0.60973400  1
  Cl  Cl11  1  0.22215700  0.40904700  0.39026600  1
  Cl  Cl12  1  0.51268200  0.40493300  0.69532000  1
  Cl  Cl13  1  0.48731800  0.59506700  0.30468000  1
  Cl  Cl14  1  0.13651400  0.52159300  0.73988600  1
  Cl  Cl15  1  0.86348600  0.47840700  0.26011400  1
  Cl  Cl16  1  0.17004900  0.77832100  0.68246200  1
  Cl  Cl17  1  0.82995100  0.22167900  0.31753800  1
  Cl  Cl18  1  0.56483800  0.82175000  0.60201300  1
  Cl  Cl19  1  0.43516200  0.17825000  0.39798700  1
  Cl  Cl20  1  0.41901800  0.63377000  0.54342300  1
  Cl  Cl21  1  0.58098200  0.36623000  0.45657700  1
  Cl  Cl22  1  0.62643400  0.97588700  0.89029400  1
  Cl  Cl23  1  0.37356600  0.02411300  0.10970600  1
  Cl  Cl24  1  0.99167000  0.87663600  0.88061000  1
  Cl  Cl25  1  0.00833000  0.12336400  0.11939000  1
  Cl  Cl26  1  0.22589300  0.05722800  0.86561800  1
  Cl  Cl27  1  0.77410700  0.94277200  0.13438200  1
  Cl  Cl28  1  0.99912600  0.26848300  0.86888900  1
  Cl  Cl29  1  0.00087400  0.73151700  0.13111100  1
  Cl  Cl30  1  0.62410400  0.21605500  0.88712700  1
  Cl  Cl31  1  0.37589600  0.78394500  0.11287300  1
  Cl  Cl32  1  0.61363100  0.16154400  0.67221300  1
  Cl  Cl33  1  0.38636900  0.83845600  0.32778700  1
  Cl  Cl34  1  0.85026100  0.94296900  0.66668000  1
  Cl  Cl35  1  0.14973900  0.05703100  0.33332000  1
  Cl  Cl36  1  0.23409400  0.99150300  0.65284600  1
  Cl  Cl37  1  0.76590600  0.00849700  0.34715400  1
  Cl  Cl38  1  0.22899800  0.24328100  0.64698500  1
  Cl  Cl39  1  0.77100200  0.75671900  0.35301500  1
  Cl  Cl40  1  0.85706200  0.34738600  0.65714400  1
  Cl  Cl41  1  0.14293800  0.65261400  0.34285600  1
  Cl  Cl42  1  0.99254600  0.17221500  0.52924000  1
  Cl  Cl43  1  0.00745400  0.82778500  0.47076000  1
loop_
_geom_bond_atom_site_label_1
_geom_bond_atom_site_label_2
_geom_bond_distance
_geom_bond_site_symmetry_2
B0 C0 1.711626 1_555
B0 Cl0 1.764472 1_555
B1 C1 1.711626 1_555
B1 Cl1 1.764472 1_555
B2 C0 1.720956 1_555
B2 Cl2 1.765999 1_555
B3 C1 1.720956 1_555
B3 Cl3 1.765999 1_555
B4 C0 1.719597 1_555
B4 Cl4 1.761767 1_555
B5 C1 1.719597 1_555
B5 Cl5 1.761767 1_555
B6 C0 1.711058 1_555
B6 Cl6 1.761455 1_555
B7 C1 1.711058 1_555
B7 Cl7 1.761455 1_555
B8 C0 1.733900 1_555
B8 Cl8 1.759992 1_555
B9 C1 1.733900 1_555
B9 Cl9 1.759992 1_555
B10 Cl10 1.776926 1_555
B11 Cl11 1.776926 1_555
B12 Cl12 1.836101 1_555
B13 Cl13 1.836101 1_555
B14 Cl14 1.772117 1_555
B15 Cl15 1.772117 1_555
B16 Cl16 1.842647 1_555
B17 Cl17 1.842647 1_555
B18 Cl18 1.775513 1_555
B19 Cl19 1.775513 1_555
B20 Cl20 1.773514 1_555
B21 Cl21 1.773514 1_555
B22 C2 1.734134 1_555
B22 Cl22 1.760179 1_545
B23 C3 1.734134 1_555
B23 Cl23 1.760179 1_565
B24 C2 1.714676 1_565
B24 Cl24 1.761418 1_555
B25 C3 1.714676 1_545
B25 Cl25 1.761418 1_555
B26 C2 1.718734 1_455
B26 Cl26 1.765877 1_555
B27 C3 1.718734 1_655
B27 Cl27 1.765877 1_555
B28 C2 1.717330 1_555
B28 Cl28 1.760363 1_555
B29 C3 1.717330 1_555
B29 Cl29 1.760363 1_555
B30 C2 1.713724 1_555
B30 Cl30 1.762131 1_555
B31 C3 1.713724 1_555
B31 Cl31 1.762131 1_555
B32 Cl32 1.772904 1_555
B33 Cl33 1.772904 1_555
B34 Cl34 1.771210 1_545
B35 Cl35 1.771210 1_565
B36 Cl36 1.845372 1_545
B37 Cl37 1.845372 1_565
B38 Cl38 1.772543 1_555
B39 Cl39 1.772543 1_555
B40 Cl40 1.846676 1_555
B41 Cl41 1.846676 1_555
B42 Cl42 1.771177 1_555
B43 Cl43 1.771177 1_555
C0 H0 1.090522 1_555
C1 H1 1.090522 1_555
C2 H2 1.090421 1_555
C3 H3 1.090421 1_555
Cl12 H4 1.650765 1_555
Cl13 H5 1.650765 1_555
Cl16 H6 1.603389 1_555
Cl17 H7 1.603389 1_555
Cl36 H6 1.586153 1_555
Cl37 H7 1.586153 1_555
Cl40 H4 1.533363 1_555
Cl41 H5 1.533363 1_555
