# generated using pymatgen
data_Hf2Pd
_symmetry_space_group_name_H-M   'P 1'
_cell_length_a   8.79272857
_cell_length_b   8.79272857
_cell_length_c   8.79272857
_cell_angle_alpha   60.00000000
_cell_angle_beta   60.00000000
_cell_angle_gamma   60.00000000
_symmetry_Int_Tables_number   1
_chemical_formula_structural   Hf2Pd
_chemical_formula_sum   'Hf16 Pd8'
_cell_volume   480.67994534
_cell_formula_units_Z   8
loop_
 _symmetry_equiv_pos_site_id
 _symmetry_equiv_pos_as_xyz
  1  'x, y, z'
loop_
 _atom_site_type_symbol
 _atom_site_label
 _atom_site_symmetry_multiplicity
 _atom_site_fract_x
 _atom_site_fract_y
 _atom_site_fract_z
 _atom_site_occupancy
  Hf  Hf0  1  0.12500000  0.62500000  0.62500000  1
  Hf  Hf1  1  0.62500000  0.12500000  0.62500000  1
  Hf  Hf2  1  0.62500000  0.62500000  0.12500000  1
  Hf  Hf3  1  0.62500000  0.62500000  0.62500000  1
  Hf  Hf4  1  0.81397100  0.81397100  0.18602900  1
  Hf  Hf5  1  0.18602900  0.18602900  0.81397100  1
  Hf  Hf6  1  0.81397100  0.18602900  0.81397100  1
  Hf  Hf7  1  0.18602900  0.81397100  0.18602900  1
  Hf  Hf8  1  0.18602900  0.81397100  0.81397100  1
  Hf  Hf9  1  0.81397100  0.18602900  0.18602900  1
  Hf  Hf10  1  0.43602900  0.43602900  0.06397100  1
  Hf  Hf11  1  0.06397100  0.06397100  0.43602900  1
  Hf  Hf12  1  0.43602900  0.06397100  0.43602900  1
  Hf  Hf13  1  0.06397100  0.43602900  0.06397100  1
  Hf  Hf14  1  0.06397100  0.43602900  0.43602900  1
  Hf  Hf15  1  0.43602900  0.06397100  0.06397100  1
  Pd  Pd0  1  0.77800000  0.40733300  0.40733300  1
  Pd  Pd1  1  0.40733300  0.77800000  0.40733300  1
  Pd  Pd2  1  0.40733300  0.40733300  0.77800000  1
  Pd  Pd3  1  0.40733300  0.40733300  0.40733300  1
  Pd  Pd4  1  0.47200000  0.84266700  0.84266700  1
  Pd  Pd5  1  0.84266700  0.47200000  0.84266700  1
  Pd  Pd6  1  0.84266700  0.84266700  0.47200000  1
  Pd  Pd7  1  0.84266700  0.84266700  0.84266700  1
loop_
_geom_bond_atom_site_label_1
_geom_bond_atom_site_label_2
_geom_bond_distance
_geom_bond_site_symmetry_2
Hf0 Pd1 2.765717 1_555
Hf0 Pd2 2.765717 1_555
Hf0 Pd6 2.765717 1_455
Hf0 Pd5 2.765717 1_455
Hf0 Pd7 2.765723 1_455
Hf0 Pd3 2.765723 1_555
Hf1 Pd0 2.765717 1_555
Hf1 Pd2 2.765717 1_555
Hf1 Pd4 2.765717 1_545
Hf1 Pd6 2.765717 1_545
Hf1 Pd7 2.765723 1_545
Hf1 Pd3 2.765723 1_555
Hf2 Pd0 2.765717 1_555
Hf2 Pd1 2.765717 1_555
Hf2 Pd5 2.765717 1_554
Hf2 Pd4 2.765717 1_554
Hf2 Pd7 2.765723 1_554
Hf2 Pd3 2.765723 1_555
Hf3 Pd6 2.765724 1_555
Hf3 Pd4 2.765724 1_555
Hf3 Pd5 2.765724 1_555
Hf3 Pd1 2.765724 1_555
Hf3 Pd2 2.765724 1_555
Hf3 Pd0 2.765724 1_555
Hf4 Pd7 2.789688 1_554
Hf4 Pd6 2.789697 1_555
Hf4 Pd1 3.198183 1_555
Hf4 Pd0 3.198183 1_555
Hf5 Pd4 2.789691 1_545
Hf5 Pd5 2.789691 1_455
Hf5 Pd2 3.198176 1_555
Hf5 Pd3 3.198180 1_555
Hf6 Pd7 2.789688 1_545
Hf6 Pd5 2.789697 1_555
Hf6 Pd2 3.198183 1_555
Hf6 Pd0 3.198183 1_555
Hf7 Pd6 2.789691 1_455
Hf7 Pd4 2.789691 1_554
Hf7 Pd1 3.198176 1_555
Hf7 Pd3 3.198180 1_555
Hf8 Pd7 2.789688 1_455
Hf8 Pd4 2.789697 1_555
Hf8 Pd1 3.198183 1_555
Hf8 Pd2 3.198183 1_555
Hf9 Pd6 2.789691 1_545
Hf9 Pd5 2.789691 1_554
Hf9 Pd0 3.198176 1_555
Hf9 Pd3 3.198180 1_555
Hf10 Pd3 2.789688 1_555
Hf10 Pd2 2.789697 1_554
Hf10 Pd5 3.198183 1_554
Hf10 Pd4 3.198183 1_554
Hf11 Pd1 2.789691 1_545
Hf11 Pd0 2.789691 1_455
Hf11 Pd6 3.198176 1_445
Hf11 Pd7 3.198180 1_445
Hf12 Pd3 2.789688 1_555
Hf12 Pd1 2.789697 1_545
Hf12 Pd6 3.198183 1_545
Hf12 Pd4 3.198183 1_545
Hf13 Pd2 2.789691 1_554
Hf13 Pd0 2.789691 1_455
Hf13 Pd5 3.198176 1_454
Hf13 Pd7 3.198180 1_454
Hf14 Pd3 2.789688 1_555
Hf14 Pd0 2.789697 1_455
Hf14 Pd6 3.198183 1_455
Hf14 Pd5 3.198183 1_455
Hf15 Pd1 2.789691 1_545
Hf15 Pd2 2.789691 1_554
Hf15 Pd4 3.198176 1_544
Hf15 Pd7 3.198180 1_544
