# generated using pymatgen
data_NdMnAsO
_symmetry_space_group_name_H-M   'P 1'
_cell_length_a   4.15859100
_cell_length_b   4.15859100
_cell_length_c   9.15914600
_cell_angle_alpha   90.00000000
_cell_angle_beta   90.00000000
_cell_angle_gamma   90.00000000
_symmetry_Int_Tables_number   1
_chemical_formula_structural   NdMnAsO
_chemical_formula_sum   'Nd2 Mn2 As2 O2'
_cell_volume   158.39716363
_cell_formula_units_Z   2
loop_
 _symmetry_equiv_pos_site_id
 _symmetry_equiv_pos_as_xyz
  1  'x, y, z'
loop_
 _atom_site_type_symbol
 _atom_site_label
 _atom_site_symmetry_multiplicity
 _atom_site_fract_x
 _atom_site_fract_y
 _atom_site_fract_z
 _atom_site_occupancy
  Nd  Nd0  1  0.75000100  0.75000100  0.87617600  1
  Nd  Nd1  1  0.25000000  0.25000000  0.12382400  1
  Mn  Mn0  1  0.25000000  0.75000100  0.50000100  1
  Mn  Mn1  1  0.75000100  0.25000000  0.50000100  1
  As  As0  1  0.75000100  0.75000100  0.31858800  1
  As  As1  1  0.25000000  0.25000000  0.68141200  1
  O  O0  1  0.25000000  0.75000100  0.00000000  1
  O  O1  1  0.75000100  0.25000000  0.00000000  1
loop_
_geom_bond_atom_site_label_1
_geom_bond_atom_site_label_2
_geom_bond_distance
_geom_bond_site_symmetry_2
Nd0 O1 2.368477 1_566
Nd0 O0 2.368477 1_656
Nd0 O1 2.368485 1_556
Nd0 O0 2.368485 1_556
Nd1 O1 2.368477 1_455
Nd1 O0 2.368477 1_545
Nd1 O1 2.368485 1_555
Nd1 O0 2.368485 1_555
As0 Mn0 2.661640 1_655
As0 Mn1 2.661640 1_565
As0 Mn1 2.661647 1_555
As0 Mn0 2.661647 1_555
As0 Nd1 3.439346 1_665
As0 Nd1 3.439351 1_655
As0 Nd1 3.439351 1_565
As0 Nd1 3.439357 1_555
As1 Mn1 2.661629 1_455
As1 Mn0 2.661629 1_545
As1 Mn0 2.661635 1_555
As1 Mn1 2.661635 1_555
As1 Nd0 3.439346 1_445
As1 Nd0 3.439351 1_545
As1 Nd0 3.439351 1_455
As1 Nd0 3.439357 1_555
