# generated using pymatgen
data_La3UAl8
_symmetry_space_group_name_H-M   'P 1'
_cell_length_a   9.89323244
_cell_length_b   9.89323244
_cell_length_c   9.89323296
_cell_angle_alpha   33.39732329
_cell_angle_beta   33.39732329
_cell_angle_gamma   33.39732245
_symmetry_Int_Tables_number   1
_chemical_formula_structural   La3UAl8
_chemical_formula_sum   'La3 U1 Al8'
_cell_volume   261.25600890
_cell_formula_units_Z   1
loop_
 _symmetry_equiv_pos_site_id
 _symmetry_equiv_pos_as_xyz
  1  'x, y, z'
loop_
 _atom_site_type_symbol
 _atom_site_label
 _atom_site_symmetry_multiplicity
 _atom_site_fract_x
 _atom_site_fract_y
 _atom_site_fract_z
 _atom_site_occupancy
  La  La0  1  0.62487800  0.62487800  0.62487800  1
  La  La1  1  0.00191500  0.00191500  0.00191500  1
  La  La2  1  0.49841500  0.49841500  0.49841500  1
  U  U0  1  0.12516200  0.12516200  0.12516200  1
  Al  Al0  1  0.56394700  0.56394700  0.06355300  1
  Al  Al1  1  0.06305400  0.06305400  0.55775500  1
  Al  Al2  1  0.56394700  0.06355300  0.56394700  1
  Al  Al3  1  0.06305400  0.55775500  0.06305400  1
  Al  Al4  1  0.81212200  0.81212200  0.81212200  1
  Al  Al5  1  0.31219700  0.31219700  0.31219700  1
  Al  Al6  1  0.06355300  0.56394700  0.56394700  1
  Al  Al7  1  0.55775500  0.06305400  0.06305400  1
loop_
_geom_bond_atom_site_label_1
_geom_bond_atom_site_label_2
_geom_bond_distance
_geom_bond_site_symmetry_2
La0 La1 3.503127 1_665
La0 La1 3.503127 1_656
La0 La1 3.503127 1_566
La0 La2 3.540767 1_555
La1 U0 3.450724 1_555
La2 U0 3.467541 1_556
La2 U0 3.467541 1_655
La2 U0 3.467541 1_565
Al0 Al4 2.813222 1_554
Al0 Al6 2.840463 1_654
Al0 Al2 2.840463 1_564
Al0 Al2 2.844943 1_555
Al0 Al6 2.844943 1_555
Al0 Al5 2.890549 1_555
Al0 La2 3.276702 1_555
Al0 U0 3.321313 1_565
Al0 U0 3.321313 1_655
Al0 La1 3.329366 1_565
Al0 La1 3.329366 1_655
Al0 La0 3.381098 1_554
Al1 Al7 2.812576 1_555
Al1 Al3 2.812576 1_555
Al1 Al4 2.843665 1_445
Al1 Al5 2.863591 1_555
Al1 Al3 2.872830 1_546
Al1 Al7 2.872830 1_456
Al1 U0 3.304526 1_555
Al1 La2 3.343658 1_545
Al1 La2 3.343658 1_455
Al1 La0 3.354280 1_545
Al1 La0 3.354280 1_455
Al1 La1 3.431539 1_556
Al2 Al4 2.813222 1_545
Al2 Al6 2.840463 1_645
Al2 Al6 2.844943 1_555
Al2 Al5 2.890550 1_555
Al2 La2 3.276701 1_555
Al2 U0 3.321313 1_655
Al2 U0 3.321313 1_556
Al2 La1 3.329366 1_556
Al2 La1 3.329366 1_655
Al2 La0 3.381098 1_545
Al3 Al7 2.812576 1_555
Al3 Al4 2.843665 1_454
Al3 Al5 2.863591 1_555
Al3 Al7 2.872830 1_465
Al3 U0 3.304526 1_555
Al3 La2 3.343658 1_455
Al3 La2 3.343658 1_554
Al3 La0 3.354280 1_554
Al3 La0 3.354280 1_455
Al3 La1 3.431539 1_565
Al4 Al6 2.813222 1_655
Al4 Al7 2.843665 1_566
Al4 La2 3.328148 1_655
Al4 La2 3.328148 1_565
Al4 La2 3.328149 1_556
Al4 U0 3.331283 1_566
Al4 U0 3.331283 1_656
Al4 U0 3.331283 1_665
Al5 Al7 2.863591 1_555
Al5 Al6 2.890550 1_555
Al5 La0 3.333012 1_455
Al5 La0 3.333012 1_545
Al5 La0 3.333012 1_554
Al5 La1 3.345319 1_565
Al5 La1 3.345319 1_655
Al5 La1 3.345319 1_556
Al6 La2 3.276701 1_555
Al6 U0 3.321313 1_565
Al6 U0 3.321313 1_556
Al6 La1 3.329366 1_556
Al6 La1 3.329366 1_565
Al6 La0 3.381098 1_455
Al7 U0 3.304526 1_555
Al7 La2 3.343658 1_545
Al7 La2 3.343658 1_554
Al7 La0 3.354280 1_554
Al7 La0 3.354280 1_545
Al7 La1 3.431539 1_655
