# generated using pymatgen
data_PrH4Cl3O11
_symmetry_space_group_name_H-M   'P 1'
_cell_length_a   5.80284900
_cell_length_b   12.80476200
_cell_length_c   13.72722300
_cell_angle_alpha   90.00000000
_cell_angle_beta   90.00000000
_cell_angle_gamma   90.00000000
_symmetry_Int_Tables_number   1
_chemical_formula_structural   PrH4Cl3O11
_chemical_formula_sum   'Pr4 H16 Cl12 O44'
_cell_volume   1019.98895555
_cell_formula_units_Z   4
loop_
 _symmetry_equiv_pos_site_id
 _symmetry_equiv_pos_as_xyz
  1  'x, y, z'
loop_
 _atom_site_type_symbol
 _atom_site_label
 _atom_site_symmetry_multiplicity
 _atom_site_fract_x
 _atom_site_fract_y
 _atom_site_fract_z
 _atom_site_occupancy
  Pr  Pr0  1  0.74785600  0.99699000  0.25847100  1
  Pr  Pr1  1  0.75214400  0.00301000  0.75847100  1
  Pr  Pr2  1  0.24785600  0.50301000  0.74152900  1
  Pr  Pr3  1  0.25214400  0.49699000  0.24152900  1
  H  H0  1  0.94251100  0.12567300  0.43500800  1
  H  H1  1  0.55748900  0.87432700  0.93500800  1
  H  H2  1  0.44251100  0.37432700  0.56499200  1
  H  H3  1  0.05748900  0.62567300  0.06499200  1
  H  H4  1  0.70628100  0.18175100  0.41507700  1
  H  H5  1  0.79371900  0.81824900  0.91507700  1
  H  H6  1  0.20628100  0.31824900  0.58492300  1
  H  H7  1  0.29371900  0.68175100  0.08492300  1
  H  H8  1  0.83029300  0.06880200  0.03904700  1
  H  H9  1  0.66970700  0.93119800  0.53904700  1
  H  H10  1  0.33029300  0.43119800  0.96095300  1
  H  H11  1  0.16970700  0.56880200  0.46095300  1
  H  H12  1  0.59245000  0.12199700  0.06415000  1
  H  H13  1  0.90755000  0.87800300  0.56415000  1
  H  H14  1  0.09245000  0.37800300  0.93585000  1
  H  H15  1  0.40755000  0.62199700  0.43585000  1
  Cl  Cl0  1  0.25110000  0.92371000  0.09782900  1
  Cl  Cl1  1  0.24890000  0.07629000  0.59782900  1
  Cl  Cl2  1  0.75110000  0.57629000  0.90217100  1
  Cl  Cl3  1  0.74890000  0.42371000  0.40217100  1
  Cl  Cl4  1  0.24122500  0.12431400  0.88954200  1
  Cl  Cl5  1  0.25877500  0.87568600  0.38954200  1
  Cl  Cl6  1  0.74122500  0.37568600  0.11045800  1
  Cl  Cl7  1  0.75877500  0.62431400  0.61045800  1
  Cl  Cl8  1  0.22997600  0.19415700  0.26474200  1
  Cl  Cl9  1  0.27002400  0.80584300  0.76474200  1
  Cl  Cl10  1  0.72997600  0.30584300  0.73525800  1
  Cl  Cl11  1  0.77002400  0.69415700  0.23525800  1
  O  O0  1  0.29720300  0.83906300  0.02549400  1
  O  O1  1  0.20279700  0.16093700  0.52549400  1
  O  O2  1  0.79720300  0.66093700  0.97450600  1
  O  O3  1  0.70279700  0.33906300  0.47450600  1
  O  O4  1  0.41744200  0.90591300  0.18160500  1
  O  O5  1  0.08255800  0.09408700  0.68160500  1
  O  O6  1  0.91744200  0.59408700  0.81839500  1
  O  O7  1  0.58255800  0.40591300  0.31839500  1
  O  O8  1  0.01488600  0.90228400  0.13990300  1
  O  O9  1  0.48511400  0.09771600  0.63990300  1
  O  O10  1  0.51488600  0.59771600  0.86009700  1
  O  O11  1  0.98511400  0.40228400  0.36009700  1
  O  O12  1  0.28516000  0.16891300  0.98645600  1
  O  O13  1  0.21484000  0.83108700  0.48645600  1
  O  O14  1  0.78516000  0.33108700  0.01354400  1
  O  O15  1  0.71484000  0.66891300  0.51354400  1
  O  O16  1  0.06971800  0.95575500  0.36984200  1
  O  O17  1  0.43028200  0.04424500  0.86984200  1
  O  O18  1  0.56971800  0.54424500  0.63015800  1
  O  O19  1  0.93028200  0.45575500  0.13015800  1
  O  O20  1  0.47853900  0.94206100  0.39804500  1
  O  O21  1  0.02146100  0.05793900  0.89804500  1
  O  O22  1  0.97853900  0.55793900  0.60195500  1
  O  O23  1  0.52146100  0.44206100  0.10195500  1
  O  O24  1  0.06088700  0.12502600  0.21231800  1
  O  O25  1  0.43911300  0.87497400  0.71231800  1
  O  O26  1  0.56088700  0.37497400  0.78768200  1
  O  O27  1  0.93911300  0.62502600  0.28768200  1
  O  O28  1  0.46293100  0.14367800  0.25261600  1
  O  O29  1  0.03706900  0.85632200  0.75261600  1
  O  O30  1  0.96293100  0.35632200  0.74738400  1
  O  O31  1  0.53706900  0.64367800  0.24738400  1
  O  O32  1  0.23820700  0.29300300  0.20724000  1
  O  O33  1  0.26179300  0.70699700  0.70724000  1
  O  O34  1  0.73820700  0.20699700  0.79276000  1
  O  O35  1  0.76179300  0.79300300  0.29276000  1
  O  O36  1  0.79699100  0.12002800  0.39904800  1
  O  O37  1  0.70300900  0.87997200  0.89904800  1
  O  O38  1  0.29699100  0.37997200  0.60095200  1
  O  O39  1  0.20300900  0.62002800  0.10095200  1
  O  O40  1  0.70341100  0.06933800  0.08631300  1
  O  O41  1  0.79658900  0.93066200  0.58631300  1
  O  O42  1  0.20341100  0.43066200  0.91368700  1
  O  O43  1  0.29658900  0.56933800  0.41368700  1
loop_
_geom_bond_atom_site_label_1
_geom_bond_atom_site_label_2
_geom_bond_distance
_geom_bond_site_symmetry_2
H0 O36 0.980795 1_555
H1 O37 0.980795 1_555
H2 O38 0.980795 1_555
H3 O39 0.980795 1_555
H4 O36 0.974750 1_555
H5 O37 0.974750 1_555
H6 O38 0.974750 1_555
H7 O39 0.974750 1_555
H8 O40 0.981393 1_555
H9 O41 0.981393 1_555
H10 O42 0.981393 1_555
H11 O43 0.981393 1_555
H12 O40 0.980722 1_555
H13 O41 0.980722 1_555
H14 O42 0.980722 1_555
H15 O43 0.980722 1_555
Cl0 O0 1.494103 1_555
Cl0 O8 1.512515 1_555
Cl0 O4 1.518612 1_555
Cl1 O1 1.494103 1_555
Cl1 O9 1.512515 1_555
Cl1 O5 1.518612 1_555
Cl2 O2 1.494103 1_555
Cl2 O10 1.512515 1_555
Cl2 O6 1.518612 1_555
Cl3 O3 1.494103 1_555
Cl3 O11 1.512515 1_555
Cl3 O7 1.518612 1_555
Cl4 O12 1.470030 1_555
Cl4 O17 1.525732 1_555
Cl4 O21 1.536965 1_555
Cl5 O13 1.470030 1_555
Cl5 O16 1.525732 1_555
Cl5 O20 1.536965 1_555
Cl6 O14 1.470030 1_555
Cl6 O19 1.525732 1_555
Cl6 O23 1.536965 1_555
Cl7 O15 1.470030 1_555
Cl7 O18 1.525732 1_555
Cl7 O22 1.536965 1_555
Cl8 O32 1.492427 1_555
Cl8 O24 1.504731 1_555
Cl8 O28 1.507606 1_555
Cl9 O33 1.492427 1_555
Cl9 O25 1.504731 1_555
Cl9 O29 1.507606 1_555
Cl10 O34 1.492427 1_555
Cl10 O26 1.504731 1_555
Cl10 O30 1.507606 1_555
Cl11 O35 1.492427 1_555
Cl11 O27 1.504731 1_555
Cl11 O31 1.507606 1_555
O4 Pr0 2.479844 1_555
O5 Pr1 2.479844 1_455
O6 Pr2 2.479844 1_655
O7 Pr3 2.479844 1_555
O8 Pr0 2.553582 1_455
O9 Pr1 2.553582 1_555
O10 Pr2 2.553582 1_555
O11 Pr3 2.553582 1_655
O16 Pr0 2.470714 1_455
O17 Pr1 2.470714 1_555
O18 Pr2 2.470714 1_555
O19 Pr3 2.470714 1_655
O20 Pr0 2.570600 1_555
O21 Pr1 2.570600 1_455
O22 Pr2 2.570600 1_655
O23 Pr3 2.570600 1_555
O24 Pr0 2.527612 1_445
O25 Pr1 2.527612 1_565
O26 Pr2 2.527612 1_555
O27 Pr3 2.527612 1_655
O28 Pr0 2.503626 1_545
O29 Pr1 2.503626 1_465
O30 Pr2 2.503626 1_655
O31 Pr3 2.503626 1_555
O32 Pr3 2.655308 1_555
O33 Pr2 2.655308 1_555
O34 Pr1 2.655308 1_555
O35 Pr0 2.655308 1_555
O36 Pr0 2.507444 1_545
O37 Pr1 2.507444 1_565
O38 Pr2 2.507444 1_555
O39 Pr3 2.507444 1_555
O40 Pr0 2.551409 1_545
O41 Pr1 2.551409 1_565
O42 Pr2 2.551409 1_555
O43 Pr3 2.551409 1_555
