# generated using pymatgen
data_Cr2(BW)3
_symmetry_space_group_name_H-M   'P 1'
_cell_length_a   5.77650500
_cell_length_b   5.77650500
_cell_length_c   6.68163667
_cell_angle_alpha   64.38846542
_cell_angle_beta   64.38846542
_cell_angle_gamma   90.00000000
_symmetry_Int_Tables_number   1
_chemical_formula_structural   Cr2(BW)3
_chemical_formula_sum   'Cr4 B6 W6'
_cell_volume   176.44156148
_cell_formula_units_Z   2
loop_
 _symmetry_equiv_pos_site_id
 _symmetry_equiv_pos_as_xyz
  1  'x, y, z'
loop_
 _atom_site_type_symbol
 _atom_site_label
 _atom_site_symmetry_multiplicity
 _atom_site_fract_x
 _atom_site_fract_y
 _atom_site_fract_z
 _atom_site_occupancy
  Cr  Cr0  1  0.30550500  0.80550500  0.71378100  1
  Cr  Cr1  1  0.98071400  0.48071400  0.71378100  1
  Cr  Cr2  1  0.48071400  0.30550500  0.71378100  1
  Cr  Cr3  1  0.80550500  0.98071400  0.71378100  1
  B  B0  1  0.38914000  0.88914000  0.98996100  1
  B  B1  1  0.62089900  0.12089900  0.98996100  1
  B  B2  1  0.12089900  0.38914000  0.98996100  1
  B  B3  1  0.88914000  0.62089900  0.98996100  1
  B  B4  1  0.73993700  0.73993700  0.52012600  1
  B  B5  1  0.23993700  0.23993700  0.52012600  1
  W  W0  1  0.67909000  0.17909000  0.29966600  1
  W  W1  1  0.02124400  0.52124400  0.29966600  1
  W  W2  1  0.52124400  0.67909000  0.29966600  1
  W  W3  1  0.17909000  0.02124400  0.29966600  1
  W  W4  1  0.51347100  0.51347100  0.97305800  1
  W  W5  1  0.01347100  0.01347100  0.97305800  1
loop_
_geom_bond_atom_site_label_1
_geom_bond_atom_site_label_2
_geom_bond_distance
_geom_bond_site_symmetry_2
Cr0 W5 2.561794 1_565
Cr0 W4 2.561794 1_555
Cr0 W0 2.577910 1_565
Cr0 W2 2.916866 1_555
Cr0 W3 2.916866 1_565
Cr1 W4 2.561793 1_555
Cr1 W5 2.561793 1_655
Cr1 W1 2.577911 1_655
Cr1 W2 2.916866 1_655
Cr1 W3 2.916866 1_665
Cr2 W5 2.561793 1_555
Cr2 W4 2.561794 1_555
Cr2 W2 2.577911 1_555
Cr2 W1 2.916866 1_655
Cr2 W0 2.916866 1_555
Cr3 W4 2.561793 1_555
Cr3 W5 2.561794 1_665
Cr3 W3 2.577911 1_665
Cr3 W1 2.916866 1_665
Cr3 W0 2.916866 1_565
B0 B1 1.893288 1_565
B0 Cr3 2.188332 1_555
B0 Cr2 2.188332 1_565
B0 W4 2.319366 1_555
B0 W5 2.319366 1_565
B0 Cr0 2.326705 1_555
B0 W2 2.351848 1_556
B0 W3 2.351848 1_566
B0 W1 2.389739 1_556
B1 Cr3 2.188332 1_545
B1 Cr2 2.188332 1_555
B1 W5 2.319366 1_655
B1 W4 2.319366 1_555
B1 Cr1 2.326704 1_555
B1 W2 2.351848 1_546
B1 W3 2.351848 1_556
B1 W0 2.389739 1_556
B2 B3 1.893288 1_455
B2 Cr0 2.188332 1_555
B2 Cr1 2.188332 1_455
B2 W4 2.319366 1_555
B2 W5 2.319366 1_555
B2 Cr2 2.326705 1_555
B2 W0 2.351848 1_456
B2 W1 2.351848 1_556
B2 W3 2.389739 1_556
B3 Cr0 2.188332 1_655
B3 Cr1 2.188332 1_555
B3 W5 2.319366 1_665
B3 W4 2.319366 1_555
B3 Cr3 2.326705 1_555
B3 W0 2.351848 1_556
B3 W1 2.351848 1_656
B3 W2 2.389739 1_556
B4 Cr2 2.394106 1_555
B4 Cr0 2.394106 1_555
B4 Cr1 2.394106 1_555
B4 Cr3 2.394106 1_555
B4 W4 2.394989 1_555
B4 W3 2.438366 1_665
B4 W0 2.438366 1_565
B4 W1 2.438366 1_655
B4 W2 2.438367 1_555
B5 Cr3 2.394106 1_445
B5 Cr0 2.394106 1_545
B5 Cr1 2.394106 1_455
B5 Cr2 2.394106 1_555
B5 W5 2.394989 1_555
B5 W2 2.438366 1_555
B5 W0 2.438366 1_555
B5 W1 2.438366 1_555
B5 W3 2.438367 1_555
