# generated using pymatgen
data_Be3Fe4Si3SO12
_symmetry_space_group_name_H-M   'P 1'
_cell_length_a   8.27655100
_cell_length_b   8.27655100
_cell_length_c   8.27655100
_cell_angle_alpha   90.00000000
_cell_angle_beta   90.00000000
_cell_angle_gamma   90.00000000
_symmetry_Int_Tables_number   1
_chemical_formula_structural   Be3Fe4Si3SO12
_chemical_formula_sum   'Be6 Fe8 Si6 S2 O24'
_cell_volume   566.95447368
_cell_formula_units_Z   2
loop_
 _symmetry_equiv_pos_site_id
 _symmetry_equiv_pos_as_xyz
  1  'x, y, z'
loop_
 _atom_site_type_symbol
 _atom_site_label
 _atom_site_symmetry_multiplicity
 _atom_site_fract_x
 _atom_site_fract_y
 _atom_site_fract_z
 _atom_site_occupancy
  Be  Be0  1  0.25000000  0.50000000  0.00000000  1
  Be  Be1  1  0.50000000  0.00000000  0.75000000  1
  Be  Be2  1  0.50000000  0.00000000  0.25000000  1
  Be  Be3  1  0.00000000  0.25000000  0.50000000  1
  Be  Be4  1  0.00000000  0.75000000  0.50000000  1
  Be  Be5  1  0.75000000  0.50000000  0.00000000  1
  Fe  Fe0  1  0.33316400  0.66683600  0.33316400  1
  Fe  Fe1  1  0.66683600  0.33316400  0.33316400  1
  Fe  Fe2  1  0.83316400  0.83316400  0.16683600  1
  Fe  Fe3  1  0.16683600  0.83316400  0.83316400  1
  Fe  Fe4  1  0.83316400  0.16683600  0.83316400  1
  Fe  Fe5  1  0.66683600  0.66683600  0.66683600  1
  Fe  Fe6  1  0.16683600  0.16683600  0.16683600  1
  Fe  Fe7  1  0.33316400  0.33316400  0.66683600  1
  Si  Si0  1  0.75000000  0.00000000  0.50000000  1
  Si  Si1  1  0.50000000  0.75000000  0.00000000  1
  Si  Si2  1  0.50000000  0.25000000  0.00000000  1
  Si  Si3  1  0.25000000  0.00000000  0.50000000  1
  Si  Si4  1  0.00000000  0.50000000  0.75000000  1
  Si  Si5  1  0.00000000  0.50000000  0.25000000  1
  S  S0  1  0.00000000  0.00000000  0.00000000  1
  S  S1  1  0.50000000  0.50000000  0.50000000  1
  O  O0  1  0.14008900  0.58809700  0.86014900  1
  O  O1  1  0.85991100  0.58809700  0.13985100  1
  O  O2  1  0.41190300  0.86014900  0.85991100  1
  O  O3  1  0.58809700  0.86014900  0.14008900  1
  O  O4  1  0.86014900  0.85991100  0.41190300  1
  O  O5  1  0.13985100  0.14008900  0.41190300  1
  O  O6  1  0.35991100  0.36014900  0.91190300  1
  O  O7  1  0.14008900  0.41190300  0.13985100  1
  O  O8  1  0.85991100  0.41190300  0.86014900  1
  O  O9  1  0.58809700  0.13985100  0.85991100  1
  O  O10  1  0.41190300  0.13985100  0.14008900  1
  O  O11  1  0.86014900  0.14008900  0.58809700  1
  O  O12  1  0.13985100  0.85991100  0.58809700  1
  O  O13  1  0.91190300  0.35991100  0.36014900  1
  O  O14  1  0.36014900  0.91190300  0.35991100  1
  O  O15  1  0.63985100  0.08809700  0.35991100  1
  O  O16  1  0.91190300  0.64008900  0.63985100  1
  O  O17  1  0.64008900  0.63985100  0.91190300  1
  O  O18  1  0.08809700  0.64008900  0.36014900  1
  O  O19  1  0.08809700  0.35991100  0.63985100  1
  O  O20  1  0.36014900  0.08809700  0.64008900  1
  O  O21  1  0.35991100  0.63985100  0.08809700  1
  O  O22  1  0.64008900  0.36014900  0.08809700  1
  O  O23  1  0.63985100  0.91190300  0.64008900  1
loop_
_geom_bond_atom_site_label_1
_geom_bond_atom_site_label_2
_geom_bond_distance
_geom_bond_site_symmetry_2
Be0 O21 1.642845 1_555
Be0 O0 1.642845 1_554
Be0 O6 1.642845 1_554
Be0 O7 1.642845 1_555
Be1 O2 1.642845 1_545
Be1 O23 1.642845 1_545
Be1 O20 1.642845 1_555
Be1 O9 1.642845 1_555
Be2 O15 1.642845 1_555
Be2 O3 1.642845 1_545
Be2 O10 1.642845 1_555
Be2 O14 1.642845 1_545
Be3 O11 1.642845 1_455
Be3 O19 1.642845 1_555
Be3 O13 1.642845 1_455
Be3 O5 1.642845 1_555
Be4 O16 1.642845 1_455
Be4 O4 1.642845 1_455
Be4 O12 1.642845 1_555
Be4 O18 1.642845 1_555
Be5 O17 1.642845 1_554
Be5 O8 1.642845 1_554
Be5 O22 1.642845 1_555
Be5 O1 1.642845 1_555
Fe0 O14 2.052542 1_555
Fe0 O21 2.052542 1_555
Fe0 O18 2.052542 1_555
Fe0 S1 2.391662 1_555
Fe1 O13 2.052542 1_555
Fe1 O22 2.052542 1_555
Fe1 O15 2.052542 1_555
Fe1 S1 2.391662 1_555
Fe2 O3 2.052542 1_555
Fe2 O1 2.052542 1_555
Fe2 O4 2.052542 1_555
Fe2 S0 2.391662 1_665
Fe3 O0 2.052542 1_555
Fe3 O12 2.052542 1_555
Fe3 O2 2.052542 1_555
Fe3 S0 2.391662 1_566
Fe4 O11 2.052542 1_555
Fe4 O8 2.052542 1_555
Fe4 O9 2.052542 1_555
Fe4 S0 2.391662 1_656
Fe5 O16 2.052542 1_555
Fe5 O17 2.052542 1_555
Fe5 O23 2.052542 1_555
Fe5 S1 2.391662 1_555
Fe6 O10 2.052542 1_555
Fe6 O7 2.052542 1_555
Fe6 O5 2.052542 1_555
Fe6 S0 2.391662 1_555
Fe7 O6 2.052542 1_555
Fe7 O20 2.052542 1_555
Fe7 O19 2.052542 1_555
Fe7 S1 2.391662 1_555
O0 Si4 1.645324 1_555
O1 Si5 1.645324 1_655
O2 Si1 1.645324 1_556
O3 Si1 1.645324 1_555
O4 Si0 1.645324 1_565
O5 Si3 1.645324 1_555
O6 Si2 1.645324 1_556
O7 Si5 1.645324 1_555
O8 Si4 1.645324 1_655
O9 Si2 1.645324 1_556
O10 Si2 1.645324 1_555
O11 Si0 1.645324 1_555
O12 Si3 1.645324 1_565
O13 Si5 1.645324 1_655
O14 Si3 1.645324 1_565
O15 Si0 1.645324 1_555
O16 Si4 1.645324 1_655
O17 Si1 1.645324 1_556
O18 Si5 1.645324 1_555
O19 Si4 1.645324 1_555
O20 Si3 1.645324 1_555
O21 Si1 1.645324 1_555
O22 Si2 1.645324 1_555
O23 Si0 1.645324 1_565
