# generated using pymatgen
data_Sr2HoCu2RuO8
_symmetry_space_group_name_H-M   'P 1'
_cell_length_a   3.83601705
_cell_length_b   3.83601705
_cell_length_c   11.86972500
_cell_angle_alpha   90.00000000
_cell_angle_beta   90.00000000
_cell_angle_gamma   90.08047892
_symmetry_Int_Tables_number   1
_chemical_formula_structural   Sr2HoCu2RuO8
_chemical_formula_sum   'Sr2 Ho1 Cu2 Ru1 O8'
_cell_volume   174.66314929
_cell_formula_units_Z   1
loop_
 _symmetry_equiv_pos_site_id
 _symmetry_equiv_pos_as_xyz
  1  'x, y, z'
loop_
 _atom_site_type_symbol
 _atom_site_label
 _atom_site_symmetry_multiplicity
 _atom_site_fract_x
 _atom_site_fract_y
 _atom_site_fract_z
 _atom_site_occupancy
  Sr  Sr0  1  0.50499000  0.49501000  0.69410700  1
  Sr  Sr1  1  0.50499000  0.49501000  0.30589300  1
  Ho  Ho0  1  0.50061000  0.49939000  0.00000000  1
  Cu  Cu0  1  0.00118200  0.99881800  0.85849100  1
  Cu  Cu1  1  0.00118200  0.99881800  0.14150900  1
  Ru  Ru0  1  0.01353400  0.98646600  0.50000000  1
  O  O0  1  0.99989100  0.49843000  0.87887900  1
  O  O1  1  0.50157000  0.00010900  0.87887900  1
  O  O2  1  0.99989100  0.49843000  0.12112100  1
  O  O3  1  0.50157000  0.00010900  0.12112100  1
  O  O4  1  0.01510900  0.98489100  0.67244200  1
  O  O5  1  0.01510900  0.98489100  0.32755800  1
  O  O6  1  0.01472300  0.48615600  0.50000000  1
  O  O7  1  0.51384400  0.98527700  0.50000000  1
loop_
_geom_bond_atom_site_label_1
_geom_bond_atom_site_label_2
_geom_bond_distance
_geom_bond_site_symmetry_2
Ho0 O2 2.394811 1_555
Ho0 O3 2.394811 1_555
Ho0 O0 2.394811 1_554
Ho0 O1 2.394811 1_554
Ho0 O3 2.399217 1_565
Ho0 O2 2.399217 1_455
Ho0 O1 2.399217 1_564
Ho0 O0 2.399217 1_454
Cu0 O1 1.931752 1_465
Cu0 O0 1.931752 1_465
Cu0 O0 1.934691 1_455
Cu0 O1 1.934691 1_565
Cu0 O4 2.209644 1_555
Cu1 O3 1.931752 1_465
Cu1 O2 1.931752 1_465
Cu1 O2 1.934691 1_455
Cu1 O3 1.934691 1_565
Cu1 O5 2.209644 1_555
O0 Sr0 2.900742 1_555
O0 Sr0 2.926518 1_655
O1 Sr0 2.900742 1_555
O1 Sr0 2.926518 1_545
O2 Sr1 2.900742 1_555
O2 Sr1 2.926518 1_655
O3 Sr1 2.900742 1_555
O3 Sr1 2.926518 1_545
O4 Ru0 2.046857 1_555
O4 Sr0 2.671849 1_555
O4 Sr0 2.723293 1_455
O4 Sr0 2.723293 1_565
O4 Sr0 2.781226 1_465
O5 Ru0 2.046857 1_555
O5 Sr1 2.671849 1_555
O5 Sr1 2.723293 1_455
O5 Sr1 2.723293 1_565
O5 Sr1 2.781226 1_465
O6 Ru0 1.916818 1_545
O6 Ru0 1.919210 1_555
O6 Sr0 2.974274 1_555
O6 Sr1 2.974274 1_555
O6 Sr0 3.022104 1_455
O6 Sr1 3.022104 1_455
O7 Ru0 1.916818 1_655
O7 Ru0 1.919210 1_555
O7 Sr0 2.974274 1_555
O7 Sr1 2.974274 1_555
O7 Sr0 3.022104 1_565
O7 Sr1 3.022104 1_565
