# generated using pymatgen
data_Rb3LiErV2O8
_symmetry_space_group_name_H-M   'P 1'
_cell_length_a   5.96001491
_cell_length_b   5.96001491
_cell_length_c   8.78551100
_cell_angle_alpha   90.00000000
_cell_angle_beta   90.00000000
_cell_angle_gamma   119.99998786
_symmetry_Int_Tables_number   1
_chemical_formula_structural   Rb3LiErV2O8
_chemical_formula_sum   'Rb3 Li1 Er1 V2 O8'
_cell_volume   270.26661578
_cell_formula_units_Z   1
loop_
 _symmetry_equiv_pos_site_id
 _symmetry_equiv_pos_as_xyz
  1  'x, y, z'
loop_
 _atom_site_type_symbol
 _atom_site_label
 _atom_site_symmetry_multiplicity
 _atom_site_fract_x
 _atom_site_fract_y
 _atom_site_fract_z
 _atom_site_occupancy
  Rb  Rb0  1  0.66666700  0.33333300  0.28395600  1
  Rb  Rb1  1  0.33333300  0.66666700  0.71459800  1
  Rb  Rb2  1  0.00000000  0.00000000  0.06991500  1
  Li  Li0  1  0.00000000  0.00000000  0.76535900  1
  Er  Er0  1  0.00000000  0.00000000  0.48531400  1
  V  V0  1  0.66666700  0.33333300  0.73201000  1
  V  V1  1  0.33333300  0.66666700  0.26032500  1
  O  O0  1  0.66666700  0.33333300  0.92918600  1
  O  O1  1  0.33333300  0.66666700  0.06809800  1
  O  O2  1  0.83685100  0.67370400  0.65672400  1
  O  O3  1  0.17154000  0.34307900  0.32646600  1
  O  O4  1  0.83685100  0.16314900  0.65672400  1
  O  O5  1  0.17154000  0.82846000  0.32646600  1
  O  O6  1  0.32629600  0.16314900  0.65672400  1
  O  O7  1  0.65692200  0.82846000  0.32646600  1
loop_
_geom_bond_atom_site_label_1
_geom_bond_atom_site_label_2
_geom_bond_distance
_geom_bond_site_symmetry_2
Li0 O6 1.935816 1_555
Li0 O2 1.935816 1_445
Li0 O4 1.935825 1_455
Li0 Rb2 2.675680 1_556
Er0 O7 2.254627 1_445
Er0 O3 2.254631 1_555
Er0 O5 2.254635 1_545
Er0 O6 2.259267 1_555
Er0 O2 2.259267 1_445
Er0 O4 2.259274 1_455
O0 V0 1.732292 1_555
O0 Rb0 3.116836 1_556
O1 V1 1.688812 1_555
O1 Rb1 3.105678 1_554
O1 Rb2 3.441050 1_565
O1 Rb2 3.441055 1_555
O1 Rb2 3.441055 1_665
O2 V0 1.877218 1_555
O2 Rb1 3.023288 1_555
O2 Rb1 3.023294 1_655
O3 V1 1.768403 1_555
O3 Rb2 2.866353 1_555
O3 Rb0 3.003740 1_555
O3 Rb0 3.003740 1_455
O4 V0 1.877203 1_555
O4 Rb1 3.023291 1_545
O4 Rb1 3.023291 1_655
O5 V1 1.768393 1_555
O5 Rb2 2.866356 1_565
O5 Rb0 3.003741 1_565
O5 Rb0 3.003741 1_455
O6 V0 1.877218 1_555
O6 Rb1 3.023288 1_555
O6 Rb1 3.023294 1_545
O7 V1 1.768408 1_555
O7 Rb2 2.866350 1_665
O7 Rb0 3.003737 1_555
O7 Rb0 3.003743 1_565
