# generated using pymatgen
data_V2P2H2O11
_symmetry_space_group_name_H-M   'P 1'
_cell_length_a   7.41537100
_cell_length_b   9.44514300
_cell_length_c   5.86135200
_cell_angle_alpha   90.00000000
_cell_angle_beta   90.00000000
_cell_angle_gamma   90.00000000
_symmetry_Int_Tables_number   1
_chemical_formula_structural   V2P2H2O11
_chemical_formula_sum   'V4 P4 H4 O22'
_cell_volume   410.52463648
_cell_formula_units_Z   2
loop_
 _symmetry_equiv_pos_site_id
 _symmetry_equiv_pos_as_xyz
  1  'x, y, z'
loop_
 _atom_site_type_symbol
 _atom_site_label
 _atom_site_symmetry_multiplicity
 _atom_site_fract_x
 _atom_site_fract_y
 _atom_site_fract_z
 _atom_site_occupancy
  V  V0  1  0.29012300  0.50000000  0.01542000  1
  V  V1  1  0.70987700  0.50000000  0.01542000  1
  V  V2  1  0.20987700  0.00000000  0.98458000  1
  V  V3  1  0.79012300  0.00000000  0.98458000  1
  P  P0  1  0.50000000  0.76902700  0.76348900  1
  P  P1  1  0.50000000  0.23097300  0.76348900  1
  P  P2  1  0.00000000  0.73097300  0.23651100  1
  P  P3  1  0.00000000  0.26902700  0.23651100  1
  H  H0  1  0.50000000  0.40979200  0.39306600  1
  H  H1  1  0.50000000  0.59020800  0.39306600  1
  H  H2  1  0.00000000  0.09020800  0.60693400  1
  H  H3  1  0.00000000  0.90979200  0.60693400  1
  O  O0  1  0.50000000  0.72967800  0.51864000  1
  O  O1  1  0.50000000  0.27032200  0.51864000  1
  O  O2  1  0.00000000  0.77032200  0.48136000  1
  O  O3  1  0.00000000  0.22967800  0.48136000  1
  O  O4  1  0.32909800  0.85567900  0.83351800  1
  O  O5  1  0.67090200  0.85567900  0.83351800  1
  O  O6  1  0.32909800  0.14432100  0.83351800  1
  O  O7  1  0.67090200  0.14432100  0.83351800  1
  O  O8  1  0.17090200  0.64432100  0.16648200  1
  O  O9  1  0.82909800  0.64432100  0.16648200  1
  O  O10  1  0.17090200  0.35567900  0.16648200  1
  O  O11  1  0.82909800  0.35567900  0.16648200  1
  O  O12  1  0.50000000  0.63568900  0.93173100  1
  O  O13  1  0.50000000  0.36431100  0.93173100  1
  O  O14  1  0.00000000  0.86431100  0.06826900  1
  O  O15  1  0.00000000  0.13568900  0.06826900  1
  O  O16  1  0.20220200  0.50000000  0.76515100  1
  O  O17  1  0.79779800  0.50000000  0.76515100  1
  O  O18  1  0.29779800  0.00000000  0.23484900  1
  O  O19  1  0.70220200  0.00000000  0.23484900  1
  O  O20  1  0.50000000  0.50000000  0.29342400  1
  O  O21  1  0.00000000  0.00000000  0.70657600  1
loop_
_geom_bond_atom_site_label_1
_geom_bond_atom_site_label_2
_geom_bond_distance
_geom_bond_site_symmetry_2
H0 O20 1.032981 1_555
H0 O1 1.508994 1_555
H1 O20 1.032981 1_555
H1 O0 1.508994 1_555
H2 O21 1.032981 1_555
H2 O3 1.508994 1_555
H3 O21 1.032981 1_565
H3 O2 1.508994 1_555
O0 P0 1.482489 1_555
O1 P1 1.482489 1_555
O2 P2 1.482489 1_555
O3 P3 1.482489 1_555
O4 P0 1.563451 1_555
O4 V2 1.850321 1_565
O5 P0 1.563451 1_555
O5 V3 1.850321 1_565
O6 P1 1.563451 1_555
O6 V2 1.850321 1_555
O7 P1 1.563451 1_555
O7 V3 1.850321 1_555
O8 P2 1.563451 1_555
O8 V0 1.850321 1_555
O9 P2 1.563451 1_655
O9 V1 1.850321 1_555
O10 P3 1.563451 1_555
O10 V0 1.850321 1_555
O11 P3 1.563451 1_655
O11 V1 1.850321 1_555
O12 P0 1.599538 1_555
O12 V1 2.074908 1_556
O12 V0 2.074908 1_556
O13 P1 1.599538 1_555
O13 V1 2.074908 1_556
O13 V0 2.074908 1_556
O14 P2 1.599538 1_555
O14 V2 2.074908 1_564
O14 V3 2.074908 1_464
O15 P3 1.599538 1_555
O15 V3 2.074908 1_454
O15 V2 2.074908 1_554
O16 V0 1.605272 1_556
O17 V1 1.605272 1_556
O18 V2 1.605272 1_554
O19 V3 1.605272 1_554
O20 V1 2.253291 1_555
O20 V0 2.253291 1_555
O21 V3 2.253291 1_455
O21 V2 2.253291 1_555
