# generated using pymatgen
data_Na3La(AsO4)2
_symmetry_space_group_name_H-M   'P 1'
_cell_length_a   5.98317341
_cell_length_b   5.98317341
_cell_length_c   7.46123500
_cell_angle_alpha   90.00000000
_cell_angle_beta   90.00000000
_cell_angle_gamma   119.99999350
_symmetry_Int_Tables_number   1
_chemical_formula_structural   Na3La(AsO4)2
_chemical_formula_sum   'Na3 La1 As2 O8'
_cell_volume   231.31540656
_cell_formula_units_Z   1
loop_
 _symmetry_equiv_pos_site_id
 _symmetry_equiv_pos_as_xyz
  1  'x, y, z'
loop_
 _atom_site_type_symbol
 _atom_site_label
 _atom_site_symmetry_multiplicity
 _atom_site_fract_x
 _atom_site_fract_y
 _atom_site_fract_z
 _atom_site_occupancy
  Na  Na0  1  0.33333300  0.66666700  0.70327900  1
  Na  Na1  1  0.66666700  0.33333300  0.29672100  1
  Na  Na2  1  0.00000000  0.00000000  0.00000000  1
  La  La0  1  0.00000000  0.00000000  0.50000000  1
  As  As0  1  0.33333300  0.66666700  0.21512200  1
  As  As1  1  0.66666700  0.33333300  0.78487800  1
  O  O0  1  0.33333300  0.66666700  0.99137100  1
  O  O1  1  0.66666700  0.33333300  0.00862900  1
  O  O2  1  0.17896100  0.82103900  0.30524800  1
  O  O3  1  0.82103900  0.17896100  0.69475200  1
  O  O4  1  0.17896100  0.35792300  0.30524800  1
  O  O5  1  0.82103900  0.64207700  0.69475200  1
  O  O6  1  0.64207700  0.82103900  0.30524800  1
  O  O7  1  0.35792300  0.17896100  0.69475200  1
loop_
_geom_bond_atom_site_label_1
_geom_bond_atom_site_label_2
_geom_bond_distance
_geom_bond_site_symmetry_2
Na0 O0 2.149522 1_555
Na1 O1 2.149522 1_555
Na2 O2 2.937120 1_545
Na2 O3 2.937120 1_454
Na2 O6 2.937124 1_445
Na2 O4 2.937124 1_555
Na2 O5 2.937124 1_444
Na2 O7 2.937124 1_554
La0 O3 2.356060 1_455
La0 O2 2.356060 1_545
La0 O7 2.356064 1_555
La0 O5 2.356064 1_445
La0 O6 2.356064 1_445
La0 O4 2.356064 1_555
As0 O0 1.669459 1_554
As0 O2 1.735365 1_555
As0 O6 1.735365 1_555
As0 O4 1.735365 1_555
As1 O1 1.669459 1_556
As1 O3 1.735365 1_555
As1 O7 1.735365 1_555
As1 O5 1.735365 1_555
