# generated using pymatgen
data_Y3GeO8
_symmetry_space_group_name_H-M   'P 1'
_cell_length_a   10.37892100
_cell_length_b   5.44154900
_cell_length_c   6.09480986
_cell_angle_alpha   74.87093759
_cell_angle_beta   90.00000000
_cell_angle_gamma   90.00000000
_symmetry_Int_Tables_number   1
_chemical_formula_structural   Y3GeO8
_chemical_formula_sum   'Y6 Ge2 O16'
_cell_volume   332.28855270
_cell_formula_units_Z   2
loop_
 _symmetry_equiv_pos_site_id
 _symmetry_equiv_pos_as_xyz
  1  'x, y, z'
loop_
 _atom_site_type_symbol
 _atom_site_label
 _atom_site_symmetry_multiplicity
 _atom_site_fract_x
 _atom_site_fract_y
 _atom_site_fract_z
 _atom_site_occupancy
  Y  Y0  1  0.45644700  0.31374300  0.29996700  1
  Y  Y1  1  0.54355300  0.68625700  0.70003300  1
  Y  Y2  1  0.95644700  0.68625700  0.70003300  1
  Y  Y3  1  0.04355300  0.31374300  0.29996700  1
  Y  Y4  1  0.25000000  0.21422800  0.80981900  1
  Y  Y5  1  0.75000000  0.78577200  0.19018100  1
  Ge  Ge0  1  0.25000000  0.80567800  0.48058600  1
  Ge  Ge1  1  0.75000000  0.19432200  0.51941400  1
  O  O0  1  0.36883100  0.54241400  0.53321600  1
  O  O1  1  0.63116900  0.45758600  0.46678400  1
  O  O2  1  0.86883100  0.45758600  0.46678400  1
  O  O3  1  0.13116900  0.54241400  0.53321600  1
  O  O4  1  0.25000000  0.39784200  0.11626000  1
  O  O5  1  0.75000000  0.60215800  0.88374000  1
  O  O6  1  0.96842800  0.70357300  0.06573000  1
  O  O7  1  0.03157200  0.29642700  0.93427000  1
  O  O8  1  0.46842800  0.29642700  0.93427000  1
  O  O9  1  0.53157200  0.70357300  0.06573000  1
  O  O10  1  0.37424800  0.98829800  0.60390400  1
  O  O11  1  0.62575200  0.01170200  0.39609600  1
  O  O12  1  0.87424800  0.01170200  0.39609600  1
  O  O13  1  0.12575200  0.98829800  0.60390400  1
  O  O14  1  0.25000000  0.97027000  0.18265700  1
  O  O15  1  0.75000000  0.02973000  0.81734300  1
loop_
_geom_bond_atom_site_label_1
_geom_bond_atom_site_label_2
_geom_bond_distance
_geom_bond_site_symmetry_2
Ge0 O14 1.802901 1_555
Ge0 O0 1.853750 1_555
Ge0 O3 1.853750 1_555
Ge0 O10 1.898749 1_555
Ge0 O13 1.898749 1_555
Ge1 O15 1.802901 1_555
Ge1 O2 1.853750 1_555
Ge1 O1 1.853750 1_555
Ge1 O12 1.898749 1_555
Ge1 O11 1.898749 1_555
O0 Y0 2.306429 1_555
O0 Y1 2.313071 1_555
O0 Y4 2.445586 1_555
O1 Y1 2.306429 1_555
O1 Y0 2.313071 1_555
O1 Y5 2.445586 1_555
O2 Y2 2.306429 1_555
O2 Y3 2.313071 1_655
O2 Y5 2.445586 1_555
O3 Y3 2.306429 1_555
O3 Y2 2.313071 1_455
O3 Y4 2.445586 1_555
O4 Y4 2.336809 1_554
O4 Y0 2.405567 1_555
O4 Y3 2.405567 1_555
O5 Y5 2.336809 1_556
O5 Y2 2.405567 1_555
O5 Y1 2.405567 1_555
O6 Y2 2.258707 1_554
O6 Y3 2.359051 1_655
O6 Y5 2.468197 1_555
O7 Y3 2.258707 1_556
O7 Y2 2.359051 1_455
O7 Y4 2.468197 1_555
O8 Y0 2.258707 1_556
O8 Y1 2.359051 1_555
O8 Y4 2.468197 1_555
O9 Y1 2.258707 1_554
O9 Y0 2.359051 1_555
O9 Y5 2.468197 1_555
O10 Y4 2.356875 1_565
O10 Y0 2.362868 1_565
O10 Y1 2.372700 1_555
O11 Y5 2.356875 1_545
O11 Y1 2.362868 1_545
O11 Y0 2.372700 1_555
O12 Y5 2.356875 1_545
O12 Y2 2.362868 1_545
O12 Y3 2.372700 1_655
O13 Y4 2.356875 1_565
O13 Y3 2.362868 1_565
O13 Y2 2.372700 1_455
O14 Y4 2.313298 1_564
O15 Y5 2.313298 1_546
