# generated using pymatgen
data_RbBa2Br5
_symmetry_space_group_name_H-M   'P 1'
_cell_length_a   8.71412027
_cell_length_b   9.83945789
_cell_length_c   13.98936911
_cell_angle_alpha   89.90564131
_cell_angle_beta   90.00000000
_cell_angle_gamma   90.00000000
_symmetry_Int_Tables_number   1
_chemical_formula_structural   RbBa2Br5
_chemical_formula_sum   'Rb4 Ba8 Br20'
_cell_volume   1199.47792931
_cell_formula_units_Z   4
loop_
 _symmetry_equiv_pos_site_id
 _symmetry_equiv_pos_as_xyz
  1  'x, y, z'
loop_
 _atom_site_type_symbol
 _atom_site_label
 _atom_site_symmetry_multiplicity
 _atom_site_fract_x
 _atom_site_fract_y
 _atom_site_fract_z
 _atom_site_occupancy
  Rb  Rb0  1  0.46279759  0.49344162  0.82944010  1
  Rb  Rb1  1  0.53720241  0.50655838  0.17055990  1
  Rb  Rb2  1  0.96279759  0.50655838  0.67055990  1
  Rb  Rb3  1  0.03720241  0.49344162  0.32944010  1
  Ba  Ba0  1  0.47487148  0.00030311  0.82271080  1
  Ba  Ba1  1  0.52512852  0.99969689  0.17728920  1
  Ba  Ba2  1  0.97487148  0.99969689  0.67728920  1
  Ba  Ba3  1  0.02512852  0.00030311  0.32271080  1
  Ba  Ba4  1  0.42778573  0.74813303  0.50766903  1
  Ba  Ba5  1  0.57221427  0.25186697  0.49233097  1
  Ba  Ba6  1  0.92778573  0.25186697  0.99233097  1
  Ba  Ba7  1  0.07221427  0.74813303  0.00766903  1
  Br  Br0  1  0.33189471  0.45983696  0.59391024  1
  Br  Br1  1  0.66810529  0.54016304  0.40608976  1
  Br  Br2  1  0.83189471  0.54016304  0.90608976  1
  Br  Br3  1  0.16810529  0.45983696  0.09391024  1
  Br  Br4  1  0.67015931  0.78098929  0.68546771  1
  Br  Br5  1  0.32984069  0.21901071  0.31453229  1
  Br  Br6  1  0.17015931  0.21901071  0.81453229  1
  Br  Br7  1  0.82984069  0.78098929  0.18546771  1
  Br  Br8  1  0.19705716  0.76747841  0.78159424  1
  Br  Br9  1  0.80294284  0.23252159  0.21840576  1
  Br  Br10  1  0.69705716  0.23252159  0.71840576  1
  Br  Br11  1  0.30294284  0.76747841  0.28159424  1
  Br  Br12  1  0.04357738  0.77652765  0.50227955  1
  Br  Br13  1  0.95642262  0.22347235  0.49772045  1
  Br  Br14  1  0.54357738  0.22347235  0.99772045  1
  Br  Br15  1  0.45642262  0.77652765  0.00227955  1
  Br  Br16  1  0.83718188  0.95966134  0.90065587  1
  Br  Br17  1  0.16281812  0.04033866  0.09934413  1
  Br  Br18  1  0.33718188  0.04033866  0.59934413  1
  Br  Br19  1  0.66281812  0.95966134  0.40065587  1
loop_
_geom_bond_atom_site_label_1
_geom_bond_atom_site_label_2
_geom_bond_distance
_geom_bond_site_symmetry_2
Ba0 Br10 3.329812 1_555
Ba0 Br15 3.341570 1_546
Ba0 Br14 3.345449 1_555
Ba0 Br4 3.354472 1_545
Ba0 Br16 3.363848 1_545
Ba0 Br18 3.369698 1_555
Ba0 Br8 3.382907 1_545
Ba0 Br6 3.419626 1_555
Ba1 Br11 3.329812 1_555
Ba1 Br14 3.341570 1_564
Ba1 Br15 3.345449 1_555
Ba1 Br5 3.354472 1_565
Ba1 Br17 3.363848 1_565
Ba1 Br19 3.369698 1_555
Ba1 Br9 3.382907 1_565
Ba1 Br7 3.419626 1_555
Ba2 Br8 3.329812 1_655
Ba2 Br13 3.341570 1_565
Ba2 Br12 3.345449 1_655
Ba2 Br6 3.354472 1_665
Ba2 Br18 3.363848 1_665
Ba2 Br16 3.369698 1_555
Ba2 Br10 3.382907 1_565
Ba2 Br4 3.419626 1_555
Ba3 Br9 3.329812 1_455
Ba3 Br12 3.341570 1_545
Ba3 Br13 3.345449 1_455
Ba3 Br7 3.354472 1_445
Ba3 Br19 3.363848 1_445
Ba3 Br17 3.369698 1_555
Ba3 Br11 3.382907 1_545
Ba3 Br5 3.419626 1_555
Ba4 Br0 3.192060 1_555
Ba4 Br18 3.247570 1_565
Ba4 Br1 3.256050 1_555
Ba4 Br4 3.279426 1_555
Ba4 Br19 3.279864 1_555
Ba4 Br11 3.349639 1_555
Ba4 Br12 3.360510 1_555
Ba5 Br1 3.192060 1_555
Ba5 Br19 3.247570 1_545
Ba5 Br0 3.256050 1_555
Ba5 Br5 3.279426 1_555
Ba5 Br18 3.279864 1_555
Ba5 Br10 3.349639 1_555
Ba5 Br13 3.360510 1_555
Ba6 Br2 3.192060 1_555
Ba6 Br16 3.247570 1_545
Ba6 Br3 3.256050 1_656
Ba6 Br6 3.279426 1_655
Ba6 Br17 3.279864 1_656
Ba6 Br9 3.349639 1_556
Ba6 Br14 3.360510 1_555
Ba7 Br3 3.192060 1_555
Ba7 Br17 3.247570 1_565
Ba7 Br2 3.256050 1_454
Ba7 Br7 3.279426 1_455
Ba7 Br16 3.279864 1_454
Ba7 Br8 3.349639 1_554
Ba7 Br15 3.360510 1_555
Br0 Rb2 3.421651 1_455
Br0 Rb0 3.502939 1_555
Br1 Rb3 3.421651 1_655
Br1 Rb1 3.502939 1_555
Br2 Rb0 3.421651 1_555
Br2 Rb2 3.502939 1_555
Br3 Rb1 3.421651 1_555
Br3 Rb3 3.502939 1_555
Br4 Rb2 3.720167 1_555
Br4 Rb0 3.912535 1_555
Br5 Rb3 3.720167 1_555
Br5 Rb1 3.912535 1_555
Br6 Rb0 3.720167 1_555
Br6 Rb2 3.912535 1_455
Br7 Rb1 3.720167 1_555
Br7 Rb3 3.912535 1_655
Br8 Rb0 3.615927 1_555
Br8 Rb2 3.630997 1_455
Br9 Rb1 3.615927 1_555
Br9 Rb3 3.630997 1_655
Br10 Rb2 3.615927 1_555
Br10 Rb0 3.630997 1_555
Br11 Rb3 3.615927 1_555
Br11 Rb1 3.630997 1_555
Br12 Rb2 3.615670 1_455
Br12 Rb3 3.691898 1_555
Br13 Rb3 3.615670 1_655
Br13 Rb2 3.691898 1_555
Br14 Rb0 3.615670 1_555
Br14 Rb1 3.691898 1_556
Br15 Rb1 3.615670 1_555
Br15 Rb0 3.691898 1_554
