# generated using pymatgen
data_Cu3(MoO5)2
_symmetry_space_group_name_H-M   'P 1'
_cell_length_a   13.92899200
_cell_length_b   5.53976900
_cell_length_c   7.51960498
_cell_angle_alpha   47.58404186
_cell_angle_beta   90.00000000
_cell_angle_gamma   90.00000000
_symmetry_Int_Tables_number   1
_chemical_formula_structural   Cu3(MoO5)2
_chemical_formula_sum   'Cu6 Mo4 O20'
_cell_volume   428.37106119
_cell_formula_units_Z   2
loop_
 _symmetry_equiv_pos_site_id
 _symmetry_equiv_pos_as_xyz
  1  'x, y, z'
loop_
 _atom_site_type_symbol
 _atom_site_label
 _atom_site_symmetry_multiplicity
 _atom_site_fract_x
 _atom_site_fract_y
 _atom_site_fract_z
 _atom_site_occupancy
  Cu  Cu0  1  0.50000000  0.00000000  0.50000000  1
  Cu  Cu1  1  0.00000000  0.00000000  0.00000000  1
  Cu  Cu2  1  0.58966300  0.38087900  0.63237300  1
  Cu  Cu3  1  0.91033700  0.38087900  0.13237300  1
  Cu  Cu4  1  0.41033700  0.61912100  0.36762700  1
  Cu  Cu5  1  0.08966300  0.61912100  0.86762700  1
  Mo  Mo0  1  0.65402600  0.57245500  0.04365600  1
  Mo  Mo1  1  0.84597400  0.57245500  0.54365600  1
  Mo  Mo2  1  0.34597400  0.42754500  0.95634400  1
  Mo  Mo3  1  0.15402600  0.42754500  0.45634400  1
  O  O0  1  0.71895300  0.54225300  0.52681900  1
  O  O1  1  0.78104700  0.54225300  0.02681900  1
  O  O2  1  0.28104700  0.45774700  0.47318100  1
  O  O3  1  0.21895300  0.45774700  0.97318100  1
  O  O4  1  0.59374800  0.54687800  0.85040200  1
  O  O5  1  0.90625200  0.54687800  0.35040200  1
  O  O6  1  0.40625200  0.45312200  0.14959800  1
  O  O7  1  0.09374800  0.45312200  0.64959800  1
  O  O8  1  0.62887900  0.97793700  0.92616800  1
  O  O9  1  0.87112100  0.97793700  0.42616800  1
  O  O10  1  0.37112100  0.02206300  0.07383200  1
  O  O11  1  0.12887900  0.02206300  0.57383200  1
  O  O12  1  0.61225400  0.25530600  0.35564100  1
  O  O13  1  0.88774600  0.25530600  0.85564100  1
  O  O14  1  0.38774600  0.74469400  0.64435900  1
  O  O15  1  0.11225400  0.74469400  0.14435900  1
  O  O16  1  0.52622800  0.77948000  0.38945900  1
  O  O17  1  0.97377200  0.77948000  0.88945900  1
  O  O18  1  0.47377200  0.22052000  0.61054100  1
  O  O19  1  0.02622800  0.22052000  0.11054100  1
loop_
_geom_bond_atom_site_label_1
_geom_bond_atom_site_label_2
_geom_bond_distance
_geom_bond_site_symmetry_2
Cu0 O12 1.884773 1_555
Cu0 O14 1.884773 1_545
Cu0 O18 1.920062 1_555
Cu0 O16 1.920062 1_545
Cu0 O6 2.454863 1_555
Cu0 O4 2.454863 1_545
Cu1 O13 1.884773 1_454
Cu1 O15 1.884773 1_545
Cu1 O19 1.920062 1_555
Cu1 O17 1.920062 1_444
Cu1 O7 2.454863 1_554
Cu1 O5 2.454863 1_445
Cu2 O8 1.873284 1_545
Cu2 O16 1.884679 1_555
Cu2 O18 1.902274 1_555
Cu2 O0 1.927469 1_555
Cu2 O4 2.360233 1_555
Cu2 O12 2.620297 1_555
Cu3 O9 1.873284 1_545
Cu3 O17 1.884679 1_554
Cu3 O19 1.902274 1_655
Cu3 O1 1.927469 1_555
Cu3 O5 2.360233 1_555
Cu3 O13 2.620297 1_554
Cu4 O10 1.873284 1_565
Cu4 O18 1.884679 1_555
Cu4 O16 1.902274 1_555
Cu4 O2 1.927469 1_555
Cu4 O6 2.360233 1_555
Cu4 O14 2.620297 1_555
Cu5 O11 1.873284 1_565
Cu5 O19 1.884679 1_556
Cu5 O17 1.902274 1_455
Cu5 O3 1.927469 1_555
Cu5 O7 2.360233 1_555
Cu5 O15 2.620297 1_556
Mo0 O4 1.764813 1_554
Mo0 O1 1.789673 1_555
Mo0 O8 1.808820 1_554
Mo0 O12 1.835416 1_555
Mo1 O5 1.764813 1_555
Mo1 O0 1.789673 1_555
Mo1 O9 1.808820 1_555
Mo1 O13 1.835416 1_555
Mo2 O6 1.764813 1_556
Mo2 O3 1.789673 1_555
Mo2 O10 1.808820 1_556
Mo2 O14 1.835416 1_555
Mo3 O7 1.764813 1_555
Mo3 O2 1.789673 1_555
Mo3 O11 1.808820 1_555
Mo3 O15 1.835416 1_555
