# generated using pymatgen
data_Ba3LiTi3O8
_symmetry_space_group_name_H-M   'P 1'
_cell_length_a   5.82542092
_cell_length_b   5.91198103
_cell_length_c   7.71586451
_cell_angle_alpha   76.71422645
_cell_angle_beta   92.54123485
_cell_angle_gamma   120.14087206
_symmetry_Int_Tables_number   1
_chemical_formula_structural   Ba3LiTi3O8
_chemical_formula_sum   'Ba3 Li1 Ti3 O8'
_cell_volume   222.85493899
_cell_formula_units_Z   1
loop_
 _symmetry_equiv_pos_site_id
 _symmetry_equiv_pos_as_xyz
  1  'x, y, z'
loop_
 _atom_site_type_symbol
 _atom_site_label
 _atom_site_symmetry_multiplicity
 _atom_site_fract_x
 _atom_site_fract_y
 _atom_site_fract_z
 _atom_site_occupancy
  Ba  Ba0  1  0.05482224  0.11072403  0.05331241  1
  Ba  Ba1  1  0.29343887  0.59186794  0.62137199  1
  Ba  Ba2  1  0.67306515  0.34970041  0.31298443  1
  Li  Li0  1  0.80390475  0.63908547  0.88997947  1
  Ti  Ti0  1  0.96938436  0.96286748  0.49756246  1
  Ti  Ti1  1  0.35507340  0.70806270  0.16035824  1
  Ti  Ti2  1  0.59919214  0.18328606  0.76529866  1
  O  O0  1  0.06316657  0.64677379  0.04178934  1
  O  O1  1  0.17669957  0.36555474  0.34065754  1
  O  O2  1  0.55759007  0.11253485  0.01167625  1
  O  O3  1  0.68800323  0.85532786  0.34397665  1
  O  O4  1  0.29353033  0.05496371  0.65141750  1
  O  O5  1  0.53512717  0.61579573  0.02719842  1
  O  O6  1  0.77770371  0.55017763  0.66753099  1
  O  O7  1  0.81554544  0.07619760  0.68899366  1
loop_
_geom_bond_atom_site_label_1
_geom_bond_atom_site_label_2
_geom_bond_distance
_geom_bond_site_symmetry_2
Ba0 O3 2.739386 1_445
Ba0 O0 2.789255 1_545
Ba0 O1 2.830341 1_555
Ba0 O5 2.858067 1_555
Ba0 O2 2.905267 1_455
Ba0 O2 2.954955 1_555
Ba0 O5 3.014696 1_445
Ba0 O7 3.084969 1_454
Ba0 O0 3.125658 1_555
Ba1 O1 2.689153 1_555
Ba1 O3 2.756613 1_555
Ba1 O4 2.799930 1_565
Ba1 O7 2.862007 1_455
Ba1 O6 2.919718 1_455
Ba1 O6 2.952071 1_555
Ba1 O7 3.085723 1_565
Ba1 O4 3.129307 1_555
Ba1 O5 3.379345 1_556
Ba2 O0 2.711423 1_655
Ba2 O5 2.738772 1_555
Ba2 O2 2.869795 1_555
Ba2 O1 2.887824 1_655
Ba2 O3 2.922225 1_545
Ba2 O1 2.958293 1_555
Ba2 O3 3.010963 1_555
Ba2 O4 3.048797 1_555
Ba2 O6 3.142739 1_555
Ba2 O7 3.270889 1_555
Li0 O0 1.858440 1_656
Li0 O5 1.858759 1_556
Li0 O6 1.885840 1_555
O0 Ti1 1.804307 1_555
O1 Ti1 1.958501 1_555
O1 Ti0 2.123544 1_445
O2 Ti2 1.849632 1_554
O2 Ti1 2.109978 1_545
O3 Ti0 1.903382 1_555
O3 Ti1 2.270302 1_555
O4 Ti2 1.824624 1_555
O4 Ti0 2.082581 1_445
O5 Ti1 1.838776 1_555
O6 Ti2 1.845961 1_555
O6 Ti0 2.200620 1_555
O7 Ti2 1.836951 1_555
O7 Ti0 2.146851 1_545
