# generated using pymatgen
data_Mn4Zn3H10(CO8)2
_symmetry_space_group_name_H-M   'P 1'
_cell_length_a   8.19520198
_cell_length_b   8.19520198
_cell_length_c   16.69499007
_cell_angle_alpha   84.30965160
_cell_angle_beta   84.30965160
_cell_angle_gamma   40.40145290
_symmetry_Int_Tables_number   1
_chemical_formula_structural   Mn4Zn3H10(CO8)2
_chemical_formula_sum   'Mn8 Zn6 H20 C4 O32'
_cell_volume   722.66386006
_cell_formula_units_Z   2
loop_
 _symmetry_equiv_pos_site_id
 _symmetry_equiv_pos_as_xyz
  1  'x, y, z'
loop_
 _atom_site_type_symbol
 _atom_site_label
 _atom_site_symmetry_multiplicity
 _atom_site_fract_x
 _atom_site_fract_y
 _atom_site_fract_z
 _atom_site_occupancy
  Mn  Mn0  1  0.47084900  0.96316700  0.91014300  1
  Mn  Mn1  1  0.52915100  0.03683300  0.08985700  1
  Mn  Mn2  1  0.03683300  0.52915100  0.58985700  1
  Mn  Mn3  1  0.96316700  0.47084900  0.41014300  1
  Mn  Mn4  1  0.56454800  0.04178600  0.68451300  1
  Mn  Mn5  1  0.43545200  0.95821400  0.31548700  1
  Mn  Mn6  1  0.95821400  0.43545200  0.81548700  1
  Mn  Mn7  1  0.04178600  0.56454800  0.18451300  1
  Zn  Zn0  1  0.38360400  0.89021000  0.53850400  1
  Zn  Zn1  1  0.61639600  0.10979000  0.46149600  1
  Zn  Zn2  1  0.10979000  0.61639600  0.96149600  1
  Zn  Zn3  1  0.89021000  0.38360400  0.03850400  1
  Zn  Zn4  1  0.77817400  0.22182600  0.75000000  1
  Zn  Zn5  1  0.22182600  0.77817400  0.25000000  1
  H  H0  1  0.20892600  0.97462600  0.78442000  1
  H  H1  1  0.79107400  0.02537400  0.21558000  1
  H  H2  1  0.02537400  0.79107400  0.71558000  1
  H  H3  1  0.97462600  0.20892600  0.28442000  1
  H  H4  1  0.20442900  0.11607600  0.66577200  1
  H  H5  1  0.79557100  0.88392400  0.33422800  1
  H  H6  1  0.88392400  0.79557100  0.83422800  1
  H  H7  1  0.11607600  0.20442900  0.16577200  1
  H  H8  1  0.90275100  0.93771600  0.56946700  1
  H  H9  1  0.09724900  0.06228400  0.43053300  1
  H  H10  1  0.06228400  0.09724900  0.93053300  1
  H  H11  1  0.93771600  0.90275100  0.06946700  1
  H  H12  1  0.53582900  0.21608100  0.94231400  1
  H  H13  1  0.46417100  0.78391900  0.05768600  1
  H  H14  1  0.78391900  0.46417100  0.55768600  1
  H  H15  1  0.21608100  0.53582900  0.44231400  1
  H  H16  1  0.37865300  0.29439300  0.81385200  1
  H  H17  1  0.62134700  0.70560700  0.18614800  1
  H  H18  1  0.70560700  0.62134700  0.68614800  1
  H  H19  1  0.29439300  0.37865300  0.31385200  1
  C  C0  1  0.39535200  0.55859400  0.62689400  1
  C  C1  1  0.60464800  0.44140600  0.37310600  1
  C  C2  1  0.44140600  0.60464800  0.87310600  1
  C  C3  1  0.55859400  0.39535200  0.12689400  1
  O  O0  1  0.28541800  0.12199500  0.61805800  1
  O  O1  1  0.71458200  0.87800500  0.38194200  1
  O  O2  1  0.87800500  0.71458200  0.88194200  1
  O  O3  1  0.12199500  0.28541800  0.11805800  1
  O  O4  1  0.78383400  0.93762500  0.56588200  1
  O  O5  1  0.21616600  0.06237500  0.43411800  1
  O  O6  1  0.06237500  0.21616600  0.93411800  1
  O  O7  1  0.93762500  0.78383400  0.06588200  1
  O  O8  1  0.53690300  0.40095900  0.84562800  1
  O  O9  1  0.46309700  0.59904100  0.15437200  1
  O  O10  1  0.59904100  0.46309700  0.65437200  1
  O  O11  1  0.40095900  0.53690300  0.34562800  1
  O  O12  1  0.26125600  0.75272500  0.57733000  1
  O  O13  1  0.73874400  0.24727500  0.42267000  1
  O  O14  1  0.24727500  0.73874400  0.92267000  1
  O  O15  1  0.75272500  0.26125600  0.07733000  1
  O  O16  1  0.35677800  0.19881900  0.80011600  1
  O  O17  1  0.64322300  0.80118100  0.19988400  1
  O  O18  1  0.80118100  0.64322300  0.69988400  1
  O  O19  1  0.19881900  0.35677700  0.30011600  1
  O  O20  1  0.53542600  0.67753400  0.85001100  1
  O  O21  1  0.46457400  0.32246600  0.14998900  1
  O  O22  1  0.32246600  0.46457400  0.64998900  1
  O  O23  1  0.67753400  0.53542600  0.35001100  1
  O  O24  1  0.58869100  0.76081400  0.02719200  1
  O  O25  1  0.41130900  0.23918600  0.97280800  1
  O  O26  1  0.23918600  0.41130900  0.47280800  1
  O  O27  1  0.76081400  0.58869100  0.52719200  1
  O  O28  1  0.86579000  0.92649200  0.74506700  1
  O  O29  1  0.13421000  0.07350800  0.25493300  1
  O  O30  1  0.07350800  0.13421000  0.75493300  1
  O  O31  1  0.92649200  0.86579000  0.24506700  1
loop_
_geom_bond_atom_site_label_1
_geom_bond_atom_site_label_2
_geom_bond_distance
_geom_bond_site_symmetry_2
Mn0 O24 2.189468 1_556
Mn0 O16 2.205699 1_565
Mn0 O6 2.234488 1_565
Mn0 O2 2.243044 1_555
Mn0 O25 2.266364 1_565
Mn0 O20 2.289371 1_555
Mn1 O25 2.189468 1_554
Mn1 O17 2.205698 1_545
Mn1 O7 2.234488 1_545
Mn1 O3 2.243044 1_555
Mn1 O24 2.266364 1_545
Mn1 O21 2.289371 1_555
Mn2 O26 2.189468 1_555
Mn2 O18 2.205698 1_455
Mn2 O4 2.234488 1_455
Mn2 O0 2.243044 1_555
Mn2 O27 2.266364 1_455
Mn2 O22 2.289371 1_555
Mn3 O27 2.189468 1_555
Mn3 O19 2.205698 1_655
Mn3 O5 2.234488 1_655
Mn3 O1 2.243044 1_555
Mn3 O26 2.266364 1_655
Mn3 O23 2.289371 1_555
Mn4 O28 2.182266 1_545
Mn4 O18 2.186439 1_545
Mn4 O16 2.187179 1_555
Mn4 O0 2.228071 1_555
Mn4 O4 2.274601 1_545
Mn4 O22 2.373738 1_555
Mn5 O29 2.182266 1_565
Mn5 O19 2.186439 1_565
Mn5 O17 2.187181 1_555
Mn5 O1 2.228071 1_555
Mn5 O5 2.274601 1_565
Mn5 O23 2.373738 1_555
Mn6 O30 2.182266 1_655
Mn6 O16 2.186446 1_655
Mn6 O18 2.187181 1_555
Mn6 O2 2.228071 1_555
Mn6 O6 2.274601 1_655
Mn6 O20 2.373738 1_555
Mn7 O31 2.182266 1_455
Mn7 O17 2.186439 1_455
Mn7 O19 2.187181 1_555
Mn7 O3 2.228071 1_555
Mn7 O7 2.274601 1_455
Mn7 O21 2.373738 1_555
H0 O30 0.976977 1_565
H1 O31 0.976977 1_545
H2 O28 0.976977 1_455
H3 O29 0.976977 1_655
H4 O0 1.006952 1_555
H5 O1 1.006952 1_555
H6 O2 1.006952 1_555
H7 O3 1.006952 1_555
H8 O4 0.982858 1_555
H9 O5 0.982858 1_555
H10 O6 0.982858 1_555
H11 O7 0.982858 1_555
H12 O25 0.978871 1_555
H13 O24 0.978871 1_555
H14 O27 0.978871 1_555
H15 O26 0.978871 1_555
H16 O16 0.977666 1_555
H17 O17 0.977673 1_555
H18 O18 0.977673 1_555
H19 O19 0.977673 1_555
C0 O12 1.296120 1_555
C0 O22 1.302122 1_555
C0 O10 1.303979 1_555
C1 O13 1.296120 1_555
C1 O23 1.302122 1_555
C1 O11 1.303979 1_555
C2 O14 1.296120 1_555
C2 O20 1.302122 1_555
C2 O8 1.303979 1_555
C3 O15 1.296120 1_555
C3 O21 1.302122 1_555
C3 O9 1.303979 1_555
O0 Zn0 1.995021 1_545
O1 Zn1 1.995021 1_565
O2 Zn2 1.995021 1_655
O3 Zn3 1.995021 1_455
O4 Zn1 1.987111 1_565
O5 Zn0 1.987111 1_545
O6 Zn3 1.987111 1_456
O7 Zn2 1.987111 1_654
O8 Zn4 2.007833 1_555
O9 Zn5 2.007833 1_555
O10 Zn4 2.007833 1_555
O11 Zn5 2.007833 1_555
O12 Zn0 2.035165 1_555
O13 Zn1 2.035165 1_555
O14 Zn2 2.035165 1_555
O15 Zn3 2.035165 1_555
O24 Zn3 2.010104 1_555
O25 Zn2 2.010104 1_555
O26 Zn1 2.010104 1_555
O27 Zn0 2.010104 1_555
O28 Zn4 1.939398 1_565
O29 Zn5 1.939398 1_545
O30 Zn4 1.939398 1_455
O31 Zn5 1.939398 1_655
