# generated using pymatgen
data_SrMg14Sb
_symmetry_space_group_name_H-M   'P 1'
_cell_length_a   6.55649401
_cell_length_b   6.55649346
_cell_length_c   10.60797819
_cell_angle_alpha   90.00000000
_cell_angle_beta   90.00000000
_cell_angle_gamma   120.00000284
_symmetry_Int_Tables_number   1
_chemical_formula_structural   SrMg14Sb
_chemical_formula_sum   'Sr1 Mg14 Sb1'
_cell_volume   394.91764475
_cell_formula_units_Z   1
loop_
 _symmetry_equiv_pos_site_id
 _symmetry_equiv_pos_as_xyz
  1  'x, y, z'
loop_
 _atom_site_type_symbol
 _atom_site_label
 _atom_site_symmetry_multiplicity
 _atom_site_fract_x
 _atom_site_fract_y
 _atom_site_fract_z
 _atom_site_occupancy
  Sr  Sr0  1  0.16666700  0.33333300  0.12500000  1
  Mg  Mg0  1  0.17380856  0.83690378  0.12500000  1
  Mg  Mg1  1  0.16198567  0.83099233  0.62500000  1
  Mg  Mg2  1  0.66309622  0.32619144  0.12500000  1
  Mg  Mg3  1  0.66900767  0.33801433  0.62500000  1
  Mg  Mg4  1  0.66309622  0.83690378  0.12500000  1
  Mg  Mg5  1  0.66900767  0.83099233  0.62500000  1
  Mg  Mg6  1  0.33683569  0.16316431  0.38187922  1
  Mg  Mg7  1  0.33683569  0.16316431  0.86812078  1
  Mg  Mg8  1  0.33683569  0.67367237  0.38187922  1
  Mg  Mg9  1  0.33683569  0.67367237  0.86812078  1
  Mg  Mg10  1  0.82632763  0.16316431  0.38187922  1
  Mg  Mg11  1  0.82632763  0.16316431  0.86812078  1
  Mg  Mg12  1  0.83333300  0.66666700  0.36993554  1
  Mg  Mg13  1  0.83333300  0.66666700  0.88006446  1
  Sb  Sb0  1  0.16666700  0.33333300  0.62500000  1
loop_
_geom_bond_atom_site_label_1
_geom_bond_atom_site_label_2
_geom_bond_distance
_geom_bond_site_symmetry_2
Mg0 Mg2 3.208011 1_565
Mg0 Mg4 3.208012 1_555
Mg0 Mg12 3.238591 1_455
Mg0 Mg13 3.238591 1_454
Mg0 Sr0 3.278498 1_555
Mg0 Sr0 3.278498 1_565
Mg0 Mg9 3.295043 1_554
Mg0 Mg8 3.295043 1_555
Mg0 Mg7 3.295049 1_564
Mg0 Mg6 3.295049 1_565
Mg0 Mg2 3.348482 1_455
Mg0 Mg4 3.348482 1_455
Mg1 Mg8 3.195620 1_555
Mg1 Mg9 3.195620 1_555
Mg1 Mg6 3.195626 1_565
Mg1 Mg7 3.195626 1_565
Mg1 Mg3 3.232207 1_455
Mg1 Mg5 3.232207 1_455
Mg1 Sb0 3.278354 1_555
Mg1 Sb0 3.278355 1_565
Mg1 Mg12 3.286839 1_455
Mg1 Mg13 3.286839 1_455
Mg1 Mg3 3.324286 1_565
Mg1 Mg5 3.324287 1_555
Mg2 Mg4 3.208011 1_545
Mg2 Sr0 3.278498 1_655
Mg2 Sr0 3.278498 1_555
Mg2 Mg6 3.295049 1_555
Mg2 Mg7 3.295049 1_554
Mg2 Mg4 3.348482 1_555
Mg3 Mg6 3.195626 1_555
Mg3 Mg7 3.195626 1_555
Mg3 Mg5 3.232207 1_555
Mg3 Sb0 3.278355 1_655
Mg3 Sb0 3.278355 1_555
Mg3 Mg5 3.324286 1_545
Mg4 Sr0 3.278498 1_555
Mg4 Sr0 3.278498 1_665
Mg4 Mg9 3.295049 1_554
Mg4 Mg8 3.295049 1_555
Mg5 Mg8 3.195627 1_555
Mg5 Mg9 3.195627 1_555
Mg5 Sb0 3.278354 1_665
Mg5 Sb0 3.278354 1_555
Mg6 Mg8 3.209351 1_545
Mg6 Sb0 3.222696 1_555
Mg6 Sr0 3.340641 1_555
Mg6 Mg8 3.347143 1_555
Mg7 Mg9 3.209351 1_545
Mg7 Sb0 3.222696 1_555
Mg7 Sr0 3.340641 1_556
Mg7 Mg9 3.347143 1_555
Mg8 Sb0 3.222703 1_555
Mg8 Sr0 3.340648 1_555
Mg9 Sb0 3.222703 1_555
Mg9 Sr0 3.340648 1_556
Mg10 Mg3 3.195620 1_555
Mg10 Mg5 3.195627 1_545
Mg10 Mg8 3.209351 1_545
Mg10 Mg6 3.209351 1_555
Mg10 Sb0 3.222703 1_655
Mg10 Mg12 3.280935 1_545
Mg10 Mg12 3.280935 1_555
Mg10 Mg2 3.295043 1_555
Mg10 Mg4 3.295049 1_545
Mg10 Sr0 3.340648 1_655
Mg10 Mg8 3.347143 1_655
Mg10 Mg6 3.347143 1_655
Mg11 Mg3 3.195620 1_555
Mg11 Mg5 3.195627 1_545
Mg11 Mg9 3.209351 1_545
Mg11 Mg7 3.209351 1_555
Mg11 Sb0 3.222703 1_655
Mg11 Mg13 3.280935 1_545
Mg11 Mg13 3.280935 1_555
Mg11 Mg2 3.295043 1_556
Mg11 Mg4 3.295049 1_546
Mg11 Sr0 3.340648 1_656
Mg11 Mg9 3.347143 1_655
Mg11 Mg7 3.347143 1_655
Mg12 Mg4 3.238584 1_555
Mg12 Mg2 3.238591 1_555
Mg12 Mg6 3.280935 1_555
Mg12 Mg6 3.280935 1_665
Mg12 Mg8 3.280936 1_555
Mg12 Mg8 3.280936 1_655
Mg12 Mg5 3.286833 1_555
Mg12 Mg3 3.286839 1_555
Mg13 Mg4 3.238584 1_556
Mg13 Mg2 3.238591 1_556
Mg13 Mg7 3.280935 1_555
Mg13 Mg7 3.280935 1_665
Mg13 Mg9 3.280936 1_555
Mg13 Mg9 3.280936 1_655
Mg13 Mg5 3.286833 1_555
Mg13 Mg3 3.286839 1_555
