# generated using pymatgen
data_MgCo5SbO8
_symmetry_space_group_name_H-M   'P 1'
_cell_length_a   6.20922728
_cell_length_b   6.45912588
_cell_length_c   6.30446201
_cell_angle_alpha   60.79537948
_cell_angle_beta   59.49158893
_cell_angle_gamma   60.26452747
_symmetry_Int_Tables_number   1
_chemical_formula_structural   MgCo5SbO8
_chemical_formula_sum   'Mg1 Co5 Sb1 O8'
_cell_volume   179.48812824
_cell_formula_units_Z   1
loop_
 _symmetry_equiv_pos_site_id
 _symmetry_equiv_pos_as_xyz
  1  'x, y, z'
loop_
 _atom_site_type_symbol
 _atom_site_label
 _atom_site_symmetry_multiplicity
 _atom_site_fract_x
 _atom_site_fract_y
 _atom_site_fract_z
 _atom_site_occupancy
  Mg  Mg0  1  0.07923200  0.04462200  0.68795700  1
  Co  Co0  1  0.17137700  0.12680600  0.10087000  1
  Co  Co1  1  0.48703500  0.52074300  0.50858800  1
  Co  Co2  1  0.48703600  0.52069600  0.98366900  1
  Co  Co3  1  0.57769000  0.06889400  0.42677000  1
  Co  Co4  1  0.86440600  0.64450800  0.99558100  1
  Sb  Sb0  1  0.99436200  0.55392800  0.47587700  1
  O  O0  1  0.25305100  0.23492000  0.29384800  1
  O  O1  1  0.27006500  0.74832100  0.24084400  1
  O  O2  1  0.25304400  0.23482600  0.71816100  1
  O  O3  1  0.75506300  0.33186400  0.20652200  1
  O  O4  1  0.21901200  0.68145200  0.79977700  1
  O  O5  1  0.74209400  0.32772100  0.71505800  1
  O  O6  1  0.73055000  0.77722500  0.28097100  1
  O  O7  1  0.73056600  0.77722500  0.71134100  1
loop_
_geom_bond_atom_site_label_1
_geom_bond_atom_site_label_2
_geom_bond_distance
_geom_bond_site_symmetry_2
Mg0 O4 1.934088 1_545
Mg0 O5 1.974731 1_455
Mg0 O0 2.112365 1_555
Mg0 O2 2.112484 1_555
Co0 O2 2.007824 1_554
Co0 O0 2.007945 1_555
Co0 O1 2.021988 1_545
Co0 O3 2.143932 1_455
Co1 O4 2.064270 1_555
Co1 O5 2.075486 1_555
Co1 O1 2.179020 1_555
Co1 O3 2.218085 1_555
Co1 O6 2.247642 1_555
Co1 O2 2.366153 1_555
Co2 O4 2.064439 1_555
Co2 O5 2.075604 1_555
Co2 O1 2.179219 1_556
Co2 O3 2.217986 1_556
Co2 O7 2.247915 1_555
Co2 O0 2.365429 1_556
Co3 O3 2.006874 1_555
Co3 O6 2.079716 1_545
Co3 O7 2.079842 1_545
Co3 O2 2.145982 1_555
Co3 O0 2.146931 1_555
Co4 O4 1.975574 1_655
Co4 O6 1.985672 1_556
Co4 O7 1.985688 1_555
Co4 O3 2.032271 1_556
O0 Sb0 2.301195 1_455
O1 Sb0 2.108064 1_455
O2 Sb0 2.301298 1_455
O5 Sb0 2.141098 1_555
O6 Sb0 2.060077 1_555
O7 Sb0 2.060071 1_555
