# generated using pymatgen
data_InAgTe2
_symmetry_space_group_name_H-M   'P 1'
_cell_length_a   4.30330200
_cell_length_b   4.30330200
_cell_length_c   6.00412300
_cell_angle_alpha   90.00000000
_cell_angle_beta   90.00000000
_cell_angle_gamma   90.00000000
_symmetry_Int_Tables_number   1
_chemical_formula_structural   InAgTe2
_chemical_formula_sum   'In1 Ag1 Te2'
_cell_volume   111.18680002
_cell_formula_units_Z   1
loop_
 _symmetry_equiv_pos_site_id
 _symmetry_equiv_pos_as_xyz
  1  'x, y, z'
loop_
 _atom_site_type_symbol
 _atom_site_label
 _atom_site_symmetry_multiplicity
 _atom_site_fract_x
 _atom_site_fract_y
 _atom_site_fract_z
 _atom_site_occupancy
  In  In0  1  0.50000000  0.50000000  0.50000000  1
  Ag  Ag0  1  0.00000000  0.00000000  0.00000000  1
  Te  Te0  1  0.00000000  0.00000000  0.50000000  1
  Te  Te1  1  0.50000000  0.50000000  0.00000000  1
loop_
_geom_bond_atom_site_label_1
_geom_bond_atom_site_label_2
_geom_bond_distance
_geom_bond_site_symmetry_2
In0 Te1 3.002061 1_556
In0 Te1 3.002061 1_555
In0 Te0 3.042894 1_565
In0 Te0 3.042894 1_655
In0 Te0 3.042894 1_665
In0 Te0 3.042894 1_555
Ag0 Te0 3.002061 1_554
Ag0 Te0 3.002061 1_555
Ag0 Te1 3.042894 1_545
Ag0 Te1 3.042894 1_455
Ag0 Te1 3.042894 1_555
Ag0 Te1 3.042894 1_445
