# generated using pymatgen
data_Rb2Cr(BrCl)2
_symmetry_space_group_name_H-M   'P 1'
_cell_length_a   9.28920081
_cell_length_b   9.28920081
_cell_length_c   7.24652400
_cell_angle_alpha   90.00000000
_cell_angle_beta   90.00000000
_cell_angle_gamma   133.99802888
_symmetry_Int_Tables_number   1
_chemical_formula_structural   Rb2Cr(BrCl)2
_chemical_formula_sum   'Rb4 Cr2 Br4 Cl4'
_cell_volume   449.81605852
_cell_formula_units_Z   2
loop_
 _symmetry_equiv_pos_site_id
 _symmetry_equiv_pos_as_xyz
  1  'x, y, z'
loop_
 _atom_site_type_symbol
 _atom_site_label
 _atom_site_symmetry_multiplicity
 _atom_site_fract_x
 _atom_site_fract_y
 _atom_site_fract_z
 _atom_site_occupancy
  Rb  Rb0  1  0.13521100  0.86478900  0.50000000  1
  Rb  Rb1  1  0.63521100  0.36478900  0.00000000  1
  Rb  Rb2  1  0.86478900  0.13521100  0.50000000  1
  Rb  Rb3  1  0.36478900  0.63521100  0.00000000  1
  Cr  Cr0  1  0.50000000  0.50000000  0.50000000  1
  Cr  Cr1  1  0.00000000  0.00000000  0.00000000  1
  Br  Br0  1  0.34688800  0.65311200  0.50000000  1
  Br  Br1  1  0.84688800  0.15311200  0.00000000  1
  Br  Br2  1  0.65311200  0.34688800  0.50000000  1
  Br  Br3  1  0.15311200  0.84688800  0.00000000  1
  Cl  Cl0  1  0.26052500  0.26052500  0.25966500  1
  Cl  Cl1  1  0.73947500  0.73947500  0.74033500  1
  Cl  Cl2  1  0.23947500  0.23947500  0.75966500  1
  Cl  Cl3  1  0.76052500  0.76052500  0.24033500  1
loop_
_geom_bond_atom_site_label_1
_geom_bond_atom_site_label_2
_geom_bond_distance
_geom_bond_site_symmetry_2
Br0 Cr0 2.618427 1_555
Br0 Rb0 3.619970 1_555
Br0 Rb3 3.636172 1_556
Br0 Rb3 3.636172 1_555
Br0 Rb2 3.642614 1_565
Br0 Rb2 3.642614 1_455
Br1 Cr1 2.618427 1_655
Br1 Rb1 3.619970 1_555
Br1 Rb2 3.636172 1_555
Br1 Rb2 3.636172 1_554
Br1 Rb3 3.642614 1_655
Br1 Rb3 3.642614 1_545
Br2 Cr0 2.618427 1_555
Br2 Rb2 3.619970 1_555
Br2 Rb1 3.636172 1_555
Br2 Rb1 3.636172 1_556
Br2 Rb0 3.642614 1_655
Br2 Rb0 3.642614 1_545
Br3 Cr1 2.618427 1_565
Br3 Rb3 3.619970 1_555
Br3 Rb0 3.636172 1_554
Br3 Rb0 3.636172 1_555
Br3 Rb1 3.642614 1_455
Br3 Rb1 3.642614 1_565
Cl0 Cr0 2.460769 1_555
Cl0 Cr1 2.667879 1_555
Cl0 Rb1 3.451032 1_555
Cl0 Rb3 3.451032 1_555
Cl0 Rb0 3.457854 1_545
Cl0 Rb2 3.457854 1_455
Cl1 Cr0 2.460769 1_555
Cl1 Cr1 2.667879 1_666
Cl1 Rb3 3.451032 1_556
Cl1 Rb1 3.451032 1_556
Cl1 Rb2 3.457854 1_565
Cl1 Rb0 3.457854 1_655
Cl2 Cr1 2.460769 1_556
Cl2 Cr0 2.667879 1_555
Cl2 Rb0 3.451032 1_545
Cl2 Rb2 3.451032 1_455
Cl2 Rb1 3.457854 1_556
Cl2 Rb3 3.457854 1_556
Cl3 Cr1 2.460769 1_665
Cl3 Cr0 2.667879 1_555
Cl3 Rb2 3.451032 1_565
Cl3 Rb0 3.451032 1_655
Cl3 Rb1 3.457854 1_555
Cl3 Rb3 3.457854 1_555
