# generated using pymatgen
data_UCuNiGe2
_symmetry_space_group_name_H-M   'P 1'
_cell_length_a   5.77270119
_cell_length_b   5.77270119
_cell_length_c   5.77270119
_cell_angle_alpha   138.95516499
_cell_angle_beta   138.95516499
_cell_angle_gamma   59.44322296
_symmetry_Int_Tables_number   1
_chemical_formula_structural   UCuNiGe2
_chemical_formula_sum   'U1 Cu1 Ni1 Ge2'
_cell_volume   82.12933949
_cell_formula_units_Z   1
loop_
 _symmetry_equiv_pos_site_id
 _symmetry_equiv_pos_as_xyz
  1  'x, y, z'
loop_
 _atom_site_type_symbol
 _atom_site_label
 _atom_site_symmetry_multiplicity
 _atom_site_fract_x
 _atom_site_fract_y
 _atom_site_fract_z
 _atom_site_occupancy
  U  U0  1  0.00000000  0.00000000  0.00000000  1
  Cu  Cu0  1  0.25000000  0.75000000  0.50000000  1
  Ni  Ni0  1  0.75000000  0.25000000  0.50000000  1
  Ge  Ge0  1  0.62274000  0.62274000  0.00000000  1
  Ge  Ge1  1  0.37726000  0.37726000  0.00000000  1
loop_
_geom_bond_atom_site_label_1
_geom_bond_atom_site_label_2
_geom_bond_distance
_geom_bond_site_symmetry_2
Cu0 Ge0 2.392429 1_455
Cu0 Ge0 2.392429 1_556
Cu0 Ge1 2.392429 1_555
Cu0 Ge1 2.392429 1_566
Cu0 U0 3.221617 1_566
Cu0 U0 3.221617 1_666
Cu0 U0 3.221617 1_565
Cu0 U0 3.221617 1_555
Ni0 U0 3.221617 1_666
Ni0 U0 3.221617 1_655
Ni0 U0 3.221617 1_555
Ni0 U0 3.221617 1_656
Ge0 Ni0 2.392429 1_554
Ge0 Ni0 2.392429 1_565
Ge0 Ge1 2.461316 1_555
Ge0 U0 3.115399 1_666
Ge0 U0 3.115399 1_655
Ge0 U0 3.115399 1_565
Ge0 U0 3.115399 1_554
Ge1 Ni0 2.392429 1_555
Ge1 Ni0 2.392429 1_454
Ge1 U0 3.115399 1_655
Ge1 U0 3.115399 1_565
Ge1 U0 3.115399 1_554
Ge1 U0 3.115399 1_666
