# generated using pymatgen
data_BaNbI5O16
_symmetry_space_group_name_H-M   'P 1'
_cell_length_a   8.11997864
_cell_length_b   8.11997864
_cell_length_c   15.27453817
_cell_angle_alpha   69.52522732
_cell_angle_beta   69.52522732
_cell_angle_gamma   56.10378671
_symmetry_Int_Tables_number   1
_chemical_formula_structural   BaNbI5O16
_chemical_formula_sum   'Ba2 Nb2 I10 O32'
_cell_volume   767.48468950
_cell_formula_units_Z   2
loop_
 _symmetry_equiv_pos_site_id
 _symmetry_equiv_pos_as_xyz
  1  'x, y, z'
loop_
 _atom_site_type_symbol
 _atom_site_label
 _atom_site_symmetry_multiplicity
 _atom_site_fract_x
 _atom_site_fract_y
 _atom_site_fract_z
 _atom_site_occupancy
  Ba  Ba0  1  0.97938700  0.26552300  0.50471900  1
  Ba  Ba1  1  0.26552300  0.97938700  0.00471900  1
  Nb  Nb0  1  0.40879800  0.46518900  0.91121900  1
  Nb  Nb1  1  0.46518900  0.40879800  0.41121900  1
  I  I0  1  0.41532300  0.76360100  0.67062900  1
  I  I1  1  0.76360100  0.41532300  0.17062900  1
  I  I2  1  0.02589300  0.71274900  0.57629700  1
  I  I3  1  0.71274900  0.02589300  0.07629700  1
  I  I4  1  0.91432000  0.23043600  0.78223800  1
  I  I5  1  0.23043600  0.91432000  0.28223800  1
  I  I6  1  0.12775700  0.53262800  0.23096500  1
  I  I7  1  0.53262800  0.12775700  0.73096500  1
  I  I8  1  0.90085900  0.65380500  0.88953800  1
  I  I9  1  0.65380500  0.90085900  0.38953800  1
  O  O0  1  0.17943300  0.59438700  0.66587600  1
  O  O1  1  0.59438700  0.17943300  0.16587600  1
  O  O2  1  0.79818300  0.02635000  0.66964000  1
  O  O3  1  0.02635000  0.79818300  0.16964000  1
  O  O4  1  0.31098700  0.53175600  0.27798700  1
  O  O5  1  0.53175600  0.31098700  0.77798700  1
  O  O6  1  0.19104600  0.00869700  0.64968400  1
  O  O7  1  0.00869700  0.19104600  0.14968400  1
  O  O8  1  0.88852300  0.11160900  0.00044800  1
  O  O9  1  0.11160900  0.88852300  0.50044800  1
  O  O10  1  0.15425800  0.44592400  0.92767700  1
  O  O11  1  0.44592400  0.15425800  0.42767700  1
  O  O12  1  0.88417700  0.40856200  0.66814000  1
  O  O13  1  0.40856200  0.88417700  0.16814000  1
  O  O14  1  0.31347800  0.71731900  0.80323000  1
  O  O15  1  0.71731900  0.31347800  0.30323000  1
  O  O16  1  0.69306000  0.42361100  0.85685500  1
  O  O17  1  0.42361100  0.69306000  0.35685500  1
  O  O18  1  0.33622200  0.61028600  0.99498600  1
  O  O19  1  0.61028600  0.33622200  0.49498600  1
  O  O20  1  0.55638700  0.93606000  0.84167800  1
  O  O21  1  0.93606000  0.55638700  0.34167800  1
  O  O22  1  0.18520400  0.50871300  0.49760300  1
  O  O23  1  0.50871300  0.18520400  0.99760300  1
  O  O24  1  0.10642000  0.23377300  0.81501900  1
  O  O25  1  0.23377300  0.10642000  0.31501900  1
  O  O26  1  0.73318300  0.60283900  0.99710800  1
  O  O27  1  0.60283900  0.73318300  0.49710800  1
  O  O28  1  0.89521600  0.86105100  0.91129800  1
  O  O29  1  0.86105100  0.89521600  0.41129800  1
  O  O30  1  0.57810200  0.85113900  0.67070500  1
  O  O31  1  0.85113900  0.57810200  0.17070500  1
loop_
_geom_bond_atom_site_label_1
_geom_bond_atom_site_label_2
_geom_bond_distance
_geom_bond_site_symmetry_2
Ba0 O9 2.636842 1_645
Ba0 O21 2.734082 1_555
Ba0 O6 2.764052 1_655
Ba0 O19 2.768964 1_555
Ba0 O12 2.802551 1_555
Ba0 O2 3.074740 1_555
Ba0 O25 3.128400 1_655
Ba0 O22 3.179302 1_655
Ba0 O11 3.218637 1_655
Ba0 O27 3.282040 1_555
Ba1 O8 2.636842 1_465
Ba1 O20 2.734082 1_554
Ba1 O7 2.764052 1_565
Ba1 O18 2.768964 1_554
Ba1 O13 2.802551 1_555
Ba1 O3 3.074740 1_555
Ba1 O24 3.128400 1_564
Ba1 O23 3.179302 1_564
Ba1 O10 3.218637 1_564
Ba1 O26 3.282040 1_554
Nb0 O18 1.767828 1_555
Nb0 O16 2.029126 1_555
Nb0 O23 2.039828 1_555
Nb0 O14 2.067487 1_555
Nb0 O10 2.080671 1_555
Nb0 O5 2.381787 1_555
Nb1 O19 1.767828 1_555
Nb1 O17 2.029126 1_555
Nb1 O22 2.039828 1_555
Nb1 O15 2.067487 1_555
Nb1 O11 2.080671 1_555
Nb1 O4 2.381787 1_555
I0 O6 1.816389 1_565
I0 O30 1.817105 1_555
I0 O14 1.889388 1_555
I0 O27 2.572841 1_555
I1 O7 1.816389 1_655
I1 O31 1.817105 1_555
I1 O15 1.889388 1_555
I1 O26 2.572841 1_554
I2 O9 1.803021 1_555
I2 O0 1.813061 1_555
I2 O22 1.943717 1_555
I3 O8 1.803021 1_555
I3 O1 1.813061 1_555
I3 O23 1.943717 1_554
I4 O24 1.813178 1_655
I4 O12 1.824644 1_555
I4 O16 1.913679 1_555
I4 O6 2.691710 1_655
I5 O25 1.813178 1_565
I5 O13 1.824644 1_555
I5 O17 1.913679 1_555
I5 O7 2.691710 1_565
I6 O3 1.830634 1_555
I6 O21 1.836216 1_455
I6 O4 1.860597 1_555
I6 O31 2.512406 1_455
I7 O2 1.830634 1_555
I7 O20 1.836216 1_545
I7 O5 1.860597 1_555
I7 O30 2.512406 1_545
I8 O28 1.799761 1_555
I8 O26 1.820014 1_555
I8 O10 1.923297 1_655
I8 O20 2.592113 1_555
I9 O29 1.799761 1_555
I9 O27 1.820014 1_555
I9 O11 1.923297 1_565
I9 O21 2.592113 1_555
