# generated using pymatgen
data_Na2(NbS2)3
_symmetry_space_group_name_H-M   'P 1'
_cell_length_a   14.77653243
_cell_length_b   14.77653243
_cell_length_c   14.77653171
_cell_angle_alpha   22.98375408
_cell_angle_beta   22.98375408
_cell_angle_gamma   22.98375558
_symmetry_Int_Tables_number   1
_chemical_formula_structural   Na2(NbS2)3
_chemical_formula_sum   'Na4 Nb6 S12'
_cell_volume   431.72382051
_cell_formula_units_Z   2
loop_
 _symmetry_equiv_pos_site_id
 _symmetry_equiv_pos_as_xyz
  1  'x, y, z'
loop_
 _atom_site_type_symbol
 _atom_site_label
 _atom_site_symmetry_multiplicity
 _atom_site_fract_x
 _atom_site_fract_y
 _atom_site_fract_z
 _atom_site_occupancy
  Na  Na0  1  0.91643781  0.91643781  0.91643781  1
  Na  Na1  1  0.58309275  0.58309275  0.58309275  1
  Na  Na2  1  0.41690725  0.41690725  0.41690725  1
  Na  Na3  1  0.08356219  0.08356219  0.08356219  1
  Nb  Nb0  1  0.33315302  0.33315302  0.33315302  1
  Nb  Nb1  1  0.66684698  0.66684698  0.66684698  1
  Nb  Nb2  1  -0.00000000  -0.00000000  -0.00000000  1
  Nb  Nb3  1  0.83346585  0.16653415  0.50000000  1
  Nb  Nb4  1  0.50000000  0.83346585  0.16653415  1
  Nb  Nb5  1  0.16653415  0.50000000  0.83346585  1
  S  S0  1  0.96444437  0.62997433  0.29764603  1
  S  S1  1  0.29764603  0.96444437  0.62997433  1
  S  S2  1  0.62997433  0.29764603  0.96444437  1
  S  S3  1  0.70235397  0.37002567  0.03555563  1
  S  S4  1  0.03555563  0.70235397  0.37002567  1
  S  S5  1  0.37002567  0.03555563  0.70235397  1
  S  S6  1  0.87007962  0.53516314  0.20252423  1
  S  S7  1  0.20252423  0.87007962  0.53516314  1
  S  S8  1  0.53516314  0.20252423  0.87007962  1
  S  S9  1  0.79747577  0.46483686  0.12992038  1
  S  S10  1  0.12992038  0.79747577  0.46483686  1
  S  S11  1  0.46483686  0.12992038  0.79747577  1
loop_
_geom_bond_atom_site_label_1
_geom_bond_atom_site_label_2
_geom_bond_distance
_geom_bond_site_symmetry_2
Na0 S7 2.828959 1_655
Na0 S8 2.828959 1_565
Na0 S6 2.828959 1_556
Na0 S0 2.842081 1_556
Na0 S2 2.842081 1_565
Na0 S1 2.842081 1_655
Na1 S6 2.828992 1_555
Na1 S7 2.828992 1_555
Na1 S8 2.828992 1_555
Na1 S2 2.840670 1_555
Na1 S1 2.840670 1_555
Na1 S0 2.840671 1_555
Na2 S11 2.828992 1_555
Na2 S10 2.828992 1_555
Na2 S9 2.828992 1_555
Na2 S3 2.840670 1_555
Na2 S4 2.840670 1_555
Na2 S5 2.840671 1_555
Na3 S10 2.828959 1_545
Na3 S9 2.828959 1_455
Na3 S11 2.828959 1_554
Na3 S5 2.842081 1_554
Na3 S3 2.842081 1_455
Na3 S4 2.842081 1_545
Nb0 S2 2.494742 1_554
Nb0 S0 2.494742 1_455
Nb0 S1 2.494742 1_545
Nb0 S5 2.507327 1_555
Nb0 S4 2.507328 1_555
Nb0 S3 2.507328 1_555
Nb1 S3 2.494742 1_556
Nb1 S5 2.494742 1_565
Nb1 S4 2.494742 1_655
Nb1 S0 2.507327 1_555
Nb1 S1 2.507328 1_555
Nb1 S2 2.507328 1_555
Nb2 S1 2.504511 1_544
Nb2 S4 2.504511 1_545
Nb2 S2 2.504511 1_454
Nb2 S3 2.504511 1_455
Nb2 S0 2.504511 1_445
Nb2 S5 2.504511 1_554
Nb3 S7 2.498027 1_645
Nb3 S10 2.498027 1_645
Nb3 S11 2.499393 1_555
Nb3 S6 2.499393 1_555
Nb3 S9 2.504654 1_555
Nb3 S8 2.504654 1_555
Nb4 S11 2.498026 1_564
Nb4 S8 2.498027 1_564
Nb4 S7 2.499392 1_555
Nb4 S9 2.499393 1_555
Nb4 S6 2.504654 1_555
Nb4 S10 2.504654 1_555
Nb5 S6 2.498026 1_456
Nb5 S9 2.498027 1_456
Nb5 S10 2.499392 1_555
Nb5 S8 2.499393 1_555
Nb5 S11 2.504654 1_555
Nb5 S7 2.504654 1_555
