# generated using pymatgen
data_TmCo5Si3
_symmetry_space_group_name_H-M   'P 1'
_cell_length_a   3.66407400
_cell_length_b   14.71363415
_cell_length_c   14.71363415
_cell_angle_alpha   120.00000068
_cell_angle_beta   90.00000000
_cell_angle_gamma   90.00000000
_symmetry_Int_Tables_number   1
_chemical_formula_structural   TmCo5Si3
_chemical_formula_sum   'Tm6 Co30 Si18'
_cell_volume   686.96525392
_cell_formula_units_Z   6
loop_
 _symmetry_equiv_pos_site_id
 _symmetry_equiv_pos_as_xyz
  1  'x, y, z'
loop_
 _atom_site_type_symbol
 _atom_site_label
 _atom_site_symmetry_multiplicity
 _atom_site_fract_x
 _atom_site_fract_y
 _atom_site_fract_z
 _atom_site_occupancy
  Tm  Tm0  1  0.75000000  0.70661200  0.10068800  1
  Tm  Tm1  1  0.25000000  0.29338800  0.89931200  1
  Tm  Tm2  1  0.75000000  0.39407500  0.29338800  1
  Tm  Tm3  1  0.25000000  0.60592500  0.70661200  1
  Tm  Tm4  1  0.75000000  0.89931200  0.60592500  1
  Tm  Tm5  1  0.25000000  0.10068800  0.39407500  1
  Co  Co0  1  0.75000000  0.58667200  0.85201700  1
  Co  Co1  1  0.25000000  0.41332800  0.14798300  1
  Co  Co2  1  0.75000000  0.26534500  0.41332800  1
  Co  Co3  1  0.25000000  0.73465500  0.58667200  1
  Co  Co4  1  0.75000000  0.14798300  0.73465500  1
  Co  Co5  1  0.25000000  0.85201700  0.26534500  1
  Co  Co6  1  0.75000000  0.45958500  0.53402000  1
  Co  Co7  1  0.25000000  0.54041500  0.46598000  1
  Co  Co8  1  0.75000000  0.07443500  0.54041500  1
  Co  Co9  1  0.25000000  0.92556500  0.45958500  1
  Co  Co10  1  0.75000000  0.46598000  0.92556500  1
  Co  Co11  1  0.25000000  0.53402000  0.07443500  1
  Co  Co12  1  0.75000000  0.89900300  0.02894100  1
  Co  Co13  1  0.25000000  0.10099700  0.97105900  1
  Co  Co14  1  0.75000000  0.12993800  0.10099700  1
  Co  Co15  1  0.25000000  0.87006200  0.89900300  1
  Co  Co16  1  0.75000000  0.97105900  0.87006200  1
  Co  Co17  1  0.25000000  0.02894100  0.12993800  1
  Co  Co18  1  0.75000000  0.77478200  0.34722400  1
  Co  Co19  1  0.25000000  0.22521800  0.65277600  1
  Co  Co20  1  0.75000000  0.57244200  0.22521800  1
  Co  Co21  1  0.25000000  0.42755800  0.77478200  1
  Co  Co22  1  0.75000000  0.65277600  0.42755800  1
  Co  Co23  1  0.25000000  0.34722400  0.57244200  1
  Co  Co24  1  0.75000000  0.95182000  0.21940200  1
  Co  Co25  1  0.25000000  0.04818000  0.78059800  1
  Co  Co26  1  0.75000000  0.26758200  0.04818000  1
  Co  Co27  1  0.25000000  0.73241800  0.95182000  1
  Co  Co28  1  0.75000000  0.78059800  0.73241800  1
  Co  Co29  1  0.25000000  0.21940200  0.26758200  1
  Si  Si0  1  0.75000000  0.44354700  0.68191700  1
  Si  Si1  1  0.25000000  0.55645300  0.31808300  1
  Si  Si2  1  0.75000000  0.23837000  0.55645300  1
  Si  Si3  1  0.25000000  0.76163000  0.44354700  1
  Si  Si4  1  0.75000000  0.31808300  0.76163000  1
  Si  Si5  1  0.25000000  0.68191700  0.23837000  1
  Si  Si6  1  0.75000000  0.75168600  0.86971400  1
  Si  Si7  1  0.25000000  0.24831400  0.13028600  1
  Si  Si8  1  0.75000000  0.11802700  0.24831400  1
  Si  Si9  1  0.25000000  0.88197300  0.75168600  1
  Si  Si10  1  0.75000000  0.13028600  0.88197300  1
  Si  Si11  1  0.25000000  0.86971400  0.11802700  1
  Si  Si12  1  0.75000000  0.93854500  0.36993500  1
  Si  Si13  1  0.25000000  0.06145500  0.63006500  1
  Si  Si14  1  0.75000000  0.43139000  0.06145500  1
  Si  Si15  1  0.25000000  0.56861000  0.93854500  1
  Si  Si16  1  0.75000000  0.63006500  0.56861000  1
  Si  Si17  1  0.25000000  0.36993500  0.43139000  1
loop_
_geom_bond_atom_site_label_1
_geom_bond_atom_site_label_2
_geom_bond_distance
_geom_bond_site_symmetry_2
Co0 Si6 2.308801 1_555
Co0 Si15 2.320824 1_655
Co0 Si15 2.320824 1_555
Co0 Si0 2.329834 1_555
Co0 Co10 2.499262 1_555
Co0 Co27 2.638631 1_555
Co0 Co27 2.638631 1_655
Co0 Co21 2.732809 1_555
Co0 Co21 2.732809 1_655
Co0 Tm3 2.935959 1_655
Co0 Tm3 2.935959 1_555
Co0 Tm0 3.169321 1_556
Co1 Si7 2.308801 1_555
Co1 Si14 2.320824 1_455
Co1 Si14 2.320824 1_555
Co1 Si1 2.329834 1_555
Co1 Co11 2.499262 1_555
Co1 Co26 2.638631 1_455
Co1 Co26 2.638631 1_555
Co1 Co20 2.732809 1_455
Co1 Co20 2.732809 1_555
Co1 Tm2 2.935959 1_555
Co1 Tm2 2.935959 1_455
Co1 Tm1 3.169321 1_554
Co2 Si8 2.308807 1_555
Co2 Si17 2.320824 1_655
Co2 Si17 2.320824 1_555
Co2 Si2 2.329834 1_555
Co2 Co6 2.499262 1_555
Co2 Co29 2.638631 1_655
Co2 Co29 2.638631 1_555
Co2 Co23 2.732809 1_555
Co2 Co23 2.732809 1_655
Co2 Tm5 2.935948 1_555
Co2 Tm5 2.935948 1_655
Co2 Tm2 3.169308 1_555
Co3 Si9 2.308807 1_555
Co3 Si16 2.320824 1_555
Co3 Si16 2.320824 1_455
Co3 Si3 2.329834 1_555
Co3 Co7 2.499262 1_555
Co3 Tm4 2.935948 1_555
Co3 Tm4 2.935948 1_455
Co3 Tm3 3.169308 1_555
Co4 Si10 2.308816 1_555
Co4 Si13 2.320824 1_655
Co4 Si13 2.320824 1_555
Co4 Si4 2.329834 1_555
Co4 Co8 2.499262 1_555
Co4 Tm1 2.935953 1_555
Co4 Tm1 2.935953 1_655
Co4 Tm4 3.169320 1_545
Co5 Si11 2.308816 1_555
Co5 Si12 2.320824 1_455
Co5 Si12 2.320824 1_555
Co5 Si5 2.329834 1_555
Co5 Co9 2.499262 1_555
Co5 Tm0 2.935953 1_455
Co5 Tm0 2.935953 1_555
Co5 Tm5 3.169320 1_565
Co6 Si16 2.296600 1_555
Co6 Si0 2.303176 1_555
Co6 Si17 2.320500 1_555
Co6 Si17 2.320500 1_655
Co6 Co7 2.638875 1_655
Co6 Co7 2.638875 1_555
Co6 Tm3 2.995579 1_555
Co6 Tm3 2.995579 1_655
Co6 Tm2 3.170490 1_555
Co7 Si17 2.296600 1_555
Co7 Si1 2.303176 1_555
Co7 Si16 2.320500 1_455
Co7 Si16 2.320500 1_555
Co7 Tm2 2.995579 1_455
Co7 Tm2 2.995579 1_555
Co7 Tm3 3.170490 1_555
Co8 Si12 2.296600 1_545
Co8 Si2 2.303175 1_555
Co8 Si13 2.320500 1_555
Co8 Si13 2.320500 1_655
Co8 Co9 2.638875 1_645
Co8 Co9 2.638875 1_545
Co8 Tm5 2.995587 1_655
Co8 Tm5 2.995587 1_555
Co8 Tm4 3.170504 1_545
Co9 Si13 2.296600 1_565
Co9 Si3 2.303175 1_555
Co9 Si12 2.320500 1_455
Co9 Si12 2.320500 1_555
Co9 Tm4 2.995587 1_455
Co9 Tm4 2.995587 1_555
Co9 Tm5 3.170504 1_565
Co10 Si14 2.296600 1_556
Co10 Si4 2.303175 1_555
Co10 Si15 2.320500 1_555
Co10 Si15 2.320500 1_655
Co10 Co11 2.638875 1_556
Co10 Co11 2.638875 1_656
Co10 Co21 2.709940 1_555
Co10 Co21 2.709940 1_655
Co10 Tm1 2.995575 1_555
Co10 Tm1 2.995575 1_655
Co10 Tm0 3.170494 1_556
Co11 Si15 2.296600 1_554
Co11 Si5 2.303175 1_555
Co11 Si14 2.320500 1_555
Co11 Si14 2.320500 1_455
Co11 Co20 2.709940 1_555
Co11 Co20 2.709940 1_455
Co11 Tm0 2.995575 1_455
Co11 Tm0 2.995575 1_555
Co11 Tm1 3.170494 1_554
Co12 Si6 2.260289 1_554
Co12 Si11 2.413523 1_655
Co12 Si11 2.413523 1_555
Co12 Co24 2.505877 1_555
Co12 Co17 2.525624 1_565
Co12 Co17 2.525624 1_665
Co12 Co15 2.525624 1_554
Co12 Co15 2.525624 1_654
Co12 Co27 2.805426 1_654
Co12 Co27 2.805426 1_554
Co13 Si7 2.260289 1_556
Co13 Si10 2.413523 1_455
Co13 Si10 2.413523 1_555
Co13 Co25 2.505877 1_555
Co13 Co16 2.525624 1_545
Co13 Co16 2.525624 1_445
Co13 Co14 2.525624 1_456
Co13 Co14 2.525624 1_556
Co13 Co26 2.805426 1_456
Co13 Co26 2.805426 1_556
Co14 Si8 2.260297 1_555
Co14 Si7 2.413532 1_555
Co14 Si7 2.413532 1_655
Co14 Co26 2.505877 1_555
Co14 Co17 2.525624 1_555
Co14 Co17 2.525624 1_655
Co14 Co29 2.805426 1_655
Co14 Co29 2.805426 1_555
Co15 Si9 2.260297 1_555
Co15 Si6 2.413532 1_455
Co15 Si6 2.413532 1_555
Co15 Co27 2.505877 1_555
Co15 Co16 2.525624 1_455
Co15 Co16 2.525624 1_555
Co15 Co28 2.805426 1_555
Co15 Co28 2.805426 1_455
Co16 Si10 2.260282 1_565
Co16 Si9 2.413530 1_655
Co16 Si9 2.413530 1_555
Co16 Co28 2.505877 1_555
Co16 Co25 2.805426 1_565
Co16 Co25 2.805426 1_665
Co17 Si11 2.260282 1_545
Co17 Si8 2.413530 1_455
Co17 Si8 2.413530 1_555
Co17 Co29 2.505877 1_555
Co17 Co24 2.805426 1_545
Co17 Co24 2.805426 1_445
Co18 Si12 2.261064 1_555
Co18 Si5 2.366464 1_555
Co18 Si5 2.366464 1_655
Co18 Si3 2.382582 1_655
Co18 Si3 2.382582 1_555
Co18 Co9 2.709940 1_655
Co18 Co9 2.709940 1_555
Co18 Co5 2.732809 1_555
Co18 Co5 2.732809 1_655
Co19 Si13 2.261064 1_555
Co19 Si4 2.366464 1_555
Co19 Si4 2.366464 1_455
Co19 Si2 2.382582 1_455
Co19 Si2 2.382582 1_555
Co19 Co8 2.709940 1_455
Co19 Co8 2.709940 1_555
Co19 Co4 2.732809 1_555
Co19 Co4 2.732809 1_455
Co20 Si14 2.261064 1_555
Co20 Si1 2.366464 1_555
Co20 Si1 2.366464 1_655
Co20 Si5 2.382582 1_655
Co20 Si5 2.382582 1_555
Co21 Si15 2.261064 1_555
Co21 Si0 2.366464 1_455
Co21 Si0 2.366464 1_555
Co21 Si4 2.382582 1_555
Co21 Si4 2.382582 1_455
Co22 Si16 2.261064 1_555
Co22 Si3 2.366464 1_555
Co22 Si3 2.366464 1_655
Co22 Si1 2.382582 1_555
Co22 Si1 2.382582 1_655
Co22 Co7 2.709940 1_655
Co22 Co7 2.709940 1_555
Co22 Co3 2.732809 1_655
Co22 Co3 2.732809 1_555
Co23 Si17 2.261064 1_555
Co23 Si2 2.366464 1_455
Co23 Si2 2.366464 1_555
Co23 Si0 2.382582 1_455
Co23 Si0 2.382582 1_555
Co23 Co6 2.709940 1_455
Co23 Co6 2.709940 1_555
Co24 Si8 2.262998 1_565
Co24 Si11 2.288821 1_655
Co24 Si11 2.288821 1_555
Co24 Si12 2.318728 1_555
Co24 Co5 2.638631 1_655
Co24 Co5 2.638631 1_555
Co24 Tm5 3.021586 1_565
Co24 Tm5 3.021586 1_665
Co24 Tm0 3.125058 1_555
Co25 Si9 2.262998 1_545
Co25 Si10 2.288821 1_455
Co25 Si10 2.288821 1_555
Co25 Si13 2.318728 1_555
Co25 Co4 2.638631 1_455
Co25 Co4 2.638631 1_555
Co25 Tm4 3.021586 1_445
Co25 Tm4 3.021586 1_545
Co25 Tm1 3.125058 1_555
Co26 Si10 2.263003 1_554
Co26 Si7 2.288816 1_655
Co26 Si7 2.288816 1_555
Co26 Si14 2.318728 1_555
Co26 Tm1 3.021594 1_654
Co26 Tm1 3.021594 1_554
Co26 Tm2 3.125058 1_555
Co27 Si11 2.263003 1_556
Co27 Si6 2.288816 1_455
Co27 Si6 2.288816 1_555
Co27 Si15 2.318728 1_555
Co27 Tm0 3.021594 1_456
Co27 Tm0 3.021594 1_556
Co27 Tm3 3.125058 1_555
Co28 Si6 2.263012 1_555
Co28 Si9 2.288824 1_655
Co28 Si9 2.288824 1_555
Co28 Si16 2.318728 1_555
Co28 Co3 2.638631 1_555
Co28 Co3 2.638631 1_655
Co28 Tm3 3.021582 1_655
Co28 Tm3 3.021582 1_555
Co28 Tm4 3.125045 1_555
Co29 Si7 2.263012 1_555
Co29 Si8 2.288824 1_555
Co29 Si8 2.288824 1_455
Co29 Si17 2.318728 1_555
Co29 Tm2 3.021582 1_455
Co29 Tm2 3.021582 1_555
Co29 Tm5 3.125045 1_555
Si0 Si2 2.636020 1_555
Si0 Si4 2.636020 1_555
Si0 Tm3 2.885898 1_655
Si0 Tm3 2.885898 1_555
Si1 Si3 2.636020 1_555
Si1 Si5 2.636020 1_555
Si1 Tm2 2.885898 1_555
Si1 Tm2 2.885898 1_455
Si2 Si4 2.636020 1_555
Si2 Tm5 2.885894 1_555
Si2 Tm5 2.885894 1_655
Si3 Si5 2.636020 1_555
Si3 Tm4 2.885894 1_455
Si3 Tm4 2.885894 1_555
Si4 Tm1 2.885887 1_655
Si4 Tm1 2.885887 1_555
Si5 Tm0 2.885887 1_455
Si5 Tm0 2.885887 1_555
Si6 Tm3 2.927166 1_655
Si6 Tm3 2.927166 1_555
Si7 Tm2 2.927166 1_555
Si7 Tm2 2.927166 1_455
Si8 Tm5 2.927152 1_555
Si8 Tm5 2.927152 1_655
Si9 Tm4 2.927152 1_455
Si9 Tm4 2.927152 1_555
Si10 Tm1 2.927175 1_655
Si10 Tm1 2.927175 1_555
Si11 Tm0 2.927175 1_455
Si11 Tm0 2.927175 1_555
Si12 Tm5 2.885614 1_565
Si12 Tm5 2.885614 1_665
Si13 Tm4 2.885614 1_445
Si13 Tm4 2.885614 1_545
Si14 Tm1 2.885610 1_554
Si14 Tm1 2.885610 1_654
Si15 Tm0 2.885610 1_456
Si15 Tm0 2.885610 1_556
Si16 Tm3 2.885603 1_655
Si16 Tm3 2.885603 1_555
Si17 Tm2 2.885603 1_555
Si17 Tm2 2.885603 1_455
