# generated using pymatgen
data_MgFe6Sb10(IO3)6
_symmetry_space_group_name_H-M   'P 1'
_cell_length_a   8.18989312
_cell_length_b   9.88177893
_cell_length_c   12.50115020
_cell_angle_alpha   78.04850780
_cell_angle_beta   85.79995538
_cell_angle_gamma   71.94177933
_symmetry_Int_Tables_number   1
_chemical_formula_structural   MgFe6Sb10(IO3)6
_chemical_formula_sum   'Mg1 Fe6 Sb10 I6 O18'
_cell_volume   940.99620575
_cell_formula_units_Z   1
loop_
 _symmetry_equiv_pos_site_id
 _symmetry_equiv_pos_as_xyz
  1  'x, y, z'
loop_
 _atom_site_type_symbol
 _atom_site_label
 _atom_site_symmetry_multiplicity
 _atom_site_fract_x
 _atom_site_fract_y
 _atom_site_fract_z
 _atom_site_occupancy
  Mg  Mg0  1  0.77724910  0.52165331  0.73659389  1
  Fe  Fe0  1  0.71840586  0.98135799  0.34451501  1
  Fe  Fe1  1  0.27660721  0.02546912  0.65242549  1
  Fe  Fe2  1  0.02807057  0.96104229  0.12543346  1
  Fe  Fe3  1  0.97320716  0.04307951  0.87087317  1
  Fe  Fe4  1  0.61670142  0.08521390  0.06001106  1
  Fe  Fe5  1  0.39085106  0.92840006  0.92707721  1
  Sb  Sb0  1  0.87901493  0.15028903  0.50636826  1
  Sb  Sb1  1  0.11582005  0.81742716  0.50311950  1
  Sb  Sb2  1  0.25638347  0.14165349  0.25900352  1
  Sb  Sb3  1  0.77376635  0.81079603  0.73952077  1
  Sb  Sb4  1  0.53166681  0.20223681  0.75675833  1
  Sb  Sb5  1  0.46757850  0.80372183  0.23904382  1
  Sb  Sb6  1  0.20229111  0.24815872  0.98442799  1
  Sb  Sb7  1  0.80006916  0.75771017  0.01748768  1
  Sb  Sb8  1  0.81010270  0.28780480  0.20913329  1
  Sb  Sb9  1  0.20454239  0.70771657  0.80386487  1
  I  I0  1  0.69259888  0.38073732  0.94231551  1
  I  I1  1  0.27432794  0.67588193  0.06880033  1
  I  I2  1  0.90069777  0.69863825  0.30912651  1
  I  I3  1  0.07482028  0.33356072  0.65815263  1
  I  I4  1  0.50272397  0.26880280  0.41250852  1
  I  I5  1  0.51189282  0.69180758  0.57410577  1
  O  O0  1  0.14970922  0.06227623  0.97860313  1
  O  O1  1  0.85277802  0.94807181  0.01568233  1
  O  O2  1  0.86449952  0.95799119  0.47452280  1
  O  O3  1  0.13535115  0.00892904  0.53436512  1
  O  O4  1  0.79226579  0.09432299  0.19264443  1
  O  O5  1  0.19786870  0.91320583  0.80074371  1
  O  O6  1  0.44630297  0.13626588  0.91355602  1
  O  O7  1  0.55686430  0.87663109  0.09009661  1
  O  O8  1  0.77775322  0.10892173  0.77571428  1
  O  O9  1  0.22183036  0.95200011  0.22510853  1
  O  O10  1  0.47474774  0.04199822  0.71232917  1
  O  O11  1  0.49978446  0.96799353  0.29764844  1
  O  O12  1  0.04813566  0.24451798  0.13964945  1
  O  O13  1  0.96478251  0.74104285  0.86580766  1
  O  O14  1  0.07392809  0.74378609  0.66033136  1
  O  O15  1  0.94463348  0.20841380  0.35016195  1
  O  O16  1  0.63580602  0.81795149  0.89182421  1
  O  O17  1  0.37263127  0.18823377  0.10971122  1
loop_
_geom_bond_atom_site_label_1
_geom_bond_atom_site_label_2
_geom_bond_distance
_geom_bond_site_symmetry_2
Mg0 Sb3 2.856329 1_555
Fe0 O11 1.974549 1_555
Fe0 O2 2.021006 1_555
Fe0 O4 2.142240 1_565
Fe0 I2 2.838852 1_555
Fe0 I4 3.095213 1_565
Fe1 O10 1.900995 1_555
Fe1 O3 2.002637 1_555
Fe1 O5 2.121523 1_545
Fe1 I3 2.993136 1_555
Fe2 O9 2.057768 1_555
Fe2 O1 2.106017 1_455
Fe2 O4 2.194066 1_465
Fe2 O0 2.225287 1_564
Fe2 I1 3.098879 1_555
Fe3 O8 1.927051 1_555
Fe3 O0 2.121380 1_655
Fe3 O5 2.137019 1_645
Fe3 O1 2.177149 1_546
Fe4 O17 2.058272 1_555
Fe4 O1 2.100365 1_545
Fe4 O7 2.215444 1_545
Fe4 O6 2.260382 1_554
Fe4 O4 2.305642 1_555
Fe5 O16 2.030354 1_555
Fe5 O0 2.147604 1_565
Fe5 O6 2.208478 1_565
Fe5 O5 2.371862 1_555
Fe5 O7 2.409631 1_556
Fe5 I1 3.110299 1_556
I0 Mg0 2.808517 1_555
I1 Sb9 3.336050 1_554
I1 Sb5 3.387730 1_555
I3 Mg0 2.819960 1_455
I4 Sb0 3.157320 1_555
I4 Sb8 3.463280 1_555
I4 Sb2 3.531119 1_555
I5 Mg0 2.939882 1_555
I5 Sb1 3.212420 1_555
O0 Sb6 2.028587 1_555
O1 Sb7 2.051795 1_555
O2 Sb0 2.060060 1_565
O2 Sb1 2.103180 1_655
O3 Sb1 2.064514 1_545
O3 Sb0 2.137328 1_455
O4 Sb8 2.014983 1_555
O5 Sb9 2.006623 1_555
O6 Sb4 2.075702 1_555
O6 Sb6 2.185801 1_555
O7 Sb5 2.022980 1_555
O7 Sb7 2.213154 1_555
O8 Sb4 1.948244 1_555
O9 Sb5 2.084565 1_555
O9 Sb2 2.108834 1_565
O10 Sb4 1.973037 1_555
O10 Sb3 2.768421 1_545
O11 Sb5 2.006916 1_555
O11 Sb2 2.197481 1_565
O12 Sb8 2.031444 1_455
O12 Sb2 2.199572 1_555
O12 Sb6 2.236286 1_554
O13 Sb9 2.011423 1_655
O13 Sb3 2.158103 1_555
O13 Sb7 2.249286 1_556
O14 Sb1 1.993356 1_555
O14 Sb9 2.066606 1_555
O14 Sb3 2.523397 1_455
O15 Sb0 2.001273 1_555
O15 Sb8 2.028167 1_555
O15 Sb2 2.663386 1_655
O16 Sb7 2.014397 1_556
O16 Sb3 2.144257 1_555
O17 Sb6 2.042933 1_554
O17 Sb2 2.063269 1_555
