# generated using pymatgen
data_Mn4Zn(CuO4)3
_symmetry_space_group_name_H-M   'P 1'
_cell_length_a   6.40091540
_cell_length_b   6.39632715
_cell_length_c   6.34768148
_cell_angle_alpha   109.88523713
_cell_angle_beta   107.21213369
_cell_angle_gamma   111.52259450
_symmetry_Int_Tables_number   1
_chemical_formula_structural   Mn4Zn(CuO4)3
_chemical_formula_sum   'Mn4 Zn1 Cu3 O12'
_cell_volume   199.33686355
_cell_formula_units_Z   1
loop_
 _symmetry_equiv_pos_site_id
 _symmetry_equiv_pos_as_xyz
  1  'x, y, z'
loop_
 _atom_site_type_symbol
 _atom_site_label
 _atom_site_symmetry_multiplicity
 _atom_site_fract_x
 _atom_site_fract_y
 _atom_site_fract_z
 _atom_site_occupancy
  Mn  Mn0  1  0.50002800  0.00004400  0.00009900  1
  Mn  Mn1  1  0.99995800  0.99991300  0.49996000  1
  Mn  Mn2  1  0.50004600  0.49997100  0.49994900  1
  Mn  Mn3  1  0.00002300  0.50008200  0.00002800  1
  Zn  Zn0  1  0.99994600  0.00028100  0.00014000  1
  Cu  Cu0  1  0.00003400  0.50001600  0.49997500  1
  Cu  Cu1  1  0.49974500  0.99989000  0.49978600  1
  Cu  Cu2  1  0.50007300  0.49989000  0.99993000  1
  O  O0  1  0.13936600  0.82937600  0.31925400  1
  O  O1  1  0.86077700  0.17070900  0.68087800  1
  O  O2  1  0.50732500  0.82130100  0.68111300  1
  O  O3  1  0.16386500  0.29879900  0.46240300  1
  O  O4  1  0.32158400  0.47307500  0.18243200  1
  O  O5  1  0.29628400  0.13732100  0.82139800  1
  O  O6  1  0.17563400  0.69229800  0.86903200  1
  O  O7  1  0.67839000  0.52686900  0.81758100  1
  O  O8  1  0.49271200  0.17869900  0.31900600  1
  O  O9  1  0.83611000  0.70118900  0.53756000  1
  O  O10  1  0.70373300  0.86268900  0.17861600  1
  O  O11  1  0.82436800  0.30758800  0.13086100  1
loop_
_geom_bond_atom_site_label_1
_geom_bond_atom_site_label_2
_geom_bond_distance
_geom_bond_site_symmetry_2
Mn0 O11 1.934319 1_555
Mn0 O6 1.934681 1_544
Mn0 O8 1.981823 1_555
Mn0 O2 1.982309 1_544
Mn0 O10 2.097490 1_545
Mn0 O5 2.097812 1_554
Mn1 O0 1.941824 1_655
Mn1 O1 1.942201 1_565
Mn1 O9 1.948288 1_555
Mn1 O10 1.948931 1_555
Mn1 O3 1.949056 1_665
Mn1 O5 1.949305 1_665
Mn2 O4 1.911563 1_555
Mn2 O7 1.911985 1_555
Mn2 O9 1.948440 1_555
Mn2 O3 1.949173 1_555
Mn2 O8 1.958560 1_555
Mn2 O2 1.959373 1_555
Mn3 O6 1.923844 1_554
Mn3 O11 1.924145 1_455
Mn3 O0 1.996623 1_555
Mn3 O1 1.996796 1_454
Mn3 O7 2.142842 1_454
Mn3 O4 2.143249 1_555
Cu0 O6 1.931675 1_555
Cu0 O11 1.931978 1_455
Cu0 O3 1.934580 1_555
Cu0 O9 1.934843 1_455
Cu1 O8 1.878030 1_565
Cu1 O2 1.879919 1_555
Cu1 O0 1.887643 1_555
Cu1 O1 1.891138 1_565
Cu2 O7 1.856231 1_555
Cu2 O4 1.857803 1_556
Cu2 O5 1.865937 1_555
Cu2 O10 1.867011 1_556
O3 Zn0 2.500674 1_455
O4 Zn0 2.522759 1_455
O5 Zn0 2.526640 1_456
O7 Zn0 2.525250 1_566
O9 Zn0 2.503148 1_566
O10 Zn0 2.525497 1_565
