# generated using pymatgen
data_KMg6Zn
_symmetry_space_group_name_H-M   'P 1'
_cell_length_a   5.19402700
_cell_length_b   6.77437400
_cell_length_c   11.57133800
_cell_angle_alpha   90.00000000
_cell_angle_beta   90.00000000
_cell_angle_gamma   90.00000000
_symmetry_Int_Tables_number   1
_chemical_formula_structural   KMg6Zn
_chemical_formula_sum   'K2 Mg12 Zn2'
_cell_volume   407.15235578
_cell_formula_units_Z   2
loop_
 _symmetry_equiv_pos_site_id
 _symmetry_equiv_pos_as_xyz
  1  'x, y, z'
loop_
 _atom_site_type_symbol
 _atom_site_label
 _atom_site_symmetry_multiplicity
 _atom_site_fract_x
 _atom_site_fract_y
 _atom_site_fract_z
 _atom_site_occupancy
  K  K0  1  0.50000000  0.50000000  0.17083800  1
  K  K1  1  0.50000000  0.00000000  0.67083800  1
  Mg  Mg0  1  0.00000000  0.22886500  0.07296600  1
  Mg  Mg1  1  0.00000000  0.77113500  0.07296600  1
  Mg  Mg2  1  0.00000000  0.50000000  0.83271900  1
  Mg  Mg3  1  0.50000000  0.24130500  0.91729500  1
  Mg  Mg4  1  0.50000000  0.75869500  0.91729500  1
  Mg  Mg5  1  0.50000000  0.50000000  0.66334300  1
  Mg  Mg6  1  0.00000000  0.72886500  0.57296600  1
  Mg  Mg7  1  0.00000000  0.27113500  0.57296600  1
  Mg  Mg8  1  0.00000000  0.00000000  0.33271900  1
  Mg  Mg9  1  0.50000000  0.74130500  0.41729500  1
  Mg  Mg10  1  0.50000000  0.25869500  0.41729500  1
  Mg  Mg11  1  0.50000000  0.00000000  0.16334300  1
  Zn  Zn0  1  0.00000000  0.50000000  0.35257800  1
  Zn  Zn1  1  0.00000000  0.00000000  0.85257800  1
loop_
_geom_bond_atom_site_label_1
_geom_bond_atom_site_label_2
_geom_bond_distance
_geom_bond_site_symmetry_2
K0 Mg9 3.287125 1_555
K0 Mg10 3.287125 1_555
K0 Zn0 3.341704 1_655
K0 Zn0 3.341704 1_555
K0 Mg0 3.376504 1_655
K0 Mg1 3.376504 1_555
K0 Mg1 3.376504 1_655
K0 Mg0 3.376504 1_555
K0 Mg11 3.388297 1_565
K0 Mg11 3.388297 1_555
K0 Mg3 3.417399 1_554
K0 Mg4 3.417399 1_554
K1 Mg4 3.287125 1_545
K1 Mg3 3.287125 1_555
K1 Zn1 3.341704 1_555
K1 Zn1 3.341704 1_655
K1 Mg7 3.376504 1_555
K1 Mg7 3.376504 1_655
K1 Mg6 3.376504 1_645
K1 Mg6 3.376504 1_545
K1 Mg5 3.388297 1_555
K1 Mg5 3.388297 1_545
K1 Mg9 3.417399 1_545
K1 Mg10 3.417399 1_555
Mg0 Zn1 2.984499 1_554
Mg0 Mg1 3.100834 1_545
Mg0 Mg3 3.161699 1_454
Mg0 Mg3 3.161699 1_554
Mg0 Mg11 3.200302 1_555
Mg0 Mg11 3.200302 1_455
Mg0 Mg2 3.331968 1_554
Mg0 Mg8 3.382006 1_555
Mg1 Zn1 2.984499 1_564
Mg1 Mg4 3.161699 1_454
Mg1 Mg4 3.161699 1_554
Mg1 Mg11 3.200302 1_565
Mg1 Mg11 3.200302 1_465
Mg1 Mg2 3.331968 1_554
Mg1 Mg8 3.382006 1_565
Mg2 Mg5 3.253569 1_455
Mg2 Mg5 3.253569 1_555
Mg2 Mg3 3.282300 1_455
Mg2 Mg4 3.282300 1_455
Mg2 Mg4 3.282300 1_555
Mg2 Mg3 3.282300 1_555
Mg2 Mg6 3.382006 1_555
Mg2 Mg7 3.382006 1_555
Mg2 Zn1 3.394973 1_565
Mg2 Zn1 3.394973 1_555
Mg3 Zn1 3.158716 1_555
Mg3 Zn1 3.158716 1_655
Mg3 Mg4 3.269381 1_545
Mg3 Mg5 3.421462 1_555
Mg3 Mg4 3.504993 1_555
Mg4 Zn1 3.158716 1_665
Mg4 Zn1 3.158716 1_565
Mg4 Mg5 3.421462 1_555
Mg5 Mg7 3.200302 1_555
Mg5 Mg6 3.200302 1_655
Mg5 Mg7 3.200302 1_655
Mg5 Mg6 3.200302 1_555
Mg5 Mg9 3.283019 1_555
Mg6 Zn0 2.984499 1_555
Mg6 Mg7 3.100834 1_555
Mg6 Mg9 3.161699 1_455
Mg6 Mg9 3.161699 1_555
Mg6 Mg8 3.331968 1_565
Mg7 Zn0 2.984499 1_555
Mg7 Mg8 3.331968 1_555
Mg8 Mg9 3.282300 1_445
Mg8 Mg9 3.282300 1_545
Mg8 Zn0 3.394973 1_555
Mg8 Zn0 3.394973 1_545
Mg9 Zn0 3.158716 1_655
Mg9 Zn0 3.158716 1_555
Mg10 Zn0 3.158716 1_555
Mg10 Zn0 3.158716 1_655
Mg10 Mg7 3.161699 1_555
Mg10 Mg7 3.161699 1_655
Mg10 Mg9 3.269381 1_555
Mg10 Mg8 3.282300 1_555
Mg10 Mg8 3.282300 1_655
Mg10 Mg5 3.283019 1_555
Mg10 Mg11 3.421462 1_555
Mg10 Mg9 3.504993 1_545
Mg11 Mg8 3.253569 1_655
Mg11 Mg8 3.253569 1_555
Mg11 Mg3 3.283019 1_554
Mg11 Mg4 3.283019 1_544
Mg11 Mg9 3.421462 1_545
