# generated using pymatgen
data_LiAl2(CuO3)2
_symmetry_space_group_name_H-M   'P 1'
_cell_length_a   3.01863200
_cell_length_b   3.01863150
_cell_length_c   14.07470700
_cell_angle_alpha   90.00000000
_cell_angle_beta   90.00000000
_cell_angle_gamma   119.99998353
_symmetry_Int_Tables_number   1
_chemical_formula_structural   LiAl2(CuO3)2
_chemical_formula_sum   'Li1 Al2 Cu2 O6'
_cell_volume   111.06835461
_cell_formula_units_Z   1
loop_
 _symmetry_equiv_pos_site_id
 _symmetry_equiv_pos_as_xyz
  1  'x, y, z'
loop_
 _atom_site_type_symbol
 _atom_site_label
 _atom_site_symmetry_multiplicity
 _atom_site_fract_x
 _atom_site_fract_y
 _atom_site_fract_z
 _atom_site_occupancy
  Li  Li0  1  0.00000000  0.00000000  0.62058400  1
  Al  Al0  1  0.00000000  0.00000000  0.44988200  1
  Al  Al1  1  0.00000000  0.00000000  0.02307300  1
  Cu  Cu0  1  0.66666500  0.33333200  0.81338700  1
  Cu  Cu1  1  0.33333400  0.66666800  0.23241100  1
  O  O0  1  0.33333400  0.66666800  0.39402000  1
  O  O1  1  0.66666500  0.33333200  0.95572200  1
  O  O2  1  0.66666500  0.33333200  0.53261000  1
  O  O3  1  0.33333400  0.66666800  0.08799800  1
  O  O4  1  0.00000000  0.00000000  0.24826500  1
  O  O5  1  0.00000000  0.00000000  0.75514500  1
loop_
_geom_bond_atom_site_label_1
_geom_bond_atom_site_label_2
_geom_bond_distance
_geom_bond_site_symmetry_2
Li0 O5 1.893907 1_555
Li0 O2 2.137879 1_555
Li0 O2 2.137882 1_455
Li0 O2 2.137885 1_445
Al0 O0 1.911949 1_545
Al0 O0 1.911949 1_445
Al0 O0 1.911954 1_555
Al0 O2 2.095979 1_555
Al0 O2 2.095983 1_455
Al0 O2 2.095985 1_445
Al1 O3 1.967842 1_545
Al1 O3 1.967843 1_445
Al1 O3 1.967847 1_555
Al1 O1 1.983927 1_554
Al1 O1 1.983931 1_454
Al1 O1 1.983934 1_444
Cu0 O5 1.925964 1_555
Cu0 O5 1.925968 1_655
Cu0 O5 1.925971 1_665
Cu0 O1 2.003323 1_555
Cu1 O4 1.757033 1_565
Cu1 O4 1.757033 1_665
Cu1 O4 1.757038 1_555
Cu1 O3 2.032571 1_555
Cu1 O0 2.274599 1_555
