# generated using pymatgen
data_Tb2O3
_symmetry_space_group_name_H-M   'P 1'
_cell_length_a   9.23580022
_cell_length_b   9.23579972
_cell_length_c   9.23580033
_cell_angle_alpha   109.47122198
_cell_angle_beta   109.47122088
_cell_angle_gamma   109.47122466
_symmetry_Int_Tables_number   1
_chemical_formula_structural   Tb2O3
_chemical_formula_sum   'Tb16 O24'
_cell_volume   606.45928695
_cell_formula_units_Z   8
loop_
 _symmetry_equiv_pos_site_id
 _symmetry_equiv_pos_as_xyz
  1  'x, y, z'
loop_
 _atom_site_type_symbol
 _atom_site_label
 _atom_site_symmetry_multiplicity
 _atom_site_fract_x
 _atom_site_fract_y
 _atom_site_fract_z
 _atom_site_occupancy
  Tb  Tb0  1  0.75000000  0.78175940  0.03175940  1
  Tb  Tb1  1  0.46824060  0.25000000  0.71824060  1
  Tb  Tb2  1  0.71824060  0.46824060  0.25000000  1
  Tb  Tb3  1  0.03175940  0.75000000  0.78175940  1
  Tb  Tb4  1  0.78175940  0.03175940  0.75000000  1
  Tb  Tb5  1  0.25000000  0.71824060  0.46824060  1
  Tb  Tb6  1  0.75000000  0.28177090  0.53177090  1
  Tb  Tb7  1  0.96822910  0.25000000  0.21822910  1
  Tb  Tb8  1  0.21822910  0.96822910  0.25000000  1
  Tb  Tb9  1  0.53177090  0.75000000  0.28177090  1
  Tb  Tb10  1  0.28177090  0.53177090  0.75000000  1
  Tb  Tb11  1  0.25000000  0.21822910  0.96822910  1
  Tb  Tb12  1  0.00002276  0.50000000  0.00000000  1
  Tb  Tb13  1  0.50000000  -0.00000000  0.00002276  1
  Tb  Tb14  1  0.00000000  0.00002276  0.50000000  1
  Tb  Tb15  1  0.49997724  0.49997724  0.49997724  1
  O  O0  1  0.72962840  0.25972161  0.77192408  1
  O  O1  1  0.98779652  0.95770332  0.72807592  1
  O  O2  1  0.51220348  0.24027839  0.96990680  1
  O  O3  1  0.54229668  0.53009320  0.77037160  1
  O  O4  1  0.53009320  0.77037160  0.54229668  1
  O  O5  1  0.77192408  0.72962840  0.25972161  1
  O  O6  1  0.95770332  0.72807592  0.98779652  1
  O  O7  1  0.96990680  0.51220348  0.24027839  1
  O  O8  1  0.25972161  0.77192408  0.72962840  1
  O  O9  1  0.72807592  0.98779652  0.95770332  1
  O  O10  1  0.24027839  0.96990680  0.51220348  1
  O  O11  1  0.77037160  0.54229668  0.53009320  1
  O  O12  1  0.04230131  0.27191116  0.01219886  1
  O  O13  1  0.75971231  0.03010345  0.48780114  1
  O  O14  1  0.74028769  0.22808884  0.27039115  1
  O  O15  1  0.46989655  0.22960885  0.45769869  1
  O  O16  1  0.45769869  0.46989655  0.22960885  1
  O  O17  1  0.22808884  0.27039115  0.74028769  1
  O  O18  1  0.48780114  0.75971231  0.03010345  1
  O  O19  1  0.27191116  0.01219886  0.04230131  1
  O  O20  1  0.27039115  0.74028769  0.22808884  1
  O  O21  1  0.03010345  0.48780114  0.75971231  1
  O  O22  1  0.01219886  0.04230131  0.27191116  1
  O  O23  1  0.22960885  0.45769869  0.46989655  1
loop_
_geom_bond_atom_site_label_1
_geom_bond_atom_site_label_2
_geom_bond_distance
_geom_bond_site_symmetry_2
O0 Tb1 2.260474 1_555
O0 Tb4 2.272039 1_555
O0 Tb12 2.297915 1_656
O0 Tb6 2.355889 1_555
O1 Tb3 2.260469 1_655
O1 Tb4 2.272035 1_565
O1 Tb14 2.297923 1_665
O1 Tb11 2.355895 1_665
O2 Tb1 2.260473 1_555
O2 Tb2 2.272037 1_556
O2 Tb13 2.297913 1_556
O2 Tb11 2.355898 1_555
O3 Tb0 2.260473 1_556
O3 Tb1 2.272037 1_555
O3 Tb15 2.297914 1_555
O3 Tb10 2.355898 1_555
O4 Tb4 2.260473 1_565
O4 Tb5 2.272038 1_555
O4 Tb15 2.297913 1_555
O4 Tb9 2.355898 1_555
O5 Tb2 2.260474 1_555
O5 Tb0 2.272039 1_555
O5 Tb14 2.297915 1_665
O5 Tb9 2.355889 1_555
O6 Tb0 2.260469 1_556
O6 Tb3 2.272035 1_655
O6 Tb12 2.297923 1_656
O6 Tb8 2.355895 1_656
O7 Tb2 2.260473 1_555
O7 Tb5 2.272037 1_655
O7 Tb12 2.297913 1_655
O7 Tb7 2.355898 1_555
O8 Tb5 2.260474 1_555
O8 Tb3 2.272039 1_555
O8 Tb13 2.297915 1_566
O8 Tb10 2.355888 1_555
O9 Tb4 2.260469 1_565
O9 Tb0 2.272035 1_556
O9 Tb13 2.297923 1_566
O9 Tb7 2.355895 1_566
O10 Tb5 2.260473 1_555
O10 Tb1 2.272037 1_565
O10 Tb14 2.297913 1_565
O10 Tb8 2.355898 1_555
O11 Tb3 2.260473 1_655
O11 Tb2 2.272038 1_555
O11 Tb15 2.297913 1_555
O11 Tb6 2.355898 1_555
O12 Tb11 2.260446 1_554
O12 Tb7 2.272024 1_455
O12 Tb12 2.297855 1_555
O12 Tb4 2.355930 1_454
O13 Tb6 2.260437 1_555
O13 Tb9 2.272029 1_545
O13 Tb14 2.297859 1_655
O13 Tb4 2.355934 1_555
O14 Tb6 2.260437 1_555
O14 Tb7 2.272029 1_555
O14 Tb13 2.297859 1_555
O14 Tb2 2.355934 1_555
O15 Tb8 2.260438 1_545
O15 Tb6 2.272030 1_555
O15 Tb15 2.297861 1_555
O15 Tb1 2.355925 1_555
O16 Tb11 2.260438 1_554
O16 Tb9 2.272030 1_555
O16 Tb15 2.297861 1_555
O16 Tb2 2.355925 1_555
O17 Tb10 2.260436 1_555
O17 Tb11 2.272029 1_555
O17 Tb14 2.297859 1_555
O17 Tb1 2.355934 1_555
O18 Tb9 2.260437 1_555
O18 Tb10 2.272029 1_554
O18 Tb13 2.297859 1_565
O18 Tb0 2.355934 1_555
O19 Tb8 2.260446 1_545
O19 Tb11 2.272024 1_554
O19 Tb13 2.297855 1_555
O19 Tb3 2.355930 1_544
O20 Tb9 2.260437 1_555
O20 Tb8 2.272029 1_555
O20 Tb12 2.297859 1_555
O20 Tb5 2.355934 1_555
O21 Tb10 2.260437 1_555
O21 Tb6 2.272029 1_455
O21 Tb12 2.297859 1_556
O21 Tb3 2.355934 1_555
O22 Tb7 2.260446 1_455
O22 Tb8 2.272024 1_545
O22 Tb14 2.297855 1_555
O22 Tb0 2.355930 1_445
O23 Tb7 2.260438 1_455
O23 Tb10 2.272030 1_555
O23 Tb15 2.297861 1_555
O23 Tb5 2.355924 1_555
