# generated using pymatgen
data_Sr2PrCu2(BiO4)2
_symmetry_space_group_name_H-M   'P 1'
_cell_length_a   15.61208617
_cell_length_b   15.61208617
_cell_length_c   15.61208617
_cell_angle_alpha   165.89325887
_cell_angle_beta   165.89325887
_cell_angle_gamma   20.00099316
_symmetry_Int_Tables_number   1
_chemical_formula_structural   Sr2PrCu2(BiO4)2
_chemical_formula_sum   'Sr2 Pr1 Cu2 Bi2 O8'
_cell_volume   226.01994350
_cell_formula_units_Z   1
loop_
 _symmetry_equiv_pos_site_id
 _symmetry_equiv_pos_as_xyz
  1  'x, y, z'
loop_
 _atom_site_type_symbol
 _atom_site_label
 _atom_site_symmetry_multiplicity
 _atom_site_fract_x
 _atom_site_fract_y
 _atom_site_fract_z
 _atom_site_occupancy
  Sr  Sr0  1  0.11559700  0.11559700  0.00000000  1
  Sr  Sr1  1  0.88440300  0.88440300  0.00000000  1
  Pr  Pr0  1  0.00000000  0.00000000  0.00000000  1
  Cu  Cu0  1  0.44466200  0.44466200  0.00000000  1
  Cu  Cu1  1  0.55533800  0.55533800  0.00000000  1
  Bi  Bi0  1  0.29535700  0.29535700  0.00000000  1
  Bi  Bi1  1  0.70464300  0.70464300  0.00000000  1
  O  O0  1  0.55250300  0.05250300  0.50000000  1
  O  O1  1  0.44749700  0.94749700  0.50000000  1
  O  O2  1  0.05250300  0.55250300  0.50000000  1
  O  O3  1  0.94749700  0.44749700  0.50000000  1
  O  O4  1  0.20329400  0.20329400  0.00000000  1
  O  O5  1  0.79670600  0.79670600  0.00000000  1
  O  O6  1  0.36428100  0.36428100  0.00000000  1
  O  O7  1  0.63571900  0.63571900  0.00000000  1
loop_
_geom_bond_atom_site_label_1
_geom_bond_atom_site_label_2
_geom_bond_distance
_geom_bond_site_symmetry_2
Cu0 O1 1.919049 1_555
Cu0 O3 1.919049 1_555
Cu0 O1 1.919049 1_544
Cu0 O3 1.919049 1_454
Cu0 O6 2.471696 1_555
Cu1 O2 1.919049 1_554
Cu1 O2 1.919049 1_655
Cu1 O0 1.919049 1_554
Cu1 O0 1.919049 1_565
Cu1 O7 2.471696 1_555
Bi0 O6 2.119396 1_555
Bi0 O5 2.711461 1_455
Bi0 O5 2.711461 1_556
Bi0 O5 2.711461 1_444
Bi0 O5 2.711461 1_545
Bi0 O4 2.830915 1_555
Bi1 O7 2.119396 1_555
Bi1 O4 2.711461 1_666
Bi1 O4 2.711461 1_655
Bi1 O4 2.711461 1_565
Bi1 O4 2.711461 1_554
Bi1 O5 2.830915 1_555
O0 Pr0 2.506315 1_555
O0 Pr0 2.506315 1_656
O0 Sr0 2.727496 1_555
O0 Sr0 2.727496 1_656
O1 Pr0 2.506315 1_666
O1 Pr0 2.506315 1_565
O1 Sr1 2.727496 1_556
O1 Sr1 2.727496 1_455
O2 Pr0 2.506315 1_566
O2 Pr0 2.506315 1_555
O2 Sr0 2.727496 1_555
O2 Sr0 2.727496 1_566
O3 Pr0 2.506315 1_666
O3 Pr0 2.506315 1_655
O3 Sr1 2.727496 1_556
O3 Sr1 2.727496 1_545
O4 Sr0 2.696662 1_555
O5 Sr1 2.696662 1_555
O6 Sr1 2.780854 1_455
O6 Sr1 2.780854 1_556
O6 Sr1 2.780854 1_545
O6 Sr1 2.780854 1_444
O7 Sr0 2.780854 1_554
O7 Sr0 2.780854 1_565
O7 Sr0 2.780854 1_666
O7 Sr0 2.780854 1_655
