# generated using pymatgen
data_CeSBr
_symmetry_space_group_name_H-M   'P 1'
_cell_length_a   6.95435908
_cell_length_b   7.17315176
_cell_length_c   13.75517172
_cell_angle_alpha   90.00000000
_cell_angle_beta   90.00000000
_cell_angle_gamma   90.00000000
_symmetry_Int_Tables_number   1
_chemical_formula_structural   CeSBr
_chemical_formula_sum   'Ce8 S8 Br8'
_cell_volume   686.17224433
_cell_formula_units_Z   8
loop_
 _symmetry_equiv_pos_site_id
 _symmetry_equiv_pos_as_xyz
  1  'x, y, z'
loop_
 _atom_site_type_symbol
 _atom_site_label
 _atom_site_symmetry_multiplicity
 _atom_site_fract_x
 _atom_site_fract_y
 _atom_site_fract_z
 _atom_site_occupancy
  Ce  Ce0  1  0.74086422  0.53252860  0.59062728  1
  Ce  Ce1  1  0.25913578  0.46747140  0.40937272  1
  Ce  Ce2  1  0.75913578  0.03252860  0.40937272  1
  Ce  Ce3  1  0.25913578  0.96747140  0.09062728  1
  Ce  Ce4  1  0.24086422  0.96747140  0.59062728  1
  Ce  Ce5  1  0.74086422  0.03252860  0.90937272  1
  Ce  Ce6  1  0.24086422  0.46747140  0.90937272  1
  Ce  Ce7  1  0.75913578  0.53252860  0.09062728  1
  S  S0  1  0.00097202  0.75826176  0.97452162  1
  S  S1  1  0.99902798  0.24173824  0.02547838  1
  S  S2  1  0.49902798  0.25826176  0.02547838  1
  S  S3  1  0.99902798  0.74173824  0.47452162  1
  S  S4  1  0.50097202  0.74173824  0.97452162  1
  S  S5  1  0.00097202  0.25826176  0.52547838  1
  S  S6  1  0.50097202  0.24173824  0.52547838  1
  S  S7  1  0.49902798  0.75826176  0.47452162  1
  Br  Br0  1  0.81897198  0.90176266  0.70115106  1
  Br  Br1  1  0.18102802  0.09823734  0.29884894  1
  Br  Br2  1  0.68102802  0.40176266  0.29884894  1
  Br  Br3  1  0.18102802  0.59823734  0.20115106  1
  Br  Br4  1  0.31897198  0.59823734  0.70115106  1
  Br  Br5  1  0.81897198  0.40176266  0.79884894  1
  Br  Br6  1  0.31897198  0.09823734  0.79884894  1
  Br  Br7  1  0.68102802  0.90176266  0.20115106  1
loop_
_geom_bond_atom_site_label_1
_geom_bond_atom_site_label_2
_geom_bond_distance
_geom_bond_site_symmetry_2
Ce0 S6 2.817300 1_555
Ce0 S5 2.818796 1_655
Ce0 S7 2.828595 1_555
Ce0 S3 2.833017 1_555
Ce1 S7 2.817300 1_555
Ce1 S3 2.818796 1_455
Ce1 S6 2.828595 1_555
Ce1 S5 2.833017 1_555
Ce2 S3 2.817300 1_545
Ce2 S7 2.818796 1_545
Ce2 S5 2.828595 1_655
Ce2 S6 2.833017 1_555
Ce3 S2 2.817300 1_565
Ce3 S1 2.818796 1_465
Ce3 S4 2.828595 1_554
Ce3 S0 2.833017 1_554
Ce4 S5 2.817300 1_565
Ce4 S6 2.818796 1_565
Ce4 S3 2.828595 1_455
Ce4 S7 2.833017 1_555
Ce5 S4 2.817300 1_545
Ce5 S0 2.818796 1_645
Ce5 S2 2.828595 1_556
Ce5 S1 2.833017 1_556
Ce6 S0 2.817300 1_555
Ce6 S4 2.818796 1_555
Ce6 S1 2.828595 1_456
Ce6 S2 2.833017 1_556
Ce7 S1 2.817300 1_555
Ce7 S2 2.818796 1_555
Ce7 S0 2.828595 1_654
Ce7 S4 2.833017 1_554
Br0 Ce5 3.062371 1_565
Br0 Ce0 3.101809 1_555
Br0 Ce4 3.337917 1_655
Br1 Ce3 3.062371 1_545
Br1 Ce1 3.101809 1_555
Br1 Ce2 3.337917 1_455
Br2 Ce7 3.062371 1_555
Br2 Ce2 3.101809 1_555
Br2 Ce1 3.337917 1_555
Br3 Ce1 3.062371 1_555
Br3 Ce3 3.101809 1_555
Br3 Ce7 3.337917 1_455
Br4 Ce6 3.062371 1_555
Br4 Ce4 3.101809 1_555
Br4 Ce0 3.337917 1_555
Br5 Ce0 3.062371 1_555
Br5 Ce5 3.101809 1_555
Br5 Ce6 3.337917 1_655
Br6 Ce4 3.062371 1_545
Br6 Ce6 3.101809 1_555
Br6 Ce5 3.337917 1_555
Br7 Ce2 3.062371 1_565
Br7 Ce7 3.101809 1_555
Br7 Ce3 3.337917 1_555
