# generated using pymatgen
data_Mg6GaFe
_symmetry_space_group_name_H-M   'P 1'
_cell_length_a   4.86864600
_cell_length_b   6.08841000
_cell_length_c   10.58500400
_cell_angle_alpha   90.00000000
_cell_angle_beta   90.00000000
_cell_angle_gamma   90.00000000
_symmetry_Int_Tables_number   1
_chemical_formula_structural   Mg6GaFe
_chemical_formula_sum   'Mg12 Ga2 Fe2'
_cell_volume   313.76400160
_cell_formula_units_Z   2
loop_
 _symmetry_equiv_pos_site_id
 _symmetry_equiv_pos_as_xyz
  1  'x, y, z'
loop_
 _atom_site_type_symbol
 _atom_site_label
 _atom_site_symmetry_multiplicity
 _atom_site_fract_x
 _atom_site_fract_y
 _atom_site_fract_z
 _atom_site_occupancy
  Mg  Mg0  1  0.50000000  0.24865500  0.41686700  1
  Mg  Mg1  1  0.50000000  0.75134500  0.41686700  1
  Mg  Mg2  1  0.00000000  0.75864500  0.08765300  1
  Mg  Mg3  1  0.00000000  0.24135500  0.08765300  1
  Mg  Mg4  1  0.00000000  0.00000000  0.32495800  1
  Mg  Mg5  1  0.00000000  0.50000000  0.33061600  1
  Mg  Mg6  1  0.50000000  0.74865500  0.91686700  1
  Mg  Mg7  1  0.50000000  0.25134500  0.91686700  1
  Mg  Mg8  1  0.00000000  0.25864500  0.58765300  1
  Mg  Mg9  1  0.00000000  0.74135500  0.58765300  1
  Mg  Mg10  1  0.00000000  0.50000000  0.82495800  1
  Mg  Mg11  1  0.00000000  0.00000000  0.83061600  1
  Ga  Ga0  1  0.50000000  0.50000000  0.16787100  1
  Ga  Ga1  1  0.50000000  0.00000000  0.66787100  1
  Fe  Fe0  1  0.50000000  0.00000000  0.16751100  1
  Fe  Fe1  1  0.50000000  0.50000000  0.66751100  1
loop_
_geom_bond_atom_site_label_1
_geom_bond_atom_site_label_2
_geom_bond_distance
_geom_bond_site_symmetry_2
Mg0 Mg5 3.016824 1_655
Mg0 Mg5 3.016824 1_555
Mg0 Mg4 3.027262 1_655
Mg0 Mg4 3.027262 1_555
Mg0 Mg1 3.027827 1_545
Mg0 Mg8 3.032765 1_555
Mg0 Mg8 3.032765 1_655
Mg0 Mg1 3.060583 1_555
Mg1 Mg5 3.016824 1_655
Mg1 Mg5 3.016824 1_555
Mg1 Mg4 3.027262 1_565
Mg1 Mg4 3.027262 1_665
Mg1 Mg9 3.032765 1_555
Mg1 Mg9 3.032765 1_655
Mg2 Mg4 2.910129 1_565
Mg2 Mg3 2.938936 1_565
Mg2 Mg5 3.015587 1_555
Mg2 Mg6 3.032765 1_454
Mg2 Mg6 3.032765 1_554
Mg2 Mg3 3.149474 1_555
Mg3 Mg4 2.910129 1_555
Mg3 Mg5 3.015587 1_555
Mg3 Mg7 3.032765 1_554
Mg3 Mg7 3.032765 1_454
Mg4 Mg5 3.044794 1_545
Mg4 Mg5 3.044794 1_555
Mg4 Mg8 3.195573 1_555
Mg4 Mg9 3.195573 1_545
Mg5 Mg8 3.092208 1_555
Mg5 Mg9 3.092208 1_555
Mg6 Mg7 3.027827 1_555
Mg6 Mg7 3.060583 1_565
Mg8 Mg9 2.938936 1_555
Mg8 Mg9 3.149474 1_545
Mg10 Mg8 2.910129 1_555
Mg10 Mg9 2.910129 1_555
Mg10 Mg6 3.027262 1_455
Mg10 Mg6 3.027262 1_555
Mg10 Mg7 3.027262 1_455
Mg10 Mg7 3.027262 1_555
Mg10 Mg11 3.044794 1_555
Mg10 Mg11 3.044794 1_565
Mg10 Mg3 3.195573 1_556
Mg10 Mg2 3.195573 1_556
Mg11 Mg9 3.015587 1_545
Mg11 Mg8 3.015587 1_555
Mg11 Mg7 3.016824 1_455
Mg11 Mg7 3.016824 1_555
Mg11 Mg6 3.016824 1_445
Mg11 Mg6 3.016824 1_545
Mg11 Mg3 3.092208 1_556
Mg11 Mg2 3.092208 1_546
Ga0 Mg5 2.982193 1_655
Ga0 Mg5 2.982193 1_555
Ga0 Mg2 3.021044 1_555
Ga0 Mg2 3.021044 1_655
Ga0 Mg3 3.021044 1_555
Ga0 Mg3 3.021044 1_655
Ga0 Mg1 3.047672 1_555
Ga0 Mg0 3.047672 1_555
Ga0 Mg6 3.057930 1_554
Ga0 Mg7 3.057930 1_554
Ga1 Mg11 2.982193 1_555
Ga1 Mg11 2.982193 1_655
Ga1 Mg9 3.021044 1_645
Ga1 Mg8 3.021044 1_655
Ga1 Mg9 3.021044 1_545
Ga1 Mg8 3.021044 1_555
Ga1 Mg6 3.047672 1_545
Ga1 Mg7 3.047672 1_555
Ga1 Mg0 3.057930 1_555
Ga1 Mg1 3.057930 1_545
Fe0 Mg4 2.950154 1_655
Fe0 Mg4 2.950154 1_555
Fe0 Mg3 2.966444 1_655
Fe0 Mg2 2.966444 1_645
Fe0 Mg2 2.966444 1_545
Fe0 Mg3 2.966444 1_555
Fe0 Mg0 3.042786 1_555
Fe0 Mg1 3.042786 1_545
Fe0 Ga0 3.044207 1_555
Fe0 Ga0 3.044207 1_545
Fe0 Mg6 3.062770 1_544
Fe0 Mg7 3.062770 1_554
Fe1 Mg10 2.950154 1_555
Fe1 Mg10 2.950154 1_655
Fe1 Mg9 2.966444 1_655
Fe1 Mg8 2.966444 1_555
Fe1 Mg9 2.966444 1_555
Fe1 Mg8 2.966444 1_655
Fe1 Mg7 3.042786 1_555
Fe1 Mg6 3.042786 1_555
Fe1 Ga1 3.044207 1_555
Fe1 Ga1 3.044207 1_565
Fe1 Mg1 3.062770 1_555
Fe1 Mg0 3.062770 1_555
