# generated using pymatgen
data_Cs2Sb2Pd
_symmetry_space_group_name_H-M   'P 1'
_cell_length_a   8.54281343
_cell_length_b   8.54281343
_cell_length_c   6.83988854
_cell_angle_alpha   90.00000000
_cell_angle_beta   90.00000000
_cell_angle_gamma   126.47330567
_symmetry_Int_Tables_number   1
_chemical_formula_structural   Cs2Sb2Pd
_chemical_formula_sum   'Cs4 Sb4 Pd2'
_cell_volume   401.40173143
_cell_formula_units_Z   2
loop_
 _symmetry_equiv_pos_site_id
 _symmetry_equiv_pos_as_xyz
  1  'x, y, z'
loop_
 _atom_site_type_symbol
 _atom_site_label
 _atom_site_symmetry_multiplicity
 _atom_site_fract_x
 _atom_site_fract_y
 _atom_site_fract_z
 _atom_site_occupancy
  Cs  Cs0  1  0.59973236  0.40026764  0.75000000  1
  Cs  Cs1  1  0.40026764  0.59973236  0.25000000  1
  Cs  Cs2  1  0.19988257  0.80011743  0.75000000  1
  Cs  Cs3  1  0.80011743  0.19988257  0.25000000  1
  Sb  Sb0  1  0.71950125  0.91742573  0.75000000  1
  Sb  Sb1  1  0.91742573  0.71950125  0.25000000  1
  Sb  Sb2  1  0.28049875  0.08257427  0.25000000  1
  Sb  Sb3  1  0.08257427  0.28049875  0.75000000  1
  Pd  Pd0  1  -0.00000000  -0.00000000  0.00000000  1
  Pd  Pd1  1  -0.00000000  -0.00000000  0.50000000  1
loop_
_geom_bond_atom_site_label_1
_geom_bond_atom_site_label_2
_geom_bond_distance
_geom_bond_site_symmetry_2
Cs0 Sb3 3.897597 1_555
Cs0 Sb0 3.897597 1_555
Cs0 Sb1 4.207084 1_556
Cs0 Sb2 4.207084 1_555
Cs0 Sb2 4.207084 1_556
Cs0 Sb1 4.207084 1_555
Cs1 Sb2 3.897597 1_555
Cs1 Sb1 3.897597 1_555
Cs1 Sb0 4.207084 1_555
Cs1 Sb0 4.207084 1_554
Cs1 Sb3 4.207084 1_554
Cs1 Sb3 4.207084 1_555
Cs2 Pd0 3.496006 1_566
Cs2 Pd1 3.496006 1_565
Cs2 Sb0 3.926860 1_555
Cs2 Sb3 3.926860 1_555
Cs2 Sb1 4.002133 1_456
Cs2 Sb1 4.002133 1_455
Cs2 Sb2 4.002133 1_565
Cs2 Sb2 4.002133 1_566
Cs3 Pd0 3.496006 1_655
Cs3 Pd1 3.496006 1_655
Cs3 Sb1 3.926860 1_555
Cs3 Sb2 3.926860 1_555
Cs3 Sb0 4.002133 1_545
Cs3 Sb0 4.002133 1_544
Cs3 Sb3 4.002133 1_655
Cs3 Sb3 4.002133 1_654
Sb0 Sb3 2.793400 1_665
Sb1 Sb2 2.793400 1_665
Pd0 Sb3 2.674690 1_554
Pd0 Sb1 2.674690 1_445
Pd0 Sb0 2.674690 1_444
Pd0 Sb2 2.674690 1_555
Pd1 Sb3 2.674690 1_555
Pd1 Sb1 2.674690 1_445
Pd1 Sb0 2.674690 1_445
Pd1 Sb2 2.674690 1_555
