# generated using pymatgen
data_Li3(CoO2)4
_symmetry_space_group_name_H-M   'P 1'
_cell_length_a   5.75452437
_cell_length_b   10.24004406
_cell_length_c   5.77010631
_cell_angle_alpha   106.43144216
_cell_angle_beta   60.43357806
_cell_angle_gamma   106.41959422
_symmetry_Int_Tables_number   1
_chemical_formula_structural   Li3(CoO2)4
_chemical_formula_sum   'Li6 Co8 O16'
_cell_volume   279.45568942
_cell_formula_units_Z   2
loop_
 _symmetry_equiv_pos_site_id
 _symmetry_equiv_pos_as_xyz
  1  'x, y, z'
loop_
 _atom_site_type_symbol
 _atom_site_label
 _atom_site_symmetry_multiplicity
 _atom_site_fract_x
 _atom_site_fract_y
 _atom_site_fract_z
 _atom_site_occupancy
  Li  Li0  1  0.49764000  0.99680300  0.99760800  1
  Li  Li1  1  0.00235900  0.50319700  0.50239100  1
  Li  Li2  1  0.00063300  0.00326200  0.50505300  1
  Li  Li3  1  0.49936700  0.49673800  0.99494700  1
  Li  Li4  1  0.49451800  0.99985400  0.50576500  1
  Li  Li5  1  0.00548200  0.50014500  0.99423600  1
  Co  Co0  1  0.25000000  0.75000000  0.75000000  1
  Co  Co1  1  0.75000000  0.75000000  0.75000000  1
  Co  Co2  1  0.25000000  0.25000000  0.75000000  1
  Co  Co3  1  0.75000000  0.25000000  0.75000000  1
  Co  Co4  1  0.25000000  0.75000000  0.25000000  1
  Co  Co5  1  0.75000000  0.25000000  0.25000000  1
  Co  Co6  1  0.25000000  0.25000000  0.25000000  1
  Co  Co7  1  0.75000000  0.75000000  0.25000000  1
  O  O0  1  0.36893800  0.13659600  0.39837200  1
  O  O1  1  0.90011300  0.63646800  0.86749400  1
  O  O2  1  0.13106200  0.36340400  0.10162800  1
  O  O3  1  0.59988600  0.86353200  0.63250600  1
  O  O4  1  0.87748900  0.14310700  0.38841800  1
  O  O5  1  0.36709600  0.64456000  0.88922200  1
  O  O6  1  0.11115700  0.35467500  0.63466200  1
  O  O7  1  0.61454000  0.85432200  0.12146400  1
  O  O8  1  0.88951200  0.14374000  0.86520300  1
  O  O9  1  0.36420500  0.64470700  0.39219700  1
  O  O10  1  0.61048800  0.35626000  0.63479700  1
  O  O11  1  0.13579500  0.85529200  0.10780300  1
  O  O12  1  0.38884400  0.14532500  0.86533800  1
  O  O13  1  0.88546000  0.64567700  0.37853500  1
  O  O14  1  0.62251100  0.35689300  0.11158200  1
  O  O15  1  0.13290400  0.85544000  0.61077700  1
loop_
_geom_bond_atom_site_label_1
_geom_bond_atom_site_label_2
_geom_bond_distance
_geom_bond_site_symmetry_2
Li0 O3 2.061773 1_555
Li0 O11 2.085360 1_556
Li0 O7 2.170528 1_556
Li0 O12 2.225765 1_565
Li0 O8 2.228171 1_565
Li0 O0 2.231948 1_566
Li1 O1 2.061777 1_455
Li1 O9 2.085358 1_555
Li1 O13 2.170516 1_455
Li1 O6 2.225776 1_555
Li1 O10 2.228167 1_455
Li1 O2 2.231944 1_555
Li2 O0 2.070522 1_555
Li2 O8 2.077053 1_455
Li2 O4 2.143672 1_455
Li2 O15 2.207899 1_545
Li2 O3 2.227661 1_445
Li2 O11 2.257627 1_545
Li3 O2 2.070522 1_556
Li3 O10 2.077053 1_555
Li3 O14 2.143672 1_556
Li3 O5 2.207902 1_555
Li3 O1 2.227658 1_555
Li3 O9 2.257622 1_556
Li4 O3 2.084413 1_555
Li4 O0 2.090877 1_565
Li4 O15 2.099317 1_555
Li4 O12 2.100475 1_565
Li4 O4 2.174579 1_565
Li4 O7 2.194529 1_555
Li5 O1 2.084429 1_455
Li5 O2 2.090865 1_556
Li5 O5 2.099322 1_555
Li5 O6 2.100473 1_555
Li5 O14 2.174574 1_456
Li5 O13 2.194522 1_456
Co0 O3 1.908031 1_555
Co0 O1 1.908035 1_455
Co0 O11 1.912875 1_556
Co0 O9 1.912878 1_555
Co0 O5 1.923891 1_555
Co0 O15 1.923895 1_555
Co1 O7 1.967101 1_556
Co1 O13 1.967109 1_555
Co1 O5 2.016211 1_555
Co1 O15 2.016211 1_655
Co1 O1 2.036905 1_555
Co1 O3 2.036910 1_555
Co2 O6 1.908574 1_555
Co2 O12 1.908579 1_555
Co2 O0 1.918204 1_555
Co2 O2 1.918204 1_556
Co2 O10 1.923905 1_555
Co2 O8 1.923905 1_455
Co3 O12 1.921017 1_555
Co3 O6 1.921021 1_655
Co3 O8 1.923561 1_555
Co3 O10 1.923561 1_555
Co3 O14 1.934102 1_556
Co3 O4 1.934102 1_555
Co4 O11 1.923753 1_555
Co4 O9 1.923761 1_555
Co4 O15 1.925828 1_555
Co4 O5 1.925832 1_554
Co4 O7 1.933329 1_555
Co4 O13 1.933332 1_455
Co5 O14 1.975113 1_555
Co5 O4 1.975113 1_555
Co5 O10 2.031325 1_555
Co5 O8 2.031325 1_554
Co5 O2 2.039644 1_655
Co5 O0 2.039644 1_555
Co6 O14 1.977280 1_555
Co6 O4 1.977280 1_455
Co6 O6 2.025292 1_555
Co6 O12 2.025292 1_554
Co6 O0 2.034689 1_555
Co6 O2 2.034689 1_555
Co7 O7 1.946387 1_555
Co7 O13 1.946391 1_555
Co7 O11 2.028308 1_655
Co7 O9 2.028312 1_555
Co7 O1 2.050286 1_554
Co7 O3 2.050287 1_555
