# generated using pymatgen
data_Li3MnV(PO4)3
_symmetry_space_group_name_H-M   'P 1'
_cell_length_a   8.61768986
_cell_length_b   8.84991684
_cell_length_c   12.28656014
_cell_angle_alpha   90.00000000
_cell_angle_beta   86.89441651
_cell_angle_gamma   90.00000000
_symmetry_Int_Tables_number   1
_chemical_formula_structural   Li3MnV(PO4)3
_chemical_formula_sum   'Li12 Mn4 V4 P12 O48'
_cell_volume   935.66866528
_cell_formula_units_Z   4
loop_
 _symmetry_equiv_pos_site_id
 _symmetry_equiv_pos_as_xyz
  1  'x, y, z'
loop_
 _atom_site_type_symbol
 _atom_site_label
 _atom_site_symmetry_multiplicity
 _atom_site_fract_x
 _atom_site_fract_y
 _atom_site_fract_z
 _atom_site_occupancy
  Li  Li0  1  0.00305227  0.00818502  0.00652017  1
  Li  Li1  1  0.97993917  0.10770791  0.24383851  1
  Li  Li2  1  0.00305227  0.99181498  0.50652017  1
  Li  Li3  1  0.97993917  0.89229209  0.74383851  1
  Li  Li4  1  0.27558706  0.80460193  0.06134740  1
  Li  Li5  1  0.27558706  0.19539807  0.56134740  1
  Li  Li6  1  0.50932931  0.50606096  0.99884799  1
  Li  Li7  1  0.50752548  0.40659714  0.26279473  1
  Li  Li8  1  0.50932931  0.49393904  0.49884699  1
  Li  Li9  1  0.50752548  0.59340286  0.76279473  1
  Li  Li10  1  0.71801825  0.80046663  0.44258697  1
  Li  Li11  1  0.71801825  0.19953337  0.94258697  1
  Mn  Mn0  1  0.71217991  0.00234585  0.14234918  1
  Mn  Mn1  1  0.71217991  0.99765415  0.64234918  1
  Mn  Mn2  1  0.79506206  0.49893035  0.35449754  1
  Mn  Mn3  1  0.79506206  0.50106965  0.85449754  1
  V  V0  1  0.21146643  0.50034573  0.14486817  1
  V  V1  1  0.21146643  0.49965427  0.64486817  1
  V  V2  1  0.28640093  0.99706238  0.35433818  1
  V  V3  1  0.28640093  0.00293762  0.85433818  1
  P  P0  1  0.00415508  0.80511582  0.24907891  1
  P  P1  1  0.00415508  0.19488418  0.74907891  1
  P  P2  1  0.16332669  0.35247877  0.39471224  1
  P  P3  1  0.16332669  0.64752123  0.89471224  1
  P  P4  1  0.35080238  0.15131474  0.09831659  1
  P  P5  1  0.35080238  0.84868526  0.59831659  1
  P  P6  1  0.49687973  0.70962069  0.25012908  1
  P  P7  1  0.49687973  0.29037931  0.75012908  1
  P  P8  1  0.64788392  0.14248651  0.39674717  1
  P  P9  1  0.64788392  0.85751349  0.89674717  1
  P  P10  1  0.83941854  0.35913128  0.10673527  1
  P  P11  1  0.83941854  0.64086872  0.60673527  1
  O  O0  1  0.00287951  0.42421345  0.11194721  1
  O  O1  1  0.00287951  0.57578655  0.61194721  1
  O  O2  1  0.07671993  0.91504533  0.33557598  1
  O  O3  1  0.07671993  0.08495467  0.83557598  1
  O  O4  1  0.13057185  0.70385639  0.19283778  1
  O  O5  1  0.13057185  0.29614361  0.69283678  1
  O  O6  1  0.16635882  0.17376554  0.41015520  1
  O  O7  1  0.16635882  0.82623446  0.91015520  1
  O  O8  1  0.25825808  0.40165533  0.29093707  1
  O  O9  1  0.25318995  0.06081724  0.01534715  1
  O  O10  1  0.25399972  0.40704499  0.49323490  1
  O  O11  1  0.25825808  0.59834467  0.79093707  1
  O  O12  1  0.25318995  0.93918276  0.51534715  1
  O  O13  1  0.27924458  0.09500767  0.21109744  1
  O  O14  1  0.25399972  0.59295501  0.99323490  1
  O  O15  1  0.27924458  0.90499233  0.71109744  1
  O  O16  1  0.32934076  0.32316653  0.08318189  1
  O  O17  1  0.32934076  0.67683347  0.58318189  1
  O  O18  1  0.36752989  0.81270853  0.30714614  1
  O  O19  1  0.36752989  0.18729147  0.80714614  1
  O  O20  1  0.42721592  0.60388800  0.16379765  1
  O  O21  1  0.42721592  0.39611200  0.66379765  1
  O  O22  1  0.47759242  0.08232675  0.39831571  1
  O  O23  1  0.47759242  0.91767325  0.89831571  1
  O  O24  1  0.52429377  0.12054281  0.08403368  1
  O  O25  1  0.52429377  0.87945719  0.58403368  1
  O  O26  1  0.55944663  0.61172971  0.34175346  1
  O  O27  1  0.55944663  0.38827029  0.84175346  1
  O  O28  1  0.61526777  0.81075092  0.19038434  1
  O  O29  1  0.61526777  0.18924908  0.69038434  1
  O  O30  1  0.63157575  0.31398104  0.41173361  1
  O  O31  1  0.63157575  0.68601896  0.91173361  1
  O  O32  1  0.73786932  0.09377880  0.28944254  1
  O  O33  1  0.74568644  0.41039450  0.00911652  1
  O  O34  1  0.73786932  0.90622120  0.78944254  1
  O  O35  1  0.74266999  0.05969000  0.48359672  1
  O  O36  1  0.73835799  0.40053422  0.20942122  1
  O  O37  1  0.74568644  0.58960550  0.50911652  1
  O  O38  1  0.74266999  0.94031000  0.98359572  1
  O  O39  1  0.73835799  0.59946578  0.70942122  1
  O  O40  1  0.86189955  0.18241277  0.09266437  1
  O  O41  1  0.86189955  0.81758723  0.59266437  1
  O  O42  1  0.87550268  0.72086742  0.31349319  1
  O  O43  1  0.87550268  0.27913258  0.81349319  1
  O  O44  1  0.94931266  0.91346298  0.15975353  1
  O  O45  1  0.94931266  0.08653702  0.65975353  1
  O  O46  1  0.99418680  0.39486310  0.39332861  1
  O  O47  1  0.99418680  0.60513690  0.89332861  1
loop_
_geom_bond_atom_site_label_1
_geom_bond_atom_site_label_2
_geom_bond_distance
_geom_bond_site_symmetry_2
Li0 O44 2.089813 1_445
Li0 O40 2.199513 1_455
Li0 O9 2.213753 1_555
Li0 O3 2.265275 1_554
Li0 O38 2.354506 1_444
Li0 O7 2.407231 1_544
Li1 O44 2.030189 1_545
Li1 O32 2.134067 1_555
Li1 O2 2.230490 1_645
Li1 O40 2.264187 1_555
Li1 O13 2.591318 1_655
Li2 O45 2.089813 1_465
Li2 O41 2.199513 1_455
Li2 O12 2.213753 1_555
Li2 O2 2.265275 1_555
Li2 O35 2.354504 1_465
Li2 O6 2.407231 1_565
Li3 O45 2.030189 1_565
Li3 O34 2.134067 1_555
Li3 O3 2.230490 1_665
Li3 O41 2.264187 1_555
Li3 O15 2.591318 1_655
Li4 O14 2.064018 1_554
Li4 O7 2.136106 1_554
Li4 O4 2.178982 1_555
Li4 O9 2.347337 1_565
Li4 O20 2.573983 1_555
Li5 O10 2.064018 1_555
Li5 O6 2.136106 1_555
Li5 O5 2.178973 1_555
Li5 O12 2.347337 1_545
Li5 O21 2.573983 1_555
Li6 O31 2.160945 1_555
Li6 O27 2.215484 1_555
Li6 O33 2.215701 1_556
Li6 O20 2.280845 1_556
Li6 O14 2.335404 1_555
Li6 O16 2.434183 1_556
Li7 O36 2.061229 1_555
Li7 O26 2.117567 1_555
Li7 O8 2.157629 1_555
Li7 O20 2.257919 1_555
Li7 O30 2.318470 1_555
Li8 O30 2.160940 1_555
Li8 O26 2.215473 1_555
Li8 O37 2.215702 1_555
Li8 O21 2.280856 1_555
Li8 O10 2.335403 1_555
Li8 O17 2.434188 1_555
Li9 O39 2.061229 1_555
Li9 O27 2.117567 1_555
Li9 O11 2.157629 1_555
Li9 O21 2.257919 1_555
Li9 O31 2.318470 1_555
Li10 O37 2.056328 1_555
Li10 O42 2.149567 1_555
Li10 O41 2.282147 1_555
Li10 O35 2.360833 1_565
Li10 O25 2.445747 1_555
Li10 O26 2.524996 1_555
Li11 O33 2.056328 1_556
Li11 O43 2.149567 1_555
Li11 O40 2.282147 1_556
Li11 O38 2.360830 1_545
Li11 O24 2.445747 1_556
Li11 O27 2.524996 1_555
Mn0 O28 1.966586 1_545
Mn0 O32 2.003336 1_555
Mn0 O38 2.029656 1_544
Mn0 O24 2.086836 1_555
Mn0 O40 2.119320 1_555
Mn0 O44 2.210852 1_545
Mn1 O29 1.966586 1_565
Mn1 O34 2.003336 1_555
Mn1 O35 2.029645 1_565
Mn1 O25 2.086836 1_555
Mn1 O41 2.119320 1_555
Mn1 O45 2.210852 1_565
Mn2 O46 2.027113 1_555
Mn2 O36 2.066088 1_555
Mn2 O37 2.084806 1_555
Mn2 O42 2.134082 1_555
Mn2 O30 2.247483 1_555
Mn2 O26 2.275581 1_555
Mn3 O47 2.027113 1_555
Mn3 O39 2.066088 1_555
Mn3 O33 2.084806 1_556
Mn3 O43 2.134082 1_555
Mn3 O31 2.247483 1_555
Mn3 O27 2.275581 1_555
O0 P10 1.526411 1_455
O0 V0 1.981789 1_555
O1 P11 1.526411 1_455
O1 V1 1.981789 1_555
O2 P0 1.593415 1_555
O2 V2 1.972372 1_555
O3 P1 1.593415 1_555
O3 V3 1.972372 1_555
O4 P0 1.544612 1_555
O4 V0 2.008139 1_555
O5 P1 1.544617 1_555
O5 V1 2.008136 1_555
O6 P2 1.593321 1_555
O6 V2 1.977146 1_545
O7 P3 1.593321 1_555
O7 V3 1.977146 1_565
O8 P2 1.539929 1_555
O8 V0 2.055416 1_555
O9 P4 1.575166 1_555
O9 V3 2.048512 1_554
O10 P2 1.552927 1_555
O10 V1 2.050131 1_555
O11 P3 1.539929 1_555
O11 V1 2.055416 1_555
O12 P5 1.575166 1_555
O12 V2 2.048512 1_555
O13 P4 1.567206 1_555
O13 V2 1.965781 1_545
O14 P3 1.552927 1_555
O14 V0 2.050131 1_556
O15 P5 1.567206 1_555
O15 V3 1.965781 1_565
O16 P4 1.544529 1_555
O16 V0 1.995385 1_555
O17 P5 1.544529 1_555
O17 V1 1.995385 1_555
O18 P6 1.575127 1_555
O18 V2 1.855512 1_555
O19 P7 1.575127 1_555
O19 V3 1.855512 1_555
O20 P6 1.558881 1_555
O20 V0 2.097018 1_555
O21 P7 1.558881 1_555
O21 V1 2.097018 1_555
O22 P8 1.560250 1_555
O22 V2 1.916376 1_545
O23 P9 1.560250 1_555
O23 V3 1.916376 1_565
O24 P4 1.520473 1_555
O25 P5 1.520473 1_555
O26 P6 1.540882 1_555
O27 P7 1.540882 1_555
O28 P6 1.516437 1_555
O29 P7 1.516437 1_555
O30 P8 1.534374 1_555
O31 P9 1.534374 1_555
O32 P8 1.553890 1_555
O33 P10 1.549780 1_555
O34 P9 1.553890 1_555
O35 P8 1.561167 1_555
O36 P10 1.538006 1_555
O37 P11 1.549780 1_555
O38 P9 1.561158 1_555
O39 P11 1.538006 1_555
O40 P10 1.584208 1_555
O41 P11 1.584208 1_555
O42 P0 1.521966 1_655
O43 P1 1.521966 1_655
O44 P0 1.550321 1_655
O45 P1 1.550321 1_655
O46 P2 1.506073 1_655
O47 P3 1.506073 1_655
