# generated using pymatgen
data_Na2UO4
_symmetry_space_group_name_H-M   'P 1'
_cell_length_a   5.76049327
_cell_length_b   5.93645490
_cell_length_c   11.69394250
_cell_angle_alpha   90.00000000
_cell_angle_beta   90.00000000
_cell_angle_gamma   90.00000000
_symmetry_Int_Tables_number   1
_chemical_formula_structural   Na2UO4
_chemical_formula_sum   'Na8 U4 O16'
_cell_volume   399.89668167
_cell_formula_units_Z   4
loop_
 _symmetry_equiv_pos_site_id
 _symmetry_equiv_pos_as_xyz
  1  'x, y, z'
loop_
 _atom_site_type_symbol
 _atom_site_label
 _atom_site_symmetry_multiplicity
 _atom_site_fract_x
 _atom_site_fract_y
 _atom_site_fract_z
 _atom_site_occupancy
  Na  Na0  1  0.00265291  0.05774194  0.33461762  1
  Na  Na1  1  0.50265291  0.44225806  0.66538238  1
  Na  Na2  1  0.99734709  0.55774194  0.16538238  1
  Na  Na3  1  0.49734709  0.94225806  0.83461762  1
  Na  Na4  1  0.50265291  0.05774194  0.16538238  1
  Na  Na5  1  0.00265291  0.44225806  0.83461762  1
  Na  Na6  1  0.49734709  0.55774194  0.33461762  1
  Na  Na7  1  0.99734709  0.94225806  0.66538238  1
  U  U0  1  -0.00000000  -0.00000000  -0.00000000  1
  U  U1  1  0.50000000  0.50000000  -0.00000000  1
  U  U2  1  -0.00000000  0.50000000  0.50000000  1
  U  U3  1  0.50000000  -0.00000000  0.50000000  1
  O  O0  1  0.61205609  0.95922569  0.34619384  1
  O  O1  1  0.11205609  0.54077431  0.65380616  1
  O  O2  1  0.38794391  0.45922569  0.15380616  1
  O  O3  1  0.88794391  0.04077431  0.84619384  1
  O  O4  1  0.38794391  0.04077431  0.65380616  1
  O  O5  1  0.88794391  0.45922569  0.34619384  1
  O  O6  1  0.61205609  0.54077431  0.84619384  1
  O  O7  1  0.11205609  0.95922569  0.15380616  1
  O  O8  1  0.80025396  0.20571400  0.54808109  1
  O  O9  1  0.30025396  0.29428600  0.45191891  1
  O  O10  1  0.19974604  0.70571400  0.95191891  1
  O  O11  1  0.69974604  0.79428600  0.04808109  1
  O  O12  1  0.30025396  0.20571400  0.95191891  1
  O  O13  1  0.80025396  0.29428600  0.04808109  1
  O  O14  1  0.69974604  0.70571400  0.54808109  1
  O  O15  1  0.19974604  0.79428600  0.45191891  1
loop_
_geom_bond_atom_site_label_1
_geom_bond_atom_site_label_2
_geom_bond_distance
_geom_bond_site_symmetry_2
Na0 O7 2.282518 1_545
Na0 O0 2.328733 1_445
Na0 O15 2.369959 1_545
Na0 O5 2.476995 1_455
Na0 O9 2.606222 1_555
Na0 O8 2.891741 1_455
Na1 O6 2.282518 1_555
Na1 O1 2.328733 1_555
Na1 O14 2.369959 1_555
Na1 O4 2.476995 1_555
Na1 O8 2.606222 1_555
Na1 O9 2.891741 1_555
Na2 O5 2.282518 1_555
Na2 O2 2.328733 1_655
Na2 O13 2.369959 1_555
Na2 O7 2.476995 1_655
Na2 O11 2.606222 1_555
Na2 O10 2.891741 1_654
Na3 O4 2.282518 1_565
Na3 O3 2.328733 1_565
Na3 O12 2.369959 1_565
Na3 O6 2.476995 1_555
Na3 O10 2.606222 1_555
Na3 O11 2.891741 1_556
Na4 O0 2.282518 1_545
Na4 O7 2.328733 1_545
Na4 O11 2.369959 1_545
Na4 O2 2.476995 1_555
Na4 O13 2.606222 1_555
Na4 O12 2.891741 1_554
Na5 O1 2.282518 1_555
Na5 O6 2.328733 1_455
Na5 O10 2.369959 1_555
Na5 O3 2.476995 1_455
Na5 O12 2.606222 1_555
Na5 O13 2.891741 1_456
Na6 O2 2.282518 1_555
Na6 O5 2.328733 1_555
Na6 O9 2.369959 1_555
Na6 O0 2.476995 1_555
Na6 O15 2.606222 1_555
Na6 O14 2.891741 1_555
Na7 O3 2.282518 1_565
Na7 O4 2.328733 1_665
Na7 O8 2.369959 1_565
Na7 O1 2.476995 1_655
Na7 O14 2.606222 1_555
Na7 O15 2.891741 1_655
O0 U3 1.926194 1_565
O1 U2 1.926194 1_555
O2 U1 1.926194 1_555
O3 U0 1.926194 1_656
O4 U3 1.926194 1_555
O5 U2 1.926194 1_655
O6 U1 1.926194 1_556
O7 U0 1.926194 1_565
O8 U2 2.166139 1_655
O8 U3 2.190672 1_555
O9 U3 2.166139 1_555
O9 U2 2.190672 1_555
O10 U0 2.166139 1_566
O10 U1 2.190672 1_556
O11 U1 2.166139 1_555
O11 U0 2.190672 1_665
O12 U1 2.166139 1_556
O12 U0 2.190672 1_556
O13 U0 2.166139 1_655
O13 U1 2.190672 1_555
O14 U3 2.166139 1_565
O14 U2 2.190672 1_655
O15 U2 2.166139 1_555
O15 U3 2.190672 1_565
