# generated using pymatgen
data_LiCoP2O7
_symmetry_space_group_name_H-M   'P 1'
_cell_length_a   5.05272202
_cell_length_b   8.77882466
_cell_length_c   14.58797819
_cell_angle_alpha   102.65662305
_cell_angle_beta   89.99380032
_cell_angle_gamma   90.00985566
_symmetry_Int_Tables_number   1
_chemical_formula_structural   LiCoP2O7
_chemical_formula_sum   'Li4 Co4 P8 O28'
_cell_volume   631.35481380
_cell_formula_units_Z   4
loop_
 _symmetry_equiv_pos_site_id
 _symmetry_equiv_pos_as_xyz
  1  'x, y, z'
loop_
 _atom_site_type_symbol
 _atom_site_label
 _atom_site_symmetry_multiplicity
 _atom_site_fract_x
 _atom_site_fract_y
 _atom_site_fract_z
 _atom_site_occupancy
  Li  Li0  1  0.93228600  0.41049500  0.44906800  1
  Li  Li1  1  0.41960300  0.90684700  0.94945800  1
  Li  Li2  1  0.56767100  0.91046400  0.44904800  1
  Li  Li3  1  0.08028500  0.40684900  0.94946500  1
  Co  Co0  1  0.23180600  0.25306600  0.74467000  1
  Co  Co1  1  0.26821400  0.75307200  0.74464800  1
  Co  Co2  1  0.73153100  0.75443600  0.24868800  1
  Co  Co3  1  0.76850300  0.25447000  0.24870400  1
  P  P0  1  0.09595400  0.03804600  0.34688400  1
  P  P1  1  0.60601700  0.53836300  0.84945900  1
  P  P2  1  0.40402000  0.53801500  0.34687300  1
  P  P3  1  0.89395100  0.03826800  0.84943400  1
  P  P4  1  0.41191800  0.45435900  0.15022500  1
  P  P5  1  0.88592000  0.95495900  0.64936600  1
  P  P6  1  0.08809700  0.95434900  0.15024100  1
  P  P7  1  0.61414500  0.45498900  0.64939400  1
  O  O0  1  0.53645800  0.69997700  0.34664000  1
  O  O1  1  0.03036500  0.19719700  0.84744300  1
  O  O2  1  0.96356500  0.19996800  0.34665500  1
  O  O3  1  0.46961800  0.69724300  0.84744900  1
  O  O4  1  0.57495300  0.30483500  0.15372800  1
  O  O5  1  0.05818800  0.81027100  0.65366800  1
  O  O6  1  0.92525400  0.80471400  0.15372300  1
  O  O7  1  0.44202300  0.31020100  0.65366300  1
  O  O8  1  0.25945600  0.99001900  0.24871900  1
  O  O9  1  0.77240500  0.49126300  0.74992100  1
  O  O10  1  0.24056600  0.48989300  0.24871800  1
  O  O11  1  0.72760900  0.99115800  0.74989700  1
  O  O12  1  0.86730100  0.91494900  0.34204000  1
  O  O13  1  0.38285300  0.41229800  0.84212600  1
  O  O14  1  0.63266300  0.41496900  0.34203400  1
  O  O15  1  0.11708900  0.91225000  0.84210800  1
  O  O16  1  0.59909400  0.59654900  0.15717400  1
  O  O17  1  0.07097900  0.09855300  0.65685800  1
  O  O18  1  0.90075400  0.09643500  0.15723100  1
  O  O19  1  0.42894600  0.59850700  0.65690100  1
  O  O20  1  0.28224900  0.04365000  0.42597600  1
  O  O21  1  0.79910500  0.54245400  0.92635800  1
  O  O22  1  0.21770300  0.54366800  0.42597600  1
  O  O23  1  0.70080800  0.04241100  0.92633300  1
  O  O24  1  0.27262400  0.92921500  0.06970500  1
  O  O25  1  0.80727600  0.43078500  0.57147700  1
  O  O26  1  0.22737600  0.42912400  0.06969700  1
  O  O27  1  0.69279700  0.93066600  0.57145200  1
loop_
_geom_bond_atom_site_label_1
_geom_bond_atom_site_label_2
_geom_bond_distance
_geom_bond_site_symmetry_2
Li0 O25 1.865431 1_555
Li0 O22 1.931819 1_655
Li0 O2 2.112543 1_555
Li0 O14 2.181485 1_555
Li1 O24 1.875095 1_556
Li1 O23 1.929815 1_565
Li1 O3 2.112900 1_555
Li1 O15 2.196390 1_555
Li2 O27 1.865760 1_555
Li2 O20 1.932176 1_565
Li2 O0 2.112204 1_555
Li2 O12 2.181010 1_555
Li3 O26 1.875325 1_556
Li3 O21 1.930232 1_455
Li3 O1 2.113205 1_555
Li3 O13 2.196290 1_555
Co0 O17 1.838380 1_555
Co0 O7 1.853009 1_555
Co0 O13 1.920076 1_555
Co0 O1 1.961123 1_555
Co1 O19 1.838011 1_555
Co1 O5 1.852655 1_555
Co1 O15 1.920067 1_555
Co1 O3 1.961470 1_555
Co2 O6 1.827463 1_555
Co2 O16 1.827619 1_555
Co2 O12 1.862716 1_555
Co2 O0 1.881698 1_555
Co3 O4 1.827679 1_555
Co3 O18 1.827785 1_555
Co3 O14 1.862662 1_555
Co3 O2 1.882064 1_555
O0 P2 1.572009 1_555
O1 P3 1.562037 1_455
O2 P0 1.571782 1_655
O3 P1 1.561891 1_555
O4 P4 1.560135 1_555
O5 P5 1.552508 1_455
O6 P6 1.560140 1_655
O7 P7 1.552463 1_555
O8 P0 1.626728 1_565
O8 P6 1.647594 1_555
O9 P7 1.639189 1_555
O9 P1 1.650148 1_555
O10 P2 1.626624 1_555
O10 P4 1.647651 1_555
O11 P5 1.639264 1_555
O11 P3 1.650110 1_565
O12 P0 1.572794 1_665
O13 P1 1.566972 1_555
O14 P2 1.572723 1_555
O15 P3 1.566858 1_465
O16 P4 1.551462 1_555
O17 P5 1.553894 1_445
O18 P6 1.551438 1_645
O19 P7 1.554012 1_555
O20 P0 1.481567 1_555
O21 P1 1.481260 1_555
O22 P2 1.481555 1_555
O23 P3 1.481227 1_555
O24 P6 1.478010 1_555
O25 P7 1.477626 1_555
O26 P4 1.478059 1_555
O27 P5 1.477662 1_555
