# generated using pymatgen
data_Ho2MgPd2
_symmetry_space_group_name_H-M   'P 1'
_cell_length_a   3.83195400
_cell_length_b   7.60376000
_cell_length_c   7.60376000
_cell_angle_alpha   90.00000000
_cell_angle_beta   90.00000000
_cell_angle_gamma   90.00000000
_symmetry_Int_Tables_number   1
_chemical_formula_structural   Ho2MgPd2
_chemical_formula_sum   'Ho4 Mg2 Pd4'
_cell_volume   221.55272105
_cell_formula_units_Z   2
loop_
 _symmetry_equiv_pos_site_id
 _symmetry_equiv_pos_as_xyz
  1  'x, y, z'
loop_
 _atom_site_type_symbol
 _atom_site_label
 _atom_site_symmetry_multiplicity
 _atom_site_fract_x
 _atom_site_fract_y
 _atom_site_fract_z
 _atom_site_occupancy
  Ho  Ho0  1  0.50000000  0.17096300  0.67096300  1
  Ho  Ho1  1  0.50000000  0.82903700  0.32903700  1
  Ho  Ho2  1  0.50000000  0.32903700  0.17096300  1
  Ho  Ho3  1  0.50000000  0.67096300  0.82903700  1
  Mg  Mg0  1  0.00000000  0.00000000  0.00000000  1
  Mg  Mg1  1  0.00000000  0.50000000  0.50000000  1
  Pd  Pd0  1  0.00000000  0.63071800  0.13071800  1
  Pd  Pd1  1  0.00000000  0.36928200  0.86928200  1
  Pd  Pd2  1  0.00000000  0.86928200  0.63071800  1
  Pd  Pd3  1  0.00000000  0.13071800  0.36928200  1
loop_
_geom_bond_atom_site_label_1
_geom_bond_atom_site_label_2
_geom_bond_distance
_geom_bond_site_symmetry_2
Ho0 Pd1 2.866865 1_555
Ho0 Pd1 2.866865 1_655
Ho0 Pd2 3.004436 1_545
Ho0 Pd3 3.004436 1_555
Ho0 Pd2 3.004436 1_645
Ho0 Pd3 3.004436 1_655
Ho1 Pd0 2.866865 1_555
Ho1 Pd0 2.866865 1_655
Ho1 Pd3 3.004436 1_565
Ho1 Pd3 3.004436 1_665
Ho1 Pd2 3.004436 1_555
Ho1 Pd2 3.004436 1_655
Ho2 Pd3 2.866865 1_655
Ho2 Pd3 2.866865 1_555
Ho2 Pd1 3.004436 1_654
Ho2 Pd1 3.004436 1_554
Ho2 Pd0 3.004436 1_655
Ho2 Pd0 3.004436 1_555
Ho3 Pd2 2.866865 1_655
Ho3 Pd2 2.866865 1_555
Ho3 Pd1 3.004436 1_555
Ho3 Pd1 3.004436 1_655
Ho3 Pd0 3.004436 1_556
Ho3 Pd0 3.004436 1_656
Mg0 Pd1 2.978660 1_554
Mg0 Pd0 2.978660 1_545
Mg0 Pd3 2.978660 1_555
Mg0 Pd2 2.978660 1_544
Mg1 Pd2 2.978660 1_555
Mg1 Pd3 2.978660 1_555
Mg1 Pd1 2.978660 1_555
Mg1 Pd0 2.978660 1_555
