# generated using pymatgen
data_NdTeF
_symmetry_space_group_name_H-M   'P 1'
_cell_length_a   4.21249900
_cell_length_b   4.21249900
_cell_length_c   7.66087800
_cell_angle_alpha   90.00000000
_cell_angle_beta   90.00000000
_cell_angle_gamma   90.00000000
_symmetry_Int_Tables_number   1
_chemical_formula_structural   NdTeF
_chemical_formula_sum   'Nd2 Te2 F2'
_cell_volume   135.94341258
_cell_formula_units_Z   2
loop_
 _symmetry_equiv_pos_site_id
 _symmetry_equiv_pos_as_xyz
  1  'x, y, z'
loop_
 _atom_site_type_symbol
 _atom_site_label
 _atom_site_symmetry_multiplicity
 _atom_site_fract_x
 _atom_site_fract_y
 _atom_site_fract_z
 _atom_site_occupancy
  Nd  Nd0  1  0.00000000  0.50000000  0.80138000  1
  Nd  Nd1  1  0.50000000  0.00000000  0.19862000  1
  Te  Te0  1  0.50000000  0.00000000  0.64020500  1
  Te  Te1  1  0.00000000  0.50000000  0.35979500  1
  F  F0  1  0.00000000  0.00000000  0.00000000  1
  F  F1  1  0.50000000  0.50000000  0.00000000  1
loop_
_geom_bond_atom_site_label_1
_geom_bond_atom_site_label_2
_geom_bond_distance
_geom_bond_site_symmetry_2
Nd0 Te0 3.224463 1_455
Nd0 Te0 3.224463 1_555
Nd0 Te0 3.224463 1_465
Nd0 Te0 3.224463 1_565
Nd0 Te1 3.382929 1_555
Nd1 Te1 3.224463 1_545
Nd1 Te1 3.224463 1_555
Nd1 Te1 3.224463 1_655
Nd1 Te1 3.224463 1_645
Nd1 Te0 3.382929 1_555
F0 Nd1 2.598377 1_555
F0 Nd1 2.598377 1_455
F0 Nd0 2.598377 1_554
F0 Nd0 2.598377 1_544
F1 Nd0 2.598377 1_654
F1 Nd1 2.598377 1_555
F1 Nd0 2.598377 1_554
F1 Nd1 2.598377 1_565
