# generated using pymatgen
data_NaUH9(SeO6)2
_symmetry_space_group_name_H-M   'P 1'
_cell_length_a   10.58194300
_cell_length_b   8.97862200
_cell_length_c   14.04366619
_cell_angle_alpha   65.85900304
_cell_angle_beta   90.00000000
_cell_angle_gamma   90.00000000
_symmetry_Int_Tables_number   1
_chemical_formula_structural   NaUH9(SeO6)2
_chemical_formula_sum   'Na4 U4 H36 Se8 O48'
_cell_volume   1217.61042151
_cell_formula_units_Z   4
loop_
 _symmetry_equiv_pos_site_id
 _symmetry_equiv_pos_as_xyz
  1  'x, y, z'
loop_
 _atom_site_type_symbol
 _atom_site_label
 _atom_site_symmetry_multiplicity
 _atom_site_fract_x
 _atom_site_fract_y
 _atom_site_fract_z
 _atom_site_occupancy
  Na  Na0  1  0.42418900  0.13489200  0.27609000  1
  Na  Na1  1  0.07581100  0.13489200  0.77609000  1
  Na  Na2  1  0.57581100  0.86510800  0.72391000  1
  Na  Na3  1  0.92418900  0.86510800  0.22391000  1
  U  U0  1  0.68116500  0.44570300  0.34008300  1
  U  U1  1  0.81883500  0.44570300  0.84008300  1
  U  U2  1  0.31883500  0.55429700  0.65991700  1
  U  U3  1  0.18116500  0.55429700  0.15991700  1
  H  H0  1  0.16851400  0.12136400  0.46979600  1
  H  H1  1  0.33148600  0.12136400  0.96979600  1
  H  H2  1  0.83148600  0.87863600  0.53020400  1
  H  H3  1  0.66851400  0.87863600  0.03020400  1
  H  H4  1  0.28307300  0.84249300  0.26366700  1
  H  H5  1  0.21692700  0.84249300  0.76366700  1
  H  H6  1  0.71692700  0.15750700  0.73633300  1
  H  H7  1  0.78307300  0.15750700  0.23633300  1
  H  H8  1  0.19586500  0.99185900  0.23745000  1
  H  H9  1  0.30413500  0.99185900  0.73745000  1
  H  H10  1  0.80413500  0.00814100  0.76255000  1
  H  H11  1  0.69586500  0.00814100  0.26255000  1
  H  H12  1  0.29401700  0.93150400  0.47805000  1
  H  H13  1  0.20598300  0.93150400  0.97805000  1
  H  H14  1  0.70598300  0.06849600  0.52195000  1
  H  H15  1  0.79401700  0.06849600  0.02195000  1
  H  H16  1  0.38498900  0.05891600  0.48909700  1
  H  H17  1  0.11501100  0.05891600  0.98909700  1
  H  H18  1  0.61501100  0.94108400  0.51090300  1
  H  H19  1  0.88498900  0.94108400  0.01090300  1
  H  H20  1  0.55145500  0.39806500  0.13026400  1
  H  H21  1  0.94854500  0.39806500  0.63026400  1
  H  H22  1  0.44854500  0.60193500  0.86973600  1
  H  H23  1  0.05145500  0.60193500  0.36973600  1
  H  H24  1  0.57951200  0.28785100  0.07036300  1
  H  H25  1  0.92048800  0.28785100  0.57036300  1
  H  H26  1  0.42048800  0.71214900  0.92963700  1
  H  H27  1  0.07951200  0.71214900  0.42963700  1
  H  H28  1  0.53258700  0.78474100  0.38067000  1
  H  H29  1  0.96741300  0.78474100  0.88067000  1
  H  H30  1  0.46741300  0.21525900  0.61933000  1
  H  H31  1  0.03258700  0.21525900  0.11933000  1
  H  H32  1  0.65192200  0.87003100  0.39931100  1
  H  H33  1  0.84807800  0.87003100  0.89931100  1
  H  H34  1  0.34807800  0.12996900  0.60068900  1
  H  H35  1  0.15192200  0.12996900  0.10068900  1
  Se  Se0  1  0.35924400  0.51243700  0.40474300  1
  Se  Se1  1  0.14075600  0.51243700  0.90474300  1
  Se  Se2  1  0.64075600  0.48756300  0.59525700  1
  Se  Se3  1  0.85924400  0.48756300  0.09525700  1
  Se  Se4  1  0.99389800  0.24433800  0.36960300  1
  Se  Se5  1  0.50610200  0.24433800  0.86960300  1
  Se  Se6  1  0.00610200  0.75566200  0.63039700  1
  Se  Se7  1  0.49389800  0.75566200  0.13039700  1
  O  O0  1  0.57952500  0.26569100  0.37493500  1
  O  O1  1  0.92047500  0.26569100  0.87493500  1
  O  O2  1  0.42047500  0.73430900  0.62506500  1
  O  O3  1  0.07952500  0.73430900  0.12506500  1
  O  O4  1  0.77099300  0.63547200  0.29785600  1
  O  O5  1  0.72900700  0.63547200  0.79785600  1
  O  O6  1  0.22900700  0.36452800  0.70214400  1
  O  O7  1  0.27099300  0.36452800  0.20214400  1
  O  O8  1  0.51330000  0.59052000  0.37709600  1
  O  O9  1  0.98670000  0.59052000  0.87709600  1
  O  O10  1  0.48670000  0.40948000  0.62290400  1
  O  O11  1  0.01330000  0.40948000  0.12290400  1
  O  O12  1  0.28993200  0.62675500  0.28448900  1
  O  O13  1  0.21006800  0.62675500  0.78448900  1
  O  O14  1  0.71006800  0.37324500  0.71551100  1
  O  O15  1  0.78993200  0.37324500  0.21551100  1
  O  O16  1  0.30492000  0.60973700  0.47856500  1
  O  O17  1  0.19508000  0.60973700  0.97856500  1
  O  O18  1  0.69508000  0.39026300  0.52143500  1
  O  O19  1  0.80492000  0.39026300  0.02143500  1
  O  O20  1  0.06132200  0.43590400  0.31622300  1
  O  O21  1  0.43867800  0.43590400  0.81622300  1
  O  O22  1  0.93867800  0.56409600  0.68377700  1
  O  O23  1  0.56132200  0.56409600  0.18377700  1
  O  O24  1  0.86036300  0.27256300  0.42832600  1
  O  O25  1  0.63963700  0.27256300  0.92832600  1
  O  O26  1  0.13963700  0.72743700  0.57167400  1
  O  O27  1  0.36036300  0.72743700  0.07167400  1
  O  O28  1  0.08457500  0.15593300  0.48749300  1
  O  O29  1  0.41542500  0.15593300  0.98749300  1
  O  O30  1  0.91542500  0.84406700  0.51250700  1
  O  O31  1  0.58457500  0.84406700  0.01250700  1
  O  O32  1  0.28505700  0.96201400  0.24189000  1
  O  O33  1  0.21494300  0.96201400  0.74189000  1
  O  O34  1  0.71494300  0.03798600  0.75811000  1
  O  O35  1  0.78505700  0.03798600  0.25811000  1
  O  O36  1  0.31285200  0.04865400  0.44830600  1
  O  O37  1  0.18714800  0.04865400  0.94830600  1
  O  O38  1  0.68714800  0.95134600  0.55169400  1
  O  O39  1  0.81285200  0.95134600  0.05169400  1
  O  O40  1  0.53719800  0.28909500  0.13186500  1
  O  O41  1  0.96280200  0.28909500  0.63186500  1
  O  O42  1  0.46280200  0.71090500  0.86813500  1
  O  O43  1  0.03719800  0.71090500  0.36813500  1
  O  O44  1  0.56314700  0.89051900  0.37953800  1
  O  O45  1  0.93685300  0.89051900  0.87953800  1
  O  O46  1  0.43685300  0.10948100  0.62046200  1
  O  O47  1  0.06314700  0.10948100  0.12046200  1
loop_
_geom_bond_atom_site_label_1
_geom_bond_atom_site_label_2
_geom_bond_distance
_geom_bond_site_symmetry_2
Na0 O40 2.270597 1_555
Na0 O32 2.327544 1_545
Na0 O7 2.491210 1_555
Na0 O36 2.511010 1_555
Na0 O44 2.545518 1_545
Na0 O0 2.709532 1_555
Na1 O41 2.270597 1_455
Na1 O33 2.327544 1_545
Na1 O6 2.491210 1_555
Na1 O37 2.511010 1_555
Na1 O45 2.545518 1_445
Na1 O1 2.709532 1_455
Na2 O42 2.270597 1_555
Na2 O34 2.327544 1_565
Na2 O5 2.491210 1_555
Na2 O38 2.511010 1_555
Na2 O46 2.545518 1_565
Na2 O2 2.709532 1_555
Na3 O43 2.270597 1_655
Na3 O35 2.327544 1_565
Na3 O4 2.491210 1_555
Na3 O39 2.511010 1_555
Na3 O47 2.545518 1_665
Na3 O3 2.709532 1_655
H0 O28 1.005071 1_555
H1 O29 1.005071 1_555
H2 O30 1.005071 1_555
H3 O31 1.005071 1_555
H4 O32 0.988502 1_555
H5 O33 0.988502 1_555
H6 O34 0.988502 1_555
H7 O35 0.988502 1_555
H8 O32 0.976131 1_555
H9 O33 0.976131 1_555
H10 O34 0.976131 1_555
H11 O35 0.976131 1_555
H12 O36 0.980407 1_565
H13 O37 0.980407 1_565
H14 O38 0.980407 1_545
H15 O39 0.980407 1_545
H16 O36 0.981086 1_555
H17 O37 0.981086 1_555
H18 O38 0.981086 1_555
H19 O39 0.981086 1_555
H20 O40 0.981091 1_555
H21 O41 0.981091 1_555
H22 O42 0.981091 1_555
H23 O43 0.981091 1_555
H24 O40 0.976990 1_555
H25 O41 0.976990 1_555
H26 O42 0.976990 1_555
H27 O43 0.976990 1_555
H28 O44 0.997240 1_555
H28 O8 1.776720 1_555
H29 O45 0.997240 1_555
H29 O9 1.776720 1_555
H30 O46 0.997240 1_555
H30 O10 1.776720 1_555
H31 O47 0.997240 1_555
H31 O11 1.776720 1_555
H32 O44 0.975531 1_555
H33 O45 0.975531 1_555
H34 O46 0.975531 1_555
H35 O47 0.975531 1_555
O0 U0 1.833463 1_555
O1 U1 1.833463 1_555
O2 U2 1.833463 1_555
O3 U3 1.833463 1_555
O4 U0 1.825345 1_555
O5 U1 1.825345 1_555
O6 U2 1.825345 1_555
O7 U3 1.825345 1_555
O8 Se0 1.754194 1_555
O8 U0 2.380982 1_555
O9 Se1 1.754194 1_655
O9 U1 2.380982 1_555
O10 Se2 1.754194 1_555
O10 U2 2.380982 1_555
O11 Se3 1.754194 1_455
O11 U3 2.380982 1_555
O12 Se0 1.739448 1_555
O12 U3 2.395725 1_555
O13 Se1 1.739448 1_555
O13 U2 2.395725 1_555
O14 Se2 1.739448 1_555
O14 U1 2.395725 1_555
O15 Se3 1.739448 1_555
O15 U0 2.395725 1_555
O16 Se0 1.705673 1_555
O16 U2 2.391424 1_555
O17 Se1 1.705673 1_555
O17 U3 2.391424 1_556
O18 Se2 1.705673 1_555
O18 U0 2.391424 1_555
O19 Se3 1.705673 1_555
O19 U1 2.391424 1_554
O20 Se4 1.724742 1_455
O20 U3 2.376571 1_555
O21 Se5 1.724742 1_555
O21 U2 2.376571 1_555
O22 Se6 1.724742 1_655
O22 U1 2.376571 1_555
O23 Se7 1.724742 1_555
O23 U0 2.376571 1_555
O24 Se4 1.706463 1_555
O24 U0 2.443851 1_555
O25 Se5 1.706463 1_555
O25 U1 2.443851 1_555
O26 Se6 1.706463 1_555
O26 U2 2.443851 1_555
O27 Se7 1.706463 1_555
O27 U3 2.443851 1_555
O28 Se4 1.793564 1_455
O29 Se5 1.793564 1_555
O30 Se6 1.793564 1_655
O31 Se7 1.793564 1_555
