# generated using pymatgen
data_K2NaMo(OF)3
_symmetry_space_group_name_H-M   'P 1'
_cell_length_a   6.11212771
_cell_length_b   6.05254955
_cell_length_c   6.01512595
_cell_angle_alpha   60.85936367
_cell_angle_beta   59.87280862
_cell_angle_gamma   59.26782771
_symmetry_Int_Tables_number   1
_chemical_formula_structural   K2NaMo(OF)3
_chemical_formula_sum   'K2 Na1 Mo1 O3 F3'
_cell_volume   157.28562970
_cell_formula_units_Z   1
loop_
 _symmetry_equiv_pos_site_id
 _symmetry_equiv_pos_as_xyz
  1  'x, y, z'
loop_
 _atom_site_type_symbol
 _atom_site_label
 _atom_site_symmetry_multiplicity
 _atom_site_fract_x
 _atom_site_fract_y
 _atom_site_fract_z
 _atom_site_occupancy
  K  K0  1  0.75933800  0.75933800  0.74066200  1
  K  K1  1  0.25933800  0.25933800  0.24066200  1
  Na  Na0  1  0.50347900  0.50347900  0.49652100  1
  Mo  Mo0  1  0.02084000  0.02084000  0.97916000  1
  O  O0  1  0.19519400  0.76716500  0.80480600  1
  O  O1  1  0.22546400  0.22546400  0.77453600  1
  O  O2  1  0.76716500  0.19519400  0.23283500  1
  F  F0  1  0.23822300  0.76728200  0.23271800  1
  F  F1  1  0.76367600  0.76367600  0.23632400  1
  F  F2  1  0.76728200  0.23822300  0.76177700  1
loop_
_geom_bond_atom_site_label_1
_geom_bond_atom_site_label_2
_geom_bond_distance
_geom_bond_site_symmetry_2
K0 O2 2.902869 1_565
K0 O0 2.902869 1_655
K0 O1 3.021954 1_565
K0 O1 3.021954 1_655
K0 O2 3.248997 1_556
K0 O0 3.248997 1_555
K1 O2 2.902869 1_555
K1 O0 2.902869 1_554
K1 O1 3.021954 1_555
K1 O1 3.021954 1_554
K1 O0 3.248997 1_545
K1 O2 3.248997 1_455
Na0 O0 2.416091 1_555
Na0 O2 2.416091 1_555
Na0 O1 2.417603 1_555
Mo0 O1 1.779399 1_555
Mo0 O2 1.834929 1_456
Mo0 O0 1.834929 1_545
F0 Mo0 2.029138 1_564
F0 Na0 2.272700 1_555
F0 K1 2.988010 1_555
F0 K0 2.988010 1_455
F0 K0 3.070211 1_554
F0 K1 3.070211 1_565
F1 Mo0 2.236284 1_664
F1 Na0 2.262659 1_555
F1 K0 3.007800 1_554
F1 K1 3.007800 1_655
F1 K1 3.007800 1_565
F1 K0 3.007800 1_555
F2 Mo0 2.029138 1_655
F2 Na0 2.272700 1_555
F2 K0 2.988010 1_545
F2 K1 2.988010 1_556
F2 K1 3.070211 1_655
F2 K0 3.070211 1_555
