# generated using pymatgen
data_BaLaCuTe3
_symmetry_space_group_name_H-M   'P 1'
_cell_length_a   4.55027900
_cell_length_b   11.98632400
_cell_length_c   15.00676300
_cell_angle_alpha   90.00000000
_cell_angle_beta   90.00000000
_cell_angle_gamma   90.00000000
_symmetry_Int_Tables_number   1
_chemical_formula_structural   BaLaCuTe3
_chemical_formula_sum   'Ba4 La4 Cu4 Te12'
_cell_volume   818.48563735
_cell_formula_units_Z   4
loop_
 _symmetry_equiv_pos_site_id
 _symmetry_equiv_pos_as_xyz
  1  'x, y, z'
loop_
 _atom_site_type_symbol
 _atom_site_label
 _atom_site_symmetry_multiplicity
 _atom_site_fract_x
 _atom_site_fract_y
 _atom_site_fract_z
 _atom_site_occupancy
  Ba  Ba0  1  0.25000000  0.27515000  0.99835400  1
  Ba  Ba1  1  0.75000000  0.72485000  0.00164600  1
  Ba  Ba2  1  0.25000000  0.77515000  0.50164600  1
  Ba  Ba3  1  0.75000000  0.22485000  0.49835400  1
  La  La0  1  0.25000000  0.01727400  0.24199100  1
  La  La1  1  0.75000000  0.98272600  0.75800900  1
  La  La2  1  0.25000000  0.51727400  0.25800900  1
  La  La3  1  0.75000000  0.48272600  0.74199100  1
  Cu  Cu0  1  0.75000000  0.26152300  0.21926500  1
  Cu  Cu1  1  0.25000000  0.23847700  0.71926500  1
  Cu  Cu2  1  0.75000000  0.76152300  0.28073500  1
  Cu  Cu3  1  0.25000000  0.73847700  0.78073500  1
  Te  Te0  1  0.25000000  0.26297300  0.32121900  1
  Te  Te1  1  0.75000000  0.73702700  0.67878100  1
  Te  Te2  1  0.25000000  0.76297300  0.17878100  1
  Te  Te3  1  0.75000000  0.23702700  0.82121900  1
  Te  Te4  1  0.25000000  0.40753500  0.60488100  1
  Te  Te5  1  0.75000000  0.09246500  0.10488100  1
  Te  Te6  1  0.25000000  0.90753500  0.89511900  1
  Te  Te7  1  0.75000000  0.59246500  0.39511900  1
  Te  Te8  1  0.75000000  0.44533300  0.11658800  1
  Te  Te9  1  0.25000000  0.55466700  0.88341200  1
  Te  Te10  1  0.75000000  0.94533300  0.38341200  1
  Te  Te11  1  0.25000000  0.05466700  0.61658800  1
loop_
_geom_bond_atom_site_label_1
_geom_bond_atom_site_label_2
_geom_bond_distance
_geom_bond_site_symmetry_2
Ba0 Te3 3.528628 1_455
Ba0 Te3 3.528628 1_555
Ba0 Te8 3.533482 1_456
Ba0 Te8 3.533482 1_556
Ba0 Te5 3.539314 1_556
Ba0 Te5 3.539314 1_456
Ba0 Te9 3.768337 1_555
Ba1 Te2 3.528628 1_555
Ba1 Te2 3.528628 1_655
Ba1 Te9 3.533482 1_654
Ba1 Te9 3.533482 1_554
Ba1 Te6 3.539314 1_654
Ba1 Te6 3.539314 1_554
Ba1 Te8 3.768337 1_555
Ba2 Te1 3.528628 1_455
Ba2 Te1 3.528628 1_555
Ba2 Te10 3.533482 1_555
Ba2 Te10 3.533482 1_455
Ba2 Te7 3.539314 1_455
Ba2 Te7 3.539314 1_555
Ba2 Te11 3.768337 1_565
Ba3 Te0 3.528628 1_555
Ba3 Te0 3.528628 1_655
Ba3 Te11 3.533482 1_555
Ba3 Te11 3.533482 1_655
Ba3 Te4 3.539314 1_555
Ba3 Te4 3.539314 1_655
Ba3 Te10 3.768337 1_545
La0 Te0 3.175973 1_555
La0 Te2 3.192322 1_545
La0 Te5 3.197211 1_555
La0 Te5 3.197211 1_455
La0 Te10 3.228602 1_445
La0 Te10 3.228602 1_545
La1 Te1 3.175973 1_555
La1 Te3 3.192322 1_565
La1 Te6 3.197211 1_555
La1 Te6 3.197211 1_655
La1 Te11 3.228602 1_565
La1 Te11 3.228602 1_665
La2 Te2 3.175973 1_555
La2 Te0 3.192322 1_555
La2 Te7 3.197211 1_555
La2 Te7 3.197211 1_455
La2 Te8 3.228602 1_455
La2 Te8 3.228602 1_555
La3 Te3 3.175973 1_555
La3 Te1 3.192322 1_555
La3 Te4 3.197211 1_555
La3 Te4 3.197211 1_655
La3 Te9 3.228602 1_555
La3 Te9 3.228602 1_655
Cu0 Te5 2.655696 1_555
Cu0 Te8 2.688556 1_555
Cu0 Te0 2.741799 1_555
Cu0 Te0 2.741799 1_655
Cu1 Te4 2.655696 1_555
Cu1 Te11 2.688556 1_555
Cu1 Te3 2.741799 1_555
Cu1 Te3 2.741799 1_455
Cu2 Te7 2.655696 1_555
Cu2 Te10 2.688556 1_555
Cu2 Te2 2.741799 1_655
Cu2 Te2 2.741799 1_555
Cu3 Te6 2.655696 1_555
Cu3 Te9 2.688556 1_555
Cu3 Te1 2.741799 1_555
Cu3 Te1 2.741799 1_455
