# generated using pymatgen
data_HoMg2
_symmetry_space_group_name_H-M   'P 1'
_cell_length_a   6.00318264
_cell_length_b   6.00318280
_cell_length_c   9.77897270
_cell_angle_alpha   90.00000000
_cell_angle_beta   90.00000000
_cell_angle_gamma   120.00002007
_symmetry_Int_Tables_number   1
_chemical_formula_structural   HoMg2
_chemical_formula_sum   'Ho4 Mg8'
_cell_volume   305.20166767
_cell_formula_units_Z   4
loop_
 _symmetry_equiv_pos_site_id
 _symmetry_equiv_pos_as_xyz
  1  'x, y, z'
loop_
 _atom_site_type_symbol
 _atom_site_label
 _atom_site_symmetry_multiplicity
 _atom_site_fract_x
 _atom_site_fract_y
 _atom_site_fract_z
 _atom_site_occupancy
  Ho  Ho0  1  0.33333300  0.66666700  0.93618312  1
  Ho  Ho1  1  0.66666700  0.33333300  0.43618312  1
  Ho  Ho2  1  0.66666700  0.33333300  0.06381688  1
  Ho  Ho3  1  0.33333300  0.66666700  0.56381688  1
  Mg  Mg0  1  0.82907125  0.65814450  0.75000000  1
  Mg  Mg1  1  0.17092875  0.82907125  0.25000000  1
  Mg  Mg2  1  0.65814450  0.82907125  0.25000000  1
  Mg  Mg3  1  0.34185550  0.17092875  0.75000000  1
  Mg  Mg4  1  -0.00000000  -0.00000000  0.00000000  1
  Mg  Mg5  1  -0.00000000  -0.00000000  0.50000000  1
  Mg  Mg6  1  0.17092875  0.34185550  0.25000000  1
  Mg  Mg7  1  0.82907125  0.17092875  0.75000000  1
loop_
_geom_bond_atom_site_label_1
_geom_bond_atom_site_label_2
_geom_bond_distance
_geom_bond_site_symmetry_2
Ho0 Mg1 3.502729 1_556
Ho0 Mg2 3.502737 1_556
Ho0 Mg6 3.502737 1_556
Ho0 Mg0 3.510893 1_555
Ho0 Mg3 3.510893 1_555
Ho0 Mg7 3.510895 1_455
Ho0 Mg7 3.510895 1_565
Ho0 Mg0 3.510898 1_455
Ho0 Mg3 3.510898 1_565
Ho0 Mg4 3.521671 1_566
Ho0 Mg4 3.521675 1_666
Ho0 Mg4 3.521675 1_556
Ho0 Ho3 3.641359 1_555
Ho0 Ho2 3.683820 1_456
Ho0 Ho2 3.683820 1_566
Ho0 Ho2 3.683830 1_556
Ho1 Mg7 3.502729 1_555
Ho1 Mg3 3.502737 1_555
Ho1 Mg0 3.502737 1_555
Ho1 Mg6 3.510893 1_555
Ho1 Mg2 3.510893 1_555
Ho1 Mg1 3.510895 1_655
Ho1 Mg1 3.510895 1_545
Ho1 Mg6 3.510898 1_655
Ho1 Mg2 3.510898 1_545
Ho1 Mg5 3.521671 1_655
Ho1 Mg5 3.521675 1_555
Ho1 Mg5 3.521675 1_665
Ho1 Ho2 3.641359 1_555
Ho1 Ho3 3.683820 1_655
Ho1 Ho3 3.683820 1_545
Ho1 Ho3 3.683830 1_555
Ho2 Mg7 3.502729 1_554
Ho2 Mg3 3.502737 1_554
Ho2 Mg0 3.502737 1_554
Ho2 Mg6 3.510893 1_555
Ho2 Mg2 3.510893 1_555
Ho2 Mg1 3.510895 1_655
Ho2 Mg1 3.510895 1_545
Ho2 Mg6 3.510898 1_655
Ho2 Mg2 3.510898 1_545
Ho2 Mg4 3.521671 1_655
Ho2 Mg4 3.521675 1_555
Ho2 Mg4 3.521675 1_665
Ho3 Mg1 3.502729 1_555
Ho3 Mg2 3.502737 1_555
Ho3 Mg6 3.502737 1_555
Ho3 Mg0 3.510893 1_555
Ho3 Mg3 3.510893 1_555
Ho3 Mg7 3.510895 1_455
Ho3 Mg7 3.510895 1_565
Ho3 Mg0 3.510898 1_455
Ho3 Mg3 3.510898 1_565
Ho3 Mg5 3.521671 1_565
Ho3 Mg5 3.521675 1_665
Ho3 Mg5 3.521675 1_555
Mg0 Mg3 2.924844 1_555
Mg0 Mg7 2.924845 1_555
Mg0 Mg4 3.022495 1_666
Mg0 Mg5 3.022495 1_665
Mg0 Mg3 3.078337 1_665
Mg0 Mg7 3.078338 1_565
Mg1 Mg2 2.924845 1_555
Mg1 Mg6 2.924845 1_555
Mg1 Mg4 3.022501 1_565
Mg1 Mg5 3.022501 1_565
Mg1 Mg2 3.078338 1_455
Mg1 Mg6 3.078338 1_565
Mg2 Mg6 2.924844 1_555
Mg2 Mg4 3.022495 1_665
Mg2 Mg5 3.022495 1_665
Mg2 Mg6 3.078337 1_665
Mg3 Mg7 2.924845 1_555
Mg3 Mg5 3.022495 1_555
Mg3 Mg4 3.022495 1_556
Mg3 Mg7 3.078338 1_455
Mg4 Mg6 3.022495 1_555
Mg4 Mg7 3.022501 1_454
Mg5 Mg6 3.022495 1_555
Mg5 Mg7 3.022501 1_455
