# generated using pymatgen
data_K3SbS3
_symmetry_space_group_name_H-M   'P 1'
_cell_length_a   9.49237996
_cell_length_b   9.49237996
_cell_length_c   9.49237996
_cell_angle_alpha   90.00000000
_cell_angle_beta   90.00000000
_cell_angle_gamma   90.00000000
_symmetry_Int_Tables_number   1
_chemical_formula_structural   K3SbS3
_chemical_formula_sum   'K12 Sb4 S12'
_cell_volume   855.31352858
_cell_formula_units_Z   4
loop_
 _symmetry_equiv_pos_site_id
 _symmetry_equiv_pos_as_xyz
  1  'x, y, z'
loop_
 _atom_site_type_symbol
 _atom_site_label
 _atom_site_symmetry_multiplicity
 _atom_site_fract_x
 _atom_site_fract_y
 _atom_site_fract_z
 _atom_site_occupancy
  K  K0  1  0.43987573  0.93987573  0.56012427  1
  K  K1  1  0.93987573  0.56012427  0.43987573  1
  K  K2  1  0.56012427  0.43987573  0.93987573  1
  K  K3  1  0.06012427  0.06012427  0.06012427  1
  K  K4  1  0.93499413  0.43499413  0.06500587  1
  K  K5  1  0.43499413  0.06500587  0.93499413  1
  K  K6  1  0.06500587  0.93499413  0.43499413  1
  K  K7  1  0.56500587  0.56500587  0.56500587  1
  K  K8  1  0.67710642  0.17710642  0.32289358  1
  K  K9  1  0.17710642  0.32289358  0.67710642  1
  K  K10  1  0.32289358  0.67710642  0.17710642  1
  K  K11  1  0.82289358  0.82289358  0.82289358  1
  Sb  Sb0  1  0.22116997  0.72116997  0.77883003  1
  Sb  Sb1  1  0.72116997  0.77883003  0.22116997  1
  Sb  Sb2  1  0.77883003  0.22116997  0.72116997  1
  Sb  Sb3  1  0.27883003  0.27883003  0.27883003  1
  S  S0  1  0.15107531  0.96708174  0.75400548  1
  S  S1  1  0.24599452  0.65107531  0.53291826  1
  S  S2  1  0.46708174  0.74599452  0.84892469  1
  S  S3  1  0.65107531  0.53291826  0.24599452  1
  S  S4  1  0.74599452  0.84892469  0.46708174  1
  S  S5  1  0.96708174  0.75400548  0.15107531  1
  S  S6  1  0.84892469  0.46708174  0.74599452  1
  S  S7  1  0.75400548  0.15107531  0.96708174  1
  S  S8  1  0.53291826  0.24599452  0.65107531  1
  S  S9  1  0.34892469  0.03291826  0.25400548  1
  S  S10  1  0.25400548  0.34892469  0.03291826  1
  S  S11  1  0.03291826  0.25400548  0.34892469  1
loop_
_geom_bond_atom_site_label_1
_geom_bond_atom_site_label_2
_geom_bond_distance
_geom_bond_site_symmetry_2
K0 S4 3.157379 1_555
K0 S8 3.157379 1_565
K0 S9 3.157379 1_565
K0 S2 3.311953 1_555
K0 S0 3.311953 1_555
K0 S1 3.311953 1_555
K1 S1 3.157379 1_655
K1 S11 3.157379 1_655
K1 S6 3.157379 1_555
K1 S3 3.311953 1_555
K1 S4 3.311953 1_555
K1 S5 3.311953 1_555
K2 S10 3.157379 1_556
K2 S2 3.157379 1_555
K2 S3 3.157379 1_556
K2 S6 3.311953 1_555
K2 S7 3.311953 1_555
K2 S8 3.311953 1_555
K3 S5 3.157379 1_445
K3 S7 3.157379 1_454
K3 S0 3.157379 1_544
K3 S10 3.311953 1_555
K3 S11 3.311953 1_555
K3 S9 3.311953 1_555
K4 S10 3.151210 1_655
K4 S5 3.151210 1_555
K4 S6 3.151210 1_554
K4 S11 3.328510 1_655
K4 S3 3.328510 1_555
K4 S7 3.328510 1_554
K5 S9 3.151210 1_556
K5 S2 3.151210 1_545
K5 S7 3.151210 1_555
K5 S8 3.328510 1_555
K5 S0 3.328510 1_545
K5 S10 3.328510 1_556
K6 S11 3.151210 1_565
K6 S0 3.151210 1_555
K6 S4 3.151210 1_455
K6 S9 3.328510 1_565
K6 S1 3.328510 1_555
K6 S5 3.328510 1_455
K7 S8 3.151210 1_555
K7 S3 3.151210 1_555
K7 S1 3.151210 1_555
K7 S2 3.328510 1_555
K7 S6 3.328510 1_555
K7 S4 3.328510 1_555
K8 S7 3.464305 1_554
K8 S11 3.464305 1_655
K8 S3 3.464305 1_555
K8 S4 3.464901 1_545
K8 S8 3.464901 1_555
K8 S9 3.464901 1_555
K9 S10 3.464305 1_556
K9 S8 3.464305 1_555
K9 S0 3.464305 1_545
K9 S1 3.464901 1_555
K9 S6 3.464901 1_455
K9 S11 3.464901 1_555
K10 S5 3.464305 1_455
K10 S9 3.464305 1_565
K10 S1 3.464305 1_555
K10 S3 3.464901 1_555
K10 S2 3.464901 1_554
K10 S10 3.464901 1_555
K11 S4 3.464305 1_555
K11 S2 3.464305 1_555
K11 S6 3.464305 1_555
K11 S0 3.464901 1_655
K11 S7 3.464901 1_565
K11 S5 3.464901 1_556
S0 Sb0 2.438676 1_555
S1 Sb0 2.438676 1_555
S2 Sb0 2.438676 1_555
S3 Sb1 2.438676 1_555
S4 Sb1 2.438676 1_555
S5 Sb1 2.438676 1_555
S6 Sb2 2.438676 1_555
S7 Sb2 2.438676 1_555
S8 Sb2 2.438676 1_555
S9 Sb3 2.438676 1_555
S10 Sb3 2.438676 1_555
S11 Sb3 2.438676 1_555
