# generated using pymatgen
data_CeEu2WO6
_symmetry_space_group_name_H-M   'P 1'
_cell_length_a   8.48379001
_cell_length_b   8.48379001
_cell_length_c   8.48379001
_cell_angle_alpha   90.00000000
_cell_angle_beta   90.00000000
_cell_angle_gamma   90.00000000
_symmetry_Int_Tables_number   1
_chemical_formula_structural   CeEu2WO6
_chemical_formula_sum   'Ce4 Eu8 W4 O24'
_cell_volume   610.61818088
_cell_formula_units_Z   4
loop_
 _symmetry_equiv_pos_site_id
 _symmetry_equiv_pos_as_xyz
  1  'x, y, z'
loop_
 _atom_site_type_symbol
 _atom_site_label
 _atom_site_symmetry_multiplicity
 _atom_site_fract_x
 _atom_site_fract_y
 _atom_site_fract_z
 _atom_site_occupancy
  Ce  Ce0  1  0.75000000  0.75000000  0.75000000  1
  Ce  Ce1  1  0.75000000  0.25000000  0.25000000  1
  Ce  Ce2  1  0.25000000  0.75000000  0.25000000  1
  Ce  Ce3  1  0.25000000  0.25000000  0.75000000  1
  Eu  Eu0  1  0.50000000  0.50000000  0.50000000  1
  Eu  Eu1  1  -0.00000000  0.00000000  -0.00000000  1
  Eu  Eu2  1  -0.00000000  0.00000000  0.50000000  1
  Eu  Eu3  1  -0.00000000  0.50000000  -0.00000000  1
  Eu  Eu4  1  0.50000000  0.00000000  -0.00000000  1
  Eu  Eu5  1  0.50000000  0.50000000  -0.00000000  1
  Eu  Eu6  1  0.50000000  0.00000000  0.50000000  1
  Eu  Eu7  1  -0.00000000  0.50000000  0.50000000  1
  W  W0  1  0.25000000  0.25000000  0.25000000  1
  W  W1  1  0.25000000  0.75000000  0.75000000  1
  W  W2  1  0.75000000  0.25000000  0.75000000  1
  W  W3  1  0.75000000  0.75000000  0.25000000  1
  O  O0  1  0.20876578  0.29815311  0.48817663  1
  O  O1  1  0.20876578  0.70184689  0.51182337  1
  O  O2  1  0.79123422  0.29815311  0.51182337  1
  O  O3  1  0.79123422  0.70184689  0.48817663  1
  O  O4  1  0.29815311  0.48817663  0.20876578  1
  O  O5  1  0.70184689  0.51182337  0.20876578  1
  O  O6  1  0.29815311  0.51182337  0.79123422  1
  O  O7  1  0.70184689  0.48817663  0.79123422  1
  O  O8  1  0.48817663  0.20876578  0.29815311  1
  O  O9  1  0.51182337  0.20876578  0.70184689  1
  O  O10  1  0.51182337  0.79123422  0.29815311  1
  O  O11  1  0.48817663  0.79123422  0.70184689  1
  O  O12  1  0.29123422  0.20184689  0.01182337  1
  O  O13  1  0.29123422  0.79815311  0.98817663  1
  O  O14  1  0.70876578  0.20184689  0.98817663  1
  O  O15  1  0.70876578  0.79815311  0.01182337  1
  O  O16  1  0.20184689  0.01182337  0.29123422  1
  O  O17  1  0.79815311  0.98817663  0.29123422  1
  O  O18  1  0.20184689  0.98817663  0.70876578  1
  O  O19  1  0.79815311  0.01182337  0.70876578  1
  O  O20  1  0.01182337  0.29123422  0.20184689  1
  O  O21  1  0.98817663  0.29123422  0.79815311  1
  O  O22  1  0.98817663  0.70876578  0.20184689  1
  O  O23  1  0.01182337  0.70876578  0.79815311  1
loop_
_geom_bond_atom_site_label_1
_geom_bond_atom_site_label_2
_geom_bond_distance
_geom_bond_site_symmetry_2
Ce0 O11 2.285440 1_555
Ce0 O7 2.285440 1_555
Ce0 O3 2.285440 1_555
Ce0 O15 2.285440 1_556
Ce0 O19 2.285440 1_565
Ce0 O23 2.285440 1_655
Ce1 O8 2.285440 1_555
Ce1 O5 2.285440 1_555
Ce1 O17 2.285440 1_545
Ce1 O2 2.285440 1_555
Ce1 O14 2.285440 1_554
Ce1 O20 2.285440 1_655
Ce2 O4 2.285440 1_555
Ce2 O1 2.285440 1_555
Ce2 O13 2.285440 1_554
Ce2 O22 2.285440 1_455
Ce2 O10 2.285440 1_555
Ce2 O16 2.285440 1_565
Ce3 O21 2.285440 1_455
Ce3 O6 2.285440 1_555
Ce3 O0 2.285440 1_555
Ce3 O9 2.285440 1_555
Ce3 O18 2.285440 1_545
Ce3 O12 2.285440 1_556
Eu0 O4 3.007852 1_555
Eu0 O1 3.007852 1_555
Eu0 O5 3.007852 1_555
Eu0 O6 3.007852 1_555
Eu0 O7 3.007852 1_555
Eu0 O0 3.007852 1_555
Eu0 O3 3.007852 1_555
Eu0 O2 3.007852 1_555
Eu0 O9 3.007852 1_555
Eu0 O10 3.007852 1_555
Eu0 O11 3.007852 1_555
Eu0 O8 3.007852 1_555
Eu1 O17 3.007852 1_445
Eu1 O14 3.007852 1_454
Eu1 O19 3.007852 1_454
Eu1 O18 3.007852 1_544
Eu1 O12 3.007852 1_555
Eu1 O16 3.007852 1_555
Eu1 O15 3.007852 1_445
Eu1 O13 3.007852 1_544
Eu1 O21 3.007852 1_454
Eu1 O20 3.007852 1_555
Eu1 O22 3.007852 1_445
Eu1 O23 3.007852 1_544
Eu2 O17 2.465634 1_445
Eu2 O19 2.465634 1_455
Eu2 O18 2.465634 1_545
Eu2 O16 2.465634 1_555
Eu3 O23 2.465634 1_554
Eu3 O20 2.465634 1_555
Eu3 O22 2.465634 1_455
Eu3 O21 2.465634 1_454
Eu4 O14 2.465634 1_554
Eu4 O15 2.465634 1_545
Eu4 O13 2.465634 1_544
Eu4 O12 2.465634 1_555
Eu5 O6 2.465634 1_554
Eu5 O5 2.465634 1_555
Eu5 O4 2.465634 1_555
Eu5 O7 2.465634 1_554
Eu6 O9 2.465634 1_555
Eu6 O8 2.465634 1_555
Eu6 O11 2.465634 1_545
Eu6 O10 2.465634 1_545
Eu7 O1 2.465634 1_555
Eu7 O3 2.465634 1_455
Eu7 O0 2.465634 1_555
Eu7 O2 2.465634 1_455
O0 W0 2.090993 1_555
O1 W1 2.090993 1_555
O2 W2 2.090993 1_555
O3 W3 2.090993 1_555
O4 W0 2.090993 1_555
O5 W3 2.090993 1_555
O6 W1 2.090993 1_555
O7 W2 2.090993 1_555
O8 W0 2.090993 1_555
O9 W2 2.090993 1_555
O10 W3 2.090993 1_555
O11 W1 2.090993 1_555
O12 W0 2.090993 1_555
O13 W1 2.090993 1_555
O14 W2 2.090993 1_555
O15 W3 2.090993 1_555
O16 W0 2.090993 1_555
O17 W3 2.090993 1_555
O18 W1 2.090993 1_555
O19 W2 2.090993 1_555
O20 W0 2.090993 1_555
O21 W2 2.090993 1_555
O22 W3 2.090993 1_555
O23 W1 2.090993 1_555
