# generated using pymatgen
data_Na3V5(H12O13)2
_symmetry_space_group_name_H-M   'P 1'
_cell_length_a   10.70228800
_cell_length_b   11.49078506
_cell_length_c   11.92206641
_cell_angle_alpha   109.02492486
_cell_angle_beta   103.78123663
_cell_angle_gamma   111.75981989
_symmetry_Int_Tables_number   1
_chemical_formula_structural   Na3V5(H12O13)2
_chemical_formula_sum   'Na6 V10 H48 O52'
_cell_volume   1174.73631705
_cell_formula_units_Z   2
loop_
 _symmetry_equiv_pos_site_id
 _symmetry_equiv_pos_as_xyz
  1  'x, y, z'
loop_
 _atom_site_type_symbol
 _atom_site_label
 _atom_site_symmetry_multiplicity
 _atom_site_fract_x
 _atom_site_fract_y
 _atom_site_fract_z
 _atom_site_occupancy
  Na  Na0  1  0.19333400  0.90086400  0.59335800  1
  Na  Na1  1  0.80666600  0.09913600  0.40664200  1
  Na  Na2  1  0.63428100  0.47877000  0.10701100  1
  Na  Na3  1  0.36571900  0.52123000  0.89298800  1
  Na  Na4  1  0.88257100  0.49599600  0.37084900  1
  Na  Na5  1  0.11742900  0.50400400  0.62915100  1
  V  V0  1  0.13478400  0.99128400  0.29407600  1
  V  V1  1  0.86521600  0.00871600  0.70592400  1
  V  V2  1  0.88779400  0.97321600  0.07335200  1
  V  V3  1  0.11220600  0.02678400  0.92664800  1
  V  V4  1  0.65523900  0.95837700  0.84864700  1
  V  V5  1  0.34476100  0.04162300  0.15135300  1
  V  V6  1  0.79070200  0.75502800  0.77751500  1
  V  V7  1  0.20929800  0.24497200  0.22248500  1
  V  V8  1  0.02783700  0.77077500  0.00254300  1
  V  V9  1  0.97216300  0.22922500  0.99745700  1
  H  H0  1  0.87484300  0.22375400  0.23006800  1
  H  H1  1  0.12515700  0.77624600  0.76993200  1
  H  H2  1  0.71331000  0.18130700  0.22146000  1
  H  H3  1  0.28669000  0.81869300  0.77854000  1
  H  H4  1  0.94097600  0.62310900  0.17839800  1
  H  H5  1  0.05902400  0.37689100  0.82160200  1
  H  H6  1  0.93206200  0.47620800  0.13123300  1
  H  H7  1  0.06793800  0.52379200  0.86876700  1
  H  H8  1  0.68722400  0.62202600  0.94200300  1
  H  H9  1  0.31277600  0.37797400  0.05799700  1
  H  H10  1  0.60177200  0.46049500  0.85041700  1
  H  H11  1  0.39822800  0.53950500  0.14958300  1
  H  H12  1  0.61666200  0.52947100  0.34334500  1
  H  H13  1  0.38333800  0.47052900  0.65665500  1
  H  H14  1  0.54484300  0.36546200  0.27411800  1
  H  H15  1  0.45515700  0.63453800  0.72588200  1
  H  H16  1  0.83732400  0.78209200  0.22421300  1
  H  H17  1  0.16267600  0.21790800  0.77578700  1
  H  H18  1  0.71199100  0.77342100  0.26972000  1
  H  H19  1  0.28800900  0.22657900  0.73028000  1
  H  H20  1  0.89530600  0.76016100  0.54363800  1
  H  H21  1  0.10469400  0.23983900  0.45636200  1
  H  H22  1  0.88667600  0.74902700  0.40684400  1
  H  H23  1  0.11332400  0.25097300  0.59315600  1
  H  H24  1  0.63640600  0.21371700  0.97893500  1
  H  H25  1  0.36359400  0.78628300  0.02106500  1
  H  H26  1  0.47997100  0.16653600  0.98475200  1
  H  H27  1  0.52002900  0.83346400  0.01524800  1
  H  H28  1  0.20897800  0.63553000  0.47672400  1
  H  H29  1  0.79102200  0.36447000  0.52327600  1
  H  H30  1  0.16190200  0.48167400  0.38429800  1
  H  H31  1  0.83809800  0.51832600  0.61570200  1
  H  H32  1  0.32919900  0.78152500  0.41594000  1
  H  H33  1  0.67080100  0.21847500  0.58406000  1
  H  H34  1  0.44131600  0.85785600  0.56414200  1
  H  H35  1  0.55868400  0.14214400  0.43585800  1
  H  H36  1  0.44139100  0.18386100  0.67252100  1
  H  H37  1  0.55860900  0.81613900  0.32747900  1
  H  H38  1  0.45881600  0.17437900  0.80477100  1
  H  H39  1  0.54118400  0.82562100  0.19522900  1
  H  H40  1  0.25761800  0.75788000  0.20703800  1
  H  H41  1  0.74238200  0.24212000  0.79296200  1
  H  H42  1  0.20494900  0.60470600  0.19028800  1
  H  H43  1  0.79505100  0.39529400  0.80971200  1
  H  H44  1  0.62550400  0.71454000  0.50009600  1
  H  H45  1  0.37449600  0.28546000  0.49990400  1
  H  H46  1  0.46079200  0.59998800  0.39890700  1
  H  H47  1  0.53920800  0.40001200  0.60109300  1
  O  O0  1  0.14134200  0.98005600  0.42804600  1
  O  O1  1  0.85865800  0.01994400  0.57195400  1
  O  O2  1  0.99037600  0.17855600  0.14722000  1
  O  O3  1  0.00962400  0.82144400  0.85278000  1
  O  O4  1  0.95788500  0.59782000  0.92233800  1
  O  O5  1  0.04211500  0.40218000  0.07766200  1
  O  O6  1  0.68304000  0.97784800  0.70641800  1
  O  O7  1  0.31696000  0.02215200  0.29358200  1
  O  O8  1  0.80743500  0.81378300  0.65310800  1
  O  O9  1  0.19256500  0.18621700  0.34689200  1
  O  O10  1  0.72464600  0.58291200  0.69785000  1
  O  O11  1  0.27535400  0.41708800  0.30215000  1
  O  O12  1  0.89961100  0.99366600  0.90625100  1
  O  O13  1  0.10038900  0.00633400  0.09374900  1
  O  O14  1  0.62779300  0.77324400  0.77633500  1
  O  O15  1  0.37220700  0.22675600  0.22366500  1
  O  O16  1  0.48721600  0.93096700  0.82401600  1
  O  O17  1  0.51278400  0.06903300  0.17598400  1
  O  O18  1  0.04102000  0.79953800  0.16684300  1
  O  O19  1  0.95898000  0.20046200  0.83315700  1
  O  O20  1  0.83774400  0.78127900  0.96355500  1
  O  O21  1  0.16225600  0.21872100  0.03644500  1
  O  O22  1  0.92755300  0.96711300  0.22015900  1
  O  O23  1  0.07244700  0.03288700  0.77984100  1
  O  O24  1  0.71019100  0.94974500  0.01899500  1
  O  O25  1  0.28980900  0.05025500  0.98100500  1
  O  O26  1  0.22672400  0.84175600  0.04610600  1
  O  O27  1  0.77327600  0.15824400  0.95389400  1
  O  O28  1  0.81788900  0.24332200  0.28091500  1
  O  O29  1  0.18211100  0.75667800  0.71908500  1
  O  O30  1  0.88779900  0.52930900  0.17280200  1
  O  O31  1  0.11220100  0.47069100  0.82719800  1
  O  O32  1  0.60683200  0.53172600  0.92604500  1
  O  O33  1  0.39316800  0.46827400  0.07395500  1
  O  O34  1  0.63542600  0.45272800  0.29888200  1
  O  O35  1  0.36457400  0.54727200  0.70111800  1
  O  O36  1  0.77233500  0.72616100  0.25434100  1
  O  O37  1  0.22766500  0.27383900  0.74565900  1
  O  O38  1  0.94087100  0.74111700  0.48182300  1
  O  O39  1  0.05912900  0.25888300  0.51817700  1
  O  O40  1  0.55554600  0.23694100  0.97310800  1
  O  O41  1  0.44445400  0.76305900  0.02689200  1
  O  O42  1  0.12985100  0.53700300  0.44040800  1
  O  O43  1  0.87014900  0.46299700  0.55959200  1
  O  O44  1  0.33686300  0.81023400  0.50663400  1
  O  O45  1  0.66313700  0.18976600  0.49336600  1
  O  O46  1  0.38666900  0.13785500  0.71474700  1
  O  O47  1  0.61333100  0.86214500  0.28525300  1
  O  O48  1  0.28655200  0.70228700  0.24366900  1
  O  O49  1  0.71344800  0.29771300  0.75633100  1
  O  O50  1  0.55754800  0.66492100  0.40756100  1
  O  O51  1  0.44245200  0.33507900  0.59243900  1
loop_
_geom_bond_atom_site_label_1
_geom_bond_atom_site_label_2
_geom_bond_distance
_geom_bond_site_symmetry_2
Na0 O38 2.336177 1_455
Na0 O46 2.370188 1_565
Na0 O44 2.398720 1_555
Na0 O0 2.458487 1_555
Na0 O29 2.561943 1_555
Na1 O39 2.336177 1_655
Na1 O47 2.370188 1_545
Na1 O45 2.398720 1_555
Na1 O1 2.458487 1_555
Na1 O28 2.561943 1_555
Na2 O40 2.389804 1_554
Na2 O36 2.396536 1_555
Na2 O34 2.399581 1_555
Na2 O32 2.407869 1_554
Na2 O30 2.415558 1_555
Na2 O33 2.466250 1_555
Na3 O41 2.389806 1_556
Na3 O37 2.396533 1_555
Na3 O35 2.399569 1_555
Na3 O33 2.407880 1_556
Na3 O31 2.415558 1_555
Na3 O32 2.466249 1_555
Na4 O34 2.375943 1_555
Na4 O42 2.385069 1_655
Na4 O43 2.426173 1_555
Na4 O38 2.438713 1_555
Na4 O28 2.487024 1_555
Na4 O30 2.522084 1_555
Na5 O35 2.375943 1_555
Na5 O43 2.385069 1_455
Na5 O42 2.426173 1_555
Na5 O39 2.438713 1_555
Na5 O29 2.487024 1_555
Na5 O31 2.522084 1_555
H0 O28 0.989126 1_555
H1 O29 0.989126 1_555
H2 O28 0.981985 1_555
H3 O29 0.981985 1_555
H4 O30 0.985037 1_555
H5 O31 0.985037 1_555
H6 O30 0.985564 1_555
H7 O31 0.985564 1_555
H8 O32 0.992219 1_555
H9 O33 0.992219 1_555
H10 O32 0.973943 1_555
H11 O33 0.973943 1_555
H12 O34 0.988037 1_555
H13 O35 0.988037 1_555
H14 O34 0.991147 1_555
H14 O15 1.725657 1_555
H15 O35 0.991147 1_555
H15 O14 1.725657 1_555
H16 O36 0.981799 1_555
H17 O37 0.981799 1_555
H18 O36 0.998568 1_555
H19 O37 0.998568 1_555
H20 O38 0.986915 1_555
H21 O39 0.986915 1_555
H22 O38 0.994374 1_555
H23 O39 0.994374 1_555
H24 O40 0.989751 1_555
H25 O41 0.989751 1_555
H26 O40 0.984644 1_555
H27 O41 0.984644 1_555
H28 O42 0.990582 1_555
H29 O43 0.990582 1_555
H30 O42 0.981376 1_555
H31 O43 0.981376 1_555
H32 O44 0.994892 1_555
H33 O45 0.994892 1_555
H34 O44 0.977687 1_555
H35 O45 0.977687 1_555
H36 O46 0.979953 1_555
H37 O47 0.979953 1_555
H38 O46 0.997741 1_555
H39 O47 0.997741 1_555
H40 O48 0.979185 1_555
H41 O49 0.979185 1_555
H42 O48 0.984338 1_555
H43 O49 0.984338 1_555
H44 O50 0.985544 1_555
H45 O51 0.985544 1_555
H46 O50 0.982700 1_555
H47 O51 0.982700 1_555
O0 V0 1.631034 1_555
O1 V1 1.631034 1_555
O2 V2 1.952485 1_545
O2 V7 2.025647 1_655
O2 V9 2.039857 1_554
O3 V3 1.952485 1_565
O3 V6 2.025647 1_455
O3 V8 2.039857 1_556
O4 V8 1.655706 1_656
O5 V9 1.655706 1_454
O6 V1 1.849667 1_565
O6 V4 1.858013 1_555
O7 V0 1.849667 1_545
O7 V5 1.858013 1_555
O8 V6 1.837793 1_555
O8 V1 1.914195 1_565
O9 V7 1.837793 1_555
O9 V0 1.914195 1_545
O10 V6 1.652919 1_555
O11 V7 1.652919 1_555
O12 V3 2.101148 1_665
O12 V2 2.107899 1_556
O12 V9 2.287444 1_565
O12 V6 2.295124 1_555
O12 V4 2.377496 1_555
O12 V1 2.401471 1_565
O13 V2 2.101148 1_445
O13 V3 2.107899 1_554
O13 V8 2.287444 1_545
O13 V7 2.295124 1_555
O13 V5 2.377496 1_555
O13 V0 2.401471 1_545
O14 V6 1.828829 1_555
O14 V4 1.890870 1_555
O15 V7 1.828829 1_555
O15 V5 1.890870 1_555
O16 V4 1.639285 1_555
O17 V5 1.639285 1_555
O18 V8 1.837853 1_555
O18 V0 1.902375 1_555
O19 V9 1.837853 1_555
O19 V1 1.902375 1_555
O20 V2 1.942289 1_556
O20 V8 2.034118 1_656
O20 V6 2.045264 1_555
O21 V3 1.942289 1_554
O21 V9 2.034118 1_454
O21 V7 2.045264 1_555
O22 V2 1.731085 1_555
O22 V0 2.055508 1_655
O23 V3 1.731085 1_555
O23 V1 2.055508 1_455
O24 V2 1.739165 1_555
O24 V4 2.021337 1_554
O25 V3 1.739165 1_555
O25 V5 2.021337 1_556
O26 V8 1.837289 1_555
O26 V5 1.913043 1_565
O27 V9 1.837289 1_555
O27 V4 1.913043 1_545
