# generated using pymatgen
data_NaCr12Si8BrO28
_symmetry_space_group_name_H-M   'P 1'
_cell_length_a   9.91302228
_cell_length_b   9.91302228
_cell_length_c   9.91302228
_cell_angle_alpha   116.38801056
_cell_angle_beta   116.38801056
_cell_angle_gamma   96.37899054
_symmetry_Int_Tables_number   1
_chemical_formula_structural   NaCr12Si8BrO28
_chemical_formula_sum   'Na1 Cr12 Si8 Br1 O28'
_cell_volume   721.57838097
_cell_formula_units_Z   1
loop_
 _symmetry_equiv_pos_site_id
 _symmetry_equiv_pos_as_xyz
  1  'x, y, z'
loop_
 _atom_site_type_symbol
 _atom_site_label
 _atom_site_symmetry_multiplicity
 _atom_site_fract_x
 _atom_site_fract_y
 _atom_site_fract_z
 _atom_site_occupancy
  Na  Na0  1  0.03845700  0.03845700  0.00000000  1
  Cr  Cr0  1  0.28506500  0.05524000  0.77017500  1
  Cr  Cr1  1  0.28506500  0.51489000  0.22982500  1
  Cr  Cr2  1  0.51489000  0.28506500  0.22982500  1
  Cr  Cr3  1  0.05524000  0.28506500  0.77017500  1
  Cr  Cr4  1  0.71598800  0.94639900  0.23041100  1
  Cr  Cr5  1  0.71598800  0.48557600  0.76958900  1
  Cr  Cr6  1  0.48557600  0.71598800  0.76958900  1
  Cr  Cr7  1  0.94639900  0.71598800  0.23041100  1
  Cr  Cr8  1  0.49980900  0.17461600  0.67480700  1
  Cr  Cr9  1  0.49980900  0.82500300  0.32519300  1
  Cr  Cr10  1  0.82500300  0.49980900  0.32519300  1
  Cr  Cr11  1  0.17461600  0.49980900  0.67480700  1
  Si  Si0  1  0.89358600  0.89358600  0.56445000  1
  Si  Si1  1  0.32913600  0.32913600  0.43555000  1
  Si  Si2  1  0.32913600  0.89358600  0.00000000  1
  Si  Si3  1  0.89358600  0.32913600  0.00000000  1
  Si  Si4  1  0.10543100  0.10543100  0.43349900  1
  Si  Si5  1  0.67193200  0.67193200  0.56650100  1
  Si  Si6  1  0.67193200  0.10543100  0.00000000  1
  Si  Si7  1  0.10543100  0.67193200  0.00000000  1
  Br  Br0  1  0.47575000  0.47575000  0.00000000  1
  O  O0  1  0.06020800  0.06020800  0.71631900  1
  O  O1  1  0.34389000  0.34389000  0.28368100  1
  O  O2  1  0.34389000  0.06020800  0.00000000  1
  O  O3  1  0.06020800  0.34389000  0.00000000  1
  O  O4  1  0.93922900  0.93922900  0.28521500  1
  O  O5  1  0.65401300  0.65401300  0.71478500  1
  O  O6  1  0.65401300  0.93922900  0.00000000  1
  O  O7  1  0.93922900  0.65401300  0.00000000  1
  O  O8  1  0.25403100  0.06827700  0.55664800  1
  O  O9  1  0.51162900  0.69738300  0.44335200  1
  O  O10  1  0.51162900  0.06827700  0.81424600  1
  O  O11  1  0.25403100  0.69738300  0.18575400  1
  O  O12  1  0.69738300  0.25403100  0.18575400  1
  O  O13  1  0.06827700  0.51162900  0.81424600  1
  O  O14  1  0.06827700  0.25403100  0.55664800  1
  O  O15  1  0.69738300  0.51162900  0.44335200  1
  O  O16  1  0.74536500  0.93121100  0.44206300  1
  O  O17  1  0.48914900  0.30330200  0.55793700  1
  O  O18  1  0.48914900  0.93121100  0.18584600  1
  O  O19  1  0.74536500  0.30330200  0.81415400  1
  O  O20  1  0.30330200  0.74536500  0.81415400  1
  O  O21  1  0.93121100  0.48914900  0.18584600  1
  O  O22  1  0.93121100  0.74536500  0.44206300  1
  O  O23  1  0.30330200  0.48914900  0.55793700  1
  O  O24  1  0.83725600  0.83725600  0.67386200  1
  O  O25  1  0.16339300  0.16339300  0.32613800  1
  O  O26  1  0.16339300  0.83725600  0.00000000  1
  O  O27  1  0.83725600  0.16339300  0.00000000  1
loop_
_geom_bond_atom_site_label_1
_geom_bond_atom_site_label_2
_geom_bond_distance
_geom_bond_site_symmetry_2
Na0 O26 2.461876 1_545
Na0 O27 2.461876 1_455
Na0 O24 2.461882 1_444
Na0 O25 2.461885 1_555
Cr0 O2 2.060558 1_556
Cr0 O0 2.060560 1_555
Cr0 O10 2.065168 1_555
Cr0 O8 2.065168 1_555
Cr1 O1 2.060553 1_555
Cr1 O3 2.060558 1_555
Cr1 O11 2.065168 1_555
Cr1 O9 2.065168 1_555
Cr2 O1 2.060553 1_555
Cr2 O2 2.060558 1_555
Cr2 O12 2.065168 1_555
Cr2 O15 2.065168 1_555
Cr3 O3 2.060558 1_556
Cr3 O0 2.060560 1_555
Cr3 O14 2.065168 1_555
Cr3 O13 2.065168 1_555
Cr4 O6 2.048931 1_555
Cr4 O4 2.048933 1_555
Cr4 O18 2.063231 1_555
Cr4 O16 2.063241 1_555
Cr5 O7 2.048933 1_556
Cr5 O5 2.048936 1_555
Cr5 O19 2.063231 1_555
Cr5 O17 2.063233 1_555
Cr6 O6 2.048933 1_556
Cr6 O5 2.048936 1_555
Cr6 O20 2.063231 1_555
Cr6 O23 2.063233 1_555
Cr7 O7 2.048931 1_555
Cr7 O4 2.048933 1_555
Cr7 O21 2.063231 1_555
Cr7 O22 2.063241 1_555
Cr8 O8 2.052871 1_555
Cr8 O10 2.052871 1_555
Cr8 O19 2.053174 1_555
Cr8 O17 2.053176 1_555
Cr9 O11 2.052872 1_555
Cr9 O9 2.052879 1_555
Cr9 O18 2.053168 1_555
Cr9 O16 2.053173 1_555
Cr10 O12 2.052872 1_555
Cr10 O15 2.052879 1_555
Cr10 O21 2.053168 1_555
Cr10 O22 2.053173 1_555
Cr11 O14 2.052871 1_555
Cr11 O13 2.052871 1_555
Cr11 O20 2.053174 1_555
Cr11 O23 2.053176 1_555
O0 Si0 1.641924 1_445
O1 Si1 1.641934 1_555
O2 Si2 1.641924 1_545
O3 Si3 1.641924 1_455
O4 Si4 1.637373 1_665
O5 Si5 1.637382 1_555
O6 Si6 1.637373 1_565
O7 Si7 1.637373 1_655
O8 Si4 1.648523 1_555
O9 Si5 1.648523 1_555
O10 Si6 1.648523 1_556
O11 Si7 1.648523 1_555
O12 Si6 1.648523 1_555
O13 Si7 1.648523 1_556
O14 Si4 1.648523 1_555
O15 Si5 1.648523 1_555
O16 Si0 1.646017 1_555
O17 Si1 1.646023 1_555
O18 Si2 1.646021 1_555
O19 Si3 1.646017 1_556
O20 Si2 1.646017 1_556
O21 Si3 1.646021 1_555
O22 Si0 1.646017 1_555
O23 Si1 1.646023 1_555
O24 Si5 1.675341 1_555
O24 Si0 1.675532 1_555
O25 Si4 1.675330 1_555
O25 Si1 1.675543 1_555
O26 Si7 1.675339 1_555
O26 Si2 1.675541 1_555
O27 Si6 1.675339 1_555
O27 Si3 1.675541 1_555
