# generated using pymatgen
data_Ho3Cu3Sb4
_symmetry_space_group_name_H-M   'P 1'
_cell_length_a   8.27987143
_cell_length_b   8.27987143
_cell_length_c   8.27987201
_cell_angle_alpha   109.47121498
_cell_angle_beta   109.47122346
_cell_angle_gamma   109.47122063
_symmetry_Int_Tables_number   1
_chemical_formula_structural   Ho3Cu3Sb4
_chemical_formula_sum   'Ho6 Cu6 Sb8'
_cell_volume   436.96729604
_cell_formula_units_Z   2
loop_
 _symmetry_equiv_pos_site_id
 _symmetry_equiv_pos_as_xyz
  1  'x, y, z'
loop_
 _atom_site_type_symbol
 _atom_site_label
 _atom_site_symmetry_multiplicity
 _atom_site_fract_x
 _atom_site_fract_y
 _atom_site_fract_z
 _atom_site_occupancy
  Ho  Ho0  1  0.87500000  0.25000000  0.12500000  1
  Ho  Ho1  1  0.62500000  0.75000000  0.37500000  1
  Ho  Ho2  1  0.25000000  0.12500000  0.87500000  1
  Ho  Ho3  1  0.75000000  0.37500000  0.62500000  1
  Ho  Ho4  1  0.12500000  0.87500000  0.25000000  1
  Ho  Ho5  1  0.37500000  0.62500000  0.75000000  1
  Cu  Cu0  1  0.37500000  0.25000000  0.62500000  1
  Cu  Cu1  1  0.12500000  0.75000000  0.87500000  1
  Cu  Cu2  1  0.25000000  0.62500000  0.37500000  1
  Cu  Cu3  1  0.75000000  0.87500000  0.12500000  1
  Cu  Cu4  1  0.62500000  0.37500000  0.25000000  1
  Cu  Cu5  1  0.87500000  0.12500000  0.75000000  1
  Sb  Sb0  1  0.65978400  0.50000000  0.00000000  1
  Sb  Sb1  1  0.50000000  0.00000000  0.65978400  1
  Sb  Sb2  1  0.00000000  0.65978400  0.50000000  1
  Sb  Sb3  1  0.84021600  0.84021600  0.84021600  1
  Sb  Sb4  1  0.50000000  0.00000000  0.15978400  1
  Sb  Sb5  1  0.15978400  0.50000000  0.00000000  1
  Sb  Sb6  1  0.00000000  0.15978400  0.50000000  1
  Sb  Sb7  1  0.34021600  0.34021600  0.34021600  1
loop_
_geom_bond_atom_site_label_1
_geom_bond_atom_site_label_2
_geom_bond_distance
_geom_bond_site_symmetry_2
Ho0 Sb4 3.273726 1_555
Ho0 Sb5 3.273726 1_655
Ho0 Sb3 3.273726 1_544
Ho0 Sb2 3.273726 1_655
Ho0 Sb0 3.345016 1_555
Ho0 Sb7 3.345016 1_655
Ho0 Sb6 3.345016 1_655
Ho0 Sb1 3.345016 1_554
Ho1 Sb7 3.273726 1_555
Ho1 Sb6 3.273726 1_665
Ho1 Sb1 3.273726 1_565
Ho1 Sb0 3.273726 1_555
Ho1 Sb2 3.345016 1_655
Ho1 Sb4 3.345016 1_565
Ho1 Sb5 3.345016 1_555
Ho1 Sb3 3.345016 1_555
Ho2 Sb4 3.273726 1_556
Ho2 Sb3 3.273726 1_445
Ho2 Sb0 3.273726 1_556
Ho2 Sb6 3.273726 1_555
Ho2 Sb5 3.345016 1_556
Ho2 Sb1 3.345016 1_555
Ho2 Sb2 3.345016 1_545
Ho2 Sb7 3.345016 1_556
Ho3 Sb7 3.273726 1_555
Ho3 Sb1 3.273726 1_555
Ho3 Sb2 3.273726 1_655
Ho3 Sb5 3.273726 1_656
Ho3 Sb6 3.345016 1_655
Ho3 Sb3 3.345016 1_555
Ho3 Sb0 3.345016 1_556
Ho3 Sb4 3.345016 1_555
Ho4 Sb3 3.273726 1_454
Ho4 Sb1 3.273726 1_565
Ho4 Sb6 3.273726 1_565
Ho4 Sb5 3.273726 1_555
Ho4 Sb4 3.345016 1_565
Ho4 Sb7 3.345016 1_565
Ho4 Sb0 3.345016 1_455
Ho4 Sb2 3.345016 1_555
Ho5 Sb2 3.273726 1_555
Ho5 Sb0 3.273726 1_556
Ho5 Sb4 3.273726 1_566
Ho5 Sb7 3.273726 1_555
Ho5 Sb1 3.345016 1_565
Ho5 Sb3 3.345016 1_555
Ho5 Sb5 3.345016 1_556
Ho5 Sb6 3.345016 1_555
Cu0 Sb6 2.658173 1_555
Cu0 Sb1 2.658173 1_555
Cu0 Sb7 2.658173 1_555
Cu0 Sb0 2.658173 1_556
Cu0 Ho3 2.927377 1_555
Cu0 Ho5 2.927377 1_555
Cu0 Ho2 2.927377 1_555
Cu0 Ho4 2.927377 1_545
Cu1 Sb5 2.658173 1_556
Cu1 Sb3 2.658173 1_455
Cu1 Sb4 2.658173 1_566
Cu1 Sb2 2.658173 1_555
Cu1 Ho2 2.927377 1_565
Cu1 Ho5 2.927377 1_555
Cu1 Ho3 2.927377 1_455
Cu1 Ho4 2.927377 1_556
Cu2 Sb7 2.658173 1_555
Cu2 Sb2 2.658173 1_555
Cu2 Sb1 2.658173 1_565
Cu2 Sb5 2.658173 1_555
Cu2 Ho4 2.927377 1_555
Cu2 Ho1 2.927377 1_555
Cu2 Ho0 2.927377 1_455
Cu2 Ho5 2.927377 1_555
Cu3 Sb4 2.658173 1_565
Cu3 Sb0 2.658173 1_555
Cu3 Sb3 2.658173 1_554
Cu3 Sb6 2.658173 1_665
Cu3 Ho4 2.927377 1_655
Cu3 Ho0 2.927377 1_565
Cu3 Ho1 2.927377 1_555
Cu3 Ho5 2.927377 1_554
Cu4 Sb7 2.658173 1_555
Cu4 Sb4 2.658173 1_555
Cu4 Sb0 2.658173 1_555
Cu4 Sb2 2.658173 1_655
Cu4 Ho0 2.927377 1_555
Cu4 Ho1 2.927377 1_555
Cu4 Ho2 2.927377 1_554
Cu4 Ho3 2.927377 1_555
Cu5 Sb1 2.658173 1_555
Cu5 Sb3 2.658173 1_545
Cu5 Sb5 2.658173 1_656
Cu5 Sb6 2.658173 1_655
Cu5 Ho2 2.927377 1_655
Cu5 Ho3 2.927377 1_555
Cu5 Ho1 2.927377 1_545
Cu5 Ho0 2.927377 1_556
