# generated using pymatgen
data_Sr3LaC2N4F5
_symmetry_space_group_name_H-M   'P 1'
_cell_length_a   6.65614250
_cell_length_b   6.65614250
_cell_length_c   6.67576789
_cell_angle_alpha   75.76771905
_cell_angle_beta   75.76771905
_cell_angle_gamma   120.28310212
_symmetry_Int_Tables_number   1
_chemical_formula_structural   Sr3LaC2N4F5
_chemical_formula_sum   'Sr3 La1 C2 N4 F5'
_cell_volume   222.09164583
_cell_formula_units_Z   1
loop_
 _symmetry_equiv_pos_site_id
 _symmetry_equiv_pos_as_xyz
  1  'x, y, z'
loop_
 _atom_site_type_symbol
 _atom_site_label
 _atom_site_symmetry_multiplicity
 _atom_site_fract_x
 _atom_site_fract_y
 _atom_site_fract_z
 _atom_site_occupancy
  Sr  Sr0  1  0.58254500  0.58254500  0.32641600  1
  Sr  Sr1  1  0.09135900  0.41690100  0.99986000  1
  Sr  Sr2  1  0.41690100  0.09135900  0.99986000  1
  La  La0  1  0.91242700  0.91242700  0.67878800  1
  C  C0  1  0.49664600  0.99901700  0.50082300  1
  C  C1  1  0.99901700  0.49664600  0.50082300  1
  N  N0  1  0.65352200  0.00029600  0.35525000  1
  N  N1  1  0.33931200  0.99729300  0.64838100  1
  N  N2  1  0.00029600  0.65352200  0.35525000  1
  N  N3  1  0.99729300  0.33931200  0.64838100  1
  F  F0  1  0.99777000  0.99777000  0.99167300  1
  F  F1  1  0.22471300  0.22471300  0.27858000  1
  F  F2  1  0.51123500  0.51123500  0.72962600  1
  F  F3  1  0.77036100  0.50660400  0.99314600  1
  F  F4  1  0.50660400  0.77036100  0.99314600  1
loop_
_geom_bond_atom_site_label_1
_geom_bond_atom_site_label_2
_geom_bond_distance
_geom_bond_site_symmetry_2
La0 N3 2.544628 1_565
La0 N1 2.544628 1_655
C0 N0 1.234028 1_565
C0 N1 1.241880 1_555
C1 N2 1.234028 1_655
C1 N3 1.241880 1_555
N0 Sr0 2.641033 1_545
N0 Sr1 2.650724 1_654
N1 Sr2 2.675143 1_565
N2 Sr0 2.641033 1_455
N2 Sr2 2.650724 1_564
N3 Sr1 2.675143 1_655
F0 La0 2.418603 1_555
F0 Sr0 2.548196 1_556
F0 Sr1 2.552055 1_665
F0 Sr2 2.552055 1_665
F1 La0 2.441386 1_445
F1 Sr0 2.544478 1_555
F1 Sr1 2.583272 1_554
F1 Sr2 2.583272 1_554
F2 Sr0 2.492463 1_555
F2 La0 2.508780 1_555
F2 Sr1 2.579440 1_555
F2 Sr2 2.579440 1_555
F3 Sr1 2.498830 1_655
F3 La0 2.501109 1_555
F3 Sr2 2.550577 1_555
F3 Sr0 2.567273 1_556
F4 Sr2 2.498830 1_565
F4 La0 2.501109 1_555
F4 Sr1 2.550577 1_555
F4 Sr0 2.567273 1_556
