# generated using pymatgen
data_Ca8(DySe4)3
_symmetry_space_group_name_H-M   'P 1'
_cell_length_a   5.87490700
_cell_length_b   5.87490700
_cell_length_c   17.75311500
_cell_angle_alpha   90.00000000
_cell_angle_beta   90.00000000
_cell_angle_gamma   90.00000000
_symmetry_Int_Tables_number   1
_chemical_formula_structural   Ca8(DySe4)3
_chemical_formula_sum   'Ca8 Dy3 Se12'
_cell_volume   612.74046036
_cell_formula_units_Z   1
loop_
 _symmetry_equiv_pos_site_id
 _symmetry_equiv_pos_as_xyz
  1  'x, y, z'
loop_
 _atom_site_type_symbol
 _atom_site_label
 _atom_site_symmetry_multiplicity
 _atom_site_fract_x
 _atom_site_fract_y
 _atom_site_fract_z
 _atom_site_occupancy
  Ca  Ca0  1  0.00000000  0.00000000  0.33221700  1
  Ca  Ca1  1  0.00000000  0.50000000  0.50022200  1
  Ca  Ca2  1  0.00000000  0.00000000  0.66778300  1
  Ca  Ca3  1  0.00000000  0.50000000  0.83929300  1
  Ca  Ca4  1  0.50000000  0.00000000  0.16070700  1
  Ca  Ca5  1  0.50000000  0.50000000  0.33377900  1
  Ca  Ca6  1  0.50000000  0.00000000  0.49977800  1
  Ca  Ca7  1  0.50000000  0.50000000  0.66622100  1
  Dy  Dy0  1  0.00000000  0.50000000  0.15928600  1
  Dy  Dy1  1  0.50000000  0.50000000  0.00000000  1
  Dy  Dy2  1  0.50000000  0.00000000  0.84071400  1
  Se  Se0  1  0.50000000  0.50000000  0.16366600  1
  Se  Se1  1  0.50000000  0.00000000  0.33238000  1
  Se  Se2  1  0.00000000  0.00000000  0.16868500  1
  Se  Se3  1  0.50000000  0.50000000  0.50000000  1
  Se  Se4  1  0.50000000  0.00000000  0.67200900  1
  Se  Se5  1  0.00000000  0.50000000  0.32799100  1
  Se  Se6  1  0.00000000  0.00000000  0.50000000  1
  Se  Se7  1  0.50000000  0.50000000  0.83633400  1
  Se  Se8  1  0.50000000  0.00000000  0.99693600  1
  Se  Se9  1  0.00000000  0.50000000  0.66762000  1
  Se  Se10  1  0.00000000  0.00000000  0.83131500  1
  Se  Se11  1  0.00000000  0.50000000  0.00306400  1
loop_
_geom_bond_atom_site_label_1
_geom_bond_atom_site_label_2
_geom_bond_distance
_geom_bond_site_symmetry_2
Ca0 Se2 2.903202 1_555
Ca0 Se1 2.937455 1_455
Ca0 Se1 2.937455 1_555
Ca0 Se5 2.938411 1_545
Ca0 Se5 2.938411 1_555
Ca0 Se6 2.978671 1_555
Ca1 Se6 2.937456 1_555
Ca1 Se3 2.937456 1_455
Ca1 Se3 2.937456 1_555
Ca1 Se6 2.937456 1_565
Ca1 Se9 2.971836 1_555
Ca1 Se5 3.057637 1_555
Ca2 Se10 2.903202 1_555
Ca2 Se9 2.937455 1_555
Ca2 Se9 2.937455 1_545
Ca2 Se4 2.938411 1_555
Ca2 Se4 2.938411 1_455
Ca2 Se6 2.978671 1_555
Ca3 Se11 2.907445 1_556
Ca3 Se7 2.937923 1_555
Ca3 Se7 2.937923 1_455
Ca3 Se10 2.940866 1_565
Ca3 Se10 2.940866 1_555
Ca3 Se9 3.047731 1_555
Ca4 Se8 2.907445 1_554
Ca4 Se0 2.937923 1_555
Ca4 Se0 2.937923 1_545
Ca4 Se2 2.940866 1_555
Ca4 Se2 2.940866 1_655
Ca4 Se1 3.047731 1_555
Ca5 Se1 2.937558 1_565
Ca5 Se1 2.937558 1_555
Ca5 Se5 2.939250 1_555
Ca5 Se5 2.939250 1_655
Ca5 Se3 2.950941 1_555
Ca5 Se0 3.020036 1_555
Ca6 Se6 2.937456 1_555
Ca6 Se3 2.937456 1_545
Ca6 Se3 2.937456 1_555
Ca6 Se6 2.937456 1_655
Ca6 Se1 2.971836 1_555
Ca6 Se4 3.057637 1_555
Ca7 Se9 2.937558 1_555
Ca7 Se9 2.937558 1_655
Ca7 Se4 2.939250 1_565
Ca7 Se4 2.939250 1_555
Ca7 Se3 2.950941 1_555
Ca7 Se7 3.020036 1_555
Dy0 Se11 2.773427 1_555
Dy0 Se0 2.938483 1_555
Dy0 Se0 2.938483 1_455
Dy0 Se2 2.942189 1_555
Dy0 Se2 2.942189 1_565
Dy0 Se5 2.995039 1_555
Dy1 Se0 2.905581 1_555
Dy1 Se7 2.905581 1_554
Dy1 Se11 2.937957 1_655
Dy1 Se11 2.937957 1_555
Dy1 Se8 2.937957 1_554
Dy1 Se8 2.937957 1_564
Dy2 Se8 2.773427 1_555
Dy2 Se7 2.938483 1_555
Dy2 Se7 2.938483 1_545
Dy2 Se10 2.942189 1_555
Dy2 Se10 2.942189 1_655
Dy2 Se4 2.995039 1_555
