# generated using pymatgen
data_Ba2InBiO6
_symmetry_space_group_name_H-M   'P 1'
_cell_length_a   8.61765146
_cell_length_b   8.61765146
_cell_length_c   8.61765146
_cell_angle_alpha   90.00000000
_cell_angle_beta   90.00000000
_cell_angle_gamma   90.00000000
_symmetry_Int_Tables_number   1
_chemical_formula_structural   Ba2InBiO6
_chemical_formula_sum   'Ba8 In4 Bi4 O24'
_cell_volume   639.98055005
_cell_formula_units_Z   4
loop_
 _symmetry_equiv_pos_site_id
 _symmetry_equiv_pos_as_xyz
  1  'x, y, z'
loop_
 _atom_site_type_symbol
 _atom_site_label
 _atom_site_symmetry_multiplicity
 _atom_site_fract_x
 _atom_site_fract_y
 _atom_site_fract_z
 _atom_site_occupancy
  Ba  Ba0  1  0.50000000  0.50000000  0.50000000  1
  Ba  Ba1  1  0.00000000  -0.00000000  0.00000000  1
  Ba  Ba2  1  0.00000000  -0.00000000  0.50000000  1
  Ba  Ba3  1  0.00000000  0.50000000  0.00000000  1
  Ba  Ba4  1  0.50000000  -0.00000000  0.00000000  1
  Ba  Ba5  1  0.50000000  0.50000000  0.00000000  1
  Ba  Ba6  1  0.50000000  -0.00000000  0.50000000  1
  Ba  Ba7  1  0.00000000  0.50000000  0.50000000  1
  In  In0  1  0.25000000  0.25000000  0.25000000  1
  In  In1  1  0.25000000  0.75000000  0.75000000  1
  In  In2  1  0.75000000  0.25000000  0.75000000  1
  In  In3  1  0.75000000  0.75000000  0.25000000  1
  Bi  Bi0  1  0.75000000  0.75000000  0.75000000  1
  Bi  Bi1  1  0.75000000  0.25000000  0.25000000  1
  Bi  Bi2  1  0.25000000  0.75000000  0.25000000  1
  Bi  Bi3  1  0.25000000  0.25000000  0.75000000  1
  O  O0  1  0.22866316  0.27367605  0.50223216  1
  O  O1  1  0.22866316  0.72632395  0.49776784  1
  O  O2  1  0.77133684  0.27367605  0.49776784  1
  O  O3  1  0.77133684  0.72632395  0.50223216  1
  O  O4  1  0.27367605  0.50223216  0.22866316  1
  O  O5  1  0.72632395  0.49776784  0.22866316  1
  O  O6  1  0.27367605  0.49776784  0.77133684  1
  O  O7  1  0.72632395  0.50223216  0.77133684  1
  O  O8  1  0.50223216  0.22866316  0.27367605  1
  O  O9  1  0.49776784  0.22866316  0.72632395  1
  O  O10  1  0.49776784  0.77133684  0.27367605  1
  O  O11  1  0.50223216  0.77133684  0.72632395  1
  O  O12  1  0.27133684  0.22632395  0.99776784  1
  O  O13  1  0.27133684  0.77367605  0.00223216  1
  O  O14  1  0.72866316  0.22632395  0.00223216  1
  O  O15  1  0.72866316  0.77367605  0.99776784  1
  O  O16  1  0.22632395  0.99776784  0.27133684  1
  O  O17  1  0.77367605  0.00223216  0.27133684  1
  O  O18  1  0.22632395  0.00223216  0.72866316  1
  O  O19  1  0.77367605  0.99776784  0.72866316  1
  O  O20  1  0.99776784  0.27133684  0.22632395  1
  O  O21  1  0.00223216  0.27133684  0.77367605  1
  O  O22  1  0.00223216  0.72866316  0.22632395  1
  O  O23  1  0.99776784  0.72866316  0.77367605  1
loop_
_geom_bond_atom_site_label_1
_geom_bond_atom_site_label_2
_geom_bond_distance
_geom_bond_site_symmetry_2
Ba0 O10 3.044986 1_555
Ba0 O0 3.044986 1_555
Ba0 O2 3.044986 1_555
Ba0 O4 3.044986 1_555
Ba0 O6 3.044986 1_555
Ba0 O8 3.044986 1_555
Ba0 O1 3.044986 1_555
Ba0 O3 3.044986 1_555
Ba0 O5 3.044986 1_555
Ba0 O7 3.044986 1_555
Ba0 O9 3.044986 1_555
Ba0 O11 3.044986 1_555
Ba1 O20 3.044986 1_455
Ba1 O14 3.044986 1_455
Ba1 O22 3.044986 1_545
Ba1 O16 3.044986 1_545
Ba1 O18 3.044986 1_554
Ba1 O12 3.044986 1_554
Ba1 O21 3.044986 1_554
Ba1 O23 3.044986 1_444
Ba1 O13 3.044986 1_545
Ba1 O15 3.044986 1_444
Ba1 O19 3.044986 1_444
Ba1 O17 3.044986 1_455
Ba2 O16 2.772613 1_545
Ba2 O18 2.772613 1_555
Ba2 O17 2.772613 1_455
Ba2 O19 2.772613 1_445
Ba2 O3 3.073379 1_445
Ba2 O2 3.073379 1_455
Ba2 O1 3.073379 1_545
Ba2 O0 3.073379 1_555
Ba2 O20 3.321177 1_455
Ba2 O22 3.321177 1_545
Ba2 O23 3.321177 1_445
Ba2 O21 3.321177 1_555
Ba3 O22 2.772613 1_555
Ba3 O20 2.772613 1_455
Ba3 O23 2.772613 1_454
Ba3 O21 2.772613 1_554
Ba3 O7 3.073379 1_454
Ba3 O4 3.073379 1_555
Ba3 O5 3.073379 1_455
Ba3 O6 3.073379 1_554
Ba3 O13 3.321177 1_555
Ba3 O14 3.321177 1_455
Ba3 O15 3.321177 1_454
Ba3 O12 3.321177 1_554
Ba4 O14 2.772613 1_555
Ba4 O12 2.772613 1_554
Ba4 O13 2.772613 1_545
Ba4 O15 2.772613 1_544
Ba4 O11 3.073379 1_544
Ba4 O8 3.073379 1_555
Ba4 O9 3.073379 1_554
Ba4 O10 3.073379 1_545
Ba4 O17 3.321177 1_555
Ba4 O19 3.321177 1_544
Ba4 O16 3.321177 1_545
Ba4 O18 3.321177 1_554
Ba5 O6 2.772613 1_554
Ba5 O7 2.772613 1_554
Ba5 O4 2.772613 1_555
Ba5 O5 2.772613 1_555
Ba5 O15 3.073379 1_554
Ba5 O13 3.073379 1_555
Ba5 O12 3.073379 1_554
Ba5 O14 3.073379 1_555
Ba5 O11 3.321177 1_554
Ba5 O9 3.321177 1_554
Ba5 O8 3.321177 1_555
Ba5 O10 3.321177 1_555
Ba6 O10 2.772613 1_545
Ba6 O9 2.772613 1_555
Ba6 O11 2.772613 1_545
Ba6 O8 2.772613 1_555
Ba6 O19 3.073379 1_545
Ba6 O17 3.073379 1_555
Ba6 O16 3.073379 1_545
Ba6 O18 3.073379 1_555
Ba6 O0 3.321177 1_555
Ba6 O2 3.321177 1_555
Ba6 O3 3.321177 1_545
Ba6 O1 3.321177 1_545
Ba7 O0 2.772613 1_555
Ba7 O2 2.772613 1_455
Ba7 O3 2.772613 1_455
Ba7 O1 2.772613 1_555
Ba7 O21 3.073379 1_555
Ba7 O23 3.073379 1_455
Ba7 O20 3.073379 1_455
Ba7 O22 3.073379 1_555
Ba7 O7 3.321177 1_455
Ba7 O4 3.321177 1_555
Ba7 O5 3.321177 1_455
Ba7 O6 3.321177 1_555
In0 O8 2.190933 1_555
In0 O12 2.190933 1_554
In0 O0 2.190933 1_555
In0 O4 2.190933 1_555
In0 O20 2.190933 1_455
In0 O16 2.190933 1_545
In1 O18 2.190933 1_565
In1 O13 2.190933 1_556
In1 O6 2.190933 1_555
In1 O1 2.190933 1_555
In1 O23 2.190933 1_455
In1 O11 2.190933 1_555
In2 O14 2.190933 1_556
In2 O21 2.190933 1_655
In2 O9 2.190933 1_555
In2 O2 2.190933 1_555
In2 O19 2.190933 1_545
In2 O7 2.190933 1_555
In3 O22 2.190933 1_655
In3 O17 2.190933 1_565
In3 O5 2.190933 1_555
In3 O15 2.190933 1_554
In3 O10 2.190933 1_555
In3 O3 2.190933 1_555
Bi0 O15 2.152770 1_555
Bi0 O3 2.152770 1_555
Bi0 O23 2.152770 1_555
Bi0 O11 2.152770 1_555
Bi0 O7 2.152770 1_555
Bi0 O19 2.152770 1_555
Bi1 O8 2.152770 1_555
Bi1 O2 2.152770 1_555
Bi1 O20 2.152770 1_555
Bi1 O17 2.152770 1_555
Bi1 O14 2.152770 1_555
Bi1 O5 2.152770 1_555
Bi2 O4 2.152770 1_555
Bi2 O13 2.152770 1_555
Bi2 O22 2.152770 1_555
Bi2 O10 2.152770 1_555
Bi2 O1 2.152770 1_555
Bi2 O16 2.152770 1_555
Bi3 O9 2.152770 1_555
Bi3 O0 2.152770 1_555
Bi3 O6 2.152770 1_555
Bi3 O21 2.152770 1_555
Bi3 O18 2.152770 1_555
Bi3 O12 2.152770 1_555
