# generated using pymatgen
data_B4Mo
_symmetry_space_group_name_H-M   'P 1'
_cell_length_a   5.51587982
_cell_length_b   5.51587982
_cell_length_c   5.16740700
_cell_angle_alpha   90.00000000
_cell_angle_beta   90.00000000
_cell_angle_gamma   119.99999788
_symmetry_Int_Tables_number   1
_chemical_formula_structural   B4Mo
_chemical_formula_sum   'B12 Mo3'
_cell_volume   136.15478260
_cell_formula_units_Z   3
loop_
 _symmetry_equiv_pos_site_id
 _symmetry_equiv_pos_as_xyz
  1  'x, y, z'
loop_
 _atom_site_type_symbol
 _atom_site_label
 _atom_site_symmetry_multiplicity
 _atom_site_fract_x
 _atom_site_fract_y
 _atom_site_fract_z
 _atom_site_occupancy
  B  B0  1  0.65992000  0.00000000  0.28546600  1
  B  B1  1  0.00000000  0.65992000  0.28546600  1
  B  B2  1  0.34008000  0.34008000  0.28546600  1
  B  B3  1  0.00000000  0.34008000  0.28546600  1
  B  B4  1  0.34008000  0.00000000  0.28546600  1
  B  B5  1  0.65992000  0.65992000  0.28546600  1
  B  B6  1  0.00000000  0.34008000  0.71453400  1
  B  B7  1  0.65992000  0.65992000  0.71453400  1
  B  B8  1  0.34008000  0.00000000  0.71453400  1
  B  B9  1  0.65992000  0.00000000  0.71453400  1
  B  B10  1  0.34008000  0.34008000  0.71453400  1
  B  B11  1  0.00000000  0.65992000  0.71453400  1
  Mo  Mo0  1  0.66666700  0.33333300  0.00000000  1
  Mo  Mo1  1  0.00000000  0.00000000  0.50000000  1
  Mo  Mo2  1  0.33333300  0.66666700  0.00000000  1
loop_
_geom_bond_atom_site_label_1
_geom_bond_atom_site_label_2
_geom_bond_distance
_geom_bond_site_symmetry_2
B0 B4 1.764199 1_555
B0 B5 1.875840 1_545
B0 B3 1.875840 1_655
B0 Mo1 2.178930 1_655
B0 B9 2.217169 1_555
B0 Mo0 2.342963 1_555
B0 Mo2 2.342965 1_545
B1 B3 1.764199 1_555
B1 B5 1.875840 1_455
B1 B4 1.875840 1_565
B1 Mo1 2.178930 1_565
B1 B11 2.217169 1_555
B1 Mo2 2.342963 1_555
B1 Mo0 2.342965 1_455
B2 B5 1.764199 1_555
B2 B3 1.875840 1_555
B2 B4 1.875840 1_555
B2 Mo1 2.178930 1_555
B2 Mo2 2.342967 1_555
B2 Mo0 2.342967 1_555
B3 Mo1 2.178930 1_555
B3 B6 2.217169 1_555
B3 Mo0 2.342963 1_455
B3 Mo2 2.342965 1_555
B4 Mo1 2.178930 1_555
B4 B8 2.217169 1_555
B4 Mo2 2.342963 1_545
B4 Mo0 2.342965 1_555
B5 Mo1 2.178930 1_665
B5 B7 2.217169 1_555
B5 Mo2 2.342967 1_555
B5 Mo0 2.342967 1_555
B6 B9 1.875840 1_455
B6 Mo1 2.178930 1_555
B6 Mo0 2.342963 1_456
B6 Mo2 2.342965 1_556
B7 B9 1.875840 1_565
B7 Mo1 2.178930 1_665
B7 Mo2 2.342967 1_556
B7 Mo0 2.342967 1_556
B8 B9 1.764199 1_555
B8 Mo1 2.178930 1_555
B8 Mo2 2.342963 1_546
B8 Mo0 2.342965 1_556
B9 Mo1 2.178930 1_655
B9 Mo0 2.342963 1_556
B9 Mo2 2.342965 1_546
B10 B7 1.764199 1_555
B10 B8 1.875840 1_555
B10 B6 1.875840 1_555
B10 Mo1 2.178930 1_555
B10 B2 2.217169 1_555
B10 Mo2 2.342967 1_556
B10 Mo0 2.342967 1_556
B11 B6 1.764199 1_555
B11 B7 1.875840 1_455
B11 B8 1.875840 1_565
B11 Mo1 2.178930 1_565
B11 Mo2 2.342963 1_556
B11 Mo0 2.342965 1_456
