# generated using pymatgen
data_Nd4Ge13
_symmetry_space_group_name_H-M   'P 1'
_cell_length_a   4.01447500
_cell_length_b   4.14830900
_cell_length_c   22.39181800
_cell_angle_alpha   90.00000000
_cell_angle_beta   90.00000000
_cell_angle_gamma   90.00000000
_symmetry_Int_Tables_number   1
_chemical_formula_structural   Nd4Ge13
_chemical_formula_sum   'Nd4 Ge13'
_cell_volume   372.89727695
_cell_formula_units_Z   1
loop_
 _symmetry_equiv_pos_site_id
 _symmetry_equiv_pos_as_xyz
  1  'x, y, z'
loop_
 _atom_site_type_symbol
 _atom_site_label
 _atom_site_symmetry_multiplicity
 _atom_site_fract_x
 _atom_site_fract_y
 _atom_site_fract_z
 _atom_site_occupancy
  Nd  Nd0  1  0.00000000  0.50000000  0.32770300  1
  Nd  Nd1  1  0.50000000  0.50000000  0.83691300  1
  Nd  Nd2  1  0.50000000  0.50000000  0.15700900  1
  Nd  Nd3  1  0.00000000  0.50000000  0.67454200  1
  Ge  Ge0  1  0.00000000  0.00000000  0.19824700  1
  Ge  Ge1  1  0.50000000  0.00000000  0.71773300  1
  Ge  Ge2  1  0.50000000  0.00000000  0.26731500  1
  Ge  Ge3  1  0.00000000  0.00000000  0.78918900  1
  Ge  Ge4  1  0.00000000  0.00000000  0.46018800  1
  Ge  Ge5  1  0.50000000  0.00000000  0.94260200  1
  Ge  Ge6  1  0.50000000  0.00000000  0.05472300  1
  Ge  Ge7  1  0.00000000  0.00000000  0.57347300  1
  Ge  Ge8  1  0.50000000  0.50000000  0.45517900  1
  Ge  Ge9  1  0.00000000  0.50000000  0.94234500  1
  Ge  Ge10  1  0.00000000  0.50000000  0.05369000  1
  Ge  Ge11  1  0.50000000  0.50000000  0.56935100  1
  Ge  Ge12  1  0.50000000  0.00000000  0.38359800  1
loop_
_geom_bond_atom_site_label_1
_geom_bond_atom_site_label_2
_geom_bond_distance
_geom_bond_site_symmetry_2
Ge0 Ge2 2.533938 1_555
Ge0 Ge2 2.533938 1_455
Ge0 Nd2 3.030474 1_545
Ge0 Nd2 3.030474 1_445
Ge0 Nd2 3.030474 1_455
Ge0 Nd2 3.030474 1_555
Ge0 Nd0 3.564393 1_555
Ge0 Nd0 3.564393 1_545
Ge1 Ge3 2.566924 1_555
Ge1 Ge3 2.566924 1_655
Ge1 Nd3 3.044084 1_545
Ge1 Nd3 3.044084 1_555
Ge1 Nd3 3.044084 1_645
Ge1 Nd3 3.044084 1_655
Ge1 Nd1 3.379918 1_555
Ge1 Nd1 3.379918 1_545
Ge2 Nd0 3.187406 1_645
Ge2 Nd0 3.187406 1_555
Ge2 Nd0 3.187406 1_545
Ge2 Nd0 3.187406 1_655
Ge2 Nd2 3.225334 1_555
Ge2 Nd2 3.225334 1_545
Ge3 Nd1 3.077837 1_445
Ge3 Nd1 3.077837 1_555
Ge3 Nd1 3.077837 1_545
Ge3 Nd1 3.077837 1_455
Ge3 Nd3 3.300364 1_545
Ge3 Nd3 3.300364 1_555
Ge4 Ge7 2.536657 1_555
Ge4 Ge8 2.888546 1_455
Ge4 Ge8 2.888546 1_555
Ge4 Ge8 2.888546 1_545
Ge4 Ge8 2.888546 1_445
Ge4 Nd0 3.619767 1_555
Ge4 Nd0 3.619767 1_545
Ge5 Ge6 2.510593 1_556
Ge5 Ge9 2.886374 1_555
Ge5 Ge9 2.886374 1_545
Ge5 Ge9 2.886374 1_645
Ge5 Ge9 2.886374 1_655
Ge5 Nd1 3.146866 1_555
Ge5 Nd1 3.146866 1_545
Ge6 Nd2 3.089969 1_555
Ge6 Nd2 3.089969 1_545
Ge7 Nd3 3.069825 1_545
Ge7 Nd3 3.069825 1_555
Ge8 Nd0 3.489515 1_555
Ge8 Nd0 3.489515 1_655
Ge9 Nd1 3.098781 1_555
Ge9 Nd1 3.098781 1_455
Ge10 Ge9 2.493217 1_554
Ge10 Ge6 2.886461 1_565
Ge10 Ge6 2.886461 1_465
Ge10 Ge6 2.886461 1_455
Ge10 Ge6 2.886461 1_555
Ge10 Nd2 3.062888 1_455
Ge10 Nd2 3.062888 1_555
Ge11 Ge8 2.556519 1_555
Ge11 Ge7 2.887843 1_655
Ge11 Ge7 2.887843 1_665
Ge11 Ge7 2.887843 1_555
Ge11 Ge7 2.887843 1_565
Ge11 Nd3 3.094672 1_555
Ge11 Nd3 3.094672 1_655
Ge12 Ge2 2.603788 1_555
Ge12 Ge8 2.621293 1_545
Ge12 Ge8 2.621293 1_555
Ge12 Ge4 2.640112 1_655
Ge12 Ge4 2.640112 1_555
Ge12 Nd0 3.146045 1_545
Ge12 Nd0 3.146045 1_655
Ge12 Nd0 3.146045 1_645
Ge12 Nd0 3.146045 1_555
