# generated using pymatgen
data_Na3BrCl2
_symmetry_space_group_name_H-M   'P 1'
_cell_length_a   9.02551027
_cell_length_b   9.02551027
_cell_length_c   9.02551027
_cell_angle_alpha   154.15996553
_cell_angle_beta   154.15996553
_cell_angle_gamma   36.86713950
_symmetry_Int_Tables_number   1
_chemical_formula_structural   Na3BrCl2
_chemical_formula_sum   'Na3 Br1 Cl2'
_cell_volume   139.47851231
_cell_formula_units_Z   1
loop_
 _symmetry_equiv_pos_site_id
 _symmetry_equiv_pos_as_xyz
  1  'x, y, z'
loop_
 _atom_site_type_symbol
 _atom_site_label
 _atom_site_symmetry_multiplicity
 _atom_site_fract_x
 _atom_site_fract_y
 _atom_site_fract_z
 _atom_site_occupancy
  Na  Na0  1  0.67098916  0.67098916  0.00000000  1
  Na  Na1  1  -0.00000000  -0.00000000  -0.00000000  1
  Na  Na2  1  0.32901084  0.32901084  -0.00000000  1
  Br  Br0  1  0.50000000  0.50000000  -0.00000000  1
  Cl  Cl0  1  0.83233815  0.83233815  -0.00000000  1
  Cl  Cl1  1  0.16766185  0.16766185  0.00000000  1
loop_
_geom_bond_atom_site_label_1
_geom_bond_atom_site_label_2
_geom_bond_distance
_geom_bond_site_symmetry_2
Br0 Na1 2.853911 1_554
Br0 Na1 2.853911 1_565
Br0 Na1 2.853911 1_666
Br0 Na1 2.853911 1_655
Br0 Na2 2.928162 1_555
Br0 Na0 2.928162 1_555
Cl0 Na0 2.763075 1_555
Cl0 Na2 2.854480 1_565
Cl0 Na2 2.854480 1_554
Cl0 Na2 2.854480 1_655
Cl0 Na2 2.854480 1_666
Cl0 Na1 2.871182 1_665
Cl1 Na2 2.763075 1_555
Cl1 Na0 2.854480 1_545
Cl1 Na0 2.854480 1_444
Cl1 Na0 2.854480 1_455
Cl1 Na0 2.854480 1_556
Cl1 Na1 2.871182 1_555
