# generated using pymatgen
data_Rb2V(PO4)2
_symmetry_space_group_name_H-M   'P 1'
_cell_length_a   7.26473400
_cell_length_b   9.52906500
_cell_length_c   13.12103100
_cell_angle_alpha   90.00000000
_cell_angle_beta   90.00000000
_cell_angle_gamma   90.00000000
_symmetry_Int_Tables_number   1
_chemical_formula_structural   Rb2V(PO4)2
_chemical_formula_sum   'Rb8 V4 P8 O32'
_cell_volume   908.31809925
_cell_formula_units_Z   4
loop_
 _symmetry_equiv_pos_site_id
 _symmetry_equiv_pos_as_xyz
  1  'x, y, z'
loop_
 _atom_site_type_symbol
 _atom_site_label
 _atom_site_symmetry_multiplicity
 _atom_site_fract_x
 _atom_site_fract_y
 _atom_site_fract_z
 _atom_site_occupancy
  Rb  Rb0  1  0.25000000  0.57658100  0.90440300  1
  Rb  Rb1  1  0.25000000  0.92341900  0.40440300  1
  Rb  Rb2  1  0.75000000  0.42341900  0.09559700  1
  Rb  Rb3  1  0.75000000  0.07658100  0.59559700  1
  Rb  Rb4  1  0.25000000  0.35920900  0.59374600  1
  Rb  Rb5  1  0.25000000  0.14079100  0.09374600  1
  Rb  Rb6  1  0.75000000  0.64079100  0.40625400  1
  Rb  Rb7  1  0.75000000  0.85920900  0.90625400  1
  V  V0  1  0.25000000  0.00264700  0.79801300  1
  V  V1  1  0.25000000  0.49735300  0.29801300  1
  V  V2  1  0.75000000  0.99735300  0.20198700  1
  V  V3  1  0.75000000  0.50264700  0.70198700  1
  P  P0  1  0.04407100  0.76913500  0.64907000  1
  P  P1  1  0.45592900  0.73086500  0.14907000  1
  P  P2  1  0.54407100  0.23086500  0.35093000  1
  P  P3  1  0.95592900  0.26913500  0.85093000  1
  P  P4  1  0.95592900  0.23086500  0.35093000  1
  P  P5  1  0.54407100  0.26913500  0.85093000  1
  P  P6  1  0.45592900  0.76913500  0.64907000  1
  P  P7  1  0.04407100  0.73086500  0.14907000  1
  O  O0  1  0.25000000  0.93101100  0.91203300  1
  O  O1  1  0.25000000  0.56898900  0.41203300  1
  O  O2  1  0.75000000  0.06898900  0.08796700  1
  O  O3  1  0.75000000  0.43101100  0.58796700  1
  O  O4  1  0.93742400  0.65540700  0.70766200  1
  O  O5  1  0.56257600  0.84459300  0.20766200  1
  O  O6  1  0.43742400  0.34459300  0.29233800  1
  O  O7  1  0.06257600  0.15540700  0.79233800  1
  O  O8  1  0.06257600  0.34459300  0.29233800  1
  O  O9  1  0.43742400  0.15540700  0.79233800  1
  O  O10  1  0.56257600  0.65540700  0.70766200  1
  O  O11  1  0.93742400  0.84459300  0.20766200  1
  O  O12  1  0.97646900  0.80457800  0.54410200  1
  O  O13  1  0.52353100  0.69542200  0.04410200  1
  O  O14  1  0.47646900  0.19542200  0.45589800  1
  O  O15  1  0.02353100  0.30457800  0.95589800  1
  O  O16  1  0.02353100  0.19542200  0.45589800  1
  O  O17  1  0.47646900  0.30457800  0.95589800  1
  O  O18  1  0.52353100  0.80457800  0.54410200  1
  O  O19  1  0.97646900  0.69542200  0.04410200  1
  O  O20  1  0.05925800  0.90042900  0.71892300  1
  O  O21  1  0.44074200  0.59957100  0.21892300  1
  O  O22  1  0.55925800  0.09957100  0.28107700  1
  O  O23  1  0.94074200  0.40042900  0.78107700  1
  O  O24  1  0.94074200  0.09957100  0.28107700  1
  O  O25  1  0.55925800  0.40042900  0.78107700  1
  O  O26  1  0.44074200  0.90042900  0.71892300  1
  O  O27  1  0.05925800  0.59957100  0.21892300  1
  O  O28  1  0.25000000  0.70050700  0.64199300  1
  O  O29  1  0.25000000  0.79949300  0.14199300  1
  O  O30  1  0.75000000  0.29949300  0.35800700  1
  O  O31  1  0.75000000  0.20050700  0.85800700  1
loop_
_geom_bond_atom_site_label_1
_geom_bond_atom_site_label_2
_geom_bond_distance
_geom_bond_site_symmetry_2
O0 V0 1.644436 1_565
O0 Rb5 3.111388 1_566
O0 Rb0 3.378870 1_555
O1 V1 1.644436 1_555
O1 Rb4 3.111388 1_555
O1 Rb1 3.378870 1_555
O2 V2 1.644436 1_545
O2 Rb7 3.111388 1_544
O2 Rb2 3.378870 1_555
O3 V3 1.644436 1_555
O3 Rb6 3.111388 1_555
O3 Rb3 3.378870 1_555
O4 P0 1.538097 1_655
O4 V3 1.994594 1_555
O4 Rb7 3.523533 1_555
O5 P1 1.538097 1_555
O5 V2 1.994594 1_555
O5 Rb6 3.523533 1_555
O6 P2 1.538097 1_555
O6 V1 1.994594 1_555
O6 Rb5 3.523533 1_555
O7 P3 1.538097 1_455
O7 V0 1.994594 1_555
O7 Rb4 3.523533 1_555
O8 P4 1.538097 1_455
O8 V1 1.994594 1_555
O8 Rb5 3.523533 1_555
O9 P5 1.538097 1_555
O9 V0 1.994594 1_555
O9 Rb4 3.523533 1_555
O10 P6 1.538097 1_555
O10 V3 1.994594 1_555
O10 Rb7 3.523533 1_555
O11 P7 1.538097 1_655
O11 V2 1.994594 1_555
O11 Rb6 3.523533 1_555
O12 P0 1.500727 1_655
O12 Rb6 2.900712 1_555
O12 Rb1 2.931038 1_655
O12 Rb3 3.143478 1_565
O13 P1 1.500727 1_555
O13 Rb7 2.900712 1_554
O13 Rb0 2.931038 1_554
O13 Rb2 3.143478 1_555
O14 P2 1.500727 1_555
O14 Rb4 2.900712 1_555
O14 Rb3 2.931038 1_555
O14 Rb1 3.143478 1_545
O15 P3 1.500727 1_455
O15 Rb5 2.900712 1_556
O15 Rb2 2.931038 1_456
O15 Rb0 3.143478 1_555
O16 P4 1.500727 1_455
O16 Rb4 2.900712 1_555
O16 Rb3 2.931038 1_455
O16 Rb1 3.143478 1_545
O17 P5 1.500727 1_555
O17 Rb5 2.900712 1_556
O17 Rb2 2.931038 1_556
O17 Rb0 3.143478 1_555
O18 P6 1.500727 1_555
O18 Rb6 2.900712 1_555
O18 Rb1 2.931038 1_555
O18 Rb3 3.143478 1_565
O19 P7 1.500727 1_655
O19 Rb7 2.900712 1_554
O19 Rb0 2.931038 1_654
O19 Rb2 3.143478 1_555
O20 P0 1.554831 1_555
O20 V0 1.986405 1_565
O20 Rb3 3.237837 1_465
O20 Rb7 3.353131 1_455
O21 P1 1.554831 1_555
O21 V1 1.986405 1_555
O21 Rb2 3.237837 1_555
O21 Rb6 3.353131 1_555
O22 P2 1.554831 1_555
O22 V2 1.986405 1_545
O22 Rb1 3.237837 1_545
O22 Rb5 3.353131 1_555
O23 P3 1.554831 1_555
O23 V3 1.986405 1_555
O23 Rb0 3.237837 1_655
O23 Rb4 3.353131 1_655
O24 P4 1.554831 1_555
O24 V2 1.986405 1_545
O24 Rb1 3.237837 1_645
O24 Rb5 3.353131 1_655
O25 P5 1.554831 1_555
O25 V3 1.986405 1_555
O25 Rb0 3.237837 1_555
O25 Rb4 3.353131 1_555
O26 P6 1.554831 1_555
O26 V0 1.986405 1_565
O26 Rb3 3.237837 1_565
O26 Rb7 3.353131 1_555
O27 P7 1.554831 1_555
O27 V1 1.986405 1_555
O27 Rb2 3.237837 1_455
O27 Rb6 3.353131 1_455
O28 P6 1.635347 1_555
O28 P0 1.635347 1_555
O28 Rb4 3.313290 1_555
O29 P1 1.635347 1_555
O29 P7 1.635347 1_555
O29 Rb5 3.313290 1_565
O30 P4 1.635347 1_555
O30 P2 1.635347 1_555
O30 Rb6 3.313290 1_555
O31 P3 1.635347 1_555
O31 P5 1.635347 1_555
O31 Rb7 3.313290 1_545
