# generated using pymatgen
data_Ce2ZnSb4
_symmetry_space_group_name_H-M   'P 1'
_cell_length_a   4.40226682
_cell_length_b   4.40259049
_cell_length_c   10.05171834
_cell_angle_alpha   90.00000000
_cell_angle_beta   90.00000000
_cell_angle_gamma   90.00000000
_symmetry_Int_Tables_number   1
_chemical_formula_structural   Ce2ZnSb4
_chemical_formula_sum   'Ce2 Zn1 Sb4'
_cell_volume   194.81615306
_cell_formula_units_Z   1
loop_
 _symmetry_equiv_pos_site_id
 _symmetry_equiv_pos_as_xyz
  1  'x, y, z'
loop_
 _atom_site_type_symbol
 _atom_site_label
 _atom_site_symmetry_multiplicity
 _atom_site_fract_x
 _atom_site_fract_y
 _atom_site_fract_z
 _atom_site_occupancy
  Ce  Ce0  1  0.50000000  0.00000000  0.74879929  1
  Ce  Ce1  1  0.00000000  0.50000000  0.25116858  1
  Zn  Zn0  1  0.50000000  0.50000000  0.49986794  1
  Sb  Sb0  1  0.50000000  0.50000000  0.00010587  1
  Sb  Sb1  1  0.00000000  0.00000000  0.00010889  1
  Sb  Sb2  1  0.50000000  0.00000000  0.34816163  1
  Sb  Sb3  1  0.00000000  0.50000000  0.65178681  1
loop_
_geom_bond_atom_site_label_1
_geom_bond_atom_site_label_2
_geom_bond_distance
_geom_bond_site_symmetry_2
Ce0 Sb3 3.262145 1_545
Ce0 Sb3 3.262145 1_555
Ce0 Sb3 3.262145 1_645
Ce0 Sb3 3.262145 1_655
Ce0 Zn0 3.332663 1_545
Ce0 Zn0 3.332663 1_555
Ce0 Sb1 3.350543 1_556
Ce0 Sb1 3.350543 1_656
Ce0 Sb0 3.350626 1_556
Ce0 Sb0 3.350626 1_546
Ce1 Sb2 3.262087 1_465
Ce1 Sb2 3.262087 1_455
Ce1 Sb2 3.262087 1_565
Ce1 Sb2 3.262087 1_555
Ce1 Zn0 3.330806 1_555
Ce1 Zn0 3.330806 1_455
Ce1 Sb0 3.348672 1_555
Ce1 Sb0 3.348672 1_455
Ce1 Sb1 3.348755 1_555
Ce1 Sb1 3.348755 1_565
Sb0 Sb1 3.112987 1_555
Sb0 Sb1 3.112987 1_565
Sb0 Sb1 3.112987 1_655
Sb0 Sb1 3.112987 1_665
Sb2 Zn0 2.677881 1_555
Sb2 Zn0 2.677881 1_545
Sb3 Zn0 2.678966 1_455
Sb3 Zn0 2.678966 1_555
