# generated using pymatgen
data_Li7Mn2(CoO4)3
_symmetry_space_group_name_H-M   'P 1'
_cell_length_a   5.04681900
_cell_length_b   5.15356578
_cell_length_c   8.71963655
_cell_angle_alpha   73.43697296
_cell_angle_beta   85.76147204
_cell_angle_gamma   80.80210856
_symmetry_Int_Tables_number   1
_chemical_formula_structural   Li7Mn2(CoO4)3
_chemical_formula_sum   'Li7 Mn2 Co3 O12'
_cell_volume   214.48843422
_cell_formula_units_Z   1
loop_
 _symmetry_equiv_pos_site_id
 _symmetry_equiv_pos_as_xyz
  1  'x, y, z'
loop_
 _atom_site_type_symbol
 _atom_site_label
 _atom_site_symmetry_multiplicity
 _atom_site_fract_x
 _atom_site_fract_y
 _atom_site_fract_z
 _atom_site_occupancy
  Li  Li0  1  0.75949700  0.24595600  0.73969000  1
  Li  Li1  1  0.24920400  0.08413200  0.91563000  1
  Li  Li2  1  0.23931400  0.41855700  0.57629800  1
  Li  Li3  1  0.76068600  0.58144300  0.42370200  1
  Li  Li4  1  0.24050300  0.75404400  0.26031000  1
  Li  Li5  1  0.75079600  0.91586800  0.08437000  1
  Li  Li6  1  0.00000000  0.00000000  0.50000000  1
  Mn  Mn0  1  0.99774500  0.66872200  0.83012900  1
  Mn  Mn1  1  0.00225500  0.33127800  0.16987100  1
  Co  Co0  1  0.50000000  0.50000000  0.00000000  1
  Co  Co1  1  0.51061700  0.16659400  0.34249200  1
  Co  Co2  1  0.48938300  0.83340600  0.65750800  1
  O  O0  1  0.12707700  0.00233200  0.72271800  1
  O  O1  1  0.64263000  0.85132100  0.86832300  1
  O  O2  1  0.60247700  0.20367000  0.53648900  1
  O  O3  1  0.12271100  0.37699800  0.35795500  1
  O  O4  1  0.64146700  0.52370000  0.19329700  1
  O  O5  1  0.12260300  0.68068000  0.03839900  1
  O  O6  1  0.35853300  0.47630000  0.80670300  1
  O  O7  1  0.87739700  0.31932000  0.96160100  1
  O  O8  1  0.87728900  0.62300200  0.64204500  1
  O  O9  1  0.39752300  0.79633000  0.46351100  1
  O  O10  1  0.87292300  0.99766800  0.27728200  1
  O  O11  1  0.35737000  0.14867900  0.13167700  1
loop_
_geom_bond_atom_site_label_1
_geom_bond_atom_site_label_2
_geom_bond_distance
_geom_bond_site_symmetry_2
Li0 O8 2.050683 1_555
Li0 O2 2.073111 1_555
Li0 O0 2.088167 1_655
Li0 O1 2.174235 1_545
Li0 O7 2.213680 1_555
Li0 O6 2.301802 1_555
Li1 O0 2.006927 1_555
Li1 O6 2.115622 1_555
Li1 O11 2.127181 1_556
Li1 O7 2.142319 1_455
Li1 O5 2.220794 1_546
Li1 O1 2.225223 1_545
Li2 O2 2.045084 1_555
Li2 O8 2.085932 1_455
Li2 O3 2.110756 1_555
Li2 O9 2.164325 1_555
Li2 O6 2.250250 1_555
Li2 O0 2.296133 1_555
Li3 O9 2.045084 1_555
Li3 O3 2.085932 1_655
Li3 O8 2.110756 1_555
Li3 O2 2.164325 1_555
Li3 O4 2.250250 1_555
Li3 O10 2.296133 1_555
Li4 O3 2.050683 1_555
Li4 O9 2.073111 1_555
Li4 O10 2.088167 1_455
Li4 O11 2.174235 1_565
Li4 O5 2.213680 1_555
Li4 O4 2.301802 1_555
Li5 O10 2.006927 1_555
Li5 O4 2.115622 1_555
Li5 O1 2.127181 1_554
Li5 O5 2.142319 1_655
Li5 O7 2.220794 1_564
Li5 O11 2.225223 1_565
Li6 O0 2.093507 1_555
Li6 O10 2.093507 1_445
Li6 O8 2.142824 1_445
Li6 O3 2.142824 1_555
Li6 O9 2.156558 1_545
Li6 O2 2.156558 1_455
Mn0 O8 1.878362 1_555
Mn0 O0 1.899863 1_665
Mn0 O1 1.939004 1_555
Mn0 O6 1.955455 1_655
Mn0 O5 1.986012 1_656
Mn0 O7 1.998826 1_555
Mn1 O3 1.878362 1_555
Mn1 O10 1.899863 1_445
Mn1 O11 1.939004 1_555
Mn1 O4 1.955455 1_455
Mn1 O7 1.986012 1_454
Mn1 O5 1.998826 1_555
Co0 O4 1.920579 1_555
Co0 O6 1.920579 1_554
Co0 O7 2.030606 1_554
Co0 O5 2.030606 1_555
Co0 O11 2.055194 1_555
Co0 O1 2.055194 1_554
Co1 O2 1.855103 1_555
Co1 O10 2.011030 1_545
Co1 O9 2.047335 1_545
Co1 O11 2.077383 1_555
Co1 O3 2.095761 1_555
Co1 O4 2.100473 1_555
Co2 O9 1.855103 1_555
Co2 O0 2.011030 1_565
Co2 O2 2.047335 1_565
Co2 O1 2.077383 1_555
Co2 O8 2.095761 1_555
Co2 O6 2.100473 1_555
