# generated using pymatgen
data_Li3BiN2
_symmetry_space_group_name_H-M   'P 1'
_cell_length_a   10.61697815
_cell_length_b   7.05800913
_cell_length_c   18.74166377
_cell_angle_alpha   90.00000405
_cell_angle_beta   151.96089727
_cell_angle_gamma   109.41405120
_symmetry_Int_Tables_number   1
_chemical_formula_structural   Li3BiN2
_chemical_formula_sum   'Li12 Bi4 N8'
_cell_volume   466.81263871
_cell_formula_units_Z   4
loop_
 _symmetry_equiv_pos_site_id
 _symmetry_equiv_pos_as_xyz
  1  'x, y, z'
loop_
 _atom_site_type_symbol
 _atom_site_label
 _atom_site_symmetry_multiplicity
 _atom_site_fract_x
 _atom_site_fract_y
 _atom_site_fract_z
 _atom_site_occupancy
  Li  Li0  1  0.00000000  0.50000000  0.35101900  1
  Li  Li1  1  0.00000000  0.00000000  0.89898100  1
  Li  Li2  1  0.00000000  0.50000000  0.14898100  1
  Li  Li3  1  0.00000000  0.00000000  0.10101900  1
  Li  Li4  1  0.41652600  0.50000000  0.45826300  1
  Li  Li5  1  0.58347400  0.50000000  0.04173700  1
  Li  Li6  1  0.41652600  0.00000000  0.20826300  1
  Li  Li7  1  0.58347400  0.00000000  0.79173700  1
  Li  Li8  1  0.58347400  0.08347400  0.04173700  1
  Li  Li9  1  0.41652600  0.91652600  0.45826300  1
  Li  Li10  1  0.58347400  0.58347400  0.79173700  1
  Li  Li11  1  0.41652600  0.41652600  0.20826300  1
  Bi  Bi0  1  0.00000000  0.50000000  0.62914000  1
  Bi  Bi1  1  0.00000000  0.00000000  0.62086000  1
  Bi  Bi2  1  0.00000000  0.50000000  0.87086000  1
  Bi  Bi3  1  0.00000000  0.00000000  0.37914000  1
  N  N0  1  0.52004600  0.26002300  0.32382500  1
  N  N1  1  0.47995400  0.73997700  0.80377900  1
  N  N2  1  0.52004600  0.76002300  0.44622100  1
  N  N3  1  0.47995400  0.23997700  0.92617500  1
  N  N4  1  0.00000000  0.73997700  0.93619800  1
  N  N5  1  0.00000000  0.26002300  0.93619800  1
  N  N6  1  0.00000000  0.23997700  0.31380200  1
  N  N7  1  0.00000000  0.76002300  0.31380200  1
loop_
_geom_bond_atom_site_label_1
_geom_bond_atom_site_label_2
_geom_bond_distance
_geom_bond_site_symmetry_2
Li0 N6 1.963324 1_555
Li0 N7 1.963324 1_555
Li1 N5 1.963324 1_555
Li1 N4 1.963324 1_545
Li2 N3 1.963324 1_454
Li2 N2 1.963324 1_555
Li3 N0 1.963324 1_555
Li3 N1 1.963324 1_444
Li4 N6 1.929757 1_555
Li4 N2 1.929757 1_555
Li5 N3 1.929757 1_554
Li5 N7 1.929757 1_655
Li6 N0 1.929757 1_555
Li6 N4 1.929757 1_544
Li7 N5 1.929757 1_655
Li7 N1 1.929757 1_545
Li8 N3 1.929757 1_554
Li8 N6 1.929757 1_655
Li9 N2 1.929757 1_555
Li9 N7 1.929757 1_555
Li10 N1 1.929757 1_555
Li10 N4 1.929757 1_655
Li11 N0 1.929757 1_555
Li11 N5 1.929757 1_554
Bi0 N1 2.090054 1_555
Bi0 N0 2.090055 1_455
Bi1 N2 2.090054 1_445
Bi1 N3 2.090055 1_555
Bi2 N4 2.090054 1_555
Bi2 N5 2.090055 1_555
Bi3 N7 2.090054 1_545
Bi3 N6 2.090055 1_555
