# generated using pymatgen
data_Eu3Sn5
_symmetry_space_group_name_H-M   'P 1'
_cell_length_a   6.72925271
_cell_length_b   6.72928570
_cell_length_c   10.61568511
_cell_angle_alpha   90.00164737
_cell_angle_beta   90.00153880
_cell_angle_gamma   102.12097919
_symmetry_Int_Tables_number   1
_chemical_formula_structural   Eu3Sn5
_chemical_formula_sum   'Eu6 Sn10'
_cell_volume   469.99398384
_cell_formula_units_Z   2
loop_
 _symmetry_equiv_pos_site_id
 _symmetry_equiv_pos_as_xyz
  1  'x, y, z'
loop_
 _atom_site_type_symbol
 _atom_site_label
 _atom_site_symmetry_multiplicity
 _atom_site_fract_x
 _atom_site_fract_y
 _atom_site_fract_z
 _atom_site_occupancy
  Eu  Eu0  1  0.20556531  0.79443110  -0.00000008  1
  Eu  Eu1  1  0.79443546  0.20556653  0.00000121  1
  Eu  Eu2  1  0.79453849  0.20546138  0.50000037  1
  Eu  Eu3  1  0.20546219  0.79453701  0.50000203  1
  Eu  Eu4  1  0.63834557  0.63834328  0.25008504  1
  Eu  Eu5  1  0.36165264  0.36165738  0.74990967  1
  Sn  Sn0  1  0.49013027  0.08073536  0.25006886  1
  Sn  Sn1  1  0.50987174  0.91926727  0.74993000  1
  Sn  Sn2  1  0.08073657  0.49013010  0.25006957  1
  Sn  Sn3  1  0.91926344  0.50987159  0.74993115  1
  Sn  Sn4  1  0.03099395  0.03098921  0.24990832  1
  Sn  Sn5  1  0.96901254  0.96901075  0.75008950  1
  Sn  Sn6  1  0.30690372  0.30690113  0.05090287  1
  Sn  Sn7  1  0.69309496  0.69309778  0.94909795  1
  Sn  Sn8  1  0.69310208  0.69310724  0.55094434  1
  Sn  Sn9  1  0.30689307  0.30689189  0.44905723  1
loop_
_geom_bond_atom_site_label_1
_geom_bond_atom_site_label_2
_geom_bond_distance
_geom_bond_site_symmetry_2
Eu0 Sn2 3.350238 1_555
Eu0 Sn1 3.350260 1_554
Eu0 Sn7 3.414931 1_454
Eu0 Sn6 3.414946 1_565
Eu0 Sn4 3.425993 1_565
Eu0 Sn5 3.426017 1_454
Eu0 Sn7 3.529815 1_554
Eu0 Sn6 3.529848 1_555
Eu0 Sn3 3.588296 1_454
Eu0 Sn0 3.588319 1_565
Eu1 Sn0 3.350232 1_555
Eu1 Sn3 3.350256 1_554
Eu1 Sn6 3.414917 1_655
Eu1 Sn7 3.414938 1_544
Eu1 Sn4 3.426004 1_655
Eu1 Sn5 3.426029 1_544
Eu1 Sn6 3.529832 1_555
Eu1 Sn7 3.529862 1_554
Eu1 Sn2 3.588302 1_655
Eu1 Sn1 3.588319 1_544
Eu2 Sn0 3.349262 1_555
Eu2 Sn3 3.349266 1_555
Eu2 Sn9 3.414274 1_655
Eu2 Sn8 3.414289 1_545
Eu2 Sn5 3.426825 1_545
Eu2 Sn4 3.426855 1_655
Eu2 Sn9 3.530871 1_555
Eu2 Sn8 3.530904 1_555
Eu2 Sn1 3.587357 1_545
Eu2 Sn2 3.587383 1_655
Eu3 Sn1 3.349241 1_555
Eu3 Sn2 3.349268 1_555
Eu3 Sn9 3.414296 1_565
Eu3 Sn8 3.414308 1_455
Eu3 Sn5 3.426801 1_455
Eu3 Sn4 3.426851 1_565
Eu3 Sn8 3.530831 1_555
Eu3 Sn9 3.530886 1_555
Eu3 Sn3 3.587362 1_455
Eu3 Sn0 3.587401 1_565
Eu4 Sn8 3.227221 1_555
Eu4 Sn7 3.228594 1_554
Eu4 Sn4 3.321279 1_665
Eu4 Sn2 3.332257 1_655
Eu4 Sn0 3.332282 1_565
Eu4 Sn9 3.510337 1_555
Eu4 Sn6 3.511462 1_555
Eu4 Sn2 3.674615 1_555
Eu4 Sn0 3.674627 1_555
Eu5 Sn9 3.227152 1_555
Eu5 Sn6 3.228659 1_556
Eu5 Sn5 3.321247 1_445
Eu5 Sn3 3.332249 1_455
Eu5 Sn1 3.332282 1_545
Eu5 Sn8 3.510277 1_555
Eu5 Sn7 3.511497 1_555
Eu5 Sn3 3.674627 1_555
Eu5 Sn1 3.674641 1_555
Sn0 Sn9 3.014423 1_555
Sn0 Sn6 3.015759 1_555
Sn0 Sn4 3.037041 1_555
Sn1 Sn8 3.014393 1_555
Sn1 Sn7 3.015777 1_555
Sn1 Sn5 3.037073 1_555
Sn2 Sn9 3.014423 1_555
Sn2 Sn6 3.015773 1_555
Sn2 Sn4 3.037089 1_555
Sn3 Sn8 3.014427 1_555
Sn3 Sn7 3.015770 1_555
Sn3 Sn5 3.037073 1_555
Sn4 Sn6 3.148055 1_555
Sn4 Sn9 3.148876 1_555
Sn5 Sn7 3.148104 1_555
Sn5 Sn8 3.148888 1_555
Sn6 Sn7 3.440868 1_554
Sn8 Sn9 3.441198 1_555
