# generated using pymatgen
data_NdEr3
_symmetry_space_group_name_H-M   'P 1'
_cell_length_a   7.21722512
_cell_length_b   7.21722421
_cell_length_c   5.76593997
_cell_angle_alpha   90.00000000
_cell_angle_beta   90.00000000
_cell_angle_gamma   119.99998730
_symmetry_Int_Tables_number   1
_chemical_formula_structural   NdEr3
_chemical_formula_sum   'Nd2 Er6'
_cell_volume   260.10053959
_cell_formula_units_Z   2
loop_
 _symmetry_equiv_pos_site_id
 _symmetry_equiv_pos_as_xyz
  1  'x, y, z'
loop_
 _atom_site_type_symbol
 _atom_site_label
 _atom_site_symmetry_multiplicity
 _atom_site_fract_x
 _atom_site_fract_y
 _atom_site_fract_z
 _atom_site_occupancy
  Nd  Nd0  1  0.66666700  0.33333300  0.25000000  1
  Nd  Nd1  1  0.33333300  0.66666700  0.75000000  1
  Er  Er0  1  0.83570189  0.16429811  0.75000000  1
  Er  Er1  1  0.32859622  0.16429811  0.75000000  1
  Er  Er2  1  0.83570189  0.67140378  0.75000000  1
  Er  Er3  1  0.16429811  0.83570189  0.25000000  1
  Er  Er4  1  0.67140378  0.83570189  0.25000000  1
  Er  Er5  1  0.16429811  0.32859622  0.25000000  1
loop_
_geom_bond_atom_site_label_1
_geom_bond_atom_site_label_2
_geom_bond_distance
_geom_bond_site_symmetry_2
Er0 Er4 3.539734 1_546
Er0 Er4 3.539734 1_545
Er0 Er5 3.539734 1_655
Er0 Er5 3.539734 1_656
Er0 Er2 3.557329 1_545
Er0 Er1 3.557329 1_655
Er0 Nd0 3.574415 1_555
Er0 Nd0 3.574415 1_556
Er0 Nd1 3.608735 1_655
Er0 Nd1 3.608735 1_545
Er0 Er2 3.659895 1_555
Er0 Er1 3.659896 1_555
Er1 Er5 3.539733 1_555
Er1 Er5 3.539733 1_556
Er1 Er3 3.539734 1_546
Er1 Er3 3.539734 1_545
Er1 Er2 3.557330 1_445
Er1 Nd0 3.574419 1_555
Er1 Nd0 3.574419 1_556
Er1 Nd1 3.608730 1_545
Er1 Nd1 3.608737 1_555
Er1 Er2 3.659896 1_555
Er2 Er4 3.539733 1_556
Er2 Er4 3.539733 1_555
Er2 Er3 3.539734 1_655
Er2 Er3 3.539734 1_656
Er2 Nd0 3.574419 1_555
Er2 Nd0 3.574419 1_556
Er2 Nd1 3.608730 1_655
Er2 Nd1 3.608738 1_555
Er3 Er5 3.557329 1_565
Er3 Er4 3.557329 1_455
Er3 Nd1 3.574415 1_555
Er3 Nd1 3.574415 1_554
Er3 Nd0 3.608735 1_455
Er3 Nd0 3.608735 1_565
Er3 Er5 3.659895 1_555
Er3 Er4 3.659896 1_555
Er4 Er5 3.557330 1_665
Er4 Nd1 3.574419 1_555
Er4 Nd1 3.574419 1_554
Er4 Nd0 3.608730 1_565
Er4 Nd0 3.608737 1_555
Er4 Er5 3.659896 1_555
Er5 Nd1 3.574419 1_555
Er5 Nd1 3.574419 1_554
Er5 Nd0 3.608730 1_455
Er5 Nd0 3.608738 1_555
