# generated using pymatgen
data_Na3Gd(PO4)2
_symmetry_space_group_name_H-M   'P 1'
_cell_length_a   5.37207900
_cell_length_b   14.05604319
_cell_length_c   14.19608498
_cell_angle_alpha   91.24731022
_cell_angle_beta   100.79401326
_cell_angle_gamma   90.03858160
_symmetry_Int_Tables_number   1
_chemical_formula_structural   Na3Gd(PO4)2
_chemical_formula_sum   'Na18 Gd6 P12 O48'
_cell_volume   1052.72085606
_cell_formula_units_Z   6
loop_
 _symmetry_equiv_pos_site_id
 _symmetry_equiv_pos_as_xyz
  1  'x, y, z'
loop_
 _atom_site_type_symbol
 _atom_site_label
 _atom_site_symmetry_multiplicity
 _atom_site_fract_x
 _atom_site_fract_y
 _atom_site_fract_z
 _atom_site_occupancy
  Na  Na0  1  0.15713100  0.76579700  0.30391000  1
  Na  Na1  1  0.90829300  0.57923100  0.89094200  1
  Na  Na2  1  0.28252100  0.67790600  0.55639600  1
  Na  Na3  1  0.28188700  0.17689800  0.55739400  1
  Na  Na4  1  0.01115400  0.92070200  0.10907200  1
  Na  Na5  1  0.71811300  0.82310200  0.44260600  1
  Na  Na6  1  0.98884600  0.07929800  0.89092800  1
  Na  Na7  1  0.37177500  0.86326100  0.76447500  1
  Na  Na8  1  0.84586300  0.73403200  0.69791500  1
  Na  Na9  1  0.62822500  0.13673900  0.23552500  1
  Na  Na10  1  0.71747900  0.32209400  0.44360400  1
  Na  Na11  1  0.84286900  0.23420300  0.69609000  1
  Na  Na12  1  0.60513800  0.63702300  0.23788200  1
  Na  Na13  1  0.50000000  0.50000000  0.00000000  1
  Na  Na14  1  0.15413700  0.26596800  0.30208500  1
  Na  Na15  1  0.09170700  0.42076900  0.10905800  1
  Na  Na16  1  0.39486200  0.36297700  0.76211800  1
  Na  Na17  1  0.50000000  0.00000000  0.00000000  1
  Gd  Gd0  1  0.19050000  0.51448300  0.35652000  1
  Gd  Gd1  1  0.16031000  0.01459000  0.35578400  1
  Gd  Gd2  1  0.80950000  0.48551700  0.64348000  1
  Gd  Gd3  1  0.40356900  0.75014700  0.00030700  1
  Gd  Gd4  1  0.59643100  0.24985300  0.99969300  1
  Gd  Gd5  1  0.83969000  0.98541000  0.64421600  1
  P  P0  1  0.37618000  0.61093800  0.77686500  1
  P  P1  1  0.62382000  0.38906200  0.22313500  1
  P  P2  1  0.98090200  0.34868400  0.88434000  1
  P  P3  1  0.90669800  0.84781900  0.88431600  1
  P  P4  1  0.26826400  0.39646800  0.54267600  1
  P  P5  1  0.59631300  0.89001500  0.22391400  1
  P  P6  1  0.40368700  0.10998500  0.77608600  1
  P  P7  1  0.09330200  0.15218100  0.11568400  1
  P  P8  1  0.73173600  0.60353200  0.45732400  1
  P  P9  1  0.27447000  0.89701900  0.54277100  1
  P  P10  1  0.72553000  0.10298100  0.45722900  1
  P  P11  1  0.01909800  0.65131600  0.11566000  1
  O  O0  1  0.72641000  0.65011400  0.08154300  1
  O  O1  1  0.92761800  0.38072400  0.77828300  1
  O  O2  1  0.64850600  0.85035300  0.92019900  1
  O  O3  1  0.09507300  0.57625400  0.75078800  1
  O  O4  1  0.78442000  0.13772800  0.56503900  1
  O  O5  1  0.77412700  0.63638400  0.56615700  1
  O  O6  1  0.27703800  0.50696600  0.54460700  1
  O  O7  1  0.90492700  0.42374600  0.24921200  1
  O  O8  1  0.45101800  0.47127100  0.25169500  1
  O  O9  1  0.15618900  0.58962900  0.04995000  1
  O  O10  1  0.94884700  0.63987300  0.41115200  1
  O  O11  1  0.22587300  0.36361600  0.43384300  1
  O  O12  1  0.73764700  0.99339500  0.45682200  1
  O  O13  1  0.12931600  0.75520500  0.11322000  1
  O  O14  1  0.35149400  0.14964700  0.07980100  1
  O  O15  1  0.68436700  0.79886200  0.27831100  1
  O  O16  1  0.07238200  0.61927600  0.22171700  1
  O  O17  1  0.05115300  0.36012700  0.58884800  1
  O  O18  1  0.33845500  0.92339200  0.24878800  1
  O  O19  1  0.92621500  0.14563900  0.40379100  1
  O  O20  1  0.54693900  0.37440900  0.11327500  1
  O  O21  1  0.47642300  0.64581000  0.40447800  1
  O  O22  1  0.89195000  0.08920500  0.05060400  1
  O  O23  1  0.72296200  0.49303400  0.45539300  1
  O  O24  1  0.54898200  0.52872900  0.74830500  1
  O  O25  1  0.52357700  0.35419000  0.59552200  1
  O  O26  1  0.54037800  0.86214800  0.59102500  1
  O  O27  1  0.58758200  0.29827800  0.27823400  1
  O  O28  1  0.07378500  0.85436100  0.59620900  1
  O  O29  1  0.43873500  0.12481600  0.88847600  1
  O  O30  1  0.45962200  0.13785200  0.40897500  1
  O  O31  1  0.85751400  0.88071000  0.77874400  1
  O  O32  1  0.20220900  0.02929800  0.74999900  1
  O  O33  1  0.26235300  0.00660500  0.54317800  1
  O  O34  1  0.21558000  0.86227200  0.43496100  1
  O  O35  1  0.87068400  0.24479500  0.88678000  1
  O  O36  1  0.14248600  0.11929000  0.22125600  1
  O  O37  1  0.10805000  0.91079500  0.94939600  1
  O  O38  1  0.84381100  0.41037100  0.95005000  1
  O  O39  1  0.31563300  0.20113800  0.72168900  1
  O  O40  1  0.66154500  0.07660800  0.75121200  1
  O  O41  1  0.56126500  0.87518400  0.11152400  1
  O  O42  1  0.98496000  0.25486600  0.11365500  1
  O  O43  1  0.41241800  0.70172200  0.72176600  1
  O  O44  1  0.45306100  0.62559100  0.88672500  1
  O  O45  1  0.01504000  0.74513400  0.88634500  1
  O  O46  1  0.79779100  0.97070200  0.25000100  1
  O  O47  1  0.27359000  0.34988600  0.91845700  1
loop_
_geom_bond_atom_site_label_1
_geom_bond_atom_site_label_2
_geom_bond_distance
_geom_bond_site_symmetry_2
Na0 O34 2.251534 1_555
Na0 O16 2.346369 1_555
Na0 O15 2.541952 1_455
Na0 O18 2.612696 1_555
Na0 O21 2.648828 1_555
Na0 O13 2.683940 1_555
Na0 O10 2.730439 1_455
Na0 O15 2.959967 1_555
Na1 O3 2.389856 1_655
Na1 O9 2.397837 1_656
Na1 O45 2.406219 1_655
Na1 O44 2.521488 1_555
Na1 O38 2.579162 1_555
Na1 O24 2.607974 1_555
Na2 O43 2.337122 1_555
Na2 O6 2.404701 1_555
Na2 O10 2.513305 1_455
Na2 O21 2.596033 1_555
Na2 O5 2.683832 1_555
Na2 O28 2.812231 1_555
Na2 O5 2.821709 1_455
Na2 O26 2.924350 1_555
Na3 O39 2.322873 1_555
Na3 O33 2.398328 1_555
Na3 O30 2.521124 1_555
Na3 O19 2.644858 1_455
Na3 O4 2.738223 1_555
Na3 O4 2.750647 1_455
Na3 O25 2.804038 1_555
Na3 O17 2.920686 1_555
Na4 O18 2.391101 1_555
Na4 O13 2.410751 1_555
Na4 O37 2.420107 1_554
Na4 O41 2.506406 1_455
Na4 O22 2.568516 1_465
Na4 O46 2.570808 1_455
Na5 O15 2.322873 1_555
Na5 O12 2.398328 1_555
Na5 O26 2.521124 1_555
Na5 O28 2.644858 1_655
Na5 O34 2.738223 1_555
Na5 O34 2.750647 1_655
Na5 O21 2.804038 1_555
Na5 O10 2.920686 1_555
Na6 O40 2.391101 1_555
Na6 O35 2.410751 1_555
Na6 O22 2.420107 1_556
Na6 O29 2.506406 1_655
Na6 O37 2.568516 1_645
Na6 O32 2.570808 1_655
Na7 O43 2.358222 1_555
Na7 O2 2.432467 1_555
Na7 O32 2.504470 1_565
Na7 O31 2.590231 1_555
Na7 O28 2.615093 1_555
Na7 O26 2.778002 1_555
Na7 O31 2.818117 1_455
Na8 O5 2.269030 1_555
Na8 O31 2.332630 1_555
Na8 O43 2.458330 1_555
Na8 O3 2.640859 1_655
Na8 O45 2.660232 1_655
Na8 O28 2.685177 1_655
Na8 O26 2.725591 1_555
Na9 O27 2.358222 1_555
Na9 O14 2.432467 1_555
Na9 O46 2.504470 1_545
Na9 O36 2.590231 1_555
Na9 O19 2.615093 1_555
Na9 O30 2.778002 1_555
Na9 O36 2.818117 1_655
Na10 O27 2.337122 1_555
Na10 O23 2.404701 1_555
Na10 O17 2.513305 1_655
Na10 O25 2.596033 1_555
Na10 O11 2.683832 1_555
Na10 O19 2.812231 1_555
Na10 O11 2.821709 1_655
Na10 O30 2.924350 1_555
Na11 O4 2.251534 1_555
Na11 O1 2.346369 1_555
Na11 O39 2.541952 1_655
Na11 O40 2.612696 1_555
Na11 O25 2.648828 1_555
Na11 O35 2.683940 1_555
Na11 O17 2.730439 1_655
Na11 O39 2.959967 1_555
Na12 O15 2.352807 1_555
Na12 O0 2.437873 1_555
Na12 O8 2.496016 1_555
Na12 O16 2.574771 1_655
Na12 O21 2.585842 1_555
Na12 O10 2.784918 1_555
Na12 O16 2.838401 1_555
Na13 O20 2.395429 1_555
Na13 O44 2.395429 1_554
Na13 O9 2.440515 1_555
Na13 O38 2.440515 1_554
Na13 O0 2.575726 1_555
Na13 O47 2.575726 1_554
Na14 O11 2.269030 1_555
Na14 O36 2.332630 1_555
Na14 O27 2.458330 1_555
Na14 O7 2.640859 1_455
Na14 O42 2.660232 1_455
Na14 O19 2.685177 1_455
Na14 O30 2.725591 1_555
Na15 O7 2.389856 1_455
Na15 O38 2.397837 1_454
Na15 O42 2.406219 1_455
Na15 O20 2.521488 1_555
Na15 O9 2.579162 1_555
Na15 O8 2.607974 1_555
Na16 O39 2.352807 1_555
Na16 O47 2.437873 1_555
Na16 O24 2.496016 1_555
Na16 O1 2.574771 1_455
Na16 O25 2.585842 1_555
Na16 O17 2.784918 1_555
Na16 O1 2.838401 1_555
Na17 O29 2.370522 1_554
Na17 O41 2.370522 1_545
Na17 O37 2.431547 1_544
Na17 O22 2.431547 1_555
Na17 O14 2.565415 1_555
Na17 O2 2.565415 1_544
Gd0 O8 2.298675 1_555
Gd0 O7 2.310459 1_455
Gd0 O10 2.390357 1_455
Gd0 O11 2.400352 1_555
Gd0 O21 2.404179 1_555
Gd0 O16 2.429732 1_555
Gd0 O6 2.627570 1_555
Gd1 O46 2.300216 1_445
Gd1 O18 2.308153 1_545
Gd1 O30 2.375280 1_555
Gd1 O19 2.389250 1_455
Gd1 O36 2.424099 1_555
Gd1 O34 2.432282 1_545
Gd1 O33 2.618578 1_555
Gd2 O24 2.298675 1_555
Gd2 O3 2.310459 1_655
Gd2 O17 2.390357 1_655
Gd2 O5 2.400352 1_555
Gd2 O25 2.404179 1_555
Gd2 O1 2.429732 1_555
Gd2 O23 2.627570 1_555
Gd3 O13 2.371664 1_555
Gd3 O2 2.374077 1_554
Gd3 O0 2.374784 1_555
Gd3 O41 2.382337 1_555
Gd3 O45 2.389308 1_554
Gd3 O44 2.402928 1_554
Gd3 O9 2.787361 1_555
Gd3 O37 2.790643 1_554
Gd4 O35 2.371664 1_555
Gd4 O14 2.374077 1_556
Gd4 O47 2.374784 1_555
Gd4 O29 2.382337 1_555
Gd4 O42 2.389308 1_556
Gd4 O20 2.402928 1_556
Gd4 O38 2.787361 1_555
Gd4 O22 2.790643 1_556
Gd5 O32 2.300216 1_665
Gd5 O40 2.308153 1_565
Gd5 O26 2.375280 1_555
Gd5 O28 2.389250 1_655
Gd5 O31 2.424099 1_555
Gd5 O4 2.432282 1_565
Gd5 O12 2.618578 1_555
O0 P11 1.556115 1_655
O1 P2 1.555584 1_555
O2 P3 1.564775 1_555
O3 P0 1.561079 1_555
O4 P10 1.570633 1_555
O5 P8 1.577700 1_555
O6 P4 1.553338 1_555
O7 P1 1.561079 1_555
O8 P1 1.575885 1_555
O9 P11 1.545097 1_555
O10 P8 1.533304 1_555
O11 P4 1.577700 1_555
O12 P10 1.541695 1_565
O13 P11 1.578887 1_555
O14 P7 1.564775 1_555
O15 P5 1.539079 1_555
O16 P11 1.555584 1_555
O17 P4 1.533304 1_555
O18 P5 1.562222 1_555
O19 P10 1.556460 1_555
O20 P1 1.545941 1_555
O21 P8 1.559565 1_555
O22 P7 1.547885 1_655
O23 P8 1.553338 1_555
O24 P0 1.575885 1_555
O25 P4 1.559565 1_555
O26 P9 1.548900 1_555
O27 P1 1.542145 1_555
O28 P9 1.556460 1_555
O29 P6 1.580339 1_555
O30 P10 1.548900 1_555
O31 P3 1.552961 1_555
O32 P6 1.557190 1_555
O33 P9 1.541695 1_545
O34 P9 1.570633 1_555
O35 P2 1.578887 1_555
O36 P7 1.552961 1_555
O37 P3 1.547885 1_455
O38 P2 1.545097 1_555
O39 P6 1.539079 1_555
O40 P6 1.562222 1_555
O41 P5 1.580339 1_555
O42 P7 1.555469 1_655
O43 P0 1.542145 1_555
O44 P0 1.545941 1_555
O45 P3 1.555469 1_455
O46 P5 1.557190 1_555
O47 P2 1.556115 1_455
