# generated using pymatgen
data_Mg2Nb2NiO8
_symmetry_space_group_name_H-M   'P 1'
_cell_length_a   9.96803574
_cell_length_b   9.96803574
_cell_length_c   5.17976243
_cell_angle_alpha   89.66661294
_cell_angle_beta   89.66661294
_cell_angle_gamma   35.04644431
_symmetry_Int_Tables_number   1
_chemical_formula_structural   Mg2Nb2NiO8
_chemical_formula_sum   'Mg4 Nb4 Ni2 O16'
_cell_volume   295.53884049
_cell_formula_units_Z   2
loop_
 _symmetry_equiv_pos_site_id
 _symmetry_equiv_pos_as_xyz
  1  'x, y, z'
loop_
 _atom_site_type_symbol
 _atom_site_label
 _atom_site_symmetry_multiplicity
 _atom_site_fract_x
 _atom_site_fract_y
 _atom_site_fract_z
 _atom_site_occupancy
  Mg  Mg0  1  0.58600700  0.87112700  0.74686500  1
  Mg  Mg1  1  0.12887300  0.41399300  0.75313500  1
  Mg  Mg2  1  0.41399300  0.12887300  0.25313500  1
  Mg  Mg3  1  0.87112700  0.58600700  0.24686500  1
  Nb  Nb0  1  0.71513100  0.05593000  0.75666500  1
  Nb  Nb1  1  0.94407000  0.28486900  0.74333500  1
  Nb  Nb2  1  0.28486900  0.94407000  0.24333500  1
  Nb  Nb3  1  0.05593000  0.71513100  0.25666500  1
  Ni  Ni0  1  0.35389100  0.64610900  0.75000000  1
  Ni  Ni1  1  0.64610900  0.35389100  0.25000000  1
  O  O0  1  0.81568400  0.04457000  0.41789700  1
  O  O1  1  0.95543000  0.18431600  0.08210300  1
  O  O2  1  0.18431600  0.95543000  0.58210300  1
  O  O3  1  0.04457000  0.81568400  0.91789700  1
  O  O4  1  0.56463400  0.32085500  0.91616400  1
  O  O5  1  0.67914500  0.43536600  0.58383600  1
  O  O6  1  0.43536600  0.67914500  0.08383600  1
  O  O7  1  0.32085500  0.56463400  0.41616400  1
  O  O8  1  0.70701900  0.91853200  0.04073600  1
  O  O9  1  0.08146800  0.29298100  0.45926400  1
  O  O10  1  0.16323400  0.45539600  0.11515900  1
  O  O11  1  0.54460400  0.83676600  0.38484100  1
  O  O12  1  0.83676600  0.54460400  0.88484100  1
  O  O13  1  0.45539600  0.16323400  0.61515900  1
  O  O14  1  0.91853200  0.70701900  0.54073600  1
  O  O15  1  0.29298100  0.08146800  0.95926400  1
loop_
_geom_bond_atom_site_label_1
_geom_bond_atom_site_label_2
_geom_bond_distance
_geom_bond_site_symmetry_2
Mg0 O12 2.006247 1_555
Mg0 O11 2.012944 1_555
Mg0 O15 2.024833 1_565
Mg0 O13 2.102082 1_565
Mg0 O8 2.226748 1_556
Mg0 O14 2.429747 1_555
Mg1 O13 2.006247 1_555
Mg1 O10 2.012944 1_556
Mg1 O14 2.024833 1_455
Mg1 O12 2.102082 1_455
Mg1 O9 2.226748 1_555
Mg1 O15 2.429747 1_555
Mg2 O10 2.006247 1_555
Mg2 O13 2.012944 1_555
Mg2 O8 2.024833 1_545
Mg2 O11 2.102082 1_545
Mg2 O15 2.226748 1_554
Mg2 O9 2.429747 1_555
Mg3 O11 2.006247 1_555
Mg3 O12 2.012944 1_554
Mg3 O9 2.024833 1_655
Mg3 O10 2.102082 1_655
Mg3 O14 2.226748 1_555
Mg3 O8 2.429747 1_555
Nb0 O4 1.852327 1_555
Nb0 O13 1.965478 1_555
Nb0 O0 1.972959 1_555
Nb0 O8 2.050337 1_546
Nb0 O3 2.085259 1_645
Nb0 O14 2.435308 1_545
Nb1 O5 1.852327 1_555
Nb1 O12 1.965478 1_555
Nb1 O1 1.972959 1_556
Nb1 O9 2.050337 1_655
Nb1 O2 2.085259 1_645
Nb1 O15 2.435308 1_655
Nb2 O6 1.852327 1_555
Nb2 O11 1.965478 1_555
Nb2 O2 1.972959 1_555
Nb2 O15 2.050337 1_564
Nb2 O1 2.085259 1_465
Nb2 O9 2.435308 1_565
Nb3 O7 1.852327 1_555
Nb3 O10 1.965478 1_555
Nb3 O3 1.972959 1_554
Nb3 O14 2.050337 1_455
Nb3 O0 2.085259 1_465
Nb3 O8 2.435308 1_455
Ni0 O7 2.054020 1_555
Ni0 O6 2.054020 1_556
Ni0 O4 2.121796 1_555
Ni0 O5 2.121796 1_555
Ni0 O3 2.138364 1_555
Ni0 O2 2.138364 1_555
Ni1 O4 2.054020 1_554
Ni1 O5 2.054020 1_555
Ni1 O7 2.121796 1_555
Ni1 O6 2.121796 1_555
Ni1 O0 2.138364 1_555
Ni1 O1 2.138364 1_555
