# generated using pymatgen
data_Pr2Zn5Pb
_symmetry_space_group_name_H-M   'P 1'
_cell_length_a   8.65065810
_cell_length_b   8.65065810
_cell_length_c   9.11631103
_cell_angle_alpha   90.00000000
_cell_angle_beta   90.00000000
_cell_angle_gamma   150.04728042
_symmetry_Int_Tables_number   1
_chemical_formula_structural   Pr2Zn5Pb
_chemical_formula_sum   'Pr4 Zn10 Pb2'
_cell_volume   340.61683577
_cell_formula_units_Z   2
loop_
 _symmetry_equiv_pos_site_id
 _symmetry_equiv_pos_as_xyz
  1  'x, y, z'
loop_
 _atom_site_type_symbol
 _atom_site_label
 _atom_site_symmetry_multiplicity
 _atom_site_fract_x
 _atom_site_fract_y
 _atom_site_fract_z
 _atom_site_occupancy
  Pr  Pr0  1  0.20528351  0.79471649  0.25000000  1
  Pr  Pr1  1  0.79471649  0.20528351  0.75000000  1
  Pr  Pr2  1  -0.00000000  0.00000000  0.50000000  1
  Pr  Pr3  1  -0.00000000  0.00000000  -0.00000000  1
  Zn  Zn0  1  0.81464991  0.18535009  0.39005999  1
  Zn  Zn1  1  0.18535009  0.81464991  0.60994001  1
  Zn  Zn2  1  0.81464991  0.18535009  0.10994001  1
  Zn  Zn3  1  0.18535009  0.81464991  0.89005999  1
  Zn  Zn4  1  0.65893873  0.34106127  0.48651759  1
  Zn  Zn5  1  0.34106127  0.65893873  0.51348241  1
  Zn  Zn6  1  0.65893873  0.34106127  0.01348241  1
  Zn  Zn7  1  0.34106127  0.65893873  0.98651759  1
  Zn  Zn8  1  0.39129213  0.60870787  0.25000000  1
  Zn  Zn9  1  0.60870787  0.39129213  0.75000000  1
  Pb  Pb0  1  0.55390638  0.44609362  0.25000000  1
  Pb  Pb1  1  0.44609362  0.55390638  0.75000000  1
loop_
_geom_bond_atom_site_label_1
_geom_bond_atom_site_label_2
_geom_bond_distance
_geom_bond_site_symmetry_2
Pr0 Zn8 3.108880 1_555
Pr0 Zn2 3.157379 1_565
Pr0 Zn2 3.157379 1_455
Pr0 Zn0 3.157379 1_455
Pr0 Zn0 3.157379 1_565
Pr0 Zn4 3.201022 1_565
Pr0 Zn6 3.201022 1_565
Pr0 Zn6 3.201022 1_455
Pr0 Zn4 3.201022 1_455
Pr0 Zn1 3.298195 1_555
Pr0 Zn3 3.298195 1_554
Pr0 Zn7 3.304459 1_554
Pr0 Zn5 3.304459 1_555
Pr1 Zn9 3.108880 1_555
Pr1 Zn3 3.157379 1_545
Pr1 Zn3 3.157379 1_655
Pr1 Zn1 3.157379 1_545
Pr1 Zn1 3.157379 1_655
Pr1 Zn7 3.201022 1_655
Pr1 Zn5 3.201022 1_655
Pr1 Zn7 3.201022 1_545
Pr1 Zn5 3.201022 1_545
Pr1 Zn0 3.298195 1_555
Pr1 Zn2 3.298195 1_556
Pr1 Zn6 3.304459 1_556
Pr1 Zn4 3.304459 1_555
Pr2 Zn1 3.255967 1_545
Pr2 Zn0 3.255967 1_455
Pr2 Zn4 3.474089 1_555
Pr2 Zn5 3.474089 1_555
Pr2 Zn4 3.474089 1_445
Pr2 Zn5 3.474089 1_445
Pr2 Zn8 3.673258 1_445
Pr2 Zn9 3.673258 1_445
Pr2 Zn8 3.673258 1_555
Pr2 Zn9 3.673258 1_555
Pr3 Zn2 3.255967 1_455
Pr3 Zn3 3.255967 1_544
Pr3 Zn6 3.474089 1_555
Pr3 Zn6 3.474089 1_445
Pr3 Zn7 3.474089 1_554
Pr3 Zn7 3.474089 1_444
Pr3 Zn8 3.673258 1_445
Pr3 Zn9 3.673258 1_444
Pr3 Zn9 3.673258 1_554
Pr3 Zn8 3.673258 1_555
Zn0 Zn5 2.541325 1_655
Zn0 Zn5 2.541325 1_545
Zn0 Zn2 2.553661 1_555
Zn0 Zn4 2.747042 1_555
Zn0 Zn8 2.875530 1_545
Zn0 Zn8 2.875530 1_655
Zn1 Zn4 2.541325 1_455
Zn1 Zn4 2.541325 1_565
Zn1 Zn3 2.553661 1_555
Zn1 Zn5 2.747042 1_555
Zn1 Zn9 2.875530 1_455
Zn1 Zn9 2.875530 1_565
Zn2 Zn7 2.541325 1_654
Zn2 Zn7 2.541325 1_544
Zn2 Zn6 2.747042 1_555
Zn2 Zn8 2.875530 1_545
Zn2 Zn8 2.875530 1_655
Zn3 Zn6 2.541325 1_566
Zn3 Zn6 2.541325 1_456
Zn3 Zn7 2.747042 1_555
Zn3 Zn9 2.875530 1_455
Zn3 Zn9 2.875530 1_565
Pb0 Zn8 2.717875 1_555
Pb0 Zn4 2.780421 1_555
Pb0 Zn6 2.780421 1_555
Pb0 Pr3 3.317143 1_665
Pb0 Pr2 3.317143 1_665
Pb0 Pr2 3.317143 1_555
Pb0 Pr3 3.317143 1_555
Pb0 Pr0 3.376197 1_545
Pb0 Pr0 3.376197 1_655
Pb1 Zn9 2.717875 1_555
Pb1 Zn7 2.780421 1_555
Pb1 Zn5 2.780421 1_555
Pb1 Pr3 3.317143 1_666
Pb1 Pr2 3.317143 1_665
Pb1 Pr2 3.317143 1_555
Pb1 Pr3 3.317143 1_556
Pb1 Pr1 3.376197 1_455
Pb1 Pr1 3.376197 1_565
