# generated using pymatgen
data_EuS
_symmetry_space_group_name_H-M   'P 1'
_cell_length_a   14.57203299
_cell_length_b   14.57203299
_cell_length_c   14.57203299
_cell_angle_alpha   163.80243375
_cell_angle_beta   163.80243375
_cell_angle_gamma   22.98441955
_symmetry_Int_Tables_number   1
_chemical_formula_structural   EuS
_chemical_formula_sum   'Eu3 S3'
_cell_volume   240.72716259
_cell_formula_units_Z   3
loop_
 _symmetry_equiv_pos_site_id
 _symmetry_equiv_pos_as_xyz
  1  'x, y, z'
loop_
 _atom_site_type_symbol
 _atom_site_label
 _atom_site_symmetry_multiplicity
 _atom_site_fract_x
 _atom_site_fract_y
 _atom_site_fract_z
 _atom_site_occupancy
  Eu  Eu0  1  0.00000000  0.00000000  0.00000000  1
  Eu  Eu1  1  0.40017800  0.40017800  0.00000000  1
  Eu  Eu2  1  0.59982200  0.59982200  0.00000000  1
  S  S0  1  0.50000000  0.50000000  0.00000000  1
  S  S1  1  0.89660900  0.89660900  0.00000000  1
  S  S2  1  0.10339100  0.10339100  0.00000000  1
loop_
_geom_bond_atom_site_label_1
_geom_bond_atom_site_label_2
_geom_bond_distance
_geom_bond_site_symmetry_2
Eu0 S0 2.903255 1_444
Eu0 S0 2.903255 1_545
Eu0 S0 2.903255 1_455
Eu0 S0 2.903255 1_556
Eu0 S2 2.952824 1_555
Eu0 S1 2.952824 1_445
Eu1 S0 2.850894 1_555
Eu1 S1 2.905043 1_455
Eu1 S1 2.905043 1_545
Eu1 S1 2.905043 1_556
Eu1 S1 2.905043 1_444
Eu2 S0 2.850894 1_555
Eu2 S2 2.905043 1_565
Eu2 S2 2.905043 1_666
Eu2 S2 2.905043 1_655
Eu2 S2 2.905043 1_554
