# generated using pymatgen
data_MgRuN2
_symmetry_space_group_name_H-M   'P 1'
_cell_length_a   5.78386500
_cell_length_b   6.57400500
_cell_length_c   5.35790800
_cell_angle_alpha   90.00000000
_cell_angle_beta   90.00000000
_cell_angle_gamma   90.00000000
_symmetry_Int_Tables_number   1
_chemical_formula_structural   MgRuN2
_chemical_formula_sum   'Mg4 Ru4 N8'
_cell_volume   203.72457938
_cell_formula_units_Z   4
loop_
 _symmetry_equiv_pos_site_id
 _symmetry_equiv_pos_as_xyz
  1  'x, y, z'
loop_
 _atom_site_type_symbol
 _atom_site_label
 _atom_site_symmetry_multiplicity
 _atom_site_fract_x
 _atom_site_fract_y
 _atom_site_fract_z
 _atom_site_occupancy
  Mg  Mg0  1  0.59221500  0.87548500  0.99843100  1
  Mg  Mg1  1  0.40778500  0.12451500  0.49843100  1
  Mg  Mg2  1  0.90778500  0.37548500  0.49843100  1
  Mg  Mg3  1  0.09221500  0.62451500  0.99843100  1
  Ru  Ru0  1  0.57173800  0.36210200  0.00989800  1
  Ru  Ru1  1  0.42826200  0.63789800  0.50989800  1
  Ru  Ru2  1  0.92826200  0.86210200  0.50989800  1
  Ru  Ru3  1  0.07173800  0.13789800  0.00989800  1
  N  N0  1  0.56826200  0.39151400  0.36612100  1
  N  N1  1  0.43173800  0.60848600  0.86612100  1
  N  N2  1  0.93173800  0.89151400  0.86612100  1
  N  N3  1  0.06826200  0.10848600  0.36612100  1
  N  N4  1  0.60803200  0.87008400  0.39555000  1
  N  N5  1  0.39196800  0.12991600  0.89555000  1
  N  N6  1  0.89196800  0.37008400  0.89555000  1
  N  N7  1  0.10803200  0.62991600  0.39555000  1
loop_
_geom_bond_atom_site_label_1
_geom_bond_atom_site_label_2
_geom_bond_distance
_geom_bond_site_symmetry_2
Mg0 N2 2.090451 1_555
Mg0 N5 2.107837 1_565
Mg0 N1 2.108310 1_555
Mg0 N4 2.129989 1_556
Mg1 N3 2.090451 1_555
Mg1 N4 2.107837 1_545
Mg1 N0 2.108310 1_555
Mg1 N5 2.129989 1_555
Mg2 N0 2.090451 1_555
Mg2 N7 2.107837 1_655
Mg2 N3 2.108310 1_655
Mg2 N6 2.129989 1_555
Mg3 N1 2.090451 1_555
Mg3 N6 2.107837 1_455
Mg3 N2 2.108310 1_455
Mg3 N7 2.129989 1_556
N0 Ru0 1.918484 1_555
N0 Ru1 1.967901 1_555
N1 Ru1 1.918484 1_555
N1 Ru0 1.967901 1_556
N2 Ru2 1.918484 1_555
N2 Ru3 1.967901 1_666
N3 Ru3 1.918484 1_555
N3 Ru2 1.967901 1_445
N4 Ru1 1.945853 1_555
N4 Ru2 1.951573 1_555
N5 Ru0 1.945853 1_556
N5 Ru3 1.951573 1_556
N6 Ru3 1.945853 1_656
N6 Ru0 1.951573 1_556
N7 Ru2 1.945853 1_455
N7 Ru1 1.951573 1_555
