# generated using pymatgen
data_Mg3Si4
_symmetry_space_group_name_H-M   'P 1'
_cell_length_a   5.22616800
_cell_length_b   6.79807744
_cell_length_c   8.06567793
_cell_angle_alpha   105.04459118
_cell_angle_beta   108.45223692
_cell_angle_gamma   98.37260405
_symmetry_Int_Tables_number   1
_chemical_formula_structural   Mg3Si4
_chemical_formula_sum   'Mg6 Si8'
_cell_volume   254.26363351
_cell_formula_units_Z   2
loop_
 _symmetry_equiv_pos_site_id
 _symmetry_equiv_pos_as_xyz
  1  'x, y, z'
loop_
 _atom_site_type_symbol
 _atom_site_label
 _atom_site_symmetry_multiplicity
 _atom_site_fract_x
 _atom_site_fract_y
 _atom_site_fract_z
 _atom_site_occupancy
  Mg  Mg0  1  0.81883600  0.44869100  0.41193700  1
  Mg  Mg1  1  0.41513700  0.72191900  0.48026300  1
  Mg  Mg2  1  0.53083000  0.21654300  0.90935300  1
  Mg  Mg3  1  0.71837200  0.76914900  0.89424700  1
  Mg  Mg4  1  0.00535900  0.96709500  0.42782500  1
  Mg  Mg5  1  0.13138000  0.23493500  0.18378400  1
  Si  Si0  1  0.12518100  0.48237200  0.84130600  1
  Si  Si1  1  0.13912300  0.80036000  0.72972100  1
  Si  Si2  1  0.95791500  0.58435500  0.14451500  1
  Si  Si3  1  0.49311200  0.63844000  0.14845500  1
  Si  Si4  1  0.93211000  0.09395000  0.77912200  1
  Si  Si5  1  0.56677000  0.12108700  0.51246500  1
  Si  Si6  1  0.37329800  0.40300300  0.60017100  1
  Si  Si7  1  0.53923700  0.01836900  0.18353600  1
loop_
_geom_bond_atom_site_label_1
_geom_bond_atom_site_label_2
_geom_bond_distance
_geom_bond_site_symmetry_2
Mg0 Si2 2.803780 1_555
Mg0 Si1 2.832749 1_655
Mg0 Si5 2.848143 1_555
Mg0 Si7 2.887915 1_555
Mg0 Si6 2.918936 1_655
Mg0 Si3 2.974986 1_555
Mg0 Si6 3.177302 1_555
Mg0 Si0 3.252818 1_655
Mg1 Si6 2.601499 1_555
Mg1 Si5 2.633727 1_565
Mg1 Si3 2.760388 1_555
Mg1 Si2 2.802867 1_455
Mg1 Si1 2.813854 1_555
Mg1 Si4 3.198278 1_565
Mg2 Si4 2.764951 1_555
Mg2 Si2 2.839762 1_556
Mg2 Si7 2.865292 1_556
Mg2 Si4 2.879956 1_455
Mg2 Si1 2.932957 1_545
Mg2 Si0 2.992545 1_555
Mg2 Si6 3.024674 1_555
Mg2 Si3 3.085095 1_556
Mg3 Si2 2.719340 1_556
Mg3 Si4 2.826315 1_565
Mg3 Si6 2.827340 1_555
Mg3 Si1 2.915250 1_655
Mg3 Si3 2.923801 1_556
Mg3 Si1 2.959807 1_555
Mg3 Si7 2.997271 1_566
Mg3 Si0 3.138898 1_655
Mg3 Si0 3.250156 1_555
Mg4 Si7 2.739240 1_465
Mg4 Si5 2.763516 1_565
Mg4 Si5 2.852050 1_465
Mg4 Si1 2.879012 1_555
Mg4 Si2 2.901695 1_455
Mg4 Si4 2.903948 1_465
Mg4 Si6 2.986848 1_565
Mg4 Si3 3.010303 1_455
Mg5 Si2 2.720395 1_455
Mg5 Si7 2.761510 1_555
Mg5 Si4 2.930812 1_454
Mg5 Si6 3.013704 1_555
Mg5 Si7 3.226764 1_455
Mg5 Si3 3.227394 1_555
Si0 Si3 2.446683 1_556
Si0 Si4 2.541306 1_455
Si0 Si1 2.548326 1_555
Si0 Si6 2.647774 1_555
Si0 Si2 2.806296 1_456
Si1 Si4 2.408632 1_465
Si2 Si3 2.517897 1_555
Si2 Si3 2.756401 1_655
Si3 Si7 2.490999 1_565
Si4 Si5 2.452425 1_555
Si5 Si6 2.347125 1_555
Si5 Si7 2.512814 1_555
