# generated using pymatgen
data_KBH4
_symmetry_space_group_name_H-M   'P 1'
_cell_length_a   4.67500421
_cell_length_b   4.67500421
_cell_length_c   4.67500421
_cell_angle_alpha   60.00000000
_cell_angle_beta   60.00000000
_cell_angle_gamma   60.00000000
_symmetry_Int_Tables_number   1
_chemical_formula_structural   KBH4
_chemical_formula_sum   'K1 B1 H4'
_cell_volume   72.24886377
_cell_formula_units_Z   1
loop_
 _symmetry_equiv_pos_site_id
 _symmetry_equiv_pos_as_xyz
  1  'x, y, z'
loop_
 _atom_site_type_symbol
 _atom_site_label
 _atom_site_symmetry_multiplicity
 _atom_site_fract_x
 _atom_site_fract_y
 _atom_site_fract_z
 _atom_site_occupancy
  K  K0  1  -0.00000000  -0.00000000  -0.00000000  1
  B  B0  1  0.50000000  0.50000000  0.50000000  1
  H  H0  1  0.39314076  0.39314076  0.82057773  1
  H  H1  1  0.39314076  0.82057773  0.39314076  1
  H  H2  1  0.82057773  0.39314076  0.39314076  1
  H  H3  1  0.39314076  0.39314076  0.39314076  1
loop_
_geom_bond_atom_site_label_1
_geom_bond_atom_site_label_2
_geom_bond_distance
_geom_bond_site_symmetry_2
B0 H3 1.223685 1_555
B0 H2 1.223685 1_555
B0 H0 1.223685 1_555
B0 H1 1.223685 1_555
H0 K0 2.784650 1_656
H0 K0 2.784650 1_566
H0 K0 2.784651 1_556
H1 K0 2.784650 1_566
H1 K0 2.784650 1_665
H1 K0 2.784651 1_565
H2 K0 2.784650 1_656
H2 K0 2.784650 1_665
H2 K0 2.784651 1_655
H3 K0 2.784650 1_655
H3 K0 2.784650 1_556
H3 K0 2.784650 1_565
