# generated using pymatgen
data_ThIr
_symmetry_space_group_name_H-M   'P 1'
_cell_length_a   3.90241736
_cell_length_b   4.21333214
_cell_length_c   6.03754942
_cell_angle_alpha   90.00000000
_cell_angle_beta   108.85528290
_cell_angle_gamma   90.00000000
_symmetry_Int_Tables_number   1
_chemical_formula_structural   ThIr
_chemical_formula_sum   'Th2 Ir2'
_cell_volume   93.94341264
_cell_formula_units_Z   2
loop_
 _symmetry_equiv_pos_site_id
 _symmetry_equiv_pos_as_xyz
  1  'x, y, z'
loop_
 _atom_site_type_symbol
 _atom_site_label
 _atom_site_symmetry_multiplicity
 _atom_site_fract_x
 _atom_site_fract_y
 _atom_site_fract_z
 _atom_site_occupancy
  Th  Th0  1  0.13641739  0.75000000  0.27283478  1
  Th  Th1  1  0.86358261  0.25000000  0.72716522  1
  Ir  Ir0  1  0.40147994  0.75000000  0.80296188  1
  Ir  Ir1  1  0.59852006  0.25000000  0.19703812  1
loop_
_geom_bond_atom_site_label_1
_geom_bond_atom_site_label_2
_geom_bond_distance
_geom_bond_site_symmetry_2
Ir0 Th1 2.903927 1_465
Ir0 Th1 2.903927 1_455
Ir0 Th1 2.903932 1_555
Ir0 Th1 2.903932 1_565
Ir0 Th0 3.028914 1_555
Ir0 Th0 3.318815 1_556
Ir0 Th0 3.318820 1_656
Ir1 Th0 2.903927 1_645
Ir1 Th0 2.903927 1_655
Ir1 Th0 2.903932 1_555
Ir1 Th0 2.903932 1_545
Ir1 Th1 3.028914 1_555
Ir1 Th1 3.318815 1_554
Ir1 Th1 3.318820 1_454
