# generated using pymatgen
data_MnZn(GaSe2)4
_symmetry_space_group_name_H-M   'P 1'
_cell_length_a   5.65078700
_cell_length_b   5.65078700
_cell_length_c   11.06826600
_cell_angle_alpha   90.00000000
_cell_angle_beta   90.00000000
_cell_angle_gamma   90.00000000
_symmetry_Int_Tables_number   1
_chemical_formula_structural   MnZn(GaSe2)4
_chemical_formula_sum   'Mn1 Zn1 Ga4 Se8'
_cell_volume   353.42515944
_cell_formula_units_Z   1
loop_
 _symmetry_equiv_pos_site_id
 _symmetry_equiv_pos_as_xyz
  1  'x, y, z'
loop_
 _atom_site_type_symbol
 _atom_site_label
 _atom_site_symmetry_multiplicity
 _atom_site_fract_x
 _atom_site_fract_y
 _atom_site_fract_z
 _atom_site_occupancy
  Mn  Mn0  1  0.50000000  0.50000000  0.50000000  1
  Zn  Zn0  1  0.00000000  0.00000000  0.00000000  1
  Ga  Ga0  1  0.50000000  0.00000000  0.75066100  1
  Ga  Ga1  1  0.00000000  0.50000000  0.24933900  1
  Ga  Ga2  1  0.50000000  0.50000000  0.00000000  1
  Ga  Ga3  1  0.00000000  0.00000000  0.50000000  1
  Se  Se0  1  0.24120100  0.73470400  0.86705100  1
  Se  Se1  1  0.74373900  0.23309900  0.36597700  1
  Se  Se2  1  0.75879900  0.26529600  0.86705100  1
  Se  Se3  1  0.25626100  0.76690100  0.36597700  1
  Se  Se4  1  0.26529600  0.24120100  0.13294900  1
  Se  Se5  1  0.76690100  0.74373900  0.63402300  1
  Se  Se6  1  0.73470400  0.75879900  0.13294900  1
  Se  Se7  1  0.23309900  0.25626100  0.63402300  1
loop_
_geom_bond_atom_site_label_1
_geom_bond_atom_site_label_2
_geom_bond_distance
_geom_bond_site_symmetry_2
Mn0 Se5 2.524313 1_555
Mn0 Se1 2.524313 1_555
Mn0 Se3 2.524313 1_555
Mn0 Se7 2.524313 1_555
Ga0 Se7 2.457280 1_555
Ga0 Se5 2.457280 1_545
Ga0 Se2 2.458783 1_555
Ga0 Se0 2.458783 1_545
Ga1 Se3 2.457280 1_555
Ga1 Se1 2.457280 1_455
Ga1 Se4 2.458783 1_555
Ga1 Se6 2.458783 1_455
Ga2 Se6 2.462315 1_555
Ga2 Se4 2.462315 1_555
Ga2 Se0 2.462315 1_554
Ga2 Se2 2.462315 1_554
Ga3 Se7 2.456095 1_555
Ga3 Se3 2.456095 1_545
Ga3 Se1 2.456095 1_455
Ga3 Se5 2.456095 1_445
Se0 Zn0 2.504087 1_566
Se2 Zn0 2.504087 1_656
Se4 Zn0 2.504087 1_555
Se6 Zn0 2.504087 1_665
