# generated using pymatgen
data_MgCuF5
_symmetry_space_group_name_H-M   'P 1'
_cell_length_a   9.51059255
_cell_length_b   4.97389493
_cell_length_c   7.08560025
_cell_angle_alpha   70.70379447
_cell_angle_beta   90.00000000
_cell_angle_gamma   90.00000000
_symmetry_Int_Tables_number   1
_chemical_formula_structural   MgCuF5
_chemical_formula_sum   'Mg4 Cu4 F20'
_cell_volume   316.35252968
_cell_formula_units_Z   4
loop_
 _symmetry_equiv_pos_site_id
 _symmetry_equiv_pos_as_xyz
  1  'x, y, z'
loop_
 _atom_site_type_symbol
 _atom_site_label
 _atom_site_symmetry_multiplicity
 _atom_site_fract_x
 _atom_site_fract_y
 _atom_site_fract_z
 _atom_site_occupancy
  Mg  Mg0  1  0.01420626  0.52656900  0.75482099  1
  Mg  Mg1  1  0.51420626  0.47343100  0.74517901  1
  Mg  Mg2  1  0.98579374  0.47343100  0.24517901  1
  Mg  Mg3  1  0.48579374  0.52656900  0.25482099  1
  Cu  Cu0  1  0.75650303  0.10233361  0.60896543  1
  Cu  Cu1  1  0.25650303  0.89766639  0.89103457  1
  Cu  Cu2  1  0.24349697  0.89766639  0.39103457  1
  Cu  Cu3  1  0.74349697  0.10233361  0.10896543  1
  F  F0  1  0.88265180  0.41393163  0.57063809  1
  F  F1  1  0.38265180  0.58606837  0.92936191  1
  F  F2  1  0.11734820  0.58606837  0.42936191  1
  F  F3  1  0.61734820  0.41393163  0.07063809  1
  F  F4  1  0.60542793  0.35148319  0.49966322  1
  F  F5  1  0.10542793  0.64851681  0.00033678  1
  F  F6  1  0.39457207  0.64851681  0.50033678  1
  F  F7  1  0.89457207  0.35148319  0.99966322  1
  F  F8  1  0.40832282  0.12554590  0.78278426  1
  F  F9  1  0.90832282  0.87445410  0.71721574  1
  F  F10  1  0.59167718  0.87445410  0.21721574  1
  F  F11  1  0.09167718  0.12554590  0.28278426  1
  F  F12  1  0.14450032  0.21557959  0.85125673  1
  F  F13  1  0.64450032  0.78442041  0.64874327  1
  F  F14  1  0.85549968  0.78442041  0.14874327  1
  F  F15  1  0.35549968  0.21557959  0.35125673  1
  F  F16  1  0.68065566  0.14318587  0.84730009  1
  F  F17  1  0.18065566  0.85681413  0.65269991  1
  F  F18  1  0.31934434  0.85681413  0.15269991  1
  F  F19  1  0.81934434  0.14318587  0.34730009  1
loop_
_geom_bond_atom_site_label_1
_geom_bond_atom_site_label_2
_geom_bond_distance
_geom_bond_site_symmetry_2
Cu0 F9 1.839371 1_545
Cu0 F13 1.849316 1_545
Cu0 F4 1.888295 1_555
Cu0 F19 1.893943 1_555
Cu0 F0 1.907100 1_555
Cu0 F16 1.907952 1_555
Cu1 F8 1.839371 1_565
Cu1 F12 1.849316 1_565
Cu1 F5 1.888295 1_556
Cu1 F18 1.893943 1_556
Cu1 F1 1.907100 1_555
Cu1 F17 1.907952 1_555
Cu2 F11 1.839371 1_565
Cu2 F15 1.849316 1_565
Cu2 F6 1.888295 1_555
Cu2 F17 1.893943 1_555
Cu2 F2 1.907100 1_555
Cu2 F18 1.907952 1_555
Cu3 F10 1.839371 1_545
Cu3 F14 1.849316 1_545
Cu3 F7 1.888295 1_554
Cu3 F16 1.893943 1_554
Cu3 F3 1.907100 1_555
Cu3 F19 1.907952 1_555
F0 Mg0 2.016344 1_655
F0 Mg2 2.432438 1_555
F1 Mg1 2.016344 1_555
F1 Mg3 2.432438 1_556
F2 Mg2 2.016344 1_455
F2 Mg0 2.432438 1_555
F3 Mg3 2.016344 1_555
F3 Mg1 2.432438 1_554
F4 Mg3 2.015982 1_555
F4 Mg1 2.200969 1_555
F5 Mg2 2.015982 1_455
F5 Mg0 2.200969 1_554
F6 Mg1 2.015982 1_555
F6 Mg3 2.200969 1_555
F7 Mg0 2.015982 1_655
F7 Mg2 2.200969 1_556
F8 Mg1 1.942794 1_555
F9 Mg0 1.942794 1_655
F10 Mg3 1.942794 1_555
F11 Mg2 1.942794 1_455
F12 Mg0 1.922652 1_555
F13 Mg1 1.922652 1_555
F14 Mg2 1.922652 1_555
F15 Mg3 1.922652 1_555
F16 Mg1 2.223104 1_555
F17 Mg0 2.223104 1_555
F18 Mg3 2.223104 1_555
F19 Mg2 2.223104 1_555
