# generated using pymatgen
data_MnZn(GeO3)2
_symmetry_space_group_name_H-M   'P 1'
_cell_length_a   9.48918800
_cell_length_b   5.52608800
_cell_length_c   9.87793038
_cell_angle_alpha   77.69362588
_cell_angle_beta   90.00000000
_cell_angle_gamma   90.00000000
_symmetry_Int_Tables_number   1
_chemical_formula_structural   MnZn(GeO3)2
_chemical_formula_sum   'Mn4 Zn4 Ge8 O24'
_cell_volume   506.07757452
_cell_formula_units_Z   4
loop_
 _symmetry_equiv_pos_site_id
 _symmetry_equiv_pos_as_xyz
  1  'x, y, z'
loop_
 _atom_site_type_symbol
 _atom_site_label
 _atom_site_symmetry_multiplicity
 _atom_site_fract_x
 _atom_site_fract_y
 _atom_site_fract_z
 _atom_site_occupancy
  Mn  Mn0  1  0.65033900  0.03683700  0.24442700  1
  Mn  Mn1  1  0.15033900  0.46316300  0.75557300  1
  Mn  Mn2  1  0.34966100  0.96316300  0.75557300  1
  Mn  Mn3  1  0.84966100  0.53683700  0.24442700  1
  Zn  Zn0  1  0.49836600  0.54481300  0.24566900  1
  Zn  Zn1  1  0.99836600  0.95518700  0.75433100  1
  Zn  Zn2  1  0.50163400  0.45518700  0.75433100  1
  Zn  Zn3  1  0.00163400  0.04481300  0.24566900  1
  Ge  Ge0  1  0.33508600  0.18978400  0.05748300  1
  Ge  Ge1  1  0.83508600  0.31021600  0.94251700  1
  Ge  Ge2  1  0.66491400  0.81021600  0.94251700  1
  Ge  Ge3  1  0.16491400  0.68978400  0.05748300  1
  Ge  Ge4  1  0.34035000  0.75025800  0.45523100  1
  Ge  Ge5  1  0.84035000  0.74974200  0.54476900  1
  Ge  Ge6  1  0.65965000  0.24974200  0.54476900  1
  Ge  Ge7  1  0.15965000  0.25025800  0.45523100  1
  O  O0  1  0.27635700  0.49781200  0.38575800  1
  O  O1  1  0.77635700  0.00218800  0.61424200  1
  O  O2  1  0.72364300  0.50218800  0.61424200  1
  O  O3  1  0.22364300  0.99781200  0.38575800  1
  O  O4  1  0.31524500  0.85554800  0.10610300  1
  O  O5  1  0.81524500  0.64445200  0.89389700  1
  O  O6  1  0.68475500  0.14445200  0.89389700  1
  O  O7  1  0.18475500  0.35554800  0.10610300  1
  O  O8  1  0.99620000  0.28579100  0.37128200  1
  O  O9  1  0.49620000  0.21420900  0.62871800  1
  O  O10  1  0.00380000  0.71420900  0.62871800  1
  O  O11  1  0.50380000  0.78579100  0.37128200  1
  O  O12  1  0.01955400  0.77606900  0.14370100  1
  O  O13  1  0.51955400  0.72393100  0.85629900  1
  O  O14  1  0.98044600  0.22393100  0.85629900  1
  O  O15  1  0.48044600  0.27606900  0.14370100  1
  O  O16  1  0.34021000  0.25341500  0.87413900  1
  O  O17  1  0.84021000  0.24658500  0.12586100  1
  O  O18  1  0.65979000  0.74658500  0.12586100  1
  O  O19  1  0.15979000  0.75341500  0.87413900  1
  O  O20  1  0.33863500  0.68134100  0.63741500  1
  O  O21  1  0.83863500  0.81865900  0.36258500  1
  O  O22  1  0.66136500  0.31865900  0.36258500  1
  O  O23  1  0.16136500  0.18134100  0.63741500  1
loop_
_geom_bond_atom_site_label_1
_geom_bond_atom_site_label_2
_geom_bond_distance
_geom_bond_site_symmetry_2
Mn0 O22 2.138564 1_555
Mn0 O11 2.165026 1_545
Mn0 O18 2.180179 1_545
Mn0 O15 2.185404 1_555
Mn0 O17 2.320061 1_555
Mn0 O21 2.325641 1_545
Mn1 O23 2.138564 1_555
Mn1 O10 2.165026 1_555
Mn1 O19 2.180179 1_555
Mn1 O14 2.185404 1_455
Mn1 O16 2.320061 1_555
Mn1 O20 2.325641 1_555
Mn2 O20 2.138564 1_555
Mn2 O9 2.165026 1_565
Mn2 O16 2.180179 1_565
Mn2 O13 2.185404 1_555
Mn2 O19 2.320061 1_555
Mn2 O23 2.325641 1_565
Mn3 O21 2.138564 1_555
Mn3 O8 2.165026 1_555
Mn3 O17 2.180179 1_555
Mn3 O12 2.185404 1_655
Mn3 O18 2.320061 1_555
Mn3 O22 2.325641 1_555
Ge0 O15 1.740224 1_555
Ge0 O16 1.770446 1_554
Ge0 O7 1.814456 1_555
Ge0 O4 1.816437 1_545
Ge1 O14 1.740224 1_555
Ge1 O17 1.770446 1_556
Ge1 O6 1.814456 1_555
Ge1 O5 1.816437 1_555
Ge2 O13 1.740224 1_555
Ge2 O18 1.770446 1_556
Ge2 O5 1.814456 1_555
Ge2 O6 1.816437 1_565
Ge3 O12 1.740224 1_555
Ge3 O19 1.770446 1_554
Ge3 O4 1.814456 1_555
Ge3 O7 1.816437 1_555
Ge4 O11 1.749976 1_555
Ge4 O20 1.758327 1_555
Ge4 O3 1.780069 1_555
Ge4 O0 1.787151 1_555
Ge5 O10 1.749976 1_655
Ge5 O21 1.758327 1_555
Ge5 O2 1.780069 1_555
Ge5 O1 1.787151 1_565
Ge6 O9 1.749976 1_555
Ge6 O22 1.758327 1_555
Ge6 O1 1.780069 1_555
Ge6 O2 1.787151 1_555
Ge7 O8 1.749976 1_455
Ge7 O23 1.758327 1_555
Ge7 O0 1.780069 1_555
Ge7 O3 1.787151 1_545
O0 Zn0 2.503447 1_555
O1 Zn1 2.503447 1_545
O2 Zn2 2.503447 1_555
O3 Zn3 2.503447 1_565
O4 Zn0 2.619078 1_555
O5 Zn1 2.619078 1_555
O6 Zn2 2.619078 1_555
O7 Zn3 2.619078 1_555
O8 Zn3 2.004973 1_655
O9 Zn2 2.004973 1_555
O10 Zn1 2.004973 1_455
O11 Zn0 2.004973 1_555
O12 Zn3 1.971449 1_565
O13 Zn2 1.971449 1_555
O14 Zn1 1.971449 1_545
O15 Zn0 1.971449 1_555
O16 Zn2 2.104203 1_555
O17 Zn3 2.104203 1_655
O18 Zn0 2.104203 1_555
O19 Zn1 2.104203 1_455
O20 Zn2 2.161654 1_555
O21 Zn3 2.161654 1_665
O22 Zn0 2.161654 1_555
O23 Zn1 2.161654 1_445
