# generated using pymatgen
data_Mg3Si4
_symmetry_space_group_name_H-M   'P 1'
_cell_length_a   3.72432800
_cell_length_b   8.64318300
_cell_length_c   9.60694322
_cell_angle_alpha   115.36836391
_cell_angle_beta   90.47537775
_cell_angle_gamma   101.68049928
_symmetry_Int_Tables_number   1
_chemical_formula_structural   Mg3Si4
_chemical_formula_sum   'Mg6 Si8'
_cell_volume   272.05852943
_cell_formula_units_Z   2
loop_
 _symmetry_equiv_pos_site_id
 _symmetry_equiv_pos_as_xyz
  1  'x, y, z'
loop_
 _atom_site_type_symbol
 _atom_site_label
 _atom_site_symmetry_multiplicity
 _atom_site_fract_x
 _atom_site_fract_y
 _atom_site_fract_z
 _atom_site_occupancy
  Mg  Mg0  1  0.92680200  0.43808000  0.32410300  1
  Mg  Mg1  1  0.29310700  0.13414600  0.06707100  1
  Mg  Mg2  1  0.70918600  0.96910700  0.24355100  1
  Mg  Mg3  1  0.83478300  0.21153900  0.58879500  1
  Mg  Mg4  1  0.51266300  0.57707300  0.63225000  1
  Mg  Mg5  1  0.06678200  0.69002200  0.96605500  1
  Si  Si0  1  0.33468400  0.23686600  0.38618000  1
  Si  Si1  1  0.42914300  0.40980900  0.83225600  1
  Si  Si2  1  0.70285200  0.96625900  0.71374500  1
  Si  Si3  1  0.61973100  0.78173400  0.43745700  1
  Si  Si4  1  0.08970600  0.72508600  0.26057100  1
  Si  Si5  1  0.86312300  0.27315500  0.90456500  1
  Si  Si6  1  0.46310900  0.49168300  0.11253400  1
  Si  Si7  1  0.14772800  0.84872900  0.78423700  1
loop_
_geom_bond_atom_site_label_1
_geom_bond_atom_site_label_2
_geom_bond_distance
_geom_bond_site_symmetry_2
Mg0 Si4 2.754691 1_655
Mg0 Si0 2.756983 1_555
Mg0 Si0 2.762473 1_655
Mg0 Si6 2.898410 1_555
Mg0 Si6 2.972362 1_655
Mg0 Si3 3.152893 1_555
Mg1 Si7 2.730009 1_544
Mg1 Si0 2.795485 1_555
Mg1 Si6 2.861464 1_555
Mg1 Si5 2.964825 1_454
Mg1 Si5 3.002858 1_554
Mg2 Si0 2.776174 1_665
Mg2 Si0 2.792906 1_565
Mg2 Si4 2.825853 1_655
Mg2 Si4 2.851228 1_555
Mg2 Si3 2.929312 1_555
Mg3 Si0 2.750152 1_655
Mg3 Si0 2.788530 1_555
Mg3 Si2 2.818750 1_545
Mg3 Si5 2.843412 1_555
Mg3 Si1 2.872430 1_655
Mg3 Si1 2.891711 1_555
Mg4 Si7 2.807069 1_555
Mg4 Si0 2.811162 1_555
Mg4 Si7 2.827632 1_655
Mg4 Si1 2.843732 1_555
Mg4 Si2 3.033029 1_555
Mg4 Si3 3.058330 1_555
Mg5 Si7 2.630197 1_555
Mg5 Si4 2.712082 1_556
Mg5 Si1 2.832659 1_555
Mg5 Si1 2.847894 1_455
Mg5 Si6 3.186679 1_556
Mg5 Si6 3.245421 1_456
Si1 Si5 2.438730 1_555
Si1 Si5 2.457776 1_455
Si1 Si6 2.468266 1_556
Si2 Si7 2.342667 1_655
Si2 Si7 2.351012 1_555
Si2 Si3 2.417391 1_555
Si2 Si5 2.434550 1_565
Si3 Si4 2.421598 1_555
Si3 Si4 2.423753 1_655
Si4 Si6 2.595504 1_555
Si4 Si6 2.668058 1_455
Si5 Si6 2.745156 1_656
Si5 Si6 2.780992 1_556
