# generated using pymatgen
data_SrNdMgWO6
_symmetry_space_group_name_H-M   'P 1'
_cell_length_a   5.64963695
_cell_length_b   5.64963695
_cell_length_c   5.64963695
_cell_angle_alpha   60.00000000
_cell_angle_beta   60.00000000
_cell_angle_gamma   60.00000000
_symmetry_Int_Tables_number   1
_chemical_formula_structural   SrNdMgWO6
_chemical_formula_sum   'Sr1 Nd1 Mg1 W1 O6'
_cell_volume   127.51069841
_cell_formula_units_Z   1
loop_
 _symmetry_equiv_pos_site_id
 _symmetry_equiv_pos_as_xyz
  1  'x, y, z'
loop_
 _atom_site_type_symbol
 _atom_site_label
 _atom_site_symmetry_multiplicity
 _atom_site_fract_x
 _atom_site_fract_y
 _atom_site_fract_z
 _atom_site_occupancy
  Sr  Sr0  1  0.25000000  0.25000000  0.25000000  1
  Nd  Nd0  1  0.75000000  0.75000000  0.75000000  1
  Mg  Mg0  1  -0.00000000  -0.00000000  -0.00000000  1
  W  W0  1  0.50000000  0.50000000  0.50000000  1
  O  O0  1  0.74741294  0.25258706  0.25258706  1
  O  O1  1  0.25258706  0.74741294  0.74741294  1
  O  O2  1  0.74741294  0.25258706  0.74741294  1
  O  O3  1  0.25258706  0.74741294  0.25258706  1
  O  O4  1  0.74741294  0.74741294  0.25258706  1
  O  O5  1  0.25258706  0.25258706  0.74741294  1
loop_
_geom_bond_atom_site_label_1
_geom_bond_atom_site_label_2
_geom_bond_distance
_geom_bond_site_symmetry_2
Nd0 O4 2.824894 1_556
Nd0 O0 2.824894 1_565
Nd0 O3 2.824894 1_655
Nd0 O1 2.824894 1_655
Nd0 O5 2.824894 1_655
Nd0 O5 2.824894 1_565
Nd0 O2 2.824894 1_555
Nd0 O3 2.824894 1_556
Nd0 O2 2.824894 1_565
Nd0 O0 2.824894 1_556
Nd0 O4 2.824894 1_555
Nd0 O1 2.824894 1_555
Mg0 O1 2.018118 1_544
Mg0 O0 2.018118 1_455
Mg0 O4 2.018118 1_445
Mg0 O3 2.018118 1_545
Mg0 O5 2.018118 1_554
Mg0 O2 2.018118 1_454
O0 W0 1.976778 1_555
O0 Sr0 2.824894 1_655
O0 Sr0 2.824894 1_555
O1 W0 1.976778 1_555
O1 Sr0 2.824894 1_556
O1 Sr0 2.824894 1_565
O2 W0 1.976778 1_555
O2 Sr0 2.824894 1_655
O2 Sr0 2.824894 1_556
O3 W0 1.976778 1_555
O3 Sr0 2.824894 1_565
O3 Sr0 2.824894 1_555
O4 W0 1.976778 1_555
O4 Sr0 2.824894 1_565
O4 Sr0 2.824894 1_655
O5 W0 1.976778 1_555
O5 Sr0 2.824894 1_556
O5 Sr0 2.824894 1_555
