# generated using pymatgen
data_MgSi2
_symmetry_space_group_name_H-M   'P 1'
_cell_length_a   3.70969100
_cell_length_b   5.30969400
_cell_length_c   12.15983172
_cell_angle_alpha   77.91341298
_cell_angle_beta   90.00000000
_cell_angle_gamma   90.00000000
_symmetry_Int_Tables_number   1
_chemical_formula_structural   MgSi2
_chemical_formula_sum   'Mg4 Si8'
_cell_volume   234.20661935
_cell_formula_units_Z   4
loop_
 _symmetry_equiv_pos_site_id
 _symmetry_equiv_pos_as_xyz
  1  'x, y, z'
loop_
 _atom_site_type_symbol
 _atom_site_label
 _atom_site_symmetry_multiplicity
 _atom_site_fract_x
 _atom_site_fract_y
 _atom_site_fract_z
 _atom_site_occupancy
  Mg  Mg0  1  0.00000000  0.25164800  0.20192100  1
  Mg  Mg1  1  0.50000000  0.62856100  0.95483500  1
  Mg  Mg2  1  0.00000000  0.00279900  0.71377000  1
  Mg  Mg3  1  0.50000000  0.70760300  0.30149300  1
  Si  Si0  1  0.50000000  0.17614200  0.85990200  1
  Si  Si1  1  0.50000000  0.06982800  0.06056000  1
  Si  Si2  1  0.00000000  0.38593500  0.43234200  1
  Si  Si3  1  0.50000000  0.84340600  0.57214400  1
  Si  Si4  1  0.00000000  0.77840800  0.11155500  1
  Si  Si5  1  0.00000000  0.45458300  0.80024800  1
  Si  Si6  1  0.00000000  0.56383100  0.59553000  1
  Si  Si7  1  0.50000000  0.13701800  0.39552100  1
loop_
_geom_bond_atom_site_label_1
_geom_bond_atom_site_label_2
_geom_bond_distance
_geom_bond_site_symmetry_2
Mg0 Si4 2.782664 1_555
Mg0 Si1 2.832335 1_455
Mg0 Si1 2.832335 1_555
Mg0 Si4 2.945793 1_545
Mg0 Si7 2.958522 1_455
Mg0 Si7 2.958522 1_555
Mg0 Si2 3.032421 1_555
Mg1 Si0 2.874796 1_555
Mg1 Si4 2.887927 1_556
Mg1 Si4 2.887927 1_656
Mg1 Si0 2.894909 1_565
Mg1 Si1 2.898931 1_566
Mg1 Si5 2.924801 1_555
Mg1 Si5 2.924801 1_655
Mg1 Si1 2.976048 1_556
Mg2 Si3 2.780807 1_545
Mg2 Si3 2.780807 1_445
Mg2 Si5 2.813638 1_555
Mg2 Si0 2.851318 1_455
Mg2 Si0 2.851318 1_555
Mg2 Si5 2.880455 1_545
Mg2 Si6 2.983817 1_545
Mg2 Si6 3.024478 1_555
Mg3 Si7 2.756393 1_565
Mg3 Si2 2.784085 1_555
Mg3 Si2 2.784085 1_655
Mg3 Si4 2.924463 1_655
Mg3 Si4 2.924463 1_555
Mg3 Si7 3.005879 1_555
Mg3 Si1 3.150011 1_565
Si0 Si1 2.386481 1_556
Si0 Si5 2.388157 1_555
Si0 Si5 2.388157 1_655
Si1 Si4 2.411937 1_645
Si1 Si4 2.411937 1_545
Si2 Si6 2.369548 1_555
Si2 Si7 2.373933 1_455
Si2 Si7 2.373933 1_555
Si3 Si6 2.355451 1_555
Si3 Si6 2.355451 1_655
Si3 Si7 2.375060 1_565
Si5 Si6 2.434864 1_555
