# generated using pymatgen
data_AsC3OF6
_symmetry_space_group_name_H-M   'P 1'
_cell_length_a   7.10547475
_cell_length_b   7.10547475
_cell_length_c   7.65681545
_cell_angle_alpha   76.36051856
_cell_angle_beta   76.36051856
_cell_angle_gamma   72.11465885
_symmetry_Int_Tables_number   1
_chemical_formula_structural   AsC3OF6
_chemical_formula_sum   'As2 C6 O2 F12'
_cell_volume   351.89471232
_cell_formula_units_Z   2
loop_
 _symmetry_equiv_pos_site_id
 _symmetry_equiv_pos_as_xyz
  1  'x, y, z'
loop_
 _atom_site_type_symbol
 _atom_site_label
 _atom_site_symmetry_multiplicity
 _atom_site_fract_x
 _atom_site_fract_y
 _atom_site_fract_z
 _atom_site_occupancy
  As  As0  1  0.00878000  0.00878000  0.98714200  1
  As  As1  1  0.50222500  0.50222500  0.49845700  1
  C  C0  1  0.21013900  0.21013900  0.42359200  1
  C  C1  1  0.34668200  0.15950700  0.27181300  1
  C  C2  1  0.15950700  0.34668200  0.27181300  1
  C  C3  1  0.86491100  0.86491100  0.50487600  1
  C  C4  1  0.53874200  0.70264600  0.91735200  1
  C  C5  1  0.70264600  0.53874200  0.91735200  1
  O  O0  1  0.28913900  0.28913900  0.11491200  1
  O  O1  1  0.81946300  0.81946300  0.65926600  1
  F  F0  1  0.13456700  0.82789600  0.84482600  1
  F  F1  1  0.82789600  0.13456700  0.84482600  1
  F  F2  1  0.85230100  0.85230100  0.11171500  1
  F  F3  1  0.89097300  0.18846800  0.13673700  1
  F  F4  1  0.18846800  0.89097300  0.13673700  1
  F  F5  1  0.16441000  0.16441000  0.85792000  1
  F  F6  1  0.48383200  0.48383200  0.74180600  1
  F  F7  1  0.76347100  0.46452200  0.46580200  1
  F  F8  1  0.46452200  0.76347100  0.46580200  1
  F  F9  1  0.51347000  0.51347000  0.25939100  1
  F  F10  1  0.23901900  0.53483800  0.53388100  1
  F  F11  1  0.53483800  0.23901900  0.53388100  1
loop_
_geom_bond_atom_site_label_1
_geom_bond_atom_site_label_2
_geom_bond_distance
_geom_bond_site_symmetry_2
As0 F1 1.770247 1_455
As0 F0 1.770247 1_545
As0 F2 1.772353 1_446
As0 F5 1.773058 1_555
As0 F4 1.795520 1_546
As0 F3 1.795520 1_456
As1 F7 1.757070 1_555
As1 F8 1.757070 1_555
As1 F10 1.774581 1_555
As1 F11 1.774581 1_555
As1 F9 1.797055 1_555
As1 F6 1.812943 1_555
C0 C2 1.368332 1_555
C0 C1 1.368332 1_555
C1 O0 1.391876 1_555
C2 O0 1.391876 1_555
C3 O1 1.144545 1_555
C4 C5 1.370973 1_555
