# generated using pymatgen
data_Sr2Y4Fe2Cu2O13
_symmetry_space_group_name_H-M   'P 1'
_cell_length_a   11.87343191
_cell_length_b   11.87343191
_cell_length_c   10.79944684
_cell_angle_alpha   63.49742360
_cell_angle_beta   63.49742360
_cell_angle_gamma   26.56877321
_symmetry_Int_Tables_number   1
_chemical_formula_structural   Sr2Y4Fe2Cu2O13
_chemical_formula_sum   'Sr4 Y8 Fe4 Cu4 O26'
_cell_volume   605.16826224
_cell_formula_units_Z   2
loop_
 _symmetry_equiv_pos_site_id
 _symmetry_equiv_pos_as_xyz
  1  'x, y, z'
loop_
 _atom_site_type_symbol
 _atom_site_label
 _atom_site_symmetry_multiplicity
 _atom_site_fract_x
 _atom_site_fract_y
 _atom_site_fract_z
 _atom_site_occupancy
  Sr  Sr0  1  0.70686100  0.79288700  0.13398900  1
  Sr  Sr1  1  0.29313900  0.20711300  0.86601100  1
  Sr  Sr2  1  0.79288700  0.70686100  0.63398900  1
  Sr  Sr3  1  0.20711300  0.29313900  0.36601100  1
  Y  Y0  1  0.88977000  0.97846300  0.95406000  1
  Y  Y1  1  0.47456600  0.39423100  0.67599400  1
  Y  Y2  1  0.60576900  0.52543400  0.82400600  1
  Y  Y3  1  0.02153700  0.11023000  0.54594000  1
  Y  Y4  1  0.11023000  0.02153700  0.04594000  1
  Y  Y5  1  0.52543400  0.60576900  0.32400600  1
  Y  Y6  1  0.39423100  0.47456600  0.17599400  1
  Y  Y7  1  0.97846300  0.88977000  0.45406000  1
  Fe  Fe0  1  0.87878800  0.80982000  0.78970400  1
  Fe  Fe1  1  0.19018000  0.12121200  0.71029600  1
  Fe  Fe2  1  0.12121200  0.19018000  0.21029600  1
  Fe  Fe3  1  0.80982000  0.87878800  0.28970400  1
  Cu  Cu0  1  0.31937100  0.38592600  0.01404400  1
  Cu  Cu1  1  0.61407400  0.68062900  0.48595600  1
  Cu  Cu2  1  0.68062900  0.61407400  0.98595600  1
  Cu  Cu3  1  0.38592600  0.31937100  0.51404400  1
  O  O0  1  0.06267900  0.65554700  0.13960300  1
  O  O1  1  0.14895400  0.56560900  0.64665400  1
  O  O2  1  0.43439100  0.85104600  0.85334600  1
  O  O3  1  0.34445300  0.93732100  0.36039700  1
  O  O4  1  0.93732100  0.34445300  0.86039700  1
  O  O5  1  0.85104600  0.43439100  0.35334600  1
  O  O6  1  0.56560900  0.14895400  0.14665400  1
  O  O7  1  0.65554700  0.06267900  0.63960300  1
  O  O8  1  0.60721200  0.10391300  0.89422300  1
  O  O9  1  0.89608700  0.39278800  0.60577700  1
  O  O10  1  0.39278800  0.89608700  0.10577700  1
  O  O11  1  0.10391300  0.60721200  0.39422300  1
  O  O12  1  0.24989400  0.75038400  0.97218500  1
  O  O13  1  0.24961600  0.75010600  0.52781500  1
  O  O14  1  0.75010600  0.24961600  0.02781500  1
  O  O15  1  0.75038400  0.24989400  0.47218500  1
  O  O16  1  0.75006200  0.24993800  0.75000000  1
  O  O17  1  0.24993800  0.75006200  0.25000000  1
  O  O18  1  0.86085300  0.34806100  0.14884100  1
  O  O19  1  0.65193900  0.13914700  0.35115900  1
  O  O20  1  0.13914700  0.65193900  0.85115900  1
  O  O21  1  0.34806100  0.86085300  0.64884100  1
  O  O22  1  0.69788100  0.80964700  0.38710800  1
  O  O23  1  0.30211900  0.19035300  0.61289200  1
  O  O24  1  0.80964700  0.69788100  0.88710800  1
  O  O25  1  0.19035300  0.30211900  0.11289200  1
loop_
_geom_bond_atom_site_label_1
_geom_bond_atom_site_label_2
_geom_bond_distance
_geom_bond_site_symmetry_2
Fe0 O24 1.865550 1_555
Fe0 O20 1.966121 1_655
Fe0 O7 1.980742 1_565
Fe0 O8 1.998243 1_565
Fe0 O1 2.005283 1_655
Fe1 O23 1.865550 1_555
Fe1 O21 1.966121 1_545
Fe1 O4 1.980742 1_455
Fe1 O9 1.998243 1_455
Fe1 O2 2.005283 1_545
Fe2 O25 1.865550 1_555
Fe2 O18 1.966121 1_455
Fe2 O3 1.980742 1_545
Fe2 O10 1.998243 1_545
Fe2 O5 2.005283 1_455
Fe3 O22 1.865550 1_555
Fe3 O19 1.966121 1_565
Fe3 O0 1.980742 1_655
Fe3 O11 1.998243 1_655
Fe3 O6 2.005283 1_565
Cu0 O6 1.985221 1_555
Cu0 O20 1.990031 1_554
Cu0 O8 2.004073 1_554
Cu0 O0 2.026997 1_555
Cu0 O25 2.189901 1_555
Cu1 O5 1.985221 1_555
Cu1 O21 1.990031 1_555
Cu1 O9 2.004073 1_555
Cu1 O3 2.026997 1_555
Cu1 O22 2.189901 1_555
Cu2 O2 1.985221 1_555
Cu2 O18 1.990031 1_556
Cu2 O10 2.004073 1_556
Cu2 O4 2.026997 1_555
Cu2 O24 2.189901 1_555
Cu3 O1 1.985221 1_555
Cu3 O19 1.990031 1_555
Cu3 O11 2.004073 1_555
Cu3 O7 2.026997 1_555
Cu3 O23 2.189901 1_555
O0 Y0 2.380066 1_454
O0 Y6 2.400910 1_555
O0 Sr0 2.885890 1_455
O0 Sr3 2.930451 1_555
O1 Y1 2.373480 1_555
O1 Y7 2.431828 1_455
O1 Sr1 2.871601 1_555
O1 Sr2 2.886714 1_455
O2 Y2 2.373480 1_555
O2 Y4 2.431828 1_566
O2 Sr2 2.871601 1_555
O2 Sr1 2.886714 1_565
O3 Y3 2.380066 1_565
O3 Y5 2.400910 1_555
O3 Sr3 2.885890 1_565
O3 Sr0 2.930451 1_555
O4 Y4 2.380066 1_656
O4 Y2 2.400910 1_555
O4 Sr1 2.885890 1_655
O4 Sr2 2.930451 1_555
O5 Y5 2.373480 1_555
O5 Y3 2.431828 1_655
O5 Sr0 2.871601 1_555
O5 Sr3 2.886714 1_655
O6 Y6 2.373480 1_555
O6 Y0 2.431828 1_544
O6 Sr3 2.871601 1_555
O6 Sr0 2.886714 1_545
O7 Y7 2.380066 1_545
O7 Y1 2.400910 1_555
O7 Sr2 2.885890 1_545
O7 Sr1 2.930451 1_555
O8 Y0 2.455322 1_545
O8 Y1 2.503599 1_555
O8 Sr1 2.829783 1_555
O8 Sr0 2.850715 1_546
O9 Y3 2.455322 1_655
O9 Y2 2.503599 1_555
O9 Sr2 2.829783 1_555
O9 Sr3 2.850715 1_655
O10 Y4 2.455322 1_565
O10 Y5 2.503599 1_555
O10 Sr0 2.829783 1_555
O10 Sr1 2.850715 1_564
O11 Y7 2.455322 1_455
O11 Y6 2.503599 1_555
O11 Sr3 2.829783 1_555
O11 Sr2 2.850715 1_455
O12 Y2 2.267340 1_555
O12 Y0 2.283839 1_455
O12 Y4 2.304188 1_566
O12 Y6 2.323873 1_556
O13 Y1 2.267340 1_555
O13 Y3 2.283839 1_565
O13 Y7 2.304188 1_455
O13 Y5 2.323873 1_555
O14 Y6 2.267340 1_555
O14 Y4 2.283839 1_655
O14 Y0 2.304188 1_544
O14 Y2 2.323873 1_554
O15 Y5 2.267340 1_555
O15 Y7 2.283839 1_545
O15 Y3 2.304188 1_655
O15 Y1 2.323873 1_555
O16 Y3 2.314390 1_655
O16 Y0 2.314390 1_545
O16 Y2 2.315254 1_555
O16 Y1 2.315254 1_555
O17 Y4 2.314390 1_565
O17 Y7 2.314390 1_455
O17 Y5 2.315254 1_555
O17 Y6 2.315254 1_555
O18 Y4 2.325291 1_655
O18 Y5 2.333632 1_555
O19 Y7 2.325291 1_545
O19 Y6 2.333632 1_555
O20 Y0 2.325291 1_455
O20 Y1 2.333632 1_555
O21 Y3 2.325291 1_565
O21 Y2 2.333632 1_555
O22 Sr3 2.672463 1_565
O22 Sr2 2.681044 1_555
O22 Sr0 2.776805 1_555
O22 Sr3 2.812201 1_655
O23 Sr2 2.672463 1_545
O23 Sr3 2.681044 1_555
O23 Sr1 2.776805 1_555
O23 Sr2 2.812201 1_455
O24 Sr1 2.672463 1_655
O24 Sr0 2.681044 1_556
O24 Sr2 2.776805 1_555
O24 Sr1 2.812201 1_565
O25 Sr0 2.672463 1_455
O25 Sr1 2.681044 1_554
O25 Sr3 2.776805 1_555
O25 Sr0 2.812201 1_545
