# generated using pymatgen
data_NaLaMgWO6
_symmetry_space_group_name_H-M   'P 1'
_cell_length_a   5.61022536
_cell_length_b   5.60551300
_cell_length_c   7.95894082
_cell_angle_alpha   90.00000000
_cell_angle_beta   90.05602549
_cell_angle_gamma   90.00000000
_symmetry_Int_Tables_number   1
_chemical_formula_structural   NaLaMgWO6
_chemical_formula_sum   'Na2 La2 Mg2 W2 O12'
_cell_volume   250.29417282
_cell_formula_units_Z   2
loop_
 _symmetry_equiv_pos_site_id
 _symmetry_equiv_pos_as_xyz
  1  'x, y, z'
loop_
 _atom_site_type_symbol
 _atom_site_label
 _atom_site_symmetry_multiplicity
 _atom_site_fract_x
 _atom_site_fract_y
 _atom_site_fract_z
 _atom_site_occupancy
  Na  Na0  1  0.26342400  0.75000000  0.99801900  1
  Na  Na1  1  0.73657600  0.25000000  0.00198100  1
  La  La0  1  0.24929400  0.75000000  0.50175100  1
  La  La1  1  0.75070600  0.25000000  0.49824900  1
  Mg  Mg0  1  0.24804600  0.25000000  0.24289500  1
  Mg  Mg1  1  0.75195400  0.75000000  0.75710500  1
  W  W0  1  0.24975500  0.25000000  0.76247500  1
  W  W1  1  0.75024500  0.75000000  0.23752500  1
  O  O0  1  0.16952500  0.25000000  0.98949600  1
  O  O1  1  0.32397300  0.25000000  0.50601600  1
  O  O2  1  0.48552300  0.00412100  0.77543500  1
  O  O3  1  0.48552300  0.49587900  0.77543500  1
  O  O4  1  0.99427900  0.99052900  0.30318500  1
  O  O5  1  0.99427900  0.50947100  0.30318500  1
  O  O6  1  0.00572100  0.49052900  0.69681500  1
  O  O7  1  0.00572100  0.00947100  0.69681500  1
  O  O8  1  0.51447700  0.50412100  0.22456500  1
  O  O9  1  0.51447700  0.99587900  0.22456500  1
  O  O10  1  0.67602700  0.75000000  0.49398400  1
  O  O11  1  0.83047500  0.75000000  0.01050400  1
loop_
_geom_bond_atom_site_label_1
_geom_bond_atom_site_label_2
_geom_bond_distance
_geom_bond_site_symmetry_2
Na0 O11 2.431070 1_456
Na0 O2 2.593138 1_565
Na0 O3 2.593138 1_555
Na0 O9 2.670113 1_556
Na0 O8 2.670113 1_556
Na0 O0 2.852628 1_555
Na0 O0 2.852628 1_565
Na1 O0 2.431070 1_654
Na1 O9 2.593138 1_545
Na1 O8 2.593138 1_555
Na1 O2 2.670113 1_554
Na1 O3 2.670113 1_554
Na1 O11 2.852628 1_545
Na1 O11 2.852628 1_555
La0 O10 2.394927 1_555
La0 O4 2.521492 1_455
La0 O5 2.521492 1_455
La0 O7 2.529271 1_565
La0 O6 2.529271 1_555
La0 O3 2.919694 1_555
La0 O2 2.919694 1_565
La0 O8 2.997722 1_555
La0 O9 2.997722 1_555
La1 O1 2.394927 1_555
La1 O6 2.521492 1_655
La1 O7 2.521492 1_655
La1 O5 2.529271 1_555
La1 O4 2.529271 1_545
La1 O9 2.919694 1_545
La1 O8 2.919694 1_555
La1 O2 2.997722 1_555
La1 O3 2.997722 1_555
Mg0 O0 2.063917 1_554
Mg0 O9 2.070046 1_545
Mg0 O8 2.070046 1_555
Mg0 O5 2.091401 1_455
Mg0 O4 2.091401 1_445
Mg0 O1 2.136640 1_555
Mg1 O11 2.063917 1_556
Mg1 O3 2.070046 1_555
Mg1 O2 2.070046 1_565
Mg1 O6 2.091401 1_655
Mg1 O7 2.091401 1_665
Mg1 O10 2.136640 1_555
O0 W0 1.862494 1_555
O1 W0 2.083577 1_555
O2 W0 1.913005 1_555
O3 W0 1.913005 1_555
O4 W1 1.990973 1_555
O5 W1 1.990973 1_555
O6 W0 1.990973 1_555
O7 W0 1.990973 1_555
O8 W1 1.913005 1_555
O9 W1 1.913005 1_555
O10 W1 2.083577 1_555
O11 W1 1.862494 1_555
