# generated using pymatgen
data_CaAl2Si3W3O10
_symmetry_space_group_name_H-M   'P 1'
_cell_length_a   10.72075066
_cell_length_b   10.72075066
_cell_length_c   10.17851004
_cell_angle_alpha   84.50150089
_cell_angle_beta   84.50150089
_cell_angle_gamma   143.98358134
_symmetry_Int_Tables_number   1
_chemical_formula_structural   CaAl2Si3W3O10
_chemical_formula_sum   'Ca2 Al4 Si6 W6 O20'
_cell_volume   654.02343469
_cell_formula_units_Z   2
loop_
 _symmetry_equiv_pos_site_id
 _symmetry_equiv_pos_as_xyz
  1  'x, y, z'
loop_
 _atom_site_type_symbol
 _atom_site_label
 _atom_site_symmetry_multiplicity
 _atom_site_fract_x
 _atom_site_fract_y
 _atom_site_fract_z
 _atom_site_occupancy
  Ca  Ca0  1  0.64455000  0.32405000  0.26967800  1
  Ca  Ca1  1  0.32405000  0.64455000  0.76967800  1
  Al  Al0  1  0.15079300  0.24198700  0.30409100  1
  Al  Al1  1  0.24198700  0.15079300  0.80409100  1
  Al  Al2  1  0.07425700  0.48908500  0.10216600  1
  Al  Al3  1  0.48908500  0.07425700  0.60216600  1
  Si  Si0  1  0.15650000  0.00077900  0.52667600  1
  Si  Si1  1  0.00077900  0.15650000  0.02667600  1
  Si  Si2  1  0.49669400  0.75193500  0.19731300  1
  Si  Si3  1  0.75193400  0.49669400  0.69731300  1
  Si  Si4  1  0.73410700  0.09012300  0.37031900  1
  Si  Si5  1  0.09012300  0.73410700  0.87031900  1
  W  W0  1  0.77350500  0.87367400  0.77509500  1
  W  W1  1  0.87367400  0.77350500  0.27509500  1
  W  W2  1  0.61815200  0.52142100  0.01662500  1
  W  W3  1  0.52142100  0.61815200  0.51662500  1
  W  W4  1  0.31460900  0.02733200  0.09161700  1
  W  W5  1  0.02733200  0.31460900  0.59161700  1
  O  O0  1  0.72871300  0.93166700  0.07167200  1
  O  O1  1  0.93166700  0.72871300  0.57167200  1
  O  O2  1  0.39561700  0.53163200  0.27347200  1
  O  O3  1  0.53163200  0.39561700  0.77347200  1
  O  O4  1  0.93406600  0.16288200  0.39235000  1
  O  O5  1  0.16288200  0.93406600  0.89235000  1
  O  O6  1  0.14753100  0.08509300  0.38901700  1
  O  O7  1  0.08509300  0.14753100  0.88901700  1
  O  O8  1  0.16064400  0.08575400  0.65267900  1
  O  O9  1  0.08575400  0.16064400  0.15267900  1
  O  O10  1  0.08630200  0.37529600  0.99164000  1
  O  O11  1  0.37529600  0.08630200  0.49164000  1
  O  O12  1  0.55347700  0.86907700  0.31944700  1
  O  O13  1  0.86907700  0.55347700  0.81944700  1
  O  O14  1  0.32481500  0.69423300  0.13790200  1
  O  O15  1  0.69423300  0.32481500  0.63790200  1
  O  O16  1  0.60663900  0.04114200  0.51523200  1
  O  O17  1  0.04114200  0.60663900  0.01523200  1
  O  O18  1  0.83891500  0.29295200  0.25151000  1
  O  O19  1  0.29295200  0.83891500  0.75151000  1
loop_
_geom_bond_atom_site_label_1
_geom_bond_atom_site_label_2
_geom_bond_distance
_geom_bond_site_symmetry_2
Ca0 O18 2.355655 1_555
Ca0 O11 2.382798 1_555
Ca0 W4 3.169660 1_555
Ca0 W1 3.191309 1_555
Ca0 W2 3.354939 1_555
Ca1 O19 2.355655 1_555
Ca1 O10 2.382798 1_555
Ca1 W5 3.169660 1_555
Ca1 W0 3.191309 1_555
Ca1 W3 3.354939 1_555
Al0 O9 1.761149 1_555
Al0 O2 1.761154 1_555
Al0 O4 1.786384 1_455
Al0 O6 1.788310 1_555
Al1 O8 1.761149 1_555
Al1 O3 1.761154 1_555
Al1 O5 1.786384 1_545
Al1 O7 1.788310 1_555
Al2 O14 1.722914 1_555
Al2 O17 1.751446 1_555
Al2 O18 1.779904 1_455
Al2 O10 1.805668 1_554
Al3 O15 1.722914 1_555
Al3 O16 1.751446 1_555
Al3 O19 1.779904 1_545
Al3 O11 1.805668 1_555
O0 Si1 1.639019 1_665
O0 Si2 1.643217 1_555
O1 Si0 1.639019 1_665
O1 Si3 1.643215 1_555
O2 Si2 1.643557 1_555
O2 W3 2.803670 1_555
O3 Si3 1.643548 1_555
O3 W2 2.803670 1_556
O4 Si4 1.635489 1_555
O4 W5 2.479771 1_655
O5 Si5 1.635489 1_555
O5 W4 2.479771 1_566
O6 Si0 1.647198 1_555
O6 W1 2.579210 1_445
O7 Si1 1.647198 1_556
O7 W0 2.579210 1_445
O8 Si0 1.626685 1_555
O8 W0 2.673662 1_445
O9 Si1 1.626685 1_555
O9 W1 2.673662 1_445
O10 Si1 1.663684 1_556
O11 Si0 1.663684 1_555
O12 Si4 1.624063 1_565
O12 Si2 1.643356 1_555
O12 W3 2.953023 1_555
O13 Si5 1.624063 1_655
O13 Si3 1.643362 1_555
O13 W2 2.953023 1_556
O14 Si2 1.607802 1_555
O15 Si3 1.607807 1_555
O16 Si4 1.619650 1_555
O17 Si5 1.619650 1_554
O18 Si4 1.654222 1_555
O19 Si5 1.654222 1_555
