# generated using pymatgen
data_Mg14AlCo
_symmetry_space_group_name_H-M   'P 1'
_cell_length_a   6.22803129
_cell_length_b   6.21988648
_cell_length_c   9.91786516
_cell_angle_alpha   90.00000000
_cell_angle_beta   90.00000000
_cell_angle_gamma   119.95675394
_symmetry_Int_Tables_number   1
_chemical_formula_structural   Mg14AlCo
_chemical_formula_sum   'Mg14 Al1 Co1'
_cell_volume   332.86732490
_cell_formula_units_Z   1
loop_
 _symmetry_equiv_pos_site_id
 _symmetry_equiv_pos_as_xyz
  1  'x, y, z'
loop_
 _atom_site_type_symbol
 _atom_site_label
 _atom_site_symmetry_multiplicity
 _atom_site_fract_x
 _atom_site_fract_y
 _atom_site_fract_z
 _atom_site_occupancy
  Mg  Mg0  1  0.17137552  0.33568726  0.62500000  1
  Mg  Mg1  1  0.16754756  0.83377328  0.62500000  1
  Mg  Mg2  1  0.67941068  0.33766928  0.12500000  1
  Mg  Mg3  1  0.66385735  0.33451897  0.62500000  1
  Mg  Mg4  1  0.67941068  0.84174040  0.12500000  1
  Mg  Mg5  1  0.66385735  0.82933738  0.62500000  1
  Mg  Mg6  1  0.32511256  0.15592707  0.35514674  1
  Mg  Mg7  1  0.32511256  0.15592707  0.89485326  1
  Mg  Mg8  1  0.32511256  0.66918648  0.35514674  1
  Mg  Mg9  1  0.32511256  0.66918648  0.89485326  1
  Mg  Mg10  1  0.83525266  0.16762683  0.37662820  1
  Mg  Mg11  1  0.83525266  0.16762683  0.87337180  1
  Mg  Mg12  1  0.84361717  0.67180908  0.36483019  1
  Mg  Mg13  1  0.84361717  0.67180908  0.88516981  1
  Al  Al0  1  0.15520356  0.32760128  0.12500000  1
  Co  Co0  1  0.16114743  0.83057321  0.12500000  1
loop_
_geom_bond_atom_site_label_1
_geom_bond_atom_site_label_2
_geom_bond_distance
_geom_bond_site_symmetry_2
Mg0 Mg11 3.059002 1_455
Mg0 Mg10 3.059002 1_455
Mg0 Mg5 3.070827 1_555
Mg0 Mg3 3.070827 1_555
Mg0 Mg1 3.110012 1_545
Mg0 Mg1 3.110012 1_555
Mg0 Mg5 3.157217 1_445
Mg0 Mg3 3.157217 1_455
Mg0 Mg7 3.224745 1_555
Mg0 Mg6 3.224745 1_555
Mg0 Mg9 3.224751 1_555
Mg0 Mg8 3.224751 1_555
Mg1 Mg3 3.104902 1_565
Mg1 Mg5 3.104902 1_555
Mg1 Mg12 3.116622 1_455
Mg1 Mg13 3.116622 1_455
Mg1 Mg3 3.123312 1_455
Mg1 Mg5 3.123313 1_455
Mg1 Mg8 3.190172 1_555
Mg1 Mg9 3.190172 1_555
Mg1 Mg6 3.190177 1_565
Mg1 Mg7 3.190177 1_565
Mg2 Mg7 2.977557 1_554
Mg2 Mg6 2.977557 1_555
Mg2 Mg4 3.084621 1_545
Mg2 Mg4 3.135265 1_555
Mg3 Mg5 3.077714 1_555
Mg3 Mg5 3.142172 1_545
Mg3 Mg6 3.241498 1_555
Mg3 Mg7 3.241498 1_555
Mg4 Mg8 2.977557 1_555
Mg4 Mg9 2.977557 1_554
Mg5 Mg9 3.241498 1_555
Mg5 Mg8 3.241498 1_555
Mg10 Mg2 3.051875 1_555
Mg10 Mg4 3.051881 1_545
Mg10 Mg3 3.064567 1_555
Mg10 Mg5 3.064573 1_545
Mg10 Mg8 3.095185 1_655
Mg10 Mg6 3.095186 1_655
Mg10 Mg12 3.112471 1_555
Mg10 Mg12 3.112471 1_545
Mg10 Mg8 3.148679 1_545
Mg10 Mg6 3.148679 1_555
Mg11 Mg2 3.051875 1_556
Mg11 Mg4 3.051881 1_546
Mg11 Mg3 3.064567 1_555
Mg11 Mg5 3.064573 1_545
Mg11 Mg9 3.095185 1_655
Mg11 Mg7 3.095186 1_655
Mg11 Mg13 3.112471 1_555
Mg11 Mg13 3.112471 1_545
Mg11 Mg9 3.148679 1_545
Mg11 Mg7 3.148679 1_555
Mg12 Mg4 2.983337 1_555
Mg12 Mg2 2.983344 1_555
Mg12 Mg5 3.157059 1_555
Mg12 Mg3 3.157065 1_555
Mg13 Mg4 2.983337 1_556
Mg13 Mg2 2.983344 1_556
Mg13 Mg5 3.157059 1_555
Mg13 Mg3 3.157065 1_555
Al0 Mg7 2.932325 1_554
Al0 Mg6 2.932325 1_555
Al0 Mg8 2.932332 1_555
Al0 Mg9 2.932332 1_554
Al0 Mg4 2.995014 1_445
Al0 Mg2 2.995014 1_455
Al0 Mg10 3.034587 1_455
Al0 Mg11 3.034587 1_454
Al0 Co0 3.110109 1_555
Al0 Co0 3.110109 1_545
Al0 Mg4 3.233963 1_555
Al0 Mg2 3.233964 1_555
Co0 Mg9 2.878240 1_554
Co0 Mg8 2.878240 1_555
Co0 Mg7 2.878246 1_564
Co0 Mg6 2.878246 1_565
Co0 Mg13 2.931459 1_454
Co0 Mg12 2.931459 1_455
Co0 Mg2 3.035552 1_455
Co0 Mg4 3.035552 1_455
Co0 Mg2 3.193643 1_565
Co0 Mg4 3.193643 1_555
