# generated using pymatgen
data_K2Mo8O13
_symmetry_space_group_name_H-M   'P 1'
_cell_length_a   10.19388529
_cell_length_b   10.19388529
_cell_length_c   3.29104900
_cell_angle_alpha   90.00000000
_cell_angle_beta   90.00000000
_cell_angle_gamma   90.51893478
_symmetry_Int_Tables_number   1
_chemical_formula_structural   K2Mo8O13
_chemical_formula_sum   'K2 Mo8 O13'
_cell_volume   341.97630809
_cell_formula_units_Z   1
loop_
 _symmetry_equiv_pos_site_id
 _symmetry_equiv_pos_as_xyz
  1  'x, y, z'
loop_
 _atom_site_type_symbol
 _atom_site_label
 _atom_site_symmetry_multiplicity
 _atom_site_fract_x
 _atom_site_fract_y
 _atom_site_fract_z
 _atom_site_occupancy
  K  K0  1  0.00000000  0.50000000  0.50000000  1
  K  K1  1  0.50000000  0.00000000  0.50000000  1
  Mo  Mo0  1  0.34132200  0.65867800  0.50000000  1
  Mo  Mo1  1  0.65867800  0.34132200  0.50000000  1
  Mo  Mo2  1  0.15129800  0.15129800  0.50000000  1
  Mo  Mo3  1  0.84870200  0.84870200  0.50000000  1
  Mo  Mo4  1  0.11456900  0.88543100  0.00000000  1
  Mo  Mo5  1  0.88543100  0.11456900  0.00000000  1
  Mo  Mo6  1  0.38076800  0.38076800  0.00000000  1
  Mo  Mo7  1  0.61923200  0.61923200  0.00000000  1
  O  O0  1  0.19923900  0.80076100  0.50000000  1
  O  O1  1  0.80076100  0.19923900  0.50000000  1
  O  O2  1  0.29481300  0.29481300  0.50000000  1
  O  O3  1  0.70518700  0.70518700  0.50000000  1
  O  O4  1  0.74046800  0.45280000  0.00000000  1
  O  O5  1  0.25953200  0.54720000  0.00000000  1
  O  O6  1  0.75846700  0.95089000  0.00000000  1
  O  O7  1  0.24153300  0.04911000  0.00000000  1
  O  O8  1  0.95089000  0.75846700  0.00000000  1
  O  O9  1  0.04911000  0.24153300  0.00000000  1
  O  O10  1  0.45280000  0.74046800  0.00000000  1
  O  O11  1  0.54720000  0.25953200  0.00000000  1
  O  O12  1  0.50000000  0.50000000  0.50000000  1
loop_
_geom_bond_atom_site_label_1
_geom_bond_atom_site_label_2
_geom_bond_distance
_geom_bond_site_symmetry_2
K0 O4 3.148906 1_455
K0 O4 3.148906 1_456
K0 O5 3.148906 1_555
K0 O5 3.148906 1_556
K0 O8 3.150293 1_456
K0 O8 3.150293 1_455
K0 O9 3.150293 1_556
K0 O9 3.150293 1_555
K1 O10 3.148906 1_546
K1 O11 3.148906 1_555
K1 O11 3.148906 1_556
K1 O10 3.148906 1_545
K1 O6 3.150293 1_545
K1 O7 3.150293 1_556
K1 O6 3.150293 1_546
K1 O7 3.150293 1_555
Mo0 O0 2.057570 1_555
Mo0 O5 2.162668 1_556
Mo0 O10 2.162668 1_556
Mo0 O10 2.162668 1_555
Mo0 O5 2.162668 1_555
Mo0 O12 2.297890 1_555
Mo1 O1 2.057570 1_555
Mo1 O4 2.162668 1_555
Mo1 O4 2.162668 1_556
Mo1 O11 2.162668 1_555
Mo1 O11 2.162668 1_556
Mo1 O12 2.297890 1_555
Mo2 O2 2.059569 1_555
Mo2 O7 2.157857 1_555
Mo2 O7 2.157857 1_556
Mo2 O9 2.157857 1_556
Mo2 O9 2.157857 1_555
Mo3 O3 2.059569 1_555
Mo3 O6 2.157857 1_555
Mo3 O6 2.157857 1_556
Mo3 O8 2.157857 1_555
Mo3 O8 2.157857 1_556
Mo4 O0 2.052117 1_554
Mo4 O0 2.052117 1_555
Mo4 O8 2.102370 1_455
Mo4 O7 2.102370 1_565
Mo5 O1 2.052117 1_555
Mo5 O1 2.052117 1_554
Mo5 O6 2.102370 1_545
Mo5 O9 2.102370 1_655
Mo6 O2 2.056539 1_555
Mo6 O2 2.056539 1_554
Mo6 O5 2.108022 1_555
Mo6 O11 2.108022 1_555
Mo6 O12 2.373935 1_555
Mo6 O12 2.373935 1_554
Mo7 O3 2.056539 1_554
Mo7 O3 2.056539 1_555
Mo7 O10 2.108022 1_555
Mo7 O4 2.108022 1_555
Mo7 O12 2.373935 1_555
Mo7 O12 2.373935 1_554
