# generated using pymatgen
data_Tl2Pd3S2
_symmetry_space_group_name_H-M   'P 1'
_cell_length_a   5.81170529
_cell_length_b   5.81170529
_cell_length_c   5.81170511
_cell_angle_alpha   60.95485062
_cell_angle_beta   60.95485062
_cell_angle_gamma   60.95484591
_symmetry_Int_Tables_number   1
_chemical_formula_structural   Tl2Pd3S2
_chemical_formula_sum   'Tl2 Pd3 S2'
_cell_volume   141.78824869
_cell_formula_units_Z   1
loop_
 _symmetry_equiv_pos_site_id
 _symmetry_equiv_pos_as_xyz
  1  'x, y, z'
loop_
 _atom_site_type_symbol
 _atom_site_label
 _atom_site_symmetry_multiplicity
 _atom_site_fract_x
 _atom_site_fract_y
 _atom_site_fract_z
 _atom_site_occupancy
  Tl  Tl0  1  0.00000000  0.00000000  -0.00000000  1
  Tl  Tl1  1  0.50000000  0.50000000  0.50000000  1
  Pd  Pd0  1  0.00000000  0.00000000  0.50000000  1
  Pd  Pd1  1  0.50000000  0.00000000  -0.00000000  1
  Pd  Pd2  1  0.00000000  0.50000000  -0.00000000  1
  S  S0  1  0.72006539  0.72006539  0.72006539  1
  S  S1  1  0.27993461  0.27993461  0.27993461  1
loop_
_geom_bond_atom_site_label_1
_geom_bond_atom_site_label_2
_geom_bond_distance
_geom_bond_site_symmetry_2
Pd0 S0 2.336361 1_445
Pd0 S1 2.336361 1_555
Pd0 Tl0 2.905853 1_556
Pd0 Tl0 2.905853 1_555
Pd0 Tl1 2.947690 1_455
Pd0 Tl1 2.947690 1_545
Pd1 S0 2.336361 1_544
Pd1 S1 2.336361 1_555
Pd1 Tl0 2.905853 1_655
Pd1 Tl0 2.905853 1_555
Pd1 Tl1 2.947690 1_545
Pd1 Tl1 2.947690 1_554
Pd2 S0 2.336361 1_454
Pd2 S1 2.336361 1_555
Pd2 Tl0 2.905853 1_555
Pd2 Tl0 2.905853 1_565
Pd2 Tl1 2.947690 1_554
Pd2 Tl1 2.947690 1_455
S0 Tl1 3.109990 1_555
S1 Tl1 3.109990 1_555
