# generated using pymatgen
data_LaB2O4F
_symmetry_space_group_name_H-M   'P 1'
_cell_length_a   7.42134800
_cell_length_b   8.30432300
_cell_length_c   12.77009900
_cell_angle_alpha   90.00000000
_cell_angle_beta   90.00000000
_cell_angle_gamma   90.00000000
_symmetry_Int_Tables_number   1
_chemical_formula_structural   LaB2O4F
_chemical_formula_sum   'La8 B16 O32 F8'
_cell_volume   787.01189053
_cell_formula_units_Z   8
loop_
 _symmetry_equiv_pos_site_id
 _symmetry_equiv_pos_as_xyz
  1  'x, y, z'
loop_
 _atom_site_type_symbol
 _atom_site_label
 _atom_site_symmetry_multiplicity
 _atom_site_fract_x
 _atom_site_fract_y
 _atom_site_fract_z
 _atom_site_occupancy
  La  La0  1  0.24768000  0.61363900  0.47563400  1
  La  La1  1  0.75232000  0.11363900  0.02436600  1
  La  La2  1  0.25232000  0.38636100  0.97563400  1
  La  La3  1  0.74768000  0.88636100  0.52436600  1
  La  La4  1  0.75232000  0.38636100  0.52436600  1
  La  La5  1  0.24768000  0.88636100  0.97563400  1
  La  La6  1  0.74768000  0.61363900  0.02436600  1
  La  La7  1  0.25232000  0.11363900  0.47563400  1
  B  B0  1  0.34477900  0.65930900  0.17215500  1
  B  B1  1  0.65522100  0.15930900  0.32784500  1
  B  B2  1  0.15522100  0.34069100  0.67215500  1
  B  B3  1  0.84477900  0.84069100  0.82784500  1
  B  B4  1  0.65522100  0.34069100  0.82784500  1
  B  B5  1  0.34477900  0.84069100  0.67215500  1
  B  B6  1  0.84477900  0.65930900  0.32784500  1
  B  B7  1  0.15522100  0.15930900  0.17215500  1
  B  B8  1  0.26141600  0.90974900  0.27124600  1
  B  B9  1  0.73858400  0.40974900  0.22875400  1
  B  B10  1  0.23858400  0.09025100  0.77124600  1
  B  B11  1  0.76141600  0.59025100  0.72875400  1
  B  B12  1  0.73858400  0.09025100  0.72875400  1
  B  B13  1  0.26141600  0.59025100  0.77124600  1
  B  B14  1  0.76141600  0.90974900  0.22875400  1
  B  B15  1  0.23858400  0.40974900  0.27124600  1
  O  O0  1  0.42606500  0.60265400  0.08583100  1
  O  O1  1  0.57393500  0.10265400  0.41416900  1
  O  O2  1  0.07393500  0.39734600  0.58583100  1
  O  O3  1  0.92606500  0.89734600  0.91416900  1
  O  O4  1  0.57393500  0.39734600  0.91416900  1
  O  O5  1  0.42606500  0.89734600  0.58583100  1
  O  O6  1  0.92606500  0.60265400  0.41416900  1
  O  O7  1  0.07393500  0.10265400  0.08583100  1
  O  O8  1  0.30868000  0.82627000  0.17964500  1
  O  O9  1  0.69132000  0.32627000  0.32035500  1
  O  O10  1  0.19132000  0.17373000  0.67964500  1
  O  O11  1  0.80868000  0.67373000  0.82035500  1
  O  O12  1  0.69132000  0.17373000  0.82035500  1
  O  O13  1  0.30868000  0.67373000  0.67964500  1
  O  O14  1  0.80868000  0.82627000  0.32035500  1
  O  O15  1  0.19132000  0.32627000  0.17964500  1
  O  O16  1  0.29240700  0.56970600  0.25881000  1
  O  O17  1  0.70759300  0.06970600  0.24119000  1
  O  O18  1  0.20759300  0.43029400  0.75881000  1
  O  O19  1  0.79240700  0.93029400  0.74119000  1
  O  O20  1  0.70759300  0.43029400  0.74119000  1
  O  O21  1  0.29240700  0.93029400  0.75881000  1
  O  O22  1  0.79240700  0.56970600  0.24119000  1
  O  O23  1  0.20759300  0.06970600  0.25881000  1
  O  O24  1  0.27282900  0.85717800  0.36972400  1
  O  O25  1  0.72717100  0.35717800  0.13027600  1
  O  O26  1  0.22717100  0.14282200  0.86972400  1
  O  O27  1  0.77282900  0.64282200  0.63027600  1
  O  O28  1  0.72717100  0.14282200  0.63027600  1
  O  O29  1  0.27282900  0.64282200  0.86972400  1
  O  O30  1  0.77282900  0.85717800  0.13027600  1
  O  O31  1  0.22717100  0.35717800  0.36972400  1
  F  F0  1  0.06707700  0.63436400  0.04829100  1
  F  F1  1  0.93292300  0.13436400  0.45170900  1
  F  F2  1  0.43292300  0.36563600  0.54829100  1
  F  F3  1  0.56707700  0.86563600  0.95170900  1
  F  F4  1  0.93292300  0.36563600  0.95170900  1
  F  F5  1  0.06707700  0.86563600  0.54829100  1
  F  F6  1  0.56707700  0.63436400  0.45170900  1
  F  F7  1  0.43292300  0.13436400  0.04829100  1
loop_
_geom_bond_atom_site_label_1
_geom_bond_atom_site_label_2
_geom_bond_distance
_geom_bond_site_symmetry_2
La0 O24 2.440133 1_555
La0 O6 2.514221 1_455
La0 O31 2.527478 1_555
La0 O2 2.620899 1_555
La0 O13 2.690954 1_555
La0 O16 2.812453 1_555
La0 O5 3.046899 1_555
La1 O25 2.440133 1_555
La1 O7 2.514221 1_655
La1 O30 2.527478 1_545
La1 O3 2.620899 1_544
La1 O12 2.690954 1_554
La1 O17 2.812453 1_555
La1 O4 3.046899 1_554
La2 O26 2.440133 1_555
La2 O4 2.514221 1_555
La2 O29 2.527478 1_555
La2 O0 2.620899 1_556
La2 O15 2.690954 1_556
La2 O18 2.812453 1_555
La2 O7 3.046899 1_556
La3 O27 2.440133 1_555
La3 O5 2.514221 1_555
La3 O28 2.527478 1_565
La3 O1 2.620899 1_565
La3 O14 2.690954 1_555
La3 O19 2.812453 1_555
La3 O6 3.046899 1_555
La4 O28 2.440133 1_555
La4 O2 2.514221 1_655
La4 O27 2.527478 1_555
La4 O6 2.620899 1_555
La4 O9 2.690954 1_555
La4 O20 2.812453 1_555
La4 O1 3.046899 1_555
La5 O29 2.440133 1_555
La5 O3 2.514221 1_455
La5 O26 2.527478 1_565
La5 O7 2.620899 1_566
La5 O8 2.690954 1_556
La5 O21 2.812453 1_555
La5 O0 3.046899 1_556
La6 O30 2.440133 1_555
La6 O0 2.514221 1_555
La6 O25 2.527478 1_555
La6 O4 2.620899 1_554
La6 O11 2.690954 1_554
La6 O22 2.812453 1_555
La6 O3 3.046899 1_554
La7 O31 2.440133 1_555
La7 O1 2.514221 1_555
La7 O24 2.527478 1_545
La7 O5 2.620899 1_545
La7 O10 2.690954 1_555
La7 O23 2.812453 1_555
La7 O2 3.046899 1_555
B0 O0 1.341818 1_555
B0 O16 1.388987 1_555
B0 O8 1.415379 1_555
B1 O1 1.341818 1_555
B1 O17 1.388987 1_555
B1 O9 1.415379 1_555
B2 O2 1.341818 1_555
B2 O18 1.388987 1_555
B2 O10 1.415379 1_555
B3 O3 1.341818 1_555
B3 O19 1.388987 1_555
B3 O11 1.415379 1_555
B4 O4 1.341818 1_555
B4 O20 1.388987 1_555
B4 O12 1.415379 1_555
B5 O5 1.341818 1_555
B5 O21 1.388987 1_555
B5 O13 1.415379 1_555
B6 O6 1.341818 1_555
B6 O22 1.388987 1_555
B6 O14 1.415379 1_555
B7 O7 1.341818 1_555
B7 O23 1.388987 1_555
B7 O15 1.415379 1_555
B8 O24 1.333888 1_555
B8 O23 1.396154 1_565
B8 O8 1.404256 1_555
B9 O25 1.333888 1_555
B9 O22 1.396154 1_555
B9 O9 1.404256 1_555
B10 O26 1.333888 1_555
B10 O21 1.396154 1_545
B10 O10 1.404256 1_555
B11 O27 1.333888 1_555
B11 O20 1.396154 1_555
B11 O11 1.404256 1_555
B12 O28 1.333888 1_555
B12 O19 1.396154 1_545
B12 O12 1.404256 1_555
B13 O29 1.333888 1_555
B13 O18 1.396154 1_555
B13 O13 1.404256 1_555
B14 O30 1.333888 1_555
B14 O17 1.396154 1_565
B14 O14 1.404256 1_555
B15 O31 1.333888 1_555
B15 O16 1.396154 1_555
B15 O15 1.404256 1_555
F0 La6 2.396154 1_455
F0 La2 2.644306 1_554
F0 La5 2.652655 1_554
F1 La7 2.396154 1_655
F1 La3 2.644306 1_545
F1 La4 2.652655 1_555
F2 La4 2.396154 1_555
F2 La0 2.644306 1_555
F2 La7 2.652655 1_555
F3 La5 2.396154 1_555
F3 La1 2.644306 1_566
F3 La6 2.652655 1_556
F4 La2 2.396154 1_655
F4 La6 2.644306 1_556
F4 La1 2.652655 1_556
F5 La3 2.396154 1_455
F5 La7 2.644306 1_565
F5 La0 2.652655 1_555
F6 La0 2.396154 1_555
F6 La4 2.644306 1_555
F6 La3 2.652655 1_555
F7 La1 2.396154 1_555
F7 La5 2.644306 1_544
F7 La2 2.652655 1_554
