# generated using pymatgen
data_MgFe6Sb10(IO3)6
_symmetry_space_group_name_H-M   'P 1'
_cell_length_a   8.07762195
_cell_length_b   9.69662205
_cell_length_c   12.62551898
_cell_angle_alpha   78.77117278
_cell_angle_beta   86.62398538
_cell_angle_gamma   72.22833870
_symmetry_Int_Tables_number   1
_chemical_formula_structural   MgFe6Sb10(IO3)6
_chemical_formula_sum   'Mg1 Fe6 Sb10 I6 O18'
_cell_volume   923.68494920
_cell_formula_units_Z   1
loop_
 _symmetry_equiv_pos_site_id
 _symmetry_equiv_pos_as_xyz
  1  'x, y, z'
loop_
 _atom_site_type_symbol
 _atom_site_label
 _atom_site_symmetry_multiplicity
 _atom_site_fract_x
 _atom_site_fract_y
 _atom_site_fract_z
 _atom_site_occupancy
  Mg  Mg0  1  0.89575010  0.58774914  0.55299399  1
  Fe  Fe0  1  0.71612080  0.99079161  0.34817370  1
  Fe  Fe1  1  0.25864840  0.00104797  0.65585291  1
  Fe  Fe2  1  0.01917211  0.97556323  0.12293962  1
  Fe  Fe3  1  0.96502053  0.04837267  0.87549441  1
  Fe  Fe4  1  0.61213178  0.08886472  0.05877567  1
  Fe  Fe5  1  0.37803118  0.92427326  0.94548267  1
  Sb  Sb0  1  0.91485214  0.15703204  0.49489127  1
  Sb  Sb1  1  0.10766502  0.77784311  0.50661564  1
  Sb  Sb2  1  0.25554131  0.14188948  0.26219177  1
  Sb  Sb3  1  0.73055708  0.86822842  0.74160041  1
  Sb  Sb4  1  0.51661126  0.20470681  0.76037891  1
  Sb  Sb5  1  0.46156234  0.79834953  0.23860600  1
  Sb  Sb6  1  0.18696810  0.26125690  0.99197371  1
  Sb  Sb7  1  0.80164212  0.75161238  0.01182136  1
  Sb  Sb8  1  0.79541839  0.29704167  0.20218531  1
  Sb  Sb9  1  0.19965371  0.71409989  0.80675615  1
  I  I0  1  0.71203051  0.34242477  0.93005534  1
  I  I1  1  0.26868183  0.65919185  0.07203392  1
  I  I2  1  0.89594703  0.66475166  0.31567407  1
  I  I3  1  0.08264582  0.32908064  0.69490763  1
  I  I4  1  0.50155513  0.28202263  0.39687318  1
  I  I5  1  0.55655484  0.62400266  0.60524748  1
  O  O0  1  0.13633100  0.07100844  0.98376190  1
  O  O1  1  0.84742068  0.94456015  0.01597493  1
  O  O2  1  0.87965384  0.96008565  0.47261398  1
  O  O3  1  0.16586387  0.07404694  0.50923285  1
  O  O4  1  0.78711773  0.09298373  0.19338176  1
  O  O5  1  0.21575454  0.91255256  0.82146161  1
  O  O6  1  0.43512582  0.13417786  0.90916189  1
  O  O7  1  0.55518224  0.86749394  0.08885859  1
  O  O8  1  0.76781567  0.05776822  0.77578566  1
  O  O9  1  0.22050218  0.95227478  0.21978187  1
  O  O10  1  0.48412994  0.03254970  0.70248768  1
  O  O11  1  0.50462221  0.96128624  0.29843202  1
  O  O12  1  0.04092775  0.25204975  0.13756109  1
  O  O13  1  0.95130512  0.76116212  0.85659033  1
  O  O14  1  0.12881041  0.83203634  0.65569520  1
  O  O15  1  0.94217716  0.22054421  0.33642565  1
  O  O16  1  0.62465671  0.81578821  0.88901520  1
  O  O17  1  0.37046660  0.18886214  0.10996066  1
loop_
_geom_bond_atom_site_label_1
_geom_bond_atom_site_label_2
_geom_bond_distance
_geom_bond_site_symmetry_2
Mg0 Sb1 2.838729 1_655
Fe0 O11 1.972212 1_555
Fe0 O2 2.030804 1_555
Fe0 O4 2.142638 1_565
Fe0 I4 2.986572 1_565
Fe0 I2 3.147219 1_555
Fe1 O3 1.954167 1_555
Fe1 O10 2.072024 1_555
Fe1 O5 2.150732 1_545
Fe1 O14 2.199204 1_545
Fe2 O9 2.023159 1_555
Fe2 O1 2.114778 1_455
Fe2 O4 2.120401 1_465
Fe2 O0 2.131975 1_564
Fe2 I1 3.275223 1_555
Fe3 O8 2.057539 1_555
Fe3 O0 2.087240 1_655
Fe3 O1 2.179776 1_546
Fe3 O5 2.204708 1_645
Fe3 I0 3.134137 1_555
Fe4 O17 2.026927 1_555
Fe4 O1 2.100531 1_545
Fe4 O7 2.286534 1_545
Fe4 O4 2.287250 1_555
Fe4 O6 2.327411 1_554
Fe4 I0 2.972863 1_554
Fe5 O16 2.104527 1_555
Fe5 O0 2.128538 1_565
Fe5 O5 2.141249 1_555
Fe5 O6 2.179520 1_565
Fe5 O7 2.250239 1_556
Fe5 I1 3.091970 1_556
I0 Sb4 3.415185 1_555
I0 Sb8 3.457562 1_556
I1 Sb9 3.340092 1_554
I1 Sb5 3.383120 1_555
I2 Mg0 2.943486 1_555
I3 Mg0 2.835027 1_455
I4 Sb8 3.328979 1_555
I4 Sb0 3.402670 1_555
I4 Sb2 3.410722 1_555
I5 Mg0 2.712063 1_555
O0 Sb6 2.030104 1_555
O1 Sb7 2.025522 1_555
O2 Sb0 2.087347 1_565
O2 Sb1 2.123699 1_655
O3 Sb0 1.944706 1_455
O4 Sb8 2.024726 1_555
O5 Sb9 2.012252 1_555
O6 Sb4 2.014551 1_555
O6 Sb6 2.318785 1_555
O7 Sb5 2.059942 1_555
O7 Sb7 2.236955 1_555
O8 Sb3 2.077647 1_545
O8 Sb4 2.087814 1_555
O9 Sb5 2.053771 1_555
O9 Sb2 2.113357 1_565
O10 Sb4 2.038360 1_555
O10 Sb3 2.148983 1_545
O11 Sb5 2.004715 1_555
O11 Sb2 2.229290 1_565
O12 Sb8 2.051529 1_455
O12 Sb6 2.126790 1_554
O12 Sb2 2.271237 1_555
O13 Sb9 2.008170 1_655
O13 Sb3 2.225513 1_555
O13 Sb7 2.242715 1_556
O14 Sb9 2.037738 1_555
O14 Sb1 2.079874 1_555
O15 Sb0 1.995480 1_555
O15 Sb8 2.009551 1_555
O15 Sb2 2.586070 1_655
O16 Sb3 2.040532 1_555
O16 Sb7 2.043846 1_556
O17 Sb6 2.031369 1_554
O17 Sb2 2.114320 1_555
