# generated using pymatgen
data_K3In(IO3)6
_symmetry_space_group_name_H-M   'P 1'
_cell_length_a   6.89855512
_cell_length_b   7.03442304
_cell_length_c   10.60738314
_cell_angle_alpha   98.13765143
_cell_angle_beta   108.64698220
_cell_angle_gamma   102.58233535
_symmetry_Int_Tables_number   1
_chemical_formula_structural   K3In(IO3)6
_chemical_formula_sum   'K3 In1 I6 O18'
_cell_volume   463.43288061
_cell_formula_units_Z   1
loop_
 _symmetry_equiv_pos_site_id
 _symmetry_equiv_pos_as_xyz
  1  'x, y, z'
loop_
 _atom_site_type_symbol
 _atom_site_label
 _atom_site_symmetry_multiplicity
 _atom_site_fract_x
 _atom_site_fract_y
 _atom_site_fract_z
 _atom_site_occupancy
  K  K0  1  0.37150418  0.53638298  0.29308838  1
  K  K1  1  0.62849582  0.46361702  0.70691162  1
  K  K2  1  0.00000000  0.50000000  0.50000000  1
  In  In0  1  0.00000000  -0.00000000  -0.00000000  1
  I  I0  1  0.56343589  0.03363074  0.19437425  1
  I  I1  1  0.43656411  0.96636926  0.80562575  1
  I  I2  1  0.78176488  0.52991145  0.10095652  1
  I  I3  1  0.21823512  0.47008855  0.89904348  1
  I  I4  1  0.13795710  0.05600360  0.38007863  1
  I  I5  1  0.86204290  0.94399640  0.61992137  1
  O  O0  1  0.58466119  0.65112626  0.12268147  1
  O  O1  1  0.41533881  0.34887374  0.87731853  1
  O  O2  1  0.00595226  0.35597625  0.73603159  1
  O  O3  1  0.99404774  0.64402375  0.26396841  1
  O  O4  1  0.61293396  0.30320017  0.23560620  1
  O  O5  1  0.38706604  0.69679983  0.76439380  1
  O  O6  1  0.05308867  0.11447267  0.21035743  1
  O  O7  1  0.94691133  0.88552733  0.78964257  1
  O  O8  1  0.31371828  0.96329923  0.04096330  1
  O  O9  1  0.68628172  0.03670077  0.95903670  1
  O  O10  1  0.29655517  0.30493080  0.47135963  1
  O  O11  1  0.70344483  0.69506920  0.52864037  1
  O  O12  1  0.88673698  0.07605184  0.40051545  1
  O  O13  1  0.11326302  0.92394816  0.59948455  1
  O  O14  1  0.55949019  0.03615932  0.68581092  1
  O  O15  1  0.44050981  0.96384068  0.31418908  1
  O  O16  1  0.11672773  0.32073237  0.00590964  1
  O  O17  1  0.88327227  0.67926763  0.99409036  1
loop_
_geom_bond_atom_site_label_1
_geom_bond_atom_site_label_2
_geom_bond_distance
_geom_bond_site_symmetry_2
K0 O11 2.677806 1_555
K0 O4 2.718980 1_555
K0 O10 2.761172 1_555
K0 O0 2.770695 1_555
K0 O3 2.803562 1_455
K0 O15 2.904472 1_555
K0 O16 2.962460 1_555
K0 O6 3.097291 1_555
K1 O10 2.677806 1_555
K1 O5 2.718980 1_555
K1 O11 2.761172 1_555
K1 O1 2.770695 1_555
K1 O2 2.803562 1_655
K1 O14 2.904472 1_555
K1 O17 2.962460 1_555
K1 O7 3.097291 1_555
K2 O11 2.768218 1_455
K2 O10 2.768218 1_555
K2 O3 2.822586 1_455
K2 O2 2.822586 1_555
K2 O12 2.860834 1_455
K2 O13 2.860834 1_555
K2 O4 3.068118 1_455
K2 O5 3.068118 1_555
In0 O7 2.145158 1_444
In0 O6 2.145158 1_555
In0 O8 2.147806 1_545
In0 O9 2.147806 1_454
In0 O17 2.208798 1_444
In0 O16 2.208798 1_555
I0 O15 1.805501 1_545
I0 O4 1.814195 1_555
I0 O8 1.862419 1_545
I0 O12 2.500267 1_555
I1 O14 1.805501 1_565
I1 O5 1.814195 1_555
I1 O9 1.862419 1_565
I1 O13 2.500267 1_555
I2 O3 1.804009 1_555
I2 O0 1.810777 1_555
I2 O17 1.844832 1_554
I2 O4 2.615184 1_555
I3 O2 1.804009 1_555
I3 O1 1.810777 1_555
I3 O16 1.844832 1_556
I3 O5 2.615184 1_555
I4 O10 1.791270 1_555
I4 O6 1.842155 1_555
I4 O12 1.846197 1_455
I4 O15 2.580543 1_545
I4 O13 2.665521 1_545
I5 O11 1.791270 1_555
I5 O7 1.842155 1_555
I5 O13 1.846197 1_655
I5 O14 2.580543 1_565
I5 O12 2.665521 1_565
