# generated using pymatgen
data_UNi3P2
_symmetry_space_group_name_H-M   'P 1'
_cell_length_a   3.76117800
_cell_length_b   10.46617800
_cell_length_c   12.37769800
_cell_angle_alpha   90.00000000
_cell_angle_beta   90.00000000
_cell_angle_gamma   90.00000000
_symmetry_Int_Tables_number   1
_chemical_formula_structural   UNi3P2
_chemical_formula_sum   'U6 Ni18 P12'
_cell_volume   487.25004286
_cell_formula_units_Z   6
loop_
 _symmetry_equiv_pos_site_id
 _symmetry_equiv_pos_as_xyz
  1  'x, y, z'
loop_
 _atom_site_type_symbol
 _atom_site_label
 _atom_site_symmetry_multiplicity
 _atom_site_fract_x
 _atom_site_fract_y
 _atom_site_fract_z
 _atom_site_occupancy
  U  U0  1  0.75215200  0.00000000  0.47738700  1
  U  U1  1  0.25215200  0.50000000  0.52261300  1
  U  U2  1  0.25212200  0.68525000  0.79526500  1
  U  U3  1  0.25212200  0.31475000  0.79526500  1
  U  U4  1  0.75212200  0.81475000  0.20473500  1
  U  U5  1  0.75212200  0.18525000  0.20473500  1
  Ni  Ni0  1  0.74952700  0.00000000  0.01600200  1
  Ni  Ni1  1  0.24952700  0.50000000  0.98399800  1
  Ni  Ni2  1  0.24956300  0.20255000  0.56786700  1
  Ni  Ni3  1  0.24956300  0.79745000  0.56786700  1
  Ni  Ni4  1  0.74956300  0.29745000  0.43213300  1
  Ni  Ni5  1  0.74956300  0.70255000  0.43213300  1
  Ni  Ni6  1  0.25019100  0.62015600  0.29290400  1
  Ni  Ni7  1  0.25019100  0.37984400  0.29290400  1
  Ni  Ni8  1  0.75019100  0.87984400  0.70709600  1
  Ni  Ni9  1  0.75019100  0.12015600  0.70709600  1
  Ni  Ni10  1  0.25023300  0.16877700  0.00462200  1
  Ni  Ni11  1  0.25023300  0.83122300  0.00462200  1
  Ni  Ni12  1  0.75023300  0.33122300  0.99537800  1
  Ni  Ni13  1  0.75023300  0.66877700  0.99537800  1
  Ni  Ni14  1  0.25013500  0.00000000  0.84189500  1
  Ni  Ni15  1  0.75013500  0.50000000  0.15810500  1
  Ni  Ni16  1  0.27930800  0.00000000  0.29855300  1
  Ni  Ni17  1  0.77930800  0.50000000  0.70144700  1
  P  P0  1  0.24939000  0.18799100  0.38441100  1
  P  P1  1  0.24939000  0.81200900  0.38441100  1
  P  P2  1  0.74939000  0.31200900  0.61558900  1
  P  P3  1  0.74939000  0.68799100  0.61558900  1
  P  P4  1  0.24905700  0.00000000  0.12081100  1
  P  P5  1  0.74905700  0.50000000  0.87918900  1
  P  P6  1  0.24979500  0.65207100  0.10869200  1
  P  P7  1  0.24979500  0.34792900  0.10869200  1
  P  P8  1  0.74979500  0.84792900  0.89130800  1
  P  P9  1  0.74979500  0.15207100  0.89130800  1
  P  P10  1  0.25003600  0.00000000  0.65402800  1
  P  P11  1  0.75003600  0.50000000  0.34597200  1
loop_
_geom_bond_atom_site_label_1
_geom_bond_atom_site_label_2
_geom_bond_distance
_geom_bond_site_symmetry_2
Ni0 P9 2.217061 1_554
Ni0 P8 2.217061 1_544
Ni0 P4 2.283187 1_655
Ni0 P4 2.286097 1_555
Ni0 U4 3.035876 1_545
Ni0 U5 3.035876 1_555
Ni1 P6 2.217061 1_556
Ni1 P7 2.217061 1_556
Ni1 P5 2.283187 1_555
Ni1 P5 2.286097 1_455
Ni1 U3 3.035876 1_555
Ni1 U2 3.035876 1_555
Ni2 P0 2.275870 1_555
Ni2 P2 2.279368 1_555
Ni2 P2 2.280442 1_455
Ni2 P10 2.373068 1_555
Ni2 U0 3.041121 1_455
Ni2 U3 3.049823 1_555
Ni2 U0 3.053140 1_555
Ni2 U1 3.163170 1_555
Ni3 P1 2.275870 1_555
Ni3 P3 2.279368 1_555
Ni3 P3 2.280442 1_455
Ni3 P10 2.373068 1_565
Ni3 U0 3.041121 1_465
Ni3 U2 3.049823 1_555
Ni3 U0 3.053140 1_565
Ni3 U1 3.163170 1_555
Ni4 P2 2.275870 1_555
Ni4 P0 2.279368 1_655
Ni4 P0 2.280442 1_555
Ni4 P11 2.373068 1_555
Ni4 U1 3.041121 1_555
Ni4 U5 3.049823 1_555
Ni4 U1 3.053140 1_655
Ni4 U0 3.163170 1_555
Ni5 P3 2.275870 1_555
Ni5 P1 2.279368 1_655
Ni5 P1 2.280442 1_555
Ni5 P11 2.373068 1_555
Ni5 U1 3.041121 1_555
Ni5 U4 3.049823 1_555
Ni5 U1 3.053140 1_655
Ni5 U0 3.163170 1_565
Ni6 P6 2.304458 1_555
Ni6 P1 2.305392 1_555
Ni6 P11 2.355288 1_555
Ni6 P11 2.356218 1_455
Ni6 U4 2.974612 1_455
Ni6 U4 2.983781 1_555
Ni6 U1 3.108975 1_555
Ni7 P7 2.304458 1_555
Ni7 P0 2.305392 1_555
Ni7 P11 2.355288 1_555
Ni7 P11 2.356218 1_455
Ni7 U5 2.974612 1_455
Ni7 U5 2.983781 1_555
Ni7 U1 3.108975 1_555
Ni8 P8 2.304458 1_555
Ni8 P3 2.305392 1_555
Ni8 P10 2.355288 1_665
Ni8 P10 2.356218 1_565
Ni8 U2 2.974612 1_555
Ni8 U2 2.983781 1_655
Ni8 U0 3.108975 1_565
Ni9 P9 2.304458 1_555
Ni9 P2 2.305392 1_555
Ni9 P10 2.355288 1_655
Ni9 P10 2.356218 1_555
Ni9 U3 2.974612 1_555
Ni9 U3 2.983781 1_655
Ni9 U0 3.108975 1_555
Ni10 P7 2.274882 1_555
Ni10 P4 2.277860 1_555
Ni10 P9 2.351209 1_554
Ni10 P9 2.353843 1_454
Ni10 U3 3.008205 1_554
Ni10 U5 3.110449 1_455
Ni10 U5 3.119028 1_555
Ni11 P6 2.274882 1_555
Ni11 P4 2.277860 1_565
Ni11 P8 2.351209 1_554
Ni11 P8 2.353843 1_454
Ni11 U2 3.008205 1_554
Ni11 U4 3.110449 1_455
Ni11 U4 3.119028 1_555
Ni12 P9 2.274882 1_555
Ni12 P5 2.277860 1_555
Ni12 P7 2.351209 1_656
Ni12 P7 2.353843 1_556
Ni12 U5 3.008205 1_556
Ni12 U3 3.110449 1_555
Ni12 U3 3.119028 1_655
Ni13 P8 2.274882 1_555
Ni13 P5 2.277860 1_555
Ni13 P6 2.351209 1_656
Ni13 P6 2.353843 1_556
Ni13 U4 3.008205 1_556
Ni13 U2 3.110449 1_555
Ni13 U2 3.119028 1_655
Ni14 P10 2.325361 1_555
Ni14 P9 2.537535 1_555
Ni14 P8 2.537535 1_545
Ni14 P9 2.539429 1_455
Ni14 P8 2.539429 1_445
Ni14 U2 3.344418 1_545
Ni14 U3 3.344418 1_555
Ni15 P11 2.325361 1_555
Ni15 P6 2.537535 1_655
Ni15 P7 2.537535 1_655
Ni15 P7 2.539429 1_555
Ni15 P6 2.539429 1_555
Ni15 U5 3.344418 1_555
Ni15 U4 3.344418 1_555
Ni16 P4 2.202977 1_555
Ni16 P1 2.239037 1_545
Ni16 P0 2.239037 1_555
Ni16 U0 2.839490 1_555
Ni16 U4 2.875789 1_545
Ni16 U5 2.875789 1_555
Ni16 U0 2.971704 1_455
Ni16 U4 3.006549 1_445
Ni16 U5 3.006549 1_455
Ni17 P5 2.202977 1_555
Ni17 P2 2.239037 1_555
Ni17 P3 2.239037 1_555
Ni17 U1 2.839490 1_655
Ni17 U2 2.875789 1_655
Ni17 U3 2.875789 1_655
Ni17 U1 2.971704 1_555
Ni17 U3 3.006549 1_555
Ni17 U2 3.006549 1_555
P0 U5 2.906022 1_455
P0 U5 2.919291 1_555
P0 U0 2.948440 1_455
P0 U0 2.961662 1_555
P1 U4 2.906022 1_455
P1 U4 2.919291 1_555
P1 U0 2.948440 1_465
P1 U0 2.961662 1_565
P2 U3 2.906022 1_555
P2 U3 2.919291 1_655
P2 U1 2.948440 1_555
P2 U1 2.961662 1_655
P3 U2 2.906022 1_555
P3 U2 2.919291 1_655
P3 U1 2.948440 1_555
P3 U1 2.961662 1_655
P4 U4 2.886458 1_445
P4 U5 2.886458 1_455
P4 U4 2.901441 1_545
P4 U5 2.901441 1_555
P5 U3 2.886458 1_555
P5 U2 2.886458 1_555
P5 U3 2.901441 1_655
P5 U2 2.901441 1_655
P6 U4 2.795700 1_455
P6 U4 2.807450 1_555
P7 U5 2.795700 1_455
P7 U5 2.807450 1_555
P8 U2 2.795700 1_555
P8 U2 2.807450 1_655
P9 U3 2.795700 1_555
P9 U3 2.807450 1_655
P10 U0 2.878737 1_455
P10 U0 2.889117 1_555
P11 U1 2.878737 1_555
P11 U1 2.889117 1_655
