# generated using pymatgen
data_AlCuO3
_symmetry_space_group_name_H-M   'P 1'
_cell_length_a   5.64861604
_cell_length_b   5.64861604
_cell_length_c   10.48877300
_cell_angle_alpha   90.00000000
_cell_angle_beta   90.00000000
_cell_angle_gamma   120.00000048
_symmetry_Int_Tables_number   1
_chemical_formula_structural   AlCuO3
_chemical_formula_sum   'Al6 Cu6 O18'
_cell_volume   289.82739014
_cell_formula_units_Z   6
loop_
 _symmetry_equiv_pos_site_id
 _symmetry_equiv_pos_as_xyz
  1  'x, y, z'
loop_
 _atom_site_type_symbol
 _atom_site_label
 _atom_site_symmetry_multiplicity
 _atom_site_fract_x
 _atom_site_fract_y
 _atom_site_fract_z
 _atom_site_occupancy
  Al  Al0  1  0.66666700  0.33333300  0.23741200  1
  Al  Al1  1  0.33333300  0.66666700  0.73741200  1
  Al  Al2  1  0.66666700  0.33333300  0.73741200  1
  Al  Al3  1  0.33333300  0.66666700  0.23741200  1
  Al  Al4  1  0.00000000  0.00000000  0.76112600  1
  Al  Al5  1  0.00000000  0.00000000  0.26112600  1
  Cu  Cu0  1  0.66968000  0.00000000  0.50035400  1
  Cu  Cu1  1  0.66968000  0.66968000  0.00035400  1
  Cu  Cu2  1  0.00000000  0.33032000  0.00035400  1
  Cu  Cu3  1  0.00000000  0.66968000  0.50035400  1
  Cu  Cu4  1  0.33032000  0.33032000  0.50035400  1
  Cu  Cu5  1  0.33032000  0.00000000  0.00035400  1
  O  O0  1  0.66666700  0.33333300  0.04296100  1
  O  O1  1  0.33333300  0.66666700  0.54296100  1
  O  O2  1  0.66666700  0.33333300  0.54296100  1
  O  O3  1  0.33333300  0.66666700  0.04296100  1
  O  O4  1  0.00000000  0.00000000  0.94174000  1
  O  O5  1  0.00000000  0.00000000  0.44174000  1
  O  O6  1  0.40082500  0.00000000  0.82729500  1
  O  O7  1  0.40082500  0.40082500  0.32729500  1
  O  O8  1  0.00000000  0.59917500  0.32729500  1
  O  O9  1  0.00000000  0.40082500  0.82729500  1
  O  O10  1  0.59917500  0.59917500  0.82729500  1
  O  O11  1  0.59917500  0.00000000  0.32729500  1
  O  O12  1  0.28854800  0.00000000  0.17614800  1
  O  O13  1  0.28854800  0.28854800  0.67614800  1
  O  O14  1  0.00000000  0.71145200  0.67614800  1
  O  O15  1  0.00000000  0.28854800  0.17614800  1
  O  O16  1  0.71145200  0.71145200  0.17614800  1
  O  O17  1  0.71145200  0.00000000  0.67614800  1
loop_
_geom_bond_atom_site_label_1
_geom_bond_atom_site_label_2
_geom_bond_distance
_geom_bond_site_symmetry_2
Al0 O11 1.965076 1_555
Al0 O8 1.965078 1_655
Al0 O7 1.965081 1_555
Al0 O0 2.039552 1_555
Al0 O15 2.120949 1_655
Al0 O12 2.120952 1_555
Al0 O16 2.120955 1_555
Al1 O6 1.965076 1_565
Al1 O9 1.965078 1_555
Al1 O10 1.965081 1_555
Al1 O1 2.039552 1_555
Al1 O14 2.120949 1_555
Al1 O17 2.120952 1_565
Al1 O13 2.120955 1_555
Al2 O9 1.965076 1_655
Al2 O6 1.965078 1_555
Al2 O10 1.965081 1_555
Al2 O2 2.039552 1_555
Al2 O17 2.120949 1_555
Al2 O14 2.120952 1_655
Al2 O13 2.120955 1_555
Al3 O8 1.965076 1_555
Al3 O11 1.965078 1_565
Al3 O7 1.965081 1_555
Al3 O3 2.039552 1_555
Al3 O12 2.120949 1_565
Al3 O15 2.120952 1_555
Al3 O16 2.120955 1_555
Al4 O13 1.857688 1_555
Al4 O17 1.857688 1_455
Al4 O14 1.857688 1_545
Al4 O4 1.894419 1_555
Al4 O10 2.368092 1_445
Al4 O9 2.368092 1_555
Al4 O6 2.368092 1_555
Al5 O16 1.857688 1_445
Al5 O15 1.857688 1_555
Al5 O12 1.857688 1_555
Al5 O5 1.894419 1_555
Al5 O7 2.368092 1_555
Al5 O11 2.368092 1_455
Al5 O8 2.368092 1_545
Cu0 O11 1.858352 1_555
Cu0 O17 1.858899 1_555
Cu0 O2 1.943515 1_555
Cu0 O1 1.943518 1_545
Cu0 O5 1.964527 1_655
Cu1 O10 1.858352 1_554
Cu1 O16 1.858899 1_555
Cu1 O3 1.943520 1_555
Cu1 O0 1.943520 1_555
Cu1 O4 1.964527 1_664
Cu2 O9 1.858352 1_554
Cu2 O15 1.858899 1_555
Cu2 O0 1.943515 1_455
Cu2 O3 1.943518 1_555
Cu2 O4 1.964527 1_554
Cu3 O8 1.858352 1_555
Cu3 O14 1.858899 1_555
Cu3 O1 1.943515 1_555
Cu3 O2 1.943518 1_455
Cu3 O5 1.964527 1_565
Cu4 O7 1.858352 1_555
Cu4 O13 1.858899 1_555
Cu4 O1 1.943520 1_555
Cu4 O2 1.943520 1_555
Cu4 O5 1.964527 1_555
Cu5 O6 1.858352 1_554
Cu5 O12 1.858899 1_555
Cu5 O3 1.943515 1_545
Cu5 O0 1.943518 1_555
Cu5 O4 1.964527 1_554
