# generated using pymatgen
data_Rb3ErV2O8
_symmetry_space_group_name_H-M   'P 1'
_cell_length_a   6.06881169
_cell_length_b   6.06881169
_cell_length_c   7.92986600
_cell_angle_alpha   90.00000000
_cell_angle_beta   90.00000000
_cell_angle_gamma   119.99999657
_symmetry_Int_Tables_number   1
_chemical_formula_structural   Rb3ErV2O8
_chemical_formula_sum   'Rb3 Er1 V2 O8'
_cell_volume   252.93202354
_cell_formula_units_Z   1
loop_
 _symmetry_equiv_pos_site_id
 _symmetry_equiv_pos_as_xyz
  1  'x, y, z'
loop_
 _atom_site_type_symbol
 _atom_site_label
 _atom_site_symmetry_multiplicity
 _atom_site_fract_x
 _atom_site_fract_y
 _atom_site_fract_z
 _atom_site_occupancy
  Rb  Rb0  1  0.66666700  0.33333300  0.30418100  1
  Rb  Rb1  1  0.33333300  0.66666700  0.69581900  1
  Rb  Rb2  1  0.00000000  0.00000000  0.00000000  1
  Er  Er0  1  0.00000000  0.00000000  0.50000000  1
  V  V0  1  0.66666700  0.33333300  0.74157800  1
  V  V1  1  0.33333300  0.66666700  0.25842200  1
  O  O0  1  0.66666700  0.33333300  0.95387800  1
  O  O1  1  0.33333300  0.66666700  0.04612200  1
  O  O2  1  0.82536400  0.65072900  0.66621800  1
  O  O3  1  0.17463600  0.34927100  0.33378200  1
  O  O4  1  0.82536400  0.17463600  0.66621800  1
  O  O5  1  0.17463600  0.82536400  0.33378200  1
  O  O6  1  0.34927100  0.17463600  0.66621800  1
  O  O7  1  0.65072900  0.82536400  0.33378200  1
loop_
_geom_bond_atom_site_label_1
_geom_bond_atom_site_label_2
_geom_bond_distance
_geom_bond_site_symmetry_2
Er0 O2 2.259883 1_445
Er0 O3 2.259883 1_555
Er0 O6 2.259883 1_555
Er0 O7 2.259883 1_445
Er0 O5 2.259887 1_545
Er0 O4 2.259887 1_455
O0 V0 1.683511 1_555
O0 Rb0 2.777856 1_556
O0 Rb2 3.522863 1_656
O0 Rb2 3.522869 1_556
O0 Rb2 3.522869 1_666
O1 V1 1.683511 1_555
O1 Rb1 2.777856 1_554
O1 Rb2 3.522863 1_565
O1 Rb2 3.522869 1_665
O1 Rb2 3.522869 1_555
O2 V0 1.771963 1_555
O2 Rb1 3.044624 1_555
O2 Rb1 3.044624 1_655
O2 Rb2 3.221105 1_666
O2 Rb0 3.320366 1_555
O3 V1 1.771963 1_555
O3 Rb0 3.044624 1_555
O3 Rb0 3.044624 1_455
O3 Rb2 3.221105 1_555
O3 Rb1 3.320366 1_555
O4 V0 1.771953 1_555
O4 Rb1 3.044624 1_545
O4 Rb1 3.044624 1_655
O4 Rb2 3.221108 1_656
O4 Rb0 3.320360 1_555
O5 V1 1.771953 1_555
O5 Rb0 3.044624 1_455
O5 Rb0 3.044624 1_565
O5 Rb2 3.221108 1_565
O5 Rb1 3.320360 1_555
O6 V0 1.771963 1_555
O6 Rb1 3.044624 1_555
O6 Rb1 3.044624 1_545
O6 Rb2 3.221105 1_556
O6 Rb0 3.320366 1_555
O7 V1 1.771963 1_555
O7 Rb0 3.044624 1_555
O7 Rb0 3.044624 1_565
O7 Rb2 3.221105 1_665
O7 Rb1 3.320366 1_555
