# generated using pymatgen
data_Mn3OF5
_symmetry_space_group_name_H-M   'P 1'
_cell_length_a   5.88107400
_cell_length_b   5.88577448
_cell_length_c   7.59184303
_cell_angle_alpha   73.48838487
_cell_angle_beta   72.89562546
_cell_angle_gamma   71.03543075
_symmetry_Int_Tables_number   1
_chemical_formula_structural   Mn3OF5
_chemical_formula_sum   'Mn6 O2 F10'
_cell_volume   232.30305393
_cell_formula_units_Z   2
loop_
 _symmetry_equiv_pos_site_id
 _symmetry_equiv_pos_as_xyz
  1  'x, y, z'
loop_
 _atom_site_type_symbol
 _atom_site_label
 _atom_site_symmetry_multiplicity
 _atom_site_fract_x
 _atom_site_fract_y
 _atom_site_fract_z
 _atom_site_occupancy
  Mn  Mn0  1  0.33310100  0.35502000  0.16158200  1
  Mn  Mn1  1  0.67844000  0.68407500  0.33155700  1
  Mn  Mn2  1  0.32393600  0.33463200  0.66580300  1
  Mn  Mn3  1  0.64409900  0.67027400  0.84106100  1
  Mn  Mn4  1  0.99420100  0.99173800  0.48668000  1
  Mn  Mn5  1  0.01978900  0.97564700  0.01330700  1
  O  O0  1  0.90362000  0.88898800  0.28940700  1
  O  O1  1  0.30198400  0.70052800  0.00104500  1
  F  F0  1  0.36357100  0.98503800  0.33177900  1
  F  F1  1  0.01224700  0.63685000  0.67240300  1
  F  F2  1  0.09339100  0.08497600  0.71125100  1
  F  F3  1  0.44972900  0.45350600  0.36433200  1
  F  F4  1  0.76093200  0.76122700  0.03587800  1
  F  F5  1  0.23442200  0.23261500  0.96529400  1
  F  F6  1  0.56516300  0.56919400  0.62909000  1
  F  F7  1  0.63439900  0.03264900  0.66293700  1
  F  F8  1  0.96760000  0.36167600  0.33861000  1
  F  F9  1  0.71937300  0.28136600  0.99798400  1
loop_
_geom_bond_atom_site_label_1
_geom_bond_atom_site_label_2
_geom_bond_distance
_geom_bond_site_symmetry_2
Mn0 O1 2.033433 1_555
Mn1 O0 1.969837 1_555
Mn3 O1 2.001914 1_556
Mn4 O0 2.021401 1_555
Mn5 O1 1.906085 1_555
Mn5 O0 1.974079 1_455
F0 Mn1 2.105880 1_555
F0 Mn4 2.138073 1_455
F0 Mn0 2.174147 1_565
F1 Mn2 2.098584 1_555
F1 Mn3 2.145110 1_455
F1 Mn4 2.152256 1_455
F2 Mn5 2.149051 1_546
F2 Mn2 2.201850 1_555
F2 Mn4 2.207503 1_445
F3 Mn1 2.123768 1_555
F3 Mn0 2.135971 1_555
F3 Mn2 2.169169 1_555
F4 Mn3 2.057449 1_554
F4 Mn1 2.098488 1_555
F4 Mn5 2.216310 1_655
F5 Mn0 2.113579 1_556
F5 Mn2 2.129010 1_555
F5 Mn5 2.161151 1_546
F6 Mn3 2.079014 1_555
F6 Mn1 2.131370 1_555
F6 Mn2 2.194999 1_555
F7 Mn2 2.093484 1_555
F7 Mn4 2.124266 1_545
F7 Mn3 2.169760 1_545
F8 Mn1 2.096180 1_555
F8 Mn4 2.125991 1_545
F8 Mn0 2.168908 1_655
F9 Mn5 2.075673 1_646
F9 Mn0 2.213010 1_556
F9 Mn3 2.226299 1_555
