# generated using pymatgen
data_CeMnAl
_symmetry_space_group_name_H-M   'P 1'
_cell_length_a   5.41634773
_cell_length_b   5.51178705
_cell_length_c   5.47737358
_cell_angle_alpha   90.00000000
_cell_angle_beta   59.62658636
_cell_angle_gamma   120.58461699
_symmetry_Int_Tables_number   1
_chemical_formula_structural   CeMnAl
_chemical_formula_sum   'Ce2 Mn2 Al2'
_cell_volume   113.93107015
_cell_formula_units_Z   2
loop_
 _symmetry_equiv_pos_site_id
 _symmetry_equiv_pos_as_xyz
  1  'x, y, z'
loop_
 _atom_site_type_symbol
 _atom_site_label
 _atom_site_symmetry_multiplicity
 _atom_site_fract_x
 _atom_site_fract_y
 _atom_site_fract_z
 _atom_site_occupancy
  Ce  Ce0  1  0.22179800  0.11089900  0.13910100  1
  Ce  Ce1  1  0.77820200  0.88910100  0.86089900  1
  Mn  Mn0  1  0.50000000  0.00000000  0.50000000  1
  Mn  Mn1  1  0.50000000  0.50000000  0.50000000  1
  Al  Al0  1  0.00000000  0.50000000  0.00000000  1
  Al  Al1  1  0.00000000  0.50000000  0.50000000  1
loop_
_geom_bond_atom_site_label_1
_geom_bond_atom_site_label_2
_geom_bond_distance
_geom_bond_site_symmetry_2
Ce0 Mn0 3.052611 1_455
Ce0 Mn1 3.052611 1_445
Ce0 Ce1 3.209798 1_445
Ce0 Ce1 3.209798 1_444
Ce0 Mn0 3.240583 1_555
Ce0 Mn1 3.240583 1_555
Ce0 Mn0 3.240583 1_554
Ce0 Mn1 3.240583 1_554
Ce0 Ce1 3.464664 1_544
Ce0 Ce1 3.464664 1_554
Ce1 Mn1 3.052611 1_665
Ce1 Mn0 3.052611 1_665
Ce1 Mn1 3.240583 1_555
Ce1 Mn0 3.240583 1_565
Ce1 Mn0 3.240583 1_566
Ce1 Mn1 3.240583 1_556
Mn0 Mn1 2.755894 1_545
Mn0 Mn1 2.755894 1_555
Al0 Mn0 2.708174 1_455
Al0 Mn1 2.708174 1_554
Al0 Mn0 2.708174 1_564
Al0 Mn1 2.708174 1_455
Al0 Al1 2.738687 1_555
Al0 Al1 2.738687 1_554
Al0 Ce1 3.189146 1_444
Al0 Ce0 3.189146 1_565
Al0 Ce0 3.189146 1_555
Al0 Ce1 3.189146 1_454
Al0 Ce1 3.240326 1_554
Al0 Ce0 3.240326 1_455
Al1 Mn1 2.708174 1_455
Al1 Mn1 2.708174 1_555
Al1 Mn0 2.708174 1_565
Al1 Mn0 2.708174 1_455
Al1 Ce1 3.189146 1_445
Al1 Ce0 3.189146 1_555
Al1 Ce0 3.189146 1_565
Al1 Ce1 3.189146 1_455
Al1 Ce0 3.240326 1_456
Al1 Ce1 3.240326 1_554
