# generated using pymatgen
data_KZnB(H2Cl)2
_symmetry_space_group_name_H-M   'P 1'
_cell_length_a   6.18539100
_cell_length_b   6.87981400
_cell_length_c   8.04576080
_cell_angle_alpha   78.64058914
_cell_angle_beta   90.00000000
_cell_angle_gamma   90.00000000
_symmetry_Int_Tables_number   1
_chemical_formula_structural   KZnB(H2Cl)2
_chemical_formula_sum   'K2 Zn2 B2 H8 Cl4'
_cell_volume   335.67509900
_cell_formula_units_Z   2
loop_
 _symmetry_equiv_pos_site_id
 _symmetry_equiv_pos_as_xyz
  1  'x, y, z'
loop_
 _atom_site_type_symbol
 _atom_site_label
 _atom_site_symmetry_multiplicity
 _atom_site_fract_x
 _atom_site_fract_y
 _atom_site_fract_z
 _atom_site_occupancy
  K  K0  1  0.25000000  0.50854700  0.74622500  1
  K  K1  1  0.75000000  0.49145300  0.25377500  1
  Zn  Zn0  1  0.25000000  0.97321400  0.33808900  1
  Zn  Zn1  1  0.75000000  0.02678600  0.66191100  1
  B  B0  1  0.25000000  0.19626500  0.10173700  1
  B  B1  1  0.75000000  0.80373500  0.89826300  1
  H  H0  1  0.25000000  0.37129400  0.10233800  1
  H  H1  1  0.75000000  0.62870600  0.89766200  1
  H  H2  1  0.07935500  0.13110300  0.17725300  1
  H  H3  1  0.57935500  0.86889700  0.82274700  1
  H  H4  1  0.92064500  0.86889700  0.82274700  1
  H  H5  1  0.42064500  0.13110300  0.17725300  1
  H  H6  1  0.25000000  0.14073300  0.96748800  1
  H  H7  1  0.75000000  0.85926700  0.03251200  1
  Cl  Cl0  1  0.25000000  0.03786600  0.60152800  1
  Cl  Cl1  1  0.75000000  0.96213400  0.39847200  1
  Cl  Cl2  1  0.25000000  0.64775900  0.33578300  1
  Cl  Cl3  1  0.75000000  0.35224100  0.66421700  1
loop_
_geom_bond_atom_site_label_1
_geom_bond_atom_site_label_2
_geom_bond_distance
_geom_bond_site_symmetry_2
B0 H0 1.205129 1_555
B0 H6 1.214584 1_554
B0 H5 1.255758 1_555
B0 H2 1.255758 1_555
B1 H1 1.205129 1_555
B1 H7 1.214584 1_556
B1 H4 1.255758 1_555
B1 H3 1.255758 1_555
H0 K0 2.834651 1_554
H1 K1 2.834651 1_556
H2 Zn0 1.847934 1_545
H3 Zn1 1.847934 1_565
H4 Zn1 1.847934 1_565
H5 Zn0 1.847934 1_545
H6 K0 2.792495 1_555
H7 K1 2.792495 1_555
Cl0 Zn0 2.249842 1_545
Cl0 K0 3.598146 1_545
Cl0 K0 3.650526 1_555
Cl1 Zn1 2.249842 1_565
Cl1 K1 3.598146 1_565
Cl1 K1 3.650526 1_555
Cl2 Zn0 2.242798 1_555
Cl2 K0 3.252182 1_555
Cl2 K1 3.381718 1_455
Cl2 K1 3.381718 1_555
Cl3 Zn1 2.242798 1_555
Cl3 K1 3.252182 1_555
Cl3 K0 3.381718 1_655
Cl3 K0 3.381718 1_555
