# generated using pymatgen
data_Nd4FeSn8
_symmetry_space_group_name_H-M   'P 1'
_cell_length_a   4.50488000
_cell_length_b   4.57085200
_cell_length_c   16.95985200
_cell_angle_alpha   90.00000000
_cell_angle_beta   90.00000000
_cell_angle_gamma   90.00000000
_symmetry_Int_Tables_number   1
_chemical_formula_structural   Nd4FeSn8
_chemical_formula_sum   'Nd4 Fe1 Sn8'
_cell_volume   349.22268280
_cell_formula_units_Z   1
loop_
 _symmetry_equiv_pos_site_id
 _symmetry_equiv_pos_as_xyz
  1  'x, y, z'
loop_
 _atom_site_type_symbol
 _atom_site_label
 _atom_site_symmetry_multiplicity
 _atom_site_fract_x
 _atom_site_fract_y
 _atom_site_fract_z
 _atom_site_occupancy
  Nd  Nd0  1  0.00000000  0.00000000  0.09803000  1
  Nd  Nd1  1  0.00000000  0.50000000  0.60207800  1
  Nd  Nd2  1  0.50000000  0.50000000  0.39568100  1
  Nd  Nd3  1  0.50000000  0.00000000  0.89980500  1
  Fe  Fe0  1  0.00000000  0.00000000  0.30590000  1
  Sn  Sn0  1  0.00000000  0.00000000  0.45381200  1
  Sn  Sn1  1  0.00000000  0.50000000  0.93817600  1
  Sn  Sn2  1  0.50000000  0.50000000  0.06013800  1
  Sn  Sn3  1  0.50000000  0.00000000  0.57009400  1
  Sn  Sn4  1  0.00000000  0.50000000  0.23942200  1
  Sn  Sn5  1  0.00000000  0.00000000  0.74903200  1
  Sn  Sn6  1  0.50000000  0.00000000  0.23858300  1
  Sn  Sn7  1  0.50000000  0.50000000  0.75225100  1
loop_
_geom_bond_atom_site_label_1
_geom_bond_atom_site_label_2
_geom_bond_distance
_geom_bond_site_symmetry_2
Nd0 Sn2 3.272560 1_455
Nd0 Sn2 3.272560 1_445
Nd0 Sn2 3.272560 1_545
Nd0 Sn2 3.272560 1_555
Nd0 Sn6 3.279602 1_455
Nd0 Sn6 3.279602 1_555
Nd0 Sn4 3.312630 1_545
Nd0 Sn4 3.312630 1_555
Nd0 Sn1 3.545876 1_544
Nd0 Sn1 3.545876 1_554
Nd1 Sn3 3.254367 1_455
Nd1 Sn3 3.254367 1_465
Nd1 Sn3 3.254367 1_555
Nd1 Sn3 3.254367 1_565
Nd1 Sn5 3.381541 1_555
Nd1 Sn5 3.381541 1_565
Nd1 Sn0 3.397975 1_555
Nd1 Sn0 3.397975 1_565
Nd1 Sn7 3.400036 1_455
Nd1 Sn7 3.400036 1_555
Nd2 Sn0 3.356880 1_555
Nd2 Sn0 3.356880 1_565
Nd2 Sn0 3.356880 1_655
Nd2 Sn0 3.356880 1_665
Nd2 Sn4 3.478027 1_655
Nd2 Sn4 3.478027 1_555
Nd2 Sn6 3.510268 1_565
Nd2 Sn6 3.510268 1_555
Nd2 Sn3 3.738054 1_555
Nd2 Sn3 3.738054 1_565
Nd3 Sn1 3.274165 1_555
Nd3 Sn1 3.274165 1_545
Nd3 Sn1 3.274165 1_655
Nd3 Sn1 3.274165 1_645
Nd3 Sn7 3.389048 1_545
Nd3 Sn7 3.389048 1_555
Nd3 Sn5 3.407665 1_655
Nd3 Sn5 3.407665 1_555
Nd3 Sn2 3.552091 1_546
Nd3 Sn2 3.552091 1_556
Fe0 Sn0 2.508566 1_555
Fe0 Sn6 2.525259 1_455
Fe0 Sn6 2.525259 1_555
Fe0 Sn4 2.548398 1_545
Fe0 Sn4 2.548398 1_555
Fe0 Nd2 3.551787 1_455
Fe0 Nd2 3.551787 1_555
Fe0 Nd2 3.551787 1_545
Fe0 Nd2 3.551787 1_445
Sn0 Sn3 2.993788 1_555
Sn0 Sn3 2.993788 1_455
Sn1 Sn2 3.058104 1_456
Sn1 Sn2 3.058104 1_556
Sn5 Sn7 3.209305 1_555
Sn5 Sn7 3.209305 1_455
Sn5 Sn7 3.209305 1_445
Sn5 Sn7 3.209305 1_545
