# generated using pymatgen
data_Li4Mn3CoO8
_symmetry_space_group_name_H-M   'P 1'
_cell_length_a   10.07635206
_cell_length_b   10.07635206
_cell_length_c   5.45350346
_cell_angle_alpha   79.55963472
_cell_angle_beta   79.55963472
_cell_angle_gamma   16.44504875
_symmetry_Int_Tables_number   1
_chemical_formula_structural   Li4Mn3CoO8
_chemical_formula_sum   'Li4 Mn3 Co1 O8'
_cell_volume   154.10299292
_cell_formula_units_Z   1
loop_
 _symmetry_equiv_pos_site_id
 _symmetry_equiv_pos_as_xyz
  1  'x, y, z'
loop_
 _atom_site_type_symbol
 _atom_site_label
 _atom_site_symmetry_multiplicity
 _atom_site_fract_x
 _atom_site_fract_y
 _atom_site_fract_z
 _atom_site_occupancy
  Li  Li0  1  0.37710100  0.37710100  0.89014300  1
  Li  Li1  1  0.12575600  0.12575600  0.64393000  1
  Li  Li2  1  0.87424400  0.87424400  0.35607000  1
  Li  Li3  1  0.62289900  0.62289900  0.10985700  1
  Mn  Mn0  1  0.75207200  0.75207200  0.74899600  1
  Mn  Mn1  1  0.50000000  0.50000000  0.50000000  1
  Mn  Mn2  1  0.24792800  0.24792800  0.25100400  1
  Co  Co0  1  0.00000000  0.00000000  0.00000000  1
  O  O0  1  0.44052900  0.44052900  0.17275300  1
  O  O1  1  0.19287100  0.19287100  0.91152800  1
  O  O2  1  0.94662800  0.94662800  0.69019200  1
  O  O3  1  0.69021400  0.69021400  0.41505500  1
  O  O4  1  0.30978600  0.30978600  0.58494500  1
  O  O5  1  0.05337200  0.05337200  0.30980800  1
  O  O6  1  0.80712900  0.80712900  0.08847200  1
  O  O7  1  0.55947100  0.55947100  0.82724700  1
loop_
_geom_bond_atom_site_label_1
_geom_bond_atom_site_label_2
_geom_bond_distance
_geom_bond_site_symmetry_2
Li0 O2 2.152943 1_455
Li0 O2 2.152943 1_545
Li0 O6 2.154442 1_546
Li0 O6 2.154442 1_456
Li0 O0 2.165601 1_556
Li0 O4 2.321896 1_555
Li1 O7 2.083298 1_455
Li1 O7 2.083298 1_545
Li1 O1 2.153376 1_555
Li1 O3 2.167941 1_455
Li1 O3 2.167941 1_545
Li1 O5 2.523466 1_555
Li2 O0 2.083298 1_655
Li2 O0 2.083298 1_565
Li2 O6 2.153376 1_555
Li2 O4 2.167941 1_565
Li2 O4 2.167941 1_655
Li2 O2 2.523466 1_555
Li3 O5 2.152943 1_655
Li3 O5 2.152943 1_565
Li3 O1 2.154442 1_564
Li3 O1 2.154442 1_654
Li3 O7 2.165601 1_554
Li3 O3 2.321896 1_555
Mn0 O4 1.955802 1_655
Mn0 O4 1.955802 1_565
Mn0 O1 1.968105 1_655
Mn0 O1 1.968105 1_565
Mn0 O6 2.319013 1_556
Mn0 O3 2.379415 1_555
Mn1 O5 1.970148 1_655
Mn1 O5 1.970148 1_565
Mn1 O2 1.970148 1_545
Mn1 O2 1.970148 1_455
Mn1 O7 2.316714 1_555
Mn1 O0 2.316714 1_555
Mn2 O3 1.955802 1_545
Mn2 O3 1.955802 1_455
Mn2 O6 1.968105 1_455
Mn2 O6 1.968105 1_545
Mn2 O1 2.319013 1_554
Mn2 O4 2.379415 1_555
Co0 O7 1.990514 1_544
Co0 O7 1.990514 1_454
Co0 O0 1.990514 1_455
Co0 O0 1.990514 1_545
Co0 O5 2.155548 1_555
Co0 O2 2.155548 1_444
