# generated using pymatgen
data_NaFeBr4
_symmetry_space_group_name_H-M   'P 1'
_cell_length_a   7.47821477
_cell_length_b   7.53918478
_cell_length_c   13.75924392
_cell_angle_alpha   90.00000000
_cell_angle_beta   90.00000000
_cell_angle_gamma   90.00000000
_symmetry_Int_Tables_number   1
_chemical_formula_structural   NaFeBr4
_chemical_formula_sum   'Na4 Fe4 Br16'
_cell_volume   775.74125982
_cell_formula_units_Z   4
loop_
 _symmetry_equiv_pos_site_id
 _symmetry_equiv_pos_as_xyz
  1  'x, y, z'
loop_
 _atom_site_type_symbol
 _atom_site_label
 _atom_site_symmetry_multiplicity
 _atom_site_fract_x
 _atom_site_fract_y
 _atom_site_fract_z
 _atom_site_occupancy
  Na  Na0  1  0.54676962  0.75000000  0.84564995  1
  Na  Na1  1  0.45323038  0.25000000  0.15435005  1
  Na  Na2  1  0.04676962  0.25000000  0.65435005  1
  Na  Na3  1  0.95323038  0.75000000  0.34564995  1
  Fe  Fe0  1  0.80002045  0.75000000  0.60159301  1
  Fe  Fe1  1  0.19997955  0.25000000  0.39840699  1
  Fe  Fe2  1  0.30002045  0.25000000  0.89840699  1
  Fe  Fe3  1  0.69997955  0.75000000  0.10159301  1
  Br  Br0  1  0.09960122  0.75000000  0.55168384  1
  Br  Br1  1  0.90039878  0.25000000  0.44831616  1
  Br  Br2  1  0.59960122  0.25000000  0.94831616  1
  Br  Br3  1  0.40039878  0.75000000  0.05168384  1
  Br  Br4  1  0.73811186  0.50164164  0.70046880  1
  Br  Br5  1  0.26188814  0.49835836  0.29953120  1
  Br  Br6  1  0.23811186  0.49835836  0.79953120  1
  Br  Br7  1  0.26188814  0.00164164  0.29953120  1
  Br  Br8  1  0.76188814  0.50164164  0.20046880  1
  Br  Br9  1  0.73811186  -0.00164164  0.70046880  1
  Br  Br10  1  0.76188814  -0.00164164  0.20046880  1
  Br  Br11  1  0.23811186  0.00164164  0.79953120  1
  Br  Br12  1  0.87899791  0.75000000  0.96334815  1
  Br  Br13  1  0.12100209  0.25000000  0.03665185  1
  Br  Br14  1  0.37899791  0.25000000  0.53665185  1
  Br  Br15  1  0.62100209  0.75000000  0.46334815  1
loop_
_geom_bond_atom_site_label_1
_geom_bond_atom_site_label_2
_geom_bond_distance
_geom_bond_site_symmetry_2
Br0 Fe0 2.343214 1_455
Br0 Na3 3.038852 1_455
Br1 Fe1 2.343214 1_655
Br1 Na2 3.038852 1_655
Br2 Fe2 2.343214 1_555
Br2 Na1 3.038852 1_556
Br3 Fe3 2.343214 1_555
Br3 Na0 3.038852 1_554
Br4 Fe0 2.360325 1_555
Br4 Na2 3.054465 1_655
Br4 Na0 3.089298 1_555
Br5 Fe1 2.360325 1_555
Br5 Na3 3.054465 1_455
Br5 Na1 3.089298 1_555
Br6 Fe2 2.360325 1_555
Br6 Na0 3.054465 1_555
Br6 Na2 3.089298 1_555
Br7 Fe1 2.360325 1_555
Br7 Na3 3.054465 1_445
Br7 Na1 3.089298 1_555
Br8 Fe3 2.360325 1_555
Br8 Na1 3.054465 1_555
Br8 Na3 3.089298 1_555
Br9 Fe0 2.360325 1_545
Br9 Na2 3.054465 1_655
Br9 Na0 3.089298 1_545
Br10 Fe3 2.360325 1_545
Br10 Na1 3.054465 1_555
Br10 Na3 3.089298 1_545
Br11 Fe2 2.360325 1_555
Br11 Na0 3.054465 1_545
Br11 Na2 3.089298 1_555
Br12 Fe3 2.326021 1_556
Br12 Na0 2.965669 1_555
Br13 Fe2 2.326021 1_554
Br13 Na1 2.965669 1_555
Br14 Fe1 2.326021 1_555
Br14 Na2 2.965669 1_555
Br15 Fe0 2.326021 1_555
Br15 Na3 2.965669 1_555
