# generated using pymatgen
data_Sr2YWO6
_symmetry_space_group_name_H-M   'P 1'
_cell_length_a   5.94563813
_cell_length_b   5.94563813
_cell_length_c   5.94563813
_cell_angle_alpha   60.00000000
_cell_angle_beta   60.00000000
_cell_angle_gamma   60.00000000
_symmetry_Int_Tables_number   1
_chemical_formula_structural   Sr2YWO6
_chemical_formula_sum   'Sr2 Y1 W1 O6'
_cell_volume   148.62108297
_cell_formula_units_Z   1
loop_
 _symmetry_equiv_pos_site_id
 _symmetry_equiv_pos_as_xyz
  1  'x, y, z'
loop_
 _atom_site_type_symbol
 _atom_site_label
 _atom_site_symmetry_multiplicity
 _atom_site_fract_x
 _atom_site_fract_y
 _atom_site_fract_z
 _atom_site_occupancy
  Sr  Sr0  1  0.25000000  0.25000000  0.25000000  1
  Sr  Sr1  1  0.75000000  0.75000000  0.75000000  1
  Y  Y0  1  0.50000000  0.50000000  0.50000000  1
  W  W0  1  -0.00000000  0.00000000  -0.00000000  1
  O  O0  1  0.76332048  0.23667952  0.23667952  1
  O  O1  1  0.23667952  0.76332048  0.76332048  1
  O  O2  1  0.76332048  0.23667952  0.76332048  1
  O  O3  1  0.23667952  0.76332048  0.23667952  1
  O  O4  1  0.76332048  0.76332048  0.23667952  1
  O  O5  1  0.23667952  0.23667952  0.76332048  1
loop_
_geom_bond_atom_site_label_1
_geom_bond_atom_site_label_2
_geom_bond_distance
_geom_bond_site_symmetry_2
O0 W0 1.990097 1_655
O0 Y0 2.214104 1_555
O0 Sr0 2.974928 1_555
O0 Sr1 2.974928 1_554
O0 Sr1 2.974928 1_545
O0 Sr0 2.974928 1_655
O1 W0 1.990097 1_566
O1 Y0 2.214104 1_555
O1 Sr0 2.974928 1_556
O1 Sr1 2.974928 1_455
O1 Sr1 2.974928 1_555
O1 Sr0 2.974928 1_565
O2 W0 1.990097 1_656
O2 Y0 2.214104 1_555
O2 Sr0 2.974928 1_556
O2 Sr1 2.974928 1_555
O2 Sr0 2.974928 1_655
O2 Sr1 2.974928 1_545
O3 W0 1.990097 1_565
O3 Y0 2.214104 1_555
O3 Sr0 2.974928 1_555
O3 Sr1 2.974928 1_554
O3 Sr1 2.974928 1_455
O3 Sr0 2.974928 1_565
O4 W0 1.990097 1_665
O4 Y0 2.214104 1_555
O4 Sr0 2.974928 1_655
O4 Sr1 2.974928 1_554
O4 Sr1 2.974928 1_555
O4 Sr0 2.974928 1_565
O5 W0 1.990097 1_556
O5 Y0 2.214104 1_555
O5 Sr1 2.974928 1_545
O5 Sr1 2.974928 1_455
O5 Sr0 2.974928 1_555
O5 Sr0 2.974928 1_556
