# generated using pymatgen
data_Rb3P3(HO3)4
_symmetry_space_group_name_H-M   'P 1'
_cell_length_a   8.82758200
_cell_length_b   9.70741414
_cell_length_c   9.73409411
_cell_angle_alpha   119.77079406
_cell_angle_beta   94.17458368
_cell_angle_gamma   107.75087997
_symmetry_Int_Tables_number   1
_chemical_formula_structural   Rb3P3(HO3)4
_chemical_formula_sum   'Rb6 P6 H8 O24'
_cell_volume   663.74257987
_cell_formula_units_Z   2
loop_
 _symmetry_equiv_pos_site_id
 _symmetry_equiv_pos_as_xyz
  1  'x, y, z'
loop_
 _atom_site_type_symbol
 _atom_site_label
 _atom_site_symmetry_multiplicity
 _atom_site_fract_x
 _atom_site_fract_y
 _atom_site_fract_z
 _atom_site_occupancy
  Rb  Rb0  1  0.13760100  0.06029100  0.21233300  1
  Rb  Rb1  1  0.59334100  0.33338200  0.48757500  1
  Rb  Rb2  1  0.75816800  0.32085700  0.98175200  1
  Rb  Rb3  1  0.24183200  0.67914300  0.01824800  1
  Rb  Rb4  1  0.40665900  0.66661800  0.51242500  1
  Rb  Rb5  1  0.86239900  0.93970900  0.78766700  1
  P  P0  1  0.95894800  0.60733100  0.22797400  1
  P  P1  1  0.08903800  0.30399700  0.39824100  1
  P  P2  1  0.25215200  0.22249100  0.75422600  1
  P  P3  1  0.74784800  0.77750900  0.24577400  1
  P  P4  1  0.91096200  0.69600300  0.60175900  1
  P  P5  1  0.04105200  0.39266900  0.77202600  1
  H  H0  1  0.37854800  0.03529400  0.07735300  1
  H  H1  1  0.59692800  0.06512700  0.34286000  1
  H  H2  1  0.78508300  0.12434900  0.39443600  1
  H  H3  1  0.49346300  0.08775900  0.79874200  1
  H  H4  1  0.50653700  0.91224100  0.20125800  1
  H  H5  1  0.21491700  0.87565100  0.60556400  1
  H  H6  1  0.40307200  0.93487300  0.65714000  1
  H  H7  1  0.62145200  0.96470600  0.92264700  1
  O  O0  1  0.46786500  0.00752000  0.18273200  1
  O  O1  1  0.96979300  0.19687300  0.32225900  1
  O  O2  1  0.68237600  0.09378900  0.42866800  1
  O  O3  1  0.46484800  0.43910900  0.04691000  1
  O  O4  1  0.98776100  0.43043900  0.37987000  1
  O  O5  1  0.90268600  0.59893300  0.06636200  1
  O  O6  1  0.89735800  0.26931700  0.74559900  1
  O  O7  1  0.12402600  0.19398300  0.59737300  1
  O  O8  1  0.21357300  0.07681500  0.90411400  1
  O  O9  1  0.24697500  0.39011400  0.35087100  1
  O  O10  1  0.42680800  0.26958500  0.74055800  1
  O  O11  1  0.79774600  0.61931800  0.26621100  1
  O  O12  1  0.20225400  0.38068200  0.73378900  1
  O  O13  1  0.57319200  0.73041500  0.25944200  1
  O  O14  1  0.75302500  0.60988600  0.64912900  1
  O  O15  1  0.78642700  0.92318500  0.09588600  1
  O  O16  1  0.87597400  0.80601700  0.40262700  1
  O  O17  1  0.10264200  0.73068300  0.25440100  1
  O  O18  1  0.09731400  0.40106700  0.93363800  1
  O  O19  1  0.01223900  0.56956100  0.62013000  1
  O  O20  1  0.53515200  0.56089100  0.95309000  1
  O  O21  1  0.31762400  0.90621100  0.57133200  1
  O  O22  1  0.03020700  0.80312700  0.67774100  1
  O  O23  1  0.53213500  0.99248000  0.81726800  1
loop_
_geom_bond_atom_site_label_1
_geom_bond_atom_site_label_2
_geom_bond_distance
_geom_bond_site_symmetry_2
P1 Rb0 2.352715 1_555
P4 Rb5 2.352715 1_555
H0 O0 1.425856 1_555
H0 Rb0 2.591187 1_555
H1 O2 0.945283 1_555
H2 O2 0.999604 1_555
H3 O23 1.163498 1_545
H3 Rb2 2.433254 1_555
H4 O0 1.163498 1_565
H4 Rb3 2.433254 1_555
H5 O21 0.999604 1_555
H6 O21 0.945283 1_555
H7 O23 1.425856 1_555
H7 Rb5 2.591187 1_555
O0 Rb0 3.119548 1_555
O1 P1 1.091729 1_655
O1 Rb0 2.262019 1_655
O3 Rb2 3.122977 1_554
O4 P1 1.789318 1_655
O5 P0 1.569173 1_555
O5 Rb2 2.265385 1_554
O6 P5 1.352577 1_655
O6 Rb2 2.586151 1_555
O6 Rb5 3.349341 1_545
O7 P2 1.680818 1_555
O7 Rb0 3.328070 1_555
O8 P2 2.464173 1_555
O8 Rb5 2.853202 1_445
O8 Rb0 3.190950 1_556
O9 P1 1.618944 1_555
O9 Rb4 2.200698 1_555
O9 Rb0 2.576745 1_555
O10 P2 1.504757 1_555
O11 P0 1.520573 1_555
O11 P3 1.815159 1_555
O12 P5 1.520573 1_555
O12 P2 1.815159 1_555
O13 P3 1.504757 1_555
O14 P4 1.618944 1_555
O14 Rb1 2.200698 1_555
O14 Rb5 2.576745 1_555
O15 P3 2.464173 1_555
O15 Rb0 2.853202 1_665
O15 Rb5 3.190950 1_554
O16 P3 1.680818 1_555
O16 Rb5 3.328070 1_555
O17 P0 1.352577 1_455
O17 Rb3 2.586151 1_555
O17 Rb0 3.349341 1_565
O18 P5 1.569173 1_555
O18 Rb3 2.265385 1_556
O19 P4 1.789318 1_455
O20 O3 1.823200 1_556
O20 Rb3 3.122977 1_556
O22 P4 1.091729 1_455
O22 Rb5 2.262019 1_455
O23 Rb5 3.119548 1_555
