# generated using pymatgen
data_La2MgSe4
_symmetry_space_group_name_H-M   'P 1'
_cell_length_a   7.86529400
_cell_length_b   9.16320520
_cell_length_c   13.75688398
_cell_angle_alpha   99.88638718
_cell_angle_beta   96.11095538
_cell_angle_gamma   90.01205542
_symmetry_Int_Tables_number   1
_chemical_formula_structural   La2MgSe4
_chemical_formula_sum   'La8 Mg4 Se16'
_cell_volume   971.02997570
_cell_formula_units_Z   4
loop_
 _symmetry_equiv_pos_site_id
 _symmetry_equiv_pos_as_xyz
  1  'x, y, z'
loop_
 _atom_site_type_symbol
 _atom_site_label
 _atom_site_symmetry_multiplicity
 _atom_site_fract_x
 _atom_site_fract_y
 _atom_site_fract_z
 _atom_site_occupancy
  La  La0  1  0.86604900  0.30093400  0.69063100  1
  La  La1  1  0.13395100  0.69906600  0.30936900  1
  La  La2  1  0.75575700  0.13120400  0.00042700  1
  La  La3  1  0.24424300  0.86879600  0.99957300  1
  La  La4  1  0.63146000  0.44269500  0.30736500  1
  La  La5  1  0.36854000  0.55730500  0.69263500  1
  La  La6  1  0.63516300  0.96094500  0.31140400  1
  La  La7  1  0.36483700  0.03905500  0.68859600  1
  Mg  Mg0  1  0.86358300  0.79890500  0.70189900  1
  Mg  Mg1  1  0.13641700  0.20109500  0.29810100  1
  Mg  Mg2  1  0.75122900  0.61932900  0.99231600  1
  Mg  Mg3  1  0.24877100  0.38067100  0.00768400  1
  Se  Se0  1  0.91331400  0.36129100  0.90025100  1
  Se  Se1  1  0.08668600  0.63870900  0.09974900  1
  Se  Se2  1  0.88518100  0.83751800  0.89156900  1
  Se  Se3  1  0.11481900  0.16248200  0.10843100  1
  Se  Se4  1  0.84662700  0.21980000  0.37435500  1
  Se  Se5  1  0.15337300  0.78020000  0.62564500  1
  Se  Se6  1  0.80579400  0.71956400  0.38229500  1
  Se  Se7  1  0.19420600  0.28043600  0.61770500  1
  Se  Se8  1  0.70336400  0.01306000  0.62873600  1
  Se  Se9  1  0.29663600  0.98694000  0.37126400  1
  Se  Se10  1  0.69981800  0.55129200  0.62378100  1
  Se  Se11  1  0.30018200  0.44870800  0.37621900  1
  Se  Se12  1  0.61368400  0.88935100  0.10148900  1
  Se  Se13  1  0.38631600  0.11064900  0.89851100  1
  Se  Se14  1  0.58915700  0.41340300  0.09842900  1
  Se  Se15  1  0.41084300  0.58659700  0.90157100  1
loop_
_geom_bond_atom_site_label_1
_geom_bond_atom_site_label_2
_geom_bond_distance
_geom_bond_site_symmetry_2
La0 Se0 2.825582 1_555
La0 Se7 2.861885 1_655
La0 Se10 2.878842 1_555
La0 Se8 2.883727 1_555
La1 Se1 2.825582 1_555
La1 Se6 2.861885 1_455
La1 Se11 2.878842 1_555
La1 Se9 2.883727 1_555
La2 Se3 3.037349 1_655
La2 Se0 3.039768 1_554
La2 Se14 3.066220 1_555
La2 Se2 3.076161 1_544
La2 Se12 3.079071 1_545
La2 Se13 3.079994 1_554
La3 Se2 3.037349 1_455
La3 Se1 3.039768 1_556
La3 Se15 3.066220 1_555
La3 Se3 3.076161 1_566
La3 Se13 3.079071 1_565
La3 Se12 3.079994 1_556
La4 Se14 2.824150 1_555
La4 Se6 2.859844 1_555
La4 Se11 2.863042 1_555
La4 Se4 2.863674 1_555
La5 Se15 2.824150 1_555
La5 Se7 2.859844 1_555
La5 Se10 2.863042 1_555
La5 Se5 2.863674 1_555
La6 Se12 2.836144 1_555
La6 Se6 2.847400 1_555
La6 Se4 2.851089 1_565
La6 Se9 2.867773 1_555
La7 Se13 2.836144 1_555
La7 Se7 2.847400 1_555
La7 Se5 2.851089 1_545
La7 Se8 2.867773 1_555
Mg0 Se2 2.559474 1_555
Mg0 Se5 2.602391 1_655
Mg0 Se10 2.613195 1_555
Mg0 Se8 2.619368 1_565
Mg1 Se3 2.559474 1_555
Mg1 Se4 2.602391 1_455
Mg1 Se11 2.613195 1_555
Mg1 Se9 2.619368 1_545
Mg2 Se15 2.824090 1_555
Mg2 Se0 2.852486 1_555
Mg2 Se1 2.873466 1_656
Mg2 Se2 2.879181 1_555
Mg2 Se12 2.935814 1_556
Mg2 Se14 2.942371 1_556
Mg3 Se14 2.824090 1_555
Mg3 Se1 2.852486 1_555
Mg3 Se0 2.873466 1_454
Mg3 Se3 2.879181 1_555
Mg3 Se13 2.935814 1_554
Mg3 Se15 2.942371 1_554
