# generated using pymatgen
data_LaMgTaCrO6
_symmetry_space_group_name_H-M   'P 1'
_cell_length_a   5.53781600
_cell_length_b   5.34092800
_cell_length_c   10.07655280
_cell_angle_alpha   58.50299674
_cell_angle_beta   90.00000000
_cell_angle_gamma   90.00000000
_symmetry_Int_Tables_number   1
_chemical_formula_structural   LaMgTaCrO6
_chemical_formula_sum   'La2 Mg2 Ta2 Cr2 O12'
_cell_volume   254.12473314
_cell_formula_units_Z   2
loop_
 _symmetry_equiv_pos_site_id
 _symmetry_equiv_pos_as_xyz
  1  'x, y, z'
loop_
 _atom_site_type_symbol
 _atom_site_label
 _atom_site_symmetry_multiplicity
 _atom_site_fract_x
 _atom_site_fract_y
 _atom_site_fract_z
 _atom_site_occupancy
  La  La0  1  0.29704200  0.77586600  0.24504900  1
  La  La1  1  0.70295800  0.77586600  0.74504900  1
  Mg  Mg0  1  0.80275900  0.21242100  0.26045800  1
  Mg  Mg1  1  0.19724100  0.21242100  0.76045800  1
  Ta  Ta0  1  0.24316800  0.50161700  0.99750700  1
  Ta  Ta1  1  0.75683200  0.50161700  0.49750700  1
  Cr  Cr0  1  0.25475600  0.01380800  0.49464000  1
  Cr  Cr1  1  0.74524400  0.01380800  0.99464000  1
  O  O0  1  0.83007500  0.39039500  0.71628700  1
  O  O1  1  0.03511300  0.15757600  0.05506700  1
  O  O2  1  0.02703500  0.79712000  0.41909400  1
  O  O3  1  0.54674800  0.23926200  0.08211300  1
  O  O4  1  0.55788400  0.86233700  0.43874700  1
  O  O5  1  0.29828800  0.54959400  0.79103900  1
  O  O6  1  0.16992500  0.39039500  0.21628700  1
  O  O7  1  0.96488700  0.15757600  0.55506700  1
  O  O8  1  0.97296500  0.79712000  0.91909400  1
  O  O9  1  0.45325200  0.23926200  0.58211300  1
  O  O10  1  0.44211600  0.86233700  0.93874700  1
  O  O11  1  0.70171200  0.54959400  0.29103900  1
loop_
_geom_bond_atom_site_label_1
_geom_bond_atom_site_label_2
_geom_bond_distance
_geom_bond_site_symmetry_2
La0 O6 2.332715 1_555
La0 O2 2.352105 1_555
La0 O1 2.418050 1_565
La0 O11 2.472260 1_555
La0 O3 2.547020 1_565
La0 O4 2.655430 1_555
La0 O10 2.982543 1_554
La1 O0 2.332715 1_555
La1 O8 2.352105 1_555
La1 O7 2.418050 1_565
La1 O5 2.472260 1_555
La1 O9 2.547020 1_565
La1 O10 2.655430 1_555
La1 O4 2.982543 1_555
Mg0 O11 2.056908 1_555
Mg0 O6 2.189490 1_655
Mg0 O3 2.234038 1_555
Mg0 O4 2.247791 1_545
Mg0 O2 2.304963 1_645
Mg0 O1 2.580376 1_655
Mg1 O5 2.056908 1_555
Mg1 O0 2.189490 1_455
Mg1 O9 2.234038 1_555
Mg1 O10 2.247791 1_545
Mg1 O8 2.304963 1_445
Mg1 O7 2.580376 1_455
Cr0 O7 2.006413 1_455
Cr0 O4 2.065356 1_545
Cr0 O2 2.104696 1_545
Cr0 O9 2.131709 1_555
Cr0 O6 2.497689 1_555
Cr0 O5 2.718078 1_545
Cr1 O1 2.006413 1_656
Cr1 O10 2.065356 1_545
Cr1 O8 2.104696 1_545
Cr1 O3 2.131709 1_556
Cr1 O0 2.497689 1_555
Cr1 O11 2.718078 1_546
O0 Ta1 2.002260 1_555
O1 Ta0 1.981586 1_554
O2 Ta1 2.012758 1_455
O3 Ta0 2.065994 1_554
O4 Ta1 2.020931 1_555
O5 Ta0 1.982475 1_555
O6 Ta0 2.002260 1_554
O7 Ta1 1.981586 1_555
O8 Ta0 2.012758 1_655
O9 Ta1 2.065994 1_555
O10 Ta0 2.020931 1_555
O11 Ta1 1.982475 1_555
