# generated using pymatgen
data_Mg3Si4
_symmetry_space_group_name_H-M   'P 1'
_cell_length_a   20.42452943
_cell_length_b   20.42452943
_cell_length_c   17.28533014
_cell_angle_alpha   89.87474306
_cell_angle_beta   89.87474306
_cell_angle_gamma   16.17861658
_symmetry_Int_Tables_number   1
_chemical_formula_structural   Mg3Si4
_chemical_formula_sum   'Mg48 Si64'
_cell_volume   2009.15208851
_cell_formula_units_Z   16
loop_
 _symmetry_equiv_pos_site_id
 _symmetry_equiv_pos_as_xyz
  1  'x, y, z'
loop_
 _atom_site_type_symbol
 _atom_site_label
 _atom_site_symmetry_multiplicity
 _atom_site_fract_x
 _atom_site_fract_y
 _atom_site_fract_z
 _atom_site_occupancy
  Mg  Mg0_0  1  0.09805250  0.09805250  0.20597600  1
  Mg  Mg0_1  1  0.09805250  0.09805250  0.70597600  1
  Mg  Mg0_2  1  0.09805250  0.59805250  0.20597600  1
  Mg  Mg0_3  1  0.09805250  0.59805250  0.70597600  1
  Mg  Mg0_4  1  0.59805250  0.09805250  0.20597600  1
  Mg  Mg0_5  1  0.59805250  0.09805250  0.70597600  1
  Mg  Mg0_6  1  0.59805250  0.59805250  0.20597600  1
  Mg  Mg0_7  1  0.59805250  0.59805250  0.70597600  1
  Mg  Mg1_0  1  0.09744500  0.09744500  0.45312850  1
  Mg  Mg1_1  1  0.09744500  0.09744500  0.95312850  1
  Mg  Mg1_2  1  0.09744500  0.59744500  0.45312850  1
  Mg  Mg1_3  1  0.09744500  0.59744500  0.95312850  1
  Mg  Mg1_4  1  0.59744500  0.09744500  0.45312850  1
  Mg  Mg1_5  1  0.59744500  0.09744500  0.95312850  1
  Mg  Mg1_6  1  0.59744500  0.59744500  0.45312850  1
  Mg  Mg1_7  1  0.59744500  0.59744500  0.95312850  1
  Mg  Mg2_0  1  0.40615500  0.40615500  0.07900100  1
  Mg  Mg2_1  1  0.40615500  0.40615500  0.57900100  1
  Mg  Mg2_2  1  0.40615500  0.90615500  0.07900100  1
  Mg  Mg2_3  1  0.40615500  0.90615500  0.57900100  1
  Mg  Mg2_4  1  0.90615500  0.40615500  0.07900100  1
  Mg  Mg2_5  1  0.90615500  0.40615500  0.57900100  1
  Mg  Mg2_6  1  0.90615500  0.90615500  0.07900100  1
  Mg  Mg2_7  1  0.90615500  0.90615500  0.57900100  1
  Mg  Mg3_0  1  0.03027200  0.03027200  0.08140950  1
  Mg  Mg3_1  1  0.03027200  0.03027200  0.58140950  1
  Mg  Mg3_2  1  0.03027200  0.53027200  0.08140950  1
  Mg  Mg3_3  1  0.03027200  0.53027200  0.58140950  1
  Mg  Mg3_4  1  0.53027200  0.03027200  0.08140950  1
  Mg  Mg3_5  1  0.53027200  0.03027200  0.58140950  1
  Mg  Mg3_6  1  0.53027200  0.53027200  0.08140950  1
  Mg  Mg3_7  1  0.53027200  0.53027200  0.58140950  1
  Mg  Mg4_0  1  0.39249950  0.39249950  0.32911350  1
  Mg  Mg4_1  1  0.39249950  0.39249950  0.82911350  1
  Mg  Mg4_2  1  0.39249950  0.89249950  0.32911350  1
  Mg  Mg4_3  1  0.39249950  0.89249950  0.82911350  1
  Mg  Mg4_4  1  0.89249950  0.39249950  0.32911350  1
  Mg  Mg4_5  1  0.89249950  0.39249950  0.82911350  1
  Mg  Mg4_6  1  0.89249950  0.89249950  0.32911350  1
  Mg  Mg4_7  1  0.89249950  0.89249950  0.82911350  1
  Mg  Mg5_0  1  0.47243800  0.47243800  0.33275450  1
  Mg  Mg5_1  1  0.47243800  0.47243800  0.83275450  1
  Mg  Mg5_2  1  0.47243800  0.97243800  0.33275450  1
  Mg  Mg5_3  1  0.47243800  0.97243800  0.83275450  1
  Mg  Mg5_4  1  0.97243800  0.47243800  0.33275450  1
  Mg  Mg5_5  1  0.97243800  0.47243800  0.83275450  1
  Mg  Mg5_6  1  0.97243800  0.97243800  0.33275450  1
  Mg  Mg5_7  1  0.97243800  0.97243800  0.83275450  1
  Si  Si0_0  1  0.17109100  0.17109100  0.21315350  1
  Si  Si0_1  1  0.17109100  0.17109100  0.71315350  1
  Si  Si0_2  1  0.17109100  0.67109100  0.21315350  1
  Si  Si0_3  1  0.17109100  0.67109100  0.71315350  1
  Si  Si0_4  1  0.67109100  0.17109100  0.21315350  1
  Si  Si0_5  1  0.67109100  0.17109100  0.71315350  1
  Si  Si0_6  1  0.67109100  0.67109100  0.21315350  1
  Si  Si0_7  1  0.67109100  0.67109100  0.71315350  1
  Si  Si1_0  1  0.22460900  0.22460900  0.15419400  1
  Si  Si1_1  1  0.22460900  0.22460900  0.65419400  1
  Si  Si1_2  1  0.22460900  0.72460900  0.15419400  1
  Si  Si1_3  1  0.22460900  0.72460900  0.65419400  1
  Si  Si1_4  1  0.72460900  0.22460900  0.15419400  1
  Si  Si1_5  1  0.72460900  0.22460900  0.65419400  1
  Si  Si1_6  1  0.72460900  0.72460900  0.15419400  1
  Si  Si1_7  1  0.72460900  0.72460900  0.65419400  1
  Si  Si2_0  1  0.22384850  0.22384850  0.00844000  1
  Si  Si2_1  1  0.22384850  0.22384850  0.50844000  1
  Si  Si2_2  1  0.22384850  0.72384850  0.00844000  1
  Si  Si2_3  1  0.22384850  0.72384850  0.50844000  1
  Si  Si2_4  1  0.72384850  0.22384850  0.00844000  1
  Si  Si2_5  1  0.72384850  0.22384850  0.50844000  1
  Si  Si2_6  1  0.72384850  0.72384850  0.00844000  1
  Si  Si2_7  1  0.72384850  0.72384850  0.50844000  1
  Si  Si3_0  1  0.17111450  0.17111450  0.44466450  1
  Si  Si3_1  1  0.17111450  0.17111450  0.94466450  1
  Si  Si3_2  1  0.17111450  0.67111450  0.44466450  1
  Si  Si3_3  1  0.17111450  0.67111450  0.94466450  1
  Si  Si3_4  1  0.67111450  0.17111450  0.44466450  1
  Si  Si3_5  1  0.67111450  0.17111450  0.94466450  1
  Si  Si3_6  1  0.67111450  0.67111450  0.44466450  1
  Si  Si3_7  1  0.67111450  0.67111450  0.94466450  1
  Si  Si4_0  1  0.32174700  0.32174700  0.33021700  1
  Si  Si4_1  1  0.32174700  0.32174700  0.83021700  1
  Si  Si4_2  1  0.32174700  0.82174700  0.33021700  1
  Si  Si4_3  1  0.32174700  0.82174700  0.83021700  1
  Si  Si4_4  1  0.82174700  0.32174700  0.33021700  1
  Si  Si4_5  1  0.82174700  0.32174700  0.83021700  1
  Si  Si4_6  1  0.82174700  0.82174700  0.33021700  1
  Si  Si4_7  1  0.82174700  0.82174700  0.83021700  1
  Si  Si5_0  1  0.33731450  0.33731450  0.07957800  1
  Si  Si5_1  1  0.33731450  0.33731450  0.57957800  1
  Si  Si5_2  1  0.33731450  0.83731450  0.07957800  1
  Si  Si5_3  1  0.33731450  0.83731450  0.57957800  1
  Si  Si5_4  1  0.83731450  0.33731450  0.07957800  1
  Si  Si5_5  1  0.83731450  0.33731450  0.57957800  1
  Si  Si5_6  1  0.83731450  0.83731450  0.07957800  1
  Si  Si5_7  1  0.83731450  0.83731450  0.57957800  1
  Si  Si6_0  1  0.27290250  0.27290250  0.24259000  1
  Si  Si6_1  1  0.27290250  0.27290250  0.74259000  1
  Si  Si6_2  1  0.27290250  0.77290250  0.24259000  1
  Si  Si6_3  1  0.27290250  0.77290250  0.74259000  1
  Si  Si6_4  1  0.77290250  0.27290250  0.24259000  1
  Si  Si6_5  1  0.77290250  0.27290250  0.74259000  1
  Si  Si6_6  1  0.77290250  0.77290250  0.24259000  1
  Si  Si6_7  1  0.77290250  0.77290250  0.74259000  1
  Si  Si7_0  1  0.27297200  0.27297200  0.42241950  1
  Si  Si7_1  1  0.27297200  0.27297200  0.92241950  1
  Si  Si7_2  1  0.27297200  0.77297200  0.42241950  1
  Si  Si7_3  1  0.27297200  0.77297200  0.92241950  1
  Si  Si7_4  1  0.77297200  0.27297200  0.42241950  1
  Si  Si7_5  1  0.77297200  0.27297200  0.92241950  1
  Si  Si7_6  1  0.77297200  0.77297200  0.42241950  1
  Si  Si7_7  1  0.77297200  0.77297200  0.92241950  1
loop_
_geom_bond_atom_site_label_1
_geom_bond_atom_site_label_2
_geom_bond_distance
_geom_bond_site_symmetry_2
Mg0_0 Si5_2 2.651667 1_545
Mg0_0 Si5_4 2.651667 1_455
Mg0_0 Si4_4 2.792622 1_455
Mg0_0 Si4_2 2.792622 1_545
Mg0_0 Si0_0 2.956745 1_555
Mg0_1 Si5_3 2.651667 1_545
Mg0_1 Si5_5 2.651667 1_455
Mg0_1 Si4_3 2.792622 1_545
Mg0_1 Si4_5 2.792622 1_455
Mg0_1 Si0_1 2.956745 1_555
Mg0_2 Si5_0 2.651667 1_555
Mg0_2 Si5_6 2.651667 1_455
Mg0_2 Si4_6 2.792622 1_455
Mg0_2 Si4_0 2.792622 1_555
Mg0_2 Si0_2 2.956745 1_555
Mg0_3 Si5_7 2.651667 1_455
Mg0_3 Si5_1 2.651667 1_555
Mg0_3 Si4_7 2.792622 1_455
Mg0_3 Si4_1 2.792622 1_555
Mg0_3 Si0_3 2.956745 1_555
Mg0_4 Si5_0 2.651667 1_555
Mg0_4 Si5_6 2.651667 1_545
Mg0_4 Si4_6 2.792622 1_545
Mg0_4 Si4_0 2.792622 1_555
Mg0_4 Si0_4 2.956745 1_555
Mg0_5 Si5_7 2.651667 1_545
Mg0_5 Si5_1 2.651667 1_555
Mg0_5 Si4_7 2.792622 1_545
Mg0_5 Si4_1 2.792622 1_555
Mg0_5 Si0_5 2.956745 1_555
Mg0_6 Si5_2 2.651667 1_555
Mg0_6 Si5_4 2.651667 1_555
Mg0_6 Si4_2 2.792622 1_555
Mg0_6 Si4_4 2.792622 1_555
Mg0_6 Si0_6 2.956745 1_555
Mg0_7 Si5_3 2.651667 1_555
Mg0_7 Si5_5 2.651667 1_555
Mg0_7 Si4_3 2.792622 1_555
Mg0_7 Si4_5 2.792622 1_555
Mg0_7 Si0_7 2.956745 1_555
Mg1_0 Si5_3 2.646951 1_545
Mg1_0 Si5_5 2.646951 1_455
Mg1_0 Si4_2 2.769247 1_545
Mg1_0 Si4_4 2.769247 1_455
Mg1_0 Si3_0 2.982654 1_555
Mg1_1 Si5_2 2.646951 1_546
Mg1_1 Si5_4 2.646951 1_456
Mg1_1 Si4_3 2.769247 1_545
Mg1_1 Si4_5 2.769247 1_455
Mg1_1 Si3_1 2.982654 1_555
Mg1_2 Si5_7 2.646951 1_455
Mg1_2 Si5_1 2.646951 1_555
Mg1_2 Si4_6 2.769247 1_455
Mg1_2 Si4_0 2.769247 1_555
Mg1_2 Si3_2 2.982654 1_555
Mg1_3 Si5_0 2.646951 1_556
Mg1_3 Si5_6 2.646951 1_456
Mg1_3 Si4_7 2.769247 1_455
Mg1_3 Si4_1 2.769247 1_555
Mg1_3 Si3_3 2.982654 1_555
Mg1_4 Si5_7 2.646951 1_545
Mg1_4 Si5_1 2.646951 1_555
Mg1_4 Si4_6 2.769247 1_545
Mg1_4 Si4_0 2.769247 1_555
Mg1_4 Si3_4 2.982654 1_555
Mg1_5 Si5_6 2.646951 1_546
Mg1_5 Si5_0 2.646951 1_556
Mg1_5 Si4_7 2.769247 1_545
Mg1_5 Si4_1 2.769247 1_555
Mg1_5 Si3_5 2.982654 1_555
Mg1_6 Si5_3 2.646951 1_555
Mg1_6 Si5_5 2.646951 1_555
Mg1_6 Si4_2 2.769247 1_555
Mg1_6 Si4_4 2.769247 1_555
Mg1_6 Si3_6 2.982654 1_555
Mg1_7 Si5_2 2.646951 1_556
Mg1_7 Si5_4 2.646951 1_556
Mg1_7 Si4_3 2.769247 1_555
Mg1_7 Si4_5 2.769247 1_555
Mg1_7 Si3_7 2.982654 1_555
Mg2_0 Si5_0 2.784085 1_555
Mg2_0 Si0_2 2.795226 1_555
Mg2_0 Si0_4 2.795226 1_555
Mg2_0 Si3_5 2.795856 1_554
Mg2_0 Si3_3 2.795856 1_554
Mg2_1 Si5_1 2.784085 1_555
Mg2_1 Si0_5 2.795226 1_555
Mg2_1 Si0_3 2.795226 1_555
Mg2_1 Si3_4 2.795856 1_555
Mg2_1 Si3_2 2.795856 1_555
Mg2_2 Si5_2 2.784085 1_555
Mg2_2 Si0_6 2.795226 1_555
Mg2_2 Si0_0 2.795226 1_565
Mg2_2 Si3_1 2.795856 1_564
Mg2_2 Si3_7 2.795856 1_554
Mg2_3 Si5_3 2.784085 1_555
Mg2_3 Si0_1 2.795226 1_565
Mg2_3 Si0_7 2.795226 1_555
Mg2_3 Si3_0 2.795856 1_565
Mg2_3 Si3_6 2.795856 1_555
Mg2_4 Si5_4 2.784085 1_555
Mg2_4 Si0_6 2.795226 1_555
Mg2_4 Si0_0 2.795226 1_655
Mg2_4 Si3_7 2.795856 1_554
Mg2_4 Si3_1 2.795856 1_654
Mg2_5 Si5_5 2.784085 1_555
Mg2_5 Si0_1 2.795226 1_655
Mg2_5 Si0_7 2.795226 1_555
Mg2_5 Si3_6 2.795856 1_555
Mg2_5 Si3_0 2.795856 1_655
Mg2_6 Si5_6 2.784085 1_555
Mg2_6 Si0_4 2.795226 1_565
Mg2_6 Si0_2 2.795226 1_655
Mg2_6 Si3_3 2.795856 1_654
Mg2_6 Si3_5 2.795856 1_564
Mg2_7 Si5_7 2.784085 1_555
Mg2_7 Si0_3 2.795226 1_655
Mg2_7 Si0_5 2.795226 1_565
Mg2_7 Si3_4 2.795856 1_565
Mg2_7 Si3_2 2.795856 1_655
Mg3_0 Si5_4 2.718042 1_455
Mg3_0 Si5_2 2.718042 1_545
Mg3_0 Mg3_6 2.874068 1_455
Mg3_0 Mg3_6 2.874068 1_545
Mg3_0 Si1_2 2.950100 1_545
Mg3_0 Si1_4 2.950100 1_455
Mg3_0 Si2_2 2.979226 1_545
Mg3_0 Si2_4 2.979226 1_455
Mg3_0 Si7_5 3.115828 1_454
Mg3_0 Si7_3 3.115828 1_544
Mg3_0 Si6_2 3.148388 1_545
Mg3_0 Si6_4 3.148388 1_455
Mg3_1 Si5_5 2.718042 1_455
Mg3_1 Si5_3 2.718042 1_545
Mg3_1 Mg3_7 2.874068 1_545
Mg3_1 Mg3_7 2.874068 1_455
Mg3_1 Si1_3 2.950100 1_545
Mg3_1 Si1_5 2.950100 1_455
Mg3_1 Si2_3 2.979226 1_545
Mg3_1 Si2_5 2.979226 1_455
Mg3_1 Si7_2 3.115828 1_545
Mg3_1 Si7_4 3.115828 1_455
Mg3_1 Si6_3 3.148388 1_545
Mg3_1 Si6_5 3.148388 1_455
Mg3_2 Si5_6 2.718042 1_455
Mg3_2 Si5_0 2.718042 1_555
Mg3_2 Mg3_4 2.874068 1_555
Mg3_2 Mg3_4 2.874068 1_465
Mg3_2 Si1_6 2.950100 1_455
Mg3_2 Si1_0 2.950100 1_555
Mg3_2 Si2_0 2.979226 1_555
Mg3_2 Si2_6 2.979226 1_455
Mg3_2 Si7_7 3.115828 1_454
Mg3_2 Si7_1 3.115828 1_554
Mg3_2 Si6_6 3.148388 1_455
Mg3_2 Si6_0 3.148388 1_555
Mg3_3 Si5_1 2.718042 1_555
Mg3_3 Si5_7 2.718042 1_455
Mg3_3 Mg3_5 2.874068 1_555
Mg3_3 Mg3_5 2.874068 1_465
Mg3_3 Si1_1 2.950100 1_555
Mg3_3 Si1_7 2.950100 1_455
Mg3_3 Si2_1 2.979226 1_555
Mg3_3 Si2_7 2.979226 1_455
Mg3_3 Si7_0 3.115828 1_555
Mg3_3 Si7_6 3.115828 1_455
Mg3_3 Si6_1 3.148388 1_555
Mg3_3 Si6_7 3.148388 1_455
Mg3_4 Si5_6 2.718042 1_545
Mg3_4 Si5_0 2.718042 1_555
Mg3_4 Si1_0 2.950100 1_555
Mg3_4 Si1_6 2.950100 1_545
Mg3_4 Si2_0 2.979226 1_555
Mg3_4 Si2_6 2.979226 1_545
Mg3_4 Si7_1 3.115828 1_554
Mg3_4 Si7_7 3.115828 1_544
Mg3_4 Si6_0 3.148388 1_555
Mg3_4 Si6_6 3.148388 1_545
Mg3_5 Si5_1 2.718042 1_555
Mg3_5 Si5_7 2.718042 1_545
Mg3_5 Si1_1 2.950100 1_555
Mg3_5 Si1_7 2.950100 1_545
Mg3_5 Si2_1 2.979226 1_555
Mg3_5 Si2_7 2.979226 1_545
Mg3_5 Si7_0 3.115828 1_555
Mg3_5 Si7_6 3.115828 1_545
Mg3_5 Si6_7 3.148388 1_545
Mg3_5 Si6_1 3.148388 1_555
Mg3_6 Si5_4 2.718042 1_555
Mg3_6 Si5_2 2.718042 1_555
Mg3_6 Si1_2 2.950100 1_555
Mg3_6 Si1_4 2.950100 1_555
Mg3_6 Si2_2 2.979226 1_555
Mg3_6 Si2_4 2.979226 1_555
Mg3_6 Si7_3 3.115828 1_554
Mg3_6 Si7_5 3.115828 1_554
Mg3_6 Si6_2 3.148388 1_555
Mg3_6 Si6_4 3.148388 1_555
Mg3_7 Si5_5 2.718042 1_555
Mg3_7 Si5_3 2.718042 1_555
Mg3_7 Si1_3 2.950100 1_555
Mg3_7 Si1_5 2.950100 1_555
Mg3_7 Si2_3 2.979226 1_555
Mg3_7 Si2_5 2.979226 1_555
Mg3_7 Si7_4 3.115828 1_555
Mg3_7 Si7_2 3.115828 1_555
Mg3_7 Si6_5 3.148388 1_555
Mg3_7 Si6_3 3.148388 1_555
Mg4_0 Si3_4 2.721010 1_555
Mg4_0 Si3_2 2.721010 1_555
Mg4_0 Si0_4 2.722047 1_555
Mg4_0 Si0_2 2.722047 1_555
Mg4_0 Si4_0 2.861437 1_555
Mg4_1 Si3_5 2.721010 1_555
Mg4_1 Si3_3 2.721010 1_555
Mg4_1 Si0_5 2.722047 1_555
Mg4_1 Si0_3 2.722047 1_555
Mg4_1 Si4_1 2.861437 1_555
Mg4_2 Si3_0 2.721010 1_565
Mg4_2 Si3_6 2.721010 1_555
Mg4_2 Si0_0 2.722047 1_565
Mg4_2 Si0_6 2.722047 1_555
Mg4_2 Si4_2 2.861437 1_555
Mg4_3 Si3_1 2.721010 1_565
Mg4_3 Si3_7 2.721010 1_555
Mg4_3 Si0_1 2.722047 1_565
Mg4_3 Si0_7 2.722047 1_555
Mg4_3 Si4_3 2.861437 1_555
Mg4_4 Si3_6 2.721010 1_555
Mg4_4 Si3_0 2.721010 1_655
Mg4_4 Si0_0 2.722047 1_655
Mg4_4 Si0_6 2.722047 1_555
Mg4_4 Si4_4 2.861437 1_555
Mg4_5 Si3_1 2.721010 1_655
Mg4_5 Si3_7 2.721010 1_555
Mg4_5 Si0_1 2.722047 1_655
Mg4_5 Si0_7 2.722047 1_555
Mg4_5 Si4_5 2.861437 1_555
Mg4_6 Si3_4 2.721010 1_565
Mg4_6 Si3_2 2.721010 1_655
Mg4_6 Si0_2 2.722047 1_655
Mg4_6 Si0_4 2.722047 1_565
Mg4_6 Si4_6 2.861437 1_555
Mg4_7 Si3_3 2.721010 1_655
Mg4_7 Si3_5 2.721010 1_565
Mg4_7 Si0_3 2.722047 1_655
Mg4_7 Si0_5 2.722047 1_565
Mg4_7 Si4_7 2.861437 1_555
Mg5_0 Si6_4 2.940298 1_555
Mg5_0 Si6_2 2.940298 1_555
Mg5_0 Si7_4 2.942453 1_555
Mg5_0 Si7_2 2.942453 1_555
Mg5_0 Si3_2 3.177671 1_555
Mg5_0 Si3_4 3.177671 1_555
Mg5_1 Si6_5 2.940298 1_555
Mg5_1 Si6_3 2.940298 1_555
Mg5_1 Si7_5 2.942453 1_555
Mg5_1 Si7_3 2.942453 1_555
Mg5_1 Si3_3 3.177671 1_555
Mg5_1 Si3_5 3.177671 1_555
Mg5_2 Si6_0 2.940298 1_565
Mg5_2 Si6_6 2.940298 1_555
Mg5_2 Si7_0 2.942453 1_565
Mg5_2 Si7_6 2.942453 1_555
Mg5_2 Si3_6 3.177671 1_555
Mg5_2 Si3_0 3.177671 1_565
Mg5_3 Si6_1 2.940298 1_565
Mg5_3 Si6_7 2.940298 1_555
Mg5_3 Si7_1 2.942453 1_565
Mg5_3 Si7_7 2.942453 1_555
Mg5_3 Si3_7 3.177671 1_555
Mg5_3 Si3_1 3.177671 1_565
Mg5_4 Si6_0 2.940298 1_655
Mg5_4 Si6_6 2.940298 1_555
Mg5_4 Si7_6 2.942453 1_555
Mg5_4 Si7_0 2.942453 1_655
Mg5_4 Si3_6 3.177671 1_555
Mg5_4 Si3_0 3.177671 1_655
Mg5_5 Si6_1 2.940298 1_655
Mg5_5 Si6_7 2.940298 1_555
Mg5_5 Si7_7 2.942453 1_555
Mg5_5 Si7_1 2.942453 1_655
Mg5_5 Si3_7 3.177671 1_555
Mg5_5 Si3_1 3.177671 1_655
Mg5_6 Si6_4 2.940298 1_565
Mg5_6 Si6_2 2.940298 1_655
Mg5_6 Si7_4 2.942453 1_565
Mg5_6 Si7_2 2.942453 1_655
Mg5_6 Si3_2 3.177671 1_655
Mg5_6 Si3_4 3.177671 1_565
Mg5_7 Si6_5 2.940298 1_565
Mg5_7 Si6_3 2.940298 1_655
Mg5_7 Si7_3 2.942453 1_655
Mg5_7 Si7_5 2.942453 1_565
Mg5_7 Si3_3 3.177671 1_655
Mg5_7 Si3_5 3.177671 1_565
Si0_0 Si1_0 2.390304 1_555
Si0_1 Si1_1 2.390304 1_555
Si0_2 Si1_2 2.390304 1_555
Si0_3 Si1_3 2.390304 1_555
Si0_4 Si1_4 2.390304 1_555
Si0_5 Si1_5 2.390304 1_555
Si0_6 Si1_6 2.390304 1_555
Si0_7 Si1_7 2.390304 1_555
Si1_0 Si6_0 2.482435 1_555
Si1_0 Si2_0 2.519662 1_555
Si1_0 Si1_6 2.874068 1_545
Si1_0 Si1_6 2.874068 1_455
Si1_1 Si6_1 2.482435 1_555
Si1_1 Si2_1 2.519662 1_555
Si1_1 Si1_7 2.874068 1_545
Si1_1 Si1_7 2.874068 1_455
Si1_2 Si6_2 2.482435 1_555
Si1_2 Si2_2 2.519662 1_555
Si1_2 Si1_4 2.874068 1_555
Si1_2 Si1_4 2.874068 1_465
Si1_3 Si6_3 2.482435 1_555
Si1_3 Si2_3 2.519662 1_555
Si1_3 Si1_5 2.874068 1_555
Si1_3 Si1_5 2.874068 1_465
Si1_4 Si6_4 2.482435 1_555
Si1_4 Si2_4 2.519662 1_555
Si1_5 Si6_5 2.482435 1_555
Si1_5 Si2_5 2.519662 1_555
Si1_6 Si6_6 2.482435 1_555
Si1_6 Si2_6 2.519662 1_555
Si1_7 Si6_7 2.482435 1_555
Si1_7 Si2_7 2.519662 1_555
Si2_0 Si3_1 2.402923 1_554
Si2_0 Si7_1 2.478853 1_554
Si2_0 Si2_6 2.874068 1_545
Si2_0 Si2_6 2.874068 1_455
Si2_1 Si3_0 2.402923 1_555
Si2_1 Si7_0 2.478853 1_555
Si2_1 Si2_7 2.874068 1_455
Si2_1 Si2_7 2.874068 1_545
Si2_2 Si3_3 2.402923 1_554
Si2_2 Si7_3 2.478853 1_554
Si2_2 Si2_4 2.874068 1_555
Si2_2 Si2_4 2.874068 1_465
Si2_3 Si3_2 2.402923 1_555
Si2_3 Si7_2 2.478853 1_555
Si2_3 Si2_5 2.874068 1_555
Si2_3 Si2_5 2.874068 1_465
Si2_4 Si3_5 2.402923 1_554
Si2_4 Si7_5 2.478853 1_554
Si2_5 Si3_4 2.402923 1_555
Si2_5 Si7_4 2.478853 1_555
Si2_6 Si3_7 2.402923 1_554
Si2_6 Si7_7 2.478853 1_554
Si2_7 Si3_6 2.402923 1_555
Si2_7 Si7_6 2.478853 1_555
Si3_0 Si3_6 2.874068 1_455
Si3_0 Si3_6 2.874068 1_545
Si3_1 Si3_7 2.874068 1_545
Si3_1 Si3_7 2.874068 1_455
Si3_2 Si3_4 2.874068 1_555
Si3_2 Si3_4 2.874068 1_465
Si3_3 Si3_5 2.874068 1_555
Si3_3 Si3_5 2.874068 1_465
Si4_0 Si6_0 2.491910 1_555
Si4_0 Si7_0 2.533231 1_555
Si4_0 Si4_6 2.874068 1_545
Si4_0 Si4_6 2.874068 1_455
Si4_1 Si6_1 2.491910 1_555
Si4_1 Si7_1 2.533231 1_555
Si4_1 Si4_7 2.874068 1_455
Si4_1 Si4_7 2.874068 1_545
Si4_2 Si6_2 2.491910 1_555
Si4_2 Si7_2 2.533231 1_555
Si4_2 Si4_4 2.874068 1_465
Si4_2 Si4_4 2.874068 1_555
Si4_3 Si6_3 2.491910 1_555
Si4_3 Si7_3 2.533231 1_555
Si4_3 Si4_5 2.874068 1_465
Si4_3 Si4_5 2.874068 1_555
Si4_4 Si6_4 2.491910 1_555
Si4_4 Si7_4 2.533231 1_555
Si4_5 Si6_5 2.491910 1_555
Si4_5 Si7_5 2.533231 1_555
Si4_6 Si6_6 2.491910 1_555
Si4_6 Si7_6 2.533231 1_555
Si4_7 Si6_7 2.491910 1_555
Si4_7 Si7_7 2.533231 1_555
Si6_0 Si6_6 2.874068 1_455
Si6_0 Si6_6 2.874068 1_545
Si6_1 Si6_7 2.874068 1_455
Si6_1 Si6_7 2.874068 1_545
Si6_2 Si6_4 2.874068 1_555
Si6_2 Si6_4 2.874068 1_465
Si6_3 Si6_5 2.874068 1_555
Si6_3 Si6_5 2.874068 1_465
Si7_0 Si7_6 2.874068 1_545
Si7_0 Si7_6 2.874068 1_455
Si7_1 Si7_7 2.874068 1_455
Si7_1 Si7_7 2.874068 1_545
Si7_2 Si7_4 2.874068 1_555
Si7_2 Si7_4 2.874068 1_465
Si7_3 Si7_5 2.874068 1_555
Si7_3 Si7_5 2.874068 1_465
