# generated using pymatgen
data_Ba3NaSm3(Si3O10)2
_symmetry_space_group_name_H-M   'P 1'
_cell_length_a   5.62404200
_cell_length_b   12.44749904
_cell_length_c   14.93099300
_cell_angle_alpha   90.00000000
_cell_angle_beta   90.00000000
_cell_angle_gamma   103.05642587
_symmetry_Int_Tables_number   1
_chemical_formula_structural   Ba3NaSm3(Si3O10)2
_chemical_formula_sum   'Ba6 Na2 Sm6 Si12 O40'
_cell_volume   1018.22631585
_cell_formula_units_Z   2
loop_
 _symmetry_equiv_pos_site_id
 _symmetry_equiv_pos_as_xyz
  1  'x, y, z'
loop_
 _atom_site_type_symbol
 _atom_site_label
 _atom_site_symmetry_multiplicity
 _atom_site_fract_x
 _atom_site_fract_y
 _atom_site_fract_z
 _atom_site_occupancy
  Ba  Ba0  1  0.84926900  0.83614400  0.25000000  1
  Ba  Ba1  1  0.01312500  0.16385600  0.75000000  1
  Ba  Ba2  1  0.17442300  0.48633900  0.88654800  1
  Ba  Ba3  1  0.68808400  0.51366100  0.11345200  1
  Ba  Ba4  1  0.17442300  0.48633900  0.61345200  1
  Ba  Ba5  1  0.68808400  0.51366100  0.38654800  1
  Na  Na0  1  0.24517500  0.77739800  0.75000000  1
  Na  Na1  1  0.46777700  0.22260200  0.25000000  1
  Sm  Sm0  1  0.39309600  0.77874400  0.03064200  1
  Sm  Sm1  1  0.61435200  0.22125600  0.96935800  1
  Sm  Sm2  1  0.39309600  0.77874400  0.46935800  1
  Sm  Sm3  1  0.61435200  0.22125600  0.53064200  1
  Sm  Sm4  1  0.00507700  0.00000000  0.00000000  1
  Sm  Sm5  1  0.00507700  0.00000000  0.50000000  1
  Si  Si0  1  0.28247500  0.63947900  0.25000000  1
  Si  Si1  1  0.64299600  0.36052100  0.75000000  1
  Si  Si2  1  0.81169600  0.69695300  0.94264400  1
  Si  Si3  1  0.11474300  0.30304700  0.05735600  1
  Si  Si4  1  0.81169600  0.69695300  0.55735600  1
  Si  Si5  1  0.11474300  0.30304700  0.44264400  1
  Si  Si6  1  0.44271700  0.00128400  0.86011200  1
  Si  Si7  1  0.44143300  0.99871600  0.13988800  1
  Si  Si8  1  0.44271700  0.00128400  0.63988800  1
  Si  Si9  1  0.44143300  0.99871600  0.36011200  1
  Si  Si10  1  0.71454500  0.62010700  0.75000000  1
  Si  Si11  1  0.09443700  0.37989300  0.25000000  1
  O  O0  1  0.78928500  0.82171400  0.96735400  1
  O  O1  1  0.96757100  0.17828600  0.03264600  1
  O  O2  1  0.78928500  0.82171400  0.53264600  1
  O  O3  1  0.96757100  0.17828600  0.46735400  1
  O  O4  1  0.54162100  0.62171100  0.96810300  1
  O  O5  1  0.91991000  0.37828900  0.03189700  1
  O  O6  1  0.54162100  0.62171100  0.53189700  1
  O  O7  1  0.91991000  0.37828900  0.46810300  1
  O  O8  1  0.43319200  0.97396300  0.75000000  1
  O  O9  1  0.45922900  0.02603700  0.25000000  1
  O  O10  1  0.87574400  0.68480800  0.83453000  1
  O  O11  1  0.19093600  0.31519200  0.16547000  1
  O  O12  1  0.87574400  0.68480800  0.66547000  1
  O  O13  1  0.19093600  0.31519200  0.33453000  1
  O  O14  1  0.28866800  0.50296400  0.25000000  1
  O  O15  1  0.78570400  0.49703600  0.75000000  1
  O  O16  1  0.72360000  0.05380200  0.89159400  1
  O  O17  1  0.66979800  0.94619800  0.10840600  1
  O  O18  1  0.72360000  0.05380200  0.60840600  1
  O  O19  1  0.66979800  0.94619800  0.39159400  1
  O  O20  1  0.02456200  0.65414000  0.99699300  1
  O  O21  1  0.37042200  0.34586000  0.00300700  1
  O  O22  1  0.02456200  0.65414000  0.50300700  1
  O  O23  1  0.37042200  0.34586000  0.49699300  1
  O  O24  1  0.44611500  0.68942200  0.16213500  1
  O  O25  1  0.75669200  0.31057800  0.83786500  1
  O  O26  1  0.44611500  0.68942200  0.33786500  1
  O  O27  1  0.75669200  0.31057800  0.66213500  1
  O  O28  1  0.19181000  0.90350900  0.11681300  1
  O  O29  1  0.28830100  0.09649100  0.88318700  1
  O  O30  1  0.19181000  0.90350900  0.38318700  1
  O  O31  1  0.28830100  0.09649100  0.61681300  1
  O  O32  1  0.99832200  0.64644900  0.25000000  1
  O  O33  1  0.35187300  0.35355100  0.75000000  1
  O  O34  1  0.30483200  0.89089700  0.91354400  1
  O  O35  1  0.41393500  0.10910300  0.08645600  1
  O  O36  1  0.30483200  0.89089700  0.58645600  1
  O  O37  1  0.41393500  0.10910300  0.41354400  1
  O  O38  1  0.42971100  0.61837900  0.75000000  1
  O  O39  1  0.81133200  0.38162100  0.25000000  1
loop_
_geom_bond_atom_site_label_1
_geom_bond_atom_site_label_2
_geom_bond_distance
_geom_bond_site_symmetry_2
Ba0 O32 2.678140 1_555
Ba0 O30 2.763894 1_655
Ba0 O28 2.763894 1_655
Ba0 O19 2.826611 1_555
Ba0 O17 2.826611 1_555
Ba0 O24 2.885569 1_555
Ba0 O26 2.885569 1_555
Ba1 O33 2.678140 1_555
Ba1 O29 2.763894 1_555
Ba1 O31 2.763894 1_555
Ba1 O16 2.826611 1_455
Ba1 O18 2.826611 1_455
Ba1 O27 2.885573 1_455
Ba1 O25 2.885573 1_455
Ba2 O4 2.648524 1_555
Ba2 O5 2.774481 1_456
Ba2 O38 2.802357 1_555
Ba2 O21 2.857833 1_556
Ba2 O25 2.917509 1_455
Ba2 O20 2.930495 1_555
Ba2 O33 2.937683 1_555
Ba2 O15 3.014182 1_455
Ba3 O5 2.648524 1_555
Ba3 O4 2.774481 1_554
Ba3 O39 2.802357 1_555
Ba3 O20 2.857833 1_654
Ba3 O24 2.917505 1_555
Ba3 O21 2.930495 1_555
Ba3 O32 2.937683 1_555
Ba3 O14 3.014182 1_555
Ba4 O6 2.648524 1_555
Ba4 O7 2.774481 1_455
Ba4 O38 2.802357 1_555
Ba4 O23 2.857833 1_555
Ba4 O27 2.917509 1_455
Ba4 O22 2.930495 1_555
Ba4 O33 2.937683 1_555
Ba4 O15 3.014182 1_455
Ba5 O7 2.648524 1_555
Ba5 O6 2.774481 1_555
Ba5 O39 2.802357 1_555
Ba5 O22 2.857833 1_655
Ba5 O26 2.917505 1_555
Ba5 O23 2.930495 1_555
Ba5 O32 2.937683 1_555
Ba5 O14 3.014182 1_555
Na0 O38 2.433774 1_555
Na0 O8 2.436332 1_555
Na0 O12 2.481154 1_455
Na0 O10 2.481154 1_455
Na0 O34 2.803051 1_555
Na0 O36 2.803051 1_555
Na1 O39 2.433774 1_555
Na1 O9 2.436332 1_555
Na1 O13 2.481154 1_555
Na1 O11 2.481154 1_555
Na1 O35 2.803051 1_555
Na1 O37 2.803051 1_555
O0 Si2 1.628538 1_555
O0 Sm4 2.327768 1_666
O0 Sm0 2.367562 1_556
O1 Si3 1.628538 1_655
O1 Sm4 2.327768 1_655
O1 Sm1 2.367562 1_554
O2 Si4 1.628538 1_555
O2 Sm5 2.327768 1_665
O2 Sm2 2.367562 1_555
O3 Si5 1.628538 1_655
O3 Sm5 2.327768 1_655
O3 Sm3 2.367562 1_555
O4 Si2 1.638907 1_555
O4 Sm0 2.475502 1_556
O5 Si3 1.638907 1_655
O5 Sm1 2.475502 1_554
O6 Si4 1.638907 1_555
O6 Sm2 2.475502 1_555
O7 Si5 1.638907 1_655
O7 Sm3 2.475502 1_555
O8 Si8 1.677288 1_565
O8 Si6 1.677288 1_565
O9 Si7 1.677288 1_545
O9 Si9 1.677288 1_545
O10 Si10 1.653350 1_555
O10 Si2 1.668235 1_555
O11 Si11 1.653353 1_555
O11 Si3 1.668235 1_555
O12 Si10 1.653350 1_555
O12 Si4 1.668235 1_555
O13 Si11 1.653353 1_555
O13 Si5 1.668235 1_555
O14 Si11 1.668523 1_555
O14 Si0 1.707476 1_555
O15 Si10 1.668520 1_555
O15 Si1 1.707476 1_555
O16 Si6 1.636203 1_555
O16 Sm4 2.460368 1_656
O16 Sm1 2.578553 1_555
O17 Si7 1.636203 1_555
O17 Sm4 2.460368 1_665
O17 Sm0 2.578553 1_555
O18 Si8 1.636203 1_555
O18 Sm5 2.460368 1_655
O18 Sm3 2.578553 1_555
O19 Si9 1.636203 1_555
O19 Sm5 2.460368 1_665
O19 Sm2 2.578553 1_555
O20 Si2 1.632168 1_455
O20 Sm0 2.345519 1_556
O21 Si3 1.632168 1_555
O21 Sm1 2.345519 1_554
O22 Si4 1.632168 1_455
O22 Sm2 2.345519 1_555
O23 Si5 1.632168 1_555
O23 Sm3 2.345519 1_555
O24 Si0 1.641970 1_555
O24 Sm0 2.308573 1_555
O25 Si1 1.641967 1_555
O25 Sm1 2.308572 1_555
O26 Si0 1.641970 1_555
O26 Sm2 2.308573 1_555
O27 Si1 1.641967 1_555
O27 Sm3 2.308572 1_555
O28 Si7 1.656000 1_555
O28 Sm0 2.478525 1_555
O28 Sm4 2.481409 1_565
O29 Si6 1.656000 1_555
O29 Sm1 2.478525 1_555
O29 Sm4 2.481409 1_556
O30 Si9 1.656000 1_555
O30 Sm2 2.478525 1_555
O30 Sm5 2.481409 1_565
O31 Si8 1.656000 1_555
O31 Sm3 2.478525 1_555
O31 Sm5 2.481409 1_555
O32 Si0 1.619894 1_655
O33 Si1 1.619894 1_555
O34 Si6 1.626159 1_565
O34 Sm0 2.359082 1_556
O34 Sm4 2.717931 1_566
O35 Si7 1.626159 1_545
O35 Sm1 2.359082 1_554
O35 Sm4 2.717931 1_555
O36 Si8 1.626159 1_565
O36 Sm2 2.359082 1_555
O36 Sm5 2.717931 1_565
O37 Si9 1.626159 1_545
O37 Sm3 2.359082 1_555
O37 Sm5 2.717931 1_555
O38 Si10 1.597197 1_555
O39 Si11 1.597191 1_655
