# generated using pymatgen
data_RbSm2Ag3Te5
_symmetry_space_group_name_H-M   'P 1'
_cell_length_a   4.61071437
_cell_length_b   8.37796855
_cell_length_c   18.69063953
_cell_angle_alpha   90.00000000
_cell_angle_beta   90.00000000
_cell_angle_gamma   105.97208543
_symmetry_Int_Tables_number   1
_chemical_formula_structural   RbSm2Ag3Te5
_chemical_formula_sum   'Rb2 Sm4 Ag6 Te10'
_cell_volume   694.11808494
_cell_formula_units_Z   2
loop_
 _symmetry_equiv_pos_site_id
 _symmetry_equiv_pos_as_xyz
  1  'x, y, z'
loop_
 _atom_site_type_symbol
 _atom_site_label
 _atom_site_symmetry_multiplicity
 _atom_site_fract_x
 _atom_site_fract_y
 _atom_site_fract_z
 _atom_site_occupancy
  Rb  Rb0  1  0.44185932  0.88371865  0.25000000  1
  Rb  Rb1  1  0.55814068  0.11628135  0.75000000  1
  Sm  Sm0  1  0.30951943  0.61903987  0.90556318  1
  Sm  Sm1  1  0.69048057  0.38096013  0.09443682  1
  Sm  Sm2  1  0.30951943  0.61903987  0.59443682  1
  Sm  Sm3  1  0.69048057  0.38096013  0.40556318  1
  Ag  Ag0  1  0.16380656  0.32761312  0.25000000  1
  Ag  Ag1  1  0.83619344  0.67238688  0.75000000  1
  Ag  Ag2  1  0.91405863  0.82811726  0.47307378  1
  Ag  Ag3  1  0.08594137  0.17188274  0.52692622  1
  Ag  Ag4  1  0.91405863  0.82811726  0.02692622  1
  Ag  Ag5  1  0.08594137  0.17188274  0.97307378  1
  Te  Te0  1  0.94092195  0.88184490  0.87731895  1
  Te  Te1  1  0.05907805  0.11815510  0.12268105  1
  Te  Te2  1  0.94092195  0.88184490  0.62268105  1
  Te  Te3  1  0.05907805  0.11815510  0.37731895  1
  Te  Te4  1  0.67276926  0.34553853  0.92752506  1
  Te  Te5  1  0.32723074  0.65446147  0.07247494  1
  Te  Te6  1  0.67276926  0.34553853  0.57247494  1
  Te  Te7  1  0.32723074  0.65446147  0.42752506  1
  Te  Te8  1  0.76027390  0.52054781  0.25000000  1
  Te  Te9  1  0.23972610  0.47945219  0.75000000  1
loop_
_geom_bond_atom_site_label_1
_geom_bond_atom_site_label_2
_geom_bond_distance
_geom_bond_site_symmetry_2
Rb0 Te8 3.724423 1_455
Rb0 Te8 3.724423 1_555
Rb0 Te5 3.797274 1_555
Rb0 Te7 3.797274 1_555
Rb0 Te3 3.813542 1_565
Rb0 Te1 3.813542 1_565
Rb0 Te1 3.813544 1_665
Rb0 Te3 3.813544 1_665
Rb1 Te9 3.724423 1_655
Rb1 Te9 3.724423 1_555
Rb1 Te4 3.797274 1_555
Rb1 Te6 3.797274 1_555
Rb1 Te0 3.813542 1_545
Rb1 Te2 3.813542 1_545
Rb1 Te0 3.813544 1_445
Rb1 Te2 3.813544 1_445
Sm0 Te9 3.117383 1_555
Sm0 Te5 3.132706 1_556
Sm0 Te0 3.173970 1_455
Sm0 Te0 3.173970 1_555
Sm0 Te4 3.214973 1_455
Sm0 Te4 3.214976 1_555
Sm1 Te8 3.117383 1_555
Sm1 Te4 3.132706 1_554
Sm1 Te1 3.173970 1_655
Sm1 Te1 3.173970 1_555
Sm1 Te5 3.214973 1_655
Sm1 Te5 3.214976 1_555
Sm2 Te9 3.117383 1_555
Sm2 Te7 3.132706 1_555
Sm2 Te2 3.173970 1_455
Sm2 Te2 3.173970 1_555
Sm2 Te6 3.214973 1_455
Sm2 Te6 3.214976 1_555
Sm3 Te8 3.117383 1_555
Sm3 Te6 3.132706 1_555
Sm3 Te3 3.173970 1_655
Sm3 Te3 3.173970 1_555
Sm3 Te7 3.214973 1_655
Sm3 Te7 3.214976 1_555
Ag0 Te8 2.780214 1_555
Ag0 Te8 2.780214 1_455
Ag0 Te3 2.917038 1_555
Ag0 Te1 2.917038 1_555
Ag1 Te9 2.780214 1_555
Ag1 Te9 2.780214 1_655
Ag1 Te2 2.917038 1_555
Ag1 Te0 2.917038 1_555
Ag2 Te7 2.827694 1_555
Ag2 Te7 2.827694 1_655
Ag2 Te2 2.829544 1_555
Ag2 Te3 2.942883 1_665
Ag3 Te6 2.827694 1_555
Ag3 Te6 2.827694 1_455
Ag3 Te3 2.829544 1_555
Ag3 Te2 2.942883 1_445
Ag4 Te5 2.827694 1_555
Ag4 Te5 2.827694 1_655
Ag4 Te0 2.829544 1_554
Ag4 Te1 2.942883 1_665
Ag5 Te4 2.827694 1_555
Ag5 Te4 2.827694 1_455
Ag5 Te1 2.829544 1_556
Ag5 Te0 2.942883 1_445
