# generated using pymatgen
data_Mg3(PO4)2
_symmetry_space_group_name_H-M   'P 1'
_cell_length_a   8.19086013
_cell_length_b   5.07976372
_cell_length_c   8.83383315
_cell_angle_alpha   59.00231512
_cell_angle_beta   90.00000000
_cell_angle_gamma   90.00000000
_symmetry_Int_Tables_number   1
_chemical_formula_structural   Mg3(PO4)2
_chemical_formula_sum   'Mg6 P4 O16'
_cell_volume   315.06368877
_cell_formula_units_Z   2
loop_
 _symmetry_equiv_pos_site_id
 _symmetry_equiv_pos_as_xyz
  1  'x, y, z'
loop_
 _atom_site_type_symbol
 _atom_site_label
 _atom_site_symmetry_multiplicity
 _atom_site_fract_x
 _atom_site_fract_y
 _atom_site_fract_z
 _atom_site_occupancy
  Mg  Mg0  1  0.85661959  0.51202014  0.39124825  1
  Mg  Mg1  1  0.35661959  0.48797986  0.10875175  1
  Mg  Mg2  1  0.14338041  0.48797986  0.60875175  1
  Mg  Mg3  1  0.64338041  0.51202014  0.89124825  1
  Mg  Mg4  1  0.50000000  0.50000000  0.50000000  1
  Mg  Mg5  1  0.00000000  0.50000000  -0.00000000  1
  P  P0  1  0.80477709  0.16317455  0.80066431  1
  P  P1  1  0.30477709  0.83682545  0.69933569  1
  P  P2  1  0.19522291  0.83682545  0.19933569  1
  P  P3  1  0.69522291  0.16317455  0.30066431  1
  O  O0  1  0.57533724  0.30710919  0.14476426  1
  O  O1  1  0.07533724  0.69289081  0.35523574  1
  O  O2  1  0.42466276  0.69289081  0.85523574  1
  O  O3  1  0.92466276  0.30710919  0.64476426  1
  O  O4  1  0.86462013  0.31729543  0.23877827  1
  O  O5  1  0.36462013  0.68270457  0.26122173  1
  O  O6  1  0.13537987  0.68270457  0.76122173  1
  O  O7  1  0.63537987  0.31729543  0.73877827  1
  O  O8  1  0.69905317  0.81718749  0.37643297  1
  O  O9  1  0.19905317  0.18281251  0.12356703  1
  O  O10  1  0.85521633  0.23961272  0.94099514  1
  O  O11  1  0.35521633  0.76038728  0.55900486  1
  O  O12  1  0.14478367  0.76038728  0.05900486  1
  O  O13  1  0.64478367  0.23961272  0.44099514  1
  O  O14  1  0.80094683  0.81718749  0.87643297  1
  O  O15  1  0.30094683  0.18281251  0.62356703  1
loop_
_geom_bond_atom_site_label_1
_geom_bond_atom_site_label_2
_geom_bond_distance
_geom_bond_site_symmetry_2
Mg0 O1 1.963090 1_655
Mg0 O8 1.968977 1_555
Mg0 O3 2.002116 1_555
Mg0 O4 2.041841 1_555
Mg0 O13 2.119484 1_555
Mg1 O0 1.963090 1_555
Mg1 O9 1.968977 1_555
Mg1 O2 2.002116 1_554
Mg1 O5 2.041841 1_555
Mg1 O12 2.119484 1_555
Mg2 O3 1.963090 1_455
Mg2 O15 1.968977 1_555
Mg2 O1 2.002116 1_555
Mg2 O6 2.041841 1_555
Mg2 O11 2.119484 1_555
Mg3 O2 1.963090 1_555
Mg3 O14 1.968977 1_555
Mg3 O0 2.002116 1_556
Mg3 O7 2.041841 1_555
Mg3 O10 2.119484 1_555
Mg4 O11 2.034144 1_555
Mg4 O13 2.034144 1_555
Mg4 O5 2.126930 1_555
Mg4 O7 2.126930 1_555
Mg4 O8 2.152746 1_555
Mg4 O15 2.152746 1_555
Mg5 O12 2.034144 1_555
Mg5 O10 2.034144 1_454
Mg5 O6 2.126930 1_554
Mg5 O4 2.126930 1_455
Mg5 O9 2.152746 1_555
Mg5 O14 2.152746 1_454
O0 P3 1.535693 1_555
O1 P2 1.535693 1_555
O2 P1 1.535693 1_555
O3 P0 1.535693 1_555
O4 P3 1.547945 1_555
O5 P2 1.547945 1_555
O6 P1 1.547945 1_555
O7 P0 1.547945 1_555
O8 P3 1.525202 1_565
O9 P2 1.525202 1_545
O10 P0 1.534274 1_555
O11 P1 1.534274 1_555
O12 P2 1.534274 1_555
O13 P3 1.534274 1_555
O14 P0 1.525202 1_565
O15 P1 1.525202 1_545
