# generated using pymatgen
data_Na2Ga2GeS6
_symmetry_space_group_name_H-M   'P 1'
_cell_length_a   13.11894208
_cell_length_b   12.07936356
_cell_length_c   7.31366506
_cell_angle_alpha   81.11362739
_cell_angle_beta   65.46465169
_cell_angle_gamma   33.42172093
_symmetry_Int_Tables_number   1
_chemical_formula_structural   Na2Ga2GeS6
_chemical_formula_sum   'Na4 Ga4 Ge2 S12'
_cell_volume   536.34491877
_cell_formula_units_Z   2
loop_
 _symmetry_equiv_pos_site_id
 _symmetry_equiv_pos_as_xyz
  1  'x, y, z'
loop_
 _atom_site_type_symbol
 _atom_site_label
 _atom_site_symmetry_multiplicity
 _atom_site_fract_x
 _atom_site_fract_y
 _atom_site_fract_z
 _atom_site_occupancy
  Na  Na0  1  0.53244100  0.87710800  0.30245500  1
  Na  Na1  1  0.28799600  0.30245500  0.87710800  1
  Na  Na2  1  0.94754500  0.96200400  0.71755900  1
  Na  Na3  1  0.37289200  0.71755900  0.96200400  1
  Ga  Ga0  1  0.94813000  0.28416300  0.82479400  1
  Ga  Ga1  1  0.94291300  0.82479400  0.28416300  1
  Ga  Ga2  1  0.42520600  0.30708700  0.30187000  1
  Ga  Ga3  1  0.96583700  0.30187000  0.30708700  1
  Ge  Ge0  1  0.91706100  0.58293900  0.58293900  1
  Ge  Ge1  1  0.66706100  0.33293900  0.33293900  1
  S  S0  1  0.71271900  0.63820200  0.88005700  1
  S  S1  1  0.76902200  0.88005700  0.63820200  1
  S  S2  1  0.36994300  0.48097800  0.53728100  1
  S  S3  1  0.61179800  0.53728100  0.48097800  1
  S  S4  1  0.15127600  0.07523100  0.47099100  1
  S  S5  1  0.30250200  0.47099100  0.07523100  1
  S  S6  1  0.77900900  0.94749800  0.09872400  1
  S  S7  1  0.17476900  0.09872400  0.94749800  1
  S  S8  1  0.72097200  0.32331000  0.99667200  1
  S  S9  1  0.95904600  0.99667200  0.32331000  1
  S  S10  1  0.25332800  0.29095400  0.52902800  1
  S  S11  1  0.92669000  0.52902800  0.29095400  1
loop_
_geom_bond_atom_site_label_1
_geom_bond_atom_site_label_2
_geom_bond_distance
_geom_bond_site_symmetry_2
Na0 S11 2.807715 1_555
Na0 S4 2.840325 1_565
Na0 S10 2.847476 1_565
Na0 S0 2.959467 1_554
Na1 S10 2.807715 1_555
Na1 S5 2.840325 1_556
Na1 S11 2.847476 1_456
Na1 S1 2.959467 1_545
Na2 S9 2.807715 1_555
Na2 S6 2.840325 1_556
Na2 S8 2.847476 1_565
Na2 S2 2.959467 1_655
Na3 S8 2.807715 1_555
Na3 S7 2.840325 1_565
Na3 S9 2.847476 1_456
Na3 S3 2.959467 1_555
Ga0 S7 2.267298 1_655
Ga0 S4 2.287001 1_655
Ga0 S8 2.324815 1_555
Ga0 S0 2.332507 1_555
Ga1 S6 2.267298 1_555
Ga1 S5 2.287001 1_655
Ga1 S9 2.324815 1_555
Ga1 S1 2.332507 1_555
Ga2 S5 2.267298 1_555
Ga2 S6 2.287001 1_545
Ga2 S10 2.324815 1_555
Ga2 S2 2.332507 1_555
Ga3 S4 2.267298 1_655
Ga3 S7 2.287001 1_654
Ga3 S11 2.324815 1_555
Ga3 S3 2.332507 1_555
Ge0 S0 2.230927 1_555
Ge0 S1 2.230927 1_555
Ge0 S11 2.251354 1_555
Ge0 S10 2.251354 1_655
Ge1 S3 2.230927 1_555
Ge1 S2 2.230927 1_555
Ge1 S8 2.251354 1_554
Ge1 S9 2.251354 1_545
