# generated using pymatgen
data_Tm(Mo3Se4)2
_symmetry_space_group_name_H-M   'P 1'
_cell_length_a   6.76071261
_cell_length_b   6.76071261
_cell_length_c   6.76071237
_cell_angle_alpha   89.38552245
_cell_angle_beta   89.38552245
_cell_angle_gamma   89.38551604
_symmetry_Int_Tables_number   1
_chemical_formula_structural   Tm(Mo3Se4)2
_chemical_formula_sum   'Tm1 Mo6 Se8'
_cell_volume   308.96053402
_cell_formula_units_Z   1
loop_
 _symmetry_equiv_pos_site_id
 _symmetry_equiv_pos_as_xyz
  1  'x, y, z'
loop_
 _atom_site_type_symbol
 _atom_site_label
 _atom_site_symmetry_multiplicity
 _atom_site_fract_x
 _atom_site_fract_y
 _atom_site_fract_z
 _atom_site_occupancy
  Tm  Tm0  1  0.00000000  0.00000000  0.00000000  1
  Mo  Mo0  1  0.76712500  0.57726600  0.44144600  1
  Mo  Mo1  1  0.44144600  0.76712500  0.57726600  1
  Mo  Mo2  1  0.57726600  0.44144600  0.76712500  1
  Mo  Mo3  1  0.23287500  0.42273400  0.55855400  1
  Mo  Mo4  1  0.55855400  0.23287500  0.42273400  1
  Mo  Mo5  1  0.42273400  0.55855400  0.23287500  1
  Se  Se0  1  0.76487500  0.76487500  0.76487500  1
  Se  Se1  1  0.23512500  0.23512500  0.23512500  1
  Se  Se2  1  0.24312600  0.63163700  0.87782900  1
  Se  Se3  1  0.87782900  0.24312600  0.63163700  1
  Se  Se4  1  0.63163700  0.87782900  0.24312600  1
  Se  Se5  1  0.75687400  0.36836300  0.12217100  1
  Se  Se6  1  0.12217100  0.75687400  0.36836300  1
  Se  Se7  1  0.36836300  0.12217100  0.75687400  1
loop_
_geom_bond_atom_site_label_1
_geom_bond_atom_site_label_2
_geom_bond_distance
_geom_bond_site_symmetry_2
Mo0 Se0 2.539413 1_555
Mo0 Se4 2.587245 1_555
Mo0 Se5 2.594113 1_555
Mo0 Se3 2.690497 1_555
Mo0 Se6 2.739445 1_655
Mo1 Se0 2.539413 1_555
Mo1 Se2 2.587245 1_555
Mo1 Se6 2.594113 1_555
Mo1 Se4 2.690497 1_555
Mo1 Se7 2.739445 1_565
Mo2 Se0 2.539414 1_555
Mo2 Se3 2.587245 1_555
Mo2 Se7 2.594113 1_555
Mo2 Se2 2.690497 1_555
Mo2 Se5 2.739444 1_556
Mo3 Se1 2.539413 1_555
Mo3 Se7 2.587245 1_555
Mo3 Se2 2.594113 1_555
Mo3 Se6 2.690497 1_555
Mo3 Se3 2.739445 1_455
Mo4 Se1 2.539413 1_555
Mo4 Se5 2.587245 1_555
Mo4 Se3 2.594113 1_555
Mo4 Se7 2.690497 1_555
Mo4 Se4 2.739445 1_545
Mo5 Se1 2.539414 1_555
Mo5 Se6 2.587245 1_555
Mo5 Se4 2.594113 1_555
Mo5 Se5 2.690497 1_555
Mo5 Se2 2.739444 1_554
Se0 Tm0 2.782661 1_666
Se1 Tm0 2.782661 1_555
Se2 Tm0 3.084356 1_566
Se3 Tm0 3.084356 1_656
Se4 Tm0 3.084356 1_665
Se5 Tm0 3.084356 1_655
Se6 Tm0 3.084356 1_565
Se7 Tm0 3.084356 1_556
