# generated using pymatgen
data_YHg2Au
_symmetry_space_group_name_H-M   'P 1'
_cell_length_a   12.28139334
_cell_length_b   12.28139334
_cell_length_c   12.28139334
_cell_angle_alpha   123.19818612
_cell_angle_beta   118.90886716
_cell_angle_gamma   88.22614881
_symmetry_Int_Tables_number   1
_chemical_formula_structural   YHg2Au
_chemical_formula_sum   'Y1 Hg2 Au1'
_cell_volume   1285.99430523
_cell_formula_units_Z   1
loop_
 _symmetry_equiv_pos_site_id
 _symmetry_equiv_pos_as_xyz
  1  'x, y, z'
loop_
 _atom_site_type_symbol
 _atom_site_label
 _atom_site_symmetry_multiplicity
 _atom_site_fract_x
 _atom_site_fract_y
 _atom_site_fract_z
 _atom_site_occupancy
  Y  Y0  1  0.00000000  0.00000000  0.00000000  1
  Hg  Hg0  1  0.00000000  0.26712900  0.26712900  1
  Hg  Hg1  1  0.00000000  0.73287100  0.73287100  1
  Au  Au0  1  0.00000000  0.50000000  0.50000000  1
loop_
_geom_bond_atom_site_label_1
_geom_bond_atom_site_label_2
_geom_bond_distance
_geom_bond_site_symmetry_2
Hg0 Y0 3.120868 1_555
Hg1 Y0 3.120868 1_566
Au0 Hg0 2.720631 1_555
Au0 Hg1 2.720631 1_555
