# generated using pymatgen
data_Zr3Sc4N8
_symmetry_space_group_name_H-M   'P 1'
_cell_length_a   3.30100048
_cell_length_b   3.30100002
_cell_length_c   25.58324442
_cell_angle_alpha   58.92770490
_cell_angle_beta   58.92770905
_cell_angle_gamma   59.99998392
_symmetry_Int_Tables_number   1
_chemical_formula_structural   Zr3Sc4N8
_chemical_formula_sum   'Zr3 Sc4 N8'
_cell_volume   193.86492747
_cell_formula_units_Z   1
loop_
 _symmetry_equiv_pos_site_id
 _symmetry_equiv_pos_as_xyz
  1  'x, y, z'
loop_
 _atom_site_type_symbol
 _atom_site_label
 _atom_site_symmetry_multiplicity
 _atom_site_fract_x
 _atom_site_fract_y
 _atom_site_fract_z
 _atom_site_occupancy
  Zr  Zr0  1  0.01456437  0.01456437  0.36953836  1
  Zr  Zr1  1  -0.00000000  -0.00000000  0.50000000  1
  Zr  Zr2  1  0.98543563  0.98543563  0.63046164  1
  Sc  Sc0  1  0.04999887  0.04999887  0.10625042  1
  Sc  Sc1  1  0.03885614  0.03885614  0.23542895  1
  Sc  Sc2  1  0.96114386  0.96114386  0.76457105  1
  Sc  Sc3  1  0.95000113  0.95000113  0.89374958  1
  N  N0  1  0.47689428  0.47689428  0.07116465  1
  N  N1  1  0.49601833  0.49601833  0.18899313  1
  N  N2  1  0.49894880  0.49894880  0.31289420  1
  N  N3  1  0.50810898  0.50810898  0.43445913  1
  N  N4  1  0.49189102  0.49189102  0.56554087  1
  N  N5  1  0.50105120  0.50105120  0.68710580  1
  N  N6  1  0.50398167  0.50398167  0.81100687  1
  N  N7  1  0.52310572  0.52310572  0.92883535  1
loop_
_geom_bond_atom_site_label_1
_geom_bond_atom_site_label_2
_geom_bond_distance
_geom_bond_site_symmetry_2
N0 Sc0 2.037581 1_565
N0 Sc0 2.037581 1_655
N0 Sc0 2.037582 1_555
N1 Sc1 2.131253 1_565
N1 Sc1 2.131254 1_655
N1 Sc1 2.131254 1_555
N1 Sc0 2.553751 1_565
N1 Sc0 2.553751 1_655
N1 Sc0 2.553752 1_665
N2 Zr0 2.233013 1_565
N2 Zr0 2.233013 1_655
N2 Zr0 2.233013 1_555
N2 Sc1 2.482904 1_565
N2 Sc1 2.482904 1_655
N2 Sc1 2.482905 1_665
N3 Zr0 2.326151 1_655
N3 Zr0 2.326151 1_565
N3 Zr0 2.326152 1_665
N3 Zr1 2.333479 1_565
N3 Zr1 2.333479 1_655
N3 Zr1 2.333479 1_555
N4 Zr2 2.326151 1_455
N4 Zr2 2.326151 1_545
N4 Zr2 2.326152 1_445
N4 Zr1 2.333479 1_655
N4 Zr1 2.333479 1_565
N4 Zr1 2.333479 1_665
N5 Zr2 2.233013 1_545
N5 Zr2 2.233013 1_455
N5 Zr2 2.233013 1_555
N5 Sc2 2.482904 1_545
N5 Sc2 2.482904 1_455
N5 Sc2 2.482905 1_445
N6 Sc2 2.131253 1_545
N6 Sc2 2.131254 1_455
N6 Sc2 2.131254 1_555
N6 Sc3 2.553751 1_545
N6 Sc3 2.553751 1_455
N6 Sc3 2.553752 1_445
N7 Sc3 2.037581 1_545
N7 Sc3 2.037581 1_455
N7 Sc3 2.037582 1_555
