# generated using pymatgen
data_Bi6Se3(BrO7)2
_symmetry_space_group_name_H-M   'P 1'
_cell_length_a   7.23838100
_cell_length_b   11.27055878
_cell_length_c   12.36506835
_cell_angle_alpha   66.91265652
_cell_angle_beta   81.84165661
_cell_angle_gamma   77.98411641
_symmetry_Int_Tables_number   1
_chemical_formula_structural   Bi6Se3(BrO7)2
_chemical_formula_sum   'Bi12 Se6 Br4 O28'
_cell_volume   905.58663413
_cell_formula_units_Z   2
loop_
 _symmetry_equiv_pos_site_id
 _symmetry_equiv_pos_as_xyz
  1  'x, y, z'
loop_
 _atom_site_type_symbol
 _atom_site_label
 _atom_site_symmetry_multiplicity
 _atom_site_fract_x
 _atom_site_fract_y
 _atom_site_fract_z
 _atom_site_occupancy
  Bi  Bi0  1  0.53964300  0.63582000  0.36221300  1
  Bi  Bi1  1  0.46035700  0.36418000  0.63778700  1
  Bi  Bi2  1  0.06615400  0.81217500  0.32710400  1
  Bi  Bi3  1  0.93384600  0.18782500  0.67289600  1
  Bi  Bi4  1  0.13687900  0.45993600  0.37965500  1
  Bi  Bi5  1  0.86312100  0.54006400  0.62034500  1
  Bi  Bi6  1  0.80438100  0.92086900  0.00659400  1
  Bi  Bi7  1  0.19561900  0.07913100  0.99340600  1
  Bi  Bi8  1  0.28856300  0.70697500  0.06815100  1
  Bi  Bi9  1  0.71143700  0.29302500  0.93184900  1
  Bi  Bi10  1  0.31680000  0.75354800  0.61284300  1
  Bi  Bi11  1  0.68320000  0.24645200  0.38715700  1
  Se  Se0  1  0.53257300  0.01352900  0.20523100  1
  Se  Se1  1  0.46742700  0.98647100  0.79476900  1
  Se  Se2  1  0.23998200  0.10851900  0.43170100  1
  Se  Se3  1  0.76001800  0.89148100  0.56829900  1
  Se  Se4  1  0.81539600  0.55232200  0.13484100  1
  Se  Se5  1  0.18460400  0.44767800  0.86515900  1
  Br  Br0  1  0.59586100  0.61062400  0.84171200  1
  Br  Br1  1  0.40413900  0.38937600  0.15828800  1
  Br  Br2  1  0.05684700  0.81027800  0.83473900  1
  Br  Br3  1  0.94315300  0.18972200  0.16526100  1
  O  O0  1  0.79105000  0.46362600  0.28769900  1
  O  O1  1  0.20895000  0.53637400  0.71230100  1
  O  O2  1  0.26639000  0.66902100  0.26071700  1
  O  O3  1  0.73361000  0.33097900  0.73928300  1
  O  O4  1  0.91170500  0.11176200  0.92016000  1
  O  O5  1  0.08829500  0.88823800  0.07984000  1
  O  O6  1  0.95920700  0.62541200  0.42574200  1
  O  O7  1  0.04079300  0.37458800  0.57425800  1
  O  O8  1  0.58721400  0.54529700  0.55981600  1
  O  O9  1  0.41278600  0.45470300  0.44018400  1
  O  O10  1  0.57488300  0.09430500  0.05142500  1
  O  O11  1  0.42511700  0.90569500  0.94857500  1
  O  O12  1  0.30988400  0.75165400  0.43836300  1
  O  O13  1  0.69011600  0.24834600  0.56163700  1
  O  O14  1  0.98238700  0.64223100  0.13549700  1
  O  O15  1  0.01761300  0.35776900  0.86450300  1
  O  O16  1  0.61919700  0.67359800  0.11758000  1
  O  O17  1  0.38080300  0.32640200  0.88242000  1
  O  O18  1  0.71716100  0.88385600  0.22007700  1
  O  O19  1  0.28283900  0.11614400  0.77992300  1
  O  O20  1  0.34019300  0.95016300  0.19811700  1
  O  O21  1  0.65980700  0.04983700  0.80188300  1
  O  O22  1  0.98268700  0.80719100  0.54579500  1
  O  O23  1  0.01731300  0.19280900  0.45420500  1
  O  O24  1  0.25841100  0.97769800  0.56501300  1
  O  O25  1  0.74158900  0.02230200  0.43498700  1
  O  O26  1  0.63195500  0.79046900  0.54432900  1
  O  O27  1  0.36804500  0.20953100  0.45567100  1
loop_
_geom_bond_atom_site_label_1
_geom_bond_atom_site_label_2
_geom_bond_distance
_geom_bond_site_symmetry_2
Bi0 O9 2.219290 1_555
Bi0 O12 2.229899 1_555
Bi0 O8 2.294997 1_555
Bi0 O2 2.378074 1_555
Bi0 O0 2.717158 1_555
Bi1 O8 2.219290 1_555
Bi1 O13 2.229899 1_555
Bi1 O9 2.294997 1_555
Bi1 O3 2.378074 1_555
Bi1 O1 2.717158 1_555
Bi2 O6 2.216886 1_455
Bi2 O12 2.218599 1_555
Bi2 O2 2.259440 1_555
Bi2 O22 2.666796 1_455
Bi2 O20 2.708934 1_555
Bi2 O5 2.823303 1_555
Bi2 O18 2.836557 1_455
Bi3 O7 2.216886 1_655
Bi3 O13 2.218599 1_555
Bi3 O3 2.259440 1_555
Bi3 O23 2.666796 1_655
Bi3 O21 2.708934 1_555
Bi3 O4 2.823303 1_555
Bi3 O19 2.836557 1_655
Bi4 O9 2.211947 1_555
Bi4 O6 2.254731 1_455
Bi4 O7 2.277600 1_555
Bi4 O2 2.530872 1_555
Bi4 O0 2.878926 1_455
Bi4 Br1 3.380966 1_555
Bi5 O8 2.211947 1_555
Bi5 O7 2.254731 1_655
Bi5 O6 2.277600 1_555
Bi5 O3 2.530872 1_555
Bi5 O1 2.878926 1_655
Bi5 Br0 3.380966 1_555
Bi6 O4 2.243096 1_564
Bi6 O5 2.265220 1_655
Bi6 O10 2.474719 1_565
Bi6 O18 2.512732 1_555
Bi6 O21 2.616894 1_564
Bi6 Br2 3.071718 1_654
Bi7 O5 2.243096 1_546
Bi7 O4 2.265220 1_455
Bi7 O11 2.474719 1_545
Bi7 O19 2.512732 1_555
Bi7 O20 2.616894 1_546
Bi7 Br3 3.071718 1_456
Bi8 O2 2.235990 1_555
Bi8 O5 2.287994 1_555
Bi8 O14 2.410502 1_455
Bi8 O11 2.467624 1_554
Bi8 O16 2.470369 1_555
Bi8 Br2 3.228633 1_554
Bi8 Br1 3.262510 1_555
Bi9 O3 2.235990 1_555
Bi9 O4 2.287994 1_555
Bi9 O15 2.410502 1_655
Bi9 O10 2.467624 1_556
Bi9 O17 2.470369 1_555
Bi9 Br3 3.228633 1_556
Bi9 Br0 3.262510 1_555
Bi10 O12 2.173661 1_555
Bi10 O24 2.316286 1_555
Bi10 O26 2.380137 1_555
Bi10 O1 2.505052 1_555
Bi10 O22 2.543395 1_455
Bi10 Br2 3.299578 1_555
Bi10 Br0 3.372869 1_555
Bi11 O13 2.173661 1_555
Bi11 O25 2.316286 1_555
Bi11 O27 2.380137 1_555
Bi11 O0 2.505052 1_555
Bi11 O23 2.543395 1_655
Bi11 Br3 3.299578 1_555
Bi11 Br1 3.372869 1_555
O0 Se4 1.760631 1_555
O1 Se5 1.760631 1_555
O10 Se0 1.769866 1_555
O11 Se1 1.769866 1_555
O14 Se4 1.734120 1_555
O15 Se5 1.734120 1_555
O16 Se4 1.726180 1_555
O17 Se5 1.726180 1_555
O18 Se0 1.732343 1_565
O19 Se1 1.732343 1_545
O20 Se0 1.719011 1_565
O21 Se1 1.719011 1_545
O22 Se3 1.737874 1_555
O23 Se2 1.737874 1_555
O24 Se2 1.727244 1_565
O25 Se3 1.727244 1_545
O26 Se3 1.739317 1_555
O27 Se2 1.739317 1_555
