# generated using pymatgen
data_Ba(SO2)4
_symmetry_space_group_name_H-M   'P 1'
_cell_length_a   8.59174900
_cell_length_b   10.95979900
_cell_length_c   11.25637300
_cell_angle_alpha   90.00000000
_cell_angle_beta   90.00000000
_cell_angle_gamma   90.00000000
_symmetry_Int_Tables_number   1
_chemical_formula_structural   Ba(SO2)4
_chemical_formula_sum   'Ba4 S16 O32'
_cell_volume   1059.94332977
_cell_formula_units_Z   4
loop_
 _symmetry_equiv_pos_site_id
 _symmetry_equiv_pos_as_xyz
  1  'x, y, z'
loop_
 _atom_site_type_symbol
 _atom_site_label
 _atom_site_symmetry_multiplicity
 _atom_site_fract_x
 _atom_site_fract_y
 _atom_site_fract_z
 _atom_site_occupancy
  Ba  Ba0  1  0.25000000  0.37930600  0.34713400  1
  Ba  Ba1  1  0.75000000  0.62069400  0.65286600  1
  Ba  Ba2  1  0.75000000  0.87930600  0.15286600  1
  Ba  Ba3  1  0.25000000  0.12069400  0.84713400  1
  S  S0  1  0.08564600  0.08111100  0.20550000  1
  S  S1  1  0.91435400  0.91888900  0.79450000  1
  S  S2  1  0.91435400  0.58111100  0.29450000  1
  S  S3  1  0.58564600  0.91888900  0.79450000  1
  S  S4  1  0.08564600  0.41888900  0.70550000  1
  S  S5  1  0.41435400  0.08111100  0.20550000  1
  S  S6  1  0.41435400  0.41888900  0.70550000  1
  S  S7  1  0.58564600  0.58111100  0.29450000  1
  S  S8  1  0.53294100  0.29752000  0.06025600  1
  S  S9  1  0.46705900  0.70248000  0.93974400  1
  S  S10  1  0.46705900  0.79752000  0.43974400  1
  S  S11  1  0.03294100  0.70248000  0.93974400  1
  S  S12  1  0.53294100  0.20248000  0.56025600  1
  S  S13  1  0.96705900  0.29752000  0.06025600  1
  S  S14  1  0.96705900  0.20248000  0.56025600  1
  S  S15  1  0.03294100  0.79752000  0.43974400  1
  O  O0  1  0.25000000  0.68499300  0.94838600  1
  O  O1  1  0.75000000  0.31500700  0.05161400  1
  O  O2  1  0.75000000  0.18499300  0.55161400  1
  O  O3  1  0.25000000  0.81500700  0.44838600  1
  O  O4  1  0.06553300  0.21039500  0.45262400  1
  O  O5  1  0.93446700  0.78960500  0.54737600  1
  O  O6  1  0.93446700  0.71039500  0.04737600  1
  O  O7  1  0.56553300  0.78960500  0.54737600  1
  O  O8  1  0.06553300  0.28960500  0.95262400  1
  O  O9  1  0.43446700  0.21039500  0.45262400  1
  O  O10  1  0.43446700  0.28960500  0.95262400  1
  O  O11  1  0.56553300  0.71039500  0.04737600  1
  O  O12  1  0.53594500  0.11707500  0.10724800  1
  O  O13  1  0.46405500  0.88292500  0.89275200  1
  O  O14  1  0.46405500  0.61707500  0.39275200  1
  O  O15  1  0.03594500  0.88292500  0.89275200  1
  O  O16  1  0.53594500  0.38292500  0.60724800  1
  O  O17  1  0.96405500  0.11707500  0.10724800  1
  O  O18  1  0.96405500  0.38292500  0.60724800  1
  O  O19  1  0.03594500  0.61707500  0.39275200  1
  O  O20  1  0.25000000  0.04012400  0.12760500  1
  O  O21  1  0.75000000  0.95987600  0.87239500  1
  O  O22  1  0.75000000  0.54012400  0.37239500  1
  O  O23  1  0.25000000  0.45987600  0.62760500  1
  O  O24  1  0.45023200  0.34602100  0.16491800  1
  O  O25  1  0.54976800  0.65397900  0.83508200  1
  O  O26  1  0.54976800  0.84602100  0.33508200  1
  O  O27  1  0.95023200  0.65397900  0.83508200  1
  O  O28  1  0.45023200  0.15397900  0.66491800  1
  O  O29  1  0.04976800  0.34602100  0.16491800  1
  O  O30  1  0.04976800  0.15397900  0.66491800  1
  O  O31  1  0.95023200  0.84602100  0.33508200  1
loop_
_geom_bond_atom_site_label_1
_geom_bond_atom_site_label_2
_geom_bond_distance
_geom_bond_site_symmetry_2
Ba0 O29 2.701783 1_555
Ba0 O24 2.701783 1_555
Ba0 O4 2.710894 1_555
Ba0 O9 2.710894 1_555
Ba0 O19 3.230589 1_555
Ba0 O14 3.230589 1_555
Ba0 O23 3.278252 1_555
Ba1 O25 2.701783 1_555
Ba1 O27 2.701783 1_555
Ba1 O7 2.710894 1_555
Ba1 O5 2.710894 1_555
Ba1 O18 3.230589 1_555
Ba1 O16 3.230589 1_555
Ba1 O22 3.278252 1_555
Ba2 O31 2.701783 1_555
Ba2 O26 2.701783 1_555
Ba2 O11 2.710894 1_555
Ba2 O6 2.710894 1_555
Ba2 O17 3.230589 1_565
Ba2 O12 3.230589 1_565
Ba2 O21 3.278252 1_554
Ba3 O28 2.701783 1_555
Ba3 O30 2.701783 1_555
Ba3 O8 2.710894 1_555
Ba3 O10 2.710894 1_555
Ba3 O13 3.230589 1_545
Ba3 O15 3.230589 1_545
Ba3 O20 3.278252 1_556
O0 S9 1.877261 1_555
O0 S11 1.877261 1_555
O1 S8 1.877261 1_555
O1 S13 1.877261 1_555
O2 S12 1.877261 1_555
O2 S14 1.877261 1_555
O3 S10 1.877261 1_555
O3 S15 1.877261 1_555
O4 S14 1.480268 1_455
O5 S15 1.480268 1_655
O6 S11 1.480268 1_654
O7 S10 1.480268 1_555
O8 S13 1.480268 1_456
O9 S12 1.480268 1_555
O10 S8 1.480268 1_556
O11 S9 1.480268 1_554
O12 S5 1.571581 1_555
O12 S8 2.047322 1_555
O13 S3 1.571581 1_555
O13 S9 2.047322 1_555
O14 S7 1.571581 1_555
O14 S10 2.047322 1_555
O15 S1 1.571581 1_455
O15 S11 2.047322 1_555
O16 S6 1.571581 1_555
O16 S12 2.047322 1_555
O17 S0 1.571581 1_655
O17 S13 2.047322 1_555
O18 S4 1.571581 1_655
O18 S14 2.047322 1_555
O19 S2 1.571581 1_455
O19 S15 2.047322 1_555
O20 S0 1.721798 1_555
O20 S5 1.721798 1_555
O21 S3 1.721798 1_555
O21 S1 1.721798 1_555
O22 S7 1.721798 1_555
O22 S2 1.721798 1_555
O23 S4 1.721798 1_555
O23 S6 1.721798 1_555
O24 S8 1.474952 1_555
O25 S9 1.474952 1_555
O26 S10 1.474952 1_555
O27 S11 1.474952 1_655
O28 S12 1.474952 1_555
O29 S13 1.474952 1_455
O30 S14 1.474952 1_455
O31 S15 1.474952 1_655
