# generated using pymatgen
data_SrLa4Mn3(CuO9)2
_symmetry_space_group_name_H-M   'P 1'
_cell_length_a   5.31054100
_cell_length_b   11.40003900
_cell_length_c   14.20264300
_cell_angle_alpha   90.00000000
_cell_angle_beta   90.00000000
_cell_angle_gamma   90.00000000
_symmetry_Int_Tables_number   1
_chemical_formula_structural   SrLa4Mn3(CuO9)2
_chemical_formula_sum   'Sr2 La8 Mn6 Cu4 O36'
_cell_volume   859.83332627
_cell_formula_units_Z   2
loop_
 _symmetry_equiv_pos_site_id
 _symmetry_equiv_pos_as_xyz
  1  'x, y, z'
loop_
 _atom_site_type_symbol
 _atom_site_label
 _atom_site_symmetry_multiplicity
 _atom_site_fract_x
 _atom_site_fract_y
 _atom_site_fract_z
 _atom_site_occupancy
  Sr  Sr0  1  0.00000000  0.50000000  0.50000000  1
  Sr  Sr1  1  0.50000000  0.50000000  0.00000000  1
  La  La0  1  0.20627600  0.76120100  0.87287400  1
  La  La1  1  0.79372400  0.23879900  0.12712600  1
  La  La2  1  0.70627600  0.23879900  0.62712600  1
  La  La3  1  0.29372400  0.76120100  0.62712600  1
  La  La4  1  0.29372400  0.76120100  0.37287400  1
  La  La5  1  0.70627600  0.23879900  0.37287400  1
  La  La6  1  0.79372400  0.23879900  0.87287400  1
  La  La7  1  0.20627600  0.76120100  0.12712600  1
  Mn  Mn0  1  0.75000000  0.99329400  0.75000000  1
  Mn  Mn1  1  0.25000000  0.00670600  0.25000000  1
  Mn  Mn2  1  0.25000000  0.00670600  0.75000000  1
  Mn  Mn3  1  0.75000000  0.99329400  0.25000000  1
  Mn  Mn4  1  0.00000000  0.00000000  0.00000000  1
  Mn  Mn5  1  0.50000000  0.00000000  0.50000000  1
  Cu  Cu0  1  0.75000000  0.57136000  0.75000000  1
  Cu  Cu1  1  0.25000000  0.42864000  0.25000000  1
  Cu  Cu2  1  0.25000000  0.42864000  0.75000000  1
  Cu  Cu3  1  0.75000000  0.57136000  0.25000000  1
  O  O0  1  0.75000000  0.40795300  0.75000000  1
  O  O1  1  0.25000000  0.59204700  0.25000000  1
  O  O2  1  0.25000000  0.59204700  0.75000000  1
  O  O3  1  0.75000000  0.40795300  0.25000000  1
  O  O4  1  0.66353900  0.64685000  0.85658900  1
  O  O5  1  0.33646100  0.35315000  0.14341100  1
  O  O6  1  0.16353900  0.35315000  0.64341100  1
  O  O7  1  0.83646100  0.64685000  0.64341100  1
  O  O8  1  0.83646100  0.64685000  0.35658900  1
  O  O9  1  0.16353900  0.35315000  0.35658900  1
  O  O10  1  0.33646100  0.35315000  0.85658900  1
  O  O11  1  0.66353900  0.64685000  0.14341100  1
  O  O12  1  0.49288200  0.88141000  0.75408200  1
  O  O13  1  0.50711800  0.11859000  0.24591800  1
  O  O14  1  0.99288200  0.11859000  0.74591800  1
  O  O15  1  0.00711800  0.88141000  0.74591800  1
  O  O16  1  0.00711800  0.88141000  0.25408200  1
  O  O17  1  0.99288200  0.11859000  0.25408200  1
  O  O18  1  0.50711800  0.11859000  0.75408200  1
  O  O19  1  0.49288200  0.88141000  0.24591800  1
  O  O20  1  0.99075800  0.83608800  0.00000000  1
  O  O21  1  0.00924200  0.16391200  0.00000000  1
  O  O22  1  0.49075800  0.16391200  0.50000000  1
  O  O23  1  0.50924200  0.83608800  0.50000000  1
  O  O24  1  0.23959800  0.98474800  0.88996000  1
  O  O25  1  0.76040200  0.01525200  0.11004000  1
  O  O26  1  0.73959800  0.01525200  0.61004000  1
  O  O27  1  0.26040200  0.98474800  0.61004000  1
  O  O28  1  0.26040200  0.98474800  0.38996000  1
  O  O29  1  0.73959800  0.01525200  0.38996000  1
  O  O30  1  0.76040200  0.01525200  0.88996000  1
  O  O31  1  0.23959800  0.98474800  0.11004000  1
  O  O32  1  0.79079300  0.35640800  0.00000000  1
  O  O33  1  0.20920700  0.64359200  0.00000000  1
  O  O34  1  0.29079300  0.64359200  0.50000000  1
  O  O35  1  0.70920700  0.35640800  0.50000000  1
loop_
_geom_bond_atom_site_label_1
_geom_bond_atom_site_label_2
_geom_bond_distance
_geom_bond_site_symmetry_2
La0 O33 2.248948 1_556
La0 O20 2.301884 1_456
La0 O15 2.499553 1_555
La0 O24 2.566081 1_555
La0 O2 2.611129 1_555
La0 O12 2.653499 1_555
La0 O4 2.765790 1_555
La0 O4 3.171769 1_455
La1 O32 2.248948 1_555
La1 O21 2.301884 1_655
La1 O17 2.499553 1_555
La1 O25 2.566081 1_555
La1 O3 2.611129 1_555
La1 O13 2.653499 1_555
La1 O5 2.765790 1_555
La1 O5 3.171769 1_655
La2 O35 2.248948 1_555
La2 O22 2.301884 1_555
La2 O18 2.499553 1_555
La2 O26 2.566081 1_555
La2 O0 2.611129 1_555
La2 O14 2.653499 1_555
La2 O6 2.765790 1_655
La2 O6 3.171769 1_555
La3 O34 2.248948 1_555
La3 O23 2.301884 1_555
La3 O12 2.499553 1_555
La3 O27 2.566081 1_555
La3 O2 2.611129 1_555
La3 O15 2.653499 1_555
La3 O7 2.765790 1_455
La3 O7 3.171769 1_555
La4 O34 2.248948 1_555
La4 O23 2.301884 1_555
La4 O19 2.499553 1_555
La4 O28 2.566081 1_555
La4 O1 2.611129 1_555
La4 O16 2.653499 1_555
La4 O8 2.765790 1_455
La4 O8 3.171769 1_555
La5 O35 2.248948 1_555
La5 O22 2.301884 1_555
La5 O13 2.499553 1_555
La5 O29 2.566081 1_555
La5 O3 2.611129 1_555
La5 O17 2.653499 1_555
La5 O9 2.765790 1_655
La5 O9 3.171769 1_555
La6 O32 2.248948 1_556
La6 O21 2.301884 1_656
La6 O14 2.499553 1_555
La6 O30 2.566081 1_555
La6 O0 2.611129 1_555
La6 O18 2.653499 1_555
La6 O10 2.765790 1_555
La6 O10 3.171769 1_655
La7 O33 2.248948 1_555
La7 O20 2.301884 1_455
La7 O16 2.499553 1_555
La7 O31 2.566081 1_555
La7 O1 2.611129 1_555
La7 O19 2.653499 1_555
La7 O11 2.765790 1_555
La7 O11 3.171769 1_455
Mn0 O15 1.869393 1_655
Mn0 O12 1.869393 1_555
Mn0 O14 1.925436 1_565
Mn0 O18 1.925436 1_565
Mn0 O26 2.004263 1_565
Mn0 O30 2.004263 1_565
Mn1 O13 1.869393 1_555
Mn1 O17 1.869393 1_455
Mn1 O19 1.925436 1_545
Mn1 O16 1.925436 1_545
Mn1 O28 2.004263 1_545
Mn1 O31 2.004263 1_545
Mn2 O14 1.869393 1_455
Mn2 O18 1.869393 1_555
Mn2 O12 1.925436 1_545
Mn2 O15 1.925436 1_545
Mn2 O27 2.004263 1_545
Mn2 O24 2.004263 1_545
Mn3 O16 1.869393 1_655
Mn3 O19 1.869393 1_555
Mn3 O17 1.925436 1_565
Mn3 O13 1.925436 1_565
Mn3 O29 2.004263 1_565
Mn3 O25 2.004263 1_565
Mn4 O20 1.869248 1_445
Mn4 O21 1.869248 1_555
Mn4 O25 2.022807 1_455
Mn4 O30 2.022807 1_454
Mn4 O31 2.022807 1_545
Mn4 O24 2.022807 1_544
Mn5 O23 1.869248 1_545
Mn5 O22 1.869248 1_555
Mn5 O26 2.022807 1_555
Mn5 O29 2.022807 1_555
Mn5 O28 2.022807 1_545
Mn5 O27 2.022807 1_545
Cu0 O7 1.800879 1_555
Cu0 O4 1.800879 1_555
Cu0 O0 1.862846 1_555
Cu1 O5 1.800879 1_555
Cu1 O9 1.800879 1_555
Cu1 O1 1.862846 1_555
Cu2 O10 1.800879 1_555
Cu2 O6 1.800879 1_555
Cu2 O2 1.862846 1_555
Cu3 O8 1.800879 1_555
Cu3 O11 1.800879 1_555
Cu3 O3 1.862846 1_555
O4 Sr1 2.775873 1_556
O5 Sr1 2.775873 1_555
O6 Sr0 2.775873 1_555
O7 Sr0 2.775873 1_655
O8 Sr0 2.775873 1_655
O9 Sr0 2.775873 1_555
O10 Sr1 2.775873 1_556
O11 Sr1 2.775873 1_555
O32 Sr1 2.250419 1_555
O33 Sr1 2.250419 1_555
O34 Sr0 2.250419 1_555
O35 Sr0 2.250419 1_655
