# generated using pymatgen
data_K
_symmetry_space_group_name_H-M   'P 1'
_cell_length_a   9.59366494
_cell_length_b   9.59366430
_cell_length_c   9.59366570
_cell_angle_alpha   60.00000261
_cell_angle_beta   60.00000486
_cell_angle_gamma   59.99999674
_symmetry_Int_Tables_number   1
_chemical_formula_structural   K
_chemical_formula_sum   K8
_cell_volume   624.36516023
_cell_formula_units_Z   8
loop_
 _symmetry_equiv_pos_site_id
 _symmetry_equiv_pos_as_xyz
  1  'x, y, z'
loop_
 _atom_site_type_symbol
 _atom_site_label
 _atom_site_symmetry_multiplicity
 _atom_site_fract_x
 _atom_site_fract_y
 _atom_site_fract_z
 _atom_site_occupancy
  K  K0_0  1  0.00000000  0.00000000  0.00000000  1
  K  K0_1  1  0.00000000  0.00000000  0.50000000  1
  K  K0_2  1  0.00000000  0.50000000  0.00000000  1
  K  K0_3  1  0.00000000  0.50000000  0.50000000  1
  K  K0_4  1  0.50000000  0.00000000  0.00000000  1
  K  K0_5  1  0.50000000  0.00000000  0.50000000  1
  K  K0_6  1  0.50000000  0.50000000  0.00000000  1
  K  K0_7  1  0.50000000  0.50000000  0.50000000  1
loop_
_geom_bond_atom_site_label_1
_geom_bond_atom_site_label_2
_geom_bond_distance
_geom_bond_site_symmetry_2
K0_0 K0_6 4.796832 1_455
K0_0 K0_6 4.796832 1_545
K0_0 K0_2 4.796832 1_555
K0_0 K0_2 4.796832 1_545
K0_0 K0_4 4.796832 1_455
K0_0 K0_4 4.796832 1_555
K0_0 K0_3 4.796833 1_554
K0_0 K0_3 4.796833 1_545
K0_0 K0_1 4.796833 1_555
K0_0 K0_1 4.796833 1_554
K0_0 K0_5 4.796833 1_455
K0_0 K0_5 4.796833 1_554
K0_1 K0_7 4.796832 1_455
K0_1 K0_7 4.796832 1_545
K0_1 K0_3 4.796832 1_545
K0_1 K0_3 4.796832 1_555
K0_1 K0_5 4.796832 1_455
K0_1 K0_5 4.796832 1_555
K0_1 K0_2 4.796833 1_555
K0_1 K0_2 4.796833 1_546
K0_1 K0_4 4.796833 1_555
K0_1 K0_4 4.796833 1_456
K0_2 K0_4 4.796832 1_555
K0_2 K0_4 4.796832 1_465
K0_2 K0_6 4.796832 1_455
K0_2 K0_6 4.796832 1_555
K0_2 K0_3 4.796833 1_554
K0_2 K0_3 4.796833 1_555
K0_2 K0_7 4.796833 1_455
K0_2 K0_7 4.796833 1_554
K0_3 K0_5 4.796832 1_465
K0_3 K0_5 4.796832 1_555
K0_3 K0_7 4.796832 1_455
K0_3 K0_7 4.796832 1_555
K0_3 K0_6 4.796833 1_456
K0_3 K0_6 4.796833 1_555
K0_4 K0_6 4.796832 1_545
K0_4 K0_6 4.796832 1_555
K0_4 K0_7 4.796833 1_554
K0_4 K0_7 4.796833 1_545
K0_4 K0_5 4.796833 1_554
K0_4 K0_5 4.796833 1_555
K0_5 K0_7 4.796832 1_555
K0_5 K0_7 4.796832 1_545
K0_5 K0_6 4.796833 1_546
K0_5 K0_6 4.796833 1_555
K0_6 K0_7 4.796833 1_554
K0_6 K0_7 4.796833 1_555
