# generated using pymatgen
data_Hf2N2O
_symmetry_space_group_name_H-M   'P 1'
_cell_length_a   8.72729400
_cell_length_b   8.73006954
_cell_length_c   8.73213385
_cell_angle_alpha   109.53915279
_cell_angle_beta   109.34299859
_cell_angle_gamma   109.44867378
_symmetry_Int_Tables_number   1
_chemical_formula_structural   Hf2N2O
_chemical_formula_sum   'Hf16 N16 O8'
_cell_volume   512.67015972
_cell_formula_units_Z   8
loop_
 _symmetry_equiv_pos_site_id
 _symmetry_equiv_pos_as_xyz
  1  'x, y, z'
loop_
 _atom_site_type_symbol
 _atom_site_label
 _atom_site_symmetry_multiplicity
 _atom_site_fract_x
 _atom_site_fract_y
 _atom_site_fract_z
 _atom_site_occupancy
  Hf  Hf0  1  0.71772100  0.96061800  0.25846400  1
  Hf  Hf1  1  0.50344900  0.50668700  0.48844300  1
  Hf  Hf2  1  0.25064600  0.70572500  0.53782700  1
  Hf  Hf3  1  0.75074800  0.78183800  0.96987100  1
  Hf  Hf4  1  0.96800800  0.75534000  0.27780000  1
  Hf  Hf5  1  0.47054000  0.75621300  0.78317900  1
  Hf  Hf6  1  0.49353600  0.99808500  0.99037800  1
  Hf  Hf7  1  0.00788500  0.01708200  0.49372200  1
  Hf  Hf8  1  0.98496600  0.49055500  0.01243600  1
  Hf  Hf9  1  0.21597400  0.46857400  0.25161500  1
  Hf  Hf10  1  0.78400400  0.52458600  0.76215000  1
  Hf  Hf11  1  0.03363100  0.25144700  0.70945800  1
  Hf  Hf12  1  0.53538700  0.25365800  0.21374800  1
  Hf  Hf13  1  0.25023600  0.21003600  0.04152200  1
  Hf  Hf14  1  0.74953800  0.28465100  0.45932700  1
  Hf  Hf15  1  0.28508600  0.03889900  0.74709700  1
  N  N0  1  0.50957500  0.73893600  0.53601300  1
  N  N1  1  0.99051400  0.45591100  0.77283200  1
  N  N2  1  0.47025700  0.72742500  0.04180200  1
  N  N3  1  0.96524500  0.00989000  0.26530400  1
  N  N4  1  0.53745600  0.27125000  0.95170700  1
  N  N5  1  0.76989900  0.22584400  0.23756600  1
  N  N6  1  0.03306500  0.98664200  0.74109500  1
  N  N7  1  0.27294700  0.50984400  0.45689300  1
  N  N8  1  0.01179700  0.54551500  0.22590500  1
  N  N9  1  0.22822400  0.95752600  0.03213400  1
  N  N10  1  0.94995400  0.22413800  0.51718700  1
  N  N11  1  0.76152700  0.53530500  0.00983700  1
  N  N12  1  0.54538200  0.03094900  0.72617800  1
  N  N13  1  0.73955600  0.72658400  0.22707800  1
  N  N14  1  0.48694800  0.26415200  0.46828000  1
  N  N15  1  0.27153100  0.24052000  0.27046400  1
  O  O0  1  0.72784200  0.75779500  0.72305700  1
  O  O1  1  0.26244400  0.27521700  0.77483600  1
  O  O2  1  0.44730600  0.96081000  0.27520100  1
  O  O3  1  0.04672200  0.77108200  0.48870100  1
  O  O4  1  0.23973400  0.46679100  0.98101700  1
  O  O5  1  0.77168200  0.04776800  0.97116700  1
  O  O6  1  0.22924300  0.77160600  0.76372400  1
  O  O7  1  0.72979700  0.49450700  0.54498800  1
loop_
_geom_bond_atom_site_label_1
_geom_bond_atom_site_label_2
_geom_bond_distance
_geom_bond_site_symmetry_2
Hf0 N3 2.033145 1_565
Hf0 N2 2.043815 1_555
Hf0 N13 2.050642 1_555
Hf0 N10 2.211222 1_565
Hf0 N5 2.288552 1_565
Hf0 O2 2.412857 1_555
Hf1 N0 1.906857 1_555
Hf1 O7 1.919947 1_555
Hf1 N7 1.948922 1_555
Hf1 N14 2.016355 1_555
Hf1 O0 2.077787 1_555
Hf1 N15 2.115779 1_555
Hf2 N7 1.722204 1_555
Hf2 O6 1.952802 1_555
Hf2 O3 2.002775 1_555
Hf2 Hf5 2.132750 1_555
Hf2 N0 2.186610 1_555
Hf2 N8 2.338655 1_555
Hf2 N12 2.567733 1_565
Hf3 O0 2.028058 1_555
Hf3 N3 2.237562 1_566
Hf3 O5 2.263157 1_565
Hf3 N11 2.319121 1_556
Hf3 Hf5 2.332112 1_555
Hf3 N2 2.656370 1_556
Hf4 O3 1.676937 1_655
Hf4 N13 1.800455 1_555
Hf4 N8 1.931964 1_655
Hf4 N11 2.075430 1_555
Hf4 N3 2.268694 1_565
Hf5 O6 2.109108 1_555
Hf5 Hf6 2.166624 1_555
Hf5 N0 2.258439 1_555
Hf5 N2 2.355027 1_556
Hf5 N7 2.427716 1_555
Hf5 O5 2.443968 1_565
Hf5 O0 2.466467 1_555
Hf5 N12 2.529363 1_565
Hf6 O6 2.113764 1_555
Hf6 N5 2.217373 1_566
Hf6 N9 2.391511 1_556
Hf6 O5 2.392933 1_565
Hf6 N4 2.442062 1_565
Hf6 N2 2.505315 1_556
Hf6 N12 2.580163 1_565
Hf6 O2 2.751923 1_556
Hf7 N3 1.878759 1_455
Hf7 N10 1.998631 1_455
Hf7 N6 2.212085 1_545
Hf7 O3 2.271689 1_545
Hf7 O1 2.322256 1_555
Hf7 N13 2.412513 1_445
Hf8 N8 1.672565 1_655
Hf8 N1 2.030993 1_554
Hf8 N11 2.107044 1_555
Hf8 O4 2.394823 1_654
Hf9 N7 1.564748 1_555
Hf9 N8 2.075984 1_555
Hf9 N15 2.243910 1_555
Hf9 O4 2.434883 1_554
Hf9 N0 2.477954 1_555
Hf10 O7 1.696639 1_555
Hf10 N1 2.064444 1_555
Hf10 N11 2.209750 1_556
Hf10 O0 2.349543 1_555
Hf10 N14 2.498096 1_555
Hf11 N10 1.487638 1_455
Hf11 O1 1.801739 1_555
Hf11 N1 1.886401 1_455
Hf11 O4 2.081680 1_555
Hf11 N6 2.416836 1_545
Hf12 N5 2.091352 1_555
Hf12 Hf14 2.187453 1_555
Hf12 Hf6 2.233912 1_544
Hf12 Hf13 2.259732 1_555
Hf12 N4 2.349522 1_554
Hf12 N14 2.374679 1_555
Hf12 O7 2.443607 1_555
Hf12 N15 2.485694 1_555
Hf12 N9 2.492186 1_545
Hf12 O2 2.701332 1_545
Hf13 N15 1.861998 1_555
Hf13 N9 2.118919 1_545
Hf13 N6 2.258377 1_544
Hf13 O4 2.491726 1_554
Hf14 O7 1.823330 1_555
Hf14 N5 1.915380 1_555
Hf14 N10 1.949901 1_555
Hf14 N14 2.268251 1_555
Hf14 N1 2.346692 1_555
Hf14 O2 2.592186 1_545
Hf15 N4 2.037562 1_555
Hf15 N6 2.070737 1_545
Hf15 O1 2.079160 1_555
Hf15 O3 2.237871 1_545
Hf15 O6 2.284718 1_545
Hf15 N12 2.360109 1_555
N0 O0 1.968143 1_555
N0 N7 2.030314 1_555
N14 N15 1.978089 1_555
N14 O7 2.074854 1_555
