# generated using pymatgen
data_Ce2Fe3Rh
_symmetry_space_group_name_H-M   'P 1'
_cell_length_a   5.27964063
_cell_length_b   5.27964063
_cell_length_c   5.27964066
_cell_angle_alpha   56.32332067
_cell_angle_beta   56.32332067
_cell_angle_gamma   56.32331792
_symmetry_Int_Tables_number   1
_chemical_formula_structural   Ce2Fe3Rh
_chemical_formula_sum   'Ce2 Fe3 Rh1'
_cell_volume   95.21264954
_cell_formula_units_Z   1
loop_
 _symmetry_equiv_pos_site_id
 _symmetry_equiv_pos_as_xyz
  1  'x, y, z'
loop_
 _atom_site_type_symbol
 _atom_site_label
 _atom_site_symmetry_multiplicity
 _atom_site_fract_x
 _atom_site_fract_y
 _atom_site_fract_z
 _atom_site_occupancy
  Ce  Ce0  1  0.12142400  0.12142400  0.12142400  1
  Ce  Ce1  1  0.87857600  0.87857600  0.87857600  1
  Fe  Fe0  1  0.50000000  0.00000000  0.50000000  1
  Fe  Fe1  1  0.00000000  0.50000000  0.50000000  1
  Fe  Fe2  1  0.50000000  0.50000000  0.00000000  1
  Rh  Rh0  1  0.50000000  0.50000000  0.50000000  1
loop_
_geom_bond_atom_site_label_1
_geom_bond_atom_site_label_2
_geom_bond_distance
_geom_bond_site_symmetry_2
Ce0 Rh0 2.939328 1_455
Ce0 Rh0 2.939328 1_545
Ce0 Rh0 2.939328 1_554
Ce0 Fe2 2.968039 1_545
Ce0 Fe2 2.968039 1_455
Ce0 Fe0 2.968039 1_554
Ce0 Fe1 2.968039 1_554
Ce0 Fe1 2.968039 1_545
Ce0 Fe0 2.968039 1_455
Ce0 Fe1 3.160596 1_555
Ce0 Fe0 3.160596 1_555
Ce0 Fe2 3.160596 1_555
Ce1 Rh0 2.939328 1_565
Ce1 Rh0 2.939328 1_655
Ce1 Rh0 2.939328 1_556
Ce1 Fe2 2.968039 1_656
Ce1 Fe2 2.968039 1_566
Ce1 Fe0 2.968039 1_566
Ce1 Fe1 2.968039 1_656
Ce1 Fe1 2.968039 1_665
Ce1 Fe0 2.968039 1_665
Ce1 Fe1 3.160596 1_655
Ce1 Fe0 3.160596 1_565
Ce1 Fe2 3.160596 1_556
Fe0 Fe1 2.491784 1_645
Fe0 Fe1 2.491784 1_555
Fe0 Fe2 2.491784 1_546
Fe0 Fe2 2.491784 1_555
Fe0 Rh0 2.639820 1_555
Fe0 Rh0 2.639820 1_545
Fe1 Fe2 2.491784 1_456
Fe1 Fe2 2.491784 1_555
Fe1 Rh0 2.639820 1_555
Fe1 Rh0 2.639820 1_455
Fe2 Rh0 2.639820 1_555
Fe2 Rh0 2.639820 1_554
