# generated using pymatgen
data_CaCu(SiO3)2
_symmetry_space_group_name_H-M   'P 1'
_cell_length_a   5.42280700
_cell_length_b   9.71025400
_cell_length_c   19.04297600
_cell_angle_alpha   90.00000000
_cell_angle_beta   90.00000000
_cell_angle_gamma   90.00000000
_symmetry_Int_Tables_number   1
_chemical_formula_structural   CaCu(SiO3)2
_chemical_formula_sum   'Ca8 Cu8 Si16 O48'
_cell_volume   1002.74281397
_cell_formula_units_Z   8
loop_
 _symmetry_equiv_pos_site_id
 _symmetry_equiv_pos_as_xyz
  1  'x, y, z'
loop_
 _atom_site_type_symbol
 _atom_site_label
 _atom_site_symmetry_multiplicity
 _atom_site_fract_x
 _atom_site_fract_y
 _atom_site_fract_z
 _atom_site_occupancy
  Ca  Ca0  1  0.60884500  0.14640500  0.37701400  1
  Ca  Ca1  1  0.39115500  0.85359500  0.62298600  1
  Ca  Ca2  1  0.60884500  0.64640500  0.12298600  1
  Ca  Ca3  1  0.10884500  0.85359500  0.12298600  1
  Ca  Ca4  1  0.89115500  0.14640500  0.87701400  1
  Ca  Ca5  1  0.39115500  0.35359500  0.87701400  1
  Ca  Ca6  1  0.10884500  0.35359500  0.37701400  1
  Ca  Ca7  1  0.89115500  0.64640500  0.62298600  1
  Cu  Cu0  1  0.38231400  0.98696000  0.87500100  1
  Cu  Cu1  1  0.61768600  0.01304000  0.12499900  1
  Cu  Cu2  1  0.88231400  0.01304000  0.62499900  1
  Cu  Cu3  1  0.11768600  0.98696000  0.37500100  1
  Cu  Cu4  1  0.38231400  0.48696000  0.62499900  1
  Cu  Cu5  1  0.61768600  0.51304000  0.37500100  1
  Cu  Cu6  1  0.88231400  0.51304000  0.87500100  1
  Cu  Cu7  1  0.11768600  0.48696000  0.12499900  1
  Si  Si0  1  0.57344900  0.66682600  0.77677100  1
  Si  Si1  1  0.75765300  0.83328800  0.47454400  1
  Si  Si2  1  0.74234700  0.83328800  0.97454400  1
  Si  Si3  1  0.92655100  0.16682600  0.22322900  1
  Si  Si4  1  0.07344900  0.33317400  0.72322900  1
  Si  Si5  1  0.42655100  0.83317400  0.27677100  1
  Si  Si6  1  0.25765300  0.66671200  0.47454400  1
  Si  Si7  1  0.75765300  0.33328800  0.02545600  1
  Si  Si8  1  0.74234700  0.33328800  0.52545600  1
  Si  Si9  1  0.92655100  0.66682600  0.27677100  1
  Si  Si10  1  0.42655100  0.33317400  0.22322900  1
  Si  Si11  1  0.57344900  0.16682600  0.72322900  1
  Si  Si12  1  0.24234700  0.16671200  0.52545600  1
  Si  Si13  1  0.07344900  0.83317400  0.77677100  1
  Si  Si14  1  0.24234700  0.66671200  0.97454400  1
  Si  Si15  1  0.25765300  0.16671200  0.02545600  1
  O  O0  1  0.90383900  0.51779900  0.31630300  1
  O  O1  1  0.32475200  0.03073200  0.07126200  1
  O  O2  1  0.09616100  0.48220100  0.68369700  1
  O  O3  1  0.75656600  0.35203000  0.93971700  1
  O  O4  1  0.25656600  0.14797000  0.93971700  1
  O  O5  1  0.96853200  0.21373000  0.04487500  1
  O  O6  1  0.94649400  0.66020100  0.19197800  1
  O  O7  1  0.05350600  0.83979900  0.69197800  1
  O  O8  1  0.75656600  0.85203000  0.56028300  1
  O  O9  1  0.94649400  0.16020100  0.30802200  1
  O  O10  1  0.40383900  0.48220100  0.18369700  1
  O  O11  1  0.74343400  0.35203000  0.43971700  1
  O  O12  1  0.67524800  0.96926800  0.92873800  1
  O  O13  1  0.44649400  0.83979900  0.19197800  1
  O  O14  1  0.59616100  0.01779900  0.68369700  1
  O  O15  1  0.32475200  0.53073200  0.42873800  1
  O  O16  1  0.40383900  0.98220100  0.31630300  1
  O  O17  1  0.16642400  0.75816200  0.30514900  1
  O  O18  1  0.33357600  0.75816200  0.80514900  1
  O  O19  1  0.53146800  0.71373000  0.95512500  1
  O  O20  1  0.74343400  0.85203000  0.06028300  1
  O  O21  1  0.55350600  0.66020100  0.69197800  1
  O  O22  1  0.82475200  0.46926800  0.07126200  1
  O  O23  1  0.16642400  0.25816200  0.19485100  1
  O  O24  1  0.24343400  0.14797000  0.43971700  1
  O  O25  1  0.55350600  0.16020100  0.80802200  1
  O  O26  1  0.67524800  0.46926800  0.57126200  1
  O  O27  1  0.25656600  0.64797000  0.56028300  1
  O  O28  1  0.17524800  0.53073200  0.92873800  1
  O  O29  1  0.66642400  0.74183800  0.30514900  1
  O  O30  1  0.09616100  0.98220100  0.81630300  1
  O  O31  1  0.83357600  0.74183800  0.80514900  1
  O  O32  1  0.83357600  0.24183800  0.69485100  1
  O  O33  1  0.82475200  0.96926800  0.42873800  1
  O  O34  1  0.24343400  0.64797000  0.06028300  1
  O  O35  1  0.17524800  0.03073200  0.57126200  1
  O  O36  1  0.33357600  0.25816200  0.69485100  1
  O  O37  1  0.03146800  0.78627000  0.95512500  1
  O  O38  1  0.46853200  0.78627000  0.45512500  1
  O  O39  1  0.66642400  0.24183800  0.19485100  1
  O  O40  1  0.46853200  0.28627000  0.04487500  1
  O  O41  1  0.53146800  0.21373000  0.54487500  1
  O  O42  1  0.03146800  0.28627000  0.54487500  1
  O  O43  1  0.44649400  0.33979900  0.30802200  1
  O  O44  1  0.59616100  0.51779900  0.81630300  1
  O  O45  1  0.96853200  0.71373000  0.45512500  1
  O  O46  1  0.05350600  0.33979900  0.80802200  1
  O  O47  1  0.90383900  0.01779900  0.18369700  1
loop_
_geom_bond_atom_site_label_1
_geom_bond_atom_site_label_2
_geom_bond_distance
_geom_bond_site_symmetry_2
Ca0 O9 2.257572 1_555
Ca0 O16 2.261596 1_545
Ca0 O33 2.302078 1_545
Ca0 O24 2.313557 1_555
Ca0 O11 2.438265 1_555
Ca0 O43 2.455144 1_555
Ca1 O7 2.257572 1_555
Ca1 O14 2.261596 1_565
Ca1 O35 2.302078 1_565
Ca1 O8 2.313557 1_555
Ca1 O27 2.438265 1_555
Ca1 O21 2.455144 1_555
Ca2 O6 2.257572 1_555
Ca2 O10 2.261596 1_555
Ca2 O22 2.302078 1_555
Ca2 O34 2.313557 1_555
Ca2 O20 2.438265 1_555
Ca2 O13 2.455144 1_555
Ca3 O13 2.257572 1_555
Ca3 O47 2.261596 1_465
Ca3 O1 2.302078 1_565
Ca3 O20 2.313557 1_455
Ca3 O34 2.438265 1_555
Ca3 O6 2.455144 1_455
Ca4 O25 2.257572 1_555
Ca4 O30 2.261596 1_645
Ca4 O12 2.302078 1_545
Ca4 O4 2.313557 1_655
Ca4 O3 2.438265 1_555
Ca4 O46 2.455144 1_655
Ca5 O46 2.257572 1_555
Ca5 O44 2.261596 1_555
Ca5 O28 2.302078 1_555
Ca5 O3 2.313557 1_555
Ca5 O4 2.438265 1_555
Ca5 O25 2.455144 1_555
Ca6 O43 2.257572 1_555
Ca6 O0 2.261596 1_455
Ca6 O15 2.302078 1_555
Ca6 O11 2.313557 1_455
Ca6 O24 2.438265 1_555
Ca6 O9 2.455144 1_455
Ca7 O21 2.257572 1_555
Ca7 O2 2.261596 1_655
Ca7 O26 2.302078 1_555
Ca7 O27 2.313557 1_655
Ca7 O8 2.438265 1_555
Ca7 O7 2.455144 1_655
Cu0 O12 1.897391 1_555
Cu0 O30 1.912986 1_555
Cu0 O4 2.104315 1_565
Cu0 O25 2.306189 1_565
Cu0 O18 2.602912 1_555
Cu1 O1 1.897391 1_555
Cu1 O47 1.912986 1_555
Cu1 O20 2.104315 1_545
Cu1 O13 2.306189 1_545
Cu1 O39 2.602912 1_555
Cu2 O35 1.897391 1_655
Cu2 O14 1.912986 1_555
Cu2 O8 2.104315 1_545
Cu2 O7 2.306189 1_645
Cu2 O32 2.602912 1_555
Cu3 O33 1.897391 1_455
Cu3 O16 1.912986 1_555
Cu3 O24 2.104315 1_565
Cu3 O9 2.306189 1_465
Cu3 O17 2.602912 1_555
Cu4 O26 1.897391 1_555
Cu4 O2 1.912986 1_555
Cu4 O27 2.104315 1_555
Cu4 O21 2.306189 1_555
Cu4 O36 2.602912 1_555
Cu5 O15 1.897391 1_555
Cu5 O0 1.912986 1_555
Cu5 O11 2.104315 1_555
Cu5 O43 2.306189 1_555
Cu5 O29 2.602912 1_555
Cu6 O28 1.897391 1_655
Cu6 O44 1.912986 1_555
Cu6 O3 2.104315 1_555
Cu6 O46 2.306189 1_655
Cu6 O31 2.602912 1_555
Cu7 O22 1.897391 1_455
Cu7 O10 1.912986 1_555
Cu7 O34 2.104315 1_555
Cu7 O6 2.306189 1_455
Cu7 O23 2.602912 1_555
O0 Si9 1.635835 1_555
O1 Si15 1.623802 1_555
O2 Si4 1.635835 1_555
O3 Si7 1.642848 1_556
O4 Si15 1.642848 1_556
O5 Si7 1.671002 1_555
O5 Si15 1.674317 1_655
O6 Si9 1.619607 1_555
O7 Si13 1.619607 1_555
O8 Si1 1.642848 1_555
O9 Si3 1.619607 1_555
O10 Si10 1.635835 1_555
O11 Si8 1.642848 1_555
O12 Si2 1.623802 1_555
O13 Si5 1.619607 1_555
O14 Si11 1.635835 1_555
O15 Si6 1.623802 1_555
O16 Si5 1.635835 1_555
O17 Si9 1.664530 1_455
O17 Si5 1.677028 1_555
O18 Si0 1.664530 1_555
O18 Si13 1.677028 1_555
O19 Si2 1.671002 1_555
O19 Si14 1.674317 1_555
O20 Si2 1.642848 1_554
O21 Si0 1.619607 1_555
O22 Si7 1.623802 1_555
O23 Si3 1.664530 1_455
O23 Si10 1.677028 1_555
O24 Si12 1.642848 1_555
O25 Si11 1.619607 1_555
O26 Si8 1.623802 1_555
O27 Si6 1.642848 1_555
O28 Si14 1.623802 1_555
O29 Si5 1.664530 1_555
O29 Si9 1.677028 1_555
O30 Si13 1.635835 1_555
O31 Si13 1.664530 1_655
O31 Si0 1.677028 1_555
O32 Si4 1.664530 1_655
O32 Si11 1.677028 1_555
O33 Si1 1.623802 1_555
O34 Si14 1.642848 1_554
O35 Si12 1.623802 1_555
O36 Si11 1.664530 1_555
O36 Si4 1.677028 1_555
O37 Si14 1.671002 1_555
O37 Si2 1.674317 1_455
O38 Si6 1.671002 1_555
O38 Si1 1.674317 1_555
O39 Si10 1.664530 1_555
O39 Si3 1.677028 1_555
O40 Si15 1.671002 1_555
O40 Si7 1.674317 1_555
O41 Si8 1.671002 1_555
O41 Si12 1.674317 1_555
O42 Si12 1.671002 1_555
O42 Si8 1.674317 1_455
O43 Si10 1.619607 1_555
O44 Si0 1.635835 1_555
O45 Si1 1.671002 1_555
O45 Si6 1.674317 1_655
O46 Si4 1.619607 1_555
O47 Si3 1.635835 1_555
