# generated using pymatgen
data_DyMnCrO5
_symmetry_space_group_name_H-M   'P 1'
_cell_length_a   5.83530600
_cell_length_b   7.23985700
_cell_length_c   8.65588900
_cell_angle_alpha   90.00000000
_cell_angle_beta   90.00000000
_cell_angle_gamma   90.00000000
_symmetry_Int_Tables_number   1
_chemical_formula_structural   DyMnCrO5
_chemical_formula_sum   'Dy4 Mn4 Cr4 O20'
_cell_volume   365.68344687
_cell_formula_units_Z   4
loop_
 _symmetry_equiv_pos_site_id
 _symmetry_equiv_pos_as_xyz
  1  'x, y, z'
loop_
 _atom_site_type_symbol
 _atom_site_label
 _atom_site_symmetry_multiplicity
 _atom_site_fract_x
 _atom_site_fract_y
 _atom_site_fract_z
 _atom_site_occupancy
  Dy  Dy0  1  0.50000000  0.36290500  0.32639700  1
  Dy  Dy1  1  0.50000000  0.63709500  0.67360300  1
  Dy  Dy2  1  0.50000000  0.13709500  0.82639700  1
  Dy  Dy3  1  0.50000000  0.86290500  0.17360300  1
  Mn  Mn0  1  0.00000000  0.09230000  0.15002800  1
  Mn  Mn1  1  0.00000000  0.90770000  0.84997200  1
  Mn  Mn2  1  0.00000000  0.40770000  0.65002800  1
  Mn  Mn3  1  0.00000000  0.59230000  0.34997200  1
  Cr  Cr0  1  0.24887800  0.00000000  0.50000000  1
  Cr  Cr1  1  0.75112200  0.00000000  0.50000000  1
  Cr  Cr2  1  0.75112200  0.50000000  0.00000000  1
  Cr  Cr3  1  0.24887800  0.50000000  0.00000000  1
  O  O0  1  0.50000000  0.33045700  0.05430700  1
  O  O1  1  0.50000000  0.66954300  0.94569300  1
  O  O2  1  0.50000000  0.16954300  0.55430700  1
  O  O3  1  0.50000000  0.83045700  0.44569300  1
  O  O4  1  0.25970200  0.10749200  0.28911900  1
  O  O5  1  0.74029800  0.89250800  0.71088100  1
  O  O6  1  0.25970200  0.89250800  0.71088100  1
  O  O7  1  0.74029800  0.39250800  0.78911900  1
  O  O8  1  0.74029800  0.10749200  0.28911900  1
  O  O9  1  0.25970200  0.60749200  0.21088100  1
  O  O10  1  0.74029800  0.60749200  0.21088100  1
  O  O11  1  0.25970200  0.39250800  0.78911900  1
  O  O12  1  0.22469200  0.00000000  0.00000000  1
  O  O13  1  0.77530800  0.00000000  0.00000000  1
  O  O14  1  0.77530800  0.50000000  0.50000000  1
  O  O15  1  0.22469200  0.50000000  0.50000000  1
  O  O16  1  0.00000000  0.35224800  0.07768200  1
  O  O17  1  0.00000000  0.64775200  0.92231800  1
  O  O18  1  0.00000000  0.14775200  0.57768200  1
  O  O19  1  0.00000000  0.85224800  0.42231800  1
loop_
_geom_bond_atom_site_label_1
_geom_bond_atom_site_label_2
_geom_bond_distance
_geom_bond_site_symmetry_2
Dy0 O4 2.343008 1_555
Dy0 O8 2.343008 1_555
Dy0 O0 2.366868 1_555
Dy0 O15 2.413315 1_555
Dy0 O14 2.413315 1_555
Dy0 O2 2.418998 1_555
Dy0 O9 2.470148 1_555
Dy0 O10 2.470148 1_555
Dy1 O6 2.343008 1_555
Dy1 O5 2.343008 1_555
Dy1 O1 2.366868 1_555
Dy1 O14 2.413315 1_555
Dy1 O15 2.413315 1_555
Dy1 O3 2.418998 1_555
Dy1 O11 2.470148 1_555
Dy1 O7 2.470148 1_555
Dy2 O11 2.343008 1_555
Dy2 O7 2.343008 1_555
Dy2 O2 2.366868 1_555
Dy2 O13 2.413315 1_556
Dy2 O12 2.413315 1_556
Dy2 O0 2.418998 1_556
Dy2 O5 2.470148 1_545
Dy2 O6 2.470148 1_545
Dy3 O9 2.343008 1_555
Dy3 O10 2.343008 1_555
Dy3 O3 2.366868 1_555
Dy3 O12 2.413315 1_565
Dy3 O13 2.413315 1_565
Dy3 O1 2.418998 1_554
Dy3 O8 2.470148 1_565
Dy3 O4 2.470148 1_565
Mn0 O4 1.938600 1_555
Mn0 O8 1.938600 1_455
Mn0 O13 1.962671 1_455
Mn0 O12 1.962671 1_555
Mn0 O16 1.983437 1_555
Mn1 O6 1.938600 1_555
Mn1 O5 1.938600 1_455
Mn1 O13 1.962671 1_466
Mn1 O12 1.962671 1_566
Mn1 O17 1.983437 1_555
Mn2 O11 1.938600 1_555
Mn2 O7 1.938600 1_455
Mn2 O14 1.962671 1_455
Mn2 O15 1.962671 1_555
Mn2 O18 1.983437 1_555
Mn3 O10 1.938600 1_455
Mn3 O9 1.938600 1_555
Mn3 O14 1.962671 1_455
Mn3 O15 1.962671 1_555
Mn3 O19 1.983437 1_555
Cr0 O18 1.924970 1_555
Cr0 O19 1.924970 1_545
Cr0 O3 1.968493 1_545
Cr0 O2 1.968493 1_555
Cr0 O6 1.985340 1_545
Cr0 O4 1.985340 1_555
Cr1 O18 1.924970 1_655
Cr1 O19 1.924970 1_645
Cr1 O3 1.968493 1_545
Cr1 O2 1.968493 1_555
Cr1 O5 1.985340 1_545
Cr1 O8 1.985340 1_555
Cr2 O17 1.924970 1_654
Cr2 O16 1.924970 1_655
Cr2 O0 1.968493 1_555
Cr2 O1 1.968493 1_554
Cr2 O10 1.985340 1_555
Cr2 O7 1.985340 1_554
Cr3 O16 1.924970 1_555
Cr3 O17 1.924970 1_554
Cr3 O0 1.968493 1_555
Cr3 O1 1.968493 1_554
Cr3 O9 1.985340 1_555
Cr3 O11 1.985340 1_554
