# generated using pymatgen
data_Mg(ScS2)2
_symmetry_space_group_name_H-M   'P 1'
_cell_length_a   3.63873100
_cell_length_b   12.10543600
_cell_length_c   12.58035000
_cell_angle_alpha   90.00000000
_cell_angle_beta   90.00000000
_cell_angle_gamma   90.00000000
_symmetry_Int_Tables_number   1
_chemical_formula_structural   Mg(ScS2)2
_chemical_formula_sum   'Mg4 Sc8 S16'
_cell_volume   554.14460649
_cell_formula_units_Z   4
loop_
 _symmetry_equiv_pos_site_id
 _symmetry_equiv_pos_as_xyz
  1  'x, y, z'
loop_
 _atom_site_type_symbol
 _atom_site_label
 _atom_site_symmetry_multiplicity
 _atom_site_fract_x
 _atom_site_fract_y
 _atom_site_fract_z
 _atom_site_occupancy
  Mg  Mg0  1  0.75000000  0.12506400  0.42510700  1
  Mg  Mg1  1  0.25000000  0.87493600  0.57489300  1
  Mg  Mg2  1  0.25000000  0.37493600  0.92510700  1
  Mg  Mg3  1  0.75000000  0.62506400  0.07489300  1
  Sc  Sc0  1  0.25000000  0.10956500  0.07949600  1
  Sc  Sc1  1  0.75000000  0.89043500  0.92050400  1
  Sc  Sc2  1  0.75000000  0.39043500  0.57949600  1
  Sc  Sc3  1  0.25000000  0.60956500  0.42050400  1
  Sc  Sc4  1  0.25000000  0.14655900  0.70217000  1
  Sc  Sc5  1  0.75000000  0.85344100  0.29783000  1
  Sc  Sc6  1  0.75000000  0.35344100  0.20217000  1
  Sc  Sc7  1  0.25000000  0.64655900  0.79783000  1
  S  S0  1  0.75000000  0.02537000  0.61393400  1
  S  S1  1  0.25000000  0.97463000  0.38606600  1
  S  S2  1  0.25000000  0.47463000  0.11393400  1
  S  S3  1  0.75000000  0.52537000  0.88606600  1
  S  S4  1  0.25000000  0.03283800  0.88106800  1
  S  S5  1  0.75000000  0.96716200  0.11893200  1
  S  S6  1  0.75000000  0.46716200  0.38106800  1
  S  S7  1  0.25000000  0.53283800  0.61893200  1
  S  S8  1  0.25000000  0.21692400  0.25902000  1
  S  S9  1  0.75000000  0.78307600  0.74098000  1
  S  S10  1  0.75000000  0.28307600  0.75902000  1
  S  S11  1  0.25000000  0.71692400  0.24098000  1
  S  S12  1  0.75000000  0.24869200  0.02180600  1
  S  S13  1  0.25000000  0.75130800  0.97819400  1
  S  S14  1  0.25000000  0.25130800  0.52180600  1
  S  S15  1  0.75000000  0.74869200  0.47819400  1
loop_
_geom_bond_atom_site_label_1
_geom_bond_atom_site_label_2
_geom_bond_distance
_geom_bond_site_symmetry_2
Mg0 S1 2.620613 1_645
Mg0 S1 2.620613 1_545
Mg0 S0 2.664490 1_555
Mg0 S14 2.669362 1_555
Mg0 S14 2.669362 1_655
Mg0 S8 2.985360 1_655
Mg0 S8 2.985360 1_555
Mg1 S0 2.620613 1_565
Mg1 S0 2.620613 1_465
Mg1 S1 2.664490 1_555
Mg1 S15 2.669362 1_455
Mg1 S15 2.669362 1_555
Mg1 S9 2.985360 1_455
Mg1 S9 2.985360 1_555
Mg2 S3 2.620613 1_555
Mg2 S3 2.620613 1_455
Mg2 S2 2.664490 1_556
Mg2 S12 2.669362 1_456
Mg2 S12 2.669362 1_556
Mg2 S10 2.985360 1_455
Mg2 S10 2.985360 1_555
Mg3 S2 2.620613 1_555
Mg3 S2 2.620613 1_655
Mg3 S3 2.664490 1_554
Mg3 S13 2.669362 1_554
Mg3 S13 2.669362 1_654
Mg3 S11 2.985360 1_555
Mg3 S11 2.985360 1_655
S0 Sc4 2.587374 1_655
S0 Sc4 2.587374 1_555
S1 Sc5 2.587374 1_555
S1 Sc5 2.587374 1_455
S2 Sc6 2.587374 1_455
S2 Sc6 2.587374 1_555
S3 Sc7 2.587374 1_555
S3 Sc7 2.587374 1_655
S4 Sc1 2.554973 1_445
S4 Sc1 2.554973 1_545
S4 Sc4 2.638246 1_555
S4 Sc0 2.663490 1_556
S5 Sc0 2.554973 1_665
S5 Sc0 2.554973 1_565
S5 Sc5 2.638246 1_555
S5 Sc1 2.663490 1_554
S6 Sc3 2.554973 1_655
S6 Sc3 2.554973 1_555
S6 Sc6 2.638246 1_555
S6 Sc2 2.663490 1_555
S7 Sc2 2.554973 1_555
S7 Sc2 2.554973 1_455
S7 Sc7 2.638246 1_555
S7 Sc3 2.663490 1_555
S8 Sc6 2.559819 1_455
S8 Sc6 2.559819 1_555
S8 Sc0 2.605713 1_555
S9 Sc7 2.559819 1_555
S9 Sc7 2.559819 1_655
S9 Sc1 2.605713 1_555
S10 Sc4 2.559819 1_655
S10 Sc4 2.559819 1_555
S10 Sc2 2.605713 1_555
S11 Sc5 2.559819 1_455
S11 Sc5 2.559819 1_555
S11 Sc3 2.605713 1_555
S12 Sc0 2.583278 1_655
S12 Sc0 2.583278 1_555
S12 Sc6 2.599319 1_555
S13 Sc1 2.583278 1_555
S13 Sc1 2.583278 1_455
S13 Sc7 2.599319 1_555
S14 Sc2 2.583278 1_455
S14 Sc2 2.583278 1_555
S14 Sc4 2.599319 1_555
S15 Sc3 2.583278 1_655
S15 Sc3 2.583278 1_555
S15 Sc5 2.599319 1_555
