# generated using pymatgen
data_Sm2Be2SiO7
_symmetry_space_group_name_H-M   'P 1'
_cell_length_a   7.44393300
_cell_length_b   7.44393300
_cell_length_c   4.86074500
_cell_angle_alpha   90.00000000
_cell_angle_beta   90.00000000
_cell_angle_gamma   90.00000000
_symmetry_Int_Tables_number   1
_chemical_formula_structural   Sm2Be2SiO7
_chemical_formula_sum   'Sm4 Be4 Si2 O14'
_cell_volume   269.34427519
_cell_formula_units_Z   2
loop_
 _symmetry_equiv_pos_site_id
 _symmetry_equiv_pos_as_xyz
  1  'x, y, z'
loop_
 _atom_site_type_symbol
 _atom_site_label
 _atom_site_symmetry_multiplicity
 _atom_site_fract_x
 _atom_site_fract_y
 _atom_site_fract_z
 _atom_site_occupancy
  Sm  Sm0  1  0.16033100  0.33966900  0.50857800  1
  Sm  Sm1  1  0.83966900  0.66033100  0.50857800  1
  Sm  Sm2  1  0.66033100  0.16033100  0.49142200  1
  Sm  Sm3  1  0.33966900  0.83966900  0.49142200  1
  Be  Be0  1  0.63491500  0.86508500  0.96118800  1
  Be  Be1  1  0.36508500  0.13491500  0.96118800  1
  Be  Be2  1  0.13491500  0.63491500  0.03881200  1
  Be  Be3  1  0.86508500  0.36508500  0.03881200  1
  Si  Si0  1  0.00000000  0.00000000  0.00000000  1
  Si  Si1  1  0.50000000  0.50000000  0.00000000  1
  O  O0  1  0.00000000  0.50000000  0.17858200  1
  O  O1  1  0.50000000  0.00000000  0.82141800  1
  O  O2  1  0.64028900  0.85971100  0.28738800  1
  O  O3  1  0.35971100  0.14028900  0.28738800  1
  O  O4  1  0.14028900  0.64028900  0.71261200  1
  O  O5  1  0.85971100  0.35971100  0.71261200  1
  O  O6  1  0.07754000  0.83546400  0.19411100  1
  O  O7  1  0.92246000  0.16453600  0.19411100  1
  O  O8  1  0.16453600  0.07754000  0.80588900  1
  O  O9  1  0.42246000  0.33546400  0.80588900  1
  O  O10  1  0.83546400  0.92246000  0.80588900  1
  O  O11  1  0.57754000  0.66453600  0.80588900  1
  O  O12  1  0.33546400  0.57754000  0.19411100  1
  O  O13  1  0.66453600  0.42246000  0.19411100  1
loop_
_geom_bond_atom_site_label_1
_geom_bond_atom_site_label_2
_geom_bond_distance
_geom_bond_site_symmetry_2
Be0 O1 1.574419 1_565
Be0 O2 1.586584 1_556
Be0 O10 1.726531 1_555
Be0 O11 1.726531 1_555
Be1 O1 1.574419 1_555
Be1 O3 1.586584 1_556
Be1 O8 1.726531 1_555
Be1 O9 1.726531 1_555
Be2 O0 1.574419 1_555
Be2 O4 1.586584 1_554
Be2 O12 1.726531 1_555
Be2 O6 1.726531 1_555
Be3 O0 1.574419 1_655
Be3 O5 1.586584 1_554
Be3 O7 1.726531 1_555
Be3 O13 1.726531 1_555
O0 Sm0 2.328466 1_555
O0 Sm1 2.328466 1_455
O1 Sm3 2.328466 1_545
O1 Sm2 2.328466 1_555
O2 Sm1 2.358278 1_555
O2 Sm2 2.452258 1_565
O2 Sm3 2.452258 1_555
O3 Sm0 2.358278 1_555
O3 Sm3 2.452258 1_545
O3 Sm2 2.452258 1_555
O4 Sm3 2.358278 1_555
O4 Sm0 2.452258 1_555
O4 Sm1 2.452258 1_455
O5 Sm2 2.358278 1_555
O5 Sm0 2.452258 1_655
O5 Sm1 2.452258 1_555
O6 Si0 1.650310 1_565
O6 Sm3 2.428354 1_555
O6 Sm1 2.677945 1_455
O7 Si0 1.650310 1_655
O7 Sm2 2.428354 1_555
O7 Sm0 2.677945 1_655
O8 Si0 1.650310 1_556
O8 Sm0 2.428354 1_555
O8 Sm3 2.677945 1_545
O9 Si1 1.650310 1_556
O9 Sm0 2.428354 1_555
O9 Sm2 2.677945 1_555
O10 Si0 1.650310 1_666
O10 Sm1 2.428354 1_555
O10 Sm2 2.677945 1_565
O11 Si1 1.650310 1_556
O11 Sm1 2.428354 1_555
O11 Sm3 2.677945 1_555
O12 Si1 1.650310 1_555
O12 Sm3 2.428354 1_555
O12 Sm0 2.677945 1_555
O13 Si1 1.650310 1_555
O13 Sm2 2.428354 1_555
O13 Sm1 2.677945 1_555
