# generated using pymatgen
data_Sb3AsS6
_symmetry_space_group_name_H-M   'P 1'
_cell_length_a   3.79988800
_cell_length_b   11.15213900
_cell_length_c   12.03682400
_cell_angle_alpha   90.00000000
_cell_angle_beta   90.00000000
_cell_angle_gamma   90.00000000
_symmetry_Int_Tables_number   1
_chemical_formula_structural   Sb3AsS6
_chemical_formula_sum   'Sb6 As2 S12'
_cell_volume   510.08303612
_cell_formula_units_Z   2
loop_
 _symmetry_equiv_pos_site_id
 _symmetry_equiv_pos_as_xyz
  1  'x, y, z'
loop_
 _atom_site_type_symbol
 _atom_site_label
 _atom_site_symmetry_multiplicity
 _atom_site_fract_x
 _atom_site_fract_y
 _atom_site_fract_z
 _atom_site_occupancy
  Sb  Sb0  1  0.50000000  0.58463700  0.46312200  1
  Sb  Sb1  1  0.50000000  0.41536300  0.96312200  1
  Sb  Sb2  1  0.50000000  0.21451000  0.63961000  1
  Sb  Sb3  1  0.50000000  0.78549000  0.13961000  1
  Sb  Sb4  1  0.00000000  0.27799100  0.35725900  1
  Sb  Sb5  1  0.00000000  0.72200900  0.85725900  1
  As  As0  1  0.00000000  0.93110700  0.54843300  1
  As  As1  1  0.00000000  0.06889300  0.04843300  1
  S  S0  1  0.00000000  0.36915700  0.54551700  1
  S  S1  1  0.00000000  0.63084300  0.04551700  1
  S  S2  1  0.50000000  0.11668800  0.45453100  1
  S  S3  1  0.50000000  0.88331200  0.95453100  1
  S  S4  1  0.50000000  0.81616400  0.61674100  1
  S  S5  1  0.50000000  0.18383600  0.11674100  1
  S  S6  1  0.00000000  0.69954100  0.37317700  1
  S  S7  1  0.00000000  0.30045900  0.87317700  1
  S  S8  1  0.00000000  0.05392900  0.70150300  1
  S  S9  1  0.00000000  0.94607100  0.20150300  1
  S  S10  1  0.50000000  0.43685100  0.30010600  1
  S  S11  1  0.50000000  0.56314900  0.80010600  1
loop_
_geom_bond_atom_site_label_1
_geom_bond_atom_site_label_2
_geom_bond_distance
_geom_bond_site_symmetry_2
As0 S8 2.295839 1_565
As0 S4 2.434951 1_555
As0 S4 2.434951 1_455
As1 S9 2.295839 1_545
As1 S5 2.434951 1_455
As1 S5 2.434951 1_555
S0 Sb4 2.483658 1_555
S0 Sb2 2.804804 1_455
S0 Sb2 2.804804 1_555
S1 Sb5 2.483658 1_554
S1 Sb3 2.804804 1_455
S1 Sb3 2.804804 1_555
S2 Sb2 2.480533 1_555
S2 Sb4 2.866464 1_555
S2 Sb4 2.866464 1_655
S3 Sb3 2.480533 1_556
S3 Sb5 2.866464 1_655
S3 Sb5 2.866464 1_555
S6 Sb0 2.534556 1_455
S6 Sb0 2.534556 1_555
S7 Sb1 2.534556 1_555
S7 Sb1 2.534556 1_455
S8 Sb2 2.715115 1_455
S8 Sb2 2.715115 1_555
S9 Sb3 2.715115 1_455
S9 Sb3 2.715115 1_555
S10 Sb0 2.562526 1_555
S10 Sb4 2.687325 1_555
S10 Sb4 2.687325 1_655
S11 Sb1 2.562526 1_555
S11 Sb5 2.687325 1_555
S11 Sb5 2.687325 1_655
