# generated using pymatgen
data_LiMnO2
_symmetry_space_group_name_H-M   'P 1'
_cell_length_a   5.91300642
_cell_length_b   6.01696875
_cell_length_c   10.27090356
_cell_angle_alpha   89.41340819
_cell_angle_beta   106.40831499
_cell_angle_gamma   120.00744567
_symmetry_Int_Tables_number   1
_chemical_formula_structural   LiMnO2
_chemical_formula_sum   'Li8 Mn8 O16'
_cell_volume   299.75300562
_cell_formula_units_Z   8
loop_
 _symmetry_equiv_pos_site_id
 _symmetry_equiv_pos_as_xyz
  1  'x, y, z'
loop_
 _atom_site_type_symbol
 _atom_site_label
 _atom_site_symmetry_multiplicity
 _atom_site_fract_x
 _atom_site_fract_y
 _atom_site_fract_z
 _atom_site_occupancy
  Li  Li0  1  0.00586300  0.25276500  0.74965800  1
  Li  Li1  1  0.99419700  0.74729200  0.25038800  1
  Li  Li2  1  0.50007200  0.00003700  0.00003400  1
  Li  Li3  1  0.50003900  0.50009300  0.50000600  1
  Li  Li4  1  0.00004400  0.50010100  0.00002600  1
  Li  Li5  1  0.99994900  0.99999700  0.50005700  1
  Li  Li6  1  0.02274700  0.76910400  0.75832200  1
  Li  Li7  1  0.97747500  0.23086400  0.24181000  1
  Mn  Mn0  1  0.00005700  0.49977400  0.50008100  1
  Mn  Mn1  1  0.00000900  0.99993000  0.99998100  1
  Mn  Mn2  1  0.51458300  0.26359500  0.75364300  1
  Mn  Mn3  1  0.48534600  0.73621900  0.24629100  1
  Mn  Mn4  1  0.50246700  0.75301800  0.74892700  1
  Mn  Mn5  1  0.49754800  0.24709400  0.25101600  1
  Mn  Mn6  1  0.49989100  0.00006800  0.49995400  1
  Mn  Mn7  1  0.50003200  0.50004600  0.99997400  1
  O  O0  1  0.71772100  0.88011500  0.62240000  1
  O  O1  1  0.71368900  0.37403300  0.12644900  1
  O  O2  1  0.28214500  0.11994700  0.37755600  1
  O  O3  1  0.28634600  0.62605800  0.87349900  1
  O  O4  1  0.77950100  0.63618800  0.87653400  1
  O  O5  1  0.73344900  0.09163500  0.38214300  1
  O  O6  1  0.22050400  0.36387300  0.12340800  1
  O  O7  1  0.26635800  0.90826100  0.61785300  1
  O  O8  1  0.26114400  0.14437200  0.88403300  1
  O  O9  1  0.25603800  0.64819300  0.39085700  1
  O  O10  1  0.25012500  0.89960000  0.12681300  1
  O  O11  1  0.25478300  0.40839200  0.62557300  1
  O  O12  1  0.73891300  0.85566400  0.11592100  1
  O  O13  1  0.74382900  0.35173200  0.60916800  1
  O  O14  1  0.74992900  0.10048200  0.87316200  1
  O  O15  1  0.74520400  0.59146100  0.37446300  1
loop_
_geom_bond_atom_site_label_1
_geom_bond_atom_site_label_2
_geom_bond_distance
_geom_bond_site_symmetry_2
Li0 O11 2.079488 1_555
Li0 O8 2.097138 1_555
Li0 O14 2.100628 1_455
Li0 O13 2.116495 1_455
Li0 O3 2.134042 1_555
Li0 O0 2.149323 1_445
Li1 O15 2.079799 1_555
Li1 O12 2.097493 1_555
Li1 O10 2.101200 1_655
Li1 O9 2.116126 1_655
Li1 O1 2.134307 1_555
Li1 O2 2.148864 1_665
Li2 O12 2.102877 1_545
Li2 O10 2.103057 1_545
Li2 O14 2.103442 1_554
Li2 O8 2.103512 1_554
Li2 O1 2.153012 1_555
Li2 O3 2.153419 1_544
Li3 O15 2.076248 1_555
Li3 O11 2.076667 1_555
Li3 O9 2.117591 1_555
Li3 O13 2.117897 1_555
Li3 O0 2.160178 1_555
Li3 O2 2.160872 1_555
Li4 O6 2.022698 1_555
Li4 O4 2.022913 1_454
Li4 O1 2.250715 1_455
Li4 O3 2.251350 1_554
Li4 O10 2.254195 1_555
Li4 O14 2.255043 1_454
Li5 O7 2.007298 1_655
Li5 O5 2.007771 1_565
Li5 O0 2.201445 1_555
Li5 O2 2.202548 1_665
Li5 O11 2.287932 1_665
Li5 O15 2.288900 1_555
Li6 O4 1.999667 1_455
Li6 O8 2.144859 1_565
Li6 O7 2.191016 1_555
Li6 O3 2.202034 1_555
Li6 O0 2.326265 1_455
Li6 O13 2.425331 1_455
Li7 O6 2.000374 1_655
Li7 O12 2.145303 1_545
Li7 O5 2.191464 1_555
Li7 O1 2.204043 1_555
Li7 O2 2.323626 1_655
Li7 O9 2.424690 1_655
Mn0 O13 1.983176 1_455
Mn0 O9 1.983390 1_555
Mn0 O11 1.987288 1_555
Mn0 O15 1.989573 1_455
Mn0 O5 2.256784 1_455
Mn0 O7 2.257743 1_555
Mn1 O10 2.009260 1_556
Mn1 O14 2.009936 1_465
Mn1 O12 2.057202 1_456
Mn1 O8 2.057472 1_565
Mn1 O4 2.089560 1_455
Mn1 O6 2.090372 1_566
Mn2 O7 2.106270 1_545
Mn2 O4 2.121621 1_555
Mn2 O8 2.143080 1_555
Mn2 O13 2.172992 1_555
Mn2 O14 2.187012 1_555
Mn2 O11 2.241169 1_555
Mn3 O5 2.106904 1_565
Mn3 O6 2.120539 1_555
Mn3 O12 2.143419 1_555
Mn3 O9 2.174097 1_555
Mn3 O10 2.187562 1_555
Mn3 O15 2.241652 1_555
Mn4 O3 1.944475 1_555
Mn4 O0 1.958116 1_555
Mn4 O11 2.004454 1_555
Mn4 O14 2.019934 1_565
Mn4 O4 2.194376 1_555
Mn4 O7 2.202462 1_555
Mn5 O1 1.944501 1_555
Mn5 O2 1.958812 1_555
Mn5 O15 2.003813 1_555
Mn5 O10 2.019906 1_545
Mn5 O6 2.194212 1_555
Mn5 O5 2.202822 1_555
Mn6 O2 1.937608 1_555
Mn6 O0 1.938476 1_545
Mn6 O5 1.960700 1_555
Mn6 O7 1.961215 1_545
Mn6 O13 1.974287 1_555
Mn6 O9 1.974727 1_545
Mn7 O1 1.967021 1_556
Mn7 O3 1.967128 1_555
Mn7 O12 2.017579 1_556
Mn7 O8 2.017796 1_555
Mn7 O4 2.194909 1_555
Mn7 O6 2.195114 1_556
