# generated using pymatgen
data_ZrPRh
_symmetry_space_group_name_H-M   'P 1'
_cell_length_a   3.79894385
_cell_length_b   6.52081747
_cell_length_c   7.40817778
_cell_angle_alpha   90.00000000
_cell_angle_beta   90.00000000
_cell_angle_gamma   90.00000000
_symmetry_Int_Tables_number   1
_chemical_formula_structural   ZrPRh
_chemical_formula_sum   'Zr4 P4 Rh4'
_cell_volume   183.51700550
_cell_formula_units_Z   4
loop_
 _symmetry_equiv_pos_site_id
 _symmetry_equiv_pos_as_xyz
  1  'x, y, z'
loop_
 _atom_site_type_symbol
 _atom_site_label
 _atom_site_symmetry_multiplicity
 _atom_site_fract_x
 _atom_site_fract_y
 _atom_site_fract_z
 _atom_site_occupancy
  Zr  Zr0  1  0.75000000  0.47356093  0.68045449  1
  Zr  Zr1  1  0.75000000  0.97356093  0.81954551  1
  Zr  Zr2  1  0.25000000  0.52643907  0.31954551  1
  Zr  Zr3  1  0.25000000  0.02643907  0.18045449  1
  P  P0  1  0.75000000  0.73926723  0.12215847  1
  P  P1  1  0.75000000  0.23926723  0.37784153  1
  P  P2  1  0.25000000  0.26073277  0.87784153  1
  P  P3  1  0.25000000  0.76073277  0.62215847  1
  Rh  Rh0  1  0.75000000  0.35597574  0.06254707  1
  Rh  Rh1  1  0.75000000  0.85597574  0.43745293  1
  Rh  Rh2  1  0.25000000  0.64402426  0.93745293  1
  Rh  Rh3  1  0.25000000  0.14402426  0.56254707  1
loop_
_geom_bond_atom_site_label_1
_geom_bond_atom_site_label_2
_geom_bond_distance
_geom_bond_site_symmetry_2
P0 Rh2 2.421991 1_654
P0 Rh2 2.421991 1_554
P0 Rh1 2.456611 1_555
P0 Rh0 2.538088 1_555
P0 Zr3 2.702058 1_665
P0 Zr3 2.702058 1_565
P0 Zr1 2.712904 1_554
P0 Zr2 2.769888 1_555
P0 Zr2 2.769888 1_655
P1 Rh3 2.421991 1_655
P1 Rh3 2.421991 1_555
P1 Rh0 2.456611 1_555
P1 Rh1 2.538088 1_545
P1 Zr2 2.702058 1_555
P1 Zr2 2.702058 1_655
P1 Zr0 2.712904 1_555
P1 Zr3 2.769888 1_555
P1 Zr3 2.769888 1_655
P2 Rh0 2.421991 1_456
P2 Rh0 2.421991 1_556
P2 Rh3 2.456611 1_555
P2 Rh2 2.538088 1_555
P2 Zr1 2.702058 1_445
P2 Zr1 2.702058 1_545
P2 Zr3 2.712904 1_556
P2 Zr0 2.769888 1_455
P2 Zr0 2.769888 1_555
P3 Rh1 2.421991 1_555
P3 Rh1 2.421991 1_455
P3 Rh2 2.456611 1_555
P3 Rh3 2.538088 1_565
P3 Zr0 2.702058 1_455
P3 Zr0 2.702058 1_555
P3 Zr2 2.712904 1_555
P3 Zr1 2.769888 1_555
P3 Zr1 2.769888 1_455
Rh0 Rh2 2.827518 1_654
Rh0 Rh2 2.827518 1_554
Rh0 Zr2 2.910044 1_555
Rh0 Zr2 2.910044 1_655
Rh0 Zr0 2.932620 1_554
Rh0 Zr3 2.998084 1_655
Rh0 Zr3 2.998084 1_555
Rh0 Zr1 3.075556 1_544
Rh1 Rh3 2.827518 1_565
Rh1 Rh3 2.827518 1_665
Rh1 Zr3 2.910044 1_665
Rh1 Zr3 2.910044 1_565
Rh1 Zr1 2.932620 1_555
Rh1 Zr2 2.998084 1_555
Rh1 Zr2 2.998084 1_655
Rh1 Zr0 3.075556 1_555
Rh2 Zr0 2.910044 1_555
Rh2 Zr0 2.910044 1_455
Rh2 Zr2 2.932620 1_556
Rh2 Zr1 2.998084 1_555
Rh2 Zr1 2.998084 1_455
Rh2 Zr3 3.075556 1_566
Rh3 Zr1 2.910044 1_545
Rh3 Zr1 2.910044 1_445
Rh3 Zr3 2.932620 1_555
Rh3 Zr0 2.998084 1_455
Rh3 Zr0 2.998084 1_555
Rh3 Zr2 3.075556 1_555
