# generated using pymatgen
data_Co4IrN4
_symmetry_space_group_name_H-M   'P 1'
_cell_length_a   4.73362947
_cell_length_b   5.00903026
_cell_length_c   7.93093736
_cell_angle_alpha   71.05912953
_cell_angle_beta   89.46371449
_cell_angle_gamma   80.67155243
_symmetry_Int_Tables_number   1
_chemical_formula_structural   Co4IrN4
_chemical_formula_sum   'Co8 Ir2 N8'
_cell_volume   175.32667159
_cell_formula_units_Z   2
loop_
 _symmetry_equiv_pos_site_id
 _symmetry_equiv_pos_as_xyz
  1  'x, y, z'
loop_
 _atom_site_type_symbol
 _atom_site_label
 _atom_site_symmetry_multiplicity
 _atom_site_fract_x
 _atom_site_fract_y
 _atom_site_fract_z
 _atom_site_occupancy
  Co  Co0  1  0.76631500  0.56363700  0.21322300  1
  Co  Co1  1  0.23368500  0.43636300  0.78677700  1
  Co  Co2  1  0.77978500  0.22573200  0.93205700  1
  Co  Co3  1  0.22021500  0.77426800  0.06794300  1
  Co  Co4  1  0.74560500  0.47709800  0.55966100  1
  Co  Co5  1  0.25439500  0.52290200  0.44033900  1
  Co  Co6  1  0.21795600  0.01717800  0.63566200  1
  Co  Co7  1  0.78204400  0.98282200  0.36433800  1
  Ir  Ir0  1  0.73654000  0.80344500  0.75987100  1
  Ir  Ir1  1  0.26346000  0.19655500  0.24012900  1
  N  N0  1  0.01220800  0.73382700  0.57293600  1
  N  N1  1  0.98779200  0.26617300  0.42706400  1
  N  N2  1  0.83176900  0.82416300  0.00315100  1
  N  N3  1  0.16823100  0.17583700  0.99684900  1
  N  N4  1  0.34735300  0.72979100  0.85749700  1
  N  N5  1  0.65264700  0.27020900  0.14250300  1
  N  N6  1  0.51013200  0.76071800  0.32829800  1
  N  N7  1  0.48986800  0.23928200  0.67170200  1
loop_
_geom_bond_atom_site_label_1
_geom_bond_atom_site_label_2
_geom_bond_distance
_geom_bond_site_symmetry_2
Co0 N2 1.812381 1_555
Co0 N6 1.858527 1_555
Co0 N5 1.887213 1_555
Co0 N1 2.020372 1_555
Co1 N3 1.812381 1_555
Co1 N7 1.858527 1_555
Co1 N4 1.887213 1_555
Co1 N0 2.020372 1_555
Co2 N5 1.837559 1_556
Co2 N3 1.868926 1_655
Co2 N2 1.878922 1_546
Co2 N7 2.466473 1_555
Co3 N4 1.837559 1_554
Co3 N2 1.868926 1_455
Co3 N3 1.878922 1_564
Co3 N6 2.466473 1_555
Co4 N7 1.853179 1_555
Co4 N1 1.960229 1_555
Co4 N0 1.968230 1_655
Co4 N6 2.111939 1_555
Co5 N6 1.853179 1_555
Co5 N0 1.960229 1_555
Co5 N1 1.968230 1_455
Co5 N7 2.111939 1_555
Co6 N4 1.906027 1_545
Co6 N7 1.911457 1_555
Co6 N1 1.932167 1_455
Co6 N0 2.031270 1_545
Co7 N5 1.906027 1_565
Co7 N6 1.911457 1_555
Co7 N0 1.932167 1_655
Co7 N1 2.031270 1_565
Ir0 N2 2.024386 1_556
Ir0 N4 2.034145 1_555
Ir0 N0 2.043111 1_655
Ir0 N7 2.194598 1_565
Ir1 N3 2.024386 1_554
Ir1 N5 2.034145 1_555
Ir1 N1 2.043111 1_455
Ir1 N6 2.194598 1_545
