# generated using pymatgen
data_MoWSeS3
_symmetry_space_group_name_H-M   'P 1'
_cell_length_a   3.22709094
_cell_length_b   3.22709094
_cell_length_c   36.41709300
_cell_angle_alpha   90.00000000
_cell_angle_beta   90.00000000
_cell_angle_gamma   120.00001917
_symmetry_Int_Tables_number   1
_chemical_formula_structural   MoWSeS3
_chemical_formula_sum   'Mo2 W2 Se2 S6'
_cell_volume   328.44165348
_cell_formula_units_Z   2
loop_
 _symmetry_equiv_pos_site_id
 _symmetry_equiv_pos_as_xyz
  1  'x, y, z'
loop_
 _atom_site_type_symbol
 _atom_site_label
 _atom_site_symmetry_multiplicity
 _atom_site_fract_x
 _atom_site_fract_y
 _atom_site_fract_z
 _atom_site_occupancy
  Mo  Mo0  1  0.00000000  0.00000000  0.09390200  1
  Mo  Mo1  1  0.33333300  0.66666700  0.65760300  1
  W  W0  1  0.00000000  0.00000000  0.46965600  1
  W  W1  1  0.33333300  0.66666700  0.28175300  1
  Se  Se0  1  0.33333300  0.66666700  0.42247500  1
  Se  Se1  1  0.33333300  0.66666700  0.51685200  1
  S  S0  1  0.00000000  0.00000000  0.32458900  1
  S  S1  1  0.00000000  0.00000000  0.70020300  1
  S  S2  1  0.33333300  0.66666700  0.05127600  1
  S  S3  1  0.33333300  0.66666700  0.13653700  1
  S  S4  1  0.00000000  0.00000000  0.23893300  1
  S  S5  1  0.00000000  0.00000000  0.61496800  1
loop_
_geom_bond_atom_site_label_1
_geom_bond_atom_site_label_2
_geom_bond_distance
_geom_bond_site_symmetry_2
Mo0 S2 2.425087 1_545
Mo0 S2 2.425089 1_555
Mo0 S2 2.425089 1_445
Mo0 S3 2.425297 1_545
Mo0 S3 2.425299 1_445
Mo0 S3 2.425299 1_555
Mo1 S1 2.424481 1_565
Mo1 S1 2.424483 1_665
Mo1 S1 2.424483 1_555
Mo1 S5 2.425297 1_565
Mo1 S5 2.425299 1_555
Mo1 S5 2.425299 1_665
Se0 W0 2.534474 1_565
Se0 W0 2.534476 1_555
Se0 W0 2.534476 1_665
Se1 W0 2.534845 1_565
Se1 W0 2.534846 1_555
Se1 W0 2.534846 1_665
S0 W1 2.429990 1_545
S0 W1 2.429991 1_445
S0 W1 2.429991 1_555
S4 W1 2.429615 1_545
S4 W1 2.429617 1_555
S4 W1 2.429617 1_445
