# generated using pymatgen
data_K2MoO3F4
_symmetry_space_group_name_H-M   'P 1'
_cell_length_a   6.28853800
_cell_length_b   6.28951442
_cell_length_c   18.38859176
_cell_angle_alpha   95.02206396
_cell_angle_beta   90.00000000
_cell_angle_gamma   90.00000000
_symmetry_Int_Tables_number   1
_chemical_formula_structural   K2MoO3F4
_chemical_formula_sum   'K8 Mo4 O12 F16'
_cell_volume   724.51076040
_cell_formula_units_Z   4
loop_
 _symmetry_equiv_pos_site_id
 _symmetry_equiv_pos_as_xyz
  1  'x, y, z'
loop_
 _atom_site_type_symbol
 _atom_site_label
 _atom_site_symmetry_multiplicity
 _atom_site_fract_x
 _atom_site_fract_y
 _atom_site_fract_z
 _atom_site_occupancy
  K  K0  1  0.66542100  0.69706000  0.10213500  1
  K  K1  1  0.16542100  0.30294000  0.39786500  1
  K  K2  1  0.33457900  0.30294000  0.89786500  1
  K  K3  1  0.83457900  0.69706000  0.60213500  1
  K  K4  1  0.65038100  0.24688000  0.24939500  1
  K  K5  1  0.15038100  0.75312000  0.25060500  1
  K  K6  1  0.34961900  0.75312000  0.75060500  1
  K  K7  1  0.84961900  0.24688000  0.74939500  1
  Mo  Mo0  1  0.65454200  0.79613000  0.37009600  1
  Mo  Mo1  1  0.15454200  0.20387000  0.12990400  1
  Mo  Mo2  1  0.34545800  0.20387000  0.62990400  1
  Mo  Mo3  1  0.84545800  0.79613000  0.87009600  1
  O  O0  1  0.67611700  0.76763900  0.46335400  1
  O  O1  1  0.17611700  0.23236100  0.03664600  1
  O  O2  1  0.32388300  0.23236100  0.53664600  1
  O  O3  1  0.82388300  0.76763900  0.96335400  1
  O  O4  1  0.46828000  0.00188900  0.36604800  1
  O  O5  1  0.96828000  0.99811100  0.13395200  1
  O  O6  1  0.53172000  0.99811100  0.63395200  1
  O  O7  1  0.03172000  0.00188900  0.86604800  1
  O  O8  1  0.67558600  0.28726600  0.00940200  1
  O  O9  1  0.17558600  0.71273400  0.49059800  1
  O  O10  1  0.32441400  0.71273400  0.99059800  1
  O  O11  1  0.82441400  0.28726600  0.50940200  1
  F  F0  1  0.68057800  0.78606800  0.25584900  1
  F  F1  1  0.18057800  0.21393100  0.24415100  1
  F  F2  1  0.31942200  0.21393100  0.74415100  1
  F  F3  1  0.81942200  0.78606800  0.75584900  1
  F  F4  1  0.86907900  0.55039800  0.34537100  1
  F  F5  1  0.36907900  0.44960200  0.15462900  1
  F  F6  1  0.13092100  0.44960200  0.65462900  1
  F  F7  1  0.63092100  0.55039800  0.84537100  1
  F  F8  1  0.44533700  0.56614000  0.34612500  1
  F  F9  1  0.94533700  0.43386000  0.15387500  1
  F  F10  1  0.55466300  0.43386000  0.65387500  1
  F  F11  1  0.05466300  0.56614000  0.84612500  1
  F  F12  1  0.90783600  0.97684700  0.36419400  1
  F  F13  1  0.40783600  0.02315300  0.13580600  1
  F  F14  1  0.09216400  0.02315300  0.63580600  1
  F  F15  1  0.59216400  0.97684700  0.86419400  1
loop_
_geom_bond_atom_site_label_1
_geom_bond_atom_site_label_2
_geom_bond_distance
_geom_bond_site_symmetry_2
K0 O5 2.713086 1_555
K0 O3 2.810877 1_554
K0 O8 2.964022 1_555
K0 O10 2.974955 1_554
K1 O4 2.713086 1_555
K1 O2 2.810877 1_555
K1 O9 2.964022 1_555
K1 O11 2.974955 1_455
K2 O7 2.713086 1_555
K2 O1 2.810877 1_556
K2 O10 2.964022 1_555
K2 O8 2.974955 1_556
K3 O6 2.713086 1_555
K3 O0 2.810877 1_555
K3 O11 2.964022 1_555
K3 O9 2.974955 1_655
K4 O4 2.977539 1_555
K5 O5 2.977539 1_455
K6 O6 2.977539 1_555
K7 O7 2.977539 1_655
Mo0 O0 1.745034 1_555
Mo0 O4 1.751897 1_565
Mo1 O1 1.745034 1_555
Mo1 O5 1.751897 1_445
Mo2 O2 1.745034 1_555
Mo2 O6 1.751897 1_545
Mo3 O3 1.745034 1_555
Mo3 O7 1.751897 1_665
F0 Mo0 2.102634 1_555
F0 K0 2.834611 1_555
F0 K4 2.917262 1_565
F0 K5 2.962612 1_655
F1 Mo1 2.102634 1_555
F1 K1 2.834611 1_555
F1 K5 2.917255 1_545
F1 K4 2.962612 1_555
F2 Mo2 2.102634 1_555
F2 K2 2.834611 1_555
F2 K6 2.917255 1_545
F2 K7 2.962612 1_455
F3 Mo3 2.102634 1_555
F3 K3 2.834611 1_555
F3 K7 2.917262 1_565
F3 K6 2.962612 1_555
F4 Mo0 2.071835 1_555
F4 K1 2.662709 1_655
F4 K4 2.839105 1_555
F4 K5 2.860187 1_655
F5 Mo1 2.071835 1_555
F5 K0 2.662709 1_555
F5 K5 2.839105 1_555
F5 K4 2.860187 1_555
F6 Mo2 2.071835 1_555
F6 K3 2.662709 1_455
F6 K6 2.839105 1_555
F6 K7 2.860187 1_455
F7 Mo3 2.071835 1_555
F7 K2 2.662709 1_555
F7 K7 2.839105 1_555
F7 K6 2.860187 1_555
F8 Mo0 1.976332 1_555
F8 K1 2.649497 1_555
F8 K4 2.869355 1_555
F8 K5 2.875815 1_555
F9 Mo1 1.976332 1_655
F9 K0 2.649497 1_555
F9 K5 2.869355 1_655
F9 K4 2.875815 1_555
F10 Mo2 1.976332 1_555
F10 K3 2.649497 1_555
F10 K6 2.869355 1_555
F10 K7 2.875815 1_555
F11 Mo3 1.976332 1_455
F11 K2 2.649497 1_555
F11 K7 2.869355 1_455
F11 K6 2.875815 1_555
F12 Mo0 1.965313 1_555
F12 K1 2.644117 1_665
F12 K5 2.855641 1_655
F13 Mo1 1.965313 1_555
F13 K0 2.644117 1_545
F13 K4 2.855641 1_555
F14 Mo2 1.965313 1_555
F14 K3 2.644117 1_445
F14 K7 2.855641 1_455
F15 Mo3 1.965313 1_555
F15 K2 2.644117 1_565
F15 K6 2.855641 1_555
