# generated using pymatgen
data_In4Pd17Se4
_symmetry_space_group_name_H-M   'P 1'
_cell_length_a   10.50643328
_cell_length_b   10.50643328
_cell_length_c   10.50643328
_cell_angle_alpha   92.11511383
_cell_angle_beta   92.11511383
_cell_angle_gamma   157.84778244
_symmetry_Int_Tables_number   1
_chemical_formula_structural   In4Pd17Se4
_chemical_formula_sum   'In4 Pd17 Se4'
_cell_volume   429.16098568
_cell_formula_units_Z   1
loop_
 _symmetry_equiv_pos_site_id
 _symmetry_equiv_pos_as_xyz
  1  'x, y, z'
loop_
 _atom_site_type_symbol
 _atom_site_label
 _atom_site_symmetry_multiplicity
 _atom_site_fract_x
 _atom_site_fract_y
 _atom_site_fract_z
 _atom_site_occupancy
  In  In0  1  0.33839000  0.38445600  0.72284500  1
  In  In1  1  0.66161000  0.61554400  0.27715500  1
  In  In2  1  0.61554400  0.33839000  0.95393400  1
  In  In3  1  0.38445600  0.66161000  0.04606600  1
  Pd  Pd0  1  0.18462500  0.25169000  0.43631500  1
  Pd  Pd1  1  0.81537500  0.74831000  0.56368500  1
  Pd  Pd2  1  0.74831000  0.18462500  0.93293500  1
  Pd  Pd3  1  0.25169000  0.81537500  0.06706500  1
  Pd  Pd4  1  0.22769100  0.54534700  0.77303900  1
  Pd  Pd5  1  0.77230900  0.45465300  0.22696100  1
  Pd  Pd6  1  0.45465300  0.22769100  0.68234400  1
  Pd  Pd7  1  0.54534700  0.77230900  0.31765600  1
  Pd  Pd8  1  0.69812800  0.90877400  0.60690200  1
  Pd  Pd9  1  0.30187200  0.09122600  0.39309800  1
  Pd  Pd10  1  0.09122600  0.69812800  0.78935400  1
  Pd  Pd11  1  0.90877400  0.30187200  0.21064600  1
  Pd  Pd12  1  0.02117600  0.13649000  0.15766600  1
  Pd  Pd13  1  0.97882400  0.86351000  0.84233400  1
  Pd  Pd14  1  0.86351000  0.02117600  0.88468600  1
  Pd  Pd15  1  0.13649000  0.97882400  0.11531400  1
  Pd  Pd16  1  0.50000000  0.50000000  0.00000000  1
  Se  Se0  1  0.07124600  0.37704800  0.44829500  1
  Se  Se1  1  0.92875400  0.62295200  0.55170500  1
  Se  Se2  1  0.62295200  0.07124600  0.69419800  1
  Se  Se3  1  0.37704800  0.92875400  0.30580200  1
loop_
_geom_bond_atom_site_label_1
_geom_bond_atom_site_label_2
_geom_bond_distance
_geom_bond_site_symmetry_2
In0 Pd6 2.845922 1_555
In0 Pd4 2.847714 1_555
In0 Pd1 2.850914 1_555
In0 Pd1 2.850917 1_445
In0 Pd14 2.860529 1_565
In0 Pd14 2.860532 1_455
In0 Pd13 2.891469 1_555
In0 Pd13 2.891472 1_445
In0 Pd8 2.895295 1_555
In0 Pd8 2.895298 1_445
In0 Pd16 2.896874 1_556
In0 Pd0 2.962256 1_555
In1 Pd7 2.845922 1_555
In1 Pd5 2.847714 1_555
In1 Pd0 2.850914 1_555
In1 Pd0 2.850917 1_665
In1 Pd15 2.860529 1_545
In1 Pd15 2.860532 1_655
In1 Pd12 2.891469 1_555
In1 Pd12 2.891472 1_665
In1 Pd9 2.895295 1_555
In1 Pd9 2.895298 1_665
In1 Pd16 2.896874 1_555
In1 Pd1 2.962256 1_555
In2 Pd5 2.845913 1_556
In2 Pd6 2.847710 1_555
In2 Pd3 2.850921 1_656
In2 Pd3 2.850921 1_546
In2 Pd13 2.860524 1_445
In2 Pd13 2.860524 1_555
In2 Pd15 2.891466 1_656
In2 Pd15 2.891466 1_546
In2 Pd10 2.895301 1_655
In2 Pd10 2.895301 1_545
In2 Pd16 2.896864 1_556
In2 Pd2 2.962267 1_555
In3 Pd4 2.845913 1_554
In3 Pd7 2.847710 1_555
In3 Pd2 2.850921 1_454
In3 Pd2 2.850921 1_564
In3 Pd12 2.860524 1_555
In3 Pd12 2.860524 1_665
In3 Pd14 2.891466 1_564
In3 Pd14 2.891466 1_454
In3 Pd11 2.895301 1_565
In3 Pd11 2.895301 1_455
In3 Pd16 2.896864 1_555
In3 Pd3 2.962267 1_555
Pd0 Se0 2.464650 1_555
Pd0 Pd12 2.915826 1_555
Pd1 Se1 2.464650 1_555
Pd1 Pd13 2.915826 1_555
Pd2 Se2 2.464649 1_555
Pd3 Se3 2.464649 1_555
Pd4 Se2 2.559134 1_455
Pd4 Se2 2.559137 1_565
Pd5 Se3 2.559134 1_655
Pd5 Se3 2.559137 1_545
Pd6 Se1 2.559136 1_445
Pd6 Se1 2.559139 1_555
Pd7 Se0 2.559136 1_665
Pd7 Se0 2.559139 1_555
Pd8 Se2 2.610410 1_565
Pd8 Se0 2.776870 1_665
Pd8 Se0 2.776872 1_555
Pd9 Se3 2.610410 1_545
Pd9 Se1 2.776870 1_445
Pd9 Se1 2.776872 1_555
Pd10 Se1 2.610420 1_455
Pd10 Se2 2.776877 1_455
Pd10 Se2 2.776877 1_565
Pd10 Pd13 2.915783 1_455
Pd11 Se0 2.610420 1_655
Pd11 Se3 2.776877 1_655
Pd11 Se3 2.776877 1_545
Pd11 Pd12 2.915783 1_655
Pd12 Pd15 2.848296 1_545
Pd12 Pd14 2.848296 1_454
Pd12 Pd7 2.849639 1_555
Pd12 Pd7 2.849639 1_445
Pd12 Pd16 2.851388 1_555
Pd12 Pd16 2.851388 1_445
Pd13 Pd15 2.848296 1_656
Pd13 Pd14 2.848296 1_565
Pd13 Pd6 2.849639 1_665
Pd13 Pd6 2.849639 1_555
Pd13 Pd16 2.851388 1_666
Pd13 Pd16 2.851388 1_556
Pd14 Pd4 2.849633 1_655
Pd14 Pd4 2.849636 1_545
Pd14 Pd16 2.851388 1_546
Pd14 Pd16 2.851388 1_656
Pd14 Pd8 2.915783 1_545
Pd14 Pd2 2.915826 1_555
Pd15 Pd5 2.849633 1_455
Pd15 Pd5 2.849636 1_565
Pd15 Pd16 2.851388 1_565
Pd15 Pd16 2.851388 1_455
Pd15 Pd9 2.915783 1_565
Pd15 Pd3 2.915826 1_555
