# generated using pymatgen
data_Yb4PbS8
_symmetry_space_group_name_H-M   'P 1'
_cell_length_a   4.90685700
_cell_length_b   7.49239012
_cell_length_c   16.90025888
_cell_angle_alpha   77.36500703
_cell_angle_beta   90.00000000
_cell_angle_gamma   90.00000000
_symmetry_Int_Tables_number   1
_chemical_formula_structural   Yb4PbS8
_chemical_formula_sum   'Yb8 Pb2 S16'
_cell_volume   606.27623509
_cell_formula_units_Z   2
loop_
 _symmetry_equiv_pos_site_id
 _symmetry_equiv_pos_as_xyz
  1  'x, y, z'
loop_
 _atom_site_type_symbol
 _atom_site_label
 _atom_site_symmetry_multiplicity
 _atom_site_fract_x
 _atom_site_fract_y
 _atom_site_fract_z
 _atom_site_occupancy
  Yb  Yb0  1  0.25000000  0.11837600  0.75758500  1
  Yb  Yb1  1  0.25000000  0.65299300  0.05134300  1
  Yb  Yb2  1  0.25000000  0.52490500  0.74856700  1
  Yb  Yb3  1  0.25000000  0.37251700  0.44381700  1
  Yb  Yb4  1  0.75000000  0.34150800  0.94814100  1
  Yb  Yb5  1  0.75000000  0.87659400  0.24207000  1
  Yb  Yb6  1  0.75000000  0.62034500  0.55472300  1
  Yb  Yb7  1  0.75000000  0.46913500  0.24988800  1
  Pb  Pb0  1  0.25000000  0.88799300  0.39837700  1
  Pb  Pb1  1  0.75000000  0.10407800  0.60123200  1
  S  S0  1  0.25000000  0.09182400  0.59636700  1
  S  S1  1  0.25000000  0.63734800  0.29128100  1
  S  S2  1  0.25000000  0.56695500  0.89982800  1
  S  S3  1  0.25000000  0.75508600  0.59656400  1
  S  S4  1  0.25000000  0.09351500  0.13716600  1
  S  S5  1  0.25000000  0.23290500  0.89500100  1
  S  S6  1  0.25000000  0.43182800  0.59623900  1
  S  S7  1  0.25000000  0.89257000  0.89681200  1
  S  S8  1  0.75000000  0.11121000  0.10443100  1
  S  S9  1  0.75000000  0.23765500  0.40225200  1
  S  S10  1  0.75000000  0.43754200  0.09799700  1
  S  S11  1  0.75000000  0.91948900  0.86585500  1
  S  S12  1  0.75000000  0.56099100  0.40238100  1
  S  S13  1  0.75000000  0.76954900  0.10339600  1
  S  S14  1  0.75000000  0.35816500  0.70680200  1
  S  S15  1  0.75000000  0.90062400  0.40318400  1
loop_
_geom_bond_atom_site_label_1
_geom_bond_atom_site_label_2
_geom_bond_distance
_geom_bond_site_symmetry_2
Pb0 S15 2.457281 1_555
Pb0 S15 2.457281 1_455
Pb0 S1 2.879151 1_555
Pb1 S0 2.457194 1_655
Pb1 S0 2.457194 1_555
Pb1 S14 2.879807 1_555
S0 S3 2.522246 1_545
S0 S6 2.546970 1_555
S0 Yb0 2.774940 1_555
S0 Yb3 2.949177 1_555
S1 Yb3 2.888758 1_555
S1 Yb7 2.912523 1_455
S1 Yb7 2.912523 1_555
S1 Yb5 3.044988 1_455
S1 Yb5 3.044988 1_555
S2 S7 2.428994 1_555
S2 S5 2.521934 1_555
S2 Yb2 2.643204 1_555
S2 Yb1 2.773909 1_556
S2 Yb4 2.989282 1_455
S2 Yb4 2.989282 1_555
S3 S6 2.423182 1_555
S3 Yb2 2.763203 1_555
S3 Yb6 2.801926 1_455
S3 Yb6 2.801926 1_555
S4 S8 2.512143 1_555
S4 S8 2.512143 1_455
S4 Yb5 3.247060 1_545
S4 Yb5 3.247060 1_445
S5 S7 2.543403 1_545
S5 Yb0 2.646040 1_555
S5 Yb4 2.794218 1_455
S5 Yb4 2.794218 1_555
S5 Yb2 2.922713 1_555
S6 Yb3 2.708116 1_555
S6 Yb2 2.810547 1_555
S6 Yb6 2.841311 1_555
S6 Yb6 2.841311 1_455
S6 Yb0 3.185796 1_555
S7 Yb0 2.580161 1_565
S7 Yb1 2.826965 1_556
S8 Yb5 2.590763 1_545
S8 Yb4 2.821370 1_554
S9 Yb7 2.772142 1_555
S9 Yb3 2.800762 1_555
S9 Yb3 2.800762 1_655
S10 S8 2.423545 1_555
S10 S13 2.509065 1_555
S10 Yb7 2.628941 1_555
S10 Yb4 2.780109 1_554
S10 Yb1 2.947873 1_655
S10 Yb1 2.947873 1_555
S11 S7 2.507498 1_555
S11 S7 2.507498 1_655
S11 Yb0 3.224145 1_665
S11 Yb0 3.224145 1_565
S12 S9 2.423037 1_555
S12 S15 2.547666 1_555
S12 Yb6 2.706901 1_555
S12 Yb7 2.809163 1_555
S12 Yb3 2.840981 1_555
S12 Yb3 2.840981 1_655
S12 Yb5 3.182615 1_555
S13 S8 2.563740 1_565
S13 Yb5 2.637827 1_555
S13 Yb1 2.809254 1_655
S13 Yb1 2.809254 1_555
S13 Yb7 2.959341 1_555
S14 Yb6 2.873286 1_555
S14 Yb2 2.909294 1_655
S14 Yb2 2.909294 1_555
S14 Yb0 3.051080 1_555
S14 Yb0 3.051080 1_655
S15 S9 2.521769 1_565
S15 Yb5 2.767832 1_555
S15 Yb6 2.935302 1_555
