# generated using pymatgen
data_LiV2CrO6
_symmetry_space_group_name_H-M   'P 1'
_cell_length_a   5.08609548
_cell_length_b   5.07526358
_cell_length_c   5.44419078
_cell_angle_alpha   117.71560475
_cell_angle_beta   61.50832364
_cell_angle_gamma   121.19850008
_symmetry_Int_Tables_number   1
_chemical_formula_structural   LiV2CrO6
_chemical_formula_sum   'Li1 V2 Cr1 O6'
_cell_volume   101.11091549
_cell_formula_units_Z   1
loop_
 _symmetry_equiv_pos_site_id
 _symmetry_equiv_pos_as_xyz
  1  'x, y, z'
loop_
 _atom_site_type_symbol
 _atom_site_label
 _atom_site_symmetry_multiplicity
 _atom_site_fract_x
 _atom_site_fract_y
 _atom_site_fract_z
 _atom_site_occupancy
  Li  Li0  1  0.71798300  0.28297800  0.85420600  1
  V  V0  1  0.00588200  0.00748700  0.01009300  1
  V  V1  1  0.50510900  0.50381700  0.49200300  1
  Cr  Cr0  1  0.19623300  0.79898000  0.40755300  1
  O  O0  1  0.27637700  0.10663000  0.21773700  1
  O  O1  1  0.90417700  0.38362500  0.21141500  1
  O  O2  1  0.61957500  0.73803400  0.21155400  1
  O  O3  1  0.36696500  0.20877100  0.70740400  1
  O  O4  1  0.13243500  0.61743800  0.69696600  1
  O  O5  1  0.77446500  0.85304000  0.69266500  1
loop_
_geom_bond_atom_site_label_1
_geom_bond_atom_site_label_2
_geom_bond_distance
_geom_bond_site_symmetry_2
Li0 O4 1.995160 1_655
Li0 O5 2.059290 1_545
Li0 O3 2.086302 1_555
Li0 O0 2.255381 1_556
Li0 O1 2.295981 1_556
Li0 O2 2.336347 1_556
Cr0 O1 1.991467 1_455
Cr0 O4 1.997408 1_555
Cr0 O2 2.015282 1_555
Cr0 O3 2.016881 1_565
Cr0 O0 2.027721 1_565
Cr0 O5 2.030557 1_455
O0 V0 1.913467 1_555
O0 V1 2.018520 1_555
O1 V0 1.910254 1_655
O1 V1 2.069574 1_555
O2 V0 1.867898 1_665
O2 V1 2.050933 1_555
O3 V0 1.966412 1_556
O3 V1 1.966840 1_555
O4 V1 1.919995 1_555
O4 V0 2.091270 1_566
O5 V1 1.822885 1_555
O5 V0 2.170482 1_666
