# generated using pymatgen
data_Mg(CoO2)2
_symmetry_space_group_name_H-M   'P 1'
_cell_length_a   5.95406864
_cell_length_b   5.95406864
_cell_length_c   5.95406864
_cell_angle_alpha   120.54300332
_cell_angle_beta   119.97333735
_cell_angle_gamma   89.55412803
_symmetry_Int_Tables_number   1
_chemical_formula_structural   Mg(CoO2)2
_chemical_formula_sum   'Mg2 Co4 O8'
_cell_volume   148.66224141
_cell_formula_units_Z   2
loop_
 _symmetry_equiv_pos_site_id
 _symmetry_equiv_pos_as_xyz
  1  'x, y, z'
loop_
 _atom_site_type_symbol
 _atom_site_label
 _atom_site_symmetry_multiplicity
 _atom_site_fract_x
 _atom_site_fract_y
 _atom_site_fract_z
 _atom_site_occupancy
  Mg  Mg0  1  0.00000000  0.50000000  0.50000000  1
  Mg  Mg1  1  0.50000000  0.50000000  0.00000000  1
  Co  Co0  1  0.13133000  0.88133000  0.25000000  1
  Co  Co1  1  0.86867000  0.11867000  0.75000000  1
  Co  Co2  1  0.50000000  0.00000000  0.00000000  1
  Co  Co3  1  0.50000000  0.50000000  0.50000000  1
  O  O0  1  0.73507900  0.24128100  0.00620200  1
  O  O1  1  0.74237900  0.25227100  0.49010800  1
  O  O2  1  0.73507900  0.72887700  0.49379800  1
  O  O3  1  0.26216300  0.25227100  0.00989200  1
  O  O4  1  0.73783700  0.74772900  0.99010800  1
  O  O5  1  0.25762100  0.74772900  0.50989200  1
  O  O6  1  0.26492100  0.27112300  0.50620200  1
  O  O7  1  0.26492100  0.75871900  0.99379800  1
loop_
_geom_bond_atom_site_label_1
_geom_bond_atom_site_label_2
_geom_bond_distance
_geom_bond_site_symmetry_2
Mg0 O6 2.075090 1_555
Mg0 O7 2.075090 1_555
Mg0 O0 2.075090 1_455
Mg0 O2 2.075090 1_455
Mg0 O5 2.094888 1_555
Mg0 O1 2.094888 1_455
Mg1 O2 2.075090 1_555
Mg1 O0 2.075090 1_555
Mg1 O7 2.075090 1_554
Mg1 O6 2.075090 1_554
Mg1 O4 2.094888 1_554
Mg1 O3 2.094888 1_555
Co0 O7 1.887879 1_554
Co0 O6 1.887879 1_565
Co0 O4 1.916198 1_454
Co0 O5 1.916198 1_555
Co1 O2 1.887879 1_545
Co1 O0 1.887879 1_556
Co1 O1 1.916198 1_555
Co1 O3 1.916198 1_656
Co2 O0 1.987466 1_555
Co2 O7 1.987466 1_544
Co2 O3 2.055539 1_555
Co2 O5 2.055539 1_544
Co2 O1 2.055539 1_555
Co2 O4 2.055539 1_544
Co3 O2 1.987466 1_555
Co3 O6 1.987466 1_555
Co3 O3 2.055539 1_555
Co3 O4 2.055539 1_555
Co3 O5 2.055539 1_555
Co3 O1 2.055539 1_555
