# generated using pymatgen
data_MgAu2
_symmetry_space_group_name_H-M   'P 1'
_cell_length_a   5.07125047
_cell_length_b   5.07125047
_cell_length_c   4.80793705
_cell_angle_alpha   90.00000000
_cell_angle_beta   90.00000000
_cell_angle_gamma   122.08467906
_symmetry_Int_Tables_number   1
_chemical_formula_structural   MgAu2
_chemical_formula_sum   'Mg2 Au4'
_cell_volume   104.76293140
_cell_formula_units_Z   2
loop_
 _symmetry_equiv_pos_site_id
 _symmetry_equiv_pos_as_xyz
  1  'x, y, z'
loop_
 _atom_site_type_symbol
 _atom_site_label
 _atom_site_symmetry_multiplicity
 _atom_site_fract_x
 _atom_site_fract_y
 _atom_site_fract_z
 _atom_site_occupancy
  Mg  Mg0  1  0.79129555  0.79129555  0.75000000  1
  Mg  Mg1  1  0.20870445  0.20870445  0.25000000  1
  Au  Au0  1  0.54267741  0.86457381  0.25000000  1
  Au  Au1  1  0.13542619  0.45732259  0.75000000  1
  Au  Au2  1  0.45732259  0.13542619  0.75000000  1
  Au  Au3  1  0.86457381  0.54267741  0.25000000  1
loop_
_geom_bond_atom_site_label_1
_geom_bond_atom_site_label_2
_geom_bond_distance
_geom_bond_site_symmetry_2
Mg0 Mg1 3.159192 1_666
Mg0 Mg1 3.159192 1_665
Au0 Mg1 2.819013 1_555
Au0 Mg0 2.829228 1_554
Au0 Mg0 2.829228 1_555
Au0 Au3 2.856657 1_555
Au0 Mg1 2.862128 1_665
Au0 Au2 2.912854 1_565
Au0 Au2 2.912854 1_564
Au0 Au3 2.920064 1_565
Au0 Au3 2.920064 1_455
Au0 Mg1 3.009006 1_565
Au0 Au1 3.127059 1_554
Au0 Au1 3.127059 1_555
Au1 Mg0 2.819013 1_555
Au1 Mg1 2.829228 1_556
Au1 Mg1 2.829228 1_555
Au1 Au2 2.856657 1_555
Au1 Mg0 2.862128 1_445
Au1 Au3 2.912854 1_455
Au1 Au3 2.912854 1_456
Au1 Au2 2.920064 1_565
Au1 Au2 2.920064 1_455
Au1 Mg0 3.009006 1_455
Au2 Mg0 2.819013 1_555
Au2 Mg1 2.829228 1_556
Au2 Mg1 2.829228 1_555
Au2 Mg0 2.862128 1_445
Au2 Mg0 3.009006 1_545
Au2 Au3 3.127059 1_555
Au2 Au3 3.127059 1_556
Au3 Mg1 2.819013 1_555
Au3 Mg0 2.829228 1_554
Au3 Mg0 2.829228 1_555
Au3 Mg1 2.862128 1_665
Au3 Mg1 3.009006 1_655
