# generated using pymatgen
data_Dy3(In2Co)2
_symmetry_space_group_name_H-M   'P 1'
_cell_length_a   7.83717773
_cell_length_b   7.83718017
_cell_length_c   3.63314129
_cell_angle_alpha   90.00000000
_cell_angle_beta   90.00000000
_cell_angle_gamma   120.00005208
_symmetry_Int_Tables_number   1
_chemical_formula_structural   Dy3(In2Co)2
_chemical_formula_sum   'Dy3 In4 Co2'
_cell_volume   193.25565809
_cell_formula_units_Z   1
loop_
 _symmetry_equiv_pos_site_id
 _symmetry_equiv_pos_as_xyz
  1  'x, y, z'
loop_
 _atom_site_type_symbol
 _atom_site_label
 _atom_site_symmetry_multiplicity
 _atom_site_fract_x
 _atom_site_fract_y
 _atom_site_fract_z
 _atom_site_occupancy
  Dy  Dy0  1  0.04858286  0.29688249  0.50000000  1
  Dy  Dy1  1  0.70311651  0.75170038  0.50000000  1
  Dy  Dy2  1  0.24830062  0.95141714  0.50000000  1
  In  In0  1  0.66698790  0.08051046  0.00000000  1
  In  In1  1  0.91948954  0.58647644  -0.00000000  1
  In  In2  1  0.41352356  0.33301210  0.00000000  1
  In  In3  1  0.33333300  0.66666700  0.00000000  1
  Co  Co0  1  0.66666700  0.33333300  0.50000000  1
  Co  Co1  1  0.00000000  -0.00000000  0.00000000  1
loop_
_geom_bond_atom_site_label_1
_geom_bond_atom_site_label_2
_geom_bond_distance
_geom_bond_site_symmetry_2
Dy0 In0 3.169856 1_455
Dy0 In0 3.169856 1_456
Dy0 In3 3.195541 1_556
Dy0 In3 3.195541 1_555
Dy0 In2 3.278789 1_555
Dy0 In2 3.278789 1_556
Dy0 In1 3.430864 1_456
Dy0 In1 3.430864 1_455
Dy1 In1 3.169869 1_555
Dy1 In1 3.169869 1_556
Dy1 In3 3.195538 1_556
Dy1 In3 3.195538 1_555
Dy1 In0 3.278779 1_565
Dy1 In0 3.278779 1_566
Dy1 In2 3.430865 1_556
Dy1 In2 3.430865 1_555
Dy2 In2 3.169856 1_566
Dy2 In2 3.169856 1_565
Dy2 In3 3.195535 1_556
Dy2 In3 3.195535 1_555
Dy2 In1 3.278787 1_455
Dy2 In1 3.278787 1_456
Dy2 In0 3.430862 1_565
Dy2 In0 3.430862 1_566
In0 In3 2.979271 1_545
In1 In3 2.979267 1_655
In2 In3 2.979284 1_555
Co0 In1 2.689037 1_555
Co0 In1 2.689037 1_556
Co0 In2 2.689038 1_555
Co0 In2 2.689038 1_556
Co0 In0 2.689038 1_555
Co0 In0 2.689038 1_556
Co0 Dy2 3.145718 1_545
Co0 Dy0 3.145721 1_655
Co0 Dy1 3.145732 1_555
Co1 Dy0 2.823584 1_554
Co1 Dy0 2.823584 1_555
Co1 Dy1 2.823587 1_445
Co1 Dy1 2.823587 1_444
Co1 Dy2 2.823590 1_544
Co1 Dy2 2.823590 1_545
Co1 In0 2.975961 1_455
Co1 In2 2.975964 1_555
Co1 In1 2.975969 1_445
