# generated using pymatgen
data_Rb2PdC4N4O
_symmetry_space_group_name_H-M   'P 1'
_cell_length_a   7.71619800
_cell_length_b   9.96719000
_cell_length_c   13.87990700
_cell_angle_alpha   90.00000000
_cell_angle_beta   90.00000000
_cell_angle_gamma   90.00000000
_symmetry_Int_Tables_number   1
_chemical_formula_structural   Rb2PdC4N4O
_chemical_formula_sum   'Rb8 Pd4 C16 N16 O4'
_cell_volume   1067.48715171
_cell_formula_units_Z   4
loop_
 _symmetry_equiv_pos_site_id
 _symmetry_equiv_pos_as_xyz
  1  'x, y, z'
loop_
 _atom_site_type_symbol
 _atom_site_label
 _atom_site_symmetry_multiplicity
 _atom_site_fract_x
 _atom_site_fract_y
 _atom_site_fract_z
 _atom_site_occupancy
  Rb  Rb0  1  0.30757400  0.25000000  0.75000000  1
  Rb  Rb1  1  0.19242600  0.75000000  0.75000000  1
  Rb  Rb2  1  0.69242600  0.75000000  0.25000000  1
  Rb  Rb3  1  0.80757400  0.25000000  0.25000000  1
  Rb  Rb4  1  0.75000000  0.00000000  0.59939600  1
  Rb  Rb5  1  0.75000000  0.50000000  0.90060400  1
  Rb  Rb6  1  0.25000000  0.00000000  0.40060400  1
  Rb  Rb7  1  0.25000000  0.50000000  0.09939600  1
  Pd  Pd0  1  0.50000000  0.50000000  0.50000000  1
  Pd  Pd1  1  0.00000000  0.50000000  0.50000000  1
  Pd  Pd2  1  0.50000000  0.00000000  0.00000000  1
  Pd  Pd3  1  0.00000000  0.00000000  0.00000000  1
  C  C0  1  0.00227300  0.47105800  0.64232400  1
  C  C1  1  0.49772700  0.52894200  0.64232400  1
  C  C2  1  0.00227300  0.02894200  0.85767600  1
  C  C3  1  0.49772700  0.97105800  0.85767600  1
  C  C4  1  0.99772700  0.52894200  0.35767600  1
  C  C5  1  0.50227300  0.47105800  0.35767600  1
  C  C6  1  0.99772700  0.97105800  0.14232400  1
  C  C7  1  0.50227300  0.02894200  0.14232400  1
  C  C8  1  0.96907600  0.30300400  0.47980900  1
  C  C9  1  0.53092400  0.69699600  0.47980900  1
  C  C10  1  0.96907600  0.19699600  0.02019100  1
  C  C11  1  0.53092400  0.80300400  0.02019100  1
  C  C12  1  0.03092400  0.69699600  0.52019100  1
  C  C13  1  0.46907600  0.30300400  0.52019100  1
  C  C14  1  0.03092400  0.80300400  0.97980900  1
  C  C15  1  0.46907600  0.19699600  0.97980900  1
  N  N0  1  0.01122800  0.45650800  0.72626900  1
  N  N1  1  0.48877200  0.54349200  0.72626900  1
  N  N2  1  0.01122800  0.04349200  0.77373100  1
  N  N3  1  0.48877200  0.95650800  0.77373100  1
  N  N4  1  0.98877200  0.54349200  0.27373100  1
  N  N5  1  0.51122800  0.45650800  0.27373100  1
  N  N6  1  0.98877200  0.95650800  0.22626900  1
  N  N7  1  0.51122800  0.04349200  0.22626900  1
  N  N8  1  0.95121700  0.18786600  0.46539900  1
  N  N9  1  0.54878300  0.81213400  0.46539900  1
  N  N10  1  0.95121700  0.31213400  0.03460100  1
  N  N11  1  0.54878300  0.68786600  0.03460100  1
  N  N12  1  0.04878300  0.81213400  0.53460100  1
  N  N13  1  0.45121700  0.18786600  0.53460100  1
  N  N14  1  0.04878300  0.68786600  0.96539900  1
  N  N15  1  0.45121700  0.31213400  0.96539900  1
  O  O0  1  0.71761600  0.25000000  0.75000000  1
  O  O1  1  0.78238400  0.75000000  0.75000000  1
  O  O2  1  0.28238400  0.75000000  0.25000000  1
  O  O3  1  0.21761600  0.25000000  0.25000000  1
loop_
_geom_bond_atom_site_label_1
_geom_bond_atom_site_label_2
_geom_bond_distance
_geom_bond_site_symmetry_2
C0 N0 1.176171 1_555
C0 Pd1 1.996472 1_555
C1 N1 1.176171 1_555
C1 Pd0 1.996472 1_555
C2 N2 1.176171 1_555
C2 Pd3 1.996472 1_556
C3 N3 1.176171 1_555
C3 Pd2 1.996472 1_566
C4 N4 1.176171 1_555
C4 Pd1 1.996472 1_655
C5 N5 1.176171 1_555
C5 Pd0 1.996472 1_555
C6 N6 1.176171 1_555
C6 Pd3 1.996472 1_665
C7 N7 1.176171 1_555
C7 Pd2 1.996472 1_555
C8 N8 1.173024 1_555
C8 Pd1 1.997698 1_655
C9 N9 1.173024 1_555
C9 Pd0 1.997698 1_555
C10 N10 1.173024 1_555
C10 Pd3 1.997698 1_655
C11 N11 1.173024 1_555
C11 Pd2 1.997698 1_565
C12 N12 1.173024 1_555
C12 Pd1 1.997698 1_555
C13 N13 1.173024 1_555
C13 Pd0 1.997698 1_555
C14 N14 1.173024 1_555
C14 Pd3 1.997698 1_566
C15 N15 1.173024 1_555
C15 Pd2 1.997698 1_556
N0 Rb0 3.094179 1_555
N0 Rb5 3.179012 1_455
N0 Rb1 3.258937 1_555
N1 Rb1 3.094179 1_555
N1 Rb5 3.179012 1_555
N1 Rb0 3.258937 1_555
N2 Rb0 3.094179 1_555
N2 Rb4 3.179012 1_455
N2 Rb1 3.258937 1_545
N3 Rb1 3.094179 1_555
N3 Rb4 3.179012 1_565
N3 Rb0 3.258937 1_565
N4 Rb2 3.094179 1_555
N4 Rb7 3.179012 1_655
N4 Rb3 3.258937 1_555
N5 Rb3 3.094179 1_555
N5 Rb7 3.179012 1_555
N5 Rb2 3.258937 1_555
N6 Rb2 3.094179 1_555
N6 Rb6 3.179012 1_665
N6 Rb3 3.258937 1_565
N7 Rb3 3.094179 1_555
N7 Rb6 3.179012 1_555
N7 Rb2 3.258937 1_545
N8 Rb4 3.062026 1_555
N8 Rb6 3.103265 1_655
N8 Rb3 3.248146 1_555
N9 Rb4 3.062026 1_565
N9 Rb6 3.103265 1_565
N9 Rb2 3.248146 1_555
N10 Rb5 3.062026 1_554
N10 Rb7 3.103265 1_655
N10 Rb3 3.248146 1_555
N11 Rb5 3.062026 1_554
N11 Rb7 3.103265 1_555
N11 Rb2 3.248146 1_555
N12 Rb6 3.062026 1_565
N12 Rb4 3.103265 1_465
N12 Rb1 3.248146 1_555
N13 Rb6 3.062026 1_555
N13 Rb4 3.103265 1_555
N13 Rb0 3.248146 1_555
N14 Rb7 3.062026 1_556
N14 Rb5 3.103265 1_455
N14 Rb1 3.248146 1_555
N15 Rb7 3.062026 1_556
N15 Rb5 3.103265 1_555
N15 Rb0 3.248146 1_555
O0 Rb0 3.163965 1_555
O0 Rb5 3.262076 1_555
O0 Rb4 3.262076 1_555
O1 Rb1 3.163965 1_655
O1 Rb5 3.262076 1_555
O1 Rb4 3.262076 1_565
O2 Rb2 3.163965 1_555
O2 Rb6 3.262076 1_565
O2 Rb7 3.262076 1_555
O3 Rb3 3.163965 1_455
O3 Rb7 3.262076 1_555
O3 Rb6 3.262076 1_555
