# generated using pymatgen
data_Mg6MnCd
_symmetry_space_group_name_H-M   'P 1'
_cell_length_a   4.96888600
_cell_length_b   6.26079700
_cell_length_c   10.84438200
_cell_angle_alpha   90.00000000
_cell_angle_beta   90.00000000
_cell_angle_gamma   90.00000000
_symmetry_Int_Tables_number   1
_chemical_formula_structural   Mg6MnCd
_chemical_formula_sum   'Mg12 Mn2 Cd2'
_cell_volume   337.35990279
_cell_formula_units_Z   2
loop_
 _symmetry_equiv_pos_site_id
 _symmetry_equiv_pos_as_xyz
  1  'x, y, z'
loop_
 _atom_site_type_symbol
 _atom_site_label
 _atom_site_symmetry_multiplicity
 _atom_site_fract_x
 _atom_site_fract_y
 _atom_site_fract_z
 _atom_site_occupancy
  Mg  Mg0  1  0.50000000  0.24897800  0.41653600  1
  Mg  Mg1  1  0.50000000  0.75102200  0.41653600  1
  Mg  Mg2  1  0.00000000  0.75645300  0.08541100  1
  Mg  Mg3  1  0.00000000  0.24354700  0.08541100  1
  Mg  Mg4  1  0.00000000  0.00000000  0.32887700  1
  Mg  Mg5  1  0.00000000  0.50000000  0.33316200  1
  Mg  Mg6  1  0.50000000  0.74897800  0.91653600  1
  Mg  Mg7  1  0.50000000  0.25102200  0.91653600  1
  Mg  Mg8  1  0.00000000  0.25645300  0.58541100  1
  Mg  Mg9  1  0.00000000  0.74354700  0.58541100  1
  Mg  Mg10  1  0.00000000  0.50000000  0.82887700  1
  Mg  Mg11  1  0.00000000  0.00000000  0.83316200  1
  Mn  Mn0  1  0.50000000  0.00000000  0.16759300  1
  Mn  Mn1  1  0.50000000  0.50000000  0.66759300  1
  Cd  Cd0  1  0.50000000  0.50000000  0.16646900  1
  Cd  Cd1  1  0.50000000  0.00000000  0.66646900  1
loop_
_geom_bond_atom_site_label_1
_geom_bond_atom_site_label_2
_geom_bond_distance
_geom_bond_site_symmetry_2
Mg0 Mg5 3.075686 1_555
Mg0 Mg5 3.075686 1_655
Mg0 Mg4 3.083176 1_655
Mg0 Mg4 3.083176 1_555
Mg0 Mg8 3.086822 1_655
Mg0 Mg8 3.086822 1_555
Mg0 Mn0 3.117351 1_555
Mg0 Mg1 3.117601 1_545
Mg0 Mg1 3.143196 1_555
Mg0 Mn1 3.143603 1_555
Mg1 Mg5 3.075686 1_655
Mg1 Mg5 3.075686 1_555
Mg1 Mg4 3.083176 1_665
Mg1 Mg4 3.083176 1_565
Mg1 Mg9 3.086822 1_555
Mg1 Mg9 3.086822 1_655
Mg1 Mn0 3.117351 1_565
Mg1 Mn1 3.143603 1_555
Mg2 Mn0 3.048234 1_565
Mg2 Mn0 3.048234 1_465
Mg2 Mg4 3.048913 1_565
Mg2 Mg3 3.049597 1_565
Mg2 Mg6 3.086822 1_454
Mg2 Mg6 3.086822 1_554
Mg2 Mg5 3.129911 1_555
Mg2 Mg3 3.211200 1_555
Mg3 Mn0 3.048234 1_555
Mg3 Mn0 3.048234 1_455
Mg3 Mg4 3.048913 1_555
Mg3 Mg7 3.086822 1_554
Mg3 Mg7 3.086822 1_454
Mg3 Mg5 3.129911 1_555
Mg4 Mn0 3.038346 1_555
Mg4 Mn0 3.038346 1_455
Mg4 Mg5 3.130743 1_545
Mg4 Mg5 3.130743 1_555
Mg4 Mg8 3.212042 1_555
Mg4 Mg9 3.212042 1_545
Mg5 Mg8 3.131754 1_555
Mg5 Mg9 3.131754 1_555
Mg6 Mn1 3.117351 1_555
Mg6 Mg7 3.117601 1_555
Mg6 Mg7 3.143196 1_565
Mg6 Mn0 3.143603 1_566
Mg7 Mn1 3.117351 1_555
Mg7 Mn0 3.143603 1_556
Mg8 Mn1 3.048234 1_555
Mg8 Mn1 3.048234 1_455
Mg8 Mg9 3.049597 1_555
Mg8 Mg9 3.211200 1_545
Mg9 Mn1 3.048234 1_555
Mg9 Mn1 3.048234 1_455
Mg10 Mn1 3.038346 1_455
Mg10 Mn1 3.038346 1_555
Mg10 Mg9 3.048913 1_555
Mg10 Mg8 3.048913 1_555
Mg10 Mg6 3.083176 1_455
Mg10 Mg6 3.083176 1_555
Mg10 Mg7 3.083176 1_455
Mg10 Mg7 3.083176 1_555
Mg10 Mg11 3.130743 1_565
Mg10 Mg11 3.130743 1_555
Mg10 Mg2 3.212042 1_556
Mg10 Mg3 3.212042 1_556
Mg11 Mg7 3.075686 1_455
Mg11 Mg7 3.075686 1_555
Mg11 Mg6 3.075686 1_545
Mg11 Mg6 3.075686 1_445
Mg11 Mg9 3.129911 1_545
Mg11 Mg8 3.129911 1_555
Mg11 Mg3 3.131754 1_556
Mg11 Mg2 3.131754 1_546
Cd0 Mg5 3.072486 1_555
Cd0 Mg5 3.072486 1_655
Cd0 Mg2 3.085951 1_555
Cd0 Mg2 3.085951 1_655
Cd0 Mg3 3.085951 1_555
Cd0 Mg3 3.085951 1_655
Cd0 Mg6 3.126653 1_554
Cd0 Mg7 3.126653 1_554
Cd0 Mn0 3.130422 1_565
Cd0 Mn0 3.130422 1_555
Cd0 Mg1 3.134310 1_555
Cd0 Mg0 3.134310 1_555
Cd1 Mg11 3.072486 1_655
Cd1 Mg11 3.072486 1_555
Cd1 Mg8 3.085951 1_655
Cd1 Mg8 3.085951 1_555
Cd1 Mg9 3.085951 1_545
Cd1 Mg9 3.085951 1_645
Cd1 Mg0 3.126653 1_555
Cd1 Mg1 3.126653 1_545
Cd1 Mn1 3.130422 1_555
Cd1 Mn1 3.130422 1_545
Cd1 Mg7 3.134310 1_555
Cd1 Mg6 3.134310 1_545
