# generated using pymatgen
data_Ni4CN4
_symmetry_space_group_name_H-M   'P 1'
_cell_length_a   9.04691900
_cell_length_b   2.77382100
_cell_length_c   15.19119600
_cell_angle_alpha   90.00000000
_cell_angle_beta   90.00000000
_cell_angle_gamma   90.00000000
_symmetry_Int_Tables_number   1
_chemical_formula_structural   Ni4CN4
_chemical_formula_sum   'Ni16 C4 N16'
_cell_volume   381.21598312
_cell_formula_units_Z   4
loop_
 _symmetry_equiv_pos_site_id
 _symmetry_equiv_pos_as_xyz
  1  'x, y, z'
loop_
 _atom_site_type_symbol
 _atom_site_label
 _atom_site_symmetry_multiplicity
 _atom_site_fract_x
 _atom_site_fract_y
 _atom_site_fract_z
 _atom_site_occupancy
  Ni  Ni0  1  0.03933500  0.25000000  0.15598500  1
  Ni  Ni1  1  0.53933500  0.25000000  0.34401500  1
  Ni  Ni2  1  0.96066500  0.75000000  0.84401500  1
  Ni  Ni3  1  0.46066500  0.75000000  0.65598500  1
  Ni  Ni4  1  0.85642600  0.25000000  0.03427300  1
  Ni  Ni5  1  0.35642600  0.25000000  0.46572700  1
  Ni  Ni6  1  0.14357400  0.75000000  0.96572700  1
  Ni  Ni7  1  0.64357400  0.75000000  0.53427300  1
  Ni  Ni8  1  0.44627000  0.25000000  0.81304900  1
  Ni  Ni9  1  0.94627000  0.25000000  0.68695100  1
  Ni  Ni10  1  0.55373000  0.75000000  0.18695100  1
  Ni  Ni11  1  0.05373000  0.75000000  0.31304900  1
  Ni  Ni12  1  0.18836500  0.25000000  0.78413000  1
  Ni  Ni13  1  0.68836500  0.25000000  0.71587000  1
  Ni  Ni14  1  0.81163500  0.75000000  0.21587000  1
  Ni  Ni15  1  0.31163500  0.75000000  0.28413000  1
  C  C0  1  0.33268400  0.25000000  0.08345300  1
  C  C1  1  0.83268400  0.25000000  0.41654700  1
  C  C2  1  0.66731600  0.75000000  0.91654700  1
  C  C3  1  0.16731600  0.75000000  0.58345300  1
  N  N0  1  0.66593700  0.25000000  0.24335300  1
  N  N1  1  0.16593700  0.25000000  0.25664700  1
  N  N2  1  0.33406300  0.75000000  0.75664700  1
  N  N3  1  0.83406300  0.75000000  0.74335300  1
  N  N4  1  0.09313200  0.25000000  0.88888700  1
  N  N5  1  0.59313200  0.25000000  0.61111300  1
  N  N6  1  0.90686800  0.75000000  0.11111300  1
  N  N7  1  0.40686800  0.75000000  0.38888700  1
  N  N8  1  0.20460300  0.25000000  0.05267800  1
  N  N9  1  0.70460300  0.25000000  0.44732200  1
  N  N10  1  0.79539700  0.75000000  0.94732200  1
  N  N11  1  0.29539700  0.75000000  0.55267800  1
  N  N12  1  0.45200500  0.25000000  0.12030500  1
  N  N13  1  0.95200500  0.25000000  0.37969500  1
  N  N14  1  0.54799500  0.75000000  0.87969500  1
  N  N15  1  0.04799500  0.75000000  0.62030500  1
loop_
_geom_bond_atom_site_label_1
_geom_bond_atom_site_label_2
_geom_bond_distance
_geom_bond_site_symmetry_2
C0 N12 1.216017 1_555
C0 N8 1.249496 1_555
C1 N13 1.216017 1_555
C1 N9 1.249496 1_555
C2 N14 1.216017 1_555
C2 N10 1.249496 1_555
C3 N15 1.216017 1_555
C3 N11 1.249496 1_555
N0 Ni1 1.910556 1_555
N0 Ni10 1.920452 1_545
N0 Ni10 1.920452 1_555
N0 Ni14 1.958382 1_555
N0 Ni14 1.958382 1_545
N1 Ni0 1.910556 1_555
N1 Ni11 1.920452 1_555
N1 Ni11 1.920452 1_545
N1 Ni15 1.958382 1_545
N1 Ni15 1.958382 1_555
N2 Ni3 1.910556 1_555
N2 Ni8 1.920452 1_565
N2 Ni8 1.920452 1_555
N2 Ni12 1.958382 1_555
N2 Ni12 1.958382 1_565
N3 Ni2 1.910556 1_555
N3 Ni9 1.920452 1_565
N3 Ni9 1.920452 1_555
N3 Ni13 1.958382 1_555
N3 Ni13 1.958382 1_565
N4 Ni12 1.809640 1_555
N4 Ni6 1.869316 1_545
N4 Ni6 1.869316 1_555
N4 Ni2 1.955604 1_445
N4 Ni2 1.955604 1_455
N5 Ni13 1.809640 1_555
N5 Ni7 1.869316 1_545
N5 Ni7 1.869316 1_555
N5 Ni3 1.955604 1_555
N5 Ni3 1.955604 1_545
N6 Ni14 1.809640 1_555
N6 Ni4 1.869316 1_565
N6 Ni4 1.869316 1_555
N6 Ni0 1.955604 1_655
N6 Ni0 1.955604 1_665
N7 Ni15 1.809640 1_555
N7 Ni5 1.869316 1_555
N7 Ni5 1.869316 1_565
N7 Ni1 1.955604 1_555
N7 Ni1 1.955604 1_565
N8 Ni6 1.993267 1_554
N8 Ni6 1.993267 1_544
N8 Ni0 2.167580 1_555
N9 Ni7 1.993267 1_555
N9 Ni7 1.993267 1_545
N9 Ni1 2.167580 1_555
N10 Ni4 1.993267 1_566
N10 Ni4 1.993267 1_556
N10 Ni2 2.167580 1_555
N11 Ni5 1.993267 1_555
N11 Ni5 1.993267 1_565
N11 Ni3 2.167580 1_555
N12 Ni10 1.948201 1_555
N12 Ni10 1.948201 1_545
N13 Ni11 1.948201 1_655
N13 Ni11 1.948201 1_645
N14 Ni8 1.948201 1_555
N14 Ni8 1.948201 1_565
N15 Ni9 1.948201 1_465
N15 Ni9 1.948201 1_455
