# generated using pymatgen
data_Fe3B7BrO13
_symmetry_space_group_name_H-M   'P 1'
_cell_length_a   8.74279567
_cell_length_b   8.74279567
_cell_length_c   8.74279560
_cell_angle_alpha   59.82250612
_cell_angle_beta   59.82250612
_cell_angle_gamma   59.82250720
_symmetry_Int_Tables_number   1
_chemical_formula_structural   Fe3B7BrO13
_chemical_formula_sum   'Fe6 B14 Br2 O26'
_cell_volume   470.63347238
_cell_formula_units_Z   2
loop_
 _symmetry_equiv_pos_site_id
 _symmetry_equiv_pos_as_xyz
  1  'x, y, z'
loop_
 _atom_site_type_symbol
 _atom_site_label
 _atom_site_symmetry_multiplicity
 _atom_site_fract_x
 _atom_site_fract_y
 _atom_site_fract_z
 _atom_site_occupancy
  Fe  Fe0  1  0.00953500  0.01053300  0.46074100  1
  Fe  Fe1  1  0.01053300  0.46074100  0.00953500  1
  Fe  Fe2  1  0.46074100  0.00953500  0.01053300  1
  Fe  Fe3  1  0.50953500  0.96074100  0.51053300  1
  Fe  Fe4  1  0.96074100  0.51053300  0.50953500  1
  Fe  Fe5  1  0.51053300  0.50953500  0.96074100  1
  B  B0  1  0.88812500  0.88812500  0.88812500  1
  B  B1  1  0.38812500  0.38812500  0.38812500  1
  B  B2  1  0.71970100  0.41477100  0.41589000  1
  B  B3  1  0.41477100  0.41589000  0.71970100  1
  B  B4  1  0.41589000  0.71970100  0.41477100  1
  B  B5  1  0.21970100  0.91589000  0.91477100  1
  B  B6  1  0.91589000  0.91477100  0.21970100  1
  B  B7  1  0.91477100  0.21970100  0.91589000  1
  B  B8  1  0.73466800  0.23925100  0.24264000  1
  B  B9  1  0.23925100  0.24264000  0.73466800  1
  B  B10  1  0.24264000  0.73466800  0.23925100  1
  B  B11  1  0.23466800  0.74264000  0.73925100  1
  B  B12  1  0.74264000  0.73925100  0.23466800  1
  B  B13  1  0.73925100  0.23466800  0.74264000  1
  Br  Br0  1  0.22991900  0.22991900  0.22991900  1
  Br  Br1  1  0.72991900  0.72991900  0.72991900  1
  O  O0  1  0.04392600  0.88130600  0.72727200  1
  O  O1  1  0.88130600  0.72727200  0.04392600  1
  O  O2  1  0.72727200  0.04392600  0.88130600  1
  O  O3  1  0.54392600  0.22727200  0.38130600  1
  O  O4  1  0.22727200  0.38130600  0.54392600  1
  O  O5  1  0.38130600  0.54392600  0.22727200  1
  O  O6  1  0.24282600  0.77309900  0.38447500  1
  O  O7  1  0.77309900  0.38447500  0.24282600  1
  O  O8  1  0.38447500  0.24282600  0.77309900  1
  O  O9  1  0.74282600  0.88447500  0.27309900  1
  O  O10  1  0.88447500  0.27309900  0.74282600  1
  O  O11  1  0.27309900  0.74282600  0.88447500  1
  O  O12  1  0.78549400  0.23753000  0.55480700  1
  O  O13  1  0.23753000  0.55480700  0.78549400  1
  O  O14  1  0.55480700  0.78549400  0.23753000  1
  O  O15  1  0.28549400  0.05480700  0.73753000  1
  O  O16  1  0.05480700  0.73753000  0.28549400  1
  O  O17  1  0.73753000  0.28549400  0.05480700  1
  O  O18  1  0.87490100  0.05227100  0.29770800  1
  O  O19  1  0.05227100  0.29770800  0.87490100  1
  O  O20  1  0.29770800  0.87490100  0.05227100  1
  O  O21  1  0.37490100  0.79770800  0.55227100  1
  O  O22  1  0.79770800  0.55227100  0.37490100  1
  O  O23  1  0.55227100  0.37490100  0.79770800  1
  O  O24  1  0.50020800  0.50020800  0.50020800  1
  O  O25  1  0.00020800  0.00020800  0.00020800  1
loop_
_geom_bond_atom_site_label_1
_geom_bond_atom_site_label_2
_geom_bond_distance
_geom_bond_site_symmetry_2
Fe0 O18 2.069384 1_455
Fe0 O0 2.124352 1_545
Fe0 O12 2.136549 1_455
Fe0 O6 2.163654 1_545
Fe1 O19 2.069384 1_554
Fe1 O1 2.124352 1_455
Fe1 O13 2.136549 1_554
Fe1 O7 2.163654 1_455
Fe2 O20 2.069384 1_545
Fe2 O2 2.124352 1_554
Fe2 O14 2.136549 1_545
Fe2 O8 2.163654 1_554
Fe3 O21 2.069384 1_555
Fe3 O3 2.124352 1_565
Fe3 O15 2.136549 1_565
Fe3 O9 2.163654 1_555
Fe4 O22 2.069384 1_555
Fe4 O4 2.124352 1_655
Fe4 O16 2.136549 1_655
Fe4 O10 2.163654 1_555
Fe5 O23 2.069384 1_555
Fe5 O5 2.124352 1_556
Fe5 O17 2.136549 1_556
Fe5 O11 2.163654 1_555
B0 O1 1.383280 1_556
B0 O0 1.383280 1_655
B0 O2 1.383280 1_565
B1 O4 1.383280 1_555
B1 O5 1.383280 1_555
B1 O3 1.383280 1_555
B2 O12 1.456464 1_555
B2 O7 1.464891 1_555
B2 O22 1.477872 1_555
B2 O24 1.572948 1_555
B3 O13 1.456464 1_555
B3 O8 1.464891 1_555
B3 O23 1.477872 1_555
B3 O24 1.572948 1_555
B4 O14 1.456464 1_555
B4 O6 1.464891 1_555
B4 O21 1.477872 1_555
B4 O24 1.572948 1_555
B5 O15 1.456464 1_565
B5 O11 1.464891 1_555
B5 O20 1.477872 1_556
B5 O25 1.572948 1_566
B6 O16 1.456464 1_655
B6 O9 1.464891 1_555
B6 O18 1.477872 1_565
B6 O25 1.572948 1_665
B7 O17 1.456464 1_556
B7 O10 1.464891 1_555
B7 O19 1.477872 1_655
B7 O25 1.572948 1_656
B8 O7 1.468487 1_555
B8 O17 1.470452 1_555
B8 O18 1.481379 1_555
B8 O3 1.508993 1_555
B9 O8 1.468487 1_555
B9 O15 1.470452 1_555
B9 O19 1.481379 1_555
B9 O4 1.508993 1_555
B10 O6 1.468487 1_555
B10 O16 1.470452 1_555
B10 O20 1.481379 1_555
B10 O5 1.508993 1_555
B11 O11 1.468487 1_555
B11 O13 1.470452 1_555
B11 O21 1.481379 1_555
B11 O0 1.508993 1_555
B12 O9 1.468487 1_555
B12 O14 1.470452 1_555
B12 O22 1.481379 1_555
B12 O1 1.508993 1_555
B13 O10 1.468487 1_555
B13 O12 1.470452 1_555
B13 O23 1.481379 1_555
B13 O2 1.508993 1_555
Br0 Fe0 2.716376 1_555
Br0 Fe1 2.716376 1_555
Br0 Fe2 2.716376 1_555
Br1 Fe5 2.716376 1_555
Br1 Fe4 2.716376 1_555
Br1 Fe3 2.716376 1_555
