# generated using pymatgen
data_Nd6S3(OF4)2
_symmetry_space_group_name_H-M   'P 1'
_cell_length_a   3.87588800
_cell_length_b   13.58586900
_cell_length_c   13.68009861
_cell_angle_alpha   60.27058079
_cell_angle_beta   90.00000000
_cell_angle_gamma   90.00000000
_symmetry_Int_Tables_number   1
_chemical_formula_structural   Nd6S3(OF4)2
_chemical_formula_sum   'Nd12 S6 O4 F16'
_cell_volume   625.54157890
_cell_formula_units_Z   2
loop_
 _symmetry_equiv_pos_site_id
 _symmetry_equiv_pos_as_xyz
  1  'x, y, z'
loop_
 _atom_site_type_symbol
 _atom_site_label
 _atom_site_symmetry_multiplicity
 _atom_site_fract_x
 _atom_site_fract_y
 _atom_site_fract_z
 _atom_site_occupancy
  Nd  Nd0  1  0.50000000  0.05540600  0.22684600  1
  Nd  Nd1  1  0.50000000  0.71783500  0.05635000  1
  Nd  Nd2  1  0.50000000  0.23656000  0.71222300  1
  Nd  Nd3  1  0.00000000  0.94728100  0.76230900  1
  Nd  Nd4  1  0.00000000  0.29149800  0.94607700  1
  Nd  Nd5  1  0.00000000  0.76336000  0.29294700  1
  Nd  Nd6  1  0.50000000  0.38845700  0.13817600  1
  Nd  Nd7  1  0.50000000  0.47358800  0.39674400  1
  Nd  Nd8  1  0.50000000  0.13784000  0.47657100  1
  Nd  Nd9  1  0.00000000  0.60200200  0.86028600  1
  Nd  Nd10  1  0.00000000  0.52462400  0.60179200  1
  Nd  Nd11  1  0.00000000  0.85756700  0.53628300  1
  S  S0  1  0.50000000  0.72822300  0.47087200  1
  S  S1  1  0.50000000  0.80254400  0.72191000  1
  S  S2  1  0.50000000  0.47272800  0.80973700  1
  S  S3  1  0.00000000  0.27599600  0.53092000  1
  S  S4  1  0.00000000  0.18691200  0.28072300  1
  S  S5  1  0.00000000  0.53374900  0.18345100  1
  O  O0  1  0.50000000  0.43327700  0.58710600  1
  O  O1  1  0.00000000  0.01692500  0.56500500  1
  O  O2  1  0.00000000  0.41638000  0.02131700  1
  O  O3  1  0.00000000  0.56810000  0.41151400  1
  F  F0  1  0.50000000  0.33394400  0.33330500  1
  F  F1  1  0.00000000  0.66239600  0.66645100  1
  F  F2  1  0.50000000  0.89408500  0.20278700  1
  F  F3  1  0.50000000  0.90203500  0.89230100  1
  F  F4  1  0.50000000  0.20568400  0.90356700  1
  F  F5  1  0.00000000  0.10593400  0.79604200  1
  F  F6  1  0.00000000  0.09625200  0.10386500  1
  F  F7  1  0.00000000  0.80032400  0.09732400  1
  F  F8  1  0.50000000  0.24677600  0.07209600  1
  F  F9  1  0.50000000  0.68294100  0.24738500  1
  F  F10  1  0.50000000  0.06967800  0.68159400  1
  F  F11  1  0.00000000  0.74755500  0.92868300  1
  F  F12  1  0.00000000  0.32054800  0.75393600  1
  F  F13  1  0.00000000  0.93260700  0.32209300  1
  F  F14  1  0.50000000  0.97800200  0.43340100  1
  F  F15  1  0.50000000  0.59038600  0.97601000  1
loop_
_geom_bond_atom_site_label_1
_geom_bond_atom_site_label_2
_geom_bond_distance
_geom_bond_site_symmetry_2
Nd0 S4 2.965959 1_655
Nd0 S4 2.965959 1_555
Nd1 S5 2.953097 1_555
Nd1 S5 2.953097 1_655
Nd2 O0 2.352725 1_555
Nd2 S3 2.979316 1_555
Nd2 S3 2.979316 1_655
Nd3 O1 2.376480 1_565
Nd3 S1 3.000924 1_455
Nd3 S1 3.000924 1_555
Nd4 O2 2.381180 1_556
Nd4 S2 2.956683 1_455
Nd4 S2 2.956683 1_555
Nd5 O3 2.323909 1_555
Nd5 S0 2.958987 1_455
Nd5 S0 2.958987 1_555
Nd6 O2 2.419444 1_555
Nd6 O2 2.419444 1_655
Nd6 S5 3.041079 1_555
Nd6 S5 3.041079 1_655
Nd6 S4 3.124108 1_555
Nd6 S4 3.124108 1_655
Nd7 O0 2.380571 1_555
Nd7 O3 2.387991 1_555
Nd7 O3 2.387991 1_655
Nd7 S3 3.073123 1_555
Nd7 S3 3.073123 1_655
Nd7 S5 3.251504 1_555
Nd7 S5 3.251504 1_655
Nd8 O1 2.438587 1_655
Nd8 O1 2.438587 1_555
Nd8 S3 3.035709 1_555
Nd8 S3 3.035709 1_655
Nd8 S4 3.099476 1_555
Nd8 S4 3.099476 1_655
Nd9 O2 2.388015 1_556
Nd9 S2 2.919412 1_455
Nd9 S2 2.919412 1_555
Nd9 S1 3.105941 1_455
Nd9 S1 3.105941 1_555
Nd10 O0 2.362928 1_555
Nd10 O0 2.362928 1_455
Nd10 O3 2.366368 1_555
Nd10 S0 3.114642 1_555
Nd10 S0 3.114642 1_455
Nd10 S2 3.218051 1_455
Nd10 S2 3.218051 1_555
Nd11 O1 2.384407 1_565
Nd11 S1 2.979971 1_455
Nd11 S1 2.979971 1_555
Nd11 S0 3.033782 1_555
Nd11 S0 3.033782 1_455
F0 Nd6 2.390259 1_555
F0 Nd8 2.400106 1_555
F0 Nd7 2.446522 1_555
F1 Nd11 2.349200 1_555
F1 Nd9 2.355153 1_555
F1 Nd10 2.434739 1_555
F2 Nd0 2.372183 1_565
F2 Nd5 2.501705 1_655
F2 Nd5 2.501705 1_555
F3 Nd1 2.393510 1_556
F3 Nd3 2.492323 1_555
F3 Nd3 2.492323 1_655
F4 Nd2 2.436962 1_555
F4 Nd4 2.474971 1_555
F4 Nd4 2.474971 1_655
F5 Nd3 2.417726 1_545
F5 Nd2 2.490306 1_455
F5 Nd2 2.490306 1_555
F6 Nd0 2.442960 1_555
F6 Nd0 2.442960 1_455
F6 Nd4 2.452900 1_554
F7 Nd1 2.439013 1_455
F7 Nd1 2.439013 1_555
F7 Nd5 2.465970 1_555
F8 Nd0 2.404650 1_555
F8 Nd4 2.461286 1_654
F8 Nd4 2.461286 1_554
F8 Nd6 2.499610 1_555
F9 Nd1 2.413652 1_555
F9 Nd5 2.452187 1_655
F9 Nd5 2.452187 1_555
F9 Nd7 2.549644 1_555
F10 Nd3 2.432882 1_645
F10 Nd3 2.432882 1_545
F10 Nd8 2.479529 1_555
F10 Nd2 2.501627 1_555
F11 Nd1 2.503897 1_456
F11 Nd1 2.503897 1_556
F11 Nd3 2.533335 1_555
F11 Nd9 2.573125 1_555
F12 Nd2 2.455411 1_455
F12 Nd2 2.455411 1_555
F12 Nd4 2.456811 1_555
F12 Nd10 2.509116 1_555
F13 Nd0 2.465912 1_565
F13 Nd0 2.465912 1_465
F13 Nd5 2.520985 1_555
F13 Nd11 2.581144 1_555
F14 Nd11 2.475822 1_555
F14 Nd11 2.475822 1_655
F14 Nd0 2.478556 1_565
F14 Nd8 2.517199 1_565
F15 Nd9 2.457437 1_555
F15 Nd9 2.457437 1_655
F15 Nd1 2.468498 1_556
F15 Nd6 2.532084 1_556
