# generated using pymatgen
data_KNaCaCo5(SiO3)8
_symmetry_space_group_name_H-M   'P 1'
_cell_length_a   5.29174932
_cell_length_b   10.20958189
_cell_length_c   10.47761967
_cell_angle_alpha   60.81128926
_cell_angle_beta   82.69111480
_cell_angle_gamma   74.85778684
_symmetry_Int_Tables_number   1
_chemical_formula_structural   KNaCaCo5(SiO3)8
_chemical_formula_sum   'K1 Na1 Ca1 Co5 Si8 O24'
_cell_volume   477.03103700
_cell_formula_units_Z   1
loop_
 _symmetry_equiv_pos_site_id
 _symmetry_equiv_pos_as_xyz
  1  'x, y, z'
loop_
 _atom_site_type_symbol
 _atom_site_label
 _atom_site_symmetry_multiplicity
 _atom_site_fract_x
 _atom_site_fract_y
 _atom_site_fract_z
 _atom_site_occupancy
  K  K0  1  0.97854300  0.50915600  0.00387000  1
  Na  Na0  1  0.50039800  0.27396800  0.45148900  1
  Ca  Ca0  1  0.50041500  0.72517500  0.54906800  1
  Co  Co0  1  0.50030000  0.08335800  0.83359100  1
  Co  Co1  1  0.50007700  0.91595200  0.16901400  1
  Co  Co2  1  0.99975800  0.00188100  0.99718400  1
  Co  Co3  1  0.00049900  0.18359400  0.63319500  1
  Co  Co4  1  0.00014700  0.82090900  0.35881800  1
  Si  Si0  1  0.19568000  0.45231400  0.66121400  1
  Si  Si1  1  0.19651200  0.11479200  0.34133900  1
  Si  Si2  1  0.80408700  0.54413700  0.34182000  1
  Si  Si3  1  0.80471200  0.88744300  0.66063000  1
  Si  Si4  1  0.69712600  0.35902100  0.83188500  1
  Si  Si5  1  0.70094200  0.19018300  0.16972900  1
  Si  Si6  1  0.29957300  0.64084800  0.16997000  1
  Si  Si7  1  0.30325400  0.81016500  0.83153800  1
  O  O0  1  0.40242100  0.45908500  0.76756000  1
  O  O1  1  0.40361100  0.22213300  0.22932500  1
  O  O2  1  0.59717900  0.54906100  0.22933600  1
  O  O3  1  0.59832200  0.77394800  0.76773500  1
  O  O4  1  0.70107700  0.32939400  0.99996000  1
  O  O5  1  0.30209700  0.67155300  0.00000900  1
  O  O6  1  0.77590800  0.19978000  0.82251700  1
  O  O7  1  0.78867500  0.02338200  0.17360200  1
  O  O8  1  0.21152500  0.80345100  0.17411600  1
  O  O9  1  0.22390700  0.97879600  0.82182100  1
  O  O10  1  0.27938200  0.28406800  0.66738100  1
  O  O11  1  0.28017000  0.94606500  0.34510900  1
  O  O12  1  0.72014700  0.70907500  0.34531800  1
  O  O13  1  0.72069100  0.04934900  0.66691000  1
  O  O14  1  0.26737500  0.09706700  0.99016000  1
  O  O15  1  0.73315100  0.91230600  0.98998600  1
  O  O16  1  0.89881800  0.47231500  0.73816100  1
  O  O17  1  0.90440900  0.21211300  0.25920900  1
  O  O18  1  0.09541100  0.52966500  0.25867200  1
  O  O19  1  0.10076600  0.78990800  0.73886700  1
  O  O20  1  0.20554600  0.60735800  0.51061700  1
  O  O21  1  0.20464000  0.11145200  0.49431700  1
  O  O22  1  0.79586200  0.39403100  0.49420200  1
  O  O23  1  0.79488800  0.88195000  0.51075800  1
loop_
_geom_bond_atom_site_label_1
_geom_bond_atom_site_label_2
_geom_bond_distance
_geom_bond_site_symmetry_2
K0 O4 2.649959 1_554
K0 O5 2.661232 1_655
K0 O18 2.930305 1_655
K0 O17 2.991549 1_555
K0 O19 3.015410 1_654
K0 O2 3.019194 1_555
K0 O3 3.062526 1_554
K0 O16 3.077858 1_554
K0 O1 3.222336 1_655
K0 O0 3.262740 1_654
Na0 O21 2.419832 1_555
Na0 O22 2.421121 1_555
Na0 O13 2.436528 1_555
Na0 O10 2.446768 1_555
Na0 O1 2.758133 1_555
Na0 O2 2.764072 1_555
Na0 O17 2.909981 1_555
Na0 O18 2.919581 1_555
Ca0 O12 2.355273 1_555
Ca0 O11 2.360278 1_555
Ca0 O20 2.378471 1_555
Ca0 O23 2.380867 1_555
Ca0 O0 2.694039 1_555
Ca0 O3 2.704651 1_555
Ca0 O16 2.874929 1_555
Ca0 O19 2.888890 1_555
Co0 O14 1.961973 1_555
Co0 O15 1.962546 1_545
Co0 O6 2.069163 1_555
Co0 O9 2.069797 1_545
Co0 O10 2.093867 1_555
Co0 O13 2.095796 1_555
Co1 O14 2.113060 1_564
Co1 O7 2.117267 1_565
Co1 O8 2.118790 1_555
Co1 O15 2.120527 1_554
Co1 O11 2.161714 1_555
Co1 O12 2.164804 1_555
Co2 O14 1.891576 1_655
Co2 O15 1.897590 1_545
Co2 O7 2.110673 1_556
Co2 O8 2.115666 1_646
Co2 O6 2.128223 1_555
Co2 O9 2.135482 1_645
Co3 O22 2.010826 1_455
Co3 O21 2.014084 1_555
Co3 O10 2.154587 1_555
Co3 O13 2.156520 1_455
Co3 O9 2.224402 1_545
Co3 O6 2.234260 1_455
Co4 O23 2.067999 1_455
Co4 O20 2.069813 1_555
Co4 O11 2.145965 1_555
Co4 O12 2.147964 1_455
Co4 O8 2.170161 1_555
Co4 O7 2.173177 1_465
O0 Si4 1.641185 1_555
O0 Si0 1.693525 1_555
O1 Si5 1.628638 1_555
O1 Si1 1.680815 1_555
O2 Si6 1.629398 1_555
O2 Si2 1.682897 1_555
O3 Si7 1.641815 1_555
O3 Si3 1.695826 1_555
O4 Si4 1.636964 1_555
O4 Si5 1.648760 1_556
O5 Si7 1.638247 1_554
O5 Si6 1.649632 1_555
O6 Si4 1.617947 1_555
O7 Si5 1.625309 1_555
O8 Si6 1.623586 1_555
O9 Si7 1.616478 1_555
O10 Si0 1.628641 1_555
O11 Si1 1.644589 1_565
O12 Si2 1.643049 1_555
O13 Si3 1.627600 1_545
O16 Si4 1.646747 1_555
O16 Si0 1.682326 1_655
O17 Si5 1.635819 1_555
O17 Si1 1.679032 1_655
O18 Si6 1.635760 1_555
O18 Si2 1.679945 1_455
O19 Si7 1.646227 1_555
O19 Si3 1.683298 1_455
O20 Si0 1.607539 1_555
O21 Si1 1.592353 1_555
O22 Si2 1.590673 1_555
O23 Si3 1.606202 1_555
