# generated using pymatgen
data_Mg3Si4
_symmetry_space_group_name_H-M   'P 1'
_cell_length_a   5.98611300
_cell_length_b   6.87578495
_cell_length_c   7.63495173
_cell_angle_alpha   109.20011650
_cell_angle_beta   110.89067882
_cell_angle_gamma   97.45104406
_symmetry_Int_Tables_number   1
_chemical_formula_structural   Mg3Si4
_chemical_formula_sum   'Mg6 Si8'
_cell_volume   266.17817314
_cell_formula_units_Z   2
loop_
 _symmetry_equiv_pos_site_id
 _symmetry_equiv_pos_as_xyz
  1  'x, y, z'
loop_
 _atom_site_type_symbol
 _atom_site_label
 _atom_site_symmetry_multiplicity
 _atom_site_fract_x
 _atom_site_fract_y
 _atom_site_fract_z
 _atom_site_occupancy
  Mg  Mg0  1  0.26515000  0.85325200  0.40133900  1
  Mg  Mg1  1  0.63641900  0.82090700  0.12796700  1
  Mg  Mg2  1  0.13676800  0.64502800  0.68930600  1
  Mg  Mg3  1  0.11541200  0.24681500  0.34993400  1
  Mg  Mg4  1  0.22816000  0.42216200  0.06418000  1
  Mg  Mg5  1  0.77036000  0.00406000  0.83150700  1
  Si  Si0  1  0.56294900  0.53685500  0.65515000  1
  Si  Si1  1  0.62123800  0.24484800  0.39413600  1
  Si  Si2  1  0.66840000  0.68134400  0.42862200  1
  Si  Si3  1  0.74500200  0.39800800  0.17410900  1
  Si  Si4  1  0.94995600  0.67746000  0.97215000  1
  Si  Si5  1  0.37008700  0.14538600  0.81211800  1
  Si  Si6  1  0.91606500  0.05824700  0.54984400  1
  Si  Si7  1  0.26051300  0.01203500  0.04940500  1
loop_
_geom_bond_atom_site_label_1
_geom_bond_atom_site_label_2
_geom_bond_distance
_geom_bond_site_symmetry_2
Mg0 Si2 2.794779 1_555
Mg0 Si4 2.855288 1_454
Mg0 Si5 2.896498 1_565
Mg0 Si6 3.006899 1_465
Mg0 Si7 3.208870 1_565
Mg0 Si1 3.238647 1_565
Mg1 Si4 2.685416 1_554
Mg1 Si2 2.722100 1_555
Mg1 Si7 2.733696 1_565
Mg1 Si6 2.798044 1_565
Mg1 Si1 2.989821 1_565
Mg2 Si4 2.726519 1_455
Mg2 Si0 2.822886 1_555
Mg2 Si7 2.823989 1_566
Mg2 Si2 2.900556 1_455
Mg2 Si5 3.219309 1_565
Mg2 Si1 3.306441 1_455
Mg3 Si3 2.681829 1_455
Mg3 Si6 2.762957 1_455
Mg3 Si0 2.773065 1_555
Mg3 Si7 2.823823 1_555
Mg3 Si1 2.926995 1_555
Mg3 Si1 3.093464 1_455
Mg4 Si4 2.661465 1_454
Mg4 Si5 2.687664 1_554
Mg4 Si7 2.819631 1_555
Mg4 Si2 2.855519 1_555
Mg4 Si3 2.945696 1_555
Mg5 Si5 2.674488 1_555
Mg5 Si6 2.702688 1_555
Mg5 Si7 2.792270 1_656
Mg5 Si2 2.928900 1_545
Mg5 Si0 2.932979 1_545
Mg5 Si4 2.956451 1_545
Mg5 Si3 3.151477 1_556
Si0 Si4 2.457786 1_555
Si0 Si2 2.474438 1_555
Si0 Si1 2.483984 1_555
Si1 Si6 2.503683 1_555
Si1 Si3 2.515707 1_555
Si1 Si7 2.536085 1_555
Si1 Si2 2.892061 1_555
Si2 Si3 2.481691 1_555
Si2 Si6 2.493558 1_565
Si3 Si5 2.664619 1_554
Si4 Si7 2.512442 1_666
Si5 Si7 2.517372 1_556
Si5 Si6 2.581201 1_455
