# generated using pymatgen
data_La2MgCo2Sb2(PbO6)2
_symmetry_space_group_name_H-M   'P 1'
_cell_length_a   5.90662350
_cell_length_b   6.02831417
_cell_length_c   9.07905520
_cell_angle_alpha   93.00533592
_cell_angle_beta   82.48961981
_cell_angle_gamma   93.91793960
_symmetry_Int_Tables_number   1
_chemical_formula_structural   La2MgCo2Sb2(PbO6)2
_chemical_formula_sum   'La2 Mg1 Co2 Sb2 Pb2 O12'
_cell_volume   319.44602675
_cell_formula_units_Z   1
loop_
 _symmetry_equiv_pos_site_id
 _symmetry_equiv_pos_as_xyz
  1  'x, y, z'
loop_
 _atom_site_type_symbol
 _atom_site_label
 _atom_site_symmetry_multiplicity
 _atom_site_fract_x
 _atom_site_fract_y
 _atom_site_fract_z
 _atom_site_occupancy
  La  La0  1  0.54406600  0.43637900  0.76630400  1
  La  La1  1  0.07967400  0.05746900  0.30138900  1
  Mg  Mg0  1  0.14994200  0.50096800  0.52294600  1
  Co  Co0  1  0.70859000  0.44551700  0.41927400  1
  Co  Co1  1  0.48937100  0.01054400  0.95088000  1
  Sb  Sb0  1  0.01108400  0.47553200  0.97589900  1
  Sb  Sb1  1  0.53693500  0.98148200  0.52148900  1
  Pb  Pb0  1  0.49441400  0.62397400  0.16791200  1
  Pb  Pb1  1  0.98662800  0.94440400  0.74808800  1
  O  O0  1  0.68268100  0.95610500  0.31075700  1
  O  O1  1  0.13057400  0.52330500  0.75430200  1
  O  O2  1  0.40635900  0.03619400  0.73632900  1
  O  O3  1  0.01770400  0.43499900  0.32782800  1
  O  O4  1  0.24333700  0.82376200  0.47818900  1
  O  O5  1  0.66033400  0.72666900  0.93015700  1
  O  O6  1  0.80911700  0.19174100  0.56731900  1
  O  O7  1  0.29620300  0.31768900  0.99706700  1
  O  O8  1  0.40210300  0.27997200  0.47473700  1
  O  O9  1  0.78415000  0.22673600  0.91951700  1
  O  O10  1  0.68241100  0.70117200  0.56882800  1
  O  O11  1  0.26527500  0.86788800  0.10245500  1
loop_
_geom_bond_atom_site_label_1
_geom_bond_atom_site_label_2
_geom_bond_distance
_geom_bond_site_symmetry_2
La0 O5 2.361544 1_555
La0 O10 2.483767 1_555
La0 O7 2.501405 1_555
La0 O2 2.505274 1_555
La0 O9 2.547158 1_555
La0 O1 2.549893 1_555
La0 O6 2.680753 1_555
La0 O8 2.968171 1_555
La1 O11 2.281934 1_545
La1 O3 2.324816 1_555
La1 O0 2.374158 1_445
La1 O4 2.514928 1_545
La1 O6 2.828701 1_455
Mg0 O4 2.033126 1_555
Mg0 O3 2.037595 1_555
Mg0 O8 2.055332 1_555
Mg0 O1 2.086366 1_555
Mg0 O6 2.654019 1_455
Co0 O3 1.908134 1_655
Co0 O10 2.000253 1_555
Co0 O8 2.023412 1_555
Co0 O6 2.246775 1_555
Co1 O11 1.969209 1_546
Co1 O5 2.033803 1_545
Co1 O2 2.085746 1_555
Co1 O9 2.100098 1_555
Co1 O7 2.233420 1_555
O0 Sb1 1.995434 1_555
O0 Pb0 2.593794 1_555
O1 Sb0 2.071367 1_555
O1 Pb1 2.737272 1_455
O2 Sb1 2.020468 1_545
O2 Pb1 2.492692 1_445
O4 Sb1 1.994892 1_555
O4 Pb1 2.797351 1_455
O5 Pb0 2.346791 1_556
O5 Pb1 2.686777 1_555
O5 Sb0 2.734239 1_655
O6 Sb1 2.050715 1_545
O6 Pb1 2.633654 1_545
O7 Sb0 2.025159 1_555
O7 Pb0 2.657960 1_556
O8 Sb1 2.101553 1_545
O9 Sb0 2.032816 1_655
O9 Pb1 2.502659 1_545
O10 Sb1 2.037057 1_555
O10 Pb1 2.860386 1_555
O11 Pb0 2.218302 1_555
