# generated using pymatgen
data_NaMnO2
_symmetry_space_group_name_H-M   'P 1'
_cell_length_a   2.88643700
_cell_length_b   5.82077000
_cell_length_c   11.48347535
_cell_angle_alpha   86.01453324
_cell_angle_beta   90.00000000
_cell_angle_gamma   90.00000000
_symmetry_Int_Tables_number   1
_chemical_formula_structural   NaMnO2
_chemical_formula_sum   'Na4 Mn4 O8'
_cell_volume   192.47057485
_cell_formula_units_Z   4
loop_
 _symmetry_equiv_pos_site_id
 _symmetry_equiv_pos_as_xyz
  1  'x, y, z'
loop_
 _atom_site_type_symbol
 _atom_site_label
 _atom_site_symmetry_multiplicity
 _atom_site_fract_x
 _atom_site_fract_y
 _atom_site_fract_z
 _atom_site_occupancy
  Na  Na0  1  0.00000000  0.45824300  0.49142200  1
  Na  Na1  1  0.50000000  0.50291700  0.99911200  1
  Na  Na2  1  0.50000000  0.09243800  0.24931300  1
  Na  Na3  1  0.50000000  0.92747800  0.76524500  1
  Mn  Mn0  1  0.00000000  0.60265900  0.25701100  1
  Mn  Mn1  1  0.00000000  0.42892100  0.73221900  1
  Mn  Mn2  1  0.50000000  0.00147300  0.00734500  1
  Mn  Mn3  1  0.50000000  0.94961000  0.51322700  1
  O  O0  1  0.50000000  0.42891200  0.33584700  1
  O  O1  1  0.50000000  0.30404700  0.82649400  1
  O  O2  1  0.00000000  0.18005300  0.07521600  1
  O  O3  1  0.00000000  0.08586300  0.60156900  1
  O  O4  1  0.50000000  0.74012400  0.16422700  1
  O  O5  1  0.50000000  0.59296100  0.64274400  1
  O  O6  1  0.00000000  0.86717700  0.40893000  1
  O  O7  1  0.00000000  0.83712900  0.93006500  1
loop_
_geom_bond_atom_site_label_1
_geom_bond_atom_site_label_2
_geom_bond_distance
_geom_bond_site_symmetry_2
Na0 O0 2.312176 1_455
Na0 O0 2.312176 1_555
Na0 O5 2.430394 1_455
Na0 O5 2.430394 1_555
Na0 O3 2.432491 1_555
Na0 O6 2.499961 1_555
Na1 O1 2.363955 1_555
Na1 O4 2.421879 1_556
Na1 O2 2.479955 1_556
Na1 O2 2.479955 1_656
Na1 O7 2.506317 1_555
Na1 O7 2.506317 1_655
Na2 O0 2.256960 1_555
Na2 O4 2.332114 1_545
Na2 O2 2.489617 1_555
Na2 O2 2.489617 1_655
Na2 O6 2.612998 1_545
Na2 O6 2.612998 1_645
Na3 O1 2.348090 1_565
Na3 O7 2.409030 1_555
Na3 O7 2.409030 1_655
Na3 O5 2.480130 1_555
Na3 O3 2.494941 1_565
Na3 O3 2.494941 1_665
Mn0 O4 1.933873 1_455
Mn0 O4 1.933873 1_555
Mn0 O0 1.948848 1_555
Mn0 O0 1.948848 1_455
Mn0 O6 2.405731 1_555
Mn1 O1 1.916731 1_455
Mn1 O1 1.916731 1_555
Mn1 O5 1.978369 1_555
Mn1 O5 1.978369 1_455
Mn1 O3 2.579701 1_555
Mn2 O2 1.970649 1_655
Mn2 O2 1.970649 1_555
Mn2 O7 1.975738 1_544
Mn2 O7 1.975738 1_644
Mn2 O4 2.275704 1_545
Mn2 O1 2.628026 1_554
Mn3 O6 1.956390 1_555
Mn3 O6 1.956390 1_655
Mn3 O3 1.962876 1_565
Mn3 O3 1.962876 1_665
Mn3 O5 2.468307 1_555
