# generated using pymatgen
data_MnPH4N(OF)3
_symmetry_space_group_name_H-M   'P 1'
_cell_length_a   5.48460703
_cell_length_b   7.58080567
_cell_length_c   13.81838400
_cell_angle_alpha   90.00000000
_cell_angle_beta   90.00000000
_cell_angle_gamma   108.09625697
_symmetry_Int_Tables_number   1
_chemical_formula_structural   MnPH4N(OF)3
_chemical_formula_sum   'Mn4 P4 H16 N4 O12 F12'
_cell_volume   546.11828579
_cell_formula_units_Z   4
loop_
 _symmetry_equiv_pos_site_id
 _symmetry_equiv_pos_as_xyz
  1  'x, y, z'
loop_
 _atom_site_type_symbol
 _atom_site_label
 _atom_site_symmetry_multiplicity
 _atom_site_fract_x
 _atom_site_fract_y
 _atom_site_fract_z
 _atom_site_occupancy
  Mn  Mn0  1  0.50000000  0.00000000  0.00000000  1
  Mn  Mn1  1  0.00000000  0.50000000  0.50000000  1
  Mn  Mn2  1  0.50000000  0.50000000  0.00000000  1
  Mn  Mn3  1  0.00000000  0.00000000  0.50000000  1
  P  P0  1  0.05653900  0.18401400  0.89823000  1
  P  P1  1  0.55653900  0.68401400  0.60177000  1
  P  P2  1  0.94346100  0.81598600  0.10177000  1
  P  P3  1  0.44346100  0.31598600  0.39823000  1
  H  H0  1  0.93756200  0.32661800  0.27214800  1
  H  H1  1  0.43756300  0.82661800  0.22785200  1
  H  H2  1  0.06243700  0.67338200  0.72785200  1
  H  H3  1  0.56243800  0.17338200  0.77214800  1
  H  H4  1  0.12533200  0.39483300  0.17138300  1
  H  H5  1  0.62533200  0.89483300  0.32861700  1
  H  H6  1  0.87466800  0.60516700  0.82861700  1
  H  H7  1  0.37466800  0.10516700  0.67138300  1
  H  H8  1  0.93451300  0.17103900  0.18291900  1
  H  H9  1  0.43451300  0.67103900  0.31708100  1
  H  H10  1  0.06548700  0.82896100  0.81708100  1
  H  H11  1  0.56548700  0.32896100  0.68291900  1
  H  H12  1  0.80132900  0.33396900  0.16272400  1
  H  H13  1  0.30132900  0.83396900  0.33727600  1
  H  H14  1  0.19867100  0.66603100  0.83727600  1
  H  H15  1  0.69867100  0.16603100  0.66272400  1
  N  N0  1  0.95091100  0.30797500  0.19877300  1
  N  N1  1  0.45091100  0.80797500  0.30122700  1
  N  N2  1  0.04908900  0.69202500  0.80122700  1
  N  N3  1  0.54908900  0.19202500  0.69877300  1
  O  O0  1  0.78849200  0.95062500  0.10461500  1
  O  O1  1  0.28849200  0.45062500  0.39538500  1
  O  O2  1  0.21150800  0.04937500  0.89538500  1
  O  O3  1  0.71150800  0.54937500  0.60461500  1
  O  O4  1  0.14914100  0.34569800  0.96952800  1
  O  O5  1  0.64914100  0.84569800  0.53047200  1
  O  O6  1  0.85085900  0.65430200  0.03047200  1
  O  O7  1  0.35085900  0.15430200  0.46952800  1
  O  O8  1  0.76501100  0.09142800  0.90194300  1
  O  O9  1  0.26501100  0.59142900  0.59805700  1
  O  O10  1  0.23498900  0.90857100  0.09805700  1
  O  O11  1  0.73498900  0.40857100  0.40194300  1
  F  F0  1  0.60628300  0.46847400  0.87385200  1
  F  F1  1  0.10628300  0.96847400  0.62614800  1
  F  F2  1  0.39371700  0.53152600  0.12614800  1
  F  F3  1  0.89371700  0.03152600  0.37385200  1
  F  F4  1  0.08718800  0.27714400  0.79311900  1
  F  F5  1  0.58718800  0.77714400  0.70688100  1
  F  F6  1  0.91281200  0.72285600  0.20688100  1
  F  F7  1  0.41281200  0.22285600  0.29311900  1
  F  F8  1  0.57132000  0.24451000  0.05164100  1
  F  F9  1  0.07132000  0.74451000  0.44835900  1
  F  F10  1  0.42868000  0.75549000  0.94835900  1
  F  F11  1  0.92868000  0.25549000  0.55164100  1
loop_
_geom_bond_atom_site_label_1
_geom_bond_atom_site_label_2
_geom_bond_distance
_geom_bond_site_symmetry_2
Mn0 O8 1.950169 1_554
Mn0 O10 1.950170 1_545
Mn0 O2 2.258622 1_554
Mn0 O0 2.258622 1_545
Mn1 O9 1.950170 1_555
Mn1 O11 1.950170 1_455
Mn1 O1 2.258622 1_555
Mn1 O3 2.258622 1_455
Mn2 O6 1.962205 1_555
Mn2 O4 1.962205 1_554
Mn3 O5 1.962205 1_445
Mn3 O7 1.962205 1_555
H0 N0 1.029468 1_555
H1 N1 1.029467 1_555
H2 N2 1.029467 1_555
H3 N3 1.029468 1_555
H4 N0 1.049116 1_455
H5 N1 1.049116 1_555
H6 N2 1.049116 1_655
H7 N3 1.049116 1_555
H8 N0 1.037162 1_555
H9 N1 1.037162 1_555
H10 N2 1.037162 1_555
H11 N3 1.037162 1_555
H12 N0 1.029785 1_555
H13 N1 1.029785 1_555
H14 N2 1.029785 1_555
H15 N3 1.029785 1_555
O0 P2 1.518106 1_555
O1 P3 1.518106 1_555
O2 P0 1.518106 1_555
O3 P1 1.518106 1_555
O4 P0 1.531084 1_555
O5 P1 1.531084 1_555
O6 P2 1.531084 1_555
O7 P3 1.531084 1_555
O8 P0 1.534480 1_655
O9 P1 1.534479 1_555
O10 P2 1.534479 1_455
O11 P3 1.534479 1_555
F0 H6 1.638194 1_555
F0 Mn2 1.876718 1_556
F1 H7 1.638194 1_565
F1 Mn3 1.876718 1_565
F2 H4 1.638194 1_555
F2 Mn2 1.876718 1_555
F3 H5 1.638194 1_545
F3 Mn3 1.876718 1_655
F4 P0 1.600819 1_555
F5 P1 1.600819 1_555
F6 P2 1.600819 1_555
F7 P3 1.600819 1_555
F8 Mn0 1.909862 1_555
F8 Mn2 2.210011 1_555
F9 Mn1 1.909862 1_555
F9 Mn3 2.210011 1_565
F10 Mn0 1.909862 1_566
F10 Mn2 2.210011 1_556
F11 Mn1 1.909862 1_655
F11 Mn3 2.210011 1_655
