# generated using pymatgen
data_BaSb4O7
_symmetry_space_group_name_H-M   'P 1'
_cell_length_a   7.54250394
_cell_length_b   7.54250394
_cell_length_c   13.47080000
_cell_angle_alpha   90.00000000
_cell_angle_beta   90.00000000
_cell_angle_gamma   119.99999945
_symmetry_Int_Tables_number   1
_chemical_formula_structural   BaSb4O7
_chemical_formula_sum   'Ba2 Sb8 O14'
_cell_volume   663.67447275
_cell_formula_units_Z   2
loop_
 _symmetry_equiv_pos_site_id
 _symmetry_equiv_pos_as_xyz
  1  'x, y, z'
loop_
 _atom_site_type_symbol
 _atom_site_label
 _atom_site_symmetry_multiplicity
 _atom_site_fract_x
 _atom_site_fract_y
 _atom_site_fract_z
 _atom_site_occupancy
  Ba  Ba0  1  0.66666700  0.33333300  0.40322500  1
  Ba  Ba1  1  0.33333300  0.66666700  0.90322500  1
  Sb  Sb0  1  0.83355900  0.16644100  0.19235100  1
  Sb  Sb1  1  0.66711800  0.83355900  0.69235100  1
  Sb  Sb2  1  0.16644100  0.33288200  0.69235100  1
  Sb  Sb3  1  0.83355900  0.66711800  0.19235100  1
  Sb  Sb4  1  0.33288200  0.16644100  0.19235100  1
  Sb  Sb5  1  0.16644100  0.83355900  0.69235100  1
  Sb  Sb6  1  0.00000000  0.00000000  0.47022300  1
  Sb  Sb7  1  0.00000000  0.00000000  0.97022300  1
  O  O0  1  0.86155300  0.13844700  0.03670000  1
  O  O1  1  0.72310600  0.86155300  0.53670000  1
  O  O2  1  0.13844700  0.27689400  0.53670000  1
  O  O3  1  0.86155300  0.72310600  0.03670000  1
  O  O4  1  0.27689400  0.13844700  0.03670000  1
  O  O5  1  0.13844700  0.86155300  0.53670000  1
  O  O6  1  0.00000000  0.00000000  0.73690300  1
  O  O7  1  0.00000000  0.00000000  0.23690300  1
  O  O8  1  0.53371500  0.46628500  0.25218300  1
  O  O9  1  0.06743000  0.53371500  0.75218300  1
  O  O10  1  0.46628500  0.93257000  0.75218300  1
  O  O11  1  0.53371500  0.06743000  0.25218300  1
  O  O12  1  0.46628500  0.53371500  0.75218300  1
  O  O13  1  0.93257000  0.46628500  0.25218300  1
loop_
_geom_bond_atom_site_label_1
_geom_bond_atom_site_label_2
_geom_bond_distance
_geom_bond_site_symmetry_2
Ba0 O11 2.675177 1_555
Ba0 O13 2.675177 1_555
Ba0 O8 2.675182 1_555
Ba1 O9 2.675177 1_555
Ba1 O10 2.675177 1_555
Ba1 O12 2.675182 1_555
O0 Sb7 2.018220 1_654
O0 Sb0 2.128398 1_555
O1 Sb6 2.018220 1_665
O1 Sb1 2.128398 1_555
O2 Sb6 2.018220 1_555
O2 Sb2 2.128398 1_555
O3 Sb7 2.018220 1_664
O3 Sb3 2.128398 1_555
O4 Sb7 2.018220 1_554
O4 Sb4 2.128398 1_555
O5 Sb6 2.018220 1_565
O5 Sb5 2.128398 1_555
O6 Sb5 2.255689 1_545
O6 Sb1 2.255689 1_445
O6 Sb2 2.255689 1_555
O7 Sb0 2.255689 1_455
O7 Sb4 2.255689 1_555
O7 Sb3 2.255689 1_445
O8 Sb4 2.152465 1_555
O8 Sb3 2.152465 1_555
O9 Sb2 2.152465 1_555
O9 Sb5 2.152465 1_555
O10 Sb1 2.152465 1_555
O10 Sb5 2.152465 1_555
O11 Sb4 2.152465 1_555
O11 Sb0 2.152465 1_555
O12 Sb2 2.152465 1_555
O12 Sb1 2.152465 1_555
O13 Sb3 2.152465 1_555
O13 Sb0 2.152465 1_555
