# generated using pymatgen
data_KAlTe2
_symmetry_space_group_name_H-M   'P 1'
_cell_length_a   8.41485056
_cell_length_b   8.41485056
_cell_length_c   16.58571089
_cell_angle_alpha   82.72581916
_cell_angle_beta   82.72581916
_cell_angle_gamma   90.04033973
_symmetry_Int_Tables_number   1
_chemical_formula_structural   KAlTe2
_chemical_formula_sum   'K8 Al8 Te16'
_cell_volume   1155.43373299
_cell_formula_units_Z   8
loop_
 _symmetry_equiv_pos_site_id
 _symmetry_equiv_pos_as_xyz
  1  'x, y, z'
loop_
 _atom_site_type_symbol
 _atom_site_label
 _atom_site_symmetry_multiplicity
 _atom_site_fract_x
 _atom_site_fract_y
 _atom_site_fract_z
 _atom_site_occupancy
  K  K0  1  0.22071838  0.84768053  0.11007029  1
  K  K1  1  0.84768053  0.22071838  0.61007029  1
  K  K2  1  0.77928162  0.15231947  0.88992971  1
  K  K3  1  0.22060288  0.34614120  0.11660163  1
  K  K4  1  0.65385880  0.77939712  0.38339837  1
  K  K5  1  0.77939712  0.65385880  0.88339837  1
  K  K6  1  0.15231947  0.77928162  0.38992971  1
  K  K7  1  0.34614120  0.22060288  0.61660163  1
  Al  Al0  1  0.91207964  0.29025782  0.33879308  1
  Al  Al1  1  0.08792036  0.70974218  0.66120692  1
  Al  Al2  1  0.29025782  0.91207964  0.83879308  1
  Al  Al3  1  0.70941622  0.58166525  0.16175044  1
  Al  Al4  1  0.41833475  0.29058378  0.33824956  1
  Al  Al5  1  0.29058378  0.41833475  0.83824956  1
  Al  Al6  1  0.58166525  0.70941622  0.66175044  1
  Al  Al7  1  0.70974218  0.08792036  0.16120692  1
  Te  Te0  1  0.35999963  0.73474044  0.56287895  1
  Te  Te1  1  0.26525956  0.64000037  0.93712105  1
  Te  Te2  1  0.64000037  0.26525956  0.43712105  1
  Te  Te3  1  0.73474044  0.35999963  0.06287895  1
  Te  Te4  1  0.57111199  0.94545433  0.75044530  1
  Te  Te5  1  0.05454567  0.42888801  0.74955470  1
  Te  Te6  1  0.42888801  0.05454567  0.24955470  1
  Te  Te7  1  0.94545433  0.57111199  0.25044530  1
  Te  Te8  1  0.26645581  0.14195185  0.93402465  1
  Te  Te9  1  0.85804815  0.73354419  0.56597535  1
  Te  Te10  1  0.73354419  0.85804815  0.06597535  1
  Te  Te11  1  0.14195185  0.26645581  0.43402465  1
  Te  Te12  1  0.05412848  0.94587152  0.75000000  1
  Te  Te13  1  0.94587152  0.05412848  0.25000000  1
  Te  Te14  1  0.57136945  0.42863055  0.75000000  1
  Te  Te15  1  0.42863055  0.57136945  0.25000000  1
loop_
_geom_bond_atom_site_label_1
_geom_bond_atom_site_label_2
_geom_bond_distance
_geom_bond_site_symmetry_2
K0 Te1 3.524331 1_554
K0 Te8 3.562098 1_564
K0 Te13 3.663419 1_465
K0 Te7 3.668342 1_455
K0 Te6 3.673210 1_565
K0 Te15 3.677067 1_555
K1 Te2 3.524331 1_555
K1 Te11 3.562098 1_655
K1 Te12 3.663419 1_645
K1 Te4 3.668342 1_545
K1 Te5 3.673210 1_655
K1 Te14 3.677067 1_555
K2 Te3 3.524331 1_556
K2 Te10 3.562098 1_546
K2 Te12 3.663419 1_645
K2 Te5 3.668342 1_655
K2 Te4 3.673210 1_545
K2 Te14 3.677067 1_555
K3 Te1 3.601197 1_554
K3 Te8 3.646043 1_554
K3 Te6 3.683729 1_555
K3 Te15 3.686399 1_555
K3 Te13 3.687509 1_455
K3 Te7 3.693415 1_455
K4 Te0 3.601197 1_555
K4 Te9 3.646043 1_555
K4 Te7 3.683729 1_555
K4 Te15 3.686399 1_555
K4 Te13 3.687509 1_565
K4 Te6 3.693415 1_565
K5 Te3 3.601197 1_556
K5 Te10 3.646043 1_556
K5 Te4 3.683729 1_555
K5 Te14 3.686399 1_555
K5 Te12 3.687509 1_655
K5 Te5 3.693415 1_655
K6 Te0 3.524331 1_555
K6 Te9 3.562098 1_455
K6 Te13 3.663419 1_465
K6 Te6 3.668342 1_565
K6 Te7 3.673210 1_455
K6 Te15 3.677067 1_555
K7 Te2 3.601197 1_555
K7 Te11 3.646043 1_555
K7 Te5 3.683729 1_555
K7 Te14 3.686399 1_555
K7 Te12 3.687509 1_545
K7 Te4 3.693415 1_545
Al0 Te7 2.613293 1_555
Al0 Te13 2.614117 1_555
Al0 Te2 2.629190 1_555
Al0 Te11 2.640206 1_655
Al1 Te5 2.613293 1_555
Al1 Te12 2.614117 1_555
Al1 Te0 2.629190 1_555
Al1 Te9 2.640206 1_455
Al2 Te4 2.613293 1_555
Al2 Te12 2.614117 1_555
Al2 Te1 2.629190 1_555
Al2 Te8 2.640206 1_565
Al3 Te7 2.612299 1_555
Al3 Te15 2.612350 1_555
Al3 Te3 2.626875 1_555
Al3 Te10 2.637354 1_555
Al4 Te6 2.612299 1_555
Al4 Te15 2.612350 1_555
Al4 Te2 2.626875 1_555
Al4 Te11 2.637354 1_555
Al5 Te5 2.612299 1_555
Al5 Te14 2.612350 1_555
Al5 Te1 2.626875 1_555
Al5 Te8 2.637354 1_555
Al6 Te4 2.612299 1_555
Al6 Te14 2.612350 1_555
Al6 Te0 2.626875 1_555
Al6 Te9 2.637354 1_555
Al7 Te6 2.613293 1_555
Al7 Te13 2.614117 1_555
Al7 Te3 2.629190 1_555
Al7 Te10 2.640206 1_545
