# generated using pymatgen
data_Pr5Ni19
_symmetry_space_group_name_H-M   'P 1'
_cell_length_a   5.02509978
_cell_length_b   5.02509900
_cell_length_c   16.45830411
_cell_angle_alpha   81.21880185
_cell_angle_beta   81.21880299
_cell_angle_gamma   59.99999854
_symmetry_Int_Tables_number   1
_chemical_formula_structural   Pr5Ni19
_chemical_formula_sum   'Pr5 Ni19'
_cell_volume   354.28299912
_cell_formula_units_Z   1
loop_
 _symmetry_equiv_pos_site_id
 _symmetry_equiv_pos_as_xyz
  1  'x, y, z'
loop_
 _atom_site_type_symbol
 _atom_site_label
 _atom_site_symmetry_multiplicity
 _atom_site_fract_x
 _atom_site_fract_y
 _atom_site_fract_z
 _atom_site_occupancy
  Pr  Pr0  1  0.00000000  0.00000000  0.00000000  1
  Pr  Pr1  1  0.92184100  0.92184100  0.23447800  1
  Pr  Pr2  1  0.07815900  0.07815900  0.76552200  1
  Pr  Pr3  1  0.84827600  0.84827600  0.45517300  1
  Pr  Pr4  1  0.15172400  0.15172400  0.54482700  1
  Ni  Ni0  1  0.50000000  0.50000000  0.50000000  1
  Ni  Ni1  1  0.74890900  0.74891000  0.75327200  1
  Ni  Ni2  1  0.25109000  0.25109000  0.24672900  1
  Ni  Ni3  1  0.66671900  0.66671900  0.99984400  1
  Ni  Ni4  1  0.33328100  0.33328100  0.00015600  1
  Ni  Ni5  1  0.58478600  0.58478600  0.24564300  1
  Ni  Ni6  1  0.41521400  0.41521400  0.75435700  1
  Ni  Ni7  1  0.37767400  0.37767400  0.36862100  1
  Ni  Ni8  1  0.87603000  0.37767400  0.36862100  1
  Ni  Ni9  1  0.37767400  0.87603000  0.36862100  1
  Ni  Ni10  1  0.62232600  0.62232600  0.63137900  1
  Ni  Ni11  1  0.12397000  0.62232600  0.63137900  1
  Ni  Ni12  1  0.62232600  0.12397000  0.63137900  1
  Ni  Ni13  1  0.45904700  0.45904700  0.12191600  1
  Ni  Ni14  1  0.95999000  0.45904700  0.12191600  1
  Ni  Ni15  1  0.45904700  0.95999000  0.12191600  1
  Ni  Ni16  1  0.54095300  0.54095300  0.87808400  1
  Ni  Ni17  1  0.04001000  0.54095300  0.87808400  1
  Ni  Ni18  1  0.54095300  0.04001000  0.87808400  1
loop_
_geom_bond_atom_site_label_1
_geom_bond_atom_site_label_2
_geom_bond_distance
_geom_bond_site_symmetry_2
Pr1 Pr3 3.575385 1_555
Pr2 Pr4 3.575385 1_555
Pr3 Pr4 3.244499 1_665
Pr3 Pr4 3.244507 1_655
Pr3 Pr4 3.244507 1_565
Ni0 Ni12 2.573059 1_555
Ni0 Ni9 2.573059 1_555
Ni0 Ni11 2.573059 1_555
Ni0 Ni8 2.573059 1_555
Ni0 Ni10 2.573062 1_555
Ni0 Ni7 2.573062 1_555
Ni0 Pr4 2.990752 1_565
Ni0 Pr3 2.990752 1_545
Ni0 Pr4 2.990752 1_655
Ni0 Pr3 2.990752 1_455
Ni0 Pr3 2.990757 1_555
Ni0 Pr4 2.990757 1_555
Ni1 Ni12 2.453109 1_565
Ni1 Ni10 2.453109 1_555
Ni1 Ni11 2.453111 1_655
Ni1 Ni18 2.486956 1_565
Ni1 Ni16 2.486959 1_555
Ni1 Ni17 2.486959 1_655
Ni1 Ni6 2.901291 1_565
Ni1 Ni6 2.901296 1_655
Ni1 Ni6 2.901300 1_555
Ni1 Pr2 2.908018 1_665
Ni1 Pr2 2.908022 1_565
Ni1 Pr2 2.908026 1_655
Ni2 Ni9 2.453096 1_545
Ni2 Ni7 2.453097 1_555
Ni2 Ni8 2.453097 1_455
Ni2 Ni5 2.901293 1_545
Ni2 Ni5 2.901293 1_455
Ni2 Ni5 2.901302 1_555
Ni2 Pr1 2.908018 1_445
Ni2 Pr1 2.908026 1_455
Ni2 Pr1 2.908026 1_545
Ni3 Pr0 2.901241 1_666
Ni3 Ni4 2.901244 1_566
Ni3 Ni4 2.901244 1_656
Ni3 Pr0 2.901245 1_656
Ni3 Pr0 2.901245 1_566
Ni3 Ni4 2.901253 1_556
Ni4 Pr0 2.901241 1_555
Ni4 Pr0 2.901245 1_565
Ni4 Pr0 2.901245 1_655
Ni5 Ni9 2.461665 1_555
Ni5 Ni8 2.461665 1_555
Ni5 Ni7 2.461670 1_555
Ni5 Pr1 2.906875 1_545
Ni5 Pr1 2.906876 1_555
Ni5 Pr1 2.906876 1_455
Ni6 Pr2 2.906875 1_565
Ni6 Pr2 2.906876 1_555
Ni6 Pr2 2.906876 1_655
Ni7 Ni9 2.504288 1_555
Ni7 Ni8 2.504289 1_555
Ni7 Ni9 2.520811 1_545
Ni7 Ni8 2.520811 1_455
Ni7 Pr3 2.877337 1_545
Ni7 Pr3 2.877337 1_455
Ni7 Pr4 3.204235 1_555
Ni7 Pr1 3.322002 1_455
Ni7 Pr1 3.322002 1_545
Ni8 Ni9 2.504288 1_555
Ni8 Ni9 2.520811 1_645
Ni8 Pr3 2.877333 1_545
Ni8 Pr3 2.877342 1_555
Ni8 Pr4 3.204235 1_655
Ni8 Pr1 3.321998 1_545
Ni8 Pr1 3.322006 1_555
Ni9 Pr3 2.877333 1_455
Ni9 Pr3 2.877342 1_555
Ni9 Pr4 3.204235 1_565
Ni9 Pr1 3.321999 1_455
Ni9 Pr1 3.322006 1_555
Ni10 Ni6 2.461670 1_555
Ni10 Ni12 2.504288 1_555
Ni10 Ni11 2.504289 1_555
Ni10 Ni12 2.520811 1_565
Ni10 Ni11 2.520811 1_655
Ni10 Pr4 2.877337 1_565
Ni10 Pr4 2.877337 1_655
Ni10 Pr3 3.204235 1_555
Ni10 Pr2 3.322002 1_655
Ni10 Pr2 3.322002 1_565
Ni11 Ni6 2.461665 1_555
Ni11 Ni12 2.504288 1_555
Ni11 Ni12 2.520811 1_465
Ni11 Pr4 2.877333 1_565
Ni11 Pr4 2.877342 1_555
Ni11 Pr3 3.204235 1_455
Ni11 Pr2 3.321998 1_565
Ni11 Pr2 3.322006 1_555
Ni12 Ni6 2.461665 1_555
Ni12 Pr4 2.877333 1_655
Ni12 Pr4 2.877342 1_555
Ni12 Pr3 3.204235 1_545
Ni12 Pr2 3.321999 1_655
Ni12 Pr2 3.322006 1_555
Ni13 Ni4 2.446929 1_555
Ni13 Ni3 2.454241 1_554
Ni13 Ni5 2.475897 1_555
Ni13 Ni2 2.486973 1_555
Ni13 Ni15 2.507811 1_545
Ni13 Ni14 2.507811 1_455
Ni13 Ni15 2.517288 1_555
Ni13 Ni14 2.517289 1_555
Ni13 Pr1 3.104564 1_545
Ni13 Pr1 3.104564 1_455
Ni13 Pr0 3.195930 1_565
Ni13 Pr0 3.195930 1_655
Ni14 Ni4 2.446926 1_655
Ni14 Ni3 2.454239 1_554
Ni14 Ni5 2.475895 1_555
Ni14 Ni2 2.486971 1_655
Ni14 Ni15 2.507811 1_645
Ni14 Ni15 2.517288 1_555
Ni14 Pr1 3.104562 1_545
Ni14 Pr1 3.104566 1_555
Ni14 Pr0 3.195930 1_665
Ni14 Pr0 3.195930 1_655
Ni15 Ni4 2.446926 1_565
Ni15 Ni3 2.454239 1_554
Ni15 Ni5 2.475895 1_555
Ni15 Ni2 2.486970 1_565
Ni15 Pr1 3.104562 1_455
Ni15 Pr1 3.104566 1_555
Ni15 Pr0 3.195930 1_565
Ni15 Pr0 3.195930 1_665
Ni16 Ni3 2.446929 1_555
Ni16 Ni4 2.454241 1_556
Ni16 Ni6 2.475897 1_555
Ni16 Ni18 2.507811 1_565
Ni16 Ni17 2.507811 1_655
Ni16 Ni18 2.517288 1_555
Ni16 Ni17 2.517289 1_555
Ni16 Pr2 3.104564 1_565
Ni16 Pr2 3.104564 1_655
Ni16 Pr0 3.195930 1_656
Ni16 Pr0 3.195930 1_566
Ni17 Ni3 2.446926 1_455
Ni17 Ni4 2.454239 1_556
Ni17 Ni6 2.475895 1_555
Ni17 Ni18 2.507811 1_465
Ni17 Ni18 2.517288 1_555
Ni17 Pr2 3.104562 1_565
Ni17 Pr2 3.104566 1_555
Ni17 Pr0 3.195930 1_556
Ni17 Pr0 3.195930 1_566
Ni18 Ni3 2.446926 1_545
Ni18 Ni4 2.454239 1_556
Ni18 Ni6 2.475895 1_555
Ni18 Pr2 3.104562 1_655
Ni18 Pr2 3.104566 1_555
Ni18 Pr0 3.195930 1_656
Ni18 Pr0 3.195930 1_556
