# generated using pymatgen
data_InBiSe3
_symmetry_space_group_name_H-M   'P 1'
_cell_length_a   10.25690755
_cell_length_b   10.25690755
_cell_length_c   10.25690705
_cell_angle_alpha   23.17547089
_cell_angle_beta   23.17547089
_cell_angle_gamma   23.17547222
_symmetry_Int_Tables_number   1
_chemical_formula_structural   InBiSe3
_chemical_formula_sum   'In1 Bi1 Se3'
_cell_volume   146.70824568
_cell_formula_units_Z   1
loop_
 _symmetry_equiv_pos_site_id
 _symmetry_equiv_pos_as_xyz
  1  'x, y, z'
loop_
 _atom_site_type_symbol
 _atom_site_label
 _atom_site_symmetry_multiplicity
 _atom_site_fract_x
 _atom_site_fract_y
 _atom_site_fract_z
 _atom_site_occupancy
  In  In0  1  0.39833900  0.39833900  0.39833900  1
  Bi  Bi0  1  0.60429400  0.60429400  0.60429400  1
  Se  Se0  1  0.77522800  0.77522800  0.77522800  1
  Se  Se1  1  0.21784300  0.21784300  0.21784300  1
  Se  Se2  1  0.00429700  0.00429700  0.00429700  1
loop_
_geom_bond_atom_site_label_1
_geom_bond_atom_site_label_2
_geom_bond_distance
_geom_bond_site_symmetry_2
In0 Se0 2.712806 1_455
In0 Se0 2.712806 1_545
In0 Se0 2.712806 1_554
In0 Se2 2.993591 1_655
In0 Se2 2.993591 1_565
In0 Se2 2.993591 1_556
Bi0 Se1 2.861377 1_655
Bi0 Se1 2.861377 1_565
Bi0 Se1 2.861377 1_556
Bi0 Se2 3.105132 1_656
Bi0 Se2 3.105132 1_566
Bi0 Se2 3.105132 1_665
