# generated using pymatgen
data_Na3PrV2O8
_symmetry_space_group_name_H-M   'P 1'
_cell_length_a   5.69751526
_cell_length_b   14.31607493
_cell_length_c   19.75428483
_cell_angle_alpha   90.00000000
_cell_angle_beta   90.00000000
_cell_angle_gamma   90.00000000
_symmetry_Int_Tables_number   1
_chemical_formula_structural   Na3PrV2O8
_chemical_formula_sum   'Na24 Pr8 V16 O64'
_cell_volume   1611.27909038
_cell_formula_units_Z   8
loop_
 _symmetry_equiv_pos_site_id
 _symmetry_equiv_pos_as_xyz
  1  'x, y, z'
loop_
 _atom_site_type_symbol
 _atom_site_label
 _atom_site_symmetry_multiplicity
 _atom_site_fract_x
 _atom_site_fract_y
 _atom_site_fract_z
 _atom_site_occupancy
  Na  Na0  1  0.97728928  0.21666106  0.99345683  1
  Na  Na1  1  0.02271072  0.78333894  0.49345683  1
  Na  Na2  1  0.02271072  0.71666106  0.99345683  1
  Na  Na3  1  0.97728928  0.28333894  0.49345683  1
  Na  Na4  1  0.98247247  0.95174547  0.64714781  1
  Na  Na5  1  0.01752753  0.04825453  0.14714781  1
  Na  Na6  1  0.01752753  0.45174547  0.64714781  1
  Na  Na7  1  0.98247247  0.54825453  0.14714781  1
  Na  Na8  1  0.98794164  0.86362222  0.82673875  1
  Na  Na9  1  0.01205836  0.13637778  0.32673875  1
  Na  Na10  1  0.01205836  0.36362222  0.82673875  1
  Na  Na11  1  0.98794164  0.63637778  0.32673875  1
  Na  Na12  1  0.46859680  0.79818499  0.73278475  1
  Na  Na13  1  0.53140320  0.20181501  0.23278475  1
  Na  Na14  1  0.53140320  0.29818499  0.73278475  1
  Na  Na15  1  0.46859680  0.70181501  0.23278475  1
  Na  Na16  1  0.54254448  0.96771000  0.88871453  1
  Na  Na17  1  0.45745552  0.03229000  0.38871453  1
  Na  Na18  1  0.45745552  0.46771000  0.88871453  1
  Na  Na19  1  0.54254448  0.53229000  0.38871453  1
  Na  Na20  1  0.49412679  0.88329123  0.55206032  1
  Na  Na21  1  0.50587321  0.11670877  0.05206032  1
  Na  Na22  1  0.50587321  0.38329123  0.55206032  1
  Na  Na23  1  0.49412679  0.61670877  0.05206032  1
  Pr  Pr0  1  0.92580472  0.61144115  0.80339251  1
  Pr  Pr1  1  0.07419528  0.38855885  0.30339251  1
  Pr  Pr2  1  0.07419528  0.11144115  0.80339251  1
  Pr  Pr3  1  0.92580472  0.88855885  0.30339251  1
  Pr  Pr4  1  0.56296271  0.63706758  0.57391348  1
  Pr  Pr5  1  0.43703729  0.36293242  0.07391348  1
  Pr  Pr6  1  0.43703729  0.13706758  0.57391348  1
  Pr  Pr7  1  0.56296271  0.86293242  0.07391348  1
  V  V0  1  0.96358810  0.47480578  0.98113386  1
  V  V1  1  0.03641190  0.52519422  0.48113386  1
  V  V2  1  0.03641190  0.97480578  0.98113386  1
  V  V3  1  0.96358810  0.02519422  0.48113386  1
  V  V4  1  0.98476710  0.22655266  0.65272029  1
  V  V5  1  0.01523290  0.77344734  0.15272029  1
  V  V6  1  0.01523290  0.72655266  0.65272029  1
  V  V7  1  0.98476710  0.27344734  0.15272029  1
  V  V8  1  0.47355406  0.52231157  0.72367844  1
  V  V9  1  0.52644594  0.47768843  0.22367844  1
  V  V10  1  0.52644594  0.02231157  0.72367844  1
  V  V11  1  0.47355406  0.97768843  0.22367844  1
  V  V12  1  0.45565033  0.72560060  0.89613687  1
  V  V13  1  0.54434967  0.27439940  0.39613687  1
  V  V14  1  0.54434967  0.22560060  0.89613687  1
  V  V15  1  0.45565033  0.77439940  0.39613687  1
  O  O0  1  0.58539690  0.81182264  0.84798615  1
  O  O1  1  0.41460310  0.18817736  0.34798615  1
  O  O2  1  0.41460310  0.31182264  0.84798615  1
  O  O3  1  0.58539690  0.68817736  0.34798615  1
  O  O4  1  0.70057186  0.46586787  0.76635374  1
  O  O5  1  0.29942814  0.53413213  0.26635374  1
  O  O6  1  0.29942814  0.96586787  0.76635374  1
  O  O7  1  0.70057186  0.03413213  0.26635374  1
  O  O8  1  0.89088607  0.87033629  0.99878275  1
  O  O9  1  0.10911393  0.12966371  0.49878275  1
  O  O10  1  0.10911393  0.37033629  0.99878275  1
  O  O11  1  0.89088607  0.62966371  0.49878275  1
  O  O12  1  0.79571675  0.78406491  0.60792244  1
  O  O13  1  0.20428325  0.21593509  0.10792244  1
  O  O14  1  0.20428325  0.28406491  0.60792244  1
  O  O15  1  0.79571675  0.71593509  0.10792244  1
  O  O16  1  0.66033725  0.46404602  0.99815899  1
  O  O17  1  0.33966275  0.53595398  0.49815899  1
  O  O18  1  0.33966275  0.96404602  0.99815899  1
  O  O19  1  0.66033725  0.03595398  0.49815899  1
  O  O20  1  0.90924200  0.43967703  0.53041452  1
  O  O21  1  0.09075800  0.56032297  0.03041452  1
  O  O22  1  0.09075800  0.93967703  0.53041452  1
  O  O23  1  0.90924200  0.06032297  0.03041452  1
  O  O24  1  0.79559775  0.99505696  0.76102949  1
  O  O25  1  0.20440225  0.00494304  0.26102949  1
  O  O26  1  0.20440225  0.49505696  0.76102949  1
  O  O27  1  0.79559775  0.50494304  0.26102949  1
  O  O28  1  0.60504217  0.62135901  0.87995895  1
  O  O29  1  0.39495783  0.37864099  0.37995895  1
  O  O30  1  0.39495783  0.12135901  0.87995895  1
  O  O31  1  0.60504217  0.87864099  0.37995895  1
  O  O32  1  0.53846697  0.63984174  0.72794792  1
  O  O33  1  0.46153303  0.36015826  0.22794792  1
  O  O34  1  0.46153303  0.13984174  0.72794792  1
  O  O35  1  0.53846697  0.86015826  0.22794792  1
  O  O36  1  0.94544292  0.60951232  0.64837320  1
  O  O37  1  0.05455708  0.39048768  0.14837320  1
  O  O38  1  0.05455708  0.10951232  0.64837320  1
  O  O39  1  0.94544292  0.89048768  0.14837320  1
  O  O40  1  0.84461487  0.21405088  0.87561393  1
  O  O41  1  0.15538513  0.78594912  0.37561393  1
  O  O42  1  0.15538513  0.71405088  0.87561393  1
  O  O43  1  0.84461487  0.28594912  0.37561393  1
  O  O44  1  0.98734877  0.25809463  0.73808544  1
  O  O45  1  0.01265123  0.74190537  0.23808544  1
  O  O46  1  0.01265123  0.75809463  0.73808544  1
  O  O47  1  0.98734877  0.24190537  0.23808544  1
  O  O48  1  0.53191109  0.99138163  0.63829465  1
  O  O49  1  0.46808891  0.00861837  0.13829465  1
  O  O50  1  0.46808891  0.49138163  0.63829465  1
  O  O51  1  0.53191109  0.50861837  0.13829465  1
  O  O52  1  0.98341505  0.99915093  0.89556244  1
  O  O53  1  0.01658495  0.00084907  0.39556244  1
  O  O54  1  0.01658495  0.49915093  0.89556244  1
  O  O55  1  0.98341505  0.50084907  0.39556244  1
  O  O56  1  0.28874603  0.75327503  0.61775487  1
  O  O57  1  0.71125397  0.24672497  0.11775487  1
  O  O58  1  0.71125397  0.25327503  0.61775487  1
  O  O59  1  0.28874603  0.74672497  0.11775487  1
  O  O60  1  0.47094485  0.74987002  0.98248208  1
  O  O61  1  0.52905515  0.25012998  0.48248208  1
  O  O62  1  0.52905515  0.24987002  0.98248208  1
  O  O63  1  0.47094485  0.75012998  0.48248208  1
loop_
_geom_bond_atom_site_label_1
_geom_bond_atom_site_label_2
_geom_bond_distance
_geom_bond_site_symmetry_2
Na0 O10 2.327079 1_655
Na0 O23 2.385922 1_556
Na0 O40 2.447842 1_555
Na0 O13 2.604938 1_656
Na0 O62 2.606727 1_555
Na0 O57 2.917498 1_556
Na1 O11 2.327079 1_455
Na1 O22 2.385922 1_555
Na1 O41 2.447842 1_555
Na1 O12 2.604938 1_455
Na1 O63 2.606727 1_555
Na1 O56 2.917498 1_555
Na2 O8 2.327079 1_455
Na2 O21 2.385922 1_556
Na2 O42 2.447842 1_555
Na2 O15 2.604938 1_456
Na2 O60 2.606727 1_555
Na2 O59 2.917498 1_556
Na3 O9 2.327079 1_655
Na3 O20 2.385922 1_555
Na3 O43 2.447842 1_555
Na3 O14 2.604938 1_655
Na3 O61 2.606727 1_555
Na3 O58 2.917498 1_555
Na4 O38 2.295767 1_665
Na4 O22 2.393333 1_655
Na4 O24 2.564961 1_555
Na4 O48 2.634857 1_555
Na4 O12 2.737726 1_555
Na4 O6 2.974428 1_655
Na5 O39 2.295767 1_445
Na5 O23 2.393333 1_455
Na5 O25 2.564961 1_555
Na5 O49 2.634857 1_555
Na5 O13 2.737726 1_555
Na5 O7 2.974428 1_455
Na6 O36 2.295767 1_455
Na6 O20 2.393333 1_455
Na6 O26 2.564961 1_555
Na6 O50 2.634857 1_555
Na6 O14 2.737726 1_555
Na6 O4 2.974428 1_455
Na7 O37 2.295767 1_655
Na7 O21 2.393333 1_655
Na7 O27 2.564961 1_555
Na7 O51 2.634857 1_555
Na7 O15 2.737726 1_555
Na7 O5 2.974428 1_655
Na8 O46 2.317142 1_655
Na8 O52 2.369305 1_555
Na8 O0 2.446683 1_555
Na8 O24 2.535033 1_555
Na8 O42 2.535227 1_655
Na8 O6 2.591343 1_655
Na9 O47 2.317142 1_455
Na9 O53 2.369305 1_555
Na9 O1 2.446683 1_555
Na9 O25 2.535033 1_555
Na9 O43 2.535227 1_455
Na9 O7 2.591343 1_455
Na10 O44 2.317142 1_455
Na10 O54 2.369305 1_555
Na10 O2 2.446683 1_555
Na10 O26 2.535033 1_555
Na10 O40 2.535227 1_455
Na10 O4 2.591343 1_455
Na11 O45 2.317142 1_655
Na11 O55 2.369305 1_555
Na11 O3 2.446683 1_555
Na11 O27 2.535033 1_555
Na11 O41 2.535227 1_655
Na11 O5 2.591343 1_655
Na12 O32 2.303525 1_555
Na12 O0 2.379049 1_555
Na12 O56 2.574272 1_555
Na12 O46 2.662463 1_555
Na12 O6 2.670473 1_555
Na13 O33 2.303525 1_555
Na13 O1 2.379049 1_555
Na13 O57 2.574272 1_555
Na13 O47 2.662463 1_555
Na13 O7 2.670473 1_555
Na14 O34 2.303525 1_555
Na14 O2 2.379049 1_555
Na14 O58 2.574272 1_555
Na14 O44 2.662463 1_555
Na14 O4 2.670473 1_555
Na15 O35 2.303525 1_555
Na15 O3 2.379049 1_555
Na15 O59 2.574272 1_555
Na15 O45 2.662463 1_555
Na15 O5 2.670473 1_555
Na16 O30 2.361240 1_565
Na16 O0 2.384825 1_555
Na16 O18 2.452170 1_555
Na16 O52 2.555460 1_555
Na16 O6 2.786032 1_555
Na16 O24 2.931573 1_555
Na17 O31 2.361240 1_545
Na17 O1 2.384825 1_555
Na17 O19 2.452170 1_555
Na17 O53 2.555460 1_555
Na17 O7 2.786032 1_555
Na17 O25 2.931573 1_555
Na18 O28 2.361240 1_555
Na18 O2 2.384825 1_555
Na18 O16 2.452170 1_555
Na18 O54 2.555460 1_555
Na18 O4 2.786032 1_555
Na18 O26 2.931573 1_555
Na19 O29 2.361240 1_555
Na19 O3 2.384825 1_555
Na19 O17 2.452170 1_555
Na19 O55 2.555460 1_555
Na19 O5 2.786032 1_555
Na19 O27 2.931573 1_555
Na20 O48 2.311447 1_555
Na20 O63 2.353883 1_555
Na20 O22 2.473089 1_555
Na20 O12 2.487621 1_555
Na20 O56 2.553027 1_555
Na20 O19 2.609040 1_565
Na21 O49 2.311447 1_555
Na21 O62 2.353883 1_554
Na21 O23 2.473089 1_555
Na21 O13 2.487621 1_555
Na21 O57 2.553027 1_555
Na21 O18 2.609040 1_544
Na22 O50 2.311447 1_555
Na22 O61 2.353883 1_555
Na22 O20 2.473089 1_555
Na22 O14 2.487621 1_555
Na22 O58 2.553027 1_555
Na22 O17 2.609040 1_555
Na23 O51 2.311447 1_555
Na23 O60 2.353883 1_554
Na23 O21 2.473089 1_555
Na23 O15 2.487621 1_555
Na23 O59 2.553027 1_555
Na23 O16 2.609040 1_554
O0 V12 1.724779 1_555
O1 V13 1.724779 1_555
O2 V14 1.724779 1_555
O3 V15 1.724779 1_555
O4 V8 1.742588 1_555
O4 Pr0 2.554474 1_555
O5 V9 1.742588 1_555
O5 Pr1 2.554474 1_555
O6 V10 1.742588 1_565
O6 Pr2 2.554474 1_565
O7 V11 1.742588 1_545
O7 Pr3 2.554474 1_545
O8 V2 1.745226 1_655
O8 Pr7 2.388446 1_556
O9 V3 1.745226 1_455
O9 Pr6 2.388446 1_555
O10 V0 1.745226 1_455
O10 Pr5 2.388446 1_556
O11 V1 1.745226 1_655
O11 Pr4 2.388446 1_555
O12 V6 1.739334 1_655
O12 Pr4 2.576537 1_555
O13 V7 1.739334 1_455
O13 Pr5 2.576537 1_555
O14 V4 1.739334 1_455
O14 Pr6 2.576537 1_555
O15 V5 1.739334 1_655
O15 Pr7 2.576537 1_555
O16 V0 1.766932 1_555
O16 Pr5 2.439974 1_556
O17 V1 1.766932 1_555
O17 Pr4 2.439974 1_555
O18 V2 1.766932 1_555
O18 Pr7 2.439974 1_556
O19 V3 1.766932 1_555
O19 Pr6 2.439974 1_555
O20 V1 1.723811 1_655
O21 V0 1.723811 1_454
O22 V3 1.723811 1_465
O23 V2 1.723811 1_644
O24 V10 1.745928 1_565
O24 Pr2 2.448671 1_665
O25 V11 1.745928 1_545
O25 Pr3 2.448671 1_445
O26 V8 1.745928 1_555
O26 Pr0 2.448671 1_455
O27 V9 1.745928 1_555
O27 Pr1 2.448671 1_655
O28 V12 1.747473 1_555
O28 Pr0 2.376510 1_555
O29 V13 1.747473 1_555
O29 Pr1 2.376510 1_555
O30 V14 1.747473 1_555
O30 Pr2 2.376510 1_555
O31 V15 1.747473 1_555
O31 Pr3 2.376510 1_555
O32 V8 1.724802 1_555
O32 Pr0 2.693828 1_555
O32 Pr4 3.046298 1_555
O33 V9 1.724802 1_555
O33 Pr1 2.693828 1_555
O33 Pr5 3.046298 1_555
O34 V10 1.724802 1_555
O34 Pr2 2.693828 1_555
O34 Pr6 3.046298 1_555
O35 V11 1.724802 1_555
O35 Pr3 2.693828 1_555
O35 Pr7 3.046298 1_555
O36 V6 1.724233 1_655
O36 Pr4 2.658574 1_555
O36 Pr0 3.064463 1_555
O37 V7 1.724233 1_455
O37 Pr5 2.658574 1_555
O37 Pr1 3.064463 1_555
O38 V4 1.724233 1_455
O38 Pr6 2.658574 1_555
O38 Pr2 3.064463 1_555
O39 V5 1.724233 1_655
O39 Pr7 2.658574 1_555
O39 Pr3 3.064463 1_555
O40 V14 1.765905 1_555
O40 Pr2 2.429867 1_655
O41 V15 1.765905 1_555
O41 Pr3 2.429867 1_455
O42 V12 1.765905 1_555
O42 Pr0 2.429867 1_455
O43 V13 1.765905 1_555
O43 Pr1 2.429867 1_655
O44 V4 1.745801 1_555
O44 Pr2 2.513382 1_655
O45 V5 1.745801 1_555
O45 Pr3 2.513382 1_455
O46 V6 1.745801 1_555
O46 Pr0 2.513382 1_455
O47 V7 1.745801 1_555
O47 Pr1 2.513382 1_655
O48 V10 1.744127 1_565
O48 Pr6 2.501922 1_565
O49 V11 1.744127 1_545
O49 Pr7 2.501922 1_545
O50 V8 1.744127 1_555
O50 Pr4 2.501922 1_555
O51 V9 1.744127 1_555
O51 Pr5 2.501922 1_555
O52 V2 1.752171 1_655
O52 Pr2 2.483322 1_665
O53 V3 1.752171 1_455
O53 Pr3 2.483322 1_445
O54 V0 1.752171 1_455
O54 Pr0 2.483322 1_455
O55 V1 1.752171 1_655
O55 Pr1 2.483322 1_655
O56 V6 1.746963 1_555
O56 Pr4 2.441041 1_555
O57 V7 1.746963 1_555
O57 Pr5 2.441041 1_555
O58 V4 1.746963 1_555
O58 Pr6 2.441041 1_555
O59 V5 1.746963 1_555
O59 Pr7 2.441041 1_555
O60 V12 1.742894 1_555
O60 Pr7 2.481326 1_556
O61 V13 1.742894 1_555
O61 Pr6 2.481326 1_555
O62 V14 1.742894 1_555
O62 Pr5 2.481326 1_556
O63 V15 1.742894 1_555
O63 Pr4 2.481326 1_555
