# generated using pymatgen
data_TmFeGe2O7
_symmetry_space_group_name_H-M   'P 1'
_cell_length_a   6.94004445
_cell_length_b   6.94004445
_cell_length_c   6.63327428
_cell_angle_alpha   69.84076760
_cell_angle_beta   69.84076760
_cell_angle_gamma   77.87067865
_symmetry_Int_Tables_number   1
_chemical_formula_structural   TmFeGe2O7
_chemical_formula_sum   'Tm2 Fe2 Ge4 O14'
_cell_volume   280.02429159
_cell_formula_units_Z   2
loop_
 _symmetry_equiv_pos_site_id
 _symmetry_equiv_pos_as_xyz
  1  'x, y, z'
loop_
 _atom_site_type_symbol
 _atom_site_label
 _atom_site_symmetry_multiplicity
 _atom_site_fract_x
 _atom_site_fract_y
 _atom_site_fract_z
 _atom_site_occupancy
  Tm  Tm0  1  0.20092200  0.79907800  0.00000000  1
  Tm  Tm1  1  0.79907800  0.20092200  0.00000000  1
  Fe  Fe0  1  0.30360000  0.69640000  0.50000000  1
  Fe  Fe1  1  0.69640000  0.30360000  0.50000000  1
  Ge  Ge0  1  0.21637500  0.21637500  0.48823800  1
  Ge  Ge1  1  0.78362500  0.78362500  0.51176200  1
  Ge  Ge2  1  0.30463700  0.30463700  0.92163300  1
  Ge  Ge3  1  0.69536300  0.69536300  0.07836700  1
  O  O0  1  0.05423500  0.72643400  0.39729500  1
  O  O1  1  0.27356600  0.94576500  0.60270500  1
  O  O2  1  0.94576500  0.27356600  0.60270500  1
  O  O3  1  0.72643400  0.05423500  0.39729500  1
  O  O4  1  0.63624300  0.63624300  0.45141600  1
  O  O5  1  0.36375700  0.36375700  0.54858400  1
  O  O6  1  0.86842300  0.86842300  0.03245800  1
  O  O7  1  0.13157700  0.13157700  0.96754200  1
  O  O8  1  0.78252900  0.42933200  0.16730200  1
  O  O9  1  0.57066800  0.21747100  0.83269800  1
  O  O10  1  0.42933200  0.78252900  0.16730200  1
  O  O11  1  0.21747100  0.57066800  0.83269800  1
  O  O12  1  0.68903800  0.68903800  0.80800300  1
  O  O13  1  0.31096200  0.31096200  0.19199700  1
loop_
_geom_bond_atom_site_label_1
_geom_bond_atom_site_label_2
_geom_bond_distance
_geom_bond_site_symmetry_2
Fe0 O11 1.992902 1_555
Fe0 O10 1.992902 1_555
Fe0 O1 2.016369 1_555
Fe0 O0 2.016369 1_555
Fe0 O4 2.186895 1_555
Fe0 O5 2.186895 1_555
Fe1 O9 1.992902 1_555
Fe1 O8 1.992902 1_555
Fe1 O2 2.016369 1_555
Fe1 O3 2.016369 1_555
Fe1 O4 2.186895 1_555
Fe1 O5 2.186895 1_555
Ge0 O13 1.768084 1_555
Ge0 O1 1.781211 1_545
Ge0 O2 1.781211 1_455
Ge0 O5 1.804630 1_555
Ge1 O12 1.768084 1_555
Ge1 O3 1.781211 1_565
Ge1 O0 1.781211 1_655
Ge1 O4 1.804630 1_555
Ge2 O7 1.754922 1_555
Ge2 O9 1.774421 1_555
Ge2 O11 1.774421 1_555
Ge2 O13 1.824682 1_556
Ge2 O5 2.265206 1_555
Ge3 O6 1.754922 1_555
Ge3 O8 1.774421 1_555
Ge3 O10 1.774421 1_555
Ge3 O12 1.824682 1_554
Ge3 O4 2.265206 1_555
O0 Tm0 2.384620 1_555
O1 Tm0 2.384620 1_556
O2 Tm1 2.384620 1_556
O3 Tm1 2.384620 1_555
O6 Tm1 2.205692 1_565
O6 Tm0 2.205692 1_655
O7 Tm1 2.205692 1_456
O7 Tm0 2.205692 1_546
O8 Tm1 2.192192 1_555
O9 Tm1 2.192192 1_556
O10 Tm0 2.192192 1_555
O11 Tm0 2.192192 1_556
