# generated using pymatgen
data_ZrW2ClO10
_symmetry_space_group_name_H-M   'P 1'
_cell_length_a   10.42674296
_cell_length_b   10.42674296
_cell_length_c   10.42674352
_cell_angle_alpha   111.33903035
_cell_angle_beta   110.69162909
_cell_angle_gamma   106.42595324
_symmetry_Int_Tables_number   1
_chemical_formula_structural   ZrW2ClO10
_chemical_formula_sum   'Zr4 W8 Cl4 O40'
_cell_volume   870.75222008
_cell_formula_units_Z   4
loop_
 _symmetry_equiv_pos_site_id
 _symmetry_equiv_pos_as_xyz
  1  'x, y, z'
loop_
 _atom_site_type_symbol
 _atom_site_label
 _atom_site_symmetry_multiplicity
 _atom_site_fract_x
 _atom_site_fract_y
 _atom_site_fract_z
 _atom_site_occupancy
  Zr  Zr0  1  0.24212800  0.74212800  0.50000000  1
  Zr  Zr1  1  0.74212800  0.24212800  0.50000000  1
  Zr  Zr2  1  0.49478500  0.49478500  0.00000000  1
  Zr  Zr3  1  0.99478500  0.99478500  0.00000000  1
  W  W0  1  0.17456000  0.52117200  0.68228900  1
  W  W1  1  0.67456000  0.99227100  0.65338800  1
  W  W2  1  0.29689100  0.43379300  0.20067900  1
  W  W3  1  0.73311400  0.93379300  0.13690200  1
  W  W4  1  0.83888300  0.49227100  0.31771100  1
  W  W5  1  0.33888300  0.02117200  0.34661200  1
  W  W6  1  0.23311400  0.09621200  0.79932100  1
  W  W7  1  0.79689100  0.59621200  0.86309800  1
  Cl  Cl0  1  0.04258000  0.40978800  0.94071900  1
  Cl  Cl1  1  0.96906900  0.90978800  0.36720800  1
  Cl  Cl2  1  0.46906900  0.10186100  0.05928100  1
  Cl  Cl3  1  0.54258000  0.60186100  0.63279200  1
  O  O0  1  0.06331100  0.56331100  0.50000000  1
  O  O1  1  0.56331100  0.06331100  0.50000000  1
  O  O2  1  0.31683200  0.31683200  0.00000000  1
  O  O3  1  0.81683200  0.81683200  0.00000000  1
  O  O4  1  0.21017200  0.39236600  0.49430400  1
  O  O5  1  0.71017200  0.21586700  0.81780600  1
  O  O6  1  0.46532400  0.45254700  0.34870300  1
  O  O7  1  0.60384400  0.95254700  0.98722200  1
  O  O8  1  0.89806100  0.71586700  0.50569600  1
  O  O9  1  0.39806100  0.89236600  0.18219400  1
  O  O10  1  0.10384400  0.11662100  0.65129700  1
  O  O11  1  0.96532400  0.61662100  0.01277800  1
  O  O12  1  0.48334000  0.88300900  0.62464000  1
  O  O13  1  0.98334000  0.35870000  0.60033100  1
  O  O14  1  0.61791100  0.73914900  0.10179500  1
  O  O15  1  0.13735400  0.23914900  0.12123800  1
  O  O16  1  0.25837000  0.85870000  0.37536000  1
  O  O17  1  0.75837000  0.38300900  0.39966900  1
  O  O18  1  0.63735400  0.51611600  0.89820500  1
  O  O19  1  0.11791100  0.01611600  0.87876200  1
  O  O20  1  0.23783100  0.91984400  0.67645400  1
  O  O21  1  0.73783100  0.06137700  0.31798700  1
  O  O22  1  0.30994900  0.47620300  0.80924100  1
  O  O23  1  0.16696200  0.97620300  0.16625400  1
  O  O24  1  0.24339000  0.56137700  0.32354600  1
  O  O25  1  0.74339000  0.41984400  0.68201300  1
  O  O26  1  0.66696200  0.50070800  0.19075900  1
  O  O27  1  0.80994900  0.00070800  0.83374600  1
  O  O28  1  0.34468100  0.65404000  0.65898300  1
  O  O29  1  0.84468100  0.18569900  0.69064100  1
  O  O30  1  0.38423700  0.57733100  0.13912800  1
  O  O31  1  0.93820400  0.07733100  0.19309500  1
  O  O32  1  0.99505700  0.68569900  0.34101700  1
  O  O33  1  0.49505700  0.15404000  0.30935900  1
  O  O34  1  0.43820400  0.24510900  0.86087200  1
  O  O35  1  0.88423700  0.74510900  0.80690500  1
  O  O36  1  0.18456000  0.68605900  0.82985800  1
  O  O37  1  0.68456000  0.85470100  0.49850000  1
  O  O38  1  0.85620100  0.35470100  0.17014200  1
  O  O39  1  0.35620100  0.18605900  0.50150000  1
loop_
_geom_bond_atom_site_label_1
_geom_bond_atom_site_label_2
_geom_bond_distance
_geom_bond_site_symmetry_2
Cl0 O29 2.356553 1_455
Cl0 O11 2.468852 1_456
Cl0 W2 2.914206 1_556
Cl1 O32 2.356546 1_555
Cl1 O10 2.468851 1_665
Cl1 W3 2.914206 1_555
Cl2 O33 2.356556 1_555
Cl2 O7 2.468853 1_544
Cl2 W6 2.914206 1_554
Cl3 O28 2.356556 1_555
Cl3 O6 2.468851 1_555
Cl3 W7 2.914206 1_555
O0 W0 2.118757 1_555
O0 W4 2.118757 1_455
O0 Zr0 2.233057 1_555
O1 W1 2.118757 1_545
O1 W5 2.118757 1_555
O1 Zr1 2.233057 1_555
O2 W2 2.121902 1_555
O2 W6 2.121902 1_554
O2 Zr2 2.222268 1_555
O3 W7 2.121902 1_554
O3 W3 2.121902 1_555
O3 Zr3 2.222268 1_555
O4 W0 2.159637 1_555
O5 W1 2.159629 1_545
O6 W2 1.781929 1_555
O7 W3 1.781936 1_556
O8 W4 2.159633 1_555
O9 W5 2.159629 1_565
O10 W6 1.781929 1_555
O11 W7 1.781934 1_554
O12 W1 1.845942 1_555
O12 Zr0 2.093723 1_555
O13 W0 1.845942 1_655
O13 Zr1 2.093723 1_555
O14 W3 1.861622 1_555
O14 Zr2 2.117922 1_555
O15 W2 1.861622 1_555
O15 Zr3 2.117922 1_445
O16 W5 1.845940 1_565
O16 Zr0 2.093724 1_555
O17 W4 1.845938 1_555
O17 Zr1 2.093723 1_555
O18 W7 1.861622 1_555
O18 Zr2 2.117922 1_556
O19 W6 1.861622 1_555
O19 Zr3 2.117922 1_446
O20 W6 1.845669 1_565
O20 Zr0 2.108245 1_555
O21 W3 1.845669 1_545
O21 Zr1 2.108245 1_555
O22 W0 1.862887 1_555
O22 Zr2 2.123057 1_556
O23 W5 1.862887 1_565
O23 Zr3 2.123057 1_455
O24 W2 1.845669 1_555
O24 Zr0 2.108245 1_555
O25 W7 1.845669 1_555
O25 Zr1 2.108245 1_555
O26 W4 1.862887 1_555
O26 Zr2 2.123057 1_555
O27 W1 1.862887 1_545
O27 Zr3 2.123057 1_546
O28 W0 2.069917 1_555
O28 Zr0 2.268422 1_555
O29 W1 2.069924 1_545
O29 Zr1 2.268415 1_555
O30 W2 1.955104 1_555
O30 Zr2 2.237818 1_555
O31 W3 1.955108 1_545
O31 Zr3 2.237819 1_545
O32 W4 2.069924 1_555
O32 Zr0 2.268426 1_655
O33 W5 2.069917 1_555
O33 Zr1 2.268422 1_555
O34 W6 1.955112 1_555
O34 Zr2 2.237821 1_556
O35 W7 1.955112 1_555
O35 Zr3 2.237821 1_556
O36 W0 1.787227 1_555
O37 W1 1.787238 1_555
O38 W4 1.787232 1_555
O39 W5 1.787232 1_555
