# generated using pymatgen
data_CrPO4
_symmetry_space_group_name_H-M   'P 1'
_cell_length_a   4.67002998
_cell_length_b   8.66822347
_cell_length_c   6.14279562
_cell_angle_alpha   90.00000000
_cell_angle_beta   90.00000000
_cell_angle_gamma   83.08640658
_symmetry_Int_Tables_number   1
_chemical_formula_structural   CrPO4
_chemical_formula_sum   'Cr4 P4 O16'
_cell_volume   246.85757561
_cell_formula_units_Z   4
loop_
 _symmetry_equiv_pos_site_id
 _symmetry_equiv_pos_as_xyz
  1  'x, y, z'
loop_
 _atom_site_type_symbol
 _atom_site_label
 _atom_site_symmetry_multiplicity
 _atom_site_fract_x
 _atom_site_fract_y
 _atom_site_fract_z
 _atom_site_occupancy
  Cr  Cr0  1  0.50000000  0.50000000  0.50000000  1
  Cr  Cr1  1  -0.00000000  0.00000000  0.00000000  1
  Cr  Cr2  1  -0.00000000  0.00000000  0.50000000  1
  Cr  Cr3  1  0.50000000  0.50000000  0.00000000  1
  P  P0  1  0.47590536  0.17470102  0.25000000  1
  P  P1  1  0.97590536  0.67470102  0.25000000  1
  P  P2  1  0.02409464  0.32529898  0.75000000  1
  P  P3  1  0.52409464  0.82529898  0.75000000  1
  O  O0  1  0.08121063  0.14244169  0.75000000  1
  O  O1  1  0.58121063  0.64244169  0.75000000  1
  O  O2  1  0.41878937  0.35755831  0.25000000  1
  O  O3  1  0.91878937  0.85755831  0.25000000  1
  O  O4  1  0.17307959  0.11181603  0.25000000  1
  O  O5  1  0.67307959  0.61181603  0.25000000  1
  O  O6  1  0.32692041  0.38818397  0.75000000  1
  O  O7  1  0.82692041  0.88818397  0.75000000  1
  O  O8  1  0.86862825  0.37713478  0.95629669  1
  O  O9  1  0.36862825  0.87713478  0.95629669  1
  O  O10  1  0.63137175  0.12286522  0.45629669  1
  O  O11  1  0.13137175  0.62286522  0.45629669  1
  O  O12  1  0.63137175  0.12286522  0.04370331  1
  O  O13  1  0.13137175  0.62286522  0.04370331  1
  O  O14  1  0.86862825  0.37713478  0.54370331  1
  O  O15  1  0.36862825  0.87713478  0.54370331  1
loop_
_geom_bond_atom_site_label_1
_geom_bond_atom_site_label_2
_geom_bond_distance
_geom_bond_site_symmetry_2
Cr0 O14 1.930941 1_555
Cr0 O11 1.930941 1_555
Cr0 O1 2.034568 1_555
Cr0 O2 2.034568 1_555
Cr0 O5 2.034636 1_555
Cr0 O6 2.034636 1_555
Cr1 O9 1.930941 1_544
Cr1 O12 1.930941 1_455
Cr1 O3 2.034568 1_445
Cr1 O0 2.034568 1_554
Cr1 O7 2.034636 1_444
Cr1 O4 2.034636 1_555
Cr2 O15 1.930941 1_545
Cr2 O10 1.930941 1_455
Cr2 O3 2.034568 1_445
Cr2 O0 2.034568 1_555
Cr2 O7 2.034636 1_445
Cr2 O4 2.034636 1_555
Cr3 O13 1.930941 1_555
Cr3 O8 1.930941 1_554
Cr3 O1 2.034568 1_554
Cr3 O2 2.034568 1_555
Cr3 O5 2.034636 1_555
Cr3 O6 2.034636 1_554
O0 P2 1.575354 1_555
O1 P3 1.575354 1_555
O2 P0 1.575354 1_555
O3 P1 1.575354 1_555
O4 P0 1.575658 1_555
O5 P1 1.575658 1_555
O6 P2 1.575658 1_555
O7 P3 1.575658 1_555
O8 P2 1.502123 1_655
O9 P3 1.502123 1_555
O10 P0 1.502123 1_555
O11 P1 1.502123 1_455
O12 P0 1.502123 1_555
O13 P1 1.502123 1_455
O14 P2 1.502123 1_655
O15 P3 1.502123 1_555
