# generated using pymatgen
data_Ba2GaSbSe5
_symmetry_space_group_name_H-M   'P 1'
_cell_length_a   9.27160300
_cell_length_b   9.45881500
_cell_length_c   12.80890900
_cell_angle_alpha   90.00000000
_cell_angle_beta   90.00000000
_cell_angle_gamma   90.00000000
_symmetry_Int_Tables_number   1
_chemical_formula_structural   Ba2GaSbSe5
_chemical_formula_sum   'Ba8 Ga4 Sb4 Se20'
_cell_volume   1123.32053724
_cell_formula_units_Z   4
loop_
 _symmetry_equiv_pos_site_id
 _symmetry_equiv_pos_as_xyz
  1  'x, y, z'
loop_
 _atom_site_type_symbol
 _atom_site_label
 _atom_site_symmetry_multiplicity
 _atom_site_fract_x
 _atom_site_fract_y
 _atom_site_fract_z
 _atom_site_occupancy
  Ba  Ba0  1  0.00689900  0.12333500  0.82502900  1
  Ba  Ba1  1  0.49310100  0.37666500  0.32502900  1
  Ba  Ba2  1  0.50689900  0.87666500  0.17497100  1
  Ba  Ba3  1  0.99310100  0.62333500  0.67497100  1
  Ba  Ba4  1  0.99310100  0.87666500  0.17497100  1
  Ba  Ba5  1  0.50689900  0.62333500  0.67497100  1
  Ba  Ba6  1  0.49310100  0.12333500  0.82502900  1
  Ba  Ba7  1  0.00689900  0.37666500  0.32502900  1
  Ga  Ga0  1  0.25000000  0.33279000  0.59707300  1
  Ga  Ga1  1  0.25000000  0.16721000  0.09707300  1
  Ga  Ga2  1  0.75000000  0.66721000  0.40292700  1
  Ga  Ga3  1  0.75000000  0.83279000  0.90292700  1
  Sb  Sb0  1  0.25000000  0.98098900  0.52673200  1
  Sb  Sb1  1  0.25000000  0.51901100  0.02673200  1
  Sb  Sb2  1  0.75000000  0.01901100  0.47326800  1
  Sb  Sb3  1  0.75000000  0.48098900  0.97326800  1
  Se  Se0  1  0.04329900  0.17566600  0.55851000  1
  Se  Se1  1  0.45670100  0.32433400  0.05851000  1
  Se  Se2  1  0.54329900  0.82433400  0.44149000  1
  Se  Se3  1  0.95670100  0.67566600  0.94149000  1
  Se  Se4  1  0.95670100  0.82433400  0.44149000  1
  Se  Se5  1  0.54329900  0.67566600  0.94149000  1
  Se  Se6  1  0.45670100  0.17566600  0.55851000  1
  Se  Se7  1  0.04329900  0.32433400  0.05851000  1
  Se  Se8  1  0.25000000  0.88385600  0.71846000  1
  Se  Se9  1  0.25000000  0.61614400  0.21846000  1
  Se  Se10  1  0.75000000  0.11614400  0.28154000  1
  Se  Se11  1  0.75000000  0.38385600  0.78154000  1
  Se  Se12  1  0.25000000  0.39282100  0.78016700  1
  Se  Se13  1  0.25000000  0.10717900  0.28016700  1
  Se  Se14  1  0.75000000  0.60717900  0.21983300  1
  Se  Se15  1  0.75000000  0.89282100  0.71983300  1
  Se  Se16  1  0.25000000  0.96163800  0.99033300  1
  Se  Se17  1  0.25000000  0.53836200  0.49033300  1
  Se  Se18  1  0.75000000  0.03836200  0.00966700  1
  Se  Se19  1  0.75000000  0.46163800  0.50966700  1
loop_
_geom_bond_atom_site_label_1
_geom_bond_atom_site_label_2
_geom_bond_distance
_geom_bond_site_symmetry_2
Ba0 Se16 3.450031 1_545
Ba0 Se12 3.450786 1_555
Ba0 Se18 3.451459 1_456
Ba0 Se0 3.465986 1_555
Ba0 Se11 3.472170 1_455
Ba0 Se8 3.474855 1_545
Ba0 Se15 3.498999 1_445
Ba0 Se7 3.559833 1_556
Ba1 Se17 3.450031 1_555
Ba1 Se13 3.450786 1_555
Ba1 Se19 3.451459 1_555
Ba1 Se1 3.465986 1_555
Ba1 Se10 3.472170 1_555
Ba1 Se9 3.474855 1_555
Ba1 Se14 3.498999 1_555
Ba1 Se6 3.559833 1_555
Ba2 Se18 3.450031 1_565
Ba2 Se14 3.450786 1_555
Ba2 Se16 3.451459 1_554
Ba2 Se2 3.465986 1_555
Ba2 Se9 3.472170 1_555
Ba2 Se10 3.474855 1_565
Ba2 Se13 3.498999 1_565
Ba2 Se5 3.559833 1_554
Ba3 Se19 3.450031 1_555
Ba3 Se15 3.450786 1_555
Ba3 Se17 3.451459 1_655
Ba3 Se3 3.465986 1_555
Ba3 Se8 3.472170 1_655
Ba3 Se11 3.474855 1_555
Ba3 Se12 3.498999 1_655
Ba3 Se4 3.559833 1_555
Ba4 Se18 3.450031 1_565
Ba4 Se14 3.450786 1_555
Ba4 Se16 3.451459 1_654
Ba4 Se4 3.465986 1_555
Ba4 Se9 3.472170 1_655
Ba4 Se10 3.474855 1_565
Ba4 Se13 3.498999 1_665
Ba4 Se3 3.559833 1_554
Ba5 Se19 3.450031 1_555
Ba5 Se15 3.450786 1_555
Ba5 Se17 3.451459 1_555
Ba5 Se5 3.465986 1_555
Ba5 Se8 3.472170 1_555
Ba5 Se11 3.474855 1_555
Ba5 Se12 3.498999 1_555
Ba5 Se2 3.559833 1_555
Ba6 Se16 3.450031 1_545
Ba6 Se12 3.450786 1_555
Ba6 Se18 3.451459 1_556
Ba6 Se6 3.465986 1_555
Ba6 Se11 3.472170 1_555
Ba6 Se8 3.474855 1_545
Ba6 Se15 3.498999 1_545
Ba6 Se1 3.559833 1_556
Ba7 Se17 3.450031 1_555
Ba7 Se13 3.450786 1_555
Ba7 Se19 3.451459 1_455
Ba7 Se7 3.465986 1_555
Ba7 Se10 3.472170 1_455
Ba7 Se9 3.474855 1_555
Ba7 Se14 3.498999 1_455
Ba7 Se0 3.559833 1_555
Ga0 Se17 2.377026 1_555
Ga0 Se12 2.412995 1_555
Ga0 Se0 2.474990 1_555
Ga0 Se6 2.474990 1_555
Ga1 Se16 2.377026 1_544
Ga1 Se13 2.412995 1_555
Ga1 Se1 2.474990 1_555
Ga1 Se7 2.474990 1_555
Ga2 Se19 2.377026 1_555
Ga2 Se14 2.412995 1_555
Ga2 Se4 2.474990 1_555
Ga2 Se2 2.474990 1_555
Ga3 Se18 2.377026 1_566
Ga3 Se15 2.412995 1_555
Ga3 Se3 2.474990 1_555
Ga3 Se5 2.474990 1_555
Sb0 Se8 2.622062 1_555
Sb0 Se0 2.688730 1_565
Sb0 Se6 2.688730 1_565
Sb0 Se4 3.283698 1_455
Sb0 Se2 3.283698 1_555
Sb1 Se9 2.622062 1_555
Sb1 Se7 2.688730 1_555
Sb1 Se1 2.688730 1_555
Sb1 Se5 3.283698 1_554
Sb1 Se3 3.283698 1_454
Sb2 Se10 2.622062 1_555
Sb2 Se2 2.688730 1_545
Sb2 Se4 2.688730 1_545
Sb2 Se0 3.283698 1_655
Sb2 Se6 3.283698 1_555
Sb3 Se11 2.622062 1_555
Sb3 Se3 2.688730 1_555
Sb3 Se5 2.688730 1_555
Sb3 Se1 3.283698 1_556
Sb3 Se7 3.283698 1_656
