# generated using pymatgen
data_V4ZnO10
_symmetry_space_group_name_H-M   'P 1'
_cell_length_a   3.64465200
_cell_length_b   5.45937700
_cell_length_c   11.47766522
_cell_angle_alpha   89.97886154
_cell_angle_beta   90.00000499
_cell_angle_gamma   70.50049730
_symmetry_Int_Tables_number   1
_chemical_formula_structural   V4ZnO10
_chemical_formula_sum   'V4 Zn1 O10'
_cell_volume   215.27845092
_cell_formula_units_Z   1
loop_
 _symmetry_equiv_pos_site_id
 _symmetry_equiv_pos_as_xyz
  1  'x, y, z'
loop_
 _atom_site_type_symbol
 _atom_site_label
 _atom_site_symmetry_multiplicity
 _atom_site_fract_x
 _atom_site_fract_y
 _atom_site_fract_z
 _atom_site_occupancy
  V  V0  1  0.79888700  0.40228100  0.90136000  1
  V  V1  1  0.20921400  0.58153300  0.10280700  1
  V  V2  1  0.79886200  0.40231900  0.59866700  1
  V  V3  1  0.20921800  0.58152800  0.39722600  1
  Zn  Zn0  1  0.10063200  0.79861500  0.75000500  1
  O  O0  1  0.27384500  0.45242500  0.25001600  1
  O  O1  1  0.69859600  0.60282000  0.75001500  1
  O  O2  1  0.75800300  0.48395500  0.07049700  1
  O  O3  1  0.75795500  0.48405100  0.42952300  1
  O  O4  1  0.23695900  0.52612700  0.92722000  1
  O  O5  1  0.23698200  0.52607500  0.57278400  1
  O  O6  1  0.95755500  0.08493600  0.62969800  1
  O  O7  1  0.95749700  0.08504500  0.87023200  1
  O  O8  1  0.05454900  0.89084500  0.38079000  1
  O  O9  1  0.05461700  0.89071600  0.11916100  1
loop_
_geom_bond_atom_site_label_1
_geom_bond_atom_site_label_2
_geom_bond_distance
_geom_bond_site_symmetry_2
O0 V1 1.815318 1_555
O0 V3 1.815803 1_555
O1 V0 2.020184 1_555
O1 V2 2.020808 1_555
O1 Zn0 2.082132 1_655
O1 Zn0 2.082553 1_555
O2 V1 1.926319 1_555
O2 V1 1.926320 1_655
O2 V0 1.986439 1_554
O3 V3 1.926074 1_555
O3 V3 1.926086 1_655
O3 V2 1.986259 1_555
O4 V0 1.953269 1_455
O4 V0 1.953302 1_555
O4 V1 2.035510 1_556
O4 Zn0 2.470102 1_555
O5 V2 1.953093 1_455
O5 V2 1.953104 1_555
O5 V3 2.034993 1_555
O5 Zn0 2.471214 1_555
O6 V2 1.671578 1_555
O6 Zn0 2.018980 1_645
O7 V0 1.671349 1_555
O7 Zn0 2.019550 1_645
O8 V3 1.602889 1_555
O9 V1 1.602240 1_555
