# generated using pymatgen
data_Tm6FeBi2
_symmetry_space_group_name_H-M   'P 1'
_cell_length_a   8.19286090
_cell_length_b   8.19286090
_cell_length_c   4.15361122
_cell_angle_alpha   90.00000000
_cell_angle_beta   90.00000000
_cell_angle_gamma   119.99999600
_symmetry_Int_Tables_number   1
_chemical_formula_structural   Tm6FeBi2
_chemical_formula_sum   'Tm6 Fe1 Bi2'
_cell_volume   241.45024832
_cell_formula_units_Z   1
loop_
 _symmetry_equiv_pos_site_id
 _symmetry_equiv_pos_as_xyz
  1  'x, y, z'
loop_
 _atom_site_type_symbol
 _atom_site_label
 _atom_site_symmetry_multiplicity
 _atom_site_fract_x
 _atom_site_fract_y
 _atom_site_fract_z
 _atom_site_occupancy
  Tm  Tm0  1  0.23345877  0.00000000  0.50000000  1
  Tm  Tm1  1  0.00000000  0.23345877  0.50000000  1
  Tm  Tm2  1  0.76654123  0.76654123  0.50000000  1
  Tm  Tm3  1  0.61025604  -0.00000000  -0.00000000  1
  Tm  Tm4  1  -0.00000000  0.61025604  0.00000000  1
  Tm  Tm5  1  0.38974396  0.38974396  0.00000000  1
  Fe  Fe0  1  -0.00000000  -0.00000000  -0.00000000  1
  Bi  Bi0  1  0.33333300  0.66666700  0.50000000  1
  Bi  Bi1  1  0.66666700  0.33333300  0.50000000  1
loop_
_geom_bond_atom_site_label_1
_geom_bond_atom_site_label_2
_geom_bond_distance
_geom_bond_site_symmetry_2
Tm0 Tm1 3.312885 1_555
Tm0 Tm2 3.312885 1_445
Tm0 Tm5 3.472761 1_555
Tm0 Tm5 3.472761 1_556
Tm0 Tm4 3.472761 1_545
Tm0 Tm4 3.472761 1_546
Tm0 Tm3 3.720616 1_555
Tm0 Tm3 3.720616 1_556
Tm1 Tm2 3.312885 1_445
Tm1 Tm5 3.472761 1_555
Tm1 Tm5 3.472761 1_556
Tm1 Tm3 3.472761 1_456
Tm1 Tm3 3.472761 1_455
Tm1 Tm4 3.720616 1_556
Tm1 Tm4 3.720616 1_555
Tm2 Tm4 3.472761 1_655
Tm2 Tm3 3.472761 1_565
Tm2 Tm4 3.472761 1_656
Tm2 Tm3 3.472761 1_566
Tm2 Tm5 3.720616 1_555
Tm2 Tm5 3.720616 1_556
Fe0 Tm1 2.823389 1_555
Fe0 Tm0 2.823389 1_555
Fe0 Tm0 2.823389 1_554
Fe0 Tm1 2.823389 1_554
Fe0 Tm2 2.823389 1_445
Fe0 Tm2 2.823389 1_444
Fe0 Tm4 3.193118 1_545
Fe0 Tm3 3.193118 1_455
Fe0 Tm5 3.193118 1_555
Bi0 Tm0 3.219045 1_565
Bi0 Tm1 3.219051 1_555
Bi0 Tm2 3.219053 1_555
Bi0 Tm4 3.274547 1_555
Bi0 Tm4 3.274547 1_556
Bi0 Tm3 3.274549 1_565
Bi0 Tm3 3.274549 1_566
Bi0 Tm5 3.274553 1_555
Bi0 Tm5 3.274553 1_556
Bi1 Tm1 3.219045 1_655
Bi1 Tm0 3.219051 1_555
Bi1 Tm2 3.219053 1_555
Bi1 Tm3 3.274547 1_556
Bi1 Tm3 3.274547 1_555
Bi1 Tm4 3.274549 1_656
Bi1 Tm4 3.274549 1_655
Bi1 Tm5 3.274553 1_555
Bi1 Tm5 3.274553 1_556
