# generated using pymatgen
data_Mg6ZnCo
_symmetry_space_group_name_H-M   'P 1'
_cell_length_a   4.76556200
_cell_length_b   6.05540900
_cell_length_c   10.35021900
_cell_angle_alpha   90.00000000
_cell_angle_beta   90.00000000
_cell_angle_gamma   90.00000000
_symmetry_Int_Tables_number   1
_chemical_formula_structural   Mg6ZnCo
_chemical_formula_sum   'Mg12 Zn2 Co2'
_cell_volume   298.68068948
_cell_formula_units_Z   2
loop_
 _symmetry_equiv_pos_site_id
 _symmetry_equiv_pos_as_xyz
  1  'x, y, z'
loop_
 _atom_site_type_symbol
 _atom_site_label
 _atom_site_symmetry_multiplicity
 _atom_site_fract_x
 _atom_site_fract_y
 _atom_site_fract_z
 _atom_site_occupancy
  Mg  Mg0  1  0.50000000  0.25141800  0.58370300  1
  Mg  Mg1  1  0.50000000  0.74858200  0.58370300  1
  Mg  Mg2  1  0.00000000  0.24094700  0.41072500  1
  Mg  Mg3  1  0.00000000  0.75905300  0.41072500  1
  Mg  Mg4  1  0.00000000  0.00000000  0.66953100  1
  Mg  Mg5  1  0.00000000  0.00000000  0.17520500  1
  Mg  Mg6  1  0.50000000  0.75141800  0.08370300  1
  Mg  Mg7  1  0.50000000  0.24858200  0.08370300  1
  Mg  Mg8  1  0.00000000  0.74094700  0.91072500  1
  Mg  Mg9  1  0.00000000  0.25905300  0.91072500  1
  Mg  Mg10  1  0.00000000  0.50000000  0.16953100  1
  Mg  Mg11  1  0.00000000  0.50000000  0.67520500  1
  Zn  Zn0  1  0.50000000  0.00000000  0.83325400  1
  Zn  Zn1  1  0.50000000  0.50000000  0.33325400  1
  Co  Co0  1  0.50000000  0.00000000  0.33315900  1
  Co  Co1  1  0.50000000  0.50000000  0.83315900  1
loop_
_geom_bond_atom_site_label_1
_geom_bond_atom_site_label_2
_geom_bond_distance
_geom_bond_site_symmetry_2
Mg0 Mg4 2.963884 1_655
Mg0 Mg4 2.963884 1_555
Mg0 Mg11 2.973282 1_655
Mg0 Mg11 2.973282 1_555
Mg0 Mg2 2.981116 1_655
Mg0 Mg2 2.981116 1_555
Mg0 Zn1 2.997555 1_555
Mg0 Zn0 2.998205 1_555
Mg0 Mg1 3.010531 1_555
Mg0 Mg1 3.044878 1_545
Mg1 Mg4 2.963884 1_565
Mg1 Mg4 2.963884 1_665
Mg1 Mg11 2.973282 1_655
Mg1 Mg11 2.973282 1_555
Mg1 Mg3 2.981116 1_555
Mg1 Mg3 2.981116 1_655
Mg1 Zn1 2.997555 1_555
Mg1 Zn0 2.998205 1_565
Mg2 Mg5 2.840964 1_555
Mg2 Mg3 2.918065 1_545
Mg2 Zn1 2.963330 1_455
Mg2 Zn1 2.963330 1_555
Mg2 Mg4 3.050279 1_555
Mg2 Mg3 3.137344 1_555
Mg3 Mg5 2.840964 1_565
Mg3 Zn1 2.963330 1_455
Mg3 Zn1 2.963330 1_555
Mg3 Mg4 3.050279 1_565
Mg4 Zn0 2.923903 1_455
Mg4 Zn0 2.923903 1_555
Mg4 Mg8 2.948355 1_545
Mg4 Mg9 2.948355 1_555
Mg5 Mg6 2.973282 1_445
Mg5 Mg6 2.973282 1_545
Mg5 Mg7 2.973282 1_455
Mg5 Mg7 2.973282 1_555
Mg5 Mg8 3.155033 1_544
Mg5 Mg9 3.155033 1_554
Mg6 Mg8 2.981116 1_654
Mg6 Mg8 2.981116 1_554
Mg6 Zn0 2.997555 1_564
Mg6 Zn1 2.998205 1_555
Mg6 Mg7 3.010531 1_565
Mg6 Mg7 3.044878 1_555
Mg7 Mg9 2.981116 1_554
Mg7 Mg9 2.981116 1_654
Mg7 Zn0 2.997555 1_554
Mg7 Zn1 2.998205 1_555
Mg8 Mg9 2.918065 1_555
Mg8 Zn0 2.963330 1_565
Mg8 Zn0 2.963330 1_465
Mg8 Mg9 3.137344 1_565
Mg9 Zn0 2.963330 1_455
Mg9 Zn0 2.963330 1_555
Mg10 Zn1 2.923903 1_455
Mg10 Zn1 2.923903 1_555
Mg10 Mg2 2.948355 1_555
Mg10 Mg3 2.948355 1_555
Mg10 Mg6 2.963884 1_455
Mg10 Mg7 2.963884 1_455
Mg10 Mg6 2.963884 1_555
Mg10 Mg7 2.963884 1_555
Mg10 Mg5 3.028274 1_565
Mg10 Mg5 3.028274 1_555
Mg10 Mg9 3.050279 1_554
Mg10 Mg8 3.050279 1_554
Mg11 Mg8 2.840964 1_555
Mg11 Mg9 2.840964 1_555
Mg11 Mg4 3.028274 1_555
Mg11 Mg4 3.028274 1_565
Mg11 Mg3 3.155033 1_555
Mg11 Mg2 3.155033 1_555
Co0 Mg5 2.889707 1_555
Co0 Mg5 2.889707 1_655
Co0 Mg3 2.907052 1_545
Co0 Mg2 2.907052 1_655
Co0 Mg2 2.907052 1_555
Co0 Mg3 2.907052 1_645
Co0 Mg6 2.988672 1_545
Co0 Mg7 2.988672 1_555
Co0 Mg0 3.007063 1_555
Co0 Mg1 3.007063 1_545
Co0 Zn1 3.027705 1_555
Co0 Zn1 3.027705 1_545
Co1 Mg11 2.889707 1_655
Co1 Mg11 2.889707 1_555
Co1 Mg9 2.907052 1_555
Co1 Mg8 2.907052 1_655
Co1 Mg9 2.907052 1_655
Co1 Mg8 2.907052 1_555
Co1 Mg1 2.988672 1_555
Co1 Mg0 2.988672 1_555
Co1 Mg7 3.007063 1_556
Co1 Mg6 3.007063 1_556
Co1 Zn0 3.027705 1_565
Co1 Zn0 3.027705 1_555
