# generated using pymatgen
data_LiMg14SbO16
_symmetry_space_group_name_H-M   'P 1'
_cell_length_a   8.64968692
_cell_length_b   8.64968692
_cell_length_c   4.32904233
_cell_angle_alpha   90.00000000
_cell_angle_beta   90.00000000
_cell_angle_gamma   90.00000000
_symmetry_Int_Tables_number   1
_chemical_formula_structural   LiMg14SbO16
_chemical_formula_sum   'Li1 Mg14 Sb1 O16'
_cell_volume   323.88632284
_cell_formula_units_Z   1
loop_
 _symmetry_equiv_pos_site_id
 _symmetry_equiv_pos_as_xyz
  1  'x, y, z'
loop_
 _atom_site_type_symbol
 _atom_site_label
 _atom_site_symmetry_multiplicity
 _atom_site_fract_x
 _atom_site_fract_y
 _atom_site_fract_z
 _atom_site_occupancy
  Li  Li0  1  -0.00000000  0.00000000  -0.00000000  1
  Mg  Mg0  1  -0.00000000  0.50000000  -0.00000000  1
  Mg  Mg1  1  0.50000000  0.00000000  -0.00000000  1
  Mg  Mg2  1  -0.00000000  0.24123470  0.50000000  1
  Mg  Mg3  1  -0.00000000  0.75876530  0.50000000  1
  Mg  Mg4  1  0.50000000  0.23543272  0.50000000  1
  Mg  Mg5  1  0.50000000  0.76456728  0.50000000  1
  Mg  Mg6  1  0.24123470  0.00000000  0.50000000  1
  Mg  Mg7  1  0.23543272  0.50000000  0.50000000  1
  Mg  Mg8  1  0.75876530  0.00000000  0.50000000  1
  Mg  Mg9  1  0.76456728  0.50000000  0.50000000  1
  Mg  Mg10  1  0.23819700  0.23819700  -0.00000000  1
  Mg  Mg11  1  0.23819700  0.76180300  0.00000000  1
  Mg  Mg12  1  0.76180300  0.23819700  -0.00000000  1
  Mg  Mg13  1  0.76180300  0.76180300  -0.00000000  1
  Sb  Sb0  1  0.50000000  0.50000000  -0.00000000  1
  O  O0  1  0.25679726  0.00000000  -0.00000000  1
  O  O1  1  0.23857433  0.50000000  -0.00000000  1
  O  O2  1  0.74320274  0.00000000  0.00000000  1
  O  O3  1  0.76142567  0.50000000  0.00000000  1
  O  O4  1  0.25223879  0.25223879  0.50000000  1
  O  O5  1  0.25223879  0.74776121  0.50000000  1
  O  O6  1  0.74776121  0.25223879  0.50000000  1
  O  O7  1  0.74776121  0.74776121  0.50000000  1
  O  O8  1  -0.00000000  0.00000000  0.50000000  1
  O  O9  1  -0.00000000  0.50000000  0.50000000  1
  O  O10  1  0.50000000  0.00000000  0.50000000  1
  O  O11  1  0.50000000  0.50000000  0.50000000  1
  O  O12  1  -0.00000000  0.25679726  -0.00000000  1
  O  O13  1  -0.00000000  0.74320274  0.00000000  1
  O  O14  1  0.50000000  0.23857433  -0.00000000  1
  O  O15  1  0.50000000  0.76142567  -0.00000000  1
loop_
_geom_bond_atom_site_label_1
_geom_bond_atom_site_label_2
_geom_bond_distance
_geom_bond_site_symmetry_2
Li0 O8 2.164521 1_555
Li0 O8 2.164521 1_554
Li0 O2 2.221216 1_455
Li0 O13 2.221216 1_545
Li0 O12 2.221216 1_555
Li0 O0 2.221216 1_555
Mg0 O3 2.063593 1_455
Mg0 O1 2.063593 1_555
Mg0 O12 2.103628 1_555
Mg0 O13 2.103628 1_555
Mg0 O9 2.164521 1_554
Mg0 O9 2.164521 1_555
Mg1 O15 2.063593 1_545
Mg1 O14 2.063593 1_555
Mg1 O0 2.103628 1_555
Mg1 O2 2.103628 1_555
Mg1 O10 2.164521 1_555
Mg1 O10 2.164521 1_554
Mg2 O8 2.086605 1_555
Mg2 O12 2.168703 1_556
Mg2 O12 2.168703 1_555
Mg2 O6 2.183862 1_455
Mg2 O4 2.183862 1_555
Mg2 O9 2.238239 1_555
Mg3 O8 2.086605 1_565
Mg3 O13 2.168703 1_555
Mg3 O13 2.168703 1_556
Mg3 O7 2.183862 1_455
Mg3 O5 2.183862 1_555
Mg3 O9 2.238239 1_555
Mg4 O10 2.036419 1_555
Mg4 O4 2.147981 1_555
Mg4 O6 2.147981 1_555
Mg4 O14 2.164692 1_555
Mg4 O14 2.164692 1_556
Mg4 O11 2.288424 1_555
Mg5 O10 2.036419 1_565
Mg5 O5 2.147981 1_555
Mg5 O7 2.147981 1_555
Mg5 O15 2.164692 1_556
Mg5 O15 2.164692 1_555
Mg5 O11 2.288424 1_555
Mg6 O8 2.086605 1_555
Mg6 O0 2.168703 1_556
Mg6 O0 2.168703 1_555
Mg6 O5 2.183862 1_545
Mg6 O4 2.183862 1_555
Mg6 O10 2.238239 1_555
Mg7 O9 2.036419 1_555
Mg7 O4 2.147981 1_555
Mg7 O5 2.147981 1_555
Mg7 O1 2.164692 1_555
Mg7 O1 2.164692 1_556
Mg7 O11 2.288424 1_555
Mg8 O8 2.086605 1_655
Mg8 O2 2.168703 1_556
Mg8 O2 2.168703 1_555
Mg8 O7 2.183862 1_545
Mg8 O6 2.183862 1_555
Mg8 O10 2.238239 1_555
Mg9 O9 2.036419 1_655
Mg9 O6 2.147981 1_555
Mg9 O7 2.147981 1_555
Mg9 O3 2.164692 1_556
Mg9 O3 2.164692 1_555
Mg9 O11 2.288424 1_555
Mg10 O12 2.066602 1_555
Mg10 O0 2.066602 1_555
Mg10 O4 2.171326 1_554
Mg10 O4 2.171326 1_555
Mg10 O1 2.264516 1_555
Mg10 O14 2.264516 1_555
Mg11 O0 2.066602 1_565
Mg11 O13 2.066602 1_555
Mg11 O5 2.171326 1_554
Mg11 O5 2.171326 1_555
Mg11 O1 2.264516 1_555
Mg11 O15 2.264516 1_555
Mg12 O12 2.066602 1_655
Mg12 O2 2.066602 1_555
Mg12 O6 2.171326 1_554
Mg12 O6 2.171326 1_555
Mg12 O3 2.264516 1_555
Mg12 O14 2.264516 1_555
Mg13 O13 2.066602 1_655
Mg13 O2 2.066602 1_565
Mg13 O7 2.171326 1_554
Mg13 O7 2.171326 1_555
Mg13 O3 2.264516 1_555
Mg13 O15 2.264516 1_555
O1 Sb0 2.261250 1_555
O3 Sb0 2.261250 1_555
O11 Sb0 2.164521 1_556
O11 Sb0 2.164521 1_555
O14 Sb0 2.261250 1_555
O15 Sb0 2.261250 1_555
