# generated using pymatgen
data_Zr2Ga3Ni
_symmetry_space_group_name_H-M   'P 1'
_cell_length_a   5.35213063
_cell_length_b   5.35213063
_cell_length_c   6.57958407
_cell_angle_alpha   52.54911830
_cell_angle_beta   52.54911830
_cell_angle_gamma   45.82874732
_symmetry_Int_Tables_number   1
_chemical_formula_structural   Zr2Ga3Ni
_chemical_formula_sum   'Zr2 Ga3 Ni1'
_cell_volume   101.53883090
_cell_formula_units_Z   1
loop_
 _symmetry_equiv_pos_site_id
 _symmetry_equiv_pos_as_xyz
  1  'x, y, z'
loop_
 _atom_site_type_symbol
 _atom_site_label
 _atom_site_symmetry_multiplicity
 _atom_site_fract_x
 _atom_site_fract_y
 _atom_site_fract_z
 _atom_site_occupancy
  Zr  Zr0  1  0.46127200  0.46127200  0.28138700  1
  Zr  Zr1  1  0.54417700  0.54417700  0.70113700  1
  Ga  Ga0  1  0.14581600  0.14581600  0.32542700  1
  Ga  Ga1  1  0.17736500  0.17736500  0.86296500  1
  Ga  Ga2  1  0.83925300  0.83925300  0.10490100  1
  Ni  Ni0  1  0.83211800  0.83211800  0.72418300  1
loop_
_geom_bond_atom_site_label_1
_geom_bond_atom_site_label_2
_geom_bond_distance
_geom_bond_site_symmetry_2
Ga0 Ni0 2.394864 1_445
Ga0 Ga2 2.536037 1_455
Ga0 Ga2 2.536037 1_545
Ga0 Ga1 2.847056 1_554
Ga0 Zr1 2.861259 1_545
Ga0 Zr1 2.861259 1_455
Ga0 Zr0 2.904017 1_455
Ga0 Zr0 2.904017 1_545
Ga0 Zr0 2.927065 1_555
Ga0 Zr1 3.316202 1_554
Ga1 Ni0 2.380090 1_545
Ga1 Ni0 2.380090 1_455
Ga1 Ga2 2.576912 1_446
Ga1 Zr0 2.887090 1_555
Ga1 Zr0 2.952377 1_546
Ga1 Zr0 2.952377 1_456
Ga1 Zr1 3.007797 1_545
Ga1 Zr1 3.007797 1_455
Ga1 Zr1 3.021442 1_555
Ga2 Ni0 2.551955 1_554
Ga2 Zr1 2.897457 1_654
Ga2 Zr1 2.897457 1_564
Ga2 Zr1 2.963859 1_555
Ga2 Zr0 2.997134 1_655
Ga2 Zr0 2.997134 1_565
Ga2 Zr0 3.085948 1_555
Ni0 Zr1 2.884169 1_565
Ni0 Zr1 2.884169 1_655
Ni0 Zr1 2.941283 1_555
Ni0 Zr0 3.018391 1_556
Ni0 Zr0 3.090896 1_655
Ni0 Zr0 3.090896 1_565
