# generated using pymatgen
data_Ba2Y(CuO2)3
_symmetry_space_group_name_H-M   'P 1'
_cell_length_a   3.82391200
_cell_length_b   3.82391200
_cell_length_c   13.36657500
_cell_angle_alpha   90.00000000
_cell_angle_beta   90.00000000
_cell_angle_gamma   90.00000000
_symmetry_Int_Tables_number   1
_chemical_formula_structural   Ba2Y(CuO2)3
_chemical_formula_sum   'Ba2 Y1 Cu3 O6'
_cell_volume   195.45010950
_cell_formula_units_Z   1
loop_
 _symmetry_equiv_pos_site_id
 _symmetry_equiv_pos_as_xyz
  1  'x, y, z'
loop_
 _atom_site_type_symbol
 _atom_site_label
 _atom_site_symmetry_multiplicity
 _atom_site_fract_x
 _atom_site_fract_y
 _atom_site_fract_z
 _atom_site_occupancy
  Ba  Ba0  1  0.00000000  0.00000000  0.65285900  1
  Ba  Ba1  1  0.00000000  0.00000000  0.34714100  1
  Y  Y0  1  0.00000000  0.00000000  0.00000000  1
  Cu  Cu0  1  0.50000000  0.50000000  0.84663200  1
  Cu  Cu1  1  0.50000000  0.50000000  0.15336800  1
  Cu  Cu2  1  0.50000000  0.50000000  0.50000000  1
  O  O0  1  0.50000000  0.50000000  0.70902200  1
  O  O1  1  0.50000000  0.50000000  0.29097800  1
  O  O2  1  0.00000000  0.50000000  0.49986500  1
  O  O3  1  0.50000000  0.00000000  0.50013500  1
  O  O4  1  0.00000000  0.50000000  0.91912600  1
  O  O5  1  0.50000000  0.00000000  0.08087400  1
loop_
_geom_bond_atom_site_label_1
_geom_bond_atom_site_label_2
_geom_bond_distance
_geom_bond_site_symmetry_2
Ba0 O3 2.796941 1_555
Ba0 O3 2.796941 1_455
Ba0 O2 2.799576 1_555
Ba0 O2 2.799576 1_545
Ba0 O0 2.806192 1_455
Ba0 O0 2.806192 1_545
Ba0 O0 2.806192 1_555
Ba0 O0 2.806192 1_445
Ba1 O2 2.796941 1_555
Ba1 O2 2.796941 1_545
Ba1 O3 2.799576 1_555
Ba1 O3 2.799576 1_455
Ba1 O1 2.806192 1_555
Ba1 O1 2.806192 1_455
Ba1 O1 2.806192 1_445
Ba1 O1 2.806192 1_545
Cu0 O0 1.839374 1_555
Cu0 O4 2.143485 1_555
Cu0 O4 2.143485 1_655
Cu1 O1 1.839374 1_555
Cu1 O5 2.143485 1_565
Cu1 O5 2.143485 1_555
Cu2 O2 1.911957 1_655
Cu2 O3 1.911957 1_565
Cu2 O3 1.911957 1_555
Cu2 O2 1.911957 1_555
O4 Y0 2.196396 1_566
O4 Y0 2.196396 1_556
O5 Y0 2.196396 1_555
O5 Y0 2.196396 1_655
