# generated using pymatgen
data_Li2Fe2(MoO4)3
_symmetry_space_group_name_H-M   'P 1'
_cell_length_a   5.23245000
_cell_length_b   10.73514800
_cell_length_c   20.97365736
_cell_angle_alpha   59.24633170
_cell_angle_beta   90.00000000
_cell_angle_gamma   90.00000000
_symmetry_Int_Tables_number   1
_chemical_formula_structural   Li2Fe2(MoO4)3
_chemical_formula_sum   'Li8 Fe8 Mo12 O48'
_cell_volume   1012.44009952
_cell_formula_units_Z   4
loop_
 _symmetry_equiv_pos_site_id
 _symmetry_equiv_pos_as_xyz
  1  'x, y, z'
loop_
 _atom_site_type_symbol
 _atom_site_label
 _atom_site_symmetry_multiplicity
 _atom_site_fract_x
 _atom_site_fract_y
 _atom_site_fract_z
 _atom_site_occupancy
  Li  Li0  1  0.99491100  0.04928300  0.20062300  1
  Li  Li1  1  0.49689800  0.95196800  0.30083500  1
  Li  Li2  1  0.50310200  0.95196800  0.80083500  1
  Li  Li3  1  0.00508900  0.04928300  0.70062300  1
  Li  Li4  1  0.50261700  0.95239300  0.47131900  1
  Li  Li5  1  0.49738300  0.95239300  0.97131900  1
  Li  Li6  1  0.85569500  0.49998600  0.24916100  1
  Li  Li7  1  0.14430500  0.49998600  0.74916100  1
  Fe  Fe0  1  0.00139700  0.04398400  0.02647100  1
  Fe  Fe1  1  0.00151600  0.39745800  0.52791800  1
  Fe  Fe2  1  0.50117700  0.60534300  0.97243300  1
  Fe  Fe3  1  0.99860300  0.04398400  0.52647100  1
  Fe  Fe4  1  0.49882300  0.60534300  0.47243300  1
  Fe  Fe5  1  0.99848400  0.39745800  0.02791800  1
  Fe  Fe6  1  0.35223700  0.49846100  0.25038500  1
  Fe  Fe7  1  0.64776300  0.49846100  0.75038500  1
  Mo  Mo0  1  0.02742100  0.12909800  0.34355200  1
  Mo  Mo1  1  0.52779500  0.87168600  0.15613000  1
  Mo  Mo2  1  0.46876900  0.31503600  0.65676100  1
  Mo  Mo3  1  0.96971300  0.68406500  0.84321200  1
  Mo  Mo4  1  0.47220500  0.87168600  0.65613000  1
  Mo  Mo5  1  0.97257900  0.12909800  0.84355200  1
  Mo  Mo6  1  0.03028700  0.68406500  0.34321200  1
  Mo  Mo7  1  0.53123100  0.31503600  0.15676100  1
  Mo  Mo8  1  0.53126600  0.30674800  0.44194100  1
  Mo  Mo9  1  0.03114000  0.69274600  0.05833900  1
  Mo  Mo10  1  0.96886000  0.69274600  0.55833900  1
  Mo  Mo11  1  0.46873400  0.30674800  0.94194100  1
  O  O0  1  0.10958100  0.32081000  0.29485200  1
  O  O1  1  0.59834700  0.67926600  0.20505700  1
  O  O2  1  0.39823900  0.40986600  0.70458200  1
  O  O3  1  0.89320600  0.59053800  0.79532700  1
  O  O4  1  0.40165300  0.67926600  0.70505700  1
  O  O5  1  0.89041900  0.32081000  0.79485200  1
  O  O6  1  0.10679400  0.59053800  0.29532700  1
  O  O7  1  0.60176100  0.40986600  0.20458200  1
  O  O8  1  0.83258900  0.08972500  0.28610500  1
  O  O9  1  0.33448700  0.91080800  0.21328300  1
  O  O10  1  0.66594800  0.16392600  0.71206900  1
  O  O11  1  0.16562400  0.83581800  0.78712000  1
  O  O12  1  0.66551300  0.91080800  0.71328300  1
  O  O13  1  0.16741100  0.08972500  0.78610500  1
  O  O14  1  0.83437600  0.83581800  0.28712000  1
  O  O15  1  0.33405200  0.16392600  0.21206900  1
  O  O16  1  0.81300700  0.24724200  0.50320900  1
  O  O17  1  0.30749600  0.75027100  0.99779000  1
  O  O18  1  0.69250400  0.75027100  0.49779000  1
  O  O19  1  0.18699300  0.24724200  0.00320900  1
  O  O20  1  0.83834800  0.08675900  0.42552500  1
  O  O21  1  0.33188700  0.91577200  0.07647800  1
  O  O22  1  0.66302300  0.43396600  0.57452200  1
  O  O23  1  0.16392200  0.56447200  0.92546400  1
  O  O24  1  0.66811300  0.91577200  0.57647800  1
  O  O25  1  0.16165200  0.08675900  0.92552500  1
  O  O26  1  0.83607800  0.56447200  0.42546400  1
  O  O27  1  0.33697700  0.43396600  0.07452200  1
  O  O28  1  0.60490900  0.40497100  0.34527400  1
  O  O29  1  0.11212000  0.59518900  0.15474000  1
  O  O30  1  0.88788000  0.59518900  0.65474000  1
  O  O31  1  0.39509100  0.40497100  0.84527400  1
  O  O32  1  0.33486000  0.42246700  0.46214100  1
  O  O33  1  0.83355800  0.57640900  0.03808300  1
  O  O34  1  0.16198400  0.84615000  0.53856900  1
  O  O35  1  0.66708000  0.15576000  0.96240400  1
  O  O36  1  0.16644200  0.57640900  0.53808300  1
  O  O37  1  0.66514000  0.42246700  0.96214100  1
  O  O38  1  0.33292000  0.15576000  0.46240400  1
  O  O39  1  0.83801600  0.84615000  0.03856900  1
  O  O40  1  0.30219800  0.01452700  0.37281400  1
  O  O41  1  0.81126300  0.98773600  0.12554500  1
  O  O42  1  0.18716200  0.26078500  0.62574300  1
  O  O43  1  0.68873100  0.73851000  0.87422500  1
  O  O44  1  0.18873700  0.98773600  0.62554500  1
  O  O45  1  0.69780200  0.01452700  0.87281400  1
  O  O46  1  0.31126900  0.73851000  0.37422500  1
  O  O47  1  0.81283800  0.26078500  0.12574300  1
loop_
_geom_bond_atom_site_label_1
_geom_bond_atom_site_label_2
_geom_bond_distance
_geom_bond_site_symmetry_2
Li0 O47 2.209644 1_555
Li0 O41 2.214385 1_545
Li0 O8 2.218174 1_555
Li0 O14 2.235273 1_545
Li0 O15 2.241298 1_655
Li0 O9 2.243597 1_645
Li1 O40 2.191995 1_565
Li1 O8 2.213689 1_565
Li1 O46 2.226308 1_555
Li1 O15 2.244378 1_565
Li1 O9 2.262554 1_555
Li1 O14 2.263286 1_555
Li2 O45 2.191995 1_565
Li2 O13 2.213689 1_565
Li2 O43 2.226308 1_555
Li2 O10 2.244378 1_565
Li2 O12 2.262554 1_555
Li2 O11 2.263286 1_555
Li3 O42 2.209644 1_555
Li3 O44 2.214385 1_545
Li3 O13 2.218174 1_555
Li3 O11 2.235273 1_545
Li3 O10 2.241298 1_455
Li3 O12 2.243597 1_445
Li4 O40 2.098500 1_565
Li4 O20 2.161538 1_565
Li4 O18 2.184376 1_555
Li4 O34 2.195862 1_555
Li4 O24 2.209569 1_555
Li4 O38 2.274238 1_565
Li5 O45 2.098500 1_565
Li5 O25 2.161538 1_565
Li5 O17 2.184376 1_555
Li5 O39 2.195862 1_556
Li5 O21 2.209569 1_556
Li5 O35 2.274238 1_565
Li6 O0 2.120797 1_655
Li6 O7 2.121480 1_555
Li6 O1 2.133604 1_555
Li6 O6 2.138071 1_655
Li6 O29 2.167180 1_655
Li6 O28 2.173275 1_555
Li7 O5 2.120797 1_455
Li7 O2 2.121480 1_555
Li7 O4 2.133604 1_555
Li7 O3 2.138071 1_455
Li7 O30 2.167180 1_455
Li7 O31 2.173275 1_555
Fe0 O41 2.094999 1_445
Fe0 O25 2.098160 1_554
Fe0 O21 2.123320 1_545
Fe0 O35 2.157891 1_454
Fe0 O39 2.180487 1_445
Fe0 O19 2.203070 1_555
Fe1 O42 2.056037 1_555
Fe1 O22 2.153547 1_455
Fe1 O32 2.153786 1_555
Fe1 O26 2.154360 1_455
Fe1 O16 2.167166 1_455
Fe1 O36 2.213486 1_555
Fe2 O43 2.058644 1_555
Fe2 O17 2.139316 1_555
Fe2 O33 2.140023 1_556
Fe2 O27 2.163070 1_556
Fe2 O23 2.172336 1_555
Fe2 O37 2.251708 1_555
Fe3 O44 2.094999 1_645
Fe3 O20 2.098160 1_555
Fe3 O24 2.123320 1_545
Fe3 O38 2.157891 1_655
Fe3 O34 2.180487 1_645
Fe3 O16 2.203070 1_555
Fe4 O46 2.058644 1_555
Fe4 O18 2.139316 1_555
Fe4 O36 2.140023 1_555
Fe4 O22 2.163070 1_555
Fe4 O26 2.172336 1_555
Fe4 O32 2.251708 1_555
Fe5 O47 2.056037 1_555
Fe5 O27 2.153547 1_655
Fe5 O37 2.153786 1_554
Fe5 O23 2.154360 1_654
Fe5 O19 2.167166 1_655
Fe5 O33 2.213486 1_555
Fe6 O0 2.073637 1_555
Fe6 O1 2.107689 1_555
Fe6 O7 2.113400 1_555
Fe6 O6 2.113707 1_555
Fe6 O29 2.133218 1_555
Fe6 O28 2.161771 1_555
Fe7 O5 2.073637 1_555
Fe7 O4 2.107689 1_555
Fe7 O2 2.113400 1_555
Fe7 O3 2.113707 1_555
Fe7 O30 2.133218 1_555
Fe7 O31 2.161771 1_555
Mo0 O40 1.784537 1_555
Mo0 O8 1.786191 1_455
Mo0 O0 1.820400 1_555
Mo0 O20 1.828130 1_455
Mo1 O9 1.775169 1_555
Mo1 O21 1.804735 1_555
Mo1 O1 1.813400 1_555
Mo1 O41 1.829269 1_555
Mo2 O10 1.765537 1_555
Mo2 O2 1.795199 1_555
Mo2 O42 1.822382 1_555
Mo2 O22 1.840142 1_555
Mo3 O11 1.768828 1_655
Mo3 O3 1.791157 1_555
Mo3 O43 1.820733 1_555
Mo3 O23 1.841710 1_655
Mo4 O12 1.775169 1_555
Mo4 O24 1.804735 1_555
Mo4 O4 1.813400 1_555
Mo4 O44 1.829269 1_555
Mo5 O45 1.784537 1_555
Mo5 O13 1.786191 1_655
Mo5 O5 1.820400 1_555
Mo5 O25 1.828130 1_655
Mo6 O14 1.768828 1_455
Mo6 O6 1.791157 1_555
Mo6 O46 1.820733 1_555
Mo6 O26 1.841710 1_455
Mo7 O15 1.765537 1_555
Mo7 O7 1.795199 1_555
Mo7 O47 1.822382 1_555
Mo7 O27 1.840142 1_555
Mo8 O38 1.782444 1_555
Mo8 O28 1.784535 1_555
Mo8 O32 1.821289 1_555
Mo8 O16 1.842032 1_555
Mo9 O29 1.788521 1_555
Mo9 O39 1.790731 1_455
Mo9 O17 1.811912 1_554
Mo9 O33 1.830758 1_455
Mo10 O30 1.788521 1_555
Mo10 O34 1.790731 1_655
Mo10 O18 1.811912 1_555
Mo10 O36 1.830758 1_655
Mo11 O35 1.782444 1_555
Mo11 O31 1.784535 1_555
Mo11 O37 1.821289 1_555
Mo11 O19 1.842032 1_556
