# generated using pymatgen
data_LiH4SNO5
_symmetry_space_group_name_H-M   'P 1'
_cell_length_a   6.81432400
_cell_length_b   7.49196600
_cell_length_c   18.42855500
_cell_angle_alpha   90.00000000
_cell_angle_beta   90.00000000
_cell_angle_gamma   90.00000000
_symmetry_Int_Tables_number   1
_chemical_formula_structural   LiH4SNO5
_chemical_formula_sum   'Li8 H32 S8 N8 O40'
_cell_volume   940.82718985
_cell_formula_units_Z   8
loop_
 _symmetry_equiv_pos_site_id
 _symmetry_equiv_pos_as_xyz
  1  'x, y, z'
loop_
 _atom_site_type_symbol
 _atom_site_label
 _atom_site_symmetry_multiplicity
 _atom_site_fract_x
 _atom_site_fract_y
 _atom_site_fract_z
 _atom_site_occupancy
  Li  Li0  1  0.91216600  0.74754000  0.76231400  1
  Li  Li1  1  0.08783400  0.75246000  0.26231400  1
  Li  Li2  1  0.58783400  0.24754000  0.23768600  1
  Li  Li3  1  0.41216600  0.25246000  0.73768600  1
  Li  Li4  1  0.08783400  0.25246000  0.23768600  1
  Li  Li5  1  0.91216600  0.24754000  0.73768600  1
  Li  Li6  1  0.41216600  0.75246000  0.76231400  1
  Li  Li7  1  0.58783400  0.74754000  0.26231400  1
  H  H0  1  0.82535400  0.97573300  0.90393300  1
  H  H1  1  0.17464600  0.52426700  0.40393300  1
  H  H2  1  0.67464600  0.47573300  0.09606700  1
  H  H3  1  0.32535400  0.02426700  0.59606700  1
  H  H4  1  0.17464600  0.02426700  0.09606700  1
  H  H5  1  0.82535400  0.47573300  0.59606700  1
  H  H6  1  0.32535400  0.52426700  0.90393300  1
  H  H7  1  0.67464600  0.97573300  0.40393300  1
  H  H8  1  0.65857900  0.12951400  0.93359400  1
  H  H9  1  0.34142100  0.37048600  0.43359400  1
  H  H10  1  0.84142100  0.62951400  0.06640600  1
  H  H11  1  0.15857900  0.87048600  0.56640600  1
  H  H12  1  0.34142100  0.87048600  0.06640600  1
  H  H13  1  0.65857900  0.62951400  0.56640600  1
  H  H14  1  0.15857900  0.37048600  0.93359400  1
  H  H15  1  0.84142100  0.12951400  0.43359400  1
  H  H16  1  0.77286900  0.99489800  0.99520200  1
  H  H17  1  0.22713100  0.50510200  0.49520200  1
  H  H18  1  0.72713100  0.49489800  0.00479800  1
  H  H19  1  0.27286900  0.00510200  0.50479800  1
  H  H20  1  0.22713100  0.00510200  0.00479800  1
  H  H21  1  0.77286900  0.49489800  0.50479800  1
  H  H22  1  0.27286900  0.50510200  0.99520200  1
  H  H23  1  0.72713100  0.99489800  0.49520200  1
  H  H24  1  0.48113600  0.89640100  0.89836100  1
  H  H25  1  0.51886400  0.60359900  0.39836100  1
  H  H26  1  0.01886400  0.39640100  0.10163900  1
  H  H27  1  0.98113600  0.10359900  0.60163900  1
  H  H28  1  0.51886400  0.10359900  0.10163900  1
  H  H29  1  0.48113600  0.39640100  0.60163900  1
  H  H30  1  0.98113600  0.60359900  0.89836100  1
  H  H31  1  0.01886400  0.89640100  0.39836100  1
  S  S0  1  0.65832000  0.94976800  0.65563200  1
  S  S1  1  0.34168000  0.55023200  0.15563200  1
  S  S2  1  0.84168000  0.44976800  0.34436800  1
  S  S3  1  0.15832000  0.05023200  0.84436800  1
  S  S4  1  0.34168000  0.05023200  0.34436800  1
  S  S5  1  0.65832000  0.44976800  0.84436800  1
  S  S6  1  0.15832000  0.55023200  0.65563200  1
  S  S7  1  0.84168000  0.94976800  0.15563200  1
  N  N0  1  0.71568500  0.00209200  0.94286100  1
  N  N1  1  0.28431500  0.49790800  0.44286100  1
  N  N2  1  0.78431500  0.50209200  0.05713900  1
  N  N3  1  0.21568500  0.99790800  0.55713900  1
  N  N4  1  0.28431500  0.99790800  0.05713900  1
  N  N5  1  0.71568500  0.50209200  0.55713900  1
  N  N6  1  0.21568500  0.49790800  0.94286100  1
  N  N7  1  0.78431500  0.00209200  0.44286100  1
  O  O0  1  0.83872900  0.56110100  0.83453800  1
  O  O1  1  0.16127100  0.93889900  0.33453800  1
  O  O2  1  0.66127100  0.06110100  0.16546200  1
  O  O3  1  0.33872900  0.43889900  0.66546200  1
  O  O4  1  0.16127100  0.43889900  0.16546200  1
  O  O5  1  0.83872900  0.06110100  0.66546200  1
  O  O6  1  0.33872900  0.93889900  0.83453800  1
  O  O7  1  0.66127100  0.56110100  0.33453800  1
  O  O8  1  0.97921400  0.94153000  0.83053000  1
  O  O9  1  0.02078600  0.55847000  0.33053000  1
  O  O10  1  0.52078600  0.44153000  0.16947000  1
  O  O11  1  0.47921400  0.05847000  0.66947000  1
  O  O12  1  0.02078600  0.05847000  0.16947000  1
  O  O13  1  0.97921400  0.44153000  0.66947000  1
  O  O14  1  0.47921400  0.55847000  0.83053000  1
  O  O15  1  0.52078600  0.94153000  0.33053000  1
  O  O16  1  0.66478700  0.80000300  0.70927700  1
  O  O17  1  0.33521300  0.69999700  0.20927700  1
  O  O18  1  0.83521300  0.30000300  0.29072300  1
  O  O19  1  0.16478700  0.19999700  0.79072300  1
  O  O20  1  0.33521300  0.19999700  0.29072300  1
  O  O21  1  0.66478700  0.30000300  0.79072300  1
  O  O22  1  0.16478700  0.69999700  0.70927700  1
  O  O23  1  0.83521300  0.80000300  0.20927700  1
  O  O24  1  0.65057100  0.87791400  0.58036600  1
  O  O25  1  0.34942900  0.62208600  0.08036600  1
  O  O26  1  0.84942900  0.37791400  0.41963400  1
  O  O27  1  0.15057100  0.12208600  0.91963400  1
  O  O28  1  0.34942900  0.12208600  0.41963400  1
  O  O29  1  0.65057100  0.37791400  0.91963400  1
  O  O30  1  0.15057100  0.62208600  0.58036600  1
  O  O31  1  0.84942900  0.87791400  0.08036600  1
  O  O32  1  0.57140100  0.86572400  0.94062800  1
  O  O33  1  0.42859900  0.63427600  0.44062800  1
  O  O34  1  0.92859900  0.36572400  0.05937200  1
  O  O35  1  0.07140100  0.13427600  0.55937200  1
  O  O36  1  0.42859900  0.13427600  0.05937200  1
  O  O37  1  0.57140100  0.36572400  0.55937200  1
  O  O38  1  0.07140100  0.63427600  0.94062800  1
  O  O39  1  0.92859900  0.86572400  0.44062800  1
loop_
_geom_bond_atom_site_label_1
_geom_bond_atom_site_label_2
_geom_bond_distance
_geom_bond_site_symmetry_2
Li0 O8 1.975190 1_555
Li0 O16 1.987824 1_555
Li0 O0 1.993233 1_555
Li0 O22 2.011351 1_655
Li1 O9 1.975190 1_555
Li1 O17 1.987824 1_555
Li1 O1 1.993233 1_555
Li1 O23 2.011351 1_455
Li2 O10 1.975190 1_555
Li2 O18 1.987824 1_555
Li2 O2 1.993233 1_555
Li2 O20 2.011351 1_555
Li3 O11 1.975190 1_555
Li3 O19 1.987824 1_555
Li3 O3 1.993233 1_555
Li3 O21 2.011351 1_555
Li4 O12 1.975190 1_555
Li4 O20 1.987824 1_555
Li4 O4 1.993233 1_555
Li4 O18 2.011351 1_455
Li5 O13 1.975190 1_555
Li5 O21 1.987824 1_555
Li5 O5 1.993233 1_555
Li5 O19 2.011351 1_655
Li6 O14 1.975190 1_555
Li6 O22 1.987824 1_555
Li6 O6 1.993233 1_555
Li6 O16 2.011351 1_555
Li7 O15 1.975190 1_555
Li7 O23 1.987824 1_555
Li7 O7 1.993233 1_555
Li7 O17 2.011351 1_555
H0 N0 1.054576 1_565
H0 O8 1.730532 1_555
H1 N1 1.054576 1_555
H1 O9 1.730532 1_555
H2 N2 1.054576 1_555
H2 O10 1.730532 1_555
H3 N3 1.054576 1_545
H3 O11 1.730532 1_555
H4 N4 1.054576 1_545
H4 O12 1.730532 1_555
H5 N5 1.054576 1_555
H5 O13 1.730532 1_555
H6 N6 1.054576 1_555
H6 O14 1.730532 1_555
H7 N7 1.054576 1_565
H7 O15 1.730532 1_555
H8 N0 1.044956 1_555
H9 N1 1.044956 1_555
H10 N2 1.044956 1_555
H11 N3 1.044956 1_555
H12 N4 1.044956 1_555
H13 N5 1.044956 1_555
H14 N6 1.044956 1_555
H15 N7 1.044956 1_555
H16 N0 1.041701 1_565
H17 N1 1.041701 1_555
H18 N2 1.041701 1_555
H19 N3 1.041701 1_545
H20 N4 1.041701 1_545
H21 N5 1.041701 1_555
H22 N6 1.041701 1_555
H23 N7 1.041701 1_565
H24 O32 1.018764 1_555
H24 O6 1.557700 1_555
H25 O33 1.018764 1_555
H25 O7 1.557700 1_555
H26 O34 1.018764 1_455
H26 O4 1.557700 1_555
H27 O35 1.018764 1_655
H27 O5 1.557700 1_555
H28 O36 1.018764 1_555
H28 O2 1.557700 1_555
H29 O37 1.018764 1_555
H29 O3 1.557700 1_555
H30 O38 1.018764 1_655
H30 O0 1.557700 1_555
H31 O39 1.018764 1_455
H31 O1 1.557700 1_555
N0 O32 1.418510 1_545
N1 O33 1.418510 1_555
N2 O34 1.418510 1_555
N3 O35 1.418510 1_565
N4 O36 1.418510 1_565
N5 O37 1.418510 1_555
N6 O38 1.418510 1_555
N7 O39 1.418510 1_545
O0 S5 1.496624 1_555
O1 S4 1.496624 1_565
O2 S7 1.496624 1_545
O3 S6 1.496624 1_555
O4 S1 1.496624 1_555
O5 S0 1.496624 1_545
O6 S3 1.496624 1_565
O7 S2 1.496624 1_555
O8 S3 1.489246 1_665
O9 S2 1.489246 1_455
O10 S1 1.489246 1_555
O11 S0 1.489246 1_545
O12 S7 1.489246 1_445
O13 S6 1.489246 1_655
O14 S5 1.489246 1_555
O15 S4 1.489246 1_565
O16 S0 1.496072 1_555
O17 S1 1.496072 1_555
O18 S2 1.496072 1_555
O19 S3 1.496072 1_555
O20 S4 1.496072 1_555
O21 S5 1.496072 1_555
O22 S6 1.496072 1_555
O23 S7 1.496072 1_555
O24 S0 1.488783 1_555
O25 S1 1.488783 1_555
O26 S2 1.488783 1_555
O27 S3 1.488783 1_555
O28 S4 1.488783 1_555
O29 S5 1.488783 1_555
O30 S6 1.488783 1_555
O31 S7 1.488783 1_555
