# generated using pymatgen
data_Eu2ZnP2
_symmetry_space_group_name_H-M   'P 1'
_cell_length_a   8.16117344
_cell_length_b   8.16117344
_cell_length_c   7.24462300
_cell_angle_alpha   90.00000000
_cell_angle_beta   90.00000000
_cell_angle_gamma   150.56113251
_symmetry_Int_Tables_number   1
_chemical_formula_structural   Eu2ZnP2
_chemical_formula_sum   'Eu4 Zn2 P4'
_cell_volume   237.15909956
_cell_formula_units_Z   2
loop_
 _symmetry_equiv_pos_site_id
 _symmetry_equiv_pos_as_xyz
  1  'x, y, z'
loop_
 _atom_site_type_symbol
 _atom_site_label
 _atom_site_symmetry_multiplicity
 _atom_site_fract_x
 _atom_site_fract_y
 _atom_site_fract_z
 _atom_site_occupancy
  Eu  Eu0  1  0.70552100  0.29447900  0.46657100  1
  Eu  Eu1  1  0.29447900  0.70552100  0.96657100  1
  Eu  Eu2  1  0.53562400  0.46437600  0.79845100  1
  Eu  Eu3  1  0.46437600  0.53562400  0.29845100  1
  Zn  Zn0  1  0.90553600  0.09446400  0.64987100  1
  Zn  Zn1  1  0.09446400  0.90553600  0.14987100  1
  P  P0  1  0.93894100  0.06105900  0.00075300  1
  P  P1  1  0.06105900  0.93894100  0.50075300  1
  P  P2  1  0.66787500  0.33212500  0.07104300  1
  P  P3  1  0.33212500  0.66787500  0.57104300  1
loop_
_geom_bond_atom_site_label_1
_geom_bond_atom_site_label_2
_geom_bond_distance
_geom_bond_site_symmetry_2
Eu0 P2 2.926433 1_555
Eu0 P3 2.977826 1_655
Eu0 P3 2.977826 1_545
Eu0 P1 3.092301 1_655
Eu0 P1 3.092301 1_545
Eu1 P3 2.926433 1_555
Eu1 P2 2.977826 1_456
Eu1 P2 2.977826 1_566
Eu1 P0 3.092301 1_566
Eu1 P0 3.092301 1_456
Eu2 P2 2.873824 1_556
Eu2 P0 2.962697 1_566
Eu2 P0 2.962697 1_456
Eu2 P1 3.018710 1_655
Eu2 P1 3.018710 1_545
Eu3 P3 2.873824 1_555
Eu3 P1 2.962697 1_655
Eu3 P1 2.962697 1_545
Eu3 P0 3.018710 1_565
Eu3 P0 3.018710 1_455
P0 Zn0 2.596133 1_554
P0 Zn1 2.682353 1_645
P1 Zn1 2.596133 1_555
P1 Zn0 2.682353 1_465
P2 Zn1 2.443195 1_655
P2 Zn1 2.443195 1_545
P3 Zn0 2.443195 1_565
P3 Zn0 2.443195 1_455
