# generated using pymatgen
data_Ti3(HO2)2
_symmetry_space_group_name_H-M   'P 1'
_cell_length_a   3.04276493
_cell_length_b   3.04276493
_cell_length_c   20.41933200
_cell_angle_alpha   90.00000000
_cell_angle_beta   90.00000000
_cell_angle_gamma   120.00002030
_symmetry_Int_Tables_number   1
_chemical_formula_structural   Ti3(HO2)2
_chemical_formula_sum   'Ti6 H4 O8'
_cell_volume   163.72269260
_cell_formula_units_Z   2
loop_
 _symmetry_equiv_pos_site_id
 _symmetry_equiv_pos_as_xyz
  1  'x, y, z'
loop_
 _atom_site_type_symbol
 _atom_site_label
 _atom_site_symmetry_multiplicity
 _atom_site_fract_x
 _atom_site_fract_y
 _atom_site_fract_z
 _atom_site_occupancy
  Ti  Ti0  1  0.00000000  0.00000000  0.86800000  1
  Ti  Ti1  1  0.00000000  0.00000000  0.13200000  1
  Ti  Ti2  1  0.66666700  0.33333300  0.63186500  1
  Ti  Ti3  1  0.33333300  0.66666700  0.36813500  1
  Ti  Ti4  1  0.33333300  0.66666700  0.74996300  1
  Ti  Ti5  1  0.66666700  0.33333300  0.25003700  1
  H  H0  1  0.33333300  0.66666700  0.52178800  1
  H  H1  1  0.66666700  0.33333300  0.47821200  1
  H  H2  1  0.33333300  0.66666700  0.97823300  1
  H  H3  1  0.66666700  0.33333300  0.02176700  1
  O  O0  1  0.33333300  0.66666700  0.57012100  1
  O  O1  1  0.66666700  0.33333300  0.42987900  1
  O  O2  1  0.00000000  0.00000000  0.69258200  1
  O  O3  1  0.00000000  0.00000000  0.30741800  1
  O  O4  1  0.66666700  0.33333300  0.80742000  1
  O  O5  1  0.33333300  0.66666700  0.19258000  1
  O  O6  1  0.33333300  0.66666700  0.92987800  1
  O  O7  1  0.66666700  0.33333300  0.07012200  1
loop_
_geom_bond_atom_site_label_1
_geom_bond_atom_site_label_2
_geom_bond_distance
_geom_bond_site_symmetry_2
H0 O0 0.986928 1_555
H1 O1 0.986928 1_555
H2 O6 0.987377 1_555
H3 O7 0.987377 1_555
O0 Ti2 2.162331 1_455
O0 Ti2 2.162331 1_565
O0 Ti2 2.162336 1_555
O1 Ti3 2.162331 1_545
O1 Ti3 2.162331 1_655
O1 Ti3 2.162336 1_555
O2 Ti4 2.111628 1_545
O2 Ti4 2.111630 1_555
O2 Ti4 2.111630 1_445
O2 Ti2 2.150172 1_455
O2 Ti2 2.150174 1_555
O2 Ti2 2.150174 1_445
O3 Ti5 2.111628 1_455
O3 Ti5 2.111630 1_445
O3 Ti5 2.111630 1_555
O3 Ti3 2.150172 1_545
O3 Ti3 2.150174 1_555
O3 Ti3 2.150174 1_445
O4 Ti4 2.112489 1_545
O4 Ti4 2.112489 1_655
O4 Ti4 2.112494 1_555
O4 Ti0 2.148560 1_655
O4 Ti0 2.148562 1_665
O4 Ti0 2.148562 1_555
O5 Ti5 2.112489 1_455
O5 Ti5 2.112489 1_565
O5 Ti5 2.112494 1_555
O5 Ti1 2.148560 1_565
O5 Ti1 2.148562 1_665
O5 Ti1 2.148562 1_555
O6 Ti0 2.163928 1_565
O6 Ti0 2.163930 1_665
O6 Ti0 2.163930 1_555
O7 Ti1 2.163928 1_655
O7 Ti1 2.163930 1_665
O7 Ti1 2.163930 1_555
