# generated using pymatgen
data_Sr2TmGaCu2O7
_symmetry_space_group_name_H-M   'P 1'
_cell_length_a   12.19093900
_cell_length_b   12.19093900
_cell_length_c   12.19093900
_cell_angle_alpha   154.47984756
_cell_angle_beta   153.95461448
_cell_angle_gamma   36.78575036
_symmetry_Int_Tables_number   1
_chemical_formula_structural   Sr2TmGaCu2O7
_chemical_formula_sum   'Sr4 Tm2 Ga2 Cu4 O14'
_cell_volume   342.26775631
_cell_formula_units_Z   2
loop_
 _symmetry_equiv_pos_site_id
 _symmetry_equiv_pos_as_xyz
  1  'x, y, z'
loop_
 _atom_site_type_symbol
 _atom_site_label
 _atom_site_symmetry_multiplicity
 _atom_site_fract_x
 _atom_site_fract_y
 _atom_site_fract_z
 _atom_site_occupancy
  Sr  Sr0  1  0.63479300  0.65876200  0.99229700  1
  Sr  Sr1  1  0.36520700  0.35750400  0.02396900  1
  Sr  Sr2  1  0.16646600  0.15876200  0.02396900  1
  Sr  Sr3  1  0.83353400  0.85750400  0.99229700  1
  Tm  Tm0  1  0.00000000  0.00692500  0.00692500  1
  Tm  Tm1  1  0.50000000  0.50692500  0.00692500  1
  Ga  Ga0  1  0.18211900  0.80034400  0.48246300  1
  Ga  Ga1  1  0.81788100  0.30034400  0.61822500  1
  Cu  Cu0  1  0.57124600  0.07758700  0.50786700  1
  Cu  Cu1  1  0.42875400  0.93662200  0.50634100  1
  Cu  Cu2  1  0.06972000  0.57758700  0.50634100  1
  Cu  Cu3  1  0.93028000  0.43662200  0.50786700  1
  O  O0  1  0.13457500  0.15425900  0.78883400  1
  O  O1  1  0.86542500  0.65425900  0.01968400  1
  O  O2  1  0.63128700  0.16330100  0.44241500  1
  O  O3  1  0.36871300  0.81112800  0.53201300  1
  O  O4  1  0.22088500  0.66330100  0.53201300  1
  O  O5  1  0.77911500  0.31112800  0.44241500  1
  O  O6  1  0.31095200  0.31827400  0.50975200  1
  O  O7  1  0.68904800  0.19880000  0.00732100  1
  O  O8  1  0.30852100  0.81827400  0.00732100  1
  O  O9  1  0.69147900  0.69880000  0.50975200  1
  O  O10  1  0.81190100  0.81885700  0.50553900  1
  O  O11  1  0.18809900  0.69363800  0.00695600  1
  O  O12  1  0.81331800  0.31885700  0.00695600  1
  O  O13  1  0.18668200  0.19363800  0.50553900  1
loop_
_geom_bond_atom_site_label_1
_geom_bond_atom_site_label_2
_geom_bond_distance
_geom_bond_site_symmetry_2
Ga0 O4 1.850198 1_555
Ga0 O3 1.850210 1_555
Ga0 O1 1.909543 1_455
Ga0 O0 1.923720 1_565
Ga1 O2 1.850200 1_555
Ga1 O5 1.850210 1_555
Ga1 O0 1.909543 1_655
Ga1 O1 1.923720 1_556
Cu0 O12 1.928493 1_556
Cu0 O10 1.929404 1_545
Cu0 O8 1.941701 1_545
Cu0 O6 1.942925 1_555
Cu0 O2 2.458403 1_555
Cu1 O13 1.928488 1_565
Cu1 O11 1.929403 1_555
Cu1 O9 1.941704 1_555
Cu1 O7 1.942921 1_566
Cu1 O3 2.458403 1_555
Cu2 O10 1.928493 1_455
Cu2 O12 1.929404 1_455
Cu2 O6 1.941697 1_555
Cu2 O8 1.942921 1_556
Cu2 O4 2.458402 1_555
Cu3 O11 1.928492 1_656
Cu3 O13 1.929407 1_655
Cu3 O7 1.941701 1_555
Cu3 O9 1.942917 1_555
Cu3 O5 2.458402 1_555
O0 Sr2 2.473603 1_556
O0 Sr1 2.473613 1_556
O1 Sr3 2.473604 1_554
O1 Sr0 2.473613 1_554
O2 Sr2 2.487294 1_555
O2 Sr0 2.651108 1_544
O2 Sr0 2.870830 1_555
O2 Sr2 3.138040 1_656
O3 Sr3 2.487294 1_555
O3 Sr1 2.651103 1_555
O3 Sr1 2.870830 1_566
O3 Sr3 3.138035 1_454
O4 Sr0 2.487305 1_555
O4 Sr2 2.651108 1_555
O4 Sr2 2.870824 1_566
O4 Sr0 3.138034 1_454
O5 Sr1 2.487299 1_555
O5 Sr3 2.651098 1_544
O5 Sr3 2.870830 1_555
O5 Sr1 3.138034 1_656
O6 Tm1 2.359601 1_556
O6 Tm0 2.377213 1_555
O6 Sr0 2.804803 1_555
O6 Sr2 2.813012 1_555
O7 Tm1 2.359594 1_555
O7 Tm0 2.377206 1_655
O7 Sr1 2.804811 1_555
O7 Sr3 2.813018 1_544
O8 Tm0 2.359598 1_565
O8 Tm1 2.377216 1_555
O8 Sr2 2.804806 1_565
O8 Sr0 2.813006 1_554
O9 Tm0 2.359594 1_666
O9 Tm1 2.377206 1_555
O9 Sr3 2.804820 1_555
O9 Sr1 2.813012 1_555
O10 Tm1 2.403527 1_555
O10 Tm0 2.412048 1_666
O10 Sr0 2.837998 1_554
O10 Sr2 2.851614 1_666
O11 Tm1 2.403527 1_555
O11 Tm0 2.412048 1_565
O11 Sr1 2.837998 1_555
O11 Sr3 2.851616 1_454
O12 Tm0 2.403527 1_655
O12 Tm1 2.412048 1_555
O12 Sr2 2.838009 1_655
O12 Sr0 2.851605 1_554
O13 Tm0 2.403527 1_555
O13 Tm1 2.412048 1_556
O13 Sr3 2.838006 1_444
O13 Sr1 2.851605 1_556
