# generated using pymatgen
data_SrZnSb2
_symmetry_space_group_name_H-M   'P 1'
_cell_length_a   4.40386706
_cell_length_b   4.44986822
_cell_length_c   23.05014225
_cell_angle_alpha   90.00000000
_cell_angle_beta   90.00000000
_cell_angle_gamma   90.00000000
_symmetry_Int_Tables_number   1
_chemical_formula_structural   SrZnSb2
_chemical_formula_sum   'Sr4 Zn4 Sb8'
_cell_volume   451.70506476
_cell_formula_units_Z   4
loop_
 _symmetry_equiv_pos_site_id
 _symmetry_equiv_pos_as_xyz
  1  'x, y, z'
loop_
 _atom_site_type_symbol
 _atom_site_label
 _atom_site_symmetry_multiplicity
 _atom_site_fract_x
 _atom_site_fract_y
 _atom_site_fract_z
 _atom_site_occupancy
  Sr  Sr0  1  0.25000000  0.77367311  0.61551293  1
  Sr  Sr1  1  0.75000000  0.22632689  0.38448707  1
  Sr  Sr2  1  0.75000000  0.27367311  0.88448707  1
  Sr  Sr3  1  0.25000000  0.72632689  0.11551293  1
  Zn  Zn0  1  0.25000000  0.27454272  0.75009663  1
  Zn  Zn1  1  0.75000000  0.72545728  0.24990337  1
  Zn  Zn2  1  0.75000000  0.77454272  0.74990337  1
  Zn  Zn3  1  0.25000000  0.22545728  0.25009663  1
  Sb  Sb0  1  0.25000000  0.21648945  0.00139077  1
  Sb  Sb1  1  0.75000000  0.78351055  0.99860923  1
  Sb  Sb2  1  0.75000000  0.71648945  0.49860923  1
  Sb  Sb3  1  0.25000000  0.28351055  0.50139077  1
  Sb  Sb4  1  0.25000000  0.72588008  0.32163698  1
  Sb  Sb5  1  0.75000000  0.27411992  0.67836302  1
  Sb  Sb6  1  0.75000000  0.22588008  0.17836302  1
  Sb  Sb7  1  0.25000000  0.77411992  0.82163698  1
loop_
_geom_bond_atom_site_label_1
_geom_bond_atom_site_label_2
_geom_bond_distance
_geom_bond_site_symmetry_2
Sb0 Sb1 2.926566 1_544
Sb0 Sb1 2.926566 1_444
Sb0 Sb1 3.349478 1_554
Sb0 Sb1 3.349478 1_454
Sb0 Sr3 3.417185 1_545
Sb0 Sr3 3.473722 1_555
Sb0 Sr2 3.489181 1_454
Sb0 Sr2 3.489181 1_554
Sb1 Sr2 3.417185 1_565
Sb1 Sr2 3.473722 1_555
Sb1 Sr3 3.489181 1_556
Sb1 Sr3 3.489181 1_656
Sb2 Sb3 2.926566 1_555
Sb2 Sb3 2.926566 1_655
Sb2 Sb3 3.349478 1_665
Sb2 Sb3 3.349478 1_565
Sb2 Sr1 3.417185 1_555
Sb2 Sr1 3.473722 1_565
Sb2 Sr0 3.489181 1_655
Sb2 Sr0 3.489181 1_555
Sb3 Sr0 3.417185 1_555
Sb3 Sr0 3.473722 1_545
Sb3 Sr1 3.489181 1_455
Sb3 Sr1 3.489181 1_555
Sb4 Zn1 2.753630 1_555
Sb4 Zn1 2.753630 1_455
Sb4 Zn3 2.767890 1_565
Sb4 Zn3 2.770913 1_555
Sb4 Sr1 3.448005 1_455
Sb4 Sr1 3.448005 1_555
Sb4 Sr1 3.450570 1_465
Sb4 Sr1 3.450570 1_565
Sb5 Zn0 2.753630 1_555
Sb5 Zn0 2.753630 1_655
Sb5 Zn2 2.767890 1_545
Sb5 Zn2 2.770913 1_555
Sb5 Sr0 3.448005 1_655
Sb5 Sr0 3.448005 1_555
Sb5 Sr0 3.450570 1_645
Sb5 Sr0 3.450570 1_545
Sb6 Zn3 2.753630 1_555
Sb6 Zn3 2.753630 1_655
Sb6 Zn1 2.767890 1_555
Sb6 Zn1 2.770913 1_545
Sb6 Sr3 3.448005 1_545
Sb6 Sr3 3.448005 1_645
Sb6 Sr3 3.450570 1_555
Sb6 Sr3 3.450570 1_655
Sb7 Zn2 2.753630 1_555
Sb7 Zn2 2.753630 1_455
Sb7 Zn0 2.767890 1_555
Sb7 Zn0 2.770913 1_565
Sb7 Sr2 3.448005 1_565
Sb7 Sr2 3.448005 1_465
Sb7 Sr2 3.450570 1_555
Sb7 Sr2 3.450570 1_455
