# generated using pymatgen
data_Lu3Si13Ir4
_symmetry_space_group_name_H-M   'P 1'
_cell_length_a   8.70431900
_cell_length_b   8.70431900
_cell_length_c   8.70431900
_cell_angle_alpha   90.00000000
_cell_angle_beta   90.00000000
_cell_angle_gamma   90.00000000
_symmetry_Int_Tables_number   1
_chemical_formula_structural   Lu3Si13Ir4
_chemical_formula_sum   'Lu6 Si26 Ir8'
_cell_volume   659.48420227
_cell_formula_units_Z   2
loop_
 _symmetry_equiv_pos_site_id
 _symmetry_equiv_pos_as_xyz
  1  'x, y, z'
loop_
 _atom_site_type_symbol
 _atom_site_label
 _atom_site_symmetry_multiplicity
 _atom_site_fract_x
 _atom_site_fract_y
 _atom_site_fract_z
 _atom_site_occupancy
  Lu  Lu0  1  0.00000000  0.50000000  0.75000000  1
  Lu  Lu1  1  0.50000000  0.25000000  0.00000000  1
  Lu  Lu2  1  0.75000000  0.00000000  0.50000000  1
  Lu  Lu3  1  0.00000000  0.50000000  0.25000000  1
  Lu  Lu4  1  0.50000000  0.75000000  0.00000000  1
  Lu  Lu5  1  0.25000000  0.00000000  0.50000000  1
  Si  Si0  1  0.50000000  0.50000000  0.50000000  1
  Si  Si1  1  0.00000000  0.00000000  0.00000000  1
  Si  Si2  1  0.79756400  0.36177200  0.50000000  1
  Si  Si3  1  0.63822800  0.50000000  0.79756400  1
  Si  Si4  1  0.50000000  0.20243600  0.63822800  1
  Si  Si5  1  0.20243600  0.63822800  0.50000000  1
  Si  Si6  1  0.36177200  0.50000000  0.20243600  1
  Si  Si7  1  0.50000000  0.79756400  0.36177200  1
  Si  Si8  1  0.79756400  0.63822800  0.50000000  1
  Si  Si9  1  0.63822800  0.50000000  0.20243600  1
  Si  Si10  1  0.20243600  0.36177200  0.50000000  1
  Si  Si11  1  0.36177200  0.50000000  0.79756400  1
  Si  Si12  1  0.50000000  0.79756400  0.63822800  1
  Si  Si13  1  0.50000000  0.20243600  0.36177200  1
  Si  Si14  1  0.29756400  0.00000000  0.86177200  1
  Si  Si15  1  0.13822800  0.29756400  0.00000000  1
  Si  Si16  1  0.00000000  0.13822800  0.70243600  1
  Si  Si17  1  0.70243600  0.00000000  0.13822800  1
  Si  Si18  1  0.86177200  0.70243600  0.00000000  1
  Si  Si19  1  0.00000000  0.86177200  0.29756400  1
  Si  Si20  1  0.29756400  0.00000000  0.13822800  1
  Si  Si21  1  0.13822800  0.70243600  0.00000000  1
  Si  Si22  1  0.70243600  0.00000000  0.86177200  1
  Si  Si23  1  0.86177200  0.29756400  0.00000000  1
  Si  Si24  1  0.00000000  0.13822800  0.29756400  1
  Si  Si25  1  0.00000000  0.86177200  0.70243600  1
  Ir  Ir0  1  0.75000000  0.25000000  0.75000000  1
  Ir  Ir1  1  0.25000000  0.75000000  0.25000000  1
  Ir  Ir2  1  0.75000000  0.75000000  0.25000000  1
  Ir  Ir3  1  0.25000000  0.25000000  0.75000000  1
  Ir  Ir4  1  0.25000000  0.75000000  0.75000000  1
  Ir  Ir5  1  0.75000000  0.25000000  0.25000000  1
  Ir  Ir6  1  0.25000000  0.25000000  0.25000000  1
  Ir  Ir7  1  0.75000000  0.75000000  0.75000000  1
loop_
_geom_bond_atom_site_label_1
_geom_bond_atom_site_label_2
_geom_bond_distance
_geom_bond_site_symmetry_2
Lu0 Si21 3.047597 1_556
Lu0 Si2 3.047597 1_455
Lu0 Si15 3.047597 1_556
Lu0 Si8 3.047597 1_455
Lu0 Si10 3.047597 1_555
Lu0 Si18 3.047597 1_456
Lu0 Si5 3.047597 1_555
Lu0 Si23 3.047597 1_456
Lu0 Si3 3.176078 1_455
Lu0 Si25 3.176078 1_555
Lu0 Si16 3.176078 1_555
Lu0 Si11 3.176078 1_555
Lu1 Si3 3.047597 1_554
Lu1 Si9 3.047597 1_555
Lu1 Si14 3.047597 1_554
Lu1 Si6 3.047597 1_555
Lu1 Si11 3.047597 1_554
Lu1 Si20 3.047597 1_555
Lu1 Si17 3.047597 1_555
Lu1 Si22 3.047597 1_554
Lu1 Si15 3.176078 1_555
Lu1 Si4 3.176078 1_554
Lu1 Si23 3.176078 1_555
Lu1 Si13 3.176078 1_555
Lu2 Si16 3.047597 1_655
Lu2 Si4 3.047597 1_555
Lu2 Si19 3.047597 1_645
Lu2 Si12 3.047597 1_545
Lu2 Si24 3.047597 1_655
Lu2 Si13 3.047597 1_555
Lu2 Si7 3.047597 1_545
Lu2 Si25 3.047597 1_645
Lu2 Si8 3.176078 1_545
Lu2 Si17 3.176078 1_555
Lu2 Si2 3.176078 1_555
Lu2 Si22 3.176078 1_555
Lu3 Si21 3.047597 1_555
Lu3 Si18 3.047597 1_455
Lu3 Si15 3.047597 1_555
Lu3 Si8 3.047597 1_455
Lu3 Si10 3.047597 1_555
Lu3 Si23 3.047597 1_455
Lu3 Si5 3.047597 1_555
Lu3 Si2 3.047597 1_455
Lu3 Si9 3.176078 1_455
Lu3 Si24 3.176078 1_555
Lu3 Si19 3.176078 1_555
Lu3 Si6 3.176078 1_555
Lu4 Si3 3.047597 1_554
Lu4 Si9 3.047597 1_555
Lu4 Si20 3.047597 1_565
Lu4 Si11 3.047597 1_554
Lu4 Si17 3.047597 1_565
Lu4 Si6 3.047597 1_555
Lu4 Si22 3.047597 1_564
Lu4 Si14 3.047597 1_564
Lu4 Si21 3.176078 1_555
Lu4 Si18 3.176078 1_555
Lu4 Si7 3.176078 1_555
Lu4 Si12 3.176078 1_554
Lu5 Si4 3.047597 1_555
Lu5 Si12 3.047597 1_545
Lu5 Si24 3.047597 1_555
Lu5 Si25 3.047597 1_545
Lu5 Si19 3.047597 1_545
Lu5 Si16 3.047597 1_555
Lu5 Si13 3.047597 1_555
Lu5 Si7 3.047597 1_545
Lu5 Si5 3.176078 1_545
Lu5 Si14 3.176078 1_555
Lu5 Si10 3.176078 1_555
Lu5 Si20 3.176078 1_555
Si0 Si5 2.855910 1_555
Si0 Si4 2.855910 1_555
Si0 Si9 2.855910 1_555
Si0 Si6 2.855910 1_555
Si0 Si10 2.855910 1_555
Si0 Si13 2.855910 1_555
Si0 Si7 2.855910 1_555
Si0 Si12 2.855910 1_555
Si0 Si2 2.855910 1_555
Si0 Si8 2.855910 1_555
Si0 Si3 2.855910 1_555
Si0 Si11 2.855910 1_555
Si1 Si15 2.855910 1_555
Si1 Si24 2.855910 1_555
Si1 Si14 2.855910 1_554
Si1 Si19 2.855910 1_545
Si1 Si23 2.855910 1_455
Si1 Si20 2.855910 1_555
Si1 Si17 2.855910 1_455
Si1 Si22 2.855910 1_454
Si1 Si16 2.855910 1_554
Si1 Si21 2.855910 1_545
Si1 Si18 2.855910 1_445
Si1 Si25 2.855910 1_544
Ir0 Si2 2.419352 1_555
Ir0 Si22 2.419352 1_555
Ir0 Si3 2.419352 1_555
Ir0 Si16 2.419352 1_655
Ir0 Si23 2.419352 1_556
Ir0 Si4 2.419352 1_555
Ir0 Lu0 3.077441 1_655
Ir0 Lu1 3.077441 1_556
Ir0 Lu2 3.077441 1_555
Ir1 Si21 2.419352 1_555
Ir1 Si6 2.419352 1_555
Ir1 Si20 2.419352 1_565
Ir1 Si7 2.419352 1_555
Ir1 Si19 2.419352 1_555
Ir1 Si5 2.419352 1_555
Ir1 Lu5 3.077441 1_565
Ir1 Lu3 3.077441 1_555
Ir1 Lu4 3.077441 1_555
Ir2 Si19 2.419352 1_655
Ir2 Si9 2.419352 1_555
Ir2 Si18 2.419352 1_555
Ir2 Si8 2.419352 1_555
Ir2 Si17 2.419352 1_565
Ir2 Si7 2.419352 1_555
Ir2 Lu2 3.077441 1_565
Ir2 Lu4 3.077441 1_555
Ir2 Lu3 3.077441 1_655
Ir3 Si15 2.419352 1_556
Ir3 Si4 2.419352 1_555
Ir3 Si16 2.419352 1_555
Ir3 Si10 2.419352 1_555
Ir3 Si11 2.419352 1_555
Ir3 Si14 2.419352 1_555
Ir3 Lu0 3.077441 1_555
Ir3 Lu1 3.077441 1_556
Ir3 Lu5 3.077441 1_555
Ir4 Si12 2.419352 1_555
Ir4 Si14 2.419352 1_565
Ir4 Si25 2.419352 1_555
Ir4 Si11 2.419352 1_555
Ir4 Si21 2.419352 1_556
Ir4 Si5 2.419352 1_555
Ir4 Lu5 3.077441 1_565
Ir4 Lu0 3.077441 1_555
Ir4 Lu4 3.077441 1_556
Ir5 Si9 2.419352 1_555
Ir5 Si2 2.419352 1_555
Ir5 Si24 2.419352 1_655
Ir5 Si23 2.419352 1_555
Ir5 Si13 2.419352 1_555
Ir5 Si17 2.419352 1_555
Ir5 Lu3 3.077441 1_655
Ir5 Lu1 3.077441 1_555
Ir5 Lu2 3.077441 1_555
Ir6 Si20 2.419352 1_555
Ir6 Si15 2.419352 1_555
Ir6 Si24 2.419352 1_555
Ir6 Si6 2.419352 1_555
Ir6 Si10 2.419352 1_555
Ir6 Si13 2.419352 1_555
Ir6 Lu3 3.077441 1_555
Ir6 Lu1 3.077441 1_555
Ir6 Lu5 3.077441 1_555
Ir7 Si18 2.419352 1_556
Ir7 Si8 2.419352 1_555
Ir7 Si12 2.419352 1_555
Ir7 Si22 2.419352 1_565
Ir7 Si25 2.419352 1_655
Ir7 Si3 2.419352 1_555
Ir7 Lu2 3.077441 1_565
Ir7 Lu4 3.077441 1_556
Ir7 Lu0 3.077441 1_655
