# generated using pymatgen
data_Mg2MoWO6
_symmetry_space_group_name_H-M   'P 1'
_cell_length_a   5.67150836
_cell_length_b   5.67150836
_cell_length_c   5.67150784
_cell_angle_alpha   55.46886646
_cell_angle_beta   55.46886646
_cell_angle_gamma   55.46886940
_symmetry_Int_Tables_number   1
_chemical_formula_structural   Mg2MoWO6
_chemical_formula_sum   'Mg2 Mo1 W1 O6'
_cell_volume   115.42437382
_cell_formula_units_Z   1
loop_
 _symmetry_equiv_pos_site_id
 _symmetry_equiv_pos_as_xyz
  1  'x, y, z'
loop_
 _atom_site_type_symbol
 _atom_site_label
 _atom_site_symmetry_multiplicity
 _atom_site_fract_x
 _atom_site_fract_y
 _atom_site_fract_z
 _atom_site_occupancy
  Mg  Mg0  1  0.77166200  0.77166200  0.77166200  1
  Mg  Mg1  1  0.27184800  0.27184800  0.27184800  1
  Mo  Mo0  1  0.47859400  0.47859400  0.47859400  1
  W  W0  1  0.97679900  0.97679900  0.97679900  1
  O  O0  1  0.87931800  0.59373700  0.18002700  1
  O  O1  1  0.07501200  0.36242600  0.70350300  1
  O  O2  1  0.70350300  0.07501200  0.36242600  1
  O  O3  1  0.36242600  0.70350300  0.07501200  1
  O  O4  1  0.59373700  0.18002700  0.87931800  1
  O  O5  1  0.18002700  0.87931800  0.59373700  1
loop_
_geom_bond_atom_site_label_1
_geom_bond_atom_site_label_2
_geom_bond_distance
_geom_bond_site_symmetry_2
Mg0 O2 2.057300 1_565
Mg0 O3 2.057301 1_556
Mg0 O1 2.057301 1_655
Mg0 O0 2.238350 1_556
Mg0 O5 2.238350 1_655
Mg0 O4 2.238350 1_565
Mg1 O4 2.046714 1_554
Mg1 O5 2.046714 1_545
Mg1 O0 2.046714 1_455
Mg1 O1 2.276122 1_555
Mg1 O3 2.276123 1_555
Mg1 O2 2.276123 1_555
Mo0 O4 2.127195 1_555
Mo0 O0 2.127195 1_555
Mo0 O5 2.127195 1_555
Mo0 O3 2.178797 1_555
Mo0 O1 2.178797 1_555
Mo0 O2 2.178797 1_555
O0 W0 2.038251 1_554
O1 W0 2.013747 1_445
O2 W0 2.013747 1_544
O3 W0 2.013748 1_454
O4 W0 2.038251 1_545
O5 W0 2.038251 1_455
