# generated using pymatgen
data_FeCu
_symmetry_space_group_name_H-M   'P 1'
_cell_length_a   4.90734467
_cell_length_b   4.90734467
_cell_length_c   8.27627000
_cell_angle_alpha   90.00000000
_cell_angle_beta   90.00000000
_cell_angle_gamma   108.22845717
_symmetry_Int_Tables_number   1
_chemical_formula_structural   FeCu
_chemical_formula_sum   'Fe8 Cu8'
_cell_volume   189.30741479
_cell_formula_units_Z   8
loop_
 _symmetry_equiv_pos_site_id
 _symmetry_equiv_pos_as_xyz
  1  'x, y, z'
loop_
 _atom_site_type_symbol
 _atom_site_label
 _atom_site_symmetry_multiplicity
 _atom_site_fract_x
 _atom_site_fract_y
 _atom_site_fract_z
 _atom_site_occupancy
  Fe  Fe0_0  1  0.00000000  0.00000000  0.00000000  1
  Fe  Fe0_1  1  0.00000000  0.00000000  0.50000000  1
  Fe  Fe0_2  1  0.00000000  0.50000000  0.00000000  1
  Fe  Fe0_3  1  0.00000000  0.50000000  0.50000000  1
  Fe  Fe0_4  1  0.50000000  0.00000000  0.00000000  1
  Fe  Fe0_5  1  0.50000000  0.00000000  0.50000000  1
  Fe  Fe0_6  1  0.50000000  0.50000000  0.00000000  1
  Fe  Fe0_7  1  0.50000000  0.50000000  0.50000000  1
  Cu  Cu0_0  1  0.25000000  0.25000000  0.25000000  1
  Cu  Cu0_1  1  0.25000000  0.25000000  0.75000000  1
  Cu  Cu0_2  1  0.25000000  0.75000000  0.25000000  1
  Cu  Cu0_3  1  0.25000000  0.75000000  0.75000000  1
  Cu  Cu0_4  1  0.75000000  0.25000000  0.25000000  1
  Cu  Cu0_5  1  0.75000000  0.25000000  0.75000000  1
  Cu  Cu0_6  1  0.75000000  0.75000000  0.25000000  1
  Cu  Cu0_7  1  0.75000000  0.75000000  0.75000000  1
loop_
_geom_bond_atom_site_label_1
_geom_bond_atom_site_label_2
_geom_bond_distance
_geom_bond_site_symmetry_2
Fe0_0 Fe0_2 2.453672 1_555
Fe0_0 Fe0_4 2.453672 1_555
Fe0_0 Fe0_4 2.453672 1_455
Fe0_0 Fe0_2 2.453672 1_545
Fe0_1 Fe0_3 2.453672 1_545
Fe0_1 Fe0_5 2.453672 1_455
Fe0_1 Fe0_3 2.453672 1_555
Fe0_1 Fe0_5 2.453672 1_555
Fe0_2 Fe0_6 2.453672 1_555
Fe0_2 Fe0_6 2.453672 1_455
Fe0_3 Fe0_7 2.453672 1_455
Fe0_3 Fe0_7 2.453672 1_555
Fe0_4 Fe0_6 2.453672 1_555
Fe0_4 Fe0_6 2.453672 1_545
Fe0_5 Fe0_7 2.453672 1_555
Fe0_5 Fe0_7 2.453672 1_545
Cu0_0 Cu0_4 2.453672 1_455
Cu0_0 Cu0_2 2.453672 1_555
Cu0_0 Cu0_2 2.453672 1_545
Cu0_0 Cu0_4 2.453672 1_555
Cu0_0 Fe0_1 2.519854 1_555
Cu0_0 Fe0_7 2.519854 1_555
Cu0_0 Fe0_6 2.519854 1_555
Cu0_0 Fe0_0 2.519854 1_555
Cu0_1 Cu0_5 2.453672 1_455
Cu0_1 Cu0_5 2.453672 1_555
Cu0_1 Cu0_3 2.453672 1_555
Cu0_1 Cu0_3 2.453672 1_545
Cu0_1 Fe0_0 2.519854 1_556
Cu0_1 Fe0_6 2.519854 1_556
Cu0_1 Fe0_1 2.519854 1_555
Cu0_1 Fe0_7 2.519854 1_555
Cu0_2 Cu0_6 2.453672 1_455
Cu0_2 Cu0_6 2.453672 1_555
Cu0_2 Fe0_3 2.519854 1_555
Cu0_2 Fe0_4 2.519854 1_565
Cu0_2 Fe0_2 2.519854 1_555
Cu0_2 Fe0_5 2.519854 1_565
Cu0_3 Cu0_7 2.453672 1_455
Cu0_3 Cu0_7 2.453672 1_555
Cu0_3 Fe0_3 2.519854 1_555
Cu0_3 Fe0_4 2.519854 1_566
Cu0_3 Fe0_2 2.519854 1_556
Cu0_3 Fe0_5 2.519854 1_565
Cu0_4 Cu0_6 2.453672 1_545
Cu0_4 Cu0_6 2.453672 1_555
Cu0_4 Fe0_2 2.519854 1_655
Cu0_4 Fe0_3 2.519854 1_655
Cu0_4 Fe0_5 2.519854 1_555
Cu0_4 Fe0_4 2.519854 1_555
Cu0_5 Cu0_7 2.453672 1_545
Cu0_5 Cu0_7 2.453672 1_555
Cu0_5 Fe0_3 2.519854 1_655
Cu0_5 Fe0_4 2.519854 1_556
Cu0_5 Fe0_5 2.519854 1_555
Cu0_5 Fe0_2 2.519854 1_656
Cu0_6 Fe0_1 2.519854 1_665
Cu0_6 Fe0_0 2.519854 1_665
Cu0_6 Fe0_6 2.519854 1_555
Cu0_6 Fe0_7 2.519854 1_555
Cu0_7 Fe0_1 2.519854 1_665
Cu0_7 Fe0_0 2.519854 1_666
Cu0_7 Fe0_6 2.519854 1_556
Cu0_7 Fe0_7 2.519854 1_555
