# generated using pymatgen
data_Ba7Sn3Te3Se10
_symmetry_space_group_name_H-M   'P 1'
_cell_length_a   9.51334100
_cell_length_b   13.16897400
_cell_length_c   25.64583000
_cell_angle_alpha   90.00000000
_cell_angle_beta   90.00000000
_cell_angle_gamma   90.00000000
_symmetry_Int_Tables_number   1
_chemical_formula_structural   Ba7Sn3Te3Se10
_chemical_formula_sum   'Ba28 Sn12 Te12 Se40'
_cell_volume   3212.93369672
_cell_formula_units_Z   4
loop_
 _symmetry_equiv_pos_site_id
 _symmetry_equiv_pos_as_xyz
  1  'x, y, z'
loop_
 _atom_site_type_symbol
 _atom_site_label
 _atom_site_symmetry_multiplicity
 _atom_site_fract_x
 _atom_site_fract_y
 _atom_site_fract_z
 _atom_site_occupancy
  Ba  Ba0  1  0.38385400  0.30739400  0.53243400  1
  Ba  Ba1  1  0.61614600  0.69260600  0.46756600  1
  Ba  Ba2  1  0.88385400  0.19260600  0.46756600  1
  Ba  Ba3  1  0.61614600  0.69260600  0.03243400  1
  Ba  Ba4  1  0.11614600  0.80739400  0.53243400  1
  Ba  Ba5  1  0.38385400  0.30739400  0.96756600  1
  Ba  Ba6  1  0.11614600  0.80739400  0.96756600  1
  Ba  Ba7  1  0.88385400  0.19260600  0.03243400  1
  Ba  Ba8  1  0.41386900  0.02063000  0.65892900  1
  Ba  Ba9  1  0.58613100  0.97937000  0.34107100  1
  Ba  Ba10  1  0.91386900  0.47937000  0.34107100  1
  Ba  Ba11  1  0.58613100  0.97937000  0.15892900  1
  Ba  Ba12  1  0.08613100  0.52063000  0.65892900  1
  Ba  Ba13  1  0.41386900  0.02063000  0.84107100  1
  Ba  Ba14  1  0.08613100  0.52063000  0.84107100  1
  Ba  Ba15  1  0.91386900  0.47937000  0.15892900  1
  Ba  Ba16  1  0.10209600  0.13845100  0.25000000  1
  Ba  Ba17  1  0.89790400  0.86154900  0.75000000  1
  Ba  Ba18  1  0.60209600  0.36154900  0.75000000  1
  Ba  Ba19  1  0.39790400  0.63845100  0.25000000  1
  Ba  Ba20  1  0.40982400  0.34141900  0.15261100  1
  Ba  Ba21  1  0.59017600  0.65858100  0.84738900  1
  Ba  Ba22  1  0.90982400  0.15858100  0.84738900  1
  Ba  Ba23  1  0.59017600  0.65858100  0.65261100  1
  Ba  Ba24  1  0.09017600  0.84141900  0.15261100  1
  Ba  Ba25  1  0.40982400  0.34141900  0.34738900  1
  Ba  Ba26  1  0.09017600  0.84141900  0.34738900  1
  Ba  Ba27  1  0.90982400  0.15858100  0.65261100  1
  Sn  Sn0  1  0.69608200  0.26028200  0.25000000  1
  Sn  Sn1  1  0.30391800  0.73971800  0.75000000  1
  Sn  Sn2  1  0.19608200  0.23971800  0.75000000  1
  Sn  Sn3  1  0.80391800  0.76028200  0.25000000  1
  Sn  Sn4  1  0.30067500  0.04598100  0.05423600  1
  Sn  Sn5  1  0.69932500  0.95401900  0.94576400  1
  Sn  Sn6  1  0.80067500  0.45401900  0.94576400  1
  Sn  Sn7  1  0.69932500  0.95401900  0.55423600  1
  Sn  Sn8  1  0.19932500  0.54598100  0.05423600  1
  Sn  Sn9  1  0.30067500  0.04598100  0.44576400  1
  Sn  Sn10  1  0.19932500  0.54598100  0.44576400  1
  Sn  Sn11  1  0.80067500  0.45401900  0.55423600  1
  Te  Te0  1  0.18014900  0.07775800  0.54354800  1
  Te  Te1  1  0.81985100  0.92224200  0.45645200  1
  Te  Te2  1  0.68014900  0.42224200  0.45645200  1
  Te  Te3  1  0.81985100  0.92224200  0.04354800  1
  Te  Te4  1  0.31985100  0.57775800  0.54354800  1
  Te  Te5  1  0.18014900  0.07775800  0.95645200  1
  Te  Te6  1  0.31985100  0.57775800  0.95645200  1
  Te  Te7  1  0.68014900  0.42224200  0.04354800  1
  Te  Te8  1  0.17359300  0.39959300  0.25000000  1
  Te  Te9  1  0.82640700  0.60040700  0.75000000  1
  Te  Te10  1  0.67359300  0.10040700  0.75000000  1
  Te  Te11  1  0.32640700  0.89959300  0.25000000  1
  Se  Se0  1  0.33126700  0.28005500  0.66804000  1
  Se  Se1  1  0.66873300  0.71994500  0.33196000  1
  Se  Se2  1  0.83126700  0.21994500  0.33196000  1
  Se  Se3  1  0.66873300  0.71994500  0.16803900  1
  Se  Se4  1  0.16873300  0.78005500  0.66804000  1
  Se  Se5  1  0.33126700  0.28005500  0.83196000  1
  Se  Se6  1  0.16873300  0.78005500  0.83196000  1
  Se  Se7  1  0.83126700  0.21994500  0.16803900  1
  Se  Se8  1  0.11249800  0.09217200  0.12155300  1
  Se  Se9  1  0.88750200  0.90782800  0.87844700  1
  Se  Se10  1  0.61249800  0.40782800  0.87844700  1
  Se  Se11  1  0.88750200  0.90782800  0.62155300  1
  Se  Se12  1  0.38750200  0.59217200  0.12155300  1
  Se  Se13  1  0.11249800  0.09217200  0.37844700  1
  Se  Se14  1  0.38750200  0.59217200  0.37844700  1
  Se  Se15  1  0.61249800  0.40782800  0.62155300  1
  Se  Se16  1  0.64715300  0.45310800  0.25000000  1
  Se  Se17  1  0.35284700  0.54689200  0.75000000  1
  Se  Se18  1  0.14715300  0.04689200  0.75000000  1
  Se  Se19  1  0.85284700  0.95310800  0.25000000  1
  Se  Se20  1  0.46846800  0.15517500  0.25000000  1
  Se  Se21  1  0.53153200  0.84482500  0.75000000  1
  Se  Se22  1  0.96846800  0.34482500  0.75000000  1
  Se  Se23  1  0.03153200  0.65517500  0.25000000  1
  Se  Se24  1  0.51191300  0.16170300  0.07098000  1
  Se  Se25  1  0.48808700  0.83829700  0.92902000  1
  Se  Se26  1  0.01191300  0.33829700  0.92902000  1
  Se  Se27  1  0.48808700  0.83829700  0.57098000  1
  Se  Se28  1  0.98808700  0.66170300  0.07098000  1
  Se  Se29  1  0.51191300  0.16170300  0.42902000  1
  Se  Se30  1  0.98808700  0.66170300  0.42902000  1
  Se  Se31  1  0.01191300  0.33829700  0.57098000  1
  Se  Se32  1  0.14567600  0.35820300  0.07283600  1
  Se  Se33  1  0.85432400  0.64179700  0.92716400  1
  Se  Se34  1  0.64567600  0.14179700  0.92716400  1
  Se  Se35  1  0.85432400  0.64179700  0.57283600  1
  Se  Se36  1  0.35432400  0.85820300  0.07283600  1
  Se  Se37  1  0.14567600  0.35820300  0.42716400  1
  Se  Se38  1  0.35432400  0.85820300  0.42716400  1
  Se  Se39  1  0.64567600  0.14179700  0.57283600  1
loop_
_geom_bond_atom_site_label_1
_geom_bond_atom_site_label_2
_geom_bond_distance
_geom_bond_site_symmetry_2
Ba0 Se15 3.421157 1_555
Ba0 Se39 3.468908 1_555
Ba0 Se29 3.492713 1_555
Ba0 Se0 3.531925 1_555
Ba0 Se37 3.587539 1_555
Ba0 Te0 3.603021 1_555
Ba0 Te4 3.623333 1_555
Ba0 Se31 3.696366 1_555
Ba0 Te2 3.745658 1_555
Ba1 Se14 3.421157 1_555
Ba1 Se38 3.468908 1_555
Ba1 Se27 3.492713 1_555
Ba1 Se1 3.531925 1_555
Ba1 Se35 3.587539 1_555
Ba1 Te1 3.603021 1_555
Ba1 Te2 3.623333 1_555
Ba1 Se30 3.696366 1_555
Ba1 Te4 3.745658 1_555
Ba2 Se13 3.421157 1_655
Ba2 Se37 3.468908 1_655
Ba2 Se31 3.492713 1_655
Ba2 Se2 3.531925 1_555
Ba2 Se39 3.587539 1_555
Ba2 Te2 3.603021 1_555
Ba2 Te1 3.623333 1_545
Ba2 Se29 3.696366 1_555
Ba2 Te0 3.745658 1_655
Ba3 Se12 3.421157 1_555
Ba3 Se36 3.468908 1_555
Ba3 Se25 3.492713 1_554
Ba3 Se3 3.531899 1_555
Ba3 Se33 3.587539 1_554
Ba3 Te3 3.603021 1_555
Ba3 Te7 3.623333 1_555
Ba3 Se28 3.696366 1_555
Ba3 Te6 3.745658 1_554
Ba4 Se11 3.421157 1_455
Ba4 Se35 3.468908 1_455
Ba4 Se30 3.492713 1_455
Ba4 Se4 3.531925 1_555
Ba4 Se38 3.587539 1_555
Ba4 Te4 3.603021 1_555
Ba4 Te0 3.623333 1_565
Ba4 Se27 3.696366 1_555
Ba4 Te1 3.745658 1_455
Ba5 Se10 3.421157 1_555
Ba5 Se34 3.468908 1_555
Ba5 Se24 3.492713 1_556
Ba5 Se5 3.531925 1_555
Ba5 Se32 3.587539 1_556
Ba5 Te5 3.603021 1_555
Ba5 Te6 3.623333 1_555
Ba5 Se26 3.696366 1_555
Ba5 Te7 3.745658 1_556
Ba6 Se9 3.421157 1_455
Ba6 Se33 3.468908 1_455
Ba6 Se28 3.492713 1_456
Ba6 Se6 3.531925 1_555
Ba6 Se36 3.587539 1_556
Ba6 Te6 3.603021 1_555
Ba6 Te5 3.623333 1_565
Ba6 Se25 3.696366 1_555
Ba6 Te3 3.745658 1_456
Ba7 Se8 3.421157 1_655
Ba7 Se32 3.468908 1_655
Ba7 Se26 3.492713 1_654
Ba7 Se7 3.531899 1_555
Ba7 Se34 3.587539 1_554
Ba7 Te7 3.603021 1_555
Ba7 Te3 3.623333 1_545
Ba7 Se24 3.696366 1_555
Ba7 Te5 3.745658 1_654
Ba8 Se27 3.369181 1_545
Ba8 Se18 3.465947 1_555
Ba8 Se21 3.473901 1_545
Ba8 Se39 3.504881 1_555
Ba8 Se0 3.513351 1_555
Ba8 Te10 3.558620 1_555
Ba8 Te0 3.776993 1_555
Ba8 Se4 3.940829 1_545
Ba9 Se29 3.369181 1_565
Ba9 Se19 3.465947 1_555
Ba9 Se20 3.473901 1_565
Ba9 Se38 3.504881 1_555
Ba9 Se1 3.513351 1_555
Ba9 Te11 3.558620 1_555
Ba9 Te1 3.776993 1_555
Ba9 Se2 3.940829 1_565
Ba10 Se30 3.369181 1_555
Ba10 Se16 3.465947 1_555
Ba10 Se23 3.473901 1_655
Ba10 Se37 3.504881 1_655
Ba10 Se2 3.513351 1_555
Ba10 Te8 3.558620 1_655
Ba10 Te2 3.776993 1_555
Ba10 Se1 3.940829 1_555
Ba11 Se24 3.369181 1_565
Ba11 Se19 3.465947 1_555
Ba11 Se20 3.473901 1_565
Ba11 Se36 3.504881 1_555
Ba11 Se3 3.513349 1_555
Ba11 Te11 3.558620 1_555
Ba11 Te3 3.776993 1_555
Ba11 Se7 3.940827 1_565
Ba12 Se31 3.369181 1_555
Ba12 Se17 3.465947 1_555
Ba12 Se22 3.473901 1_455
Ba12 Se35 3.504881 1_455
Ba12 Se4 3.513351 1_555
Ba12 Te9 3.558620 1_455
Ba12 Te4 3.776993 1_555
Ba12 Se0 3.940829 1_555
Ba13 Se25 3.369181 1_545
Ba13 Se18 3.465947 1_555
Ba13 Se21 3.473901 1_545
Ba13 Se34 3.504881 1_555
Ba13 Se5 3.513351 1_555
Ba13 Te10 3.558620 1_555
Ba13 Te5 3.776993 1_555
Ba13 Se6 3.940829 1_545
Ba14 Se26 3.369181 1_555
Ba14 Se17 3.465947 1_555
Ba14 Se22 3.473901 1_455
Ba14 Se33 3.504881 1_455
Ba14 Se6 3.513351 1_555
Ba14 Te9 3.558620 1_455
Ba14 Te6 3.776993 1_555
Ba14 Se5 3.940829 1_555
Ba15 Se28 3.369181 1_555
Ba15 Se16 3.465947 1_555
Ba15 Se23 3.473901 1_655
Ba15 Se32 3.504881 1_655
Ba15 Se7 3.513349 1_555
Ba15 Te8 3.558620 1_655
Ba15 Te7 3.776993 1_555
Ba15 Se3 3.940827 1_555
Ba16 Se13 3.351494 1_555
Ba16 Se8 3.351494 1_555
Ba16 Se19 3.402931 1_445
Ba16 Se20 3.492373 1_555
Ba16 Se2 3.494017 1_455
Ba16 Se7 3.494032 1_455
Ba16 Te8 3.505591 1_555
Ba16 Te11 3.801052 1_545
Ba17 Se9 3.351494 1_555
Ba17 Se11 3.351494 1_555
Ba17 Se18 3.402931 1_665
Ba17 Se21 3.492373 1_555
Ba17 Se6 3.494017 1_655
Ba17 Se4 3.494017 1_655
Ba17 Te9 3.505591 1_555
Ba17 Te10 3.801052 1_565
Ba18 Se15 3.351494 1_555
Ba18 Se10 3.351494 1_555
Ba18 Se17 3.402931 1_555
Ba18 Se22 3.492373 1_555
Ba18 Se0 3.494017 1_555
Ba18 Se5 3.494017 1_555
Ba18 Te10 3.505591 1_555
Ba18 Te9 3.801052 1_555
Ba19 Se14 3.351494 1_555
Ba19 Se12 3.351494 1_555
Ba19 Se16 3.402931 1_555
Ba19 Se23 3.492373 1_555
Ba19 Se1 3.494017 1_555
Ba19 Se3 3.494032 1_555
Ba19 Te11 3.505591 1_555
Ba19 Te8 3.801052 1_555
Ba20 Se32 3.247978 1_555
Ba20 Se24 3.305619 1_555
Ba20 Se12 3.403495 1_555
Ba20 Te8 3.446096 1_555
Ba20 Se20 3.544689 1_555
Ba20 Se16 3.674109 1_555
Ba20 Sn0 3.846555 1_555
Ba20 Te7 3.945850 1_555
Ba21 Se33 3.247978 1_555
Ba21 Se25 3.305619 1_555
Ba21 Se10 3.403495 1_555
Ba21 Te9 3.446096 1_555
Ba21 Se21 3.544689 1_555
Ba21 Se17 3.674109 1_555
Ba21 Sn1 3.846555 1_555
Ba21 Te6 3.945850 1_555
Ba22 Se34 3.247978 1_555
Ba22 Se26 3.305619 1_655
Ba22 Se9 3.403495 1_545
Ba22 Te10 3.446096 1_555
Ba22 Se22 3.544689 1_555
Ba22 Se18 3.674109 1_655
Ba22 Sn2 3.846555 1_655
Ba22 Te5 3.945850 1_655
Ba23 Se35 3.247978 1_555
Ba23 Se27 3.305619 1_555
Ba23 Se15 3.403495 1_555
Ba23 Te9 3.446096 1_555
Ba23 Se21 3.544689 1_555
Ba23 Se17 3.674109 1_555
Ba23 Sn1 3.846555 1_555
Ba23 Te4 3.945850 1_555
Ba24 Se36 3.247978 1_555
Ba24 Se28 3.305619 1_455
Ba24 Se8 3.403495 1_565
Ba24 Te11 3.446096 1_555
Ba24 Se23 3.544689 1_555
Ba24 Se19 3.674109 1_455
Ba24 Sn3 3.846555 1_455
Ba24 Te3 3.945850 1_455
Ba25 Se37 3.247978 1_555
Ba25 Se29 3.305619 1_555
Ba25 Se14 3.403495 1_555
Ba25 Te8 3.446096 1_555
Ba25 Se20 3.544689 1_555
Ba25 Se16 3.674109 1_555
Ba25 Sn0 3.846555 1_555
Ba25 Te2 3.945850 1_555
Ba26 Se38 3.247978 1_555
Ba26 Se30 3.305619 1_455
Ba26 Se13 3.403495 1_565
Ba26 Te11 3.446096 1_555
Ba26 Se23 3.544689 1_555
Ba26 Se19 3.674109 1_455
Ba26 Sn3 3.846555 1_455
Ba26 Te1 3.945850 1_455
Ba27 Se39 3.247978 1_555
Ba27 Se31 3.305619 1_655
Ba27 Se11 3.403495 1_545
Ba27 Te10 3.446096 1_555
Ba27 Se22 3.544689 1_555
Ba27 Se18 3.674109 1_655
Ba27 Sn2 3.846555 1_655
Ba27 Te0 3.945850 1_655
Sn4 Te5 2.789021 1_554
Sn5 Te3 2.789021 1_556
Sn6 Te7 2.789021 1_556
Sn7 Te1 2.789021 1_555
Sn8 Te6 2.789021 1_554
Sn9 Te0 2.789021 1_555
Sn10 Te4 2.789021 1_555
Sn11 Te2 2.789021 1_555
Se0 Sn2 2.520762 1_555
Se1 Sn3 2.520762 1_555
Se2 Sn0 2.520762 1_555
Se3 Sn3 2.520784 1_555
Se4 Sn1 2.520762 1_555
Se5 Sn2 2.520762 1_555
Se6 Sn1 2.520762 1_555
Se7 Sn0 2.520784 1_555
Se8 Sn4 2.560324 1_555
Se9 Sn5 2.560324 1_555
Se10 Sn6 2.560324 1_555
Se11 Sn7 2.560324 1_555
Se12 Sn8 2.560324 1_555
Se13 Sn9 2.560324 1_555
Se14 Sn10 2.560324 1_555
Se15 Sn11 2.560324 1_555
Se16 Sn0 2.581631 1_555
Se17 Sn1 2.581631 1_555
Se18 Sn2 2.581631 1_555
Se19 Sn3 2.581631 1_555
Se20 Sn0 2.569961 1_555
Se21 Sn1 2.569961 1_555
Se22 Sn2 2.569961 1_655
Se23 Sn3 2.569961 1_455
Se24 Sn4 2.558358 1_555
Se25 Sn5 2.558358 1_555
Se26 Sn6 2.558358 1_455
Se27 Sn7 2.558358 1_555
Se28 Sn8 2.558358 1_655
Se29 Sn9 2.558358 1_555
Se30 Sn10 2.558358 1_655
Se31 Sn11 2.558358 1_455
Se32 Sn8 2.569627 1_555
Se33 Sn6 2.569627 1_555
Se34 Sn5 2.569627 1_545
Se35 Sn11 2.569627 1_555
Se36 Sn4 2.569627 1_565
Se37 Sn10 2.569627 1_555
Se38 Sn9 2.569627 1_565
Se39 Sn7 2.569627 1_545
