# generated using pymatgen
data_Ba3HoRu2O9
_symmetry_space_group_name_H-M   'P 1'
_cell_length_a   5.95485327
_cell_length_b   5.95485327
_cell_length_c   14.57557700
_cell_angle_alpha   90.00000000
_cell_angle_beta   90.00000000
_cell_angle_gamma   119.99999192
_symmetry_Int_Tables_number   1
_chemical_formula_structural   Ba3HoRu2O9
_chemical_formula_sum   'Ba6 Ho2 Ru4 O18'
_cell_volume   447.60873494
_cell_formula_units_Z   2
loop_
 _symmetry_equiv_pos_site_id
 _symmetry_equiv_pos_as_xyz
  1  'x, y, z'
loop_
 _atom_site_type_symbol
 _atom_site_label
 _atom_site_symmetry_multiplicity
 _atom_site_fract_x
 _atom_site_fract_y
 _atom_site_fract_z
 _atom_site_occupancy
  Ba  Ba0  1  0.33333300  0.66666700  0.09371300  1
  Ba  Ba1  1  0.66666700  0.33333300  0.90628700  1
  Ba  Ba2  1  0.66666700  0.33333300  0.59371300  1
  Ba  Ba3  1  0.33333300  0.66666700  0.40628700  1
  Ba  Ba4  1  0.00000000  0.00000000  0.25000000  1
  Ba  Ba5  1  0.00000000  0.00000000  0.75000000  1
  Ho  Ho0  1  0.00000000  0.00000000  0.00000000  1
  Ho  Ho1  1  0.00000000  0.00000000  0.50000000  1
  Ru  Ru0  1  0.33333300  0.66666700  0.66378700  1
  Ru  Ru1  1  0.66666700  0.33333300  0.33621300  1
  Ru  Ru2  1  0.66666700  0.33333300  0.16378700  1
  Ru  Ru3  1  0.33333300  0.66666700  0.83621300  1
  O  O0  1  0.17595000  0.35189900  0.58753100  1
  O  O1  1  0.82405000  0.64810100  0.41246900  1
  O  O2  1  0.64810100  0.82405000  0.58753100  1
  O  O3  1  0.82405000  0.64810100  0.08753100  1
  O  O4  1  0.35189900  0.17595000  0.41246900  1
  O  O5  1  0.17595000  0.35189900  0.91246900  1
  O  O6  1  0.17595000  0.82405000  0.58753100  1
  O  O7  1  0.35189900  0.17595000  0.08753100  1
  O  O8  1  0.82405000  0.17595000  0.41246900  1
  O  O9  1  0.64810100  0.82405000  0.91246900  1
  O  O10  1  0.82405000  0.17595000  0.08753100  1
  O  O11  1  0.17595000  0.82405000  0.91246900  1
  O  O12  1  0.51031600  0.02063200  0.25000000  1
  O  O13  1  0.48968400  0.97936800  0.75000000  1
  O  O14  1  0.97936800  0.48968400  0.25000000  1
  O  O15  1  0.02063200  0.51031600  0.75000000  1
  O  O16  1  0.51031600  0.48968400  0.25000000  1
  O  O17  1  0.48968400  0.51031600  0.75000000  1
loop_
_geom_bond_atom_site_label_1
_geom_bond_atom_site_label_2
_geom_bond_distance
_geom_bond_site_symmetry_2
Ba0 O12 2.919128 1_565
Ba0 O14 2.919128 1_455
Ba0 O16 2.919131 1_555
Ba0 O7 2.980328 1_555
Ba0 O3 2.980328 1_555
Ba0 O3 2.980328 1_455
Ba0 O7 2.980328 1_565
Ba0 O10 2.980328 1_455
Ba0 O10 2.980328 1_565
Ba0 O11 3.100606 1_554
Ba0 O9 3.100612 1_554
Ba0 O5 3.100612 1_554
Ba1 O15 2.919128 1_655
Ba1 O13 2.919128 1_545
Ba1 O17 2.919131 1_555
Ba1 O5 2.980328 1_555
Ba1 O9 2.980328 1_555
Ba1 O9 2.980328 1_545
Ba1 O5 2.980328 1_655
Ba1 O11 2.980328 1_545
Ba1 O11 2.980328 1_655
Ba1 O10 3.100606 1_556
Ba1 O3 3.100612 1_556
Ba1 O7 3.100612 1_556
Ba2 O15 2.919128 1_655
Ba2 O13 2.919128 1_545
Ba2 O17 2.919131 1_555
Ba2 O0 2.980328 1_555
Ba2 O2 2.980328 1_555
Ba2 O2 2.980328 1_545
Ba2 O0 2.980328 1_655
Ba2 O6 2.980328 1_545
Ba2 O6 2.980328 1_655
Ba2 O8 3.100606 1_555
Ba2 O1 3.100612 1_555
Ba2 O4 3.100612 1_555
Ba3 O12 2.919128 1_565
Ba3 O14 2.919128 1_455
Ba3 O16 2.919131 1_555
Ba3 O4 2.980328 1_555
Ba3 O1 2.980328 1_555
Ba3 O1 2.980328 1_455
Ba3 O4 2.980328 1_565
Ba3 O8 2.980328 1_455
Ba3 O8 2.980328 1_565
Ba3 O6 3.100606 1_555
Ba3 O2 3.100612 1_555
Ba3 O0 3.100612 1_555
Ba4 O12 2.979327 1_455
Ba4 O14 2.979327 1_455
Ba4 O14 2.979327 1_445
Ba4 O12 2.979327 1_555
Ba4 O16 2.979328 1_555
Ba4 O16 2.979328 1_445
Ba4 O4 2.983482 1_555
Ba4 O7 2.983482 1_555
Ba4 O1 2.983482 1_445
Ba4 O3 2.983482 1_445
Ba4 O10 2.983485 1_455
Ba4 O8 2.983485 1_455
Ba5 O15 2.979327 1_545
Ba5 O13 2.979327 1_545
Ba5 O13 2.979327 1_445
Ba5 O15 2.979327 1_555
Ba5 O17 2.979328 1_555
Ba5 O17 2.979328 1_445
Ba5 O0 2.983482 1_555
Ba5 O5 2.983482 1_555
Ba5 O9 2.983482 1_445
Ba5 O2 2.983482 1_445
Ba5 O6 2.983485 1_545
Ba5 O11 2.983485 1_545
Ho0 O5 2.218348 1_554
Ho0 O7 2.218348 1_555
Ho0 O3 2.218348 1_445
Ho0 O9 2.218348 1_444
Ho0 O10 2.218352 1_455
Ho0 O11 2.218352 1_544
Ho1 O0 2.218348 1_555
Ho1 O4 2.218348 1_555
Ho1 O1 2.218348 1_445
Ho1 O2 2.218348 1_445
Ho1 O6 2.218352 1_545
Ho1 O8 2.218352 1_455
O0 Ru0 1.967334 1_555
O1 Ru1 1.967334 1_555
O2 Ru0 1.967334 1_555
O3 Ru2 1.967334 1_555
O4 Ru1 1.967334 1_555
O5 Ru3 1.967334 1_555
O6 Ru0 1.967325 1_555
O7 Ru2 1.967334 1_555
O8 Ru1 1.967325 1_555
O9 Ru3 1.967334 1_555
O10 Ru2 1.967325 1_555
O11 Ru3 1.967325 1_555
O12 Ru1 2.044403 1_555
O12 Ru2 2.044403 1_555
O13 Ru3 2.044403 1_555
O13 Ru0 2.044403 1_555
O14 Ru1 2.044403 1_555
O14 Ru2 2.044403 1_555
O15 Ru0 2.044403 1_555
O15 Ru3 2.044403 1_555
O16 Ru1 2.044407 1_555
O16 Ru2 2.044407 1_555
O17 Ru3 2.044407 1_555
O17 Ru0 2.044407 1_555
