# generated using pymatgen
data_UP2H10CO11
_symmetry_space_group_name_H-M   'P 1'
_cell_length_a   7.63758900
_cell_length_b   9.73534500
_cell_length_c   14.90394800
_cell_angle_alpha   90.00000000
_cell_angle_beta   90.00000000
_cell_angle_gamma   90.00000000
_symmetry_Int_Tables_number   1
_chemical_formula_structural   UP2H10CO11
_chemical_formula_sum   'U4 P8 H40 C4 O44'
_cell_volume   1108.17655368
_cell_formula_units_Z   4
loop_
 _symmetry_equiv_pos_site_id
 _symmetry_equiv_pos_as_xyz
  1  'x, y, z'
loop_
 _atom_site_type_symbol
 _atom_site_label
 _atom_site_symmetry_multiplicity
 _atom_site_fract_x
 _atom_site_fract_y
 _atom_site_fract_z
 _atom_site_occupancy
  U  U0  1  0.33985100  0.25000000  0.93757500  1
  U  U1  1  0.83985100  0.25000000  0.56242500  1
  U  U2  1  0.66014900  0.75000000  0.06242500  1
  U  U3  1  0.16014900  0.75000000  0.43757500  1
  P  P0  1  0.54451100  0.09391000  0.13293800  1
  P  P1  1  0.04451100  0.40609000  0.36706200  1
  P  P2  1  0.45548900  0.59391000  0.86706200  1
  P  P3  1  0.95548900  0.90609000  0.63293800  1
  P  P4  1  0.45548900  0.90609000  0.86706200  1
  P  P5  1  0.95548900  0.59391000  0.63293800  1
  P  P6  1  0.54451100  0.40609000  0.13293800  1
  P  P7  1  0.04451100  0.09391000  0.36706200  1
  H  H0  1  0.74917700  0.25000000  0.06748000  1
  H  H1  1  0.24917700  0.25000000  0.43252000  1
  H  H2  1  0.25082300  0.75000000  0.93252000  1
  H  H3  1  0.75082300  0.75000000  0.56748000  1
  H  H4  1  0.76355100  0.25000000  0.18704100  1
  H  H5  1  0.26355100  0.25000000  0.31295900  1
  H  H6  1  0.23644900  0.75000000  0.81295900  1
  H  H7  1  0.73644900  0.75000000  0.68704100  1
  H  H8  1  0.29342000  0.16937400  0.73415800  1
  H  H9  1  0.79342000  0.33062600  0.76584200  1
  H  H10  1  0.70658000  0.66937400  0.26584200  1
  H  H11  1  0.20658000  0.83062600  0.23415800  1
  H  H12  1  0.70658000  0.83062600  0.26584200  1
  H  H13  1  0.20658000  0.66937400  0.23415800  1
  H  H14  1  0.29342000  0.33062600  0.73415800  1
  H  H15  1  0.79342000  0.16937400  0.76584200  1
  H  H16  1  0.52358500  0.03579600  0.27846000  1
  H  H17  1  0.02358500  0.46420400  0.22154000  1
  H  H18  1  0.47641500  0.53579600  0.72154000  1
  H  H19  1  0.97641500  0.96420400  0.77846000  1
  H  H20  1  0.47641500  0.96420400  0.72154000  1
  H  H21  1  0.97641500  0.53579600  0.77846000  1
  H  H22  1  0.52358500  0.46420400  0.27846000  1
  H  H23  1  0.02358500  0.03579600  0.22154000  1
  H  H24  1  0.71309600  0.00393200  0.38621500  1
  H  H25  1  0.21309600  0.49606800  0.11378500  1
  H  H26  1  0.28690400  0.50393200  0.61378500  1
  H  H27  1  0.78690400  0.99606800  0.88621500  1
  H  H28  1  0.28690400  0.99606800  0.61378500  1
  H  H29  1  0.78690400  0.50393200  0.88621500  1
  H  H30  1  0.71309600  0.49606800  0.38621500  1
  H  H31  1  0.21309600  0.00393200  0.11378500  1
  H  H32  1  0.54818600  0.90319000  0.39493100  1
  H  H33  1  0.04818600  0.59681000  0.10506900  1
  H  H34  1  0.45181400  0.40319000  0.60506900  1
  H  H35  1  0.95181400  0.09681000  0.89493100  1
  H  H36  1  0.45181400  0.09681000  0.60506900  1
  H  H37  1  0.95181400  0.40319000  0.89493100  1
  H  H38  1  0.54818600  0.59681000  0.39493100  1
  H  H39  1  0.04818600  0.90319000  0.10506900  1
  C  C0  1  0.67234700  0.25000000  0.12984200  1
  C  C1  1  0.17234700  0.25000000  0.37015800  1
  C  C2  1  0.32765300  0.75000000  0.87015800  1
  C  C3  1  0.82765300  0.75000000  0.62984200  1
  O  O0  1  0.57370900  0.25000000  0.91835100  1
  O  O1  1  0.07370900  0.25000000  0.58164900  1
  O  O2  1  0.42629100  0.75000000  0.08164900  1
  O  O3  1  0.92629100  0.75000000  0.41835100  1
  O  O4  1  0.10193100  0.25000000  0.95675500  1
  O  O5  1  0.60193100  0.25000000  0.54324500  1
  O  O6  1  0.89806900  0.75000000  0.04324500  1
  O  O7  1  0.39806900  0.75000000  0.45675500  1
  O  O8  1  0.32924300  0.02575700  0.88353000  1
  O  O9  1  0.82924300  0.47424300  0.61647000  1
  O  O10  1  0.67075700  0.52575700  0.11647000  1
  O  O11  1  0.17075700  0.97424300  0.38353000  1
  O  O12  1  0.67075700  0.97424300  0.11647000  1
  O  O13  1  0.17075700  0.52575700  0.38353000  1
  O  O14  1  0.32924300  0.47424300  0.88353000  1
  O  O15  1  0.82924300  0.02575700  0.61647000  1
  O  O16  1  0.39155900  0.10490100  0.06622300  1
  O  O17  1  0.89155900  0.39509900  0.43377700  1
  O  O18  1  0.60844100  0.60490100  0.93377700  1
  O  O19  1  0.10844100  0.89509900  0.56622300  1
  O  O20  1  0.60844100  0.89509900  0.93377700  1
  O  O21  1  0.10844100  0.60490100  0.56622300  1
  O  O22  1  0.39155900  0.39509900  0.06622300  1
  O  O23  1  0.89155900  0.10490100  0.43377700  1
  O  O24  1  0.27333500  0.25000000  0.77318400  1
  O  O25  1  0.77333500  0.25000000  0.72681600  1
  O  O26  1  0.72666500  0.75000000  0.22681600  1
  O  O27  1  0.22666500  0.75000000  0.27318400  1
  O  O28  1  0.45615000  0.08390400  0.22812200  1
  O  O29  1  0.95615000  0.41609600  0.27187800  1
  O  O30  1  0.54385000  0.58390400  0.77187800  1
  O  O31  1  0.04385000  0.91609600  0.72812200  1
  O  O32  1  0.54385000  0.91609600  0.77187800  1
  O  O33  1  0.04385000  0.58390400  0.72812200  1
  O  O34  1  0.45615000  0.41609600  0.22812200  1
  O  O35  1  0.95615000  0.08390400  0.27187800  1
  O  O36  1  0.62178000  0.95341600  0.35205800  1
  O  O37  1  0.12178000  0.54658400  0.14794200  1
  O  O38  1  0.37822000  0.45341600  0.64794200  1
  O  O39  1  0.87822000  0.04658400  0.85205800  1
  O  O40  1  0.37822000  0.04658400  0.64794200  1
  O  O41  1  0.87822000  0.45341600  0.85205800  1
  O  O42  1  0.62178000  0.54658400  0.35205800  1
  O  O43  1  0.12178000  0.95341600  0.14794200  1
loop_
_geom_bond_atom_site_label_1
_geom_bond_atom_site_label_2
_geom_bond_distance
_geom_bond_site_symmetry_2
H8 O24 0.988909 1_555
H9 O25 0.988909 1_555
H10 O26 0.988909 1_555
H11 O27 0.988909 1_555
H12 O26 0.988909 1_555
H13 O27 0.988909 1_555
H14 O24 0.988909 1_555
H15 O25 0.988909 1_555
H16 O28 1.023459 1_555
H16 O36 1.552047 1_545
H17 O29 1.023459 1_455
H17 O37 1.552047 1_555
H18 O30 1.023459 1_555
H18 O38 1.552047 1_555
H19 O31 1.023459 1_655
H19 O39 1.552047 1_565
H20 O32 1.023459 1_555
H20 O40 1.552047 1_565
H21 O33 1.023459 1_655
H21 O41 1.552047 1_555
H22 O34 1.023459 1_555
H22 O42 1.552047 1_555
H23 O35 1.023459 1_455
H23 O43 1.552047 1_545
H24 O36 0.993695 1_545
H25 O37 0.993695 1_555
H26 O38 0.993695 1_555
H27 O39 0.993695 1_565
H28 O40 0.993695 1_565
H29 O41 0.993695 1_555
H30 O42 0.993695 1_555
H31 O43 0.993695 1_545
H32 O36 0.981486 1_555
H33 O37 0.981486 1_555
H34 O38 0.981486 1_555
H35 O39 0.981486 1_555
H36 O40 0.981486 1_555
H37 O41 0.981486 1_555
H38 O42 0.981486 1_555
H39 O43 0.981486 1_555
C0 H0 1.099176 1_555
C0 H4 1.100892 1_555
C0 P0 1.806809 1_555
C0 P6 1.806809 1_555
C1 H1 1.099176 1_555
C1 H5 1.100892 1_555
C1 P1 1.806809 1_555
C1 P7 1.806809 1_555
C2 H2 1.099176 1_555
C2 H6 1.100892 1_555
C2 P4 1.806809 1_555
C2 P2 1.806809 1_555
C3 H3 1.099176 1_555
C3 H7 1.100892 1_555
C3 P5 1.806809 1_555
C3 P3 1.806809 1_555
O0 U0 1.808945 1_555
O1 U1 1.808945 1_455
O2 U2 1.808945 1_555
O3 U3 1.808945 1_655
O4 U0 1.839482 1_555
O5 U1 1.839482 1_555
O6 U2 1.839482 1_555
O7 U3 1.839482 1_555
O8 P4 1.532049 1_545
O8 U0 2.328351 1_555
O9 P5 1.532049 1_555
O9 U1 2.328351 1_555
O10 P6 1.532049 1_555
O10 U2 2.328351 1_555
O11 P7 1.532049 1_565
O11 U3 2.328351 1_555
O12 P0 1.532049 1_565
O12 U2 2.328351 1_555
O13 P1 1.532049 1_555
O13 U3 2.328351 1_555
O14 P2 1.532049 1_555
O14 U0 2.328351 1_555
O15 P3 1.532049 1_545
O15 U1 2.328351 1_555
O16 P0 1.537781 1_555
O16 U0 2.414053 1_554
O17 P1 1.537781 1_655
O17 U1 2.414053 1_555
O18 P2 1.537781 1_555
O18 U2 2.414053 1_556
O19 P3 1.537781 1_455
O19 U3 2.414053 1_555
O20 P4 1.537781 1_555
O20 U2 2.414053 1_556
O21 P5 1.537781 1_455
O21 U3 2.414053 1_555
O22 P6 1.537781 1_555
O22 U0 2.414053 1_554
O23 P7 1.537781 1_655
O23 U1 2.414053 1_555
O24 U0 2.502190 1_555
O25 U1 2.502190 1_555
O26 U2 2.502190 1_555
O27 U3 2.502190 1_555
O28 P0 1.573978 1_555
O29 P1 1.573978 1_655
O30 P2 1.573978 1_555
O31 P3 1.573978 1_455
O32 P4 1.573978 1_555
O33 P5 1.573978 1_455
O34 P6 1.573978 1_555
O35 P7 1.573978 1_655
