# generated using pymatgen
data_CaV(Si2O7)2
_symmetry_space_group_name_H-M   'P 1'
_cell_length_a   8.60752833
_cell_length_b   8.60752833
_cell_length_c   9.05750600
_cell_angle_alpha   90.00000000
_cell_angle_beta   90.00000000
_cell_angle_gamma   104.01200449
_symmetry_Int_Tables_number   1
_chemical_formula_structural   CaV(Si2O7)2
_chemical_formula_sum   'Ca2 V2 Si8 O28'
_cell_volume   651.09891757
_cell_formula_units_Z   2
loop_
 _symmetry_equiv_pos_site_id
 _symmetry_equiv_pos_as_xyz
  1  'x, y, z'
loop_
 _atom_site_type_symbol
 _atom_site_label
 _atom_site_symmetry_multiplicity
 _atom_site_fract_x
 _atom_site_fract_y
 _atom_site_fract_z
 _atom_site_occupancy
  Ca  Ca0  1  0.22227000  0.22227000  0.79389600  1
  Ca  Ca1  1  0.77773000  0.77773000  0.29389600  1
  V  V0  1  0.95194900  0.95194900  0.61481300  1
  V  V1  1  0.04805100  0.04805100  0.11481300  1
  Si  Si0  1  0.31562500  0.88468800  0.64855200  1
  Si  Si1  1  0.88468800  0.31562500  0.64855200  1
  Si  Si2  1  0.68437500  0.11531200  0.14855200  1
  Si  Si3  1  0.11531200  0.68437500  0.14855200  1
  Si  Si4  1  0.36108200  0.92714000  0.98920600  1
  Si  Si5  1  0.92714100  0.36108200  0.98920700  1
  Si  Si6  1  0.63891800  0.07286000  0.48920600  1
  Si  Si7  1  0.07286000  0.63891800  0.48920600  1
  O  O0  1  0.17778300  0.98775000  0.64500800  1
  O  O1  1  0.98775000  0.17778300  0.64500800  1
  O  O2  1  0.82221700  0.01225000  0.14500800  1
  O  O3  1  0.01225000  0.82221700  0.14500800  1
  O  O4  1  0.22989800  0.03907500  0.99559900  1
  O  O5  1  0.03907500  0.22989800  0.99559900  1
  O  O6  1  0.77010200  0.96092500  0.49559900  1
  O  O7  1  0.96092500  0.77010200  0.49559900  1
  O  O8  1  0.46630500  0.97047700  0.54591000  1
  O  O9  1  0.97047700  0.46630500  0.54591000  1
  O  O10  1  0.53369500  0.02952300  0.04591000  1
  O  O11  1  0.02952300  0.53369500  0.04591000  1
  O  O12  1  0.23374100  0.70475900  0.58844600  1
  O  O13  1  0.70475900  0.23374100  0.58844600  1
  O  O14  1  0.76625900  0.29524100  0.08844600  1
  O  O15  1  0.29524100  0.76625900  0.08844600  1
  O  O16  1  0.38005400  0.88010500  0.81702700  1
  O  O17  1  0.88010500  0.38005400  0.81702700  1
  O  O18  1  0.61994600  0.11989500  0.31702700  1
  O  O19  1  0.11989500  0.61994600  0.31702700  1
  O  O20  1  0.88205200  0.88205200  0.77286500  1
  O  O21  1  0.11794800  0.11794800  0.27286500  1
  O  O22  1  0.48718000  0.39258600  0.83727900  1
  O  O23  1  0.39258600  0.48718000  0.83727900  1
  O  O24  1  0.51282000  0.60741400  0.33727900  1
  O  O25  1  0.60741400  0.51282000  0.33727900  1
  O  O26  1  0.34466700  0.34466700  0.59276100  1
  O  O27  1  0.65533300  0.65533300  0.09276100  1
loop_
_geom_bond_atom_site_label_1
_geom_bond_atom_site_label_2
_geom_bond_distance
_geom_bond_site_symmetry_2
Ca0 O26 2.236353 1_555
Ca0 O0 2.380296 1_545
Ca0 O1 2.380296 1_455
Ca0 O5 2.424579 1_555
Ca0 O4 2.424579 1_555
Ca0 O23 2.425739 1_555
Ca0 O22 2.425739 1_555
Ca1 O27 2.236353 1_555
Ca1 O2 2.380296 1_565
Ca1 O3 2.380296 1_655
Ca1 O7 2.424579 1_555
Ca1 O6 2.424579 1_555
Ca1 O25 2.425739 1_555
Ca1 O24 2.425739 1_555
O0 Si0 1.644815 1_555
O0 V0 1.912675 1_455
O1 Si1 1.644815 1_555
O1 V0 1.912675 1_545
O2 Si2 1.644815 1_555
O2 V1 1.912675 1_655
O3 Si3 1.644815 1_555
O3 V1 1.912675 1_565
O4 Si4 1.653334 1_545
O4 V1 1.918457 1_556
O5 Si5 1.653327 1_455
O5 V1 1.918457 1_556
O6 Si6 1.653334 1_565
O6 V0 1.918457 1_555
O7 Si7 1.653334 1_655
O7 V0 1.918457 1_555
O8 Si6 1.616746 1_565
O8 Si0 1.621101 1_555
O9 Si7 1.616746 1_655
O9 Si1 1.621101 1_555
O10 Si4 1.616746 1_544
O10 Si2 1.621101 1_555
O11 Si5 1.616741 1_454
O11 Si3 1.621101 1_555
O12 Si0 1.631919 1_555
O12 Si7 1.633016 1_555
O13 Si1 1.631919 1_555
O13 Si6 1.633016 1_555
O14 Si2 1.631919 1_555
O14 Si5 1.633017 1_554
O15 Si3 1.631919 1_555
O15 Si4 1.633016 1_554
O16 Si0 1.627350 1_555
O16 Si4 1.629316 1_555
O17 Si1 1.627350 1_555
O17 Si5 1.629327 1_555
O18 Si2 1.627350 1_555
O18 Si6 1.629316 1_555
O19 Si3 1.627350 1_555
O19 Si7 1.629316 1_555
O20 V0 1.611835 1_555
O21 V1 1.611835 1_555
O22 O23 1.283334 1_555
O24 O25 1.283334 1_555
