# generated using pymatgen
data_Na9Sn4
_symmetry_space_group_name_H-M   'P 1'
_cell_length_a   5.37093276
_cell_length_b   5.38526736
_cell_length_c   28.79141688
_cell_angle_alpha   90.00000000
_cell_angle_beta   90.00000000
_cell_angle_gamma   119.91198065
_symmetry_Int_Tables_number   1
_chemical_formula_structural   Na9Sn4
_chemical_formula_sum   'Na18 Sn8'
_cell_volume   721.83039403
_cell_formula_units_Z   2
loop_
 _symmetry_equiv_pos_site_id
 _symmetry_equiv_pos_as_xyz
  1  'x, y, z'
loop_
 _atom_site_type_symbol
 _atom_site_label
 _atom_site_symmetry_multiplicity
 _atom_site_fract_x
 _atom_site_fract_y
 _atom_site_fract_z
 _atom_site_occupancy
  Na  Na0  1  0.83701013  0.67402027  0.75000000  1
  Na  Na1  1  0.16298987  0.32597973  0.25000000  1
  Na  Na2  1  0.16931530  0.33862760  0.59233925  1
  Na  Na3  1  0.83068470  0.66137240  0.40766075  1
  Na  Na4  1  0.83068470  0.66137240  0.09233925  1
  Na  Na5  1  0.16931530  0.33862760  0.90766075  1
  Na  Na6  1  0.50309977  0.00619753  0.82069083  1
  Na  Na7  1  0.49690023  0.99380247  0.17930917  1
  Na  Na8  1  0.49690023  0.99380247  0.32069083  1
  Na  Na9  1  0.50309977  0.00619753  0.67930917  1
  Na  Na10  1  0.16371436  0.32742873  0.36642078  1
  Na  Na11  1  0.83628564  0.67257127  0.63357922  1
  Na  Na12  1  0.83628564  0.67257127  0.86642078  1
  Na  Na13  1  0.16371436  0.32742873  0.13357922  1
  Na  Na14  1  0.16562810  0.33125620  0.48189828  1
  Na  Na15  1  0.83437190  0.66874380  0.51810172  1
  Na  Na16  1  0.83437190  0.66874380  0.98189828  1
  Na  Na17  1  0.16562810  0.33125620  0.01810172  1
  Sn  Sn0  1  0.17010050  0.34020000  0.79873928  1
  Sn  Sn1  1  0.82989950  0.65980000  0.20126072  1
  Sn  Sn2  1  0.82989950  0.65980000  0.29873928  1
  Sn  Sn3  1  0.17010050  0.34020000  0.70126072  1
  Sn  Sn4  1  0.50119487  0.00238873  0.94860531  1
  Sn  Sn5  1  0.49880513  0.99761227  0.05139469  1
  Sn  Sn6  1  0.49880513  0.99761227  0.44860531  1
  Sn  Sn7  1  0.50119487  0.00238873  0.55139469  1
loop_
_geom_bond_atom_site_label_1
_geom_bond_atom_site_label_2
_geom_bond_distance
_geom_bond_site_symmetry_2
Na0 Na11 3.351926 1_555
Na0 Na12 3.351926 1_555
Na0 Sn3 3.407200 1_555
Na0 Sn0 3.407200 1_555
Na0 Sn3 3.407204 1_655
Na0 Sn0 3.407204 1_655
Na0 Sn3 3.411627 1_665
Na0 Sn0 3.411627 1_665
Na0 Na9 3.709229 1_565
Na0 Na6 3.709229 1_565
Na0 Na9 3.709237 1_665
Na0 Na6 3.709237 1_665
Na0 Na6 3.722927 1_555
Na0 Na9 3.722927 1_555
Na1 Na10 3.351926 1_555
Na1 Na13 3.351926 1_555
Na1 Sn2 3.407200 1_555
Na1 Sn1 3.407200 1_555
Na1 Sn2 3.407204 1_455
Na1 Sn1 3.407204 1_455
Na1 Sn2 3.411627 1_445
Na1 Sn1 3.411627 1_445
Na1 Na8 3.709229 1_545
Na1 Na7 3.709229 1_545
Na1 Na8 3.709237 1_445
Na1 Na7 3.709237 1_445
Na1 Na7 3.722927 1_555
Na1 Na8 3.722927 1_555
Na2 Sn3 3.136012 1_555
Na2 Sn7 3.315061 1_565
Na2 Sn7 3.326383 1_555
Na2 Sn7 3.326392 1_455
Na3 Sn2 3.136012 1_555
Na3 Sn6 3.315057 1_545
Na3 Sn6 3.326387 1_555
Na3 Sn6 3.326392 1_655
Na4 Sn1 3.136012 1_555
Na4 Sn5 3.315057 1_545
Na4 Sn5 3.326387 1_555
Na4 Sn5 3.326392 1_655
Na5 Sn0 3.136012 1_555
Na5 Sn4 3.315061 1_565
Na5 Sn4 3.326383 1_555
Na5 Sn4 3.326392 1_455
Na6 Sn0 3.168901 1_655
Na6 Sn0 3.168905 1_555
Na6 Sn0 3.172409 1_545
Na7 Sn1 3.168901 1_455
Na7 Sn1 3.168905 1_555
Na7 Sn1 3.172409 1_565
Na8 Sn2 3.168901 1_455
Na8 Sn2 3.168905 1_555
Na8 Sn2 3.172409 1_565
Na9 Sn3 3.168901 1_655
Na9 Sn3 3.168905 1_555
Na9 Sn3 3.172409 1_545
Na10 Na3 3.324368 1_555
Na10 Na3 3.324380 1_455
Na10 Na14 3.324809 1_555
Na10 Na3 3.328102 1_445
Na10 Na8 3.372019 1_545
Na10 Na8 3.372028 1_445
Na10 Na8 3.377747 1_555
Na10 Sn2 3.662789 1_555
Na10 Sn2 3.662793 1_455
Na10 Sn2 3.675508 1_445
Na11 Na2 3.324368 1_555
Na11 Na2 3.324380 1_655
Na11 Na15 3.324809 1_555
Na11 Na2 3.328102 1_665
Na11 Na9 3.372019 1_565
Na11 Na9 3.372028 1_665
Na11 Na9 3.377747 1_555
Na11 Sn3 3.662789 1_555
Na11 Sn3 3.662793 1_655
Na11 Sn3 3.675508 1_665
Na12 Na5 3.324368 1_555
Na12 Na5 3.324380 1_655
Na12 Na16 3.324809 1_555
Na12 Na5 3.328102 1_665
Na12 Na6 3.372019 1_565
Na12 Na6 3.372028 1_665
Na12 Na6 3.377747 1_555
Na12 Sn0 3.662789 1_555
Na12 Sn0 3.662793 1_655
Na12 Sn0 3.675508 1_665
Na13 Na4 3.324368 1_555
Na13 Na4 3.324380 1_455
Na13 Na17 3.324809 1_555
Na13 Na4 3.328102 1_445
Na13 Na7 3.372019 1_545
Na13 Na7 3.372028 1_445
Na13 Na7 3.377747 1_555
Na13 Sn1 3.662789 1_555
Na13 Sn1 3.662793 1_455
Na13 Sn1 3.675508 1_445
Na14 Na2 3.179938 1_555
Na14 Sn6 3.249012 1_545
Na14 Sn6 3.249021 1_445
Na14 Sn6 3.254838 1_555
Na14 Na15 3.263486 1_445
Na14 Na15 3.283288 1_455
Na14 Na15 3.283289 1_555
Na15 Na3 3.179938 1_555
Na15 Sn7 3.249016 1_565
Na15 Sn7 3.249021 1_665
Na15 Sn7 3.254833 1_555
Na16 Na4 3.179938 1_556
Na16 Sn4 3.249016 1_565
Na16 Sn4 3.249021 1_665
Na16 Sn4 3.254833 1_555
Na16 Na17 3.263486 1_666
Na16 Na17 3.283288 1_656
Na16 Na17 3.283289 1_556
Na17 Na5 3.179938 1_554
Na17 Sn5 3.249012 1_545
Na17 Sn5 3.249021 1_445
Na17 Sn5 3.254838 1_555
Sn0 Sn3 2.806546 1_555
Sn1 Sn2 2.806546 1_555
Sn4 Sn5 2.959536 1_546
Sn6 Sn7 2.959536 1_565
