# generated using pymatgen
data_SmGa4Ni
_symmetry_space_group_name_H-M   'P 1'
_cell_length_a   4.18250700
_cell_length_b   6.53712000
_cell_length_c   7.99346642
_cell_angle_alpha   90.00000000
_cell_angle_beta   105.16622615
_cell_angle_gamma   90.00000000
_symmetry_Int_Tables_number   1
_chemical_formula_structural   SmGa4Ni
_chemical_formula_sum   'Sm2 Ga8 Ni2'
_cell_volume   210.94172732
_cell_formula_units_Z   2
loop_
 _symmetry_equiv_pos_site_id
 _symmetry_equiv_pos_as_xyz
  1  'x, y, z'
loop_
 _atom_site_type_symbol
 _atom_site_label
 _atom_site_symmetry_multiplicity
 _atom_site_fract_x
 _atom_site_fract_y
 _atom_site_fract_z
 _atom_site_occupancy
  Sm  Sm0  1  0.88254000  0.25000000  0.76507900  1
  Sm  Sm1  1  0.11746000  0.75000000  0.23492100  1
  Ga  Ga0  1  0.50000000  0.00000000  0.00000000  1
  Ga  Ga1  1  0.50000000  0.50000000  0.00000000  1
  Ga  Ga2  1  0.07260300  0.25000000  0.14520700  1
  Ga  Ga3  1  0.92739700  0.75000000  0.85479300  1
  Ga  Ga4  1  0.68619500  0.05215100  0.37239000  1
  Ga  Ga5  1  0.31380500  0.94784900  0.62761000  1
  Ga  Ga6  1  0.68619500  0.44784900  0.37239000  1
  Ga  Ga7  1  0.31380500  0.55215100  0.62761000  1
  Ni  Ni0  1  0.22400800  0.25000000  0.44801600  1
  Ni  Ni1  1  0.77599200  0.75000000  0.55198400  1
loop_
_geom_bond_atom_site_label_1
_geom_bond_atom_site_label_2
_geom_bond_distance
_geom_bond_site_symmetry_2
Ga0 Ga2 2.880839 1_655
Ga0 Ga3 2.880839 1_444
Ga0 Ga2 2.880842 1_555
Ga0 Ga3 2.880842 1_544
Ga0 Ga4 2.893168 1_555
Ga0 Ga5 2.893168 1_544
Ga0 Sm1 3.213893 1_645
Ga0 Sm0 3.213893 1_454
Ga0 Sm1 3.213895 1_545
Ga0 Sm0 3.213895 1_554
Ga1 Ga2 2.880839 1_655
Ga1 Ga3 2.880839 1_454
Ga1 Ga2 2.880842 1_555
Ga1 Ga3 2.880842 1_554
Ga1 Ga7 2.893168 1_554
Ga1 Ga6 2.893168 1_555
Ga1 Sm1 3.213893 1_655
Ga1 Sm0 3.213893 1_454
Ga1 Sm1 3.213895 1_555
Ga1 Sm0 3.213895 1_554
Ga2 Ni0 2.336190 1_555
Ga2 Sm0 2.932711 1_454
Ga2 Ga6 3.019633 1_455
Ga2 Ga4 3.019633 1_455
Ga2 Ga6 3.019636 1_555
Ga2 Ga4 3.019636 1_555
Ga2 Sm1 3.341041 1_555
Ga2 Sm1 3.341041 1_545
Ga3 Ni1 2.336190 1_555
Ga3 Sm1 2.932711 1_656
Ga3 Ga5 3.019633 1_655
Ga3 Ga7 3.019633 1_655
Ga3 Ga5 3.019636 1_555
Ga3 Ga7 3.019636 1_555
Ga3 Sm0 3.341041 1_555
Ga3 Sm0 3.341041 1_565
Ga4 Ni1 2.412723 1_545
Ga4 Ni0 2.527163 1_555
Ga4 Ni0 2.527163 1_655
Ga4 Ga6 2.586725 1_555
Ga4 Ga5 2.952177 1_545
Ga4 Ga5 2.952177 1_645
Ga4 Sm1 3.065872 1_645
Ga4 Sm1 3.065875 1_545
Ga4 Sm0 3.294144 1_555
Ga5 Ni0 2.412723 1_565
Ga5 Ni1 2.527163 1_555
Ga5 Ni1 2.527163 1_455
Ga5 Ga7 2.586725 1_555
Ga5 Sm0 3.065872 1_465
Ga5 Sm0 3.065875 1_565
Ga5 Sm1 3.294144 1_555
Ga6 Ni1 2.412723 1_555
Ga6 Ni0 2.527163 1_555
Ga6 Ni0 2.527163 1_655
Ga6 Ga7 2.952177 1_555
Ga6 Ga7 2.952177 1_655
Ga6 Sm1 3.065872 1_655
Ga6 Sm1 3.065875 1_555
Ga6 Sm0 3.294144 1_555
Ga7 Ni0 2.412723 1_555
Ga7 Ni1 2.527163 1_555
Ga7 Ni1 2.527163 1_455
Ga7 Sm0 3.065872 1_455
Ga7 Sm0 3.065875 1_555
Ga7 Sm1 3.294144 1_555
Ni0 Sm0 3.218234 1_455
Ni0 Sm0 3.218237 1_555
Ni1 Sm1 3.218234 1_655
Ni1 Sm1 3.218237 1_555
