# generated using pymatgen
data_NaCoN
_symmetry_space_group_name_H-M   'P 1'
_cell_length_a   10.39360097
_cell_length_b   10.39360097
_cell_length_c   6.35797453
_cell_angle_alpha   72.50565468
_cell_angle_beta   72.50565468
_cell_angle_gamma   19.21396836
_symmetry_Int_Tables_number   1
_chemical_formula_structural   NaCoN
_chemical_formula_sum   'Na4 Co4 N4'
_cell_volume   215.27257108
_cell_formula_units_Z   4
loop_
 _symmetry_equiv_pos_site_id
 _symmetry_equiv_pos_as_xyz
  1  'x, y, z'
loop_
 _atom_site_type_symbol
 _atom_site_label
 _atom_site_symmetry_multiplicity
 _atom_site_fract_x
 _atom_site_fract_y
 _atom_site_fract_z
 _atom_site_occupancy
  Na  Na0  1  0.69376900  0.69376900  0.83890000  1
  Na  Na1  1  0.30623100  0.30623100  0.16110000  1
  Na  Na2  1  0.46187900  0.46187900  0.80570900  1
  Na  Na3  1  0.53812100  0.53812100  0.19429100  1
  Co  Co0  1  0.60859900  0.60859900  0.53300600  1
  Co  Co1  1  0.39140100  0.39140100  0.46699400  1
  Co  Co2  1  0.83914000  0.83914000  0.69800900  1
  Co  Co3  1  0.16086000  0.16086000  0.30199100  1
  N  N0  1  0.58223800  0.58223800  0.80237100  1
  N  N1  1  0.41776200  0.41776200  0.19762900  1
  N  N2  1  0.32892300  0.32892300  0.75130700  1
  N  N3  1  0.67107700  0.67107700  0.24869300  1
loop_
_geom_bond_atom_site_label_1
_geom_bond_atom_site_label_2
_geom_bond_distance
_geom_bond_site_symmetry_2
Co0 N0 1.631176 1_555
Co0 N3 1.869730 1_555
Co1 N1 1.631176 1_555
Co1 N2 1.869730 1_555
Co2 N2 1.767532 1_565
Co2 N2 1.767532 1_655
Co3 N3 1.767532 1_455
Co3 N3 1.767532 1_545
N0 Na0 2.367071 1_555
N0 Na3 2.377572 1_556
N0 Na2 2.460451 1_555
N1 Na1 2.367071 1_555
N1 Na2 2.377572 1_554
N1 Na3 2.460451 1_555
N2 Na1 2.503156 1_556
N3 Na0 2.503156 1_554
