# generated using pymatgen
data_La2CoSb4
_symmetry_space_group_name_H-M   'P 1'
_cell_length_a   4.44489400
_cell_length_b   4.44489400
_cell_length_c   9.87223300
_cell_angle_alpha   90.00000000
_cell_angle_beta   90.00000000
_cell_angle_gamma   90.00000000
_symmetry_Int_Tables_number   1
_chemical_formula_structural   La2CoSb4
_chemical_formula_sum   'La2 Co1 Sb4'
_cell_volume   195.04652353
_cell_formula_units_Z   1
loop_
 _symmetry_equiv_pos_site_id
 _symmetry_equiv_pos_as_xyz
  1  'x, y, z'
loop_
 _atom_site_type_symbol
 _atom_site_label
 _atom_site_symmetry_multiplicity
 _atom_site_fract_x
 _atom_site_fract_y
 _atom_site_fract_z
 _atom_site_occupancy
  La  La0  1  0.50000000  0.00000000  0.76310000  1
  La  La1  1  0.00000000  0.50000000  0.23690000  1
  Co  Co0  1  0.50000000  0.50000000  0.00000000  1
  Sb  Sb0  1  0.50000000  0.00000000  0.11604600  1
  Sb  Sb1  1  0.00000000  0.50000000  0.88395400  1
  Sb  Sb2  1  0.50000000  0.50000000  0.50000000  1
  Sb  Sb3  1  0.00000000  0.00000000  0.50000000  1
loop_
_geom_bond_atom_site_label_1
_geom_bond_atom_site_label_2
_geom_bond_distance
_geom_bond_site_symmetry_2
La0 Sb1 3.361849 1_645
La0 Sb1 3.361849 1_555
La0 Sb1 3.361849 1_655
La0 Sb1 3.361849 1_545
La0 Sb2 3.418432 1_555
La0 Sb3 3.418432 1_555
La0 Sb2 3.418432 1_545
La0 Sb3 3.418432 1_655
La0 Sb0 3.484365 1_556
La1 Sb0 3.361849 1_555
La1 Sb0 3.361849 1_565
La1 Sb0 3.361849 1_455
La1 Sb0 3.361849 1_465
La1 Sb2 3.418432 1_555
La1 Sb3 3.418432 1_555
La1 Sb3 3.418432 1_565
La1 Sb2 3.418432 1_455
La1 Sb1 3.484365 1_554
Co0 Sb0 2.500349 1_555
Co0 Sb0 2.500349 1_565
Co0 Sb1 2.500349 1_554
Co0 Sb1 2.500349 1_654
Co0 La0 3.226289 1_554
Co0 La1 3.226289 1_655
Co0 La1 3.226289 1_555
Co0 La0 3.226289 1_564
Sb2 Sb3 3.143015 1_565
Sb2 Sb3 3.143015 1_655
Sb2 Sb3 3.143015 1_665
Sb2 Sb3 3.143015 1_555
