# generated using pymatgen
data_MgSiO3
_symmetry_space_group_name_H-M   'P 1'
_cell_length_a   5.12991500
_cell_length_b   8.95256200
_cell_length_c   18.53411000
_cell_angle_alpha   90.00000000
_cell_angle_beta   90.00000000
_cell_angle_gamma   90.00000000
_symmetry_Int_Tables_number   1
_chemical_formula_structural   MgSiO3
_chemical_formula_sum   'Mg16 Si16 O48'
_cell_volume   851.19535054
_cell_formula_units_Z   16
loop_
 _symmetry_equiv_pos_site_id
 _symmetry_equiv_pos_as_xyz
  1  'x, y, z'
loop_
 _atom_site_type_symbol
 _atom_site_label
 _atom_site_symmetry_multiplicity
 _atom_site_fract_x
 _atom_site_fract_y
 _atom_site_fract_z
 _atom_site_occupancy
  Mg  Mg0  1  0.10101400  0.59668700  0.87552000  1
  Mg  Mg1  1  0.89898600  0.40331300  0.37552000  1
  Mg  Mg2  1  0.39898600  0.59668700  0.37552000  1
  Mg  Mg3  1  0.60101400  0.40331300  0.87552000  1
  Mg  Mg4  1  0.10207300  0.23076900  0.87640600  1
  Mg  Mg5  1  0.89792700  0.76923100  0.37640600  1
  Mg  Mg6  1  0.39792700  0.23076900  0.37640600  1
  Mg  Mg7  1  0.60207300  0.76923100  0.87640600  1
  Mg  Mg8  1  0.80621300  0.90211800  0.12572300  1
  Mg  Mg9  1  0.19378700  0.09788200  0.62572300  1
  Mg  Mg10  1  0.69378700  0.90211800  0.62572300  1
  Mg  Mg11  1  0.30621300  0.09788200  0.12572300  1
  Mg  Mg12  1  0.30435400  0.73487900  0.12092600  1
  Mg  Mg13  1  0.69564600  0.26512100  0.62092600  1
  Mg  Mg14  1  0.19564600  0.73487900  0.62092600  1
  Mg  Mg15  1  0.80435400  0.26512100  0.12092600  1
  Si  Si0  1  0.97208700  0.40978000  0.72857200  1
  Si  Si1  1  0.02791300  0.59022000  0.22857200  1
  Si  Si2  1  0.52791300  0.40978000  0.22857200  1
  Si  Si3  1  0.47208700  0.59022000  0.72857200  1
  Si  Si4  1  0.03209700  0.90878100  0.77279100  1
  Si  Si5  1  0.96790300  0.09121900  0.27279100  1
  Si  Si6  1  0.46790300  0.90878100  0.27279100  1
  Si  Si7  1  0.53209700  0.09121900  0.77279100  1
  Si  Si8  1  0.24362800  0.41148000  0.52551500  1
  Si  Si9  1  0.75637200  0.58852000  0.02551500  1
  Si  Si10  1  0.25637200  0.41148000  0.02551500  1
  Si  Si11  1  0.74362800  0.58852000  0.52551500  1
  Si  Si12  1  0.85263700  0.08896300  0.47464000  1
  Si  Si13  1  0.14736300  0.91103700  0.97464000  1
  Si  Si14  1  0.64736300  0.08896300  0.97464000  1
  Si  Si15  1  0.35263700  0.91103700  0.47464000  1
  O  O0  1  0.95340100  0.41019000  0.81655700  1
  O  O1  1  0.04659900  0.58981100  0.31655700  1
  O  O2  1  0.54659900  0.41019000  0.31655700  1
  O  O3  1  0.45340100  0.58981100  0.81655700  1
  O  O4  1  0.01279800  0.25542200  0.68666200  1
  O  O5  1  0.98720200  0.74457800  0.18666200  1
  O  O6  1  0.48720200  0.25542200  0.18666200  1
  O  O7  1  0.51279800  0.74457800  0.68666200  1
  O  O8  1  0.17626400  0.53994700  0.69802600  1
  O  O9  1  0.82373600  0.46005300  0.19802600  1
  O  O10  1  0.32373600  0.53994700  0.19802600  1
  O  O11  1  0.67626400  0.46005300  0.69802600  1
  O  O12  1  0.03080500  0.90833000  0.68439100  1
  O  O13  1  0.96919500  0.09167000  0.18439100  1
  O  O14  1  0.46919500  0.90833000  0.18439100  1
  O  O15  1  0.53080500  0.09167000  0.68439100  1
  O  O16  1  0.92533500  0.76098200  0.81267200  1
  O  O17  1  0.07466500  0.23901800  0.31267200  1
  O  O18  1  0.57466500  0.76098200  0.31267200  1
  O  O19  1  0.42533500  0.23901800  0.81267200  1
  O  O20  1  0.83622500  0.04971800  0.80089700  1
  O  O21  1  0.16377500  0.95028200  0.30089700  1
  O  O22  1  0.66377500  0.04971800  0.30089700  1
  O  O23  1  0.33622500  0.95028200  0.80089700  1
  O  O24  1  0.23912500  0.40867400  0.43724700  1
  O  O25  1  0.76087500  0.59132600  0.93724700  1
  O  O26  1  0.26087500  0.40867400  0.93724700  1
  O  O27  1  0.73912500  0.59132600  0.43724700  1
  O  O28  1  0.36099100  0.26767400  0.56591700  1
  O  O29  1  0.63900900  0.73232600  0.06591700  1
  O  O30  1  0.13900900  0.26767400  0.06591700  1
  O  O31  1  0.86099100  0.73232600  0.56591700  1
  O  O32  1  0.93285200  0.44334100  0.55240300  1
  O  O33  1  0.06714800  0.55665900  0.05240300  1
  O  O34  1  0.56714800  0.44334100  0.05240300  1
  O  O35  1  0.43285200  0.55665900  0.55240300  1
  O  O36  1  0.85699700  0.09026300  0.56288500  1
  O  O37  1  0.14300300  0.90973700  0.06288500  1
  O  O38  1  0.64300300  0.09026300  0.06288500  1
  O  O39  1  0.35699700  0.90973700  0.56288500  1
  O  O40  1  0.73376000  0.23211600  0.43432600  1
  O  O41  1  0.26624000  0.76788400  0.93432600  1
  O  O42  1  0.76624000  0.23211600  0.93432600  1
  O  O43  1  0.23376000  0.76788400  0.43432600  1
  O  O44  1  0.16453800  0.05728800  0.44792400  1
  O  O45  1  0.83546200  0.94271200  0.94792400  1
  O  O46  1  0.33546200  0.05728800  0.94792400  1
  O  O47  1  0.66453800  0.94271200  0.44792400  1
loop_
_geom_bond_atom_site_label_1
_geom_bond_atom_site_label_2
_geom_bond_distance
_geom_bond_site_symmetry_2
Mg0 O41 2.062852 1_555
Mg0 O16 2.081456 1_455
Mg0 O25 2.087052 1_455
Mg0 O3 2.113266 1_555
Mg0 O0 2.134323 1_455
Mg0 O26 2.194206 1_555
Mg1 O40 2.062852 1_555
Mg1 O17 2.081456 1_655
Mg1 O24 2.087052 1_655
Mg1 O2 2.113267 1_555
Mg1 O1 2.134330 1_655
Mg1 O27 2.194206 1_555
Mg2 O43 2.062852 1_555
Mg2 O18 2.081456 1_555
Mg2 O27 2.087052 1_555
Mg2 O1 2.113266 1_555
Mg2 O2 2.134323 1_555
Mg2 O24 2.194206 1_555
Mg3 O42 2.062852 1_555
Mg3 O19 2.081456 1_555
Mg3 O26 2.087052 1_555
Mg3 O0 2.113267 1_555
Mg3 O3 2.134330 1_555
Mg3 O25 2.194206 1_555
Mg4 O42 2.029916 1_455
Mg4 O19 2.037350 1_555
Mg4 O0 2.095765 1_455
Mg4 O26 2.114689 1_555
Mg4 O46 2.366975 1_555
Mg4 O20 2.538836 1_455
Mg5 O43 2.029916 1_655
Mg5 O18 2.037350 1_555
Mg5 O1 2.095758 1_655
Mg5 O27 2.114689 1_555
Mg5 O47 2.366975 1_555
Mg5 O21 2.538836 1_655
Mg6 O40 2.029916 1_555
Mg6 O17 2.037350 1_555
Mg6 O2 2.095765 1_555
Mg6 O24 2.114689 1_555
Mg6 O44 2.366975 1_555
Mg6 O22 2.538836 1_555
Mg7 O41 2.029916 1_555
Mg7 O16 2.037350 1_555
Mg7 O3 2.095758 1_555
Mg7 O25 2.114689 1_555
Mg7 O45 2.366975 1_555
Mg7 O23 2.538836 1_555
Mg8 O5 2.031473 1_555
Mg8 O14 2.043146 1_555
Mg8 O29 2.067609 1_555
Mg8 O37 2.084710 1_655
Mg8 O13 2.181998 1_565
Mg8 O38 2.212358 1_565
Mg9 O4 2.031473 1_555
Mg9 O15 2.043146 1_555
Mg9 O28 2.067609 1_555
Mg9 O36 2.084710 1_455
Mg9 O12 2.181998 1_545
Mg9 O39 2.212358 1_545
Mg10 O7 2.031473 1_555
Mg10 O12 2.043146 1_655
Mg10 O31 2.067609 1_555
Mg10 O39 2.084710 1_555
Mg10 O15 2.181998 1_565
Mg10 O36 2.212358 1_565
Mg11 O6 2.031473 1_555
Mg11 O13 2.043146 1_455
Mg11 O30 2.067609 1_555
Mg11 O38 2.084710 1_555
Mg11 O14 2.181998 1_545
Mg11 O37 2.212358 1_545
Mg12 O29 1.996804 1_555
Mg12 O5 2.034440 1_455
Mg12 O37 2.071929 1_555
Mg12 O14 2.123667 1_555
Mg12 O10 2.257739 1_555
Mg12 O33 2.374732 1_555
Mg13 O28 1.996804 1_555
Mg13 O4 2.034440 1_655
Mg13 O36 2.071929 1_555
Mg13 O15 2.123667 1_555
Mg13 O11 2.257739 1_555
Mg13 O32 2.374732 1_555
Mg14 O31 1.996804 1_455
Mg14 O7 2.034440 1_555
Mg14 O39 2.071929 1_555
Mg14 O12 2.123667 1_555
Mg14 O8 2.257739 1_555
Mg14 O35 2.374732 1_555
Mg15 O30 1.996804 1_655
Mg15 O6 2.034440 1_555
Mg15 O38 2.071929 1_555
Mg15 O13 2.123667 1_555
Mg15 O9 2.257739 1_555
Mg15 O34 2.374732 1_555
O0 Si0 1.633543 1_555
O1 Si1 1.633543 1_555
O2 Si2 1.633543 1_555
O3 Si3 1.633543 1_555
O4 Si0 1.598945 1_455
O5 Si1 1.598945 1_655
O6 Si2 1.598945 1_555
O7 Si3 1.598945 1_555
O8 Si0 1.666006 1_455
O8 Si3 1.681080 1_555
O9 Si1 1.666006 1_655
O9 Si2 1.681080 1_555
O10 Si2 1.666006 1_555
O10 Si1 1.681080 1_555
O11 Si3 1.666006 1_555
O11 Si0 1.681080 1_555
O12 Si4 1.638434 1_555
O13 Si5 1.638434 1_555
O14 Si6 1.638434 1_555
O15 Si7 1.638434 1_555
O16 Si4 1.611556 1_655
O17 Si5 1.611556 1_455
O18 Si6 1.611556 1_555
O19 Si7 1.611556 1_555
O20 Si7 1.686259 1_555
O20 Si4 1.694993 1_645
O21 Si6 1.686259 1_555
O21 Si5 1.694993 1_465
O22 Si5 1.686259 1_555
O22 Si6 1.694993 1_545
O23 Si4 1.686259 1_555
O23 Si7 1.694993 1_565
O24 Si8 1.636325 1_555
O25 Si9 1.636325 1_556
O26 Si10 1.636325 1_556
O27 Si11 1.636325 1_555
O28 Si8 1.606451 1_555
O29 Si9 1.606451 1_555
O30 Si10 1.606451 1_555
O31 Si11 1.606451 1_555
O32 Si8 1.694507 1_655
O32 Si11 1.697025 1_555
O33 Si9 1.694507 1_455
O33 Si10 1.697025 1_555
O34 Si10 1.694507 1_555
O34 Si9 1.697025 1_555
O35 Si11 1.694507 1_555
O35 Si8 1.697025 1_555
O36 Si12 1.635737 1_555
O37 Si13 1.635737 1_554
O38 Si14 1.635737 1_554
O39 Si15 1.635737 1_555
O40 Si12 1.603945 1_555
O41 Si13 1.603945 1_555
O42 Si14 1.603945 1_555
O43 Si15 1.603945 1_555
O44 Si12 1.698728 1_455
O44 Si15 1.700175 1_545
O45 Si13 1.698728 1_655
O45 Si14 1.700175 1_565
O46 Si14 1.698728 1_555
O46 Si13 1.700175 1_545
O47 Si15 1.698728 1_555
O47 Si12 1.700175 1_565
