# generated using pymatgen
data_Er5Tl3
_symmetry_space_group_name_H-M   'P 1'
_cell_length_a   6.55745049
_cell_length_b   8.87284045
_cell_length_c   8.87291380
_cell_angle_alpha   119.99936749
_cell_angle_beta   90.00000000
_cell_angle_gamma   90.00000000
_symmetry_Int_Tables_number   1
_chemical_formula_structural   Er5Tl3
_chemical_formula_sum   'Er10 Tl6'
_cell_volume   447.09246873
_cell_formula_units_Z   2
loop_
 _symmetry_equiv_pos_site_id
 _symmetry_equiv_pos_as_xyz
  1  'x, y, z'
loop_
 _atom_site_type_symbol
 _atom_site_label
 _atom_site_symmetry_multiplicity
 _atom_site_fract_x
 _atom_site_fract_y
 _atom_site_fract_z
 _atom_site_occupancy
  Er  Er0  1  0.49999532  0.33328558  0.66657656  1
  Er  Er1  1  0.49999425  0.66669878  0.33342236  1
  Er  Er2  1  0.99999532  0.66671442  0.33342344  1
  Er  Er3  1  0.99999425  0.33330122  0.66657764  1
  Er  Er4  1  0.75001015  0.23567601  0.00000264  1
  Er  Er5  1  0.75000193  0.76433175  0.76428448  1
  Er  Er6  1  0.75000339  0.00004967  0.23570983  1
  Er  Er7  1  0.25001015  0.76432399  0.99999736  1
  Er  Er8  1  0.25000193  0.23566825  0.23571552  1
  Er  Er9  1  0.25000339  0.99995033  0.76429017  1
  Tl  Tl0  1  0.74999536  0.59819343  0.00000011  1
  Tl  Tl1  1  0.74999944  0.40182150  0.40181760  1
  Tl  Tl2  1  0.74999915  0.00000321  0.59818094  1
  Tl  Tl3  1  0.24999536  0.40180657  -0.00000011  1
  Tl  Tl4  1  0.24999944  0.59817850  0.59818240  1
  Tl  Tl5  1  0.24999915  -0.00000321  0.40181906  1
loop_
_geom_bond_atom_site_label_1
_geom_bond_atom_site_label_2
_geom_bond_distance
_geom_bond_site_symmetry_2
Er0 Tl5 3.162956 1_555
Er0 Tl1 3.163003 1_555
Er0 Tl2 3.163244 1_555
Er0 Tl4 3.163250 1_555
Er0 Tl3 3.163995 1_556
Er0 Tl0 3.164019 1_556
Er0 Er3 3.278718 1_555
Er0 Er3 3.278732 1_455
Er0 Er8 3.839486 1_555
Er0 Er6 3.839550 1_555
Er0 Er9 3.840682 1_545
Er0 Er5 3.840724 1_555
Er0 Er7 3.840850 1_555
Er0 Er4 3.840912 1_556
Er1 Tl4 3.162901 1_555
Er1 Tl2 3.163067 1_565
Er1 Tl1 3.163170 1_555
Er1 Tl5 3.163328 1_565
Er1 Tl3 3.163971 1_555
Er1 Tl0 3.164029 1_555
Er1 Er2 3.278718 1_455
Er1 Er2 3.278732 1_555
Er1 Er5 3.839496 1_555
Er1 Er9 3.839546 1_555
Er1 Er8 3.840564 1_555
Er1 Er6 3.840847 1_565
Er1 Er4 3.840849 1_555
Er1 Er7 3.840902 1_554
Er2 Tl2 3.162956 1_565
Er2 Tl4 3.163003 1_655
Er2 Tl5 3.163244 1_665
Er2 Tl1 3.163250 1_555
Er2 Tl0 3.163995 1_555
Er2 Tl3 3.164019 1_655
Er2 Er5 3.839486 1_555
Er2 Er9 3.839550 1_655
Er2 Er6 3.840682 1_565
Er2 Er8 3.840724 1_655
Er2 Er4 3.840850 1_555
Er2 Er7 3.840912 1_654
Er3 Tl1 3.162901 1_555
Er3 Tl5 3.163067 1_655
Er3 Tl4 3.163170 1_655
Er3 Tl2 3.163328 1_555
Er3 Tl0 3.163971 1_556
Er3 Tl3 3.164029 1_656
Er3 Er8 3.839496 1_655
Er3 Er6 3.839546 1_555
Er3 Er5 3.840564 1_555
Er3 Er9 3.840847 1_645
Er3 Er7 3.840849 1_655
Er3 Er4 3.840902 1_556
Er4 Tl1 3.102999 1_555
Er4 Tl2 3.103054 1_554
Er4 Tl0 3.216570 1_555
Er4 Tl3 3.594755 1_655
Er4 Tl3 3.594932 1_555
Er4 Er6 3.621780 1_555
Er4 Er5 3.621882 1_544
Er4 Er8 3.888963 1_655
Er4 Er9 3.888988 1_644
Er4 Er8 3.889054 1_555
Er4 Er9 3.889063 1_544
Er5 Tl2 3.102670 1_565
Er5 Tl0 3.103284 1_556
Er5 Tl1 3.216347 1_555
Er5 Tl4 3.594821 1_655
Er5 Tl4 3.594851 1_555
Er5 Er6 3.622535 1_566
Er5 Er9 3.888509 1_555
Er5 Er9 3.888525 1_655
Er5 Er7 3.888963 1_555
Er5 Er7 3.889054 1_655
Er6 Tl1 3.102655 1_555
Er6 Tl0 3.103314 1_545
Er6 Tl2 3.216381 1_555
Er6 Tl5 3.594837 1_655
Er6 Tl5 3.594887 1_555
Er6 Er8 3.888509 1_655
Er6 Er8 3.888525 1_555
Er6 Er7 3.888988 1_544
Er6 Er7 3.889063 1_644
Er7 Tl4 3.102999 1_555
Er7 Tl5 3.103054 1_566
Er7 Tl3 3.216570 1_556
Er7 Tl0 3.594755 1_556
Er7 Tl0 3.594932 1_456
Er7 Er9 3.621780 1_555
Er7 Er8 3.621882 1_566
Er8 Tl5 3.102670 1_555
Er8 Tl3 3.103284 1_555
Er8 Tl4 3.216347 1_555
Er8 Tl1 3.594821 1_555
Er8 Tl1 3.594851 1_455
Er8 Er9 3.622535 1_544
Er9 Tl4 3.102655 1_555
Er9 Tl3 3.103314 1_566
Er9 Tl5 3.216381 1_565
Er9 Tl2 3.594837 1_565
Er9 Tl2 3.594887 1_465
