# generated using pymatgen
data_Li9Mn2Co5O16
_symmetry_space_group_name_H-M   'P 1'
_cell_length_a   5.82118900
_cell_length_b   5.89091316
_cell_length_c   9.80561122
_cell_angle_alpha   80.26198582
_cell_angle_beta   81.45058548
_cell_angle_gamma   60.41384324
_symmetry_Int_Tables_number   1
_chemical_formula_structural   Li9Mn2Co5O16
_chemical_formula_sum   'Li9 Mn2 Co5 O16'
_cell_volume   287.36522230
_cell_formula_units_Z   1
loop_
 _symmetry_equiv_pos_site_id
 _symmetry_equiv_pos_as_xyz
  1  'x, y, z'
loop_
 _atom_site_type_symbol
 _atom_site_label
 _atom_site_symmetry_multiplicity
 _atom_site_fract_x
 _atom_site_fract_y
 _atom_site_fract_z
 _atom_site_occupancy
  Li  Li0  1  0.12652800  0.12405400  0.24528300  1
  Li  Li1  1  0.86988700  0.37736500  0.75141600  1
  Li  Li2  1  0.62310400  0.62240800  0.24850700  1
  Li  Li3  1  0.13011300  0.62263500  0.24858400  1
  Li  Li4  1  0.87347200  0.87594600  0.75471700  1
  Li  Li5  1  0.62209000  0.13304600  0.24616200  1
  Li  Li6  1  0.37791000  0.86695400  0.75383800  1
  Li  Li7  1  0.37689600  0.37759200  0.75149300  1
  Li  Li8  1  0.50000000  0.50000000  0.00000000  1
  Mn  Mn0  1  0.00000000  0.00000000  0.00000000  1
  Mn  Mn1  1  0.50000000  0.00000000  0.00000000  1
  Co  Co0  1  0.75046000  0.24964600  0.49957800  1
  Co  Co1  1  0.24954000  0.75035400  0.50042200  1
  Co  Co2  1  0.00000000  0.50000000  0.00000000  1
  Co  Co3  1  0.75011800  0.75008500  0.50005600  1
  Co  Co4  1  0.24988200  0.24991500  0.49994400  1
  O  O0  1  0.30570000  0.83241800  0.11215900  1
  O  O1  1  0.06216500  0.06829200  0.61489700  1
  O  O2  1  0.84023400  0.30046500  0.10554400  1
  O  O3  1  0.30652100  0.30041500  0.10559500  1
  O  O4  1  0.06251100  0.56696600  0.61676100  1
  O  O5  1  0.79753200  0.84619900  0.11713600  1
  O  O6  1  0.56193100  0.56717000  0.61834700  1
  O  O7  1  0.56161900  0.07004600  0.61436200  1
  O  O8  1  0.93748900  0.43303400  0.38323900  1
  O  O9  1  0.69347900  0.69958500  0.89440500  1
  O  O10  1  0.43838100  0.92995400  0.38563800  1
  O  O11  1  0.93783500  0.93170800  0.38510300  1
  O  O12  1  0.69430000  0.16758200  0.88784100  1
  O  O13  1  0.43806900  0.43283000  0.38165300  1
  O  O14  1  0.20246800  0.15380100  0.88286400  1
  O  O15  1  0.15976600  0.69953500  0.89445600  1
loop_
_geom_bond_atom_site_label_1
_geom_bond_atom_site_label_2
_geom_bond_distance
_geom_bond_site_symmetry_2
Li0 O3 2.054302 1_555
Li0 O2 2.054749 1_455
Li0 O0 2.080332 1_545
Li0 O11 2.150777 1_445
Li0 O10 2.158202 1_545
Li0 O8 2.183202 1_455
Li1 O6 2.095009 1_555
Li1 O4 2.132097 1_655
Li1 O12 2.154768 1_555
Li1 O1 2.174047 1_655
Li1 O14 2.189499 1_655
Li1 O9 2.273956 1_555
Li2 O13 2.094856 1_555
Li2 O8 2.131530 1_555
Li2 O0 2.156310 1_555
Li2 O10 2.171912 1_555
Li2 O5 2.187881 1_555
Li2 O2 2.272679 1_555
Li3 O13 2.095009 1_555
Li3 O8 2.132097 1_455
Li3 O0 2.154768 1_555
Li3 O11 2.174047 1_455
Li3 O5 2.189499 1_455
Li3 O3 2.273956 1_555
Li4 O9 2.054302 1_555
Li4 O15 2.054749 1_655
Li4 O12 2.080332 1_565
Li4 O1 2.150777 1_665
Li4 O7 2.158202 1_565
Li4 O4 2.183202 1_655
Li5 O5 2.033227 1_545
Li5 O13 2.129290 1_555
Li5 O11 2.164809 1_545
Li5 O10 2.172664 1_545
Li5 O2 2.177731 1_555
Li5 O3 2.179698 1_555
Li6 O14 2.033227 1_565
Li6 O6 2.129290 1_555
Li6 O1 2.164809 1_565
Li6 O7 2.172664 1_565
Li6 O15 2.177731 1_555
Li6 O9 2.179698 1_555
Li7 O6 2.094856 1_555
Li7 O4 2.131530 1_555
Li7 O12 2.156310 1_555
Li7 O7 2.171912 1_555
Li7 O14 2.187881 1_555
Li7 O15 2.272679 1_555
Li8 O3 2.066885 1_555
Li8 O9 2.066885 1_554
Li8 O2 2.067470 1_555
Li8 O15 2.067470 1_554
Li8 O0 2.120172 1_555
Li8 O12 2.120172 1_554
Mn0 O2 1.943437 1_455
Mn0 O15 1.943437 1_544
Mn0 O14 1.956829 1_554
Mn0 O5 1.956829 1_445
Mn0 O0 1.957225 1_545
Mn0 O12 1.957225 1_454
Mn1 O3 1.943566 1_555
Mn1 O9 1.943566 1_544
Mn1 O12 1.956749 1_554
Mn1 O0 1.956749 1_545
Mn1 O5 1.956992 1_545
Mn1 O14 1.956992 1_554
Co0 O7 1.993079 1_555
Co0 O1 1.999892 1_655
Co0 O8 2.007250 1_555
Co0 O13 2.018367 1_555
Co0 O11 2.070635 1_545
Co0 O6 2.095078 1_555
Co1 O10 1.993079 1_555
Co1 O11 1.999892 1_455
Co1 O4 2.007250 1_555
Co1 O6 2.018367 1_555
Co1 O1 2.070635 1_565
Co1 O13 2.095078 1_555
Co2 O15 1.923402 1_554
Co2 O2 1.923402 1_455
Co2 O3 1.924616 1_555
Co2 O9 1.924616 1_454
Co2 O5 2.209981 1_455
Co2 O14 2.209981 1_554
Co3 O10 1.994747 1_555
Co3 O11 1.997411 1_555
Co3 O4 2.011026 1_655
Co3 O6 2.017810 1_555
Co3 O7 2.078394 1_565
Co3 O8 2.081050 1_555
Co4 O7 1.994747 1_555
Co4 O1 1.997411 1_555
Co4 O8 2.011026 1_455
Co4 O13 2.017810 1_555
Co4 O10 2.078394 1_545
Co4 O4 2.081050 1_555
