# generated using pymatgen
data_Mg30ZnFeO32
_symmetry_space_group_name_H-M   'P 1'
_cell_length_a   8.42930046
_cell_length_b   8.42930046
_cell_length_c   8.40394946
_cell_angle_alpha   90.00000000
_cell_angle_beta   90.00000000
_cell_angle_gamma   90.00000000
_symmetry_Int_Tables_number   1
_chemical_formula_structural   Mg30ZnFeO32
_chemical_formula_sum   'Mg30 Zn1 Fe1 O32'
_cell_volume   597.12671386
_cell_formula_units_Z   1
loop_
 _symmetry_equiv_pos_site_id
 _symmetry_equiv_pos_as_xyz
  1  'x, y, z'
loop_
 _atom_site_type_symbol
 _atom_site_label
 _atom_site_symmetry_multiplicity
 _atom_site_fract_x
 _atom_site_fract_y
 _atom_site_fract_z
 _atom_site_occupancy
  Mg  Mg0  1  0.50000000  0.00000000  0.00000000  1
  Mg  Mg1  1  -0.00000000  0.50000000  0.00000000  1
  Mg  Mg2  1  -0.00000000  0.00000000  0.50000000  1
  Mg  Mg3  1  0.50000000  0.00000000  0.50000000  1
  Mg  Mg4  1  -0.00000000  0.50000000  0.50000000  1
  Mg  Mg5  1  0.50000000  0.50000000  0.50000000  1
  Mg  Mg6  1  0.25022089  0.25022089  0.00000000  1
  Mg  Mg7  1  0.74977911  0.25022089  0.00000000  1
  Mg  Mg8  1  0.25022089  0.74977911  0.00000000  1
  Mg  Mg9  1  0.74977911  0.74977911  0.00000000  1
  Mg  Mg10  1  0.25006447  0.25006447  0.50000000  1
  Mg  Mg11  1  0.74993553  0.25006447  0.50000000  1
  Mg  Mg12  1  0.25006447  0.74993553  0.50000000  1
  Mg  Mg13  1  0.74993553  0.74993553  0.50000000  1
  Mg  Mg14  1  0.24976092  0.00000000  0.24986775  1
  Mg  Mg15  1  0.75023908  0.00000000  0.24986775  1
  Mg  Mg16  1  0.24791638  0.50000000  0.24935224  1
  Mg  Mg17  1  0.75208362  0.50000000  0.24935224  1
  Mg  Mg18  1  0.24976092  0.00000000  0.75013225  1
  Mg  Mg19  1  0.75023908  0.00000000  0.75013225  1
  Mg  Mg20  1  0.24791638  0.50000000  0.75064776  1
  Mg  Mg21  1  0.75208362  0.50000000  0.75064776  1
  Mg  Mg22  1  -0.00000000  0.24976092  0.24986775  1
  Mg  Mg23  1  0.50000000  0.24791638  0.24935224  1
  Mg  Mg24  1  -0.00000000  0.75023908  0.24986775  1
  Mg  Mg25  1  0.50000000  0.75208362  0.24935224  1
  Mg  Mg26  1  -0.00000000  0.24976092  0.75013225  1
  Mg  Mg27  1  0.50000000  0.24791638  0.75064776  1
  Mg  Mg28  1  -0.00000000  0.75023908  0.75013225  1
  Mg  Mg29  1  0.50000000  0.75208362  0.75064776  1
  Zn  Zn0  1  -0.00000000  0.00000000  0.00000000  1
  Fe  Fe0  1  0.50000000  0.50000000  0.00000000  1
  O  O0  1  -0.00000000  0.00000000  0.25364409  1
  O  O1  1  0.50000000  0.00000000  0.25140982  1
  O  O2  1  -0.00000000  0.50000000  0.25140982  1
  O  O3  1  0.50000000  0.50000000  0.24907818  1
  O  O4  1  -0.00000000  0.00000000  0.74635591  1
  O  O5  1  0.50000000  0.00000000  0.74859018  1
  O  O6  1  -0.00000000  0.50000000  0.74859018  1
  O  O7  1  0.50000000  0.50000000  0.75092182  1
  O  O8  1  0.25005402  0.25005402  0.24981802  1
  O  O9  1  0.74994598  0.25005402  0.24981802  1
  O  O10  1  0.25005402  0.74994598  0.24981802  1
  O  O11  1  0.74994598  0.74994598  0.24981802  1
  O  O12  1  0.25005402  0.25005402  0.75018198  1
  O  O13  1  0.74994598  0.25005402  0.75018198  1
  O  O14  1  0.25005402  0.74994598  0.75018198  1
  O  O15  1  0.74994598  0.74994598  0.75018198  1
  O  O16  1  0.25228880  0.00000000  0.00000000  1
  O  O17  1  0.74771120  0.00000000  0.00000000  1
  O  O18  1  0.24340981  0.50000000  0.00000000  1
  O  O19  1  0.75659019  0.50000000  0.00000000  1
  O  O20  1  0.25031077  0.00000000  0.50000000  1
  O  O21  1  0.74968923  0.00000000  0.50000000  1
  O  O22  1  0.25063089  0.50000000  0.50000000  1
  O  O23  1  0.74936911  0.50000000  0.50000000  1
  O  O24  1  -0.00000000  0.25228880  0.00000000  1
  O  O25  1  0.50000000  0.24340981  0.00000000  1
  O  O26  1  -0.00000000  0.74771120  0.00000000  1
  O  O27  1  0.50000000  0.75659019  0.00000000  1
  O  O28  1  -0.00000000  0.25031077  0.50000000  1
  O  O29  1  0.50000000  0.25063089  0.50000000  1
  O  O30  1  -0.00000000  0.74968923  0.50000000  1
  O  O31  1  0.50000000  0.74936911  0.50000000  1
loop_
_geom_bond_atom_site_label_1
_geom_bond_atom_site_label_2
_geom_bond_distance
_geom_bond_site_symmetry_2
Mg0 O27 2.051774 1_545
Mg0 O25 2.051774 1_555
Mg0 O16 2.088032 1_555
Mg0 O17 2.088032 1_555
Mg0 O1 2.112835 1_555
Mg0 O5 2.112835 1_554
Mg1 O19 2.051774 1_455
Mg1 O18 2.051774 1_555
Mg1 O24 2.088032 1_555
Mg1 O26 2.088032 1_555
Mg1 O2 2.112835 1_555
Mg1 O6 2.112835 1_554
Mg2 O4 2.070363 1_555
Mg2 O0 2.070363 1_555
Mg2 O21 2.109945 1_455
Mg2 O20 2.109945 1_555
Mg2 O28 2.109945 1_555
Mg2 O30 2.109945 1_545
Mg3 O1 2.089139 1_555
Mg3 O5 2.089139 1_555
Mg3 O21 2.104706 1_555
Mg3 O20 2.104706 1_555
Mg3 O31 2.112643 1_545
Mg3 O29 2.112643 1_555
Mg4 O2 2.089139 1_555
Mg4 O6 2.089139 1_555
Mg4 O28 2.104706 1_555
Mg4 O30 2.104706 1_555
Mg4 O23 2.112643 1_455
Mg4 O22 2.112643 1_555
Mg5 O29 2.102007 1_555
Mg5 O22 2.102007 1_555
Mg5 O23 2.102007 1_555
Mg5 O31 2.102007 1_555
Mg5 O7 2.108734 1_555
Mg5 O3 2.108734 1_555
Mg6 O8 2.099459 1_555
Mg6 O12 2.099459 1_554
Mg6 O25 2.106246 1_555
Mg6 O18 2.106246 1_555
Mg6 O24 2.109259 1_555
Mg6 O16 2.109259 1_555
Mg7 O13 2.099459 1_554
Mg7 O9 2.099459 1_555
Mg7 O19 2.106246 1_555
Mg7 O25 2.106246 1_555
Mg7 O17 2.109259 1_555
Mg7 O24 2.109259 1_655
Mg8 O10 2.099459 1_555
Mg8 O14 2.099459 1_554
Mg8 O27 2.106246 1_555
Mg8 O18 2.106246 1_555
Mg8 O26 2.109259 1_555
Mg8 O16 2.109259 1_565
Mg9 O15 2.099459 1_554
Mg9 O11 2.099459 1_555
Mg9 O19 2.106246 1_555
Mg9 O27 2.106246 1_555
Mg9 O17 2.109259 1_565
Mg9 O26 2.109259 1_655
Mg10 O12 2.102517 1_555
Mg10 O8 2.102517 1_555
Mg10 O22 2.106787 1_555
Mg10 O29 2.106787 1_555
Mg10 O20 2.107870 1_555
Mg10 O28 2.107870 1_555
Mg11 O13 2.102517 1_555
Mg11 O9 2.102517 1_555
Mg11 O23 2.106787 1_555
Mg11 O29 2.106787 1_555
Mg11 O28 2.107870 1_655
Mg11 O21 2.107870 1_555
Mg12 O14 2.102517 1_555
Mg12 O10 2.102517 1_555
Mg12 O31 2.106787 1_555
Mg12 O22 2.106787 1_555
Mg12 O20 2.107870 1_565
Mg12 O30 2.107870 1_555
Mg13 O11 2.102517 1_555
Mg13 O15 2.102517 1_555
Mg13 O23 2.106787 1_555
Mg13 O31 2.106787 1_555
Mg13 O21 2.107870 1_565
Mg13 O30 2.107870 1_655
Mg14 O16 2.099984 1_555
Mg14 O20 2.102104 1_555
Mg14 O0 2.105549 1_555
Mg14 O10 2.107782 1_545
Mg14 O8 2.107782 1_555
Mg14 O1 2.109380 1_555
Mg15 O17 2.099984 1_555
Mg15 O21 2.102104 1_555
Mg15 O0 2.105549 1_655
Mg15 O9 2.107782 1_555
Mg15 O11 2.107782 1_545
Mg15 O1 2.109380 1_555
Mg16 O2 2.089833 1_555
Mg16 O18 2.095888 1_555
Mg16 O22 2.106555 1_555
Mg16 O10 2.106950 1_555
Mg16 O8 2.106950 1_555
Mg16 O3 2.124890 1_555
Mg17 O2 2.089833 1_655
Mg17 O19 2.095888 1_555
Mg17 O23 2.106555 1_555
Mg17 O11 2.106950 1_555
Mg17 O9 2.106950 1_555
Mg17 O3 2.124890 1_555
Mg18 O16 2.099984 1_556
Mg18 O20 2.102104 1_555
Mg18 O4 2.105549 1_555
Mg18 O14 2.107782 1_545
Mg18 O12 2.107782 1_555
Mg18 O5 2.109380 1_555
Mg19 O17 2.099984 1_556
Mg19 O21 2.102104 1_555
Mg19 O4 2.105549 1_655
Mg19 O15 2.107782 1_545
Mg19 O13 2.107782 1_555
Mg19 O5 2.109380 1_555
Mg20 O6 2.089833 1_555
Mg20 O18 2.095888 1_556
Mg20 O22 2.106555 1_555
Mg20 O12 2.106950 1_555
Mg20 O14 2.106950 1_555
Mg20 O7 2.124890 1_555
Mg21 O6 2.089833 1_655
Mg21 O19 2.095888 1_556
Mg21 O23 2.106555 1_555
Mg21 O13 2.106950 1_555
Mg21 O15 2.106950 1_555
Mg21 O7 2.124890 1_555
Mg22 O24 2.099984 1_555
Mg22 O28 2.102104 1_555
Mg22 O0 2.105549 1_555
Mg22 O9 2.107782 1_455
Mg22 O8 2.107782 1_555
Mg22 O2 2.109380 1_555
Mg23 O1 2.089833 1_555
Mg23 O25 2.095888 1_555
Mg23 O29 2.106555 1_555
Mg23 O8 2.106950 1_555
Mg23 O9 2.106950 1_555
Mg23 O3 2.124890 1_555
Mg24 O26 2.099984 1_555
Mg24 O30 2.102104 1_555
Mg24 O0 2.105549 1_565
Mg24 O10 2.107782 1_555
Mg24 O11 2.107782 1_455
Mg24 O2 2.109380 1_555
Mg25 O1 2.089833 1_565
Mg25 O27 2.095888 1_555
Mg25 O31 2.106555 1_555
Mg25 O11 2.106950 1_555
Mg25 O10 2.106950 1_555
Mg25 O3 2.124890 1_555
Mg26 O24 2.099984 1_556
Mg26 O28 2.102104 1_555
Mg26 O4 2.105549 1_555
Mg26 O13 2.107782 1_455
Mg26 O12 2.107782 1_555
Mg26 O6 2.109380 1_555
Mg27 O5 2.089833 1_555
Mg27 O25 2.095888 1_556
Mg27 O29 2.106555 1_555
Mg27 O13 2.106950 1_555
Mg27 O12 2.106950 1_555
Mg27 O7 2.124890 1_555
Mg28 O26 2.099984 1_556
Mg28 O30 2.102104 1_555
Mg28 O4 2.105549 1_565
Mg28 O15 2.107782 1_455
Mg28 O14 2.107782 1_555
Mg28 O6 2.109380 1_555
Mg29 O5 2.089833 1_565
Mg29 O27 2.095888 1_556
Mg29 O31 2.106555 1_555
Mg29 O14 2.106950 1_555
Mg29 O15 2.106950 1_555
Mg29 O7 2.124890 1_555
Fe0 O3 2.093240 1_555
Fe0 O7 2.093240 1_554
Fe0 O25 2.162876 1_555
Fe0 O18 2.162876 1_555
Fe0 O27 2.162876 1_555
Fe0 O19 2.162876 1_555
O0 Zn0 2.131612 1_555
O4 Zn0 2.131612 1_556
O16 Zn0 2.126618 1_555
O17 Zn0 2.126618 1_655
O24 Zn0 2.126618 1_555
O26 Zn0 2.126618 1_565
