# generated using pymatgen
data_BaSrPrBiO6
_symmetry_space_group_name_H-M   'P 1'
_cell_length_a   8.79238910
_cell_length_b   8.79979536
_cell_length_c   8.79126747
_cell_angle_alpha   90.00000000
_cell_angle_beta   90.00000000
_cell_angle_gamma   90.00000000
_symmetry_Int_Tables_number   1
_chemical_formula_structural   BaSrPrBiO6
_chemical_formula_sum   'Ba4 Sr4 Pr4 Bi4 O24'
_cell_volume   680.19113175
_cell_formula_units_Z   4
loop_
 _symmetry_equiv_pos_site_id
 _symmetry_equiv_pos_as_xyz
  1  'x, y, z'
loop_
 _atom_site_type_symbol
 _atom_site_label
 _atom_site_symmetry_multiplicity
 _atom_site_fract_x
 _atom_site_fract_y
 _atom_site_fract_z
 _atom_site_occupancy
  Ba  Ba0  1  0.00000000  -0.00000000  0.00000000  1
  Ba  Ba1  1  0.50000000  0.50000000  0.50000000  1
  Ba  Ba2  1  0.00000000  0.50000000  0.00000000  1
  Ba  Ba3  1  0.00000000  -0.00000000  0.50000000  1
  Sr  Sr0  1  0.00000000  0.50000000  0.50000000  1
  Sr  Sr1  1  0.50000000  -0.00000000  0.50000000  1
  Sr  Sr2  1  0.50000000  0.50000000  0.00000000  1
  Sr  Sr3  1  0.50000000  0.00000000  0.00000000  1
  Pr  Pr0  1  0.25259927  0.25058344  0.25078777  1
  Pr  Pr1  1  0.74740073  0.74941656  0.25078777  1
  Pr  Pr2  1  0.74740073  0.25058344  0.74921223  1
  Pr  Pr3  1  0.25259927  0.74941656  0.74921223  1
  Bi  Bi0  1  0.74650202  0.74921169  0.75041163  1
  Bi  Bi1  1  0.25349798  0.25078831  0.75041163  1
  Bi  Bi2  1  0.25349798  0.74921169  0.24958837  1
  Bi  Bi3  1  0.74650202  0.25078831  0.24958837  1
  O  O0  1  0.98723651  0.21465793  0.27810890  1
  O  O1  1  0.01276349  0.78534207  0.27810890  1
  O  O2  1  0.01276349  0.21465793  0.72189110  1
  O  O3  1  0.98723651  0.78534207  0.72189110  1
  O  O4  1  0.29096006  0.98772958  0.20875426  1
  O  O5  1  0.29096006  0.01227042  0.79124574  1
  O  O6  1  0.70903994  0.01227042  0.20875426  1
  O  O7  1  0.70903994  0.98772958  0.79124574  1
  O  O8  1  0.21798993  0.28170113  0.98875578  1
  O  O9  1  0.78201007  0.28170113  0.01124422  1
  O  O10  1  0.21798993  0.71829887  0.01124422  1
  O  O11  1  0.78201007  0.71829887  0.98875578  1
  O  O12  1  0.51152584  0.29919895  0.21219354  1
  O  O13  1  0.48847416  0.70080105  0.21219354  1
  O  O14  1  0.48847416  0.29919895  0.78780646  1
  O  O15  1  0.51152584  0.70080105  0.78780646  1
  O  O16  1  0.21304414  0.51265066  0.29745217  1
  O  O17  1  0.21304414  0.48734934  0.70254783  1
  O  O18  1  0.78695586  0.48734934  0.29745217  1
  O  O19  1  0.78695586  0.51265066  0.70254783  1
  O  O20  1  0.29603112  0.20929184  0.51294790  1
  O  O21  1  0.70396888  0.20929184  0.48705210  1
  O  O22  1  0.29603112  0.79070816  0.48705210  1
  O  O23  1  0.70396888  0.79070816  0.51294790  1
loop_
_geom_bond_atom_site_label_1
_geom_bond_atom_site_label_2
_geom_bond_distance
_geom_bond_site_symmetry_2
Ba0 O2 3.091665 1_554
Ba0 O1 3.091665 1_545
Ba0 O0 3.091665 1_455
Ba0 O3 3.091665 1_444
Ba0 O11 3.135017 1_444
Ba0 O10 3.135017 1_545
Ba0 O8 3.135017 1_554
Ba0 O9 3.135017 1_455
Ba0 O7 3.150275 1_444
Ba0 O6 3.150275 1_455
Ba0 O4 3.150275 1_545
Ba0 O5 3.150275 1_554
Ba1 O12 3.087785 1_555
Ba1 O13 3.087785 1_555
Ba1 O15 3.087785 1_555
Ba1 O14 3.087785 1_555
Ba1 O18 3.090111 1_555
Ba1 O19 3.090111 1_555
Ba1 O16 3.090111 1_555
Ba1 O17 3.090111 1_555
Ba1 O20 3.126242 1_555
Ba1 O23 3.126242 1_555
Ba1 O21 3.126242 1_555
Ba1 O22 3.126242 1_555
Ba2 O8 2.715421 1_554
Ba2 O9 2.715421 1_455
Ba2 O10 2.715421 1_555
Ba2 O11 2.715421 1_454
Ba2 O16 3.218583 1_555
Ba2 O17 3.218583 1_554
Ba2 O18 3.218583 1_455
Ba2 O19 3.218583 1_454
Ba3 O1 2.717712 1_545
Ba3 O0 2.717712 1_455
Ba3 O2 2.717712 1_555
Ba3 O3 2.717712 1_445
Ba3 O20 3.190546 1_555
Ba3 O23 3.190546 1_445
Ba3 O22 3.190546 1_545
Ba3 O21 3.190546 1_455
Bi0 O15 2.134928 1_555
Bi0 O11 2.135872 1_555
Bi0 O23 2.152045 1_555
Bi0 O19 2.153369 1_555
Bi0 O7 2.154711 1_555
Bi0 O3 2.155013 1_555
Bi1 O14 2.134928 1_555
Bi1 O8 2.135872 1_555
Bi1 O20 2.152045 1_555
Bi1 O17 2.153369 1_555
Bi1 O5 2.154711 1_555
Bi1 O2 2.155013 1_555
Bi2 O13 2.134928 1_555
Bi2 O10 2.135872 1_555
Bi2 O22 2.152045 1_555
Bi2 O16 2.153369 1_555
Bi2 O4 2.154711 1_555
Bi2 O1 2.155013 1_555
Bi3 O12 2.134928 1_555
Bi3 O9 2.135872 1_555
Bi3 O21 2.152045 1_555
Bi3 O18 2.153369 1_555
Bi3 O6 2.154711 1_555
Bi3 O0 2.155013 1_555
O0 Pr0 2.366712 1_655
O0 Sr0 3.181622 1_655
O1 Pr1 2.366712 1_455
O1 Sr0 3.181622 1_555
O2 Pr2 2.366712 1_455
O2 Sr0 3.181622 1_555
O3 Pr3 2.366712 1_655
O3 Sr0 3.181622 1_655
O4 Pr0 2.366550 1_565
O4 Sr3 2.599571 1_565
O4 Sr1 3.153649 1_565
O5 Pr3 2.366550 1_545
O5 Sr3 2.599571 1_556
O5 Sr1 3.153649 1_555
O6 Pr1 2.366550 1_545
O6 Sr3 2.599571 1_555
O6 Sr1 3.153649 1_555
O7 Pr2 2.366550 1_565
O7 Sr3 2.599571 1_566
O7 Sr1 3.153649 1_565
O8 Pr0 2.339684 1_556
O8 Sr2 3.138166 1_556
O9 Pr2 2.339684 1_554
O9 Sr2 3.138166 1_555
O10 Pr3 2.339684 1_554
O10 Sr2 3.138166 1_555
O11 Pr1 2.339684 1_556
O11 Sr2 3.138166 1_556
O12 Pr0 2.341147 1_555
O12 Sr2 2.571477 1_555
O13 Pr1 2.341147 1_555
O13 Sr2 2.571477 1_555
O14 Pr2 2.341147 1_555
O14 Sr2 2.571477 1_556
O15 Pr3 2.341147 1_555
O15 Sr2 2.571477 1_556
O16 Pr0 2.368021 1_555
O16 Sr0 2.586865 1_555
O17 Pr3 2.368021 1_555
O17 Sr0 2.586865 1_555
O18 Pr1 2.368021 1_555
O18 Sr0 2.586865 1_655
O19 Pr2 2.368021 1_555
O19 Sr0 2.586865 1_655
O20 Pr0 2.364231 1_555
O20 Sr1 2.573150 1_555
O21 Pr2 2.364231 1_555
O21 Sr1 2.573150 1_555
O22 Pr3 2.364231 1_555
O22 Sr1 2.573150 1_565
O23 Pr1 2.364231 1_555
O23 Sr1 2.573150 1_565
