# generated using pymatgen
data_Sm2Ta2O9
_symmetry_space_group_name_H-M   'P 1'
_cell_length_a   3.87927700
_cell_length_b   6.68437400
_cell_length_c   15.48455906
_cell_angle_alpha   67.32693403
_cell_angle_beta   90.00000000
_cell_angle_gamma   90.00000000
_symmetry_Int_Tables_number   1
_chemical_formula_structural   Sm2Ta2O9
_chemical_formula_sum   'Sm4 Ta4 O18'
_cell_volume   370.49301622
_cell_formula_units_Z   2
loop_
 _symmetry_equiv_pos_site_id
 _symmetry_equiv_pos_as_xyz
  1  'x, y, z'
loop_
 _atom_site_type_symbol
 _atom_site_label
 _atom_site_symmetry_multiplicity
 _atom_site_fract_x
 _atom_site_fract_y
 _atom_site_fract_z
 _atom_site_occupancy
  Sm  Sm0  1  0.99560700  0.68688600  0.30392400  1
  Sm  Sm1  1  0.00439300  0.31311400  0.69607600  1
  Sm  Sm2  1  0.49560700  0.31311400  0.19607600  1
  Sm  Sm3  1  0.50439300  0.68688600  0.80392400  1
  Ta  Ta0  1  0.99655900  0.69267100  0.03958000  1
  Ta  Ta1  1  0.00344100  0.30732900  0.96042000  1
  Ta  Ta2  1  0.49655900  0.30732900  0.46042000  1
  Ta  Ta3  1  0.50344100  0.69267100  0.53958000  1
  O  O0  1  0.99915400  0.33857200  0.08251800  1
  O  O1  1  0.00084600  0.66142800  0.91748200  1
  O  O2  1  0.49915400  0.66142800  0.41748200  1
  O  O3  1  0.50084600  0.33857200  0.58251800  1
  O  O4  1  0.49053200  0.94126800  0.21837700  1
  O  O5  1  0.50946800  0.05873200  0.78162300  1
  O  O6  1  0.99053200  0.05873200  0.28162300  1
  O  O7  1  0.00946800  0.94126800  0.71837700  1
  O  O8  1  0.00000000  0.00000000  0.00000000  1
  O  O9  1  0.50000000  0.00000000  0.50000000  1
  O  O10  1  0.49774900  0.65231000  0.04966300  1
  O  O11  1  0.50225100  0.34769000  0.95033700  1
  O  O12  1  0.99774900  0.34769000  0.45033700  1
  O  O13  1  0.00225100  0.65231000  0.54966300  1
  O  O14  1  0.99746300  0.57772600  0.17784200  1
  O  O15  1  0.00253700  0.42227400  0.82215800  1
  O  O16  1  0.49746300  0.42227400  0.32215800  1
  O  O17  1  0.50253700  0.57772600  0.67784200  1
loop_
_geom_bond_atom_site_label_1
_geom_bond_atom_site_label_2
_geom_bond_distance
_geom_bond_site_symmetry_2
O0 Ta1 1.980602 1_654
O0 Ta0 2.198016 1_555
O0 Sm2 2.568897 1_655
O0 Sm2 2.589593 1_555
O1 Ta0 1.980602 1_456
O1 Ta1 2.198016 1_555
O1 Sm3 2.568897 1_455
O1 Sm3 2.589593 1_555
O2 Ta3 1.980602 1_555
O2 Ta2 2.198016 1_555
O2 Sm0 2.568897 1_555
O2 Sm0 2.589593 1_455
O3 Ta2 1.980602 1_555
O3 Ta3 2.198016 1_555
O3 Sm1 2.568897 1_555
O3 Sm1 2.589593 1_655
O4 Sm2 2.374009 1_565
O4 Sm0 2.568217 1_455
O4 Sm0 2.597785 1_555
O5 Sm3 2.374009 1_545
O5 Sm1 2.568217 1_655
O5 Sm1 2.597785 1_555
O6 Sm0 2.374009 1_545
O6 Sm2 2.568217 1_555
O6 Sm2 2.597785 1_655
O7 Sm1 2.374009 1_565
O7 Sm3 2.568217 1_555
O7 Sm3 2.597785 1_455
O8 Ta1 1.904024 1_554
O8 Ta0 1.904024 1_445
O9 Ta2 1.904024 1_555
O9 Ta3 1.904024 1_545
O10 Ta0 1.951666 1_555
O10 Ta0 1.960820 1_455
O10 Sm2 2.513524 1_555
O11 Ta1 1.951666 1_555
O11 Ta1 1.960820 1_655
O11 Sm3 2.513524 1_555
O12 Ta2 1.951666 1_655
O12 Ta2 1.960820 1_555
O12 Sm0 2.513524 1_555
O13 Ta3 1.951666 1_455
O13 Ta3 1.960820 1_555
O13 Sm1 2.513524 1_555
O14 Ta0 1.976297 1_555
O14 Sm0 2.332869 1_555
O14 Sm2 2.560773 1_655
O14 Sm2 2.571657 1_555
O15 Ta1 1.976297 1_555
O15 Sm1 2.332869 1_555
O15 Sm3 2.560773 1_455
O15 Sm3 2.571657 1_555
O16 Ta2 1.976297 1_555
O16 Sm2 2.332869 1_555
O16 Sm0 2.560773 1_555
O16 Sm0 2.571657 1_455
O17 Ta3 1.976297 1_555
O17 Sm3 2.332869 1_555
O17 Sm1 2.560773 1_555
O17 Sm1 2.571657 1_655
