# generated using pymatgen
data_NaMgSO7
_symmetry_space_group_name_H-M   'P 1'
_cell_length_a   7.20641900
_cell_length_b   6.28439500
_cell_length_c   7.52970602
_cell_angle_alpha   69.54521528
_cell_angle_beta   90.00000000
_cell_angle_gamma   90.00000000
_symmetry_Int_Tables_number   1
_chemical_formula_structural   NaMgSO7
_chemical_formula_sum   'Na2 Mg2 S2 O14'
_cell_volume   319.50423298
_cell_formula_units_Z   2
loop_
 _symmetry_equiv_pos_site_id
 _symmetry_equiv_pos_as_xyz
  1  'x, y, z'
loop_
 _atom_site_type_symbol
 _atom_site_label
 _atom_site_symmetry_multiplicity
 _atom_site_fract_x
 _atom_site_fract_y
 _atom_site_fract_z
 _atom_site_occupancy
  Na  Na0  1  0.75000000  0.73573400  0.74733700  1
  Na  Na1  1  0.25000000  0.26426600  0.25266300  1
  Mg  Mg0  1  0.50000000  0.00000000  0.00000000  1
  Mg  Mg1  1  0.00000000  0.00000000  0.00000000  1
  S  S0  1  0.25000000  0.82546400  0.71485600  1
  S  S1  1  0.75000000  0.17453600  0.28514400  1
  O  O0  1  0.07865700  0.80866700  0.83731800  1
  O  O1  1  0.57865700  0.19133300  0.16268200  1
  O  O2  1  0.92134300  0.19133300  0.16268200  1
  O  O3  1  0.42134300  0.80866700  0.83731800  1
  O  O4  1  0.25000000  0.63769100  0.64198700  1
  O  O5  1  0.75000000  0.36230900  0.35801300  1
  O  O6  1  0.25000000  0.05080200  0.56324200  1
  O  O7  1  0.75000000  0.94919800  0.43675800  1
  O  O8  1  0.75000000  0.87254000  0.99307500  1
  O  O9  1  0.25000000  0.12746000  0.00692500  1
  O  O10  1  0.83648100  0.31384200  0.74615200  1
  O  O11  1  0.33648100  0.68615800  0.25384800  1
  O  O12  1  0.16351900  0.68615800  0.25384800  1
  O  O13  1  0.66351900  0.31384200  0.74615200  1
loop_
_geom_bond_atom_site_label_1
_geom_bond_atom_site_label_2
_geom_bond_distance
_geom_bond_site_symmetry_2
Na0 O7 2.252958 1_555
Na0 O8 2.296688 1_555
Na0 O0 2.548662 1_655
Na0 O3 2.548662 1_555
Na0 O10 2.726646 1_555
Na0 O13 2.726646 1_555
Na1 O6 2.252958 1_555
Na1 O9 2.296688 1_555
Na1 O1 2.548662 1_555
Na1 O2 2.548662 1_455
Na1 O11 2.726646 1_555
Na1 O12 2.726646 1_555
Mg0 O9 1.979724 1_555
Mg0 O8 1.979724 1_544
Mg0 O1 2.072933 1_555
Mg0 O3 2.072933 1_544
Mg0 O11 2.509411 1_545
Mg0 O13 2.509411 1_554
Mg1 O9 1.979724 1_555
Mg1 O8 1.979724 1_444
Mg1 O2 2.072933 1_455
Mg1 O0 2.072933 1_544
Mg1 O12 2.509411 1_545
Mg1 O10 2.509411 1_454
O0 S0 1.522511 1_555
O1 S1 1.522511 1_555
O2 S1 1.522511 1_555
O3 S0 1.522511 1_555
O4 S0 1.464952 1_555
O5 S1 1.464952 1_555
O6 S0 1.476047 1_545
O7 S1 1.476047 1_565
O10 O13 1.246437 1_555
O11 O12 1.246437 1_555
