# generated using pymatgen
data_CdBO3
_symmetry_space_group_name_H-M   'P 1'
_cell_length_a   3.50172100
_cell_length_b   3.50172100
_cell_length_c   3.50172100
_cell_angle_alpha   90.00000000
_cell_angle_beta   90.00000000
_cell_angle_gamma   90.00000000
_symmetry_Int_Tables_number   1
_chemical_formula_structural   CdBO3
_chemical_formula_sum   'Cd1 B1 O3'
_cell_volume   42.93827785
_cell_formula_units_Z   1
loop_
 _symmetry_equiv_pos_site_id
 _symmetry_equiv_pos_as_xyz
  1  'x, y, z'
loop_
 _atom_site_type_symbol
 _atom_site_label
 _atom_site_symmetry_multiplicity
 _atom_site_fract_x
 _atom_site_fract_y
 _atom_site_fract_z
 _atom_site_occupancy
  Cd  Cd0  1  0.00000000  0.00000000  0.00000000  1
  B  B0  1  0.50000000  0.50000000  0.50000000  1
  O  O0  1  0.50000000  0.50000000  0.00000000  1
  O  O1  1  0.50000000  0.00000000  0.50000000  1
  O  O2  1  0.00000000  0.50000000  0.50000000  1
loop_
_geom_bond_atom_site_label_1
_geom_bond_atom_site_label_2
_geom_bond_distance
_geom_bond_site_symmetry_2
Cd0 O2 2.476091 1_544
Cd0 O2 2.476091 1_545
Cd0 O1 2.476091 1_455
Cd0 O1 2.476091 1_454
Cd0 O1 2.476091 1_555
Cd0 O0 2.476091 1_545
Cd0 O0 2.476091 1_555
Cd0 O0 2.476091 1_445
Cd0 O1 2.476091 1_554
Cd0 O2 2.476091 1_555
Cd0 O2 2.476091 1_554
Cd0 O0 2.476091 1_455
B0 O1 1.750860 1_565
B0 O2 1.750860 1_655
B0 O0 1.750860 1_556
B0 O1 1.750860 1_555
B0 O0 1.750860 1_555
B0 O2 1.750860 1_555
