# generated using pymatgen
data_HfVSi
_symmetry_space_group_name_H-M   'P 1'
_cell_length_a   3.64748886
_cell_length_b   3.64748886
_cell_length_c   7.13896844
_cell_angle_alpha   90.00000000
_cell_angle_beta   90.00000000
_cell_angle_gamma   90.00000000
_symmetry_Int_Tables_number   1
_chemical_formula_structural   HfVSi
_chemical_formula_sum   'Hf2 V2 Si2'
_cell_volume   94.97808533
_cell_formula_units_Z   2
loop_
 _symmetry_equiv_pos_site_id
 _symmetry_equiv_pos_as_xyz
  1  'x, y, z'
loop_
 _atom_site_type_symbol
 _atom_site_label
 _atom_site_symmetry_multiplicity
 _atom_site_fract_x
 _atom_site_fract_y
 _atom_site_fract_z
 _atom_site_occupancy
  Hf  Hf0  1  0.75000000  0.75000000  0.36036877  1
  Hf  Hf1  1  0.25000000  0.25000000  0.63963123  1
  V  V0  1  0.75000000  0.25000000  0.00000000  1
  V  V1  1  0.25000000  0.75000000  0.00000000  1
  Si  Si0  1  0.75000000  0.75000000  0.75284077  1
  Si  Si1  1  0.25000000  0.25000000  0.24715923  1
loop_
_geom_bond_atom_site_label_1
_geom_bond_atom_site_label_2
_geom_bond_distance
_geom_bond_site_symmetry_2
Hf0 Si1 2.702827 1_655
Hf0 Si1 2.702827 1_565
Hf0 Si1 2.702827 1_555
Hf0 Si1 2.702827 1_665
Hf0 Si0 2.801845 1_555
Hf0 V0 3.153511 1_555
Hf0 V1 3.153511 1_655
Hf0 V1 3.153511 1_555
Hf0 V0 3.153511 1_565
Hf1 Si0 2.702827 1_455
Hf1 Si0 2.702827 1_545
Hf1 Si0 2.702827 1_555
Hf1 Si0 2.702827 1_445
Hf1 Si1 2.801845 1_555
Hf1 V1 3.153511 1_546
Hf1 V0 3.153511 1_456
Hf1 V0 3.153511 1_556
Hf1 V1 3.153511 1_556
V0 V1 2.579164 1_645
V0 V1 2.579164 1_655
V0 V1 2.579164 1_545
V0 V1 2.579164 1_555
Si0 V1 2.537591 1_656
Si0 V0 2.537591 1_566
Si0 V0 2.537591 1_556
Si0 V1 2.537591 1_556
Si1 V0 2.537591 1_555
Si1 V1 2.537591 1_545
Si1 V0 2.537591 1_455
Si1 V1 2.537591 1_555
