# generated using pymatgen
data_KSmSnWO6
_symmetry_space_group_name_H-M   'P 1'
_cell_length_a   6.01605100
_cell_length_b   6.01605100
_cell_length_c   8.48009597
_cell_angle_alpha   90.00000000
_cell_angle_beta   90.00000000
_cell_angle_gamma   90.00000000
_symmetry_Int_Tables_number   1
_chemical_formula_structural   KSmSnWO6
_chemical_formula_sum   'K2 Sm2 Sn2 W2 O12'
_cell_volume   306.91900793
_cell_formula_units_Z   2
loop_
 _symmetry_equiv_pos_site_id
 _symmetry_equiv_pos_as_xyz
  1  'x, y, z'
loop_
 _atom_site_type_symbol
 _atom_site_label
 _atom_site_symmetry_multiplicity
 _atom_site_fract_x
 _atom_site_fract_y
 _atom_site_fract_z
 _atom_site_occupancy
  K  K0  1  0.00000000  0.00000000  0.25000000  1
  K  K1  1  0.00000000  0.00000000  0.75000000  1
  Sm  Sm0  1  0.00000000  0.50000000  0.00000000  1
  Sm  Sm1  1  0.50000000  0.00000000  0.50000000  1
  Sn  Sn0  1  0.50000000  0.50000000  0.75000000  1
  Sn  Sn1  1  0.50000000  0.50000000  0.25000000  1
  W  W0  1  0.00000000  0.50000000  0.50000000  1
  W  W1  1  0.50000000  0.00000000  0.00000000  1
  O  O0  1  0.00000000  0.50000000  0.72936720  1
  O  O1  1  0.50000000  0.00000000  0.77063280  1
  O  O2  1  0.23702441  0.72267148  0.50000000  1
  O  O3  1  0.76297559  0.27732852  0.50000000  1
  O  O4  1  0.27732852  0.76297559  0.00000000  1
  O  O5  1  0.72267148  0.23702441  0.00000000  1
  O  O6  1  0.23702441  0.27732852  0.50000000  1
  O  O7  1  0.27732852  0.23702441  0.00000000  1
  O  O8  1  0.76297559  0.72267148  0.50000000  1
  O  O9  1  0.72267148  0.76297559  0.00000000  1
  O  O10  1  0.00000000  0.50000000  0.27063280  1
  O  O11  1  0.50000000  0.00000000  0.22936720  1
loop_
_geom_bond_atom_site_label_1
_geom_bond_atom_site_label_2
_geom_bond_distance
_geom_bond_site_symmetry_2
K0 O11 3.013110 1_555
K0 O10 3.013110 1_545
K0 O10 3.013110 1_555
K0 O11 3.013110 1_455
K0 O4 3.051470 1_545
K0 O8 3.051470 1_445
K0 O9 3.051470 1_445
K0 O5 3.051470 1_455
K0 O2 3.051470 1_545
K0 O6 3.051470 1_555
K0 O7 3.051470 1_555
K0 O3 3.051470 1_455
K1 O0 3.013110 1_555
K1 O1 3.013110 1_555
K1 O1 3.013110 1_455
K1 O0 3.013110 1_545
K1 O4 3.051470 1_546
K1 O8 3.051470 1_445
K1 O9 3.051470 1_446
K1 O5 3.051470 1_456
K1 O2 3.051470 1_545
K1 O6 3.051470 1_555
K1 O7 3.051470 1_556
K1 O3 3.051470 1_455
O0 W0 1.945056 1_555
O0 Sm0 2.294992 1_556
O1 W1 1.945056 1_556
O1 Sm1 2.294992 1_555
O2 W0 1.956495 1_555
O2 Sm1 2.299259 1_565
O3 W0 1.956495 1_655
O3 Sm1 2.299259 1_555
O4 W1 1.956495 1_565
O4 Sm0 2.299259 1_555
O5 W1 1.956495 1_555
O5 Sm0 2.299259 1_655
O6 W0 1.956495 1_555
O6 Sm1 2.299259 1_555
O7 W1 1.956495 1_555
O7 Sm0 2.299259 1_555
O8 W0 1.956495 1_655
O8 Sm1 2.299259 1_565
O9 W1 1.956495 1_565
O9 Sm0 2.299259 1_655
O10 W0 1.945056 1_555
O10 Sm0 2.294992 1_555
O11 W1 1.945056 1_555
O11 Sm1 2.294992 1_555
