# generated using pymatgen
data_LiNbFeO4
_symmetry_space_group_name_H-M   'P 1'
_cell_length_a   6.27906678
_cell_length_b   6.23841683
_cell_length_c   10.73910315
_cell_angle_alpha   89.39106042
_cell_angle_beta   73.03886335
_cell_angle_gamma   59.73495196
_symmetry_Int_Tables_number   1
_chemical_formula_structural   LiNbFeO4
_chemical_formula_sum   'Li4 Nb4 Fe4 O16'
_cell_volume   342.75719461
_cell_formula_units_Z   4
loop_
 _symmetry_equiv_pos_site_id
 _symmetry_equiv_pos_as_xyz
  1  'x, y, z'
loop_
 _atom_site_type_symbol
 _atom_site_label
 _atom_site_symmetry_multiplicity
 _atom_site_fract_x
 _atom_site_fract_y
 _atom_site_fract_z
 _atom_site_occupancy
  Li  Li0  1  0.10748400  0.22459600  0.07135500  1
  Li  Li1  1  0.09759900  0.72184400  0.57177600  1
  Li  Li2  1  0.90243300  0.27838400  0.42819400  1
  Li  Li3  1  0.89240500  0.77553900  0.92863100  1
  Nb  Nb0  1  0.00869300  0.77266600  0.22959300  1
  Nb  Nb1  1  0.99143800  0.22713600  0.77017800  1
  Nb  Nb2  1  0.50919900  0.73002000  0.27051500  1
  Nb  Nb3  1  0.49049600  0.26996800  0.72941900  1
  Fe  Fe0  1  0.50998900  0.74704300  0.74957200  1
  Fe  Fe1  1  0.50033800  0.00011200  0.49982700  1
  Fe  Fe2  1  0.49028400  0.25245500  0.25076900  1
  Fe  Fe3  1  0.49982200  0.50025700  0.99986600  1
  O  O0  1  0.23245100  0.41837200  0.14454300  1
  O  O1  1  0.25397800  0.91749600  0.63462500  1
  O  O2  1  0.69376900  0.42271200  0.13376400  1
  O  O3  1  0.70725700  0.91705900  0.64377900  1
  O  O4  1  0.29250400  0.08295100  0.35632900  1
  O  O5  1  0.30561300  0.57706900  0.86632700  1
  O  O6  1  0.74671200  0.08216800  0.36548600  1
  O  O7  1  0.76775900  0.58163800  0.85555600  1
  O  O8  1  0.23905400  0.65323300  0.36003100  1
  O  O9  1  0.24880300  0.14978600  0.85947900  1
  O  O10  1  0.23609600  0.87836500  0.13565700  1
  O  O11  1  0.25043200  0.37561800  0.63564900  1
  O  O12  1  0.75106700  0.85031100  0.14046800  1
  O  O13  1  0.76095600  0.34680500  0.64002900  1
  O  O14  1  0.74946700  0.62457300  0.36420500  1
  O  O15  1  0.76390600  0.12182600  0.86437700  1
loop_
_geom_bond_atom_site_label_1
_geom_bond_atom_site_label_2
_geom_bond_distance
_geom_bond_site_symmetry_2
Li0 O0 2.007730 1_555
Li0 O10 2.080804 1_545
Li0 O2 2.119072 1_455
Li0 O9 2.146994 1_554
Li1 O3 1.998458 1_455
Li1 O11 2.078425 1_555
Li1 O1 2.126434 1_555
Li1 O8 2.145235 1_555
Li2 O4 1.997028 1_655
Li2 O14 2.078834 1_555
Li2 O6 2.125109 1_555
Li2 O13 2.146144 1_555
Li3 O7 2.006106 1_555
Li3 O15 2.080901 1_565
Li3 O5 2.116373 1_655
Li3 O12 2.146595 1_556
Nb0 O10 1.893624 1_555
Nb0 O0 1.964013 1_555
Nb0 O12 1.967527 1_455
Nb0 O6 2.005351 1_465
Nb0 O8 2.164071 1_555
Nb0 O14 2.388992 1_455
Nb1 O15 1.893373 1_555
Nb1 O7 1.965954 1_555
Nb1 O9 1.967838 1_655
Nb1 O1 2.004448 1_645
Nb1 O13 2.161990 1_555
Nb1 O11 2.389371 1_655
Nb2 O14 1.895338 1_555
Nb2 O4 1.959603 1_565
Nb2 O8 1.971998 1_555
Nb2 O2 2.000609 1_555
Nb2 O12 2.170043 1_555
Nb2 O10 2.390682 1_555
Nb3 O11 1.894922 1_555
Nb3 O3 1.958970 1_545
Nb3 O13 1.973554 1_555
Nb3 O5 2.000479 1_555
Nb3 O9 2.168880 1_555
Nb3 O15 2.392877 1_555
Fe0 O7 2.084771 1_555
Fe0 O3 2.104182 1_555
Fe0 O1 2.155332 1_555
Fe0 O5 2.178977 1_555
Fe0 O13 2.261892 1_555
Fe0 O9 2.274970 1_565
Fe1 O6 2.053537 1_555
Fe1 O1 2.058009 1_545
Fe1 O4 2.195796 1_555
Fe1 O3 2.196057 1_545
Fe1 O14 2.259645 1_545
Fe1 O11 2.260392 1_555
Fe2 O0 2.087351 1_555
Fe2 O4 2.102942 1_555
Fe2 O6 2.155020 1_555
Fe2 O2 2.177700 1_555
Fe2 O8 2.263440 1_555
Fe2 O12 2.273509 1_545
Fe3 O5 2.046948 1_555
Fe3 O2 2.048860 1_556
Fe3 O7 2.193849 1_555
Fe3 O0 2.195261 1_556
Fe3 O15 2.271445 1_555
Fe3 O10 2.271462 1_556
