# generated using pymatgen
data_K4Na4Mo3W5O24
_symmetry_space_group_name_H-M   'P 1'
_cell_length_a   7.98914200
_cell_length_b   8.03026700
_cell_length_c   8.03477300
_cell_angle_alpha   90.00000000
_cell_angle_beta   90.00000000
_cell_angle_gamma   90.00000000
_symmetry_Int_Tables_number   1
_chemical_formula_structural   K4Na4Mo3W5O24
_chemical_formula_sum   'K4 Na4 Mo3 W5 O24'
_cell_volume   515.47040673
_cell_formula_units_Z   1
loop_
 _symmetry_equiv_pos_site_id
 _symmetry_equiv_pos_as_xyz
  1  'x, y, z'
loop_
 _atom_site_type_symbol
 _atom_site_label
 _atom_site_symmetry_multiplicity
 _atom_site_fract_x
 _atom_site_fract_y
 _atom_site_fract_z
 _atom_site_occupancy
  K  K0  1  0.25575100  0.74700100  0.25281800  1
  K  K1  1  0.74424900  0.74700100  0.25281800  1
  K  K2  1  0.25575100  0.74700100  0.74718200  1
  K  K3  1  0.74424900  0.74700100  0.74718200  1
  Na  Na0  1  0.25744400  0.25376700  0.25380600  1
  Na  Na1  1  0.74255600  0.25376700  0.25380600  1
  Na  Na2  1  0.25744400  0.25376700  0.74619400  1
  Na  Na3  1  0.74255600  0.25376700  0.74619400  1
  Mo  Mo0  1  0.50000000  0.49776400  0.00000000  1
  Mo  Mo1  1  0.50000000  0.00175800  0.50000000  1
  Mo  Mo2  1  0.50000000  0.49721000  0.50000000  1
  W  W0  1  0.00000000  0.00198600  0.00000000  1
  W  W1  1  0.00000000  0.49691800  0.00000000  1
  W  W2  1  0.50000000  0.00329500  0.00000000  1
  W  W3  1  0.00000000  0.00277300  0.50000000  1
  W  W4  1  0.00000000  0.49741700  0.50000000  1
  O  O0  1  0.00000000  0.00537200  0.25407300  1
  O  O1  1  0.00000000  0.49434700  0.24286300  1
  O  O2  1  0.50000000  0.00636800  0.23808500  1
  O  O3  1  0.50000000  0.49284700  0.24888800  1
  O  O4  1  0.00000000  0.00537200  0.74592700  1
  O  O5  1  0.00000000  0.49434700  0.75713700  1
  O  O6  1  0.50000000  0.00636800  0.76191500  1
  O  O7  1  0.50000000  0.49284700  0.75111200  1
  O  O8  1  0.24452500  0.00480300  0.00000000  1
  O  O9  1  0.24174700  0.49443600  0.00000000  1
  O  O10  1  0.75547500  0.00480300  0.00000000  1
  O  O11  1  0.75825300  0.49443600  0.00000000  1
  O  O12  1  0.24173600  0.00515800  0.50000000  1
  O  O13  1  0.23798100  0.49409700  0.50000000  1
  O  O14  1  0.75826400  0.00515800  0.50000000  1
  O  O15  1  0.76201900  0.49409700  0.50000000  1
  O  O16  1  0.00000000  0.74450500  0.00000000  1
  O  O17  1  0.00000000  0.25294700  0.00000000  1
  O  O18  1  0.50000000  0.76425000  0.00000000  1
  O  O19  1  0.50000000  0.24021400  0.00000000  1
  O  O20  1  0.00000000  0.75822000  0.50000000  1
  O  O21  1  0.00000000  0.24372300  0.50000000  1
  O  O22  1  0.50000000  0.75058000  0.50000000  1
  O  O23  1  0.50000000  0.24851400  0.50000000  1
loop_
_geom_bond_atom_site_label_1
_geom_bond_atom_site_label_2
_geom_bond_distance
_geom_bond_site_symmetry_2
K0 O22 2.784413 1_555
K0 O18 2.820148 1_555
K0 O3 2.823844 1_555
K0 O13 2.844126 1_555
K0 O20 2.850844 1_555
K0 O2 2.856526 1_565
K0 O9 2.872680 1_555
K0 O12 2.873074 1_565
K0 O1 2.880545 1_555
K0 O16 2.881235 1_555
K0 O8 2.901753 1_565
K0 O0 2.911982 1_565
K1 O22 2.784413 1_555
K1 O18 2.820148 1_555
K1 O3 2.823844 1_555
K1 O15 2.844126 1_555
K1 O20 2.850844 1_655
K1 O2 2.856526 1_565
K1 O11 2.872680 1_555
K1 O14 2.873074 1_565
K1 O1 2.880545 1_655
K1 O16 2.881235 1_655
K1 O10 2.901753 1_565
K1 O0 2.911982 1_665
K2 O22 2.784413 1_555
K2 O18 2.820148 1_556
K2 O7 2.823844 1_555
K2 O13 2.844126 1_555
K2 O20 2.850844 1_555
K2 O6 2.856526 1_565
K2 O9 2.872680 1_556
K2 O12 2.873074 1_565
K2 O5 2.880545 1_555
K2 O16 2.881235 1_556
K2 O8 2.901753 1_566
K2 O4 2.911982 1_565
K3 O22 2.784413 1_555
K3 O18 2.820148 1_556
K3 O7 2.823844 1_555
K3 O15 2.844126 1_555
K3 O20 2.850844 1_655
K3 O6 2.856526 1_565
K3 O11 2.872680 1_556
K3 O14 2.873074 1_565
K3 O5 2.880545 1_655
K3 O16 2.881235 1_656
K3 O10 2.901753 1_566
K3 O4 2.911982 1_665
Na0 O3 2.728115 1_555
Na0 O13 2.767973 1_555
Na0 O23 2.769447 1_555
Na0 O2 2.778125 1_555
Na0 O9 2.812374 1_555
Na0 O12 2.813233 1_555
Na0 O19 2.815245 1_555
Na0 O1 2.823172 1_555
Na0 O21 2.854765 1_555
Na0 O8 2.857670 1_555
Na0 O0 2.865134 1_555
Na0 O17 2.896365 1_555
Na1 O3 2.728115 1_555
Na1 O15 2.767973 1_555
Na1 O23 2.769447 1_555
Na1 O2 2.778125 1_555
Na1 O11 2.812374 1_555
Na1 O14 2.813233 1_555
Na1 O19 2.815245 1_555
Na1 O1 2.823172 1_655
Na1 O21 2.854765 1_655
Na1 O10 2.857670 1_555
Na1 O0 2.865134 1_655
Na1 O17 2.896365 1_655
Na2 O7 2.728115 1_555
Na2 O13 2.767973 1_555
Na2 O23 2.769447 1_555
Na2 O6 2.778125 1_555
Na2 O9 2.812374 1_556
Na2 O12 2.813233 1_555
Na2 O19 2.815245 1_556
Na2 O5 2.823172 1_555
Na2 O21 2.854765 1_555
Na2 O8 2.857670 1_556
Na2 O4 2.865134 1_555
Na2 O17 2.896365 1_556
Na3 O7 2.728115 1_555
Na3 O15 2.767973 1_555
Na3 O23 2.769447 1_555
Na3 O6 2.778125 1_555
Na3 O11 2.812374 1_556
Na3 O14 2.813233 1_555
Na3 O19 2.815245 1_556
Na3 O5 2.823172 1_655
Na3 O21 2.854765 1_655
Na3 O10 2.857670 1_556
Na3 O4 2.865134 1_655
Na3 O17 2.896365 1_656
Mo0 O7 2.000148 1_554
Mo0 O3 2.000148 1_555
Mo0 O11 2.063393 1_555
Mo0 O9 2.063393 1_555
Mo0 O19 2.068195 1_555
Mo0 O18 2.139954 1_555
Mo1 O23 1.981517 1_555
Mo1 O22 2.017026 1_545
Mo1 O14 2.063488 1_555
Mo1 O12 2.063488 1_555
Mo1 O6 2.104753 1_555
Mo1 O2 2.104753 1_555
Mo2 O23 1.997095 1_555
Mo2 O7 2.017932 1_555
Mo2 O3 2.017932 1_555
Mo2 O22 2.034629 1_555
Mo2 O15 2.093456 1_555
Mo2 O13 2.093456 1_555
O0 W3 1.976078 1_555
O0 W0 2.041600 1_555
O1 W1 1.951458 1_555
O1 W4 2.066185 1_555
O2 W2 1.913118 1_555
O4 W3 1.976078 1_555
O4 W0 2.041600 1_556
O5 W1 1.951458 1_556
O5 W4 2.066185 1_555
O6 W2 1.913118 1_556
O8 W0 1.953676 1_555
O8 W2 2.041062 1_555
O9 W1 1.931454 1_555
O10 W0 1.953676 1_655
O10 W2 2.041062 1_555
O11 W1 1.931454 1_655
O12 W3 1.931358 1_555
O13 W4 1.901451 1_555
O14 W3 1.931358 1_655
O15 W4 1.901451 1_655
O16 W1 1.988190 1_555
O16 W0 2.067641 1_565
O17 W1 1.959152 1_555
O17 W0 2.015284 1_555
O18 W2 1.919595 1_565
O19 W2 1.902523 1_555
O20 W3 1.963826 1_565
O20 W4 2.094318 1_555
O21 W3 1.934893 1_555
O21 W4 2.037231 1_555
