# generated using pymatgen
data_Yb2NiGe6
_symmetry_space_group_name_H-M   'P 1'
_cell_length_a   3.94114685
_cell_length_b   3.98547555
_cell_length_c   10.74753696
_cell_angle_alpha   90.00000000
_cell_angle_beta   100.57059269
_cell_angle_gamma   90.00000000
_symmetry_Int_Tables_number   1
_chemical_formula_structural   Yb2NiGe6
_chemical_formula_sum   'Yb2 Ni1 Ge6'
_cell_volume   165.95040794
_cell_formula_units_Z   1
loop_
 _symmetry_equiv_pos_site_id
 _symmetry_equiv_pos_as_xyz
  1  'x, y, z'
loop_
 _atom_site_type_symbol
 _atom_site_label
 _atom_site_symmetry_multiplicity
 _atom_site_fract_x
 _atom_site_fract_y
 _atom_site_fract_z
 _atom_site_occupancy
  Yb  Yb0  1  0.77817392  0.50000000  0.55630321  1
  Yb  Yb1  1  0.11282661  0.50000000  0.22494334  1
  Ni  Ni0  1  0.55531398  0.00000000  0.11235391  1
  Ge  Ge0  1  0.49930326  0.50000000  0.99746800  1
  Ge  Ge1  1  0.38142850  0.50000000  0.76364307  1
  Ge  Ge2  1  0.99762779  0.00000000  0.99650627  1
  Ge  Ge3  1  0.88121938  0.00000000  0.76108145  1
  Ge  Ge4  1  0.66343013  0.00000000  0.32668545  1
  Ge  Ge5  1  0.23767744  0.00000000  0.47501531  1
loop_
_geom_bond_atom_site_label_1
_geom_bond_atom_site_label_2
_geom_bond_distance
_geom_bond_site_symmetry_2
Ni0 Yb1 3.041495 1_545
Ni0 Yb1 3.041495 1_555
Ni0 Yb1 3.047559 1_645
Ni0 Yb1 3.047559 1_655
Ge0 Ni0 2.333306 1_556
Ge0 Ni0 2.333306 1_566
Ge0 Ge1 2.470397 1_555
Ge0 Ge2 2.799239 1_565
Ge0 Ge2 2.799239 1_555
Ge0 Ge2 2.805858 1_455
Ge0 Ge2 2.805858 1_465
Ge0 Yb1 3.107219 1_656
Ge0 Yb1 3.108587 1_556
Ge1 Ge3 2.799689 1_455
Ge1 Ge3 2.799689 1_465
Ge1 Ge3 2.805632 1_555
Ge1 Ge3 2.805632 1_565
Ge1 Yb0 2.945250 1_455
Ge1 Yb0 2.947724 1_555
Ge2 Ni0 2.318846 1_656
Ge2 Ni0 2.320640 1_556
Ge2 Ge3 2.487304 1_555
Ge2 Yb1 3.129834 1_646
Ge2 Yb1 3.129834 1_656
Ge3 Yb0 2.941393 1_545
Ge3 Yb0 2.941393 1_555
Ge4 Ni0 2.264447 1_555
Ge4 Ge5 2.517612 1_555
Ge4 Ge5 2.517881 1_655
Ge4 Yb1 3.000842 1_545
Ge4 Yb1 3.000842 1_555
Ge4 Yb1 3.002363 1_645
Ge4 Yb1 3.002363 1_655
Ge4 Yb0 3.139461 1_545
Ge4 Yb0 3.139461 1_555
Ge5 Yb0 2.930719 1_545
Ge5 Yb0 2.930719 1_555
Ge5 Yb0 2.931613 1_445
Ge5 Yb0 2.931613 1_455
Ge5 Yb1 3.309293 1_545
Ge5 Yb1 3.309293 1_555
