# generated using pymatgen
data_Hf2Co4P3
_symmetry_space_group_name_H-M   'P 1'
_cell_length_a   11.94672756
_cell_length_b   11.94807834
_cell_length_c   3.61568854
_cell_angle_alpha   90.00000090
_cell_angle_beta   89.99999659
_cell_angle_gamma   119.99913555
_symmetry_Int_Tables_number   1
_chemical_formula_structural   Hf2Co4P3
_chemical_formula_sum   'Hf8 Co16 P12'
_cell_volume   446.96390116
_cell_formula_units_Z   4
loop_
 _symmetry_equiv_pos_site_id
 _symmetry_equiv_pos_as_xyz
  1  'x, y, z'
loop_
 _atom_site_type_symbol
 _atom_site_label
 _atom_site_symmetry_multiplicity
 _atom_site_fract_x
 _atom_site_fract_y
 _atom_site_fract_z
 _atom_site_occupancy
  Hf  Hf0  1  0.82591953  0.82597277  0.50000012  1
  Hf  Hf1  1  0.44352165  0.44352067  0.00000007  1
  Hf  Hf2  1  0.99998226  0.17404209  0.50000000  1
  Hf  Hf3  1  0.55649210  0.00000220  0.00000011  1
  Hf  Hf4  1  0.33336752  0.66666971  0.00000012  1
  Hf  Hf5  1  0.66666059  0.33329716  0.00000012  1
  Hf  Hf6  1  0.00000649  0.55645028  -0.00000008  1
  Hf  Hf7  1  0.17407311  0.00003052  0.49999964  1
  Co  Co0  1  0.62727915  0.82034962  0.00000001  1
  Co  Co1  1  0.37265679  0.19307447  -0.00000000  1
  Co  Co2  1  0.00000951  0.72154567  0.50000002  1
  Co  Co3  1  0.27845837  0.27846137  0.50000004  1
  Co  Co4  1  0.87307604  0.35618220  0.49999995  1
  Co  Co5  1  0.72153768  0.99998254  0.49999998  1
  Co  Co6  1  0.82044702  0.62737211  0.00000001  1
  Co  Co7  1  0.17955713  0.80691922  -0.00000006  1
  Co  Co8  1  0.35612327  0.87304257  0.50000004  1
  Co  Co9  1  0.12697332  0.48311736  0.49999999  1
  Co  Co10  1  0.64386247  0.51691508  0.50000003  1
  Co  Co11  1  0.00000909  0.00000241  0.00000002  1
  Co  Co12  1  0.51690234  0.64382553  0.49999996  1
  Co  Co13  1  0.48306728  0.12693381  0.49999989  1
  Co  Co14  1  0.19308655  0.37266387  0.00000003  1
  Co  Co15  1  0.80692868  0.17963388  -0.00000007  1
  P  P0  1  -0.00001905  0.34452478  0.00000002  1
  P  P1  1  0.82622822  0.51773547  0.50000001  1
  P  P2  1  0.69154587  0.17374654  0.50000005  1
  P  P3  1  0.17533060  0.17534783  -0.00000006  1
  P  P4  1  0.65542629  0.65544780  -0.00000006  1
  P  P5  1  0.82463297  0.00001188  0.00000003  1
  P  P6  1  0.51779433  0.82624234  0.50000004  1
  P  P7  1  0.17377946  0.69150802  0.49999996  1
  P  P8  1  0.34457674  0.00002767  -0.00000011  1
  P  P9  1  0.48223577  0.30846944  0.50000002  1
  P  P10  1  -0.00000973  0.82468895  0.00000006  1
  P  P11  1  0.30848163  0.48223917  0.50000007  1
loop_
_geom_bond_atom_site_label_1
_geom_bond_atom_site_label_2
_geom_bond_distance
_geom_bond_site_symmetry_2
Hf0 P4 2.723665 1_556
Hf0 P4 2.723666 1_555
Hf0 P5 2.761257 1_566
Hf0 P5 2.761257 1_565
Hf0 P10 2.761353 1_656
Hf0 P10 2.761353 1_655
Hf1 P4 2.531878 1_555
Hf1 P11 2.613677 1_555
Hf1 P11 2.613677 1_554
Hf1 P9 2.613850 1_555
Hf1 P9 2.613850 1_554
Hf2 P0 2.723501 1_655
Hf2 P0 2.723501 1_656
Hf2 P3 2.761198 1_656
Hf2 P3 2.761198 1_655
Hf2 P5 2.761256 1_555
Hf2 P5 2.761256 1_556
Hf3 P8 2.531847 1_555
Hf3 P2 2.613740 1_555
Hf3 P2 2.613740 1_554
Hf3 P6 2.613892 1_545
Hf3 P6 2.613892 1_544
Hf4 P7 2.749021 1_555
Hf4 P7 2.749022 1_554
Hf4 P6 2.749040 1_555
Hf4 P6 2.749041 1_554
Hf4 P11 2.749069 1_555
Hf4 P11 2.749069 1_554
Hf5 P9 2.749025 1_555
Hf5 P9 2.749026 1_554
Hf5 P2 2.749088 1_555
Hf5 P2 2.749088 1_554
Hf5 P1 2.749135 1_555
Hf5 P1 2.749136 1_554
Hf6 P0 2.531950 1_555
Hf6 P1 2.613825 1_454
Hf6 P1 2.613825 1_455
Hf6 P7 2.613843 1_554
Hf6 P7 2.613843 1_555
Hf7 P8 2.723522 1_555
Hf7 P8 2.723524 1_556
Hf7 P3 2.761312 1_555
Hf7 P3 2.761313 1_556
Hf7 P10 2.761457 1_545
Hf7 P10 2.761459 1_546
Co0 P4 2.158127 1_555
Co0 P6 2.253036 1_554
Co0 P6 2.253036 1_555
Co0 P5 2.259614 1_565
Co0 Hf3 2.671672 1_565
Co0 Hf0 2.957194 1_554
Co0 Hf0 2.957194 1_555
Co0 Hf4 3.041954 1_555
Co1 P8 2.158452 1_555
Co1 P9 2.253471 1_554
Co1 P9 2.253471 1_555
Co1 P3 2.258965 1_555
Co1 Hf1 2.671635 1_555
Co1 Hf7 2.957160 1_555
Co1 Hf7 2.957161 1_554
Co1 Hf5 3.042911 1_555
Co2 P10 2.187991 1_555
Co2 P10 2.187991 1_556
Co2 P7 2.276739 1_555
Co2 P1 2.276986 1_455
Co2 Hf6 2.675681 1_556
Co2 Hf6 2.675682 1_555
Co2 Hf7 2.911454 1_565
Co2 Hf0 2.911575 1_455
Co3 P3 2.187744 1_556
Co3 P3 2.187744 1_555
Co3 P9 2.276484 1_555
Co3 P11 2.276708 1_555
Co3 Hf1 2.675331 1_555
Co3 Hf1 2.675332 1_556
Co3 Hf7 2.910958 1_555
Co3 Hf2 2.911033 1_455
Co4 P2 2.174273 1_555
Co4 P1 2.262609 1_555
Co4 P0 2.407782 1_655
Co4 P0 2.407783 1_656
Co4 Hf6 2.768570 1_656
Co4 Hf6 2.768570 1_655
Co4 Hf5 2.958024 1_555
Co4 Hf5 2.958024 1_556
Co5 P5 2.187426 1_565
Co5 P5 2.187427 1_566
Co5 P6 2.276231 1_555
Co5 P2 2.276540 1_565
Co5 Hf3 2.675178 1_565
Co5 Hf3 2.675179 1_566
Co5 Hf0 2.910367 1_555
Co5 Hf2 2.910808 1_565
Co6 P4 2.158815 1_555
Co6 P1 2.253775 1_554
Co6 P1 2.253775 1_555
Co6 P10 2.258802 1_655
Co6 Hf6 2.671595 1_655
Co6 Hf0 2.957715 1_554
Co6 Hf0 2.957715 1_555
Co6 Hf5 3.043984 1_555
Co7 P8 2.159066 1_565
Co7 P7 2.253745 1_554
Co7 P7 2.253746 1_555
Co7 P10 2.258887 1_555
Co7 Hf6 2.671678 1_555
Co7 Hf7 2.957605 1_565
Co7 Hf7 2.957606 1_564
Co7 Hf4 3.043620 1_555
Co8 P7 2.173744 1_555
Co8 P6 2.263430 1_555
Co8 P8 2.408027 1_566
Co8 P8 2.408028 1_565
Co8 Hf3 2.769181 1_565
Co8 Hf3 2.769181 1_566
Co8 Hf4 2.958354 1_555
Co8 Hf4 2.958354 1_556
Co9 P11 2.173696 1_555
Co9 P7 2.262714 1_555
Co9 P0 2.408295 1_555
Co9 P0 2.408295 1_556
Co9 Hf6 2.768718 1_556
Co9 Hf6 2.768719 1_555
Co9 Hf4 2.958102 1_555
Co9 Hf4 2.958103 1_556
Co10 P1 2.173790 1_555
Co10 P9 2.263244 1_555
Co10 P4 2.407989 1_556
Co10 P4 2.407990 1_555
Co10 Hf1 2.768926 1_555
Co10 Hf1 2.768926 1_556
Co10 Hf5 2.958566 1_555
Co10 Hf5 2.958566 1_556
Co11 P10 2.094547 1_545
Co11 P3 2.094807 1_555
Co11 P5 2.095227 1_455
Co11 Hf7 2.755340 1_555
Co11 Hf7 2.755342 1_554
Co11 Hf0 2.755537 1_444
Co11 Hf0 2.755537 1_445
Co11 Hf2 2.755547 1_455
Co11 Hf2 2.755547 1_454
Co12 P6 2.174222 1_555
Co12 P11 2.262774 1_555
Co12 P4 2.407593 1_555
Co12 P4 2.407593 1_556
Co12 Hf1 2.768844 1_555
Co12 Hf1 2.768845 1_556
Co12 Hf4 2.957858 1_555
Co12 Hf4 2.957858 1_556
Co13 P9 2.173986 1_555
Co13 P2 2.263423 1_555
Co13 P8 2.407525 1_556
Co13 P8 2.407525 1_555
Co13 Hf3 2.769132 1_555
Co13 Hf3 2.769133 1_556
Co13 Hf5 2.958139 1_555
Co13 Hf5 2.958140 1_556
Co14 P0 2.158608 1_555
Co14 P11 2.253450 1_554
Co14 P11 2.253450 1_555
Co14 P3 2.258970 1_555
Co14 Hf1 2.671182 1_555
Co14 Hf2 2.957633 1_455
Co14 Hf2 2.957633 1_454
Co14 Hf4 3.043268 1_555
Co15 P0 2.157997 1_655
Co15 P2 2.253087 1_554
Co15 P2 2.253088 1_555
Co15 P5 2.259327 1_555
Co15 Hf3 2.671451 1_555
Co15 Hf2 2.957387 1_554
Co15 Hf2 2.957388 1_555
Co15 Hf5 3.042285 1_555
