# generated using pymatgen
data_Li2V3CoO8
_symmetry_space_group_name_H-M   'P 1'
_cell_length_a   5.87827345
_cell_length_b   5.96078223
_cell_length_c   8.29868476
_cell_angle_alpha   90.02114226
_cell_angle_beta   91.30648094
_cell_angle_gamma   89.26645556
_symmetry_Int_Tables_number   1
_chemical_formula_structural   Li2V3CoO8
_chemical_formula_sum   'Li4 V6 Co2 O16'
_cell_volume   290.67909382
_cell_formula_units_Z   2
loop_
 _symmetry_equiv_pos_site_id
 _symmetry_equiv_pos_as_xyz
  1  'x, y, z'
loop_
 _atom_site_type_symbol
 _atom_site_label
 _atom_site_symmetry_multiplicity
 _atom_site_fract_x
 _atom_site_fract_y
 _atom_site_fract_z
 _atom_site_occupancy
  Li  Li0  1  0.25547400  0.50075400  0.37620900  1
  Li  Li1  1  0.74921900  0.00061400  0.87650400  1
  Li  Li2  1  0.75122500  0.49652700  0.62368900  1
  Li  Li3  1  0.24451700  0.99940000  0.12196000  1
  V  V0  1  0.24643700  0.74916300  0.74978500  1
  V  V1  1  0.50388600  0.00129600  0.50182100  1
  V  V2  1  0.24991000  0.24727400  0.74955100  1
  V  V3  1  0.75497100  0.25070000  0.24918300  1
  V  V4  1  0.99797800  0.49988300  0.00616400  1
  V  V5  1  0.74008900  0.76033000  0.24942600  1
  Co  Co0  1  0.99782300  0.99801800  0.50134100  1
  Co  Co1  1  0.50247600  0.50001700  0.99786100  1
  O  O0  1  0.02318400  0.49675400  0.76698500  1
  O  O1  1  0.52366300  0.98867100  0.25251900  1
  O  O2  1  0.98642200  0.51535900  0.23126500  1
  O  O3  1  0.46654200  0.00384000  0.74855800  1
  O  O4  1  0.02248300  0.00211800  0.73810500  1
  O  O5  1  0.52754800  0.50740900  0.23402300  1
  O  O6  1  0.23803000  0.22549200  0.51651600  1
  O  O7  1  0.74315300  0.71953800  0.00723900  1
  O  O8  1  0.24691200  0.76995300  0.52261500  1
  O  O9  1  0.75325200  0.28146000  0.00506900  1
  O  O10  1  0.75391600  0.22164200  0.49097900  1
  O  O11  1  0.25184500  0.72410300  0.98128200  1
  O  O12  1  0.76299200  0.77055300  0.48502900  1
  O  O13  1  0.25459500  0.28155500  0.98919100  1
  O  O14  1  0.97997400  0.99219500  0.26497600  1
  O  O15  1  0.47148200  0.49538300  0.76215500  1
loop_
_geom_bond_atom_site_label_1
_geom_bond_atom_site_label_2
_geom_bond_distance
_geom_bond_site_symmetry_2
Li0 O2 1.966101 1_455
Li0 O5 2.009833 1_555
Li0 O8 2.013167 1_555
Li0 O6 2.017317 1_555
Li1 O3 1.951304 1_555
Li1 O9 1.984920 1_556
Li1 O4 1.995989 1_655
Li1 O7 1.997511 1_546
Li2 O0 1.970575 1_655
Li2 O10 1.974014 1_555
Li2 O12 2.001205 1_555
Li2 O15 2.027554 1_555
Li3 O1 1.945977 1_555
Li3 O14 1.978523 1_455
Li3 O13 2.013220 1_564
Li3 O11 2.014120 1_554
Co0 O10 1.945607 1_565
Co0 O12 1.949738 1_555
Co0 O14 1.962250 1_555
Co0 O4 1.967037 1_665
Co0 O6 1.972036 1_665
Co0 O8 1.990127 1_655
Co1 O7 1.939623 1_556
Co1 O9 1.954664 1_556
Co1 O15 1.960593 1_555
Co1 O5 1.962535 1_556
Co1 O13 1.966678 1_555
Co1 O11 1.978421 1_555
O0 V2 1.991611 1_555
O0 V4 1.993822 1_456
O0 V0 2.016323 1_555
O1 V5 1.851722 1_555
O1 V1 2.076070 1_565
O1 V3 2.084509 1_565
O2 V4 1.873020 1_555
O2 V5 2.051181 1_555
O2 V3 2.103867 1_555
O3 V2 1.918436 1_555
O3 V0 2.007379 1_545
O3 V1 2.064326 1_555
O4 V0 1.989830 1_545
O4 V2 1.993955 1_555
O5 V5 1.972551 1_555
O5 V3 2.021033 1_555
O6 V2 1.937919 1_555
O6 V1 2.048939 1_555
O7 V4 1.977010 1_555
O7 V5 2.024860 1_555
O8 V0 1.889394 1_555
O8 V1 2.068472 1_565
O9 V4 1.952444 1_555
O9 V3 2.033957 1_555
O10 V1 1.987184 1_555
O10 V3 2.014271 1_555
O11 V0 1.926482 1_555
O11 V4 2.030080 1_456
O12 V5 1.957740 1_555
O12 V1 2.046189 1_565
O13 V4 1.987021 1_456
O13 V2 1.998693 1_555
O14 V5 1.989152 1_555
O14 V3 2.020132 1_565
O15 V2 1.984327 1_555
O15 V0 1.997890 1_555
