# generated using pymatgen
data_Te7As5I
_symmetry_space_group_name_H-M   'P 1'
_cell_length_a   7.79643295
_cell_length_b   7.79643295
_cell_length_c   14.06609871
_cell_angle_alpha   70.18305355
_cell_angle_beta   70.18305355
_cell_angle_gamma   30.32706076
_symmetry_Int_Tables_number   1
_chemical_formula_structural   Te7As5I
_chemical_formula_sum   'Te7 As5 I1'
_cell_volume   404.21150029
_cell_formula_units_Z   1
loop_
 _symmetry_equiv_pos_site_id
 _symmetry_equiv_pos_as_xyz
  1  'x, y, z'
loop_
 _atom_site_type_symbol
 _atom_site_label
 _atom_site_symmetry_multiplicity
 _atom_site_fract_x
 _atom_site_fract_y
 _atom_site_fract_z
 _atom_site_occupancy
  Te  Te0  1  0.17385000  0.17385000  0.62843600  1
  Te  Te1  1  0.82477800  0.82477800  0.37974900  1
  Te  Te2  1  0.90337700  0.90337700  0.65586400  1
  Te  Te3  1  0.09840800  0.09840800  0.33966700  1
  Te  Te4  1  0.48598400  0.48598400  0.85515600  1
  Te  Te5  1  0.51151100  0.51151100  0.14511600  1
  Te  Te6  1  0.79809300  0.79809300  0.09459700  1
  As  As0  1  0.99088600  0.99088600  0.00558700  1
  As  As1  1  0.67803200  0.67803200  0.76691100  1
  As  As2  1  0.31997600  0.31997600  0.22607600  1
  As  As3  1  0.36625100  0.36625100  0.54399700  1
  As  As4  1  0.63569700  0.63569700  0.45087000  1
  I  I0  1  0.21315800  0.21315800  0.90797500  1
loop_
_geom_bond_atom_site_label_1
_geom_bond_atom_site_label_2
_geom_bond_distance
_geom_bond_site_symmetry_2
As0 Te6 2.726617 1_555
As0 Te5 2.921503 1_565
As0 Te5 2.921503 1_655
As0 Te4 2.958280 1_654
As0 Te4 2.958280 1_564
As0 I0 3.138298 1_664
As1 Te4 2.715581 1_555
As1 Te0 2.836013 1_565
As1 Te0 2.836013 1_655
As1 I0 3.018679 1_565
As1 I0 3.018679 1_655
As1 Te2 3.196919 1_555
As2 Te5 2.701880 1_555
As2 Te6 2.848781 1_455
As2 Te6 2.848781 1_545
As2 Te1 2.991044 1_545
As2 Te1 2.991044 1_455
As2 Te3 3.151123 1_555
As3 Te0 2.716495 1_555
As3 Te2 2.750415 1_545
As3 Te2 2.750415 1_455
As4 Te1 2.664348 1_555
As4 Te3 2.745406 1_565
As4 Te3 2.745406 1_655
