# generated using pymatgen
data_MgTiNi(PO4)3
_symmetry_space_group_name_H-M   'P 1'
_cell_length_a   8.50992151
_cell_length_b   8.50992151
_cell_length_c   8.50992170
_cell_angle_alpha   60.86427130
_cell_angle_beta   60.86427130
_cell_angle_gamma   60.86427601
_symmetry_Int_Tables_number   1
_chemical_formula_structural   MgTiNi(PO4)3
_chemical_formula_sum   'Mg2 Ti2 Ni2 P6 O24'
_cell_volume   444.26561800
_cell_formula_units_Z   2
loop_
 _symmetry_equiv_pos_site_id
 _symmetry_equiv_pos_as_xyz
  1  'x, y, z'
loop_
 _atom_site_type_symbol
 _atom_site_label
 _atom_site_symmetry_multiplicity
 _atom_site_fract_x
 _atom_site_fract_y
 _atom_site_fract_z
 _atom_site_occupancy
  Mg  Mg0  1  0.99634200  0.99634200  0.99634200  1
  Mg  Mg1  1  0.49634200  0.49634200  0.49634200  1
  Ti  Ti0  1  0.14391300  0.14391300  0.14391300  1
  Ti  Ti1  1  0.64391300  0.64391300  0.64391300  1
  Ni  Ni0  1  0.35671000  0.35671000  0.35671000  1
  Ni  Ni1  1  0.85671000  0.85671000  0.85671000  1
  P  P0  1  0.74926800  0.45685700  0.04585400  1
  P  P1  1  0.04585400  0.74926800  0.45685700  1
  P  P2  1  0.45685700  0.04585400  0.74926800  1
  P  P3  1  0.54585400  0.95685700  0.24926800  1
  P  P4  1  0.95685700  0.24926800  0.54585400  1
  P  P5  1  0.24926800  0.54585400  0.95685700  1
  O  O0  1  0.30930900  0.51275100  0.11386700  1
  O  O1  1  0.51275100  0.11386700  0.30930900  1
  O  O2  1  0.91105800  0.25902000  0.05429200  1
  O  O3  1  0.11386700  0.30930900  0.51275100  1
  O  O4  1  0.80930900  0.61386700  0.01275100  1
  O  O5  1  0.58853700  0.44163000  0.24056000  1
  O  O6  1  0.05429200  0.91105800  0.25902000  1
  O  O7  1  0.24056000  0.58853700  0.44163000  1
  O  O8  1  0.38017300  0.00535600  0.18450200  1
  O  O9  1  0.44163000  0.24056000  0.58853700  1
  O  O10  1  0.74056000  0.94163000  0.08853700  1
  O  O11  1  0.00535600  0.18450200  0.38017300  1
  O  O12  1  0.01275100  0.80930900  0.61386700  1
  O  O13  1  0.25902000  0.05429200  0.91105800  1
  O  O14  1  0.55429200  0.75902000  0.41105800  1
  O  O15  1  0.61386700  0.01275100  0.80930900  1
  O  O16  1  0.75902000  0.41105800  0.55429200  1
  O  O17  1  0.94163000  0.08853700  0.74056000  1
  O  O18  1  0.41105800  0.55429200  0.75902000  1
  O  O19  1  0.18450200  0.38017300  0.00535600  1
  O  O20  1  0.88017300  0.68450200  0.50535600  1
  O  O21  1  0.08853700  0.74056000  0.94163000  1
  O  O22  1  0.50535600  0.88017300  0.68450200  1
  O  O23  1  0.68450200  0.50535600  0.88017300  1
loop_
_geom_bond_atom_site_label_1
_geom_bond_atom_site_label_2
_geom_bond_distance
_geom_bond_site_symmetry_2
Mg0 O10 2.130372 1_556
Mg0 O17 2.130372 1_565
Mg0 O21 2.130372 1_655
Mg0 O13 2.216293 1_665
Mg0 O2 2.216294 1_566
Mg0 O6 2.216294 1_656
Mg1 O9 2.130372 1_555
Mg1 O5 2.130372 1_555
Mg1 O7 2.130372 1_555
Mg1 O14 2.216293 1_555
Mg1 O16 2.216294 1_555
Mg1 O18 2.216294 1_555
Ni0 O3 1.953129 1_555
Ni0 O0 1.953129 1_555
Ni0 O1 1.953129 1_555
Ni0 O5 2.045771 1_555
Ni0 O9 2.045771 1_555
Ni0 O7 2.045771 1_555
Ni1 O4 1.953129 1_556
Ni1 O12 1.953129 1_655
Ni1 O15 1.953129 1_565
Ni1 O17 2.045771 1_565
Ni1 O10 2.045771 1_556
Ni1 O21 2.045771 1_655
O0 P5 1.511225 1_554
O1 P3 1.511225 1_545
O2 P0 1.567359 1_555
O2 Ti0 2.078911 1_655
O3 P4 1.511225 1_455
O4 P0 1.511225 1_555
O5 P0 1.545878 1_555
O6 P1 1.567359 1_555
O6 Ti0 2.078911 1_565
O7 P1 1.545878 1_555
O8 P3 1.559029 1_545
O8 Ti0 1.877000 1_555
O9 P2 1.545878 1_555
O10 P3 1.545878 1_555
O11 P4 1.559029 1_455
O11 Ti0 1.877000 1_555
O12 P1 1.511225 1_555
O13 P2 1.567359 1_555
O13 Ti0 2.078911 1_556
O14 P3 1.567359 1_555
O14 Ti1 2.078911 1_555
O15 P2 1.511225 1_555
O16 P4 1.567359 1_555
O16 Ti1 2.078911 1_555
O17 P4 1.545878 1_555
O18 P5 1.567359 1_555
O18 Ti1 2.078911 1_555
O19 P5 1.559029 1_554
O19 Ti0 1.877000 1_555
O20 P1 1.559029 1_655
O20 Ti1 1.877000 1_555
O21 P5 1.545878 1_555
O22 P2 1.559029 1_565
O22 Ti1 1.877000 1_555
O23 P0 1.559029 1_556
O23 Ti1 1.877000 1_555
