# generated using pymatgen
data_KZnP2H5O9
_symmetry_space_group_name_H-M   'P 1'
_cell_length_a   6.65148700
_cell_length_b   7.80505200
_cell_length_c   15.70425400
_cell_angle_alpha   90.00000000
_cell_angle_beta   90.00000000
_cell_angle_gamma   90.00000000
_symmetry_Int_Tables_number   1
_chemical_formula_structural   KZnP2H5O9
_chemical_formula_sum   'K4 Zn4 P8 H20 O36'
_cell_volume   815.28951729
_cell_formula_units_Z   4
loop_
 _symmetry_equiv_pos_site_id
 _symmetry_equiv_pos_as_xyz
  1  'x, y, z'
loop_
 _atom_site_type_symbol
 _atom_site_label
 _atom_site_symmetry_multiplicity
 _atom_site_fract_x
 _atom_site_fract_y
 _atom_site_fract_z
 _atom_site_occupancy
  K  K0  1  0.37631100  0.74701700  0.53532200  1
  K  K1  1  0.12368900  0.74701700  0.03532200  1
  K  K2  1  0.62368900  0.24701700  0.46467800  1
  K  K3  1  0.87631100  0.24701700  0.96467800  1
  Zn  Zn0  1  0.06251800  0.75063500  0.80354300  1
  Zn  Zn1  1  0.43748200  0.75063500  0.30354300  1
  Zn  Zn2  1  0.93748200  0.25063500  0.19645700  1
  Zn  Zn3  1  0.56251800  0.25063500  0.69645700  1
  P  P0  1  0.85491700  0.93904200  0.63818600  1
  P  P1  1  0.63392800  0.55622800  0.13539400  1
  P  P2  1  0.14508300  0.43904200  0.36181400  1
  P  P3  1  0.36607200  0.05622800  0.86460600  1
  P  P4  1  0.13392800  0.05622800  0.36460600  1
  P  P5  1  0.35491700  0.43904200  0.86181400  1
  P  P6  1  0.86607200  0.55622800  0.63539400  1
  P  P7  1  0.64508300  0.93904200  0.13818600  1
  H  H0  1  0.88961000  0.14611500  0.76651700  1
  H  H1  1  0.61119000  0.35728500  0.26536300  1
  H  H2  1  0.11039000  0.64611500  0.23348300  1
  H  H3  1  0.38881000  0.85728500  0.73463700  1
  H  H4  1  0.11119000  0.85728500  0.23463700  1
  H  H5  1  0.38961000  0.64611500  0.73348300  1
  H  H6  1  0.88881000  0.35728500  0.76536300  1
  H  H7  1  0.61039000  0.14611500  0.26651700  1
  H  H8  1  0.22932100  0.15145500  0.60748800  1
  H  H9  1  0.27372600  0.35320500  0.10498700  1
  H  H10  1  0.77067900  0.65145500  0.39251200  1
  H  H11  1  0.72627400  0.85320500  0.89501300  1
  H  H12  1  0.77372600  0.85320500  0.39501300  1
  H  H13  1  0.72932100  0.65145500  0.89251200  1
  H  H14  1  0.22627400  0.35320500  0.60498700  1
  H  H15  1  0.27067900  0.15145500  0.10748800  1
  H  H16  1  0.00492600  0.99755800  0.51217600  1
  H  H17  1  0.99507400  0.49755800  0.48782400  1
  H  H18  1  0.50492600  0.49755800  0.98782400  1
  H  H19  1  0.49507400  0.99755800  0.01217600  1
  O  O0  1  0.68162500  0.05670900  0.61570800  1
  O  O1  1  0.81175700  0.44002900  0.11568300  1
  O  O2  1  0.31837500  0.55670900  0.38429200  1
  O  O3  1  0.18824300  0.94002900  0.88431700  1
  O  O4  1  0.31175700  0.94002900  0.38431700  1
  O  O5  1  0.18162500  0.55670900  0.88429200  1
  O  O6  1  0.68824300  0.44002900  0.61568300  1
  O  O7  1  0.81837500  0.05670900  0.11570800  1
  O  O8  1  0.81483600  0.25156100  0.78332300  1
  O  O9  1  0.68516400  0.25156100  0.28332300  1
  O  O10  1  0.18516400  0.75156100  0.21667700  1
  O  O11  1  0.31483600  0.75156100  0.71667700  1
  O  O12  1  0.92677600  0.94347700  0.72965600  1
  O  O13  1  0.56878500  0.55635700  0.22884700  1
  O  O14  1  0.07322400  0.44347700  0.27034400  1
  O  O15  1  0.43121500  0.05635700  0.77115300  1
  O  O16  1  0.06878500  0.05635700  0.27115300  1
  O  O17  1  0.42677600  0.44347700  0.77034400  1
  O  O18  1  0.93121500  0.55635700  0.72884700  1
  O  O19  1  0.57322400  0.94347700  0.22965600  1
  O  O20  1  0.77586800  0.74913600  0.61385100  1
  O  O21  1  0.72413200  0.74913600  0.11385100  1
  O  O22  1  0.22413200  0.24913600  0.38614900  1
  O  O23  1  0.27586800  0.24913600  0.88614900  1
  O  O24  1  0.31777200  0.25253200  0.60577900  1
  O  O25  1  0.18222800  0.25253200  0.10577900  1
  O  O26  1  0.68222800  0.75253200  0.39422100  1
  O  O27  1  0.81777200  0.75253200  0.89422100  1
  O  O28  1  0.04251400  0.97477700  0.57805900  1
  O  O29  1  0.45566900  0.52748300  0.07404300  1
  O  O30  1  0.95748600  0.47477700  0.42194100  1
  O  O31  1  0.54433100  0.02748300  0.92595700  1
  O  O32  1  0.95566900  0.02748300  0.42595700  1
  O  O33  1  0.54251400  0.47477700  0.92194100  1
  O  O34  1  0.04433100  0.52748300  0.57404300  1
  O  O35  1  0.45748600  0.97477700  0.07805900  1
loop_
_geom_bond_atom_site_label_1
_geom_bond_atom_site_label_2
_geom_bond_distance
_geom_bond_site_symmetry_2
K0 O2 2.824944 1_555
K0 O4 2.842086 1_555
K0 O34 2.860373 1_555
K0 O11 2.877467 1_555
K0 O28 2.922342 1_555
K0 O20 2.929889 1_555
K0 O26 3.008725 1_555
K1 O5 2.824944 1_554
K1 O3 2.842086 1_554
K1 O29 2.860373 1_555
K1 O10 2.877467 1_555
K1 O35 2.922342 1_555
K1 O21 2.929889 1_455
K1 O27 3.008725 1_454
K2 O0 2.824944 1_555
K2 O6 2.842086 1_555
K2 O32 2.860373 1_555
K2 O9 2.877467 1_555
K2 O30 2.922342 1_555
K2 O22 2.929889 1_555
K2 O24 3.008725 1_555
K3 O7 2.824944 1_556
K3 O1 2.842086 1_556
K3 O31 2.860373 1_555
K3 O8 2.877467 1_555
K3 O33 2.922342 1_555
K3 O23 2.929889 1_655
K3 O25 3.008725 1_656
H0 O8 0.997181 1_555
H0 O12 1.702254 1_545
H1 O9 1.001287 1_555
H1 O13 1.680060 1_555
H2 O10 0.997181 1_555
H2 O14 1.702254 1_555
H3 O11 1.001287 1_555
H3 O15 1.680060 1_565
H4 O10 1.001287 1_555
H4 O16 1.680060 1_565
H5 O11 0.997181 1_555
H5 O17 1.702254 1_555
H6 O8 1.001287 1_555
H6 O18 1.680060 1_555
H7 O9 0.997181 1_555
H7 O19 1.702254 1_545
H8 O24 0.984497 1_555
H9 O25 0.993963 1_555
H10 O26 0.984497 1_555
H11 O27 0.993963 1_555
H12 O26 0.993963 1_555
H13 O27 0.984497 1_555
H14 O24 0.993963 1_555
H15 O25 0.984497 1_555
H16 O28 1.079171 1_555
H16 O32 1.412525 1_465
H17 O30 1.079171 1_555
H17 O34 1.412525 1_655
H18 O33 1.079171 1_555
H18 O29 1.412525 1_556
H19 O35 1.079171 1_555
H19 O31 1.412525 1_564
O0 P0 1.515475 1_545
O0 Zn3 2.127609 1_555
O1 P1 1.522313 1_555
O1 Zn2 2.119805 1_555
O2 P2 1.515475 1_555
O2 Zn1 2.127609 1_555
O3 P3 1.522313 1_565
O3 Zn0 2.119805 1_555
O4 P4 1.522313 1_565
O4 Zn1 2.119805 1_555
O5 P5 1.515475 1_555
O5 Zn0 2.127609 1_555
O6 P6 1.522313 1_555
O6 Zn3 2.119805 1_555
O7 P7 1.515475 1_545
O7 Zn2 2.127609 1_555
O8 Zn3 2.162789 1_555
O9 Zn2 2.162789 1_555
O10 Zn1 2.162789 1_555
O11 Zn0 2.162789 1_555
O12 P0 1.514296 1_555
O12 Zn0 2.104054 1_655
O13 P1 1.530237 1_555
O13 Zn1 2.106682 1_555
O14 P2 1.514296 1_555
O14 Zn2 2.104054 1_455
O15 P3 1.530237 1_555
O15 Zn3 2.106682 1_555
O16 P4 1.530237 1_555
O16 Zn2 2.106682 1_455
O17 P5 1.514296 1_555
O17 Zn3 2.104054 1_555
O18 P6 1.530237 1_555
O18 Zn0 2.106682 1_655
O19 P7 1.514296 1_555
O19 Zn1 2.104054 1_555
O20 P0 1.618488 1_555
O20 P6 1.655732 1_555
O21 P7 1.618488 1_555
O21 P1 1.655732 1_555
O22 P2 1.618488 1_555
O22 P4 1.655732 1_555
O23 P5 1.618488 1_555
O23 P3 1.655732 1_555
O24 Zn3 2.162920 1_555
O25 Zn2 2.162920 1_455
O26 Zn1 2.162920 1_555
O27 Zn0 2.162920 1_655
O28 P0 1.589466 1_455
O29 P1 1.544172 1_555
O30 P2 1.589466 1_655
O31 P3 1.544172 1_555
O32 P4 1.544172 1_655
O33 P5 1.589466 1_555
O34 P6 1.544172 1_455
O35 P7 1.589466 1_555
