# generated using pymatgen
data_Zn8Cu5
_symmetry_space_group_name_H-M   'P 1'
_cell_length_a   7.57292636
_cell_length_b   7.57292573
_cell_length_c   7.57292507
_cell_angle_alpha   109.47122426
_cell_angle_beta   109.47122258
_cell_angle_gamma   109.47122415
_symmetry_Int_Tables_number   1
_chemical_formula_structural   Zn8Cu5
_chemical_formula_sum   'Zn16 Cu10'
_cell_volume   334.32522991
_cell_formula_units_Z   2
loop_
 _symmetry_equiv_pos_site_id
 _symmetry_equiv_pos_as_xyz
  1  'x, y, z'
loop_
 _atom_site_type_symbol
 _atom_site_label
 _atom_site_symmetry_multiplicity
 _atom_site_fract_x
 _atom_site_fract_y
 _atom_site_fract_z
 _atom_site_occupancy
  Zn  Zn0  1  0.21897439  0.21897439  0.21897439  1
  Zn  Zn1  1  1.00000000  0.78102561  1.00000000  1
  Zn  Zn2  1  0.78102561  1.00000000  -0.00000000  1
  Zn  Zn3  1  1.00000000  1.00000000  0.78102561  1
  Zn  Zn4  1  0.34819530  0.34819530  0.62697352  1
  Zn  Zn5  1  0.65180470  0.27877922  0.00000000  1
  Zn  Zn6  1  0.27877922  0.65180470  1.00000000  1
  Zn  Zn7  1  1.00000000  0.27877922  0.65180470  1
  Zn  Zn8  1  0.37302648  0.72122078  0.72122078  1
  Zn  Zn9  1  0.72122078  0.37302648  0.72122078  1
  Zn  Zn10  1  0.27877922  1.00000000  0.65180470  1
  Zn  Zn11  1  0.65180470  0.00000000  0.27877922  1
  Zn  Zn12  1  0.00000000  0.65180470  0.27877922  1
  Zn  Zn13  1  0.62697352  0.34819530  0.34819530  1
  Zn  Zn14  1  0.34819530  0.62697352  0.34819530  1
  Zn  Zn15  1  0.72122078  0.72122078  0.37302648  1
  Cu  Cu0  1  0.65527215  0.65527215  0.65527215  1
  Cu  Cu1  1  0.34472785  0.00000000  -0.00000000  1
  Cu  Cu2  1  -0.00000000  0.34472785  -0.00000000  1
  Cu  Cu3  1  0.00000000  -0.00000000  0.34472785  1
  Cu  Cu4  1  0.64426490  0.00000000  0.64426490  1
  Cu  Cu5  1  0.64426490  0.64426490  0.00000000  1
  Cu  Cu6  1  0.35573510  0.35573510  1.00000000  1
  Cu  Cu7  1  0.35573510  1.00000000  0.35573510  1
  Cu  Cu8  1  1.00000000  0.35573510  0.35573510  1
  Cu  Cu9  1  0.00000000  0.64426490  0.64426490  1
loop_
_geom_bond_atom_site_label_1
_geom_bond_atom_site_label_2
_geom_bond_distance
_geom_bond_site_symmetry_2
Zn0 Zn4 2.606135 1_555
Zn0 Zn14 2.606135 1_555
Zn0 Zn13 2.606136 1_555
Zn0 Zn3 2.707954 1_444
Zn0 Zn1 2.707954 1_444
Zn0 Zn2 2.707955 1_445
Zn1 Zn9 2.606137 1_555
Zn1 Zn12 2.606142 1_656
Zn1 Zn6 2.606143 1_655
Zn1 Zn3 2.707955 1_555
Zn1 Zn2 2.707955 1_556
Zn2 Zn8 2.606137 1_554
Zn2 Zn5 2.606143 1_565
Zn2 Zn3 2.707955 1_554
Zn3 Zn7 2.606143 1_565
Zn4 Zn8 2.595582 1_555
Zn4 Zn9 2.595582 1_555
Zn4 Zn7 2.595590 1_455
Zn5 Zn9 2.595589 1_554
Zn6 Zn7 2.595585 1_455
Zn6 Zn8 2.595589 1_555
Zn7 Zn9 2.595590 1_555
Zn10 Zn12 2.595585 1_555
Zn10 Zn5 2.595585 1_566
Zn10 Zn4 2.595589 1_565
Zn10 Zn8 2.595589 1_555
Zn10 Zn3 2.606143 1_455
Zn11 Zn7 2.595585 1_555
Zn11 Zn6 2.595586 1_544
Zn11 Zn13 2.595589 1_555
Zn11 Zn15 2.595589 1_545
Zn11 Zn2 2.606142 1_545
Zn12 Zn5 2.595585 1_455
Zn12 Zn15 2.595590 1_455
Zn12 Zn14 2.595590 1_555
Zn13 Zn9 2.595582 1_555
Zn13 Zn15 2.595582 1_555
Zn13 Zn5 2.595589 1_555
Zn14 Zn8 2.595582 1_555
Zn14 Zn15 2.595582 1_555
Zn14 Zn6 2.595589 1_554
Zn15 Zn3 2.606137 1_555
Cu0 Zn15 2.514848 1_555
Cu0 Zn9 2.514848 1_555
Cu0 Zn8 2.514849 1_555
Cu0 Zn13 2.567463 1_555
Cu0 Zn14 2.567463 1_555
Cu0 Zn4 2.567463 1_555
Cu0 Zn2 2.584384 1_556
Cu0 Zn1 2.584384 1_555
Cu0 Zn3 2.584384 1_555
Cu0 Cu5 2.667328 1_556
Cu0 Cu4 2.667328 1_565
Cu0 Cu9 2.667328 1_655
Cu1 Zn13 2.514854 1_555
Cu1 Zn10 2.514856 1_544
Cu1 Zn6 2.514856 1_544
Cu1 Zn11 2.567467 1_555
Cu1 Zn5 2.567467 1_555
Cu1 Zn8 2.567472 1_544
Cu1 Zn0 2.584384 1_555
Cu1 Zn3 2.584384 1_444
Cu1 Zn1 2.584384 1_444
Cu1 Cu9 2.667327 1_544
Cu1 Cu7 2.667328 1_545
Cu1 Cu6 2.667328 1_554
Cu2 Zn14 2.514854 1_555
Cu2 Zn7 2.514856 1_454
Cu2 Zn5 2.514856 1_455
Cu2 Zn12 2.567467 1_555
Cu2 Zn6 2.567467 1_554
Cu2 Zn9 2.567472 1_454
Cu2 Zn3 2.584384 1_444
Cu2 Zn2 2.584384 1_445
Cu2 Zn0 2.584384 1_555
Cu2 Cu4 2.667327 1_454
Cu2 Cu8 2.667328 1_455
Cu2 Cu6 2.667328 1_554
Cu3 Zn4 2.514854 1_555
Cu3 Zn12 2.514856 1_545
Cu3 Zn11 2.514856 1_455
Cu3 Zn7 2.567467 1_455
Cu3 Zn10 2.567467 1_545
Cu3 Zn15 2.567472 1_445
Cu3 Zn1 2.584384 1_444
Cu3 Zn2 2.584384 1_445
Cu3 Zn0 2.584384 1_555
Cu3 Cu5 2.667327 1_445
Cu3 Cu8 2.667328 1_455
Cu3 Cu7 2.667328 1_545
Cu4 Zn14 2.497565 1_545
Cu4 Zn9 2.497569 1_555
Cu4 Cu7 2.523038 1_545
Cu4 Zn2 2.543615 1_546
Cu4 Zn3 2.543615 1_545
Cu4 Zn15 2.782656 1_545
Cu4 Zn8 2.782656 1_545
Cu4 Zn5 2.782660 1_556
Cu4 Zn7 2.782660 1_555
Cu4 Zn11 2.787348 1_555
Cu4 Zn10 2.787349 1_545
Cu5 Zn4 2.497565 1_554
Cu5 Zn15 2.497568 1_555
Cu5 Cu6 2.523038 1_554
Cu5 Zn2 2.543615 1_555
Cu5 Zn1 2.543615 1_554
Cu5 Zn9 2.782656 1_554
Cu5 Zn8 2.782656 1_554
Cu5 Zn11 2.782660 1_565
Cu5 Zn12 2.782660 1_655
Cu5 Zn5 2.787349 1_555
Cu5 Zn6 2.787349 1_554
Cu6 Zn6 2.497561 1_555
Cu6 Zn5 2.497562 1_556
Cu6 Zn3 2.543615 1_445
Cu6 Zn0 2.543615 1_556
Cu6 Zn14 2.782657 1_556
Cu6 Zn13 2.782657 1_556
Cu6 Zn10 2.782660 1_545
Cu6 Zn7 2.782660 1_455
Cu6 Zn15 2.787351 1_556
Cu6 Zn4 2.787356 1_555
Cu7 Zn10 2.497561 1_555
Cu7 Zn11 2.497561 1_565
Cu7 Zn1 2.543615 1_454
Cu7 Zn0 2.543615 1_565
Cu7 Zn4 2.782657 1_565
Cu7 Zn13 2.782657 1_565
Cu7 Zn6 2.782660 1_554
Cu7 Zn12 2.782660 1_555
Cu7 Zn9 2.787351 1_565
Cu7 Zn14 2.787356 1_555
Cu8 Zn7 2.497561 1_555
Cu8 Zn12 2.497561 1_655
Cu8 Cu9 2.523037 1_655
Cu8 Zn2 2.543615 1_545
Cu8 Zn0 2.543615 1_655
Cu8 Zn4 2.782657 1_655
Cu8 Zn14 2.782657 1_655
Cu8 Zn5 2.782660 1_555
Cu8 Zn11 2.782660 1_555
Cu8 Zn8 2.787351 1_655
Cu8 Zn13 2.787356 1_555
Cu9 Zn13 2.497565 1_455
Cu9 Zn8 2.497569 1_555
Cu9 Zn1 2.543615 1_455
Cu9 Zn3 2.543615 1_455
Cu9 Zn15 2.782656 1_455
Cu9 Zn9 2.782656 1_455
Cu9 Zn6 2.782660 1_555
Cu9 Zn10 2.782660 1_555
Cu9 Zn12 2.787348 1_555
Cu9 Zn7 2.787349 1_455
