# generated using pymatgen
data_Eu6Ni20P13
_symmetry_space_group_name_H-M   'P 1'
_cell_length_a   12.79208785
_cell_length_b   12.79208785
_cell_length_c   3.79455500
_cell_angle_alpha   90.00000000
_cell_angle_beta   90.00000000
_cell_angle_gamma   119.99999921
_symmetry_Int_Tables_number   1
_chemical_formula_structural   Eu6Ni20P13
_chemical_formula_sum   'Eu6 Ni20 P13'
_cell_volume   537.74248974
_cell_formula_units_Z   1
loop_
 _symmetry_equiv_pos_site_id
 _symmetry_equiv_pos_as_xyz
  1  'x, y, z'
loop_
 _atom_site_type_symbol
 _atom_site_label
 _atom_site_symmetry_multiplicity
 _atom_site_fract_x
 _atom_site_fract_y
 _atom_site_fract_z
 _atom_site_occupancy
  Eu  Eu0  1  0.18815700  0.46884800  0.00000000  1
  Eu  Eu1  1  0.53115200  0.71930900  0.00000000  1
  Eu  Eu2  1  0.28069100  0.81184300  0.00000000  1
  Eu  Eu3  1  0.71913100  0.18751900  0.50000000  1
  Eu  Eu4  1  0.81248100  0.53161200  0.50000000  1
  Eu  Eu5  1  0.46838800  0.28086900  0.50000000  1
  Ni  Ni0  1  0.08940300  0.19202200  0.00000000  1
  Ni  Ni1  1  0.80797800  0.89738200  0.00000000  1
  Ni  Ni2  1  0.10261800  0.91059700  0.00000000  1
  Ni  Ni3  1  0.33333300  0.66666700  0.50000000  1
  Ni  Ni4  1  0.91732800  0.07317900  0.50000000  1
  Ni  Ni5  1  0.92682100  0.84414900  0.50000000  1
  Ni  Ni6  1  0.15585100  0.08267200  0.50000000  1
  Ni  Ni7  1  0.66666700  0.33333300  0.00000000  1
  Ni  Ni8  1  0.41613900  0.43884600  0.00000000  1
  Ni  Ni9  1  0.56115400  0.97729300  0.00000000  1
  Ni  Ni10  1  0.02270700  0.58386100  0.00000000  1
  Ni  Ni11  1  0.24630800  0.31358400  0.50000000  1
  Ni  Ni12  1  0.68641600  0.93272400  0.50000000  1
  Ni  Ni13  1  0.06727600  0.75369200  0.50000000  1
  Ni  Ni14  1  0.43527600  0.02341100  0.50000000  1
  Ni  Ni15  1  0.97658900  0.41186500  0.50000000  1
  Ni  Ni16  1  0.58813500  0.56472400  0.50000000  1
  Ni  Ni17  1  0.92590700  0.24113400  0.00000000  1
  Ni  Ni18  1  0.75886600  0.68477300  0.00000000  1
  Ni  Ni19  1  0.31522700  0.07409300  0.00000000  1
  P  P0  1  0.38745400  0.51858900  0.50000000  1
  P  P1  1  0.48141100  0.86886500  0.50000000  1
  P  P2  1  0.13113500  0.61254600  0.50000000  1
  P  P3  1  0.04362300  0.27434000  0.50000000  1
  P  P4  1  0.72566000  0.76928300  0.50000000  1
  P  P5  1  0.23071700  0.95637700  0.50000000  1
  P  P6  1  0.51732100  0.13277000  0.00000000  1
  P  P7  1  0.86723000  0.38455200  0.00000000  1
  P  P8  1  0.61544800  0.48267900  0.00000000  1
  P  P9  1  0.76685100  0.04538300  0.00000000  1
  P  P10  1  0.95461700  0.72146800  0.00000000  1
  P  P11  1  0.27853200  0.23314900  0.00000000  1
  P  P12  1  0.00000000  0.00000000  0.00000000  1
loop_
_geom_bond_atom_site_label_1
_geom_bond_atom_site_label_2
_geom_bond_distance
_geom_bond_site_symmetry_2
Eu0 P3 2.934054 1_554
Eu0 P3 2.934054 1_555
Eu0 Ni3 2.958477 1_554
Eu0 Ni3 2.958477 1_555
Eu0 P2 2.975153 1_555
Eu0 P2 2.975153 1_554
Eu0 P0 2.980255 1_554
Eu0 P0 2.980255 1_555
Eu0 Ni15 3.079417 1_455
Eu0 Ni15 3.079417 1_454
Eu0 Ni11 3.094390 1_555
Eu0 Ni11 3.094390 1_554
Eu0 Ni0 3.108433 1_555
Eu0 Ni10 3.123748 1_555
Eu0 Ni8 3.125980 1_555
Eu0 Ni17 3.157100 1_455
Eu1 P4 2.934054 1_555
Eu1 P4 2.934054 1_554
Eu1 Ni3 2.958479 1_554
Eu1 Ni3 2.958479 1_555
Eu1 P0 2.975153 1_555
Eu1 P0 2.975153 1_554
Eu1 P1 2.980255 1_554
Eu1 P1 2.980255 1_555
Eu1 Ni16 3.079417 1_555
Eu1 Ni16 3.079417 1_554
Eu1 Ni12 3.094390 1_555
Eu1 Ni12 3.094390 1_554
Eu1 Ni1 3.108435 1_555
Eu1 Ni8 3.123748 1_555
Eu1 Ni9 3.125980 1_555
Eu1 Ni18 3.157100 1_555
Eu2 P5 2.934054 1_555
Eu2 P5 2.934054 1_554
Eu2 Ni3 2.958470 1_554
Eu2 Ni3 2.958470 1_555
Eu2 P1 2.975153 1_555
Eu2 P1 2.975153 1_554
Eu2 P2 2.980255 1_555
Eu2 P2 2.980255 1_554
Eu2 Ni14 3.079417 1_565
Eu2 Ni14 3.079417 1_564
Eu2 Ni13 3.094390 1_554
Eu2 Ni13 3.094390 1_555
Eu2 Ni2 3.108445 1_555
Eu2 Ni9 3.123748 1_555
Eu2 Ni10 3.125980 1_555
Eu2 Ni19 3.157100 1_565
Eu3 P9 2.896224 1_555
Eu3 P9 2.896224 1_556
Eu3 P7 2.960828 1_556
Eu3 P7 2.960828 1_555
Eu3 Ni7 2.963294 1_555
Eu3 Ni7 2.963294 1_556
Eu3 P6 2.991096 1_556
Eu3 P6 2.991096 1_555
Eu3 Ni17 3.041784 1_555
Eu3 Ni17 3.041784 1_556
Eu3 Ni12 3.071570 1_545
Eu3 Ni9 3.079112 1_546
Eu3 Ni9 3.079112 1_545
Eu3 Ni15 3.103395 1_555
Eu3 Ni14 3.157398 1_555
Eu4 P10 2.896224 1_555
Eu4 P10 2.896224 1_556
Eu4 P8 2.960831 1_556
Eu4 P8 2.960831 1_555
Eu4 Ni7 2.963301 1_556
Eu4 Ni7 2.963301 1_555
Eu4 P7 2.991086 1_555
Eu4 P7 2.991086 1_556
Eu4 Ni18 3.041784 1_556
Eu4 Ni18 3.041784 1_555
Eu4 Ni13 3.071570 1_655
Eu4 Ni10 3.079112 1_655
Eu4 Ni10 3.079112 1_656
Eu4 Ni16 3.103395 1_555
Eu4 Ni15 3.157398 1_555
Eu5 P11 2.896224 1_555
Eu5 P11 2.896224 1_556
Eu5 P6 2.960822 1_555
Eu5 P6 2.960822 1_556
Eu5 Ni7 2.963303 1_555
Eu5 Ni7 2.963303 1_556
Eu5 P8 2.991093 1_556
Eu5 P8 2.991093 1_555
Eu5 Ni19 3.041784 1_555
Eu5 Ni19 3.041784 1_556
Eu5 Ni11 3.071570 1_555
Eu5 Ni8 3.079112 1_556
Eu5 Ni8 3.079112 1_555
Eu5 Ni14 3.103395 1_555
Eu5 Ni16 3.157398 1_555
Ni0 P12 2.128951 1_555
Ni0 P11 2.203914 1_555
Ni0 P3 2.380785 1_555
Ni0 P3 2.380785 1_554
Ni1 P12 2.128950 1_665
Ni1 P9 2.203901 1_565
Ni1 P4 2.380790 1_555
Ni1 P4 2.380790 1_554
Ni2 P12 2.128940 1_565
Ni2 P10 2.203910 1_455
Ni2 P5 2.380792 1_554
Ni2 P5 2.380792 1_555
Ni3 P2 2.319215 1_555
Ni3 P1 2.319218 1_555
Ni3 P0 2.319227 1_555
Ni4 P3 2.252663 1_655
Ni4 P12 2.566000 1_656
Ni4 P12 2.566000 1_655
Ni4 P9 2.597489 1_555
Ni4 P9 2.597489 1_556
Ni5 P4 2.252663 1_555
Ni5 P12 2.566000 1_665
Ni5 P12 2.566000 1_666
Ni5 P10 2.597489 1_555
Ni5 P10 2.597489 1_556
Ni6 P5 2.252663 1_545
Ni6 P12 2.566000 1_556
Ni6 P12 2.566000 1_555
Ni6 P11 2.597489 1_556
Ni6 P11 2.597489 1_555
Ni7 P7 2.308831 1_555
Ni7 P6 2.308838 1_555
Ni7 P8 2.308855 1_555
Ni8 P0 2.269180 1_555
Ni8 P0 2.269180 1_554
Ni8 P8 2.320595 1_555
Ni8 P11 2.321741 1_555
Ni9 P1 2.269180 1_554
Ni9 P1 2.269180 1_555
Ni9 P6 2.320608 1_565
Ni9 P9 2.321741 1_565
Ni10 P2 2.269180 1_555
Ni10 P2 2.269180 1_554
Ni10 P7 2.320599 1_455
Ni10 P10 2.321741 1_455
Ni11 P11 2.291816 1_556
Ni11 P11 2.291816 1_555
Ni11 P0 2.324277 1_555
Ni11 P3 2.381773 1_555
Ni12 P9 2.291816 1_565
Ni12 P9 2.291816 1_566
Ni12 P1 2.324277 1_555
Ni12 P4 2.381773 1_555
Ni13 P10 2.291816 1_455
Ni13 P10 2.291816 1_456
Ni13 P2 2.324277 1_555
Ni13 P5 2.381773 1_555
Ni14 P6 2.278148 1_555
Ni14 P6 2.278148 1_556
Ni14 P5 2.310576 1_545
Ni14 P1 2.328824 1_545
Ni15 P7 2.278150 1_555
Ni15 P7 2.278150 1_556
Ni15 P3 2.310576 1_655
Ni15 P2 2.328824 1_655
Ni16 P8 2.278143 1_556
Ni16 P8 2.278143 1_555
Ni16 P4 2.310576 1_555
Ni16 P0 2.328824 1_555
Ni17 P7 2.303537 1_555
Ni17 P9 2.305484 1_555
Ni17 P3 2.325509 1_654
Ni17 P3 2.325509 1_655
Ni18 P8 2.303528 1_555
Ni18 P10 2.305484 1_555
Ni18 P4 2.325509 1_555
Ni18 P4 2.325509 1_554
Ni19 P6 2.303525 1_555
Ni19 P11 2.305484 1_555
Ni19 P5 2.325509 1_545
Ni19 P5 2.325509 1_544
