# generated using pymatgen
data_V2Cu3O11
_symmetry_space_group_name_H-M   'P 1'
_cell_length_a   6.09955443
_cell_length_b   6.09955443
_cell_length_c   7.35421133
_cell_angle_alpha   83.46677018
_cell_angle_beta   83.46677018
_cell_angle_gamma   54.83094692
_symmetry_Int_Tables_number   1
_chemical_formula_structural   V2Cu3O11
_chemical_formula_sum   'V2 Cu3 O11'
_cell_volume   221.81948821
_cell_formula_units_Z   1
loop_
 _symmetry_equiv_pos_site_id
 _symmetry_equiv_pos_as_xyz
  1  'x, y, z'
loop_
 _atom_site_type_symbol
 _atom_site_label
 _atom_site_symmetry_multiplicity
 _atom_site_fract_x
 _atom_site_fract_y
 _atom_site_fract_z
 _atom_site_occupancy
  V  V0  1  0.50642200  0.50642200  0.25643200  1
  V  V1  1  0.49357800  0.49357800  0.74356800  1
  Cu  Cu0  1  0.00000000  0.00000000  0.00000000  1
  Cu  Cu1  1  0.50000000  0.00000000  0.00000000  1
  Cu  Cu2  1  0.00000000  0.50000000  0.00000000  1
  O  O0  1  0.67468700  0.19114100  0.18466500  1
  O  O1  1  0.32531300  0.80885900  0.81533500  1
  O  O2  1  0.80885900  0.32531300  0.81533500  1
  O  O3  1  0.19114100  0.67468700  0.18466500  1
  O  O4  1  0.66769200  0.66769200  0.14255300  1
  O  O5  1  0.33230800  0.33230800  0.85744700  1
  O  O6  1  0.82313500  0.82313500  0.52901700  1
  O  O7  1  0.17686500  0.17686500  0.47098300  1
  O  O8  1  0.50000000  0.50000000  0.50000000  1
  O  O9  1  0.15352700  0.15352700  0.10215900  1
  O  O10  1  0.84647300  0.84647300  0.89784100  1
loop_
_geom_bond_atom_site_label_1
_geom_bond_atom_site_label_2
_geom_bond_distance
_geom_bond_site_symmetry_2
Cu0 O9 1.910163 1_555
Cu0 O10 1.910163 1_444
Cu0 O1 2.054993 1_544
Cu0 O2 2.054993 1_454
Cu0 O3 2.054993 1_545
Cu0 O0 2.054993 1_455
Cu1 O10 1.851094 1_544
Cu1 O9 1.851094 1_555
Cu1 O4 1.904169 1_545
Cu1 O5 1.904169 1_554
Cu1 O0 2.541568 1_555
Cu1 O1 2.541568 1_544
Cu2 O10 1.851094 1_454
Cu2 O9 1.851094 1_555
Cu2 O4 1.904169 1_455
Cu2 O5 1.904169 1_554
Cu2 O3 2.541568 1_555
Cu2 O2 2.541568 1_454
O0 V0 1.692380 1_555
O1 V1 1.692380 1_555
O2 V1 1.692380 1_555
O3 V0 1.692380 1_555
O4 V0 1.837489 1_555
O5 V1 1.837489 1_555
O8 V1 1.783671 1_555
O8 V0 1.783671 1_555
