# generated using pymatgen
data_Ba4(NbSe4)3
_symmetry_space_group_name_H-M   'P 1'
_cell_length_a   9.40720651
_cell_length_b   9.40720651
_cell_length_c   12.12359455
_cell_angle_alpha   50.10462951
_cell_angle_beta   50.10462951
_cell_angle_gamma   43.66054074
_symmetry_Int_Tables_number   1
_chemical_formula_structural   Ba4(NbSe4)3
_chemical_formula_sum   'Ba4 Nb3 Se12'
_cell_volume   535.46624864
_cell_formula_units_Z   1
loop_
 _symmetry_equiv_pos_site_id
 _symmetry_equiv_pos_as_xyz
  1  'x, y, z'
loop_
 _atom_site_type_symbol
 _atom_site_label
 _atom_site_symmetry_multiplicity
 _atom_site_fract_x
 _atom_site_fract_y
 _atom_site_fract_z
 _atom_site_occupancy
  Ba  Ba0  1  0.33417400  0.33417400  0.79054700  1
  Ba  Ba1  1  0.33153000  0.33153000  0.29928000  1
  Ba  Ba2  1  0.66847000  0.66847000  0.70072000  1
  Ba  Ba3  1  0.66582600  0.66582600  0.20945300  1
  Nb  Nb0  1  0.00000000  0.00000000  0.00000000  1
  Nb  Nb1  1  0.99939900  0.99939900  0.71977900  1
  Nb  Nb2  1  0.00060100  0.00060100  0.28022100  1
  Se  Se0  1  0.16562300  0.16562300  0.70714400  1
  Se  Se1  1  0.17527800  0.17527800  0.19635100  1
  Se  Se2  1  0.17787800  0.64738000  0.46349800  1
  Se  Se3  1  0.17575000  0.65836600  0.95526500  1
  Se  Se4  1  0.64738000  0.17787800  0.46349800  1
  Se  Se5  1  0.65836600  0.17575000  0.95526500  1
  Se  Se6  1  0.82472200  0.82472200  0.80364900  1
  Se  Se7  1  0.83437700  0.83437700  0.29285600  1
  Se  Se8  1  0.82425000  0.34163400  0.04473500  1
  Se  Se9  1  0.82212200  0.35262000  0.53650200  1
  Se  Se10  1  0.34163400  0.82425000  0.04473500  1
  Se  Se11  1  0.35262000  0.82212200  0.53650200  1
loop_
_geom_bond_atom_site_label_1
_geom_bond_atom_site_label_2
_geom_bond_distance
_geom_bond_site_symmetry_2
Ba0 Se6 3.500470 1_545
Ba0 Se6 3.500470 1_455
Ba0 Se2 3.576114 1_555
Ba0 Se4 3.576114 1_555
Ba0 Se11 3.594139 1_555
Ba0 Se9 3.594139 1_555
Ba0 Se3 3.595601 1_555
Ba0 Se5 3.595601 1_555
Ba0 Se1 3.610953 1_556
Ba0 Se10 3.652392 1_546
Ba0 Se8 3.652392 1_456
Ba0 Se0 3.715039 1_555
Ba1 Se7 3.498603 1_545
Ba1 Se7 3.498603 1_455
Ba1 Se2 3.544601 1_555
Ba1 Se4 3.544601 1_555
Ba1 Se10 3.595713 1_555
Ba1 Se8 3.595713 1_555
Ba1 Se9 3.598890 1_455
Ba1 Se11 3.598890 1_545
Ba1 Se0 3.612132 1_555
Ba1 Se1 3.702744 1_555
Ba1 Se5 3.723866 1_554
Ba1 Se3 3.723866 1_554
Ba2 Se0 3.498603 1_565
Ba2 Se0 3.498603 1_655
Ba2 Se11 3.544601 1_555
Ba2 Se9 3.544601 1_555
Ba2 Se5 3.595713 1_555
Ba2 Se3 3.595713 1_555
Ba2 Se2 3.598890 1_655
Ba2 Se4 3.598890 1_565
Ba2 Se7 3.612132 1_555
Ba2 Se6 3.702744 1_555
Ba2 Se10 3.723866 1_556
Ba2 Se8 3.723866 1_556
Ba3 Se1 3.500470 1_655
Ba3 Se1 3.500470 1_565
Ba3 Se9 3.576114 1_555
Ba3 Se11 3.576114 1_555
Ba3 Se4 3.594139 1_555
Ba3 Se2 3.594139 1_555
Ba3 Se10 3.595601 1_555
Ba3 Se8 3.595601 1_555
Ba3 Se6 3.610953 1_554
Ba3 Se3 3.652392 1_654
Ba3 Se5 3.652392 1_564
Ba3 Se7 3.715039 1_555
Nb0 Se8 2.598833 1_455
Nb0 Se10 2.598833 1_545
Nb0 Se5 2.598833 1_454
Nb0 Se3 2.598833 1_544
Nb0 Se0 2.604050 1_554
Nb0 Se7 2.604050 1_445
Nb1 Se11 2.454396 1_655
Nb1 Se9 2.454396 1_565
Nb1 Se6 2.460587 1_555
Nb1 Se5 2.796597 1_565
Nb1 Se3 2.796597 1_655
Nb1 Se0 2.799492 1_665
Nb2 Se4 2.454396 1_455
Nb2 Se2 2.454396 1_545
Nb2 Se1 2.460587 1_555
Nb2 Se10 2.796597 1_545
Nb2 Se8 2.796597 1_455
Nb2 Se7 2.799492 1_445
