# generated using pymatgen
data_Ga(PbN)3
_symmetry_space_group_name_H-M   'P 1'
_cell_length_a   10.46397900
_cell_length_b   10.46677138
_cell_length_c   3.63666000
_cell_angle_alpha   90.00000000
_cell_angle_beta   90.00000000
_cell_angle_gamma   119.99084514
_symmetry_Int_Tables_number   1
_chemical_formula_structural   Ga(PbN)3
_chemical_formula_sum   'Ga2 Pb6 N6'
_cell_volume   344.97131611
_cell_formula_units_Z   2
loop_
 _symmetry_equiv_pos_site_id
 _symmetry_equiv_pos_as_xyz
  1  'x, y, z'
loop_
 _atom_site_type_symbol
 _atom_site_label
 _atom_site_symmetry_multiplicity
 _atom_site_fract_x
 _atom_site_fract_y
 _atom_site_fract_z
 _atom_site_occupancy
  Ga  Ga0  1  0.66671400  0.33332000  0.75000000  1
  Ga  Ga1  1  0.33328600  0.66668000  0.25000000  1
  Pb  Pb0  1  0.97464800  0.63224800  0.25000000  1
  Pb  Pb1  1  0.65755100  0.02546300  0.25000000  1
  Pb  Pb2  1  0.36769800  0.34247700  0.25000000  1
  Pb  Pb3  1  0.02535200  0.36775200  0.75000000  1
  Pb  Pb4  1  0.34244900  0.97453700  0.75000000  1
  Pb  Pb5  1  0.63230200  0.65752300  0.75000000  1
  N  N0  1  0.86960700  0.46839600  0.75000000  1
  N  N1  1  0.59894700  0.13047800  0.75000000  1
  N  N2  1  0.53162100  0.40114200  0.75000000  1
  N  N3  1  0.13039300  0.53160400  0.25000000  1
  N  N4  1  0.40105300  0.86952200  0.25000000  1
  N  N5  1  0.46837900  0.59885800  0.25000000  1
loop_
_geom_bond_atom_site_label_1
_geom_bond_atom_site_label_2
_geom_bond_distance
_geom_bond_site_symmetry_2
Ga0 N1 1.872244 1_555
Ga0 N2 1.872280 1_555
Ga0 N0 1.872296 1_555
Ga1 N4 1.872244 1_555
Ga1 N5 1.872280 1_555
Ga1 N3 1.872296 1_555
N0 Pb3 2.341355 1_655
N0 Pb0 2.360331 1_556
N0 Pb0 2.360331 1_555
N1 Pb4 2.342708 1_545
N1 Pb1 2.358899 1_555
N1 Pb1 2.358899 1_556
N2 Pb5 2.341934 1_555
N2 Pb2 2.360639 1_555
N2 Pb2 2.360639 1_556
N3 Pb0 2.341355 1_455
N3 Pb3 2.360331 1_555
N3 Pb3 2.360331 1_554
N4 Pb1 2.342708 1_565
N4 Pb4 2.358899 1_554
N4 Pb4 2.358899 1_555
N5 Pb2 2.341934 1_555
N5 Pb5 2.360639 1_554
N5 Pb5 2.360639 1_555
