# generated using pymatgen
data_K5In3F14
_symmetry_space_group_name_H-M   'P 1'
_cell_length_a   7.86791494
_cell_length_b   7.86791494
_cell_length_c   11.93126709
_cell_angle_alpha   90.00000000
_cell_angle_beta   90.00000000
_cell_angle_gamma   90.00000000
_symmetry_Int_Tables_number   1
_chemical_formula_structural   K5In3F14
_chemical_formula_sum   'K10 In6 F28'
_cell_volume   738.59417810
_cell_formula_units_Z   2
loop_
 _symmetry_equiv_pos_site_id
 _symmetry_equiv_pos_as_xyz
  1  'x, y, z'
loop_
 _atom_site_type_symbol
 _atom_site_label
 _atom_site_symmetry_multiplicity
 _atom_site_fract_x
 _atom_site_fract_y
 _atom_site_fract_z
 _atom_site_occupancy
  K  K0  1  0.71293464  0.21293464  0.25000000  1
  K  K1  1  0.28706536  0.78706536  0.25000000  1
  K  K2  1  0.78706536  0.71293464  0.75000000  1
  K  K3  1  0.21293464  0.28706536  0.75000000  1
  K  K4  1  0.21293464  0.28706536  0.25000000  1
  K  K5  1  0.78706536  0.71293464  0.25000000  1
  K  K6  1  0.71293464  0.21293464  0.75000000  1
  K  K7  1  0.28706536  0.78706536  0.75000000  1
  K  K8  1  0.00000000  0.00000000  0.50000000  1
  K  K9  1  0.50000000  0.50000000  -0.00000000  1
  In  In0  1  0.50000000  0.00000000  0.50000000  1
  In  In1  1  0.00000000  0.50000000  -0.00000000  1
  In  In2  1  0.00000000  0.50000000  0.50000000  1
  In  In3  1  0.50000000  0.00000000  -0.00000000  1
  In  In4  1  0.50000000  0.50000000  0.50000000  1
  In  In5  1  0.00000000  0.00000000  -0.00000000  1
  F  F0  1  0.74722086  0.59808893  0.50000000  1
  F  F1  1  0.25277914  0.40191107  0.50000000  1
  F  F2  1  0.75277914  0.09808893  -0.00000000  1
  F  F3  1  0.24722086  0.90191107  -0.00000000  1
  F  F4  1  0.59808893  0.25277914  0.50000000  1
  F  F5  1  0.40191107  0.74722086  0.50000000  1
  F  F6  1  0.09808893  0.24722086  -0.00000000  1
  F  F7  1  0.90191107  0.75277914  -0.00000000  1
  F  F8  1  0.68191034  0.95007412  0.37989824  1
  F  F9  1  0.31808966  0.04992588  0.37989824  1
  F  F10  1  0.81808966  0.45007412  0.87989824  1
  F  F11  1  0.18191034  0.54992588  0.87989824  1
  F  F12  1  0.95007412  0.31808966  0.37989824  1
  F  F13  1  0.04992588  0.68191034  0.37989824  1
  F  F14  1  0.45007412  0.18191034  0.87989824  1
  F  F15  1  0.54992588  0.81808966  0.87989824  1
  F  F16  1  0.31808966  0.04992588  0.62010176  1
  F  F17  1  0.68191034  0.95007412  0.62010176  1
  F  F18  1  0.18191034  0.54992588  0.12010176  1
  F  F19  1  0.81808966  0.45007412  0.12010176  1
  F  F20  1  0.04992588  0.68191034  0.62010176  1
  F  F21  1  0.95007412  0.31808966  0.62010176  1
  F  F22  1  0.54992588  0.81808966  0.12010176  1
  F  F23  1  0.45007412  0.18191034  0.12010176  1
  F  F24  1  0.50000000  0.50000000  0.32674754  1
  F  F25  1  0.00000000  0.00000000  0.82674754  1
  F  F26  1  0.50000000  0.50000000  0.67325246  1
  F  F27  1  0.00000000  0.00000000  0.17325246  1
loop_
_geom_bond_atom_site_label_1
_geom_bond_atom_site_label_2
_geom_bond_distance
_geom_bond_site_symmetry_2
F0 In4 2.092623 1_555
F0 In2 2.133333 1_655
F0 K2 3.132405 1_555
F0 K5 3.132405 1_555
F1 In4 2.092623 1_555
F1 In2 2.133333 1_555
F1 K3 3.132405 1_555
F1 K4 3.132405 1_555
F2 In5 2.092623 1_655
F2 In3 2.133333 1_555
F2 K0 3.132405 1_555
F2 K6 3.132405 1_554
F3 In5 2.092623 1_565
F3 In3 2.133333 1_565
F3 K7 3.132405 1_554
F3 K1 3.132405 1_555
F4 In4 2.092623 1_555
F4 In0 2.133333 1_555
F4 K6 3.132405 1_555
F4 K0 3.132405 1_555
F5 In4 2.092623 1_555
F5 In0 2.133333 1_565
F5 K7 3.132405 1_555
F5 K1 3.132405 1_555
F6 In5 2.092623 1_555
F6 In1 2.133333 1_555
F6 K4 3.132405 1_555
F6 K3 3.132405 1_554
F7 In5 2.092623 1_665
F7 In1 2.133333 1_655
F7 K5 3.132405 1_555
F7 K2 3.132405 1_554
F8 In0 2.063052 1_565
F8 K5 2.562758 1_555
F8 K0 2.595944 1_565
F8 K8 2.910535 1_665
F9 In0 2.063052 1_555
F9 K4 2.562758 1_555
F9 K1 2.595944 1_545
F9 K8 2.910535 1_555
F10 In1 2.063052 1_656
F10 K6 2.562758 1_555
F10 K2 2.595944 1_555
F10 K9 2.910535 1_556
F11 In1 2.063052 1_556
F11 K7 2.562758 1_555
F11 K3 2.595944 1_555
F11 K9 2.910535 1_556
F12 In2 2.063052 1_655
F12 K0 2.562758 1_555
F12 K4 2.595944 1_655
F12 K8 2.910535 1_655
F13 In2 2.063052 1_555
F13 K1 2.562758 1_555
F13 K5 2.595944 1_455
F13 K8 2.910535 1_565
F14 In3 2.063052 1_556
F14 K3 2.562758 1_555
F14 K6 2.595944 1_555
F14 K9 2.910535 1_556
F15 In3 2.063052 1_566
F15 K2 2.562758 1_555
F15 K7 2.595944 1_555
F15 K9 2.910535 1_556
F16 In0 2.063052 1_555
F16 K3 2.562758 1_555
F16 K7 2.595944 1_545
F16 K8 2.910535 1_555
F17 In0 2.063052 1_565
F17 K2 2.562758 1_555
F17 K6 2.595944 1_565
F17 K8 2.910535 1_665
F18 In1 2.063052 1_555
F18 K1 2.562758 1_555
F18 K4 2.595944 1_555
F18 K9 2.910535 1_555
F19 In1 2.063052 1_655
F19 K0 2.562758 1_555
F19 K5 2.595944 1_555
F19 K9 2.910535 1_555
F20 In2 2.063052 1_555
F20 K7 2.562758 1_555
F20 K2 2.595944 1_455
F20 K8 2.910535 1_565
F21 In2 2.063052 1_655
F21 K6 2.562758 1_555
F21 K3 2.595944 1_655
F21 K8 2.910535 1_655
F22 In3 2.063052 1_565
F22 K5 2.562758 1_555
F22 K1 2.595944 1_555
F22 K9 2.910535 1_555
F23 In3 2.063052 1_555
F23 K4 2.562758 1_555
F23 K0 2.595944 1_555
F23 K9 2.910535 1_555
F24 In4 2.067121 1_555
F24 K0 2.957465 1_555
F24 K5 2.957465 1_555
F24 K4 2.957465 1_555
F24 K1 2.957465 1_555
F25 In5 2.067121 1_556
F25 K2 2.957465 1_445
F25 K3 2.957465 1_555
F25 K7 2.957465 1_545
F25 K6 2.957465 1_455
F26 In4 2.067121 1_555
F26 K3 2.957465 1_555
F26 K2 2.957465 1_555
F26 K6 2.957465 1_555
F26 K7 2.957465 1_555
F27 In5 2.067121 1_555
F27 K1 2.957465 1_545
F27 K5 2.957465 1_445
F27 K4 2.957465 1_555
F27 K0 2.957465 1_455
