# generated using pymatgen
data_Na3Ca2Mg10Si16(O11F)4
_symmetry_space_group_name_H-M   'P 1'
_cell_length_a   7.82210821
_cell_length_b   8.08959250
_cell_length_c   18.03346926
_cell_angle_alpha   59.78071364
_cell_angle_beta   83.21522709
_cell_angle_gamma   76.20598770
_symmetry_Int_Tables_number   1
_chemical_formula_structural   Na3Ca2Mg10Si16(O11F)4
_chemical_formula_sum   'Na3 Ca2 Mg10 Si16 O44 F4'
_cell_volume   957.60375549
_cell_formula_units_Z   1
loop_
 _symmetry_equiv_pos_site_id
 _symmetry_equiv_pos_as_xyz
  1  'x, y, z'
loop_
 _atom_site_type_symbol
 _atom_site_label
 _atom_site_symmetry_multiplicity
 _atom_site_fract_x
 _atom_site_fract_y
 _atom_site_fract_z
 _atom_site_occupancy
  Na  Na0  1  0.48593800  0.24552800  0.79969100  1
  Na  Na1  1  0.71413700  0.65069900  0.38518100  1
  Na  Na2  1  0.24869700  0.41101000  0.52137800  1
  Ca  Ca0  1  0.35775100  0.18467200  0.25583300  1
  Ca  Ca1  1  0.53739100  0.91663400  0.71743700  1
  Mg  Mg0  1  0.15560600  0.78825000  0.96078900  1
  Mg  Mg1  1  0.83231200  0.06406300  0.56059200  1
  Mg  Mg2  1  0.95319900  0.28791300  0.18062800  1
  Mg  Mg3  1  0.01294900  0.76550200  0.28331700  1
  Mg  Mg4  1  0.12623700  0.84813100  0.42650900  1
  Mg  Mg5  1  0.43175800  0.93731600  0.99962000  1
  Mg  Mg6  1  0.60843000  0.01253200  0.15807300  1
  Mg  Mg7  1  0.56357800  0.86902000  0.51551100  1
  Mg  Mg8  1  0.09592900  0.13458400  0.74830800  1
  Mg  Mg9  1  0.97143100  0.77079500  0.78467900  1
  Si  Si0  1  0.65033200  0.46238000  0.24391800  1
  Si  Si1  1  0.71680100  0.45929900  0.87821700  1
  Si  Si2  1  0.72870800  0.43195300  0.04563100  1
  Si  Si3  1  0.78934500  0.84663900  0.95447300  1
  Si  Si4  1  0.62232600  0.42002600  0.60120500  1
  Si  Si5  1  0.75306800  0.02574800  0.37968700  1
  Si  Si6  1  0.90502800  0.61464500  0.62875600  1
  Si  Si7  1  0.94165500  0.71477800  0.14120100  1
  Si  Si8  1  0.10889500  0.25119100  0.90196600  1
  Si  Si9  1  0.12017300  0.26000700  0.42056800  1
  Si  Si10  1  0.16035400  0.99708600  0.62878000  1
  Si  Si11  1  0.39789000  0.69600200  0.30817400  1
  Si  Si12  1  0.19745700  0.04381500  0.11513000  1
  Si  Si13  1  0.32582500  0.56577400  0.86012300  1
  Si  Si14  1  0.29022700  0.66297400  0.15115200  1
  Si  Si15  1  0.26910200  0.66053400  0.62378300  1
  O  O0  1  0.79765900  0.55169400  0.16854300  1
  O  O1  1  0.25057000  0.23496500  0.12127500  1
  O  O2  1  0.75878800  0.57068000  0.57852000  1
  O  O3  1  0.91267400  0.86124700  0.37230100  1
  O  O4  1  0.35248500  0.86855900  0.58741300  1
  O  O5  1  0.06485100  0.13319100  0.52717100  1
  O  O6  1  0.72873400  0.25694400  0.14132700  1
  O  O7  1  0.06668800  0.03036100  0.19868500  1
  O  O8  1  0.52376800  0.46125300  0.84260800  1
  O  O9  1  0.74435000  0.68126000  0.82033200  1
  O  O10  1  0.67191000  0.37648100  0.97877800  1
  O  O11  1  0.18194600  0.16333700  0.99849300  1
  O  O12  1  0.94522000  0.84238100  0.88447400  1
  O  O13  1  0.82598600  0.80929700  0.19824700  1
  O  O14  1  0.97249700  0.04456000  0.68197600  1
  O  O15  1  0.76986800  0.23710300  0.29411300  1
  O  O16  1  0.47379200  0.47600000  0.19884400  1
  O  O17  1  0.60650900  0.22125200  0.68561700  1
  O  O18  1  0.58450900  0.52606000  0.31768400  1
  O  O19  1  0.77382100  0.79737400  0.63795300  1
  O  O20  1  0.89818500  0.30444200  0.88076000  1
  O  O21  1  0.43310700  0.26090700  0.11363400  1
  O  O22  1  0.67311300  0.67054100  0.00111200  1
  O  O23  1  0.40369500  0.90385500  0.11786200  1
  O  O24  1  0.10574300  0.85936500  0.11733700  1
  O  O25  1  0.15088200  0.11955900  0.37868000  1
  O  O26  1  0.08878200  0.68603800  0.56193600  1
  O  O27  1  0.47631400  0.89181700  0.26603300  1
  O  O28  1  0.43552200  0.58058000  0.56300200  1
  O  O29  1  0.12760400  0.75677400  0.68061300  1
  O  O30  1  0.29841200  0.67330500  0.39620600  1
  O  O31  1  0.98885300  0.41023400  0.70711300  1
  O  O32  1  0.26282800  0.66160200  0.25598400  1
  O  O33  1  0.91687100  0.81232600  0.03191000  1
  O  O34  1  0.32768600  0.70995600  0.04804600  1
  O  O35  1  0.12113300  0.52325200  0.17895200  1
  O  O36  1  0.20605300  0.09489600  0.86888700  1
  O  O37  1  0.28758000  0.79952500  0.80442500  1
  O  O38  1  0.76608800  0.02897100  0.46927400  1
  O  O39  1  0.56309200  0.96814000  0.38953900  1
  O  O40  1  0.27908100  0.11624800  0.64759100  1
  O  O41  1  0.99648900  0.47206500  0.37941500  1
  O  O42  1  0.62789200  0.03393900  0.92340000  1
  O  O43  1  0.17412700  0.47018500  0.84704600  1
  F  F0  1  0.29556600  0.52820900  0.95755300  1
  F  F1  1  0.32153800  0.27074800  0.43649600  1
  F  F2  1  0.94809200  0.42469800  0.03609000  1
  F  F3  1  0.68562100  0.34872700  0.52644500  1
loop_
_geom_bond_atom_site_label_1
_geom_bond_atom_site_label_2
_geom_bond_distance
_geom_bond_site_symmetry_2
Na0 O42 2.230426 1_555
Na0 O17 2.240498 1_555
Na0 O8 2.322059 1_555
Na0 O36 2.632682 1_555
Na1 O18 2.353909 1_555
Na1 O41 2.356260 1_555
Na1 O3 2.478837 1_555
Na1 O39 2.594408 1_555
Na1 O27 2.622456 1_555
Na2 O30 2.261319 1_555
Na2 O40 2.305894 1_555
Na2 O28 2.613875 1_555
Na2 O26 2.672902 1_555
Ca0 O27 2.249530 1_545
Ca0 O21 2.351148 1_555
Ca0 O16 2.407456 1_555
Ca0 O1 2.465926 1_555
Ca0 O25 2.487665 1_555
Ca0 O39 2.604585 1_545
Ca0 O35 2.686291 1_555
Ca1 O40 2.296660 1_565
Ca1 O9 2.317894 1_555
Ca1 O17 2.415087 1_565
Ca1 O37 2.416431 1_555
Ca1 O19 2.514038 1_555
Mg0 O34 1.944138 1_556
Mg0 O12 2.092558 1_455
Mg0 O33 2.163844 1_456
Mg0 O36 2.286880 1_565
Mg1 O38 1.950148 1_555
Mg1 O5 1.967560 1_655
Mg1 O19 2.024889 1_545
Mg1 O14 2.481110 1_555
Mg2 O7 1.933492 1_655
Mg2 O6 2.080956 1_555
Mg2 O0 2.106580 1_555
Mg2 O15 2.270368 1_555
Mg2 O1 2.477460 1_655
Mg2 O35 2.544827 1_655
Mg3 O7 2.020629 1_565
Mg3 O32 2.043474 1_555
Mg3 O13 2.086545 1_455
Mg3 O3 2.110495 1_455
Mg3 O41 2.146326 1_455
Mg4 O30 1.951507 1_555
Mg4 O25 1.964315 1_565
Mg4 O3 1.988570 1_455
Mg4 O26 2.135467 1_555
Mg5 O34 1.933224 1_556
Mg5 O42 1.961137 1_565
Mg5 O23 2.001236 1_556
Mg5 O11 2.330254 1_565
Mg5 O22 2.496593 1_556
Mg5 O36 2.680505 1_565
Mg6 O13 1.970271 1_545
Mg6 O21 1.971010 1_555
Mg6 O27 1.975863 1_545
Mg6 O6 2.259445 1_555
Mg6 O23 2.334722 1_545
Mg7 O4 1.974822 1_555
Mg7 O39 1.992640 1_555
Mg7 O38 2.111407 1_565
Mg7 O2 2.310746 1_555
Mg7 O28 2.466101 1_555
Mg7 O19 2.651637 1_555
Mg8 O31 1.953122 1_455
Mg8 O14 2.092492 1_455
Mg8 O40 2.219989 1_555
Mg8 O36 2.276246 1_555
Mg8 O37 2.505569 1_545
Mg9 O9 1.991974 1_555
Mg9 O14 2.052131 1_565
Mg9 O12 2.126362 1_555
Mg9 O29 2.152576 1_655
Mg9 O43 2.349903 1_655
Mg9 O37 2.619495 1_655
O0 Si0 1.654095 1_555
O0 Si7 1.781818 1_555
O1 O21 1.472754 1_555
O1 Si12 1.750922 1_555
O2 Si4 1.675514 1_555
O2 Si6 1.737504 1_555
O3 Si5 1.641386 1_565
O4 Si15 1.731706 1_555
O4 Si10 1.914912 1_555
O5 Si9 1.722005 1_555
O5 Si10 1.740184 1_545
O6 Si2 1.588415 1_555
O7 Si12 1.688902 1_555
O8 Si13 1.655599 1_555
O8 Si1 1.702934 1_555
O9 Si1 1.613937 1_555
O10 Si1 1.612305 1_555
O10 Si2 1.618154 1_556
O11 Si8 1.630259 1_555
O11 Si12 1.825082 1_556
O12 Si3 1.655703 1_555
O13 Si7 1.644245 1_555
O14 Si10 1.730806 1_645
O15 Si5 1.650846 1_555
O15 Si0 1.655792 1_555
O16 Si0 1.637768 1_555
O16 Si14 1.742365 1_555
O17 Si4 1.582589 1_555
O18 Si0 1.643640 1_555
O18 Si11 1.707368 1_555
O19 Si6 1.658021 1_555
O20 Si8 1.641002 1_655
O20 Si1 1.641469 1_555
O22 Si2 1.637471 1_555
O22 Si3 1.671597 1_554
O23 Si12 1.725817 1_565
O23 Si14 2.113431 1_555
O24 Si14 1.765712 1_555
O24 Si12 1.785108 1_565
O24 Si7 1.810907 1_455
O25 Si9 1.615579 1_555
O26 Si6 1.771328 1_455
O26 Si15 1.810319 1_555
O27 Si11 1.613860 1_555
O28 Si4 1.651904 1_555
O28 Si15 1.813651 1_555
O29 Si15 1.733696 1_555
O29 Si10 1.752232 1_555
O30 Si11 1.625504 1_555
O31 Si6 1.584557 1_555
O32 Si11 1.648678 1_555
O32 Si14 1.871969 1_555
O33 Si3 1.681993 1_554
O33 Si7 1.731034 1_555
O34 Si14 1.703097 1_555
O35 Si7 1.720969 1_455
O35 Si14 1.806708 1_555
O36 Si8 1.651037 1_555
O37 Si13 1.601063 1_555
O38 Si5 1.644276 1_555
O39 Si5 1.625266 1_565
O40 Si10 1.654481 1_545
O41 Si9 1.589420 1_655
O42 Si3 1.613924 1_545
O43 Si13 1.657957 1_555
O43 Si8 1.710318 1_555
F0 Si13 1.622959 1_555
F0 Mg0 2.153474 1_555
F1 Si9 1.663814 1_555
F1 Na2 2.277976 1_555
F2 Si2 1.694177 1_555
F2 Mg2 2.262783 1_555
F3 Si4 1.698311 1_555
F3 Mg1 2.116185 1_555
F3 Na1 2.523516 1_555
