# generated using pymatgen
data_V4Bi3
_symmetry_space_group_name_H-M   'P 1'
_cell_length_a   7.25496052
_cell_length_b   7.25496052
_cell_length_c   20.39428800
_cell_angle_alpha   90.00000000
_cell_angle_beta   90.00000000
_cell_angle_gamma   146.12511198
_symmetry_Int_Tables_number   1
_chemical_formula_structural   V4Bi3
_chemical_formula_sum   'V16 Bi12'
_cell_volume   598.31656584
_cell_formula_units_Z   4
loop_
 _symmetry_equiv_pos_site_id
 _symmetry_equiv_pos_as_xyz
  1  'x, y, z'
loop_
 _atom_site_type_symbol
 _atom_site_label
 _atom_site_symmetry_multiplicity
 _atom_site_fract_x
 _atom_site_fract_y
 _atom_site_fract_z
 _atom_site_occupancy
  V  V0  1  0.00000000  0.00000000  0.00000000  1
  V  V1  1  0.00000000  0.00000000  0.50000000  1
  V  V2  1  0.10115500  0.89884500  0.75000000  1
  V  V3  1  0.89884500  0.10115500  0.25000000  1
  V  V4  1  0.70609600  0.29390400  0.16932800  1
  V  V5  1  0.29390400  0.70609600  0.83067200  1
  V  V6  1  0.29390400  0.70609600  0.66932800  1
  V  V7  1  0.70609600  0.29390400  0.33067200  1
  V  V8  1  0.53969500  0.46030500  0.09479700  1
  V  V9  1  0.46030500  0.53969500  0.90520300  1
  V  V10  1  0.46030500  0.53969500  0.59479700  1
  V  V11  1  0.53969500  0.46030500  0.40520300  1
  V  V12  1  0.60145000  0.39855000  0.98372900  1
  V  V13  1  0.39855000  0.60145000  0.01627100  1
  V  V14  1  0.39855000  0.60145000  0.48372900  1
  V  V15  1  0.60145000  0.39855000  0.51627100  1
  Bi  Bi0  1  0.46276600  0.53723400  0.75000000  1
  Bi  Bi1  1  0.53723400  0.46276600  0.25000000  1
  Bi  Bi2  1  0.73543900  0.26456100  0.75000000  1
  Bi  Bi3  1  0.26456100  0.73543900  0.25000000  1
  Bi  Bi4  1  0.89920900  0.10079100  0.11644500  1
  Bi  Bi5  1  0.10079100  0.89920900  0.88355500  1
  Bi  Bi6  1  0.10079100  0.89920900  0.61644500  1
  Bi  Bi7  1  0.89920900  0.10079100  0.38355500  1
  Bi  Bi8  1  0.81598700  0.18401300  0.92890200  1
  Bi  Bi9  1  0.18401300  0.81598700  0.07109800  1
  Bi  Bi10  1  0.18401300  0.81598700  0.42890200  1
  Bi  Bi11  1  0.81598700  0.18401300  0.57109800  1
loop_
_geom_bond_atom_site_label_1
_geom_bond_atom_site_label_2
_geom_bond_distance
_geom_bond_site_symmetry_2
V0 V12 2.561300 1_554
V0 V13 2.561300 1_445
V0 V13 2.561300 1_555
V0 V12 2.561300 1_444
V0 V9 2.916929 1_554
V0 V8 2.916929 1_445
V0 V9 2.916929 1_444
V0 V8 2.916929 1_555
V1 V15 2.561300 1_555
V1 V14 2.561300 1_555
V1 V14 2.561300 1_445
V1 V15 2.561300 1_445
V1 V10 2.916929 1_555
V1 V10 2.916929 1_445
V1 V11 2.916929 1_445
V1 V11 2.916929 1_555
V4 V8 2.765012 1_555
V5 V9 2.765012 1_555
V10 V14 2.421920 1_555
V10 V15 2.530431 1_555
V10 V6 2.765012 1_555
V11 V15 2.421920 1_555
V11 V14 2.530431 1_555
V11 V7 2.765012 1_555
V12 V8 2.421920 1_556
V12 V9 2.530431 1_555
V13 V9 2.421920 1_554
V13 V8 2.530431 1_555
Bi0 V2 2.856060 1_655
Bi0 V2 2.856060 1_545
Bi0 V6 2.863683 1_555
Bi0 V5 2.863683 1_555
Bi0 V10 3.165439 1_555
Bi0 V9 3.165439 1_555
Bi1 V3 2.856060 1_565
Bi1 V3 2.856060 1_455
Bi1 V4 2.863683 1_555
Bi1 V7 2.863683 1_555
Bi1 V11 3.165439 1_555
Bi1 V8 3.165439 1_555
Bi2 V5 2.798676 1_545
Bi2 V6 2.798676 1_655
Bi2 V6 2.798676 1_545
Bi2 V5 2.798676 1_655
Bi2 V2 2.818053 1_545
Bi2 V2 2.818053 1_655
Bi3 V4 2.798676 1_455
Bi3 V4 2.798676 1_565
Bi3 V7 2.798676 1_455
Bi3 V7 2.798676 1_565
Bi3 V3 2.818053 1_455
Bi3 V3 2.818053 1_565
Bi4 V3 2.723764 1_555
Bi4 V0 2.756271 1_655
Bi4 V4 2.889347 1_555
Bi4 V8 2.909411 1_655
Bi4 V8 2.909411 1_545
Bi4 V13 2.939560 1_655
Bi4 V13 2.939560 1_545
Bi5 V2 2.723764 1_555
Bi5 V0 2.756271 1_566
Bi5 V5 2.889347 1_555
Bi5 V9 2.909411 1_455
Bi5 V9 2.909411 1_565
Bi5 V12 2.939560 1_565
Bi5 V12 2.939560 1_455
Bi6 V2 2.723764 1_555
Bi6 V1 2.756271 1_565
Bi6 V6 2.889347 1_555
Bi6 V10 2.909411 1_455
Bi6 V10 2.909411 1_565
Bi6 V15 2.939560 1_565
Bi6 V15 2.939560 1_455
Bi7 V3 2.723764 1_555
Bi7 V1 2.756271 1_655
Bi7 V7 2.889347 1_555
Bi7 V11 2.909411 1_655
Bi7 V11 2.909411 1_545
Bi7 V14 2.939560 1_655
Bi7 V14 2.939560 1_545
Bi8 V5 2.928219 1_545
Bi8 V5 2.928219 1_655
Bi8 V0 2.937075 1_656
Bi8 V9 2.951885 1_655
Bi8 V9 2.951885 1_545
Bi8 V13 2.992565 1_546
Bi8 V13 2.992565 1_656
Bi8 V12 3.180894 1_555
Bi9 V4 2.928219 1_565
Bi9 V4 2.928219 1_455
Bi9 V0 2.937075 1_565
Bi9 V8 2.951885 1_565
Bi9 V8 2.951885 1_455
Bi9 V12 2.992565 1_564
Bi9 V12 2.992565 1_454
Bi9 V13 3.180894 1_555
Bi10 V7 2.928219 1_565
Bi10 V7 2.928219 1_455
Bi10 V1 2.937075 1_565
Bi10 V11 2.951885 1_565
Bi10 V11 2.951885 1_455
Bi10 V15 2.992565 1_565
Bi10 V15 2.992565 1_455
Bi10 V14 3.180894 1_555
Bi11 V6 2.928219 1_655
Bi11 V6 2.928219 1_545
Bi11 V1 2.937075 1_655
Bi11 V10 2.951885 1_655
Bi11 V10 2.951885 1_545
Bi11 V14 2.992565 1_655
Bi11 V14 2.992565 1_545
Bi11 V15 3.180894 1_555
