# generated using pymatgen
data_Li7Mn2(CoO4)3
_symmetry_space_group_name_H-M   'P 1'
_cell_length_a   3.00036900
_cell_length_b   7.61940565
_cell_length_c   9.87554829
_cell_angle_alpha   101.26666644
_cell_angle_beta   93.56545361
_cell_angle_gamma   98.33064579
_symmetry_Int_Tables_number   1
_chemical_formula_structural   Li7Mn2(CoO4)3
_chemical_formula_sum   'Li7 Mn2 Co3 O12'
_cell_volume   218.12333742
_cell_formula_units_Z   1
loop_
 _symmetry_equiv_pos_site_id
 _symmetry_equiv_pos_as_xyz
  1  'x, y, z'
loop_
 _atom_site_type_symbol
 _atom_site_label
 _atom_site_symmetry_multiplicity
 _atom_site_fract_x
 _atom_site_fract_y
 _atom_site_fract_z
 _atom_site_occupancy
  Li  Li0  1  0.08406600  0.16477400  0.74767000  1
  Li  Li1  1  0.57959900  0.16640800  0.25491300  1
  Li  Li2  1  0.76114100  0.49707100  0.74453400  1
  Li  Li3  1  0.25012100  0.50232400  0.25724600  1
  Li  Li4  1  0.41714500  0.83077200  0.74100600  1
  Li  Li5  1  0.90806400  0.83690600  0.25448800  1
  Li  Li6  1  0.83358300  0.66652000  0.49972800  1
  Mn  Mn0  1  0.00571200  0.99923100  0.99561200  1
  Mn  Mn1  1  0.32746200  0.66753000  0.00292900  1
  Co  Co0  1  0.48957500  0.99151900  0.50249800  1
  Co  Co1  1  0.66640900  0.33360800  0.00150500  1
  Co  Co2  1  0.17626800  0.34169800  0.49783300  1
  O  O0  1  0.57708600  0.08512100  0.88039200  1
  O  O1  1  0.07319100  0.10037500  0.39203500  1
  O  O2  1  0.21312100  0.41931300  0.88840500  1
  O  O3  1  0.73086100  0.40864700  0.38459500  1
  O  O4  1  0.90755800  0.75220600  0.88051800  1
  O  O5  1  0.39150900  0.78358500  0.38636200  1
  O  O6  1  0.59382900  0.23374300  0.60781500  1
  O  O7  1  0.12069000  0.24698600  0.11247300  1
  O  O8  1  0.27476700  0.54980600  0.61485500  1
  O  O9  1  0.75358400  0.58358500  0.12178300  1
  O  O10  1  0.93795400  0.92438400  0.61442000  1
  O  O11  1  0.42670500  0.91388800  0.11638400  1
loop_
_geom_bond_atom_site_label_1
_geom_bond_atom_site_label_2
_geom_bond_distance
_geom_bond_site_symmetry_2
Li0 O10 2.008094 1_445
Li0 O2 2.122539 1_555
Li0 O6 2.145262 1_455
Li0 O0 2.145755 1_555
Li0 O0 2.165965 1_455
Li0 O6 2.199195 1_555
Li1 O3 2.003526 1_555
Li1 O11 2.102766 1_545
Li1 O1 2.124340 1_655
Li1 O7 2.143138 1_555
Li1 O1 2.167049 1_555
Li1 O7 2.307383 1_655
Li2 O8 2.017329 1_555
Li2 O4 2.105831 1_555
Li2 O8 2.107965 1_655
Li2 O2 2.128575 1_655
Li2 O6 2.160075 1_555
Li2 O2 2.326051 1_555
Li3 O3 2.143617 1_555
Li3 O7 2.145944 1_555
Li3 O9 2.176130 1_455
Li3 O9 2.181469 1_555
Li3 O3 2.188750 1_455
Li3 O5 2.236063 1_555
Li4 O0 2.118214 1_565
Li4 O10 2.135573 1_455
Li4 O4 2.178765 1_555
Li4 O10 2.186712 1_555
Li4 O4 2.216600 1_455
Li4 O8 2.223554 1_555
Li5 O5 2.026737 1_655
Li5 O9 2.081976 1_555
Li5 O5 2.130377 1_555
Li5 O11 2.145481 1_555
Li5 O1 2.164051 1_665
Li5 O11 2.222095 1_655
Li6 O10 2.036982 1_555
Li6 O3 2.038711 1_555
Li6 O5 2.087254 1_555
Li6 O8 2.093967 1_655
Li6 O5 2.245407 1_655
Li6 O8 2.257158 1_555
Mn0 O0 1.931254 1_465
Mn0 O11 1.947958 1_556
Mn0 O4 1.970545 1_455
Mn0 O7 1.981149 1_566
Mn0 O0 2.206907 1_565
Mn0 O11 2.257599 1_456
Mn1 O9 1.940380 1_555
Mn1 O4 1.953401 1_454
Mn1 O11 1.960170 1_555
Mn1 O2 1.975254 1_554
Mn1 O9 2.230949 1_455
Mn1 O4 2.268932 1_554
Co0 O5 1.739253 1_555
Co0 O10 1.878446 1_555
Co0 O6 1.904734 1_565
Co0 O1 1.980663 1_565
Co0 O10 2.103736 1_455
Co0 O1 2.261519 1_665
Co1 O7 1.962616 1_655
Co1 O2 1.969026 1_554
Co1 O0 2.003817 1_554
Co1 O9 2.009991 1_555
Co1 O7 2.123708 1_555
Co1 O2 2.137089 1_654
Co2 O8 1.744386 1_555
Co2 O3 1.879168 1_455
Co2 O1 1.900679 1_555
Co2 O6 1.975942 1_555
Co2 O3 2.118492 1_555
Co2 O6 2.253617 1_455
