# generated using pymatgen
data_Ca2VSbO6
_symmetry_space_group_name_H-M   'P 1'
_cell_length_a   7.75325500
_cell_length_b   5.51331800
_cell_length_c   5.68072715
_cell_angle_alpha   89.95019536
_cell_angle_beta   90.00000000
_cell_angle_gamma   90.00000000
_symmetry_Int_Tables_number   1
_chemical_formula_structural   Ca2VSbO6
_chemical_formula_sum   'Ca4 V2 Sb2 O12'
_cell_volume   242.82918175
_cell_formula_units_Z   2
loop_
 _symmetry_equiv_pos_site_id
 _symmetry_equiv_pos_as_xyz
  1  'x, y, z'
loop_
 _atom_site_type_symbol
 _atom_site_label
 _atom_site_symmetry_multiplicity
 _atom_site_fract_x
 _atom_site_fract_y
 _atom_site_fract_z
 _atom_site_occupancy
  Ca  Ca0  1  0.75000000  0.48126200  0.56377500  1
  Ca  Ca1  1  0.25000000  0.51873800  0.43622500  1
  Ca  Ca2  1  0.75000000  0.00387900  0.04347800  1
  Ca  Ca3  1  0.25000000  0.99612100  0.95652200  1
  V  V0  1  0.50000000  0.50000000  0.00000000  1
  V  V1  1  0.00000000  0.50000000  0.00000000  1
  Sb  Sb0  1  0.50000000  0.00000000  0.50000000  1
  Sb  Sb1  1  0.00000000  0.00000000  0.50000000  1
  O  O0  1  0.45303700  0.70662600  0.69233100  1
  O  O1  1  0.04906400  0.81099000  0.20830500  1
  O  O2  1  0.95303700  0.29337400  0.30766900  1
  O  O3  1  0.54906400  0.18901000  0.79169500  1
  O  O4  1  0.45093600  0.81099000  0.20830500  1
  O  O5  1  0.95093600  0.18901000  0.79169500  1
  O  O6  1  0.25000000  0.10425500  0.53403400  1
  O  O7  1  0.04696300  0.70662600  0.69233100  1
  O  O8  1  0.75000000  0.57052500  0.97988100  1
  O  O9  1  0.54696300  0.29337400  0.30766900  1
  O  O10  1  0.75000000  0.89574500  0.46596600  1
  O  O11  1  0.25000000  0.42947500  0.02011900  1
loop_
_geom_bond_atom_site_label_1
_geom_bond_atom_site_label_2
_geom_bond_distance
_geom_bond_site_symmetry_2
Ca0 O10 2.351286 1_555
Ca0 O2 2.381264 1_555
Ca0 O9 2.381264 1_555
Ca0 O8 2.414891 1_555
Ca0 O5 2.587673 1_555
Ca0 O3 2.587673 1_555
Ca0 O7 2.716597 1_655
Ca0 O0 2.716597 1_555
Ca1 O6 2.351286 1_555
Ca1 O0 2.381264 1_555
Ca1 O7 2.381264 1_555
Ca1 O11 2.414891 1_555
Ca1 O4 2.587673 1_555
Ca1 O1 2.587673 1_555
Ca1 O9 2.716597 1_555
Ca1 O2 2.716597 1_455
Ca2 O3 2.347792 1_554
Ca2 O5 2.347792 1_554
Ca2 O8 2.416689 1_544
Ca2 O10 2.472474 1_545
Ca2 O2 2.698540 1_555
Ca2 O9 2.698540 1_555
Ca2 O1 2.717057 1_645
Ca2 O4 2.717057 1_545
Ca3 O4 2.347792 1_556
Ca3 O1 2.347792 1_556
Ca3 O11 2.416689 1_566
Ca3 O6 2.472474 1_565
Ca3 O0 2.698540 1_555
Ca3 O7 2.698540 1_555
Ca3 O3 2.717057 1_565
Ca3 O5 2.717057 1_465
O0 Sb0 1.984800 1_565
O0 V0 2.116986 1_556
O1 Sb1 1.994845 1_565
O1 V1 2.118561 1_555
O2 Sb1 1.984800 1_655
O2 V1 2.116986 1_655
O3 Sb0 1.994845 1_555
O3 V0 2.118561 1_556
O4 Sb0 1.994845 1_565
O4 V0 2.118561 1_555
O5 Sb1 1.994845 1_655
O5 V1 2.118561 1_656
O6 Sb0 2.031014 1_555
O6 Sb1 2.031014 1_555
O7 Sb1 1.984800 1_565
O7 V1 2.116986 1_556
O8 V1 1.980210 1_656
O8 V0 1.980210 1_556
O9 Sb0 1.984800 1_555
O9 V0 2.116986 1_555
O10 Sb0 2.031014 1_565
O10 Sb1 2.031014 1_665
O11 V1 1.980210 1_555
O11 V0 1.980210 1_555
