# generated using pymatgen
data_Li3(CoO2)4
_symmetry_space_group_name_H-M   'P 1'
_cell_length_a   5.87129787
_cell_length_b   5.87129787
_cell_length_c   5.20659502
_cell_angle_alpha   73.28753568
_cell_angle_beta   73.28753568
_cell_angle_gamma   60.16499269
_symmetry_Int_Tables_number   1
_chemical_formula_structural   Li3(CoO2)4
_chemical_formula_sum   'Li3 Co4 O8'
_cell_volume   146.84485321
_cell_formula_units_Z   1
loop_
 _symmetry_equiv_pos_site_id
 _symmetry_equiv_pos_as_xyz
  1  'x, y, z'
loop_
 _atom_site_type_symbol
 _atom_site_label
 _atom_site_symmetry_multiplicity
 _atom_site_fract_x
 _atom_site_fract_y
 _atom_site_fract_z
 _atom_site_occupancy
  Li  Li0  1  0.50000000  0.00000000  0.50000000  1
  Li  Li1  1  0.00000000  0.50000000  0.50000000  1
  Li  Li2  1  0.50000000  0.50000000  0.50000000  1
  Co  Co0  1  0.24422700  0.24422700  0.02074600  1
  Co  Co1  1  0.75262000  0.24738000  0.00000000  1
  Co  Co2  1  0.24738000  0.75262000  0.00000000  1
  Co  Co3  1  0.75577300  0.75577300  0.97925400  1
  O  O0  1  0.12545900  0.12545900  0.78648500  1
  O  O1  1  0.60505700  0.12828100  0.78724500  1
  O  O2  1  0.12828100  0.60505700  0.78724500  1
  O  O3  1  0.62309000  0.62309000  0.76516000  1
  O  O4  1  0.87454100  0.87454100  0.21351500  1
  O  O5  1  0.39494300  0.87171900  0.21275500  1
  O  O6  1  0.87171900  0.39494300  0.21275500  1
  O  O7  1  0.37691000  0.37691000  0.23484000  1
loop_
_geom_bond_atom_site_label_1
_geom_bond_atom_site_label_2
_geom_bond_distance
_geom_bond_site_symmetry_2
Li0 O3 2.133269 1_545
Li0 O7 2.133269 1_555
Li0 O4 2.176451 1_545
Li0 O0 2.176451 1_555
Li0 O5 2.196619 1_545
Li0 O1 2.196619 1_555
Li1 O3 2.133269 1_455
Li1 O7 2.133269 1_555
Li1 O4 2.176451 1_455
Li1 O0 2.176451 1_555
Li1 O2 2.196619 1_555
Li1 O6 2.196619 1_455
Li2 O7 2.148942 1_555
Li2 O3 2.148942 1_555
Li2 O1 2.166610 1_555
Li2 O5 2.166610 1_555
Li2 O2 2.166610 1_555
Li2 O6 2.166610 1_555
Co0 O6 1.972679 1_455
Co0 O5 1.972679 1_545
Co0 O0 1.980495 1_554
Co0 O1 1.997333 1_554
Co0 O2 1.997333 1_554
Co0 O7 2.014702 1_555
Co1 O4 2.009749 1_545
Co1 O0 2.009749 1_654
Co1 O6 2.016666 1_555
Co1 O1 2.016666 1_554
Co1 O7 2.062461 1_555
Co1 O3 2.062461 1_554
Co2 O4 2.009749 1_455
Co2 O0 2.009749 1_564
Co2 O5 2.016666 1_555
Co2 O2 2.016666 1_554
Co2 O7 2.062461 1_555
Co2 O3 2.062461 1_554
Co3 O2 1.972679 1_655
Co3 O1 1.972679 1_565
Co3 O4 1.980495 1_556
Co3 O5 1.997333 1_556
Co3 O6 1.997333 1_556
Co3 O3 2.014702 1_555
