# generated using pymatgen
data_Mn10FeN9
_symmetry_space_group_name_H-M   'P 1'
_cell_length_a   6.73101085
_cell_length_b   7.17492833
_cell_length_c   16.56481930
_cell_angle_alpha   90.00000000
_cell_angle_beta   92.29886597
_cell_angle_gamma   90.00000000
_symmetry_Int_Tables_number   1
_chemical_formula_structural   Mn10FeN9
_chemical_formula_sum   'Mn40 Fe4 N36'
_cell_volume   799.34616324
_cell_formula_units_Z   4
loop_
 _symmetry_equiv_pos_site_id
 _symmetry_equiv_pos_as_xyz
  1  'x, y, z'
loop_
 _atom_site_type_symbol
 _atom_site_label
 _atom_site_symmetry_multiplicity
 _atom_site_fract_x
 _atom_site_fract_y
 _atom_site_fract_z
 _atom_site_occupancy
  Mn  Mn0  1  0.55657597  0.86272054  0.10472017  1
  Mn  Mn1  1  0.44342403  0.36272054  0.39527983  1
  Mn  Mn2  1  0.44342403  0.13727946  0.89527983  1
  Mn  Mn3  1  0.55657597  0.63727946  0.60472017  1
  Mn  Mn4  1  0.54367915  0.11642985  0.57313804  1
  Mn  Mn5  1  0.45632085  0.61642985  0.92686196  1
  Mn  Mn6  1  0.45632085  0.88357015  0.42686196  1
  Mn  Mn7  1  0.54367915  0.38357015  0.07313804  1
  Mn  Mn8  1  0.79964708  0.78929645  0.72088935  1
  Mn  Mn9  1  0.20035292  0.28929645  0.77911065  1
  Mn  Mn10  1  0.20035292  0.21070355  0.27911065  1
  Mn  Mn11  1  0.79964708  0.71070355  0.22088935  1
  Mn  Mn12  1  0.77095357  0.36280288  0.67638739  1
  Mn  Mn13  1  0.22904643  0.86280288  0.82361261  1
  Mn  Mn14  1  0.22904643  0.63719712  0.32361261  1
  Mn  Mn15  1  0.77095357  0.13719712  0.17638739  1
  Mn  Mn16  1  0.71511254  0.37312906  0.86644305  1
  Mn  Mn17  1  0.28488746  0.87312906  0.63355695  1
  Mn  Mn18  1  0.28488746  0.62687094  0.13355695  1
  Mn  Mn19  1  0.71511254  0.12687094  0.36644305  1
  Mn  Mn20  1  0.96842243  0.09419414  0.87587053  1
  Mn  Mn21  1  0.03157757  0.59419414  0.62412947  1
  Mn  Mn22  1  0.03157757  0.90580586  0.12412947  1
  Mn  Mn23  1  0.96842243  0.40580586  0.37587053  1
  Mn  Mn24  1  0.99775780  0.10449525  0.64314555  1
  Mn  Mn25  1  0.00224220  0.60449525  0.85685445  1
  Mn  Mn26  1  0.00224220  0.89550475  0.35685445  1
  Mn  Mn27  1  0.99775780  0.39550475  0.14314555  1
  Mn  Mn28  1  0.30525637  0.36686046  0.62229526  1
  Mn  Mn29  1  0.69474363  0.86686046  0.87770474  1
  Mn  Mn30  1  0.69474363  0.63313954  0.37770474  1
  Mn  Mn31  1  0.30525637  0.13313954  0.12229526  1
  Mn  Mn32  1  0.51332396  0.04248685  0.74122656  1
  Mn  Mn33  1  0.48667604  0.54248685  0.75877344  1
  Mn  Mn34  1  0.48667604  0.95751315  0.25877344  1
  Mn  Mn35  1  0.51332396  0.45751315  0.24122656  1
  Mn  Mn36  1  0.82976123  0.81261122  0.52326654  1
  Mn  Mn37  1  0.17023877  0.31261122  0.97673346  1
  Mn  Mn38  1  0.17023877  0.18738878  0.47673346  1
  Mn  Mn39  1  0.82976123  0.68738878  0.02326654  1
  Fe  Fe0  1  0.82122859  0.43762633  0.52289822  1
  Fe  Fe1  1  0.17877141  0.93762633  0.97710178  1
  Fe  Fe2  1  0.17877141  0.56237367  0.47710178  1
  Fe  Fe3  1  0.82122859  0.06237367  0.02289822  1
  N  N0  1  0.60004900  0.38283682  0.58411249  1
  N  N1  1  0.39995100  0.88283682  0.91588751  1
  N  N2  1  0.39995100  0.61716318  0.41588751  1
  N  N3  1  0.60004900  0.11716318  0.08411249  1
  N  N4  1  0.47945088  0.27229501  0.80015908  1
  N  N5  1  0.52054912  0.77229501  0.69984092  1
  N  N6  1  0.52054912  0.72770499  0.19984092  1
  N  N7  1  0.47945088  0.22770499  0.30015908  1
  N  N8  1  0.72030383  0.11194629  0.91976206  1
  N  N9  1  0.27969617  0.61194629  0.58023794  1
  N  N10  1  0.27969617  0.88805371  0.08023794  1
  N  N11  1  0.72030383  0.38805371  0.41976206  1
  N  N12  1  0.55880871  0.85954265  0.54398039  1
  N  N13  1  0.44119129  0.35954265  0.95601961  1
  N  N14  1  0.44119129  0.14045735  0.45601961  1
  N  N15  1  0.55880871  0.64045735  0.04398039  1
  N  N16  1  0.72587180  0.10022683  0.67557973  1
  N  N17  1  0.27412820  0.60022683  0.82442027  1
  N  N18  1  0.27412820  0.89977317  0.32442027  1
  N  N19  1  0.72587180  0.39977317  0.17557973  1
  N  N20  1  0.05820569  0.36393446  0.68166986  1
  N  N21  1  0.94179431  0.86393446  0.81833014  1
  N  N22  1  0.94179431  0.63606554  0.31833014  1
  N  N23  1  0.05820569  0.13606554  0.18166986  1
  N  N24  1  0.02314781  0.34095953  0.87347542  1
  N  N25  1  0.97685219  0.84095953  0.62652458  1
  N  N26  1  0.97685219  0.65904047  0.12652458  1
  N  N27  1  0.02314781  0.15904047  0.37347542  1
  N  N28  1  0.25407947  0.12356478  0.58327675  1
  N  N29  1  0.74592053  0.62356478  0.91672325  1
  N  N30  1  0.74592053  0.87643522  0.41672325  1
  N  N31  1  0.25407947  0.37643522  0.08327675  1
  N  N32  1  0.23211864  0.02705775  0.73626303  1
  N  N33  1  0.76788136  0.52705775  0.76373697  1
  N  N34  1  0.76788136  0.97294225  0.26373697  1
  N  N35  1  0.23211864  0.47294225  0.23626303  1
loop_
_geom_bond_atom_site_label_1
_geom_bond_atom_site_label_2
_geom_bond_distance
_geom_bond_site_symmetry_2
Mn0 N6 1.873656 1_555
Mn0 N3 1.882289 1_565
Mn0 N15 1.885975 1_555
Mn0 N10 1.900047 1_555
Mn1 N7 1.873656 1_555
Mn1 N2 1.882289 1_555
Mn1 N14 1.885975 1_555
Mn1 N11 1.900047 1_555
Mn2 N4 1.873656 1_555
Mn2 N1 1.882289 1_545
Mn2 N13 1.885975 1_555
Mn2 N8 1.900047 1_555
Mn3 N5 1.873656 1_555
Mn3 N0 1.882289 1_555
Mn3 N12 1.885975 1_555
Mn3 N9 1.900047 1_555
Mn4 N12 1.909133 1_545
Mn4 N0 1.955792 1_555
Mn4 N28 1.963888 1_555
Mn4 N14 2.040103 1_555
Mn4 N16 2.056707 1_555
Mn5 N13 1.909133 1_555
Mn5 N1 1.955792 1_555
Mn5 N29 1.963888 1_555
Mn5 N15 2.040103 1_556
Mn5 N17 2.056707 1_555
Mn6 N14 1.909133 1_565
Mn6 N2 1.955792 1_555
Mn6 N30 1.963888 1_555
Mn6 N12 2.040103 1_555
Mn6 N18 2.056707 1_555
Mn7 N15 1.909133 1_555
Mn7 N3 1.955792 1_555
Mn7 N31 1.963888 1_555
Mn7 N13 2.040103 1_554
Mn7 N19 2.056707 1_555
Mn8 N5 1.900810 1_555
Mn8 N21 1.919278 1_555
Mn8 N33 2.025306 1_555
Mn8 N25 2.037908 1_555
Mn8 N16 2.399363 1_565
Mn9 N4 1.900810 1_555
Mn9 N20 1.919278 1_555
Mn9 N32 2.025306 1_555
Mn9 N24 2.037908 1_555
Mn9 N17 2.399363 1_555
Mn10 N7 1.900810 1_555
Mn10 N23 1.919278 1_555
Mn10 N35 2.025306 1_555
Mn10 N27 2.037908 1_555
Mn10 N18 2.399363 1_545
Mn11 N6 1.900810 1_555
Mn11 N22 1.919278 1_555
Mn11 N34 2.025306 1_555
Mn11 N26 2.037908 1_555
Mn11 N19 2.399363 1_555
Mn12 N33 1.866906 1_555
Mn12 N0 1.881301 1_555
Mn12 N16 1.908207 1_555
Mn12 N20 1.931984 1_655
Mn13 N32 1.866906 1_565
Mn13 N1 1.881301 1_555
Mn13 N17 1.908207 1_555
Mn13 N21 1.931984 1_455
Mn14 N35 1.866906 1_555
Mn14 N2 1.881301 1_555
Mn14 N18 1.908207 1_555
Mn14 N22 1.931984 1_455
Mn15 N34 1.866906 1_545
Mn15 N3 1.881301 1_555
Mn15 N19 1.908207 1_555
Mn15 N23 1.931984 1_655
Mn16 N29 1.987848 1_555
Mn16 N4 2.026184 1_555
Mn16 N33 2.070952 1_555
Mn16 N8 2.071371 1_555
Mn16 N24 2.084804 1_655
Mn16 N13 2.414576 1_555
Mn17 N28 1.987848 1_565
Mn17 N5 2.026184 1_555
Mn17 N32 2.070952 1_565
Mn17 N9 2.071371 1_555
Mn17 N25 2.084804 1_455
Mn17 N12 2.414576 1_555
Mn18 N31 1.987848 1_555
Mn18 N6 2.026184 1_555
Mn18 N35 2.070952 1_555
Mn18 N10 2.071371 1_555
Mn18 N26 2.084804 1_455
Mn18 N15 2.414576 1_555
Mn19 N30 1.987848 1_545
Mn19 N7 2.026184 1_555
Mn19 N34 2.070952 1_545
Mn19 N11 2.071371 1_555
Mn19 N27 2.084804 1_655
Mn19 N14 2.414576 1_555
Mn20 N24 1.809196 1_655
Mn20 N8 1.852415 1_555
Mn20 N21 1.912153 1_545
Mn21 N25 1.809196 1_455
Mn21 N9 1.852415 1_555
Mn21 N20 1.912153 1_555
Mn22 N26 1.809196 1_455
Mn22 N10 1.852415 1_555
Mn22 N23 1.912153 1_565
Mn23 N27 1.809196 1_655
Mn23 N11 1.852415 1_555
Mn23 N22 1.912153 1_555
Mn24 N25 1.915153 1_545
Mn24 N16 1.928113 1_555
Mn24 N20 2.004239 1_655
Mn24 N28 2.028832 1_655
Mn24 N32 2.231857 1_655
Mn25 N24 1.915153 1_555
Mn25 N17 1.928113 1_555
Mn25 N21 2.004239 1_455
Mn25 N29 2.028832 1_455
Mn25 N33 2.231857 1_455
Mn26 N27 1.915153 1_565
Mn26 N18 1.928113 1_555
Mn26 N22 2.004239 1_455
Mn26 N30 2.028832 1_455
Mn26 N34 2.231857 1_455
Mn27 N26 1.915153 1_555
Mn27 N19 1.928113 1_555
Mn27 N23 2.004239 1_655
Mn27 N31 2.028832 1_655
Mn27 N35 2.231857 1_655
Mn28 N28 1.888324 1_555
Mn28 N9 1.896725 1_555
Mn28 N20 1.965761 1_555
Mn28 N0 2.109769 1_555
Mn29 N29 1.888324 1_555
Mn29 N8 1.896725 1_565
Mn29 N21 1.965761 1_555
Mn29 N1 2.109769 1_555
Mn30 N30 1.888324 1_555
Mn30 N11 1.896725 1_555
Mn30 N22 1.965761 1_555
Mn30 N2 2.109769 1_555
Mn31 N31 1.888324 1_555
Mn31 N10 1.896725 1_545
Mn31 N23 1.965761 1_555
Mn31 N3 2.109769 1_555
Mn32 N16 1.877692 1_555
Mn32 N32 1.894520 1_555
Mn32 N4 1.934308 1_555
Mn32 N5 2.057477 1_545
Mn33 N17 1.877692 1_555
Mn33 N33 1.894520 1_555
Mn33 N5 1.934308 1_555
Mn33 N4 2.057477 1_555
Mn34 N18 1.877692 1_555
Mn34 N34 1.894520 1_555
Mn34 N6 1.934308 1_555
Mn34 N7 2.057477 1_565
Mn35 N19 1.877692 1_555
Mn35 N35 1.894520 1_555
Mn35 N7 1.934308 1_555
Mn35 N6 2.057477 1_555
Mn36 N30 1.887602 1_555
Mn36 N12 1.899345 1_555
Mn36 N25 1.952280 1_555
Mn37 N31 1.887602 1_556
Mn37 N13 1.899345 1_555
Mn37 N24 1.952280 1_555
Mn38 N28 1.887602 1_555
Mn38 N14 1.899345 1_555
Mn38 N27 1.952280 1_555
Mn39 N29 1.887602 1_554
Mn39 N15 1.899345 1_555
Mn39 N26 1.952280 1_555
Fe0 N11 1.847600 1_555
Fe0 N0 1.876235 1_555
Fe1 N10 1.847600 1_556
Fe1 N1 1.876235 1_555
Fe2 N9 1.847600 1_555
Fe2 N2 1.876235 1_555
Fe3 N8 1.847600 1_554
Fe3 N3 1.876235 1_555
