# generated using pymatgen
data_Ce6MnSb15
_symmetry_space_group_name_H-M   'P 1'
_cell_length_a   4.34513701
_cell_length_b   12.44687383
_cell_length_c   12.44687383
_cell_angle_alpha   77.75552715
_cell_angle_beta   100.05616657
_cell_angle_gamma   79.94383343
_symmetry_Int_Tables_number   1
_chemical_formula_structural   Ce6MnSb15
_chemical_formula_sum   'Ce6 Mn1 Sb15'
_cell_volume   631.88587214
_cell_formula_units_Z   1
loop_
 _symmetry_equiv_pos_site_id
 _symmetry_equiv_pos_as_xyz
  1  'x, y, z'
loop_
 _atom_site_type_symbol
 _atom_site_label
 _atom_site_symmetry_multiplicity
 _atom_site_fract_x
 _atom_site_fract_y
 _atom_site_fract_z
 _atom_site_occupancy
  Ce  Ce0  1  0.92377800  0.67501000  0.67870000  1
  Ce  Ce1  1  0.92377800  0.32130000  0.32499000  1
  Ce  Ce2  1  0.06449100  0.72900100  0.00904900  1
  Ce  Ce3  1  0.78394600  0.27416400  0.98986300  1
  Ce  Ce4  1  0.78394600  0.01013700  0.72583600  1
  Ce  Ce5  1  0.06449100  0.99095100  0.27099900  1
  Mn  Mn0  1  0.20274800  0.72282600  0.27717400  1
  Sb  Sb0  1  0.58552200  0.83789700  0.16210300  1
  Sb  Sb1  1  0.27627200  0.15641100  0.84358900  1
  Sb  Sb2  1  0.28373700  0.52003700  0.24557300  1
  Sb  Sb3  1  0.56372100  0.46421000  0.74892700  1
  Sb  Sb4  1  0.56372100  0.25107300  0.53579000  1
  Sb  Sb5  1  0.28373700  0.75442700  0.47996300  1
  Sb  Sb6  1  0.82405300  0.59975100  0.40024900  1
  Sb  Sb7  1  0.01728600  0.40315200  0.59684800  1
  Sb  Sb8  1  0.13583400  0.48738000  0.91516600  1
  Sb  Sb9  1  0.70527200  0.51133700  0.07845000  1
  Sb  Sb10  1  0.70527200  0.92155000  0.48866300  1
  Sb  Sb11  1  0.13583400  0.08483400  0.51262000  1
  Sb  Sb12  1  0.42280500  0.80320500  0.80145300  1
  Sb  Sb13  1  0.42280500  0.19854700  0.19679500  1
  Sb  Sb14  1  0.94935000  0.00770100  0.99229900  1
loop_
_geom_bond_atom_site_label_1
_geom_bond_atom_site_label_2
_geom_bond_distance
_geom_bond_site_symmetry_2
Ce0 Sb8 3.217412 1_655
Ce0 Sb5 3.224332 1_655
Ce0 Sb5 3.229663 1_555
Ce0 Sb12 3.255998 1_555
Ce0 Sb12 3.266124 1_655
Ce0 Sb3 3.318253 1_655
Ce0 Sb10 3.321514 1_555
Ce0 Sb3 3.321801 1_555
Ce0 Sb7 3.712105 1_655
Ce0 Sb6 3.751226 1_555
Ce1 Sb11 3.217412 1_655
Ce1 Sb2 3.224332 1_655
Ce1 Sb2 3.229663 1_555
Ce1 Sb13 3.255998 1_555
Ce1 Sb13 3.266124 1_655
Ce1 Sb4 3.318253 1_655
Ce1 Sb9 3.321514 1_555
Ce1 Sb4 3.321801 1_555
Ce1 Sb7 3.712105 1_655
Ce1 Sb6 3.751226 1_555
Ce2 Mn0 3.267937 1_555
Ce2 Sb12 3.293712 1_554
Ce2 Sb12 3.297908 1_454
Ce2 Sb2 3.353634 1_555
Ce2 Sb0 3.354476 1_555
Ce2 Sb0 3.360417 1_455
Ce2 Sb9 3.372157 1_555
Ce2 Sb14 3.373137 1_464
Ce2 Sb9 3.387831 1_455
Ce2 Sb8 3.434793 1_554
Ce3 Sb14 3.261102 1_555
Ce3 Sb3 3.271534 1_555
Ce3 Sb13 3.284515 1_656
Ce3 Sb13 3.298677 1_556
Ce3 Sb8 3.333504 1_655
Ce3 Sb1 3.344753 1_555
Ce3 Sb9 3.347718 1_556
Ce3 Sb8 3.356651 1_555
Ce3 Sb1 3.381758 1_655
Ce4 Sb14 3.261102 1_555
Ce4 Sb4 3.271534 1_555
Ce4 Sb12 3.284515 1_645
Ce4 Sb12 3.298677 1_545
Ce4 Sb11 3.333504 1_655
Ce4 Sb1 3.344753 1_555
Ce4 Sb10 3.347718 1_545
Ce4 Sb11 3.356651 1_555
Ce4 Sb1 3.381758 1_655
Ce5 Mn0 3.267937 1_555
Ce5 Sb13 3.293712 1_565
Ce5 Sb13 3.297908 1_465
Ce5 Sb5 3.353634 1_555
Ce5 Sb0 3.354476 1_555
Ce5 Sb0 3.360417 1_455
Ce5 Sb10 3.372157 1_555
Ce5 Sb14 3.373137 1_464
Ce5 Sb10 3.387831 1_455
Ce5 Sb11 3.434793 1_565
Mn0 Sb5 2.609374 1_555
Mn0 Sb2 2.609374 1_555
Mn0 Sb0 2.768170 1_555
Mn0 Sb0 2.782533 1_455
Mn0 Sb6 2.845636 1_555
Mn0 Sb6 2.857664 1_455
Sb1 Sb14 3.041929 1_455
Sb1 Sb14 3.189255 1_555
Sb2 Sb9 3.003529 1_455
Sb2 Sb9 3.008406 1_555
Sb2 Sb6 3.184589 1_455
Sb2 Sb6 3.201269 1_555
Sb3 Sb8 3.038199 1_555
Sb3 Sb8 3.041624 1_655
Sb3 Sb7 3.071591 1_655
Sb3 Sb7 3.077163 1_555
Sb4 Sb7 3.071591 1_655
Sb4 Sb7 3.077163 1_555
Sb5 Sb6 3.184589 1_455
Sb5 Sb6 3.201269 1_555
Sb6 Sb7 2.950601 1_655
Sb8 Sb9 3.016642 1_556
Sb8 Sb9 3.018218 1_456
Sb10 Sb5 3.003529 1_655
Sb10 Sb5 3.008406 1_555
Sb10 Sb11 3.016642 1_565
Sb10 Sb11 3.018218 1_665
Sb11 Sb4 3.038199 1_555
Sb11 Sb4 3.041624 1_455
