# generated using pymatgen
data_Y3(ZnAu2)2
_symmetry_space_group_name_H-M   'P 1'
_cell_length_a   3.86566801
_cell_length_b   7.57381187
_cell_length_c   7.43163216
_cell_angle_alpha   120.63063828
_cell_angle_beta   89.99999569
_cell_angle_gamma   90.00000994
_symmetry_Int_Tables_number   1
_chemical_formula_structural   Y3(ZnAu2)2
_chemical_formula_sum   'Y3 Zn2 Au4'
_cell_volume   187.22285091
_cell_formula_units_Z   1
loop_
 _symmetry_equiv_pos_site_id
 _symmetry_equiv_pos_as_xyz
  1  'x, y, z'
loop_
 _atom_site_type_symbol
 _atom_site_label
 _atom_site_symmetry_multiplicity
 _atom_site_fract_x
 _atom_site_fract_y
 _atom_site_fract_z
 _atom_site_occupancy
  Y  Y0  1  -0.00000009  0.41559310  0.99998910  1
  Y  Y1  1  0.00000010  0.60230603  0.61680731  1
  Y  Y2  1  -0.00000026  0.98549346  0.38320010  1
  Zn  Zn0  1  0.50000031  0.25879011  0.25599987  1
  Zn  Zn1  1  0.50000009  0.00277589  0.74403045  1
  Au  Au0  1  0.49999986  0.66175886  0.35086645  1
  Au  Au1  1  0.50000000  0.31091007  0.64914902  1
  Au  Au2  1  -0.00000014  0.02703349  0.00001890  1
  Au  Au3  1  0.50000013  0.73543700  -0.00006019  1
loop_
_geom_bond_atom_site_label_1
_geom_bond_atom_site_label_2
_geom_bond_distance
_geom_bond_site_symmetry_2
Y0 Zn0 3.326929 1_456
Y0 Zn0 3.326932 1_556
Y0 Zn1 3.327069 1_455
Y0 Zn1 3.327071 1_555
Y1 Zn0 3.253591 1_455
Y1 Zn0 3.253592 1_555
Y1 Zn1 3.302599 1_565
Y1 Zn1 3.302600 1_465
Y2 Zn1 3.253623 1_465
Y2 Zn1 3.253624 1_565
Y2 Zn0 3.302694 1_465
Y2 Zn0 3.302696 1_565
Au0 Zn1 2.741915 1_565
Au0 Zn0 2.760291 1_555
Au0 Au3 2.931858 1_555
Au0 Y1 2.958293 1_555
Au0 Y1 2.958295 1_655
Au0 Y0 3.009552 1_554
Au0 Y0 3.009552 1_654
Au0 Y2 3.033983 1_655
Au0 Y2 3.033984 1_555
Au1 Zn0 2.741737 1_555
Au1 Zn1 2.760515 1_555
Au1 Au3 2.931361 1_556
Au1 Y2 2.958519 1_645
Au1 Y2 2.958520 1_545
Au1 Y0 3.009328 1_655
Au1 Y0 3.009328 1_555
Au1 Y1 3.033958 1_655
Au1 Y1 3.033958 1_555
Au2 Zn1 2.651907 1_454
Au2 Zn1 2.651908 1_554
Au2 Zn0 2.652016 1_455
Au2 Zn0 2.652018 1_555
Au2 Au3 2.934617 1_445
Au2 Au3 2.934619 1_545
Au2 Y0 2.942990 1_554
Au2 Y2 3.020117 1_545
Au2 Y1 3.020449 1_544
Au3 Y0 3.099186 1_654
Au3 Y0 3.099186 1_554
Au3 Y1 3.151846 1_654
Au3 Y1 3.151846 1_554
Au3 Y2 3.152522 1_655
Au3 Y2 3.152524 1_555
