# generated using pymatgen
data_TiCrAgS4
_symmetry_space_group_name_H-M   'P 1'
_cell_length_a   3.48192400
_cell_length_b   11.98750600
_cell_length_c   12.10452300
_cell_angle_alpha   90.00000000
_cell_angle_beta   90.00000000
_cell_angle_gamma   90.00000000
_symmetry_Int_Tables_number   1
_chemical_formula_structural   TiCrAgS4
_chemical_formula_sum   'Ti4 Cr4 Ag4 S16'
_cell_volume   505.23776472
_cell_formula_units_Z   4
loop_
 _symmetry_equiv_pos_site_id
 _symmetry_equiv_pos_as_xyz
  1  'x, y, z'
loop_
 _atom_site_type_symbol
 _atom_site_label
 _atom_site_symmetry_multiplicity
 _atom_site_fract_x
 _atom_site_fract_y
 _atom_site_fract_z
 _atom_site_occupancy
  Ti  Ti0  1  0.25000000  0.15680300  0.71213200  1
  Ti  Ti1  1  0.75000000  0.84319700  0.28786800  1
  Ti  Ti2  1  0.75000000  0.34319700  0.21213200  1
  Ti  Ti3  1  0.25000000  0.65680300  0.78786800  1
  Cr  Cr0  1  0.25000000  0.10406900  0.07606700  1
  Cr  Cr1  1  0.75000000  0.89593100  0.92393300  1
  Cr  Cr2  1  0.75000000  0.39593100  0.57606700  1
  Cr  Cr3  1  0.25000000  0.60406900  0.42393300  1
  Ag  Ag0  1  0.75000000  0.12895500  0.40977900  1
  Ag  Ag1  1  0.25000000  0.87104500  0.59022100  1
  Ag  Ag2  1  0.25000000  0.37104500  0.90977900  1
  Ag  Ag3  1  0.75000000  0.62895500  0.09022100  1
  S  S0  1  0.75000000  0.05730000  0.61873600  1
  S  S1  1  0.25000000  0.94270000  0.38126400  1
  S  S2  1  0.25000000  0.44270000  0.11873600  1
  S  S3  1  0.75000000  0.55730000  0.88126400  1
  S  S4  1  0.25000000  0.03578600  0.88266000  1
  S  S5  1  0.75000000  0.96421400  0.11734000  1
  S  S6  1  0.75000000  0.46421400  0.38266000  1
  S  S7  1  0.25000000  0.53578600  0.61734000  1
  S  S8  1  0.25000000  0.20131700  0.25310500  1
  S  S9  1  0.75000000  0.79868300  0.74689500  1
  S  S10  1  0.75000000  0.29868300  0.75310500  1
  S  S11  1  0.25000000  0.70131700  0.24689500  1
  S  S12  1  0.75000000  0.22927600  0.03696000  1
  S  S13  1  0.25000000  0.77072400  0.96304000  1
  S  S14  1  0.25000000  0.27072400  0.53696000  1
  S  S15  1  0.75000000  0.72927600  0.46304000  1
loop_
_geom_bond_atom_site_label_1
_geom_bond_atom_site_label_2
_geom_bond_distance
_geom_bond_site_symmetry_2
Cr0 S12 2.346868 1_455
Cr0 S12 2.346868 1_555
Cr0 S8 2.439524 1_555
Cr0 S5 2.468042 1_445
Cr0 S5 2.468042 1_545
Cr0 S4 2.480072 1_554
Cr1 S13 2.346868 1_555
Cr1 S13 2.346868 1_655
Cr1 S9 2.439524 1_555
Cr1 S4 2.468042 1_565
Cr1 S4 2.468042 1_665
Cr1 S5 2.480072 1_556
Cr2 S14 2.346868 1_655
Cr2 S14 2.346868 1_555
Cr2 S10 2.439524 1_555
Cr2 S7 2.468042 1_555
Cr2 S7 2.468042 1_655
Cr2 S6 2.480072 1_555
Cr3 S15 2.346868 1_455
Cr3 S15 2.346868 1_555
Cr3 S11 2.439524 1_555
Cr3 S6 2.468042 1_455
Cr3 S6 2.468042 1_555
Cr3 S7 2.480072 1_555
Ag0 S0 2.671199 1_555
Ag0 S8 2.716611 1_655
Ag0 S8 2.716611 1_555
Ag0 S1 2.852224 1_545
Ag0 S1 2.852224 1_645
Ag0 S14 2.879072 1_555
Ag0 S14 2.879072 1_655
Ag1 S1 2.671199 1_555
Ag1 S9 2.716611 1_555
Ag1 S9 2.716611 1_455
Ag1 S0 2.852224 1_465
Ag1 S0 2.852224 1_565
Ag1 S15 2.879072 1_555
Ag1 S15 2.879072 1_455
Ag2 S2 2.671199 1_556
Ag2 S10 2.716611 1_455
Ag2 S10 2.716611 1_555
Ag2 S3 2.852224 1_455
Ag2 S3 2.852224 1_555
Ag2 S12 2.879072 1_456
Ag2 S12 2.879072 1_556
Ag3 S3 2.671199 1_554
Ag3 S11 2.716611 1_655
Ag3 S11 2.716611 1_555
Ag3 S2 2.852224 1_555
Ag3 S2 2.852224 1_655
Ag3 S13 2.879072 1_554
Ag3 S13 2.879072 1_654
S0 Ti0 2.394111 1_555
S0 Ti0 2.394111 1_655
S1 Ti1 2.394111 1_455
S1 Ti1 2.394111 1_555
S2 Ti2 2.394111 1_455
S2 Ti2 2.394111 1_555
S3 Ti3 2.394111 1_555
S3 Ti3 2.394111 1_655
S4 Ti0 2.522948 1_555
S5 Ti1 2.522948 1_555
S6 Ti2 2.522948 1_555
S7 Ti3 2.522948 1_555
S8 Ti2 2.483868 1_555
S8 Ti2 2.483868 1_455
S9 Ti3 2.483868 1_655
S9 Ti3 2.483868 1_555
S10 Ti0 2.483868 1_655
S10 Ti0 2.483868 1_555
S11 Ti1 2.483868 1_555
S11 Ti1 2.483868 1_455
S12 Ti2 2.522088 1_555
S13 Ti3 2.522088 1_555
S14 Ti0 2.522088 1_555
S15 Ti1 2.522088 1_555
