# generated using pymatgen
data_NbAlCr
_symmetry_space_group_name_H-M   'P 1'
_cell_length_a   4.97153760
_cell_length_b   4.97194384
_cell_length_c   8.35536500
_cell_angle_alpha   90.00000000
_cell_angle_beta   90.00000000
_cell_angle_gamma   60.32911361
_symmetry_Int_Tables_number   1
_chemical_formula_structural   NbAlCr
_chemical_formula_sum   'Nb4 Al4 Cr4'
_cell_volume   179.45011831
_cell_formula_units_Z   4
loop_
 _symmetry_equiv_pos_site_id
 _symmetry_equiv_pos_as_xyz
  1  'x, y, z'
loop_
 _atom_site_type_symbol
 _atom_site_label
 _atom_site_symmetry_multiplicity
 _atom_site_fract_x
 _atom_site_fract_y
 _atom_site_fract_z
 _atom_site_occupancy
  Nb  Nb0  1  0.33614000  0.33612600  0.55858200  1
  Nb  Nb1  1  0.66832700  0.66834500  0.43127000  1
  Nb  Nb2  1  0.66832700  0.66834500  0.06873000  1
  Nb  Nb3  1  0.33614000  0.33612600  0.94141800  1
  Al  Al0  1  0.99526000  0.99533800  0.49452700  1
  Al  Al1  1  0.99526000  0.99533800  0.00547300  1
  Al  Al2  1  0.83284600  0.34255800  0.75000000  1
  Al  Al3  1  0.34251800  0.83284200  0.75000000  1
  Cr  Cr0  1  0.83360600  0.83367000  0.75000000  1
  Cr  Cr1  1  0.17077200  0.64875600  0.25000000  1
  Cr  Cr2  1  0.64889400  0.17071500  0.25000000  1
  Cr  Cr3  1  0.17191000  0.17184000  0.25000000  1
loop_
_geom_bond_atom_site_label_1
_geom_bond_atom_site_label_2
_geom_bond_distance
_geom_bond_site_symmetry_2
Nb0 Nb1 3.047617 1_555
Nb0 Nb1 3.074629 1_455
Nb0 Nb1 3.074720 1_545
Nb0 Nb3 3.198735 1_555
Nb1 Nb2 3.029154 1_555
Nb2 Nb3 3.047617 1_554
Nb2 Nb3 3.074629 1_654
Nb2 Nb3 3.074720 1_564
Al0 Cr2 2.532446 1_565
Al0 Cr1 2.533069 1_655
Al0 Cr3 2.545329 1_665
Al0 Cr0 2.547141 1_555
Al0 Al2 2.609334 1_565
Al0 Al3 2.609349 1_655
Al0 Nb1 2.860157 1_555
Al0 Nb0 2.897959 1_565
Al0 Nb0 2.898577 1_655
Al0 Nb1 2.955229 1_565
Al0 Nb1 2.955246 1_655
Al0 Nb0 2.978625 1_665
Al1 Cr2 2.532446 1_565
Al1 Cr1 2.533069 1_655
Al1 Cr3 2.545329 1_665
Al1 Cr0 2.547141 1_554
Al1 Al2 2.609334 1_564
Al1 Al3 2.609349 1_654
Al1 Nb2 2.860157 1_555
Al1 Nb3 2.897959 1_564
Al1 Nb3 2.898577 1_654
Al1 Nb2 2.955229 1_565
Al1 Nb2 2.955246 1_655
Al1 Nb3 2.978625 1_664
Al2 Cr0 2.443654 1_555
Al2 Al3 2.449791 1_555
Al2 Cr0 2.528294 1_545
Al2 Al3 2.546662 1_645
Al2 Nb0 2.955517 1_555
Al2 Nb3 2.955517 1_555
Al2 Nb0 2.956435 1_655
Al2 Nb3 2.956435 1_655
Al2 Nb2 3.012175 1_556
Al2 Nb1 3.012175 1_555
Al3 Cr0 2.443503 1_555
Al3 Cr0 2.528040 1_455
Al3 Nb3 2.955613 1_555
Al3 Nb0 2.955613 1_555
Al3 Nb3 2.956676 1_565
Al3 Nb0 2.956676 1_565
Al3 Nb2 3.012166 1_556
Al3 Nb1 3.012166 1_555
Cr0 Nb0 2.966244 1_565
Cr0 Nb3 2.966244 1_565
Cr0 Nb0 2.966569 1_655
Cr0 Nb3 2.966569 1_655
Cr0 Nb2 3.018552 1_556
Cr0 Nb1 3.018552 1_555
Cr1 Cr3 2.368404 1_555
Cr1 Cr2 2.388711 1_555
Cr1 Cr3 2.603550 1_565
Cr1 Cr2 2.607741 1_465
Cr1 Nb2 2.881353 1_455
Cr1 Nb1 2.881353 1_455
Cr1 Nb3 2.911105 1_554
Cr1 Nb0 2.911105 1_555
Cr1 Nb2 2.942908 1_555
Cr1 Nb1 2.942908 1_555
Cr2 Cr3 2.368580 1_555
Cr2 Cr3 2.602967 1_655
Cr2 Nb2 2.881519 1_545
Cr2 Nb1 2.881519 1_545
Cr2 Nb0 2.911303 1_555
Cr2 Nb3 2.911303 1_554
Cr2 Nb1 2.943049 1_555
Cr2 Nb2 2.943049 1_555
Cr3 Nb2 2.921458 1_545
Cr3 Nb1 2.921458 1_545
Cr3 Nb1 2.921829 1_455
Cr3 Nb2 2.921829 1_455
Cr3 Nb0 2.939695 1_555
Cr3 Nb3 2.939695 1_554
