# generated using pymatgen
data_Mg7V
_symmetry_space_group_name_H-M   'P 1'
_cell_length_a   6.29077032
_cell_length_b   6.29077032
_cell_length_c   5.06055700
_cell_angle_alpha   90.00000000
_cell_angle_beta   90.00000000
_cell_angle_gamma   120.00000338
_symmetry_Int_Tables_number   1
_chemical_formula_structural   Mg7V
_chemical_formula_sum   'Mg7 V1'
_cell_volume   173.43494072
_cell_formula_units_Z   1
loop_
 _symmetry_equiv_pos_site_id
 _symmetry_equiv_pos_as_xyz
  1  'x, y, z'
loop_
 _atom_site_type_symbol
 _atom_site_label
 _atom_site_symmetry_multiplicity
 _atom_site_fract_x
 _atom_site_fract_y
 _atom_site_fract_z
 _atom_site_occupancy
  Mg  Mg0  1  0.83450600  0.66901200  0.00000000  1
  Mg  Mg1  1  0.83450600  0.16549400  0.00000000  1
  Mg  Mg2  1  0.33098800  0.16549400  0.00000000  1
  Mg  Mg3  1  0.65492600  0.82746300  0.50000000  1
  Mg  Mg4  1  0.17253700  0.82746300  0.50000000  1
  Mg  Mg5  1  0.17253700  0.34507400  0.50000000  1
  Mg  Mg6  1  0.66666700  0.33333300  0.50000000  1
  V  V0  1  0.33333300  0.66666700  0.00000000  1
loop_
_geom_bond_atom_site_label_1
_geom_bond_atom_site_label_2
_geom_bond_distance
_geom_bond_site_symmetry_2
Mg0 Mg6 3.121971 1_555
Mg0 Mg6 3.121971 1_554
Mg0 Mg2 3.123254 1_665
Mg0 Mg1 3.123254 1_565
Mg0 Mg4 3.130200 1_654
Mg0 Mg4 3.130200 1_655
Mg0 Mg3 3.130200 1_554
Mg0 Mg3 3.130200 1_555
Mg0 V0 3.145408 1_655
Mg0 V0 3.145414 1_555
Mg0 Mg2 3.167516 1_555
Mg0 Mg1 3.167516 1_555
Mg1 Mg6 3.121968 1_554
Mg1 Mg6 3.121968 1_555
Mg1 Mg2 3.123254 1_655
Mg1 Mg5 3.130200 1_654
Mg1 Mg5 3.130200 1_655
Mg1 Mg3 3.130200 1_545
Mg1 Mg3 3.130200 1_544
Mg1 V0 3.145411 1_545
Mg1 V0 3.145411 1_655
Mg1 Mg2 3.167516 1_555
Mg2 Mg6 3.121971 1_554
Mg2 Mg6 3.121971 1_555
Mg2 Mg4 3.130200 1_544
Mg2 Mg4 3.130200 1_545
Mg2 Mg5 3.130200 1_554
Mg2 Mg5 3.130200 1_555
Mg2 V0 3.145408 1_545
Mg2 V0 3.145414 1_555
Mg3 Mg5 3.034598 1_555
Mg3 Mg4 3.034598 1_555
Mg3 V0 3.077647 1_556
Mg3 V0 3.077647 1_555
Mg3 Mg6 3.146032 1_565
Mg3 Mg6 3.146039 1_555
Mg3 Mg5 3.256172 1_665
Mg3 Mg4 3.256172 1_655
Mg4 Mg5 3.034598 1_555
Mg4 V0 3.077644 1_556
Mg4 V0 3.077644 1_555
Mg4 Mg6 3.146035 1_455
Mg4 Mg6 3.146035 1_565
Mg4 Mg5 3.256172 1_565
Mg5 V0 3.077647 1_556
Mg5 V0 3.077647 1_555
Mg5 Mg6 3.146032 1_455
Mg5 Mg6 3.146039 1_555
