# generated using pymatgen
data_Th(SeO3)2
_symmetry_space_group_name_H-M   'P 1'
_cell_length_a   10.87935319
_cell_length_b   7.20229460
_cell_length_c   8.67355560
_cell_angle_alpha   54.70461733
_cell_angle_beta   90.00000000
_cell_angle_gamma   90.00000000
_symmetry_Int_Tables_number   1
_chemical_formula_structural   Th(SeO3)2
_chemical_formula_sum   'Th4 Se8 O24'
_cell_volume   554.70142847
_cell_formula_units_Z   4
loop_
 _symmetry_equiv_pos_site_id
 _symmetry_equiv_pos_as_xyz
  1  'x, y, z'
loop_
 _atom_site_type_symbol
 _atom_site_label
 _atom_site_symmetry_multiplicity
 _atom_site_fract_x
 _atom_site_fract_y
 _atom_site_fract_z
 _atom_site_occupancy
  Th  Th0  1  0.90171251  0.75412831  0.98502625  1
  Th  Th1  1  0.59828749  0.75412831  0.48502625  1
  Th  Th2  1  0.09828749  0.24587169  0.01497375  1
  Th  Th3  1  0.40171251  0.24587169  0.51497375  1
  Se  Se0  1  0.56728866  0.71546512  0.06098884  1
  Se  Se1  1  0.93271134  0.71546512  0.56098884  1
  Se  Se2  1  0.43271134  0.28453488  0.93901116  1
  Se  Se3  1  0.06728866  0.28453488  0.43901116  1
  Se  Se4  1  0.21479521  0.80403701  0.93521440  1
  Se  Se5  1  0.28520479  0.80403701  0.43521440  1
  Se  Se6  1  0.78520479  0.19596299  0.06478560  1
  Se  Se7  1  0.71479521  0.19596299  0.56478560  1
  O  O0  1  0.10181024  0.98804181  0.91597489  1
  O  O1  1  0.39818976  0.98804181  0.41597489  1
  O  O2  1  0.89818976  0.01195819  0.08402511  1
  O  O3  1  0.60181024  0.01195819  0.58402511  1
  O  O4  1  0.47847341  0.48104052  0.20889511  1
  O  O5  1  0.02152659  0.48104052  0.70889511  1
  O  O6  1  0.52152659  0.51895948  0.79110489  1
  O  O7  1  0.97847341  0.51895948  0.29110489  1
  O  O8  1  0.10537433  0.61656813  0.95620067  1
  O  O9  1  0.39462567  0.61656813  0.45620067  1
  O  O10  1  0.89462567  0.38343187  0.04379933  1
  O  O11  1  0.60537433  0.38343187  0.54379933  1
  O  O12  1  0.25885839  0.93892460  0.70868804  1
  O  O13  1  0.24114161  0.93892460  0.20868804  1
  O  O14  1  0.74114161  0.06107540  0.29131196  1
  O  O15  1  0.75885839  0.06107540  0.79131196  1
  O  O16  1  0.70814600  0.59094127  0.09738828  1
  O  O17  1  0.79185400  0.59094127  0.59738828  1
  O  O18  1  0.29185400  0.40905873  0.90261172  1
  O  O19  1  0.20814600  0.40905873  0.40261172  1
  O  O20  1  0.59039064  0.83621767  0.18100889  1
  O  O21  1  0.90960936  0.83621767  0.68100889  1
  O  O22  1  0.40960936  0.16378233  0.81899111  1
  O  O23  1  0.09039064  0.16378233  0.31899111  1
loop_
_geom_bond_atom_site_label_1
_geom_bond_atom_site_label_2
_geom_bond_distance
_geom_bond_site_symmetry_2
O0 Se4 1.743426 1_555
O0 Th2 2.455549 1_566
O0 Th0 2.601925 1_455
O1 Se5 1.743426 1_555
O1 Th3 2.455549 1_565
O1 Th1 2.601925 1_555
O2 Se6 1.743426 1_555
O2 Th0 2.455549 1_544
O2 Th2 2.601925 1_655
O3 Se7 1.743426 1_555
O3 Th1 2.455549 1_545
O3 Th3 2.601925 1_555
O4 Se0 1.710875 1_555
O4 Th3 2.327653 1_555
O5 Se1 1.710875 1_455
O5 Th2 2.327653 1_556
O6 Se2 1.710875 1_555
O6 Th1 2.327653 1_555
O7 Se3 1.710875 1_655
O7 Th0 2.327653 1_554
O8 Se4 1.728959 1_555
O8 Th2 2.412720 1_556
O8 Th0 2.497940 1_455
O9 Se5 1.728959 1_555
O9 Th3 2.412720 1_555
O9 Th1 2.497940 1_555
O10 Se6 1.728959 1_555
O10 Th0 2.412720 1_554
O10 Th2 2.497940 1_655
O11 Se7 1.728959 1_555
O11 Th1 2.412720 1_555
O11 Th3 2.497940 1_555
O12 Se4 1.681738 1_555
O12 Th3 2.415246 1_565
O13 Se5 1.681738 1_555
O13 Th2 2.415246 1_565
O14 Se6 1.681738 1_555
O14 Th1 2.415246 1_545
O15 Se7 1.681738 1_555
O15 Th0 2.415246 1_545
O16 Se0 1.710318 1_555
O16 Th0 2.332863 1_554
O17 Se1 1.710318 1_555
O17 Th1 2.332863 1_555
O18 Se2 1.710318 1_555
O18 Th2 2.332863 1_556
O19 Se3 1.710318 1_555
O19 Th3 2.332863 1_555
O20 Se0 1.717391 1_555
O20 Th1 2.347052 1_555
O21 Se1 1.717391 1_555
O21 Th0 2.347052 1_555
O22 Se2 1.717391 1_555
O22 Th3 2.347052 1_555
O23 Se3 1.717391 1_555
O23 Th2 2.347052 1_555
