# generated using pymatgen
data_LiMn2(PO4)2
_symmetry_space_group_name_H-M   'P 1'
_cell_length_a   7.50410700
_cell_length_b   7.54246549
_cell_length_c   9.57983483
_cell_angle_alpha   90.22976782
_cell_angle_beta   90.35110937
_cell_angle_gamma   119.40643838
_symmetry_Int_Tables_number   1
_chemical_formula_structural   LiMn2(PO4)2
_chemical_formula_sum   'Li3 Mn6 P6 O24'
_cell_volume   472.32982389
_cell_formula_units_Z   3
loop_
 _symmetry_equiv_pos_site_id
 _symmetry_equiv_pos_as_xyz
  1  'x, y, z'
loop_
 _atom_site_type_symbol
 _atom_site_label
 _atom_site_symmetry_multiplicity
 _atom_site_fract_x
 _atom_site_fract_y
 _atom_site_fract_z
 _atom_site_occupancy
  Li  Li0  1  0.24306200  0.19019900  0.24454400  1
  Li  Li1  1  0.04615700  0.80811200  0.74327500  1
  Li  Li2  1  0.79208500  0.03649900  0.24721000  1
  Mn  Mn0  1  0.60168700  0.55228300  0.03888000  1
  Mn  Mn1  1  0.94959400  0.41447700  0.02693500  1
  Mn  Mn2  1  0.45885900  0.03921200  0.01348600  1
  Mn  Mn3  1  0.41293000  0.95697100  0.52062100  1
  Mn  Mn4  1  0.04943800  0.45111100  0.53000100  1
  Mn  Mn5  1  0.55562800  0.60307300  0.54460200  1
  P  P0  1  0.99614500  0.00021000  0.49302200  1
  P  P1  1  0.99721400  0.99960500  0.99371300  1
  P  P2  1  0.67353700  0.33908700  0.72976000  1
  P  P3  1  0.66574100  0.34656300  0.32737300  1
  P  P4  1  0.32980100  0.65020600  0.82757700  1
  P  P5  1  0.33699600  0.66404700  0.23073800  1
  O  O0  1  0.00028500  0.00831600  0.33428300  1
  O  O1  1  0.98797500  0.98985100  0.83716800  1
  O  O2  1  0.88055600  0.77545100  0.05348300  1
  O  O3  1  0.69594000  0.54540800  0.39696700  1
  O  O4  1  0.51377600  0.39984800  0.68062000  1
  O  O5  1  0.88963500  0.50470600  0.68598000  1
  O  O6  1  0.68224100  0.37056300  0.16062200  1
  O  O7  1  0.66994400  0.33556700  0.89732400  1
  O  O8  1  0.45261900  0.16918300  0.36049000  1
  O  O9  1  0.21963000  0.09518400  0.05445900  1
  O  O10  1  0.11034900  0.88962400  0.55066600  1
  O  O11  1  0.83435400  0.29794000  0.37080500  1
  O  O12  1  0.61497400  0.12796800  0.67480200  1
  O  O13  1  0.89529500  0.12048000  0.05816400  1
  O  O14  1  0.28797400  0.82658100  0.85920400  1
  O  O15  1  0.50264700  0.87560900  0.18085700  1
  O  O16  1  0.12594600  0.61157100  0.17304400  1
  O  O17  1  0.33323300  0.66513300  0.39633000  1
  O  O18  1  0.34930900  0.64734000  0.66184800  1
  O  O19  1  0.53375100  0.68873300  0.89452200  1
  O  O20  1  0.76645500  0.88825600  0.54206600  1
  O  O21  1  0.15034000  0.44888500  0.88013700  1
  O  O22  1  0.38869400  0.49578300  0.18449300  1
  O  O23  1  0.10361700  0.21956700  0.55306900  1
loop_
_geom_bond_atom_site_label_1
_geom_bond_atom_site_label_2
_geom_bond_distance
_geom_bond_site_symmetry_2
Li0 O0 1.874682 1_555
Li0 O9 1.929338 1_555
Li0 O8 1.989105 1_555
Li0 O22 2.093428 1_555
Li1 O1 1.860458 1_455
Li1 O10 1.934894 1_555
Li1 O5 2.064041 1_455
Li1 O14 2.066754 1_555
Li2 O0 1.869096 1_655
Li2 O13 1.955898 1_555
Li2 O15 1.995681 1_545
Li2 O11 2.180228 1_555
Mn0 O19 1.936381 1_554
Mn0 O2 1.941021 1_555
Mn0 O22 2.011305 1_555
Mn0 O6 2.102847 1_555
Mn0 O7 2.363484 1_554
Mn1 O16 1.987232 1_655
Mn1 O21 1.989802 1_654
Mn1 O13 2.071764 1_555
Mn1 O7 2.243961 1_554
Mn1 O6 2.270961 1_555
Mn2 O9 2.075229 1_555
Mn2 O14 2.083056 1_544
Mn2 O15 2.146878 1_545
Mn2 O7 2.303993 1_554
Mn2 O6 2.621365 1_555
Mn3 O12 2.044700 1_565
Mn3 O10 2.091185 1_555
Mn3 O8 2.135658 1_565
Mn3 O17 2.301762 1_555
Mn3 O18 2.539828 1_555
Mn4 O23 1.990812 1_555
Mn4 O5 2.080235 1_455
Mn4 O11 2.095276 1_455
Mn4 O17 2.335603 1_555
Mn4 O18 2.351424 1_555
Mn5 O4 1.922069 1_555
Mn5 O3 1.939363 1_555
Mn5 O20 1.946635 1_555
Mn5 O18 2.072686 1_555
Mn5 O17 2.401092 1_555
O0 P0 1.522061 1_455
O1 P1 1.500692 1_555
O2 P1 1.585272 1_554
O3 P3 1.549696 1_555
O4 P2 1.550245 1_555
O5 P2 1.545737 1_555
O6 P3 1.607069 1_555
O7 P2 1.605734 1_555
O8 P3 1.535180 1_555
O9 P1 1.564352 1_444
O10 P0 1.560432 1_465
O11 P3 1.535910 1_555
O12 P2 1.519596 1_555
O13 P1 1.575863 1_544
O14 P4 1.538826 1_555
O15 P5 1.544455 1_555
O16 P5 1.530466 1_555
O17 P5 1.586828 1_555
O18 P4 1.596318 1_555
O19 P4 1.545250 1_555
O20 P0 1.577495 1_565
O21 P4 1.542457 1_555
O22 P5 1.561582 1_555
O23 P0 1.547590 1_455
