# generated using pymatgen
data_Li6Zn3(PS4)4
_symmetry_space_group_name_H-M   'P 1'
_cell_length_a   9.32525196
_cell_length_b   11.59459412
_cell_length_c   23.16992679
_cell_angle_alpha   90.03264267
_cell_angle_beta   89.97320037
_cell_angle_gamma   89.99767350
_symmetry_Int_Tables_number   1
_chemical_formula_structural   Li6Zn3(PS4)4
_chemical_formula_sum   'Li24 Zn12 P16 S64'
_cell_volume   2505.18999659
_cell_formula_units_Z   4
loop_
 _symmetry_equiv_pos_site_id
 _symmetry_equiv_pos_as_xyz
  1  'x, y, z'
loop_
 _atom_site_type_symbol
 _atom_site_label
 _atom_site_symmetry_multiplicity
 _atom_site_fract_x
 _atom_site_fract_y
 _atom_site_fract_z
 _atom_site_occupancy
  Li  Li0  1  0.74757634  0.00112157  0.87856749  1
  Li  Li1  1  0.25460313  0.74992124  0.75050996  1
  Li  Li2  1  0.24916061  0.25126622  0.75243109  1
  Li  Li3  1  0.24792055  0.75282542  0.99845283  1
  Li  Li4  1  0.50106931  0.49969228  0.25010009  1
  Li  Li5  1  0.50182065  0.99889942  0.25084899  1
  Li  Li6  1  0.50330057  0.50219061  0.49977527  1
  Li  Li7  1  0.49969854  0.99849092  0.49924492  1
  Li  Li8  1  0.00251695  0.75133103  0.37440881  1
  Li  Li9  1  0.00081671  0.25018521  0.37478521  1
  Li  Li10  1  0.50823456  0.50133382  0.75089224  1
  Li  Li11  1  0.50815899  0.99920443  0.74804597  1
  Li  Li12  1  0.99598451  0.75167879  0.62223520  1
  Li  Li13  1  0.99401501  0.25178578  0.62276608  1
  Li  Li14  1  0.50220483  0.49708227  0.99969569  1
  Li  Li15  1  0.50146976  0.00280713  0.00160144  1
  Li  Li16  1  0.99409357  0.74632036  0.87607540  1
  Li  Li17  1  0.99472134  0.25077324  0.87718561  1
  Li  Li18  1  0.99634134  0.75045587  0.12710857  1
  Li  Li19  1  0.00318171  0.24750160  0.12483217  1
  Li  Li20  1  0.50580170  0.74947830  0.62369967  1
  Li  Li21  1  0.50013836  0.25284922  0.87708303  1
  Li  Li22  1  0.50492735  0.74885998  0.87470073  1
  Li  Li23  1  0.99895163  0.00253293  0.00127470  1
  Zn  Zn0  1  0.50090872  0.24822580  0.12450998  1
  Zn  Zn1  1  0.50533891  0.74946171  0.12567073  1
  Zn  Zn2  1  0.49929461  0.24960327  0.37465409  1
  Zn  Zn3  1  0.50026876  0.75071527  0.37553474  1
  Zn  Zn4  1  0.99929483  0.50042053  0.25045880  1
  Zn  Zn5  1  0.99978323  0.99958640  0.24961440  1
  Zn  Zn6  1  0.50484754  0.25041642  0.62362720  1
  Zn  Zn7  1  0.99810868  0.50056984  0.49874240  1
  Zn  Zn8  1  0.99799434  0.99821405  0.49959520  1
  Zn  Zn9  1  0.98825094  0.50103509  0.74999115  1
  Zn  Zn10  1  0.99476411  0.00006128  0.74966619  1
  Zn  Zn11  1  0.99151667  0.49786347  0.99970479  1
  P  P0  1  0.75010337  0.24999967  0.24989330  1
  P  P1  1  0.75002306  0.74968325  0.25037200  1
  P  P2  1  0.74991153  0.25029525  0.49960705  1
  P  P3  1  0.75030408  0.74622277  0.49908138  1
  P  P4  1  0.25037624  0.49998220  0.37509645  1
  P  P5  1  0.25007849  0.00030885  0.37499549  1
  P  P6  1  0.75162320  0.24553124  0.74979990  1
  P  P7  1  0.74612443  0.75040126  0.75009589  1
  P  P8  1  0.24973700  0.49880658  0.62749886  1
  P  P9  1  0.24934088  0.00143647  0.62349774  1
  P  P10  1  0.74666610  0.25425205  0.99826904  1
  P  P11  1  0.75296168  0.75359878  0.00229726  1
  P  P12  1  0.24642807  0.50044695  0.87486387  1
  P  P13  1  0.25356474  0.99469820  0.87390981  1
  P  P14  1  0.25289990  0.50069123  0.12490812  1
  P  P15  1  0.24780685  0.00347968  0.12542701  1
  S  S0  1  0.86956226  0.35727751  0.05224936  1
  S  S1  1  0.87238459  0.85645808  0.05356127  1
  S  S2  1  0.86468316  0.36140189  0.30208109  1
  S  S3  1  0.86458585  0.86135042  0.30214024  1
  S  S4  1  0.36460691  0.61280073  0.17705801  1
  S  S5  1  0.37201039  0.10760627  0.17753188  1
  S  S6  1  0.86256719  0.36292804  0.55158983  1
  S  S7  1  0.86306781  0.86088154  0.55108460  1
  S  S8  1  0.36438013  0.61132999  0.42719726  1
  S  S9  1  0.36435582  0.11182206  0.42710161  1
  S  S10  1  0.86503262  0.35746996  0.80216151  1
  S  S11  1  0.87166566  0.85955221  0.80341921  1
  S  S12  1  0.36890257  0.60632834  0.67867613  1
  S  S13  1  0.36743184  0.11281317  0.67737877  1
  S  S14  1  0.36652811  0.60739042  0.92582575  1
  S  S15  1  0.36836493  0.10189703  0.92460563  1
  S  S16  1  0.63461420  0.64610834  0.30582993  1
  S  S17  1  0.63652242  0.14595678  0.30599069  1
  S  S18  1  0.63876906  0.64383503  0.55350745  1
  S  S19  1  0.63694371  0.14480371  0.55547342  1
  S  S20  1  0.13641163  0.89621343  0.43097370  1
  S  S21  1  0.13673659  0.39542843  0.43098312  1
  S  S22  1  0.63876617  0.64533067  0.80460145  1
  S  S23  1  0.63030167  0.14517232  0.80383830  1
  S  S24  1  0.13047091  0.89687134  0.68029428  1
  S  S25  1  0.12512716  0.39309975  0.68141481  1
  S  S26  1  0.62829967  0.64670406  0.05366075  1
  S  S27  1  0.63686320  0.14761802  0.05506186  1
  S  S28  1  0.12510785  0.89395483  0.92568779  1
  S  S29  1  0.12833798  0.39648661  0.92854621  1
  S  S30  1  0.13738990  0.89596128  0.18110034  1
  S  S31  1  0.13424305  0.39854138  0.17961407  1
  S  S32  1  0.86465361  0.13867424  0.19789290  1
  S  S33  1  0.86313609  0.63744265  0.19826583  1
  S  S34  1  0.86508680  0.13912477  0.44790727  1
  S  S35  1  0.87141492  0.64031216  0.44607608  1
  S  S36  1  0.36447055  0.38854372  0.32286312  1
  S  S37  1  0.36406404  0.88840275  0.32309894  1
  S  S38  1  0.86905304  0.13920076  0.69629700  1
  S  S39  1  0.87248344  0.64584353  0.69780543  1
  S  S40  1  0.36460989  0.38931441  0.57483740  1
  S  S41  1  0.36522374  0.89398975  0.57408580  1
  S  S42  1  0.86575975  0.14261743  0.94772855  1
  S  S43  1  0.86285819  0.63988446  0.94863697  1
  S  S44  1  0.36672119  0.39478199  0.82263981  1
  S  S45  1  0.37300930  0.89147080  0.81975391  1
  S  S46  1  0.36522398  0.38946757  0.07277521  1
  S  S47  1  0.36869308  0.88877243  0.07365669  1
  S  S48  1  0.63528238  0.35366803  0.19426211  1
  S  S49  1  0.63705832  0.85448217  0.19460166  1
  S  S50  1  0.63424624  0.35361731  0.44431865  1
  S  S51  1  0.63761892  0.85329698  0.44360517  1
  S  S52  1  0.13638921  0.60391905  0.31919878  1
  S  S53  1  0.13514708  0.10384230  0.31930341  1
  S  S54  1  0.63499431  0.35108928  0.69545765  1
  S  S55  1  0.63664050  0.85432856  0.69572593  1
  S  S56  1  0.13325114  0.60044670  0.57194105  1
  S  S57  1  0.12786401  0.10548979  0.57120040  1
  S  S58  1  0.63388478  0.35892054  0.94561490  1
  S  S59  1  0.63106511  0.85497581  0.94752052  1
  S  S60  1  0.12461303  0.60561201  0.81961451  1
  S  S61  1  0.12614842  0.10299289  0.82058524  1
  S  S62  1  0.13050418  0.60412049  0.06921832  1
  S  S63  1  0.13876380  0.10536976  0.07056843  1
loop_
_geom_bond_atom_site_label_1
_geom_bond_atom_site_label_2
_geom_bond_distance
_geom_bond_site_symmetry_2
Li0 S42 2.544170 1_555
Li0 S59 2.570187 1_545
Li0 S23 2.643578 1_555
Li0 S11 2.657022 1_545
Li1 S45 2.546681 1_555
Li1 S12 2.583252 1_555
Li1 S60 2.614211 1_555
Li1 S24 2.625742 1_555
Li2 S44 2.572108 1_555
Li2 S25 2.598923 1_555
Li2 S61 2.601274 1_555
Li2 S13 2.610033 1_555
Li3 S47 2.605382 1_556
Li3 S28 2.614667 1_555
Li3 S62 2.619494 1_556
Li3 S14 2.625524 1_555
Li4 S16 2.469687 1_555
Li4 S48 2.470349 1_555
Li4 S36 2.475141 1_555
Li4 S4 2.491550 1_555
Li5 S5 2.438028 1_565
Li5 S49 2.467490 1_555
Li5 S37 2.468713 1_555
Li5 S17 2.473187 1_565
Li6 S18 2.417088 1_555
Li6 S50 2.470926 1_555
Li6 S8 2.472194 1_555
Li6 S40 2.531979 1_555
Li7 S41 2.459284 1_555
Li7 S9 2.473463 1_565
Li7 S51 2.479107 1_555
Li7 S19 2.492476 1_565
Li8 S35 2.430965 1_455
Li8 S3 2.467747 1_455
Li8 S20 2.469370 1_555
Li8 S52 2.472249 1_555
Li9 S53 2.469134 1_555
Li9 S2 2.473150 1_455
Li9 S34 2.476135 1_455
Li9 S21 2.477335 1_555
Li10 S22 2.411852 1_555
Li10 S12 2.444207 1_555
Li10 S44 2.455951 1_555
Li10 S54 2.465262 1_555
Li11 S55 2.392250 1_555
Li11 S23 2.414916 1_565
Li11 S45 2.430987 1_555
Li11 S13 2.478421 1_565
Li12 S7 2.421027 1_555
Li12 S39 2.428725 1_555
Li12 S56 2.463176 1_655
Li12 S24 2.493113 1_655
Li13 S57 2.420493 1_655
Li13 S6 2.426322 1_555
Li13 S38 2.442407 1_555
Li13 S25 2.454638 1_655
Li14 S58 2.374927 1_555
Li14 S26 2.440224 1_556
Li14 S46 2.460930 1_556
Li14 S14 2.484028 1_555
Li15 S27 2.438607 1_555
Li15 S59 2.442242 1_544
Li15 S15 2.459178 1_554
Li15 S47 2.463585 1_545
Li16 S28 2.396541 1_655
Li16 S43 2.418223 1_555
Li16 S60 2.418747 1_655
Li16 S11 2.421822 1_555
Li17 S42 2.385570 1_555
Li17 S29 2.412949 1_655
Li17 S10 2.453369 1_555
Li17 S61 2.480645 1_655
Li18 S1 2.398908 1_555
Li18 S33 2.445180 1_555
Li18 S30 2.478014 1_655
Li18 S62 2.497765 1_655
Li19 S63 2.427154 1_555
Li19 S0 2.450542 1_455
Li19 S32 2.475291 1_455
Li19 S31 2.484105 1_555
Li20 S18 2.382976 1_555
Li20 S55 2.398192 1_555
Li20 S41 2.418861 1_555
Li20 S12 2.451164 1_555
Li21 S58 2.364150 1_555
Li21 S15 2.405581 1_555
Li21 S44 2.418882 1_555
Li21 S23 2.430556 1_555
Li22 S22 2.373265 1_555
Li22 S59 2.396615 1_555
Li22 S14 2.400071 1_555
Li22 S45 2.423209 1_555
Li23 S63 2.387297 1_655
Li23 S42 2.392404 1_554
Li23 S1 2.393830 1_545
Li23 S28 2.455917 1_644
P0 S48 2.062924 1_555
P0 S32 2.062943 1_555
P0 S17 2.065696 1_555
P0 S2 2.066817 1_555
P1 S16 2.062064 1_555
P1 S3 2.062989 1_555
P1 S49 2.063710 1_555
P1 S33 2.064144 1_555
P2 S50 2.059736 1_555
P2 S34 2.060791 1_555
P2 S6 2.063799 1_555
P2 S19 2.069292 1_555
P3 S18 2.020377 1_555
P3 S35 2.070906 1_555
P3 S51 2.073806 1_555
P3 S7 2.079520 1_555
P4 S8 2.062469 1_555
P4 S52 2.064587 1_555
P4 S36 2.064722 1_555
P4 S21 2.066379 1_555
P5 S37 2.063043 1_545
P5 S53 2.063431 1_555
P5 S20 2.064726 1_545
P5 S9 2.065057 1_555
P6 S23 2.049899 1_555
P6 S38 2.062216 1_555
P6 S54 2.066174 1_555
P6 S10 2.067454 1_555
P7 S22 2.020392 1_555
P7 S55 2.020936 1_555
P7 S39 2.079161 1_555
P7 S11 2.120928 1_555
P8 S12 2.048117 1_555
P8 S56 2.056396 1_555
P8 S40 2.060311 1_555
P8 S25 2.100839 1_555
P9 S41 2.006897 1_545
P9 S57 2.051803 1_555
P9 S24 2.104992 1_545
P9 S13 2.106763 1_555
P10 S58 2.017440 1_555
P10 S42 2.068084 1_555
P10 S0 2.074699 1_556
P10 S27 2.075894 1_556
P11 S1 2.018192 1_555
P11 S59 2.070626 1_554
P11 S26 2.074692 1_555
P11 S43 2.081164 1_554
P12 S14 2.045914 1_555
P12 S29 2.052616 1_555
P12 S44 2.054367 1_555
P12 S60 2.102128 1_555
P13 S15 2.017492 1_565
P13 S28 2.058879 1_555
P13 S45 2.060231 1_555
P13 S61 2.125548 1_565
P14 S46 2.053338 1_555
P14 S31 2.057734 1_555
P14 S4 2.057738 1_555
P14 S62 2.099722 1_555
P15 S63 2.011983 1_555
P15 S5 2.063088 1_555
P15 S30 2.068565 1_545
P15 S47 2.115486 1_545
S0 Zn11 2.331026 1_554
S2 Zn4 2.367579 1_555
S3 Zn5 2.374977 1_555
S4 Zn1 2.377289 1_555
S5 Zn0 2.369266 1_555
S6 Zn7 2.375871 1_555
S7 Zn8 2.354311 1_555
S8 Zn3 2.377271 1_555
S9 Zn2 2.369208 1_555
S10 Zn9 2.356571 1_555
S11 Zn10 2.350346 1_565
S13 Zn6 2.395738 1_555
S16 Zn3 2.375866 1_555
S17 Zn2 2.368249 1_555
S19 Zn6 2.346564 1_555
S20 Zn8 2.364011 1_455
S21 Zn7 2.370219 1_455
S24 Zn10 2.369030 1_465
S25 Zn9 2.390757 1_455
S26 Zn1 2.348172 1_555
S27 Zn0 2.356510 1_555
S29 Zn11 2.392398 1_455
S30 Zn5 2.367714 1_455
S31 Zn4 2.380994 1_455
S32 Zn5 2.372375 1_545
S33 Zn4 2.366871 1_555
S34 Zn8 2.375527 1_545
S35 Zn7 2.348100 1_555
S36 Zn2 2.370515 1_555
S37 Zn3 2.375165 1_555
S38 Zn10 2.347220 1_555
S39 Zn9 2.334498 1_555
S40 Zn6 2.363267 1_555
S43 Zn11 2.356785 1_555
S46 Zn0 2.392318 1_555
S47 Zn1 2.385093 1_555
S48 Zn0 2.382550 1_555
S49 Zn1 2.354151 1_555
S50 Zn2 2.375574 1_555
S51 Zn3 2.354265 1_555
S52 Zn4 2.368757 1_455
S53 Zn5 2.379421 1_445
S54 Zn6 2.367521 1_555
S56 Zn7 2.409472 1_455
S57 Zn8 2.401248 1_445
S60 Zn9 2.385234 1_455
S61 Zn10 2.371762 1_455
S62 Zn11 2.406580 1_454
