# generated using pymatgen
data_AlSb
_symmetry_space_group_name_H-M   'P 1'
_cell_length_a   7.61263300
_cell_length_b   7.61263300
_cell_length_c   7.61263300
_cell_angle_alpha   90.00000000
_cell_angle_beta   90.00000000
_cell_angle_gamma   90.00000000
_symmetry_Int_Tables_number   1
_chemical_formula_structural   AlSb
_chemical_formula_sum   'Al8 Sb8'
_cell_volume   441.16868697
_cell_formula_units_Z   8
loop_
 _symmetry_equiv_pos_site_id
 _symmetry_equiv_pos_as_xyz
  1  'x, y, z'
loop_
 _atom_site_type_symbol
 _atom_site_label
 _atom_site_symmetry_multiplicity
 _atom_site_fract_x
 _atom_site_fract_y
 _atom_site_fract_z
 _atom_site_occupancy
  Al  Al0  1  0.34305500  0.34305500  0.34305500  1
  Al  Al1  1  0.15694500  0.65694500  0.84305500  1
  Al  Al2  1  0.84305500  0.15694500  0.65694500  1
  Al  Al3  1  0.65694500  0.84305500  0.15694500  1
  Al  Al4  1  0.65694500  0.65694500  0.65694500  1
  Al  Al5  1  0.84305500  0.34305500  0.15694500  1
  Al  Al6  1  0.15694500  0.84305500  0.34305500  1
  Al  Al7  1  0.34305500  0.15694500  0.84305500  1
  Sb  Sb0  1  0.14090500  0.14090500  0.14090500  1
  Sb  Sb1  1  0.35909500  0.85909500  0.64090500  1
  Sb  Sb2  1  0.64090500  0.35909500  0.85909500  1
  Sb  Sb3  1  0.85909500  0.64090500  0.35909500  1
  Sb  Sb4  1  0.85909500  0.85909500  0.85909500  1
  Sb  Sb5  1  0.64090500  0.14090500  0.35909500  1
  Sb  Sb6  1  0.35909500  0.64090500  0.14090500  1
  Sb  Sb7  1  0.14090500  0.35909500  0.64090500  1
loop_
_geom_bond_atom_site_label_1
_geom_bond_atom_site_label_2
_geom_bond_distance
_geom_bond_site_symmetry_2
Al0 Sb0 2.665442 1_555
Al0 Sb5 2.743048 1_555
Al0 Sb7 2.743048 1_555
Al0 Sb6 2.743048 1_555
Al1 Sb1 2.665442 1_555
Al1 Sb7 2.743048 1_555
Al1 Sb6 2.743048 1_556
Al1 Sb4 2.743048 1_455
Al2 Sb2 2.665442 1_555
Al2 Sb7 2.743048 1_655
Al2 Sb5 2.743048 1_555
Al2 Sb4 2.743048 1_545
Al3 Sb3 2.665442 1_555
Al3 Sb5 2.743048 1_565
Al3 Sb6 2.743048 1_555
Al3 Sb4 2.743048 1_554
Al4 Sb4 2.665442 1_555
Al4 Sb3 2.743048 1_555
Al4 Sb2 2.743048 1_555
Al4 Sb1 2.743048 1_555
Al5 Sb5 2.665442 1_555
Al5 Sb3 2.743048 1_555
Al5 Sb0 2.743048 1_655
Al5 Sb2 2.743048 1_554
Al6 Sb6 2.665442 1_555
Al6 Sb1 2.743048 1_555
Al6 Sb0 2.743048 1_565
Al6 Sb3 2.743048 1_455
Al7 Sb7 2.665442 1_555
Al7 Sb2 2.743048 1_555
Al7 Sb0 2.743048 1_556
Al7 Sb1 2.743048 1_545
