# generated using pymatgen
data_SmMoI4O15
_symmetry_space_group_name_H-M   'P 1'
_cell_length_a   14.17396000
_cell_length_b   7.04180800
_cell_length_c   7.16494392
_cell_angle_alpha   65.93551668
_cell_angle_beta   90.00000000
_cell_angle_gamma   90.00000000
_symmetry_Int_Tables_number   1
_chemical_formula_structural   SmMoI4O15
_chemical_formula_sum   'Sm2 Mo2 I8 O30'
_cell_volume   652.98077343
_cell_formula_units_Z   2
loop_
 _symmetry_equiv_pos_site_id
 _symmetry_equiv_pos_as_xyz
  1  'x, y, z'
loop_
 _atom_site_type_symbol
 _atom_site_label
 _atom_site_symmetry_multiplicity
 _atom_site_fract_x
 _atom_site_fract_y
 _atom_site_fract_z
 _atom_site_occupancy
  Sm  Sm0  1  0.94000100  0.07801200  0.57727800  1
  Sm  Sm1  1  0.44000100  0.92198800  0.42272200  1
  Mo  Mo0  1  0.77323500  0.58418100  0.21670100  1
  Mo  Mo1  1  0.27323500  0.41581900  0.78329900  1
  I  I0  1  0.53031100  0.52163200  0.23929700  1
  I  I1  1  0.03031100  0.47836800  0.76070300  1
  I  I2  1  0.68908200  0.76487100  0.69457300  1
  I  I3  1  0.18908200  0.23512900  0.30542700  1
  I  I4  1  0.81041400  0.14792400  0.04881100  1
  I  I5  1  0.31041400  0.85207600  0.95118900  1
  I  I6  1  0.03333600  0.76239700  0.14173000  1
  I  I7  1  0.53333600  0.23760300  0.85827000  1
  O  O0  1  0.64976700  0.40101400  0.29485500  1
  O  O1  1  0.14976700  0.59898600  0.70514500  1
  O  O2  1  0.46150400  0.28516700  0.35770700  1
  O  O3  1  0.96150400  0.71483300  0.64229300  1
  O  O4  1  0.52678100  0.60473800  0.45237600  1
  O  O5  1  0.02678100  0.39526200  0.54762400  1
  O  O6  1  0.68105000  0.76497200  0.95664000  1
  O  O7  1  0.18105000  0.23502800  0.04336000  1
  O  O8  1  0.58802600  0.93165600  0.58457400  1
  O  O9  1  0.08802600  0.06834400  0.41542600  1
  O  O10  1  0.78275300  0.95660500  0.60245800  1
  O  O11  1  0.28275300  0.04339500  0.39754200  1
  O  O12  1  0.78557200  0.42113900  0.00863000  1
  O  O13  1  0.28557200  0.57886100  0.99137000  1
  O  O14  1  0.87807900  0.22530500  0.81303000  1
  O  O15  1  0.37807900  0.77469500  0.18697000  1
  O  O16  1  0.90885700  0.09205800  0.22940100  1
  O  O17  1  0.40885700  0.90794200  0.77059900  1
  O  O18  1  0.03849700  0.52137800  0.10028400  1
  O  O19  1  0.53849700  0.47862200  0.89971600  1
  O  O20  1  0.15956000  0.75233400  0.21230000  1
  O  O21  1  0.65956000  0.24766600  0.78770000  1
  O  O22  1  0.04126300  0.96110500  0.88083900  1
  O  O23  1  0.54126300  0.03889500  0.11916100  1
  O  O24  1  0.86815800  0.76712400  0.06247600  1
  O  O25  1  0.36815800  0.23287600  0.93752400  1
  O  O26  1  0.84328700  0.38639900  0.39506700  1
  O  O27  1  0.34328700  0.61360100  0.60493300  1
  O  O28  1  0.73225400  0.73488100  0.34604400  1
  O  O29  1  0.23225400  0.26511900  0.65395600  1
loop_
_geom_bond_atom_site_label_1
_geom_bond_atom_site_label_2
_geom_bond_distance
_geom_bond_site_symmetry_2
Mo0 O26 1.762751 1_555
Mo0 O28 1.767603 1_555
Mo0 O24 1.878804 1_555
Mo0 O0 2.109692 1_555
Mo0 O6 2.205771 1_554
Mo0 O12 2.228710 1_555
Mo1 O27 1.762751 1_555
Mo1 O29 1.767603 1_555
Mo1 O25 1.878804 1_555
Mo1 O1 2.109692 1_555
Mo1 O7 2.205771 1_556
Mo1 O13 2.228710 1_555
I0 O2 1.814255 1_555
I0 O4 1.845109 1_555
I0 O0 1.863050 1_555
I0 O19 2.574107 1_554
I1 O3 1.814255 1_455
I1 O5 1.845109 1_555
I1 O1 1.863050 1_555
I1 O18 2.574107 1_556
I2 O10 1.815091 1_555
I2 O8 1.815850 1_555
I2 O6 1.881433 1_555
I3 O11 1.815091 1_555
I3 O9 1.815850 1_555
I3 O7 1.881433 1_555
I4 O14 1.822076 1_554
I4 O16 1.833248 1_555
I4 O12 1.859207 1_555
I5 O15 1.822076 1_556
I5 O17 1.833248 1_555
I5 O13 1.859207 1_555
I6 O22 1.825276 1_554
I6 O18 1.839859 1_555
I6 O20 1.852652 1_555
I6 O24 2.406136 1_455
I7 O23 1.825276 1_556
I7 O19 1.839859 1_555
I7 O21 1.852652 1_555
I7 O25 2.406136 1_555
O2 Sm1 2.424626 1_545
O3 Sm0 2.424626 1_565
O4 Sm1 2.482298 1_555
O5 Sm0 2.482298 1_455
O8 Sm1 2.411609 1_555
O9 Sm0 2.411609 1_455
O10 Sm0 2.367557 1_565
O11 Sm1 2.367557 1_545
O14 Sm0 2.475512 1_555
O15 Sm1 2.475512 1_555
O16 Sm0 2.493240 1_555
O17 Sm1 2.493240 1_555
O22 Sm0 2.451150 1_465
O23 Sm1 2.451150 1_545
O26 Sm0 2.446899 1_555
O27 Sm1 2.446899 1_555
