# generated using pymatgen
data_Mg6CdNi
_symmetry_space_group_name_H-M   'P 1'
_cell_length_a   4.84934000
_cell_length_b   6.19939400
_cell_length_c   10.56432600
_cell_angle_alpha   90.00000000
_cell_angle_beta   90.00000000
_cell_angle_gamma   90.00000000
_symmetry_Int_Tables_number   1
_chemical_formula_structural   Mg6CdNi
_chemical_formula_sum   'Mg12 Cd2 Ni2'
_cell_volume   317.59500821
_cell_formula_units_Z   2
loop_
 _symmetry_equiv_pos_site_id
 _symmetry_equiv_pos_as_xyz
  1  'x, y, z'
loop_
 _atom_site_type_symbol
 _atom_site_label
 _atom_site_symmetry_multiplicity
 _atom_site_fract_x
 _atom_site_fract_y
 _atom_site_fract_z
 _atom_site_occupancy
  Mg  Mg0  1  0.50000000  0.25122300  0.08424200  1
  Mg  Mg1  1  0.50000000  0.74877700  0.08424200  1
  Mg  Mg2  1  0.00000000  0.23757700  0.91217400  1
  Mg  Mg3  1  0.00000000  0.76242300  0.91217400  1
  Mg  Mg4  1  0.00000000  0.50000000  0.17431100  1
  Mg  Mg5  1  0.00000000  0.50000000  0.66663900  1
  Mg  Mg6  1  0.50000000  0.75122300  0.58424200  1
  Mg  Mg7  1  0.50000000  0.24877700  0.58424200  1
  Mg  Mg8  1  0.00000000  0.73757700  0.41217400  1
  Mg  Mg9  1  0.00000000  0.26242300  0.41217400  1
  Mg  Mg10  1  0.00000000  0.00000000  0.67431100  1
  Mg  Mg11  1  0.00000000  0.00000000  0.16663900  1
  Cd  Cd0  1  0.50000000  0.50000000  0.83352800  1
  Cd  Cd1  1  0.50000000  0.00000000  0.33352800  1
  Ni  Ni0  1  0.50000000  0.50000000  0.33269500  1
  Ni  Ni1  1  0.50000000  0.00000000  0.83269500  1
loop_
_geom_bond_atom_site_label_1
_geom_bond_atom_site_label_2
_geom_bond_distance
_geom_bond_site_symmetry_2
Mg0 Mg11 3.010370 1_555
Mg0 Mg11 3.010370 1_655
Mg0 Mg4 3.027044 1_655
Mg0 Mg4 3.027044 1_555
Mg0 Mg2 3.031586 1_554
Mg0 Mg2 3.031586 1_654
Mg0 Ni0 3.044312 1_555
Mg0 Ni1 3.080178 1_554
Mg0 Mg1 3.084533 1_555
Mg0 Mg1 3.114861 1_545
Mg1 Mg11 3.010370 1_565
Mg1 Mg11 3.010370 1_665
Mg1 Mg4 3.027044 1_655
Mg1 Mg4 3.027044 1_555
Mg1 Mg3 3.031586 1_554
Mg1 Mg3 3.031586 1_654
Mg1 Ni0 3.044312 1_555
Mg1 Ni1 3.080178 1_564
Mg2 Mg3 2.945667 1_545
Mg2 Ni1 2.958591 1_455
Mg2 Ni1 2.958591 1_555
Mg2 Mg5 3.061873 1_555
Mg2 Mg4 3.211808 1_556
Mg2 Mg3 3.253727 1_555
Mg3 Ni1 2.958591 1_465
Mg3 Ni1 2.958591 1_565
Mg3 Mg5 3.061873 1_555
Mg3 Mg4 3.211808 1_556
Mg4 Mg8 2.912682 1_555
Mg4 Mg9 2.912682 1_555
Mg4 Ni0 2.945962 1_455
Mg4 Ni0 2.945962 1_555
Mg5 Mg6 3.010370 1_555
Mg5 Mg7 3.010370 1_455
Mg5 Mg7 3.010370 1_555
Mg5 Mg6 3.010370 1_455
Mg5 Mg8 3.065279 1_555
Mg5 Mg9 3.065279 1_555
Mg6 Mg8 3.031586 1_655
Mg6 Mg8 3.031586 1_555
Mg6 Ni1 3.044312 1_565
Mg6 Ni0 3.080178 1_555
Mg6 Mg7 3.084533 1_565
Mg6 Mg7 3.114861 1_555
Mg7 Mg9 3.031586 1_555
Mg7 Mg9 3.031586 1_655
Mg7 Ni1 3.044312 1_555
Mg7 Ni0 3.080178 1_555
Mg8 Mg9 2.945667 1_555
Mg8 Ni0 2.958591 1_555
Mg8 Ni0 2.958591 1_455
Mg8 Mg9 3.253727 1_565
Mg9 Ni0 2.958591 1_555
Mg9 Ni0 2.958591 1_455
Mg10 Mg2 2.912682 1_555
Mg10 Mg3 2.912682 1_545
Mg10 Ni1 2.945962 1_455
Mg10 Ni1 2.945962 1_555
Mg10 Mg7 3.027044 1_455
Mg10 Mg7 3.027044 1_555
Mg10 Mg6 3.027044 1_445
Mg10 Mg6 3.027044 1_545
Mg10 Mg5 3.100756 1_545
Mg10 Mg5 3.100756 1_555
Mg10 Mg9 3.211808 1_555
Mg10 Mg8 3.211808 1_545
Mg11 Mg9 3.061873 1_555
Mg11 Mg8 3.061873 1_545
Mg11 Mg2 3.065279 1_554
Mg11 Mg3 3.065279 1_544
Mg11 Mg4 3.100756 1_555
Mg11 Mg4 3.100756 1_545
Cd0 Mg5 2.997906 1_555
Cd0 Mg5 2.997906 1_655
Cd0 Mg3 3.035788 1_555
Cd0 Mg3 3.035788 1_655
Cd0 Mg2 3.035788 1_655
Cd0 Mg2 3.035788 1_555
Cd0 Mg6 3.059594 1_555
Cd0 Mg7 3.059594 1_555
Cd0 Mg1 3.064930 1_556
Cd0 Mg0 3.064930 1_556
Cd0 Ni1 3.099709 1_565
Cd0 Ni1 3.099709 1_555
Cd1 Mg11 2.997906 1_655
Cd1 Mg11 2.997906 1_555
Cd1 Mg9 3.035788 1_555
Cd1 Mg9 3.035788 1_655
Cd1 Mg8 3.035788 1_645
Cd1 Mg8 3.035788 1_545
Cd1 Mg0 3.059594 1_555
Cd1 Mg1 3.059594 1_545
Cd1 Mg6 3.064930 1_545
Cd1 Mg7 3.064930 1_555
Cd1 Ni0 3.099709 1_555
Cd1 Ni0 3.099709 1_545
