# generated using pymatgen
data_Mg4Si3
_symmetry_space_group_name_H-M   'P 1'
_cell_length_a   5.85876800
_cell_length_b   7.26336385
_cell_length_c   7.49336266
_cell_angle_alpha   112.97369475
_cell_angle_beta   100.12401140
_cell_angle_gamma   104.32577691
_symmetry_Int_Tables_number   1
_chemical_formula_structural   Mg4Si3
_chemical_formula_sum   'Mg8 Si6'
_cell_volume   270.87226264
_cell_formula_units_Z   2
loop_
 _symmetry_equiv_pos_site_id
 _symmetry_equiv_pos_as_xyz
  1  'x, y, z'
loop_
 _atom_site_type_symbol
 _atom_site_label
 _atom_site_symmetry_multiplicity
 _atom_site_fract_x
 _atom_site_fract_y
 _atom_site_fract_z
 _atom_site_occupancy
  Mg  Mg0  1  0.18472700  0.45338400  0.32165000  1
  Mg  Mg1  1  0.90464100  0.98143300  0.16292900  1
  Mg  Mg2  1  0.35293700  0.23499000  0.65664900  1
  Mg  Mg3  1  0.06715300  0.52888700  0.92843800  1
  Mg  Mg4  1  0.63033300  0.52965400  0.14611300  1
  Mg  Mg5  1  0.14928100  0.80546100  0.68448700  1
  Mg  Mg6  1  0.69546000  0.94199200  0.54603600  1
  Mg  Mg7  1  0.44911800  0.08706100  0.20094700  1
  Si  Si0  1  0.50641200  0.68887200  0.83223200  1
  Si  Si1  1  0.89832300  0.31415300  0.51723800  1
  Si  Si2  1  0.69613500  0.15039300  0.92886600  1
  Si  Si3  1  0.17979100  0.82195000  0.33053300  1
  Si  Si4  1  0.65554000  0.53986400  0.54747100  1
  Si  Si5  1  0.13005100  0.17184700  0.94625200  1
loop_
_geom_bond_atom_site_label_1
_geom_bond_atom_site_label_2
_geom_bond_distance
_geom_bond_site_symmetry_2
Mg0 Si5 2.658173 1_554
Mg0 Si3 2.659255 1_555
Mg0 Si1 2.677337 1_455
Mg0 Si4 2.745641 1_555
Mg1 Si3 2.620278 1_655
Mg1 Si0 2.739175 1_554
Mg1 Si2 2.782706 1_564
Mg1 Si5 2.809973 1_664
Mg1 Si1 2.821478 1_565
Mg2 Si3 2.810810 1_545
Mg2 Si5 2.846346 1_555
Mg2 Si0 2.852912 1_555
Mg2 Si4 2.949122 1_555
Mg2 Si2 2.954543 1_555
Mg2 Si1 2.960511 1_455
Mg3 Si1 2.705329 1_455
Mg3 Si5 2.757668 1_555
Mg3 Si3 2.764813 1_556
Mg3 Si0 2.884314 1_555
Mg3 Si2 3.055301 1_455
Mg4 Si2 2.762737 1_554
Mg4 Si4 2.955811 1_555
Mg4 Si5 3.039232 1_554
Mg4 Si0 3.055321 1_554
Mg4 Si3 3.089276 1_655
Mg5 Si5 2.663349 1_565
Mg5 Si0 2.667404 1_555
Mg5 Si3 2.735885 1_555
Mg5 Si4 2.791349 1_455
Mg5 Si1 3.119537 1_455
Mg6 Si2 2.669082 1_565
Mg6 Si1 2.778805 1_565
Mg6 Si4 2.876325 1_555
Mg6 Si3 2.894417 1_555
Mg6 Si5 3.093145 1_665
Mg7 Si3 2.763209 1_545
Mg7 Si5 2.783714 1_554
Mg7 Si1 2.805619 1_555
Mg7 Si2 2.811176 1_554
Mg7 Si4 3.046796 1_555
Si0 Si4 2.410085 1_555
Si1 Si4 2.395754 1_555
Si2 Si5 2.485111 1_655
