# generated using pymatgen
data_La2CoNiO6
_symmetry_space_group_name_H-M   'P 1'
_cell_length_a   5.49236185
_cell_length_b   7.73805994
_cell_length_c   5.62512071
_cell_angle_alpha   89.35638970
_cell_angle_beta   89.20131698
_cell_angle_gamma   91.54894848
_symmetry_Int_Tables_number   1
_chemical_formula_structural   La2CoNiO6
_chemical_formula_sum   'La4 Co2 Ni2 O12'
_cell_volume   238.94220268
_cell_formula_units_Z   2
loop_
 _symmetry_equiv_pos_site_id
 _symmetry_equiv_pos_as_xyz
  1  'x, y, z'
loop_
 _atom_site_type_symbol
 _atom_site_label
 _atom_site_symmetry_multiplicity
 _atom_site_fract_x
 _atom_site_fract_y
 _atom_site_fract_z
 _atom_site_occupancy
  La  La0  1  0.50065600  0.25008100  0.00211500  1
  La  La1  1  0.00181700  0.74855200  0.50120900  1
  La  La2  1  0.49945700  0.74995600  0.99789200  1
  La  La3  1  0.99835600  0.25146000  0.49880900  1
  Co  Co0  1  0.00003200  0.49999300  0.99996100  1
  Co  Co1  1  0.49990400  0.00003800  0.50001200  1
  Ni  Ni0  1  0.50003100  0.49998000  0.49983900  1
  Ni  Ni1  1  0.99974300  0.00002900  0.00017000  1
  O  O0  1  0.28535500  0.47407300  0.80114900  1
  O  O1  1  0.78528900  0.96889600  0.28970700  1
  O  O2  1  0.20764200  0.53161100  0.28942800  1
  O  O3  1  0.71452300  0.03190500  0.78984300  1
  O  O4  1  0.99950300  0.74582000  0.93399800  1
  O  O5  1  0.50541100  0.23761400  0.43831000  1
  O  O6  1  0.79238200  0.46845000  0.71051600  1
  O  O7  1  0.28544800  0.96811000  0.21009500  1
  O  O8  1  0.00050100  0.25419100  0.06605300  1
  O  O9  1  0.49459800  0.76233000  0.56173100  1
  O  O10  1  0.71472500  0.52583500  0.19868400  1
  O  O11  1  0.21462800  0.03107800  0.71047600  1
loop_
_geom_bond_atom_site_label_1
_geom_bond_atom_site_label_2
_geom_bond_distance
_geom_bond_site_symmetry_2
La0 O3 2.401906 1_554
La0 O0 2.405104 1_554
La0 O5 2.454993 1_555
La0 O10 2.666782 1_555
La0 O7 2.700226 1_545
La0 O8 2.766584 1_555
La0 O8 2.773133 1_655
La0 O6 2.798415 1_554
La0 O11 2.832215 1_554
La1 O2 2.371740 1_555
La1 O1 2.416692 1_455
La1 O4 2.434198 1_455
La1 O6 2.679056 1_455
La1 O9 2.731938 1_555
La1 O11 2.736672 1_565
La1 O7 2.778141 1_555
La1 O9 2.806876 1_455
La1 O10 2.888968 1_455
La2 O7 2.401980 1_556
La2 O10 2.405279 1_556
La2 O9 2.454796 1_555
La2 O0 2.668071 1_555
La2 O3 2.699934 1_565
La2 O4 2.765970 1_555
La2 O4 2.773688 1_455
La2 O2 2.798373 1_556
La2 O1 2.831928 1_556
La3 O6 2.372206 1_555
La3 O11 2.416630 1_655
La3 O8 2.434021 1_655
La3 O2 2.679204 1_655
La3 O5 2.732820 1_555
La3 O1 2.737071 1_545
La3 O3 2.778464 1_555
La3 O5 2.806003 1_655
La3 O0 2.887592 1_655
Co0 O10 1.928264 1_456
Co0 O0 1.928700 1_555
Co0 O8 1.933998 1_556
Co0 O4 1.934067 1_455
Co0 O6 2.014163 1_455
Co0 O2 2.014205 1_556
Co1 O5 1.866381 1_555
Co1 O9 1.867416 1_545
Co1 O11 1.972126 1_555
Co1 O1 1.972189 1_545
Co1 O7 2.038346 1_545
Co1 O3 2.038425 1_555
Ni0 O2 2.026685 1_555
Ni0 O6 2.027300 1_555
Ni0 O10 2.055280 1_555
Ni0 O0 2.055965 1_555
Ni0 O5 2.064252 1_555
Ni0 O9 2.064507 1_555
Ni1 O3 1.995150 1_554
Ni1 O7 1.995959 1_645
Ni1 O1 2.005082 1_545
Ni1 O8 2.005325 1_655
Ni1 O4 2.006065 1_544
Ni1 O11 2.007086 1_654
