# generated using pymatgen
data_Na2PrSiO5
_symmetry_space_group_name_H-M   'P 1'
_cell_length_a   6.65086200
_cell_length_b   7.50436500
_cell_length_c   9.55731500
_cell_angle_alpha   90.00000000
_cell_angle_beta   90.00000000
_cell_angle_gamma   90.00000000
_symmetry_Int_Tables_number   1
_chemical_formula_structural   Na2PrSiO5
_chemical_formula_sum   'Na8 Pr4 Si4 O20'
_cell_volume   477.01033220
_cell_formula_units_Z   4
loop_
 _symmetry_equiv_pos_site_id
 _symmetry_equiv_pos_as_xyz
  1  'x, y, z'
loop_
 _atom_site_type_symbol
 _atom_site_label
 _atom_site_symmetry_multiplicity
 _atom_site_fract_x
 _atom_site_fract_y
 _atom_site_fract_z
 _atom_site_occupancy
  Na  Na0  1  0.87543400  0.03720200  0.82514700  1
  Na  Na1  1  0.12456600  0.96279800  0.17485300  1
  Na  Na2  1  0.37543400  0.96279800  0.67485300  1
  Na  Na3  1  0.12456600  0.53720200  0.17485300  1
  Na  Na4  1  0.62456600  0.03720200  0.32514700  1
  Na  Na5  1  0.87543400  0.46279800  0.82514700  1
  Na  Na6  1  0.62456600  0.46279800  0.32514700  1
  Na  Na7  1  0.37543400  0.53720200  0.67485300  1
  Pr  Pr0  1  0.87700400  0.75000000  0.54322100  1
  Pr  Pr1  1  0.12299600  0.25000000  0.45677900  1
  Pr  Pr2  1  0.37700400  0.25000000  0.95677900  1
  Pr  Pr3  1  0.62299600  0.75000000  0.04322100  1
  Si  Si0  1  0.17958300  0.75000000  0.90805200  1
  Si  Si1  1  0.82041700  0.25000000  0.09194800  1
  Si  Si2  1  0.67958300  0.25000000  0.59194800  1
  Si  Si3  1  0.32041700  0.75000000  0.40805200  1
  O  O0  1  0.10751300  0.75000000  0.74320600  1
  O  O1  1  0.89248700  0.25000000  0.25679400  1
  O  O2  1  0.60751300  0.25000000  0.75679400  1
  O  O3  1  0.39248700  0.75000000  0.24320600  1
  O  O4  1  0.82425700  0.07486100  0.56197200  1
  O  O5  1  0.17574300  0.92513900  0.43802800  1
  O  O6  1  0.32425700  0.92513900  0.93802800  1
  O  O7  1  0.17574300  0.57486100  0.43802800  1
  O  O8  1  0.67574300  0.07486100  0.06197200  1
  O  O9  1  0.82425700  0.42513900  0.56197200  1
  O  O10  1  0.67574300  0.42513900  0.06197200  1
  O  O11  1  0.32425700  0.57486100  0.93802800  1
  O  O12  1  0.71509100  0.75000000  0.78500300  1
  O  O13  1  0.28490900  0.25000000  0.21499700  1
  O  O14  1  0.21509100  0.25000000  0.71499700  1
  O  O15  1  0.78490900  0.75000000  0.28500300  1
  O  O16  1  0.51346600  0.75000000  0.51419300  1
  O  O17  1  0.48653400  0.25000000  0.48580700  1
  O  O18  1  0.01346600  0.25000000  0.98580700  1
  O  O19  1  0.98653400  0.75000000  0.01419300  1
loop_
_geom_bond_atom_site_label_1
_geom_bond_atom_site_label_2
_geom_bond_distance
_geom_bond_site_symmetry_2
Na0 O18 2.398043 1_655
Na0 O12 2.435084 1_545
Na0 O2 2.480340 1_555
Na0 O4 2.553857 1_555
Na0 O8 2.639468 1_556
Na0 O0 2.764228 1_645
Na0 O19 2.907851 1_546
Na0 O14 2.959988 1_655
Na1 O19 2.398043 1_455
Na1 O13 2.435084 1_565
Na1 O3 2.480340 1_555
Na1 O5 2.553857 1_555
Na1 O6 2.639468 1_554
Na1 O1 2.764228 1_465
Na1 O18 2.907851 1_564
Na1 O15 2.959988 1_455
Na2 O16 2.398043 1_555
Na2 O14 2.435084 1_565
Na2 O0 2.480340 1_555
Na2 O6 2.553857 1_555
Na2 O5 2.639468 1_555
Na2 O2 2.764228 1_565
Na2 O17 2.907851 1_565
Na2 O12 2.959988 1_555
Na3 O19 2.398043 1_455
Na3 O13 2.435084 1_555
Na3 O3 2.480340 1_555
Na3 O7 2.553857 1_555
Na3 O11 2.639468 1_554
Na3 O1 2.764228 1_455
Na3 O18 2.907851 1_554
Na3 O15 2.959988 1_455
Na4 O17 2.398043 1_555
Na4 O15 2.435084 1_545
Na4 O1 2.480340 1_555
Na4 O8 2.553857 1_555
Na4 O4 2.639468 1_555
Na4 O3 2.764228 1_545
Na4 O16 2.907851 1_545
Na4 O13 2.959988 1_555
Na5 O18 2.398043 1_655
Na5 O12 2.435084 1_555
Na5 O2 2.480340 1_555
Na5 O9 2.553857 1_555
Na5 O10 2.639468 1_556
Na5 O0 2.764228 1_655
Na5 O19 2.907851 1_556
Na5 O14 2.959988 1_655
Na6 O17 2.398043 1_555
Na6 O15 2.435084 1_555
Na6 O1 2.480340 1_555
Na6 O10 2.553857 1_555
Na6 O9 2.639468 1_555
Na6 O3 2.764228 1_555
Na6 O16 2.907851 1_555
Na6 O13 2.959988 1_555
Na7 O16 2.398043 1_555
Na7 O14 2.435084 1_555
Na7 O0 2.480340 1_555
Na7 O11 2.553857 1_555
Na7 O7 2.639468 1_555
Na7 O2 2.764228 1_555
Na7 O17 2.907851 1_555
Na7 O12 2.959988 1_555
O0 Si0 1.646787 1_555
O0 Pr0 2.450202 1_455
O1 Si1 1.646787 1_555
O1 Pr1 2.450202 1_655
O2 Si2 1.646787 1_555
O2 Pr2 2.450202 1_555
O3 Si3 1.646787 1_555
O3 Pr3 2.450202 1_555
O4 Si2 1.653881 1_555
O4 Pr0 2.469498 1_545
O4 Pr1 2.585695 1_655
O5 Si3 1.653881 1_555
O5 Pr1 2.469498 1_565
O5 Pr0 2.585695 1_455
O6 Si0 1.653881 1_555
O6 Pr2 2.469498 1_565
O6 Pr3 2.585695 1_556
O7 Si3 1.653881 1_555
O7 Pr1 2.469498 1_555
O7 Pr0 2.585695 1_455
O8 Si1 1.653881 1_555
O8 Pr3 2.469498 1_545
O8 Pr2 2.585695 1_554
O9 Si2 1.653881 1_555
O9 Pr0 2.469498 1_555
O9 Pr1 2.585695 1_655
O10 Si1 1.653881 1_555
O10 Pr3 2.469498 1_555
O10 Pr2 2.585695 1_554
O11 Si0 1.653881 1_555
O11 Pr2 2.469498 1_555
O11 Pr3 2.585695 1_556
O12 Pr3 2.542746 1_556
O12 Pr0 2.549385 1_555
O13 Pr2 2.542746 1_554
O13 Pr1 2.549385 1_555
O14 Pr1 2.542746 1_555
O14 Pr2 2.549385 1_555
O15 Pr0 2.542746 1_555
O15 Pr3 2.549385 1_555
O16 Si3 1.636326 1_555
O16 Pr0 2.433706 1_555
O17 Si2 1.636326 1_555
O17 Pr1 2.433706 1_555
O18 Si1 1.636326 1_456
O18 Pr2 2.433706 1_555
O19 Si0 1.636326 1_654
O19 Pr3 2.433706 1_555
