# generated using pymatgen
data_CdNCl3
_symmetry_space_group_name_H-M   'P 1'
_cell_length_a   7.42916500
_cell_length_b   5.87368100
_cell_length_c   7.70287731
_cell_angle_alpha   72.70934989
_cell_angle_beta   90.00000000
_cell_angle_gamma   90.00000000
_symmetry_Int_Tables_number   1
_chemical_formula_structural   CdNCl3
_chemical_formula_sum   'Cd2 N2 Cl6'
_cell_volume   320.93714705
_cell_formula_units_Z   2
loop_
 _symmetry_equiv_pos_site_id
 _symmetry_equiv_pos_as_xyz
  1  'x, y, z'
loop_
 _atom_site_type_symbol
 _atom_site_label
 _atom_site_symmetry_multiplicity
 _atom_site_fract_x
 _atom_site_fract_y
 _atom_site_fract_z
 _atom_site_occupancy
  Cd  Cd0  1  0.50000000  0.00000000  0.00000000  1
  Cd  Cd1  1  0.00000000  0.00000000  0.00000000  1
  N  N0  1  0.75000000  0.62110500  0.70722100  1
  N  N1  1  0.25000000  0.37889500  0.29277900  1
  Cl  Cl0  1  0.25000000  0.10532000  0.24389900  1
  Cl  Cl1  1  0.25000000  0.60992900  0.08351400  1
  Cl  Cl2  1  0.25000000  0.14047600  0.76800600  1
  Cl  Cl3  1  0.75000000  0.89468000  0.75610100  1
  Cl  Cl4  1  0.75000000  0.39007100  0.91648600  1
  Cl  Cl5  1  0.75000000  0.85952400  0.23199400  1
loop_
_geom_bond_atom_site_label_1
_geom_bond_atom_site_label_2
_geom_bond_distance
_geom_bond_site_symmetry_2
Cd0 Cl5 2.539152 1_545
Cd0 Cl2 2.539152 1_554
Cd0 Cl3 2.837725 1_544
Cd0 Cl0 2.837725 1_555
Cd0 Cl1 2.869949 1_545
Cd0 Cl4 2.869949 1_554
Cd1 Cl5 2.539152 1_445
Cd1 Cl2 2.539152 1_554
Cd1 Cl3 2.837725 1_444
Cd1 Cl0 2.837725 1_555
Cd1 Cl4 2.869949 1_454
Cd1 Cl1 2.869949 1_545
Cl0 N1 1.755994 1_555
Cl1 N1 1.771882 1_555
Cl3 N0 1.755994 1_555
Cl4 N0 1.771882 1_555
