# generated using pymatgen
data_Si
_symmetry_space_group_name_H-M   'P 1'
_cell_length_a   12.53983493
_cell_length_b   12.33642402
_cell_length_c   12.53708731
_cell_angle_alpha   77.15858093
_cell_angle_beta   101.53703375
_cell_angle_gamma   106.47195180
_symmetry_Int_Tables_number   1
_chemical_formula_structural   Si
_chemical_formula_sum   Si100
_cell_volume   1793.76493767
_cell_formula_units_Z   100
loop_
 _symmetry_equiv_pos_site_id
 _symmetry_equiv_pos_as_xyz
  1  'x, y, z'
loop_
 _atom_site_type_symbol
 _atom_site_label
 _atom_site_symmetry_multiplicity
 _atom_site_fract_x
 _atom_site_fract_y
 _atom_site_fract_z
 _atom_site_occupancy
  Si  Si0  1  0.08752743  0.21920418  0.41840535  1
  Si  Si1  1  0.12374435  0.76088472  0.34543906  1
  Si  Si2  1  0.69802860  0.27198740  0.37719247  1
  Si  Si3  1  0.69986870  0.01795748  0.31896847  1
  Si  Si4  1  0.05178415  0.03241105  0.57617957  1
  Si  Si5  1  0.27033138  0.50255163  0.34158663  1
  Si  Si6  1  0.86658270  0.91392376  0.73405891  1
  Si  Si7  1  0.79875566  0.80552817  0.49695109  1
  Si  Si8  1  0.43063200  0.35797324  0.51809613  1
  Si  Si9  1  0.41173550  0.50529481  0.61677853  1
  Si  Si10  1  0.59264631  0.30021695  0.61675537  1
  Si  Si11  1  0.14628977  0.60777597  0.55928681  1
  Si  Si12  1  0.59743782  0.94699898  0.04497197  1
  Si  Si13  1  0.72115050  0.05831426  0.62190152  1
  Si  Si14  1  0.48897520  0.29466378  0.87711936  1
  Si  Si15  1  0.86662992  0.19844270  0.18845005  1
  Si  Si16  1  0.32767285  0.07470159  0.69527317  1
  Si  Si17  1  0.56513138  0.26786614  0.09229231  1
  Si  Si18  1  0.43436396  0.85717213  0.27059618  1
  Si  Si19  1  0.22787294  0.49342794  0.99244315  1
  Si  Si20  1  0.61023508  0.57510798  0.61646832  1
  Si  Si21  1  0.52982519  0.77533028  0.18154035  1
  Si  Si22  1  0.44856038  0.00335588  0.47994219  1
  Si  Si23  1  0.72661590  0.59242900  0.48129268  1
  Si  Si24  1  0.50673934  0.17320567  0.33362439  1
  Si  Si25  1  0.85287257  0.00729743  0.53338044  1
  Si  Si26  1  0.02268786  0.55747859  0.15249949  1
  Si  Si27  1  0.36105294  0.28122931  0.70430863  1
  Si  Si28  1  0.90991746  0.38475000  0.07373771  1
  Si  Si29  1  0.20192248  0.44672743  0.52196358  1
  Si  Si30  1  0.73899011  0.39377797  0.51330855  1
  Si  Si31  1  0.59735508  0.63035632  0.31911680  1
  Si  Si32  1  0.62811075  0.77479658  0.57413869  1
  Si  Si33  1  0.00654520  0.83421730  0.18724773  1
  Si  Si34  1  0.91978551  0.58752084  0.79483066  1
  Si  Si35  1  0.18894739  0.32489078  0.70936660  1
  Si  Si36  1  0.97162106  0.78406397  0.71224113  1
  Si  Si37  1  0.67793078  0.58778654  0.18643726  1
  Si  Si38  1  0.66377361  0.86225792  0.73064789  1
  Si  Si39  1  0.80548642  0.77315846  0.17072342  1
  Si  Si40  1  0.37444359  0.13773066  0.99500429  1
  Si  Si41  1  0.56017753  0.90584410  0.42843939  1
  Si  Si42  1  0.22958144  0.87919497  0.07210716  1
  Si  Si43  1  0.22418614  0.04595253  0.51696001  1
  Si  Si44  1  0.20971012  0.67340965  0.12356523  1
  Si  Si45  1  0.28071361  0.70293693  0.32321654  1
  Si  Si46  1  0.78247785  0.87288700  0.30443505  1
  Si  Si47  1  0.65575850  0.31622492  0.80592406  1
  Si  Si48  1  0.93764313  0.97173566  0.91331495  1
  Si  Si49  1  0.00375640  0.35720629  0.46293180  1
  Si  Si50  1  0.59292212  0.99851470  0.80842734  1
  Si  Si51  1  0.25113156  0.93711456  0.39728882  1
  Si  Si52  1  0.53227096  0.10175489  0.63192019  1
  Si  Si53  1  0.86672416  0.17891070  0.72768963  1
  Si  Si54  1  0.18756009  0.51215582  0.74641110  1
  Si  Si55  1  0.73158225  0.42041273  0.05406125  1
  Si  Si56  1  0.98420878  0.93317486  0.32745853  1
  Si  Si57  1  0.98221587  0.30833168  0.95456184  1
  Si  Si58  1  0.12667619  0.63432197  0.93333649  1
  Si  Si59  1  0.74185000  0.60332251  0.94059867  1
  Si  Si60  1  0.40052885  0.82221745  0.63574704  1
  Si  Si61  1  0.39908802  0.95537437  0.98628507  1
  Si  Si62  1  0.84270309  0.17812460  0.38730071  1
  Si  Si63  1  0.72234867  0.51947046  0.78404713  1
  Si  Si64  1  0.00014232  0.44190042  0.77915493  1
  Si  Si65  1  0.04800574  0.03468818  0.09770359  1
  Si  Si66  1  0.08237825  0.87078898  0.91479702  1
  Si  Si67  1  0.44254006  0.72758002  0.90340715  1
  Si  Si68  1  0.94858806  0.50883684  0.32413011  1
  Si  Si69  1  0.14195333  0.03574656  0.76410152  1
  Si  Si70  1  0.45272386  0.33736412  0.21235463  1
  Si  Si71  1  0.05813051  0.16722274  0.81203895  1
  Si  Si72  1  0.37756382  0.89932090  0.81141284  1
  Si  Si73  1  0.74596217  0.16216514  0.85815188  1
  Si  Si74  1  0.50209890  0.51313337  0.08204269  1
  Si  Si75  1  0.03489630  0.13141661  0.25322050  1
  Si  Si76  1  0.34628952  0.67378688  0.52190885  1
  Si  Si77  1  0.65974590  0.11195513  0.13435093  1
  Si  Si78  1  0.76235885  0.43434846  0.24418221  1
  Si  Si79  1  0.14022135  0.32255685  0.10337962  1
  Si  Si80  1  0.28470044  0.38026720  0.89647571  1
  Si  Si81  1  0.00676779  0.83303929  0.52057407  1
  Si  Si82  1  0.38497346  0.60861872  0.76310041  1
  Si  Si83  1  0.19522584  0.80010474  0.60093215  1
  Si  Si84  1  0.76354942  0.89696269  0.00377794  1
  Si  Si85  1  0.95381067  0.67122055  0.97272337  1
  Si  Si86  1  0.43921600  0.05582616  0.19143328  1
  Si  Si87  1  0.28114367  0.23565774  0.41535307  1
  Si  Si88  1  0.38504957  0.63683359  0.07981390  1
  Si  Si89  1  0.19231443  0.18863631  0.98517036  1
  Si  Si90  1  0.23886395  0.02260112  0.20120121  1
  Si  Si91  1  0.26880448  0.22175688  0.22316749  1
  Si  Si92  1  0.64285820  0.75010410  0.90935107  1
  Si  Si93  1  0.44533663  0.46714384  0.33608494  1
  Si  Si94  1  0.10444419  0.39115201  0.25444052  1
  Si  Si95  1  0.86969825  0.11537219  0.02220872  1
  Si  Si96  1  0.91029775  0.35981181  0.61515265  1
  Si  Si97  1  0.17299480  0.79279820  0.79173270  1
  Si  Si98  1  0.97801345  0.64118741  0.44907311  1
  Si  Si99  1  0.47996495  0.47837010  0.89918704  1
loop_
_geom_bond_atom_site_label_1
_geom_bond_atom_site_label_2
_geom_bond_distance
_geom_bond_site_symmetry_2
Si0 Si87 2.385724 1_555
Si0 Si75 2.437643 1_555
Si0 Si49 2.446355 1_555
Si0 Si94 2.598313 1_555
Si0 Si4 2.677010 1_555
Si1 Si45 2.359872 1_555
Si1 Si33 2.387924 1_555
Si1 Si98 2.403072 1_455
Si1 Si51 2.438067 1_555
Si2 Si78 2.362300 1_555
Si2 Si24 2.377268 1_555
Si2 Si62 2.383751 1_555
Si2 Si30 2.405158 1_555
Si3 Si46 2.362400 1_545
Si3 Si41 2.368323 1_545
Si3 Si77 2.372135 1_555
Si3 Si62 2.444963 1_555
Si4 Si43 2.373816 1_555
Si4 Si69 2.404584 1_555
Si4 Si81 2.582897 1_545
Si5 Si94 2.355137 1_555
Si5 Si93 2.372571 1_555
Si7 Si81 2.498095 1_655
Si8 Si93 2.390868 1_555
Si8 Si87 2.396686 1_555
Si8 Si9 2.500153 1_555
Si10 Si52 2.324452 1_555
Si10 Si30 2.338236 1_555
Si10 Si8 2.364126 1_555
Si10 Si47 2.378805 1_555
Si11 Si98 2.367633 1_455
Si11 Si54 2.406956 1_555
Si11 Si83 2.423933 1_555
Si11 Si29 2.445950 1_555
Si11 Si76 2.512950 1_555
Si12 Si77 2.401861 1_565
Si12 Si21 2.466982 1_555
Si12 Si61 2.473555 1_554
Si12 Si84 2.507560 1_555
Si12 Si50 2.883963 1_554
Si13 Si53 2.381850 1_555
Si13 Si25 2.447318 1_555
Si13 Si38 2.483143 1_545
Si13 Si52 2.604145 1_555
Si14 Si47 2.359505 1_555
Si14 Si99 2.379443 1_555
Si14 Si27 2.431720 1_555
Si14 Si40 2.448562 1_555
Si14 Si17 2.655313 1_556
Si15 Si28 2.404355 1_555
Si15 Si75 2.408509 1_655
Si15 Si62 2.519272 1_555
Si15 Si77 2.525249 1_555
Si15 Si95 2.529691 1_555
Si16 Si43 2.395497 1_555
Si16 Si27 2.486752 1_555
Si16 Si72 2.489065 1_545
Si16 Si69 2.526684 1_555
Si16 Si52 2.745248 1_555
Si17 Si55 2.428908 1_555
Si17 Si77 2.445027 1_555
Si17 Si70 2.663710 1_555
Si17 Si40 2.703631 1_554
Si17 Si86 2.806788 1_555
Si18 Si21 2.328087 1_555
Si18 Si41 2.346860 1_555
Si18 Si45 2.374738 1_555
Si18 Si86 2.419295 1_565
Si19 Si58 2.341516 1_555
Si19 Si80 2.357517 1_555
Si19 Si79 2.362262 1_556
Si19 Si88 2.496948 1_556
Si20 Si32 2.356640 1_555
Si20 Si63 2.363546 1_555
Si20 Si23 2.387264 1_555
Si20 Si9 2.392552 1_555
Si21 Si31 2.407087 1_555
Si21 Si88 2.474875 1_555
Si22 Si41 2.341932 1_545
Si22 Si52 2.389830 1_555
Si22 Si51 2.464490 1_545
Si22 Si24 2.499520 1_555
Si22 Si60 2.634170 1_545
Si23 Si31 2.381002 1_555
Si23 Si30 2.438100 1_555
Si23 Si7 2.564690 1_555
Si24 Si86 2.416612 1_555
Si24 Si70 2.422563 1_555
Si25 Si4 2.388687 1_655
Si25 Si62 2.480899 1_555
Si25 Si7 2.507635 1_545
Si25 Si6 2.517412 1_545
Si26 Si68 2.400653 1_455
Si26 Si44 2.425839 1_555
Si26 Si28 2.486613 1_455
Si26 Si85 2.509506 1_454
Si26 Si94 2.529388 1_555
Si27 Si35 2.383485 1_555
Si27 Si8 2.543944 1_555
Si27 Si9 2.680143 1_555
Si28 Si55 2.354666 1_555
Si28 Si57 2.365523 1_554
Si29 Si49 2.452309 1_555
Si29 Si5 2.464301 1_555
Si29 Si35 2.500036 1_555
Si29 Si9 2.628698 1_555
Si30 Si96 2.365585 1_555
Si31 Si37 2.329199 1_555
Si31 Si93 2.351252 1_555
Si32 Si41 2.349852 1_555
Si32 Si38 2.351742 1_555
Si32 Si7 2.421643 1_555
Si33 Si39 2.398006 1_455
Si33 Si65 2.432485 1_565
Si33 Si56 2.450201 1_455
Si34 Si64 2.354544 1_655
Si34 Si63 2.364452 1_555
Si34 Si36 2.373397 1_555
Si34 Si85 2.572047 1_555
Si34 Si58 2.805994 1_655
Si35 Si71 2.460375 1_555
Si35 Si54 2.460869 1_555
Si35 Si80 2.555723 1_555
Si36 Si6 2.431395 1_555
Si36 Si81 2.441457 1_655
Si36 Si97 2.503637 1_655
Si37 Si78 2.334247 1_555
Si37 Si74 2.377528 1_555
Si37 Si39 2.382925 1_555
Si38 Si92 2.377798 1_555
Si38 Si6 2.434190 1_555
Si38 Si50 2.547117 1_555
Si39 Si84 2.363083 1_555
Si39 Si46 2.391350 1_555
Si40 Si61 2.384395 1_545
Si40 Si89 2.508375 1_555
Si40 Si86 2.510882 1_556
Si42 Si66 2.415341 1_554
Si42 Si61 2.427246 1_554
Si42 Si44 2.429120 1_555
Si42 Si90 2.615981 1_565
Si43 Si51 2.350194 1_545
Si43 Si87 2.387603 1_555
Si43 Si83 2.923633 1_545
Si44 Si58 2.497529 1_554
Si44 Si88 2.548316 1_555
Si44 Si45 2.553544 1_555
Si45 Si5 2.399453 1_555
Si45 Si76 2.441486 1_555
Si46 Si7 2.359068 1_555
Si46 Si56 2.402524 1_555
Si47 Si63 2.378610 1_555
Si47 Si73 2.385370 1_555
Si48 Si6 2.429871 1_555
Si48 Si66 2.470465 1_655
Si48 Si84 2.507286 1_556
Si48 Si65 2.602142 1_666
Si48 Si71 2.655330 1_665
Si48 Si95 2.850671 1_566
Si49 Si68 2.410650 1_455
Si49 Si96 2.441268 1_455
Si49 Si62 2.737411 1_455
Si50 Si52 2.391803 1_565
Si50 Si73 2.455833 1_565
Si50 Si72 2.633984 1_555
Si51 Si90 2.442891 1_565
Si51 Si83 2.827082 1_555
Si53 Si96 2.342390 1_555
Si53 Si73 2.382076 1_555
Si53 Si71 2.452195 1_655
Si54 Si64 2.348557 1_555
Si54 Si82 2.412684 1_555
Si54 Si80 2.552881 1_555
Si55 Si59 2.369255 1_554
Si55 Si78 2.374118 1_555
Si56 Si75 2.365276 1_665
Si56 Si81 2.462225 1_655
Si57 Si79 2.430483 1_656
Si57 Si64 2.445124 1_655
Si57 Si95 2.460303 1_556
Si58 Si97 2.353066 1_555
Si58 Si85 2.497525 1_455
Si59 Si63 2.355649 1_555
Si59 Si92 2.395433 1_555
Si59 Si85 2.527396 1_555
Si60 Si76 2.433009 1_555
Si60 Si83 2.469409 1_555
Si60 Si72 2.679208 1_555
Si60 Si82 2.737467 1_555
Si61 Si72 2.385149 1_555
Si64 Si96 2.423707 1_455
Si65 Si90 2.511592 1_555
Si65 Si75 2.554608 1_555
Si65 Si89 2.598701 1_554
Si65 Si95 2.623514 1_455
Si66 Si69 2.502423 1_565
Si66 Si97 2.564851 1_555
Si66 Si85 2.571104 1_455
Si67 Si88 2.396625 1_556
Si67 Si82 2.409944 1_555
Si67 Si92 2.435404 1_555
Si67 Si72 2.449433 1_555
Si68 Si78 2.357707 1_555
Si68 Si98 2.412394 1_555
Si69 Si71 2.397826 1_555
Si70 Si91 2.354846 1_555
Si70 Si74 2.413053 1_555
Si70 Si93 2.494723 1_555
Si71 Si89 2.480787 1_555
Si72 Si97 2.519443 1_555
Si73 Si95 2.382184 1_556
Si74 Si99 2.373057 1_554
Si74 Si88 2.391388 1_555
Si75 Si79 2.844445 1_555
Si75 Si91 2.896398 1_555
Si76 Si9 2.426252 1_555
Si77 Si86 2.850360 1_555
Si79 Si91 2.395807 1_555
Si79 Si94 2.402420 1_555
Si79 Si89 2.727650 1_554
Si80 Si99 2.401227 1_555
Si80 Si89 2.441511 1_555
Si81 Si83 2.484979 1_555
Si81 Si98 2.620110 1_455
Si82 Si99 2.442437 1_555
Si82 Si9 2.575028 1_555
Si83 Si97 2.442243 1_555
Si84 Si92 2.378246 1_554
Si84 Si95 2.684175 1_565
Si86 Si90 2.451906 1_555
Si87 Si91 2.424516 1_555
Si90 Si91 2.447306 1_555
