# generated using pymatgen
data_N2O
_symmetry_space_group_name_H-M   'P 1'
_cell_length_a   5.64987685
_cell_length_b   5.64987685
_cell_length_c   5.64987685
_cell_angle_alpha   90.00000000
_cell_angle_beta   90.00000000
_cell_angle_gamma   90.00000000
_symmetry_Int_Tables_number   1
_chemical_formula_structural   N2O
_chemical_formula_sum   'N8 O4'
_cell_volume   180.35033149
_cell_formula_units_Z   4
loop_
 _symmetry_equiv_pos_site_id
 _symmetry_equiv_pos_as_xyz
  1  'x, y, z'
loop_
 _atom_site_type_symbol
 _atom_site_label
 _atom_site_symmetry_multiplicity
 _atom_site_fract_x
 _atom_site_fract_y
 _atom_site_fract_z
 _atom_site_occupancy
  N  N0  1  0.50077380  0.00077380  0.49922620  1
  N  N1  1  0.00077380  0.49922620  0.50077380  1
  N  N2  1  0.49922620  0.50077380  0.00077380  1
  N  N3  1  0.99922620  0.99922620  0.99922620  1
  N  N4  1  0.61651721  0.11651721  0.38348279  1
  N  N5  1  0.11651721  0.38348279  0.61651721  1
  N  N6  1  0.38348279  0.61651721  0.11651721  1
  N  N7  1  0.88348279  0.88348279  0.88348279  1
  O  O0  1  0.37927888  0.87927888  0.62072112  1
  O  O1  1  0.87927888  0.62072112  0.37927888  1
  O  O2  1  0.62072112  0.37927888  0.87927888  1
  O  O3  1  0.12072112  0.12072112  0.12072112  1
loop_
_geom_bond_atom_site_label_1
_geom_bond_atom_site_label_2
_geom_bond_distance
_geom_bond_site_symmetry_2
N0 N4 1.132650 1_555
N0 O0 1.188934 1_545
N1 N5 1.132650 1_555
N1 O1 1.188934 1_455
N2 N6 1.132650 1_555
N2 O2 1.188934 1_554
N3 N7 1.132650 1_555
N3 O3 1.188934 1_666
