# generated using pymatgen
data_SnH6C(NCl)3
_symmetry_space_group_name_H-M   'P 1'
_cell_length_a   7.95321800
_cell_length_b   12.39678900
_cell_length_c   18.29069000
_cell_angle_alpha   90.00000000
_cell_angle_beta   90.00000000
_cell_angle_gamma   90.00000000
_symmetry_Int_Tables_number   1
_chemical_formula_structural   SnH6C(NCl)3
_chemical_formula_sum   'Sn8 H48 C8 N24 Cl24'
_cell_volume   1803.35897359
_cell_formula_units_Z   8
loop_
 _symmetry_equiv_pos_site_id
 _symmetry_equiv_pos_as_xyz
  1  'x, y, z'
loop_
 _atom_site_type_symbol
 _atom_site_label
 _atom_site_symmetry_multiplicity
 _atom_site_fract_x
 _atom_site_fract_y
 _atom_site_fract_z
 _atom_site_occupancy
  Sn  Sn0  1  0.67401700  0.76154100  0.38094600  1
  Sn  Sn1  1  0.17401700  0.73845900  0.61905400  1
  Sn  Sn2  1  0.32598300  0.26154100  0.11905400  1
  Sn  Sn3  1  0.82598300  0.23845900  0.88094600  1
  Sn  Sn4  1  0.32598300  0.23845900  0.61905400  1
  Sn  Sn5  1  0.82598300  0.26154100  0.38094600  1
  Sn  Sn6  1  0.67401700  0.73845900  0.88094600  1
  Sn  Sn7  1  0.17401700  0.76154100  0.11905400  1
  H  H0  1  0.02002500  0.93948400  0.30291200  1
  H  H1  1  0.52002500  0.56051600  0.69708800  1
  H  H2  1  0.97997500  0.43948400  0.19708800  1
  H  H3  1  0.47997500  0.06051600  0.80291200  1
  H  H4  1  0.97997500  0.06051600  0.69708800  1
  H  H5  1  0.47997500  0.43948400  0.30291200  1
  H  H6  1  0.02002500  0.56051600  0.80291200  1
  H  H7  1  0.52002500  0.93948400  0.19708800  1
  H  H8  1  0.10579700  0.05006700  0.25864500  1
  H  H9  1  0.60579700  0.44993300  0.74135500  1
  H  H10  1  0.89420300  0.55006700  0.24135500  1
  H  H11  1  0.39420300  0.94993300  0.75864500  1
  H  H12  1  0.89420300  0.94993300  0.74135500  1
  H  H13  1  0.39420300  0.55006700  0.25864500  1
  H  H14  1  0.10579700  0.44993300  0.75864500  1
  H  H15  1  0.60579700  0.05006700  0.24135500  1
  H  H16  1  0.29589800  0.16513000  0.32168200  1
  H  H17  1  0.79589800  0.33487000  0.67831800  1
  H  H18  1  0.70410200  0.66513000  0.17831800  1
  H  H19  1  0.20410200  0.83487000  0.82168200  1
  H  H20  1  0.70410200  0.83487000  0.67831800  1
  H  H21  1  0.20410200  0.66513000  0.32168200  1
  H  H22  1  0.29589800  0.33487000  0.82168200  1
  H  H23  1  0.79589800  0.16513000  0.17831800  1
  H  H24  1  0.37198600  0.12596600  0.40676400  1
  H  H25  1  0.87198600  0.37403400  0.59323600  1
  H  H26  1  0.62801400  0.62596600  0.09323600  1
  H  H27  1  0.12801400  0.87403400  0.90676400  1
  H  H28  1  0.62801400  0.87403400  0.59323600  1
  H  H29  1  0.12801400  0.62596600  0.40676400  1
  H  H30  1  0.37198600  0.37403400  0.90676400  1
  H  H31  1  0.87198600  0.12596600  0.09323600  1
  H  H32  1  0.09275700  0.90297600  0.42527200  1
  H  H33  1  0.59275700  0.59702400  0.57472800  1
  H  H34  1  0.90724300  0.40297600  0.07472800  1
  H  H35  1  0.40724300  0.09702400  0.92527200  1
  H  H36  1  0.90724300  0.09702400  0.57472800  1
  H  H37  1  0.40724300  0.40297600  0.42527200  1
  H  H38  1  0.09275700  0.59702400  0.92527200  1
  H  H39  1  0.59275700  0.90297600  0.07472800  1
  H  H40  1  0.26279600  0.97182800  0.46346800  1
  H  H41  1  0.76279600  0.52817200  0.53653200  1
  H  H42  1  0.73720400  0.47182800  0.03653200  1
  H  H43  1  0.23720400  0.02817200  0.96346800  1
  H  H44  1  0.73720400  0.02817200  0.53653200  1
  H  H45  1  0.23720400  0.47182800  0.46346800  1
  H  H46  1  0.26279600  0.52817200  0.96346800  1
  H  H47  1  0.76279600  0.97182800  0.03653200  1
  C  C0  1  0.18872400  0.02741100  0.36329200  1
  C  C1  1  0.68872400  0.47258900  0.63670800  1
  C  C2  1  0.81127600  0.52741100  0.13670800  1
  C  C3  1  0.31127600  0.97258900  0.86329200  1
  C  C4  1  0.81127600  0.97258900  0.63670800  1
  C  C5  1  0.31127600  0.52741100  0.36329200  1
  C  C6  1  0.18872400  0.47258900  0.86329200  1
  C  C7  1  0.68872400  0.02741100  0.13670800  1
  N  N0  1  0.08637300  0.00994500  0.30630000  1
  N  N1  1  0.58637300  0.49005500  0.69370000  1
  N  N2  1  0.91362700  0.50994500  0.19370000  1
  N  N3  1  0.41362700  0.99005500  0.80630000  1
  N  N4  1  0.91362700  0.99005500  0.69370000  1
  N  N5  1  0.41362700  0.50994500  0.30630000  1
  N  N6  1  0.08637300  0.49005500  0.80630000  1
  N  N7  1  0.58637300  0.00994500  0.19370000  1
  N  N8  1  0.29637300  0.11030000  0.36293700  1
  N  N9  1  0.79637300  0.38970000  0.63706300  1
  N  N10  1  0.70362700  0.61030000  0.13706300  1
  N  N11  1  0.20362700  0.88970000  0.86293700  1
  N  N12  1  0.70362700  0.88970000  0.63706300  1
  N  N13  1  0.20362700  0.61030000  0.36293700  1
  N  N14  1  0.29637300  0.38970000  0.86293700  1
  N  N15  1  0.79637300  0.11030000  0.13706300  1
  N  N16  1  0.18275900  0.96097300  0.42077300  1
  N  N17  1  0.68275900  0.53902700  0.57922700  1
  N  N18  1  0.81724100  0.46097300  0.07922700  1
  N  N19  1  0.31724100  0.03902700  0.92077300  1
  N  N20  1  0.81724100  0.03902700  0.57922700  1
  N  N21  1  0.31724100  0.46097300  0.42077300  1
  N  N22  1  0.18275900  0.53902700  0.92077300  1
  N  N23  1  0.68275900  0.96097300  0.07922700  1
  Cl  Cl0  1  0.88862800  0.76894100  0.27288000  1
  Cl  Cl1  1  0.38862800  0.73105900  0.72712000  1
  Cl  Cl2  1  0.11137200  0.26894100  0.22712000  1
  Cl  Cl3  1  0.61137200  0.23105900  0.77288000  1
  Cl  Cl4  1  0.11137200  0.23105900  0.72712000  1
  Cl  Cl5  1  0.61137200  0.26894100  0.27288000  1
  Cl  Cl6  1  0.88862800  0.73105900  0.77288000  1
  Cl  Cl7  1  0.38862800  0.76894100  0.22712000  1
  Cl  Cl8  1  0.67296100  0.96317300  0.39382100  1
  Cl  Cl9  1  0.17296100  0.53682700  0.60617900  1
  Cl  Cl10  1  0.32703900  0.46317300  0.10617900  1
  Cl  Cl11  1  0.82703900  0.03682700  0.89382100  1
  Cl  Cl12  1  0.32703900  0.03682700  0.60617900  1
  Cl  Cl13  1  0.82703900  0.46317300  0.39382100  1
  Cl  Cl14  1  0.67296100  0.53682700  0.89382100  1
  Cl  Cl15  1  0.17296100  0.96317300  0.10617900  1
  Cl  Cl16  1  0.91770700  0.74682900  0.47325500  1
  Cl  Cl17  1  0.41770700  0.75317100  0.52674500  1
  Cl  Cl18  1  0.08229300  0.24682900  0.02674500  1
  Cl  Cl19  1  0.58229300  0.25317100  0.97325500  1
  Cl  Cl20  1  0.08229300  0.25317100  0.52674500  1
  Cl  Cl21  1  0.58229300  0.24682900  0.47325500  1
  Cl  Cl22  1  0.91770700  0.75317100  0.97325500  1
  Cl  Cl23  1  0.41770700  0.74682900  0.02674500  1
loop_
_geom_bond_atom_site_label_1
_geom_bond_atom_site_label_2
_geom_bond_distance
_geom_bond_site_symmetry_2
H0 N0 1.022385 1_565
H1 N1 1.022385 1_555
H2 N2 1.022385 1_555
H3 N3 1.022385 1_545
H4 N4 1.022385 1_545
H5 N5 1.022385 1_555
H6 N6 1.022385 1_555
H7 N7 1.022385 1_565
H8 N0 1.015390 1_555
H9 N1 1.015390 1_555
H10 N2 1.015390 1_555
H11 N3 1.015390 1_555
H12 N4 1.015390 1_555
H13 N5 1.015390 1_555
H14 N6 1.015390 1_555
H15 N7 1.015390 1_555
H16 N8 1.015590 1_555
H17 N9 1.015590 1_555
H18 N10 1.015590 1_555
H19 N11 1.015590 1_555
H20 N12 1.015590 1_555
H21 N13 1.015590 1_555
H22 N14 1.015590 1_555
H23 N15 1.015590 1_555
H24 N8 1.020766 1_555
H25 N9 1.020766 1_555
H26 N10 1.020766 1_555
H27 N11 1.020766 1_555
H28 N12 1.020766 1_555
H29 N13 1.020766 1_555
H30 N14 1.020766 1_555
H31 N15 1.020766 1_555
H32 N16 1.017878 1_555
H33 N17 1.017878 1_555
H34 N18 1.017878 1_555
H35 N19 1.017878 1_555
H36 N20 1.017878 1_555
H37 N21 1.017878 1_555
H38 N22 1.017878 1_555
H39 N23 1.017878 1_555
H40 N16 1.016437 1_555
H41 N17 1.016437 1_555
H42 N18 1.016437 1_555
H43 N19 1.016437 1_555
H44 N20 1.016437 1_555
H45 N21 1.016437 1_555
H46 N22 1.016437 1_555
H47 N23 1.016437 1_555
C0 N16 1.336402 1_545
C0 N8 1.337505 1_555
C0 N0 1.340207 1_555
C1 N17 1.336402 1_555
C1 N9 1.337505 1_555
C1 N1 1.340207 1_555
C2 N18 1.336402 1_555
C2 N10 1.337505 1_555
C2 N2 1.340207 1_555
C3 N19 1.336402 1_565
C3 N11 1.337505 1_555
C3 N3 1.340207 1_555
C4 N20 1.336402 1_565
C4 N12 1.337505 1_555
C4 N4 1.340207 1_555
C5 N21 1.336402 1_555
C5 N13 1.337505 1_555
C5 N5 1.340207 1_555
C6 N22 1.336402 1_555
C6 N14 1.337505 1_555
C6 N6 1.340207 1_555
C7 N23 1.336402 1_545
C7 N15 1.337505 1_555
C7 N7 1.340207 1_555
Cl0 Sn0 2.613178 1_555
Cl1 Sn1 2.613178 1_555
Cl2 Sn2 2.613178 1_555
Cl3 Sn3 2.613178 1_555
Cl4 Sn4 2.613178 1_555
Cl5 Sn5 2.613178 1_555
Cl6 Sn6 2.613178 1_555
Cl7 Sn7 2.613178 1_555
Cl8 Sn0 2.510672 1_555
Cl9 Sn1 2.510672 1_555
Cl10 Sn2 2.510672 1_555
Cl11 Sn3 2.510672 1_555
Cl12 Sn4 2.510672 1_555
Cl13 Sn5 2.510672 1_555
Cl14 Sn6 2.510672 1_555
Cl15 Sn7 2.510672 1_555
Cl16 Sn0 2.576868 1_555
Cl17 Sn1 2.576868 1_555
Cl18 Sn2 2.576868 1_555
Cl19 Sn3 2.576868 1_555
Cl20 Sn4 2.576868 1_555
Cl21 Sn5 2.576868 1_555
Cl22 Sn6 2.576868 1_555
Cl23 Sn7 2.576868 1_555
