# generated using pymatgen
data_Li2Ti3MnO8
_symmetry_space_group_name_H-M   'P 1'
_cell_length_a   6.03479405
_cell_length_b   17.04561675
_cell_length_c   6.01481461
_cell_angle_alpha   89.99949572
_cell_angle_beta   89.99994713
_cell_angle_gamma   89.69008858
_symmetry_Int_Tables_number   1
_chemical_formula_structural   Li2Ti3MnO8
_chemical_formula_sum   'Li8 Ti12 Mn4 O32'
_cell_volume   618.71559938
_cell_formula_units_Z   4
loop_
 _symmetry_equiv_pos_site_id
 _symmetry_equiv_pos_as_xyz
  1  'x, y, z'
loop_
 _atom_site_type_symbol
 _atom_site_label
 _atom_site_symmetry_multiplicity
 _atom_site_fract_x
 _atom_site_fract_y
 _atom_site_fract_z
 _atom_site_occupancy
  Li  Li0  1  0.23760400  0.55950400  0.00000100  1
  Li  Li1  1  0.73761500  0.80949500  0.49999900  1
  Li  Li2  1  0.23759100  0.05949600  0.00000000  1
  Li  Li3  1  0.73761100  0.30950900  0.50000000  1
  Li  Li4  1  0.00211300  0.75060500  0.99999800  1
  Li  Li5  1  0.50209800  0.00060000  0.49999900  1
  Li  Li6  1  0.00211600  0.25060600  0.99999700  1
  Li  Li7  1  0.50212200  0.50060400  0.49999900  1
  Ti  Ti0  1  0.50509300  0.74943800  0.99999700  1
  Ti  Ti1  1  0.00512800  0.99942800  0.50000200  1
  Ti  Ti2  1  0.50511800  0.24943200  0.99999900  1
  Ti  Ti3  1  0.00506900  0.49942100  0.50000600  1
  Ti  Ti4  1  0.75123300  0.62633800  0.24617700  1
  Ti  Ti5  1  0.25128500  0.87633200  0.74619000  1
  Ti  Ti6  1  0.75127500  0.12633900  0.24618700  1
  Ti  Ti7  1  0.25122700  0.37634900  0.74619700  1
  Ti  Ti8  1  0.75124600  0.62633400  0.75382400  1
  Ti  Ti9  1  0.25129700  0.87633300  0.25381300  1
  Ti  Ti10  1  0.75125900  0.12634100  0.75379600  1
  Ti  Ti11  1  0.25122200  0.37634700  0.25382700  1
  Mn  Mn0  1  0.76354200  0.94104100  0.99998900  1
  Mn  Mn1  1  0.26317300  0.19106300  0.49996100  1
  Mn  Mn2  1  0.76308300  0.44094400  0.00002600  1
  Mn  Mn3  1  0.26330200  0.69092200  0.50014100  1
  O  O0  1  0.52060300  0.62988900  0.99999200  1
  O  O1  1  0.02056400  0.87988900  0.50000000  1
  O  O2  1  0.52056600  0.12988900  0.99999600  1
  O  O3  1  0.02061000  0.37988500  0.49999900  1
  O  O4  1  0.48059500  0.87049600  0.99999600  1
  O  O5  1  0.98059900  0.12049800  0.49999900  1
  O  O6  1  0.48053900  0.37048000  0.00000100  1
  O  O7  1  0.98052500  0.62047900  0.50000100  1
  O  O8  1  0.72872900  0.73904800  0.22899900  1
  O  O9  1  0.22871200  0.98904900  0.72901300  1
  O  O10  1  0.72871500  0.23905300  0.22902000  1
  O  O11  1  0.22872500  0.48904900  0.72900000  1
  O  O12  1  0.72872800  0.73904700  0.77099400  1
  O  O13  1  0.22871100  0.98905100  0.27098100  1
  O  O14  1  0.72871800  0.23905200  0.77098100  1
  O  O15  1  0.22872200  0.48904900  0.27099600  1
  O  O16  1  0.95728800  0.62507700  0.99999000  1
  O  O17  1  0.45730100  0.87507700  0.49999800  1
  O  O18  1  0.95730500  0.12507000  0.99999900  1
  O  O19  1  0.45730800  0.37507000  0.49999900  1
  O  O20  1  0.04092900  0.87255400  0.99999700  1
  O  O21  1  0.54091500  0.12255700  0.49999800  1
  O  O22  1  0.04089200  0.37256800  0.00000000  1
  O  O23  1  0.54087700  0.62255000  0.49991700  1
  O  O24  1  0.26629200  0.76033500  0.22473600  1
  O  O25  1  0.76629600  0.01034800  0.72468800  1
  O  O26  1  0.26629700  0.26035400  0.22462200  1
  O  O27  1  0.76631400  0.51033600  0.72472700  1
  O  O28  1  0.26629700  0.76033400  0.77525900  1
  O  O29  1  0.76629600  0.01034800  0.27530500  1
  O  O30  1  0.26629700  0.26035400  0.77537800  1
  O  O31  1  0.76631700  0.51033900  0.27529600  1
loop_
_geom_bond_atom_site_label_1
_geom_bond_atom_site_label_2
_geom_bond_distance
_geom_bond_site_symmetry_2
Li0 O16 2.022510 1_454
Li0 O15 2.025503 1_555
Li0 O11 2.025549 1_554
Li0 O0 2.092439 1_554
Li1 O17 2.022584 1_555
Li1 O12 2.025433 1_555
Li1 O8 2.025464 1_555
Li1 O1 2.092280 1_655
Li2 O18 2.022369 1_454
Li2 O13 2.025334 1_545
Li2 O9 2.025400 1_544
Li2 O2 2.092399 1_554
Li3 O19 2.022333 1_555
Li3 O14 2.025458 1_555
Li3 O10 2.025460 1_555
Li3 O3 2.092350 1_655
Li4 O20 2.093111 1_555
Li4 O24 2.097453 1_556
Li4 O28 2.097474 1_555
Li4 O16 2.158185 1_455
Li4 O8 2.159036 1_456
Li4 O12 2.159057 1_455
Li5 O21 2.093248 1_555
Li5 O25 2.097375 1_555
Li5 O29 2.097391 1_555
Li5 O17 2.158078 1_545
Li5 O9 2.159085 1_545
Li5 O13 2.159106 1_545
Li6 O22 2.093303 1_556
Li6 O30 2.097022 1_555
Li6 O26 2.097049 1_556
Li6 O18 2.158309 1_455
Li6 O14 2.159157 1_455
Li6 O10 2.159192 1_456
Li7 O23 2.093018 1_555
Li7 O31 2.097394 1_555
Li7 O27 2.097476 1_555
Li7 O19 2.158278 1_555
Li7 O11 2.159092 1_555
Li7 O15 2.159118 1_555
Mn0 O25 2.034224 1_565
Mn0 O29 2.034314 1_566
Mn0 O20 2.035651 1_655
Mn0 O4 2.093759 1_555
Mn1 O26 2.034278 1_555
Mn1 O30 2.034677 1_555
Mn1 O21 2.037591 1_555
Mn1 O5 2.092114 1_455
Mn2 O31 2.034996 1_555
Mn2 O27 2.035091 1_554
Mn2 O22 2.036663 1_655
Mn2 O6 2.090969 1_555
Mn3 O28 2.034403 1_555
Mn3 O23 2.035467 1_555
Mn3 O24 2.035800 1_555
Mn3 O7 2.091913 1_455
O0 Ti8 2.032839 1_555
O0 Ti4 2.032859 1_556
O0 Ti0 2.039429 1_555
O1 Ti5 2.033260 1_555
O1 Ti9 2.033295 1_555
O1 Ti1 2.039241 1_555
O2 Ti10 2.033183 1_555
O2 Ti6 2.033211 1_556
O2 Ti2 2.039312 1_555
O3 Ti11 2.032721 1_555
O3 Ti7 2.032856 1_555
O3 Ti3 2.039215 1_555
O4 Ti5 2.062502 1_555
O4 Ti9 2.062502 1_556
O4 Ti0 2.068000 1_555
O5 Ti10 2.062588 1_555
O5 Ti6 2.062589 1_555
O5 Ti1 2.068216 1_645
O6 Ti7 2.062526 1_554
O6 Ti11 2.062642 1_555
O6 Ti2 2.067862 1_554
O7 Ti8 2.062466 1_555
O7 Ti4 2.062526 1_555
O7 Ti3 2.068018 1_655
O8 Ti4 1.928042 1_555
O8 Ti0 1.935829 1_554
O9 Ti5 1.928188 1_555
O9 Ti1 1.935633 1_555
O10 Ti6 1.928129 1_555
O10 Ti2 1.935730 1_554
O11 Ti7 1.927878 1_555
O11 Ti3 1.935852 1_555
O12 Ti8 1.928098 1_555
O12 Ti0 1.935831 1_555
O13 Ti9 1.928209 1_555
O13 Ti1 1.935669 1_555
O14 Ti10 1.928078 1_555
O14 Ti2 1.935732 1_555
O15 Ti11 1.927904 1_555
O15 Ti3 1.935909 1_555
O16 Ti8 1.933539 1_555
O16 Ti4 1.933685 1_556
O17 Ti9 1.933479 1_555
O17 Ti5 1.933556 1_555
O18 Ti6 1.933594 1_556
O18 Ti10 1.933727 1_555
O19 Ti11 1.933740 1_555
O19 Ti7 1.933839 1_555
O20 Ti5 1.986720 1_555
O20 Ti9 1.986811 1_556
O21 Ti10 1.986638 1_555
O21 Ti6 1.986756 1_555
O22 Ti7 1.986622 1_554
O22 Ti11 1.986715 1_555
O23 Ti4 1.986416 1_555
O23 Ti8 1.987239 1_555
O24 Ti0 1.983856 1_554
O24 Ti9 1.986553 1_555
O25 Ti1 1.983809 1_645
O25 Ti10 1.986495 1_555
O26 Ti2 1.983506 1_554
O26 Ti11 1.986556 1_555
O27 Ti3 1.983608 1_655
O27 Ti8 1.986582 1_555
O28 Ti0 1.983828 1_555
O28 Ti5 1.986550 1_555
O29 Ti1 1.983854 1_645
O29 Ti6 1.986459 1_555
O30 Ti2 1.983498 1_555
O30 Ti7 1.986573 1_555
O31 Ti3 1.983554 1_655
O31 Ti4 1.986611 1_555
