# generated using pymatgen
data_BaPr
_symmetry_space_group_name_H-M   'P 1'
_cell_length_a   8.00757412
_cell_length_b   8.00747340
_cell_length_c   13.15829625
_cell_angle_alpha   90.01905317
_cell_angle_beta   89.98081415
_cell_angle_gamma   120.00654473
_symmetry_Int_Tables_number   1
_chemical_formula_structural   BaPr
_chemical_formula_sum   'Ba8 Pr8'
_cell_volume   730.63098521
_cell_formula_units_Z   8
loop_
 _symmetry_equiv_pos_site_id
 _symmetry_equiv_pos_as_xyz
  1  'x, y, z'
loop_
 _atom_site_type_symbol
 _atom_site_label
 _atom_site_symmetry_multiplicity
 _atom_site_fract_x
 _atom_site_fract_y
 _atom_site_fract_z
 _atom_site_occupancy
  Ba  Ba0_0  1  0.33333850  0.16666250  0.37499850  1
  Ba  Ba0_1  1  0.33333850  0.16666250  0.87499850  1
  Ba  Ba0_2  1  0.33333850  0.66666250  0.37499850  1
  Ba  Ba0_3  1  0.33333850  0.66666250  0.87499850  1
  Ba  Ba0_4  1  0.83333850  0.16666250  0.37499850  1
  Ba  Ba0_5  1  0.83333850  0.16666250  0.87499850  1
  Ba  Ba0_6  1  0.83333850  0.66666250  0.37499850  1
  Ba  Ba0_7  1  0.83333850  0.66666250  0.87499850  1
  Pr  Pr0_0  1  0.16666050  0.33333650  0.12500100  1
  Pr  Pr0_1  1  0.16666050  0.33333650  0.62500100  1
  Pr  Pr0_2  1  0.16666050  0.83333650  0.12500100  1
  Pr  Pr0_3  1  0.16666050  0.83333650  0.62500100  1
  Pr  Pr0_4  1  0.66666050  0.33333650  0.12500100  1
  Pr  Pr0_5  1  0.66666050  0.33333650  0.62500100  1
  Pr  Pr0_6  1  0.66666050  0.83333650  0.12500100  1
  Pr  Pr0_7  1  0.66666050  0.83333650  0.62500100  1
loop_
_geom_bond_atom_site_label_1
_geom_bond_atom_site_label_2
_geom_bond_distance
_geom_bond_site_symmetry_2
Ba0_0 Ba0_6 4.003366 1_445
Ba0_0 Ba0_6 4.003366 1_555
Ba0_0 Ba0_2 4.003737 1_555
Ba0_0 Ba0_2 4.003737 1_545
Ba0_0 Ba0_4 4.003787 1_555
Ba0_0 Ba0_4 4.003787 1_455
Ba0_0 Pr0_1 4.019947 1_555
Ba0_0 Pr0_4 4.020011 1_555
Ba0_0 Pr0_2 4.020018 1_545
Ba0_0 Pr0_3 4.020793 1_545
Ba0_0 Pr0_5 4.020801 1_555
Ba0_0 Pr0_0 4.021351 1_555
Ba0_1 Ba0_7 4.003366 1_445
Ba0_1 Ba0_7 4.003366 1_555
Ba0_1 Ba0_3 4.003737 1_555
Ba0_1 Ba0_3 4.003737 1_545
Ba0_1 Ba0_5 4.003787 1_555
Ba0_1 Ba0_5 4.003787 1_455
Ba0_1 Pr0_0 4.019947 1_556
Ba0_1 Pr0_5 4.020011 1_555
Ba0_1 Pr0_3 4.020018 1_545
Ba0_1 Pr0_2 4.020793 1_546
Ba0_1 Pr0_4 4.020801 1_556
Ba0_1 Pr0_1 4.021351 1_555
Ba0_2 Ba0_4 4.003366 1_565
Ba0_2 Ba0_4 4.003366 1_455
Ba0_2 Ba0_6 4.003787 1_555
Ba0_2 Ba0_6 4.003787 1_455
Ba0_2 Pr0_3 4.019947 1_555
Ba0_2 Pr0_6 4.020011 1_555
Ba0_2 Pr0_0 4.020018 1_555
Ba0_2 Pr0_1 4.020793 1_555
Ba0_2 Pr0_7 4.020801 1_555
Ba0_2 Pr0_2 4.021351 1_555
Ba0_3 Ba0_5 4.003366 1_565
Ba0_3 Ba0_5 4.003366 1_455
Ba0_3 Ba0_7 4.003787 1_455
Ba0_3 Ba0_7 4.003787 1_555
Ba0_3 Pr0_2 4.019947 1_556
Ba0_3 Pr0_7 4.020011 1_555
Ba0_3 Pr0_1 4.020018 1_555
Ba0_3 Pr0_0 4.020793 1_556
Ba0_3 Pr0_6 4.020801 1_556
Ba0_3 Pr0_3 4.021351 1_555
Ba0_4 Ba0_6 4.003737 1_545
Ba0_4 Ba0_6 4.003737 1_555
Ba0_4 Pr0_5 4.019947 1_555
Ba0_4 Pr0_0 4.020011 1_655
Ba0_4 Pr0_6 4.020018 1_545
Ba0_4 Pr0_7 4.020793 1_545
Ba0_4 Pr0_1 4.020801 1_655
Ba0_4 Pr0_4 4.021351 1_555
Ba0_5 Ba0_7 4.003737 1_555
Ba0_5 Ba0_7 4.003737 1_545
Ba0_5 Pr0_4 4.019947 1_556
Ba0_5 Pr0_1 4.020011 1_655
Ba0_5 Pr0_7 4.020018 1_545
Ba0_5 Pr0_6 4.020793 1_546
Ba0_5 Pr0_0 4.020801 1_656
Ba0_5 Pr0_5 4.021351 1_555
Ba0_6 Pr0_7 4.019947 1_555
Ba0_6 Pr0_2 4.020011 1_655
Ba0_6 Pr0_4 4.020018 1_555
Ba0_6 Pr0_5 4.020793 1_555
Ba0_6 Pr0_3 4.020801 1_655
Ba0_6 Pr0_6 4.021351 1_555
Ba0_7 Pr0_6 4.019947 1_556
Ba0_7 Pr0_3 4.020011 1_655
Ba0_7 Pr0_5 4.020018 1_555
Ba0_7 Pr0_4 4.020793 1_556
Ba0_7 Pr0_2 4.020801 1_656
Ba0_7 Pr0_7 4.021351 1_555
Pr0_0 Pr0_6 4.003366 1_445
Pr0_0 Pr0_6 4.003366 1_555
Pr0_0 Pr0_2 4.003737 1_555
Pr0_0 Pr0_2 4.003737 1_545
Pr0_0 Pr0_4 4.003787 1_555
Pr0_0 Pr0_4 4.003787 1_455
Pr0_1 Pr0_7 4.003366 1_555
Pr0_1 Pr0_7 4.003366 1_445
Pr0_1 Pr0_3 4.003737 1_555
Pr0_1 Pr0_3 4.003737 1_545
Pr0_1 Pr0_5 4.003787 1_555
Pr0_1 Pr0_5 4.003787 1_455
Pr0_2 Pr0_4 4.003366 1_565
Pr0_2 Pr0_4 4.003366 1_455
Pr0_2 Pr0_6 4.003787 1_555
Pr0_2 Pr0_6 4.003787 1_455
Pr0_3 Pr0_5 4.003366 1_565
Pr0_3 Pr0_5 4.003366 1_455
Pr0_3 Pr0_7 4.003787 1_555
Pr0_3 Pr0_7 4.003787 1_455
Pr0_4 Pr0_6 4.003737 1_555
Pr0_4 Pr0_6 4.003737 1_545
Pr0_5 Pr0_7 4.003737 1_555
Pr0_5 Pr0_7 4.003737 1_545
