# generated using pymatgen
data_PrGaPd
_symmetry_space_group_name_H-M   'P 1'
_cell_length_a   4.58771751
_cell_length_b   7.26584873
_cell_length_c   7.63290211
_cell_angle_alpha   90.00000000
_cell_angle_beta   90.00000000
_cell_angle_gamma   90.00000000
_symmetry_Int_Tables_number   1
_chemical_formula_structural   PrGaPd
_chemical_formula_sum   'Pr4 Ga4 Pd4'
_cell_volume   254.43257477
_cell_formula_units_Z   4
loop_
 _symmetry_equiv_pos_site_id
 _symmetry_equiv_pos_as_xyz
  1  'x, y, z'
loop_
 _atom_site_type_symbol
 _atom_site_label
 _atom_site_symmetry_multiplicity
 _atom_site_fract_x
 _atom_site_fract_y
 _atom_site_fract_z
 _atom_site_occupancy
  Pr  Pr0  1  0.25000000  0.02300088  0.69579652  1
  Pr  Pr1  1  0.25000000  0.52300088  0.80420348  1
  Pr  Pr2  1  0.75000000  0.97699912  0.30420348  1
  Pr  Pr3  1  0.75000000  0.47699912  0.19579652  1
  Ga  Ga0  1  0.25000000  0.17216051  0.07903894  1
  Ga  Ga1  1  0.25000000  0.67216051  0.42096106  1
  Ga  Ga2  1  0.75000000  0.82783949  0.92096106  1
  Ga  Ga3  1  0.75000000  0.32783949  0.57903894  1
  Pd  Pd0  1  0.25000000  0.29381652  0.40579811  1
  Pd  Pd1  1  0.25000000  0.79381652  0.09420189  1
  Pd  Pd2  1  0.75000000  0.70618348  0.59420189  1
  Pd  Pd3  1  0.75000000  0.20618348  0.90579811  1
loop_
_geom_bond_atom_site_label_1
_geom_bond_atom_site_label_2
_geom_bond_distance
_geom_bond_site_symmetry_2
Ga0 Pd0 2.646125 1_555
Ga0 Pd3 2.659221 1_454
Ga0 Pd3 2.659221 1_554
Ga0 Pd1 2.751425 1_545
Ga0 Pr0 3.119561 1_554
Ga0 Pr2 3.197865 1_545
Ga0 Pr2 3.197865 1_445
Ga0 Pr1 3.301350 1_554
Ga0 Pr3 3.310869 1_455
Ga0 Pr3 3.310869 1_555
Ga1 Pd1 2.646125 1_555
Ga1 Pd2 2.659221 1_455
Ga1 Pd2 2.659221 1_555
Ga1 Pd0 2.751425 1_555
Ga1 Pr1 3.119561 1_555
Ga1 Pr3 3.197865 1_455
Ga1 Pr3 3.197865 1_555
Ga1 Pr0 3.301350 1_565
Ga1 Pr2 3.310869 1_555
Ga1 Pr2 3.310869 1_455
Ga2 Pd2 2.646125 1_555
Ga2 Pd1 2.659221 1_556
Ga2 Pd1 2.659221 1_656
Ga2 Pd3 2.751425 1_565
Ga2 Pr2 3.119561 1_556
Ga2 Pr0 3.197865 1_565
Ga2 Pr0 3.197865 1_665
Ga2 Pr3 3.301350 1_556
Ga2 Pr1 3.310869 1_555
Ga2 Pr1 3.310869 1_655
Ga3 Pd3 2.646125 1_555
Ga3 Pd0 2.659221 1_555
Ga3 Pd0 2.659221 1_655
Ga3 Pd2 2.751425 1_555
Ga3 Pr3 3.119561 1_555
Ga3 Pr1 3.197865 1_555
Ga3 Pr1 3.197865 1_655
Ga3 Pr2 3.301350 1_545
Ga3 Pr0 3.310869 1_555
Ga3 Pr0 3.310869 1_655
Pd0 Pr0 2.961685 1_555
Pd0 Pr3 3.098814 1_455
Pd0 Pr3 3.098814 1_555
Pd0 Pr2 3.340971 1_445
Pd0 Pr2 3.340971 1_545
Pd0 Pr1 3.467069 1_555
Pd1 Pr1 2.961685 1_554
Pd1 Pr2 3.098814 1_455
Pd1 Pr2 3.098814 1_555
Pd1 Pr3 3.340971 1_455
Pd1 Pr3 3.340971 1_555
Pd1 Pr0 3.467069 1_564
Pd2 Pr2 2.961685 1_555
Pd2 Pr1 3.098814 1_655
Pd2 Pr1 3.098814 1_555
Pd2 Pr0 3.340971 1_565
Pd2 Pr0 3.340971 1_665
Pd2 Pr3 3.467069 1_555
Pd3 Pr3 2.961685 1_556
Pd3 Pr0 3.098814 1_555
Pd3 Pr0 3.098814 1_655
Pd3 Pr1 3.340971 1_655
Pd3 Pr1 3.340971 1_555
Pd3 Pr2 3.467069 1_546
