# generated using pymatgen
data_PrAg2
_symmetry_space_group_name_H-M   'P 1'
_cell_length_a   4.79842994
_cell_length_b   5.96577253
_cell_length_c   5.96573040
_cell_angle_alpha   74.48430197
_cell_angle_beta   66.14464818
_cell_angle_gamma   66.14409461
_symmetry_Int_Tables_number   1
_chemical_formula_structural   PrAg2
_chemical_formula_sum   'Pr2 Ag4'
_cell_volume   141.73655140
_cell_formula_units_Z   2
loop_
 _symmetry_equiv_pos_site_id
 _symmetry_equiv_pos_as_xyz
  1  'x, y, z'
loop_
 _atom_site_type_symbol
 _atom_site_label
 _atom_site_symmetry_multiplicity
 _atom_site_fract_x
 _atom_site_fract_y
 _atom_site_fract_z
 _atom_site_occupancy
  Pr  Pr0  1  0.53850394  0.71231642  0.21231642  1
  Pr  Pr1  1  0.46149606  0.28768358  0.78768358  1
  Ag  Ag0  1  0.16495344  0.29120697  0.37815200  1
  Ag  Ag1  1  0.83504556  0.70879303  0.62184800  1
  Ag  Ag2  1  0.83504656  0.12184800  0.20879203  1
  Ag  Ag3  1  0.16495344  0.87815300  0.79120697  1
loop_
_geom_bond_atom_site_label_1
_geom_bond_atom_site_label_2
_geom_bond_distance
_geom_bond_site_symmetry_2
Pr0 Pr1 3.662662 1_555
Pr0 Pr1 3.662666 1_564
Ag0 Ag2 2.769661 1_555
Ag0 Ag2 2.771504 1_455
Ag0 Ag1 2.777044 1_455
Ag0 Ag3 2.982570 1_545
Ag0 Pr1 3.224101 1_554
Ag0 Pr1 3.274565 1_455
Ag0 Pr1 3.279405 1_555
Ag0 Pr0 3.360557 1_455
Ag0 Pr0 3.373630 1_555
Ag0 Pr0 3.391891 1_545
Ag1 Ag3 2.769657 1_555
Ag1 Ag3 2.771508 1_655
Ag1 Ag2 2.982577 1_565
Ag1 Pr0 3.224101 1_556
Ag1 Pr0 3.274568 1_655
Ag1 Pr0 3.279402 1_555
Ag1 Pr1 3.360561 1_655
Ag1 Pr1 3.373627 1_555
Ag1 Pr1 3.391891 1_565
Ag2 Ag3 2.777032 1_644
Ag2 Pr0 3.224111 1_555
Ag2 Pr0 3.274549 1_645
Ag2 Pr0 3.279428 1_545
Ag2 Pr1 3.360581 1_654
Ag2 Pr1 3.373592 1_554
Ag2 Pr1 3.391888 1_555
Ag3 Pr1 3.224116 1_555
Ag3 Pr1 3.274546 1_465
Ag3 Pr1 3.279425 1_565
Ag3 Pr0 3.360585 1_456
Ag3 Pr0 3.373596 1_556
Ag3 Pr0 3.391885 1_555
