# generated using pymatgen
data_Na3MoF6
_symmetry_space_group_name_H-M   'P 1'
_cell_length_a   6.00908700
_cell_length_b   6.00908725
_cell_length_c   6.00908726
_cell_angle_alpha   59.99999729
_cell_angle_beta   59.99999592
_cell_angle_gamma   59.99999589
_symmetry_Int_Tables_number   1
_chemical_formula_structural   Na3MoF6
_chemical_formula_sum   'Na3 Mo1 F6'
_cell_volume   153.43006847
_cell_formula_units_Z   1
loop_
 _symmetry_equiv_pos_site_id
 _symmetry_equiv_pos_as_xyz
  1  'x, y, z'
loop_
 _atom_site_type_symbol
 _atom_site_label
 _atom_site_symmetry_multiplicity
 _atom_site_fract_x
 _atom_site_fract_y
 _atom_site_fract_z
 _atom_site_occupancy
  Na  Na0  1  0.25000000  0.25000000  0.25000000  1
  Na  Na1  1  0.75000000  0.75000000  0.75000000  1
  Na  Na2  1  0.50000000  0.50000000  0.50000000  1
  Mo  Mo0  1  0.00000000  0.00000000  0.00000000  1
  F  F0  1  0.24231400  0.75768600  0.24231400  1
  F  F1  1  0.75768600  0.75768600  0.24231400  1
  F  F2  1  0.75768600  0.24231400  0.75768600  1
  F  F3  1  0.75768600  0.24231400  0.24231400  1
  F  F4  1  0.24231400  0.75768600  0.75768600  1
  F  F5  1  0.24231400  0.24231400  0.75768600  1
loop_
_geom_bond_atom_site_label_1
_geom_bond_atom_site_label_2
_geom_bond_distance
_geom_bond_site_symmetry_2
F0 Mo0 2.059216 1_565
F0 Na2 2.189850 1_555
F0 Na1 3.005253 1_554
F0 Na1 3.005253 1_455
F0 Na0 3.005254 1_555
F0 Na0 3.005254 1_565
F1 Mo0 2.059216 1_665
F1 Na2 2.189850 1_555
F1 Na0 3.005253 1_565
F1 Na0 3.005253 1_655
F1 Na1 3.005254 1_555
F1 Na1 3.005254 1_554
F2 Mo0 2.059216 1_656
F2 Na2 2.189850 1_555
F2 Na0 3.005253 1_556
F2 Na0 3.005253 1_655
F2 Na1 3.005254 1_555
F2 Na1 3.005254 1_545
F3 Mo0 2.059216 1_655
F3 Na2 2.189850 1_555
F3 Na0 3.005253 1_555
F3 Na1 3.005253 1_554
F3 Na1 3.005253 1_545
F3 Na0 3.005253 1_655
F4 Mo0 2.059216 1_566
F4 Na2 2.189850 1_555
F4 Na1 3.005253 1_555
F4 Na0 3.005253 1_556
F4 Na0 3.005253 1_565
F4 Na1 3.005253 1_455
F5 Mo0 2.059216 1_556
F5 Na2 2.189850 1_555
F5 Na1 3.005253 1_545
F5 Na1 3.005253 1_455
F5 Na0 3.005254 1_555
F5 Na0 3.005254 1_556
