# generated using pymatgen
data_KRbMg6
_symmetry_space_group_name_H-M   'P 1'
_cell_length_a   5.45848800
_cell_length_b   7.46733900
_cell_length_c   12.37449600
_cell_angle_alpha   90.00000000
_cell_angle_beta   90.00000000
_cell_angle_gamma   90.00000000
_symmetry_Int_Tables_number   1
_chemical_formula_structural   KRbMg6
_chemical_formula_sum   'K2 Rb2 Mg12'
_cell_volume   504.38916327
_cell_formula_units_Z   2
loop_
 _symmetry_equiv_pos_site_id
 _symmetry_equiv_pos_as_xyz
  1  'x, y, z'
loop_
 _atom_site_type_symbol
 _atom_site_label
 _atom_site_symmetry_multiplicity
 _atom_site_fract_x
 _atom_site_fract_y
 _atom_site_fract_z
 _atom_site_occupancy
  K  K0  1  0.00000000  0.50000000  0.33261400  1
  K  K1  1  0.00000000  0.00000000  0.83261400  1
  Rb  Rb0  1  0.50000000  0.50000000  0.17105200  1
  Rb  Rb1  1  0.50000000  0.00000000  0.67105200  1
  Mg  Mg0  1  0.00000000  0.78524600  0.07543200  1
  Mg  Mg1  1  0.00000000  0.21475400  0.07543200  1
  Mg  Mg2  1  0.00000000  0.50000000  0.83333400  1
  Mg  Mg3  1  0.50000000  0.71913500  0.92356000  1
  Mg  Mg4  1  0.50000000  0.28086500  0.92356000  1
  Mg  Mg5  1  0.50000000  0.50000000  0.66501700  1
  Mg  Mg6  1  0.00000000  0.28524600  0.57543200  1
  Mg  Mg7  1  0.00000000  0.71475400  0.57543200  1
  Mg  Mg8  1  0.00000000  0.00000000  0.33333400  1
  Mg  Mg9  1  0.50000000  0.21913500  0.42356000  1
  Mg  Mg10  1  0.50000000  0.78086500  0.42356000  1
  Mg  Mg11  1  0.50000000  0.00000000  0.16501700  1
loop_
_geom_bond_atom_site_label_1
_geom_bond_atom_site_label_2
_geom_bond_distance
_geom_bond_site_symmetry_2
K0 Rb0 3.383159 1_455
K0 Rb0 3.383159 1_555
K0 Mg7 3.405905 1_555
K0 Mg6 3.405905 1_555
K0 Mg10 3.621333 1_555
K0 Mg10 3.621333 1_455
K0 Mg9 3.621333 1_455
K0 Mg9 3.621333 1_555
K0 Mg8 3.733680 1_565
K0 Mg8 3.733680 1_555
K0 Mg0 3.829532 1_555
K0 Mg1 3.829532 1_555
K1 Rb1 3.383159 1_555
K1 Rb1 3.383159 1_455
K1 Mg0 3.405905 1_546
K1 Mg1 3.405905 1_556
K1 Mg3 3.621333 1_545
K1 Mg3 3.621333 1_445
K1 Mg4 3.621333 1_555
K1 Mg4 3.621333 1_455
K1 Mg2 3.733680 1_555
K1 Mg2 3.733680 1_545
K1 Mg6 3.829532 1_555
K1 Mg7 3.829532 1_545
Mg0 Mg1 3.207282 1_565
Mg0 Mg3 3.350284 1_554
Mg0 Mg3 3.350284 1_454
Mg0 Mg11 3.354007 1_565
Mg0 Mg11 3.354007 1_465
Mg0 Mg8 3.571659 1_565
Mg0 Rb0 3.658671 1_455
Mg0 Rb0 3.658671 1_555
Mg1 Mg4 3.350284 1_554
Mg1 Mg4 3.350284 1_454
Mg1 Mg11 3.354007 1_455
Mg1 Mg11 3.354007 1_555
Mg1 Mg8 3.571659 1_555
Mg1 Rb0 3.658671 1_455
Mg1 Rb0 3.658671 1_555
Mg2 Mg3 3.372389 1_455
Mg2 Mg3 3.372389 1_555
Mg2 Mg4 3.372389 1_455
Mg2 Mg4 3.372389 1_555
Mg2 Mg5 3.433218 1_555
Mg2 Mg5 3.433218 1_455
Mg2 Mg7 3.571659 1_555
Mg2 Mg6 3.571659 1_555
Mg3 Mg4 3.272711 1_555
Mg3 Rb0 3.472335 1_556
Mg3 Rb1 3.763273 1_565
Mg4 Rb0 3.472335 1_556
Mg4 Rb1 3.763273 1_555
Mg5 Mg7 3.354007 1_655
Mg5 Mg6 3.354007 1_555
Mg5 Mg6 3.354007 1_655
Mg5 Mg7 3.354007 1_555
Mg5 Rb1 3.734416 1_565
Mg5 Rb1 3.734416 1_555
Mg6 Mg7 3.207282 1_555
Mg6 Mg9 3.350284 1_455
Mg6 Mg9 3.350284 1_555
Mg6 Rb1 3.658671 1_555
Mg6 Rb1 3.658671 1_455
Mg7 Rb1 3.658671 1_465
Mg7 Rb1 3.658671 1_565
Mg8 Mg9 3.372389 1_455
Mg8 Mg9 3.372389 1_555
Mg9 Rb1 3.472335 1_555
Mg9 Rb0 3.763273 1_555
Mg10 Mg9 3.272711 1_565
Mg10 Mg7 3.350284 1_555
Mg10 Mg7 3.350284 1_655
Mg10 Mg8 3.372389 1_565
Mg10 Mg8 3.372389 1_665
Mg10 Rb1 3.472335 1_565
Mg10 Rb0 3.763273 1_555
Mg11 Mg8 3.433218 1_655
Mg11 Mg8 3.433218 1_555
Mg11 Rb0 3.734416 1_545
Mg11 Rb0 3.734416 1_555
