# generated using pymatgen
data_Ca(FeS2)2
_symmetry_space_group_name_H-M   'P 1'
_cell_length_a   7.02426913
_cell_length_b   7.02426913
_cell_length_c   7.02426913
_cell_angle_alpha   121.65683425
_cell_angle_beta   117.76852563
_cell_angle_gamma   90.53107325
_symmetry_Int_Tables_number   1
_chemical_formula_structural   Ca(FeS2)2
_chemical_formula_sum   'Ca2 Fe4 S8'
_cell_volume   245.77156641
_cell_formula_units_Z   2
loop_
 _symmetry_equiv_pos_site_id
 _symmetry_equiv_pos_as_xyz
  1  'x, y, z'
loop_
 _atom_site_type_symbol
 _atom_site_label
 _atom_site_symmetry_multiplicity
 _atom_site_fract_x
 _atom_site_fract_y
 _atom_site_fract_z
 _atom_site_occupancy
  Ca  Ca0  1  0.00000000  0.00000000  0.00000000  1
  Ca  Ca1  1  0.50000000  0.00000000  0.50000000  1
  Fe  Fe0  1  0.50000000  0.50000000  0.50000000  1
  Fe  Fe1  1  0.00000000  0.50000000  0.50000000  1
  Fe  Fe2  1  0.50000000  0.00000000  0.00000000  1
  Fe  Fe3  1  0.50000000  0.50000000  0.00000000  1
  S  S0  1  0.69349500  0.72821300  0.96528200  1
  S  S1  1  0.26339900  0.30495000  0.54155100  1
  S  S2  1  0.26293000  0.72821300  0.53471800  1
  S  S3  1  0.73660100  0.27815200  0.04155100  1
  S  S4  1  0.73707000  0.27178700  0.46528200  1
  S  S5  1  0.73660100  0.69505000  0.45844900  1
  S  S6  1  0.26339900  0.72184800  0.95844900  1
  S  S7  1  0.30650500  0.27178700  0.03471800  1
loop_
_geom_bond_atom_site_label_1
_geom_bond_atom_site_label_2
_geom_bond_distance
_geom_bond_site_symmetry_2
Ca0 S7 2.699135 1_555
Ca0 S0 2.699135 1_444
Ca0 S5 2.701367 1_444
Ca0 S1 2.701367 1_555
Ca0 S3 2.701367 1_455
Ca0 S6 2.701367 1_544
Ca1 S2 2.699139 1_545
Ca1 S4 2.699139 1_555
Ca1 S3 2.701367 1_556
Ca1 S5 2.701367 1_545
Ca1 S6 2.701367 1_544
Ca1 S1 2.701367 1_555
Fe0 S7 2.328032 1_555
Fe0 S0 2.328032 1_555
Fe0 S2 2.328038 1_555
Fe0 S4 2.328038 1_555
Fe0 S5 2.356672 1_555
Fe0 S1 2.356672 1_555
Fe1 S4 2.270523 1_455
Fe1 S2 2.270523 1_555
Fe1 S3 2.312802 1_455
Fe1 S6 2.312802 1_555
Fe1 S1 2.312802 1_555
Fe1 S5 2.312802 1_455
Fe2 S0 2.328032 1_544
Fe2 S7 2.328032 1_555
Fe2 S2 2.328033 1_544
Fe2 S4 2.328033 1_555
Fe2 S3 2.356672 1_555
Fe2 S6 2.356672 1_544
Fe3 S0 2.270528 1_554
Fe3 S7 2.270528 1_555
Fe3 S6 2.312802 1_554
Fe3 S5 2.312802 1_555
Fe3 S3 2.312802 1_555
Fe3 S1 2.312802 1_554
