# generated using pymatgen
data_DyVB4
_symmetry_space_group_name_H-M   'P 1'
_cell_length_a   3.43663256
_cell_length_b   6.00002414
_cell_length_c   11.61535189
_cell_angle_alpha   90.00000000
_cell_angle_beta   90.00000000
_cell_angle_gamma   90.00000000
_symmetry_Int_Tables_number   1
_chemical_formula_structural   DyVB4
_chemical_formula_sum   'Dy4 V4 B16'
_cell_volume   239.50714262
_cell_formula_units_Z   4
loop_
 _symmetry_equiv_pos_site_id
 _symmetry_equiv_pos_as_xyz
  1  'x, y, z'
loop_
 _atom_site_type_symbol
 _atom_site_label
 _atom_site_symmetry_multiplicity
 _atom_site_fract_x
 _atom_site_fract_y
 _atom_site_fract_z
 _atom_site_occupancy
  Dy  Dy0  1  -0.00000000  0.62429488  0.34852186  1
  Dy  Dy1  1  0.00000000  0.37570512  0.65147814  1
  Dy  Dy2  1  0.00000000  0.12429488  0.15147814  1
  Dy  Dy3  1  0.00000000  0.87570512  0.84852186  1
  V  V0  1  -0.00000000  0.62715166  0.08291044  1
  V  V1  1  -0.00000000  0.37284834  0.91708956  1
  V  V2  1  -0.00000000  0.12715166  0.41708956  1
  V  V3  1  0.00000000  0.87284834  0.58291044  1
  B  B0  1  0.50000000  0.78605467  0.18543690  1
  B  B1  1  0.50000000  0.21394533  0.81456310  1
  B  B2  1  0.50000000  0.28605467  0.31456310  1
  B  B3  1  0.50000000  0.71394533  0.68543690  1
  B  B4  1  0.50000000  0.86377734  0.03242935  1
  B  B5  1  0.50000000  0.13622266  0.96757065  1
  B  B6  1  0.50000000  0.36377734  0.46757065  1
  B  B7  1  0.50000000  0.63622266  0.53242935  1
  B  B8  1  0.50000000  0.88534098  0.45256203  1
  B  B9  1  0.50000000  0.11465902  0.54743797  1
  B  B10  1  0.50000000  0.38534098  0.04743797  1
  B  B11  1  0.50000000  0.61465902  0.95256203  1
  B  B12  1  0.50000000  0.97697546  0.30803285  1
  B  B13  1  0.50000000  0.02302454  0.69196715  1
  B  B14  1  0.50000000  0.47697546  0.19196715  1
  B  B15  1  0.50000000  0.52302454  0.80803285  1
loop_
_geom_bond_atom_site_label_1
_geom_bond_atom_site_label_2
_geom_bond_distance
_geom_bond_site_symmetry_2
B0 B12 1.827567 1_555
B0 B4 1.837401 1_555
B0 B14 1.856033 1_555
B0 V0 2.297786 1_555
B0 V0 2.297786 1_655
B0 Dy2 2.688282 1_565
B0 Dy2 2.688282 1_665
B0 Dy0 2.735495 1_555
B0 Dy0 2.735495 1_655
B1 B13 1.827567 1_555
B1 B5 1.837401 1_555
B1 B15 1.856033 1_555
B1 V1 2.297786 1_555
B1 V1 2.297786 1_655
B1 Dy3 2.688282 1_545
B1 Dy3 2.688282 1_645
B1 Dy1 2.735495 1_655
B1 Dy1 2.735495 1_555
B2 B6 1.837401 1_555
B2 V2 2.297786 1_655
B2 V2 2.297786 1_555
B2 Dy0 2.688282 1_655
B2 Dy0 2.688282 1_555
B2 Dy2 2.735495 1_655
B2 Dy2 2.735495 1_555
B3 B7 1.837401 1_555
B3 V3 2.297786 1_555
B3 V3 2.297786 1_655
B3 Dy1 2.688282 1_555
B3 Dy1 2.688282 1_655
B3 Dy3 2.735495 1_555
B3 Dy3 2.735495 1_655
B4 B5 1.799922 1_564
B4 V0 2.304808 1_555
B4 V0 2.304808 1_655
B4 Dy2 2.703340 1_565
B4 Dy2 2.703340 1_665
B4 Dy3 2.742421 1_554
B4 Dy3 2.742421 1_654
B5 V1 2.304808 1_555
B5 V1 2.304808 1_655
B5 Dy3 2.703340 1_545
B5 Dy3 2.703340 1_645
B5 Dy2 2.742421 1_556
B5 Dy2 2.742421 1_656
B6 B9 1.759198 1_555
B6 B7 1.799922 1_555
B6 V2 2.304808 1_555
B6 V2 2.304808 1_655
B6 Dy0 2.703340 1_655
B6 Dy0 2.703340 1_555
B6 Dy1 2.742421 1_655
B6 Dy1 2.742421 1_555
B7 B8 1.759198 1_555
B7 V3 2.304808 1_655
B7 V3 2.304808 1_555
B7 Dy1 2.703340 1_555
B7 Dy1 2.703340 1_655
B7 Dy0 2.742421 1_655
B7 Dy0 2.742421 1_555
B8 B9 1.762833 1_565
B8 V2 2.286351 1_665
B8 V2 2.286351 1_565
B8 V3 2.291409 1_555
B8 V3 2.291409 1_655
B8 Dy0 2.620350 1_655
B8 Dy0 2.620350 1_555
B9 V3 2.286351 1_545
B9 V3 2.286351 1_645
B9 V2 2.291409 1_655
B9 V2 2.291409 1_555
B9 Dy1 2.620350 1_555
B9 Dy1 2.620350 1_655
B10 B5 1.759198 1_554
B10 B11 1.762833 1_554
B10 B14 1.766498 1_555
B10 V0 2.286351 1_555
B10 V0 2.286351 1_655
B10 V1 2.291409 1_654
B10 V1 2.291409 1_554
B10 Dy2 2.620350 1_555
B10 Dy2 2.620350 1_655
B11 B4 1.759198 1_556
B11 B15 1.766498 1_555
B11 V1 2.286351 1_655
B11 V1 2.286351 1_555
B11 V0 2.291409 1_656
B11 V0 2.291409 1_556
B11 Dy3 2.620350 1_555
B11 Dy3 2.620350 1_655
B12 B8 1.766498 1_555
B12 B2 1.856033 1_565
B12 V2 2.317139 1_665
B12 V2 2.317139 1_565
B12 Dy2 2.653421 1_665
B12 Dy2 2.653421 1_565
B12 Dy0 2.766158 1_655
B12 Dy0 2.766158 1_555
B13 B9 1.766498 1_555
B13 B3 1.856033 1_545
B13 V3 2.317139 1_545
B13 V3 2.317139 1_645
B13 Dy3 2.653421 1_545
B13 Dy3 2.653421 1_645
B13 Dy1 2.766158 1_655
B13 Dy1 2.766158 1_555
B14 B2 1.827567 1_555
B14 V0 2.317139 1_555
B14 V0 2.317139 1_655
B14 Dy0 2.653421 1_655
B14 Dy0 2.653421 1_555
B14 Dy2 2.766158 1_555
B14 Dy2 2.766158 1_655
B15 B3 1.827567 1_555
B15 V1 2.317139 1_555
B15 V1 2.317139 1_655
B15 Dy1 2.653421 1_555
B15 Dy1 2.653421 1_655
B15 Dy3 2.766158 1_555
B15 Dy3 2.766158 1_655
