# generated using pymatgen
data_Li3Co2O5
_symmetry_space_group_name_H-M   'P 1'
_cell_length_a   4.95142700
_cell_length_b   5.02580814
_cell_length_c   7.56259108
_cell_angle_alpha   71.79910587
_cell_angle_beta   72.19121182
_cell_angle_gamma   79.81802241
_symmetry_Int_Tables_number   1
_chemical_formula_structural   Li3Co2O5
_chemical_formula_sum   'Li6 Co4 O10'
_cell_volume   169.52382992
_cell_formula_units_Z   2
loop_
 _symmetry_equiv_pos_site_id
 _symmetry_equiv_pos_as_xyz
  1  'x, y, z'
loop_
 _atom_site_type_symbol
 _atom_site_label
 _atom_site_symmetry_multiplicity
 _atom_site_fract_x
 _atom_site_fract_y
 _atom_site_fract_z
 _atom_site_occupancy
  Li  Li0  1  0.21093400  0.50090700  0.59678900  1
  Li  Li1  1  0.39752500  0.49304400  0.20512300  1
  Li  Li2  1  0.78906600  0.49909300  0.40321100  1
  Li  Li3  1  0.00000000  0.50000000  0.00000000  1
  Li  Li4  1  0.60247500  0.50695600  0.79487700  1
  Li  Li5  1  0.50000000  0.00000000  0.50000000  1
  Co  Co0  1  0.90062500  0.00158600  0.69417900  1
  Co  Co1  1  0.09937500  0.99841400  0.30582100  1
  Co  Co2  1  0.30493100  0.00239600  0.89066700  1
  Co  Co3  1  0.69506900  0.99760400  0.10933300  1
  O  O0  1  0.96418500  0.21894500  0.84212800  1
  O  O1  1  0.12733300  0.21699000  0.45467600  1
  O  O2  1  0.57324800  0.23588400  0.65969800  1
  O  O3  1  0.77171300  0.22536200  0.24166600  1
  O  O4  1  0.34708800  0.21441700  0.06664200  1
  O  O5  1  0.42675200  0.76411600  0.34030200  1
  O  O6  1  0.65291200  0.78558300  0.93335800  1
  O  O7  1  0.03581500  0.78105500  0.15787200  1
  O  O8  1  0.22828700  0.77463800  0.75833400  1
  O  O9  1  0.87266700  0.78301000  0.54532400  1
loop_
_geom_bond_atom_site_label_1
_geom_bond_atom_site_label_2
_geom_bond_distance
_geom_bond_site_symmetry_2
Li0 O9 2.044846 1_455
Li0 O5 2.069600 1_555
Li0 O2 2.121362 1_555
Li0 O0 2.127524 1_455
Li0 O8 2.132716 1_555
Li0 O1 2.191226 1_555
Li1 O5 1.988040 1_555
Li1 O4 2.078419 1_555
Li1 O3 2.125721 1_555
Li1 O7 2.140636 1_555
Li1 O1 2.180037 1_555
Li1 O6 2.272582 1_554
Li2 O1 2.044846 1_655
Li2 O2 2.069600 1_555
Li2 O5 2.121362 1_555
Li2 O7 2.127524 1_655
Li2 O3 2.132716 1_555
Li2 O9 2.191226 1_555
Li3 O3 2.057943 1_455
Li3 O8 2.057943 1_554
Li3 O6 2.115041 1_454
Li3 O4 2.115041 1_555
Li3 O0 2.173413 1_454
Li3 O7 2.173413 1_555
Li4 O2 1.988040 1_555
Li4 O6 2.078419 1_555
Li4 O8 2.125721 1_555
Li4 O0 2.140636 1_555
Li4 O9 2.180037 1_555
Li4 O4 2.272582 1_556
Li5 O1 2.038034 1_555
Li5 O9 2.038034 1_545
Li5 O5 2.076043 1_545
Li5 O2 2.076043 1_555
Li5 O8 2.111483 1_545
Li5 O3 2.111483 1_555
Co0 O9 1.847916 1_545
Co0 O2 1.863885 1_555
Co0 O0 1.909127 1_555
Co0 O8 1.910513 1_645
Co0 O1 1.916706 1_655
Co0 O6 1.960028 1_545
Co1 O1 1.847916 1_565
Co1 O5 1.863885 1_555
Co1 O7 1.909127 1_555
Co1 O3 1.910513 1_465
Co1 O9 1.916706 1_455
Co1 O4 1.960028 1_565
Co2 O8 1.886099 1_545
Co2 O0 1.909413 1_455
Co2 O6 1.927963 1_545
Co2 O2 2.011061 1_555
Co2 O4 2.021032 1_556
Co2 O7 2.137581 1_546
Co3 O3 1.886099 1_565
Co3 O7 1.909413 1_655
Co3 O4 1.927963 1_565
Co3 O5 2.011061 1_555
Co3 O6 2.021032 1_554
Co3 O0 2.137581 1_564
