# generated using pymatgen
data_BaSrNdMnO6
_symmetry_space_group_name_H-M   'P 1'
_cell_length_a   8.46677748
_cell_length_b   8.44986790
_cell_length_c   8.46337861
_cell_angle_alpha   90.00000000
_cell_angle_beta   90.00000000
_cell_angle_gamma   90.00000000
_symmetry_Int_Tables_number   1
_chemical_formula_structural   BaSrNdMnO6
_chemical_formula_sum   'Ba4 Sr4 Nd4 Mn4 O24'
_cell_volume   605.49677594
_cell_formula_units_Z   4
loop_
 _symmetry_equiv_pos_site_id
 _symmetry_equiv_pos_as_xyz
  1  'x, y, z'
loop_
 _atom_site_type_symbol
 _atom_site_label
 _atom_site_symmetry_multiplicity
 _atom_site_fract_x
 _atom_site_fract_y
 _atom_site_fract_z
 _atom_site_occupancy
  Ba  Ba0  1  0.00000000  -0.00000000  0.00000000  1
  Ba  Ba1  1  0.50000000  0.50000000  0.50000000  1
  Ba  Ba2  1  0.00000000  0.50000000  0.00000000  1
  Ba  Ba3  1  0.00000000  -0.00000000  0.50000000  1
  Sr  Sr0  1  0.00000000  0.50000000  0.50000000  1
  Sr  Sr1  1  0.50000000  -0.00000000  0.50000000  1
  Sr  Sr2  1  0.50000000  0.50000000  0.00000000  1
  Sr  Sr3  1  0.50000000  -0.00000000  0.00000000  1
  Nd  Nd0  1  0.25241966  0.25011233  0.25136352  1
  Nd  Nd1  1  0.74758034  0.74988767  0.25136352  1
  Nd  Nd2  1  0.74758034  0.25011233  0.74863648  1
  Nd  Nd3  1  0.25241966  0.74988767  0.74863648  1
  Mn  Mn0  1  0.74811367  0.74996363  0.74962792  1
  Mn  Mn1  1  0.25188633  0.25003637  0.74962792  1
  Mn  Mn2  1  0.25188633  0.74996363  0.25037208  1
  Mn  Mn3  1  0.74811367  0.25003637  0.25037208  1
  O  O0  1  0.97722733  0.23209322  0.26948382  1
  O  O1  1  0.02277267  0.76790678  0.26948382  1
  O  O2  1  0.02277267  0.23209322  0.73051618  1
  O  O3  1  0.97722733  0.76790678  0.73051618  1
  O  O4  1  0.27665950  0.97781589  0.22508906  1
  O  O5  1  0.27665950  0.02218411  0.77491094  1
  O  O6  1  0.72334050  0.02218411  0.22508906  1
  O  O7  1  0.72334050  0.97781589  0.77491094  1
  O  O8  1  0.23289087  0.27002685  0.97698471  1
  O  O9  1  0.76710913  0.27002685  0.02301529  1
  O  O10  1  0.23289087  0.72997315  0.02301529  1
  O  O11  1  0.76710913  0.72997315  0.97698471  1
  O  O12  1  0.52233486  0.27710034  0.22155820  1
  O  O13  1  0.47766514  0.72289966  0.22155820  1
  O  O14  1  0.47766514  0.27710034  0.77844180  1
  O  O15  1  0.52233486  0.72289966  0.77844180  1
  O  O16  1  0.22551314  0.52201065  0.27794288  1
  O  O17  1  0.22551314  0.47798935  0.72205712  1
  O  O18  1  0.77448686  0.47798935  0.27794288  1
  O  O19  1  0.77448686  0.52201065  0.72205712  1
  O  O20  1  0.27943766  0.22315386  0.52240560  1
  O  O21  1  0.72056234  0.22315386  0.47759440  1
  O  O22  1  0.27943766  0.77684614  0.47759440  1
  O  O23  1  0.72056234  0.77684614  0.52240560  1
loop_
_geom_bond_atom_site_label_1
_geom_bond_atom_site_label_2
_geom_bond_distance
_geom_bond_site_symmetry_2
Ba0 O1 3.014151 1_545
Ba0 O0 3.014151 1_455
Ba0 O2 3.014151 1_554
Ba0 O3 3.014151 1_444
Ba0 O9 3.021951 1_455
Ba0 O11 3.021951 1_444
Ba0 O10 3.021951 1_545
Ba0 O8 3.021951 1_554
Ba0 O7 3.025082 1_444
Ba0 O6 3.025082 1_455
Ba0 O5 3.025082 1_554
Ba0 O4 3.025082 1_545
Ba1 O17 2.994599 1_555
Ba1 O18 2.994599 1_555
Ba1 O19 2.994599 1_555
Ba1 O16 2.994599 1_555
Ba1 O23 2.999287 1_555
Ba1 O21 2.999287 1_555
Ba1 O22 2.999287 1_555
Ba1 O20 2.999287 1_555
Ba1 O14 3.022680 1_555
Ba1 O12 3.022680 1_555
Ba1 O15 3.022680 1_555
Ba1 O13 3.022680 1_555
Ba2 O9 2.775296 1_455
Ba2 O10 2.775296 1_555
Ba2 O11 2.775296 1_454
Ba2 O8 2.775296 1_554
Ba2 O19 3.035419 1_454
Ba2 O16 3.035419 1_555
Ba2 O17 3.035419 1_554
Ba2 O18 3.035419 1_455
Ba2 O0 3.219263 1_455
Ba2 O1 3.219263 1_555
Ba2 O2 3.219263 1_554
Ba2 O3 3.219263 1_454
Ba3 O2 2.772995 1_555
Ba3 O1 2.772995 1_545
Ba3 O3 2.772995 1_445
Ba3 O0 2.772995 1_455
Ba3 O21 3.031366 1_455
Ba3 O23 3.031366 1_445
Ba3 O20 3.031366 1_555
Ba3 O22 3.031366 1_545
Ba3 O6 3.306881 1_455
Ba3 O7 3.306881 1_445
Ba3 O4 3.306881 1_545
Ba3 O5 3.306881 1_555
Nd0 O12 2.310473 1_555
Nd0 O20 2.316537 1_555
Nd0 O16 2.319705 1_555
Nd0 O4 2.320683 1_545
Nd0 O8 2.334125 1_554
Nd0 O0 2.339993 1_455
Nd1 O13 2.310473 1_555
Nd1 O23 2.316537 1_555
Nd1 O18 2.319705 1_555
Nd1 O6 2.320683 1_565
Nd1 O11 2.334125 1_554
Nd1 O1 2.339993 1_655
Nd2 O14 2.310473 1_555
Nd2 O21 2.316537 1_555
Nd2 O19 2.319705 1_555
Nd2 O7 2.320683 1_545
Nd2 O9 2.334125 1_556
Nd2 O2 2.339993 1_655
Nd3 O15 2.310473 1_555
Nd3 O22 2.316537 1_555
Nd3 O17 2.319705 1_555
Nd3 O5 2.320683 1_565
Nd3 O10 2.334125 1_556
Nd3 O3 2.339993 1_455
Mn0 O11 1.938291 1_555
Mn0 O15 1.940632 1_555
Mn0 O7 1.948498 1_555
Mn0 O23 1.950438 1_555
Mn0 O3 1.952482 1_555
Mn0 O19 1.953062 1_555
Mn1 O8 1.938291 1_555
Mn1 O14 1.940632 1_555
Mn1 O5 1.948498 1_555
Mn1 O20 1.950438 1_555
Mn1 O2 1.952482 1_555
Mn1 O17 1.953062 1_555
Mn2 O10 1.938291 1_555
Mn2 O13 1.940632 1_555
Mn2 O4 1.948498 1_555
Mn2 O22 1.950438 1_555
Mn2 O1 1.952482 1_555
Mn2 O16 1.953062 1_555
Mn3 O9 1.938291 1_555
Mn3 O12 1.940632 1_555
Mn3 O6 1.948498 1_555
Mn3 O21 1.950438 1_555
Mn3 O0 1.952482 1_555
Mn3 O18 1.953062 1_555
O0 Sr0 2.994670 1_655
O1 Sr0 2.994670 1_555
O2 Sr0 2.994670 1_555
O3 Sr0 2.994670 1_655
O4 Sr3 2.690725 1_565
O4 Sr1 3.004054 1_565
O5 Sr3 2.690725 1_556
O5 Sr1 3.004054 1_555
O6 Sr3 2.690725 1_555
O6 Sr1 3.004054 1_555
O7 Sr3 2.690725 1_566
O7 Sr1 3.004054 1_565
O8 Sr2 2.988103 1_556
O8 Sr3 3.218491 1_556
O9 Sr2 2.988103 1_555
O9 Sr3 3.218491 1_555
O10 Sr2 2.988103 1_555
O10 Sr3 3.218491 1_565
O11 Sr2 2.988103 1_556
O11 Sr3 3.218491 1_566
O12 Sr2 2.664460 1_555
O12 Sr3 3.005714 1_555
O13 Sr2 2.664460 1_555
O13 Sr3 3.005714 1_565
O14 Sr2 2.664460 1_556
O14 Sr3 3.005714 1_556
O15 Sr2 2.664460 1_556
O15 Sr3 3.005714 1_566
O16 Sr0 2.685564 1_555
O17 Sr0 2.685564 1_555
O18 Sr0 2.685564 1_655
O19 Sr0 2.685564 1_655
O20 Sr1 2.660621 1_555
O21 Sr1 2.660621 1_555
O22 Sr1 2.660621 1_565
O23 Sr1 2.660621 1_565
