# generated using pymatgen
data_Be3Si3(WO6)2
_symmetry_space_group_name_H-M   'P 1'
_cell_length_a   7.80628000
_cell_length_b   8.17886500
_cell_length_c   16.32184061
_cell_angle_alpha   59.90187179
_cell_angle_beta   90.00000000
_cell_angle_gamma   90.00000000
_symmetry_Int_Tables_number   1
_chemical_formula_structural   Be3Si3(WO6)2
_chemical_formula_sum   'Be12 Si12 W8 O48'
_cell_volume   901.58493545
_cell_formula_units_Z   4
loop_
 _symmetry_equiv_pos_site_id
 _symmetry_equiv_pos_as_xyz
  1  'x, y, z'
loop_
 _atom_site_type_symbol
 _atom_site_label
 _atom_site_symmetry_multiplicity
 _atom_site_fract_x
 _atom_site_fract_y
 _atom_site_fract_z
 _atom_site_occupancy
  Be  Be0  1  0.64566300  0.67154000  0.26129500  1
  Be  Be1  1  0.85172200  0.01867900  0.90043700  1
  Be  Be2  1  0.35172200  0.98132100  0.59956300  1
  Be  Be3  1  0.14827800  0.98132100  0.09956300  1
  Be  Be4  1  0.64827800  0.01867900  0.40043700  1
  Be  Be5  1  0.35437100  0.69875000  0.91205900  1
  Be  Be6  1  0.85437100  0.30125000  0.58794100  1
  Be  Be7  1  0.64562900  0.30125000  0.08794100  1
  Be  Be8  1  0.14562900  0.69875000  0.41205900  1
  Be  Be9  1  0.85433700  0.67154000  0.76129500  1
  Be  Be10  1  0.35433700  0.32846000  0.73870500  1
  Be  Be11  1  0.14566300  0.32846000  0.23870500  1
  Si  Si0  1  0.26663500  0.66674900  0.26467500  1
  Si  Si1  1  0.76663500  0.33325100  0.23532500  1
  Si  Si2  1  0.73336500  0.33325100  0.73532500  1
  Si  Si3  1  0.23336500  0.66674900  0.76467500  1
  Si  Si4  1  0.77049700  0.69437600  0.41655700  1
  Si  Si5  1  0.27049700  0.30562400  0.08344300  1
  Si  Si6  1  0.22950300  0.30562400  0.58344300  1
  Si  Si7  1  0.72950300  0.69437600  0.91655700  1
  Si  Si8  1  0.26681000  0.03000800  0.40233500  1
  Si  Si9  1  0.76681000  0.96999200  0.09766500  1
  Si  Si10  1  0.73319000  0.96999200  0.59766500  1
  Si  Si11  1  0.23319000  0.03000800  0.90233500  1
  W  W0  1  0.04744700  0.65946600  0.58900200  1
  W  W1  1  0.45255300  0.65946600  0.08900200  1
  W  W2  1  0.95255300  0.34053400  0.41099800  1
  W  W3  1  0.54744700  0.34053400  0.91099800  1
  W  W4  1  0.94645400  0.32546900  0.92340400  1
  W  W5  1  0.44645400  0.67453100  0.57659600  1
  W  W6  1  0.05354600  0.67453100  0.07659600  1
  W  W7  1  0.55354600  0.32546900  0.42340400  1
  O  O0  1  0.36777200  0.21337100  0.54037500  1
  O  O1  1  0.45665700  0.59263800  0.31314500  1
  O  O2  1  0.95665700  0.40736200  0.18685500  1
  O  O3  1  0.54334300  0.40736200  0.68685500  1
  O  O4  1  0.04334300  0.59263800  0.81314500  1
  O  O5  1  0.95941300  0.72412200  0.45195700  1
  O  O6  1  0.45941300  0.27587800  0.04804300  1
  O  O7  1  0.04058700  0.27587800  0.54804300  1
  O  O8  1  0.54058700  0.72412200  0.95195700  1
  O  O9  1  0.46064300  0.12026100  0.39012200  1
  O  O10  1  0.96064300  0.87973900  0.10987800  1
  O  O11  1  0.53935700  0.87973900  0.60987800  1
  O  O12  1  0.36694900  0.21356200  0.85525600  1
  O  O13  1  0.86694900  0.78643800  0.64474400  1
  O  O14  1  0.63305100  0.78643800  0.14474400  1
  O  O15  1  0.13305100  0.21356200  0.35525600  1
  O  O16  1  0.86777200  0.78662900  0.95962500  1
  O  O17  1  0.03935700  0.12026100  0.89012200  1
  O  O18  1  0.13222800  0.21337100  0.04037500  1
  O  O19  1  0.63222800  0.78662900  0.45962500  1
  O  O20  1  0.74302500  0.09864700  0.97730200  1
  O  O21  1  0.87091800  0.41814400  0.64554900  1
  O  O22  1  0.62908200  0.41814400  0.14554900  1
  O  O23  1  0.12908200  0.58185600  0.35445100  1
  O  O24  1  0.75868500  0.11401900  0.31108100  1
  O  O25  1  0.25868500  0.88598100  0.18891900  1
  O  O26  1  0.24131500  0.88598100  0.68891900  1
  O  O27  1  0.74131500  0.11401900  0.81108100  1
  O  O28  1  0.75531300  0.75909700  0.30746100  1
  O  O29  1  0.25531300  0.24090300  0.19253900  1
  O  O30  1  0.24468700  0.24090300  0.69253900  1
  O  O31  1  0.74468700  0.75909700  0.80746100  1
  O  O32  1  0.25323900  0.87941600  0.36827400  1
  O  O33  1  0.75323900  0.12058400  0.13172600  1
  O  O34  1  0.74676100  0.12058400  0.63172600  1
  O  O35  1  0.24676100  0.87941600  0.86827400  1
  O  O36  1  0.73836200  0.44223100  0.30061200  1
  O  O37  1  0.23836200  0.55776900  0.19938800  1
  O  O38  1  0.26163800  0.55776900  0.69938800  1
  O  O39  1  0.76163800  0.44223100  0.80061200  1
  O  O40  1  0.75254600  0.45362800  0.47304500  1
  O  O41  1  0.25254600  0.54637200  0.02695500  1
  O  O42  1  0.24745400  0.54637200  0.52695500  1
  O  O43  1  0.74745400  0.45362800  0.97304500  1
  O  O44  1  0.75697500  0.09864700  0.47730200  1
  O  O45  1  0.25697500  0.90135300  0.02269800  1
  O  O46  1  0.24302500  0.90135300  0.52269800  1
  O  O47  1  0.37091800  0.58185600  0.85445100  1
loop_
_geom_bond_atom_site_label_1
_geom_bond_atom_site_label_2
_geom_bond_distance
_geom_bond_site_symmetry_2
Be0 O28 1.534430 1_555
Be0 O14 1.648836 1_555
Be0 O1 1.661867 1_555
Be0 O36 1.801609 1_555
Be1 O27 1.528828 1_555
Be1 O16 1.646842 1_545
Be1 O17 1.650382 1_655
Be1 O20 1.882742 1_555
Be2 O26 1.528828 1_555
Be2 O0 1.646842 1_565
Be2 O11 1.650382 1_555
Be2 O46 1.882742 1_555
Be3 O25 1.528828 1_555
Be3 O18 1.646842 1_565
Be3 O10 1.650382 1_455
Be3 O45 1.882742 1_555
Be4 O24 1.528828 1_555
Be4 O19 1.646842 1_545
Be4 O9 1.650382 1_555
Be4 O44 1.882742 1_555
Be5 O35 1.529928 1_555
Be5 O8 1.647963 1_555
Be5 O47 1.648169 1_555
Be5 O41 1.832415 1_556
Be6 O34 1.529928 1_555
Be6 O7 1.647963 1_655
Be6 O21 1.648169 1_555
Be6 O40 1.832415 1_555
Be7 O33 1.529928 1_555
Be7 O6 1.647963 1_555
Be7 O22 1.648169 1_555
Be7 O43 1.832415 1_554
Be8 O32 1.529928 1_555
Be8 O5 1.647963 1_455
Be8 O23 1.648169 1_555
Be8 O42 1.832415 1_555
Be9 O31 1.534430 1_555
Be9 O13 1.648836 1_555
Be9 O4 1.661867 1_655
Be9 O39 1.801609 1_555
Be10 O30 1.534430 1_555
Be10 O12 1.648836 1_555
Be10 O3 1.661867 1_555
Be10 O38 1.801609 1_555
Be11 O29 1.534430 1_555
Be11 O15 1.648836 1_555
Be11 O2 1.661867 1_455
Be11 O37 1.801609 1_555
O0 Si6 1.661458 1_555
O0 W7 2.198422 1_555
O1 Si0 1.647027 1_555
O1 W7 2.154403 1_555
O2 Si1 1.647027 1_555
O2 W6 2.154403 1_655
O3 Si2 1.647027 1_555
O3 W5 2.154403 1_555
O4 Si3 1.647027 1_555
O4 W4 2.154403 1_455
O5 Si4 1.645860 1_555
O5 W0 2.137507 1_655
O6 Si5 1.645860 1_555
O6 W3 2.137507 1_554
O7 Si6 1.645860 1_555
O7 W2 2.137507 1_455
O8 Si7 1.645860 1_555
O8 W1 2.137507 1_556
O9 Si8 1.651230 1_555
O9 W7 2.133635 1_555
O10 Si9 1.651230 1_555
O10 W6 2.133635 1_655
O11 Si10 1.651230 1_555
O11 W5 2.133635 1_555
O12 Si11 1.666586 1_555
O12 W3 2.199812 1_555
O13 Si10 1.666586 1_555
O13 W0 2.199812 1_655
O14 Si9 1.666586 1_555
O14 W1 2.199812 1_555
O15 Si8 1.666586 1_555
O15 W2 2.199812 1_455
O16 Si7 1.661458 1_555
O16 W6 2.198422 1_656
O17 Si11 1.651230 1_555
O17 W4 2.133635 1_455
O18 Si5 1.661458 1_555
O18 W4 2.198422 1_454
O19 Si4 1.661458 1_555
O19 W5 2.198422 1_555
O20 Si9 1.711088 1_546
O20 W4 2.258417 1_555
O20 W3 2.295357 1_555
O21 Si2 1.661866 1_555
O21 W0 2.195314 1_655
O22 Si1 1.661866 1_555
O22 W1 2.195314 1_555
O23 Si0 1.661866 1_555
O23 W2 2.195314 1_455
O24 Si1 1.588761 1_555
O25 Si0 1.588761 1_555
O26 Si3 1.588761 1_555
O27 Si2 1.588761 1_555
O28 Si4 1.587322 1_555
O29 Si5 1.587322 1_555
O30 Si6 1.587322 1_555
O31 Si7 1.587322 1_555
O32 Si8 1.588732 1_565
O33 Si9 1.588732 1_545
O34 Si10 1.588732 1_545
O35 Si11 1.588732 1_565
O36 Si1 1.712110 1_555
O36 W7 2.256233 1_555
O36 W2 2.287057 1_555
O37 Si0 1.712110 1_555
O37 W6 2.256233 1_555
O37 W1 2.287057 1_555
O38 Si3 1.712110 1_555
O38 W5 2.256233 1_555
O38 W0 2.287057 1_555
O39 Si2 1.712110 1_555
O39 W4 2.256233 1_555
O39 W3 2.287057 1_555
O40 Si4 1.710561 1_555
O40 W7 2.240579 1_555
O40 W2 2.293122 1_555
O41 Si5 1.710561 1_555
O41 W6 2.240579 1_555
O41 W1 2.293122 1_555
O42 Si6 1.710561 1_555
O42 W5 2.240579 1_555
O42 W0 2.293122 1_555
O43 Si7 1.710561 1_555
O43 W4 2.240579 1_555
O43 W3 2.293122 1_555
O44 Si10 1.711088 1_545
O44 W7 2.258417 1_555
O44 W2 2.295357 1_555
O45 Si11 1.711088 1_564
O45 W6 2.258417 1_555
O45 W1 2.295357 1_555
O46 Si8 1.711088 1_565
O46 W5 2.258417 1_555
O46 W0 2.295357 1_555
O47 Si3 1.661866 1_555
O47 W3 2.195314 1_555
