# generated using pymatgen
data_CeNd4Zr3O14
_symmetry_space_group_name_H-M   'P 1'
_cell_length_a   7.67118630
_cell_length_b   7.67118630
_cell_length_c   7.67118626
_cell_angle_alpha   60.45853903
_cell_angle_beta   60.45853903
_cell_angle_gamma   60.45853632
_symmetry_Int_Tables_number   1
_chemical_formula_structural   CeNd4Zr3O14
_chemical_formula_sum   'Ce1 Nd4 Zr3 O14'
_cell_volume   322.51594474
_cell_formula_units_Z   1
loop_
 _symmetry_equiv_pos_site_id
 _symmetry_equiv_pos_as_xyz
  1  'x, y, z'
loop_
 _atom_site_type_symbol
 _atom_site_label
 _atom_site_symmetry_multiplicity
 _atom_site_fract_x
 _atom_site_fract_y
 _atom_site_fract_z
 _atom_site_occupancy
  Ce  Ce0  1  0.00000000  0.00000000  0.00000000  1
  Nd  Nd0  1  0.50000000  0.50000000  0.50000000  1
  Nd  Nd1  1  0.00000000  0.50000000  0.50000000  1
  Nd  Nd2  1  0.50000000  0.50000000  0.00000000  1
  Nd  Nd3  1  0.50000000  0.00000000  0.50000000  1
  Zr  Zr0  1  0.50000000  0.00000000  0.00000000  1
  Zr  Zr1  1  0.00000000  0.00000000  0.50000000  1
  Zr  Zr2  1  0.00000000  0.50000000  0.00000000  1
  O  O0  1  0.62371400  0.62371400  0.62371400  1
  O  O1  1  0.37628600  0.37628600  0.37628600  1
  O  O2  1  0.91284200  0.32953100  0.32953100  1
  O  O3  1  0.35312500  0.90338800  0.90338800  1
  O  O4  1  0.32953100  0.32953100  0.91284200  1
  O  O5  1  0.90338800  0.90338800  0.35312500  1
  O  O6  1  0.90338800  0.35312500  0.90338800  1
  O  O7  1  0.32953100  0.91284200  0.32953100  1
  O  O8  1  0.08715800  0.67046900  0.67046900  1
  O  O9  1  0.64687500  0.09661200  0.09661200  1
  O  O10  1  0.67046900  0.67046900  0.08715800  1
  O  O11  1  0.09661200  0.09661200  0.64687500  1
  O  O12  1  0.09661200  0.64687500  0.09661200  1
  O  O13  1  0.67046900  0.08715800  0.67046900  1
loop_
_geom_bond_atom_site_label_1
_geom_bond_atom_site_label_2
_geom_bond_distance
_geom_bond_site_symmetry_2
Ce0 O6 2.240262 1_454
Ce0 O3 2.240262 1_544
Ce0 O12 2.240262 1_545
Ce0 O9 2.240262 1_455
Ce0 O11 2.240262 1_554
Ce0 O5 2.240262 1_445
Nd0 O0 2.316559 1_555
Nd0 O1 2.316559 1_555
Nd0 O8 2.639778 1_555
Nd0 O13 2.639778 1_555
Nd0 O7 2.639778 1_555
Nd0 O2 2.639778 1_555
Nd0 O10 2.639778 1_555
Nd0 O4 2.639778 1_555
Nd1 O0 2.370431 1_455
Nd1 O1 2.370431 1_555
Nd1 O5 2.553084 1_455
Nd1 O11 2.553084 1_555
Nd1 O6 2.553084 1_455
Nd1 O12 2.553084 1_555
Nd1 O8 2.697755 1_555
Nd1 O2 2.697755 1_455
Nd2 O1 2.370432 1_555
Nd2 O0 2.370432 1_554
Nd2 O9 2.553084 1_555
Nd2 O6 2.553084 1_554
Nd2 O12 2.553084 1_555
Nd2 O3 2.553084 1_554
Nd2 O4 2.697755 1_554
Nd2 O10 2.697755 1_555
Nd3 O1 2.370431 1_555
Nd3 O0 2.370431 1_545
Nd3 O5 2.553084 1_545
Nd3 O11 2.553084 1_555
Nd3 O3 2.553084 1_545
Nd3 O9 2.553084 1_555
Nd3 O7 2.697755 1_545
Nd3 O13 2.697755 1_555
O2 Zr1 2.117325 1_655
O2 Zr2 2.117325 1_655
O3 Zr0 2.134599 1_566
O4 Zr0 2.117325 1_556
O4 Zr2 2.117325 1_556
O5 Zr1 2.134599 1_665
O6 Zr2 2.134599 1_656
O7 Zr1 2.117325 1_565
O7 Zr0 2.117325 1_565
O8 Zr1 2.117325 1_565
O8 Zr2 2.117325 1_556
O9 Zr0 2.134599 1_555
O10 Zr0 2.117325 1_565
O10 Zr2 2.117325 1_655
O11 Zr1 2.134599 1_555
O12 Zr2 2.134599 1_555
O13 Zr1 2.117325 1_655
O13 Zr0 2.117325 1_556
