# generated using pymatgen
data_Ti5Sb2Rh
_symmetry_space_group_name_H-M   'P 1'
_cell_length_a   7.86917770
_cell_length_b   7.86917770
_cell_length_c   7.86917770
_cell_angle_alpha   96.35558094
_cell_angle_beta   96.35558094
_cell_angle_gamma   141.13284998
_symmetry_Int_Tables_number   1
_chemical_formula_structural   Ti5Sb2Rh
_chemical_formula_sum   'Ti10 Sb4 Rh2'
_cell_volume   288.36191695
_cell_formula_units_Z   2
loop_
 _symmetry_equiv_pos_site_id
 _symmetry_equiv_pos_as_xyz
  1  'x, y, z'
loop_
 _atom_site_type_symbol
 _atom_site_label
 _atom_site_symmetry_multiplicity
 _atom_site_fract_x
 _atom_site_fract_y
 _atom_site_fract_z
 _atom_site_occupancy
  Ti  Ti0  1  0.07334100  0.78920900  0.86255000  1
  Ti  Ti1  1  0.78920900  0.92665900  0.71586800  1
  Ti  Ti2  1  0.21079100  0.07334100  0.28413200  1
  Ti  Ti3  1  0.92665900  0.21079100  0.13745000  1
  Ti  Ti4  1  0.28920900  0.57334100  0.86255000  1
  Ti  Ti5  1  0.71079100  0.42665900  0.13745000  1
  Ti  Ti6  1  0.42665900  0.28920900  0.71586800  1
  Ti  Ti7  1  0.57334100  0.71079100  0.28413200  1
  Ti  Ti8  1  0.75000000  0.25000000  0.50000000  1
  Ti  Ti9  1  0.25000000  0.75000000  0.50000000  1
  Sb  Sb0  1  0.16339200  0.33660800  0.50000000  1
  Sb  Sb1  1  0.33660800  0.83660800  0.17321600  1
  Sb  Sb2  1  0.66339200  0.16339200  0.82678400  1
  Sb  Sb3  1  0.83660800  0.66339200  0.50000000  1
  Rh  Rh0  1  0.75000000  0.75000000  0.00000000  1
  Rh  Rh1  1  0.25000000  0.25000000  0.00000000  1
loop_
_geom_bond_atom_site_label_1
_geom_bond_atom_site_label_2
_geom_bond_distance
_geom_bond_site_symmetry_2
Ti8 Ti9 2.618184 1_545
Ti8 Ti9 2.618184 1_655
Sb0 Ti8 2.755799 1_455
Sb0 Ti9 2.755799 1_555
Sb0 Ti6 2.807323 1_555
Sb0 Ti2 2.807323 1_555
Sb0 Ti3 2.813520 1_455
Sb0 Ti4 2.813520 1_555
Sb0 Ti1 3.080827 1_445
Sb0 Ti7 3.080827 1_445
Sb0 Ti7 3.080827 1_555
Sb0 Ti1 3.080827 1_555
Sb1 Ti8 2.755799 1_565
Sb1 Ti9 2.755799 1_555
Sb1 Ti4 2.807323 1_554
Sb1 Ti0 2.807323 1_554
Sb1 Ti7 2.813520 1_555
Sb1 Ti2 2.813520 1_565
Sb1 Ti5 3.080827 1_565
Sb1 Ti5 3.080827 1_455
Sb1 Ti3 3.080827 1_565
Sb1 Ti3 3.080827 1_455
Sb2 Ti9 2.755799 1_545
Sb2 Ti8 2.755799 1_555
Sb2 Ti3 2.807323 1_556
Sb2 Ti5 2.807323 1_556
Sb2 Ti6 2.813520 1_555
Sb2 Ti1 2.813520 1_545
Sb2 Ti0 3.080827 1_655
Sb2 Ti4 3.080827 1_545
Sb2 Ti4 3.080827 1_655
Sb2 Ti0 3.080827 1_545
Sb3 Ti9 2.755799 1_655
Sb3 Ti8 2.755799 1_555
Sb3 Ti7 2.807323 1_555
Sb3 Ti1 2.807323 1_555
Sb3 Ti5 2.813520 1_555
Sb3 Ti0 2.813520 1_655
Sb3 Ti6 3.080827 1_555
Sb3 Ti6 3.080827 1_665
Sb3 Ti2 3.080827 1_555
Sb3 Ti2 3.080827 1_665
Rh0 Ti3 2.683262 1_565
Rh0 Ti5 2.683262 1_555
Rh0 Ti4 2.683262 1_554
Rh0 Ti2 2.683262 1_665
Rh0 Ti1 2.683262 1_554
Rh0 Ti7 2.683262 1_555
Rh0 Ti0 2.683262 1_654
Rh0 Ti6 2.683262 1_554
Rh1 Ti0 2.683262 1_544
Rh1 Ti5 2.683262 1_555
Rh1 Ti3 2.683262 1_455
Rh1 Ti7 2.683262 1_555
Rh1 Ti2 2.683262 1_555
Rh1 Ti4 2.683262 1_554
Rh1 Ti1 2.683262 1_444
Rh1 Ti6 2.683262 1_554
