# generated using pymatgen
data_Ho2Mn12GaGe11
_symmetry_space_group_name_H-M   'P 1'
_cell_length_a   5.17130705
_cell_length_b   5.17266706
_cell_length_c   16.23077400
_cell_angle_alpha   89.99999647
_cell_angle_beta   89.99997798
_cell_angle_gamma   60.00868908
_symmetry_Int_Tables_number   1
_chemical_formula_structural   Ho2Mn12GaGe11
_chemical_formula_sum   'Ho2 Mn12 Ga1 Ge11'
_cell_volume   376.03020535
_cell_formula_units_Z   1
loop_
 _symmetry_equiv_pos_site_id
 _symmetry_equiv_pos_as_xyz
  1  'x, y, z'
loop_
 _atom_site_type_symbol
 _atom_site_label
 _atom_site_symmetry_multiplicity
 _atom_site_fract_x
 _atom_site_fract_y
 _atom_site_fract_z
 _atom_site_occupancy
  Ho  Ho0  1  0.99997900  0.00000000  0.00066400  1
  Ho  Ho1  1  0.99997700  0.00000000  0.49993800  1
  Mn  Mn0  1  0.49999400  0.49999300  0.12443600  1
  Mn  Mn1  1  0.49998900  0.49999700  0.62534800  1
  Mn  Mn2  1  0.49999900  0.00000000  0.12442800  1
  Mn  Mn3  1  0.49999400  0.00000000  0.62535100  1
  Mn  Mn4  1  0.99998700  0.50000700  0.12443600  1
  Mn  Mn5  1  0.99998600  0.50000300  0.62534800  1
  Mn  Mn6  1  0.49999000  0.49999500  0.37523700  1
  Mn  Mn7  1  0.49999100  0.49999700  0.87461600  1
  Mn  Mn8  1  0.49999500  0.00000000  0.37523200  1
  Mn  Mn9  1  0.49999500  0.00000000  0.87461700  1
  Mn  Mn10  1  0.99998600  0.50000500  0.37523700  1
  Mn  Mn11  1  0.99998800  0.50000300  0.87461600  1
  Ga  Ga0  1  0.99999700  0.00000000  0.17288000  1
  Ge  Ge0  1  0.66665900  0.66662600  0.50002400  1
  Ge  Ge1  1  0.66668300  0.66659400  0.00051600  1
  Ge  Ge2  1  0.33327800  0.33340600  0.00051600  1
  Ge  Ge3  1  0.33328500  0.33337400  0.50002400  1
  Ge  Ge4  1  0.66666400  0.66660300  0.24886200  1
  Ge  Ge5  1  0.66664900  0.66664700  0.74997300  1
  Ge  Ge6  1  0.33326700  0.33339700  0.24886200  1
  Ge  Ge7  1  0.33329600  0.33335300  0.74997300  1
  Ge  Ge8  1  0.99999000  0.00000000  0.67190100  1
  Ge  Ge9  1  0.99999200  0.00000000  0.32865600  1
  Ge  Ge10  1  0.99999100  0.00000000  0.82831000  1
loop_
_geom_bond_atom_site_label_1
_geom_bond_atom_site_label_2
_geom_bond_distance
_geom_bond_site_symmetry_2
Ga0 Ge9 2.528365 1_555
Ga0 Mn2 2.702591 1_555
Ga0 Mn2 2.702610 1_655
Ga0 Mn0 2.703204 1_555
Ga0 Mn4 2.703204 1_545
Ga0 Mn0 2.703223 1_645
Ga0 Mn4 2.703223 1_555
Ga0 Ho0 2.795199 1_555
Ge0 Mn6 2.516085 1_555
Ge0 Mn10 2.516156 1_555
Ge0 Mn8 2.516580 1_565
Ge0 Mn1 2.523103 1_555
Ge0 Mn5 2.523178 1_555
Ge0 Mn3 2.523574 1_565
Ge0 Ho1 2.985986 1_465
Ge0 Ho1 2.986031 1_565
Ge0 Ho1 2.986520 1_555
Ge1 Mn0 2.504744 1_555
Ge1 Mn4 2.504782 1_555
Ge1 Mn2 2.505184 1_565
Ge1 Mn7 2.530621 1_554
Ge1 Mn11 2.530662 1_554
Ge1 Mn9 2.531148 1_564
Ge1 Ho0 2.986077 1_565
Ge1 Ho0 2.986085 1_465
Ge1 Ho0 2.986378 1_555
Ge2 Mn4 2.504746 1_455
Ge2 Mn0 2.504779 1_555
Ge2 Mn2 2.505184 1_555
Ge2 Mn11 2.530623 1_454
Ge2 Mn7 2.530660 1_554
Ge2 Mn9 2.531148 1_554
Ge2 Ho0 2.986072 1_555
Ge2 Ho0 2.986090 1_455
Ge2 Ho0 2.986378 1_465
Ge3 Mn10 2.516083 1_455
Ge3 Mn6 2.516154 1_555
Ge3 Mn8 2.516580 1_555
Ge3 Mn5 2.523103 1_455
Ge3 Mn1 2.523178 1_555
Ge3 Mn3 2.523574 1_555
Ge3 Ho1 2.985986 1_455
Ge3 Ho1 2.986031 1_555
Ge3 Ho1 2.986520 1_465
Ge4 Mn0 2.511318 1_555
Ge4 Mn4 2.511431 1_555
Ge4 Mn2 2.511967 1_565
Ge4 Mn6 2.536831 1_555
Ge4 Mn10 2.536937 1_555
Ge4 Mn8 2.537300 1_565
Ge5 Mn1 2.513996 1_555
Ge5 Mn5 2.514067 1_555
Ge5 Mn7 2.514225 1_555
Ge5 Mn3 2.514304 1_565
Ge5 Mn11 2.514308 1_555
Ge5 Mn9 2.514591 1_565
Ge6 Mn4 2.511318 1_455
Ge6 Mn0 2.511432 1_555
Ge6 Mn2 2.511966 1_555
Ge6 Mn10 2.536828 1_455
Ge6 Mn6 2.536934 1_555
Ge6 Mn8 2.537300 1_555
Ge7 Mn5 2.513996 1_455
Ge7 Mn1 2.514067 1_555
Ge7 Mn11 2.514224 1_455
Ge7 Mn3 2.514303 1_555
Ge7 Mn7 2.514308 1_555
Ge7 Mn9 2.514591 1_555
Ge8 Mn3 2.693760 1_555
Ge8 Mn3 2.693799 1_655
Ge8 Mn1 2.694441 1_555
Ge8 Mn5 2.694441 1_545
Ge8 Mn1 2.694450 1_645
Ge8 Mn5 2.694451 1_555
Ge8 Ho1 2.791093 1_555
Ge9 Mn8 2.693883 1_555
Ge9 Mn8 2.693913 1_655
Ge9 Mn10 2.694563 1_545
Ge9 Mn6 2.694565 1_555
Ge9 Mn6 2.694581 1_645
Ge9 Mn10 2.694583 1_555
Ge9 Ho1 2.780039 1_555
Ge10 Ge8 2.538639 1_555
Ge10 Mn9 2.692656 1_555
Ge10 Mn9 2.692696 1_655
Ge10 Mn7 2.693317 1_555
Ge10 Mn11 2.693317 1_545
Ge10 Mn7 2.693332 1_645
Ge10 Mn11 2.693332 1_555
Ge10 Ho0 2.797439 1_556
