# generated using pymatgen
data_LaCr4(CuO4)3
_symmetry_space_group_name_H-M   'P 1'
_cell_length_a   6.45123230
_cell_length_b   6.45123117
_cell_length_c   6.45123174
_cell_angle_alpha   70.43120102
_cell_angle_beta   70.59026924
_cell_angle_gamma   109.43557964
_symmetry_Int_Tables_number   1
_chemical_formula_structural   LaCr4(CuO4)3
_chemical_formula_sum   'La1 Cr4 Cu3 O12'
_cell_volume   206.68212351
_cell_formula_units_Z   1
loop_
 _symmetry_equiv_pos_site_id
 _symmetry_equiv_pos_as_xyz
  1  'x, y, z'
loop_
 _atom_site_type_symbol
 _atom_site_label
 _atom_site_symmetry_multiplicity
 _atom_site_fract_x
 _atom_site_fract_y
 _atom_site_fract_z
 _atom_site_occupancy
  La  La0  1  0.00000000  0.00000000  0.00000000  1
  Cr  Cr0  1  0.00000000  0.50000000  0.00000000  1
  Cr  Cr1  1  0.50000000  0.50000000  0.50000000  1
  Cr  Cr2  1  0.50000000  0.00000000  0.00000000  1
  Cr  Cr3  1  0.00000000  0.00000000  0.50000000  1
  Cu  Cu0  1  0.50000000  0.50000000  0.00000000  1
  Cu  Cu1  1  0.50000000  0.00000000  0.50000000  1
  Cu  Cu2  1  0.00000000  0.50000000  0.50000000  1
  O  O0  1  0.85887600  0.68915600  0.83028000  1
  O  O1  1  0.48056400  0.31084400  0.83028000  1
  O  O2  1  0.51943600  0.68915600  0.16972000  1
  O  O3  1  0.14112400  0.31084400  0.16972000  1
  O  O4  1  0.83085400  0.14165100  0.68920400  1
  O  O5  1  0.83085300  0.52005700  0.31079600  1
  O  O6  1  0.16914700  0.47994300  0.68920400  1
  O  O7  1  0.16914600  0.85834900  0.31079600  1
  O  O8  1  0.31109100  0.16968600  0.51922300  1
  O  O9  1  0.68890900  0.16968600  0.14140600  1
  O  O10  1  0.31109100  0.83031400  0.85859400  1
  O  O11  1  0.68890800  0.83031400  0.48077700  1
loop_
_geom_bond_atom_site_label_1
_geom_bond_atom_site_label_2
_geom_bond_distance
_geom_bond_site_symmetry_2
La0 O6 2.633672 1_554
La0 O5 2.633672 1_445
La0 O7 2.633681 1_545
La0 O4 2.633681 1_454
La0 O2 2.639567 1_445
La0 O1 2.639567 1_554
La0 O0 2.639577 1_444
La0 O3 2.639577 1_555
La0 O8 2.640522 1_554
La0 O11 2.640524 1_445
La0 O9 2.640535 1_455
La0 O10 2.640535 1_544
Cr0 O3 2.005904 1_555
Cr0 O0 2.005904 1_454
Cr0 O10 2.008908 1_554
Cr0 O9 2.008908 1_455
Cr0 O5 2.010263 1_455
Cr0 O6 2.010263 1_554
Cr1 O1 2.005900 1_555
Cr1 O2 2.005900 1_555
Cr1 O11 2.008913 1_555
Cr1 O8 2.008915 1_555
Cr1 O6 2.010262 1_555
Cr1 O5 2.010262 1_555
Cr2 O2 2.005901 1_545
Cr2 O1 2.005901 1_554
Cr2 O9 2.008925 1_555
Cr2 O10 2.008925 1_544
Cr2 O7 2.010257 1_545
Cr2 O4 2.010257 1_554
Cr3 O3 2.005894 1_555
Cr3 O0 2.005894 1_445
Cr3 O8 2.008916 1_555
Cr3 O11 2.008922 1_445
Cr3 O4 2.010273 1_455
Cr3 O7 2.010273 1_545
Cu0 O3 1.894214 1_555
Cu0 O0 1.894214 1_554
Cu0 O1 1.894223 1_554
Cu0 O2 1.894223 1_555
Cu1 O9 1.891346 1_555
Cu1 O10 1.891346 1_545
Cu1 O11 1.891356 1_545
Cu1 O8 1.891361 1_555
Cu2 O7 1.889625 1_555
Cu2 O4 1.889625 1_455
Cu2 O6 1.889644 1_555
Cu2 O5 1.889644 1_455
