# generated using pymatgen
data_U2(CuNi)5
_symmetry_space_group_name_H-M   'P 1'
_cell_length_a   4.83894601
_cell_length_b   4.83894601
_cell_length_c   8.33407915
_cell_angle_alpha   73.73394564
_cell_angle_beta   73.73394564
_cell_angle_gamma   59.07388412
_symmetry_Int_Tables_number   1
_chemical_formula_structural   U2(CuNi)5
_chemical_formula_sum   'U2 Cu5 Ni5'
_cell_volume   158.48971215
_cell_formula_units_Z   1
loop_
 _symmetry_equiv_pos_site_id
 _symmetry_equiv_pos_as_xyz
  1  'x, y, z'
loop_
 _atom_site_type_symbol
 _atom_site_label
 _atom_site_symmetry_multiplicity
 _atom_site_fract_x
 _atom_site_fract_y
 _atom_site_fract_z
 _atom_site_occupancy
  U  U0  1  0.00324000  0.00324000  0.00189200  1
  U  U1  1  0.50411100  0.50411100  0.49939100  1
  Cu  Cu0  1  0.05941900  0.56320400  0.81197700  1
  Cu  Cu1  1  0.55843700  0.06394500  0.31139900  1
  Cu  Cu2  1  0.56320400  0.05941900  0.81197700  1
  Cu  Cu3  1  0.06394500  0.55843700  0.31139900  1
  Cu  Cu4  1  0.81117300  0.81117300  0.56461900  1
  Ni  Ni0  1  0.31196200  0.31196200  0.06233500  1
  Ni  Ni1  1  0.56194600  0.56194600  0.81178900  1
  Ni  Ni2  1  0.06213100  0.06213100  0.31267600  1
  Ni  Ni3  1  0.12576400  0.12576400  0.62400200  1
  Ni  Ni4  1  0.62466800  0.62466800  0.12654500  1
loop_
_geom_bond_atom_site_label_1
_geom_bond_atom_site_label_2
_geom_bond_distance
_geom_bond_site_symmetry_2
Cu0 Cu2 2.367468 1_465
Cu0 Cu4 2.377512 1_455
Cu0 Cu2 2.403584 1_555
Cu0 Ni0 2.409396 1_556
Cu0 Ni1 2.410819 1_455
Cu0 Ni1 2.428140 1_555
Cu0 Ni3 2.813422 1_555
Cu0 U0 2.834563 1_556
Cu0 Ni4 2.844503 1_456
Cu0 U1 2.853650 1_555
Cu0 U0 2.857442 1_566
Cu0 Ni3 2.862724 1_565
Cu1 Cu3 2.359247 1_555
Cu1 Ni0 2.385684 1_555
Cu1 Ni2 2.403156 1_555
Cu1 Cu3 2.411805 1_645
Cu1 Cu4 2.430555 1_545
Cu1 Ni2 2.435846 1_655
Cu1 Ni4 2.802166 1_545
Cu1 U1 2.825972 1_545
Cu1 Ni3 2.827994 1_555
Cu1 U0 2.834963 1_655
Cu1 Ni4 2.848459 1_555
Cu1 U1 2.850190 1_555
Cu2 Cu4 2.377512 1_545
Cu2 Ni0 2.409396 1_556
Cu2 Ni1 2.410819 1_545
Cu2 Ni1 2.428140 1_555
Cu2 Ni3 2.813422 1_555
Cu2 U0 2.834563 1_556
Cu2 Ni4 2.844503 1_546
Cu2 U1 2.853650 1_555
Cu2 U0 2.857442 1_656
Cu2 Ni3 2.862724 1_655
Cu3 Ni0 2.385684 1_555
Cu3 Ni2 2.403156 1_555
Cu3 Cu4 2.430555 1_455
Cu3 Ni2 2.435846 1_565
Cu3 Ni4 2.802166 1_455
Cu3 U1 2.825972 1_455
Cu3 Ni3 2.827994 1_555
Cu3 U0 2.834963 1_565
Cu3 Ni4 2.848459 1_555
Cu3 U1 2.850190 1_555
Cu4 Ni1 2.421524 1_555
Cu4 Ni2 2.452993 1_665
Cu4 Ni3 2.806321 1_655
Cu4 Ni3 2.806321 1_565
Cu4 U1 2.808082 1_555
Cu4 U1 2.838455 1_565
Cu4 U1 2.838455 1_655
Cu4 Ni3 2.847047 1_665
Ni0 Ni2 2.439710 1_555
Ni0 Ni1 2.441453 1_554
Ni0 U0 2.802530 1_555
Ni0 Ni4 2.814387 1_455
Ni0 Ni4 2.814387 1_545
Ni0 U0 2.831270 1_655
Ni0 U0 2.831270 1_565
Ni0 Ni4 2.850688 1_555
Ni1 U1 2.798566 1_555
Ni1 Ni3 2.808438 1_655
Ni1 Ni3 2.808438 1_565
Ni1 U0 2.817967 1_656
Ni1 U0 2.817967 1_566
Ni1 Ni4 2.837626 1_556
Ni2 U0 2.789527 1_555
Ni2 Ni4 2.801498 1_455
Ni2 Ni4 2.801498 1_545
Ni2 U1 2.803812 1_455
Ni2 U1 2.803812 1_545
Ni2 Ni3 2.813222 1_555
Ni3 U1 2.916070 1_545
Ni3 U1 2.916070 1_455
Ni3 U0 2.981749 1_556
Ni3 U1 3.016154 1_555
Ni4 U0 2.915352 1_565
Ni4 U0 2.915352 1_655
Ni4 U1 2.941934 1_555
Ni4 U0 3.017947 1_665
