# generated using pymatgen
data_Mn6Al31Cu2
_symmetry_space_group_name_H-M   'P 1'
_cell_length_a   12.59441091
_cell_length_b   12.59441091
_cell_length_c   12.55325000
_cell_angle_alpha   90.00000000
_cell_angle_beta   90.00000000
_cell_angle_gamma   143.89457686
_symmetry_Int_Tables_number   1
_chemical_formula_structural   Mn6Al31Cu2
_chemical_formula_sum   'Mn12 Al62 Cu4'
_cell_volume   1173.35199038
_cell_formula_units_Z   2
loop_
 _symmetry_equiv_pos_site_id
 _symmetry_equiv_pos_as_xyz
  1  'x, y, z'
loop_
 _atom_site_type_symbol
 _atom_site_label
 _atom_site_symmetry_multiplicity
 _atom_site_fract_x
 _atom_site_fract_y
 _atom_site_fract_z
 _atom_site_occupancy
  Mn  Mn0  1  0.35780800  0.64219200  0.05141800  1
  Mn  Mn1  1  0.64219200  0.35780800  0.94858200  1
  Mn  Mn2  1  0.64219200  0.35780800  0.55141800  1
  Mn  Mn3  1  0.35780800  0.64219200  0.44858200  1
  Mn  Mn4  1  0.91149500  0.08850500  0.57095100  1
  Mn  Mn5  1  0.08850500  0.91149500  0.42904900  1
  Mn  Mn6  1  0.08850500  0.91149500  0.07095100  1
  Mn  Mn7  1  0.91149500  0.08850500  0.92904900  1
  Mn  Mn8  1  0.54138900  0.45861100  0.25000000  1
  Mn  Mn9  1  0.45861100  0.54138900  0.75000000  1
  Mn  Mn10  1  0.91879200  0.08120800  0.25000000  1
  Mn  Mn11  1  0.08120800  0.91879200  0.75000000  1
  Al  Al0  1  0.19833900  0.80166100  0.25000000  1
  Al  Al1  1  0.80166100  0.19833900  0.75000000  1
  Al  Al2  1  0.09798500  0.53368200  0.12648700  1
  Al  Al3  1  0.90201500  0.46631800  0.87351300  1
  Al  Al4  1  0.90201500  0.46631800  0.62648700  1
  Al  Al5  1  0.46631800  0.90201500  0.37351300  1
  Al  Al6  1  0.09798500  0.53368200  0.37351300  1
  Al  Al7  1  0.53368200  0.09798500  0.62648700  1
  Al  Al8  1  0.53368200  0.09798500  0.87351300  1
  Al  Al9  1  0.46631800  0.90201500  0.12648700  1
  Al  Al10  1  0.74726000  0.64018400  0.06844900  1
  Al  Al11  1  0.25274000  0.35981600  0.93155100  1
  Al  Al12  1  0.25274000  0.35981600  0.56844900  1
  Al  Al13  1  0.35981600  0.25274000  0.43155100  1
  Al  Al14  1  0.74726000  0.64018400  0.43155100  1
  Al  Al15  1  0.64018400  0.74726000  0.56844900  1
  Al  Al16  1  0.64018400  0.74726000  0.93155100  1
  Al  Al17  1  0.35981600  0.25274000  0.06844900  1
  Al  Al18  1  0.98438600  0.01561400  0.09400700  1
  Al  Al19  1  0.01561400  0.98438600  0.90599300  1
  Al  Al20  1  0.01561400  0.98438600  0.59400700  1
  Al  Al21  1  0.98438600  0.01561400  0.40599300  1
  Al  Al22  1  0.74158300  0.25841700  0.05496800  1
  Al  Al23  1  0.25841700  0.74158300  0.94503200  1
  Al  Al24  1  0.25841700  0.74158300  0.55496800  1
  Al  Al25  1  0.74158300  0.25841700  0.44503200  1
  Al  Al26  1  0.22294400  0.25573600  0.25000000  1
  Al  Al27  1  0.77705600  0.74426400  0.75000000  1
  Al  Al28  1  0.74426400  0.77705600  0.25000000  1
  Al  Al29  1  0.25573600  0.22294400  0.75000000  1
  Al  Al30  1  0.08140200  0.30075000  0.10625700  1
  Al  Al31  1  0.91859800  0.69925000  0.89374300  1
  Al  Al32  1  0.91859800  0.69925000  0.60625700  1
  Al  Al33  1  0.69925000  0.91859800  0.39374300  1
  Al  Al34  1  0.08140200  0.30075000  0.39374300  1
  Al  Al35  1  0.30075000  0.08140200  0.60625700  1
  Al  Al36  1  0.30075000  0.08140200  0.89374300  1
  Al  Al37  1  0.69925000  0.91859800  0.10625700  1
  Al  Al38  1  0.92285300  0.73015600  0.25000000  1
  Al  Al39  1  0.07714700  0.26984400  0.75000000  1
  Al  Al40  1  0.26984400  0.07714700  0.25000000  1
  Al  Al41  1  0.73015600  0.92285300  0.75000000  1
  Al  Al42  1  0.36370700  0.63629300  0.25000000  1
  Al  Al43  1  0.63629300  0.36370700  0.75000000  1
  Al  Al44  1  0.46038900  0.53961100  0.11139100  1
  Al  Al45  1  0.53961100  0.46038900  0.88860900  1
  Al  Al46  1  0.53961100  0.46038900  0.61139100  1
  Al  Al47  1  0.46038900  0.53961100  0.38860900  1
  Al  Al48  1  0.63557100  0.36442900  0.14904700  1
  Al  Al49  1  0.36442900  0.63557100  0.85095300  1
  Al  Al50  1  0.36442900  0.63557100  0.64904700  1
  Al  Al51  1  0.63557100  0.36442900  0.35095300  1
  Al  Al52  1  0.97909100  0.63574600  0.06477300  1
  Al  Al53  1  0.02090900  0.36425400  0.93522700  1
  Al  Al54  1  0.02090900  0.36425400  0.56477300  1
  Al  Al55  1  0.36425400  0.02090900  0.43522700  1
  Al  Al56  1  0.97909100  0.63574600  0.43522700  1
  Al  Al57  1  0.63574600  0.97909100  0.56477300  1
  Al  Al58  1  0.63574600  0.97909100  0.93522700  1
  Al  Al59  1  0.36425400  0.02090900  0.06477300  1
  Al  Al60  1  0.81430200  0.18569800  0.25000000  1
  Al  Al61  1  0.18569800  0.81430200  0.75000000  1
  Cu  Cu0  1  0.88722000  0.45746900  0.25000000  1
  Cu  Cu1  1  0.11278000  0.54253100  0.75000000  1
  Cu  Cu2  1  0.54253100  0.11278000  0.25000000  1
  Cu  Cu3  1  0.45746900  0.88722000  0.75000000  1
loop_
_geom_bond_atom_site_label_1
_geom_bond_atom_site_label_2
_geom_bond_distance
_geom_bond_site_symmetry_2
Al0 Cu0 2.588096 1_455
Al0 Cu2 2.588096 1_565
Al0 Al38 2.792869 1_455
Al0 Al40 2.792869 1_565
Al0 Al56 2.841511 1_455
Al0 Al52 2.841511 1_455
Al0 Al55 2.841511 1_565
Al0 Al59 2.841511 1_565
Al1 Cu3 2.588096 1_545
Al1 Cu1 2.588096 1_655
Al1 Al41 2.792869 1_545
Al1 Al39 2.792869 1_655
Al1 Al57 2.841511 1_545
Al1 Al58 2.841511 1_545
Al1 Al53 2.841511 1_655
Al1 Al54 2.841511 1_655
Al2 Mn0 2.497513 1_555
Al2 Cu0 2.500886 1_455
Al2 Al23 2.752871 1_554
Al2 Al52 2.757711 1_455
Al2 Al30 2.779266 1_555
Al2 Al22 2.797832 1_455
Al2 Al53 2.813008 1_554
Al3 Mn1 2.497513 1_555
Al3 Cu1 2.500886 1_655
Al3 Al53 2.757711 1_655
Al3 Al31 2.779266 1_555
Al3 Al52 2.813008 1_556
Al4 Mn2 2.497513 1_555
Al4 Cu1 2.500886 1_655
Al4 Al54 2.757711 1_655
Al4 Al56 2.813008 1_555
Al5 Mn3 2.497513 1_555
Al5 Cu2 2.500886 1_565
Al5 Al55 2.757711 1_565
Al5 Al57 2.813008 1_555
Al6 Mn3 2.497513 1_555
Al6 Cu0 2.500886 1_455
Al7 Mn2 2.497513 1_555
Al7 Cu3 2.500886 1_545
Al8 Mn1 2.497513 1_555
Al8 Cu3 2.500886 1_545
Al9 Mn0 2.497513 1_555
Al9 Cu2 2.500886 1_565
Al10 Mn6 2.533364 1_655
Al10 Al48 2.677671 1_555
Al10 Al38 2.705463 1_555
Al10 Al31 2.725039 1_554
Al10 Al45 2.737611 1_554
Al10 Al44 2.748402 1_555
Al10 Mn8 2.750521 1_555
Al10 Al28 2.876140 1_555
Al10 Al18 2.925971 1_565
Al10 Al52 2.965476 1_555
Al10 Mn1 3.009752 1_554
Al10 Al17 3.024314 1_555
Al10 Al16 3.086933 1_554
Al11 Mn7 2.533364 1_455
Al11 Al49 2.677671 1_555
Al11 Al39 2.705463 1_555
Al11 Al30 2.725039 1_556
Al11 Al44 2.737611 1_556
Al11 Al45 2.748402 1_555
Al11 Mn9 2.750521 1_555
Al11 Al29 2.876140 1_555
Al11 Al19 2.925971 1_545
Al11 Al53 2.965476 1_555
Al11 Mn0 3.009752 1_556
Al11 Al16 3.024314 1_555
Al11 Al17 3.086933 1_556
Al12 Mn4 2.533364 1_455
Al12 Al50 2.677671 1_555
Al12 Al39 2.705463 1_555
Al12 Al34 2.725039 1_555
Al12 Al47 2.737611 1_555
Al12 Al46 2.748402 1_555
Al12 Mn9 2.750521 1_555
Al12 Al29 2.876140 1_555
Al12 Al20 2.925971 1_545
Al12 Al54 2.965476 1_555
Al12 Mn3 3.009752 1_555
Al12 Al15 3.024314 1_555
Al12 Al13 3.086933 1_555
Al13 Mn5 2.533364 1_545
Al13 Al51 2.677671 1_555
Al13 Al40 2.705463 1_555
Al13 Al35 2.725039 1_555
Al13 Al46 2.737611 1_555
Al13 Al47 2.748402 1_555
Al13 Mn8 2.750521 1_555
Al13 Al26 2.876140 1_555
Al13 Al21 2.925971 1_455
Al13 Al55 2.965476 1_555
Al13 Mn2 3.009752 1_555
Al13 Al14 3.024314 1_555
Al14 Mn5 2.533364 1_655
Al14 Al51 2.677671 1_555
Al14 Al38 2.705463 1_555
Al14 Al32 2.725039 1_555
Al14 Al46 2.737611 1_555
Al14 Al47 2.748402 1_555
Al14 Mn8 2.750521 1_555
Al14 Al28 2.876140 1_555
Al14 Al21 2.925971 1_565
Al14 Al56 2.965476 1_555
Al14 Mn2 3.009752 1_555
Al14 Al15 3.086933 1_555
Al15 Mn4 2.533364 1_565
Al15 Al50 2.677671 1_555
Al15 Al41 2.705463 1_555
Al15 Al33 2.725039 1_555
Al15 Al47 2.737611 1_555
Al15 Al46 2.748402 1_555
Al15 Mn9 2.750521 1_555
Al15 Al27 2.876140 1_555
Al15 Al20 2.925971 1_655
Al15 Al57 2.965476 1_555
Al15 Mn3 3.009752 1_555
Al16 Mn7 2.533364 1_565
Al16 Al49 2.677671 1_555
Al16 Al41 2.705463 1_555
Al16 Al37 2.725039 1_556
Al16 Al44 2.737611 1_556
Al16 Al45 2.748402 1_555
Al16 Mn9 2.750521 1_555
Al16 Al27 2.876140 1_555
Al16 Al19 2.925971 1_655
Al16 Al58 2.965476 1_555
Al16 Mn0 3.009752 1_556
Al17 Mn6 2.533364 1_545
Al17 Al48 2.677671 1_555
Al17 Al40 2.705463 1_555
Al17 Al36 2.725039 1_554
Al17 Al45 2.737611 1_554
Al17 Al44 2.748402 1_555
Al17 Mn8 2.750521 1_555
Al17 Al26 2.876140 1_555
Al17 Al18 2.925971 1_455
Al17 Al59 2.965476 1_555
Al17 Mn1 3.009752 1_554
Al18 Al19 2.475843 1_644
Al18 Mn6 2.510268 1_645
Al18 Mn10 2.510447 1_555
Al18 Al37 2.706022 1_545
Al18 Al30 2.706022 1_655
Al18 Al28 2.706530 1_545
Al18 Al26 2.706530 1_655
Al18 Mn7 2.708385 1_554
Al19 Mn7 2.510268 1_465
Al19 Mn11 2.510447 1_555
Al19 Al31 2.706022 1_455
Al19 Al36 2.706022 1_565
Al19 Al27 2.706530 1_455
Al19 Al29 2.706530 1_565
Al19 Mn6 2.708385 1_556
Al20 Al21 2.475843 1_465
Al20 Mn4 2.510268 1_465
Al20 Mn11 2.510447 1_555
Al20 Al32 2.706022 1_455
Al20 Al35 2.706022 1_565
Al20 Al27 2.706530 1_455
Al20 Al29 2.706530 1_565
Al20 Mn5 2.708385 1_555
Al21 Mn5 2.510268 1_645
Al21 Mn10 2.510447 1_555
Al21 Al33 2.706022 1_545
Al21 Al34 2.706022 1_655
Al21 Al28 2.706530 1_545
Al21 Al26 2.706530 1_655
Al21 Mn4 2.708385 1_555
Al22 Mn1 2.729350 1_554
Al22 Al8 2.752871 1_554
Al22 Al3 2.752871 1_554
Al22 Al9 2.797832 1_545
Al22 Al48 2.800103 1_555
Al22 Cu0 2.865835 1_555
Al22 Cu2 2.865835 1_555
Al22 Al52 2.928594 1_555
Al22 Al59 2.928594 1_555
Al22 Al58 2.972358 1_544
Al22 Al53 2.972358 1_654
Al22 Al60 3.004504 1_555
Al23 Mn0 2.729350 1_556
Al23 Al9 2.752871 1_556
Al23 Al8 2.797832 1_565
Al23 Al3 2.797832 1_455
Al23 Al49 2.800103 1_555
Al23 Cu3 2.865835 1_555
Al23 Cu1 2.865835 1_555
Al23 Al58 2.928594 1_555
Al23 Al53 2.928594 1_555
Al23 Al52 2.972358 1_456
Al23 Al59 2.972358 1_566
Al23 Al61 3.004504 1_555
Al24 Mn3 2.729350 1_555
Al24 Al6 2.752871 1_555
Al24 Al5 2.752871 1_555
Al24 Al4 2.797832 1_455
Al24 Al7 2.797832 1_565
Al24 Al50 2.800103 1_555
Al24 Cu3 2.865835 1_555
Al24 Cu1 2.865835 1_555
Al24 Al57 2.928594 1_555
Al24 Al54 2.928594 1_555
Al24 Al56 2.972358 1_455
Al24 Al55 2.972358 1_565
Al24 Al61 3.004504 1_555
Al25 Mn2 2.729350 1_555
Al25 Al7 2.752871 1_555
Al25 Al4 2.752871 1_555
Al25 Al6 2.797832 1_655
Al25 Al5 2.797832 1_545
Al25 Al51 2.800103 1_555
Al25 Cu0 2.865835 1_555
Al25 Cu2 2.865835 1_555
Al25 Al56 2.928594 1_555
Al25 Al55 2.928594 1_555
Al25 Al57 2.972358 1_545
Al25 Al54 2.972358 1_655
Al25 Al60 3.004504 1_555
Al26 Mn10 2.428902 1_455
Al26 Mn8 2.460687 1_555
Al26 Al44 2.734325 1_555
Al26 Al47 2.734325 1_555
Al26 Al40 2.748580 1_555
Al26 Al30 2.896247 1_555
Al26 Al34 2.896247 1_555
Al27 Mn11 2.428902 1_655
Al27 Mn9 2.460687 1_555
Al27 Al46 2.734325 1_555
Al27 Al45 2.734325 1_555
Al27 Al41 2.748580 1_555
Al27 Al32 2.896247 1_555
Al27 Al31 2.896247 1_555
Al28 Mn10 2.428902 1_565
Al28 Mn8 2.460687 1_555
Al28 Al47 2.734325 1_555
Al28 Al44 2.734325 1_555
Al28 Al38 2.748580 1_555
Al28 Al33 2.896247 1_555
Al28 Al37 2.896247 1_555
Al29 Mn11 2.428902 1_545
Al29 Mn9 2.460687 1_555
Al29 Al45 2.734325 1_555
Al29 Al46 2.734325 1_555
Al29 Al39 2.748580 1_555
Al29 Al35 2.896247 1_555
Al29 Al36 2.896247 1_555
Al30 Mn10 2.438307 1_455
Al30 Al53 2.610417 1_554
Al30 Mn0 2.625880 1_555
Al30 Mn7 2.725833 1_454
Al30 Al44 2.938443 1_555
Al30 Al60 2.965718 1_455
Al30 Al37 2.983006 1_445
Al30 Al42 3.078517 1_555
Al31 Mn11 2.438307 1_655
Al31 Al52 2.610417 1_556
Al31 Mn1 2.625880 1_555
Al31 Mn6 2.725833 1_656
Al31 Al45 2.938443 1_555
Al31 Al61 2.965718 1_655
Al31 Al36 2.983006 1_665
Al31 Al43 3.078517 1_555
Al32 Mn11 2.438307 1_655
Al32 Al56 2.610417 1_555
Al32 Mn2 2.625880 1_555
Al32 Mn5 2.725833 1_655
Al32 Al4 2.779266 1_555
Al32 Al46 2.938443 1_555
Al32 Al61 2.965718 1_655
Al32 Al35 2.983006 1_665
Al32 Al43 3.078517 1_555
Al33 Mn10 2.438307 1_565
Al33 Al57 2.610417 1_555
Al33 Mn3 2.625880 1_555
Al33 Mn4 2.725833 1_565
Al33 Al5 2.779266 1_555
Al33 Al47 2.938443 1_555
Al33 Al60 2.965718 1_565
Al33 Al34 2.983006 1_665
Al33 Al42 3.078517 1_555
Al34 Mn10 2.438307 1_455
Al34 Al54 2.610417 1_555
Al34 Mn3 2.625880 1_555
Al34 Mn4 2.725833 1_455
Al34 Al6 2.779266 1_555
Al34 Al47 2.938443 1_555
Al34 Al60 2.965718 1_455
Al34 Al42 3.078517 1_555
Al35 Mn11 2.438307 1_545
Al35 Al55 2.610417 1_555
Al35 Mn2 2.625880 1_555
Al35 Mn5 2.725833 1_545
Al35 Al7 2.779266 1_555
Al35 Al46 2.938443 1_555
Al35 Al61 2.965718 1_545
Al35 Al43 3.078517 1_555
Al36 Mn11 2.438307 1_545
Al36 Al59 2.610417 1_556
Al36 Mn1 2.625880 1_555
Al36 Mn6 2.725833 1_546
Al36 Al8 2.779266 1_555
Al36 Al45 2.938443 1_555
Al36 Al61 2.965718 1_545
Al36 Al43 3.078517 1_555
Al37 Mn10 2.438307 1_565
Al37 Al58 2.610417 1_554
Al37 Mn0 2.625880 1_555
Al37 Mn7 2.725833 1_564
Al37 Al9 2.779266 1_555
Al37 Al44 2.938443 1_555
Al37 Al60 2.965718 1_565
Al37 Al42 3.078517 1_555
Al38 Mn5 2.630828 1_655
Al38 Mn6 2.630828 1_655
Al38 Al40 2.708546 1_665
Al38 Mn8 2.868440 1_555
Al38 Al56 2.946674 1_555
Al38 Al52 2.946674 1_555
Al38 Al48 2.997314 1_555
Al38 Al51 2.997314 1_555
Al38 Cu0 3.083113 1_555
Al39 Mn7 2.630828 1_455
Al39 Mn4 2.630828 1_455
Al39 Al41 2.708546 1_445
Al39 Mn9 2.868440 1_555
Al39 Al53 2.946674 1_555
Al39 Al54 2.946674 1_555
Al39 Al49 2.997314 1_555
Al39 Al50 2.997314 1_555
Al39 Cu1 3.083113 1_555
Al40 Mn6 2.630828 1_545
Al40 Mn5 2.630828 1_545
Al40 Mn8 2.868440 1_555
Al40 Al59 2.946674 1_555
Al40 Al55 2.946674 1_555
Al40 Al48 2.997314 1_555
Al40 Al51 2.997314 1_555
Al40 Cu2 3.083113 1_555
Al41 Mn7 2.630828 1_565
Al41 Mn4 2.630828 1_565
Al41 Mn9 2.868440 1_555
Al41 Al57 2.946674 1_555
Al41 Al58 2.946674 1_555
Al41 Al50 2.997314 1_555
Al41 Al49 2.997314 1_555
Al41 Cu3 3.083113 1_555
Al42 Mn3 2.496849 1_555
Al42 Mn0 2.496849 1_555
Al42 Al44 2.896333 1_555
Al42 Al47 2.896333 1_555
Al43 Mn1 2.496849 1_555
Al43 Mn2 2.496849 1_555
Al43 Al46 2.896333 1_555
Al43 Al45 2.896333 1_555
Al44 Mn0 2.569463 1_555
Al44 Mn8 2.605880 1_555
Al45 Mn1 2.569463 1_555
Al45 Mn9 2.605880 1_555
Al46 Mn2 2.569463 1_555
Al46 Mn9 2.605880 1_555
Al47 Mn3 2.569463 1_555
Al47 Mn8 2.605880 1_555
Al48 Mn1 2.521478 1_554
Al48 Al51 2.534576 1_555
Al48 Mn8 2.587183 1_555
Al48 Cu2 2.650088 1_555
Al48 Cu0 2.650088 1_555
Al48 Al59 2.761343 1_555
Al48 Al52 2.761343 1_555
Al49 Mn0 2.521478 1_556
Al49 Al50 2.534576 1_555
Al49 Mn9 2.587183 1_555
Al49 Cu1 2.650088 1_555
Al49 Cu3 2.650088 1_555
Al49 Al53 2.761343 1_555
Al49 Al58 2.761343 1_555
Al50 Mn3 2.521478 1_555
Al50 Mn9 2.587183 1_555
Al50 Cu1 2.650088 1_555
Al50 Cu3 2.650088 1_555
Al50 Al54 2.761343 1_555
Al50 Al57 2.761343 1_555
Al51 Mn2 2.521478 1_555
Al51 Mn8 2.587183 1_555
Al51 Cu2 2.650088 1_555
Al51 Cu0 2.650088 1_555
Al51 Al55 2.761343 1_555
Al51 Al56 2.761343 1_555
Al52 Mn6 2.496580 1_655
Al52 Cu0 2.754771 1_555
Al52 Mn1 2.895554 1_554
Al52 Al59 3.006509 1_665
Al53 Mn7 2.496580 1_455
Al53 Cu1 2.754771 1_555
Al53 Mn0 2.895554 1_556
Al53 Al58 3.006509 1_445
Al54 Mn4 2.496580 1_455
Al54 Cu1 2.754771 1_555
Al54 Al6 2.813008 1_555
Al54 Mn3 2.895554 1_555
Al54 Al57 3.006509 1_445
Al55 Mn5 2.496580 1_545
Al55 Cu2 2.754771 1_555
Al55 Al7 2.813008 1_555
Al55 Mn2 2.895554 1_555
Al55 Al56 3.006509 1_445
Al56 Mn5 2.496580 1_655
Al56 Cu0 2.754771 1_555
Al56 Al6 2.757711 1_655
Al56 Mn2 2.895554 1_555
Al57 Mn4 2.496580 1_565
Al57 Cu3 2.754771 1_555
Al57 Al7 2.757711 1_565
Al57 Mn3 2.895554 1_555
Al58 Mn7 2.496580 1_565
Al58 Cu3 2.754771 1_555
Al58 Al8 2.757711 1_565
Al58 Al9 2.813008 1_556
Al58 Mn0 2.895554 1_556
Al59 Mn6 2.496580 1_545
Al59 Cu2 2.754771 1_555
Al59 Al9 2.757711 1_545
Al59 Al8 2.813008 1_554
Al59 Mn1 2.895554 1_554
Al60 Mn10 2.502412 1_555
Al60 Cu0 2.734898 1_555
Al60 Cu2 2.734898 1_555
Al61 Mn11 2.502412 1_555
Al61 Cu3 2.734898 1_555
Al61 Cu1 2.734898 1_555
Cu0 Cu2 2.690577 1_555
Cu1 Cu3 2.690577 1_555
