# generated using pymatgen
data_Ba(HCl)2
_symmetry_space_group_name_H-M   'P 1'
_cell_length_a   8.59596100
_cell_length_b   7.16223500
_cell_length_c   10.71255119
_cell_angle_alpha   49.07226650
_cell_angle_beta   90.00000000
_cell_angle_gamma   90.00000000
_symmetry_Int_Tables_number   1
_chemical_formula_structural   Ba(HCl)2
_chemical_formula_sum   'Ba4 H8 Cl8'
_cell_volume   498.30051952
_cell_formula_units_Z   4
loop_
 _symmetry_equiv_pos_site_id
 _symmetry_equiv_pos_as_xyz
  1  'x, y, z'
loop_
 _atom_site_type_symbol
 _atom_site_label
 _atom_site_symmetry_multiplicity
 _atom_site_fract_x
 _atom_site_fract_y
 _atom_site_fract_z
 _atom_site_occupancy
  Ba  Ba0  1  0.24896000  0.84427300  0.15382200  1
  Ba  Ba1  1  0.75104000  0.15572700  0.84617800  1
  Ba  Ba2  1  0.74896000  0.15572700  0.34617800  1
  Ba  Ba3  1  0.25104000  0.84427300  0.65382200  1
  H  H0  1  0.88740300  0.61272800  0.02112700  1
  H  H1  1  0.11259700  0.38727200  0.97887300  1
  H  H2  1  0.38740300  0.38727200  0.47887300  1
  H  H3  1  0.61259700  0.61272800  0.52112700  1
  H  H4  1  0.39183300  0.65628700  0.99960000  1
  H  H5  1  0.60816700  0.34371300  0.00040000  1
  H  H6  1  0.89183300  0.34371300  0.50040000  1
  H  H7  1  0.10816700  0.65628700  0.49960000  1
  Cl  Cl0  1  0.92124400  0.04024100  0.14888800  1
  Cl  Cl1  1  0.07875600  0.95975900  0.85111200  1
  Cl  Cl2  1  0.42124400  0.95975900  0.35111200  1
  Cl  Cl3  1  0.57875600  0.04024100  0.64888800  1
  Cl  Cl4  1  0.58386800  0.66688300  0.14668400  1
  Cl  Cl5  1  0.41613200  0.33311700  0.85331600  1
  Cl  Cl6  1  0.08386800  0.33311700  0.35331600  1
  Cl  Cl7  1  0.91613200  0.66688300  0.64668400  1
loop_
_geom_bond_atom_site_label_1
_geom_bond_atom_site_label_2
_geom_bond_distance
_geom_bond_site_symmetry_2
Ba0 H4 2.994163 1_554
Ba0 H2 3.053154 1_555
Ba0 Cl2 3.103963 1_555
Ba0 Cl6 3.119794 1_555
Ba0 Cl0 3.132296 1_465
Ba0 Cl1 3.134668 1_554
Ba0 Cl5 3.149469 1_564
Ba0 Cl4 3.167829 1_555
Ba1 H5 2.994163 1_556
Ba1 H3 3.053154 1_555
Ba1 Cl3 3.103963 1_555
Ba1 Cl7 3.119794 1_555
Ba1 Cl1 3.132296 1_645
Ba1 Cl0 3.134668 1_556
Ba1 Cl4 3.149469 1_546
Ba1 Cl5 3.167829 1_555
Ba2 H6 2.994163 1_555
Ba2 H0 3.053154 1_555
Ba2 Cl0 3.103963 1_555
Ba2 Cl4 3.119794 1_555
Ba2 Cl2 3.132296 1_545
Ba2 Cl3 3.134668 1_555
Ba2 Cl7 3.149469 1_545
Ba2 Cl6 3.167829 1_655
Ba3 H7 2.994163 1_555
Ba3 H1 3.053154 1_555
Ba3 Cl1 3.103963 1_555
Ba3 Cl5 3.119794 1_555
Ba3 Cl3 3.132296 1_565
Ba3 Cl2 3.134668 1_555
Ba3 Cl6 3.149469 1_565
Ba3 Cl7 3.167829 1_455
