# generated using pymatgen
data_MnNi5(BO5)2
_symmetry_space_group_name_H-M   'P 1'
_cell_length_a   3.00918800
_cell_length_b   9.22649700
_cell_length_c   12.41051000
_cell_angle_alpha   90.00000000
_cell_angle_beta   90.00000000
_cell_angle_gamma   90.00000000
_symmetry_Int_Tables_number   1
_chemical_formula_structural   MnNi5(BO5)2
_chemical_formula_sum   'Mn2 Ni10 B4 O20'
_cell_volume   344.56867669
_cell_formula_units_Z   2
loop_
 _symmetry_equiv_pos_site_id
 _symmetry_equiv_pos_as_xyz
  1  'x, y, z'
loop_
 _atom_site_type_symbol
 _atom_site_label
 _atom_site_symmetry_multiplicity
 _atom_site_fract_x
 _atom_site_fract_y
 _atom_site_fract_z
 _atom_site_occupancy
  Mn  Mn0  1  0.00000000  0.00892800  0.61346700  1
  Mn  Mn1  1  0.00000000  0.99107200  0.11346700  1
  Ni  Ni0  1  0.50000000  0.25492800  0.49855900  1
  Ni  Ni1  1  0.50000000  0.74507200  0.99855900  1
  Ni  Ni2  1  0.50000000  0.25508900  0.22004800  1
  Ni  Ni3  1  0.50000000  0.25352500  0.78188900  1
  Ni  Ni4  1  0.50000000  0.74647500  0.28188900  1
  Ni  Ni5  1  0.50000000  0.74491100  0.72004800  1
  Ni  Ni6  1  0.00000000  0.74493400  0.49865000  1
  Ni  Ni7  1  0.00000000  0.25506600  0.99865000  1
  Ni  Ni8  1  0.00000000  0.49030400  0.38615500  1
  Ni  Ni9  1  0.00000000  0.50969600  0.88615500  1
  B  B0  1  0.00000000  0.52636700  0.13987000  1
  B  B1  1  0.00000000  0.97639500  0.86028700  1
  B  B2  1  0.00000000  0.02360500  0.36028800  1
  B  B3  1  0.00000000  0.47363300  0.63987000  1
  O  O0  1  0.50000000  0.63608600  0.42251200  1
  O  O1  1  0.50000000  0.86935100  0.57852700  1
  O  O2  1  0.50000000  0.13064900  0.07852700  1
  O  O3  1  0.50000000  0.36391400  0.92251200  1
  O  O4  1  0.50000000  0.35819100  0.35733900  1
  O  O5  1  0.50000000  0.13949600  0.64281200  1
  O  O6  1  0.50000000  0.86050400  0.14281200  1
  O  O7  1  0.50000000  0.64180900  0.85733900  1
  O  O8  1  0.00000000  0.60065900  0.23641100  1
  O  O9  1  0.00000000  0.89858300  0.76384900  1
  O  O10  1  0.00000000  0.10141700  0.26384900  1
  O  O11  1  0.00000000  0.39934100  0.73641100  1
  O  O12  1  0.00000000  0.37448300  0.14084600  1
  O  O13  1  0.00000000  0.12544100  0.85876700  1
  O  O14  1  0.00000000  0.87455900  0.35876700  1
  O  O15  1  0.00000000  0.62551700  0.64084600  1
  O  O16  1  0.00000000  0.39885500  0.54324300  1
  O  O17  1  0.00000000  0.10135800  0.45676800  1
  O  O18  1  0.00000000  0.89864200  0.95676800  1
  O  O19  1  0.00000000  0.60114500  0.04324300  1
loop_
_geom_bond_atom_site_label_1
_geom_bond_atom_site_label_2
_geom_bond_distance
_geom_bond_site_symmetry_2
Mn0 O5 1.961556 1_455
Mn0 O5 1.961556 1_555
Mn0 O1 2.027382 1_445
Mn0 O1 2.027382 1_545
Mn0 O17 2.123486 1_555
Mn0 O9 2.125950 1_545
Mn1 O6 1.961556 1_455
Mn1 O6 1.961556 1_555
Mn1 O2 2.027382 1_465
Mn1 O2 2.027382 1_565
Mn1 O18 2.123486 1_554
Mn1 O10 2.125950 1_565
Ni0 O4 1.994842 1_555
Ni0 O16 2.082009 1_555
Ni0 O16 2.082009 1_655
Ni0 O5 2.083099 1_555
Ni0 O17 2.130831 1_555
Ni0 O17 2.130831 1_655
Ni1 O7 1.994842 1_555
Ni1 O19 2.082009 1_556
Ni1 O19 2.082009 1_656
Ni1 O6 2.083099 1_556
Ni1 O18 2.130831 1_555
Ni1 O18 2.130831 1_655
Ni2 O4 1.951416 1_555
Ni2 O2 2.098332 1_555
Ni2 O12 2.107953 1_655
Ni2 O12 2.107953 1_555
Ni2 O10 2.137664 1_555
Ni2 O10 2.137664 1_655
Ni3 O3 2.020664 1_555
Ni3 O5 2.021391 1_555
Ni3 O11 2.095800 1_655
Ni3 O11 2.095800 1_555
Ni3 O13 2.137913 1_555
Ni3 O13 2.137913 1_655
Ni4 O0 2.020664 1_555
Ni4 O6 2.021391 1_555
Ni4 O8 2.095800 1_555
Ni4 O8 2.095800 1_655
Ni4 O14 2.137913 1_555
Ni4 O14 2.137913 1_655
Ni5 O7 1.951416 1_555
Ni5 O1 2.098332 1_555
Ni5 O15 2.107953 1_555
Ni5 O15 2.107953 1_655
Ni5 O9 2.137664 1_555
Ni5 O9 2.137664 1_655
Ni6 O0 2.040895 1_455
Ni6 O0 2.040895 1_555
Ni6 O15 2.080437 1_555
Ni6 O14 2.108114 1_555
Ni6 O1 2.136412 1_455
Ni6 O1 2.136412 1_555
Ni7 O3 2.040895 1_455
Ni7 O3 2.040895 1_555
Ni7 O12 2.080437 1_556
Ni7 O13 2.108114 1_555
Ni7 O2 2.136412 1_556
Ni7 O2 2.136412 1_456
Ni8 O4 1.969140 1_455
Ni8 O4 1.969140 1_555
Ni8 O0 2.067987 1_555
Ni8 O0 2.067987 1_455
Ni8 O8 2.119047 1_555
Ni8 O16 2.124296 1_555
Ni9 O7 1.969140 1_555
Ni9 O7 1.969140 1_455
Ni9 O3 2.067987 1_555
Ni9 O3 2.067987 1_455
Ni9 O11 2.119047 1_555
Ni9 O19 2.124296 1_556
B0 O8 1.380343 1_555
B0 O19 1.383500 1_555
B0 O12 1.401410 1_555
B1 O13 1.375302 1_565
B1 O9 1.395659 1_555
B1 O18 1.395837 1_555
B2 O14 1.375302 1_545
B2 O10 1.395670 1_555
B2 O17 1.395826 1_555
B3 O11 1.380343 1_555
B3 O16 1.383500 1_555
B3 O15 1.401410 1_555
