# generated using pymatgen
data_Mo3WS8
_symmetry_space_group_name_H-M   'P 1'
_cell_length_a   3.18273814
_cell_length_b   3.18273814
_cell_length_c   34.75486717
_cell_angle_alpha   90.00000000
_cell_angle_beta   90.00000000
_cell_angle_gamma   120.00000093
_symmetry_Int_Tables_number   1
_chemical_formula_structural   Mo3WS8
_chemical_formula_sum   'Mo3 W1 S8'
_cell_volume   304.89343903
_cell_formula_units_Z   1
loop_
 _symmetry_equiv_pos_site_id
 _symmetry_equiv_pos_as_xyz
  1  'x, y, z'
loop_
 _atom_site_type_symbol
 _atom_site_label
 _atom_site_symmetry_multiplicity
 _atom_site_fract_x
 _atom_site_fract_y
 _atom_site_fract_z
 _atom_site_occupancy
  Mo  Mo0  1  -0.00000000  0.00000000  0.09437138  1
  Mo  Mo1  1  0.33333300  0.66666700  0.28176599  1
  Mo  Mo2  1  0.33333300  0.66666700  0.65741109  1
  W  W0  1  -0.00000000  -0.00000000  0.46936820  1
  S  S0  1  -0.00000000  0.00000000  0.32642185  1
  S  S1  1  -0.00000000  0.00000000  0.70206791  1
  S  S2  1  0.33333300  0.66666700  0.04971539  1
  S  S3  1  0.33333300  0.66666700  0.42449712  1
  S  S4  1  0.33333300  0.66666700  0.13903752  1
  S  S5  1  0.33333300  0.66666700  0.51425078  1
  S  S6  1  -0.00000000  0.00000000  0.23709287  1
  S  S7  1  -0.00000000  0.00000000  0.61274991  1
loop_
_geom_bond_atom_site_label_1
_geom_bond_atom_site_label_2
_geom_bond_distance
_geom_bond_site_symmetry_2
Mo0 S2 2.405274 1_545
Mo0 S2 2.405276 1_555
Mo0 S2 2.405276 1_445
Mo0 S4 2.405502 1_545
Mo0 S4 2.405504 1_555
Mo0 S4 2.405504 1_445
Mo1 S0 2.405271 1_565
Mo1 S0 2.405274 1_555
Mo1 S0 2.405274 1_665
Mo1 S6 2.405659 1_565
Mo1 S6 2.405661 1_665
Mo1 S6 2.405661 1_555
Mo2 S1 2.405293 1_565
Mo2 S1 2.405295 1_555
Mo2 S1 2.405295 1_665
Mo2 S7 2.405391 1_565
Mo2 S7 2.405393 1_665
Mo2 S7 2.405393 1_555
S3 W0 2.410105 1_565
S3 W0 2.410107 1_555
S3 W0 2.410107 1_665
S5 W0 2.410363 1_565
S5 W0 2.410365 1_665
S5 W0 2.410365 1_555
