# generated using pymatgen
data_Li4Co3O7
_symmetry_space_group_name_H-M   'P 1'
_cell_length_a   5.09276217
_cell_length_b   5.09276217
_cell_length_c   17.23574526
_cell_angle_alpha   84.72013439
_cell_angle_beta   84.72013439
_cell_angle_gamma   32.93496358
_symmetry_Int_Tables_number   1
_chemical_formula_structural   Li4Co3O7
_chemical_formula_sum   'Li8 Co6 O14'
_cell_volume   241.92284745
_cell_formula_units_Z   2
loop_
 _symmetry_equiv_pos_site_id
 _symmetry_equiv_pos_as_xyz
  1  'x, y, z'
loop_
 _atom_site_type_symbol
 _atom_site_label
 _atom_site_symmetry_multiplicity
 _atom_site_fract_x
 _atom_site_fract_y
 _atom_site_fract_z
 _atom_site_occupancy
  Li  Li0  1  0.28874200  0.28874200  0.43128000  1
  Li  Li1  1  0.71125800  0.71125800  0.56872000  1
  Li  Li2  1  0.14365800  0.14365800  0.71284200  1
  Li  Li3  1  0.57128200  0.57128200  0.85690800  1
  Li  Li4  1  0.00000000  0.00000000  0.00000000  1
  Li  Li5  1  0.42871800  0.42871800  0.14309200  1
  Li  Li6  1  0.85634200  0.85634200  0.28715800  1
  Li  Li7  1  0.00000000  0.00000000  0.50000000  1
  Co  Co0  1  0.57034100  0.57034100  0.36471700  1
  Co  Co1  1  0.42965900  0.42965900  0.63528300  1
  Co  Co2  1  0.85632500  0.85632500  0.78691200  1
  Co  Co3  1  0.28412000  0.28412000  0.92946500  1
  Co  Co4  1  0.71588000  0.71588000  0.07053500  1
  Co  Co5  1  0.14367500  0.14367500  0.21308800  1
  O  O0  1  0.20059700  0.20059700  0.31528600  1
  O  O1  1  0.64276200  0.64276200  0.45526100  1
  O  O2  1  0.06144100  0.06144100  0.61088700  1
  O  O3  1  0.48439000  0.48439000  0.75006800  1
  O  O4  1  0.90944600  0.90944600  0.89379100  1
  O  O5  1  0.34050300  0.34050300  0.03471600  1
  O  O6  1  0.77428300  0.77428300  0.17475400  1
  O  O7  1  0.35723800  0.35723800  0.54473900  1
  O  O8  1  0.79940300  0.79940300  0.68471400  1
  O  O9  1  0.22571700  0.22571700  0.82524600  1
  O  O10  1  0.65949700  0.65949700  0.96528400  1
  O  O11  1  0.09055400  0.09055400  0.10620900  1
  O  O12  1  0.51561000  0.51561000  0.24993200  1
  O  O13  1  0.93855900  0.93855900  0.38911300  1
loop_
_geom_bond_atom_site_label_1
_geom_bond_atom_site_label_2
_geom_bond_distance
_geom_bond_site_symmetry_2
Li0 O1 2.043289 1_455
Li0 O1 2.043289 1_545
Li0 O7 2.126710 1_555
Li0 O13 2.132998 1_455
Li0 O13 2.132998 1_545
Li0 O0 2.251354 1_555
Li1 O7 2.043289 1_655
Li1 O7 2.043289 1_565
Li1 O1 2.126710 1_555
Li1 O2 2.132998 1_655
Li1 O2 2.132998 1_565
Li1 O8 2.251354 1_555
Li2 O2 2.000939 1_555
Li2 O8 2.119410 1_455
Li2 O8 2.119410 1_545
Li2 O9 2.166530 1_555
Li2 O3 2.173568 1_545
Li2 O3 2.173568 1_455
Li3 O3 2.100310 1_555
Li3 O9 2.121193 1_565
Li3 O9 2.121193 1_655
Li3 O10 2.130857 1_555
Li3 O4 2.189572 1_545
Li3 O4 2.189572 1_455
Li4 O11 2.108117 1_555
Li4 O4 2.108117 1_444
Li4 O5 2.165729 1_545
Li4 O5 2.165729 1_455
Li4 O10 2.165729 1_544
Li4 O10 2.165729 1_454
Li5 O12 2.100310 1_555
Li5 O6 2.121193 1_545
Li5 O6 2.121193 1_455
Li5 O5 2.130857 1_555
Li5 O11 2.189572 1_655
Li5 O11 2.189572 1_565
Li6 O13 2.000939 1_555
Li6 O0 2.119410 1_565
Li6 O0 2.119410 1_655
Li6 O6 2.166530 1_555
Li6 O12 2.173568 1_655
Li6 O12 2.173568 1_565
Li7 O2 2.057438 1_555
Li7 O13 2.057438 1_445
Li7 O7 2.101641 1_545
Li7 O7 2.101641 1_455
Li7 O1 2.101641 1_545
Li7 O1 2.101641 1_455
Co0 O1 1.774179 1_555
Co0 O13 1.952939 1_545
Co0 O13 1.952939 1_455
Co0 O0 2.054441 1_565
Co0 O0 2.054441 1_655
Co0 O12 2.098299 1_555
Co1 O7 1.774179 1_555
Co1 O2 1.952939 1_655
Co1 O2 1.952939 1_565
Co1 O8 2.054441 1_545
Co1 O8 2.054441 1_455
Co1 O3 2.098299 1_555
Co2 O8 1.897320 1_555
Co2 O4 1.961158 1_555
Co2 O3 1.974767 1_655
Co2 O3 1.974767 1_565
Co2 O9 1.996604 1_655
Co2 O9 1.996604 1_565
Co3 O9 1.936170 1_555
Co3 O5 1.945746 1_556
Co3 O10 1.950083 1_455
Co3 O10 1.950083 1_545
Co3 O4 1.953531 1_455
Co3 O4 1.953531 1_545
Co4 O6 1.936170 1_555
Co4 O10 1.945746 1_554
Co4 O5 1.950083 1_565
Co4 O5 1.950083 1_655
Co4 O11 1.953531 1_565
Co4 O11 1.953531 1_655
Co5 O0 1.897320 1_555
Co5 O11 1.961158 1_555
Co5 O12 1.974767 1_455
Co5 O12 1.974767 1_545
Co5 O6 1.996604 1_455
Co5 O6 1.996604 1_545
