# generated using pymatgen
data_Li4Mn3SbO8
_symmetry_space_group_name_H-M   'P 1'
_cell_length_a   6.12893322
_cell_length_b   8.63264661
_cell_length_c   6.26101023
_cell_angle_alpha   90.00300206
_cell_angle_beta   90.06848110
_cell_angle_gamma   91.44339076
_symmetry_Int_Tables_number   1
_chemical_formula_structural   Li4Mn3SbO8
_chemical_formula_sum   'Li8 Mn6 Sb2 O16'
_cell_volume   331.15790786
_cell_formula_units_Z   2
loop_
 _symmetry_equiv_pos_site_id
 _symmetry_equiv_pos_as_xyz
  1  'x, y, z'
loop_
 _atom_site_type_symbol
 _atom_site_label
 _atom_site_symmetry_multiplicity
 _atom_site_fract_x
 _atom_site_fract_y
 _atom_site_fract_z
 _atom_site_occupancy
  Li  Li0  1  0.50488500  0.99882200  0.49953000  1
  Li  Li1  1  0.99442900  0.50132900  0.99993500  1
  Li  Li2  1  0.75002000  0.75002400  0.25008500  1
  Li  Li3  1  0.25007600  0.24999000  0.74999300  1
  Li  Li4  1  0.50023600  0.99979500  0.99506700  1
  Li  Li5  1  0.99984100  0.50029000  0.50496000  1
  Li  Li6  1  0.24933000  0.25004600  0.25081700  1
  Li  Li7  1  0.75009900  0.75000000  0.74996900  1
  Mn  Mn0  1  0.00290900  0.99933400  0.49863400  1
  Mn  Mn1  1  0.49691900  0.50043400  0.00138700  1
  Mn  Mn2  1  0.75018300  0.24995800  0.74980900  1
  Mn  Mn3  1  0.75006600  0.25006500  0.24995100  1
  Mn  Mn4  1  0.25008700  0.75000500  0.75011600  1
  Mn  Mn5  1  0.24989800  0.74990100  0.25011400  1
  Sb  Sb0  1  0.99978200  0.99988100  0.00164200  1
  Sb  Sb1  1  0.50035700  0.50010100  0.49840600  1
  O  O0  1  0.53282300  0.25256400  0.97263900  1
  O  O1  1  0.03253800  0.75189900  0.52631000  1
  O  O2  1  0.96774900  0.24747200  0.52686500  1
  O  O3  1  0.46749400  0.74796300  0.97398900  1
  O  O4  1  0.26557000  0.49362900  0.26987900  1
  O  O5  1  0.76510600  0.00845000  0.76976300  1
  O  O6  1  0.49013500  0.26498600  0.49986500  1
  O  O7  1  0.98977000  0.76449400  0.00074300  1
  O  O8  1  0.76567700  0.99400900  0.23020600  1
  O  O9  1  0.26424100  0.50948800  0.72851300  1
  O  O10  1  0.23438400  0.00633800  0.23025200  1
  O  O11  1  0.73505200  0.49151300  0.73009400  1
  O  O12  1  0.01003500  0.23504000  0.99992500  1
  O  O13  1  0.51020900  0.73556400  0.49935900  1
  O  O14  1  0.73426000  0.50609700  0.26968100  1
  O  O15  1  0.23583900  0.99051400  0.77150200  1
loop_
_geom_bond_atom_site_label_1
_geom_bond_atom_site_label_2
_geom_bond_distance
_geom_bond_site_symmetry_2
Li0 O13 2.273669 1_555
Li0 O6 2.301753 1_565
Li0 O5 2.323797 1_565
Li0 O8 2.325881 1_555
Li0 O10 2.365157 1_565
Li0 O15 2.371622 1_555
Li1 O7 2.272714 1_556
Li1 O12 2.303174 1_655
Li1 O11 2.318502 1_555
Li1 O14 2.325161 1_556
Li1 O4 2.370947 1_656
Li1 O9 2.372402 1_655
Li2 O14 2.109103 1_555
Li2 O8 2.109693 1_555
Li2 O13 2.146606 1_555
Li2 O7 2.146664 1_555
Li2 O3 2.445032 1_554
Li2 O1 2.445585 1_655
Li3 O12 2.150747 1_555
Li3 O6 2.151734 1_555
Li3 O2 2.222292 1_455
Li3 O0 2.222398 1_555
Li3 O15 2.243525 1_545
Li3 O9 2.243697 1_555
Li4 O15 2.140012 1_555
Li4 O5 2.151782 1_565
Li4 O3 2.182152 1_555
Li4 O0 2.190699 1_565
Li4 O8 2.194305 1_556
Li4 O10 2.199251 1_566
Li5 O9 2.139964 1_655
Li5 O11 2.150726 1_555
Li5 O1 2.180324 1_655
Li5 O2 2.190713 1_555
Li5 O14 2.195535 1_555
Li5 O4 2.198300 1_655
Li6 O4 2.105986 1_555
Li6 O10 2.107455 1_555
Li6 O6 2.147354 1_555
Li6 O12 2.149464 1_554
Li6 O2 2.443606 1_455
Li6 O0 2.461337 1_554
Li7 O7 2.150307 1_556
Li7 O13 2.150452 1_555
Li7 O1 2.227577 1_655
Li7 O3 2.229777 1_555
Li7 O5 2.234114 1_565
Li7 O11 2.234465 1_555
Mn0 O1 2.155246 1_555
Mn0 O2 2.165531 1_465
Mn0 O10 2.200293 1_565
Mn0 O8 2.220691 1_455
Mn0 O15 2.227614 1_555
Mn0 O5 2.241375 1_465
Mn1 O3 2.155776 1_554
Mn1 O0 2.164077 1_554
Mn1 O4 2.200303 1_555
Mn1 O14 2.220508 1_555
Mn1 O9 2.226756 1_554
Mn1 O11 2.243387 1_554
Mn2 O0 1.930697 1_555
Mn2 O2 1.932056 1_555
Mn2 O5 2.092891 1_555
Mn2 O11 2.093295 1_555
Mn2 O12 2.238234 1_655
Mn2 O6 2.238409 1_555
Mn3 O2 2.186871 1_555
Mn3 O0 2.187184 1_554
Mn3 O14 2.218234 1_555
Mn3 O8 2.218364 1_545
Mn3 O6 2.240349 1_555
Mn3 O12 2.241073 1_654
Mn4 O3 1.933183 1_555
Mn4 O1 1.933446 1_555
Mn4 O15 2.084566 1_555
Mn4 O9 2.084684 1_555
Mn4 O13 2.244569 1_555
Mn4 O7 2.244881 1_456
Mn5 O1 2.184499 1_555
Mn5 O3 2.185019 1_554
Mn5 O4 2.220257 1_555
Mn5 O10 2.221646 1_565
Mn5 O7 2.235973 1_455
Mn5 O13 2.236061 1_555
O4 Sb1 2.027822 1_555
O5 Sb0 2.045070 1_546
O6 Sb1 2.029075 1_555
O7 Sb0 2.031401 1_555
O8 Sb0 2.027410 1_555
O9 Sb1 2.046285 1_555
O10 Sb0 2.027384 1_445
O11 Sb1 2.044313 1_555
O12 Sb0 2.029464 1_446
O13 Sb1 2.032053 1_555
O14 Sb1 2.027255 1_555
O15 Sb0 2.046164 1_456
