# generated using pymatgen
data_Ba2EuNbO6
_symmetry_space_group_name_H-M   'P 1'
_cell_length_a   6.11469163
_cell_length_b   6.11469163
_cell_length_c   6.11469163
_cell_angle_alpha   120.45278518
_cell_angle_beta   120.45278518
_cell_angle_gamma   89.21752598
_symmetry_Int_Tables_number   1
_chemical_formula_structural   Ba2EuNbO6
_chemical_formula_sum   'Ba2 Eu1 Nb1 O6'
_cell_volume   160.53965078
_cell_formula_units_Z   1
loop_
 _symmetry_equiv_pos_site_id
 _symmetry_equiv_pos_as_xyz
  1  'x, y, z'
loop_
 _atom_site_type_symbol
 _atom_site_label
 _atom_site_symmetry_multiplicity
 _atom_site_fract_x
 _atom_site_fract_y
 _atom_site_fract_z
 _atom_site_occupancy
  Ba  Ba0  1  0.25000000  0.75000000  0.50000000  1
  Ba  Ba1  1  0.75000000  0.25000000  0.50000000  1
  Eu  Eu0  1  0.00000000  0.00000000  0.00000000  1
  Nb  Nb0  1  0.50000000  0.50000000  0.00000000  1
  O  O0  1  0.77425600  0.69099500  0.46525100  1
  O  O1  1  0.69099500  0.22574400  0.91674000  1
  O  O2  1  0.30900500  0.77425600  0.08326000  1
  O  O3  1  0.22574400  0.30900500  0.53474900  1
  O  O4  1  0.26665900  0.26665900  0.00000000  1
  O  O5  1  0.73334100  0.73334100  0.00000000  1
loop_
_geom_bond_atom_site_label_1
_geom_bond_atom_site_label_2
_geom_bond_distance
_geom_bond_site_symmetry_2
Ba0 O1 2.821732 1_565
Ba0 O0 2.821732 1_455
Ba0 O3 2.821732 1_555
Ba0 O2 2.821738 1_555
Ba0 O5 3.039860 1_556
Ba0 O4 3.039860 1_555
Ba0 O5 3.039860 1_455
Ba0 O4 3.039860 1_566
Ba0 O2 3.321551 1_556
Ba0 O1 3.321557 1_454
Ba0 O3 3.321557 1_565
Ba0 O0 3.321557 1_555
Ba1 O2 2.821732 1_545
Ba1 O0 2.821732 1_555
Ba1 O3 2.821732 1_655
Ba1 O1 2.821738 1_555
Ba1 O5 3.039860 1_556
Ba1 O5 3.039860 1_545
Ba1 O4 3.039860 1_555
Ba1 O4 3.039860 1_656
Ba1 O1 3.321551 1_554
Ba1 O2 3.321557 1_656
Ba1 O0 3.321557 1_545
Ba1 O3 3.321557 1_555
Eu0 O5 2.321620 1_445
Eu0 O4 2.321620 1_555
Eu0 O2 2.323941 1_545
Eu0 O1 2.323941 1_454
Eu0 O0 2.323941 1_444
Eu0 O3 2.323941 1_555
Nb0 O2 2.029580 1_555
Nb0 O1 2.029580 1_554
Nb0 O3 2.029581 1_554
Nb0 O0 2.029581 1_555
Nb0 O5 2.031543 1_555
Nb0 O4 2.031543 1_555
