# generated using pymatgen
data_Er5(In2Ni)2
_symmetry_space_group_name_H-M   'P 1'
_cell_length_a   7.10436800
_cell_length_b   15.85853000
_cell_length_c   35.76787600
_cell_angle_alpha   90.00000000
_cell_angle_beta   90.00000000
_cell_angle_gamma   90.00000000
_symmetry_Int_Tables_number   1
_chemical_formula_structural   Er5(In2Ni)2
_chemical_formula_sum   'Er80 In64 Ni32'
_cell_volume   4029.78177842
_cell_formula_units_Z   16
loop_
 _symmetry_equiv_pos_site_id
 _symmetry_equiv_pos_as_xyz
  1  'x, y, z'
loop_
 _atom_site_type_symbol
 _atom_site_label
 _atom_site_symmetry_multiplicity
 _atom_site_fract_x
 _atom_site_fract_y
 _atom_site_fract_z
 _atom_site_occupancy
  Er  Er0_0  1  0.00000000  0.25000000  0.25000000  1
  Er  Er0_1  1  0.00000000  0.25000000  0.75000000  1
  Er  Er0_2  1  0.00000000  0.75000000  0.25000000  1
  Er  Er0_3  1  0.00000000  0.75000000  0.75000000  1
  Er  Er0_4  1  0.50000000  0.25000000  0.25000000  1
  Er  Er0_5  1  0.50000000  0.25000000  0.75000000  1
  Er  Er0_6  1  0.50000000  0.75000000  0.25000000  1
  Er  Er0_7  1  0.50000000  0.75000000  0.75000000  1
  Er  Er1_0  1  0.00000000  0.00000000  0.00000000  1
  Er  Er1_1  1  0.00000000  0.00000000  0.50000000  1
  Er  Er1_2  1  0.00000000  0.50000000  0.00000000  1
  Er  Er1_3  1  0.00000000  0.50000000  0.50000000  1
  Er  Er1_4  1  0.50000000  0.00000000  0.00000000  1
  Er  Er1_5  1  0.50000000  0.00000000  0.50000000  1
  Er  Er1_6  1  0.50000000  0.50000000  0.00000000  1
  Er  Er1_7  1  0.50000000  0.50000000  0.50000000  1
  Er  Er2_0  1  0.00000000  0.37847650  0.14052500  1
  Er  Er2_1  1  0.00000000  0.37847650  0.64052500  1
  Er  Er2_2  1  0.00000000  0.87847650  0.14052500  1
  Er  Er2_3  1  0.00000000  0.87847650  0.64052500  1
  Er  Er2_4  1  0.50000000  0.37847650  0.14052500  1
  Er  Er2_5  1  0.50000000  0.37847650  0.64052500  1
  Er  Er2_6  1  0.50000000  0.87847650  0.14052500  1
  Er  Er2_7  1  0.50000000  0.87847650  0.64052500  1
  Er  Er3_0  1  0.00000000  0.12152350  0.35947500  1
  Er  Er3_1  1  0.00000000  0.12152350  0.85947500  1
  Er  Er3_2  1  0.00000000  0.62152350  0.35947500  1
  Er  Er3_3  1  0.00000000  0.62152350  0.85947500  1
  Er  Er3_4  1  0.50000000  0.12152350  0.35947500  1
  Er  Er3_5  1  0.50000000  0.12152350  0.85947500  1
  Er  Er3_6  1  0.50000000  0.62152350  0.35947500  1
  Er  Er3_7  1  0.50000000  0.62152350  0.85947500  1
  Er  Er4_0  1  0.00000000  0.37152350  0.39052500  1
  Er  Er4_1  1  0.00000000  0.37152350  0.89052500  1
  Er  Er4_2  1  0.00000000  0.87152350  0.39052500  1
  Er  Er4_3  1  0.00000000  0.87152350  0.89052500  1
  Er  Er4_4  1  0.50000000  0.37152350  0.39052500  1
  Er  Er4_5  1  0.50000000  0.37152350  0.89052500  1
  Er  Er4_6  1  0.50000000  0.87152350  0.39052500  1
  Er  Er4_7  1  0.50000000  0.87152350  0.89052500  1
  Er  Er5_0  1  0.00000000  0.12847650  0.10947500  1
  Er  Er5_1  1  0.00000000  0.12847650  0.60947500  1
  Er  Er5_2  1  0.00000000  0.62847650  0.10947500  1
  Er  Er5_3  1  0.00000000  0.62847650  0.60947500  1
  Er  Er5_4  1  0.50000000  0.12847650  0.10947500  1
  Er  Er5_5  1  0.50000000  0.12847650  0.60947500  1
  Er  Er5_6  1  0.50000000  0.62847650  0.10947500  1
  Er  Er5_7  1  0.50000000  0.62847650  0.60947500  1
  Er  Er6_0  1  0.00000000  0.31142000  0.04430900  1
  Er  Er6_1  1  0.00000000  0.31142000  0.54430900  1
  Er  Er6_2  1  0.00000000  0.81142000  0.04430900  1
  Er  Er6_3  1  0.00000000  0.81142000  0.54430900  1
  Er  Er6_4  1  0.50000000  0.31142000  0.04430900  1
  Er  Er6_5  1  0.50000000  0.31142000  0.54430900  1
  Er  Er6_6  1  0.50000000  0.81142000  0.04430900  1
  Er  Er6_7  1  0.50000000  0.81142000  0.54430900  1
  Er  Er7_0  1  0.00000000  0.18858000  0.45569100  1
  Er  Er7_1  1  0.00000000  0.18858000  0.95569100  1
  Er  Er7_2  1  0.00000000  0.68858000  0.45569100  1
  Er  Er7_3  1  0.00000000  0.68858000  0.95569100  1
  Er  Er7_4  1  0.50000000  0.18858000  0.45569100  1
  Er  Er7_5  1  0.50000000  0.18858000  0.95569100  1
  Er  Er7_6  1  0.50000000  0.68858000  0.45569100  1
  Er  Er7_7  1  0.50000000  0.68858000  0.95569100  1
  Er  Er8_0  1  0.00000000  0.43858000  0.29430900  1
  Er  Er8_1  1  0.00000000  0.43858000  0.79430900  1
  Er  Er8_2  1  0.00000000  0.93858000  0.29430900  1
  Er  Er8_3  1  0.00000000  0.93858000  0.79430900  1
  Er  Er8_4  1  0.50000000  0.43858000  0.29430900  1
  Er  Er8_5  1  0.50000000  0.43858000  0.79430900  1
  Er  Er8_6  1  0.50000000  0.93858000  0.29430900  1
  Er  Er8_7  1  0.50000000  0.93858000  0.79430900  1
  Er  Er9_0  1  0.00000000  0.06142000  0.20569100  1
  Er  Er9_1  1  0.00000000  0.06142000  0.70569100  1
  Er  Er9_2  1  0.00000000  0.56142000  0.20569100  1
  Er  Er9_3  1  0.00000000  0.56142000  0.70569100  1
  Er  Er9_4  1  0.50000000  0.06142000  0.20569100  1
  Er  Er9_5  1  0.50000000  0.06142000  0.70569100  1
  Er  Er9_6  1  0.50000000  0.56142000  0.20569100  1
  Er  Er9_7  1  0.50000000  0.56142000  0.70569100  1
  In  In0_0  1  0.25000000  0.35030600  0.46643200  1
  In  In0_1  1  0.25000000  0.35030600  0.96643200  1
  In  In0_2  1  0.25000000  0.85030600  0.46643200  1
  In  In0_3  1  0.25000000  0.85030600  0.96643200  1
  In  In0_4  1  0.75000000  0.35030600  0.46643200  1
  In  In0_5  1  0.75000000  0.35030600  0.96643200  1
  In  In0_6  1  0.75000000  0.85030600  0.46643200  1
  In  In0_7  1  0.75000000  0.85030600  0.96643200  1
  In  In1_0  1  0.25000000  0.14969400  0.03356800  1
  In  In1_1  1  0.25000000  0.14969400  0.53356800  1
  In  In1_2  1  0.25000000  0.64969400  0.03356800  1
  In  In1_3  1  0.25000000  0.64969400  0.53356800  1
  In  In1_4  1  0.75000000  0.14969400  0.03356800  1
  In  In1_5  1  0.75000000  0.14969400  0.53356800  1
  In  In1_6  1  0.75000000  0.64969400  0.03356800  1
  In  In1_7  1  0.75000000  0.64969400  0.53356800  1
  In  In2_0  1  0.25000000  0.39969400  0.21643200  1
  In  In2_1  1  0.25000000  0.39969400  0.71643200  1
  In  In2_2  1  0.25000000  0.89969400  0.21643200  1
  In  In2_3  1  0.25000000  0.89969400  0.71643200  1
  In  In2_4  1  0.75000000  0.39969400  0.21643200  1
  In  In2_5  1  0.75000000  0.39969400  0.71643200  1
  In  In2_6  1  0.75000000  0.89969400  0.21643200  1
  In  In2_7  1  0.75000000  0.89969400  0.71643200  1
  In  In3_0  1  0.25000000  0.10030600  0.28356800  1
  In  In3_1  1  0.25000000  0.10030600  0.78356800  1
  In  In3_2  1  0.25000000  0.60030600  0.28356800  1
  In  In3_3  1  0.25000000  0.60030600  0.78356800  1
  In  In3_4  1  0.75000000  0.10030600  0.28356800  1
  In  In3_5  1  0.75000000  0.10030600  0.78356800  1
  In  In3_6  1  0.75000000  0.60030600  0.28356800  1
  In  In3_7  1  0.75000000  0.60030600  0.78356800  1
  In  In4_0  1  0.25000000  0.28361300  0.32665600  1
  In  In4_1  1  0.25000000  0.28361300  0.82665600  1
  In  In4_2  1  0.25000000  0.78361300  0.32665600  1
  In  In4_3  1  0.25000000  0.78361300  0.82665600  1
  In  In4_4  1  0.75000000  0.28361300  0.32665600  1
  In  In4_5  1  0.75000000  0.28361300  0.82665600  1
  In  In4_6  1  0.75000000  0.78361300  0.32665600  1
  In  In4_7  1  0.75000000  0.78361300  0.82665600  1
  In  In5_0  1  0.25000000  0.21638700  0.17334400  1
  In  In5_1  1  0.25000000  0.21638700  0.67334400  1
  In  In5_2  1  0.25000000  0.71638700  0.17334400  1
  In  In5_3  1  0.25000000  0.71638700  0.67334400  1
  In  In5_4  1  0.75000000  0.21638700  0.17334400  1
  In  In5_5  1  0.75000000  0.21638700  0.67334400  1
  In  In5_6  1  0.75000000  0.71638700  0.17334400  1
  In  In5_7  1  0.75000000  0.71638700  0.67334400  1
  In  In6_0  1  0.25000000  0.46638700  0.07665600  1
  In  In6_1  1  0.25000000  0.46638700  0.57665600  1
  In  In6_2  1  0.25000000  0.96638700  0.07665600  1
  In  In6_3  1  0.25000000  0.96638700  0.57665600  1
  In  In6_4  1  0.75000000  0.46638700  0.07665600  1
  In  In6_5  1  0.75000000  0.46638700  0.57665600  1
  In  In6_6  1  0.75000000  0.96638700  0.07665600  1
  In  In6_7  1  0.75000000  0.96638700  0.57665600  1
  In  In7_0  1  0.25000000  0.03361300  0.42334400  1
  In  In7_1  1  0.25000000  0.03361300  0.92334400  1
  In  In7_2  1  0.25000000  0.53361300  0.42334400  1
  In  In7_3  1  0.25000000  0.53361300  0.92334400  1
  In  In7_4  1  0.75000000  0.03361300  0.42334400  1
  In  In7_5  1  0.75000000  0.03361300  0.92334400  1
  In  In7_6  1  0.75000000  0.53361300  0.42334400  1
  In  In7_7  1  0.75000000  0.53361300  0.92334400  1
  Ni  Ni0_0  1  0.25000000  0.27061000  0.09841300  1
  Ni  Ni0_1  1  0.25000000  0.27061000  0.59841300  1
  Ni  Ni0_2  1  0.25000000  0.77061000  0.09841300  1
  Ni  Ni0_3  1  0.25000000  0.77061000  0.59841300  1
  Ni  Ni0_4  1  0.75000000  0.27061000  0.09841300  1
  Ni  Ni0_5  1  0.75000000  0.27061000  0.59841300  1
  Ni  Ni0_6  1  0.75000000  0.77061000  0.09841300  1
  Ni  Ni0_7  1  0.75000000  0.77061000  0.59841300  1
  Ni  Ni1_0  1  0.25000000  0.22939000  0.40158700  1
  Ni  Ni1_1  1  0.25000000  0.22939000  0.90158700  1
  Ni  Ni1_2  1  0.25000000  0.72939000  0.40158700  1
  Ni  Ni1_3  1  0.25000000  0.72939000  0.90158700  1
  Ni  Ni1_4  1  0.75000000  0.22939000  0.40158700  1
  Ni  Ni1_5  1  0.75000000  0.22939000  0.90158700  1
  Ni  Ni1_6  1  0.75000000  0.72939000  0.40158700  1
  Ni  Ni1_7  1  0.75000000  0.72939000  0.90158700  1
  Ni  Ni2_0  1  0.25000000  0.47939000  0.34841300  1
  Ni  Ni2_1  1  0.25000000  0.47939000  0.84841300  1
  Ni  Ni2_2  1  0.25000000  0.97939000  0.34841300  1
  Ni  Ni2_3  1  0.25000000  0.97939000  0.84841300  1
  Ni  Ni2_4  1  0.75000000  0.47939000  0.34841300  1
  Ni  Ni2_5  1  0.75000000  0.47939000  0.84841300  1
  Ni  Ni2_6  1  0.75000000  0.97939000  0.34841300  1
  Ni  Ni2_7  1  0.75000000  0.97939000  0.84841300  1
  Ni  Ni3_0  1  0.25000000  0.02061000  0.15158700  1
  Ni  Ni3_1  1  0.25000000  0.02061000  0.65158700  1
  Ni  Ni3_2  1  0.25000000  0.52061000  0.15158700  1
  Ni  Ni3_3  1  0.25000000  0.52061000  0.65158700  1
  Ni  Ni3_4  1  0.75000000  0.02061000  0.15158700  1
  Ni  Ni3_5  1  0.75000000  0.02061000  0.65158700  1
  Ni  Ni3_6  1  0.75000000  0.52061000  0.15158700  1
  Ni  Ni3_7  1  0.75000000  0.52061000  0.65158700  1
loop_
_geom_bond_atom_site_label_1
_geom_bond_atom_site_label_2
_geom_bond_distance
_geom_bond_site_symmetry_2
Er0_0 In3_0 3.198688 1_555
Er0_0 In3_4 3.198688 1_455
Er0_0 In2_0 3.198688 1_555
Er0_0 In2_4 3.198688 1_455
Er0_0 In5_0 3.310021 1_555
Er0_0 In5_4 3.310021 1_455
Er0_0 In4_0 3.310021 1_555
Er0_0 In4_4 3.310021 1_455
Er0_0 Er8_0 3.384584 1_555
Er0_0 Er9_0 3.384584 1_555
Er0_0 Er0_4 3.552184 1_555
Er0_0 Er0_4 3.552184 1_455
Er0_1 In3_1 3.198688 1_555
Er0_1 In3_5 3.198688 1_455
Er0_1 In2_5 3.198688 1_455
Er0_1 In2_1 3.198688 1_555
Er0_1 In4_5 3.310021 1_455
Er0_1 In4_1 3.310021 1_555
Er0_1 In5_5 3.310021 1_455
Er0_1 In5_1 3.310021 1_555
Er0_1 Er8_1 3.384584 1_555
Er0_1 Er9_1 3.384584 1_555
Er0_1 Er0_5 3.552184 1_455
Er0_1 Er0_5 3.552184 1_555
Er0_2 In3_6 3.198688 1_455
Er0_2 In3_2 3.198688 1_555
Er0_2 In2_6 3.198688 1_455
Er0_2 In2_2 3.198688 1_555
Er0_2 In5_2 3.310021 1_555
Er0_2 In4_6 3.310021 1_455
Er0_2 In5_6 3.310021 1_455
Er0_2 In4_2 3.310021 1_555
Er0_2 Er8_2 3.384584 1_555
Er0_2 Er9_2 3.384584 1_555
Er0_2 Er0_6 3.552184 1_455
Er0_2 Er0_6 3.552184 1_555
Er0_3 In3_7 3.198688 1_455
Er0_3 In3_3 3.198688 1_555
Er0_3 In2_3 3.198688 1_555
Er0_3 In2_7 3.198688 1_455
Er0_3 In5_7 3.310021 1_455
Er0_3 In4_3 3.310021 1_555
Er0_3 In4_7 3.310021 1_455
Er0_3 In5_3 3.310021 1_555
Er0_3 Er8_3 3.384584 1_555
Er0_3 Er9_3 3.384584 1_555
Er0_3 Er0_7 3.552184 1_555
Er0_3 Er0_7 3.552184 1_455
Er0_4 In3_0 3.198688 1_555
Er0_4 In3_4 3.198688 1_555
Er0_4 In2_0 3.198688 1_555
Er0_4 In2_4 3.198688 1_555
Er0_4 In5_4 3.310021 1_555
Er0_4 In5_0 3.310021 1_555
Er0_4 In4_0 3.310021 1_555
Er0_4 In4_4 3.310021 1_555
Er0_4 Er8_4 3.384584 1_555
Er0_4 Er9_4 3.384584 1_555
Er0_5 In3_1 3.198688 1_555
Er0_5 In3_5 3.198688 1_555
Er0_5 In2_1 3.198688 1_555
Er0_5 In2_5 3.198688 1_555
Er0_5 In4_5 3.310021 1_555
Er0_5 In4_1 3.310021 1_555
Er0_5 In5_1 3.310021 1_555
Er0_5 In5_5 3.310021 1_555
Er0_5 Er8_5 3.384584 1_555
Er0_5 Er9_5 3.384584 1_555
Er0_6 In3_2 3.198688 1_555
Er0_6 In3_6 3.198688 1_555
Er0_6 In2_6 3.198688 1_555
Er0_6 In2_2 3.198688 1_555
Er0_6 In4_6 3.310021 1_555
Er0_6 In5_2 3.310021 1_555
Er0_6 In5_6 3.310021 1_555
Er0_6 In4_2 3.310021 1_555
Er0_6 Er8_6 3.384584 1_555
Er0_6 Er9_6 3.384584 1_555
Er0_7 In3_7 3.198688 1_555
Er0_7 In3_3 3.198688 1_555
Er0_7 In2_3 3.198688 1_555
Er0_7 In2_7 3.198688 1_555
Er0_7 In4_7 3.310021 1_555
Er0_7 In4_3 3.310021 1_555
Er0_7 In5_3 3.310021 1_555
Er0_7 In5_7 3.310021 1_555
Er0_7 Er8_7 3.384584 1_555
Er0_7 Er9_7 3.384584 1_555
Er1_0 In1_4 3.198688 1_455
Er1_0 In1_0 3.198688 1_555
Er1_0 In0_7 3.198688 1_444
Er1_0 In0_3 3.198688 1_544
Er1_0 In6_2 3.310021 1_545
Er1_0 In6_6 3.310021 1_445
Er1_0 In7_1 3.310021 1_554
Er1_0 In7_5 3.310021 1_454
Er1_0 Er6_2 3.384584 1_545
Er1_0 Er7_1 3.384584 1_554
Er1_0 Er1_4 3.552184 1_455
Er1_0 Er1_4 3.552184 1_555
Er1_1 In1_5 3.198688 1_455
Er1_1 In1_1 3.198688 1_555
Er1_1 In0_6 3.198688 1_445
Er1_1 In0_2 3.198688 1_545
Er1_1 In7_0 3.310021 1_555
Er1_1 In7_4 3.310021 1_455
Er1_1 In6_3 3.310021 1_545
Er1_1 In6_7 3.310021 1_445
Er1_1 Er6_3 3.384584 1_545
Er1_1 Er7_0 3.384584 1_555
Er1_1 Er1_5 3.552184 1_455
Er1_1 Er1_5 3.552184 1_555
Er1_2 In1_2 3.198688 1_555
Er1_2 In1_6 3.198688 1_455
Er1_2 In0_1 3.198688 1_554
Er1_2 In0_5 3.198688 1_454
Er1_2 In6_0 3.310021 1_555
Er1_2 In6_4 3.310021 1_455
Er1_2 In7_7 3.310021 1_454
Er1_2 In7_3 3.310021 1_554
Er1_2 Er6_0 3.384584 1_555
Er1_2 Er7_3 3.384584 1_554
Er1_2 Er1_6 3.552184 1_455
Er1_2 Er1_6 3.552184 1_555
Er1_3 In1_3 3.198688 1_555
Er1_3 In1_7 3.198688 1_455
Er1_3 In0_0 3.198688 1_555
Er1_3 In0_4 3.198688 1_455
Er1_3 In7_6 3.310021 1_455
Er1_3 In7_2 3.310021 1_555
Er1_3 In6_5 3.310021 1_455
Er1_3 In6_1 3.310021 1_555
Er1_3 Er6_1 3.384584 1_555
Er1_3 Er7_2 3.384584 1_555
Er1_3 Er1_7 3.552184 1_455
Er1_3 Er1_7 3.552184 1_555
Er1_4 In1_0 3.198688 1_555
Er1_4 In1_4 3.198688 1_555
Er1_4 In0_3 3.198688 1_544
Er1_4 In0_7 3.198688 1_544
Er1_4 In6_2 3.310021 1_545
Er1_4 In6_6 3.310021 1_545
Er1_4 In7_1 3.310021 1_554
Er1_4 In7_5 3.310021 1_554
Er1_4 Er6_6 3.384584 1_545
Er1_4 Er7_5 3.384584 1_554
Er1_5 In1_5 3.198688 1_555
Er1_5 In1_1 3.198688 1_555
Er1_5 In0_2 3.198688 1_545
Er1_5 In0_6 3.198688 1_545
Er1_5 In7_0 3.310021 1_555
Er1_5 In7_4 3.310021 1_555
Er1_5 In6_3 3.310021 1_545
Er1_5 In6_7 3.310021 1_545
Er1_5 Er6_7 3.384584 1_545
Er1_5 Er7_4 3.384584 1_555
Er1_6 In1_2 3.198688 1_555
Er1_6 In1_6 3.198688 1_555
Er1_6 In0_1 3.198688 1_554
Er1_6 In0_5 3.198688 1_554
Er1_6 In6_4 3.310021 1_555
Er1_6 In6_0 3.310021 1_555
Er1_6 In7_3 3.310021 1_554
Er1_6 In7_7 3.310021 1_554
Er1_6 Er6_4 3.384584 1_555
Er1_6 Er7_7 3.384584 1_554
Er1_7 In1_3 3.198688 1_555
Er1_7 In1_7 3.198688 1_555
Er1_7 In0_0 3.198688 1_555
Er1_7 In0_4 3.198688 1_555
Er1_7 In7_6 3.310021 1_555
Er1_7 In7_2 3.310021 1_555
Er1_7 In6_1 3.310021 1_555
Er1_7 In6_5 3.310021 1_555
Er1_7 Er6_5 3.384584 1_555
Er1_7 Er7_6 3.384584 1_555
Er2_0 Ni0_0 2.889546 1_555
Er2_0 Ni0_4 2.889546 1_455
Er2_0 Ni3_6 2.896843 1_455
Er2_0 Ni3_2 2.896843 1_555
Er2_0 In6_4 3.211986 1_455
Er2_0 In6_0 3.211986 1_555
Er2_0 In2_0 3.261766 1_555
Er2_0 In2_4 3.261766 1_455
Er2_0 In5_0 3.337655 1_555
Er2_0 In5_4 3.337655 1_455
Er2_1 Ni0_1 2.889546 1_555
Er2_1 Ni0_5 2.889546 1_455
Er2_1 Ni3_3 2.896843 1_555
Er2_1 Ni3_7 2.896843 1_455
Er2_1 In6_5 3.211986 1_455
Er2_1 In6_1 3.211986 1_555
Er2_1 In2_5 3.261766 1_455
Er2_1 In2_1 3.261766 1_555
Er2_1 In5_1 3.337655 1_555
Er2_1 In5_5 3.337655 1_455
Er2_2 Ni0_6 2.889546 1_455
Er2_2 Ni0_2 2.889546 1_555
Er2_2 Ni3_0 2.896843 1_565
Er2_2 Ni3_4 2.896843 1_465
Er2_2 In6_2 3.211986 1_555
Er2_2 In6_6 3.211986 1_455
Er2_2 In2_2 3.261766 1_555
Er2_2 In2_6 3.261766 1_455
Er2_2 In5_2 3.337655 1_555
Er2_2 In5_6 3.337655 1_455
Er2_3 Ni0_7 2.889546 1_455
Er2_3 Ni0_3 2.889546 1_555
Er2_3 Ni3_1 2.896843 1_565
Er2_3 Ni3_5 2.896843 1_465
Er2_3 In6_3 3.211986 1_555
Er2_3 In6_7 3.211986 1_455
Er2_3 In2_7 3.261766 1_455
Er2_3 In2_3 3.261766 1_555
Er2_3 In5_3 3.337655 1_555
Er2_3 In5_7 3.337655 1_455
Er2_4 Ni0_0 2.889546 1_555
Er2_4 Ni0_4 2.889546 1_555
Er2_4 Ni3_2 2.896843 1_555
Er2_4 Ni3_6 2.896843 1_555
Er2_4 In6_4 3.211986 1_555
Er2_4 In6_0 3.211986 1_555
Er2_4 In2_0 3.261766 1_555
Er2_4 In2_4 3.261766 1_555
Er2_4 In5_0 3.337655 1_555
Er2_4 In5_4 3.337655 1_555
Er2_5 Ni0_5 2.889546 1_555
Er2_5 Ni0_1 2.889546 1_555
Er2_5 Ni3_3 2.896843 1_555
Er2_5 Ni3_7 2.896843 1_555
Er2_5 In6_5 3.211986 1_555
Er2_5 In6_1 3.211986 1_555
Er2_5 In2_5 3.261766 1_555
Er2_5 In2_1 3.261766 1_555
Er2_5 In5_1 3.337655 1_555
Er2_5 In5_5 3.337655 1_555
Er2_6 Ni0_2 2.889546 1_555
Er2_6 Ni0_6 2.889546 1_555
Er2_6 Ni3_0 2.896843 1_565
Er2_6 Ni3_4 2.896843 1_565
Er2_6 In6_2 3.211986 1_555
Er2_6 In6_6 3.211986 1_555
Er2_6 In2_2 3.261766 1_555
Er2_6 In2_6 3.261766 1_555
Er2_6 In5_2 3.337655 1_555
Er2_6 In5_6 3.337655 1_555
Er2_7 Ni0_7 2.889546 1_555
Er2_7 Ni0_3 2.889546 1_555
Er2_7 Ni3_1 2.896843 1_565
Er2_7 Ni3_5 2.896843 1_565
Er2_7 In6_3 3.211986 1_555
Er2_7 In6_7 3.211986 1_555
Er2_7 In2_3 3.261766 1_555
Er2_7 In2_7 3.261766 1_555
Er2_7 In5_3 3.337655 1_555
Er2_7 In5_7 3.337655 1_555
Er3_0 Ni1_0 2.889546 1_555
Er3_0 Ni1_4 2.889546 1_455
Er3_0 Ni2_2 2.896843 1_545
Er3_0 Ni2_6 2.896843 1_445
Er3_0 In7_0 3.211986 1_555
Er3_0 In7_4 3.211986 1_455
Er3_0 In3_0 3.261766 1_555
Er3_0 In3_4 3.261766 1_455
Er3_0 In4_0 3.337655 1_555
Er3_0 In4_4 3.337655 1_455
Er3_1 Ni1_5 2.889546 1_455
Er3_1 Ni1_1 2.889546 1_555
Er3_1 Ni2_3 2.896843 1_545
Er3_1 Ni2_7 2.896843 1_445
Er3_1 In7_1 3.211986 1_555
Er3_1 In7_5 3.211986 1_455
Er3_1 In3_1 3.261766 1_555
Er3_1 In3_5 3.261766 1_455
Er3_1 In4_1 3.337655 1_555
Er3_1 In4_5 3.337655 1_455
Er3_2 Ni1_2 2.889546 1_555
Er3_2 Ni1_6 2.889546 1_455
Er3_2 Ni2_0 2.896843 1_555
Er3_2 Ni2_4 2.896843 1_455
Er3_2 In7_6 3.211986 1_455
Er3_2 In7_2 3.211986 1_555
Er3_2 In3_6 3.261766 1_455
Er3_2 In3_2 3.261766 1_555
Er3_2 In4_6 3.337655 1_455
Er3_2 In4_2 3.337655 1_555
Er3_3 Ni1_3 2.889546 1_555
Er3_3 Ni1_7 2.889546 1_455
Er3_3 Ni2_1 2.896843 1_555
Er3_3 Ni2_5 2.896843 1_455
Er3_3 In7_3 3.211986 1_555
Er3_3 In7_7 3.211986 1_455
Er3_3 In3_7 3.261766 1_455
Er3_3 In3_3 3.261766 1_555
Er3_3 In4_3 3.337655 1_555
Er3_3 In4_7 3.337655 1_455
Er3_4 Ni1_4 2.889546 1_555
Er3_4 Ni1_0 2.889546 1_555
Er3_4 Ni2_2 2.896843 1_545
Er3_4 Ni2_6 2.896843 1_545
Er3_4 In7_0 3.211986 1_555
Er3_4 In7_4 3.211986 1_555
Er3_4 In3_0 3.261766 1_555
Er3_4 In3_4 3.261766 1_555
Er3_4 In4_0 3.337655 1_555
Er3_4 In4_4 3.337655 1_555
Er3_5 Ni1_5 2.889546 1_555
Er3_5 Ni1_1 2.889546 1_555
Er3_5 Ni2_7 2.896843 1_545
Er3_5 Ni2_3 2.896843 1_545
Er3_5 In7_1 3.211986 1_555
Er3_5 In7_5 3.211986 1_555
Er3_5 In3_1 3.261766 1_555
Er3_5 In3_5 3.261766 1_555
Er3_5 In4_1 3.337655 1_555
Er3_5 In4_5 3.337655 1_555
Er3_6 Ni1_2 2.889546 1_555
Er3_6 Ni1_6 2.889546 1_555
Er3_6 Ni2_0 2.896843 1_555
Er3_6 Ni2_4 2.896843 1_555
Er3_6 In7_6 3.211986 1_555
Er3_6 In7_2 3.211986 1_555
Er3_6 In3_6 3.261766 1_555
Er3_6 In3_2 3.261766 1_555
Er3_6 In4_6 3.337655 1_555
Er3_6 In4_2 3.337655 1_555
Er3_7 Ni1_3 2.889546 1_555
Er3_7 Ni1_7 2.889546 1_555
Er3_7 Ni2_1 2.896843 1_555
Er3_7 Ni2_5 2.896843 1_555
Er3_7 In7_3 3.211986 1_555
Er3_7 In7_7 3.211986 1_555
Er3_7 In3_7 3.261766 1_555
Er3_7 In3_3 3.261766 1_555
Er3_7 In4_7 3.337655 1_555
Er3_7 In4_3 3.337655 1_555
Er4_0 Ni2_0 2.889546 1_555
Er4_0 Ni2_4 2.889546 1_455
Er4_0 Ni1_0 2.896843 1_555
Er4_0 Ni1_4 2.896843 1_455
Er4_0 In4_0 3.211986 1_555
Er4_0 In4_4 3.211986 1_455
Er4_0 In0_0 3.261766 1_555
Er4_0 In0_4 3.261766 1_455
Er4_0 In7_2 3.337655 1_555
Er4_0 In7_6 3.337655 1_455
Er4_1 Ni2_1 2.889546 1_555
Er4_1 Ni2_5 2.889546 1_455
Er4_1 Ni1_1 2.896843 1_555
Er4_1 Ni1_5 2.896843 1_455
Er4_1 In4_1 3.211986 1_555
Er4_1 In4_5 3.211986 1_455
Er4_1 In0_5 3.261766 1_455
Er4_1 In0_1 3.261766 1_555
Er4_1 In7_7 3.337655 1_455
Er4_1 In7_3 3.337655 1_555
Er4_2 Ni2_2 2.889546 1_555
Er4_2 Ni2_6 2.889546 1_455
Er4_2 Ni1_2 2.896843 1_555
Er4_2 Ni1_6 2.896843 1_455
Er4_2 In4_2 3.211986 1_555
Er4_2 In4_6 3.211986 1_455
Er4_2 In0_2 3.261766 1_555
Er4_2 In0_6 3.261766 1_455
Er4_2 In7_4 3.337655 1_465
Er4_2 In7_0 3.337655 1_565
Er4_3 Ni2_7 2.889546 1_455
Er4_3 Ni2_3 2.889546 1_555
Er4_3 Ni1_3 2.896843 1_555
Er4_3 Ni1_7 2.896843 1_455
Er4_3 In4_3 3.211986 1_555
Er4_3 In4_7 3.211986 1_455
Er4_3 In0_3 3.261766 1_555
Er4_3 In0_7 3.261766 1_455
Er4_3 In7_5 3.337655 1_465
Er4_3 In7_1 3.337655 1_565
Er4_4 Ni2_0 2.889546 1_555
Er4_4 Ni2_4 2.889546 1_555
Er4_4 Ni1_0 2.896843 1_555
Er4_4 Ni1_4 2.896843 1_555
Er4_4 In4_0 3.211986 1_555
Er4_4 In4_4 3.211986 1_555
Er4_4 In0_0 3.261766 1_555
Er4_4 In0_4 3.261766 1_555
Er4_4 In7_2 3.337655 1_555
Er4_4 In7_6 3.337655 1_555
Er4_5 Ni2_1 2.889546 1_555
Er4_5 Ni2_5 2.889546 1_555
Er4_5 Ni1_1 2.896843 1_555
Er4_5 Ni1_5 2.896843 1_555
Er4_5 In4_1 3.211986 1_555
Er4_5 In4_5 3.211986 1_555
Er4_5 In0_1 3.261766 1_555
Er4_5 In0_5 3.261766 1_555
Er4_5 In7_7 3.337655 1_555
Er4_5 In7_3 3.337655 1_555
Er4_6 Ni2_6 2.889546 1_555
Er4_6 Ni2_2 2.889546 1_555
Er4_6 Ni1_2 2.896843 1_555
Er4_6 Ni1_6 2.896843 1_555
Er4_6 In4_2 3.211986 1_555
Er4_6 In4_6 3.211986 1_555
Er4_6 In0_6 3.261766 1_555
Er4_6 In0_2 3.261766 1_555
Er4_6 In7_4 3.337655 1_565
Er4_6 In7_0 3.337655 1_565
Er4_7 Ni2_7 2.889546 1_555
Er4_7 Ni2_3 2.889546 1_555
Er4_7 Ni1_3 2.896843 1_555
Er4_7 Ni1_7 2.896843 1_555
Er4_7 In4_7 3.211986 1_555
Er4_7 In4_3 3.211986 1_555
Er4_7 In0_7 3.261766 1_555
Er4_7 In0_3 3.261766 1_555
Er4_7 In7_1 3.337655 1_565
Er4_7 In7_5 3.337655 1_565
Er5_0 Ni3_0 2.889546 1_555
Er5_0 Ni3_4 2.889546 1_455
Er5_0 Ni0_0 2.896843 1_555
Er5_0 Ni0_4 2.896843 1_455
Er5_0 In5_0 3.211986 1_555
Er5_0 In5_4 3.211986 1_455
Er5_0 In1_0 3.261766 1_555
Er5_0 In1_4 3.261766 1_455
Er5_0 In6_6 3.337655 1_445
Er5_0 In6_2 3.337655 1_545
Er5_1 Ni3_1 2.889546 1_555
Er5_1 Ni3_5 2.889546 1_455
Er5_1 Ni0_1 2.896843 1_555
Er5_1 Ni0_5 2.896843 1_455
Er5_1 In5_1 3.211986 1_555
Er5_1 In5_5 3.211986 1_455
Er5_1 In1_5 3.261766 1_455
Er5_1 In1_1 3.261766 1_555
Er5_1 In6_7 3.337655 1_445
Er5_1 In6_3 3.337655 1_545
Er5_2 Ni3_6 2.889546 1_455
Er5_2 Ni3_2 2.889546 1_555
Er5_2 Ni0_6 2.896843 1_455
Er5_2 Ni0_2 2.896843 1_555
Er5_2 In5_2 3.211986 1_555
Er5_2 In5_6 3.211986 1_455
Er5_2 In1_6 3.261766 1_455
Er5_2 In1_2 3.261766 1_555
Er5_2 In6_4 3.337655 1_455
Er5_2 In6_0 3.337655 1_555
Er5_3 Ni3_3 2.889546 1_555
Er5_3 Ni3_7 2.889546 1_455
Er5_3 Ni0_3 2.896843 1_555
Er5_3 Ni0_7 2.896843 1_455
Er5_3 In5_7 3.211986 1_455
Er5_3 In5_3 3.211986 1_555
Er5_3 In1_3 3.261766 1_555
Er5_3 In1_7 3.261766 1_455
Er5_3 In6_1 3.337655 1_555
Er5_3 In6_5 3.337655 1_455
Er5_4 Ni3_0 2.889546 1_555
Er5_4 Ni3_4 2.889546 1_555
Er5_4 Ni0_0 2.896843 1_555
Er5_4 Ni0_4 2.896843 1_555
Er5_4 In5_4 3.211986 1_555
Er5_4 In5_0 3.211986 1_555
Er5_4 In1_4 3.261766 1_555
Er5_4 In1_0 3.261766 1_555
Er5_4 In6_2 3.337655 1_545
Er5_4 In6_6 3.337655 1_545
Er5_5 Ni3_5 2.889546 1_555
Er5_5 Ni3_1 2.889546 1_555
Er5_5 Ni0_1 2.896843 1_555
Er5_5 Ni0_5 2.896843 1_555
Er5_5 In5_1 3.211986 1_555
Er5_5 In5_5 3.211986 1_555
Er5_5 In1_1 3.261766 1_555
Er5_5 In1_5 3.261766 1_555
Er5_5 In6_3 3.337655 1_545
Er5_5 In6_7 3.337655 1_545
Er5_6 Ni3_2 2.889546 1_555
Er5_6 Ni3_6 2.889546 1_555
Er5_6 Ni0_6 2.896843 1_555
Er5_6 Ni0_2 2.896843 1_555
Er5_6 In5_2 3.211986 1_555
Er5_6 In5_6 3.211986 1_555
Er5_6 In1_6 3.261766 1_555
Er5_6 In1_2 3.261766 1_555
Er5_6 In6_0 3.337655 1_555
Er5_6 In6_4 3.337655 1_555
Er5_7 Ni3_3 2.889546 1_555
Er5_7 Ni3_7 2.889546 1_555
Er5_7 Ni0_3 2.896843 1_555
Er5_7 Ni0_7 2.896843 1_555
Er5_7 In5_7 3.211986 1_555
Er5_7 In5_3 3.211986 1_555
Er5_7 In1_3 3.261766 1_555
Er5_7 In1_7 3.261766 1_555
Er5_7 In6_1 3.337655 1_555
Er5_7 In6_5 3.337655 1_555
Er6_0 Ni0_0 2.705235 1_555
Er6_0 Ni0_4 2.705235 1_455
Er6_0 In1_4 3.143242 1_455
Er6_0 In1_0 3.143242 1_555
Er6_0 In6_4 3.245406 1_455
Er6_0 In6_0 3.245406 1_555
Er6_0 In0_5 3.360621 1_454
Er6_0 In0_1 3.360621 1_554
Er6_1 Ni0_1 2.705235 1_555
Er6_1 Ni0_5 2.705235 1_455
Er6_1 In1_1 3.143242 1_555
Er6_1 In1_5 3.143242 1_455
Er6_1 In6_1 3.245406 1_555
Er6_1 In6_5 3.245406 1_455
Er6_1 In0_0 3.360621 1_555
Er6_1 In0_4 3.360621 1_455
Er6_2 Ni0_2 2.705235 1_555
Er6_2 Ni0_6 2.705235 1_455
Er6_2 In1_2 3.143242 1_555
Er6_2 In1_6 3.143242 1_455
Er6_2 In6_2 3.245406 1_555
Er6_2 In6_6 3.245406 1_455
Er6_2 In0_7 3.360621 1_454
Er6_2 In0_3 3.360621 1_554
Er6_3 Ni0_3 2.705235 1_555
Er6_3 Ni0_7 2.705235 1_455
Er6_3 In1_3 3.143242 1_555
Er6_3 In1_7 3.143242 1_455
Er6_3 In6_3 3.245406 1_555
Er6_3 In6_7 3.245406 1_455
Er6_3 In0_2 3.360621 1_555
Er6_3 In0_6 3.360621 1_455
Er6_4 Ni0_0 2.705235 1_555
Er6_4 Ni0_4 2.705235 1_555
Er6_4 In1_4 3.143242 1_555
Er6_4 In1_0 3.143242 1_555
Er6_4 In6_4 3.245406 1_555
Er6_4 In6_0 3.245406 1_555
Er6_4 In0_1 3.360621 1_554
Er6_4 In0_5 3.360621 1_554
Er6_5 Ni0_5 2.705235 1_555
Er6_5 Ni0_1 2.705235 1_555
Er6_5 In1_1 3.143242 1_555
Er6_5 In1_5 3.143242 1_555
Er6_5 In6_1 3.245406 1_555
Er6_5 In6_5 3.245406 1_555
Er6_5 In0_0 3.360621 1_555
Er6_5 In0_4 3.360621 1_555
Er6_6 Ni0_2 2.705235 1_555
Er6_6 Ni0_6 2.705235 1_555
Er6_6 In1_2 3.143242 1_555
Er6_6 In1_6 3.143242 1_555
Er6_6 In6_2 3.245406 1_555
Er6_6 In6_6 3.245406 1_555
Er6_6 In0_7 3.360621 1_554
Er6_6 In0_3 3.360621 1_554
Er6_7 Ni0_3 2.705235 1_555
Er6_7 Ni0_7 2.705235 1_555
Er6_7 In1_3 3.143242 1_555
Er6_7 In1_7 3.143242 1_555
Er6_7 In6_3 3.245406 1_555
Er6_7 In6_7 3.245406 1_555
Er6_7 In0_6 3.360621 1_555
Er6_7 In0_2 3.360621 1_555
Er7_0 Ni1_0 2.705235 1_555
Er7_0 Ni1_4 2.705235 1_455
Er7_0 In0_0 3.143242 1_555
Er7_0 In0_4 3.143242 1_455
Er7_0 In7_0 3.245406 1_555
Er7_0 In7_4 3.245406 1_455
Er7_0 In1_1 3.360621 1_555
Er7_0 In1_5 3.360621 1_455
Er7_1 Ni1_5 2.705235 1_455
Er7_1 Ni1_1 2.705235 1_555
Er7_1 In0_1 3.143242 1_555
Er7_1 In0_5 3.143242 1_455
Er7_1 In7_1 3.245406 1_555
Er7_1 In7_5 3.245406 1_455
Er7_1 In1_4 3.360621 1_456
Er7_1 In1_0 3.360621 1_556
Er7_2 Ni1_6 2.705235 1_455
Er7_2 Ni1_2 2.705235 1_555
Er7_2 In0_2 3.143242 1_555
Er7_2 In0_6 3.143242 1_455
Er7_2 In7_6 3.245406 1_455
Er7_2 In7_2 3.245406 1_555
Er7_2 In1_7 3.360621 1_455
Er7_2 In1_3 3.360621 1_555
Er7_3 Ni1_3 2.705235 1_555
Er7_3 Ni1_7 2.705235 1_455
Er7_3 In0_3 3.143242 1_555
Er7_3 In0_7 3.143242 1_455
Er7_3 In7_7 3.245406 1_455
Er7_3 In7_3 3.245406 1_555
Er7_3 In1_2 3.360621 1_556
Er7_3 In1_6 3.360621 1_456
Er7_4 Ni1_4 2.705235 1_555
Er7_4 Ni1_0 2.705235 1_555
Er7_4 In0_0 3.143242 1_555
Er7_4 In0_4 3.143242 1_555
Er7_4 In7_0 3.245406 1_555
Er7_4 In7_4 3.245406 1_555
Er7_4 In1_1 3.360621 1_555
Er7_4 In1_5 3.360621 1_555
Er7_5 Ni1_5 2.705235 1_555
Er7_5 Ni1_1 2.705235 1_555
Er7_5 In0_1 3.143242 1_555
Er7_5 In0_5 3.143242 1_555
Er7_5 In7_1 3.245406 1_555
Er7_5 In7_5 3.245406 1_555
Er7_5 In1_0 3.360621 1_556
Er7_5 In1_4 3.360621 1_556
Er7_6 Ni1_6 2.705235 1_555
Er7_6 Ni1_2 2.705235 1_555
Er7_6 In0_2 3.143242 1_555
Er7_6 In0_6 3.143242 1_555
Er7_6 In7_2 3.245406 1_555
Er7_6 In7_6 3.245406 1_555
Er7_6 In1_7 3.360621 1_555
Er7_6 In1_3 3.360621 1_555
Er7_7 Ni1_3 2.705235 1_555
Er7_7 Ni1_7 2.705235 1_555
Er7_7 In0_3 3.143242 1_555
Er7_7 In0_7 3.143242 1_555
Er7_7 In7_3 3.245406 1_555
Er7_7 In7_7 3.245406 1_555
Er7_7 In1_2 3.360621 1_556
Er7_7 In1_6 3.360621 1_556
Er8_0 Ni2_4 2.705235 1_455
Er8_0 Ni2_0 2.705235 1_555
Er8_0 In3_6 3.143242 1_455
Er8_0 In3_2 3.143242 1_555
Er8_0 In4_4 3.245406 1_455
Er8_0 In4_0 3.245406 1_555
Er8_0 In2_0 3.360621 1_555
Er8_0 In2_4 3.360621 1_455
Er8_1 Ni2_1 2.705235 1_555
Er8_1 Ni2_5 2.705235 1_455
Er8_1 In3_7 3.143242 1_455
Er8_1 In3_3 3.143242 1_555
Er8_1 In4_5 3.245406 1_455
Er8_1 In4_1 3.245406 1_555
Er8_1 In2_5 3.360621 1_455
Er8_1 In2_1 3.360621 1_555
Er8_2 Ni2_6 2.705235 1_455
Er8_2 Ni2_2 2.705235 1_555
Er8_2 In3_4 3.143242 1_465
Er8_2 In3_0 3.143242 1_565
Er8_2 In4_6 3.245406 1_455
Er8_2 In4_2 3.245406 1_555
Er8_2 In2_2 3.360621 1_555
Er8_2 In2_6 3.360621 1_455
Er8_3 Ni2_3 2.705235 1_555
Er8_3 Ni2_7 2.705235 1_455
Er8_3 In3_1 3.143242 1_565
Er8_3 In3_5 3.143242 1_465
Er8_3 In4_3 3.245406 1_555
Er8_3 In4_7 3.245406 1_455
Er8_3 In2_3 3.360621 1_555
Er8_3 In2_7 3.360621 1_455
Er8_4 Ni2_4 2.705235 1_555
Er8_4 Ni2_0 2.705235 1_555
Er8_4 In3_6 3.143242 1_555
Er8_4 In3_2 3.143242 1_555
Er8_4 In4_4 3.245406 1_555
Er8_4 In4_0 3.245406 1_555
Er8_4 In2_0 3.360621 1_555
Er8_4 In2_4 3.360621 1_555
Er8_5 Ni2_1 2.705235 1_555
Er8_5 Ni2_5 2.705235 1_555
Er8_5 In3_7 3.143242 1_555
Er8_5 In3_3 3.143242 1_555
Er8_5 In4_5 3.245406 1_555
Er8_5 In4_1 3.245406 1_555
Er8_5 In2_1 3.360621 1_555
Er8_5 In2_5 3.360621 1_555
Er8_6 Ni2_6 2.705235 1_555
Er8_6 Ni2_2 2.705235 1_555
Er8_6 In3_4 3.143242 1_565
Er8_6 In3_0 3.143242 1_565
Er8_6 In4_6 3.245406 1_555
Er8_6 In4_2 3.245406 1_555
Er8_6 In2_2 3.360621 1_555
Er8_6 In2_6 3.360621 1_555
Er8_7 Ni2_3 2.705235 1_555
Er8_7 Ni2_7 2.705235 1_555
Er8_7 In3_1 3.143242 1_565
Er8_7 In3_5 3.143242 1_565
Er8_7 In4_7 3.245406 1_555
Er8_7 In4_3 3.245406 1_555
Er8_7 In2_3 3.360621 1_555
Er8_7 In2_7 3.360621 1_555
Er9_0 Ni3_0 2.705235 1_555
Er9_0 Ni3_4 2.705235 1_455
Er9_0 In2_2 3.143242 1_545
Er9_0 In2_6 3.143242 1_445
Er9_0 In5_4 3.245406 1_455
Er9_0 In5_0 3.245406 1_555
Er9_0 In3_0 3.360621 1_555
Er9_0 In3_4 3.360621 1_455
Er9_1 Ni3_1 2.705235 1_555
Er9_1 Ni3_5 2.705235 1_455
Er9_1 In2_7 3.143242 1_445
Er9_1 In2_3 3.143242 1_545
Er9_1 In5_5 3.245406 1_455
Er9_1 In5_1 3.245406 1_555
Er9_1 In3_5 3.360621 1_455
Er9_1 In3_1 3.360621 1_555
Er9_2 Ni3_2 2.705235 1_555
Er9_2 Ni3_6 2.705235 1_455
Er9_2 In2_0 3.143242 1_555
Er9_2 In2_4 3.143242 1_455
Er9_2 In5_2 3.245406 1_555
Er9_2 In5_6 3.245406 1_455
Er9_2 In3_6 3.360621 1_455
Er9_2 In3_2 3.360621 1_555
Er9_3 Ni3_3 2.705235 1_555
Er9_3 Ni3_7 2.705235 1_455
Er9_3 In2_5 3.143242 1_455
Er9_3 In2_1 3.143242 1_555
Er9_3 In5_7 3.245406 1_455
Er9_3 In5_3 3.245406 1_555
Er9_3 In3_7 3.360621 1_455
Er9_3 In3_3 3.360621 1_555
Er9_4 Ni3_0 2.705235 1_555
Er9_4 Ni3_4 2.705235 1_555
Er9_4 In2_6 3.143242 1_545
Er9_4 In2_2 3.143242 1_545
Er9_4 In5_4 3.245406 1_555
Er9_4 In5_0 3.245406 1_555
Er9_4 In3_4 3.360621 1_555
Er9_4 In3_0 3.360621 1_555
Er9_5 Ni3_1 2.705235 1_555
Er9_5 Ni3_5 2.705235 1_555
Er9_5 In2_3 3.143242 1_545
Er9_5 In2_7 3.143242 1_545
Er9_5 In5_5 3.245406 1_555
Er9_5 In5_1 3.245406 1_555
Er9_5 In3_1 3.360621 1_555
Er9_5 In3_5 3.360621 1_555
Er9_6 Ni3_6 2.705235 1_555
Er9_6 Ni3_2 2.705235 1_555
Er9_6 In2_0 3.143242 1_555
Er9_6 In2_4 3.143242 1_555
Er9_6 In5_2 3.245406 1_555
Er9_6 In5_6 3.245406 1_555
Er9_6 In3_6 3.360621 1_555
Er9_6 In3_2 3.360621 1_555
Er9_7 Ni3_3 2.705235 1_555
Er9_7 Ni3_7 2.705235 1_555
Er9_7 In2_5 3.143242 1_555
Er9_7 In2_1 3.143242 1_555
Er9_7 In5_3 3.245406 1_555
Er9_7 In5_7 3.245406 1_555
Er9_7 In3_7 3.360621 1_555
Er9_7 In3_3 3.360621 1_555
In0_0 Ni1_0 3.009396 1_555
In0_0 In7_2 3.290247 1_555
In0_1 Ni1_1 3.009396 1_555
In0_1 In7_3 3.290247 1_555
In0_2 Ni1_2 3.009396 1_555
In0_2 In7_0 3.290247 1_565
In0_3 Ni1_3 3.009396 1_555
In0_3 In7_1 3.290247 1_565
In0_4 Ni1_4 3.009396 1_555
In0_4 In7_6 3.290247 1_555
In0_5 Ni1_5 3.009396 1_555
In0_5 In7_7 3.290247 1_555
In0_6 Ni1_6 3.009396 1_555
In0_6 In7_4 3.290247 1_565
In0_7 Ni1_7 3.009396 1_555
In0_7 In7_5 3.290247 1_565
In1_0 Ni0_0 3.009396 1_555
In1_0 In6_2 3.290247 1_545
In1_1 Ni0_1 3.009396 1_555
In1_1 In6_3 3.290247 1_545
In1_2 Ni0_2 3.009396 1_555
In1_2 In6_0 3.290247 1_555
In1_3 Ni0_3 3.009396 1_555
In1_3 In6_1 3.290247 1_555
In1_4 Ni0_4 3.009396 1_555
In1_4 In6_6 3.290247 1_545
In1_5 Ni0_5 3.009396 1_555
In1_5 In6_7 3.290247 1_545
In1_6 Ni0_6 3.009396 1_555
In1_6 In6_4 3.290247 1_555
In1_7 Ni0_7 3.009396 1_555
In1_7 In6_5 3.290247 1_555
In2_0 Ni3_2 3.009396 1_555
In2_0 In5_0 3.290247 1_555
In2_1 Ni3_3 3.009396 1_555
In2_1 In5_1 3.290247 1_555
In2_2 Ni3_0 3.009396 1_565
In2_2 In5_2 3.290247 1_555
In2_3 Ni3_1 3.009396 1_565
In2_3 In5_3 3.290247 1_555
In2_4 Ni3_6 3.009396 1_555
In2_4 In5_4 3.290247 1_555
In2_5 Ni3_7 3.009396 1_555
In2_5 In5_5 3.290247 1_555
In2_6 Ni3_4 3.009396 1_565
In2_6 In5_6 3.290247 1_555
In2_7 Ni3_5 3.009396 1_565
In2_7 In5_7 3.290247 1_555
In3_0 Ni2_2 3.009396 1_545
In3_0 In4_0 3.290247 1_555
In3_1 Ni2_3 3.009396 1_545
In3_1 In4_1 3.290247 1_555
In3_2 Ni2_0 3.009396 1_555
In3_2 In4_2 3.290247 1_555
In3_3 Ni2_1 3.009396 1_555
In3_3 In4_3 3.290247 1_555
In3_4 Ni2_6 3.009396 1_545
In3_4 In4_4 3.290247 1_555
In3_5 Ni2_7 3.009396 1_545
In3_5 In4_5 3.290247 1_555
In3_6 Ni2_4 3.009396 1_555
In3_6 In4_6 3.290247 1_555
In3_7 Ni2_5 3.009396 1_555
In3_7 In4_7 3.290247 1_555
In4_0 Ni1_0 2.814690 1_555
In4_0 Ni2_0 3.200778 1_555
In4_1 Ni1_1 2.814690 1_555
In4_1 Ni2_1 3.200778 1_555
In4_2 Ni1_2 2.814690 1_555
In4_2 Ni2_2 3.200778 1_555
In4_3 Ni1_3 2.814690 1_555
In4_3 Ni2_3 3.200778 1_555
In4_4 Ni1_4 2.814690 1_555
In4_4 Ni2_4 3.200778 1_555
In4_5 Ni1_5 2.814690 1_555
In4_5 Ni2_5 3.200778 1_555
In4_6 Ni1_6 2.814690 1_555
In4_6 Ni2_6 3.200778 1_555
In4_7 Ni1_7 2.814690 1_555
In4_7 Ni2_7 3.200778 1_555
In5_0 Ni0_0 2.814690 1_555
In5_0 Ni3_0 3.200778 1_555
In5_1 Ni0_1 2.814690 1_555
In5_1 Ni3_1 3.200778 1_555
In5_2 Ni0_2 2.814690 1_555
In5_2 Ni3_2 3.200778 1_555
In5_3 Ni0_3 2.814690 1_555
In5_3 Ni3_3 3.200778 1_555
In5_4 Ni0_4 2.814690 1_555
In5_4 Ni3_4 3.200778 1_555
In5_5 Ni0_5 2.814690 1_555
In5_5 Ni3_5 3.200778 1_555
In5_6 Ni0_6 2.814690 1_555
In5_6 Ni3_6 3.200778 1_555
In5_7 Ni0_7 2.814690 1_555
In5_7 Ni3_7 3.200778 1_555
In6_0 Ni3_2 2.814690 1_555
In6_0 Ni0_0 3.200778 1_555
In6_1 Ni3_3 2.814690 1_555
In6_1 Ni0_1 3.200778 1_555
In6_2 Ni3_0 2.814690 1_565
In6_2 Ni0_2 3.200778 1_555
In6_3 Ni3_1 2.814690 1_565
In6_3 Ni0_3 3.200778 1_555
In6_4 Ni3_6 2.814690 1_555
In6_4 Ni0_4 3.200778 1_555
In6_5 Ni3_7 2.814690 1_555
In6_5 Ni0_5 3.200778 1_555
In6_6 Ni3_4 2.814690 1_565
In6_6 Ni0_6 3.200778 1_555
In6_7 Ni3_5 2.814690 1_565
In6_7 Ni0_7 3.200778 1_555
In7_0 Ni2_2 2.814690 1_545
In7_0 Ni1_0 3.200778 1_555
In7_1 Ni2_3 2.814690 1_545
In7_1 Ni1_1 3.200778 1_555
In7_2 Ni2_0 2.814690 1_555
In7_2 Ni1_2 3.200778 1_555
In7_3 Ni2_1 2.814690 1_555
In7_3 Ni1_3 3.200778 1_555
In7_4 Ni2_6 2.814690 1_545
In7_4 Ni1_4 3.200778 1_555
In7_5 Ni2_7 2.814690 1_545
In7_5 Ni1_5 3.200778 1_555
In7_6 Ni2_4 2.814690 1_555
In7_6 Ni1_6 3.200778 1_555
In7_7 Ni2_5 2.814690 1_555
In7_7 Ni1_7 3.200778 1_555
