# generated using pymatgen
data_Sr2NiWO6
_symmetry_space_group_name_H-M   'P 1'
_cell_length_a   5.66836567
_cell_length_b   9.81773744
_cell_length_c   5.66836739
_cell_angle_alpha   106.77718960
_cell_angle_beta   60.00122857
_cell_angle_gamma   106.77712434
_symmetry_Int_Tables_number   1
_chemical_formula_structural   Sr2NiWO6
_chemical_formula_sum   'Sr4 Ni2 W2 O12'
_cell_volume   257.56768911
_cell_formula_units_Z   2
loop_
 _symmetry_equiv_pos_site_id
 _symmetry_equiv_pos_as_xyz
  1  'x, y, z'
loop_
 _atom_site_type_symbol
 _atom_site_label
 _atom_site_symmetry_multiplicity
 _atom_site_fract_x
 _atom_site_fract_y
 _atom_site_fract_z
 _atom_site_occupancy
  Sr  Sr0  1  0.12499900  0.37500100  0.12500100  1
  Sr  Sr1  1  0.62499600  0.87499200  0.62499800  1
  Sr  Sr2  1  0.37500000  0.12499900  0.37499900  1
  Sr  Sr3  1  0.87500300  0.62500900  0.87500300  1
  Ni  Ni0  1  0.25000100  0.74999900  0.25000000  1
  Ni  Ni1  1  0.75000200  0.24999800  0.74999500  1
  W  W0  1  0.99999100  0.99997400  0.99999100  1
  W  W1  1  0.50000800  0.50002600  0.50000900  1
  O  O0  1  0.13611400  0.37870900  0.62130500  1
  O  O1  1  0.63613500  0.87872000  0.12130100  1
  O  O2  1  0.87869300  0.12129100  0.36388600  1
  O  O3  1  0.37869900  0.62128000  0.86386400  1
  O  O4  1  0.62130500  0.37870900  0.13611300  1
  O  O5  1  0.12130000  0.87872000  0.63613500  1
  O  O6  1  0.62129700  0.37870700  0.62129500  1
  O  O7  1  0.12129200  0.87871700  0.12128900  1
  O  O8  1  0.36388600  0.12129200  0.87869300  1
  O  O9  1  0.86386400  0.62128100  0.37869800  1
  O  O10  1  0.87870300  0.12129400  0.87870500  1
  O  O11  1  0.37870800  0.62128300  0.37871000  1
loop_
_geom_bond_atom_site_label_1
_geom_bond_atom_site_label_2
_geom_bond_distance
_geom_bond_site_symmetry_2
Ni0 O11 2.063543 1_555
Ni0 O7 2.063571 1_555
Ni0 O3 2.063639 1_554
Ni0 O9 2.063640 1_455
Ni0 O1 2.063640 1_555
Ni0 O5 2.063643 1_555
Ni1 O10 2.063423 1_555
Ni1 O6 2.063439 1_555
Ni1 O2 2.063482 1_555
Ni1 O8 2.063508 1_555
Ni1 O0 2.063512 1_655
Ni1 O4 2.063534 1_556
O0 W1 1.944821 1_555
O0 Sr0 2.834764 1_556
O0 Sr3 2.834814 1_455
O0 Sr2 2.834827 1_555
O0 Sr0 2.834849 1_555
O1 W0 1.944416 1_554
O1 Sr2 2.834707 1_565
O1 Sr1 2.834762 1_555
O1 Sr3 2.834787 1_554
O1 Sr1 2.834858 1_554
O2 W0 1.944824 1_544
O2 Sr2 2.834752 1_555
O2 Sr1 2.834811 1_545
O2 Sr0 2.834828 1_655
O2 Sr2 2.834859 1_655
O3 W1 1.944411 1_555
O3 Sr0 2.834716 1_556
O3 Sr3 2.834758 1_455
O3 Sr1 2.834792 1_555
O3 Sr3 2.834860 1_555
O4 W1 1.944828 1_555
O4 Sr0 2.834760 1_655
O4 Sr3 2.834814 1_554
O4 Sr2 2.834830 1_555
O4 Sr0 2.834851 1_555
O5 W0 1.944415 1_455
O5 Sr2 2.834713 1_565
O5 Sr1 2.834761 1_555
O5 Sr3 2.834789 1_455
O5 Sr1 2.834857 1_455
O6 W1 1.944760 1_555
O6 Sr0 2.834847 1_655
O6 Sr2 2.834856 1_555
O6 Sr0 2.834870 1_556
O6 Sr3 2.834881 1_555
O7 W0 1.944359 1_454
O7 Sr2 2.834783 1_565
O7 Sr3 2.834806 1_454
O7 Sr1 2.834848 1_554
O7 Sr1 2.834876 1_455
O8 W0 1.944829 1_445
O8 Sr2 2.834752 1_555
O8 Sr1 2.834811 1_545
O8 Sr0 2.834822 1_556
O8 Sr2 2.834860 1_556
O9 W1 1.944420 1_555
O9 Sr0 2.834715 1_655
O9 Sr3 2.834751 1_554
O9 Sr1 2.834787 1_555
O9 Sr3 2.834869 1_555
O10 W0 1.944764 1_545
O10 Sr0 2.834847 1_656
O10 Sr2 2.834850 1_556
O10 Sr2 2.834867 1_655
O10 Sr1 2.834881 1_545
O11 W1 1.944359 1_555
O11 Sr0 2.834783 1_555
O11 Sr1 2.834815 1_555
O11 Sr3 2.834856 1_455
O11 Sr3 2.834868 1_554
