# generated using pymatgen
data_Cs2Ti(AgS2)2
_symmetry_space_group_name_H-M   'P 1'
_cell_length_a   6.10972100
_cell_length_b   6.10972100
_cell_length_c   14.00481600
_cell_angle_alpha   90.00000000
_cell_angle_beta   90.00000000
_cell_angle_gamma   90.00000000
_symmetry_Int_Tables_number   1
_chemical_formula_structural   Cs2Ti(AgS2)2
_chemical_formula_sum   'Cs4 Ti2 Ag4 S8'
_cell_volume   522.78144474
_cell_formula_units_Z   2
loop_
 _symmetry_equiv_pos_site_id
 _symmetry_equiv_pos_as_xyz
  1  'x, y, z'
loop_
 _atom_site_type_symbol
 _atom_site_label
 _atom_site_symmetry_multiplicity
 _atom_site_fract_x
 _atom_site_fract_y
 _atom_site_fract_z
 _atom_site_occupancy
  Cs  Cs0  1  0.76463800  0.76463800  0.00000000  1
  Cs  Cs1  1  0.23536200  0.76463800  0.50000000  1
  Cs  Cs2  1  0.76463800  0.23536200  0.50000000  1
  Cs  Cs3  1  0.23536200  0.23536200  0.00000000  1
  Ti  Ti0  1  0.50000000  0.50000000  0.75000000  1
  Ti  Ti1  1  0.50000000  0.50000000  0.25000000  1
  Ag  Ag0  1  0.00000000  0.50000000  0.75000000  1
  Ag  Ag1  1  0.50000000  0.00000000  0.75000000  1
  Ag  Ag2  1  0.00000000  0.50000000  0.25000000  1
  Ag  Ag3  1  0.50000000  0.00000000  0.25000000  1
  S  S0  1  0.71349600  0.71349600  0.65114600  1
  S  S1  1  0.28650400  0.28650400  0.65114600  1
  S  S2  1  0.71349600  0.71349600  0.34885400  1
  S  S3  1  0.71349600  0.28650400  0.15114600  1
  S  S4  1  0.28650400  0.71349600  0.84885400  1
  S  S5  1  0.28650400  0.28650400  0.34885400  1
  S  S6  1  0.28650400  0.71349600  0.15114600  1
  S  S7  1  0.71349600  0.28650400  0.84885400  1
loop_
_geom_bond_atom_site_label_1
_geom_bond_atom_site_label_2
_geom_bond_distance
_geom_bond_site_symmetry_2
Cs0 S7 3.621070 1_554
Cs0 S6 3.621070 1_555
Cs0 S3 3.621070 1_555
Cs0 S4 3.621070 1_554
Cs0 S7 3.839871 1_564
Cs0 S4 3.839871 1_654
Cs0 S3 3.839871 1_565
Cs0 S6 3.839871 1_655
Cs1 S1 3.621070 1_555
Cs1 S5 3.621070 1_555
Cs1 S2 3.621070 1_555
Cs1 S0 3.621070 1_555
Cs1 S0 3.839871 1_455
Cs1 S2 3.839871 1_455
Cs1 S5 3.839871 1_565
Cs1 S1 3.839871 1_565
Cs2 S1 3.621070 1_555
Cs2 S5 3.621070 1_555
Cs2 S2 3.621070 1_555
Cs2 S0 3.621070 1_555
Cs2 S2 3.839871 1_545
Cs2 S0 3.839871 1_545
Cs2 S5 3.839871 1_655
Cs2 S1 3.839871 1_655
Cs3 S7 3.621070 1_554
Cs3 S3 3.621070 1_555
Cs3 S6 3.621070 1_555
Cs3 S4 3.621070 1_554
Cs3 S7 3.839871 1_454
Cs3 S4 3.839871 1_544
Cs3 S3 3.839871 1_455
Cs3 S6 3.839871 1_545
Ag0 S7 2.585000 1_455
Ag0 S4 2.585000 1_555
Ag0 S1 2.585000 1_555
Ag0 S0 2.585000 1_455
Ag1 S4 2.585000 1_545
Ag1 S1 2.585000 1_555
Ag1 S0 2.585000 1_545
Ag1 S7 2.585000 1_555
Ag2 S2 2.585000 1_455
Ag2 S3 2.585000 1_455
Ag2 S6 2.585000 1_555
Ag2 S5 2.585000 1_555
Ag3 S6 2.585000 1_545
Ag3 S3 2.585000 1_555
Ag3 S5 2.585000 1_555
Ag3 S2 2.585000 1_545
S0 Ti0 2.306421 1_555
S1 Ti0 2.306421 1_555
S2 Ti1 2.306421 1_555
S3 Ti1 2.306421 1_555
S4 Ti0 2.306421 1_555
S5 Ti1 2.306421 1_555
S6 Ti1 2.306421 1_555
S7 Ti0 2.306421 1_555
