# generated using pymatgen
data_Pr14C14Cl9
_symmetry_space_group_name_H-M   'P 1'
_cell_length_a   7.69264000
_cell_length_b   29.93499400
_cell_length_c   6.91152397
_cell_angle_alpha   90.00000000
_cell_angle_beta   103.85898722
_cell_angle_gamma   90.00000000
_symmetry_Int_Tables_number   1
_chemical_formula_structural   Pr14C14Cl9
_chemical_formula_sum   'Pr28 C28 Cl18'
_cell_volume   1545.24597584
_cell_formula_units_Z   2
loop_
 _symmetry_equiv_pos_site_id
 _symmetry_equiv_pos_as_xyz
  1  'x, y, z'
loop_
 _atom_site_type_symbol
 _atom_site_label
 _atom_site_symmetry_multiplicity
 _atom_site_fract_x
 _atom_site_fract_y
 _atom_site_fract_z
 _atom_site_occupancy
  Pr  Pr0  1  0.60237300  0.61279900  0.02124100  1
  Pr  Pr1  1  0.60237300  0.38720100  0.52124100  1
  Pr  Pr2  1  0.22939000  0.60385300  0.28001100  1
  Pr  Pr3  1  0.22939000  0.39614700  0.78001100  1
  Pr  Pr4  1  0.59583100  0.81873900  0.50739900  1
  Pr  Pr5  1  0.59583100  0.18126100  0.00739900  1
  Pr  Pr6  1  0.52785000  0.68543200  0.51579400  1
  Pr  Pr7  1  0.52785000  0.31456800  0.01579400  1
  Pr  Pr8  1  0.15207000  0.67123400  0.79215900  1
  Pr  Pr9  1  0.15207000  0.32876600  0.29215900  1
  Pr  Pr10  1  0.30546800  0.53119400  0.78218200  1
  Pr  Pr11  1  0.30546800  0.46880600  0.28218200  1
  Pr  Pr12  1  0.68042800  0.54386500  0.51010800  1
  Pr  Pr13  1  0.68042800  0.45613500  0.01010800  1
  Pr  Pr14  1  0.66992500  0.88476600  0.99287400  1
  Pr  Pr15  1  0.66992500  0.11523400  0.49287400  1
  Pr  Pr16  1  0.29582200  0.89797900  0.25785000  1
  Pr  Pr17  1  0.29582200  0.10202100  0.75785000  1
  Pr  Pr18  1  0.22006100  0.83008300  0.76959300  1
  Pr  Pr19  1  0.22006100  0.16991700  0.26959300  1
  Pr  Pr20  1  0.37276500  0.96840900  0.75203700  1
  Pr  Pr21  1  0.37276500  0.03159100  0.25203700  1
  Pr  Pr22  1  0.74341400  0.95525200  0.47809000  1
  Pr  Pr23  1  0.74341400  0.04474800  0.97809000  1
  Pr  Pr24  1  0.14826100  0.75932300  0.28803600  1
  Pr  Pr25  1  0.14826100  0.24067700  0.78803700  1
  Pr  Pr26  1  0.52250500  0.74760400  0.01383600  1
  Pr  Pr27  1  0.52250500  0.25239600  0.51383600  1
  C  C0  1  0.35764900  0.62133500  0.67798200  1
  C  C1  1  0.35764900  0.37866500  0.17798200  1
  C  C2  1  0.42097400  0.88006400  0.65954200  1
  C  C3  1  0.42097400  0.11993600  0.15954200  1
  C  C4  1  0.42613600  0.55127400  0.17433900  1
  C  C5  1  0.42613600  0.44872600  0.67433900  1
  C  C6  1  0.54100800  0.90596200  0.59756300  1
  C  C7  1  0.54100800  0.09403800  0.09756300  1
  C  C8  1  0.34741300  0.80941800  0.16846900  1
  C  C9  1  0.34741300  0.19058200  0.66846900  1
  C  C10  1  0.46558400  0.83542300  0.10547200  1
  C  C11  1  0.46558400  0.16457700  0.60547200  1
  C  C12  1  0.39943400  0.76702700  0.62221800  1
  C  C13  1  0.39943400  0.23297300  0.12221800  1
  C  C14  1  0.49744900  0.94883600  0.14231100  1
  C  C15  1  0.49744900  0.05116400  0.64231100  1
  C  C16  1  0.53436200  0.48041600  0.62614400  1
  C  C17  1  0.53436200  0.51958400  0.12614400  1
  C  C18  1  0.40422700  0.66521500  0.12698600  1
  C  C19  1  0.40422700  0.33478500  0.62698600  1
  C  C20  1  0.29497100  0.69661900  0.17505000  1
  C  C21  1  0.29497100  0.30338100  0.67505000  1
  C  C22  1  0.47856400  0.59538400  0.62162200  1
  C  C23  1  0.47856400  0.40461600  0.12162200  1
  C  C24  1  0.60107600  0.98066900  0.08942800  1
  C  C25  1  0.60107600  0.01933100  0.58942800  1
  C  C26  1  0.29298200  0.73575900  0.67472000  1
  C  C27  1  0.29298200  0.26424100  0.17472000  1
  Cl  Cl0  1  0.79422100  0.74439500  0.39978600  1
  Cl  Cl1  1  0.79422100  0.25560500  0.89978600  1
  Cl  Cl2  1  0.03978200  0.52698100  0.39630400  1
  Cl  Cl3  1  0.03978200  0.47301900  0.89630400  1
  Cl  Cl4  1  0.86415300  0.63216400  0.40829800  1
  Cl  Cl5  1  0.86415300  0.36783600  0.90829800  1
  Cl  Cl6  1  0.96944200  0.58411700  0.89073200  1
  Cl  Cl7  1  0.96944200  0.41588300  0.39073200  1
  Cl  Cl8  1  0.86033400  0.80252600  0.89989900  1
  Cl  Cl9  1  0.86033400  0.19747400  0.39989900  1
  Cl  Cl10  1  0.03167700  0.91259100  0.86572100  1
  Cl  Cl11  1  0.03167700  0.08740900  0.36572100  1
  Cl  Cl12  1  0.79243400  0.68996200  0.90405100  1
  Cl  Cl13  1  0.79243400  0.31003800  0.40405100  1
  Cl  Cl14  1  0.09688600  0.97339500  0.36557700  1
  Cl  Cl15  1  0.09688600  0.02660500  0.86557700  1
  Cl  Cl16  1  0.94607700  0.85767600  0.38177900  1
  Cl  Cl17  1  0.94607700  0.14232400  0.88177900  1
loop_
_geom_bond_atom_site_label_1
_geom_bond_atom_site_label_2
_geom_bond_distance
_geom_bond_site_symmetry_2
C0 C22 1.339399 1_555
C0 Pr8 2.439834 1_555
C0 Pr0 2.664246 1_556
C0 Pr6 2.712104 1_555
C0 Pr2 2.740976 1_555
C0 Pr10 2.845959 1_555
C1 C23 1.339399 1_555
C1 Pr9 2.439834 1_555
C1 Pr1 2.664246 1_555
C1 Pr7 2.712104 1_555
C1 Pr3 2.740976 1_554
C1 Pr11 2.845959 1_555
C2 C6 1.351534 1_555
C2 Pr18 2.401876 1_555
C2 Pr14 2.623235 1_555
C2 Pr4 2.638693 1_555
C2 Pr16 2.764392 1_555
C2 Pr20 2.766539 1_555
C3 C7 1.351534 1_555
C3 Pr19 2.401876 1_555
C3 Pr15 2.623235 1_555
C3 Pr5 2.638693 1_555
C3 Pr17 2.764392 1_554
C3 Pr21 2.766539 1_555
C4 Pr2 2.414740 1_555
C4 Pr0 2.652725 1_555
C4 Pr12 2.662059 1_555
C4 Pr10 2.713660 1_554
C4 Pr11 2.800545 1_555
C5 Pr3 2.414740 1_555
C5 Pr1 2.652725 1_555
C5 Pr13 2.662059 1_556
C5 Pr11 2.713660 1_555
C5 Pr10 2.800545 1_555
C6 Pr22 2.428835 1_555
C6 Pr20 2.640333 1_555
C6 Pr16 2.646854 1_555
C6 Pr4 2.740352 1_555
C6 Pr14 2.748264 1_555
C7 Pr23 2.428835 1_554
C7 Pr21 2.640333 1_555
C7 Pr17 2.646854 1_554
C7 Pr5 2.740352 1_555
C7 Pr15 2.748264 1_555
C8 Pr24 2.425954 1_555
C8 Pr26 2.658953 1_555
C8 Pr4 2.659435 1_555
C8 Pr18 2.765636 1_554
C8 Pr16 2.772142 1_555
C9 Pr25 2.425958 1_555
C9 Pr27 2.658953 1_555
C9 Pr5 2.659435 1_556
C9 Pr19 2.765636 1_555
C9 Pr17 2.772142 1_555
C10 C8 1.345942 1_555
C10 Pr14 2.417517 1_554
C10 Pr18 2.623241 1_554
C10 Pr16 2.641995 1_555
C10 Pr26 2.763445 1_555
C10 Pr4 2.763478 1_555
C11 C9 1.345942 1_555
C11 Pr15 2.417517 1_555
C11 Pr19 2.623241 1_555
C11 Pr17 2.641995 1_555
C11 Pr27 2.763445 1_555
C11 Pr5 2.763478 1_556
C12 C26 1.349345 1_555
C12 Pr4 2.425486 1_555
C12 Pr24 2.642593 1_555
C12 Pr18 2.679141 1_555
C12 Pr26 2.707925 1_556
C12 Pr6 2.798398 1_555
C13 C27 1.349345 1_555
C13 Pr5 2.425486 1_555
C13 Pr25 2.642588 1_554
C13 Pr19 2.679141 1_555
C13 Pr27 2.707925 1_555
C13 Pr7 2.798398 1_555
C14 C24 1.347852 1_555
C14 Pr16 2.440184 1_555
C14 Pr22 2.626637 1_555
C14 Pr14 2.676212 1_554
C14 Pr20 2.701801 1_554
C14 Pr21 2.824967 1_565
C15 C25 1.347852 1_555
C15 Pr17 2.440184 1_555
C15 Pr23 2.626637 1_555
C15 Pr15 2.676212 1_555
C15 Pr21 2.701801 1_555
C15 Pr20 2.824967 1_545
C16 C5 1.355307 1_555
C16 Pr12 2.438227 1_555
C16 Pr11 2.620576 1_555
C16 Pr13 2.721191 1_556
C16 Pr10 2.735641 1_555
C16 Pr1 2.960981 1_555
C17 C4 1.355307 1_555
C17 Pr13 2.438227 1_555
C17 Pr10 2.620576 1_554
C17 Pr12 2.721191 1_555
C17 Pr11 2.735641 1_555
C17 Pr0 2.960981 1_555
C18 C20 1.354342 1_555
C18 Pr0 2.419343 1_555
C18 Pr2 2.642548 1_555
C18 Pr8 2.645748 1_554
C18 Pr6 2.695868 1_555
C18 Pr26 2.804111 1_555
C19 C21 1.354342 1_555
C19 Pr1 2.419343 1_555
C19 Pr3 2.642548 1_555
C19 Pr9 2.645748 1_555
C19 Pr7 2.695868 1_556
C19 Pr27 2.804111 1_555
C20 Pr24 2.414338 1_555
C20 Pr6 2.616599 1_555
C20 Pr8 2.719457 1_554
C20 Pr26 2.751165 1_555
C20 Pr2 2.944071 1_555
C21 Pr25 2.414341 1_555
C21 Pr7 2.616599 1_556
C21 Pr9 2.719457 1_555
C21 Pr27 2.751165 1_555
C21 Pr3 2.944071 1_555
C22 Pr12 2.440745 1_555
C22 Pr2 2.672992 1_555
C22 Pr10 2.721157 1_555
C22 Pr0 2.747212 1_556
C22 Pr6 2.842143 1_555
C23 Pr13 2.440745 1_555
C23 Pr3 2.672992 1_554
C23 Pr11 2.721157 1_555
C23 Pr1 2.747212 1_555
C23 Pr7 2.842143 1_555
C24 Pr23 2.423684 1_564
C24 Pr20 2.587469 1_554
C24 Pr22 2.754027 1_555
C24 Pr21 2.759891 1_565
C24 Pr14 3.022744 1_554
C25 Pr22 2.423684 1_545
C25 Pr21 2.587469 1_555
C25 Pr23 2.754027 1_555
C25 Pr20 2.759891 1_545
C25 Pr15 3.022744 1_555
C26 Pr8 2.446685 1_555
C26 Pr26 2.598868 1_556
C26 Pr24 2.730248 1_555
C26 Pr6 2.773318 1_555
C26 Pr18 2.982197 1_555
C27 Pr9 2.446685 1_555
C27 Pr27 2.598868 1_555
C27 Pr25 2.730242 1_554
C27 Pr7 2.773318 1_555
C27 Pr19 2.982197 1_555
Cl0 Pr4 2.894631 1_555
Cl0 Pr6 2.957055 1_555
Cl0 Pr26 2.970300 1_555
Cl0 Pr24 3.036681 1_655
Cl1 Pr5 2.894631 1_556
Cl1 Pr7 2.957055 1_556
Cl1 Pr27 2.970300 1_555
Cl1 Pr25 3.036678 1_655
Cl2 Pr11 2.933321 1_555
Cl2 Pr2 2.937770 1_555
Cl2 Pr10 2.948679 1_555
Cl2 Pr12 3.091535 1_455
Cl3 Pr10 2.933321 1_555
Cl3 Pr3 2.937770 1_555
Cl3 Pr11 2.948679 1_556
Cl3 Pr13 3.091535 1_456
Cl4 Pr0 2.994493 1_555
Cl4 Pr12 3.155272 1_555
Cl4 Pr8 3.239922 1_655
Cl4 Pr2 3.254521 1_655
Cl4 Pr6 3.272360 1_555
Cl5 Pr1 2.994493 1_555
Cl5 Pr13 3.155272 1_556
Cl5 Pr9 3.239922 1_656
Cl5 Pr3 3.254521 1_655
Cl5 Pr7 3.272360 1_556
Cl6 Pr2 3.001529 1_656
Cl6 Pr8 3.114045 1_655
Cl6 Pr12 3.242446 1_555
Cl6 Pr10 3.268583 1_655
Cl6 Pr0 3.277876 1_556
Cl7 Pr3 3.001529 1_655
Cl7 Pr9 3.114045 1_655
Cl7 Pr13 3.242446 1_555
Cl7 Pr11 3.268583 1_655
Cl7 Pr1 3.277876 1_555
Cl8 Pr14 3.011655 1_555
Cl8 Pr4 3.015041 1_555
Cl8 Pr18 3.216086 1_655
Cl8 Pr24 3.305809 1_656
Cl8 Pr26 3.325253 1_556
Cl9 Pr15 3.011655 1_555
Cl9 Pr5 3.015041 1_555
Cl9 Pr19 3.216086 1_655
Cl9 Pr25 3.305814 1_655
Cl9 Pr27 3.325253 1_555
Cl10 Pr16 3.004533 1_556
Cl10 Pr18 3.017126 1_555
Cl10 Pr14 3.222089 1_455
Cl10 Pr22 3.298450 1_455
Cl10 Pr20 3.358819 1_555
Cl11 Pr17 3.004533 1_555
Cl11 Pr19 3.017126 1_555
Cl11 Pr15 3.222089 1_455
Cl11 Pr23 3.298450 1_454
Cl11 Pr21 3.358819 1_555
Cl12 Pr26 2.935927 1_556
Cl12 Pr0 2.948987 1_556
Cl12 Pr6 2.957260 1_555
Cl12 Pr8 3.096953 1_655
Cl13 Pr27 2.935927 1_555
Cl13 Pr1 2.948987 1_555
Cl13 Pr7 2.957260 1_555
Cl13 Pr9 3.096953 1_655
Cl14 Pr16 2.922128 1_555
Cl14 Pr20 2.990810 1_555
Cl14 Pr21 2.992062 1_565
Cl14 Pr22 3.050632 1_455
Cl15 Pr17 2.922128 1_555
Cl15 Pr21 2.990810 1_556
Cl15 Pr20 2.992062 1_545
Cl15 Pr23 3.050632 1_455
Cl16 Pr18 3.098800 1_655
Cl16 Pr14 3.108035 1_554
Cl16 Pr4 3.239197 1_555
Cl16 Pr16 3.245276 1_655
Cl16 Pr22 3.450022 1_555
Cl16 Pr24 3.462641 1_655
Cl17 Pr19 3.098800 1_656
Cl17 Pr15 3.108035 1_555
Cl17 Pr5 3.239197 1_556
Cl17 Pr17 3.245276 1_655
Cl17 Pr23 3.450022 1_555
Cl17 Pr25 3.462639 1_655
