# generated using pymatgen
data_TiGaCu
_symmetry_space_group_name_H-M   'P 1'
_cell_length_a   4.27510789
_cell_length_b   4.27510789
_cell_length_c   5.53846800
_cell_angle_alpha   90.00000000
_cell_angle_beta   90.00000000
_cell_angle_gamma   119.99999823
_symmetry_Int_Tables_number   1
_chemical_formula_structural   TiGaCu
_chemical_formula_sum   'Ti2 Ga2 Cu2'
_cell_volume   87.66262036
_cell_formula_units_Z   2
loop_
 _symmetry_equiv_pos_site_id
 _symmetry_equiv_pos_as_xyz
  1  'x, y, z'
loop_
 _atom_site_type_symbol
 _atom_site_label
 _atom_site_symmetry_multiplicity
 _atom_site_fract_x
 _atom_site_fract_y
 _atom_site_fract_z
 _atom_site_occupancy
  Ti  Ti0  1  0.00000000  0.00000000  0.23699800  1
  Ti  Ti1  1  0.00000000  0.00000000  0.76300200  1
  Ga  Ga0  1  0.66666700  0.33333300  0.52200400  1
  Ga  Ga1  1  0.33333300  0.66666700  0.47799600  1
  Cu  Cu0  1  0.33333300  0.66666700  0.00184300  1
  Cu  Cu1  1  0.66666700  0.33333300  0.99815700  1
loop_
_geom_bond_atom_site_label_1
_geom_bond_atom_site_label_2
_geom_bond_distance
_geom_bond_site_symmetry_2
Ti0 Ti1 2.625212 1_554
Ti0 Ti1 2.913256 1_555
Ga0 Ga1 2.480238 1_545
Ga0 Ga1 2.480238 1_655
Ga0 Ga1 2.480245 1_555
Ga0 Ti1 2.806021 1_655
Ga0 Ti1 2.806024 1_555
Ga0 Ti1 2.806024 1_665
Ga0 Ti0 2.929816 1_655
Ga0 Ti0 2.929819 1_555
Ga0 Ti0 2.929819 1_665
Ga1 Ti0 2.806021 1_565
Ga1 Ti0 2.806024 1_665
Ga1 Ti0 2.806024 1_555
Ga1 Ti1 2.929816 1_565
Ga1 Ti1 2.929819 1_665
Ga1 Ti1 2.929819 1_555
Cu0 Cu1 2.468317 1_454
Cu0 Cu1 2.468317 1_564
Cu0 Cu1 2.468324 1_554
Cu0 Ga1 2.637158 1_555
Cu0 Ti0 2.790773 1_565
Cu0 Ti0 2.790776 1_665
Cu0 Ti0 2.790776 1_555
Cu0 Ti1 2.800358 1_564
Cu0 Ti1 2.800361 1_664
Cu0 Ti1 2.800361 1_554
Cu0 Ga1 2.901310 1_554
Cu1 Ga0 2.637158 1_555
Cu1 Ti1 2.790773 1_655
Cu1 Ti1 2.790776 1_555
Cu1 Ti1 2.790776 1_665
Cu1 Ti0 2.800358 1_656
Cu1 Ti0 2.800361 1_556
Cu1 Ti0 2.800361 1_666
Cu1 Ga0 2.901310 1_556
