# generated using pymatgen
data_Nd6Si3Ni2
_symmetry_space_group_name_H-M   'P 1'
_cell_length_a   4.50680900
_cell_length_b   11.72013900
_cell_length_c   11.79775175
_cell_angle_alpha   60.26821794
_cell_angle_beta   90.00000000
_cell_angle_gamma   90.00000000
_symmetry_Int_Tables_number   1
_chemical_formula_structural   Nd6Si3Ni2
_chemical_formula_sum   'Nd12 Si6 Ni4'
_cell_volume   541.12706106
_cell_formula_units_Z   2
loop_
 _symmetry_equiv_pos_site_id
 _symmetry_equiv_pos_as_xyz
  1  'x, y, z'
loop_
 _atom_site_type_symbol
 _atom_site_label
 _atom_site_symmetry_multiplicity
 _atom_site_fract_x
 _atom_site_fract_y
 _atom_site_fract_z
 _atom_site_occupancy
  Nd  Nd0  1  0.00000000  0.23666600  0.77407400  1
  Nd  Nd1  1  0.00000000  0.76778700  0.99770300  1
  Nd  Nd2  1  0.00000000  0.99626900  0.23494700  1
  Nd  Nd3  1  0.50000000  0.76232700  0.23011600  1
  Nd  Nd4  1  0.50000000  0.23182500  0.00874300  1
  Nd  Nd5  1  0.50000000  0.00958200  0.76452800  1
  Nd  Nd6  1  0.00000000  0.85891600  0.62531300  1
  Nd  Nd7  1  0.00000000  0.62161800  0.51423500  1
  Nd  Nd8  1  0.00000000  0.51451400  0.86163200  1
  Nd  Nd9  1  0.50000000  0.13584200  0.38076100  1
  Nd  Nd10  1  0.50000000  0.38083300  0.48149700  1
  Nd  Nd11  1  0.50000000  0.47628800  0.13803500  1
  Si  Si0  1  0.50000000  0.66638100  0.66612800  1
  Si  Si1  1  0.00000000  0.33701100  0.32781600  1
  Si  Si2  1  0.00000000  0.15224400  0.55984600  1
  Si  Si3  1  0.50000000  0.44095800  0.71107200  1
  Si  Si4  1  0.50000000  0.71352800  0.84532900  1
  Si  Si5  1  0.50000000  0.84718800  0.44245000  1
  Ni  Ni0  1  0.74896400  0.99956700  0.00207400  1
  Ni  Ni1  1  0.25103600  0.99956700  0.00207400  1
  Ni  Ni2  1  0.00000000  0.56212200  0.28232500  1
  Ni  Ni3  1  0.00000000  0.28896500  0.14930300  1
loop_
_geom_bond_atom_site_label_1
_geom_bond_atom_site_label_2
_geom_bond_distance
_geom_bond_site_symmetry_2
Nd0 Ni1 2.970412 1_546
Nd0 Ni0 2.970412 1_446
Nd0 Si3 3.098049 1_455
Nd0 Si3 3.098049 1_555
Nd0 Si2 3.138023 1_555
Nd1 Ni0 2.966639 1_456
Nd1 Ni1 2.966639 1_556
Nd1 Ni2 3.009549 1_556
Nd1 Si4 3.138112 1_455
Nd1 Si4 3.138112 1_555
Nd2 Ni0 2.953684 1_455
Nd2 Ni1 2.953684 1_555
Nd2 Ni3 3.057913 1_565
Nd2 Si5 3.143421 1_455
Nd2 Si5 3.143421 1_555
Nd3 Ni0 2.967892 1_555
Nd3 Ni1 2.967892 1_555
Nd3 Ni2 3.086975 1_555
Nd3 Ni2 3.086975 1_655
Nd3 Si5 3.120225 1_555
Nd4 Ni0 2.981172 1_545
Nd4 Ni1 2.981172 1_545
Nd4 Ni3 3.062314 1_555
Nd4 Ni3 3.062314 1_655
Nd4 Si3 3.130962 1_554
Nd5 Ni0 2.966566 1_546
Nd5 Ni1 2.966566 1_546
Nd5 Si4 3.109244 1_545
Nd5 Si2 3.114464 1_655
Nd5 Si2 3.114464 1_555
Nd6 Si0 3.053506 1_555
Nd6 Si0 3.053506 1_455
Nd6 Si2 3.127557 1_565
Nd6 Si5 3.169402 1_455
Nd6 Si5 3.169402 1_555
Nd6 Si4 3.214327 1_455
Nd6 Si4 3.214327 1_555
Nd7 Si0 3.081690 1_455
Nd7 Si0 3.081690 1_555
Nd7 Ni2 3.140757 1_555
Nd7 Si3 3.174387 1_455
Nd7 Si3 3.174387 1_555
Nd7 Si5 3.250154 1_455
Nd7 Si5 3.250154 1_555
Nd8 Si0 3.081207 1_455
Nd8 Si0 3.081207 1_555
Nd8 Ni3 3.099602 1_556
Nd8 Si4 3.179665 1_555
Nd8 Si4 3.179665 1_455
Nd8 Si3 3.239602 1_455
Nd8 Si3 3.239602 1_555
Nd9 Si5 3.087496 1_545
Nd9 Si1 3.092915 1_555
Nd9 Si1 3.092915 1_655
Nd9 Si2 3.159361 1_555
Nd9 Si2 3.159361 1_655
Nd9 Ni3 3.300663 1_555
Nd9 Ni3 3.300663 1_655
Nd10 Si1 3.090721 1_555
Nd10 Si1 3.090721 1_655
Nd10 Si3 3.118567 1_555
Nd10 Ni2 3.187738 1_555
Nd10 Ni2 3.187738 1_655
Nd10 Si2 3.263969 1_555
Nd10 Si2 3.263969 1_655
Nd11 Si1 3.021643 1_655
Nd11 Si1 3.021643 1_555
Nd11 Ni3 3.102584 1_555
Nd11 Ni3 3.102584 1_655
Nd11 Si4 3.183139 1_554
Nd11 Ni2 3.268982 1_555
Nd11 Ni2 3.268982 1_655
Si0 Si3 2.423169 1_555
Si0 Si5 2.430566 1_555
Si0 Si4 2.435936 1_555
Si1 Si2 2.510605 1_555
Ni0 Ni1 2.244066 1_555
Ni0 Ni1 2.262743 1_655
Ni2 Si1 2.417511 1_555
Ni3 Si1 2.434922 1_555
