# generated using pymatgen
data_Ce2CuGe3
_symmetry_space_group_name_H-M   'P 1'
_cell_length_a   4.27219217
_cell_length_b   4.27219217
_cell_length_c   7.98431200
_cell_angle_alpha   90.00000000
_cell_angle_beta   90.00000000
_cell_angle_gamma   120.00000266
_symmetry_Int_Tables_number   1
_chemical_formula_structural   Ce2CuGe3
_chemical_formula_sum   'Ce2 Cu1 Ge3'
_cell_volume   126.20300013
_cell_formula_units_Z   1
loop_
 _symmetry_equiv_pos_site_id
 _symmetry_equiv_pos_as_xyz
  1  'x, y, z'
loop_
 _atom_site_type_symbol
 _atom_site_label
 _atom_site_symmetry_multiplicity
 _atom_site_fract_x
 _atom_site_fract_y
 _atom_site_fract_z
 _atom_site_occupancy
  Ce  Ce0  1  0.66666700  0.33333300  0.24807400  1
  Ce  Ce1  1  0.66666700  0.33333300  0.75192600  1
  Cu  Cu0  1  0.00000000  0.00000000  0.00000000  1
  Ge  Ge0  1  0.00000000  0.00000000  0.50000000  1
  Ge  Ge1  1  0.33333300  0.66666700  0.00000000  1
  Ge  Ge2  1  0.33333300  0.66666700  0.50000000  1
loop_
_geom_bond_atom_site_label_1
_geom_bond_atom_site_label_2
_geom_bond_distance
_geom_bond_site_symmetry_2
Ce0 Ge1 3.163390 1_545
Ce0 Ge1 3.163390 1_655
Ce0 Cu0 3.163390 1_655
Ce0 Cu0 3.163393 1_665
Ce0 Cu0 3.163393 1_555
Ce0 Ge1 3.163396 1_555
Ce0 Ge2 3.182737 1_545
Ce0 Ge2 3.182737 1_655
Ce0 Ge0 3.182737 1_655
Ce0 Ge0 3.182740 1_665
Ce0 Ge0 3.182740 1_555
Ce0 Ge2 3.182743 1_555
Ce1 Ge1 3.163390 1_546
Ce1 Ge1 3.163390 1_656
Ce1 Cu0 3.163390 1_656
Ce1 Cu0 3.163393 1_556
Ce1 Cu0 3.163393 1_666
Ce1 Ge1 3.163396 1_556
Ce1 Ge2 3.182737 1_545
Ce1 Ge2 3.182737 1_655
Ce1 Ge0 3.182737 1_655
Ce1 Ge0 3.182740 1_665
Ce1 Ge0 3.182740 1_555
Ce1 Ge2 3.182743 1_555
Cu0 Ge1 2.466549 1_545
Cu0 Ge1 2.466552 1_555
Cu0 Ge1 2.466552 1_445
Ge0 Ge2 2.466549 1_545
Ge0 Ge2 2.466552 1_445
Ge0 Ge2 2.466552 1_555
