# generated using pymatgen
data_Er2(Ni2B)5
_symmetry_space_group_name_H-M   'P 1'
_cell_length_a   8.96762788
_cell_length_b   9.43446842
_cell_length_c   17.52007162
_cell_angle_alpha   90.00000000
_cell_angle_beta   90.00000000
_cell_angle_gamma   90.00000000
_symmetry_Int_Tables_number   1
_chemical_formula_structural   Er2(Ni2B)5
_chemical_formula_sum   'Er16 Ni80 B40'
_cell_volume   1482.28219107
_cell_formula_units_Z   8
loop_
 _symmetry_equiv_pos_site_id
 _symmetry_equiv_pos_as_xyz
  1  'x, y, z'
loop_
 _atom_site_type_symbol
 _atom_site_label
 _atom_site_symmetry_multiplicity
 _atom_site_fract_x
 _atom_site_fract_y
 _atom_site_fract_z
 _atom_site_occupancy
  Er  Er0  1  0.12401997  0.85901305  0.27792870  1
  Er  Er1  1  0.37598003  0.14098695  0.77792870  1
  Er  Er2  1  0.62401997  0.64098695  0.72207130  1
  Er  Er3  1  0.87598003  0.35901305  0.22207130  1
  Er  Er4  1  0.87598003  0.14098695  0.72207130  1
  Er  Er5  1  0.62401997  0.85901305  0.22207130  1
  Er  Er6  1  0.37598003  0.35901305  0.27792870  1
  Er  Er7  1  0.12401997  0.64098695  0.77792870  1
  Er  Er8  1  0.21987144  0.88723410  0.48011467  1
  Er  Er9  1  0.28012856  0.11276590  0.98011467  1
  Er  Er10  1  0.71987144  0.61276590  0.51988533  1
  Er  Er11  1  0.78012856  0.38723410  0.01988533  1
  Er  Er12  1  0.78012856  0.11276590  0.51988533  1
  Er  Er13  1  0.71987144  0.88723410  0.01988533  1
  Er  Er14  1  0.28012856  0.38723410  0.48011467  1
  Er  Er15  1  0.21987144  0.61276590  0.98011467  1
  Ni  Ni0  1  0.12143104  0.96200557  0.72692949  1
  Ni  Ni1  1  0.37856896  0.03799443  0.22692949  1
  Ni  Ni2  1  0.62143104  0.53799443  0.27307051  1
  Ni  Ni3  1  0.87856896  0.46200557  0.77307051  1
  Ni  Ni4  1  0.87856896  0.03799443  0.27307051  1
  Ni  Ni5  1  0.62143104  0.96200557  0.77307051  1
  Ni  Ni6  1  0.37856896  0.46200557  0.72692949  1
  Ni  Ni7  1  0.12143104  0.53799443  0.22692949  1
  Ni  Ni8  1  0.12632730  0.17625088  0.23692189  1
  Ni  Ni9  1  0.37367270  0.82374912  0.73692189  1
  Ni  Ni10  1  0.62632730  0.32374912  0.76307811  1
  Ni  Ni11  1  0.87367270  0.67625088  0.26307811  1
  Ni  Ni12  1  0.87367270  0.82374912  0.76307811  1
  Ni  Ni13  1  0.62632730  0.17625088  0.26307811  1
  Ni  Ni14  1  0.37367270  0.67625088  0.23692189  1
  Ni  Ni15  1  0.12632730  0.32374912  0.73692189  1
  Ni  Ni16  1  0.07826945  0.88658999  0.01581489  1
  Ni  Ni17  1  0.42173055  0.11341001  0.51581489  1
  Ni  Ni18  1  0.57826945  0.61341001  0.98418511  1
  Ni  Ni19  1  0.92173055  0.38658999  0.48418511  1
  Ni  Ni20  1  0.92173055  0.11341001  0.98418511  1
  Ni  Ni21  1  0.57826945  0.88658999  0.48418511  1
  Ni  Ni22  1  0.42173055  0.38658999  0.01581489  1
  Ni  Ni23  1  0.07826945  0.61341001  0.51581489  1
  Ni  Ni24  1  0.16202793  0.78165215  0.62717310  1
  Ni  Ni25  1  0.33797207  0.21834785  0.12717310  1
  Ni  Ni26  1  0.66202793  0.71834785  0.37282690  1
  Ni  Ni27  1  0.83797207  0.28165215  0.87282690  1
  Ni  Ni28  1  0.83797207  0.21834785  0.37282690  1
  Ni  Ni29  1  0.66202793  0.78165215  0.87282690  1
  Ni  Ni30  1  0.33797207  0.28165215  0.62717310  1
  Ni  Ni31  1  0.16202793  0.71834785  0.12717310  1
  Ni  Ni32  1  0.17698661  0.99392022  0.13037887  1
  Ni  Ni33  1  0.32301339  0.00607978  0.63037887  1
  Ni  Ni34  1  0.67698661  0.50607978  0.86962113  1
  Ni  Ni35  1  0.82301339  0.49392022  0.36962113  1
  Ni  Ni36  1  0.82301339  0.00607978  0.86962113  1
  Ni  Ni37  1  0.67698661  0.99392022  0.36962113  1
  Ni  Ni38  1  0.32301339  0.49392022  0.13037887  1
  Ni  Ni39  1  0.17698661  0.50607978  0.63037887  1
  Ni  Ni40  1  0.23133316  0.89330035  0.86496666  1
  Ni  Ni41  1  0.26866684  0.10669965  0.36496666  1
  Ni  Ni42  1  0.73133316  0.60669965  0.13503334  1
  Ni  Ni43  1  0.76866684  0.39330035  0.63503334  1
  Ni  Ni44  1  0.76866684  0.10669965  0.13503334  1
  Ni  Ni45  1  0.73133316  0.89330035  0.63503334  1
  Ni  Ni46  1  0.26866684  0.39330035  0.86496666  1
  Ni  Ni47  1  0.23133316  0.60669965  0.36496666  1
  Ni  Ni48  1  0.09060935  0.14696165  0.84997925  1
  Ni  Ni49  1  0.40939065  0.85303835  0.34997925  1
  Ni  Ni50  1  0.59060935  0.35303835  0.15002075  1
  Ni  Ni51  1  0.90939065  0.64696165  0.65002075  1
  Ni  Ni52  1  0.90939065  0.85303835  0.15002075  1
  Ni  Ni53  1  0.59060935  0.14696165  0.65002075  1
  Ni  Ni54  1  0.40939065  0.64696165  0.84997925  1
  Ni  Ni55  1  0.09060935  0.35303835  0.34997925  1
  Ni  Ni56  1  0.04260235  0.02209131  0.59622353  1
  Ni  Ni57  1  0.45739765  0.97790869  0.09622353  1
  Ni  Ni58  1  0.54260235  0.47790869  0.40377647  1
  Ni  Ni59  1  0.95739765  0.52209131  0.90377647  1
  Ni  Ni60  1  0.95739765  0.97790869  0.40377647  1
  Ni  Ni61  1  0.54260235  0.02209131  0.90377647  1
  Ni  Ni62  1  0.45739765  0.52209131  0.59622353  1
  Ni  Ni63  1  0.04260235  0.47790869  0.09622353  1
  Ni  Ni64  1  0.04361548  0.21872206  0.09840394  1
  Ni  Ni65  1  0.45638452  0.78127794  0.59840394  1
  Ni  Ni66  1  0.54361548  0.28127794  0.90159606  1
  Ni  Ni67  1  0.95638452  0.71872206  0.40159606  1
  Ni  Ni68  1  0.95638452  0.78127794  0.90159606  1
  Ni  Ni69  1  0.54361548  0.21872206  0.40159606  1
  Ni  Ni70  1  0.45638452  0.71872206  0.09840394  1
  Ni  Ni71  1  0.04361548  0.28127794  0.59840394  1
  Ni  Ni72  1  0.08060411  0.16616537  0.46844249  1
  Ni  Ni73  1  0.41939589  0.83383463  0.96844249  1
  Ni  Ni74  1  0.58060411  0.33383463  0.53155751  1
  Ni  Ni75  1  0.91939589  0.66616537  0.03155751  1
  Ni  Ni76  1  0.91939589  0.83383463  0.53155751  1
  Ni  Ni77  1  0.58060411  0.16616537  0.03155751  1
  Ni  Ni78  1  0.41939589  0.66616537  0.46844249  1
  Ni  Ni79  1  0.08060411  0.33383463  0.96844249  1
  B  B0  1  0.97610487  0.06402497  0.17665099  1
  B  B1  1  0.52389513  0.93597503  0.67665099  1
  B  B2  1  0.47610487  0.43597503  0.82334901  1
  B  B3  1  0.02389513  0.56402497  0.32334901  1
  B  B4  1  0.02389513  0.93597503  0.82334901  1
  B  B5  1  0.47610487  0.06402497  0.32334901  1
  B  B6  1  0.52389513  0.56402497  0.17665099  1
  B  B7  1  0.97610487  0.43597503  0.67665099  1
  B  B8  1  0.16628188  0.14778042  0.66735005  1
  B  B9  1  0.33371812  0.85221958  0.16735005  1
  B  B10  1  0.66628188  0.35221958  0.33264995  1
  B  B11  1  0.83371812  0.64778042  0.83264995  1
  B  B12  1  0.83371812  0.85221958  0.33264995  1
  B  B13  1  0.66628188  0.14778042  0.83264995  1
  B  B14  1  0.33371812  0.64778042  0.66735005  1
  B  B15  1  0.16628188  0.35221958  0.16735005  1
  B  B16  1  0.04810297  0.14125926  0.34487840  1
  B  B17  1  0.45189703  0.85874074  0.84487840  1
  B  B18  1  0.54810297  0.35874074  0.65512160  1
  B  B19  1  0.95189703  0.64125926  0.15512160  1
  B  B20  1  0.95189703  0.85874074  0.65512160  1
  B  B21  1  0.54810297  0.14125926  0.15512160  1
  B  B22  1  0.45189703  0.64125926  0.34487840  1
  B  B23  1  0.04810297  0.35874074  0.84487840  1
  B  B24  1  0.21217109  0.14820251  0.56174498  1
  B  B25  1  0.28782891  0.85179749  0.06174498  1
  B  B26  1  0.71217109  0.35179749  0.43825502  1
  B  B27  1  0.78782891  0.64820251  0.93825502  1
  B  B28  1  0.78782891  0.85179749  0.43825502  1
  B  B29  1  0.71217109  0.14820251  0.93825502  1
  B  B30  1  0.28782891  0.64820251  0.56174498  1
  B  B31  1  0.21217109  0.35179749  0.06174498  1
  B  B32  1  0.03831175  0.98093181  0.91787628  1
  B  B33  1  0.46168825  0.01906819  0.41787628  1
  B  B34  1  0.53831175  0.51906819  0.08212372  1
  B  B35  1  0.96168825  0.48093181  0.58212372  1
  B  B36  1  0.96168825  0.01906819  0.08212372  1
  B  B37  1  0.53831175  0.98093181  0.58212372  1
  B  B38  1  0.46168825  0.48093181  0.91787628  1
  B  B39  1  0.03831175  0.51906819  0.41787628  1
loop_
_geom_bond_atom_site_label_1
_geom_bond_atom_site_label_2
_geom_bond_distance
_geom_bond_site_symmetry_2
Er0 Ni4 2.775517 1_465
Er0 Ni11 2.842693 1_455
Er0 Ni49 2.854057 1_555
Er0 Ni60 2.890038 1_455
Er0 Ni14 2.915723 1_555
Er0 Ni32 2.920313 1_555
Er0 Ni67 2.950618 1_455
Er0 Ni52 2.954589 1_455
Er0 Ni31 2.975494 1_555
Er0 Ni1 2.976648 1_565
Er0 Ni47 2.986297 1_555
Er0 Ni41 3.077096 1_565
Er0 Ni8 3.078061 1_565
Er0 Ni7 3.157778 1_555
Er1 Ni5 2.775517 1_545
Er1 Ni10 2.842693 1_555
Er1 Ni48 2.854057 1_555
Er1 Ni61 2.890038 1_555
Er1 Ni15 2.915723 1_555
Er1 Ni33 2.920313 1_555
Er1 Ni66 2.950618 1_555
Er1 Ni53 2.954589 1_555
Er1 Ni30 2.975494 1_555
Er1 Ni0 2.976648 1_545
Er1 Ni46 2.986297 1_555
Er1 Ni40 3.077096 1_545
Er1 Ni9 3.078061 1_545
Er1 Ni6 3.157778 1_555
Er2 Ni6 2.775517 1_555
Er2 Ni9 2.842693 1_555
Er2 Ni51 2.854057 1_555
Er2 Ni62 2.890038 1_555
Er2 Ni12 2.915723 1_555
Er2 Ni34 2.920313 1_555
Er2 Ni65 2.950618 1_555
Er2 Ni54 2.954589 1_555
Er2 Ni29 2.975494 1_555
Er2 Ni3 2.976648 1_555
Er2 Ni45 2.986297 1_555
Er2 Ni43 3.077096 1_555
Er2 Ni10 3.078061 1_555
Er2 Ni5 3.157778 1_555
Er3 Ni7 2.775517 1_655
Er3 Ni8 2.842693 1_655
Er3 Ni50 2.854057 1_555
Er3 Ni63 2.890038 1_655
Er3 Ni13 2.915723 1_555
Er3 Ni35 2.920313 1_555
Er3 Ni64 2.950618 1_655
Er3 Ni55 2.954589 1_655
Er3 Ni28 2.975494 1_555
Er3 Ni2 2.976648 1_555
Er3 Ni44 2.986297 1_555
Er3 Ni42 3.077096 1_555
Er3 Ni11 3.078061 1_555
Er3 Ni4 3.157778 1_555
Er4 Ni0 2.775517 1_645
Er4 Ni15 2.842693 1_655
Er4 Ni53 2.854057 1_555
Er4 Ni56 2.890038 1_655
Er4 Ni10 2.915723 1_555
Er4 Ni36 2.920313 1_555
Er4 Ni71 2.950618 1_655
Er4 Ni48 2.954589 1_655
Er4 Ni27 2.975494 1_555
Er4 Ni5 2.976648 1_545
Er4 Ni43 2.986297 1_555
Er4 Ni45 3.077096 1_545
Er4 Ni12 3.078061 1_545
Er4 Ni3 3.157778 1_555
Er5 Ni1 2.775517 1_565
Er5 Ni14 2.842693 1_555
Er5 Ni52 2.854057 1_555
Er5 Ni57 2.890038 1_555
Er5 Ni11 2.915723 1_555
Er5 Ni37 2.920313 1_555
Er5 Ni70 2.950618 1_555
Er5 Ni49 2.954589 1_555
Er5 Ni26 2.975494 1_555
Er5 Ni4 2.976648 1_565
Er5 Ni42 2.986297 1_555
Er5 Ni44 3.077096 1_565
Er5 Ni13 3.078061 1_565
Er5 Ni2 3.157778 1_555
Er6 Ni2 2.775517 1_555
Er6 Ni13 2.842693 1_555
Er6 Ni55 2.854057 1_555
Er6 Ni58 2.890038 1_555
Er6 Ni8 2.915723 1_555
Er6 Ni38 2.920313 1_555
Er6 Ni69 2.950618 1_555
Er6 Ni50 2.954589 1_555
Er6 Ni25 2.975494 1_555
Er6 Ni7 2.976648 1_555
Er6 Ni41 2.986297 1_555
Er6 Ni47 3.077096 1_555
Er6 Ni14 3.078061 1_555
Er6 Ni1 3.157778 1_555
Er7 Ni3 2.775517 1_455
Er7 Ni12 2.842693 1_455
Er7 Ni54 2.854057 1_555
Er7 Ni59 2.890038 1_455
Er7 Ni9 2.915723 1_555
Er7 Ni39 2.920313 1_555
Er7 Ni68 2.950618 1_455
Er7 Ni51 2.954589 1_455
Er7 Ni24 2.975494 1_555
Er7 Ni6 2.976648 1_555
Er7 Ni40 2.986297 1_555
Er7 Ni46 3.077096 1_555
Er7 Ni15 3.078061 1_555
Er7 Ni0 3.157778 1_555
Er8 Ni78 2.755590 1_555
Er8 Ni24 2.810609 1_555
Er8 Ni60 2.839158 1_455
Er8 Ni49 2.861962 1_555
Er8 Ni17 2.867288 1_565
Er8 Ni56 2.878189 1_565
Er8 Ni76 2.885608 1_455
Er8 Ni72 2.920054 1_565
Er8 Ni41 2.923786 1_565
Er8 Ni23 2.945771 1_555
Er8 Ni33 3.007240 1_565
Er8 Ni65 3.129337 1_555
Er8 Ni67 3.162756 1_455
Er8 Ni21 3.214777 1_555
Er8 Ni47 3.329483 1_555
Er9 Ni79 2.755590 1_555
Er9 Ni25 2.810609 1_556
Er9 Ni61 2.839158 1_555
Er9 Ni48 2.861962 1_555
Er9 Ni16 2.867288 1_546
Er9 Ni57 2.878189 1_546
Er9 Ni77 2.885608 1_556
Er9 Ni73 2.920054 1_545
Er9 Ni40 2.923786 1_545
Er9 Ni22 2.945771 1_556
Er9 Ni32 3.007240 1_546
Er9 Ni64 3.129337 1_556
Er9 Ni66 3.162756 1_555
Er9 Ni20 3.214777 1_455
Er9 Ni46 3.329483 1_555
Er10 Ni76 2.755590 1_555
Er10 Ni26 2.810609 1_555
Er10 Ni62 2.839158 1_555
Er10 Ni51 2.861962 1_555
Er10 Ni19 2.867288 1_555
Er10 Ni58 2.878189 1_555
Er10 Ni78 2.885608 1_555
Er10 Ni74 2.920054 1_555
Er10 Ni43 2.923786 1_555
Er10 Ni21 2.945771 1_555
Er10 Ni35 3.007240 1_555
Er10 Ni67 3.129337 1_555
Er10 Ni65 3.162756 1_555
Er10 Ni23 3.214777 1_655
Er10 Ni45 3.329483 1_555
Er11 Ni77 2.755590 1_555
Er11 Ni27 2.810609 1_554
Er11 Ni63 2.839158 1_655
Er11 Ni50 2.861962 1_555
Er11 Ni18 2.867288 1_554
Er11 Ni59 2.878189 1_554
Er11 Ni79 2.885608 1_654
Er11 Ni75 2.920054 1_555
Er11 Ni42 2.923786 1_555
Er11 Ni20 2.945771 1_554
Er11 Ni34 3.007240 1_554
Er11 Ni66 3.129337 1_554
Er11 Ni64 3.162756 1_655
Er11 Ni22 3.214777 1_555
Er11 Ni44 3.329483 1_555
Er12 Ni74 2.755590 1_555
Er12 Ni28 2.810609 1_555
Er12 Ni56 2.839158 1_655
Er12 Ni53 2.861962 1_555
Er12 Ni21 2.867288 1_545
Er12 Ni60 2.878189 1_545
Er12 Ni72 2.885608 1_655
Er12 Ni76 2.920054 1_545
Er12 Ni45 2.923786 1_545
Er12 Ni19 2.945771 1_555
Er12 Ni37 3.007240 1_545
Er12 Ni69 3.129337 1_555
Er12 Ni71 3.162756 1_655
Er12 Ni17 3.214777 1_555
Er12 Ni43 3.329483 1_555
Er13 Ni75 2.755590 1_555
Er13 Ni29 2.810609 1_554
Er13 Ni57 2.839158 1_555
Er13 Ni52 2.861962 1_555
Er13 Ni20 2.867288 1_564
Er13 Ni61 2.878189 1_564
Er13 Ni73 2.885608 1_554
Er13 Ni77 2.920054 1_565
Er13 Ni44 2.923786 1_565
Er13 Ni18 2.945771 1_554
Er13 Ni36 3.007240 1_564
Er13 Ni68 3.129337 1_554
Er13 Ni70 3.162756 1_555
Er13 Ni16 3.214777 1_655
Er13 Ni42 3.329483 1_555
Er14 Ni72 2.755590 1_555
Er14 Ni30 2.810609 1_555
Er14 Ni58 2.839158 1_555
Er14 Ni55 2.861962 1_555
Er14 Ni23 2.867288 1_555
Er14 Ni62 2.878189 1_555
Er14 Ni74 2.885608 1_555
Er14 Ni78 2.920054 1_555
Er14 Ni47 2.923786 1_555
Er14 Ni17 2.945771 1_555
Er14 Ni39 3.007240 1_555
Er14 Ni71 3.129337 1_555
Er14 Ni69 3.162756 1_555
Er14 Ni19 3.214777 1_455
Er14 Ni41 3.329483 1_555
Er15 Ni73 2.755590 1_555
Er15 Ni31 2.810609 1_556
Er15 Ni59 2.839158 1_455
Er15 Ni54 2.861962 1_555
Er15 Ni22 2.867288 1_556
Er15 Ni63 2.878189 1_556
Er15 Ni75 2.885608 1_456
Er15 Ni79 2.920054 1_555
Er15 Ni46 2.923786 1_555
Er15 Ni16 2.945771 1_556
Er15 Ni38 3.007240 1_556
Er15 Ni70 3.129337 1_556
Er15 Ni68 3.162756 1_455
Er15 Ni18 3.214777 1_555
Er15 Ni40 3.329483 1_555
B0 B36 1.714456 1_555
B0 Ni4 1.918074 1_555
B0 Ni8 2.012673 1_655
B0 Ni44 2.038184 1_555
B0 Ni32 2.083226 1_645
B0 Ni64 2.091881 1_655
B0 Ni52 2.130231 1_545
B0 Er0 2.940915 1_645
B0 Er3 3.030650 1_555
B1 B37 1.714456 1_555
B1 Ni5 1.918074 1_555
B1 Ni9 2.012673 1_555
B1 Ni45 2.038184 1_555
B1 Ni33 2.083226 1_565
B1 Ni65 2.091881 1_555
B1 Ni53 2.130231 1_565
B1 Er1 2.940915 1_565
B1 Er2 3.030650 1_555
B2 B38 1.714456 1_555
B2 Ni6 1.918074 1_555
B2 Ni10 2.012673 1_555
B2 Ni46 2.038184 1_555
B2 Ni34 2.083226 1_555
B2 Ni66 2.091881 1_555
B2 Ni54 2.130231 1_555
B2 Er2 2.940915 1_555
B2 Er1 3.030650 1_555
B3 B39 1.714456 1_555
B3 Ni7 1.918074 1_555
B3 Ni11 2.012673 1_455
B3 Ni47 2.038184 1_555
B3 Ni35 2.083226 1_455
B3 Ni67 2.091881 1_455
B3 Ni55 2.130231 1_555
B3 Er3 2.940915 1_455
B3 Er0 3.030650 1_555
B4 Ni0 1.918074 1_555
B4 Ni12 2.012673 1_455
B4 Ni40 2.038184 1_555
B4 Ni36 2.083226 1_465
B4 Ni68 2.091881 1_455
B4 Ni48 2.130231 1_565
B4 Er4 2.940915 1_465
B4 Er7 3.030650 1_555
B5 Ni1 1.918074 1_555
B5 Ni13 2.012673 1_555
B5 Ni41 2.038184 1_555
B5 Ni37 2.083226 1_545
B5 Ni69 2.091881 1_555
B5 Ni49 2.130231 1_545
B5 Er5 2.940915 1_545
B5 Er6 3.030650 1_555
B6 Ni2 1.918074 1_555
B6 Ni14 2.012673 1_555
B6 Ni42 2.038184 1_555
B6 Ni38 2.083226 1_555
B6 Ni70 2.091881 1_555
B6 Ni50 2.130231 1_555
B6 Er6 2.940915 1_555
B6 Er5 3.030650 1_555
B7 Ni3 1.918074 1_555
B7 Ni15 2.012673 1_655
B7 Ni43 2.038184 1_555
B7 Ni39 2.083226 1_655
B7 Ni71 2.091881 1_655
B7 Ni51 2.130231 1_555
B7 Er7 2.940915 1_655
B7 Er4 3.030650 1_555
B8 Ni33 2.045054 1_555
B8 Ni56 2.046740 1_555
B8 Ni71 2.062878 1_555
B8 Ni0 2.079249 1_545
B8 Ni15 2.090519 1_555
B8 Ni30 2.112156 1_555
B8 Er1 2.700681 1_555
B8 Er4 2.774981 1_455
B9 Ni32 2.045054 1_555
B9 Ni57 2.046740 1_555
B9 Ni70 2.062878 1_555
B9 Ni1 2.079249 1_565
B9 Ni14 2.090519 1_555
B9 Ni31 2.112156 1_555
B9 Er0 2.700681 1_555
B9 Er5 2.774981 1_555
B10 B26 1.895424 1_555
B10 Ni35 2.045054 1_555
B10 Ni58 2.046740 1_555
B10 Ni69 2.062878 1_555
B10 Ni2 2.079249 1_555
B10 Ni13 2.090519 1_555
B10 Ni28 2.112156 1_555
B10 Er3 2.700681 1_555
B10 Er6 2.774981 1_555
B11 B27 1.895424 1_555
B11 Ni34 2.045054 1_555
B11 Ni59 2.046740 1_555
B11 Ni68 2.062878 1_555
B11 Ni3 2.079249 1_555
B11 Ni12 2.090519 1_555
B11 Ni29 2.112156 1_555
B11 Er2 2.700681 1_555
B11 Er7 2.774981 1_655
B12 B28 1.895424 1_555
B12 Ni37 2.045054 1_555
B12 Ni60 2.046740 1_555
B12 Ni67 2.062878 1_555
B12 Ni4 2.079249 1_565
B12 Ni11 2.090519 1_555
B12 Ni26 2.112156 1_555
B12 Er5 2.700681 1_555
B12 Er0 2.774981 1_655
B13 B29 1.895424 1_555
B13 Ni36 2.045054 1_555
B13 Ni61 2.046740 1_555
B13 Ni66 2.062878 1_555
B13 Ni5 2.079249 1_545
B13 Ni10 2.090519 1_555
B13 Ni27 2.112156 1_555
B13 Er4 2.700681 1_555
B13 Er1 2.774981 1_555
B14 B30 1.895424 1_555
B14 Ni39 2.045054 1_555
B14 Ni62 2.046740 1_555
B14 Ni65 2.062878 1_555
B14 Ni6 2.079249 1_555
B14 Ni9 2.090519 1_555
B14 Ni24 2.112156 1_555
B14 Er7 2.700681 1_555
B14 Er2 2.774981 1_555
B15 B31 1.895424 1_555
B15 Ni38 2.045054 1_555
B15 Ni63 2.046740 1_555
B15 Ni64 2.062878 1_555
B15 Ni7 2.079249 1_555
B15 Ni8 2.090519 1_555
B15 Ni25 2.112156 1_555
B15 Er6 2.700681 1_555
B15 Er3 2.774981 1_455
B16 Ni60 2.025221 1_445
B16 Ni41 2.035289 1_555
B16 Ni55 2.036021 1_555
B16 Ni8 2.044134 1_555
B16 Ni28 2.078362 1_455
B16 Ni72 2.196985 1_555
B16 Ni4 2.200748 1_455
B16 Er0 2.988320 1_545
B17 Ni61 2.025221 1_565
B17 Ni40 2.035289 1_555
B17 Ni54 2.036021 1_555
B17 Ni9 2.044134 1_555
B17 Ni29 2.078362 1_555
B17 Ni73 2.196985 1_555
B17 Ni5 2.200748 1_555
B17 Er1 2.988320 1_565
B18 Ni62 2.025221 1_555
B18 Ni43 2.035289 1_555
B18 Ni53 2.036021 1_555
B18 Ni10 2.044134 1_555
B18 Ni30 2.078362 1_555
B18 Ni74 2.196985 1_555
B18 Ni6 2.200748 1_555
B18 Er2 2.988320 1_555
B19 Ni63 2.025221 1_655
B19 Ni42 2.035289 1_555
B19 Ni52 2.036021 1_555
B19 Ni11 2.044134 1_555
B19 Ni31 2.078362 1_655
B19 Ni75 2.196985 1_555
B19 Ni7 2.200748 1_655
B19 Er3 2.988320 1_555
B20 Ni56 2.025221 1_665
B20 Ni45 2.035289 1_555
B20 Ni51 2.036021 1_555
B20 Ni12 2.044134 1_555
B20 Ni24 2.078362 1_655
B20 Ni76 2.196985 1_555
B20 Ni0 2.200748 1_655
B20 Er4 2.988320 1_565
B21 Ni57 2.025221 1_545
B21 Ni44 2.035289 1_555
B21 Ni50 2.036021 1_555
B21 Ni13 2.044134 1_555
B21 Ni25 2.078362 1_555
B21 Ni77 2.196985 1_555
B21 Ni1 2.200748 1_555
B21 Er5 2.988320 1_545
B22 Ni58 2.025221 1_555
B22 Ni47 2.035289 1_555
B22 Ni49 2.036021 1_555
B22 Ni14 2.044134 1_555
B22 Ni26 2.078362 1_555
B22 Ni78 2.196985 1_555
B22 Ni2 2.200748 1_555
B22 Er6 2.988320 1_555
B23 Ni59 2.025221 1_455
B23 Ni46 2.035289 1_555
B23 Ni48 2.036021 1_555
B23 Ni15 2.044134 1_555
B23 Ni27 2.078362 1_455
B23 Ni79 2.196985 1_555
B23 Ni3 2.200748 1_455
B23 Er7 2.988320 1_555
B24 B8 1.895424 1_555
B24 Ni56 2.023071 1_555
B24 Ni72 2.023088 1_555
B24 Ni30 2.042512 1_555
B24 Ni33 2.057144 1_555
B24 Ni71 2.067255 1_555
B24 Ni17 2.070476 1_555
B24 Er14 2.739053 1_555
B24 Er8 2.848171 1_545
B25 B9 1.895424 1_555
B25 Ni57 2.023071 1_555
B25 Ni73 2.023088 1_554
B25 Ni31 2.042512 1_555
B25 Ni32 2.057144 1_555
B25 Ni70 2.067255 1_555
B25 Ni16 2.070476 1_555
B25 Er15 2.739053 1_554
B25 Er9 2.848171 1_564
B26 Ni58 2.023071 1_555
B26 Ni74 2.023088 1_555
B26 Ni28 2.042512 1_555
B26 Ni35 2.057144 1_555
B26 Ni69 2.067255 1_555
B26 Ni19 2.070476 1_555
B26 Er12 2.739053 1_555
B26 Er10 2.848171 1_555
B27 Ni59 2.023071 1_555
B27 Ni75 2.023088 1_556
B27 Ni29 2.042512 1_555
B27 Ni34 2.057144 1_555
B27 Ni68 2.067255 1_555
B27 Ni18 2.070476 1_555
B27 Er13 2.739053 1_556
B27 Er11 2.848171 1_556
B28 Ni60 2.023071 1_555
B28 Ni76 2.023088 1_555
B28 Ni26 2.042512 1_555
B28 Ni37 2.057144 1_555
B28 Ni67 2.067255 1_555
B28 Ni21 2.070476 1_555
B28 Er10 2.739053 1_555
B28 Er12 2.848171 1_565
B29 Ni61 2.023071 1_555
B29 Ni77 2.023088 1_556
B29 Ni27 2.042512 1_555
B29 Ni36 2.057144 1_555
B29 Ni66 2.067255 1_555
B29 Ni20 2.070476 1_555
B29 Er11 2.739053 1_556
B29 Er13 2.848171 1_546
B30 Ni62 2.023071 1_555
B30 Ni78 2.023088 1_555
B30 Ni24 2.042512 1_555
B30 Ni39 2.057144 1_555
B30 Ni65 2.067255 1_555
B30 Ni23 2.070476 1_555
B30 Er8 2.739053 1_555
B30 Er14 2.848171 1_555
B31 Ni63 2.023071 1_555
B31 Ni79 2.023088 1_554
B31 Ni25 2.042512 1_555
B31 Ni38 2.057144 1_555
B31 Ni64 2.067255 1_555
B31 Ni22 2.070476 1_555
B31 Er9 2.739053 1_554
B31 Er15 2.848171 1_554
B32 B4 1.714456 1_555
B32 Ni16 1.965934 1_556
B32 Ni20 2.001190 1_465
B32 Ni48 2.022034 1_565
B32 Ni68 2.041858 1_455
B32 Ni36 2.121017 1_465
B32 Ni40 2.130490 1_555
B32 Er9 2.727363 1_565
B33 B5 1.714456 1_555
B33 Ni17 1.965934 1_555
B33 Ni21 2.001190 1_545
B33 Ni49 2.022034 1_545
B33 Ni69 2.041858 1_555
B33 Ni37 2.121017 1_545
B33 Ni41 2.130490 1_555
B33 Er8 2.727363 1_545
B34 B6 1.714456 1_555
B34 Ni18 1.965934 1_554
B34 Ni22 2.001190 1_555
B34 Ni50 2.022034 1_555
B34 Ni70 2.041858 1_555
B34 Ni38 2.121017 1_555
B34 Ni42 2.130490 1_555
B34 Er11 2.727363 1_555
B35 B7 1.714456 1_555
B35 Ni19 1.965934 1_555
B35 Ni23 2.001190 1_655
B35 Ni51 2.022034 1_555
B35 Ni71 2.041858 1_655
B35 Ni39 2.121017 1_655
B35 Ni43 2.130490 1_555
B35 Er10 2.727363 1_555
B36 Ni20 1.965934 1_554
B36 Ni16 2.001190 1_645
B36 Ni52 2.022034 1_545
B36 Ni64 2.041858 1_655
B36 Ni32 2.121017 1_645
B36 Ni44 2.130490 1_555
B36 Er13 2.727363 1_545
B37 Ni21 1.965934 1_555
B37 Ni17 2.001190 1_565
B37 Ni53 2.022034 1_565
B37 Ni65 2.041858 1_555
B37 Ni33 2.121017 1_565
B37 Ni45 2.130490 1_555
B37 Er12 2.727363 1_565
B38 Ni22 1.965934 1_556
B38 Ni18 2.001190 1_555
B38 Ni54 2.022034 1_555
B38 Ni66 2.041858 1_555
B38 Ni34 2.121017 1_555
B38 Ni46 2.130490 1_555
B38 Er15 2.727363 1_555
B39 Ni23 1.965934 1_555
B39 Ni19 2.001190 1_455
B39 Ni55 2.022034 1_555
B39 Ni67 2.041858 1_455
B39 Ni35 2.121017 1_455
B39 Ni47 2.130490 1_555
B39 Er14 2.727363 1_555
