# generated using pymatgen
data_In4H12C15O31
_symmetry_space_group_name_H-M   'P 1'
_cell_length_a   10.71074239
_cell_length_b   10.71074239
_cell_length_c   10.71074239
_cell_angle_alpha   109.47122063
_cell_angle_beta   109.47122063
_cell_angle_gamma   109.47122063
_symmetry_Int_Tables_number   1
_chemical_formula_structural   In4H12C15O31
_chemical_formula_sum   'In4 H12 C15 O31'
_cell_volume   945.88171634
_cell_formula_units_Z   1
loop_
 _symmetry_equiv_pos_site_id
 _symmetry_equiv_pos_as_xyz
  1  'x, y, z'
loop_
 _atom_site_type_symbol
 _atom_site_label
 _atom_site_symmetry_multiplicity
 _atom_site_fract_x
 _atom_site_fract_y
 _atom_site_fract_z
 _atom_site_occupancy
  In  In0  1  0.00000000  0.00000000  0.50000000  1
  In  In1  1  0.50000000  0.00000000  0.00000000  1
  In  In2  1  0.00000000  0.50000000  0.00000000  1
  In  In3  1  0.50000000  0.50000000  0.50000000  1
  H  H0  1  0.68796900  0.78159400  0.46956300  1
  H  H1  1  0.68796900  0.21840600  0.90637500  1
  H  H2  1  0.31203100  0.78159400  0.09362500  1
  H  H3  1  0.31203100  0.21840600  0.53043700  1
  H  H4  1  0.78159400  0.46956300  0.68796900  1
  H  H5  1  0.21840600  0.90637500  0.68796900  1
  H  H6  1  0.78159400  0.09362500  0.31203100  1
  H  H7  1  0.21840600  0.53043700  0.31203100  1
  H  H8  1  0.46956300  0.68796900  0.78159400  1
  H  H9  1  0.90637500  0.68796900  0.21840600  1
  H  H10  1  0.09362500  0.31203100  0.78159400  1
  H  H11  1  0.53043700  0.31203100  0.21840600  1
  C  C0  1  0.76285500  0.73230900  0.49516400  1
  C  C1  1  0.76285500  0.26769100  0.03054600  1
  C  C2  1  0.23714500  0.73230900  0.96945400  1
  C  C3  1  0.23714500  0.26769100  0.50483600  1
  C  C4  1  0.73230900  0.49516400  0.76285500  1
  C  C5  1  0.26769100  0.03054600  0.76285500  1
  C  C6  1  0.73230900  0.96945400  0.23714500  1
  C  C7  1  0.26769100  0.50483600  0.23714500  1
  C  C8  1  0.49516400  0.76285500  0.73230900  1
  C  C9  1  0.03054600  0.76285500  0.26769100  1
  C  C10  1  0.96945400  0.23714500  0.73230900  1
  C  C11  1  0.50483600  0.23714500  0.26769100  1
  C  C12  1  0.50000000  0.00000000  0.50000000  1
  C  C13  1  0.00000000  0.50000000  0.50000000  1
  C  C14  1  0.50000000  0.50000000  0.00000000  1
  O  O0  1  0.89478900  0.79358600  0.50980300  1
  O  O1  1  0.71621700  0.20641400  0.10120300  1
  O  O2  1  0.10521100  0.61501500  0.89879700  1
  O  O3  1  0.28378300  0.38498500  0.49019700  1
  O  O4  1  0.79358600  0.50980300  0.89478900  1
  O  O5  1  0.20641400  0.10120300  0.71621700  1
  O  O6  1  0.61501500  0.89879700  0.10521100  1
  O  O7  1  0.38498500  0.49019700  0.28378300  1
  O  O8  1  0.50980300  0.89478900  0.79358600  1
  O  O9  1  0.10120300  0.71621700  0.20641400  1
  O  O10  1  0.89879700  0.10521100  0.61501500  1
  O  O11  1  0.49019700  0.28378300  0.38498500  1
  O  O12  1  0.10521100  0.20641400  0.49019700  1
  O  O13  1  0.28378300  0.79358600  0.89879700  1
  O  O14  1  0.89478900  0.38498500  0.10120300  1
  O  O15  1  0.71621700  0.61501500  0.50980300  1
  O  O16  1  0.20641400  0.49019700  0.10521100  1
  O  O17  1  0.79358600  0.89879700  0.28378300  1
  O  O18  1  0.38498500  0.10120300  0.89478900  1
  O  O19  1  0.61501500  0.50980300  0.71621700  1
  O  O20  1  0.49019700  0.10521100  0.20641400  1
  O  O21  1  0.89879700  0.28378300  0.79358600  1
  O  O22  1  0.10120300  0.89478900  0.38498500  1
  O  O23  1  0.50980300  0.71621700  0.61501500  1
  O  O24  1  0.50000000  0.90489000  0.40489000  1
  O  O25  1  0.50000000  0.09511000  0.59511000  1
  O  O26  1  0.90489000  0.40489000  0.50000000  1
  O  O27  1  0.09511000  0.59511000  0.50000000  1
  O  O28  1  0.40489000  0.50000000  0.90489000  1
  O  O29  1  0.59511000  0.50000000  0.09511000  1
  O  O30  1  0.00000000  0.00000000  0.00000000  1
loop_
_geom_bond_atom_site_label_1
_geom_bond_atom_site_label_2
_geom_bond_distance
_geom_bond_site_symmetry_2
In0 O17 2.177490 1_445
In0 O5 2.177490 1_555
In0 O12 2.177490 1_555
In0 O0 2.177490 1_445
In0 O10 2.177496 1_455
In0 O22 2.177496 1_545
In1 O1 2.177490 1_555
In1 O13 2.177490 1_544
In1 O20 2.177490 1_555
In1 O8 2.177490 1_544
In1 O6 2.177496 1_545
In1 O18 2.177496 1_554
In2 O9 2.177490 1_555
In2 O21 2.177490 1_454
In2 O16 2.177490 1_555
In2 O4 2.177490 1_454
In2 O2 2.177496 1_554
In2 O14 2.177496 1_455
In3 O19 2.177492 1_555
In3 O23 2.177492 1_555
In3 O15 2.177492 1_555
In3 O3 2.177492 1_555
In3 O7 2.177492 1_555
In3 O11 2.177492 1_555
C0 H0 1.108751 1_555
C0 O15 1.271841 1_555
C0 O0 1.271851 1_555
C1 H1 1.108751 1_554
C1 O14 1.271846 1_555
C1 O1 1.271851 1_555
C2 H2 1.108751 1_556
C2 O2 1.271846 1_555
C2 O13 1.271851 1_555
C3 H3 1.108751 1_555
C3 O3 1.271841 1_555
C3 O12 1.271851 1_555
C4 H4 1.108751 1_555
C4 O19 1.271841 1_555
C4 O4 1.271851 1_555
C5 H5 1.108751 1_545
C5 O18 1.271846 1_555
C5 O5 1.271851 1_555
C6 H6 1.108751 1_565
C6 O6 1.271846 1_555
C6 O17 1.271851 1_555
C7 H7 1.108751 1_555
C7 O7 1.271841 1_555
C7 O16 1.271851 1_555
C8 H8 1.108751 1_555
C8 O23 1.271841 1_555
C8 O8 1.271851 1_555
C9 H9 1.108751 1_455
C9 O22 1.271846 1_555
C9 O9 1.271851 1_555
C10 H10 1.108751 1_655
C10 O10 1.271846 1_555
C10 O21 1.271851 1_555
C11 H11 1.108751 1_555
C11 O11 1.271841 1_555
C11 O20 1.271851 1_555
C12 O24 1.176292 1_545
C12 O25 1.176292 1_555
C13 O26 1.176292 1_455
C13 O27 1.176292 1_555
C14 O28 1.176292 1_554
C14 O29 1.176292 1_555
