# generated using pymatgen
data_CePrV2O6
_symmetry_space_group_name_H-M   'P 1'
_cell_length_a   4.11321970
_cell_length_b   5.46859895
_cell_length_c   5.46859895
_cell_angle_alpha   90.08449835
_cell_angle_beta   90.00000000
_cell_angle_gamma   90.00000000
_symmetry_Int_Tables_number   1
_chemical_formula_structural   CePrV2O6
_chemical_formula_sum   'Ce1 Pr1 V2 O6'
_cell_volume   123.00806432
_cell_formula_units_Z   1
loop_
 _symmetry_equiv_pos_site_id
 _symmetry_equiv_pos_as_xyz
  1  'x, y, z'
loop_
 _atom_site_type_symbol
 _atom_site_label
 _atom_site_symmetry_multiplicity
 _atom_site_fract_x
 _atom_site_fract_y
 _atom_site_fract_z
 _atom_site_occupancy
  Ce  Ce0  1  0.50000000  0.00000000  -0.00000000  1
  Pr  Pr0  1  0.50000000  0.50000000  0.50000000  1
  V  V0  1  0.00000000  0.00000000  0.50000000  1
  V  V1  1  -0.00000000  0.50000000  -0.00000000  1
  O  O0  1  0.50000000  0.00000000  0.50000000  1
  O  O1  1  0.50000000  0.50000000  -0.00000000  1
  O  O2  1  -0.00000000  0.31572305  0.68427695  1
  O  O3  1  0.00000000  0.68427695  0.31572305  1
  O  O4  1  -0.00000000  0.81838392  0.81838392  1
  O  O5  1  0.00000000  0.18161608  0.18161608  1
loop_
_geom_bond_atom_site_label_1
_geom_bond_atom_site_label_2
_geom_bond_distance
_geom_bond_site_symmetry_2
Ce0 O4 2.489893 1_644
Ce0 O4 2.489893 1_544
Ce0 O5 2.489893 1_555
Ce0 O5 2.489893 1_655
Ce0 O1 2.734299 1_555
Ce0 O1 2.734299 1_545
Ce0 O0 2.734299 1_555
Ce0 O0 2.734299 1_554
O0 V0 2.056610 1_555
O0 V0 2.056610 1_655
O0 Pr0 2.734299 1_545
O0 Pr0 2.734299 1_555
O1 V1 2.056610 1_655
O1 V1 2.056610 1_555
O1 Pr0 2.734299 1_555
O1 Pr0 2.734299 1_554
O2 V1 1.997854 1_556
O2 V0 1.997854 1_555
O2 Pr0 2.502740 1_555
O2 Pr0 2.502740 1_455
O3 V1 1.997854 1_555
O3 V0 1.997854 1_565
O3 Pr0 2.502740 1_555
O3 Pr0 2.502740 1_455
O4 V1 2.005741 1_556
O4 V0 2.005741 1_565
O5 V0 2.005741 1_555
O5 V1 2.005741 1_555
