# generated using pymatgen
data_Ca3Co2(Si2O7)2
_symmetry_space_group_name_H-M   'P 1'
_cell_length_a   7.83446087
_cell_length_b   7.83446087
_cell_length_c   5.12215785
_cell_angle_alpha   87.66181630
_cell_angle_beta   87.66181630
_cell_angle_gamma   89.67045420
_symmetry_Int_Tables_number   1
_chemical_formula_structural   Ca3Co2(Si2O7)2
_chemical_formula_sum   'Ca3 Co2 Si4 O14'
_cell_volume   313.86586507
_cell_formula_units_Z   1
loop_
 _symmetry_equiv_pos_site_id
 _symmetry_equiv_pos_as_xyz
  1  'x, y, z'
loop_
 _atom_site_type_symbol
 _atom_site_label
 _atom_site_symmetry_multiplicity
 _atom_site_fract_x
 _atom_site_fract_y
 _atom_site_fract_z
 _atom_site_occupancy
  Ca  Ca0  1  0.84186400  0.17134200  0.49389900  1
  Ca  Ca1  1  0.17134200  0.84186400  0.49389900  1
  Ca  Ca2  1  0.64959700  0.64959700  0.51994800  1
  Co  Co0  1  0.49976300  0.00502100  0.99968700  1
  Co  Co1  1  0.00502100  0.49976300  0.99968700  1
  Si  Si0  1  0.13433200  0.13433200  0.94734200  1
  Si  Si1  1  0.36281400  0.64552700  0.05241700  1
  Si  Si2  1  0.64552700  0.36281400  0.05241700  1
  Si  Si3  1  0.85659200  0.85659200  0.94954600  1
  O  O0  1  0.31550900  0.06997500  0.81069400  1
  O  O1  1  0.68308800  0.91871900  0.79550300  1
  O  O2  1  0.60501400  0.17071900  0.18608100  1
  O  O3  1  0.42018100  0.81670800  0.21345200  1
  O  O4  1  0.06997500  0.31550900  0.81069400  1
  O  O5  1  0.17071900  0.60501400  0.18608100  1
  O  O6  1  0.81670800  0.42018100  0.21345200  1
  O  O7  1  0.91871900  0.68308800  0.79550300  1
  O  O8  1  0.11249900  0.11249900  0.26013900  1
  O  O9  1  0.37141500  0.67638300  0.74171100  1
  O  O10  1  0.50026900  0.50026900  0.16081000  1
  O  O11  1  0.99814000  0.99814000  0.81361800  1
  O  O12  1  0.67638300  0.37141500  0.74171100  1
  O  O13  1  0.84460800  0.84460800  0.26113100  1
loop_
_geom_bond_atom_site_label_1
_geom_bond_atom_site_label_2
_geom_bond_distance
_geom_bond_site_symmetry_2
Ca0 O6 2.386034 1_555
Ca0 O12 2.398673 1_555
Ca0 O8 2.443034 1_655
Ca0 O11 2.446502 1_545
Ca0 O2 2.483679 1_555
Ca0 O1 2.733694 1_545
Ca0 O4 2.740799 1_655
Ca0 O13 2.867190 1_545
Ca1 O3 2.386034 1_555
Ca1 O9 2.398673 1_555
Ca1 O8 2.443034 1_565
Ca1 O11 2.446502 1_455
Ca1 O5 2.483679 1_555
Ca1 O7 2.733694 1_455
Ca1 O0 2.740799 1_565
Ca1 O13 2.867190 1_455
Ca2 O12 2.428234 1_555
Ca2 O9 2.428234 1_555
Ca2 O13 2.474306 1_555
Ca2 O10 2.547212 1_555
Ca2 O7 2.604968 1_555
Ca2 O1 2.604968 1_555
Ca2 O6 2.728488 1_555
Ca2 O3 2.728488 1_555
Co0 O0 1.829000 1_555
Co0 O2 1.858589 1_556
Co0 O1 1.880894 1_545
Co0 O3 1.894014 1_546
Co1 O4 1.829000 1_555
Co1 O5 1.858589 1_556
Co1 O7 1.880894 1_455
Co1 O6 1.894014 1_456
O0 Si0 1.642677 1_555
O1 Si3 1.660052 1_555
O2 Si2 1.654715 1_555
O3 Si1 1.675825 1_555
O4 Si0 1.642677 1_555
O5 Si1 1.654715 1_555
O6 Si2 1.675825 1_555
O7 Si3 1.660052 1_555
O8 Si0 1.606599 1_554
O9 Si1 1.598702 1_556
O10 Si2 1.657153 1_555
O10 Si1 1.657153 1_555
O11 Si3 1.682989 1_555
O11 Si0 1.696604 1_665
O12 Si2 1.598702 1_556
O13 Si3 1.593880 1_554
