# generated using pymatgen
data_Cs2TeH6(ClO3)2
_symmetry_space_group_name_H-M   'P 1'
_cell_length_a   11.27852500
_cell_length_b   6.47559100
_cell_length_c   7.98301360
_cell_angle_alpha   72.40731079
_cell_angle_beta   90.00000000
_cell_angle_gamma   90.00000000
_symmetry_Int_Tables_number   1
_chemical_formula_structural   Cs2TeH6(ClO3)2
_chemical_formula_sum   'Cs4 Te2 H12 Cl4 O12'
_cell_volume   555.77107845
_cell_formula_units_Z   2
loop_
 _symmetry_equiv_pos_site_id
 _symmetry_equiv_pos_as_xyz
  1  'x, y, z'
loop_
 _atom_site_type_symbol
 _atom_site_label
 _atom_site_symmetry_multiplicity
 _atom_site_fract_x
 _atom_site_fract_y
 _atom_site_fract_z
 _atom_site_occupancy
  Cs  Cs0  1  0.12853600  0.24976600  0.43949400  1
  Cs  Cs1  1  0.62853600  0.75023400  0.06050600  1
  Cs  Cs2  1  0.87146400  0.75023400  0.56050600  1
  Cs  Cs3  1  0.37146400  0.24976600  0.93949400  1
  Te  Te0  1  0.00000000  0.00000000  0.00000000  1
  Te  Te1  1  0.50000000  0.00000000  0.50000000  1
  H  H0  1  0.08191300  0.37554200  0.92777500  1
  H  H1  1  0.58191300  0.62445800  0.57222500  1
  H  H2  1  0.91808700  0.62445800  0.07222500  1
  H  H3  1  0.41808700  0.37554200  0.42777500  1
  H  H4  1  0.14680600  0.84857400  0.83082600  1
  H  H5  1  0.64680600  0.15142600  0.66917400  1
  H  H6  1  0.85319400  0.15142600  0.16917400  1
  H  H7  1  0.35319400  0.84857400  0.33082600  1
  H  H8  1  0.34704800  0.78359700  0.69903400  1
  H  H9  1  0.84704800  0.21640300  0.80096600  1
  H  H10  1  0.65295200  0.21640300  0.30096600  1
  H  H11  1  0.15295200  0.78359700  0.19903400  1
  Cl  Cl0  1  0.32794900  0.62438200  0.19673400  1
  Cl  Cl1  1  0.82794900  0.37561800  0.30326600  1
  Cl  Cl2  1  0.67205100  0.37561800  0.80326600  1
  Cl  Cl3  1  0.17205100  0.62438200  0.69673400  1
  O  O0  1  0.43303000  0.26036000  0.54032900  1
  O  O1  1  0.93303000  0.73964000  0.95967100  1
  O  O2  1  0.56697000  0.73964000  0.45967100  1
  O  O3  1  0.06697000  0.26036000  0.04032900  1
  O  O4  1  0.14173800  0.98623900  0.86307900  1
  O  O5  1  0.64173800  0.01376100  0.63692100  1
  O  O6  1  0.85826200  0.01376100  0.13692100  1
  O  O7  1  0.35826200  0.98623900  0.36307900  1
  O  O8  1  0.42726400  0.83166300  0.72271400  1
  O  O9  1  0.92726400  0.16833700  0.77728600  1
  O  O10  1  0.57273600  0.16833700  0.27728600  1
  O  O11  1  0.07273600  0.83166300  0.22271400  1
loop_
_geom_bond_atom_site_label_1
_geom_bond_atom_site_label_2
_geom_bond_distance
_geom_bond_site_symmetry_2
Cs0 O3 3.241720 1_555
Cs0 O7 3.259855 1_545
Cs0 O4 3.298559 1_545
Cs0 H3 3.360195 1_555
Cs0 H4 3.412499 1_545
Cs0 H11 3.420427 1_555
Cs0 O9 3.441406 1_455
Cs0 O0 3.532717 1_555
Cs0 O11 3.681519 1_545
Cs0 O11 3.694291 1_555
Cs1 O2 3.241720 1_555
Cs1 O6 3.259855 1_565
Cs1 O5 3.298559 1_564
Cs1 H2 3.360195 1_555
Cs1 H5 3.412499 1_564
Cs1 H10 3.420427 1_555
Cs1 O8 3.441406 1_554
Cs1 O1 3.532717 1_554
Cs1 O10 3.681519 1_565
Cs1 O10 3.694291 1_555
Cs2 O1 3.241720 1_555
Cs2 O5 3.259855 1_565
Cs2 O6 3.298559 1_565
Cs2 H1 3.360195 1_555
Cs2 H6 3.412499 1_565
Cs2 H9 3.420427 1_555
Cs2 O11 3.441406 1_655
Cs2 O2 3.532717 1_555
Cs2 O9 3.681519 1_565
Cs2 O9 3.694291 1_555
Cs3 O0 3.241720 1_555
Cs3 O4 3.259855 1_545
Cs3 O7 3.298559 1_546
Cs3 H0 3.360195 1_555
Cs3 H7 3.412499 1_546
Cs3 H8 3.420427 1_555
Cs3 O10 3.441406 1_556
Cs3 O3 3.532717 1_556
Cs3 O8 3.681519 1_545
Cs3 O8 3.694291 1_555
H0 O3 0.993451 1_556
H1 O2 0.993451 1_555
H2 O1 0.993451 1_554
H3 O0 0.993451 1_555
H4 O4 1.001507 1_555
H5 O5 1.001507 1_555
H6 O6 1.001507 1_555
H7 O7 1.001507 1_555
H8 O8 0.993327 1_555
H9 O9 0.993327 1_555
H10 O10 0.993327 1_555
H11 O11 0.993327 1_555
Cl0 Cs0 3.443398 1_555
Cl0 Cs1 3.578323 1_555
Cl0 Cs3 3.654328 1_554
Cl0 Cs3 3.978828 1_564
Cl1 Cs1 3.443398 1_555
Cl1 Cs0 3.578323 1_655
Cl1 Cs2 3.654328 1_555
Cl1 Cs2 3.978828 1_545
Cl2 Cs2 3.443398 1_555
Cl2 Cs3 3.578323 1_555
Cl2 Cs1 3.654328 1_556
Cl2 Cs1 3.978828 1_546
Cl3 Cs3 3.443398 1_555
Cl3 Cs2 3.578323 1_455
Cl3 Cs0 3.654328 1_555
Cl3 Cs0 3.978828 1_565
O0 Te1 1.960823 1_555
O1 Te0 1.960823 1_666
O2 Te1 1.960823 1_565
O3 Te0 1.960823 1_555
O4 Te0 1.953732 1_566
O5 Te1 1.953732 1_555
O6 Te0 1.953732 1_655
O7 Te1 1.953732 1_565
O8 Te1 1.962326 1_565
O9 Te0 1.962326 1_656
O10 Te1 1.962326 1_555
O11 Te0 1.962326 1_565
