# generated using pymatgen
data_LiEuO2
_symmetry_space_group_name_H-M   'P 1'
_cell_length_a   3.46844631
_cell_length_b   5.35267602
_cell_length_c   11.36178041
_cell_angle_alpha   90.00000000
_cell_angle_beta   90.00000000
_cell_angle_gamma   90.00000000
_symmetry_Int_Tables_number   1
_chemical_formula_structural   LiEuO2
_chemical_formula_sum   'Li4 Eu4 O8'
_cell_volume   210.93678642
_cell_formula_units_Z   4
loop_
 _symmetry_equiv_pos_site_id
 _symmetry_equiv_pos_as_xyz
  1  'x, y, z'
loop_
 _atom_site_type_symbol
 _atom_site_label
 _atom_site_symmetry_multiplicity
 _atom_site_fract_x
 _atom_site_fract_y
 _atom_site_fract_z
 _atom_site_occupancy
  Li  Li0  1  0.25000000  0.40287050  0.56483954  1
  Li  Li1  1  0.25000000  0.09712950  0.06483954  1
  Li  Li2  1  0.75000000  0.59712950  0.43516046  1
  Li  Li3  1  0.75000000  0.90287050  0.93516046  1
  Eu  Eu0  1  0.25000000  0.45296173  0.86023065  1
  Eu  Eu1  1  0.25000000  0.04703827  0.36023065  1
  Eu  Eu2  1  0.75000000  0.54703827  0.13976935  1
  Eu  Eu3  1  0.75000000  0.95296173  0.63976935  1
  O  O0  1  0.25000000  0.75058344  0.52860886  1
  O  O1  1  0.25000000  0.74941656  0.02860886  1
  O  O2  1  0.75000000  0.24941656  0.47139114  1
  O  O3  1  0.75000000  0.25058344  0.97139114  1
  O  O4  1  0.25000000  0.19543518  0.69916446  1
  O  O5  1  0.25000000  0.30456482  0.19916446  1
  O  O6  1  0.75000000  0.80456482  0.30083554  1
  O  O7  1  0.75000000  0.69543518  0.80083554  1
loop_
_geom_bond_atom_site_label_1
_geom_bond_atom_site_label_2
_geom_bond_distance
_geom_bond_site_symmetry_2
Li0 O4 1.887336 1_555
Li0 O0 1.906173 1_555
Li0 O2 2.193058 1_455
Li0 O2 2.193058 1_555
Li1 O5 1.887336 1_555
Li1 O1 1.906173 1_545
Li1 O3 2.193058 1_454
Li1 O3 2.193058 1_554
Li2 O6 1.887336 1_555
Li2 O2 1.906173 1_555
Li2 O0 2.193058 1_655
Li2 O0 2.193058 1_555
Li3 O7 1.887336 1_555
Li3 O3 1.906173 1_565
Li3 O1 2.193058 1_556
Li3 O1 2.193058 1_656
Eu0 O7 2.268794 1_555
Eu0 O7 2.268794 1_455
Eu0 O4 2.291078 1_555
Eu0 O3 2.403355 1_455
Eu0 O3 2.403355 1_555
Eu0 O1 2.485534 1_556
Eu1 O6 2.268794 1_545
Eu1 O6 2.268794 1_445
Eu1 O5 2.291078 1_555
Eu1 O2 2.403355 1_455
Eu1 O2 2.403355 1_555
Eu1 O0 2.485534 1_545
Eu2 O5 2.268794 1_655
Eu2 O5 2.268794 1_555
Eu2 O6 2.291078 1_555
Eu2 O1 2.403355 1_555
Eu2 O1 2.403355 1_655
Eu2 O3 2.485534 1_554
Eu3 O4 2.268794 1_565
Eu3 O4 2.268794 1_665
Eu3 O7 2.291078 1_555
Eu3 O0 2.403355 1_555
Eu3 O0 2.403355 1_655
Eu3 O2 2.485534 1_565
