# generated using pymatgen
data_TiSiC7NCl3
_symmetry_space_group_name_H-M   'P 1'
_cell_length_a   16.49647900
_cell_length_b   7.85346500
_cell_length_c   10.11692925
_cell_angle_alpha   87.56615980
_cell_angle_beta   90.00000000
_cell_angle_gamma   90.00000000
_symmetry_Int_Tables_number   1
_chemical_formula_structural   TiSiC7NCl3
_chemical_formula_sum   'Ti4 Si4 C28 N4 Cl12'
_cell_volume   1309.51157047
_cell_formula_units_Z   4
loop_
 _symmetry_equiv_pos_site_id
 _symmetry_equiv_pos_as_xyz
  1  'x, y, z'
loop_
 _atom_site_type_symbol
 _atom_site_label
 _atom_site_symmetry_multiplicity
 _atom_site_fract_x
 _atom_site_fract_y
 _atom_site_fract_z
 _atom_site_occupancy
  Ti  Ti0  1  0.54223300  0.96725400  0.67632700  1
  Ti  Ti1  1  0.04223300  0.03274600  0.82367300  1
  Ti  Ti2  1  0.45776700  0.03274600  0.32367300  1
  Ti  Ti3  1  0.95776700  0.96725400  0.17632700  1
  Si  Si0  1  0.63263500  0.36272600  0.73638000  1
  Si  Si1  1  0.13263500  0.63727400  0.76362000  1
  Si  Si2  1  0.36736500  0.63727400  0.26362000  1
  Si  Si3  1  0.86736500  0.36272600  0.23638000  1
  C  C0  1  0.72779200  0.19084500  0.75048300  1
  C  C1  1  0.22779200  0.80915500  0.74951700  1
  C  C2  1  0.27220800  0.80915500  0.24951700  1
  C  C3  1  0.77220800  0.19084500  0.25048300  1
  C  C4  1  0.69852400  0.22015000  0.87088600  1
  C  C5  1  0.19852400  0.77985000  0.62911400  1
  C  C6  1  0.30147600  0.77985000  0.12911400  1
  C  C7  1  0.80147600  0.22015000  0.37088600  1
  C  C8  1  0.66137700  0.34614900  0.93234700  1
  C  C9  1  0.16137700  0.65385100  0.56765300  1
  C  C10  1  0.33862300  0.65385100  0.06765300  1
  C  C11  1  0.83862300  0.34614900  0.43234700  1
  C  C12  1  0.46863000  0.26454500  0.74905600  1
  C  C13  1  0.96863000  0.73545500  0.75094400  1
  C  C14  1  0.53137000  0.73545500  0.25094400  1
  C  C15  1  0.03137000  0.26454500  0.24905600  1
  C  C16  1  0.38394400  0.22642800  0.72930400  1
  C  C17  1  0.88394400  0.77357200  0.77069600  1
  C  C18  1  0.61605600  0.77357200  0.27069600  1
  C  C19  1  0.11605600  0.22642800  0.22930400  1
  C  C20  1  0.41516000  0.41009200  0.74486800  1
  C  C21  1  0.91516000  0.58990800  0.75513200  1
  C  C22  1  0.58484000  0.58990800  0.25513200  1
  C  C23  1  0.08484000  0.41009200  0.24486800  1
  C  C24  1  0.33130300  0.37267100  0.72164100  1
  C  C25  1  0.83130300  0.62732900  0.77835900  1
  C  C26  1  0.66869700  0.62732900  0.27835900  1
  C  C27  1  0.16869700  0.37267100  0.22164100  1
  N  N0  1  0.54051500  0.20656600  0.75067000  1
  N  N1  1  0.04051500  0.79343400  0.74933000  1
  N  N2  1  0.45948500  0.79343400  0.24933000  1
  N  N3  1  0.95948500  0.20656600  0.25067000  1
  Cl  Cl0  1  0.66449200  0.86260700  0.66554300  1
  Cl  Cl1  1  0.16449200  0.13739300  0.83445700  1
  Cl  Cl2  1  0.33550800  0.13739300  0.33445700  1
  Cl  Cl3  1  0.83550800  0.86260700  0.16554300  1
  Cl  Cl4  1  0.49380300  0.83180300  0.85470400  1
  Cl  Cl5  1  0.99380300  0.16819700  0.64529600  1
  Cl  Cl6  1  0.50619700  0.16819700  0.14529600  1
  Cl  Cl7  1  0.00619700  0.83180300  0.35470400  1
  Cl  Cl8  1  0.44100700  0.85159000  0.54200900  1
  Cl  Cl9  1  0.94100700  0.14841000  0.95799100  1
  Cl  Cl10  1  0.55899300  0.14841000  0.45799100  1
  Cl  Cl11  1  0.05899300  0.85159000  0.04200900  1
loop_
_geom_bond_atom_site_label_1
_geom_bond_atom_site_label_2
_geom_bond_distance
_geom_bond_site_symmetry_2
C0 C4 1.339283 1_555
C0 Si0 2.071294 1_555
C1 C5 1.339283 1_555
C1 Si1 2.071294 1_555
C2 C6 1.339283 1_555
C2 Si2 2.071294 1_555
C3 C7 1.339283 1_555
C3 Si3 2.071294 1_555
C4 C8 1.339243 1_555
C4 Si0 2.039002 1_555
C5 C9 1.339243 1_555
C5 Si1 2.039002 1_555
C6 Si2 2.039002 1_555
C7 Si3 2.039002 1_555
C8 Si0 2.037272 1_555
C9 Si1 2.037272 1_555
C10 C6 1.339243 1_555
C10 Si2 2.037272 1_555
C11 C7 1.339243 1_555
C11 Si3 2.037272 1_555
C12 N0 1.270120 1_555
C12 C20 1.443012 1_555
C12 C16 1.444400 1_555
C13 N1 1.270120 1_655
C13 C21 1.443012 1_555
C13 C17 1.444400 1_555
C14 N2 1.270120 1_555
C14 C22 1.443012 1_555
C14 C18 1.444400 1_555
C15 N3 1.270120 1_455
C15 C23 1.443012 1_555
C15 C19 1.444400 1_555
C16 C24 1.439318 1_555
C16 C20 1.545890 1_555
C17 C25 1.439318 1_555
C17 C21 1.545890 1_555
C18 C26 1.439318 1_555
C18 C22 1.545890 1_555
C19 C27 1.439318 1_555
C19 C23 1.545890 1_555
C20 C24 1.435652 1_555
C21 C25 1.435652 1_555
C22 C26 1.435652 1_555
C23 C27 1.435652 1_555
N0 Si0 1.954289 1_555
N0 Ti0 2.053972 1_545
N1 Si1 1.954289 1_555
N1 Ti1 2.053972 1_565
N2 Si2 1.954289 1_555
N2 Ti2 2.053972 1_565
N3 Si3 1.954289 1_555
N3 Ti3 2.053972 1_545
Cl0 Ti0 2.182338 1_555
Cl1 Ti1 2.182338 1_555
Cl2 Ti2 2.182338 1_555
Cl3 Ti3 2.182338 1_555
Cl4 Ti0 2.205335 1_555
Cl5 Ti1 2.205335 1_655
Cl6 Ti2 2.205335 1_555
Cl7 Ti3 2.205335 1_455
Cl8 Ti0 2.359026 1_555
Cl8 Ti2 2.590910 1_565
Cl9 Ti1 2.359026 1_655
Cl9 Ti3 2.590910 1_546
Cl10 Ti2 2.359026 1_555
Cl10 Ti0 2.590910 1_545
Cl11 Ti3 2.359026 1_455
Cl11 Ti1 2.590910 1_564
