# generated using pymatgen
data_Be3H42N13(ClO)3
_symmetry_space_group_name_H-M   'P 1'
_cell_length_a   11.95469600
_cell_length_b   10.96712400
_cell_length_c   21.22470380
_cell_angle_alpha   90.00000000
_cell_angle_beta   112.26255168
_cell_angle_gamma   90.00000000
_symmetry_Int_Tables_number   1
_chemical_formula_structural   Be3H42N13(ClO)3
_chemical_formula_sum   'Be12 H168 N52 Cl12 O12'
_cell_volume   2575.30946058
_cell_formula_units_Z   4
loop_
 _symmetry_equiv_pos_site_id
 _symmetry_equiv_pos_as_xyz
  1  'x, y, z'
loop_
 _atom_site_type_symbol
 _atom_site_label
 _atom_site_symmetry_multiplicity
 _atom_site_fract_x
 _atom_site_fract_y
 _atom_site_fract_z
 _atom_site_occupancy
  Be  Be0  1  0.89746100  0.99669600  0.10373000  1
  Be  Be1  1  0.89746100  0.50330400  0.60373000  1
  Be  Be2  1  0.10253900  0.00330400  0.89627000  1
  Be  Be3  1  0.10253900  0.49669600  0.39627000  1
  Be  Be4  1  0.90294000  0.78742100  0.02398400  1
  Be  Be5  1  0.90294000  0.71257900  0.52398400  1
  Be  Be6  1  0.09706000  0.21257900  0.97601600  1
  Be  Be7  1  0.09706000  0.28742100  0.47601600  1
  Be  Be8  1  0.75018600  0.99040000  0.96267100  1
  Be  Be9  1  0.75018600  0.50960000  0.46267100  1
  Be  Be10  1  0.24981400  0.00960000  0.03732900  1
  Be  Be11  1  0.24981400  0.49040000  0.53732900  1
  H  H0  1  0.08317200  0.07206700  0.19181300  1
  H  H1  1  0.08317200  0.42793300  0.69181300  1
  H  H2  1  0.91682800  0.92793300  0.80818700  1
  H  H3  1  0.91682800  0.57206700  0.30818700  1
  H  H4  1  0.99308600  0.18499600  0.14970500  1
  H  H5  1  0.99308600  0.31500400  0.64970500  1
  H  H6  1  0.00691400  0.81500400  0.85029500  1
  H  H7  1  0.00691400  0.68499600  0.35029500  1
  H  H8  1  0.06448200  0.10376000  0.11257300  1
  H  H9  1  0.06448200  0.39624000  0.61257300  1
  H  H10  1  0.93551800  0.89624000  0.88742700  1
  H  H11  1  0.93551800  0.60376000  0.38742700  1
  H  H12  1  0.76791500  0.05363600  0.16295500  1
  H  H13  1  0.76791500  0.44636400  0.66295500  1
  H  H14  1  0.23208500  0.94636400  0.83704500  1
  H  H15  1  0.23208500  0.55363600  0.33704500  1
  H  H16  1  0.86570200  0.95212800  0.20754300  1
  H  H17  1  0.86570200  0.54787200  0.70754300  1
  H  H18  1  0.13429800  0.04787200  0.79245700  1
  H  H19  1  0.13429800  0.45212800  0.29245700  1
  H  H20  1  0.74886900  0.91032100  0.13895800  1
  H  H21  1  0.74886900  0.58967900  0.63895800  1
  H  H22  1  0.25113100  0.08967900  0.86104200  1
  H  H23  1  0.25113100  0.41032100  0.36104200  1
  H  H24  1  0.99986500  0.67055500  0.96423300  1
  H  H25  1  0.99986500  0.82944500  0.46423300  1
  H  H26  1  0.00013500  0.32944500  0.03576700  1
  H  H27  1  0.00013500  0.17055500  0.53576700  1
  H  H28  1  0.09130900  0.68165000  0.04579600  1
  H  H29  1  0.09130900  0.81835000  0.54579600  1
  H  H30  1  0.90869100  0.31835000  0.95420400  1
  H  H31  1  0.90869100  0.18165000  0.45420400  1
  H  H32  1  0.06949800  0.79862600  0.99420500  1
  H  H33  1  0.06949800  0.70137400  0.49420500  1
  H  H34  1  0.93050200  0.20137400  0.00579500  1
  H  H35  1  0.93050200  0.29862600  0.50579500  1
  H  H36  1  0.76077200  0.69017300  0.05856100  1
  H  H37  1  0.76077200  0.80982700  0.55856100  1
  H  H38  1  0.23922800  0.30982700  0.94143900  1
  H  H39  1  0.23922800  0.19017300  0.44143900  1
  H  H40  1  0.76857700  0.61264100  0.99527500  1
  H  H41  1  0.76857700  0.88735900  0.49527500  1
  H  H42  1  0.23142300  0.38735900  0.00472500  1
  H  H43  1  0.23142300  0.11264100  0.50472500  1
  H  H44  1  0.87548300  0.59548300  0.07156400  1
  H  H45  1  0.87548300  0.90451700  0.57156400  1
  H  H46  1  0.12451700  0.40451700  0.92843600  1
  H  H47  1  0.12451700  0.09548300  0.42843600  1
  H  H48  1  0.67550400  0.06313400  0.84957400  1
  H  H49  1  0.67550400  0.43686600  0.34957400  1
  H  H50  1  0.32449600  0.93686600  0.15042600  1
  H  H51  1  0.32449600  0.56313400  0.65042600  1
  H  H52  1  0.73096500  0.17658700  0.90390300  1
  H  H53  1  0.73096500  0.32341300  0.40390300  1
  H  H54  1  0.26903500  0.82341300  0.09609700  1
  H  H55  1  0.26903500  0.67658700  0.59609700  1
  H  H56  1  0.82551000  0.08710100  0.88827200  1
  H  H57  1  0.82551000  0.41289900  0.38827200  1
  H  H58  1  0.17449000  0.91289900  0.11172800  1
  H  H59  1  0.17449000  0.58710100  0.61172800  1
  H  H60  1  0.58889400  0.90478300  0.98661400  1
  H  H61  1  0.58889400  0.59521700  0.48661400  1
  H  H62  1  0.41110600  0.09521700  0.01338600  1
  H  H63  1  0.41110600  0.40478300  0.51338600  1
  H  H64  1  0.54394500  0.03466900  0.94427400  1
  H  H65  1  0.54394500  0.46533100  0.44427400  1
  H  H66  1  0.45605500  0.96533100  0.05572600  1
  H  H67  1  0.45605500  0.53466900  0.55572600  1
  H  H68  1  0.54988300  0.90962800  0.90374200  1
  H  H69  1  0.54988300  0.59037200  0.40374200  1
  H  H70  1  0.45011700  0.09037200  0.09625800  1
  H  H71  1  0.45011700  0.40962800  0.59625800  1
  H  H72  1  0.99427500  0.82390500  0.13512400  1
  H  H73  1  0.99427500  0.67609500  0.63512400  1
  H  H74  1  0.00572500  0.17609500  0.86487600  1
  H  H75  1  0.00572500  0.32390500  0.36487600  1
  H  H76  1  0.78086800  0.82342600  0.91522100  1
  H  H77  1  0.78086800  0.67657400  0.41522100  1
  H  H78  1  0.21913200  0.17657400  0.08477900  1
  H  H79  1  0.21913200  0.32342600  0.58477900  1
  H  H80  1  0.77356100  0.13712500  0.03997000  1
  H  H81  1  0.77356100  0.36287500  0.53997000  1
  H  H82  1  0.22643900  0.86287500  0.96003000  1
  H  H83  1  0.22643900  0.63712500  0.46003000  1
  H  H84  1  0.84837700  0.24744000  0.26741500  1
  H  H85  1  0.84837700  0.25256000  0.76741500  1
  H  H86  1  0.15162300  0.75256000  0.73258500  1
  H  H87  1  0.15162300  0.74744000  0.23258500  1
  H  H88  1  0.96949600  0.28128100  0.25231500  1
  H  H89  1  0.96949600  0.21871900  0.75231500  1
  H  H90  1  0.03050400  0.71871900  0.74768500  1
  H  H91  1  0.03050400  0.78128100  0.24768500  1
  H  H92  1  0.96717400  0.15742800  0.29699200  1
  H  H93  1  0.96717400  0.34257200  0.79699200  1
  H  H94  1  0.03282600  0.84257200  0.70300800  1
  H  H95  1  0.03282600  0.65742800  0.20300800  1
  H  H96  1  0.25570200  0.32306000  0.16965900  1
  H  H97  1  0.25570200  0.17694000  0.66965900  1
  H  H98  1  0.74429800  0.67694000  0.83034100  1
  H  H99  1  0.74429800  0.82306000  0.33034100  1
  H  H100  1  0.38083700  0.24755100  0.17719600  1
  H  H101  1  0.38083700  0.25244900  0.67719600  1
  H  H102  1  0.61916300  0.75244900  0.82280400  1
  H  H103  1  0.61916300  0.74755100  0.32280400  1
  H  H104  1  0.27809800  0.18495600  0.20187300  1
  H  H105  1  0.27809800  0.31504400  0.70187300  1
  H  H106  1  0.72190200  0.81504400  0.79812700  1
  H  H107  1  0.72190200  0.68495600  0.29812700  1
  H  H108  1  0.67976900  0.26257900  0.09145500  1
  H  H109  1  0.67976900  0.23742100  0.59145500  1
  H  H110  1  0.32023100  0.73742100  0.90854500  1
  H  H111  1  0.32023100  0.76257900  0.40854500  1
  H  H112  1  0.63956900  0.29414700  0.00985300  1
  H  H113  1  0.63956900  0.20585300  0.50985300  1
  H  H114  1  0.36043100  0.70585300  0.99014700  1
  H  H115  1  0.36043100  0.79414700  0.49014700  1
  H  H116  1  0.77387900  0.33779200  0.06574600  1
  H  H117  1  0.77387900  0.16220800  0.56574600  1
  H  H118  1  0.22612100  0.66220800  0.93425400  1
  H  H119  1  0.22612100  0.83779200  0.43425400  1
  H  H120  1  0.29222600  0.64376400  0.17132400  1
  H  H121  1  0.29222600  0.85623600  0.67132400  1
  H  H122  1  0.70777400  0.35623600  0.82867600  1
  H  H123  1  0.70777400  0.14376400  0.32867600  1
  H  H124  1  0.29501000  0.55403900  0.10955000  1
  H  H125  1  0.29501000  0.94596100  0.60955000  1
  H  H126  1  0.70499000  0.44596100  0.89045000  1
  H  H127  1  0.70499000  0.05403900  0.39045000  1
  H  H128  1  0.18304600  0.54556300  0.13683400  1
  H  H129  1  0.18304600  0.95443700  0.63683400  1
  H  H130  1  0.81695400  0.45443700  0.86316600  1
  H  H131  1  0.81695400  0.04556300  0.36316600  1
  H  H132  1  0.27576500  0.09561100  0.31689600  1
  H  H133  1  0.27576500  0.40438900  0.81689600  1
  H  H134  1  0.72423500  0.90438900  0.68310400  1
  H  H135  1  0.72423500  0.59561100  0.18310400  1
  H  H136  1  0.16352400  0.00313500  0.30769700  1
  H  H137  1  0.16352400  0.49686500  0.80769700  1
  H  H138  1  0.83647600  0.99686500  0.69230300  1
  H  H139  1  0.83647600  0.50313500  0.19230300  1
  H  H140  1  0.27463000  0.95628500  0.28754600  1
  H  H141  1  0.27463000  0.54371500  0.78754600  1
  H  H142  1  0.72537000  0.04371500  0.71245400  1
  H  H143  1  0.72537000  0.45628500  0.21245400  1
  H  H144  1  0.56303000  0.59108400  0.97485200  1
  H  H145  1  0.56303000  0.90891600  0.47485200  1
  H  H146  1  0.43697000  0.40891600  0.02514800  1
  H  H147  1  0.43697000  0.09108400  0.52514800  1
  H  H148  1  0.51916900  0.47279100  0.92425200  1
  H  H149  1  0.51916900  0.02720900  0.42425200  1
  H  H150  1  0.48083100  0.52720900  0.07574800  1
  H  H151  1  0.48083100  0.97279100  0.57574800  1
  H  H152  1  0.51241000  0.61048900  0.89274800  1
  H  H153  1  0.51241000  0.88951100  0.39274800  1
  H  H154  1  0.48759000  0.38951100  0.10725200  1
  H  H155  1  0.48759000  0.11048900  0.60725200  1
  H  H156  1  0.55719300  0.96533400  0.74365600  1
  H  H157  1  0.55719300  0.53466600  0.24365600  1
  H  H158  1  0.44280700  0.03466600  0.25634400  1
  H  H159  1  0.44280700  0.46533400  0.75634400  1
  H  H160  1  0.45700700  0.98719100  0.77730600  1
  H  H161  1  0.45700700  0.51280900  0.27730600  1
  H  H162  1  0.54299300  0.01280900  0.22269400  1
  H  H163  1  0.54299300  0.48719100  0.72269400  1
  H  H164  1  0.51282900  0.10488800  0.74824100  1
  H  H165  1  0.51282900  0.39511200  0.24824100  1
  H  H166  1  0.48717100  0.89511200  0.25175900  1
  H  H167  1  0.48717100  0.60488800  0.75175900  1
  N  N0  1  0.01881100  0.09725700  0.14481900  1
  N  N1  1  0.01881100  0.40274300  0.64481900  1
  N  N2  1  0.98118900  0.90274300  0.85518100  1
  N  N3  1  0.98118900  0.59725700  0.35518100  1
  N  N4  1  0.81448800  0.97734200  0.15850700  1
  N  N5  1  0.81448800  0.52265800  0.65850700  1
  N  N6  1  0.18551200  0.02265800  0.84149300  1
  N  N7  1  0.18551200  0.47734200  0.34149300  1
  N  N8  1  0.02518500  0.72677000  0.00604200  1
  N  N9  1  0.02518500  0.77323000  0.50604200  1
  N  N10  1  0.97481500  0.27323000  0.99395800  1
  N  N11  1  0.97481500  0.22677000  0.49395800  1
  N  N12  1  0.82214400  0.65946700  0.03825000  1
  N  N13  1  0.82214400  0.84053300  0.53825000  1
  N  N14  1  0.17785600  0.34053300  0.96175000  1
  N  N15  1  0.17785600  0.15946700  0.46175000  1
  N  N16  1  0.74543800  0.08720000  0.89542400  1
  N  N17  1  0.74543800  0.41280000  0.39542400  1
  N  N18  1  0.25456200  0.91280000  0.10457600  1
  N  N19  1  0.25456200  0.58720000  0.60457600  1
  N  N20  1  0.59531500  0.95744200  0.94782200  1
  N  N21  1  0.59531500  0.54255800  0.44782200  1
  N  N22  1  0.40468500  0.04255800  0.05217800  1
  N  N23  1  0.40468500  0.45744200  0.55217800  1
  N  N24  1  0.94121400  0.24707200  0.28860600  1
  N  N25  1  0.94121400  0.25292800  0.78860600  1
  N  N26  1  0.05878600  0.75292800  0.71139400  1
  N  N27  1  0.05878600  0.74707200  0.21139400  1
  N  N28  1  0.28988800  0.23927300  0.16568600  1
  N  N29  1  0.28988800  0.26072700  0.66568600  1
  N  N30  1  0.71011200  0.76072700  0.83431400  1
  N  N31  1  0.71011200  0.73927300  0.33431400  1
  N  N32  1  0.71154400  0.26921100  0.05274600  1
  N  N33  1  0.71154400  0.23078900  0.55274600  1
  N  N34  1  0.28845600  0.73078900  0.94725400  1
  N  N35  1  0.28845600  0.76921100  0.44725400  1
  N  N36  1  0.23884300  0.60516600  0.12564700  1
  N  N37  1  0.23884300  0.89483400  0.62564700  1
  N  N38  1  0.76115700  0.39483400  0.87435300  1
  N  N39  1  0.76115700  0.10516600  0.37435300  1
  N  N40  1  0.22117600  0.03094500  0.28489500  1
  N  N41  1  0.22117600  0.46905500  0.78489500  1
  N  N42  1  0.77882400  0.96905500  0.71510500  1
  N  N43  1  0.77882400  0.53094500  0.21510500  1
  N  N44  1  0.56512600  0.55334200  0.93099800  1
  N  N45  1  0.56512600  0.94665800  0.43099800  1
  N  N46  1  0.43487400  0.44665800  0.06900200  1
  N  N47  1  0.43487400  0.05334200  0.56900200  1
  N  N48  1  0.53318000  0.02382100  0.77383400  1
  N  N49  1  0.53318000  0.47617900  0.27383400  1
  N  N50  1  0.46682000  0.97617900  0.22616600  1
  N  N51  1  0.46682000  0.52382100  0.72616600  1
  Cl  Cl0  1  0.40303800  0.27075600  0.42230600  1
  Cl  Cl1  1  0.40303800  0.22924400  0.92230600  1
  Cl  Cl2  1  0.59696200  0.72924400  0.57769400  1
  Cl  Cl3  1  0.59696200  0.77075600  0.07769400  1
  Cl  Cl4  1  0.00387100  0.42690000  0.15091700  1
  Cl  Cl5  1  0.00387100  0.07310000  0.65091700  1
  Cl  Cl6  1  0.99612900  0.57310000  0.84908300  1
  Cl  Cl7  1  0.99612900  0.92690000  0.34908300  1
  Cl  Cl8  1  0.38037800  0.77657800  0.80924600  1
  Cl  Cl9  1  0.38037800  0.72342200  0.30924600  1
  Cl  Cl10  1  0.61962200  0.22342200  0.19075400  1
  Cl  Cl11  1  0.61962200  0.27657800  0.69075400  1
  O  O0  1  0.95294900  0.87034200  0.09122500  1
  O  O1  1  0.95294900  0.62965800  0.59122500  1
  O  O2  1  0.04705100  0.12965800  0.90877500  1
  O  O3  1  0.04705100  0.37034200  0.40877500  1
  O  O4  1  0.82103000  0.86743700  0.95975400  1
  O  O5  1  0.82103000  0.63256300  0.45975400  1
  O  O6  1  0.17897000  0.13256300  0.04024600  1
  O  O7  1  0.17897000  0.36743700  0.54024600  1
  O  O8  1  0.81498000  0.05964000  0.03356400  1
  O  O9  1  0.81498000  0.44036000  0.53356400  1
  O  O10  1  0.18502000  0.94036000  0.96643600  1
  O  O11  1  0.18502000  0.55964000  0.46643600  1
loop_
_geom_bond_atom_site_label_1
_geom_bond_atom_site_label_2
_geom_bond_distance
_geom_bond_site_symmetry_2
Be0 O8 1.598130 1_565
Be0 O0 1.601295 1_555
Be0 N0 1.767143 1_665
Be0 N4 1.804011 1_555
Be1 O9 1.598130 1_555
Be1 O1 1.601295 1_555
Be1 N1 1.767143 1_655
Be1 N5 1.804011 1_555
Be2 O10 1.598130 1_545
Be2 O2 1.601295 1_555
Be2 N2 1.767143 1_445
Be2 N6 1.804011 1_555
Be3 O11 1.598130 1_555
Be3 O3 1.601295 1_555
Be3 N3 1.767143 1_455
Be3 N7 1.804011 1_555
Be4 O0 1.604605 1_555
Be4 O4 1.604977 1_554
Be4 N8 1.773370 1_655
Be4 N12 1.793166 1_555
Be5 O1 1.604605 1_555
Be5 O5 1.604977 1_555
Be5 N9 1.773370 1_655
Be5 N13 1.793166 1_555
Be6 O2 1.604605 1_555
Be6 O6 1.604977 1_556
Be6 N10 1.773370 1_455
Be6 N14 1.793166 1_555
Be7 O3 1.604605 1_555
Be7 O7 1.604977 1_555
Be7 N11 1.773370 1_455
Be7 N15 1.793166 1_555
Be8 O8 1.599244 1_566
Be8 O4 1.606058 1_555
Be8 N16 1.762398 1_565
Be8 N20 1.793228 1_555
Be9 O9 1.599244 1_555
Be9 O5 1.606058 1_555
Be9 N17 1.762398 1_555
Be9 N21 1.793228 1_555
Be10 O10 1.599244 1_544
Be10 O6 1.606058 1_555
Be10 N18 1.762398 1_545
Be10 N22 1.793228 1_555
Be11 O11 1.599244 1_555
Be11 O7 1.606058 1_555
Be11 N19 1.762398 1_555
Be11 N23 1.793228 1_555
H0 N0 1.040050 1_555
H1 N1 1.040050 1_555
H2 N2 1.040050 1_555
H3 N3 1.040050 1_555
H4 N0 1.027332 1_655
H5 N1 1.027332 1_655
H6 N2 1.027332 1_455
H7 N3 1.027332 1_455
H8 N0 1.027005 1_555
H9 N1 1.027005 1_555
H10 N2 1.027005 1_555
H11 N3 1.027005 1_555
H12 N4 1.028999 1_545
H13 N5 1.028999 1_555
H14 N6 1.028999 1_565
H15 N7 1.028999 1_555
H16 N4 1.025528 1_555
H17 N5 1.025528 1_555
H18 N6 1.025528 1_555
H19 N7 1.025528 1_555
H20 N4 1.039795 1_555
H21 N5 1.039795 1_555
H22 N6 1.039795 1_555
H23 N7 1.039795 1_555
H24 N8 1.027445 1_656
H25 N9 1.027445 1_655
H26 N10 1.027445 1_454
H27 N11 1.027445 1_455
H28 N8 1.037450 1_555
H29 N9 1.037450 1_555
H30 N10 1.037450 1_555
H31 N11 1.037450 1_555
H32 N8 1.032292 1_556
H33 N9 1.032292 1_555
H34 N10 1.032292 1_554
H35 N11 1.032292 1_555
H36 N12 1.037878 1_555
H37 N13 1.037878 1_555
H38 N14 1.037878 1_555
H39 N15 1.037878 1_555
H40 N12 1.031124 1_556
H41 N13 1.031124 1_555
H42 N14 1.031124 1_554
H43 N15 1.031124 1_555
H44 N12 1.028274 1_555
H45 N13 1.028274 1_555
H46 N14 1.028274 1_555
H47 N15 1.028274 1_555
H48 N16 1.048421 1_555
H49 N17 1.048421 1_555
H50 N18 1.048421 1_555
H51 N19 1.048421 1_555
H52 N16 1.023201 1_555
H53 N17 1.023201 1_555
H54 N18 1.023201 1_555
H55 N19 1.023201 1_555
H56 N16 1.024425 1_555
H57 N17 1.024425 1_555
H58 N18 1.024425 1_555
H59 N19 1.024425 1_555
H60 N20 1.032090 1_555
H61 N21 1.032090 1_555
H62 N22 1.032090 1_555
H63 N23 1.032090 1_555
H64 N20 1.032038 1_545
H65 N21 1.032038 1_555
H66 N22 1.032038 1_565
H67 N23 1.032038 1_555
H68 N20 1.029690 1_555
H69 N21 1.029690 1_555
H70 N22 1.029690 1_555
H71 N23 1.029690 1_555
H72 O0 1.011337 1_555
H73 O1 1.011337 1_555
H74 O2 1.011337 1_555
H75 O3 1.011337 1_555
H76 O4 1.006499 1_555
H77 O5 1.006499 1_555
H78 O6 1.006499 1_555
H79 O7 1.006499 1_555
H80 O8 1.018240 1_555
H81 O9 1.018240 1_555
H82 O10 1.018240 1_555
H83 O11 1.018240 1_555
H84 N24 1.027534 1_555
H85 N25 1.027534 1_555
H86 N26 1.027534 1_555
H87 N27 1.027534 1_555
H88 N24 1.022598 1_555
H89 N25 1.022598 1_555
H90 N26 1.022598 1_555
H91 N27 1.022598 1_555
H92 N24 1.026011 1_555
H93 N25 1.026011 1_555
H94 N26 1.026011 1_555
H95 N27 1.026011 1_555
H96 N28 1.022070 1_555
H97 N29 1.022070 1_555
H98 N30 1.022070 1_555
H99 N31 1.022070 1_555
H100 N28 1.024117 1_555
H101 N29 1.024117 1_555
H102 N30 1.024117 1_555
H103 N31 1.024117 1_555
H104 N28 1.023066 1_555
H105 N29 1.023066 1_555
H106 N30 1.023066 1_555
H107 N31 1.023066 1_555
H108 N32 1.030078 1_555
H109 N33 1.030078 1_555
H110 N34 1.030078 1_555
H111 N35 1.030078 1_555
H112 N32 1.024900 1_555
H113 N33 1.024900 1_555
H114 N34 1.024900 1_555
H115 N35 1.024900 1_555
H116 N32 1.020472 1_555
H117 N33 1.020472 1_555
H118 N34 1.020472 1_555
H119 N35 1.020472 1_555
H120 N36 1.028379 1_555
H121 N37 1.028379 1_555
H122 N38 1.028379 1_555
H123 N39 1.028379 1_555
H124 N36 1.027526 1_555
H125 N37 1.027526 1_555
H126 N38 1.027526 1_555
H127 N39 1.027526 1_555
H128 N36 1.024017 1_555
H129 N37 1.024017 1_555
H130 N38 1.024017 1_555
H131 N39 1.024017 1_555
H132 N40 1.026802 1_555
H133 N41 1.026802 1_555
H134 N42 1.026802 1_555
H135 N43 1.026802 1_555
H136 N40 1.027129 1_555
H137 N41 1.027129 1_555
H138 N42 1.027129 1_555
H139 N43 1.027129 1_555
H140 N40 1.026995 1_565
H141 N41 1.026995 1_555
H142 N42 1.026995 1_545
H143 N43 1.026995 1_555
H144 N44 1.027617 1_555
H145 N45 1.027617 1_555
H146 N46 1.027617 1_555
H147 N47 1.027617 1_555
H148 N44 1.021351 1_555
H149 N45 1.021351 1_545
H150 N46 1.021351 1_555
H151 N47 1.021351 1_565
H152 N44 1.030237 1_555
H153 N45 1.030237 1_555
H154 N46 1.030237 1_555
H155 N47 1.030237 1_555
H156 N48 1.021485 1_565
H157 N49 1.021485 1_555
H158 N50 1.021485 1_545
H159 N51 1.021485 1_555
H160 N48 1.023181 1_565
H161 N49 1.023181 1_555
H162 N50 1.023181 1_545
H163 N51 1.023181 1_555
H164 N48 1.022044 1_555
H165 N49 1.022044 1_555
H166 N50 1.022044 1_555
H167 N51 1.022044 1_555
