# generated using pymatgen
data_U2H12C2S3(NO8)2
_symmetry_space_group_name_H-M   'P 1'
_cell_length_a   8.76347100
_cell_length_b   9.95996378
_cell_length_c   9.98595576
_cell_angle_alpha   89.80296772
_cell_angle_beta   84.09149603
_cell_angle_gamma   89.84012328
_symmetry_Int_Tables_number   1
_chemical_formula_structural   U2H12C2S3(NO8)2
_chemical_formula_sum   'U4 H24 C4 S6 N4 O32'
_cell_volume   866.97457474
_cell_formula_units_Z   2
loop_
 _symmetry_equiv_pos_site_id
 _symmetry_equiv_pos_as_xyz
  1  'x, y, z'
loop_
 _atom_site_type_symbol
 _atom_site_label
 _atom_site_symmetry_multiplicity
 _atom_site_fract_x
 _atom_site_fract_y
 _atom_site_fract_z
 _atom_site_occupancy
  U  U0  1  0.49696700  0.86556800  0.47465500  1
  U  U1  1  0.73735000  0.36768800  0.34088800  1
  U  U2  1  0.49407100  0.25854700  0.85941900  1
  U  U3  1  0.73636300  0.74946300  0.94789400  1
  H  H0  1  0.10873300  0.37887500  0.55670200  1
  H  H1  1  0.94104600  0.45208700  0.61454200  1
  H  H2  1  0.05028300  0.38308600  0.72316900  1
  H  H3  1  0.21522600  0.49992700  0.01105200  1
  H  H4  1  0.25568600  0.66371300  0.02683500  1
  H  H5  1  0.08033900  0.60842700  0.07798700  1
  H  H6  1  0.03195400  0.14487000  0.01693800  1
  H  H7  1  0.95701800  0.00556600  0.08845500  1
  H  H8  1  0.12875800  0.99874400  0.99931100  1
  H  H9  1  0.96532900  0.90318700  0.51324000  1
  H  H10  1  0.00330700  0.86667800  0.67103800  1
  H  H11  1  0.13994000  0.93132100  0.55942600  1
  H  H12  1  0.25529200  0.54695700  0.66109400  1
  H  H13  1  0.07961400  0.62555900  0.72734200  1
  H  H14  1  0.13442300  0.62238600  0.54864100  1
  H  H15  1  0.19048500  0.45610300  0.24380600  1
  H  H16  1  0.20483000  0.63254100  0.27816600  1
  H  H17  1  0.36735700  0.54236000  0.20168400  1
  H  H18  1  0.24869200  0.13029800  0.15918500  1
  H  H19  1  0.15238900  0.98975700  0.24167900  1
  H  H20  1  0.06643700  0.15361000  0.25522800  1
  H  H21  1  0.99106000  0.14201200  0.55863300  1
  H  H22  1  0.05443900  0.09982500  0.71934600  1
  H  H23  1  0.86027700  0.06914900  0.68727800  1
  C  C0  1  0.13633500  0.56737000  0.64360200  1
  C  C1  1  0.24259300  0.55137700  0.20898300  1
  C  C2  1  0.13704800  0.08498700  0.18964100  1
  C  C3  1  0.97945600  0.07130400  0.64308600  1
  S  S0  1  0.38390400  0.21848500  0.51887500  1
  S  S1  1  0.38604400  0.90453800  0.83684300  1
  S  S2  1  0.84006400  0.71978500  0.29188200  1
  S  S3  1  0.62106200  0.56114400  0.65749800  1
  S  S4  1  0.84944400  0.39752800  0.98049700  1
  S  S5  1  0.61990700  0.05962800  0.15589700  1
  N  N0  1  0.05397600  0.43719200  0.63382100  1
  N  N1  1  0.19530000  0.58312400  0.07245900  1
  N  N2  1  0.05884300  0.05713000  0.06593000  1
  N  N3  1  0.02476700  0.93454700  0.59275600  1
  O  O0  1  0.72325900  0.46838700  0.57168800  1
  O  O1  1  0.88013600  0.39061000  0.12513600  1
  O  O2  1  0.86814600  0.57970800  0.33796700  1
  O  O3  1  0.54777400  0.24345800  0.46626000  1
  O  O4  1  0.72082400  0.15834400  0.21497500  1
  O  O5  1  0.90347000  0.29133300  0.40359100  1
  O  O6  1  0.57934300  0.45121400  0.27539600  1
  O  O7  1  0.87549300  0.72287400  0.14069800  1
  O  O8  1  0.87830700  0.53885400  0.93157600  1
  O  O9  1  0.72027900  0.65195000  0.72937300  1
  O  O10  1  0.67321100  0.75164900  0.32345700  1
  O  O11  1  0.93961800  0.81408100  0.35222600  1
  O  O12  1  0.51963800  0.48220500  0.75691600  1
  O  O13  1  0.52569700  0.64166400  0.57259400  1
  O  O14  1  0.66269200  0.93502600  0.54063700  1
  O  O15  1  0.51898000  0.99163800  0.26339200  1
  O  O16  1  0.32278600  0.79887900  0.41811600  1
  O  O17  1  0.35799800  0.06971300  0.51334300  1
  O  O18  1  0.35928400  0.85970400  0.69851900  1
  O  O19  1  0.28024800  0.83600300  0.93785900  1
  O  O20  1  0.35677500  0.05258300  0.84778400  1
  O  O21  1  0.55128200  0.87920300  0.85561300  1
  O  O22  1  0.68456500  0.36540400  0.97119900  1
  O  O23  1  0.95442700  0.30586400  0.90108300  1
  O  O24  1  0.57402300  0.66350500  0.03272900  1
  O  O25  1  0.90460900  0.82980100  0.86054700  1
  O  O26  1  0.32678900  0.33340800  0.95398000  1
  O  O27  1  0.65363800  0.18414300  0.75951600  1
  O  O28  1  0.36211000  0.26154500  0.66355400  1
  O  O29  1  0.52205300  0.12736100  0.06316900  1
  O  O30  1  0.72284700  0.95957800  0.07952900  1
  O  O31  1  0.27436100  0.28984900  0.44418500  1
loop_
_geom_bond_atom_site_label_1
_geom_bond_atom_site_label_2
_geom_bond_distance
_geom_bond_site_symmetry_2
H0 N0 1.042180 1_555
H1 N0 1.037645 1_655
H2 N0 1.038444 1_555
H3 N1 1.036243 1_555
H4 N1 1.040240 1_555
H5 N1 1.033808 1_555
H6 N2 1.038363 1_555
H7 N2 1.034923 1_655
H8 N2 1.035802 1_566
H9 N3 1.042665 1_655
H10 N3 1.034506 1_555
H11 N3 1.030173 1_555
C0 H12 1.093008 1_555
C0 H13 1.094710 1_555
C0 H14 1.095177 1_555
C0 N0 1.494042 1_555
C1 H17 1.091749 1_555
C1 H16 1.093424 1_555
C1 H15 1.094242 1_555
C1 N1 1.497676 1_555
C2 H18 1.092551 1_555
C2 H20 1.093753 1_555
C2 H19 1.094541 1_545
C2 N2 1.500185 1_555
C3 H23 1.091417 1_555
C3 H21 1.093707 1_555
C3 H22 1.094518 1_655
C3 N3 1.492038 1_645
O0 S3 1.494224 1_555
O0 U1 2.507927 1_555
O1 S4 1.497484 1_554
O1 U1 2.388070 1_555
O2 S2 1.495263 1_555
O2 U1 2.404207 1_555
O3 S0 1.498657 1_555
O3 U1 2.330460 1_555
O4 S5 1.487660 1_555
O4 U1 2.450838 1_555
O5 U1 1.807746 1_555
O6 U1 1.792607 1_555
O7 S2 1.509907 1_555
O7 U3 2.396169 1_554
O8 S4 1.501930 1_555
O8 U3 2.433130 1_555
O9 S3 1.492138 1_555
O9 U3 2.409056 1_555
O10 S2 1.497124 1_555
O10 U0 2.339754 1_555
O11 S2 1.457064 1_555
O12 S3 1.486825 1_555
O12 U2 2.449518 1_555
O13 S3 1.482537 1_555
O13 U0 2.454731 1_555
O14 U0 1.796589 1_555
O15 S5 1.481893 1_565
O15 U0 2.442110 1_555
O16 U0 1.809866 1_555
O17 S0 1.501745 1_555
O17 U0 2.379359 1_545
O18 S1 1.494623 1_555
O18 U0 2.429169 1_555
O19 S1 1.466065 1_555
O20 S1 1.498390 1_545
O20 U2 2.390309 1_555
O21 S1 1.499731 1_555
O21 U3 2.331854 1_555
O22 S4 1.493040 1_555
O22 U2 2.359507 1_555
O23 S4 1.469324 1_555
O24 U3 1.796746 1_554
O25 U3 1.819888 1_555
O26 U2 1.819457 1_555
O27 U2 1.792187 1_555
O28 S0 1.501577 1_555
O28 U2 2.372522 1_555
O29 S5 1.484546 1_555
O29 U2 2.447398 1_554
O30 S5 1.498983 1_565
O30 U3 2.471230 1_554
O31 S0 1.457058 1_555
