# generated using pymatgen
data_Li4MnCo2O7
_symmetry_space_group_name_H-M   'P 1'
_cell_length_a   5.09190036
_cell_length_b   5.09190036
_cell_length_c   18.02724031
_cell_angle_alpha   83.42724665
_cell_angle_beta   83.42724665
_cell_angle_gamma   32.69335610
_symmetry_Int_Tables_number   1
_chemical_formula_structural   Li4MnCo2O7
_chemical_formula_sum   'Li8 Mn2 Co4 O14'
_cell_volume   250.66028440
_cell_formula_units_Z   2
loop_
 _symmetry_equiv_pos_site_id
 _symmetry_equiv_pos_as_xyz
  1  'x, y, z'
loop_
 _atom_site_type_symbol
 _atom_site_label
 _atom_site_symmetry_multiplicity
 _atom_site_fract_x
 _atom_site_fract_y
 _atom_site_fract_z
 _atom_site_occupancy
  Li  Li0  1  0.28614500  0.28614500  0.91930700  1
  Li  Li1  1  0.86785300  0.86785300  0.79366600  1
  Li  Li2  1  0.43001500  0.43001500  0.64875200  1
  Li  Li3  1  0.00634200  0.00634200  0.50108200  1
  Li  Li4  1  0.56972500  0.56972500  0.36177800  1
  Li  Li5  1  0.13925400  0.13925400  0.21214800  1
  Li  Li6  1  0.71036100  0.71036100  0.06471100  1
  Li  Li7  1  0.56852200  0.56852200  0.85719700  1
  Mn  Mn0  1  0.99201200  0.99201200  0.99149200  1
  Mn  Mn1  1  0.85981300  0.85981300  0.28620900  1
  Co  Co0  1  0.14985300  0.14985300  0.72768300  1
  Co  Co1  1  0.71379200  0.71379200  0.57449400  1
  Co  Co2  1  0.29117100  0.29117100  0.43303800  1
  Co  Co3  1  0.42087900  0.42087900  0.13746500  1
  O  O0  1  0.36404200  0.36404200  0.02850800  1
  O  O1  1  0.93124500  0.93124500  0.89995200  1
  O  O2  1  0.51470100  0.51470100  0.74557800  1
  O  O3  1  0.09107900  0.09107900  0.60377000  1
  O  O4  1  0.65614200  0.65614200  0.47417200  1
  O  O5  1  0.22894600  0.22894600  0.32159600  1
  O  O6  1  0.79413800  0.79413800  0.17004800  1
  O  O7  1  0.21995400  0.21995400  0.81378800  1
  O  O8  1  0.77095600  0.77095600  0.66996400  1
  O  O9  1  0.33908400  0.33908400  0.54286500  1
  O  O10  1  0.92774100  0.92774100  0.39970900  1
  O  O11  1  0.48860600  0.48860600  0.25052500  1
  O  O12  1  0.04624500  0.04624500  0.10240200  1
  O  O13  1  0.62138300  0.62138300  0.96810000  1
loop_
_geom_bond_atom_site_label_1
_geom_bond_atom_site_label_2
_geom_bond_distance
_geom_bond_site_symmetry_2
Li0 O1 2.016942 1_455
Li0 O1 2.016942 1_545
Li0 O7 2.080950 1_555
Li0 O0 2.193701 1_556
Li0 O13 2.254323 1_545
Li0 O13 2.254323 1_455
Li1 O7 2.036950 1_565
Li1 O7 2.036950 1_655
Li1 O1 2.082821 1_555
Li1 O2 2.137240 1_655
Li1 O2 2.137240 1_565
Li1 O8 2.524538 1_555
Li2 O2 2.018978 1_555
Li2 O8 2.115234 1_545
Li2 O8 2.115234 1_455
Li2 O9 2.199538 1_555
Li2 O3 2.210011 1_565
Li2 O3 2.210011 1_655
Li3 O4 2.064610 1_545
Li3 O4 2.064610 1_455
Li3 O10 2.065073 1_445
Li3 O3 2.116191 1_555
Li3 O9 2.235828 1_545
Li3 O9 2.235828 1_455
Li4 O10 2.054298 1_455
Li4 O10 2.054298 1_545
Li4 O5 2.174980 1_655
Li4 O5 2.174980 1_565
Li4 O11 2.242776 1_555
Li4 O4 2.286187 1_555
Li5 O11 2.111085 1_545
Li5 O11 2.111085 1_455
Li5 O6 2.155591 1_455
Li5 O6 2.155591 1_545
Li5 O5 2.252488 1_555
Li5 O12 2.273593 1_555
Li6 O13 2.037302 1_554
Li6 O0 2.121622 1_565
Li6 O0 2.121622 1_655
Li6 O6 2.155710 1_555
Li6 O12 2.197170 1_565
Li6 O12 2.197170 1_655
Li7 O1 2.049580 1_455
Li7 O1 2.049580 1_545
Li7 O13 2.123753 1_555
Li7 O2 2.139621 1_555
Li7 O7 2.140035 1_565
Li7 O7 2.140035 1_655
Mn0 O1 1.819235 1_555
Mn0 O13 1.924244 1_565
Mn0 O13 1.924244 1_655
Mn0 O0 1.965667 1_656
Mn0 O0 1.965667 1_566
Mn0 O12 2.128679 1_666
Mn1 O11 1.964303 1_565
Mn1 O11 1.964303 1_655
Mn1 O5 1.975241 1_655
Mn1 O5 1.975241 1_565
Mn1 O10 2.225119 1_555
Mn1 O6 2.262214 1_555
Co0 O7 1.769857 1_555
Co0 O2 1.949495 1_455
Co0 O2 1.949495 1_545
Co0 O8 2.059906 1_545
Co0 O8 2.059906 1_455
Co0 O3 2.371891 1_555
Co1 O8 1.871755 1_555
Co1 O3 1.902459 1_565
Co1 O3 1.902459 1_655
Co1 O9 1.926509 1_655
Co1 O9 1.926509 1_565
Co1 O4 1.957352 1_555
Co2 O10 2.001149 1_545
Co2 O10 2.001149 1_455
Co2 O4 2.027651 1_545
Co2 O4 2.027651 1_455
Co2 O9 2.088132 1_555
Co2 O5 2.167312 1_555
Co3 O6 1.938869 1_455
Co3 O6 1.938869 1_545
Co3 O12 1.941506 1_565
Co3 O12 1.941506 1_655
Co3 O0 2.104001 1_555
Co3 O11 2.216742 1_555
