# generated using pymatgen
data_ZnCu2SnS4
_symmetry_space_group_name_H-M   'P 1'
_cell_length_a   5.39698308
_cell_length_b   5.39698308
_cell_length_c   6.60878907
_cell_angle_alpha   114.09926049
_cell_angle_beta   114.09926049
_cell_angle_gamma   90.00000000
_symmetry_Int_Tables_number   1
_chemical_formula_structural   ZnCu2SnS4
_chemical_formula_sum   'Zn1 Cu2 Sn1 S4'
_cell_volume   157.15960499
_cell_formula_units_Z   1
loop_
 _symmetry_equiv_pos_site_id
 _symmetry_equiv_pos_as_xyz
  1  'x, y, z'
loop_
 _atom_site_type_symbol
 _atom_site_label
 _atom_site_symmetry_multiplicity
 _atom_site_fract_x
 _atom_site_fract_y
 _atom_site_fract_z
 _atom_site_occupancy
  Zn  Zn0  1  0.00000000  0.00000000  -0.00000000  1
  Cu  Cu0  1  0.25000000  0.75000000  0.50000000  1
  Cu  Cu1  1  0.75000000  0.25000000  0.50000000  1
  Sn  Sn0  1  0.50000000  0.50000000  0.00000000  1
  S  S0  1  0.37529734  0.37529734  0.26652027  1
  S  S1  1  0.89122392  0.89122392  0.26652027  1
  S  S2  1  0.10877608  0.62470266  0.73347973  1
  S  S3  1  0.62470266  0.10877608  0.73347973  1
loop_
_geom_bond_atom_site_label_1
_geom_bond_atom_site_label_2
_geom_bond_distance
_geom_bond_site_symmetry_2
Cu0 S3 2.287270 1_565
Cu0 S0 2.287273 1_555
Cu0 S1 2.287273 1_455
Cu0 S2 2.287277 1_555
Cu1 S2 2.287270 1_655
Cu1 S0 2.287273 1_555
Cu1 S1 2.287273 1_545
Cu1 S3 2.287277 1_555
S0 Zn0 2.341074 1_555
S0 Sn0 2.438134 1_555
S1 Zn0 2.341068 1_665
S1 Sn0 2.438140 1_555
S2 Zn0 2.341071 1_566
S2 Sn0 2.438137 1_556
S3 Zn0 2.341071 1_656
S3 Sn0 2.438137 1_556
