# generated using pymatgen
data_Dy2Ga8Fe
_symmetry_space_group_name_H-M   'P 1'
_cell_length_a   4.26392400
_cell_length_b   4.26392400
_cell_length_c   11.16460500
_cell_angle_alpha   90.00000000
_cell_angle_beta   90.00000000
_cell_angle_gamma   90.00000000
_symmetry_Int_Tables_number   1
_chemical_formula_structural   Dy2Ga8Fe
_chemical_formula_sum   'Dy2 Ga8 Fe1'
_cell_volume   202.98421804
_cell_formula_units_Z   1
loop_
 _symmetry_equiv_pos_site_id
 _symmetry_equiv_pos_as_xyz
  1  'x, y, z'
loop_
 _atom_site_type_symbol
 _atom_site_label
 _atom_site_symmetry_multiplicity
 _atom_site_fract_x
 _atom_site_fract_y
 _atom_site_fract_z
 _atom_site_occupancy
  Dy  Dy0  1  0.00000000  0.00000000  0.69656500  1
  Dy  Dy1  1  0.00000000  0.00000000  0.30343500  1
  Ga  Ga0  1  0.50000000  0.00000000  0.88567800  1
  Ga  Ga1  1  0.00000000  0.50000000  0.88567800  1
  Ga  Ga2  1  0.50000000  0.00000000  0.11432200  1
  Ga  Ga3  1  0.00000000  0.50000000  0.11432200  1
  Ga  Ga4  1  0.50000000  0.00000000  0.50000000  1
  Ga  Ga5  1  0.00000000  0.50000000  0.50000000  1
  Ga  Ga6  1  0.50000000  0.50000000  0.69799300  1
  Ga  Ga7  1  0.50000000  0.50000000  0.30200700  1
  Fe  Fe0  1  0.00000000  0.00000000  0.00000000  1
loop_
_geom_bond_atom_site_label_1
_geom_bond_atom_site_label_2
_geom_bond_distance
_geom_bond_site_symmetry_2
Dy0 Ga0 3.000526 1_455
Dy0 Ga1 3.000526 1_555
Dy0 Ga1 3.000526 1_545
Dy0 Ga0 3.000526 1_555
Dy0 Ga6 3.015092 1_555
Dy0 Ga6 3.015092 1_445
Dy0 Ga6 3.015092 1_545
Dy0 Ga6 3.015092 1_455
Dy0 Ga5 3.059641 1_545
Dy0 Ga4 3.059641 1_455
Dy0 Ga5 3.059641 1_555
Dy0 Ga4 3.059641 1_555
Dy1 Ga3 3.000526 1_545
Dy1 Ga2 3.000526 1_455
Dy1 Ga3 3.000526 1_555
Dy1 Ga2 3.000526 1_555
Dy1 Ga7 3.015092 1_445
Dy1 Ga7 3.015092 1_545
Dy1 Ga7 3.015092 1_555
Dy1 Ga7 3.015092 1_455
Dy1 Ga5 3.059641 1_545
Dy1 Ga4 3.059641 1_455
Dy1 Ga4 3.059641 1_555
Dy1 Ga5 3.059641 1_555
Ga0 Ga2 2.552720 1_556
Ga0 Ga6 2.989328 1_555
Ga0 Ga6 2.989328 1_545
Ga0 Ga1 3.015050 1_645
Ga0 Ga1 3.015050 1_555
Ga0 Ga1 3.015050 1_655
Ga0 Ga1 3.015050 1_545
Ga1 Ga3 2.552720 1_556
Ga1 Ga6 2.989328 1_555
Ga1 Ga6 2.989328 1_455
Ga2 Ga7 2.989328 1_545
Ga2 Ga7 2.989328 1_555
Ga2 Ga3 3.015050 1_555
Ga2 Ga3 3.015050 1_645
Ga2 Ga3 3.015050 1_655
Ga2 Ga3 3.015050 1_545
Ga3 Ga7 2.989328 1_555
Ga3 Ga7 2.989328 1_455
Ga4 Ga5 3.015050 1_655
Ga4 Ga5 3.015050 1_545
Ga4 Ga5 3.015050 1_555
Ga4 Ga5 3.015050 1_645
Ga4 Ga6 3.071096 1_545
Ga4 Ga7 3.071096 1_545
Ga4 Ga7 3.071096 1_555
Ga4 Ga6 3.071096 1_555
Ga5 Ga6 3.071096 1_455
Ga5 Ga7 3.071096 1_555
Ga5 Ga7 3.071096 1_455
Ga5 Ga6 3.071096 1_555
Fe0 Ga0 2.484825 1_554
Fe0 Ga2 2.484825 1_455
Fe0 Ga2 2.484825 1_555
Fe0 Ga0 2.484825 1_454
Fe0 Ga1 2.484825 1_554
Fe0 Ga3 2.484825 1_545
Fe0 Ga1 2.484825 1_544
Fe0 Ga3 2.484825 1_555
