# generated using pymatgen
data_ZrSnRh
_symmetry_space_group_name_H-M   'P 1'
_cell_length_a   7.34618425
_cell_length_b   7.34618425
_cell_length_c   3.67230916
_cell_angle_alpha   90.00000000
_cell_angle_beta   90.00000000
_cell_angle_gamma   120.00000782
_symmetry_Int_Tables_number   1
_chemical_formula_structural   ZrSnRh
_chemical_formula_sum   'Zr3 Sn3 Rh3'
_cell_volume   171.63010437
_cell_formula_units_Z   3
loop_
 _symmetry_equiv_pos_site_id
 _symmetry_equiv_pos_as_xyz
  1  'x, y, z'
loop_
 _atom_site_type_symbol
 _atom_site_label
 _atom_site_symmetry_multiplicity
 _atom_site_fract_x
 _atom_site_fract_y
 _atom_site_fract_z
 _atom_site_occupancy
  Zr  Zr0  1  0.39758255  0.39758255  0.50000000  1
  Zr  Zr1  1  0.60241745  0.00000000  0.50000000  1
  Zr  Zr2  1  0.00000000  0.60241745  0.50000000  1
  Sn  Sn0  1  0.73292118  0.73292118  -0.00000000  1
  Sn  Sn1  1  0.26707882  0.00000000  0.00000000  1
  Sn  Sn2  1  0.00000000  0.26707882  0.00000000  1
  Rh  Rh0  1  0.66666700  0.33333300  0.00000000  1
  Rh  Rh1  1  0.33333300  0.66666700  -0.00000000  1
  Rh  Rh2  1  0.00000000  -0.00000000  0.50000000  1
loop_
_geom_bond_atom_site_label_1
_geom_bond_atom_site_label_2
_geom_bond_distance
_geom_bond_site_symmetry_2
Sn0 Zr0 3.072474 1_554
Sn0 Zr0 3.072474 1_555
Sn0 Zr1 3.165604 1_565
Sn0 Zr1 3.165604 1_564
Sn0 Zr2 3.165604 1_655
Sn0 Zr2 3.165604 1_654
Sn1 Zr1 3.072474 1_555
Sn1 Zr1 3.072474 1_554
Sn1 Zr2 3.165604 1_544
Sn1 Zr2 3.165604 1_545
Sn1 Zr0 3.165604 1_555
Sn1 Zr0 3.165604 1_554
Sn2 Zr2 3.072474 1_554
Sn2 Zr2 3.072474 1_555
Sn2 Zr1 3.165604 1_455
Sn2 Zr1 3.165604 1_454
Sn2 Zr0 3.165604 1_555
Sn2 Zr0 3.165604 1_554
Rh0 Sn2 2.724882 1_655
Rh0 Sn1 2.724886 1_555
Rh0 Sn0 2.724889 1_555
Rh0 Zr1 2.904259 1_554
Rh0 Zr1 2.904259 1_555
Rh0 Zr2 2.904261 1_655
Rh0 Zr2 2.904261 1_654
Rh0 Zr0 2.904265 1_555
Rh0 Zr0 2.904265 1_554
Rh1 Sn1 2.724882 1_565
Rh1 Sn2 2.724886 1_555
Rh1 Sn0 2.724889 1_555
Rh1 Zr2 2.904259 1_554
Rh1 Zr2 2.904259 1_555
Rh1 Zr1 2.904261 1_564
Rh1 Zr1 2.904261 1_565
Rh1 Zr0 2.904265 1_555
Rh1 Zr0 2.904265 1_554
Rh2 Sn0 2.687182 1_446
Rh2 Sn0 2.687182 1_445
Rh2 Sn1 2.687182 1_555
Rh2 Sn2 2.687182 1_556
Rh2 Sn1 2.687182 1_556
Rh2 Sn2 2.687182 1_555
Rh2 Zr0 2.920714 1_555
Rh2 Zr2 2.920715 1_545
Rh2 Zr1 2.920715 1_455
