# generated using pymatgen
data_KMg6Sb
_symmetry_space_group_name_H-M   'P 1'
_cell_length_a   5.17125900
_cell_length_b   6.90359200
_cell_length_c   11.84164200
_cell_angle_alpha   90.00000000
_cell_angle_beta   90.00000000
_cell_angle_gamma   90.00000000
_symmetry_Int_Tables_number   1
_chemical_formula_structural   KMg6Sb
_chemical_formula_sum   'K2 Mg12 Sb2'
_cell_volume   422.74972502
_cell_formula_units_Z   2
loop_
 _symmetry_equiv_pos_site_id
 _symmetry_equiv_pos_as_xyz
  1  'x, y, z'
loop_
 _atom_site_type_symbol
 _atom_site_label
 _atom_site_symmetry_multiplicity
 _atom_site_fract_x
 _atom_site_fract_y
 _atom_site_fract_z
 _atom_site_occupancy
  K  K0  1  0.00000000  0.50000000  0.32894900  1
  K  K1  1  0.00000000  0.00000000  0.82894900  1
  Mg  Mg0  1  0.00000000  0.25226600  0.07940600  1
  Mg  Mg1  1  0.00000000  0.74773400  0.07940600  1
  Mg  Mg2  1  0.00000000  0.50000000  0.84128000  1
  Mg  Mg3  1  0.50000000  0.27406100  0.92624400  1
  Mg  Mg4  1  0.50000000  0.72593900  0.92624400  1
  Mg  Mg5  1  0.50000000  0.50000000  0.66794000  1
  Mg  Mg6  1  0.00000000  0.75226600  0.57940600  1
  Mg  Mg7  1  0.00000000  0.24773400  0.57940600  1
  Mg  Mg8  1  0.00000000  0.00000000  0.34128000  1
  Mg  Mg9  1  0.50000000  0.77406100  0.42624400  1
  Mg  Mg10  1  0.50000000  0.22593900  0.42624400  1
  Mg  Mg11  1  0.50000000  0.00000000  0.16794000  1
  Sb  Sb0  1  0.50000000  0.50000000  0.15053000  1
  Sb  Sb1  1  0.50000000  0.00000000  0.65053000  1
loop_
_geom_bond_atom_site_label_1
_geom_bond_atom_site_label_2
_geom_bond_distance
_geom_bond_site_symmetry_2
K0 Sb0 3.339056 1_455
K0 Sb0 3.339056 1_555
K0 Mg9 3.404787 1_455
K0 Mg9 3.404787 1_555
K0 Mg10 3.404787 1_555
K0 Mg10 3.404787 1_455
K0 Mg0 3.414233 1_555
K0 Mg1 3.414233 1_555
K0 Mg6 3.439341 1_555
K0 Mg7 3.439341 1_555
K0 Mg8 3.454883 1_565
K0 Mg8 3.454883 1_555
K1 Sb1 3.339056 1_455
K1 Sb1 3.339056 1_555
K1 Mg4 3.404787 1_445
K1 Mg3 3.404787 1_555
K1 Mg4 3.404787 1_545
K1 Mg3 3.404787 1_455
K1 Mg7 3.414233 1_555
K1 Mg6 3.414233 1_545
K1 Mg0 3.439341 1_556
K1 Mg1 3.439341 1_546
K1 Mg2 3.454883 1_555
K1 Mg2 3.454883 1_545
Mg0 Sb0 3.212443 1_455
Mg0 Sb0 3.212443 1_555
Mg0 Mg11 3.289007 1_455
Mg0 Mg11 3.289007 1_555
Mg0 Mg2 3.297917 1_554
Mg1 Sb0 3.212443 1_455
Mg1 Sb0 3.212443 1_555
Mg1 Mg11 3.289007 1_465
Mg1 Mg11 3.289007 1_565
Mg1 Mg2 3.297917 1_554
Mg2 Mg3 3.182875 1_555
Mg2 Mg3 3.182875 1_455
Mg2 Mg4 3.182875 1_455
Mg2 Mg4 3.182875 1_555
Mg2 Mg5 3.301329 1_455
Mg2 Mg5 3.301329 1_555
Mg3 Sb0 3.080070 1_556
Mg3 Mg5 3.433491 1_555
Mg4 Sb0 3.080070 1_556
Mg4 Mg5 3.433491 1_555
Mg5 Mg6 3.289007 1_555
Mg5 Mg6 3.289007 1_655
Mg5 Mg7 3.289007 1_555
Mg5 Mg7 3.289007 1_655
Mg5 Mg9 3.430914 1_555
Mg5 Sb1 3.457947 1_555
Mg5 Sb1 3.457947 1_565
Mg6 Sb1 3.212443 1_565
Mg6 Sb1 3.212443 1_465
Mg6 Mg8 3.297917 1_565
Mg7 Sb1 3.212443 1_455
Mg7 Sb1 3.212443 1_555
Mg7 Mg8 3.297917 1_555
Mg8 Mg9 3.182875 1_445
Mg8 Mg9 3.182875 1_545
Mg9 Sb1 3.080070 1_565
Mg10 Sb1 3.080070 1_555
Mg10 Mg8 3.182875 1_555
Mg10 Mg8 3.182875 1_655
Mg10 Mg5 3.430914 1_555
Mg10 Mg11 3.433491 1_555
Mg11 Mg8 3.301329 1_555
Mg11 Mg8 3.301329 1_655
Mg11 Mg4 3.430914 1_544
Mg11 Mg3 3.430914 1_554
Mg11 Mg9 3.433491 1_545
Mg11 Sb0 3.457947 1_545
Mg11 Sb0 3.457947 1_555
