# generated using pymatgen
data_PrMnCoGe2
_symmetry_space_group_name_H-M   'P 1'
_cell_length_a   6.02238812
_cell_length_b   6.02238812
_cell_length_c   6.02238812
_cell_angle_alpha   140.41852846
_cell_angle_beta   140.41852846
_cell_angle_gamma   57.21837094
_symmetry_Int_Tables_number   1
_chemical_formula_structural   PrMnCoGe2
_chemical_formula_sum   'Pr1 Mn1 Co1 Ge2'
_cell_volume   87.93297736
_cell_formula_units_Z   1
loop_
 _symmetry_equiv_pos_site_id
 _symmetry_equiv_pos_as_xyz
  1  'x, y, z'
loop_
 _atom_site_type_symbol
 _atom_site_label
 _atom_site_symmetry_multiplicity
 _atom_site_fract_x
 _atom_site_fract_y
 _atom_site_fract_z
 _atom_site_occupancy
  Pr  Pr0  1  0.00000000  0.00000000  0.00000000  1
  Mn  Mn0  1  0.25000000  0.75000000  0.50000000  1
  Co  Co0  1  0.75000000  0.25000000  0.50000000  1
  Ge  Ge0  1  0.62528600  0.62528600  0.00000000  1
  Ge  Ge1  1  0.37471400  0.37471400  0.00000000  1
loop_
_geom_bond_atom_site_label_1
_geom_bond_atom_site_label_2
_geom_bond_distance
_geom_bond_site_symmetry_2
Mn0 Pr0 3.338599 1_555
Mn0 Pr0 3.338599 1_565
Mn0 Pr0 3.338599 1_566
Mn0 Pr0 3.338599 1_666
Co0 Ge1 2.428375 1_555
Co0 Ge0 2.428375 1_556
Co0 Ge0 2.428375 1_545
Co0 Ge1 2.428375 1_656
Co0 Mn0 2.883716 1_656
Co0 Mn0 2.883716 1_645
Co0 Mn0 2.883716 1_555
Co0 Mn0 2.883716 1_544
Co0 Pr0 3.338599 1_656
Co0 Pr0 3.338599 1_655
Co0 Pr0 3.338599 1_666
Co0 Pr0 3.338599 1_555
Ge0 Mn0 2.428375 1_655
Ge0 Mn0 2.428375 1_554
Ge0 Ge1 2.649594 1_555
Ge0 Pr0 3.173469 1_666
Ge0 Pr0 3.173469 1_554
Ge0 Pr0 3.173469 1_565
Ge0 Pr0 3.173469 1_655
Ge1 Mn0 2.428375 1_544
Ge1 Mn0 2.428375 1_555
Ge1 Pr0 3.173469 1_666
Ge1 Pr0 3.173469 1_554
Ge1 Pr0 3.173469 1_565
Ge1 Pr0 3.173469 1_655
