# generated using pymatgen
data_Te2Mo(WS2)2
_symmetry_space_group_name_H-M   'P 1'
_cell_length_a   3.29556251
_cell_length_b   3.29556251
_cell_length_c   30.58743300
_cell_angle_alpha   90.00000000
_cell_angle_beta   90.00000000
_cell_angle_gamma   120.00001023
_symmetry_Int_Tables_number   1
_chemical_formula_structural   Te2Mo(WS2)2
_chemical_formula_sum   'Te2 Mo1 W2 S4'
_cell_volume   287.69527238
_cell_formula_units_Z   1
loop_
 _symmetry_equiv_pos_site_id
 _symmetry_equiv_pos_as_xyz
  1  'x, y, z'
loop_
 _atom_site_type_symbol
 _atom_site_label
 _atom_site_symmetry_multiplicity
 _atom_site_fract_x
 _atom_site_fract_y
 _atom_site_fract_z
 _atom_site_occupancy
  Te  Te0  1  0.33333300  0.66666700  0.06271700  1
  Te  Te1  1  0.33333300  0.66666700  0.93728300  1
  Mo  Mo0  1  0.66666700  0.33333300  0.00000000  1
  W  W0  1  0.33333300  0.66666700  0.76861500  1
  W  W1  1  0.33333300  0.66666700  0.23138500  1
  S  S0  1  0.66666700  0.33333300  0.71834700  1
  S  S1  1  0.66666700  0.33333300  0.18108400  1
  S  S2  1  0.66666700  0.33333300  0.81891600  1
  S  S3  1  0.66666700  0.33333300  0.28165300  1
loop_
_geom_bond_atom_site_label_1
_geom_bond_atom_site_label_2
_geom_bond_distance
_geom_bond_site_symmetry_2
Mo0 Te0 2.701909 1_545
Mo0 Te0 2.701909 1_655
Mo0 Te1 2.701909 1_544
Mo0 Te1 2.701909 1_654
Mo0 Te0 2.701913 1_555
Mo0 Te1 2.701913 1_554
S0 W0 2.446294 1_545
S0 W0 2.446294 1_655
S0 W0 2.446299 1_555
S1 W1 2.446929 1_545
S1 W1 2.446929 1_655
S1 W1 2.446933 1_555
S2 W0 2.446929 1_545
S2 W0 2.446929 1_655
S2 W0 2.446933 1_555
S3 W1 2.446294 1_545
S3 W1 2.446294 1_655
S3 W1 2.446299 1_555
