# generated using pymatgen
data_ZnP2PdO7
_symmetry_space_group_name_H-M   'P 1'
_cell_length_a   5.95575100
_cell_length_b   12.50334100
_cell_length_c   6.85817800
_cell_angle_alpha   90.00000000
_cell_angle_beta   90.00000000
_cell_angle_gamma   90.00000000
_symmetry_Int_Tables_number   1
_chemical_formula_structural   ZnP2PdO7
_chemical_formula_sum   'Zn4 P8 Pd4 O28'
_cell_volume   510.70647117
_cell_formula_units_Z   4
loop_
 _symmetry_equiv_pos_site_id
 _symmetry_equiv_pos_as_xyz
  1  'x, y, z'
loop_
 _atom_site_type_symbol
 _atom_site_label
 _atom_site_symmetry_multiplicity
 _atom_site_fract_x
 _atom_site_fract_y
 _atom_site_fract_z
 _atom_site_occupancy
  Zn  Zn0  1  0.75000000  0.74437200  0.25423400  1
  Zn  Zn1  1  0.25000000  0.25562800  0.74576600  1
  Zn  Zn2  1  0.25000000  0.75562800  0.75423400  1
  Zn  Zn3  1  0.75000000  0.24437200  0.24576600  1
  P  P0  1  0.75000000  0.88313600  0.66868700  1
  P  P1  1  0.25000000  0.11686400  0.33131300  1
  P  P2  1  0.25000000  0.61686400  0.16868700  1
  P  P3  1  0.75000000  0.38313600  0.83131300  1
  P  P4  1  0.75000000  0.61249400  0.83390600  1
  P  P5  1  0.25000000  0.38750600  0.16609400  1
  P  P6  1  0.25000000  0.88750600  0.33390600  1
  P  P7  1  0.75000000  0.11249400  0.66609400  1
  Pd  Pd0  1  0.00000000  0.00000000  0.00000000  1
  Pd  Pd1  1  0.00000000  0.50000000  0.50000000  1
  Pd  Pd2  1  0.50000000  0.00000000  0.00000000  1
  Pd  Pd3  1  0.50000000  0.50000000  0.50000000  1
  O  O0  1  0.75000000  0.69861700  0.98594000  1
  O  O1  1  0.25000000  0.30138300  0.01406000  1
  O  O2  1  0.25000000  0.80138300  0.48594000  1
  O  O3  1  0.75000000  0.19861700  0.51406000  1
  O  O4  1  0.75000000  0.99716400  0.55736100  1
  O  O5  1  0.25000000  0.00283600  0.44263900  1
  O  O6  1  0.25000000  0.50283600  0.05736100  1
  O  O7  1  0.75000000  0.49716400  0.94263900  1
  O  O8  1  0.75000000  0.79629400  0.51807100  1
  O  O9  1  0.25000000  0.20370600  0.48192900  1
  O  O10  1  0.25000000  0.70370600  0.01807100  1
  O  O11  1  0.75000000  0.29629400  0.98192900  1
  O  O12  1  0.96980500  0.61609800  0.71085900  1
  O  O13  1  0.03019500  0.38390200  0.28914100  1
  O  O14  1  0.03019500  0.88390200  0.21085900  1
  O  O15  1  0.46980500  0.38390200  0.28914100  1
  O  O16  1  0.96980500  0.11609800  0.78914100  1
  O  O17  1  0.53019500  0.61609800  0.71085900  1
  O  O18  1  0.53019500  0.11609800  0.78914100  1
  O  O19  1  0.46980500  0.88390200  0.21085900  1
  O  O20  1  0.96876500  0.87989900  0.79394200  1
  O  O21  1  0.03123500  0.12010100  0.20605800  1
  O  O22  1  0.03123500  0.62010100  0.29394200  1
  O  O23  1  0.46876500  0.12010100  0.20605800  1
  O  O24  1  0.96876500  0.37989900  0.70605800  1
  O  O25  1  0.53123500  0.87989900  0.79394200  1
  O  O26  1  0.53123500  0.37989900  0.70605800  1
  O  O27  1  0.46876500  0.62010100  0.29394200  1
loop_
_geom_bond_atom_site_label_1
_geom_bond_atom_site_label_2
_geom_bond_distance
_geom_bond_site_symmetry_2
O0 P4 1.498908 1_555
O0 Zn0 1.926893 1_556
O1 P5 1.498908 1_555
O1 Zn1 1.926893 1_554
O2 P6 1.498908 1_555
O2 Zn2 1.926893 1_555
O3 P7 1.498908 1_555
O3 Zn3 1.926893 1_555
O4 P0 1.617291 1_555
O4 P7 1.623415 1_565
O5 P1 1.617291 1_555
O5 P6 1.623415 1_545
O6 P2 1.617291 1_555
O6 P5 1.623415 1_555
O7 P3 1.617291 1_555
O7 P4 1.623415 1_555
O8 P0 1.498660 1_555
O8 Zn0 1.922378 1_555
O9 P1 1.498660 1_555
O9 Zn1 1.922378 1_555
O10 P2 1.498660 1_555
O10 Zn2 1.922378 1_554
O11 P3 1.498660 1_555
O11 Zn3 1.922378 1_556
O12 P4 1.558176 1_555
O12 Pd1 2.056879 1_655
O12 Zn2 2.432465 1_655
O13 P5 1.558176 1_555
O13 Pd1 2.056879 1_555
O13 Zn3 2.432465 1_455
O14 P6 1.558176 1_555
O14 Pd0 2.056879 1_565
O14 Zn0 2.432465 1_455
O15 P5 1.558176 1_555
O15 Pd3 2.056879 1_555
O15 Zn3 2.432465 1_555
O16 P7 1.558176 1_555
O16 Pd0 2.056879 1_656
O16 Zn1 2.432465 1_655
O17 P4 1.558176 1_555
O17 Pd3 2.056879 1_555
O17 Zn2 2.432465 1_555
O18 P7 1.558176 1_555
O18 Pd2 2.056879 1_556
O18 Zn1 2.432465 1_555
O19 P6 1.558176 1_555
O19 Pd2 2.056879 1_565
O19 Zn0 2.432465 1_555
O20 P0 1.561131 1_555
O20 Pd0 2.070431 1_666
O20 Zn2 2.300864 1_655
O21 P1 1.561131 1_555
O21 Pd0 2.070431 1_555
O21 Zn3 2.300864 1_455
O22 P2 1.561131 1_555
O22 Pd1 2.070431 1_555
O22 Zn0 2.300864 1_455
O23 P1 1.561131 1_555
O23 Pd2 2.070431 1_555
O23 Zn3 2.300864 1_555
O24 P3 1.561131 1_555
O24 Pd1 2.070431 1_655
O24 Zn1 2.300864 1_655
O25 P0 1.561131 1_555
O25 Pd2 2.070431 1_566
O25 Zn2 2.300864 1_555
O26 P3 1.561131 1_555
O26 Pd3 2.070431 1_555
O26 Zn1 2.300864 1_555
O27 P2 1.561131 1_555
O27 Pd3 2.070431 1_555
O27 Zn0 2.300864 1_555
