# generated using pymatgen
data_Al13Si5ClO38
_symmetry_space_group_name_H-M   'P 1'
_cell_length_a   9.88732139
_cell_length_b   9.88732139
_cell_length_c   9.88732139
_cell_angle_alpha   60.00000000
_cell_angle_beta   60.00000000
_cell_angle_gamma   60.00000000
_symmetry_Int_Tables_number   1
_chemical_formula_structural   Al13Si5ClO38
_chemical_formula_sum   'Al13 Si5 Cl1 O38'
_cell_volume   683.47235883
_cell_formula_units_Z   1
loop_
 _symmetry_equiv_pos_site_id
 _symmetry_equiv_pos_as_xyz
  1  'x, y, z'
loop_
 _atom_site_type_symbol
 _atom_site_label
 _atom_site_symmetry_multiplicity
 _atom_site_fract_x
 _atom_site_fract_y
 _atom_site_fract_z
 _atom_site_occupancy
  Al  Al0  1  0.76747700  0.40071500  0.06433000  1
  Al  Al1  1  0.76747700  0.76747700  0.06433000  1
  Al  Al2  1  0.40071500  0.76747700  0.06433000  1
  Al  Al3  1  0.76747700  0.06433000  0.40071500  1
  Al  Al4  1  0.40071500  0.06433000  0.76747700  1
  Al  Al5  1  0.76747700  0.06433000  0.76747700  1
  Al  Al6  1  0.06433000  0.76747700  0.76747700  1
  Al  Al7  1  0.06433000  0.40071500  0.76747700  1
  Al  Al8  1  0.06433000  0.76747700  0.40071500  1
  Al  Al9  1  0.40071500  0.76747700  0.76747700  1
  Al  Al10  1  0.76747700  0.76747700  0.40071500  1
  Al  Al11  1  0.76747700  0.40071500  0.76747700  1
  Al  Al12  1  0.75000000  0.75000000  0.75000000  1
  Si  Si0  1  0.11631300  0.11631300  0.65106000  1
  Si  Si1  1  0.11631300  0.65106000  0.11631300  1
  Si  Si2  1  0.65106000  0.11631300  0.11631300  1
  Si  Si3  1  0.11631300  0.11631300  0.11631300  1
  Si  Si4  1  0.25000000  0.25000000  0.25000000  1
  Cl  Cl0  1  0.50000000  0.50000000  0.50000000  1
  O  O0  1  0.82539100  0.82539100  0.52382700  1
  O  O1  1  0.82539100  0.52382700  0.82539100  1
  O  O2  1  0.52382700  0.82539100  0.82539100  1
  O  O3  1  0.82539100  0.82539100  0.82539100  1
  O  O4  1  0.18318400  0.18318400  0.45044800  1
  O  O5  1  0.18318400  0.45044800  0.18318400  1
  O  O6  1  0.45044800  0.18318400  0.18318400  1
  O  O7  1  0.18318400  0.18318400  0.18318400  1
  O  O8  1  0.28020800  0.28020800  0.71979200  1
  O  O9  1  0.71979200  0.28020800  0.71979200  1
  O  O10  1  0.28020800  0.71979200  0.71979200  1
  O  O11  1  0.71979200  0.71979200  0.28020800  1
  O  O12  1  0.28020800  0.71979200  0.28020800  1
  O  O13  1  0.71979200  0.28020800  0.28020800  1
  O  O14  1  0.55517400  0.79617400  0.09347800  1
  O  O15  1  0.55517400  0.55517400  0.09347800  1
  O  O16  1  0.79617400  0.55517400  0.09347800  1
  O  O17  1  0.55517400  0.09347800  0.79617400  1
  O  O18  1  0.79617400  0.09347800  0.55517400  1
  O  O19  1  0.55517400  0.09347800  0.55517400  1
  O  O20  1  0.09347800  0.55517400  0.55517400  1
  O  O21  1  0.09347800  0.79617400  0.55517400  1
  O  O22  1  0.09347800  0.55517400  0.79617400  1
  O  O23  1  0.79617400  0.55517400  0.55517400  1
  O  O24  1  0.55517400  0.55517400  0.79617400  1
  O  O25  1  0.55517400  0.79617400  0.55517400  1
  O  O26  1  0.00221800  0.27580400  0.71975900  1
  O  O27  1  0.00221800  0.00221800  0.71975900  1
  O  O28  1  0.27580400  0.00221800  0.71975900  1
  O  O29  1  0.00221800  0.71975900  0.27580400  1
  O  O30  1  0.27580400  0.71975900  0.00221800  1
  O  O31  1  0.00221800  0.71975900  0.00221800  1
  O  O32  1  0.71975900  0.00221800  0.00221800  1
  O  O33  1  0.71975900  0.27580400  0.00221800  1
  O  O34  1  0.71975900  0.00221800  0.27580400  1
  O  O35  1  0.27580400  0.00221800  0.00221800  1
  O  O36  1  0.00221800  0.00221800  0.27580400  1
  O  O37  1  0.00221800  0.27580400  0.00221800  1
loop_
_geom_bond_atom_site_label_1
_geom_bond_atom_site_label_2
_geom_bond_distance
_geom_bond_site_symmetry_2
Al0 O13 1.791667 1_555
Al0 O15 1.857701 1_555
Al0 O16 1.857708 1_555
Al0 O37 1.938029 1_655
Al0 O33 1.938029 1_555
Al0 O1 1.964523 1_554
Al1 O11 1.791669 1_555
Al1 O16 1.857698 1_555
Al1 O14 1.857698 1_555
Al1 O31 1.938029 1_655
Al1 O32 1.938029 1_565
Al1 O3 1.964522 1_554
Al2 O12 1.791667 1_555
Al2 O15 1.857701 1_555
Al2 O14 1.857708 1_555
Al2 O35 1.938029 1_565
Al2 O30 1.938029 1_555
Al2 O2 1.964523 1_554
Al3 O13 1.791667 1_555
Al3 O19 1.857701 1_555
Al3 O18 1.857708 1_555
Al3 O36 1.938029 1_655
Al3 O34 1.938029 1_555
Al3 O0 1.964523 1_545
Al4 O8 1.791667 1_555
Al4 O19 1.857701 1_555
Al4 O17 1.857708 1_555
Al4 O35 1.938029 1_556
Al4 O28 1.938029 1_555
Al4 O2 1.964523 1_545
Al5 O9 1.791669 1_555
Al5 O17 1.857698 1_555
Al5 O18 1.857698 1_555
Al5 O27 1.938029 1_655
Al5 O32 1.938029 1_556
Al5 O3 1.964522 1_545
Al6 O10 1.791669 1_555
Al6 O21 1.857698 1_555
Al6 O22 1.857698 1_555
Al6 O31 1.938029 1_556
Al6 O27 1.938029 1_565
Al6 O3 1.964522 1_455
Al7 O8 1.791667 1_555
Al7 O20 1.857701 1_555
Al7 O22 1.857708 1_555
Al7 O37 1.938029 1_556
Al7 O26 1.938029 1_555
Al7 O1 1.964523 1_455
Al8 O12 1.791667 1_555
Al8 O20 1.857701 1_555
Al8 O21 1.857708 1_555
Al8 O36 1.938029 1_565
Al8 O29 1.938029 1_555
Al8 O0 1.964523 1_455
Al9 O10 1.791660 1_555
Al9 O24 1.857701 1_555
Al9 O25 1.857701 1_555
Al9 O28 1.938029 1_565
Al9 O30 1.938029 1_556
Al9 O2 1.964531 1_555
Al10 O11 1.791660 1_555
Al10 O23 1.857701 1_555
Al10 O25 1.857701 1_555
Al10 O34 1.938029 1_565
Al10 O29 1.938029 1_655
Al10 O0 1.964531 1_555
Al11 O9 1.791660 1_555
Al11 O24 1.857701 1_555
Al11 O23 1.857701 1_555
Al11 O26 1.938029 1_655
Al11 O33 1.938029 1_556
Al11 O1 1.964531 1_555
Al12 O3 1.825887 1_555
Al12 O0 1.825887 1_555
Al12 O2 1.825887 1_555
Al12 O1 1.825887 1_555
O4 Si4 1.618210 1_555
O4 Si0 1.619533 1_555
O5 Si4 1.618210 1_555
O5 Si1 1.619533 1_555
O6 Si4 1.618210 1_555
O6 Si2 1.619533 1_555
O7 Si4 1.618210 1_555
O7 Si3 1.619542 1_555
O26 Si0 1.657303 1_555
O27 Si0 1.657303 1_555
O28 Si0 1.657303 1_555
O29 Si1 1.657303 1_555
O30 Si1 1.657303 1_555
O31 Si1 1.657303 1_555
O32 Si2 1.657303 1_555
O33 Si2 1.657303 1_555
O34 Si2 1.657303 1_555
O35 Si3 1.657303 1_555
O36 Si3 1.657303 1_555
O37 Si3 1.657303 1_555
