# generated using pymatgen
data_Nd2Fe20Si2C
_symmetry_space_group_name_H-M   'P 1'
_cell_length_a   6.39536167
_cell_length_b   7.84488684
_cell_length_c   7.82039269
_cell_angle_alpha   100.46750654
_cell_angle_beta   114.32327008
_cell_angle_gamma   65.66191427
_symmetry_Int_Tables_number   1
_chemical_formula_structural   Nd2Fe20Si2C
_chemical_formula_sum   'Nd2 Fe20 Si2 C1'
_cell_volume   325.72157483
_cell_formula_units_Z   1
loop_
 _symmetry_equiv_pos_site_id
 _symmetry_equiv_pos_as_xyz
  1  'x, y, z'
loop_
 _atom_site_type_symbol
 _atom_site_label
 _atom_site_symmetry_multiplicity
 _atom_site_fract_x
 _atom_site_fract_y
 _atom_site_fract_z
 _atom_site_occupancy
  Nd  Nd0  1  0.37452500  0.75025400  0.25342900  1
  Nd  Nd1  1  0.62547500  0.24974600  0.74657100  1
  Fe  Fe0  1  0.17867100  0.58249200  0.82581900  1
  Fe  Fe1  1  0.43471500  0.32399200  0.08008800  1
  Fe  Fe2  1  0.27143800  0.41999700  0.33240900  1
  Fe  Fe3  1  0.85726200  0.83361700  0.91812200  1
  Fe  Fe4  1  0.19305700  0.16692900  0.42192100  1
  Fe  Fe5  1  0.43802700  0.91998500  0.67072000  1
  Fe  Fe6  1  0.25742100  0.67640000  0.57689400  1
  Fe  Fe7  1  0.85821800  0.07801100  0.17490600  1
  Fe  Fe8  1  0.82132900  0.41750800  0.17418100  1
  Fe  Fe9  1  0.56528500  0.67600800  0.91991200  1
  Fe  Fe10  1  0.72856200  0.58000300  0.66759100  1
  Fe  Fe11  1  0.14273800  0.16638300  0.08187800  1
  Fe  Fe12  1  0.80694300  0.83307100  0.57807900  1
  Fe  Fe13  1  0.56197300  0.08001500  0.32928000  1
  Fe  Fe14  1  0.74257900  0.32360000  0.42310600  1
  Fe  Fe15  1  0.14178200  0.92198900  0.82509400  1
  Fe  Fe16  1  0.12283500  0.24774800  0.74875400  1
  Fe  Fe17  1  0.87716500  0.75225200  0.25124600  1
  Fe  Fe18  1  0.00000000  0.50000000  0.00000000  1
  Fe  Fe19  1  0.00000000  0.50000000  0.50000000  1
  Si  Si0  1  0.50000000  0.00000000  0.00000000  1
  Si  Si1  1  0.00000000  0.00000000  0.50000000  1
  C  C0  1  0.50000000  0.50000000  0.00000000  1
loop_
_geom_bond_atom_site_label_1
_geom_bond_atom_site_label_2
_geom_bond_distance
_geom_bond_site_symmetry_2
Fe0 Fe18 2.406649 1_556
Fe0 Fe19 2.414301 1_555
Fe0 Fe3 2.448501 1_455
Fe0 Fe6 2.494099 1_555
Fe0 Fe15 2.575933 1_555
Fe0 Fe10 2.630822 1_455
Fe0 Fe12 2.647131 1_455
Fe0 Fe16 2.721641 1_555
Fe1 Fe18 2.396633 1_555
Fe1 Si0 2.406043 1_555
Fe1 Fe2 2.461804 1_555
Fe1 Fe7 2.483326 1_555
Fe1 Fe14 2.592244 1_555
Fe1 Fe13 2.624544 1_555
Fe1 Fe11 2.635631 1_555
Fe1 Fe16 2.685694 1_554
Fe2 Fe4 2.509377 1_555
Fe2 Fe6 2.510929 1_555
Fe2 Fe8 2.630822 1_455
Fe2 Nd0 3.138998 1_555
Fe2 Nd1 3.230959 1_555
Fe3 Si0 2.403641 1_566
Fe3 Fe5 2.469170 1_555
Fe3 Fe7 2.511796 1_566
Fe3 Fe9 2.635631 1_555
Fe3 Nd0 3.152985 1_656
Fe3 Nd1 3.258623 1_565
Fe4 Si1 2.420000 1_555
Fe4 Fe7 2.477464 1_455
Fe4 Fe5 2.519938 1_545
Fe4 Fe8 2.647131 1_455
Fe4 Nd1 3.100577 1_555
Fe4 Nd0 3.214945 1_545
Fe5 Si1 2.407948 1_565
Fe5 Si0 2.441150 1_566
Fe5 Fe6 2.477023 1_555
Fe5 Fe9 2.624544 1_555
Fe5 Nd1 3.145474 1_565
Fe5 Nd0 3.219100 1_555
Fe6 Si1 2.410570 1_565
Fe6 Fe9 2.592244 1_555
Fe6 Nd0 3.121916 1_555
Fe6 Nd1 3.324334 1_555
Fe7 Si0 2.400820 1_555
Fe7 Si1 2.422657 1_655
Fe7 Fe8 2.575933 1_555
Fe7 Nd0 3.129979 1_645
Fe7 Nd1 3.336318 1_554
Fe9 Si0 2.406043 1_566
Fe10 Fe19 2.408831 1_655
Fe10 Fe9 2.461804 1_555
Fe10 Fe18 2.478416 1_656
Fe10 Fe12 2.509377 1_555
Fe10 Fe14 2.510929 1_555
Fe10 Fe5 2.548651 1_555
Fe10 Fe6 2.590386 1_555
Fe10 Fe3 2.660728 1_555
Fe10 Fe16 2.724026 1_655
Fe10 Nd1 3.138998 1_555
Fe10 Nd0 3.230959 1_555
Fe11 Si0 2.403641 1_555
Fe11 Fe8 2.448501 1_455
Fe11 Fe13 2.469170 1_555
Fe11 Fe18 2.500238 1_555
Fe11 Fe15 2.511796 1_544
Fe11 Fe4 2.543095 1_555
Fe11 Fe7 2.575732 1_455
Fe11 Fe2 2.660728 1_555
Fe11 Fe16 2.733966 1_554
Fe11 Nd1 3.152985 1_454
Fe11 Nd0 3.258623 1_545
Fe12 Si1 2.420000 1_665
Fe12 Fe19 2.471190 1_655
Fe12 Fe15 2.477464 1_655
Fe12 Fe13 2.519938 1_565
Fe12 Fe5 2.541452 1_555
Fe12 Fe3 2.543095 1_555
Fe12 Fe6 2.628683 1_655
Fe12 Fe17 2.694192 1_555
Fe12 Nd0 3.100577 1_555
Fe12 Nd1 3.214945 1_565
Fe13 Si1 2.407948 1_655
Fe13 Si0 2.441150 1_555
Fe13 Fe14 2.477023 1_555
Fe13 Fe4 2.541452 1_555
Fe13 Fe2 2.548651 1_555
Fe13 Fe7 2.626778 1_555
Fe13 Fe17 2.686676 1_545
Fe13 Nd0 3.145474 1_545
Fe13 Nd1 3.219100 1_555
Fe14 Fe19 2.397254 1_655
Fe14 Si1 2.410570 1_655
Fe14 Fe8 2.494099 1_555
Fe14 Fe7 2.583729 1_555
Fe14 Fe2 2.590386 1_555
Fe14 Fe4 2.628683 1_655
Fe14 Fe16 2.647610 1_655
Fe14 Nd1 3.121916 1_555
Fe14 Nd0 3.324334 1_555
Fe15 Si0 2.400820 1_566
Fe15 Si1 2.422657 1_565
Fe15 Fe9 2.483326 1_555
Fe15 Fe3 2.575732 1_455
Fe15 Fe6 2.583729 1_555
Fe15 Fe5 2.626778 1_555
Fe15 Fe16 2.672347 1_565
Fe15 Nd1 3.129979 1_465
Fe15 Nd0 3.336318 1_556
Fe16 Si1 2.608578 1_555
Fe16 Fe18 2.640286 1_556
Fe16 Si0 2.659996 1_556
Fe16 Fe19 2.678821 1_555
Fe16 Fe5 2.686676 1_545
Fe16 Fe4 2.694192 1_555
Fe16 Nd1 3.167377 1_455
Fe16 Nd1 3.228126 1_555
Fe17 Si1 2.608578 1_665
Fe17 Fe18 2.640286 1_655
Fe17 Fe6 2.647610 1_655
Fe17 Si0 2.659996 1_565
Fe17 Fe7 2.672347 1_565
Fe17 Fe19 2.678821 1_655
Fe17 Fe9 2.685694 1_554
Fe17 Fe8 2.721641 1_555
Fe17 Fe2 2.724026 1_655
Fe17 Fe3 2.733966 1_554
Fe17 Nd0 3.167377 1_655
Fe17 Nd0 3.228126 1_555
Fe18 Fe9 2.396633 1_454
Fe18 Fe8 2.406649 1_455
Fe18 Fe2 2.478416 1_555
Fe18 Fe3 2.500238 1_454
Fe18 Nd0 3.474308 1_555
Fe18 Nd1 3.474308 1_454
Fe19 Fe6 2.397254 1_555
Fe19 Fe2 2.408831 1_555
Fe19 Fe8 2.414301 1_455
Fe19 Fe4 2.471190 1_555
Fe19 Nd1 3.481695 1_555
Fe19 Nd0 3.481695 1_455
C0 Fe8 1.848128 1_555
C0 Fe0 1.848128 1_554
C0 Fe1 1.864920 1_555
C0 Fe9 1.864920 1_554
C0 Nd0 2.650276 1_555
C0 Nd1 2.650276 1_554
