# generated using pymatgen
data_Co4Ru
_symmetry_space_group_name_H-M   'P 1'
_cell_length_a   20.77441055
_cell_length_b   20.77441055
_cell_length_c   20.77441005
_cell_angle_alpha   14.19924174
_cell_angle_beta   14.19924174
_cell_angle_gamma   14.19924501
_symmetry_Int_Tables_number   1
_chemical_formula_structural   Co4Ru
_chemical_formula_sum   'Co32 Ru8'
_cell_volume   469.57995738
_cell_formula_units_Z   8
loop_
 _symmetry_equiv_pos_site_id
 _symmetry_equiv_pos_as_xyz
  1  'x, y, z'
loop_
 _atom_site_type_symbol
 _atom_site_label
 _atom_site_symmetry_multiplicity
 _atom_site_fract_x
 _atom_site_fract_y
 _atom_site_fract_z
 _atom_site_occupancy
  Co  Co0_0  1  0.29841100  0.29841100  0.29841100  1
  Co  Co0_1  1  0.29841100  0.29841100  0.79841100  1
  Co  Co0_2  1  0.29841100  0.79841100  0.29841100  1
  Co  Co0_3  1  0.29841100  0.79841100  0.79841100  1
  Co  Co0_4  1  0.79841100  0.29841100  0.29841100  1
  Co  Co0_5  1  0.79841100  0.29841100  0.79841100  1
  Co  Co0_6  1  0.79841100  0.79841100  0.29841100  1
  Co  Co0_7  1  0.79841100  0.79841100  0.79841100  1
  Co  Co1_0  1  0.09971550  0.09971550  0.09971550  1
  Co  Co1_1  1  0.09971550  0.09971550  0.59971550  1
  Co  Co1_2  1  0.09971550  0.59971550  0.09971550  1
  Co  Co1_3  1  0.09971550  0.59971550  0.59971550  1
  Co  Co1_4  1  0.59971550  0.09971550  0.09971550  1
  Co  Co1_5  1  0.59971550  0.09971550  0.59971550  1
  Co  Co1_6  1  0.59971550  0.59971550  0.09971550  1
  Co  Co1_7  1  0.59971550  0.59971550  0.59971550  1
  Co  Co2_0  1  0.40028450  0.40028450  0.40028450  1
  Co  Co2_1  1  0.40028450  0.40028450  0.90028450  1
  Co  Co2_2  1  0.40028450  0.90028450  0.40028450  1
  Co  Co2_3  1  0.40028450  0.90028450  0.90028450  1
  Co  Co2_4  1  0.90028450  0.40028450  0.40028450  1
  Co  Co2_5  1  0.90028450  0.40028450  0.90028450  1
  Co  Co2_6  1  0.90028450  0.90028450  0.40028450  1
  Co  Co2_7  1  0.90028450  0.90028450  0.90028450  1
  Co  Co3_0  1  0.20158900  0.20158900  0.20158900  1
  Co  Co3_1  1  0.20158900  0.20158900  0.70158900  1
  Co  Co3_2  1  0.20158900  0.70158900  0.20158900  1
  Co  Co3_3  1  0.20158900  0.70158900  0.70158900  1
  Co  Co3_4  1  0.70158900  0.20158900  0.20158900  1
  Co  Co3_5  1  0.70158900  0.20158900  0.70158900  1
  Co  Co3_6  1  0.70158900  0.70158900  0.20158900  1
  Co  Co3_7  1  0.70158900  0.70158900  0.70158900  1
  Ru  Ru0_0  1  0.00000000  0.00000000  0.00000000  1
  Ru  Ru0_1  1  0.00000000  0.00000000  0.50000000  1
  Ru  Ru0_2  1  0.00000000  0.50000000  0.00000000  1
  Ru  Ru0_3  1  0.00000000  0.50000000  0.50000000  1
  Ru  Ru0_4  1  0.50000000  0.00000000  0.00000000  1
  Ru  Ru0_5  1  0.50000000  0.00000000  0.50000000  1
  Ru  Ru0_6  1  0.50000000  0.50000000  0.00000000  1
  Ru  Ru0_7  1  0.50000000  0.50000000  0.50000000  1
loop_
_geom_bond_atom_site_label_1
_geom_bond_atom_site_label_2
_geom_bond_distance
_geom_bond_site_symmetry_2
Co0_0 Co1_1 2.470013 1_555
Co0_0 Co1_2 2.470013 1_555
Co0_0 Co1_4 2.470013 1_555
Co0_0 Co0_5 2.567611 1_554
Co0_0 Co0_3 2.567611 1_554
Co0_0 Co0_3 2.567611 1_545
Co0_0 Co0_5 2.567611 1_455
Co0_0 Co0_6 2.567612 1_545
Co0_0 Co0_6 2.567612 1_455
Co0_0 Ru0_6 2.614975 1_555
Co0_0 Ru0_5 2.614975 1_555
Co0_0 Ru0_3 2.614975 1_555
Co0_1 Co1_0 2.470013 1_556
Co0_1 Co1_3 2.470013 1_555
Co0_1 Co1_5 2.470013 1_555
Co0_1 Co0_4 2.567611 1_456
Co0_1 Co0_2 2.567611 1_546
Co0_1 Co0_2 2.567611 1_555
Co0_1 Co0_4 2.567611 1_555
Co0_1 Co0_7 2.567612 1_455
Co0_1 Co0_7 2.567612 1_545
Co0_1 Ru0_7 2.614975 1_555
Co0_1 Ru0_2 2.614975 1_556
Co0_1 Ru0_4 2.614975 1_556
Co0_2 Co1_3 2.470013 1_555
Co0_2 Co1_6 2.470013 1_555
Co0_2 Co1_0 2.470013 1_565
Co0_2 Co0_7 2.567611 1_554
Co0_2 Co0_7 2.567611 1_455
Co0_2 Co0_4 2.567612 1_465
Co0_2 Co0_4 2.567612 1_555
Co0_2 Ru0_4 2.614975 1_565
Co0_2 Ru0_1 2.614975 1_565
Co0_2 Ru0_7 2.614975 1_555
Co0_3 Co1_2 2.470013 1_556
Co0_3 Co1_1 2.470013 1_565
Co0_3 Co1_7 2.470013 1_555
Co0_3 Co0_6 2.567611 1_456
Co0_3 Co0_6 2.567611 1_555
Co0_3 Co0_5 2.567612 1_465
Co0_3 Co0_5 2.567612 1_555
Co0_3 Ru0_5 2.614975 1_565
Co0_3 Ru0_0 2.614975 1_566
Co0_3 Ru0_6 2.614975 1_556
Co0_4 Co1_5 2.470013 1_555
Co0_4 Co1_6 2.470013 1_555
Co0_4 Co1_0 2.470013 1_655
Co0_4 Co0_7 2.567611 1_554
Co0_4 Co0_7 2.567611 1_545
Co0_4 Ru0_2 2.614975 1_655
Co0_4 Ru0_1 2.614975 1_655
Co0_4 Ru0_7 2.614975 1_555
Co0_5 Co1_4 2.470013 1_556
Co0_5 Co1_1 2.470013 1_655
Co0_5 Co1_7 2.470013 1_555
Co0_5 Co0_6 2.567611 1_546
Co0_5 Co0_6 2.567611 1_555
Co0_5 Ru0_3 2.614975 1_655
Co0_5 Ru0_0 2.614975 1_656
Co0_5 Ru0_6 2.614975 1_556
Co0_6 Co1_7 2.470013 1_555
Co0_6 Co1_4 2.470013 1_565
Co0_6 Co1_2 2.470013 1_655
Co0_6 Ru0_0 2.614975 1_665
Co0_6 Ru0_5 2.614975 1_565
Co0_6 Ru0_3 2.614975 1_655
Co0_7 Co1_6 2.470013 1_556
Co0_7 Co1_5 2.470013 1_565
Co0_7 Co1_3 2.470013 1_655
Co0_7 Ru0_1 2.614975 1_665
Co0_7 Ru0_4 2.614975 1_566
Co0_7 Ru0_2 2.614975 1_656
Co1_0 Co2_6 2.506451 1_445
Co1_0 Co2_5 2.506451 1_454
Co1_0 Co2_3 2.506451 1_544
Co1_0 Co1_3 2.567611 1_554
Co1_0 Co1_5 2.567611 1_554
Co1_0 Co1_5 2.567611 1_455
Co1_0 Co1_3 2.567611 1_545
Co1_0 Co1_6 2.567612 1_545
Co1_0 Co1_6 2.567612 1_455
Co1_1 Co2_7 2.506451 1_445
Co1_1 Co2_4 2.506451 1_455
Co1_1 Co2_2 2.506451 1_545
Co1_1 Co1_4 2.567611 1_456
Co1_1 Co1_2 2.567611 1_546
Co1_1 Co1_4 2.567611 1_555
Co1_1 Co1_2 2.567611 1_555
Co1_1 Co1_7 2.567612 1_545
Co1_1 Co1_7 2.567612 1_455
Co1_2 Co2_4 2.506451 1_455
Co1_2 Co2_7 2.506451 1_454
Co1_2 Co2_1 2.506451 1_554
Co1_2 Co1_7 2.567611 1_554
Co1_2 Co1_7 2.567611 1_455
Co1_2 Co1_4 2.567612 1_465
Co1_2 Co1_4 2.567612 1_555
Co1_3 Co2_5 2.506451 1_455
Co1_3 Co2_0 2.506451 1_555
Co1_3 Co2_6 2.506451 1_455
Co1_3 Co1_6 2.567611 1_456
Co1_3 Co1_6 2.567611 1_555
Co1_3 Co1_5 2.567612 1_555
Co1_3 Co1_5 2.567612 1_465
Co1_4 Co2_2 2.506451 1_545
Co1_4 Co2_7 2.506451 1_544
Co1_4 Co2_1 2.506451 1_554
Co1_4 Co1_7 2.567611 1_554
Co1_4 Co1_7 2.567611 1_545
Co1_5 Co2_3 2.506451 1_545
Co1_5 Co2_0 2.506451 1_555
Co1_5 Co2_6 2.506451 1_545
Co1_5 Co1_6 2.567611 1_546
Co1_5 Co1_6 2.567611 1_555
Co1_6 Co2_0 2.506451 1_555
Co1_6 Co2_5 2.506451 1_554
Co1_6 Co2_3 2.506451 1_554
Co1_7 Co2_1 2.506451 1_555
Co1_7 Co2_4 2.506451 1_555
Co1_7 Co2_2 2.506451 1_555
Co2_0 Co3_1 2.470013 1_555
Co2_0 Co3_4 2.470013 1_555
Co2_0 Co3_2 2.470013 1_555
Co2_0 Co2_5 2.567611 1_554
Co2_0 Co2_3 2.567611 1_554
Co2_0 Co2_3 2.567611 1_545
Co2_0 Co2_5 2.567611 1_455
Co2_0 Co2_6 2.567612 1_545
Co2_0 Co2_6 2.567612 1_455
Co2_1 Co3_0 2.470013 1_556
Co2_1 Co3_3 2.470013 1_555
Co2_1 Co3_5 2.470013 1_555
Co2_1 Co2_4 2.567611 1_456
Co2_1 Co2_2 2.567611 1_546
Co2_1 Co2_4 2.567611 1_555
Co2_1 Co2_2 2.567611 1_555
Co2_1 Co2_7 2.567612 1_545
Co2_1 Co2_7 2.567612 1_455
Co2_2 Co3_3 2.470013 1_555
Co2_2 Co3_6 2.470013 1_555
Co2_2 Co3_0 2.470013 1_565
Co2_2 Co2_7 2.567611 1_554
Co2_2 Co2_7 2.567611 1_455
Co2_2 Co2_4 2.567612 1_555
Co2_2 Co2_4 2.567612 1_465
Co2_3 Co3_2 2.470013 1_556
Co2_3 Co3_7 2.470013 1_555
Co2_3 Co3_1 2.470013 1_565
Co2_3 Co2_6 2.567611 1_456
Co2_3 Co2_6 2.567611 1_555
Co2_3 Co2_5 2.567612 1_465
Co2_3 Co2_5 2.567612 1_555
Co2_4 Co3_5 2.470013 1_555
Co2_4 Co3_6 2.470013 1_555
Co2_4 Co3_0 2.470013 1_655
Co2_4 Co2_7 2.567611 1_554
Co2_4 Co2_7 2.567611 1_545
Co2_5 Co3_4 2.470013 1_556
Co2_5 Co3_7 2.470013 1_555
Co2_5 Co3_1 2.470013 1_655
Co2_5 Co2_6 2.567611 1_546
Co2_5 Co2_6 2.567611 1_555
Co2_6 Co3_7 2.470013 1_555
Co2_6 Co3_2 2.470013 1_655
Co2_6 Co3_4 2.470013 1_565
Co2_7 Co3_6 2.470013 1_556
Co2_7 Co3_5 2.470013 1_565
Co2_7 Co3_3 2.470013 1_655
Co3_0 Co3_3 2.567611 1_554
Co3_0 Co3_5 2.567611 1_554
Co3_0 Co3_5 2.567611 1_455
Co3_0 Co3_3 2.567611 1_545
Co3_0 Co3_6 2.567612 1_455
Co3_0 Co3_6 2.567612 1_545
Co3_0 Ru0_1 2.614975 1_555
Co3_0 Ru0_2 2.614975 1_555
Co3_0 Ru0_4 2.614975 1_555
Co3_1 Co3_2 2.567611 1_546
Co3_1 Co3_4 2.567611 1_456
Co3_1 Co3_4 2.567611 1_555
Co3_1 Co3_2 2.567611 1_555
Co3_1 Co3_7 2.567612 1_455
Co3_1 Co3_7 2.567612 1_545
Co3_1 Ru0_0 2.614975 1_556
Co3_1 Ru0_5 2.614975 1_555
Co3_1 Ru0_3 2.614975 1_555
Co3_2 Co3_7 2.567611 1_554
Co3_2 Co3_7 2.567611 1_455
Co3_2 Co3_4 2.567612 1_465
Co3_2 Co3_4 2.567612 1_555
Co3_2 Ru0_3 2.614975 1_555
Co3_2 Ru0_0 2.614975 1_565
Co3_2 Ru0_6 2.614975 1_555
Co3_3 Co3_6 2.567611 1_456
Co3_3 Co3_6 2.567611 1_555
Co3_3 Co3_5 2.567612 1_555
Co3_3 Co3_5 2.567612 1_465
Co3_3 Ru0_2 2.614975 1_556
Co3_3 Ru0_7 2.614975 1_555
Co3_3 Ru0_1 2.614975 1_565
Co3_4 Co3_7 2.567611 1_545
Co3_4 Co3_7 2.567611 1_554
Co3_4 Ru0_5 2.614975 1_555
Co3_4 Ru0_6 2.614975 1_555
Co3_4 Ru0_0 2.614975 1_655
Co3_5 Co3_6 2.567611 1_546
Co3_5 Co3_6 2.567611 1_555
Co3_5 Ru0_4 2.614975 1_556
Co3_5 Ru0_7 2.614975 1_555
Co3_5 Ru0_1 2.614975 1_655
Co3_6 Ru0_7 2.614975 1_555
Co3_6 Ru0_2 2.614975 1_655
Co3_6 Ru0_4 2.614975 1_565
Co3_7 Ru0_6 2.614975 1_556
Co3_7 Ru0_3 2.614975 1_655
Co3_7 Ru0_5 2.614975 1_565
Ru0_0 Ru0_3 2.567611 1_545
Ru0_0 Ru0_3 2.567611 1_554
Ru0_0 Ru0_5 2.567611 1_455
Ru0_0 Ru0_5 2.567611 1_554
Ru0_0 Ru0_6 2.567612 1_455
Ru0_0 Ru0_6 2.567612 1_545
Ru0_1 Ru0_2 2.567611 1_555
Ru0_1 Ru0_4 2.567611 1_555
Ru0_1 Ru0_4 2.567611 1_456
Ru0_1 Ru0_2 2.567611 1_546
Ru0_1 Ru0_7 2.567612 1_545
Ru0_1 Ru0_7 2.567612 1_455
Ru0_2 Ru0_7 2.567611 1_455
Ru0_2 Ru0_7 2.567611 1_554
Ru0_2 Ru0_4 2.567612 1_465
Ru0_2 Ru0_4 2.567612 1_555
Ru0_3 Ru0_6 2.567611 1_456
Ru0_3 Ru0_6 2.567611 1_555
Ru0_3 Ru0_5 2.567612 1_555
Ru0_3 Ru0_5 2.567612 1_465
Ru0_4 Ru0_7 2.567611 1_545
Ru0_4 Ru0_7 2.567611 1_554
Ru0_5 Ru0_6 2.567611 1_555
Ru0_5 Ru0_6 2.567611 1_546
