# generated using pymatgen
data_Mg14MnNb
_symmetry_space_group_name_H-M   'P 1'
_cell_length_a   6.31338073
_cell_length_b   6.31338023
_cell_length_c   9.97988998
_cell_angle_alpha   90.00000000
_cell_angle_beta   90.00000000
_cell_angle_gamma   120.00000265
_symmetry_Int_Tables_number   1
_chemical_formula_structural   Mg14MnNb
_chemical_formula_sum   'Mg14 Mn1 Nb1'
_cell_volume   344.49291960
_cell_formula_units_Z   1
loop_
 _symmetry_equiv_pos_site_id
 _symmetry_equiv_pos_as_xyz
  1  'x, y, z'
loop_
 _atom_site_type_symbol
 _atom_site_label
 _atom_site_symmetry_multiplicity
 _atom_site_fract_x
 _atom_site_fract_y
 _atom_site_fract_z
 _atom_site_occupancy
  Mg  Mg0  1  0.16662839  0.83331369  0.12500000  1
  Mg  Mg1  1  0.17015648  0.83507774  0.62500000  1
  Mg  Mg2  1  0.66668631  0.33337161  0.12500000  1
  Mg  Mg3  1  0.66492226  0.32984352  0.62500000  1
  Mg  Mg4  1  0.66668631  0.83331369  0.12500000  1
  Mg  Mg5  1  0.66492226  0.83507774  0.62500000  1
  Mg  Mg6  1  0.32741005  0.17258995  0.37560628  1
  Mg  Mg7  1  0.32741005  0.17258995  0.87439372  1
  Mg  Mg8  1  0.32741005  0.65482111  0.37560628  1
  Mg  Mg9  1  0.32741005  0.65482111  0.87439372  1
  Mg  Mg10  1  0.84517889  0.17258995  0.37560628  1
  Mg  Mg11  1  0.84517889  0.17258995  0.87439372  1
  Mg  Mg12  1  0.83333300  0.66666700  0.37655004  1
  Mg  Mg13  1  0.83333300  0.66666700  0.87344996  1
  Mn  Mn0  1  0.16666700  0.33333300  0.12500000  1
  Nb  Nb0  1  0.16666700  0.33333300  0.62500000  1
loop_
_geom_bond_atom_site_label_1
_geom_bond_atom_site_label_2
_geom_bond_distance
_geom_bond_site_symmetry_2
Mg0 Mg12 3.102116 1_455
Mg0 Mg13 3.102116 1_454
Mg0 Mg9 3.114364 1_554
Mg0 Mg8 3.114364 1_555
Mg0 Mg6 3.114370 1_565
Mg0 Mg7 3.114370 1_564
Mg0 Mg2 3.156324 1_455
Mg0 Mg4 3.156325 1_455
Mg0 Mn0 3.156690 1_555
Mg0 Mn0 3.156690 1_565
Mg0 Mg2 3.157056 1_565
Mg0 Mg4 3.157056 1_555
Mg1 Mg13 3.088595 1_455
Mg1 Mg12 3.088595 1_455
Mg1 Mg8 3.099247 1_555
Mg1 Mg9 3.099247 1_555
Mg1 Mg6 3.099254 1_565
Mg1 Mg7 3.099254 1_565
Mg1 Mg3 3.123644 1_565
Mg1 Mg5 3.123645 1_555
Mg1 Nb0 3.156748 1_555
Mg1 Nb0 3.156748 1_565
Mg1 Mg3 3.189736 1_455
Mg1 Mg5 3.189736 1_455
Mg2 Mg7 3.114370 1_554
Mg2 Mg6 3.114370 1_555
Mg2 Mg4 3.156324 1_555
Mg2 Mn0 3.156690 1_655
Mg2 Mn0 3.156690 1_555
Mg2 Mg4 3.157056 1_545
Mg3 Mg7 3.099254 1_555
Mg3 Mg6 3.099254 1_555
Mg3 Mg5 3.123644 1_545
Mg3 Nb0 3.156748 1_655
Mg3 Nb0 3.156748 1_555
Mg3 Mg5 3.189736 1_555
Mg4 Mg9 3.114370 1_554
Mg4 Mg8 3.114370 1_555
Mg4 Mn0 3.156690 1_665
Mg4 Mn0 3.156690 1_555
Mg5 Mg9 3.099254 1_555
Mg5 Mg8 3.099254 1_555
Mg5 Nb0 3.156748 1_555
Mg5 Nb0 3.156748 1_665
Mg6 Mg8 3.044509 1_555
Mg6 Nb0 3.047029 1_555
Mg6 Mn0 3.056921 1_555
Mg6 Mg8 3.268872 1_545
Mg7 Mg9 3.044509 1_555
Mg7 Nb0 3.047029 1_555
Mg7 Mn0 3.056921 1_556
Mg7 Mg9 3.268872 1_545
Mg8 Nb0 3.047035 1_555
Mg8 Mn0 3.056928 1_555
Mg9 Nb0 3.047035 1_555
Mg9 Mn0 3.056928 1_556
Mg10 Mg8 3.044509 1_655
Mg10 Mg6 3.044509 1_655
Mg10 Nb0 3.047035 1_655
Mg10 Mn0 3.056928 1_655
Mg10 Mg3 3.099247 1_555
Mg10 Mg5 3.099254 1_545
Mg10 Mg2 3.114364 1_555
Mg10 Mg4 3.114370 1_545
Mg10 Mg12 3.157369 1_555
Mg10 Mg12 3.157369 1_545
Mg10 Mg8 3.268872 1_545
Mg10 Mg6 3.268872 1_555
Mg11 Mg9 3.044509 1_655
Mg11 Mg7 3.044509 1_655
Mg11 Nb0 3.047035 1_655
Mg11 Mn0 3.056928 1_656
Mg11 Mg3 3.099247 1_555
Mg11 Mg5 3.099254 1_545
Mg11 Mg2 3.114364 1_556
Mg11 Mg4 3.114370 1_546
Mg11 Mg13 3.157369 1_555
Mg11 Mg13 3.157369 1_545
Mg11 Mg9 3.268872 1_545
Mg11 Mg7 3.268872 1_555
Mg12 Mg5 3.088589 1_555
Mg12 Mg3 3.088595 1_555
Mg12 Mg4 3.102110 1_555
Mg12 Mg2 3.102116 1_555
Mg12 Mg6 3.157369 1_665
Mg12 Mg6 3.157369 1_555
Mg12 Mg8 3.157369 1_655
Mg12 Mg8 3.157369 1_555
Mg13 Mg5 3.088589 1_555
Mg13 Mg3 3.088595 1_555
Mg13 Mg4 3.102110 1_556
Mg13 Mg2 3.102116 1_556
Mg13 Mg7 3.157369 1_665
Mg13 Mg7 3.157369 1_555
Mg13 Mg9 3.157369 1_655
Mg13 Mg9 3.157369 1_555
