# generated using pymatgen
data_LaCI
_symmetry_space_group_name_H-M   'P 1'
_cell_length_a   4.36004437
_cell_length_b   4.36004437
_cell_length_c   10.85700271
_cell_angle_alpha   86.86793070
_cell_angle_beta   86.86793070
_cell_angle_gamma   57.62836258
_symmetry_Int_Tables_number   1
_chemical_formula_structural   LaCI
_chemical_formula_sum   'La2 C2 I2'
_cell_volume   173.97756005
_cell_formula_units_Z   2
loop_
 _symmetry_equiv_pos_site_id
 _symmetry_equiv_pos_as_xyz
  1  'x, y, z'
loop_
 _atom_site_type_symbol
 _atom_site_label
 _atom_site_symmetry_multiplicity
 _atom_site_fract_x
 _atom_site_fract_y
 _atom_site_fract_z
 _atom_site_occupancy
  La  La0  1  0.85605300  0.85605300  0.13902500  1
  La  La1  1  0.14394700  0.14394700  0.86097500  1
  C  C0  1  0.57340700  0.57340700  0.02948100  1
  C  C1  1  0.42659300  0.42659300  0.97051900  1
  I  I0  1  0.82441100  0.82441100  0.65906000  1
  I  I1  1  0.17558900  0.17558900  0.34094000  1
loop_
_geom_bond_atom_site_label_1
_geom_bond_atom_site_label_2
_geom_bond_distance
_geom_bond_site_symmetry_2
C0 C1 1.325749 1_554
C0 La0 2.529507 1_555
C0 La1 2.816097 1_654
C0 La1 2.816097 1_564
C0 La0 2.888243 1_455
C0 La0 2.888243 1_545
C1 La1 2.529507 1_555
C1 La0 2.816097 1_546
C1 La0 2.816097 1_456
C1 La1 2.888243 1_565
C1 La1 2.888243 1_655
I0 La1 3.278082 1_655
I0 La1 3.278082 1_565
I0 La1 3.381359 1_665
I1 La0 3.278082 1_545
I1 La0 3.278082 1_455
I1 La0 3.381359 1_445
