# generated using pymatgen
data_SrMg14Fe
_symmetry_space_group_name_H-M   'P 1'
_cell_length_a   6.59955450
_cell_length_b   6.59955450
_cell_length_c   10.40687100
_cell_angle_alpha   90.00000000
_cell_angle_beta   90.00000000
_cell_angle_gamma   124.22303145
_symmetry_Int_Tables_number   1
_chemical_formula_structural   SrMg14Fe
_chemical_formula_sum   'Sr1 Mg14 Fe1'
_cell_volume   374.78183992
_cell_formula_units_Z   1
loop_
 _symmetry_equiv_pos_site_id
 _symmetry_equiv_pos_as_xyz
  1  'x, y, z'
loop_
 _atom_site_type_symbol
 _atom_site_label
 _atom_site_symmetry_multiplicity
 _atom_site_fract_x
 _atom_site_fract_y
 _atom_site_fract_z
 _atom_site_occupancy
  Sr  Sr0  1  0.31942700  0.68057300  0.50000000  1
  Mg  Mg0  1  0.82796800  0.17203200  0.00000000  1
  Mg  Mg1  1  0.33340600  0.66659400  0.00000000  1
  Mg  Mg2  1  0.31240700  0.17380000  0.50000000  1
  Mg  Mg3  1  0.33399900  0.17345400  0.00000000  1
  Mg  Mg4  1  0.82620000  0.68759300  0.50000000  1
  Mg  Mg5  1  0.82654600  0.66600100  0.00000000  1
  Mg  Mg6  1  0.16365400  0.32113400  0.24695900  1
  Mg  Mg7  1  0.16365400  0.32113400  0.75304100  1
  Mg  Mg8  1  0.67886600  0.83634600  0.24695900  1
  Mg  Mg9  1  0.67886600  0.83634600  0.75304100  1
  Mg  Mg10  1  0.67906400  0.32093600  0.27099900  1
  Mg  Mg11  1  0.67906400  0.32093600  0.72900100  1
  Mg  Mg12  1  0.16496100  0.83503900  0.23461100  1
  Mg  Mg13  1  0.16496100  0.83503900  0.76538900  1
  Fe  Fe0  1  0.84696500  0.15303500  0.50000000  1
loop_
_geom_bond_atom_site_label_1
_geom_bond_atom_site_label_2
_geom_bond_distance
_geom_bond_site_symmetry_2
Mg0 Mg1 3.087608 1_545
Mg0 Mg1 3.087608 1_655
Mg0 Mg8 3.166916 1_545
Mg0 Mg6 3.166916 1_655
Mg0 Mg9 3.166916 1_544
Mg0 Mg7 3.166916 1_654
Mg0 Mg5 3.265263 1_555
Mg0 Mg3 3.265263 1_555
Mg0 Mg11 3.312321 1_554
Mg0 Mg10 3.312321 1_555
Mg0 Mg3 3.334310 1_655
Mg0 Mg5 3.334310 1_545
Mg1 Mg12 3.134149 1_555
Mg1 Mg13 3.134149 1_554
Mg1 Mg8 3.191428 1_555
Mg1 Mg6 3.191428 1_555
Mg1 Mg9 3.191428 1_554
Mg1 Mg7 3.191428 1_554
Mg1 Mg3 3.256707 1_555
Mg1 Mg5 3.256707 1_555
Mg1 Mg5 3.342851 1_455
Mg1 Mg3 3.342851 1_565
Mg2 Mg4 3.001799 1_445
Mg2 Mg6 3.149207 1_555
Mg2 Mg7 3.149207 1_555
Mg2 Mg4 3.172113 1_555
Mg2 Sr0 3.281358 1_545
Mg2 Sr0 3.318641 1_555
Mg3 Mg5 3.040942 1_555
Mg3 Mg5 3.132970 1_445
Mg3 Mg6 3.170398 1_555
Mg3 Mg7 3.170398 1_554
Mg4 Mg8 3.149207 1_555
Mg4 Mg9 3.149207 1_555
Mg4 Sr0 3.281358 1_655
Mg4 Sr0 3.318641 1_555
Mg5 Mg8 3.170398 1_555
Mg5 Mg9 3.170398 1_554
Mg6 Mg8 2.993038 1_445
Mg6 Mg8 3.180874 1_555
Mg6 Sr0 3.297794 1_555
Mg7 Mg9 2.993038 1_445
Mg7 Mg9 3.180874 1_555
Mg7 Sr0 3.297794 1_555
Mg8 Sr0 3.297794 1_555
Mg9 Sr0 3.297794 1_555
Mg10 Mg12 3.114445 1_655
Mg10 Mg12 3.114445 1_545
Mg10 Mg4 3.136045 1_555
Mg10 Mg2 3.136045 1_555
Mg10 Mg6 3.207116 1_655
Mg10 Mg8 3.207116 1_545
Mg10 Mg5 3.404989 1_555
Mg10 Mg3 3.404989 1_555
Mg10 Mg6 3.411398 1_555
Mg10 Mg8 3.411398 1_555
Mg11 Mg13 3.114445 1_655
Mg11 Mg13 3.114445 1_545
Mg11 Mg4 3.136045 1_555
Mg11 Mg2 3.136045 1_555
Mg11 Mg7 3.207116 1_655
Mg11 Mg9 3.207116 1_545
Mg11 Mg5 3.404989 1_556
Mg11 Mg3 3.404989 1_556
Mg11 Mg9 3.411398 1_555
Mg11 Mg7 3.411398 1_555
Mg12 Mg5 3.064514 1_455
Mg12 Mg3 3.064514 1_565
Mg12 Mg6 3.215438 1_565
Mg12 Mg8 3.215438 1_455
Mg12 Sr0 3.297759 1_555
Mg12 Mg4 3.335563 1_455
Mg12 Mg2 3.335563 1_565
Mg12 Mg8 3.389137 1_555
Mg12 Mg6 3.389137 1_555
Mg13 Mg5 3.064514 1_456
Mg13 Mg3 3.064514 1_566
Mg13 Mg7 3.215438 1_565
Mg13 Mg9 3.215438 1_455
Mg13 Sr0 3.297759 1_555
Mg13 Mg4 3.335563 1_455
Mg13 Mg2 3.335563 1_565
Mg13 Mg9 3.389137 1_555
Mg13 Mg7 3.389137 1_555
Fe0 Mg2 2.996780 1_655
Fe0 Mg4 2.996780 1_545
Fe0 Mg10 3.084851 1_555
Fe0 Mg11 3.084851 1_555
Fe0 Sr0 3.103628 1_655
Fe0 Sr0 3.103628 1_545
Fe0 Mg8 3.150463 1_545
Fe0 Mg7 3.150463 1_655
Fe0 Mg9 3.150463 1_545
Fe0 Mg6 3.150463 1_655
Fe0 Mg4 3.606698 1_555
Fe0 Mg2 3.606698 1_555
