# generated using pymatgen
data_Ti2NiPd
_symmetry_space_group_name_H-M   'P 1'
_cell_length_a   5.54858400
_cell_length_b   8.90811200
_cell_length_c   9.55076400
_cell_angle_alpha   90.00000000
_cell_angle_beta   90.00000000
_cell_angle_gamma   90.00000000
_symmetry_Int_Tables_number   1
_chemical_formula_structural   Ti2NiPd
_chemical_formula_sum   'Ti16 Ni8 Pd8'
_cell_volume   472.06950620
_cell_formula_units_Z   8
loop_
 _symmetry_equiv_pos_site_id
 _symmetry_equiv_pos_as_xyz
  1  'x, y, z'
loop_
 _atom_site_type_symbol
 _atom_site_label
 _atom_site_symmetry_multiplicity
 _atom_site_fract_x
 _atom_site_fract_y
 _atom_site_fract_z
 _atom_site_occupancy
  Ti  Ti0_0  1  0.00000000  0.25000000  0.39667600  1
  Ti  Ti0_1  1  0.00000000  0.25000000  0.89667600  1
  Ti  Ti0_2  1  0.00000000  0.75000000  0.39667600  1
  Ti  Ti0_3  1  0.00000000  0.75000000  0.89667600  1
  Ti  Ti0_4  1  0.50000000  0.25000000  0.39667600  1
  Ti  Ti0_5  1  0.50000000  0.25000000  0.89667600  1
  Ti  Ti0_6  1  0.50000000  0.75000000  0.39667600  1
  Ti  Ti0_7  1  0.50000000  0.75000000  0.89667600  1
  Ti  Ti1_0  1  0.00000000  0.00000000  0.10535300  1
  Ti  Ti1_1  1  0.00000000  0.00000000  0.60535300  1
  Ti  Ti1_2  1  0.00000000  0.50000000  0.10535300  1
  Ti  Ti1_3  1  0.00000000  0.50000000  0.60535300  1
  Ti  Ti1_4  1  0.50000000  0.00000000  0.10535300  1
  Ti  Ti1_5  1  0.50000000  0.00000000  0.60535300  1
  Ti  Ti1_6  1  0.50000000  0.50000000  0.10535300  1
  Ti  Ti1_7  1  0.50000000  0.50000000  0.60535300  1
  Ni  Ni0_0  1  0.25000000  0.25000000  0.15470900  1
  Ni  Ni0_1  1  0.25000000  0.25000000  0.65470900  1
  Ni  Ni0_2  1  0.25000000  0.75000000  0.15470900  1
  Ni  Ni0_3  1  0.25000000  0.75000000  0.65470900  1
  Ni  Ni0_4  1  0.75000000  0.25000000  0.15470900  1
  Ni  Ni0_5  1  0.75000000  0.25000000  0.65470900  1
  Ni  Ni0_6  1  0.75000000  0.75000000  0.15470900  1
  Ni  Ni0_7  1  0.75000000  0.75000000  0.65470900  1
  Pd  Pd0_0  1  0.25000000  0.00000000  0.34326150  1
  Pd  Pd0_1  1  0.25000000  0.00000000  0.84326150  1
  Pd  Pd0_2  1  0.25000000  0.50000000  0.34326150  1
  Pd  Pd0_3  1  0.25000000  0.50000000  0.84326150  1
  Pd  Pd0_4  1  0.75000000  0.00000000  0.34326150  1
  Pd  Pd0_5  1  0.75000000  0.00000000  0.84326150  1
  Pd  Pd0_6  1  0.75000000  0.50000000  0.34326150  1
  Pd  Pd0_7  1  0.75000000  0.50000000  0.84326150  1
loop_
_geom_bond_atom_site_label_1
_geom_bond_atom_site_label_2
_geom_bond_distance
_geom_bond_site_symmetry_2
Ni0_0 Ti1_4 2.665715 1_555
Ni0_0 Ti1_0 2.665715 1_555
Ni0_0 Ti1_2 2.665715 1_555
Ni0_0 Ti1_6 2.665715 1_555
Ni0_0 Ti0_0 2.695321 1_555
Ni0_0 Ti0_4 2.695321 1_555
Ni0_0 Ni0_4 2.774292 1_455
Ni0_0 Ni0_4 2.774292 1_555
Ni0_0 Ti0_5 2.827985 1_554
Ni0_0 Ti0_1 2.827985 1_554
Ni0_0 Pd0_2 2.864020 1_555
Ni0_0 Pd0_0 2.864020 1_555
Ni0_1 Ti1_5 2.665715 1_555
Ni0_1 Ti1_3 2.665715 1_555
Ni0_1 Ti1_7 2.665715 1_555
Ni0_1 Ti1_1 2.665715 1_555
Ni0_1 Ti0_5 2.695321 1_555
Ni0_1 Ti0_1 2.695321 1_555
Ni0_1 Ni0_5 2.774292 1_455
Ni0_1 Ni0_5 2.774292 1_555
Ni0_1 Ti0_0 2.827985 1_555
Ni0_1 Ti0_4 2.827985 1_555
Ni0_1 Pd0_3 2.864020 1_555
Ni0_1 Pd0_1 2.864020 1_555
Ni0_2 Ti1_0 2.665715 1_565
Ni0_2 Ti1_2 2.665715 1_555
Ni0_2 Ti1_6 2.665715 1_555
Ni0_2 Ti1_4 2.665715 1_565
Ni0_2 Ti0_6 2.695321 1_555
Ni0_2 Ti0_2 2.695321 1_555
Ni0_2 Ni0_6 2.774292 1_455
Ni0_2 Ni0_6 2.774292 1_555
Ni0_2 Ti0_3 2.827985 1_554
Ni0_2 Ti0_7 2.827985 1_554
Ni0_2 Pd0_2 2.864020 1_555
Ni0_2 Pd0_0 2.864020 1_565
Ni0_3 Ti1_5 2.665715 1_565
Ni0_3 Ti1_1 2.665715 1_565
Ni0_3 Ti1_3 2.665715 1_555
Ni0_3 Ti1_7 2.665715 1_555
Ni0_3 Ti0_3 2.695321 1_555
Ni0_3 Ti0_7 2.695321 1_555
Ni0_3 Ni0_7 2.774292 1_455
Ni0_3 Ni0_7 2.774292 1_555
Ni0_3 Ti0_6 2.827985 1_555
Ni0_3 Ti0_2 2.827985 1_555
Ni0_3 Pd0_3 2.864020 1_555
Ni0_3 Pd0_1 2.864020 1_565
Ni0_4 Ti1_2 2.665715 1_655
Ni0_4 Ti1_0 2.665715 1_655
Ni0_4 Ti1_4 2.665715 1_555
Ni0_4 Ti1_6 2.665715 1_555
Ni0_4 Ti0_0 2.695321 1_655
Ni0_4 Ti0_4 2.695321 1_555
Ni0_4 Ti0_1 2.827985 1_654
Ni0_4 Ti0_5 2.827985 1_554
Ni0_4 Pd0_6 2.864020 1_555
Ni0_4 Pd0_4 2.864020 1_555
Ni0_5 Ti1_1 2.665715 1_655
Ni0_5 Ti1_3 2.665715 1_655
Ni0_5 Ti1_7 2.665715 1_555
Ni0_5 Ti1_5 2.665715 1_555
Ni0_5 Ti0_1 2.695321 1_655
Ni0_5 Ti0_5 2.695321 1_555
Ni0_5 Ti0_0 2.827985 1_655
Ni0_5 Ti0_4 2.827985 1_555
Ni0_5 Pd0_5 2.864020 1_555
Ni0_5 Pd0_7 2.864020 1_555
Ni0_6 Ti1_2 2.665715 1_655
Ni0_6 Ti1_0 2.665715 1_665
Ni0_6 Ti1_6 2.665715 1_555
Ni0_6 Ti1_4 2.665715 1_565
Ni0_6 Ti0_2 2.695321 1_655
Ni0_6 Ti0_6 2.695321 1_555
Ni0_6 Ti0_3 2.827985 1_654
Ni0_6 Ti0_7 2.827985 1_554
Ni0_6 Pd0_6 2.864020 1_555
Ni0_6 Pd0_4 2.864020 1_565
Ni0_7 Ti1_1 2.665715 1_665
Ni0_7 Ti1_3 2.665715 1_655
Ni0_7 Ti1_7 2.665715 1_555
Ni0_7 Ti1_5 2.665715 1_565
Ni0_7 Ti0_3 2.695321 1_655
Ni0_7 Ti0_7 2.695321 1_555
Ni0_7 Ti0_2 2.827985 1_655
Ni0_7 Ti0_6 2.827985 1_555
Ni0_7 Pd0_5 2.864020 1_565
Ni0_7 Pd0_7 2.864020 1_555
Pd0_0 Ti1_0 2.662161 1_555
Pd0_0 Ti1_4 2.662161 1_555
Pd0_0 Ti0_2 2.672841 1_545
Pd0_0 Ti0_0 2.672841 1_555
Pd0_0 Ti0_4 2.672841 1_555
Pd0_0 Ti0_6 2.672841 1_545
Pd0_0 Pd0_4 2.774292 1_455
Pd0_0 Pd0_4 2.774292 1_555
Pd0_0 Ti1_5 2.861827 1_555
Pd0_0 Ti1_1 2.861827 1_555
Pd0_1 Ti1_1 2.662161 1_555
Pd0_1 Ti1_5 2.662161 1_555
Pd0_1 Ti0_3 2.672841 1_545
Pd0_1 Ti0_1 2.672841 1_555
Pd0_1 Ti0_7 2.672841 1_545
Pd0_1 Ti0_5 2.672841 1_555
Pd0_1 Pd0_5 2.774292 1_455
Pd0_1 Pd0_5 2.774292 1_555
Pd0_1 Ti1_0 2.861827 1_556
Pd0_1 Ti1_4 2.861827 1_556
Pd0_2 Ti1_2 2.662161 1_555
Pd0_2 Ti1_6 2.662161 1_555
Pd0_2 Ti0_2 2.672841 1_555
Pd0_2 Ti0_0 2.672841 1_555
Pd0_2 Ti0_6 2.672841 1_555
Pd0_2 Ti0_4 2.672841 1_555
Pd0_2 Pd0_6 2.774292 1_455
Pd0_2 Pd0_6 2.774292 1_555
Pd0_2 Ti1_3 2.861827 1_555
Pd0_2 Ti1_7 2.861827 1_555
Pd0_3 Ti1_3 2.662161 1_555
Pd0_3 Ti1_7 2.662161 1_555
Pd0_3 Ti0_3 2.672841 1_555
Pd0_3 Ti0_7 2.672841 1_555
Pd0_3 Ti0_1 2.672841 1_555
Pd0_3 Ti0_5 2.672841 1_555
Pd0_3 Pd0_7 2.774292 1_455
Pd0_3 Pd0_7 2.774292 1_555
Pd0_3 Ti1_2 2.861827 1_556
Pd0_3 Ti1_6 2.861827 1_556
Pd0_4 Ti1_0 2.662161 1_655
Pd0_4 Ti1_4 2.662161 1_555
Pd0_4 Ti0_0 2.672841 1_655
Pd0_4 Ti0_2 2.672841 1_645
Pd0_4 Ti0_4 2.672841 1_555
Pd0_4 Ti0_6 2.672841 1_545
Pd0_4 Ti1_1 2.861827 1_655
Pd0_4 Ti1_5 2.861827 1_555
Pd0_5 Ti1_1 2.662161 1_655
Pd0_5 Ti1_5 2.662161 1_555
Pd0_5 Ti0_1 2.672841 1_655
Pd0_5 Ti0_3 2.672841 1_645
Pd0_5 Ti0_7 2.672841 1_545
Pd0_5 Ti0_5 2.672841 1_555
Pd0_5 Ti1_0 2.861827 1_656
Pd0_5 Ti1_4 2.861827 1_556
Pd0_6 Ti1_2 2.662161 1_655
Pd0_6 Ti1_6 2.662161 1_555
Pd0_6 Ti0_2 2.672841 1_655
Pd0_6 Ti0_0 2.672841 1_655
Pd0_6 Ti0_4 2.672841 1_555
Pd0_6 Ti0_6 2.672841 1_555
Pd0_6 Ti1_3 2.861827 1_655
Pd0_6 Ti1_7 2.861827 1_555
Pd0_7 Ti1_3 2.662161 1_655
Pd0_7 Ti1_7 2.662161 1_555
Pd0_7 Ti0_1 2.672841 1_655
Pd0_7 Ti0_3 2.672841 1_655
Pd0_7 Ti0_7 2.672841 1_555
Pd0_7 Ti0_5 2.672841 1_555
Pd0_7 Ti1_2 2.861827 1_656
Pd0_7 Ti1_6 2.861827 1_556
