# generated using pymatgen
data_CeMg3
_symmetry_space_group_name_H-M   'P 1'
_cell_length_a   13.34313932
_cell_length_b   13.34313932
_cell_length_c   13.34313932
_cell_angle_alpha   152.41622859
_cell_angle_beta   126.55316023
_cell_angle_gamma   61.19022732
_symmetry_Int_Tables_number   1
_chemical_formula_structural   CeMg3
_chemical_formula_sum   'Ce8 Mg24'
_cell_volume   876.87027259
_cell_formula_units_Z   8
loop_
 _symmetry_equiv_pos_site_id
 _symmetry_equiv_pos_as_xyz
  1  'x, y, z'
loop_
 _atom_site_type_symbol
 _atom_site_label
 _atom_site_symmetry_multiplicity
 _atom_site_fract_x
 _atom_site_fract_y
 _atom_site_fract_z
 _atom_site_occupancy
  Ce  Ce0_0  1  0.16839250  0.00000000  0.16839250  1
  Ce  Ce0_1  1  0.16839250  0.00000000  0.66839250  1
  Ce  Ce0_2  1  0.16839250  0.50000000  0.16839250  1
  Ce  Ce0_3  1  0.16839250  0.50000000  0.66839250  1
  Ce  Ce0_4  1  0.66839250  0.00000000  0.16839250  1
  Ce  Ce0_5  1  0.66839250  0.00000000  0.66839250  1
  Ce  Ce0_6  1  0.66839250  0.50000000  0.16839250  1
  Ce  Ce0_7  1  0.66839250  0.50000000  0.66839250  1
  Mg  Mg0_0  1  0.41653100  0.25000000  0.16653100  1
  Mg  Mg0_1  1  0.41653100  0.25000000  0.66653100  1
  Mg  Mg0_2  1  0.41653100  0.75000000  0.16653100  1
  Mg  Mg0_3  1  0.41653100  0.75000000  0.66653100  1
  Mg  Mg0_4  1  0.91653100  0.25000000  0.16653100  1
  Mg  Mg0_5  1  0.91653100  0.25000000  0.66653100  1
  Mg  Mg0_6  1  0.91653100  0.75000000  0.16653100  1
  Mg  Mg0_7  1  0.91653100  0.75000000  0.66653100  1
  Mg  Mg1_0  1  0.12130600  0.12210150  0.49920450  1
  Mg  Mg1_1  1  0.12130600  0.12210150  0.99920450  1
  Mg  Mg1_2  1  0.12130600  0.62210150  0.49920450  1
  Mg  Mg1_3  1  0.12130600  0.62210150  0.99920450  1
  Mg  Mg1_4  1  0.62130600  0.12210150  0.49920450  1
  Mg  Mg1_5  1  0.62130600  0.12210150  0.99920450  1
  Mg  Mg1_6  1  0.62130600  0.62210150  0.49920450  1
  Mg  Mg1_7  1  0.62130600  0.62210150  0.99920450  1
  Mg  Mg2_0  1  0.37710300  0.37789850  0.49920450  1
  Mg  Mg2_1  1  0.37710300  0.37789850  0.99920450  1
  Mg  Mg2_2  1  0.37710300  0.87789850  0.49920450  1
  Mg  Mg2_3  1  0.37710300  0.87789850  0.99920450  1
  Mg  Mg2_4  1  0.87710300  0.37789850  0.49920450  1
  Mg  Mg2_5  1  0.87710300  0.37789850  0.99920450  1
  Mg  Mg2_6  1  0.87710300  0.87789850  0.49920450  1
  Mg  Mg2_7  1  0.87710300  0.87789850  0.99920450  1
loop_
_geom_bond_atom_site_label_1
_geom_bond_atom_site_label_2
_geom_bond_distance
_geom_bond_site_symmetry_2
Ce0_0 Ce0_3 3.180950 1_555
Ce0_0 Ce0_3 3.180950 1_544
Ce0_0 Mg0_1 3.375895 1_555
Ce0_0 Mg0_2 3.375895 1_545
Ce0_0 Mg0_4 3.415368 1_455
Ce0_0 Mg0_7 3.415368 1_444
Ce0_0 Mg2_7 3.462541 1_444
Ce0_0 Mg1_1 3.462541 1_554
Ce0_0 Mg1_0 3.478762 1_555
Ce0_0 Mg2_3 3.478762 1_544
Ce0_0 Mg2_0 3.478762 1_555
Ce0_0 Mg1_3 3.478762 1_544
Ce0_1 Ce0_2 3.180950 1_556
Ce0_1 Ce0_2 3.180950 1_545
Ce0_1 Mg0_0 3.375895 1_556
Ce0_1 Mg0_3 3.375895 1_545
Ce0_1 Mg0_6 3.415368 1_445
Ce0_1 Mg0_5 3.415368 1_455
Ce0_1 Mg2_6 3.462541 1_445
Ce0_1 Mg1_0 3.462541 1_555
Ce0_1 Mg1_1 3.478762 1_555
Ce0_1 Mg1_2 3.478762 1_545
Ce0_1 Mg2_1 3.478762 1_555
Ce0_1 Mg2_2 3.478762 1_545
Ce0_2 Mg0_0 3.375895 1_555
Ce0_2 Mg0_3 3.375895 1_555
Ce0_2 Mg0_6 3.415368 1_455
Ce0_2 Mg0_5 3.415368 1_454
Ce0_2 Mg1_3 3.462541 1_554
Ce0_2 Mg2_5 3.462541 1_454
Ce0_2 Mg1_1 3.478762 1_554
Ce0_2 Mg1_2 3.478762 1_555
Ce0_2 Mg2_1 3.478762 1_554
Ce0_2 Mg2_2 3.478762 1_555
Ce0_3 Mg0_2 3.375895 1_556
Ce0_3 Mg0_1 3.375895 1_555
Ce0_3 Mg0_4 3.415368 1_455
Ce0_3 Mg0_7 3.415368 1_455
Ce0_3 Mg2_4 3.462541 1_455
Ce0_3 Mg1_2 3.462541 1_555
Ce0_3 Mg1_3 3.478762 1_555
Ce0_3 Mg1_0 3.478762 1_555
Ce0_3 Mg2_3 3.478762 1_555
Ce0_3 Mg2_0 3.478762 1_555
Ce0_4 Ce0_7 3.180950 1_555
Ce0_4 Ce0_7 3.180950 1_544
Ce0_4 Mg0_5 3.375895 1_555
Ce0_4 Mg0_6 3.375895 1_545
Ce0_4 Mg0_0 3.415368 1_555
Ce0_4 Mg0_3 3.415368 1_544
Ce0_4 Mg2_3 3.462541 1_544
Ce0_4 Mg1_5 3.462541 1_554
Ce0_4 Mg1_7 3.478762 1_544
Ce0_4 Mg1_4 3.478762 1_555
Ce0_4 Mg2_4 3.478762 1_555
Ce0_4 Mg2_7 3.478762 1_544
Ce0_5 Ce0_6 3.180950 1_556
Ce0_5 Ce0_6 3.180950 1_545
Ce0_5 Mg0_4 3.375895 1_556
Ce0_5 Mg0_7 3.375895 1_545
Ce0_5 Mg0_1 3.415368 1_555
Ce0_5 Mg0_2 3.415368 1_545
Ce0_5 Mg2_2 3.462541 1_545
Ce0_5 Mg1_4 3.462541 1_555
Ce0_5 Mg1_6 3.478762 1_545
Ce0_5 Mg1_5 3.478762 1_555
Ce0_5 Mg2_5 3.478762 1_555
Ce0_5 Mg2_6 3.478762 1_545
Ce0_6 Mg0_7 3.375895 1_555
Ce0_6 Mg0_4 3.375895 1_555
Ce0_6 Mg0_1 3.415368 1_554
Ce0_6 Mg0_2 3.415368 1_555
Ce0_6 Mg2_1 3.462541 1_554
Ce0_6 Mg1_7 3.462541 1_554
Ce0_6 Mg1_6 3.478762 1_555
Ce0_6 Mg1_5 3.478762 1_554
Ce0_6 Mg2_5 3.478762 1_554
Ce0_6 Mg2_6 3.478762 1_555
Ce0_7 Mg0_6 3.375895 1_556
Ce0_7 Mg0_5 3.375895 1_555
Ce0_7 Mg0_0 3.415368 1_555
Ce0_7 Mg0_3 3.415368 1_555
Ce0_7 Mg2_0 3.462541 1_555
Ce0_7 Mg1_6 3.462541 1_555
Ce0_7 Mg1_7 3.478762 1_555
Ce0_7 Mg1_4 3.478762 1_555
Ce0_7 Mg2_4 3.478762 1_555
Ce0_7 Mg2_7 3.478762 1_555
Mg0_0 Mg0_3 3.180950 1_555
Mg0_0 Mg0_3 3.180950 1_544
Mg0_0 Mg2_0 3.373556 1_555
Mg0_0 Mg2_3 3.373556 1_544
Mg0_0 Mg1_5 3.373556 1_554
Mg0_0 Mg1_6 3.373556 1_555
Mg0_1 Mg0_2 3.180950 1_545
Mg0_1 Mg0_2 3.180950 1_556
Mg0_1 Mg2_1 3.373556 1_555
Mg0_1 Mg2_2 3.373556 1_545
Mg0_1 Mg1_7 3.373556 1_555
Mg0_1 Mg1_4 3.373556 1_555
Mg0_2 Mg2_2 3.373556 1_555
Mg0_2 Mg2_1 3.373556 1_554
Mg0_2 Mg1_7 3.373556 1_554
Mg0_2 Mg1_4 3.373556 1_565
Mg0_3 Mg1_5 3.373556 1_565
Mg0_3 Mg2_0 3.373556 1_555
Mg0_3 Mg1_6 3.373556 1_555
Mg0_3 Mg2_3 3.373556 1_555
Mg0_4 Mg0_7 3.180950 1_544
Mg0_4 Mg0_7 3.180950 1_555
Mg0_4 Mg2_4 3.373556 1_555
Mg0_4 Mg2_7 3.373556 1_544
Mg0_4 Mg1_1 3.373556 1_654
Mg0_4 Mg1_2 3.373556 1_655
Mg0_5 Mg0_6 3.180950 1_545
Mg0_5 Mg0_6 3.180950 1_556
Mg0_5 Mg2_6 3.373556 1_545
Mg0_5 Mg1_0 3.373556 1_655
Mg0_5 Mg2_5 3.373556 1_555
Mg0_5 Mg1_3 3.373556 1_655
Mg0_6 Mg2_6 3.373556 1_555
Mg0_6 Mg1_0 3.373556 1_665
Mg0_6 Mg2_5 3.373556 1_554
Mg0_6 Mg1_3 3.373556 1_654
Mg0_7 Mg2_7 3.373556 1_555
Mg0_7 Mg1_1 3.373556 1_665
Mg0_7 Mg2_4 3.373556 1_555
Mg0_7 Mg1_2 3.373556 1_655
Mg1_0 Mg1_3 3.180950 1_555
Mg1_0 Mg1_3 3.180950 1_544
Mg1_0 Mg2_7 3.398226 1_444
Mg1_0 Mg2_1 3.398226 1_555
Mg1_0 Mg2_4 3.398226 1_455
Mg1_0 Mg2_2 3.398226 1_545
Mg1_1 Mg1_2 3.180950 1_545
Mg1_1 Mg1_2 3.180950 1_556
Mg1_1 Mg2_5 3.398226 1_455
Mg1_1 Mg2_6 3.398226 1_445
Mg1_1 Mg2_0 3.398226 1_556
Mg1_1 Mg2_3 3.398226 1_545
Mg1_2 Mg2_5 3.398226 1_454
Mg1_2 Mg2_3 3.398226 1_555
Mg1_2 Mg2_0 3.398226 1_555
Mg1_2 Mg2_6 3.398226 1_455
Mg1_3 Mg2_1 3.398226 1_555
Mg1_3 Mg2_2 3.398226 1_556
Mg1_3 Mg2_4 3.398226 1_455
Mg1_3 Mg2_7 3.398226 1_455
Mg1_4 Mg1_7 3.180950 1_555
Mg1_4 Mg1_7 3.180950 1_544
Mg1_4 Mg2_3 3.398226 1_544
Mg1_4 Mg2_6 3.398226 1_545
Mg1_4 Mg2_5 3.398226 1_555
Mg1_4 Mg2_0 3.398226 1_555
Mg1_5 Mg1_6 3.180950 1_545
Mg1_5 Mg1_6 3.180950 1_556
Mg1_5 Mg2_7 3.398226 1_545
Mg1_5 Mg2_4 3.398226 1_556
Mg1_5 Mg2_2 3.398226 1_545
Mg1_5 Mg2_1 3.398226 1_555
Mg1_6 Mg2_2 3.398226 1_555
Mg1_6 Mg2_1 3.398226 1_554
Mg1_6 Mg2_7 3.398226 1_555
Mg1_6 Mg2_4 3.398226 1_555
Mg1_7 Mg2_0 3.398226 1_555
Mg1_7 Mg2_3 3.398226 1_555
Mg1_7 Mg2_6 3.398226 1_556
Mg1_7 Mg2_5 3.398226 1_555
Mg2_0 Mg2_3 3.180950 1_544
Mg2_0 Mg2_3 3.180950 1_555
Mg2_1 Mg2_2 3.180950 1_545
Mg2_1 Mg2_2 3.180950 1_556
Mg2_4 Mg2_7 3.180950 1_544
Mg2_4 Mg2_7 3.180950 1_555
Mg2_5 Mg2_6 3.180950 1_545
Mg2_5 Mg2_6 3.180950 1_556
