# generated using pymatgen
data_MgFeP2O7
_symmetry_space_group_name_H-M   'P 1'
_cell_length_a   8.49339500
_cell_length_b   7.07796000
_cell_length_c   9.21455913
_cell_angle_alpha   67.33010484
_cell_angle_beta   90.00000000
_cell_angle_gamma   90.00000000
_symmetry_Int_Tables_number   1
_chemical_formula_structural   MgFeP2O7
_chemical_formula_sum   'Mg4 Fe4 P8 O28'
_cell_volume   511.14448268
_cell_formula_units_Z   4
loop_
 _symmetry_equiv_pos_site_id
 _symmetry_equiv_pos_as_xyz
  1  'x, y, z'
loop_
 _atom_site_type_symbol
 _atom_site_label
 _atom_site_symmetry_multiplicity
 _atom_site_fract_x
 _atom_site_fract_y
 _atom_site_fract_z
 _atom_site_occupancy
  Mg  Mg0  1  0.93997600  0.69531400  0.18118800  1
  Mg  Mg1  1  0.43997600  0.30468600  0.31881200  1
  Mg  Mg2  1  0.56002400  0.69531400  0.68118800  1
  Mg  Mg3  1  0.06002400  0.30468600  0.81881200  1
  Fe  Fe0  1  0.06877600  0.23371000  0.39142200  1
  Fe  Fe1  1  0.93122400  0.76629000  0.60857800  1
  Fe  Fe2  1  0.56877600  0.76629000  0.10857800  1
  Fe  Fe3  1  0.43122400  0.23371000  0.89142200  1
  P  P0  1  0.73524200  0.06148500  0.75762200  1
  P  P1  1  0.22570600  0.53259300  0.03150100  1
  P  P2  1  0.76475800  0.06148500  0.25762200  1
  P  P3  1  0.27429400  0.53259300  0.53150100  1
  P  P4  1  0.23524200  0.93851500  0.74237800  1
  P  P5  1  0.72570600  0.46740700  0.46849900  1
  P  P6  1  0.77429400  0.46740700  0.96849900  1
  P  P7  1  0.26475800  0.93851500  0.24237800  1
  O  O0  1  0.17673900  0.74968200  0.90008500  1
  O  O1  1  0.60879100  0.11391500  0.31058600  1
  O  O2  1  0.89120900  0.11391500  0.81058600  1
  O  O3  1  0.38739200  0.54720700  0.10367900  1
  O  O4  1  0.82326100  0.25031800  0.09991500  1
  O  O5  1  0.10092800  0.96966600  0.62279200  1
  O  O6  1  0.61260800  0.45279300  0.89632100  1
  O  O7  1  0.09151600  0.49001200  0.15091400  1
  O  O8  1  0.26797000  0.37747200  0.45123800  1
  O  O9  1  0.89907200  0.03033400  0.37720800  1
  O  O10  1  0.39907200  0.96966600  0.12279200  1
  O  O11  1  0.76086500  0.88016900  0.20404900  1
  O  O12  1  0.26086500  0.11983100  0.29595100  1
  O  O13  1  0.32326100  0.74968200  0.40008500  1
  O  O14  1  0.60092800  0.03033400  0.87720800  1
  O  O15  1  0.10879100  0.88608500  0.18941400  1
  O  O16  1  0.23913500  0.11983100  0.79595100  1
  O  O17  1  0.90848400  0.50998800  0.84908600  1
  O  O18  1  0.23203000  0.37747200  0.95123800  1
  O  O19  1  0.76797000  0.62252800  0.04876200  1
  O  O20  1  0.88739200  0.45279300  0.39632100  1
  O  O21  1  0.40848400  0.49001200  0.65091400  1
  O  O22  1  0.59151600  0.50998800  0.34908600  1
  O  O23  1  0.39120900  0.88608500  0.68941400  1
  O  O24  1  0.73913500  0.88016900  0.70404900  1
  O  O25  1  0.11260800  0.54720700  0.60367900  1
  O  O26  1  0.73203000  0.62252800  0.54876200  1
  O  O27  1  0.67673900  0.25031800  0.59991500  1
loop_
_geom_bond_atom_site_label_1
_geom_bond_atom_site_label_2
_geom_bond_distance
_geom_bond_site_symmetry_2
Mg0 O15 1.990901 1_655
Mg0 O7 2.039227 1_655
Mg0 O11 2.069533 1_555
Mg0 O19 2.091236 1_555
Mg0 O20 2.110147 1_555
Mg1 O1 1.990901 1_555
Mg1 O22 2.039227 1_555
Mg1 O12 2.069533 1_555
Mg1 O8 2.091236 1_555
Mg1 O3 2.110147 1_555
Mg2 O23 1.990901 1_555
Mg2 O21 2.039227 1_555
Mg2 O24 2.069533 1_555
Mg2 O26 2.091236 1_555
Mg2 O6 2.110147 1_555
Mg3 O2 1.990901 1_455
Mg3 O17 2.039227 1_455
Mg3 O16 2.069533 1_555
Mg3 O18 2.091236 1_555
Mg3 O25 2.110147 1_555
Fe0 O9 2.076569 1_455
Fe0 O12 2.152195 1_555
Fe0 O8 2.152629 1_555
Fe0 O20 2.198611 1_455
Fe0 O5 2.245278 1_545
Fe0 O7 2.267293 1_555
Fe1 O5 2.076569 1_655
Fe1 O24 2.152195 1_555
Fe1 O26 2.152629 1_555
Fe1 O25 2.198611 1_655
Fe1 O9 2.245278 1_565
Fe1 O17 2.267293 1_555
Fe2 O10 2.076569 1_555
Fe2 O11 2.152195 1_555
Fe2 O19 2.152629 1_555
Fe2 O3 2.198611 1_555
Fe2 O14 2.245278 1_564
Fe2 O22 2.267293 1_555
Fe3 O14 2.076569 1_555
Fe3 O16 2.152195 1_555
Fe3 O18 2.152629 1_555
Fe3 O6 2.198611 1_555
Fe3 O10 2.245278 1_546
Fe3 O21 2.267293 1_555
O0 P1 1.601887 1_556
O0 P4 1.627228 1_555
O1 P2 1.506753 1_555
O2 P0 1.506753 1_555
O3 P1 1.546584 1_555
O4 P6 1.601887 1_554
O4 P2 1.627228 1_555
O5 P4 1.541742 1_555
O6 P6 1.546584 1_555
O7 P1 1.531315 1_555
O8 P3 1.543143 1_555
O9 P2 1.541742 1_555
O10 P7 1.541742 1_555
O11 P2 1.542762 1_565
O12 P7 1.542762 1_545
O13 P3 1.601887 1_555
O13 P7 1.627228 1_555
O14 P0 1.541742 1_555
O15 P7 1.506753 1_555
O16 P4 1.542762 1_545
O17 P6 1.531315 1_555
O18 P1 1.543143 1_556
O19 P6 1.543143 1_554
O20 P5 1.546584 1_555
O21 P3 1.531315 1_555
O22 P5 1.531315 1_555
O23 P4 1.506753 1_555
O24 P0 1.542762 1_565
O25 P3 1.546584 1_555
O26 P5 1.543143 1_555
O27 P5 1.601887 1_555
O27 P0 1.627228 1_555
