# generated using pymatgen
data_K2Zn(SnSe3)2
_symmetry_space_group_name_H-M   'P 1'
_cell_length_a   8.39939400
_cell_length_b   8.39939400
_cell_length_c   19.90874800
_cell_angle_alpha   90.00000000
_cell_angle_beta   90.00000000
_cell_angle_gamma   90.00000000
_symmetry_Int_Tables_number   1
_chemical_formula_structural   K2Zn(SnSe3)2
_chemical_formula_sum   'K8 Zn4 Sn8 Se24'
_cell_volume   1404.55857921
_cell_formula_units_Z   4
loop_
 _symmetry_equiv_pos_site_id
 _symmetry_equiv_pos_as_xyz
  1  'x, y, z'
loop_
 _atom_site_type_symbol
 _atom_site_label
 _atom_site_symmetry_multiplicity
 _atom_site_fract_x
 _atom_site_fract_y
 _atom_site_fract_z
 _atom_site_occupancy
  K  K0  1  0.50000000  0.00000000  0.17677900  1
  K  K1  1  0.50000000  0.00000000  0.67677900  1
  K  K2  1  0.00000000  0.50000000  0.82322100  1
  K  K3  1  0.00000000  0.50000000  0.32322100  1
  K  K4  1  0.00000000  0.50000000  0.02564000  1
  K  K5  1  0.00000000  0.50000000  0.52564000  1
  K  K6  1  0.50000000  0.00000000  0.97436000  1
  K  K7  1  0.50000000  0.00000000  0.47436000  1
  Zn  Zn0  1  0.50000000  0.50000000  0.00000000  1
  Zn  Zn1  1  0.50000000  0.50000000  0.50000000  1
  Zn  Zn2  1  0.00000000  0.00000000  0.50000000  1
  Zn  Zn3  1  0.00000000  0.00000000  0.00000000  1
  Sn  Sn0  1  0.50000000  0.50000000  0.16171100  1
  Sn  Sn1  1  0.50000000  0.50000000  0.66171100  1
  Sn  Sn2  1  0.00000000  0.00000000  0.66171100  1
  Sn  Sn3  1  0.00000000  0.00000000  0.16171100  1
  Sn  Sn4  1  0.00000000  0.00000000  0.83828900  1
  Sn  Sn5  1  0.00000000  0.00000000  0.33828900  1
  Sn  Sn6  1  0.50000000  0.50000000  0.33828900  1
  Sn  Sn7  1  0.50000000  0.50000000  0.83828900  1
  Se  Se0  1  0.34515400  0.32391400  0.08145900  1
  Se  Se1  1  0.65484600  0.32391400  0.58145900  1
  Se  Se2  1  0.34515400  0.67608600  0.58145900  1
  Se  Se3  1  0.65484600  0.67608600  0.08145900  1
  Se  Se4  1  0.82391400  0.84515400  0.58145900  1
  Se  Se5  1  0.17608600  0.84515400  0.08145900  1
  Se  Se6  1  0.82391400  0.15484600  0.08145900  1
  Se  Se7  1  0.17608600  0.15484600  0.58145900  1
  Se  Se8  1  0.15484600  0.17608600  0.91854100  1
  Se  Se9  1  0.84515400  0.17608600  0.41854100  1
  Se  Se10  1  0.15484600  0.82391400  0.41854100  1
  Se  Se11  1  0.84515400  0.82391400  0.91854100  1
  Se  Se12  1  0.67608600  0.65484600  0.41854100  1
  Se  Se13  1  0.32391400  0.65484600  0.91854100  1
  Se  Se14  1  0.67608600  0.34515400  0.91854100  1
  Se  Se15  1  0.32391400  0.34515400  0.41854100  1
  Se  Se16  1  0.66245000  0.33755000  0.25000000  1
  Se  Se17  1  0.33755000  0.33755000  0.75000000  1
  Se  Se18  1  0.66245000  0.66245000  0.75000000  1
  Se  Se19  1  0.33755000  0.66245000  0.25000000  1
  Se  Se20  1  0.83755000  0.16245000  0.75000000  1
  Se  Se21  1  0.16245000  0.16245000  0.25000000  1
  Se  Se22  1  0.83755000  0.83755000  0.25000000  1
  Se  Se23  1  0.16245000  0.83755000  0.75000000  1
loop_
_geom_bond_atom_site_label_1
_geom_bond_atom_site_label_2
_geom_bond_distance
_geom_bond_site_symmetry_2
K0 Se19 3.467745 1_545
K0 Se21 3.467745 1_555
K0 Se22 3.467745 1_545
K0 Se16 3.467745 1_555
K0 Se6 3.563000 1_555
K0 Se3 3.563000 1_545
K0 Se5 3.563000 1_545
K0 Se0 3.563000 1_555
K1 Se18 3.467745 1_545
K1 Se20 3.467745 1_555
K1 Se17 3.467745 1_555
K1 Se23 3.467745 1_545
K1 Se4 3.563000 1_545
K1 Se1 3.563000 1_555
K1 Se7 3.563000 1_555
K1 Se2 3.563000 1_545
K2 Se18 3.467745 1_455
K2 Se23 3.467745 1_555
K2 Se17 3.467745 1_555
K2 Se20 3.467745 1_455
K2 Se11 3.563000 1_455
K2 Se13 3.563000 1_555
K2 Se8 3.563000 1_555
K2 Se14 3.563000 1_455
K3 Se16 3.467745 1_455
K3 Se21 3.467745 1_555
K3 Se22 3.467745 1_455
K3 Se19 3.467745 1_555
K3 Se10 3.563000 1_555
K3 Se12 3.563000 1_455
K3 Se9 3.563000 1_455
K3 Se15 3.563000 1_555
K4 Se0 3.439060 1_555
K4 Se5 3.439060 1_555
K4 Se3 3.439060 1_455
K4 Se6 3.439060 1_455
K4 Se11 3.693238 1_454
K4 Se13 3.693238 1_554
K4 Se8 3.693238 1_554
K4 Se14 3.693238 1_454
K5 Se2 3.439060 1_555
K5 Se4 3.439060 1_455
K5 Se1 3.439060 1_455
K5 Se7 3.439060 1_555
K5 Se10 3.693238 1_555
K5 Se12 3.693238 1_455
K5 Se9 3.693238 1_455
K5 Se15 3.693238 1_555
K6 Se14 3.439060 1_555
K6 Se11 3.439060 1_545
K6 Se8 3.439060 1_555
K6 Se13 3.439060 1_545
K6 Se6 3.693238 1_556
K6 Se3 3.693238 1_546
K6 Se5 3.693238 1_546
K6 Se0 3.693238 1_556
K7 Se15 3.439060 1_555
K7 Se9 3.439060 1_555
K7 Se12 3.439060 1_545
K7 Se10 3.439060 1_545
K7 Se4 3.693238 1_545
K7 Se1 3.693238 1_555
K7 Se7 3.693238 1_555
K7 Se2 3.693238 1_545
Se0 Sn0 2.536095 1_555
Se0 Zn0 2.551302 1_555
Se1 Sn1 2.536095 1_555
Se1 Zn1 2.551302 1_555
Se2 Sn1 2.536095 1_555
Se2 Zn1 2.551302 1_555
Se3 Sn0 2.536095 1_555
Se3 Zn0 2.551302 1_555
Se4 Sn2 2.536095 1_665
Se4 Zn2 2.551302 1_665
Se5 Sn3 2.536095 1_565
Se5 Zn3 2.551302 1_565
Se6 Sn3 2.536095 1_655
Se6 Zn3 2.551302 1_655
Se7 Sn2 2.536095 1_555
Se7 Zn2 2.551302 1_555
Se8 Sn4 2.536095 1_555
Se8 Zn3 2.551302 1_556
Se9 Sn5 2.536095 1_655
Se9 Zn2 2.551302 1_655
Se10 Sn5 2.536095 1_565
Se10 Zn2 2.551302 1_565
Se11 Sn4 2.536095 1_665
Se11 Zn3 2.551302 1_666
Se12 Sn6 2.536095 1_555
Se12 Zn1 2.551302 1_555
Se13 Sn7 2.536095 1_555
Se13 Zn0 2.551302 1_556
Se14 Sn7 2.536095 1_555
Se14 Zn0 2.551302 1_556
Se15 Sn6 2.536095 1_555
Se15 Zn1 2.551302 1_555
Se16 Sn0 2.610213 1_555
Se16 Sn6 2.610213 1_555
Se17 Sn7 2.610213 1_555
Se17 Sn1 2.610213 1_555
Se18 Sn7 2.610213 1_555
Se18 Sn1 2.610213 1_555
Se19 Sn0 2.610213 1_555
Se19 Sn6 2.610213 1_555
Se20 Sn4 2.610213 1_655
Se20 Sn2 2.610213 1_655
Se21 Sn3 2.610213 1_555
Se21 Sn5 2.610213 1_555
Se22 Sn5 2.610213 1_665
Se22 Sn3 2.610213 1_665
Se23 Sn4 2.610213 1_565
Se23 Sn2 2.610213 1_565
