# generated using pymatgen
data_Mg2Sn
_symmetry_space_group_name_H-M   'P 1'
_cell_length_a   16.45304637
_cell_length_b   16.45304637
_cell_length_c   10.57271000
_cell_angle_alpha   90.00000000
_cell_angle_beta   90.00000000
_cell_angle_gamma   156.42758480
_symmetry_Int_Tables_number   1
_chemical_formula_structural   Mg2Sn
_chemical_formula_sum   'Mg32 Sn16'
_cell_volume   1144.56074326
_cell_formula_units_Z   16
loop_
 _symmetry_equiv_pos_site_id
 _symmetry_equiv_pos_as_xyz
  1  'x, y, z'
loop_
 _atom_site_type_symbol
 _atom_site_label
 _atom_site_symmetry_multiplicity
 _atom_site_fract_x
 _atom_site_fract_y
 _atom_site_fract_z
 _atom_site_occupancy
  Mg  Mg0_0  1  0.49978950  0.00021050  0.25000000  1
  Mg  Mg0_1  1  0.49978950  0.00021050  0.75000000  1
  Mg  Mg0_2  1  0.49978950  0.50021050  0.25000000  1
  Mg  Mg0_3  1  0.49978950  0.50021050  0.75000000  1
  Mg  Mg0_4  1  0.99978950  0.00021050  0.25000000  1
  Mg  Mg0_5  1  0.99978950  0.00021050  0.75000000  1
  Mg  Mg0_6  1  0.99978950  0.50021050  0.25000000  1
  Mg  Mg0_7  1  0.99978950  0.50021050  0.75000000  1
  Mg  Mg1_0  1  0.16625400  0.33374600  0.25000000  1
  Mg  Mg1_1  1  0.16625400  0.33374600  0.75000000  1
  Mg  Mg1_2  1  0.16625400  0.83374600  0.25000000  1
  Mg  Mg1_3  1  0.16625400  0.83374600  0.75000000  1
  Mg  Mg1_4  1  0.66625400  0.33374600  0.25000000  1
  Mg  Mg1_5  1  0.66625400  0.33374600  0.75000000  1
  Mg  Mg1_6  1  0.66625400  0.83374600  0.25000000  1
  Mg  Mg1_7  1  0.66625400  0.83374600  0.75000000  1
  Mg  Mg2_0  1  0.33302450  0.16697550  0.25000000  1
  Mg  Mg2_1  1  0.33302450  0.16697550  0.75000000  1
  Mg  Mg2_2  1  0.33302450  0.66697550  0.25000000  1
  Mg  Mg2_3  1  0.33302450  0.66697550  0.75000000  1
  Mg  Mg2_4  1  0.83302450  0.16697550  0.25000000  1
  Mg  Mg2_5  1  0.83302450  0.16697550  0.75000000  1
  Mg  Mg2_6  1  0.83302450  0.66697550  0.25000000  1
  Mg  Mg2_7  1  0.83302450  0.66697550  0.75000000  1
  Mg  Mg3_0  1  0.22268600  0.27731400  0.00000000  1
  Mg  Mg3_1  1  0.22268600  0.27731400  0.50000000  1
  Mg  Mg3_2  1  0.22268600  0.77731400  0.00000000  1
  Mg  Mg3_3  1  0.22268600  0.77731400  0.50000000  1
  Mg  Mg3_4  1  0.72268600  0.27731400  0.00000000  1
  Mg  Mg3_5  1  0.72268600  0.27731400  0.50000000  1
  Mg  Mg3_6  1  0.72268600  0.77731400  0.00000000  1
  Mg  Mg3_7  1  0.72268600  0.77731400  0.50000000  1
  Sn  Sn0_0  1  0.05385200  0.44614800  0.00000000  1
  Sn  Sn0_1  1  0.05385200  0.44614800  0.50000000  1
  Sn  Sn0_2  1  0.05385200  0.94614800  0.00000000  1
  Sn  Sn0_3  1  0.05385200  0.94614800  0.50000000  1
  Sn  Sn0_4  1  0.55385200  0.44614800  0.00000000  1
  Sn  Sn0_5  1  0.55385200  0.44614800  0.50000000  1
  Sn  Sn0_6  1  0.55385200  0.94614800  0.00000000  1
  Sn  Sn0_7  1  0.55385200  0.94614800  0.50000000  1
  Sn  Sn1_0  1  0.39106050  0.10893950  0.00000000  1
  Sn  Sn1_1  1  0.39106050  0.10893950  0.50000000  1
  Sn  Sn1_2  1  0.39106050  0.60893950  0.00000000  1
  Sn  Sn1_3  1  0.39106050  0.60893950  0.50000000  1
  Sn  Sn1_4  1  0.89106050  0.10893950  0.00000000  1
  Sn  Sn1_5  1  0.89106050  0.10893950  0.50000000  1
  Sn  Sn1_6  1  0.89106050  0.60893950  0.00000000  1
  Sn  Sn1_7  1  0.89106050  0.60893950  0.50000000  1
loop_
_geom_bond_atom_site_label_1
_geom_bond_atom_site_label_2
_geom_bond_distance
_geom_bond_site_symmetry_2
Mg0_0 Mg2_2 3.164234 1_545
Mg0_0 Mg2_4 3.164234 1_555
Mg0_0 Sn0_6 3.165302 1_545
Mg0_0 Sn0_7 3.165302 1_545
Mg0_0 Mg1_4 3.172441 1_555
Mg0_0 Mg1_2 3.172441 1_545
Mg0_1 Mg2_3 3.164234 1_545
Mg0_1 Mg2_5 3.164234 1_555
Mg0_1 Sn0_7 3.165302 1_545
Mg0_1 Sn0_6 3.165302 1_546
Mg0_1 Mg1_5 3.172441 1_555
Mg0_1 Mg1_3 3.172441 1_545
Mg0_2 Mg2_0 3.164234 1_555
Mg0_2 Mg2_6 3.164234 1_555
Mg0_2 Sn0_5 3.165302 1_555
Mg0_2 Sn0_4 3.165302 1_555
Mg0_2 Mg1_6 3.172441 1_555
Mg0_2 Mg1_0 3.172441 1_555
Mg0_3 Mg2_1 3.164234 1_555
Mg0_3 Mg2_7 3.164234 1_555
Mg0_3 Sn0_4 3.165302 1_556
Mg0_3 Sn0_5 3.165302 1_555
Mg0_3 Mg1_7 3.172441 1_555
Mg0_3 Mg1_1 3.172441 1_555
Mg0_4 Mg2_6 3.164234 1_545
Mg0_4 Mg2_0 3.164234 1_655
Mg0_4 Sn0_3 3.165302 1_645
Mg0_4 Sn0_2 3.165302 1_645
Mg0_4 Mg1_6 3.172441 1_545
Mg0_4 Mg1_0 3.172441 1_655
Mg0_5 Mg2_7 3.164234 1_545
Mg0_5 Mg2_1 3.164234 1_655
Mg0_5 Sn0_2 3.165302 1_646
Mg0_5 Sn0_3 3.165302 1_645
Mg0_5 Mg1_7 3.172441 1_545
Mg0_5 Mg1_1 3.172441 1_655
Mg0_6 Mg2_2 3.164234 1_655
Mg0_6 Mg2_4 3.164234 1_555
Mg0_6 Sn0_1 3.165302 1_655
Mg0_6 Sn0_0 3.165302 1_655
Mg0_6 Mg1_2 3.172441 1_655
Mg0_6 Mg1_4 3.172441 1_555
Mg0_7 Mg2_3 3.164234 1_655
Mg0_7 Mg2_5 3.164234 1_555
Mg0_7 Sn0_1 3.165302 1_655
Mg0_7 Sn0_0 3.165302 1_656
Mg0_7 Mg1_3 3.172441 1_655
Mg0_7 Mg1_5 3.172441 1_555
Mg1_0 Mg2_4 3.164084 1_455
Mg1_0 Mg2_2 3.164084 1_555
Mg1_0 Mg3_1 3.207928 1_555
Mg1_0 Mg3_0 3.207928 1_555
Mg1_0 Sn1_5 3.235517 1_455
Mg1_0 Sn1_4 3.235517 1_455
Mg1_0 Sn1_2 3.235517 1_555
Mg1_0 Sn1_3 3.235517 1_555
Mg1_0 Mg1_6 3.360706 1_445
Mg1_0 Mg1_6 3.360706 1_555
Mg1_1 Mg2_5 3.164084 1_455
Mg1_1 Mg2_3 3.164084 1_555
Mg1_1 Mg3_0 3.207928 1_556
Mg1_1 Mg3_1 3.207928 1_555
Mg1_1 Sn1_4 3.235517 1_456
Mg1_1 Sn1_5 3.235517 1_455
Mg1_1 Sn1_2 3.235517 1_556
Mg1_1 Sn1_3 3.235517 1_555
Mg1_1 Mg1_7 3.360706 1_445
Mg1_1 Mg1_7 3.360706 1_555
Mg1_2 Mg2_6 3.164084 1_455
Mg1_2 Mg2_0 3.164084 1_565
Mg1_2 Mg3_3 3.207928 1_555
Mg1_2 Mg3_2 3.207928 1_555
Mg1_2 Sn1_6 3.235517 1_455
Mg1_2 Sn1_7 3.235517 1_455
Mg1_2 Sn1_1 3.235517 1_565
Mg1_2 Sn1_0 3.235517 1_565
Mg1_2 Mg1_4 3.360706 1_565
Mg1_2 Mg1_4 3.360706 1_455
Mg1_3 Mg2_7 3.164084 1_455
Mg1_3 Mg2_1 3.164084 1_565
Mg1_3 Mg3_2 3.207928 1_556
Mg1_3 Mg3_3 3.207928 1_555
Mg1_3 Sn1_6 3.235517 1_456
Mg1_3 Sn1_7 3.235517 1_455
Mg1_3 Sn1_0 3.235517 1_566
Mg1_3 Sn1_1 3.235517 1_565
Mg1_3 Mg1_5 3.360706 1_565
Mg1_3 Mg1_5 3.360706 1_455
Mg1_4 Mg2_6 3.164084 1_555
Mg1_4 Mg2_0 3.164084 1_555
Mg1_4 Mg3_5 3.207928 1_555
Mg1_4 Mg3_4 3.207928 1_555
Mg1_4 Sn1_0 3.235517 1_555
Mg1_4 Sn1_1 3.235517 1_555
Mg1_4 Sn1_6 3.235517 1_555
Mg1_4 Sn1_7 3.235517 1_555
Mg1_5 Mg2_1 3.164084 1_555
Mg1_5 Mg2_7 3.164084 1_555
Mg1_5 Mg3_4 3.207928 1_556
Mg1_5 Mg3_5 3.207928 1_555
Mg1_5 Sn1_0 3.235517 1_556
Mg1_5 Sn1_1 3.235517 1_555
Mg1_5 Sn1_7 3.235517 1_555
Mg1_5 Sn1_6 3.235517 1_556
Mg1_6 Mg2_4 3.164084 1_565
Mg1_6 Mg2_2 3.164084 1_555
Mg1_6 Mg3_6 3.207928 1_555
Mg1_6 Mg3_7 3.207928 1_555
Mg1_6 Sn1_4 3.235517 1_565
Mg1_6 Sn1_5 3.235517 1_565
Mg1_6 Sn1_2 3.235517 1_555
Mg1_6 Sn1_3 3.235517 1_555
Mg1_7 Mg2_5 3.164084 1_565
Mg1_7 Mg2_3 3.164084 1_555
Mg1_7 Mg3_6 3.207928 1_556
Mg1_7 Mg3_7 3.207928 1_555
Mg1_7 Sn1_2 3.235517 1_556
Mg1_7 Sn1_3 3.235517 1_555
Mg1_7 Sn1_4 3.235517 1_566
Mg1_7 Sn1_5 3.235517 1_565
Mg2_0 Sn1_0 3.237487 1_555
Mg2_0 Sn1_1 3.237487 1_555
Mg2_0 Sn0_3 3.270021 1_545
Mg2_0 Sn0_4 3.270021 1_555
Mg2_0 Sn0_2 3.270021 1_545
Mg2_0 Sn0_5 3.270021 1_555
Mg2_0 Mg2_6 3.360706 1_445
Mg2_0 Mg2_6 3.360706 1_555
Mg2_1 Sn1_0 3.237487 1_556
Mg2_1 Sn1_1 3.237487 1_555
Mg2_1 Sn0_2 3.270021 1_546
Mg2_1 Sn0_4 3.270021 1_556
Mg2_1 Sn0_5 3.270021 1_555
Mg2_1 Sn0_3 3.270021 1_545
Mg2_1 Mg2_7 3.360706 1_445
Mg2_1 Mg2_7 3.360706 1_555
Mg2_2 Sn1_2 3.237487 1_555
Mg2_2 Sn1_3 3.237487 1_555
Mg2_2 Sn0_1 3.270021 1_555
Mg2_2 Sn0_7 3.270021 1_555
Mg2_2 Sn0_6 3.270021 1_555
Mg2_2 Sn0_0 3.270021 1_555
Mg2_2 Mg2_4 3.360706 1_565
Mg2_2 Mg2_4 3.360706 1_455
Mg2_3 Sn1_2 3.237487 1_556
Mg2_3 Sn1_3 3.237487 1_555
Mg2_3 Sn0_6 3.270021 1_556
Mg2_3 Sn0_0 3.270021 1_556
Mg2_3 Sn0_7 3.270021 1_555
Mg2_3 Sn0_1 3.270021 1_555
Mg2_3 Mg2_5 3.360706 1_565
Mg2_3 Mg2_5 3.360706 1_455
Mg2_4 Sn1_4 3.237487 1_555
Mg2_4 Sn1_5 3.237487 1_555
Mg2_4 Sn0_6 3.270021 1_545
Mg2_4 Sn0_7 3.270021 1_545
Mg2_4 Sn0_1 3.270021 1_655
Mg2_4 Sn0_0 3.270021 1_655
Mg2_5 Sn1_4 3.237487 1_556
Mg2_5 Sn1_5 3.237487 1_555
Mg2_5 Sn0_6 3.270021 1_546
Mg2_5 Sn0_0 3.270021 1_656
Mg2_5 Sn0_7 3.270021 1_545
Mg2_5 Sn0_1 3.270021 1_655
Mg2_6 Sn1_7 3.237487 1_555
Mg2_6 Sn1_6 3.237487 1_555
Mg2_6 Sn0_2 3.270021 1_655
Mg2_6 Sn0_4 3.270021 1_555
Mg2_6 Sn0_5 3.270021 1_555
Mg2_6 Sn0_3 3.270021 1_655
Mg2_7 Sn1_6 3.237487 1_556
Mg2_7 Sn1_7 3.237487 1_555
Mg2_7 Sn0_2 3.270021 1_656
Mg2_7 Sn0_4 3.270021 1_556
Mg2_7 Sn0_5 3.270021 1_555
Mg2_7 Sn0_3 3.270021 1_655
Mg3_0 Sn0_4 3.107963 1_555
Mg3_0 Sn0_2 3.107963 1_545
Mg3_0 Sn1_4 3.120425 1_455
Mg3_0 Sn1_2 3.120425 1_555
Mg3_1 Sn0_3 3.107963 1_545
Mg3_1 Sn0_5 3.107963 1_555
Mg3_1 Sn1_3 3.120425 1_555
Mg3_1 Sn1_5 3.120425 1_455
Mg3_2 Sn0_0 3.107963 1_555
Mg3_2 Sn0_6 3.107963 1_555
Mg3_2 Sn1_6 3.120425 1_455
Mg3_2 Sn1_0 3.120425 1_565
Mg3_3 Sn0_1 3.107963 1_555
Mg3_3 Sn0_7 3.107963 1_555
Mg3_3 Sn1_7 3.120425 1_455
Mg3_3 Sn1_1 3.120425 1_565
Mg3_4 Sn0_6 3.107963 1_545
Mg3_4 Sn0_0 3.107963 1_655
Mg3_4 Sn1_6 3.120425 1_555
Mg3_4 Sn1_0 3.120425 1_555
Mg3_5 Sn0_7 3.107963 1_545
Mg3_5 Sn0_1 3.107963 1_655
Mg3_5 Sn1_7 3.120425 1_555
Mg3_5 Sn1_1 3.120425 1_555
Mg3_6 Sn0_2 3.107963 1_655
Mg3_6 Sn0_4 3.107963 1_555
Mg3_6 Sn1_2 3.120425 1_555
Mg3_6 Sn1_4 3.120425 1_565
Mg3_7 Sn0_3 3.107963 1_655
Mg3_7 Sn0_5 3.107963 1_555
Mg3_7 Sn1_3 3.120425 1_555
Mg3_7 Sn1_5 3.120425 1_565
