# generated using pymatgen
data_Ho4Pt
_symmetry_space_group_name_H-M   'P 1'
_cell_length_a   7.73394224
_cell_length_b   7.73394224
_cell_length_c   7.73394224
_cell_angle_alpha   60.00000000
_cell_angle_beta   60.00000000
_cell_angle_gamma   60.00000000
_symmetry_Int_Tables_number   1
_chemical_formula_structural   Ho4Pt
_chemical_formula_sum   'Ho8 Pt2'
_cell_volume   327.10544558
_cell_formula_units_Z   2
loop_
 _symmetry_equiv_pos_site_id
 _symmetry_equiv_pos_as_xyz
  1  'x, y, z'
loop_
 _atom_site_type_symbol
 _atom_site_label
 _atom_site_symmetry_multiplicity
 _atom_site_fract_x
 _atom_site_fract_y
 _atom_site_fract_z
 _atom_site_occupancy
  Ho  Ho0  1  0.61027100  0.61027100  0.61027100  1
  Ho  Ho1  1  0.16918600  0.61027100  0.61027100  1
  Ho  Ho2  1  0.61027100  0.16918600  0.61027100  1
  Ho  Ho3  1  0.58081400  0.13972900  0.13972900  1
  Ho  Ho4  1  0.13972900  0.13972900  0.13972900  1
  Ho  Ho5  1  0.61027100  0.61027100  0.16918600  1
  Ho  Ho6  1  0.13972900  0.58081400  0.13972900  1
  Ho  Ho7  1  0.13972900  0.13972900  0.58081400  1
  Pt  Pt0  1  0.00000000  0.00000000  0.00000000  1
  Pt  Pt1  1  0.75000000  0.75000000  0.75000000  1
loop_
_geom_bond_atom_site_label_1
_geom_bond_atom_site_label_2
_geom_bond_distance
_geom_bond_site_symmetry_2
Ho0 Pt1 2.647056 1_555
Ho1 Pt1 2.647050 1_455
Ho2 Pt1 2.647050 1_545
Ho3 Pt0 2.647050 1_655
Ho4 Pt0 2.647056 1_555
Ho5 Pt1 2.647050 1_554
Ho6 Pt0 2.647050 1_565
Ho7 Pt0 2.647050 1_556
