# generated using pymatgen
data_CeCoSb2
_symmetry_space_group_name_H-M   'P 1'
_cell_length_a   4.39951369
_cell_length_b   4.39951369
_cell_length_c   9.70163944
_cell_angle_alpha   90.00000000
_cell_angle_beta   90.00000000
_cell_angle_gamma   90.00000000
_symmetry_Int_Tables_number   1
_chemical_formula_structural   CeCoSb2
_chemical_formula_sum   'Ce2 Co2 Sb4'
_cell_volume   187.78222342
_cell_formula_units_Z   2
loop_
 _symmetry_equiv_pos_site_id
 _symmetry_equiv_pos_as_xyz
  1  'x, y, z'
loop_
 _atom_site_type_symbol
 _atom_site_label
 _atom_site_symmetry_multiplicity
 _atom_site_fract_x
 _atom_site_fract_y
 _atom_site_fract_z
 _atom_site_occupancy
  Ce  Ce0  1  0.75000000  0.75000000  0.73639904  1
  Ce  Ce1  1  0.25000000  0.25000000  0.26360096  1
  Co  Co0  1  0.25000000  0.75000000  0.50000000  1
  Co  Co1  1  0.75000000  0.25000000  0.50000000  1
  Sb  Sb0  1  0.25000000  0.75000000  -0.00000000  1
  Sb  Sb1  1  0.75000000  0.25000000  -0.00000000  1
  Sb  Sb2  1  0.75000000  0.75000000  0.36559646  1
  Sb  Sb3  1  0.25000000  0.25000000  0.63440354  1
loop_
_geom_bond_atom_site_label_1
_geom_bond_atom_site_label_2
_geom_bond_distance
_geom_bond_site_symmetry_2
Ce0 Co0 3.177874 1_655
Ce0 Co1 3.177874 1_555
Ce0 Co1 3.177874 1_565
Ce0 Co0 3.177874 1_555
Ce0 Sb3 3.264509 1_565
Ce0 Sb3 3.264509 1_655
Ce0 Sb3 3.264509 1_555
Ce0 Sb3 3.264509 1_665
Ce0 Sb0 3.373281 1_656
Ce0 Sb1 3.373281 1_566
Ce0 Sb0 3.373281 1_556
Ce0 Sb1 3.373281 1_556
Ce1 Co0 3.177874 1_545
Ce1 Co0 3.177874 1_555
Ce1 Co1 3.177874 1_555
Ce1 Co1 3.177874 1_455
Ce1 Sb2 3.264509 1_455
Ce1 Sb2 3.264509 1_545
Ce1 Sb2 3.264509 1_555
Ce1 Sb2 3.264509 1_445
Ce1 Sb0 3.373281 1_545
Ce1 Sb1 3.373281 1_555
Ce1 Sb0 3.373281 1_555
Ce1 Sb1 3.373281 1_455
Co0 Sb2 2.557181 1_455
Co0 Sb2 2.557181 1_555
Co0 Sb3 2.557181 1_555
Co0 Sb3 2.557181 1_565
Co1 Sb3 2.557181 1_655
Co1 Sb2 2.557181 1_545
Co1 Sb2 2.557181 1_555
Co1 Sb3 2.557181 1_555
Sb0 Sb1 3.110926 1_455
Sb0 Sb1 3.110926 1_565
Sb0 Sb1 3.110926 1_465
Sb0 Sb1 3.110926 1_555
