# generated using pymatgen
data_SrCoAs2O7
_symmetry_space_group_name_H-M   'P 1'
_cell_length_a   5.61013770
_cell_length_b   8.50276400
_cell_length_c   13.33905215
_cell_angle_alpha   90.00000000
_cell_angle_beta   91.15109641
_cell_angle_gamma   90.00000000
_symmetry_Int_Tables_number   1
_chemical_formula_structural   SrCoAs2O7
_chemical_formula_sum   'Sr4 Co4 As8 O28'
_cell_volume   636.16674754
_cell_formula_units_Z   4
loop_
 _symmetry_equiv_pos_site_id
 _symmetry_equiv_pos_as_xyz
  1  'x, y, z'
loop_
 _atom_site_type_symbol
 _atom_site_label
 _atom_site_symmetry_multiplicity
 _atom_site_fract_x
 _atom_site_fract_y
 _atom_site_fract_z
 _atom_site_occupancy
  Sr  Sr0  1  0.79126400  0.17366900  0.77975900  1
  Sr  Sr1  1  0.70873600  0.67366900  0.72024100  1
  Sr  Sr2  1  0.20873500  0.82633100  0.22024100  1
  Sr  Sr3  1  0.29126500  0.32633100  0.27975900  1
  Co  Co0  1  0.33180800  0.35800900  0.60717000  1
  Co  Co1  1  0.16819200  0.85800900  0.89283000  1
  Co  Co2  1  0.66819300  0.64199200  0.39283000  1
  Co  Co3  1  0.83180800  0.14199100  0.10717000  1
  As  As0  1  0.67606900  0.80389000  0.01501500  1
  As  As1  1  0.82393200  0.30389000  0.48498500  1
  As  As2  1  0.17606900  0.69611000  0.51501500  1
  As  As3  1  0.32393000  0.19611000  0.98498500  1
  As  As4  1  0.74573100  0.52257900  0.16494800  1
  As  As5  1  0.25427000  0.47742000  0.83505100  1
  As  As6  1  0.75427000  0.02258000  0.33505200  1
  As  As7  1  0.24573100  0.97742000  0.66494800  1
  O  O0  1  0.69375500  0.32288200  0.59892600  1
  O  O1  1  0.80624500  0.82288200  0.90107500  1
  O  O2  1  0.30624400  0.67711700  0.40107400  1
  O  O3  1  0.19375500  0.17711700  0.09892600  1
  O  O4  1  0.62224400  0.15641200  0.97467300  1
  O  O5  1  0.87775600  0.65641200  0.52532700  1
  O  O6  1  0.37775700  0.84358800  0.02532600  1
  O  O7  1  0.12224300  0.34358800  0.47467300  1
  O  O8  1  0.96955800  0.45434600  0.79386600  1
  O  O9  1  0.53044100  0.95434700  0.70613400  1
  O  O10  1  0.03044100  0.54565400  0.20613400  1
  O  O11  1  0.46955800  0.04565400  0.29386600  1
  O  O12  1  0.27631200  0.40110000  0.96002100  1
  O  O13  1  0.22368800  0.90110000  0.53997900  1
  O  O14  1  0.72368700  0.59889900  0.03997900  1
  O  O15  1  0.77631300  0.09890000  0.46002100  1
  O  O16  1  0.65338200  0.33199800  0.15479600  1
  O  O17  1  0.84661800  0.83199800  0.34520400  1
  O  O18  1  0.34661900  0.66800100  0.84520400  1
  O  O19  1  0.15338100  0.16800100  0.65479600  1
  O  O20  1  0.66514500  0.40255000  0.39267100  1
  O  O21  1  0.83485500  0.90255000  0.10732900  1
  O  O22  1  0.46063100  0.38448300  0.76317400  1
  O  O23  1  0.16514400  0.09745000  0.89267100  1
  O  O24  1  0.96063000  0.11551700  0.26317400  1
  O  O25  1  0.53937000  0.61551700  0.23682600  1
  O  O26  1  0.03937100  0.88448300  0.73682600  1
  O  O27  1  0.33485600  0.59745000  0.60732800  1
loop_
_geom_bond_atom_site_label_1
_geom_bond_atom_site_label_2
_geom_bond_distance
_geom_bond_site_symmetry_2
Co0 O19 2.010294 1_555
Co0 O27 2.035983 1_555
Co0 O0 2.057546 1_555
Co0 O7 2.106523 1_555
Co0 O22 2.200658 1_555
Co1 O18 2.010294 1_555
Co1 O23 2.035983 1_565
Co1 O1 2.057547 1_455
Co1 O6 2.106512 1_556
Co1 O26 2.200655 1_555
Co2 O17 2.010274 1_555
Co2 O20 2.035991 1_555
Co2 O2 2.057555 1_555
Co2 O5 2.106517 1_555
Co2 O25 2.200659 1_555
Co3 O16 2.010284 1_555
Co3 O21 2.035983 1_545
Co3 O3 2.057545 1_655
Co3 O4 2.106520 1_554
Co3 O24 2.200656 1_555
As0 O1 1.707035 1_554
As0 O6 1.715500 1_555
As0 O21 1.723223 1_555
As0 O14 1.793514 1_555
As1 O0 1.707049 1_555
As1 O7 1.715496 1_655
As1 O20 1.723225 1_555
As1 O15 1.793507 1_555
As2 O2 1.707045 1_555
As2 O5 1.715507 1_455
As2 O27 1.723216 1_555
As2 O13 1.793507 1_555
As3 O3 1.707045 1_556
As3 O4 1.715513 1_555
As3 O23 1.723223 1_555
As3 O12 1.793506 1_555
As4 O10 1.690061 1_655
As4 O16 1.705827 1_555
As4 O25 1.711324 1_555
As4 O14 1.790783 1_555
As5 O8 1.690066 1_455
As5 O18 1.705828 1_555
As5 O22 1.711312 1_555
As5 O12 1.790795 1_555
As6 O11 1.690070 1_555
As6 O17 1.705833 1_545
As6 O24 1.711316 1_555
As6 O15 1.790783 1_555
As7 O9 1.690059 1_555
As7 O19 1.705828 1_565
As7 O26 1.711316 1_555
As7 O13 1.790783 1_555
O0 Sr0 2.770256 1_555
O1 Sr1 2.770267 1_555
O2 Sr2 2.770260 1_555
O3 Sr3 2.770261 1_555
O4 Sr0 2.789184 1_555
O5 Sr1 2.789184 1_555
O6 Sr2 2.789201 1_555
O7 Sr3 2.789188 1_555
O8 Sr1 2.554510 1_555
O8 Sr0 2.593045 1_555
O9 Sr0 2.554507 1_565
O9 Sr1 2.593055 1_555
O10 Sr3 2.554517 1_555
O10 Sr2 2.593045 1_555
O11 Sr2 2.554514 1_545
O11 Sr3 2.593043 1_555
O16 Sr3 2.654052 1_555
O17 Sr2 2.654052 1_655
O18 Sr1 2.654052 1_555
O19 Sr0 2.654052 1_455
O20 Sr3 2.638391 1_555
O21 Sr2 2.638391 1_655
O22 Sr0 2.585761 1_555
O22 Sr1 2.888509 1_555
O23 Sr0 2.638391 1_455
O24 Sr3 2.585769 1_655
O24 Sr2 2.888509 1_645
O25 Sr2 2.585769 1_555
O25 Sr3 2.888509 1_555
O26 Sr1 2.585769 1_455
O26 Sr0 2.888514 1_465
O27 Sr1 2.638398 1_555
