# generated using pymatgen
data_Ho2MgSe4
_symmetry_space_group_name_H-M   'P 1'
_cell_length_a   13.18903838
_cell_length_b   7.86646475
_cell_length_c   13.42999330
_cell_angle_alpha   90.00000000
_cell_angle_beta   90.00000000
_cell_angle_gamma   90.00000000
_symmetry_Int_Tables_number   1
_chemical_formula_structural   Ho2MgSe4
_chemical_formula_sum   'Ho16 Mg8 Se32'
_cell_volume   1393.37665177
_cell_formula_units_Z   8
loop_
 _symmetry_equiv_pos_site_id
 _symmetry_equiv_pos_as_xyz
  1  'x, y, z'
loop_
 _atom_site_type_symbol
 _atom_site_label
 _atom_site_symmetry_multiplicity
 _atom_site_fract_x
 _atom_site_fract_y
 _atom_site_fract_z
 _atom_site_occupancy
  Ho  Ho0  1  0.10779584  0.88269684  0.68595485  1
  Ho  Ho1  1  0.89220416  0.11730316  0.18595485  1
  Ho  Ho2  1  0.39220416  0.88269684  0.18595485  1
  Ho  Ho3  1  0.60779584  0.11730316  0.68595485  1
  Ho  Ho4  1  0.12750656  0.38128873  0.32639472  1
  Ho  Ho5  1  0.87249344  0.61871127  0.82639472  1
  Ho  Ho6  1  0.37249344  0.38128873  0.82639472  1
  Ho  Ho7  1  0.62750656  0.61871127  0.32639472  1
  Ho  Ho8  1  0.13325372  0.62873081  0.99033970  1
  Ho  Ho9  1  0.86674628  0.37126919  0.49033970  1
  Ho  Ho10  1  0.36674628  0.62873081  0.49033970  1
  Ho  Ho11  1  0.63325372  0.37126919  0.99033970  1
  Ho  Ho12  1  0.13336960  0.12902718  0.99103325  1
  Ho  Ho13  1  0.86663040  0.87097282  0.49103325  1
  Ho  Ho14  1  0.36663040  0.12902718  0.49103325  1
  Ho  Ho15  1  0.63336960  0.87097282  0.99103325  1
  Mg  Mg0  1  0.11141570  0.38250243  0.69060530  1
  Mg  Mg1  1  0.88858430  0.61749757  0.19060530  1
  Mg  Mg2  1  0.38858430  0.38250243  0.19060530  1
  Mg  Mg3  1  0.61141570  0.61749757  0.69060530  1
  Mg  Mg4  1  0.12631493  0.87906947  0.32108681  1
  Mg  Mg5  1  0.87368507  0.12093053  0.82108681  1
  Mg  Mg6  1  0.37368507  0.87906947  0.82108681  1
  Mg  Mg7  1  0.62631493  0.12093053  0.32108681  1
  Se  Se0  1  0.01326299  0.87698864  0.87748048  1
  Se  Se1  1  0.98673701  0.12301136  0.37748048  1
  Se  Se2  1  0.48673701  0.87698864  0.37748048  1
  Se  Se3  1  0.51326299  0.12301136  0.87748048  1
  Se  Se4  1  0.03473205  0.37644749  0.13029147  1
  Se  Se5  1  0.96526795  0.62355251  0.63029147  1
  Se  Se6  1  0.46526795  0.37644749  0.63029147  1
  Se  Se7  1  0.53473205  0.62355251  0.13029147  1
  Se  Se8  1  0.02132035  0.37303734  0.86911109  1
  Se  Se9  1  0.97867965  0.62696266  0.36911109  1
  Se  Se10  1  0.47867965  0.37303734  0.36911109  1
  Se  Se11  1  0.52132035  0.62696266  0.86911109  1
  Se  Se12  1  0.04189891  0.87268740  0.13596628  1
  Se  Se13  1  0.95810109  0.12731260  0.63596628  1
  Se  Se14  1  0.45810109  0.87268740  0.63596628  1
  Se  Se15  1  0.54189891  0.12731260  0.13596628  1
  Se  Se16  1  0.21178865  0.87941823  0.50347570  1
  Se  Se17  1  0.78821135  0.12058177  0.00347570  1
  Se  Se18  1  0.28821135  0.87941823  0.00347570  1
  Se  Se19  1  0.71178865  0.12058177  0.50347570  1
  Se  Se20  1  0.21253069  0.37964373  0.51853583  1
  Se  Se21  1  0.78746931  0.62035627  0.01853583  1
  Se  Se22  1  0.28746931  0.37964373  0.01853583  1
  Se  Se23  1  0.71253069  0.62035627  0.51853583  1
  Se  Se24  1  0.23135932  0.12826678  0.77809545  1
  Se  Se25  1  0.76864068  0.87173322  0.27809545  1
  Se  Se26  1  0.26864068  0.12826678  0.27809545  1
  Se  Se27  1  0.73135932  0.87173322  0.77809545  1
  Se  Se28  1  0.23066639  0.63194281  0.77863006  1
  Se  Se29  1  0.76933361  0.36805719  0.27863006  1
  Se  Se30  1  0.26933361  0.63194281  0.27863006  1
  Se  Se31  1  0.73066639  0.36805719  0.77863006  1
loop_
_geom_bond_atom_site_label_1
_geom_bond_atom_site_label_2
_geom_bond_distance
_geom_bond_site_symmetry_2
Ho0 Se16 2.808515 1_555
Ho0 Se24 2.814049 1_565
Ho0 Se13 2.837510 1_465
Ho0 Se28 2.840107 1_555
Ho0 Se0 2.858788 1_555
Ho0 Se5 2.871968 1_455
Ho1 Se17 2.808515 1_555
Ho1 Se25 2.814049 1_545
Ho1 Se12 2.837510 1_645
Ho1 Se29 2.840107 1_555
Ho1 Se1 2.858788 1_555
Ho1 Se4 2.871968 1_655
Ho2 Se18 2.808515 1_555
Ho2 Se26 2.814049 1_565
Ho2 Se15 2.837510 1_565
Ho2 Se30 2.840107 1_555
Ho2 Se2 2.858788 1_555
Ho2 Se7 2.871968 1_555
Ho3 Se19 2.808515 1_555
Ho3 Se27 2.814049 1_545
Ho3 Se14 2.837510 1_545
Ho3 Se31 2.840107 1_555
Ho3 Se3 2.858788 1_555
Ho3 Se6 2.871968 1_555
Ho4 Se30 2.792551 1_555
Ho4 Se26 2.801303 1_555
Ho4 Se20 2.813613 1_555
Ho4 Se9 2.813700 1_455
Ho4 Se1 2.836486 1_455
Ho4 Se4 2.904282 1_555
Ho5 Se31 2.792551 1_555
Ho5 Se27 2.801303 1_555
Ho5 Se21 2.813613 1_556
Ho5 Se8 2.813700 1_655
Ho5 Se0 2.836486 1_655
Ho5 Se5 2.904282 1_555
Ho6 Se28 2.792551 1_555
Ho6 Se24 2.801303 1_555
Ho6 Se22 2.813613 1_556
Ho6 Se11 2.813700 1_555
Ho6 Se3 2.836486 1_555
Ho6 Se6 2.904282 1_555
Ho7 Se29 2.792551 1_555
Ho7 Se25 2.801303 1_555
Ho7 Se23 2.813613 1_555
Ho7 Se10 2.813700 1_555
Ho7 Se2 2.836486 1_555
Ho7 Se7 2.904282 1_555
Ho8 Se18 2.845502 1_556
Ho8 Se22 2.849518 1_556
Ho8 Se0 2.935253 1_555
Ho8 Se8 2.979244 1_555
Ho8 Se12 2.993260 1_556
Ho8 Se4 3.026503 1_556
Ho8 Se28 3.120163 1_555
Ho9 Se19 2.845502 1_555
Ho9 Se23 2.849518 1_555
Ho9 Se1 2.935253 1_555
Ho9 Se9 2.979244 1_555
Ho9 Se13 2.993260 1_555
Ho9 Se5 3.026503 1_555
Ho9 Se29 3.120163 1_555
Ho10 Se16 2.845502 1_555
Ho10 Se20 2.849518 1_555
Ho10 Se2 2.935253 1_555
Ho10 Se10 2.979244 1_555
Ho10 Se14 2.993260 1_555
Ho10 Se6 3.026503 1_555
Ho10 Se30 3.120163 1_555
Ho11 Se17 2.845502 1_556
Ho11 Se21 2.849518 1_556
Ho11 Se3 2.935253 1_555
Ho11 Se11 2.979244 1_555
Ho11 Se15 2.993260 1_556
Ho11 Se7 3.026503 1_556
Ho11 Se31 3.120163 1_555
Ho12 Se18 2.837966 1_546
Ho12 Se22 2.855497 1_556
Ho12 Se8 2.923962 1_555
Ho12 Se0 2.960729 1_545
Ho12 Se4 2.996396 1_556
Ho12 Se12 3.051281 1_546
Ho12 Se24 3.138231 1_555
Ho13 Se19 2.837966 1_565
Ho13 Se23 2.855497 1_555
Ho13 Se9 2.923962 1_555
Ho13 Se1 2.960729 1_565
Ho13 Se5 2.996396 1_555
Ho13 Se13 3.051281 1_565
Ho13 Se25 3.138231 1_555
Ho14 Se16 2.837966 1_545
Ho14 Se20 2.855497 1_555
Ho14 Se10 2.923962 1_555
Ho14 Se2 2.960729 1_545
Ho14 Se6 2.996396 1_555
Ho14 Se14 3.051281 1_545
Ho14 Se26 3.138231 1_555
Ho15 Se17 2.837966 1_566
Ho15 Se21 2.855497 1_556
Ho15 Se11 2.923962 1_555
Ho15 Se3 2.960729 1_565
Ho15 Se7 2.996396 1_556
Ho15 Se15 3.051281 1_566
Ho15 Se27 3.138231 1_555
Mg0 Se20 2.668191 1_555
Mg0 Se8 2.676701 1_555
Mg0 Se28 2.778762 1_555
Mg0 Se24 2.807648 1_555
Mg0 Se5 2.822620 1_455
Mg0 Se13 2.942289 1_455
Mg1 Se21 2.668191 1_555
Mg1 Se9 2.676701 1_555
Mg1 Se29 2.778762 1_555
Mg1 Se25 2.807648 1_555
Mg1 Se4 2.822620 1_655
Mg1 Se12 2.942289 1_655
Mg2 Se22 2.668191 1_555
Mg2 Se10 2.676701 1_555
Mg2 Se30 2.778762 1_555
Mg2 Se26 2.807648 1_555
Mg2 Se7 2.822620 1_555
Mg2 Se15 2.942289 1_555
Mg3 Se23 2.668191 1_555
Mg3 Se11 2.676701 1_555
Mg3 Se31 2.778762 1_555
Mg3 Se27 2.807648 1_555
Mg3 Se6 2.822620 1_555
Mg3 Se14 2.942289 1_555
Mg4 Se16 2.696444 1_555
Mg4 Se12 2.724543 1_555
Mg4 Se1 2.764945 1_465
Mg4 Se30 2.768096 1_555
Mg4 Se26 2.774851 1_565
Mg4 Se9 2.853153 1_455
Mg5 Se17 2.696444 1_556
Mg5 Se13 2.724543 1_555
Mg5 Se0 2.764945 1_645
Mg5 Se31 2.768096 1_555
Mg5 Se27 2.774851 1_545
Mg5 Se8 2.853153 1_655
Mg6 Se18 2.696444 1_556
Mg6 Se14 2.724543 1_555
Mg6 Se3 2.764945 1_565
Mg6 Se28 2.768096 1_555
Mg6 Se24 2.774851 1_565
Mg6 Se11 2.853153 1_555
Mg7 Se19 2.696444 1_555
Mg7 Se15 2.724543 1_555
Mg7 Se2 2.764945 1_545
Mg7 Se29 2.768096 1_555
Mg7 Se25 2.774851 1_545
Mg7 Se10 2.853153 1_555
