# generated using pymatgen
data_UH4(BrO2)2
_symmetry_space_group_name_H-M   'P 1'
_cell_length_a   6.17412817
_cell_length_b   10.81519762
_cell_length_c   10.97123400
_cell_angle_alpha   90.00000000
_cell_angle_beta   90.00000000
_cell_angle_gamma   101.93782493
_symmetry_Int_Tables_number   1
_chemical_formula_structural   UH4(BrO2)2
_chemical_formula_sum   'U4 H16 Br8 O16'
_cell_volume   716.75359279
_cell_formula_units_Z   4
loop_
 _symmetry_equiv_pos_site_id
 _symmetry_equiv_pos_as_xyz
  1  'x, y, z'
loop_
 _atom_site_type_symbol
 _atom_site_label
 _atom_site_symmetry_multiplicity
 _atom_site_fract_x
 _atom_site_fract_y
 _atom_site_fract_z
 _atom_site_occupancy
  U  U0  1  0.91103400  0.39904000  0.69278200  1
  U  U1  1  0.08896600  0.10096000  0.19278200  1
  U  U2  1  0.08896600  0.60096000  0.30721800  1
  U  U3  1  0.91103400  0.89904000  0.80721800  1
  H  H0  1  0.63380300  0.25524700  0.90876900  1
  H  H1  1  0.36619700  0.24475300  0.40876900  1
  H  H2  1  0.36619700  0.74475300  0.09123100  1
  H  H3  1  0.63380300  0.75524700  0.59123100  1
  H  H4  1  0.86873400  0.30918900  0.96832000  1
  H  H5  1  0.13126600  0.19081100  0.46832000  1
  H  H6  1  0.13126600  0.69081100  0.03168000  1
  H  H7  1  0.86873400  0.80918900  0.53168000  1
  H  H8  1  0.49779600  0.17120500  0.67179500  1
  H  H9  1  0.50220400  0.32879500  0.17179500  1
  H  H10  1  0.50220400  0.82879500  0.32820500  1
  H  H11  1  0.49779600  0.67120500  0.82820500  1
  H  H12  1  0.40763800  0.29416500  0.70202200  1
  H  H13  1  0.59236200  0.20583500  0.20202200  1
  H  H14  1  0.59236200  0.70583500  0.29797800  1
  H  H15  1  0.40763800  0.79416500  0.79797800  1
  Br  Br0  1  0.25728600  0.46642000  0.86655900  1
  Br  Br1  1  0.74271400  0.03358000  0.36655900  1
  Br  Br2  1  0.74271400  0.53358000  0.13344100  1
  Br  Br3  1  0.25728600  0.96642000  0.63344100  1
  Br  Br4  1  0.74647500  0.41776700  0.43907300  1
  Br  Br5  1  0.25352500  0.08223300  0.93907300  1
  Br  Br6  1  0.25352500  0.58223300  0.56092700  1
  Br  Br7  1  0.74647500  0.91776700  0.06092700  1
  O  O0  1  0.77380200  0.52221600  0.73814100  1
  O  O1  1  0.22619800  0.97778400  0.23814100  1
  O  O2  1  0.22619800  0.47778400  0.26185900  1
  O  O3  1  0.77380200  0.02221600  0.76185900  1
  O  O4  1  0.03902400  0.27306600  0.63877600  1
  O  O5  1  0.96097600  0.22693400  0.13877600  1
  O  O6  1  0.96097600  0.72693400  0.36122400  1
  O  O7  1  0.03902400  0.77306600  0.86122400  1
  O  O8  1  0.78939500  0.29131500  0.89084200  1
  O  O9  1  0.21060500  0.20868500  0.39084200  1
  O  O10  1  0.21060500  0.70868500  0.10915800  1
  O  O11  1  0.78939500  0.79131500  0.60915800  1
  O  O12  1  0.54129600  0.26376700  0.68021500  1
  O  O13  1  0.45870400  0.23623300  0.18021500  1
  O  O14  1  0.45870400  0.73623300  0.31978500  1
  O  O15  1  0.54129600  0.76376700  0.81978500  1
loop_
_geom_bond_atom_site_label_1
_geom_bond_atom_site_label_2
_geom_bond_distance
_geom_bond_site_symmetry_2
H0 O8 0.979112 1_555
H1 O9 0.979112 1_555
H2 O10 0.979112 1_555
H3 O11 0.979112 1_555
H4 O8 0.980151 1_555
H5 O9 0.980151 1_555
H6 O10 0.980151 1_555
H7 O11 0.980151 1_555
H8 O12 0.985693 1_555
H9 O13 0.985693 1_555
H10 O14 0.985693 1_555
H11 O15 0.985693 1_555
H12 O12 0.979056 1_555
H13 O13 0.979056 1_555
H14 O14 0.979056 1_555
H15 O15 0.979056 1_555
Br0 U0 2.844588 1_455
Br1 U1 2.844588 1_655
Br2 U2 2.844588 1_655
Br3 U3 2.844588 1_455
Br4 U2 2.959114 1_655
Br4 U0 2.984343 1_555
Br5 U3 2.959114 1_445
Br5 U1 2.984343 1_556
Br6 U0 2.959114 1_455
Br6 U2 2.984343 1_555
Br7 U1 2.959114 1_665
Br7 U3 2.984343 1_554
O0 U0 1.790862 1_555
O1 U1 1.790862 1_565
O2 U2 1.790862 1_555
O3 U3 1.790862 1_545
O4 U0 1.810292 1_455
O5 U1 1.810292 1_655
O6 U2 1.810292 1_655
O7 U3 1.810292 1_455
