# generated using pymatgen
data_Sr3CaMn2S2O5
_symmetry_space_group_name_H-M   'P 1'
_cell_length_a   14.65198549
_cell_length_b   14.65198549
_cell_length_c   14.65198549
_cell_angle_alpha   164.41217707
_cell_angle_beta   164.41217707
_cell_angle_gamma   22.11358558
_symmetry_Int_Tables_number   1
_chemical_formula_structural   Sr3CaMn2S2O5
_chemical_formula_sum   'Sr3 Ca1 Mn2 S2 O5'
_cell_volume   227.08967972
_cell_formula_units_Z   1
loop_
 _symmetry_equiv_pos_site_id
 _symmetry_equiv_pos_as_xyz
  1  'x, y, z'
loop_
 _atom_site_type_symbol
 _atom_site_label
 _atom_site_symmetry_multiplicity
 _atom_site_fract_x
 _atom_site_fract_y
 _atom_site_fract_z
 _atom_site_occupancy
  Sr  Sr0  1  0.50000000  0.50000000  0.00000000  1
  Sr  Sr1  1  0.63077200  0.63077200  0.00000000  1
  Sr  Sr2  1  0.36922800  0.36922800  0.00000000  1
  Ca  Ca0  1  0.75000000  0.25000000  0.50000000  1
  Mn  Mn0  1  0.06818900  0.06818900  0.00000000  1
  Mn  Mn1  1  0.93181100  0.93181100  0.00000000  1
  S  S0  1  0.18478000  0.18478000  0.00000000  1
  S  S1  1  0.81522000  0.81522000  0.00000000  1
  O  O0  1  0.07507300  0.57507300  0.50000000  1
  O  O1  1  0.57531300  0.07531300  0.50000000  1
  O  O2  1  0.92468700  0.42468700  0.50000000  1
  O  O3  1  0.42492700  0.92492700  0.50000000  1
  O  O4  1  0.00000000  0.00000000  0.00000000  1
loop_
_geom_bond_atom_site_label_1
_geom_bond_atom_site_label_2
_geom_bond_distance
_geom_bond_site_symmetry_2
Ca0 S0 2.732465 1_555
Ca0 S0 2.732465 1_656
Ca0 S1 2.732465 1_545
Ca0 S1 2.732465 1_556
Mn0 O4 1.961117 1_555
Mn0 O0 1.996799 1_555
Mn0 O0 1.996799 1_544
Mn0 O1 1.997496 1_454
Mn0 O1 1.997496 1_555
Mn1 O4 1.961117 1_665
Mn1 O3 1.996799 1_554
Mn1 O3 1.996799 1_655
Mn1 O2 1.997496 1_554
Mn1 O2 1.997496 1_565
S0 Sr1 3.210712 1_455
S0 Sr1 3.210712 1_556
S0 Sr1 3.210712 1_444
S0 Sr1 3.210712 1_545
S1 Sr2 3.210712 1_554
S1 Sr2 3.210712 1_565
S1 Sr2 3.210712 1_655
S1 Sr2 3.210712 1_666
O0 Sr1 2.552275 1_556
O0 Sr1 2.552275 1_455
O0 Sr0 2.934234 1_556
O0 Sr0 2.934234 1_455
O1 Sr1 2.547948 1_545
O1 Sr1 2.547948 1_556
O1 Sr0 2.939316 1_545
O1 Sr0 2.939316 1_556
O2 Sr2 2.547948 1_555
O2 Sr2 2.547948 1_656
O2 Sr0 2.939316 1_555
O2 Sr0 2.939316 1_656
O3 Sr2 2.552275 1_555
O3 Sr2 2.552275 1_566
O3 Sr0 2.934234 1_555
O3 Sr0 2.934234 1_566
O4 Sr0 2.809986 1_444
O4 Sr0 2.809986 1_545
O4 Sr0 2.809986 1_455
O4 Sr0 2.809986 1_556
