# generated using pymatgen
data_Li3V2(PO4)3
_symmetry_space_group_name_H-M   'P 1'
_cell_length_a   9.17321218
_cell_length_b   9.17321218
_cell_length_c   16.57890034
_cell_angle_alpha   65.01741326
_cell_angle_beta   65.01741326
_cell_angle_gamma   57.70182636
_symmetry_Int_Tables_number   1
_chemical_formula_structural   Li3V2(PO4)3
_chemical_formula_sum   'Li12 V8 P12 O48'
_cell_volume   1033.08203726
_cell_formula_units_Z   4
loop_
 _symmetry_equiv_pos_site_id
 _symmetry_equiv_pos_as_xyz
  1  'x, y, z'
loop_
 _atom_site_type_symbol
 _atom_site_label
 _atom_site_symmetry_multiplicity
 _atom_site_fract_x
 _atom_site_fract_y
 _atom_site_fract_z
 _atom_site_occupancy
  Li  Li0  1  0.47137200  0.75928400  0.85043400  1
  Li  Li1  1  0.08698200  0.24703300  0.44477300  1
  Li  Li2  1  0.63156200  0.36843800  0.75000000  1
  Li  Li3  1  0.75296700  0.91301800  0.05522700  1
  Li  Li4  1  0.24071600  0.52862800  0.64956600  1
  Li  Li5  1  0.00000000  0.50000000  0.00000000  1
  Li  Li6  1  0.75928400  0.47137200  0.35043400  1
  Li  Li7  1  0.24703300  0.08698200  0.94477300  1
  Li  Li8  1  0.36843800  0.63156200  0.25000000  1
  Li  Li9  1  0.91301800  0.75296700  0.55522700  1
  Li  Li10  1  0.52862800  0.24071600  0.14956600  1
  Li  Li11  1  0.50000000  0.00000000  0.50000000  1
  V  V0  1  0.20927800  0.70980100  0.03269400  1
  V  V1  1  0.84442800  0.80401400  0.33696300  1
  V  V2  1  0.19598600  0.15557200  0.16303700  1
  V  V3  1  0.29019900  0.79072200  0.46730600  1
  V  V4  1  0.70980100  0.20927800  0.53269400  1
  V  V5  1  0.80401400  0.84442800  0.83696300  1
  V  V6  1  0.15557200  0.19598600  0.66303700  1
  V  V7  1  0.79072200  0.29019900  0.96730600  1
  P  P0  1  0.02776700  0.96219900  0.87337700  1
  P  P1  1  0.02601700  0.56205200  0.18945800  1
  P  P2  1  0.65773400  0.59735600  0.52941900  1
  P  P3  1  0.40264400  0.34226600  0.97058100  1
  P  P4  1  0.43794800  0.97398300  0.31054200  1
  P  P5  1  0.03780100  0.97223300  0.62662300  1
  P  P6  1  0.96219900  0.02776700  0.37337700  1
  P  P7  1  0.56205200  0.02601700  0.68945800  1
  P  P8  1  0.59735600  0.65773400  0.02941900  1
  P  P9  1  0.34226600  0.40264400  0.47058100  1
  P  P10  1  0.97398300  0.43794800  0.81054200  1
  P  P11  1  0.97223300  0.03780100  0.12662300  1
  O  O0  1  0.59976600  0.91411600  0.78643100  1
  O  O1  1  0.71647100  0.94661800  0.60888200  1
  O  O2  1  0.81073400  0.99918900  0.37354800  1
  O  O3  1  0.13392000  0.94546700  0.05223100  1
  O  O4  1  0.46376700  0.69154300  0.98164800  1
  O  O5  1  0.97978500  0.89107600  0.21702500  1
  O  O6  1  0.20703000  0.87407200  0.89834100  1
  O  O7  1  0.21943000  0.54721000  0.16138100  1
  O  O8  1  0.80230600  0.67325500  0.47050700  1
  O  O9  1  0.61004900  0.97206800  0.30462300  1
  O  O10  1  0.66599400  0.51605000  0.62899800  1
  O  O11  1  0.91411600  0.59976600  0.28643100  1
  O  O12  1  0.23637900  0.52352200  0.98481100  1
  O  O13  1  0.94661800  0.71647100  0.10888200  1
  O  O14  1  0.47647800  0.76362100  0.51518900  1
  O  O15  1  0.99918900  0.81073400  0.87354800  1
  O  O16  1  0.48395000  0.33400600  0.87100200  1
  O  O17  1  0.94546700  0.13392000  0.55223100  1
  O  O18  1  0.02793200  0.38995100  0.19537700  1
  O  O19  1  0.69154300  0.46376700  0.48164800  1
  O  O20  1  0.89107600  0.97978500  0.71702500  1
  O  O21  1  0.32674500  0.19769400  0.02949300  1
  O  O22  1  0.12592800  0.79297000  0.60165900  1
  O  O23  1  0.45279000  0.78057000  0.33861900  1
  O  O24  1  0.54721000  0.21943000  0.66138100  1
  O  O25  1  0.87407200  0.20703000  0.39834100  1
  O  O26  1  0.67325500  0.80230600  0.97050700  1
  O  O27  1  0.10892400  0.02021500  0.28297500  1
  O  O28  1  0.30845700  0.53623300  0.51835200  1
  O  O29  1  0.97206800  0.61004900  0.80462300  1
  O  O30  1  0.05453300  0.86608000  0.44776900  1
  O  O31  1  0.51605000  0.66599400  0.12899800  1
  O  O32  1  0.00081100  0.18926600  0.12645200  1
  O  O33  1  0.52352200  0.23637900  0.48481100  1
  O  O34  1  0.05338200  0.28352900  0.89111800  1
  O  O35  1  0.76362100  0.47647800  0.01518900  1
  O  O36  1  0.08588400  0.40023400  0.71356900  1
  O  O37  1  0.33400600  0.48395000  0.37100200  1
  O  O38  1  0.38995100  0.02793200  0.69537700  1
  O  O39  1  0.19769400  0.32674500  0.52949300  1
  O  O40  1  0.78057000  0.45279000  0.83861900  1
  O  O41  1  0.79297000  0.12592800  0.10165900  1
  O  O42  1  0.02021500  0.10892400  0.78297500  1
  O  O43  1  0.53623300  0.30845700  0.01835200  1
  O  O44  1  0.86608000  0.05453300  0.94776900  1
  O  O45  1  0.18926600  0.00081100  0.62645200  1
  O  O46  1  0.28352900  0.05338200  0.39111800  1
  O  O47  1  0.40023400  0.08588400  0.21356900  1
loop_
_geom_bond_atom_site_label_1
_geom_bond_atom_site_label_2
_geom_bond_distance
_geom_bond_site_symmetry_2
Li0 O4 1.974741 1_555
Li0 O6 1.992626 1_555
Li0 O0 1.997343 1_555
Li1 O46 1.937769 1_555
Li1 O17 1.964738 1_455
Li1 O39 2.530793 1_555
Li1 O25 2.610777 1_455
Li2 O16 1.893406 1_555
Li2 O10 1.893406 1_555
Li3 O13 1.937769 1_555
Li3 O44 1.964738 1_564
Li3 O26 2.530793 1_554
Li3 O41 2.610777 1_565
Li4 O28 1.974741 1_555
Li4 O22 1.992626 1_555
Li4 O36 1.997343 1_555
Li5 O35 2.191941 1_455
Li5 O12 2.191941 1_554
Li6 O19 1.974741 1_555
Li6 O25 1.992626 1_555
Li6 O11 1.997343 1_555
Li7 O34 1.937769 1_555
Li7 O3 1.964738 1_546
Li7 O21 2.530793 1_556
Li7 O6 2.610777 1_545
Li8 O37 1.893406 1_555
Li8 O31 1.893406 1_555
Li9 O1 1.937769 1_555
Li9 O30 1.964738 1_655
Li9 O8 2.530793 1_555
Li9 O22 2.610777 1_655
Li10 O43 1.974741 1_555
Li10 O41 1.992626 1_555
Li10 O47 1.997343 1_555
Li11 O14 2.191941 1_545
Li11 O33 2.191941 1_555
O0 P7 1.566659 1_565
O0 V5 2.052913 1_555
O1 P7 1.562840 1_565
O1 V4 2.177524 1_565
O2 P6 1.544186 1_565
O2 V1 1.958684 1_555
O3 P11 1.559841 1_465
O3 V0 2.015328 1_555
O4 P8 1.559267 1_556
O4 V0 2.056005 1_556
O5 P11 1.531917 1_565
O5 V1 1.940683 1_555
O6 P0 1.549377 1_555
O6 V0 2.098329 1_556
O7 P1 1.575072 1_555
O7 V0 2.028921 1_555
O8 P2 1.586092 1_555
O8 V1 2.004839 1_555
O9 P4 1.530768 1_555
O9 V1 2.005014 1_555
O10 P2 1.514173 1_555
O11 P1 1.566659 1_655
O11 V1 2.052913 1_555
O12 P3 1.569650 1_555
O12 V0 2.033978 1_556
O13 P1 1.562840 1_655
O13 V0 2.177524 1_655
O14 P2 1.569650 1_555
O14 V3 2.033978 1_555
O15 P0 1.544186 1_655
O15 V5 1.958684 1_555
O16 P3 1.514173 1_555
O17 P5 1.559841 1_645
O17 V4 2.015328 1_555
O18 P1 1.530768 1_555
O18 V2 2.005014 1_555
O19 P2 1.559267 1_555
O19 V4 2.056005 1_555
O20 P5 1.531917 1_655
O20 V5 1.940683 1_555
O21 P3 1.586092 1_554
O21 V2 2.004839 1_555
O22 P5 1.549377 1_555
O22 V3 2.098329 1_555
O23 P4 1.575072 1_555
O23 V3 2.028921 1_555
O24 P7 1.575072 1_555
O24 V4 2.028921 1_555
O25 P6 1.549377 1_555
O25 V4 2.098329 1_555
O26 P8 1.586092 1_556
O26 V5 2.004839 1_555
O27 P6 1.531917 1_455
O27 V2 1.940683 1_555
O28 P9 1.559267 1_555
O28 V3 2.056005 1_555
O29 P10 1.530768 1_555
O29 V5 2.005014 1_555
O30 P6 1.559841 1_465
O30 V3 2.015328 1_555
O31 P8 1.514173 1_555
O32 P11 1.544186 1_455
O32 V2 1.958684 1_555
O33 P9 1.569650 1_555
O33 V4 2.033978 1_555
O34 P10 1.562840 1_455
O34 V7 2.177524 1_455
O35 P8 1.569650 1_555
O35 V7 2.033978 1_554
O36 P10 1.566659 1_455
O36 V6 2.052913 1_555
O37 P9 1.514173 1_555
O38 P7 1.530768 1_555
O38 V6 2.005014 1_555
O39 P9 1.586092 1_555
O39 V6 2.004839 1_555
O40 P10 1.575072 1_555
O40 V7 2.028921 1_555
O41 P11 1.549377 1_555
O41 V7 2.098329 1_554
O42 P0 1.531917 1_545
O42 V6 1.940683 1_555
O43 P3 1.559267 1_554
O43 V7 2.056005 1_554
O44 P0 1.559841 1_645
O44 V7 2.015328 1_555
O45 P5 1.544186 1_545
O45 V6 1.958684 1_555
O46 P4 1.562840 1_545
O46 V3 2.177524 1_545
O47 P4 1.566659 1_545
O47 V2 2.052913 1_555
