# generated using pymatgen
data_VPO7
_symmetry_space_group_name_H-M   'P 1'
_cell_length_a   5.86797200
_cell_length_b   7.75251422
_cell_length_c   12.53803564
_cell_angle_alpha   89.74279463
_cell_angle_beta   78.03994690
_cell_angle_gamma   88.54104015
_symmetry_Int_Tables_number   1
_chemical_formula_structural   VPO7
_chemical_formula_sum   'V4 P4 O28'
_cell_volume   557.81192550
_cell_formula_units_Z   4
loop_
 _symmetry_equiv_pos_site_id
 _symmetry_equiv_pos_as_xyz
  1  'x, y, z'
loop_
 _atom_site_type_symbol
 _atom_site_label
 _atom_site_symmetry_multiplicity
 _atom_site_fract_x
 _atom_site_fract_y
 _atom_site_fract_z
 _atom_site_occupancy
  V  V0  1  0.50973300  0.75650300  0.36426600  1
  V  V1  1  0.49026700  0.24349700  0.63573400  1
  V  V2  1  0.03379700  0.74277400  0.86741900  1
  V  V3  1  0.96620300  0.25722600  0.13258100  1
  P  P0  1  0.23278500  0.65118400  0.61094000  1
  P  P1  1  0.76721500  0.34881600  0.38906000  1
  P  P2  1  0.74241000  0.84254800  0.11168000  1
  P  P3  1  0.25759000  0.15745200  0.88832000  1
  O  O0  1  0.24902800  0.72765200  0.72493600  1
  O  O1  1  0.75097200  0.27234800  0.27506400  1
  O  O2  1  0.74351200  0.76168200  0.22685400  1
  O  O3  1  0.25648800  0.23831800  0.77314600  1
  O  O4  1  0.93802500  0.74552800  0.02874300  1
  O  O5  1  0.06197500  0.25447200  0.97125700  1
  O  O6  1  0.39775400  0.76125300  0.52457500  1
  O  O7  1  0.60224600  0.23874700  0.47542500  1
  O  O8  1  0.34407300  0.62556300  0.88624900  1
  O  O9  1  0.65592700  0.37443700  0.11375100  1
  O  O10  1  0.80571500  0.88373900  0.38755900  1
  O  O11  1  0.19428500  0.11626100  0.61244100  1
  O  O12  1  0.29731300  0.45974200  0.60378900  1
  O  O13  1  0.70268700  0.54025800  0.39621100  1
  O  O14  1  0.77539400  0.03654800  0.11103100  1
  O  O15  1  0.22460600  0.96345200  0.88896900  1
  O  O16  1  0.30463600  0.63230600  0.32565200  1
  O  O17  1  0.69536400  0.36769400  0.67434800  1
  O  O18  1  0.82937600  0.88726600  0.83525500  1
  O  O19  1  0.17062400  0.11273400  0.16474500  1
  O  O20  1  0.98923200  0.69147600  0.58776000  1
  O  O21  1  0.01076800  0.30852400  0.41224000  1
  O  O22  1  0.51656200  0.79238500  0.07632700  1
  O  O23  1  0.48343800  0.20761500  0.92367300  1
  O  O24  1  0.37216600  0.94390400  0.34566100  1
  O  O25  1  0.62783400  0.05609600  0.65433900  1
  O  O26  1  0.88731000  0.56542000  0.85468300  1
  O  O27  1  0.11269000  0.43458000  0.14531700  1
loop_
_geom_bond_atom_site_label_1
_geom_bond_atom_site_label_2
_geom_bond_distance
_geom_bond_site_symmetry_2
O0 P0 1.571726 1_555
O0 V2 1.964557 1_555
O1 P1 1.571726 1_555
O1 V3 1.964557 1_555
O2 P2 1.572863 1_555
O2 V0 1.968350 1_555
O3 P3 1.572863 1_555
O3 V1 1.968350 1_555
O4 P2 1.559805 1_555
O4 V2 1.983985 1_654
O5 P3 1.559805 1_555
O5 V3 1.983985 1_456
O6 P0 1.561123 1_555
O6 V0 1.981189 1_555
O7 P1 1.561123 1_555
O7 V1 1.981189 1_555
O8 V2 2.070830 1_555
O9 V3 2.070830 1_555
O10 V0 2.091615 1_555
O11 V1 2.091615 1_555
O12 P0 1.520737 1_555
O12 V1 2.082820 1_555
O13 P1 1.520737 1_555
O13 V0 2.082820 1_555
O14 P2 1.521041 1_545
O14 V3 2.116741 1_555
O15 P3 1.521041 1_565
O15 V2 2.116741 1_555
O16 V0 1.707208 1_555
O17 V1 1.707208 1_555
O18 V2 1.727520 1_655
O19 V3 1.727520 1_455
O20 P0 1.540502 1_655
O21 P1 1.540502 1_455
O22 P2 1.541205 1_555
O23 P3 1.541205 1_555
O24 V0 1.682868 1_555
O25 V1 1.682868 1_555
O26 V2 1.665497 1_655
O27 V3 1.665497 1_455
