# generated using pymatgen
data_AlH2Pb3OF9
_symmetry_space_group_name_H-M   'P 1'
_cell_length_a   5.72727700
_cell_length_b   5.95258953
_cell_length_c   12.91554018
_cell_angle_alpha   98.75986918
_cell_angle_beta   94.05447989
_cell_angle_gamma   90.33955559
_symmetry_Int_Tables_number   1
_chemical_formula_structural   AlH2Pb3OF9
_chemical_formula_sum   'Al2 H4 Pb6 O2 F18'
_cell_volume   434.03069461
_cell_formula_units_Z   2
loop_
 _symmetry_equiv_pos_site_id
 _symmetry_equiv_pos_as_xyz
  1  'x, y, z'
loop_
 _atom_site_type_symbol
 _atom_site_label
 _atom_site_symmetry_multiplicity
 _atom_site_fract_x
 _atom_site_fract_y
 _atom_site_fract_z
 _atom_site_occupancy
  Al  Al0  1  0.20565400  0.38249300  0.69096500  1
  Al  Al1  1  0.79434600  0.61750700  0.30903500  1
  H  H0  1  0.40495600  0.65690900  0.43783800  1
  H  H1  1  0.59504400  0.34309100  0.56216200  1
  H  H2  1  0.17600500  0.74293900  0.49179600  1
  H  H3  1  0.82399500  0.25706100  0.50820400  1
  Pb  Pb0  1  0.69294900  0.88421300  0.63719100  1
  Pb  Pb1  1  0.30705100  0.11578700  0.36280900  1
  Pb  Pb2  1  0.23484400  0.95065600  0.88459600  1
  Pb  Pb3  1  0.76515600  0.04934400  0.11540400  1
  Pb  Pb4  1  0.72356400  0.49464800  0.88104700  1
  Pb  Pb5  1  0.27643600  0.50535200  0.11895300  1
  O  O0  1  0.34155700  0.78244000  0.48695200  1
  O  O1  1  0.65844300  0.21756000  0.51304800  1
  F  F0  1  0.95219100  0.22740600  0.72779900  1
  F  F1  1  0.04780900  0.77259400  0.27220100  1
  F  F2  1  0.26911500  0.49474900  0.83362700  1
  F  F3  1  0.73088500  0.50525100  0.16637300  1
  F  F4  1  0.14643300  0.27706400  0.55293900  1
  F  F5  1  0.85356700  0.72293600  0.44706100  1
  F  F6  1  0.48209700  0.52054900  0.66655400  1
  F  F7  1  0.51790300  0.47945100  0.33344600  1
  F  F8  1  0.38335500  0.13224800  0.71556600  1
  F  F9  1  0.61664500  0.86775200  0.28443400  1
  F  F10  1  0.03958200  0.63899700  0.68410700  1
  F  F11  1  0.96041800  0.36100300  0.31589300  1
  F  F12  1  0.50106500  0.76001000  0.00808600  1
  F  F13  1  0.49893500  0.23999000  0.99191400  1
  F  F14  1  0.99732100  0.75484300  0.00396500  1
  F  F15  1  0.00267900  0.24515700  0.99603500  1
  F  F16  1  0.70153500  0.86544300  0.82778500  1
  F  F17  1  0.29846500  0.13455700  0.17221500  1
loop_
_geom_bond_atom_site_label_1
_geom_bond_atom_site_label_2
_geom_bond_distance
_geom_bond_site_symmetry_2
Al0 F4 1.805008 1_555
Al0 F10 1.813923 1_555
Al0 F0 1.844288 1_455
Al0 F6 1.848122 1_555
Al0 F8 1.863353 1_555
Al0 F2 1.871105 1_555
Al1 F5 1.805008 1_555
Al1 F11 1.813923 1_555
Al1 F1 1.844288 1_655
Al1 F7 1.848122 1_555
Al1 F9 1.863353 1_555
Al1 F3 1.871105 1_555
H0 O0 0.991966 1_555
H1 O1 0.991966 1_555
H2 O0 0.984093 1_555
H3 O1 0.984093 1_555
O0 Pb0 2.694019 1_555
O0 Pb1 2.734249 1_565
O1 Pb1 2.694019 1_555
O1 Pb0 2.734249 1_545
F0 Pb0 2.595675 1_545
F0 Pb4 2.755875 1_555
F1 Pb1 2.595675 1_565
F1 Pb5 2.755875 1_555
F2 Pb4 2.631378 1_555
F3 Pb5 2.631378 1_555
F4 Pb1 2.722102 1_555
F5 Pb0 2.722102 1_555
F6 Pb0 2.563607 1_555
F7 Pb1 2.563607 1_555
F8 Pb0 2.485595 1_545
F9 Pb1 2.485595 1_565
F10 Pb0 2.563731 1_455
F11 Pb1 2.563731 1_655
F12 Pb3 2.474012 1_565
F12 Pb4 2.518183 1_554
F12 Pb2 2.526735 1_554
F12 Pb5 2.627141 1_555
F13 Pb2 2.474012 1_545
F13 Pb5 2.518183 1_556
F13 Pb3 2.526735 1_556
F13 Pb4 2.627141 1_555
F14 Pb4 2.499552 1_554
F14 Pb2 2.532036 1_654
F14 Pb3 2.538208 1_565
F14 Pb5 2.707551 1_655
F15 Pb5 2.499552 1_556
F15 Pb3 2.532036 1_456
F15 Pb2 2.538208 1_545
F15 Pb4 2.707551 1_455
F16 Pb4 2.411290 1_555
F16 Pb0 2.478148 1_555
F17 Pb5 2.411290 1_555
F17 Pb1 2.478148 1_555
