# generated using pymatgen
data_PuHg3
_symmetry_space_group_name_H-M   'P 1'
_cell_length_a   5.17024018
_cell_length_b   5.17024018
_cell_length_c   5.17024018
_cell_angle_alpha   60.00000000
_cell_angle_beta   60.00000000
_cell_angle_gamma   60.00000000
_symmetry_Int_Tables_number   1
_chemical_formula_structural   PuHg3
_chemical_formula_sum   'Pu1 Hg3'
_cell_volume   97.72758276
_cell_formula_units_Z   1
loop_
 _symmetry_equiv_pos_site_id
 _symmetry_equiv_pos_as_xyz
  1  'x, y, z'
loop_
 _atom_site_type_symbol
 _atom_site_label
 _atom_site_symmetry_multiplicity
 _atom_site_fract_x
 _atom_site_fract_y
 _atom_site_fract_z
 _atom_site_occupancy
  Pu  Pu0  1  0.74999900  0.74999900  0.74999900  1
  Hg  Hg0  1  0.50000000  0.50000000  0.50000000  1
  Hg  Hg1  1  0.00000000  0.00000000  -0.00000000  1
  Hg  Hg2  1  0.24999900  0.24999900  0.24999900  1
loop_
_geom_bond_atom_site_label_1
_geom_bond_atom_site_label_2
_geom_bond_distance
_geom_bond_site_symmetry_2
Hg0 Pu0 3.166100 1_555
Hg0 Hg2 3.166108 1_556
Hg0 Hg2 3.166108 1_655
Hg0 Hg2 3.166108 1_565
Hg0 Pu0 3.166117 1_455
Hg0 Pu0 3.166117 1_554
Hg0 Pu0 3.166117 1_545
Hg0 Hg2 3.166125 1_555
Hg1 Hg2 3.166100 1_555
Hg1 Pu0 3.166108 1_454
Hg1 Pu0 3.166108 1_544
Hg1 Pu0 3.166108 1_445
Hg1 Hg2 3.166117 1_545
Hg1 Hg2 3.166117 1_455
Hg1 Hg2 3.166117 1_554
Hg1 Pu0 3.166125 1_444
Hg2 Pu0 3.655912 1_545
Hg2 Pu0 3.655912 1_554
Hg2 Pu0 3.655912 1_544
Hg2 Pu0 3.655912 1_445
Hg2 Pu0 3.655912 1_454
Hg2 Pu0 3.655912 1_455
