# generated using pymatgen
data_NaYHg2
_symmetry_space_group_name_H-M   'P 1'
_cell_length_a   12.56034106
_cell_length_b   12.32045324
_cell_length_c   12.32045327
_cell_angle_alpha   59.64681616
_cell_angle_beta   59.35379891
_cell_angle_gamma   59.35379806
_symmetry_Int_Tables_number   1
_chemical_formula_structural   NaYHg2
_chemical_formula_sum   'Na1 Y1 Hg2'
_cell_volume   1331.30807938
_cell_formula_units_Z   1
loop_
 _symmetry_equiv_pos_site_id
 _symmetry_equiv_pos_as_xyz
  1  'x, y, z'
loop_
 _atom_site_type_symbol
 _atom_site_label
 _atom_site_symmetry_multiplicity
 _atom_site_fract_x
 _atom_site_fract_y
 _atom_site_fract_z
 _atom_site_occupancy
  Na  Na0  1  0.00000000  0.00000000  0.00000000  1
  Y  Y0  1  0.50000000  0.00000000  0.00000000  1
  Hg  Hg0  1  0.75470504  1.00000000  1.00000000  1
  Hg  Hg1  1  0.24529496  0.00000000  0.00000000  1
loop_
_geom_bond_atom_site_label_1
_geom_bond_atom_site_label_2
_geom_bond_distance
_geom_bond_site_symmetry_2
Hg0 Na0 3.080988 1_666
Hg0 Y0 3.199182 1_566
Hg1 Na0 3.080988 1_555
Hg1 Y0 3.199182 1_555
