# generated using pymatgen
data_Sr4Al6CrO16
_symmetry_space_group_name_H-M   'P 1'
_cell_length_a   8.26633047
_cell_length_b   8.26633047
_cell_length_c   8.26633047
_cell_angle_alpha   109.58934625
_cell_angle_beta   109.58934625
_cell_angle_gamma   109.23522683
_symmetry_Int_Tables_number   1
_chemical_formula_structural   Sr4Al6CrO16
_chemical_formula_sum   'Sr4 Al6 Cr1 O16'
_cell_volume   434.82136600
_cell_formula_units_Z   1
loop_
 _symmetry_equiv_pos_site_id
 _symmetry_equiv_pos_as_xyz
  1  'x, y, z'
loop_
 _atom_site_type_symbol
 _atom_site_label
 _atom_site_symmetry_multiplicity
 _atom_site_fract_x
 _atom_site_fract_y
 _atom_site_fract_z
 _atom_site_occupancy
  Sr  Sr0  1  0.50605900  0.00605900  0.01211800  1
  Sr  Sr1  1  0.99394100  0.00605900  0.50000000  1
  Sr  Sr2  1  0.99394100  0.49394100  0.98788200  1
  Sr  Sr3  1  0.50605900  0.49394100  0.50000000  1
  Al  Al0  1  0.49792200  0.24744400  0.74952200  1
  Al  Al1  1  0.75000000  0.25000000  0.50000000  1
  Al  Al2  1  0.25160100  0.50207800  0.74952200  1
  Al  Al3  1  0.25000000  0.75000000  0.50000000  1
  Al  Al4  1  0.49792200  0.74839900  0.25047800  1
  Al  Al5  1  0.75255600  0.50207800  0.25047800  1
  Cr  Cr0  1  0.00000000  0.00000000  0.00000000  1
  O  O0  1  0.65564300  0.99891200  0.34326900  1
  O  O1  1  0.32507400  0.66292800  0.66214600  1
  O  O2  1  0.66019800  0.33980200  0.00000000  1
  O  O3  1  0.33707200  0.99921900  0.66214600  1
  O  O4  1  0.00108800  0.34435700  0.65673100  1
  O  O5  1  0.66019800  0.66019800  0.32039600  1
  O  O6  1  0.65564300  0.31237300  0.65673100  1
  O  O7  1  0.00078100  0.66292800  0.33785400  1
  O  O8  1  0.33980200  0.66019800  0.00000000  1
  O  O9  1  0.33707200  0.67492600  0.33785400  1
  O  O10  1  0.68762700  0.34435700  0.34326900  1
  O  O11  1  0.33980200  0.33980200  0.67960400  1
  O  O12  1  0.89801900  0.75515500  0.85713700  1
  O  O13  1  0.95911800  0.10198100  0.85713700  1
  O  O14  1  0.24484500  0.10198100  0.14286300  1
  O  O15  1  0.89801900  0.04088200  0.14286300  1
loop_
_geom_bond_atom_site_label_1
_geom_bond_atom_site_label_2
_geom_bond_distance
_geom_bond_site_symmetry_2
Al0 O6 1.749807 1_555
Al0 O3 1.750579 1_545
Al0 O11 1.752765 1_555
Al0 O2 1.752765 1_556
Al1 O10 1.745693 1_555
Al1 O6 1.745693 1_555
Al1 O4 1.745694 1_655
Al1 O0 1.745694 1_545
Al2 O4 1.749815 1_555
Al2 O1 1.750584 1_555
Al2 O11 1.752759 1_555
Al2 O8 1.752767 1_556
Al3 O1 1.755901 1_555
Al3 O9 1.755901 1_555
Al3 O3 1.755907 1_555
Al3 O7 1.755907 1_555
Al4 O0 1.749815 1_555
Al4 O9 1.750584 1_555
Al4 O5 1.752759 1_555
Al4 O8 1.752767 1_555
Al5 O10 1.749807 1_555
Al5 O7 1.750579 1_655
Al5 O5 1.752765 1_555
Al5 O2 1.752765 1_555
Cr0 O15 1.675466 1_455
Cr0 O13 1.675466 1_454
Cr0 O14 1.675473 1_555
Cr0 O12 1.675473 1_444
O0 Sr1 2.629201 1_565
O0 Sr0 2.629201 1_565
O1 Sr3 2.729889 1_555
O1 Sr0 2.729889 1_566
O2 Sr0 2.683174 1_555
O2 Sr2 2.683174 1_554
O3 Sr1 2.729884 1_465
O3 Sr0 2.729893 1_566
O4 Sr1 2.629201 1_455
O4 Sr2 2.629201 1_455
O5 Sr1 2.683174 1_565
O5 Sr3 2.683174 1_555
O6 Sr2 2.629200 1_555
O6 Sr3 2.629209 1_555
O7 Sr1 2.729884 1_465
O7 Sr2 2.729893 1_454
O8 Sr2 2.683174 1_454
O8 Sr0 2.683174 1_565
O9 Sr3 2.729889 1_555
O9 Sr2 2.729889 1_454
O10 Sr0 2.629200 1_555
O10 Sr3 2.629209 1_555
O11 Sr3 2.683174 1_555
O11 Sr1 2.683174 1_455
O12 Sr2 2.928764 1_555
O12 Sr3 2.928772 1_555
O13 Sr2 2.928772 1_555
O13 Sr1 2.928772 1_555
O14 Sr0 2.928764 1_555
O14 Sr3 2.928772 1_555
O15 Sr1 2.928772 1_555
O15 Sr0 2.928772 1_555
