# generated using pymatgen
data_KHgH2I3O
_symmetry_space_group_name_H-M   'P 1'
_cell_length_a   8.69724500
_cell_length_b   9.64158800
_cell_length_c   11.98207100
_cell_angle_alpha   90.00000000
_cell_angle_beta   90.00000000
_cell_angle_gamma   90.00000000
_symmetry_Int_Tables_number   1
_chemical_formula_structural   KHgH2I3O
_chemical_formula_sum   'K4 Hg4 H8 I12 O4'
_cell_volume   1004.75959547
_cell_formula_units_Z   4
loop_
 _symmetry_equiv_pos_site_id
 _symmetry_equiv_pos_as_xyz
  1  'x, y, z'
loop_
 _atom_site_type_symbol
 _atom_site_label
 _atom_site_symmetry_multiplicity
 _atom_site_fract_x
 _atom_site_fract_y
 _atom_site_fract_z
 _atom_site_occupancy
  K  K0  1  0.55659700  0.84486600  0.56977600  1
  K  K1  1  0.44340300  0.15513400  0.06977600  1
  K  K2  1  0.94340300  0.34486600  0.06977600  1
  K  K3  1  0.05659700  0.65513400  0.56977600  1
  Hg  Hg0  1  0.24509700  0.20297600  0.42730200  1
  Hg  Hg1  1  0.75490300  0.79702400  0.92730200  1
  Hg  Hg2  1  0.25490300  0.70297600  0.92730200  1
  Hg  Hg3  1  0.74509700  0.29702400  0.42730200  1
  H  H0  1  0.93565700  0.93316000  0.49717700  1
  H  H1  1  0.06434300  0.06684000  0.99717700  1
  H  H2  1  0.56434300  0.43316000  0.99717700  1
  H  H3  1  0.43565700  0.56684000  0.49717700  1
  H  H4  1  0.89963700  0.96939800  0.61974400  1
  H  H5  1  0.10036300  0.03060200  0.11974400  1
  H  H6  1  0.60036300  0.46939800  0.11974400  1
  H  H7  1  0.39963700  0.53060200  0.61974400  1
  I  I0  1  0.23678300  0.92209700  0.36487900  1
  I  I1  1  0.76321700  0.07790300  0.86487900  1
  I  I2  1  0.26321700  0.42209700  0.86487900  1
  I  I3  1  0.73678300  0.57790300  0.36487900  1
  I  I4  1  0.26381600  0.41507800  0.27033800  1
  I  I5  1  0.73618400  0.58492200  0.77033800  1
  I  I6  1  0.23618400  0.91507800  0.77033800  1
  I  I7  1  0.76381600  0.08492200  0.27033800  1
  I  I8  1  0.50392800  0.22705600  0.58455500  1
  I  I9  1  0.49607200  0.77294400  0.08455500  1
  I  I10  1  0.99607200  0.72705600  0.08455500  1
  I  I11  1  0.00392800  0.27294400  0.58455500  1
  O  O0  1  0.87755800  0.90015500  0.56226800  1
  O  O1  1  0.12244200  0.09984500  0.06226800  1
  O  O2  1  0.62244200  0.40015500  0.06226800  1
  O  O3  1  0.37755800  0.59984500  0.56226800  1
loop_
_geom_bond_atom_site_label_1
_geom_bond_atom_site_label_2
_geom_bond_distance
_geom_bond_site_symmetry_2
K0 O3 2.830846 1_555
K0 O0 2.843343 1_555
K1 O2 2.830846 1_555
K1 O1 2.843343 1_555
K2 O1 2.830846 1_655
K2 O2 2.843343 1_555
K3 O0 2.830846 1_455
K3 O3 2.843343 1_555
Hg0 I4 2.783121 1_555
Hg0 I0 2.810441 1_545
Hg0 I11 2.899119 1_555
Hg0 I8 2.944775 1_555
Hg1 I5 2.783121 1_555
Hg1 I1 2.810441 1_565
Hg1 I10 2.899119 1_556
Hg1 I9 2.944775 1_556
Hg2 I6 2.783121 1_555
Hg2 I2 2.810441 1_555
Hg2 I9 2.899119 1_556
Hg2 I10 2.944775 1_456
Hg3 I7 2.783121 1_555
Hg3 I3 2.810441 1_555
Hg3 I8 2.899119 1_555
Hg3 I11 2.944775 1_655
H0 O0 0.982281 1_555
H1 O1 0.982281 1_556
H2 O2 0.982281 1_556
H3 O3 0.982281 1_555
H4 O0 0.978194 1_555
H5 O1 0.978194 1_555
H6 O2 0.978194 1_555
H7 O3 0.978194 1_555
I0 K0 3.784004 1_555
I0 K3 3.886971 1_555
I1 K1 3.784004 1_556
I1 K2 3.886971 1_556
I2 K2 3.784004 1_456
I2 K1 3.886971 1_556
I3 K3 3.784004 1_655
I3 K0 3.886971 1_555
I4 K2 3.741543 1_455
I4 K1 3.807374 1_555
I5 K3 3.741543 1_655
I5 K0 3.807374 1_555
I6 K0 3.741543 1_555
I6 K3 3.807374 1_555
I7 K1 3.741543 1_555
I7 K2 3.807374 1_555
I8 K0 3.717501 1_545
I9 K1 3.717501 1_565
I10 K2 3.717501 1_555
I11 K3 3.717501 1_555
