# generated using pymatgen
data_YV2Fe10N
_symmetry_space_group_name_H-M   'P 1'
_cell_length_a   4.74900900
_cell_length_b   6.50004986
_cell_length_c   6.50004986
_cell_angle_alpha   97.17511093
_cell_angle_beta   111.42639472
_cell_angle_gamma   68.57360528
_symmetry_Int_Tables_number   1
_chemical_formula_structural   YV2Fe10N
_chemical_formula_sum   'Y1 V2 Fe10 N1'
_cell_volume   173.86403871
_cell_formula_units_Z   1
loop_
 _symmetry_equiv_pos_site_id
 _symmetry_equiv_pos_as_xyz
  1  'x, y, z'
loop_
 _atom_site_type_symbol
 _atom_site_label
 _atom_site_symmetry_multiplicity
 _atom_site_fract_x
 _atom_site_fract_y
 _atom_site_fract_z
 _atom_site_occupancy
  Y  Y0  1  0.00000000  0.00000000  0.00000000  1
  V  V0  1  0.00000000  0.35904700  0.35904700  1
  V  V1  1  0.00000000  0.64095300  0.64095300  1
  Fe  Fe0  1  0.72466500  0.77533500  0.22466500  1
  Fe  Fe1  1  0.27533500  0.22466500  0.77533500  1
  Fe  Fe2  1  0.50000000  0.77679900  0.77679900  1
  Fe  Fe3  1  0.50000000  0.22320100  0.22320100  1
  Fe  Fe4  1  0.50000000  0.00000000  0.50000000  1
  Fe  Fe5  1  0.00000000  0.00000000  0.50000000  1
  Fe  Fe6  1  0.50000000  0.50000000  0.00000000  1
  Fe  Fe7  1  0.00000000  0.50000000  0.00000000  1
  Fe  Fe8  1  0.63933700  0.36066300  0.63933700  1
  Fe  Fe9  1  0.36066300  0.63933700  0.36066300  1
  N  N0  1  0.50000000  0.00000000  0.00000000  1
loop_
_geom_bond_atom_site_label_1
_geom_bond_atom_site_label_2
_geom_bond_distance
_geom_bond_site_symmetry_2
V0 V1 2.424177 1_555
V0 Y0 3.087531 1_555
V1 Y0 3.087531 1_566
Fe0 N0 1.912988 1_565
Fe0 Fe5 2.465316 1_665
Fe0 Fe7 2.465316 1_655
Fe0 Fe4 2.465317 1_565
Fe0 Fe6 2.465317 1_555
Fe0 V0 2.639230 1_655
Fe0 V1 2.639230 1_655
Fe0 Fe9 2.641825 1_655
Fe0 Fe9 2.641825 1_555
Fe1 N0 1.912988 1_556
Fe1 Fe7 2.465316 1_556
Fe1 Fe5 2.465316 1_555
Fe1 Fe4 2.465317 1_555
Fe1 Fe6 2.465317 1_556
Fe1 V0 2.639230 1_555
Fe1 V1 2.639230 1_555
Fe1 Fe8 2.641825 1_455
Fe1 Fe8 2.641825 1_555
Fe2 N0 1.919359 1_566
Fe2 Fe7 2.448283 1_656
Fe2 Fe5 2.448283 1_565
Fe2 Fe4 2.448283 1_565
Fe2 Fe6 2.448283 1_556
Fe2 V1 2.646299 1_655
Fe2 V1 2.646299 1_555
Fe2 Fe9 2.659561 1_555
Fe2 Fe8 2.659561 1_555
Fe3 N0 1.919359 1_555
Fe3 Fe7 2.448283 1_555
Fe3 Fe5 2.448283 1_655
Fe3 Fe6 2.448283 1_555
Fe3 Fe4 2.448283 1_555
Fe3 V0 2.646299 1_655
Fe3 V0 2.646299 1_555
Fe3 Fe8 2.659561 1_555
Fe3 Fe9 2.659561 1_555
Fe4 Fe5 2.374505 1_655
Fe4 Fe5 2.374505 1_555
Fe4 V1 2.611571 1_645
Fe4 V0 2.611571 1_555
Fe4 Fe8 2.630425 1_555
Fe4 Fe9 2.630425 1_545
Fe4 Y0 3.250025 1_555
Fe4 Y0 3.250025 1_656
Fe5 V0 2.611571 1_555
Fe5 V1 2.611571 1_545
Fe5 Fe8 2.630425 1_455
Fe5 Fe9 2.630425 1_545
Fe5 Y0 3.250025 1_556
Fe5 Y0 3.250025 1_555
Fe6 Fe7 2.374505 1_655
Fe6 Fe7 2.374505 1_555
Fe6 V1 2.611571 1_554
Fe6 V0 2.611571 1_655
Fe6 Fe9 2.630425 1_555
Fe6 Fe8 2.630425 1_554
Fe6 Y0 3.250025 1_655
Fe6 Y0 3.250025 1_565
Fe7 V1 2.611571 1_554
Fe7 V0 2.611571 1_555
Fe7 Fe9 2.630425 1_555
Fe7 Fe8 2.630425 1_454
Fe7 Y0 3.250025 1_555
Fe7 Y0 3.250025 1_565
Fe8 Fe9 2.372866 1_555
Fe8 V0 2.918056 1_555
Fe8 V1 2.918056 1_555
Fe8 V0 2.918057 1_655
Fe8 V1 2.918057 1_655
Fe8 Y0 3.070990 1_656
Fe9 V0 2.918056 1_655
Fe9 V1 2.918056 1_655
Fe9 V0 2.918057 1_555
Fe9 V1 2.918057 1_555
Fe9 Y0 3.070990 1_565
N0 Y0 2.374505 1_655
N0 Y0 2.374505 1_555
