# generated using pymatgen
data_Li9Co7O16
_symmetry_space_group_name_H-M   'P 1'
_cell_length_a   10.16045768
_cell_length_b   10.16045768
_cell_length_c   10.16045746
_cell_angle_alpha   32.95276876
_cell_angle_beta   32.95276876
_cell_angle_gamma   32.95276567
_symmetry_Int_Tables_number   1
_chemical_formula_structural   Li9Co7O16
_chemical_formula_sum   'Li9 Co7 O16'
_cell_volume   276.16490234
_cell_formula_units_Z   1
loop_
 _symmetry_equiv_pos_site_id
 _symmetry_equiv_pos_as_xyz
  1  'x, y, z'
loop_
 _atom_site_type_symbol
 _atom_site_label
 _atom_site_symmetry_multiplicity
 _atom_site_fract_x
 _atom_site_fract_y
 _atom_site_fract_z
 _atom_site_occupancy
  Li  Li0  1  0.25114500  0.25114500  0.25114500  1
  Li  Li1  1  0.24556200  0.75627200  0.24556200  1
  Li  Li2  1  0.24372800  0.75443800  0.75443800  1
  Li  Li3  1  0.24556200  0.24556200  0.75627200  1
  Li  Li4  1  0.75443800  0.75443800  0.24372800  1
  Li  Li5  1  0.75627200  0.24556200  0.24556200  1
  Li  Li6  1  0.75443800  0.24372800  0.75443800  1
  Li  Li7  1  0.74885500  0.74885500  0.74885500  1
  Li  Li8  1  0.00000000  0.00000000  0.00000000  1
  Co  Co0  1  0.50000000  0.50000000  0.00000000  1
  Co  Co1  1  0.50000000  0.00000000  0.50000000  1
  Co  Co2  1  0.50000000  0.00000000  0.00000000  1
  Co  Co3  1  0.50000000  0.50000000  0.50000000  1
  Co  Co4  1  0.00000000  0.50000000  0.00000000  1
  Co  Co5  1  0.00000000  0.50000000  0.50000000  1
  Co  Co6  1  0.00000000  0.00000000  0.50000000  1
  O  O0  1  0.14321000  0.60860400  0.14321000  1
  O  O1  1  0.12582600  0.12582600  0.12582600  1
  O  O2  1  0.14321000  0.14321000  0.60860400  1
  O  O3  1  0.12503600  0.62759200  0.62759200  1
  O  O4  1  0.60860400  0.14321000  0.14321000  1
  O  O5  1  0.62759200  0.62759200  0.12503600  1
  O  O6  1  0.63101000  0.63101000  0.63101000  1
  O  O7  1  0.62759200  0.12503600  0.62759200  1
  O  O8  1  0.37240800  0.87496400  0.37240800  1
  O  O9  1  0.36899000  0.36899000  0.36899000  1
  O  O10  1  0.37240800  0.37240800  0.87496400  1
  O  O11  1  0.39139600  0.85679000  0.85679000  1
  O  O12  1  0.87496400  0.37240800  0.37240800  1
  O  O13  1  0.85679000  0.85679000  0.39139600  1
  O  O14  1  0.87417400  0.87417400  0.87417400  1
  O  O15  1  0.85679000  0.39139600  0.85679000  1
loop_
_geom_bond_atom_site_label_1
_geom_bond_atom_site_label_2
_geom_bond_distance
_geom_bond_site_symmetry_2
Li0 O2 2.060534 1_555
Li0 O0 2.060534 1_555
Li0 O4 2.060534 1_555
Li0 O8 2.094330 1_545
Li0 O12 2.094330 1_455
Li0 O10 2.094330 1_554
Li1 O1 2.051897 1_565
Li1 O5 2.113887 1_555
Li1 O3 2.113887 1_555
Li1 O9 2.169178 1_555
Li1 O11 2.188238 1_554
Li1 O13 2.188238 1_455
Li2 O14 2.051897 1_455
Li2 O10 2.113887 1_555
Li2 O8 2.113887 1_555
Li2 O6 2.169178 1_555
Li2 O0 2.188238 1_556
Li2 O2 2.188238 1_565
Li3 O1 2.051897 1_556
Li3 O3 2.113887 1_555
Li3 O7 2.113887 1_555
Li3 O9 2.169178 1_555
Li3 O15 2.188238 1_455
Li3 O11 2.188238 1_545
Li4 O14 2.051897 1_554
Li4 O8 2.113887 1_555
Li4 O12 2.113887 1_555
Li4 O6 2.169178 1_555
Li4 O0 2.188238 1_655
Li4 O4 2.188238 1_565
Li5 O1 2.051897 1_655
Li5 O5 2.113887 1_555
Li5 O7 2.113887 1_555
Li5 O9 2.169178 1_555
Li5 O15 2.188238 1_554
Li5 O13 2.188238 1_545
Li6 O14 2.051897 1_545
Li6 O10 2.113887 1_555
Li6 O12 2.113887 1_555
Li6 O6 2.169178 1_555
Li6 O4 2.188238 1_556
Li6 O2 2.188238 1_655
Li7 O13 2.060534 1_555
Li7 O15 2.060534 1_555
Li7 O11 2.060534 1_555
Li7 O3 2.094330 1_655
Li7 O7 2.094330 1_565
Li7 O5 2.094330 1_556
Li8 O15 2.044539 1_454
Li8 O11 2.044539 1_544
Li8 O0 2.044539 1_545
Li8 O4 2.044539 1_455
Li8 O13 2.044539 1_445
Li8 O2 2.044539 1_554
Co0 O11 1.898786 1_554
Co0 O15 1.898786 1_554
Co0 O4 1.898786 1_555
Co0 O0 1.898786 1_555
Co0 O6 1.955163 1_554
Co0 O9 1.955163 1_555
Co1 O13 1.898786 1_545
Co1 O2 1.898786 1_555
Co1 O11 1.898786 1_545
Co1 O4 1.898786 1_555
Co1 O6 1.955163 1_545
Co1 O9 1.955163 1_555
Co2 O10 2.018981 1_554
Co2 O5 2.018981 1_545
Co2 O8 2.018981 1_545
Co2 O7 2.018981 1_554
Co2 O1 2.037546 1_555
Co2 O14 2.037546 1_544
Co3 O8 2.029467 1_555
Co3 O12 2.029467 1_555
Co3 O7 2.029467 1_555
Co3 O3 2.029467 1_555
Co3 O10 2.029467 1_555
Co3 O5 2.029467 1_555
Co4 O10 2.018981 1_554
Co4 O5 2.018981 1_455
Co4 O12 2.018981 1_455
Co4 O3 2.018981 1_554
Co4 O1 2.037546 1_555
Co4 O14 2.037546 1_454
Co5 O13 1.898786 1_455
Co5 O2 1.898786 1_555
Co5 O15 1.898786 1_455
Co5 O0 1.898786 1_555
Co5 O6 1.955163 1_455
Co5 O9 1.955163 1_555
Co6 O12 2.018981 1_455
Co6 O8 2.018981 1_545
Co6 O3 2.018981 1_545
Co6 O7 2.018981 1_455
Co6 O1 2.037546 1_555
Co6 O14 2.037546 1_445
