# generated using pymatgen
data_Mg2Bi
_symmetry_space_group_name_H-M   'P 1'
_cell_length_a   12.42665099
_cell_length_b   12.42665099
_cell_length_c   16.62743657
_cell_angle_alpha   68.73886283
_cell_angle_beta   68.73886283
_cell_angle_gamma   31.76017617
_symmetry_Int_Tables_number   1
_chemical_formula_structural   Mg2Bi
_chemical_formula_sum   'Mg32 Bi16'
_cell_volume   1251.78601097
_cell_formula_units_Z   16
loop_
 _symmetry_equiv_pos_site_id
 _symmetry_equiv_pos_as_xyz
  1  'x, y, z'
loop_
 _atom_site_type_symbol
 _atom_site_label
 _atom_site_symmetry_multiplicity
 _atom_site_fract_x
 _atom_site_fract_y
 _atom_site_fract_z
 _atom_site_occupancy
  Mg  Mg0_0  1  0.41459100  0.41459100  0.06742900  1
  Mg  Mg0_1  1  0.41459100  0.41459100  0.56742900  1
  Mg  Mg0_2  1  0.41459100  0.91459100  0.06742900  1
  Mg  Mg0_3  1  0.41459100  0.91459100  0.56742900  1
  Mg  Mg0_4  1  0.91459100  0.41459100  0.06742900  1
  Mg  Mg0_5  1  0.91459100  0.41459100  0.56742900  1
  Mg  Mg0_6  1  0.91459100  0.91459100  0.06742900  1
  Mg  Mg0_7  1  0.91459100  0.91459100  0.56742900  1
  Mg  Mg1_0  1  0.07566650  0.07566650  0.23446550  1
  Mg  Mg1_1  1  0.07566650  0.07566650  0.73446550  1
  Mg  Mg1_2  1  0.07566650  0.57566650  0.23446550  1
  Mg  Mg1_3  1  0.07566650  0.57566650  0.73446550  1
  Mg  Mg1_4  1  0.57566650  0.07566650  0.23446550  1
  Mg  Mg1_5  1  0.57566650  0.07566650  0.73446550  1
  Mg  Mg1_6  1  0.57566650  0.57566650  0.23446550  1
  Mg  Mg1_7  1  0.57566650  0.57566650  0.73446550  1
  Mg  Mg2_0  1  0.42433350  0.42433350  0.26553450  1
  Mg  Mg2_1  1  0.42433350  0.42433350  0.76553450  1
  Mg  Mg2_2  1  0.42433350  0.92433350  0.26553450  1
  Mg  Mg2_3  1  0.42433350  0.92433350  0.76553450  1
  Mg  Mg2_4  1  0.92433350  0.42433350  0.26553450  1
  Mg  Mg2_5  1  0.92433350  0.42433350  0.76553450  1
  Mg  Mg2_6  1  0.92433350  0.92433350  0.26553450  1
  Mg  Mg2_7  1  0.92433350  0.92433350  0.76553450  1
  Mg  Mg3_0  1  0.08540900  0.08540900  0.43257100  1
  Mg  Mg3_1  1  0.08540900  0.08540900  0.93257100  1
  Mg  Mg3_2  1  0.08540900  0.58540900  0.43257100  1
  Mg  Mg3_3  1  0.08540900  0.58540900  0.93257100  1
  Mg  Mg3_4  1  0.58540900  0.08540900  0.43257100  1
  Mg  Mg3_5  1  0.58540900  0.08540900  0.93257100  1
  Mg  Mg3_6  1  0.58540900  0.58540900  0.43257100  1
  Mg  Mg3_7  1  0.58540900  0.58540900  0.93257100  1
  Bi  Bi0_0  1  0.27383800  0.27383800  0.10720450  1
  Bi  Bi0_1  1  0.27383800  0.27383800  0.60720450  1
  Bi  Bi0_2  1  0.27383800  0.77383800  0.10720450  1
  Bi  Bi0_3  1  0.27383800  0.77383800  0.60720450  1
  Bi  Bi0_4  1  0.77383800  0.27383800  0.10720450  1
  Bi  Bi0_5  1  0.77383800  0.27383800  0.60720450  1
  Bi  Bi0_6  1  0.77383800  0.77383800  0.10720450  1
  Bi  Bi0_7  1  0.77383800  0.77383800  0.60720450  1
  Bi  Bi1_0  1  0.22616200  0.22616200  0.39279550  1
  Bi  Bi1_1  1  0.22616200  0.22616200  0.89279550  1
  Bi  Bi1_2  1  0.22616200  0.72616200  0.39279550  1
  Bi  Bi1_3  1  0.22616200  0.72616200  0.89279550  1
  Bi  Bi1_4  1  0.72616200  0.22616200  0.39279550  1
  Bi  Bi1_5  1  0.72616200  0.22616200  0.89279550  1
  Bi  Bi1_6  1  0.72616200  0.72616200  0.39279550  1
  Bi  Bi1_7  1  0.72616200  0.72616200  0.89279550  1
loop_
_geom_bond_atom_site_label_1
_geom_bond_atom_site_label_2
_geom_bond_distance
_geom_bond_site_symmetry_2
Mg0_0 Mg1_2 3.266700 1_555
Mg0_0 Mg1_4 3.266700 1_555
Mg0_0 Mg2_0 3.388661 1_555
Mg0_0 Mg0_6 3.400242 1_455
Mg0_0 Mg0_6 3.400242 1_545
Mg0_1 Mg1_3 3.266700 1_555
Mg0_1 Mg1_5 3.266700 1_555
Mg0_1 Mg2_1 3.388661 1_555
Mg0_1 Mg0_7 3.400242 1_455
Mg0_1 Mg0_7 3.400242 1_545
Mg0_2 Mg1_6 3.266700 1_555
Mg0_2 Mg1_0 3.266700 1_565
Mg0_2 Mg2_2 3.388661 1_555
Mg0_2 Mg0_4 3.400242 1_555
Mg0_2 Mg0_4 3.400242 1_465
Mg0_3 Mg1_7 3.266700 1_555
Mg0_3 Mg1_1 3.266700 1_565
Mg0_3 Mg2_3 3.388661 1_555
Mg0_3 Mg0_5 3.400242 1_555
Mg0_3 Mg0_5 3.400242 1_465
Mg0_4 Mg1_6 3.266700 1_555
Mg0_4 Mg1_0 3.266700 1_655
Mg0_4 Mg2_4 3.388661 1_555
Mg0_5 Mg1_7 3.266700 1_555
Mg0_5 Mg1_1 3.266700 1_655
Mg0_5 Mg2_5 3.388661 1_555
Mg0_6 Mg1_2 3.266700 1_655
Mg0_6 Mg1_4 3.266700 1_565
Mg0_6 Mg2_6 3.388661 1_555
Mg0_7 Mg1_3 3.266700 1_655
Mg0_7 Mg1_5 3.266700 1_565
Mg0_7 Mg2_7 3.388661 1_555
Mg1_0 Mg2_4 3.104688 1_455
Mg1_0 Mg2_2 3.104688 1_545
Mg1_0 Mg3_0 3.388661 1_555
Mg1_0 Mg1_6 3.400242 1_455
Mg1_0 Mg1_6 3.400242 1_545
Mg1_0 Mg2_6 3.456107 1_445
Mg1_1 Mg2_5 3.104688 1_455
Mg1_1 Mg2_3 3.104688 1_545
Mg1_1 Mg3_1 3.388661 1_555
Mg1_1 Mg1_7 3.400242 1_455
Mg1_1 Mg1_7 3.400242 1_545
Mg1_1 Mg2_7 3.456107 1_445
Mg1_2 Mg2_0 3.104688 1_555
Mg1_2 Mg2_6 3.104688 1_455
Mg1_2 Mg3_2 3.388661 1_555
Mg1_2 Mg1_4 3.400242 1_555
Mg1_2 Mg1_4 3.400242 1_465
Mg1_2 Mg2_4 3.456107 1_455
Mg1_3 Mg2_7 3.104688 1_455
Mg1_3 Mg2_1 3.104688 1_555
Mg1_3 Mg3_3 3.388661 1_555
Mg1_3 Mg1_5 3.400242 1_555
Mg1_3 Mg1_5 3.400242 1_465
Mg1_3 Mg2_5 3.456107 1_455
Mg1_4 Mg2_0 3.104688 1_555
Mg1_4 Mg2_6 3.104688 1_545
Mg1_4 Mg3_4 3.388661 1_555
Mg1_4 Mg2_2 3.456107 1_545
Mg1_5 Mg2_7 3.104688 1_545
Mg1_5 Mg2_1 3.104688 1_555
Mg1_5 Mg3_5 3.388661 1_555
Mg1_5 Mg2_3 3.456107 1_545
Mg1_6 Mg2_4 3.104688 1_555
Mg1_6 Mg2_2 3.104688 1_555
Mg1_6 Mg3_6 3.388661 1_555
Mg1_6 Mg2_0 3.456107 1_555
Mg1_7 Mg2_5 3.104688 1_555
Mg1_7 Mg2_3 3.104688 1_555
Mg1_7 Mg3_7 3.388661 1_555
Mg1_7 Mg2_1 3.456107 1_555
Mg2_0 Mg3_2 3.266700 1_555
Mg2_0 Mg3_4 3.266700 1_555
Mg2_0 Mg2_6 3.400242 1_455
Mg2_0 Mg2_6 3.400242 1_545
Mg2_1 Mg3_3 3.266700 1_555
Mg2_1 Mg3_5 3.266700 1_555
Mg2_1 Mg2_7 3.400242 1_455
Mg2_1 Mg2_7 3.400242 1_545
Mg2_2 Mg3_6 3.266700 1_555
Mg2_2 Mg3_0 3.266700 1_565
Mg2_2 Mg2_4 3.400242 1_555
Mg2_2 Mg2_4 3.400242 1_465
Mg2_3 Mg3_1 3.266700 1_565
Mg2_3 Mg3_7 3.266700 1_555
Mg2_3 Mg2_5 3.400242 1_555
Mg2_3 Mg2_5 3.400242 1_465
Mg2_4 Mg3_0 3.266700 1_655
Mg2_4 Mg3_6 3.266700 1_555
Mg2_5 Mg3_7 3.266700 1_555
Mg2_5 Mg3_1 3.266700 1_655
Mg2_6 Mg3_2 3.266700 1_655
Mg2_6 Mg3_4 3.266700 1_565
Mg2_7 Mg3_5 3.266700 1_565
Mg2_7 Mg3_3 3.266700 1_655
Mg3_0 Mg3_6 3.400242 1_545
Mg3_0 Mg3_6 3.400242 1_455
Mg3_1 Mg3_7 3.400242 1_455
Mg3_1 Mg3_7 3.400242 1_545
Mg3_2 Mg3_4 3.400242 1_555
Mg3_2 Mg3_4 3.400242 1_465
Mg3_3 Mg3_5 3.400242 1_555
Mg3_3 Mg3_5 3.400242 1_465
Bi0_0 Mg0_0 3.174987 1_555
Bi0_0 Mg3_3 3.204020 1_554
Bi0_0 Mg3_5 3.204020 1_554
Bi0_0 Mg2_4 3.279839 1_455
Bi0_0 Mg2_2 3.279839 1_545
Bi0_0 Mg1_4 3.298443 1_555
Bi0_0 Mg1_2 3.298443 1_555
Bi0_0 Mg0_2 3.383816 1_545
Bi0_0 Mg0_4 3.383816 1_455
Bi0_0 Bi0_6 3.400242 1_545
Bi0_0 Bi0_6 3.400242 1_455
Bi0_1 Mg0_1 3.174987 1_555
Bi0_1 Mg3_4 3.204020 1_555
Bi0_1 Mg3_2 3.204020 1_555
Bi0_1 Mg2_3 3.279839 1_545
Bi0_1 Mg2_5 3.279839 1_455
Bi0_1 Mg1_5 3.298443 1_555
Bi0_1 Mg1_3 3.298443 1_555
Bi0_1 Mg0_3 3.383816 1_545
Bi0_1 Mg0_5 3.383816 1_455
Bi0_1 Bi0_7 3.400242 1_545
Bi0_1 Bi0_7 3.400242 1_455
Bi0_2 Mg0_2 3.174987 1_555
Bi0_2 Mg3_7 3.204020 1_554
Bi0_2 Mg3_1 3.204020 1_564
Bi0_2 Mg2_6 3.279839 1_455
Bi0_2 Mg2_0 3.279839 1_555
Bi0_2 Mg1_0 3.298443 1_565
Bi0_2 Mg1_6 3.298443 1_555
Bi0_2 Mg0_6 3.383816 1_455
Bi0_2 Mg0_0 3.383816 1_555
Bi0_2 Bi0_4 3.400242 1_555
Bi0_2 Bi0_4 3.400242 1_465
Bi0_3 Mg0_3 3.174987 1_555
Bi0_3 Mg3_6 3.204020 1_555
Bi0_3 Mg3_0 3.204020 1_565
Bi0_3 Mg2_1 3.279839 1_555
Bi0_3 Mg2_7 3.279839 1_455
Bi0_3 Mg1_7 3.298443 1_555
Bi0_3 Mg1_1 3.298443 1_565
Bi0_3 Mg0_1 3.383816 1_555
Bi0_3 Mg0_7 3.383816 1_455
Bi0_3 Bi0_5 3.400242 1_555
Bi0_3 Bi0_5 3.400242 1_465
Bi0_4 Mg0_4 3.174987 1_555
Bi0_4 Mg3_7 3.204020 1_554
Bi0_4 Mg3_1 3.204020 1_654
Bi0_4 Mg2_6 3.279839 1_545
Bi0_4 Mg2_0 3.279839 1_555
Bi0_4 Mg1_6 3.298443 1_555
Bi0_4 Mg1_0 3.298443 1_655
Bi0_4 Mg0_6 3.383816 1_545
Bi0_4 Mg0_0 3.383816 1_555
Bi0_5 Mg0_5 3.174987 1_555
Bi0_5 Mg3_6 3.204020 1_555
Bi0_5 Mg3_0 3.204020 1_655
Bi0_5 Mg2_1 3.279839 1_555
Bi0_5 Mg2_7 3.279839 1_545
Bi0_5 Mg1_1 3.298443 1_655
Bi0_5 Mg1_7 3.298443 1_555
Bi0_5 Mg0_1 3.383816 1_555
Bi0_5 Mg0_7 3.383816 1_545
Bi0_6 Mg0_6 3.174987 1_555
Bi0_6 Mg3_3 3.204020 1_654
Bi0_6 Mg3_5 3.204020 1_564
Bi0_6 Mg2_2 3.279839 1_555
Bi0_6 Mg2_4 3.279839 1_555
Bi0_6 Mg1_4 3.298443 1_565
Bi0_6 Mg1_2 3.298443 1_655
Bi0_6 Mg0_2 3.383816 1_555
Bi0_6 Mg0_4 3.383816 1_555
Bi0_7 Mg0_7 3.174987 1_555
Bi0_7 Mg3_2 3.204020 1_655
Bi0_7 Mg3_4 3.204020 1_565
Bi0_7 Mg2_3 3.279839 1_555
Bi0_7 Mg2_5 3.279839 1_555
Bi0_7 Mg1_5 3.298443 1_565
Bi0_7 Mg1_3 3.298443 1_655
Bi0_7 Mg0_5 3.383816 1_555
Bi0_7 Mg0_3 3.383816 1_555
Bi1_0 Mg3_0 3.174987 1_555
Bi1_0 Mg0_5 3.204020 1_455
Bi1_0 Mg0_3 3.204020 1_545
Bi1_0 Mg1_4 3.279839 1_555
Bi1_0 Mg1_2 3.279839 1_555
Bi1_0 Mg2_4 3.298443 1_455
Bi1_0 Mg2_2 3.298443 1_545
Bi1_0 Mg3_4 3.383816 1_555
Bi1_0 Mg3_2 3.383816 1_555
Bi1_0 Bi1_6 3.400242 1_455
Bi1_0 Bi1_6 3.400242 1_545
Bi1_1 Mg3_1 3.174987 1_555
Bi1_1 Mg0_4 3.204020 1_456
Bi1_1 Mg0_2 3.204020 1_546
Bi1_1 Mg1_5 3.279839 1_555
Bi1_1 Mg1_3 3.279839 1_555
Bi1_1 Mg2_3 3.298443 1_545
Bi1_1 Mg2_5 3.298443 1_455
Bi1_1 Mg3_5 3.383816 1_555
Bi1_1 Mg3_3 3.383816 1_555
Bi1_1 Bi1_7 3.400242 1_455
Bi1_1 Bi1_7 3.400242 1_545
Bi1_2 Mg3_2 3.174987 1_555
Bi1_2 Mg0_1 3.204020 1_555
Bi1_2 Mg0_7 3.204020 1_455
Bi1_2 Mg1_6 3.279839 1_555
Bi1_2 Mg1_0 3.279839 1_565
Bi1_2 Mg2_6 3.298443 1_455
Bi1_2 Mg2_0 3.298443 1_555
Bi1_2 Mg3_6 3.383816 1_555
Bi1_2 Mg3_0 3.383816 1_565
Bi1_2 Bi1_4 3.400242 1_555
Bi1_2 Bi1_4 3.400242 1_465
Bi1_3 Mg3_3 3.174987 1_555
Bi1_3 Mg0_0 3.204020 1_556
Bi1_3 Mg0_6 3.204020 1_456
Bi1_3 Mg1_7 3.279839 1_555
Bi1_3 Mg1_1 3.279839 1_565
Bi1_3 Mg2_1 3.298443 1_555
Bi1_3 Mg2_7 3.298443 1_455
Bi1_3 Mg3_1 3.383816 1_565
Bi1_3 Mg3_7 3.383816 1_555
Bi1_3 Bi1_5 3.400242 1_555
Bi1_3 Bi1_5 3.400242 1_465
Bi1_4 Mg3_4 3.174987 1_555
Bi1_4 Mg0_1 3.204020 1_555
Bi1_4 Mg0_7 3.204020 1_545
Bi1_4 Mg1_0 3.279839 1_655
Bi1_4 Mg1_6 3.279839 1_555
Bi1_4 Mg2_6 3.298443 1_545
Bi1_4 Mg2_0 3.298443 1_555
Bi1_4 Mg3_6 3.383816 1_555
Bi1_4 Mg3_0 3.383816 1_655
Bi1_5 Mg3_5 3.174987 1_555
Bi1_5 Mg0_0 3.204020 1_556
Bi1_5 Mg0_6 3.204020 1_546
Bi1_5 Mg1_1 3.279839 1_655
Bi1_5 Mg1_7 3.279839 1_555
Bi1_5 Mg2_1 3.298443 1_555
Bi1_5 Mg2_7 3.298443 1_545
Bi1_5 Mg3_1 3.383816 1_655
Bi1_5 Mg3_7 3.383816 1_555
Bi1_6 Mg3_6 3.174987 1_555
Bi1_6 Mg0_5 3.204020 1_555
Bi1_6 Mg0_3 3.204020 1_555
Bi1_6 Mg1_4 3.279839 1_565
Bi1_6 Mg1_2 3.279839 1_655
Bi1_6 Mg2_2 3.298443 1_555
Bi1_6 Mg2_4 3.298443 1_555
Bi1_6 Mg3_4 3.383816 1_565
Bi1_6 Mg3_2 3.383816 1_655
Bi1_7 Mg3_7 3.174987 1_555
Bi1_7 Mg0_2 3.204020 1_556
Bi1_7 Mg0_4 3.204020 1_556
Bi1_7 Mg1_5 3.279839 1_565
Bi1_7 Mg1_3 3.279839 1_655
Bi1_7 Mg2_3 3.298443 1_555
Bi1_7 Mg2_5 3.298443 1_555
Bi1_7 Mg3_3 3.383816 1_655
Bi1_7 Mg3_5 3.383816 1_565
