# generated using pymatgen
data_Li5V3(CoO5)2
_symmetry_space_group_name_H-M   'P 1'
_cell_length_a   5.09575800
_cell_length_b   5.22848709
_cell_length_c   7.91970845
_cell_angle_alpha   107.28075895
_cell_angle_beta   102.66816620
_cell_angle_gamma   100.84873573
_symmetry_Int_Tables_number   1
_chemical_formula_structural   Li5V3(CoO5)2
_chemical_formula_sum   'Li5 V3 Co2 O10'
_cell_volume   189.16698997
_cell_formula_units_Z   1
loop_
 _symmetry_equiv_pos_site_id
 _symmetry_equiv_pos_as_xyz
  1  'x, y, z'
loop_
 _atom_site_type_symbol
 _atom_site_label
 _atom_site_symmetry_multiplicity
 _atom_site_fract_x
 _atom_site_fract_y
 _atom_site_fract_z
 _atom_site_occupancy
  Li  Li0  1  0.77210800  0.50408000  0.42172800  1
  Li  Li1  1  0.60771200  0.51047400  0.77386800  1
  Li  Li2  1  0.00000000  0.00000000  0.50000000  1
  Li  Li3  1  0.39228800  0.48952600  0.22613200  1
  Li  Li4  1  0.22789200  0.49592000  0.57827200  1
  V  V0  1  0.00000000  0.50000000  0.00000000  1
  V  V1  1  0.80174200  0.00970800  0.88182300  1
  V  V2  1  0.19825800  0.99029200  0.11817700  1
  Co  Co0  1  0.40783900  0.99682000  0.68047700  1
  Co  Co1  1  0.59216100  0.00318000  0.31952300  1
  O  O0  1  0.17860000  0.22909700  0.87191000  1
  O  O1  1  0.38819200  0.77317000  0.95837400  1
  O  O2  1  0.59471900  0.75358500  0.55035400  1
  O  O3  1  0.02444400  0.24880100  0.22300600  1
  O  O4  1  0.80941600  0.23381400  0.67185700  1
  O  O5  1  0.19058400  0.76618600  0.32814300  1
  O  O6  1  0.97555600  0.75119900  0.77699400  1
  O  O7  1  0.40528100  0.24641500  0.44964600  1
  O  O8  1  0.61180800  0.22683000  0.04162600  1
  O  O9  1  0.82140000  0.77090300  0.12809000  1
loop_
_geom_bond_atom_site_label_1
_geom_bond_atom_site_label_2
_geom_bond_distance
_geom_bond_site_symmetry_2
Li0 O2 1.901281 1_555
Li0 O7 2.183632 1_555
Li1 O4 2.007768 1_555
Li1 O6 2.042385 1_555
Li1 O1 2.318608 1_555
Li1 O7 2.399892 1_555
Li1 O2 2.463865 1_555
Li2 O5 2.080455 1_545
Li2 O4 2.080455 1_455
Li2 O2 2.397693 1_445
Li2 O7 2.397693 1_555
Li3 O5 2.007768 1_555
Li3 O3 2.042385 1_555
Li3 O8 2.318608 1_555
Li3 O2 2.399892 1_555
Li3 O7 2.463865 1_555
Li4 O7 1.901281 1_555
Li4 O2 2.183632 1_555
Co0 O2 1.921958 1_555
Co0 Li2 2.255351 1_565
Co0 O0 2.314074 1_565
Co0 O7 2.541362 1_565
Co1 O7 1.921958 1_555
Co1 Li2 2.255351 1_655
Co1 O9 2.314074 1_545
Co1 O2 2.541362 1_545
O0 V0 1.974876 1_556
O0 V1 2.073693 1_455
O1 V2 1.981031 1_556
O1 V0 2.358783 1_556
O2 V1 2.441831 1_565
O3 V2 1.845833 1_545
O6 V1 1.845833 1_565
O7 V2 2.441831 1_545
O8 V1 1.981031 1_554
O8 V0 2.358783 1_655
O9 V0 1.974876 1_655
O9 V2 2.073693 1_655
