# generated using pymatgen
data_Ce2InCu2
_symmetry_space_group_name_H-M   'P 1'
_cell_length_a   16.76018600
_cell_length_b   16.76018600
_cell_length_c   6.30907800
_cell_angle_alpha   90.00000000
_cell_angle_beta   90.00000000
_cell_angle_gamma   90.00000000
_symmetry_Int_Tables_number   1
_chemical_formula_structural   Ce2InCu2
_chemical_formula_sum   'Ce32 In16 Cu32'
_cell_volume   1772.24420397
_cell_formula_units_Z   16
loop_
 _symmetry_equiv_pos_site_id
 _symmetry_equiv_pos_as_xyz
  1  'x, y, z'
loop_
 _atom_site_type_symbol
 _atom_site_label
 _atom_site_symmetry_multiplicity
 _atom_site_fract_x
 _atom_site_fract_y
 _atom_site_fract_z
 _atom_site_occupancy
  Ce  Ce0_0  1  0.06070750  0.31070750  0.00000000  1
  Ce  Ce0_1  1  0.06070750  0.31070750  0.50000000  1
  Ce  Ce0_2  1  0.06070750  0.81070750  0.00000000  1
  Ce  Ce0_3  1  0.06070750  0.81070750  0.50000000  1
  Ce  Ce0_4  1  0.56070750  0.31070750  0.00000000  1
  Ce  Ce0_5  1  0.56070750  0.31070750  0.50000000  1
  Ce  Ce0_6  1  0.56070750  0.81070750  0.00000000  1
  Ce  Ce0_7  1  0.56070750  0.81070750  0.50000000  1
  Ce  Ce1_0  1  0.43929250  0.18929250  0.00000000  1
  Ce  Ce1_1  1  0.43929250  0.18929250  0.50000000  1
  Ce  Ce1_2  1  0.43929250  0.68929250  0.00000000  1
  Ce  Ce1_3  1  0.43929250  0.68929250  0.50000000  1
  Ce  Ce1_4  1  0.93929250  0.18929250  0.00000000  1
  Ce  Ce1_5  1  0.93929250  0.18929250  0.50000000  1
  Ce  Ce1_6  1  0.93929250  0.68929250  0.00000000  1
  Ce  Ce1_7  1  0.93929250  0.68929250  0.50000000  1
  Ce  Ce2_0  1  0.31070750  0.43929250  0.00000000  1
  Ce  Ce2_1  1  0.31070750  0.43929250  0.50000000  1
  Ce  Ce2_2  1  0.31070750  0.93929250  0.00000000  1
  Ce  Ce2_3  1  0.31070750  0.93929250  0.50000000  1
  Ce  Ce2_4  1  0.81070750  0.43929250  0.00000000  1
  Ce  Ce2_5  1  0.81070750  0.43929250  0.50000000  1
  Ce  Ce2_6  1  0.81070750  0.93929250  0.00000000  1
  Ce  Ce2_7  1  0.81070750  0.93929250  0.50000000  1
  Ce  Ce3_0  1  0.18929250  0.06070750  0.00000000  1
  Ce  Ce3_1  1  0.18929250  0.06070750  0.50000000  1
  Ce  Ce3_2  1  0.18929250  0.56070750  0.00000000  1
  Ce  Ce3_3  1  0.18929250  0.56070750  0.50000000  1
  Ce  Ce3_4  1  0.68929250  0.06070750  0.00000000  1
  Ce  Ce3_5  1  0.68929250  0.06070750  0.50000000  1
  Ce  Ce3_6  1  0.68929250  0.56070750  0.00000000  1
  Ce  Ce3_7  1  0.68929250  0.56070750  0.50000000  1
  In  In0_0  1  0.25000000  0.25000000  0.00000000  1
  In  In0_1  1  0.25000000  0.25000000  0.50000000  1
  In  In0_2  1  0.25000000  0.75000000  0.00000000  1
  In  In0_3  1  0.25000000  0.75000000  0.50000000  1
  In  In0_4  1  0.75000000  0.25000000  0.00000000  1
  In  In0_5  1  0.75000000  0.25000000  0.50000000  1
  In  In0_6  1  0.75000000  0.75000000  0.00000000  1
  In  In0_7  1  0.75000000  0.75000000  0.50000000  1
  In  In1_0  1  0.00000000  0.00000000  0.00000000  1
  In  In1_1  1  0.00000000  0.00000000  0.50000000  1
  In  In1_2  1  0.00000000  0.50000000  0.00000000  1
  In  In1_3  1  0.00000000  0.50000000  0.50000000  1
  In  In1_4  1  0.50000000  0.00000000  0.00000000  1
  In  In1_5  1  0.50000000  0.00000000  0.50000000  1
  In  In1_6  1  0.50000000  0.50000000  0.00000000  1
  In  In1_7  1  0.50000000  0.50000000  0.50000000  1
  Cu  Cu0_0  1  0.33446550  0.08446550  0.25000000  1
  Cu  Cu0_1  1  0.33446550  0.08446550  0.75000000  1
  Cu  Cu0_2  1  0.33446550  0.58446550  0.25000000  1
  Cu  Cu0_3  1  0.33446550  0.58446550  0.75000000  1
  Cu  Cu0_4  1  0.83446550  0.08446550  0.25000000  1
  Cu  Cu0_5  1  0.83446550  0.08446550  0.75000000  1
  Cu  Cu0_6  1  0.83446550  0.58446550  0.25000000  1
  Cu  Cu0_7  1  0.83446550  0.58446550  0.75000000  1
  Cu  Cu1_0  1  0.16553450  0.41553450  0.25000000  1
  Cu  Cu1_1  1  0.16553450  0.41553450  0.75000000  1
  Cu  Cu1_2  1  0.16553450  0.91553450  0.25000000  1
  Cu  Cu1_3  1  0.16553450  0.91553450  0.75000000  1
  Cu  Cu1_4  1  0.66553450  0.41553450  0.25000000  1
  Cu  Cu1_5  1  0.66553450  0.41553450  0.75000000  1
  Cu  Cu1_6  1  0.66553450  0.91553450  0.25000000  1
  Cu  Cu1_7  1  0.66553450  0.91553450  0.75000000  1
  Cu  Cu2_0  1  0.08446550  0.16553450  0.25000000  1
  Cu  Cu2_1  1  0.08446550  0.16553450  0.75000000  1
  Cu  Cu2_2  1  0.08446550  0.66553450  0.25000000  1
  Cu  Cu2_3  1  0.08446550  0.66553450  0.75000000  1
  Cu  Cu2_4  1  0.58446550  0.16553450  0.25000000  1
  Cu  Cu2_5  1  0.58446550  0.16553450  0.75000000  1
  Cu  Cu2_6  1  0.58446550  0.66553450  0.25000000  1
  Cu  Cu2_7  1  0.58446550  0.66553450  0.75000000  1
  Cu  Cu3_0  1  0.41553450  0.33446550  0.25000000  1
  Cu  Cu3_1  1  0.41553450  0.33446550  0.75000000  1
  Cu  Cu3_2  1  0.41553450  0.83446550  0.25000000  1
  Cu  Cu3_3  1  0.41553450  0.83446550  0.75000000  1
  Cu  Cu3_4  1  0.91553450  0.33446550  0.25000000  1
  Cu  Cu3_5  1  0.91553450  0.33446550  0.75000000  1
  Cu  Cu3_6  1  0.91553450  0.83446550  0.25000000  1
  Cu  Cu3_7  1  0.91553450  0.83446550  0.75000000  1
loop_
_geom_bond_atom_site_label_1
_geom_bond_atom_site_label_2
_geom_bond_distance
_geom_bond_site_symmetry_2
Ce0_0 Ce1_4 2.877837 1_455
Ce0_0 Cu2_0 2.926848 1_555
Ce0_0 Cu2_1 2.926848 1_554
Ce0_0 Cu3_4 2.926848 1_455
Ce0_0 Cu3_5 2.926848 1_454
Ce0_0 Cu1_0 2.943011 1_555
Ce0_0 Cu1_1 2.943011 1_554
Ce0_0 Ce0_1 3.154539 1_555
Ce0_0 Ce0_1 3.154539 1_554
Ce0_0 In0_0 3.331740 1_555
Ce0_0 In1_2 3.331740 1_555
Ce0_1 Ce1_5 2.877837 1_455
Ce0_1 Cu2_1 2.926848 1_555
Ce0_1 Cu2_0 2.926848 1_555
Ce0_1 Cu3_4 2.926848 1_455
Ce0_1 Cu3_5 2.926848 1_455
Ce0_1 Cu1_0 2.943011 1_555
Ce0_1 Cu1_1 2.943011 1_555
Ce0_1 In0_1 3.331740 1_555
Ce0_1 In1_3 3.331740 1_555
Ce0_2 Ce1_6 2.877837 1_455
Ce0_2 Cu2_2 2.926848 1_555
Ce0_2 Cu2_3 2.926848 1_554
Ce0_2 Cu3_6 2.926848 1_455
Ce0_2 Cu3_7 2.926848 1_454
Ce0_2 Cu1_2 2.943011 1_555
Ce0_2 Cu1_3 2.943011 1_554
Ce0_2 Ce0_3 3.154539 1_555
Ce0_2 Ce0_3 3.154539 1_554
Ce0_2 In0_2 3.331740 1_555
Ce0_2 In1_0 3.331740 1_565
Ce0_3 Ce1_7 2.877837 1_455
Ce0_3 Cu2_2 2.926848 1_555
Ce0_3 Cu2_3 2.926848 1_555
Ce0_3 Cu3_7 2.926848 1_455
Ce0_3 Cu3_6 2.926848 1_455
Ce0_3 Cu1_2 2.943011 1_555
Ce0_3 Cu1_3 2.943011 1_555
Ce0_3 In0_3 3.331740 1_555
Ce0_3 In1_1 3.331740 1_565
Ce0_4 Ce1_0 2.877837 1_555
Ce0_4 Cu2_4 2.926848 1_555
Ce0_4 Cu2_5 2.926848 1_554
Ce0_4 Cu3_0 2.926848 1_555
Ce0_4 Cu3_1 2.926848 1_554
Ce0_4 Cu1_4 2.943011 1_555
Ce0_4 Cu1_5 2.943011 1_554
Ce0_4 Ce0_5 3.154539 1_555
Ce0_4 Ce0_5 3.154539 1_554
Ce0_4 In0_4 3.331740 1_555
Ce0_4 In1_6 3.331740 1_555
Ce0_5 Ce1_1 2.877837 1_555
Ce0_5 Cu2_5 2.926848 1_555
Ce0_5 Cu2_4 2.926848 1_555
Ce0_5 Cu3_0 2.926848 1_555
Ce0_5 Cu3_1 2.926848 1_555
Ce0_5 Cu1_5 2.943011 1_555
Ce0_5 Cu1_4 2.943011 1_555
Ce0_5 In0_5 3.331740 1_555
Ce0_5 In1_7 3.331740 1_555
Ce0_6 Ce1_2 2.877837 1_555
Ce0_6 Cu2_6 2.926848 1_555
Ce0_6 Cu2_7 2.926848 1_554
Ce0_6 Cu3_2 2.926848 1_555
Ce0_6 Cu3_3 2.926848 1_554
Ce0_6 Cu1_6 2.943011 1_555
Ce0_6 Cu1_7 2.943011 1_554
Ce0_6 Ce0_7 3.154539 1_555
Ce0_6 Ce0_7 3.154539 1_554
Ce0_6 In0_6 3.331740 1_555
Ce0_6 In1_4 3.331740 1_565
Ce0_7 Ce1_3 2.877837 1_555
Ce0_7 Cu2_6 2.926848 1_555
Ce0_7 Cu2_7 2.926848 1_555
Ce0_7 Cu3_2 2.926848 1_555
Ce0_7 Cu3_3 2.926848 1_555
Ce0_7 Cu1_6 2.943011 1_555
Ce0_7 Cu1_7 2.943011 1_555
Ce0_7 In0_7 3.331740 1_555
Ce0_7 In1_5 3.331740 1_565
Ce1_0 Cu3_0 2.926848 1_555
Ce1_0 Cu3_1 2.926848 1_554
Ce1_0 Cu2_4 2.926848 1_555
Ce1_0 Cu2_5 2.926848 1_554
Ce1_0 Cu0_0 2.943011 1_555
Ce1_0 Cu0_1 2.943011 1_554
Ce1_0 Ce1_1 3.154539 1_555
Ce1_0 Ce1_1 3.154539 1_554
Ce1_0 In0_0 3.331740 1_555
Ce1_0 In1_4 3.331740 1_555
Ce1_1 Cu3_0 2.926848 1_555
Ce1_1 Cu3_1 2.926848 1_555
Ce1_1 Cu2_4 2.926848 1_555
Ce1_1 Cu2_5 2.926848 1_555
Ce1_1 Cu0_0 2.943011 1_555
Ce1_1 Cu0_1 2.943011 1_555
Ce1_1 In0_1 3.331740 1_555
Ce1_1 In1_5 3.331740 1_555
Ce1_2 Cu3_2 2.926848 1_555
Ce1_2 Cu3_3 2.926848 1_554
Ce1_2 Cu2_6 2.926848 1_555
Ce1_2 Cu2_7 2.926848 1_554
Ce1_2 Cu0_2 2.943011 1_555
Ce1_2 Cu0_3 2.943011 1_554
Ce1_2 Ce1_3 3.154539 1_555
Ce1_2 Ce1_3 3.154539 1_554
Ce1_2 In0_2 3.331740 1_555
Ce1_2 In1_6 3.331740 1_555
Ce1_3 Cu3_3 2.926848 1_555
Ce1_3 Cu3_2 2.926848 1_555
Ce1_3 Cu2_7 2.926848 1_555
Ce1_3 Cu2_6 2.926848 1_555
Ce1_3 Cu0_2 2.943011 1_555
Ce1_3 Cu0_3 2.943011 1_555
Ce1_3 In0_3 3.331740 1_555
Ce1_3 In1_7 3.331740 1_555
Ce1_4 Cu3_4 2.926848 1_555
Ce1_4 Cu3_5 2.926848 1_554
Ce1_4 Cu2_0 2.926848 1_655
Ce1_4 Cu2_1 2.926848 1_654
Ce1_4 Cu0_4 2.943011 1_555
Ce1_4 Cu0_5 2.943011 1_554
Ce1_4 Ce1_5 3.154539 1_555
Ce1_4 Ce1_5 3.154539 1_554
Ce1_4 In1_0 3.331740 1_655
Ce1_4 In0_4 3.331740 1_555
Ce1_5 Cu3_5 2.926848 1_555
Ce1_5 Cu3_4 2.926848 1_555
Ce1_5 Cu2_0 2.926848 1_655
Ce1_5 Cu2_1 2.926848 1_655
Ce1_5 Cu0_5 2.943011 1_555
Ce1_5 Cu0_4 2.943011 1_555
Ce1_5 In1_1 3.331740 1_655
Ce1_5 In0_5 3.331740 1_555
Ce1_6 Cu3_6 2.926848 1_555
Ce1_6 Cu3_7 2.926848 1_554
Ce1_6 Cu2_2 2.926848 1_655
Ce1_6 Cu2_3 2.926848 1_654
Ce1_6 Cu0_6 2.943011 1_555
Ce1_6 Cu0_7 2.943011 1_554
Ce1_6 Ce1_7 3.154539 1_555
Ce1_6 Ce1_7 3.154539 1_554
Ce1_6 In1_2 3.331740 1_655
Ce1_6 In0_6 3.331740 1_555
Ce1_7 Cu3_6 2.926848 1_555
Ce1_7 Cu3_7 2.926848 1_555
Ce1_7 Cu2_2 2.926848 1_655
Ce1_7 Cu2_3 2.926848 1_655
Ce1_7 Cu0_6 2.943011 1_555
Ce1_7 Cu0_7 2.943011 1_555
Ce1_7 In1_3 3.331740 1_655
Ce1_7 In0_7 3.331740 1_555
Ce2_0 Ce3_2 2.877837 1_555
Ce2_0 Cu1_0 2.926848 1_555
Ce2_0 Cu1_1 2.926848 1_554
Ce2_0 Cu0_2 2.926848 1_555
Ce2_0 Cu0_3 2.926848 1_554
Ce2_0 Cu3_0 2.943011 1_555
Ce2_0 Cu3_1 2.943011 1_554
Ce2_0 Ce2_1 3.154539 1_555
Ce2_0 Ce2_1 3.154539 1_554
Ce2_0 In0_0 3.331740 1_555
Ce2_0 In1_6 3.331740 1_555
Ce2_1 Ce3_3 2.877837 1_555
Ce2_1 Cu1_1 2.926848 1_555
Ce2_1 Cu1_0 2.926848 1_555
Ce2_1 Cu0_3 2.926848 1_555
Ce2_1 Cu0_2 2.926848 1_555
Ce2_1 Cu3_0 2.943011 1_555
Ce2_1 Cu3_1 2.943011 1_555
Ce2_1 In0_1 3.331740 1_555
Ce2_1 In1_7 3.331740 1_555
Ce2_2 Ce3_0 2.877837 1_565
Ce2_2 Cu1_2 2.926848 1_555
Ce2_2 Cu1_3 2.926848 1_554
Ce2_2 Cu0_0 2.926848 1_565
Ce2_2 Cu0_1 2.926848 1_564
Ce2_2 Cu3_2 2.943011 1_555
Ce2_2 Cu3_3 2.943011 1_554
Ce2_2 Ce2_3 3.154539 1_555
Ce2_2 Ce2_3 3.154539 1_554
Ce2_2 In0_2 3.331740 1_555
Ce2_2 In1_4 3.331740 1_565
Ce2_3 Ce3_1 2.877837 1_565
Ce2_3 Cu1_3 2.926848 1_555
Ce2_3 Cu1_2 2.926848 1_555
Ce2_3 Cu0_0 2.926848 1_565
Ce2_3 Cu0_1 2.926848 1_565
Ce2_3 Cu3_3 2.943011 1_555
Ce2_3 Cu3_2 2.943011 1_555
Ce2_3 In0_3 3.331740 1_555
Ce2_3 In1_5 3.331740 1_565
Ce2_4 Ce3_6 2.877837 1_555
Ce2_4 Cu1_4 2.926848 1_555
Ce2_4 Cu1_5 2.926848 1_554
Ce2_4 Cu0_6 2.926848 1_555
Ce2_4 Cu0_7 2.926848 1_554
Ce2_4 Cu3_4 2.943011 1_555
Ce2_4 Cu3_5 2.943011 1_554
Ce2_4 Ce2_5 3.154539 1_555
Ce2_4 Ce2_5 3.154539 1_554
Ce2_4 In0_4 3.331740 1_555
Ce2_4 In1_2 3.331740 1_655
Ce2_5 Ce3_7 2.877837 1_555
Ce2_5 Cu1_5 2.926848 1_555
Ce2_5 Cu1_4 2.926848 1_555
Ce2_5 Cu0_6 2.926848 1_555
Ce2_5 Cu0_7 2.926848 1_555
Ce2_5 Cu3_4 2.943011 1_555
Ce2_5 Cu3_5 2.943011 1_555
Ce2_5 In0_5 3.331740 1_555
Ce2_5 In1_3 3.331740 1_655
Ce2_6 Ce3_4 2.877837 1_565
Ce2_6 Cu1_6 2.926848 1_555
Ce2_6 Cu1_7 2.926848 1_554
Ce2_6 Cu0_4 2.926848 1_565
Ce2_6 Cu0_5 2.926848 1_564
Ce2_6 Cu3_6 2.943011 1_555
Ce2_6 Cu3_7 2.943011 1_554
Ce2_6 Ce2_7 3.154539 1_555
Ce2_6 Ce2_7 3.154539 1_554
Ce2_6 In0_6 3.331740 1_555
Ce2_6 In1_0 3.331740 1_665
Ce2_7 Ce3_5 2.877837 1_565
Ce2_7 Cu1_6 2.926848 1_555
Ce2_7 Cu1_7 2.926848 1_555
Ce2_7 Cu0_5 2.926848 1_565
Ce2_7 Cu0_4 2.926848 1_565
Ce2_7 Cu3_7 2.943011 1_555
Ce2_7 Cu3_6 2.943011 1_555
Ce2_7 In0_7 3.331740 1_555
Ce2_7 In1_1 3.331740 1_665
Ce3_0 Cu0_0 2.926848 1_555
Ce3_0 Cu0_1 2.926848 1_554
Ce3_0 Cu1_2 2.926848 1_545
Ce3_0 Cu1_3 2.926848 1_544
Ce3_0 Cu2_0 2.943011 1_555
Ce3_0 Cu2_1 2.943011 1_554
Ce3_0 Ce3_1 3.154539 1_555
Ce3_0 Ce3_1 3.154539 1_554
Ce3_0 In0_0 3.331740 1_555
Ce3_0 In1_0 3.331740 1_555
Ce3_1 Cu0_0 2.926848 1_555
Ce3_1 Cu0_1 2.926848 1_555
Ce3_1 Cu1_2 2.926848 1_545
Ce3_1 Cu1_3 2.926848 1_545
Ce3_1 Cu2_0 2.943011 1_555
Ce3_1 Cu2_1 2.943011 1_555
Ce3_1 In1_1 3.331740 1_555
Ce3_1 In0_1 3.331740 1_555
Ce3_2 Cu0_2 2.926848 1_555
Ce3_2 Cu0_3 2.926848 1_554
Ce3_2 Cu1_0 2.926848 1_555
Ce3_2 Cu1_1 2.926848 1_554
Ce3_2 Cu2_2 2.943011 1_555
Ce3_2 Cu2_3 2.943011 1_554
Ce3_2 Ce3_3 3.154539 1_555
Ce3_2 Ce3_3 3.154539 1_554
Ce3_2 In0_2 3.331740 1_555
Ce3_2 In1_2 3.331740 1_555
Ce3_3 Cu0_3 2.926848 1_555
Ce3_3 Cu0_2 2.926848 1_555
Ce3_3 Cu1_1 2.926848 1_555
Ce3_3 Cu1_0 2.926848 1_555
Ce3_3 Cu2_2 2.943011 1_555
Ce3_3 Cu2_3 2.943011 1_555
Ce3_3 In0_3 3.331740 1_555
Ce3_3 In1_3 3.331740 1_555
Ce3_4 Cu0_4 2.926848 1_555
Ce3_4 Cu0_5 2.926848 1_554
Ce3_4 Cu1_6 2.926848 1_545
Ce3_4 Cu1_7 2.926848 1_544
Ce3_4 Cu2_4 2.943011 1_555
Ce3_4 Cu2_5 2.943011 1_554
Ce3_4 Ce3_5 3.154539 1_555
Ce3_4 Ce3_5 3.154539 1_554
Ce3_4 In1_4 3.331740 1_555
Ce3_4 In0_4 3.331740 1_555
Ce3_5 Cu0_4 2.926848 1_555
Ce3_5 Cu0_5 2.926848 1_555
Ce3_5 Cu1_6 2.926848 1_545
Ce3_5 Cu1_7 2.926848 1_545
Ce3_5 Cu2_5 2.943011 1_555
Ce3_5 Cu2_4 2.943011 1_555
Ce3_5 In0_5 3.331740 1_555
Ce3_5 In1_5 3.331740 1_555
Ce3_6 Cu0_6 2.926848 1_555
Ce3_6 Cu0_7 2.926848 1_554
Ce3_6 Cu1_4 2.926848 1_555
Ce3_6 Cu1_5 2.926848 1_554
Ce3_6 Cu2_6 2.943011 1_555
Ce3_6 Cu2_7 2.943011 1_554
Ce3_6 Ce3_7 3.154539 1_555
Ce3_6 Ce3_7 3.154539 1_554
Ce3_6 In0_6 3.331740 1_555
Ce3_6 In1_6 3.331740 1_555
Ce3_7 Cu0_7 2.926848 1_555
Ce3_7 Cu0_6 2.926848 1_555
Ce3_7 Cu1_5 2.926848 1_555
Ce3_7 Cu1_4 2.926848 1_555
Ce3_7 Cu2_7 2.943011 1_555
Ce3_7 Cu2_6 2.943011 1_555
Ce3_7 In0_7 3.331740 1_555
Ce3_7 In1_7 3.331740 1_555
In0_0 In0_1 3.154539 1_555
In0_0 In0_1 3.154539 1_554
In0_2 In0_3 3.154539 1_555
In0_2 In0_3 3.154539 1_554
In0_4 In0_5 3.154539 1_555
In0_4 In0_5 3.154539 1_554
In0_6 In0_7 3.154539 1_555
In0_6 In0_7 3.154539 1_554
In1_0 In1_1 3.154539 1_555
In1_0 In1_1 3.154539 1_554
In1_2 In1_3 3.154539 1_555
In1_2 In1_3 3.154539 1_554
In1_4 In1_5 3.154539 1_555
In1_4 In1_5 3.154539 1_554
In1_6 In1_7 3.154539 1_555
In1_6 In1_7 3.154539 1_554
Cu0_0 Cu0_1 3.154539 1_555
Cu0_0 Cu0_1 3.154539 1_554
Cu0_2 Cu0_3 3.154539 1_555
Cu0_2 Cu0_3 3.154539 1_554
Cu0_4 Cu0_5 3.154539 1_555
Cu0_4 Cu0_5 3.154539 1_554
Cu0_6 Cu0_7 3.154539 1_555
Cu0_6 Cu0_7 3.154539 1_554
Cu1_0 Cu1_1 3.154539 1_555
Cu1_0 Cu1_1 3.154539 1_554
Cu1_2 Cu1_3 3.154539 1_555
Cu1_2 Cu1_3 3.154539 1_554
Cu1_4 Cu1_5 3.154539 1_555
Cu1_4 Cu1_5 3.154539 1_554
Cu1_6 Cu1_7 3.154539 1_555
Cu1_6 Cu1_7 3.154539 1_554
Cu2_0 Cu2_1 3.154539 1_555
Cu2_0 Cu2_1 3.154539 1_554
Cu2_2 Cu2_3 3.154539 1_555
Cu2_2 Cu2_3 3.154539 1_554
Cu2_4 Cu2_5 3.154539 1_555
Cu2_4 Cu2_5 3.154539 1_554
Cu2_6 Cu2_7 3.154539 1_555
Cu2_6 Cu2_7 3.154539 1_554
Cu3_0 Cu3_1 3.154539 1_555
Cu3_0 Cu3_1 3.154539 1_554
Cu3_2 Cu3_3 3.154539 1_555
Cu3_2 Cu3_3 3.154539 1_554
Cu3_4 Cu3_5 3.154539 1_555
Cu3_4 Cu3_5 3.154539 1_554
Cu3_6 Cu3_7 3.154539 1_555
Cu3_6 Cu3_7 3.154539 1_554
