# generated using pymatgen
data_Zn3Se3O10
_symmetry_space_group_name_H-M   'P 1'
_cell_length_a   8.20058200
_cell_length_b   8.33735723
_cell_length_c   8.80680441
_cell_angle_alpha   64.46594992
_cell_angle_beta   68.49848698
_cell_angle_gamma   68.82866477
_symmetry_Int_Tables_number   1
_chemical_formula_structural   Zn3Se3O10
_chemical_formula_sum   'Zn6 Se6 O20'
_cell_volume   490.48436233
_cell_formula_units_Z   2
loop_
 _symmetry_equiv_pos_site_id
 _symmetry_equiv_pos_as_xyz
  1  'x, y, z'
loop_
 _atom_site_type_symbol
 _atom_site_label
 _atom_site_symmetry_multiplicity
 _atom_site_fract_x
 _atom_site_fract_y
 _atom_site_fract_z
 _atom_site_occupancy
  Zn  Zn0  1  0.00000000  0.00000000  0.00000000  1
  Zn  Zn1  1  0.50000000  0.50000000  0.50000000  1
  Zn  Zn2  1  0.03623400  0.66039600  0.79770600  1
  Zn  Zn3  1  0.96376600  0.33960400  0.20229400  1
  Zn  Zn4  1  0.18046500  0.29157400  0.57192800  1
  Zn  Zn5  1  0.81953500  0.70842600  0.42807200  1
  Se  Se0  1  0.34226400  0.21288900  0.90462600  1
  Se  Se1  1  0.65773600  0.78711100  0.09537400  1
  Se  Se2  1  0.32861400  0.84374400  0.68098600  1
  Se  Se3  1  0.67138600  0.15625600  0.31901400  1
  Se  Se4  1  0.79703700  0.42455200  0.78777600  1
  Se  Se5  1  0.20296300  0.57544800  0.21222400  1
  O  O0  1  0.36447700  0.30103300  0.67974300  1
  O  O1  1  0.63552300  0.69896700  0.32025700  1
  O  O2  1  0.25614500  0.03372500  0.96010900  1
  O  O3  1  0.74385500  0.96627500  0.03989100  1
  O  O4  1  0.16120300  0.38574400  0.96651400  1
  O  O5  1  0.83879700  0.61425600  0.03348600  1
  O  O6  1  0.29260500  0.69173900  0.61704200  1
  O  O7  1  0.70739500  0.30826100  0.38295800  1
  O  O8  1  0.13683000  0.82492000  0.85616800  1
  O  O9  1  0.86317000  0.17508000  0.14383200  1
  O  O10  1  0.27030200  0.05432700  0.52570600  1
  O  O11  1  0.72969800  0.94567300  0.47429400  1
  O  O12  1  0.95732300  0.22861500  0.76149400  1
  O  O13  1  0.04267700  0.77138500  0.23850600  1
  O  O14  1  0.68871800  0.50871900  0.62354200  1
  O  O15  1  0.31128200  0.49128100  0.37645800  1
  O  O16  1  0.94107000  0.57220000  0.66991300  1
  O  O17  1  0.05893000  0.42780000  0.33008700  1
  O  O18  1  0.83854600  0.90573100  0.71451500  1
  O  O19  1  0.16145400  0.09426900  0.28548500  1
loop_
_geom_bond_atom_site_label_1
_geom_bond_atom_site_label_2
_geom_bond_distance
_geom_bond_site_symmetry_2
O0 Se0 1.753033 1_555
O0 Zn1 2.066634 1_555
O0 Zn4 2.094210 1_555
O1 Se1 1.753033 1_555
O1 Zn1 2.066634 1_555
O1 Zn5 2.094210 1_555
O2 Se0 1.687782 1_555
O2 Zn0 2.101249 1_556
O3 Se1 1.687782 1_555
O3 Zn0 2.101249 1_665
O4 Se0 1.765480 1_555
O4 Zn3 2.092348 1_456
O4 Zn2 2.234035 1_555
O5 Se1 1.765480 1_555
O5 Zn2 2.092348 1_654
O5 Zn3 2.234035 1_555
O6 Se2 1.737212 1_555
O6 Zn2 2.146193 1_555
O6 Zn1 2.163830 1_555
O7 Se3 1.737212 1_555
O7 Zn3 2.146193 1_555
O7 Zn1 2.163830 1_555
O8 Se2 1.751919 1_555
O8 Zn0 2.088864 1_566
O8 Zn2 2.136520 1_555
O9 Se3 1.751919 1_555
O9 Zn0 2.088864 1_655
O9 Zn3 2.136520 1_555
O10 Se2 1.727531 1_545
O10 Zn4 2.010651 1_555
O11 Se3 1.727531 1_565
O11 Zn5 2.010651 1_555
O12 Se4 1.732600 1_555
O12 Zn4 2.027331 1_655
O12 Zn0 2.184731 1_656
O13 Se5 1.732600 1_555
O13 Zn5 2.027331 1_455
O13 Zn0 2.184731 1_565
O14 Se4 1.729174 1_555
O14 Zn5 2.086155 1_555
O14 Zn1 2.228871 1_555
O15 Se5 1.729174 1_555
O15 Zn4 2.086155 1_555
O15 Zn1 2.228871 1_555
O16 Se4 1.742943 1_555
O16 Zn2 2.046493 1_655
O16 Zn5 2.339349 1_555
O17 Se5 1.742943 1_555
O17 Zn3 2.046493 1_455
O17 Zn4 2.339349 1_555
O18 Zn2 2.128925 1_655
O19 Zn3 2.128925 1_455
