# generated using pymatgen
data_Rb2Mn2Be3F12
_symmetry_space_group_name_H-M   'P 1'
_cell_length_a   10.42428800
_cell_length_b   10.42428800
_cell_length_c   10.42428800
_cell_angle_alpha   90.00000000
_cell_angle_beta   90.00000000
_cell_angle_gamma   90.00000000
_symmetry_Int_Tables_number   1
_chemical_formula_structural   Rb2Mn2Be3F12
_chemical_formula_sum   'Rb8 Mn8 Be12 F48'
_cell_volume   1132.76338966
_cell_formula_units_Z   4
loop_
 _symmetry_equiv_pos_site_id
 _symmetry_equiv_pos_as_xyz
  1  'x, y, z'
loop_
 _atom_site_type_symbol
 _atom_site_label
 _atom_site_symmetry_multiplicity
 _atom_site_fract_x
 _atom_site_fract_y
 _atom_site_fract_z
 _atom_site_occupancy
  Rb  Rb0  1  0.04879400  0.04879400  0.04879400  1
  Rb  Rb1  1  0.45120600  0.95120600  0.54879400  1
  Rb  Rb2  1  0.95120600  0.54879400  0.45120600  1
  Rb  Rb3  1  0.54879400  0.45120600  0.95120600  1
  Rb  Rb4  1  0.81601500  0.81601500  0.81601500  1
  Rb  Rb5  1  0.68398500  0.18398500  0.31601500  1
  Rb  Rb6  1  0.18398500  0.31601500  0.68398500  1
  Rb  Rb7  1  0.31601500  0.68398500  0.18398500  1
  Mn  Mn0  1  0.33445800  0.33445800  0.33445800  1
  Mn  Mn1  1  0.16554200  0.66554200  0.83445800  1
  Mn  Mn2  1  0.66554200  0.83445800  0.16554200  1
  Mn  Mn3  1  0.83445800  0.16554200  0.66554200  1
  Mn  Mn4  1  0.59772100  0.59772100  0.59772100  1
  Mn  Mn5  1  0.90227900  0.40227900  0.09772100  1
  Mn  Mn6  1  0.40227900  0.09772100  0.90227900  1
  Mn  Mn7  1  0.09772100  0.90227900  0.40227900  1
  Be  Be0  1  0.01903900  0.21532100  0.37570300  1
  Be  Be1  1  0.48096100  0.78467900  0.87570300  1
  Be  Be2  1  0.98096100  0.71532100  0.12429700  1
  Be  Be3  1  0.37570300  0.01903900  0.21532100  1
  Be  Be4  1  0.51903900  0.28467900  0.62429700  1
  Be  Be5  1  0.87570300  0.48096100  0.78467900  1
  Be  Be6  1  0.12429700  0.98096100  0.71532100  1
  Be  Be7  1  0.62429700  0.51903900  0.28467900  1
  Be  Be8  1  0.21532100  0.37570300  0.01903900  1
  Be  Be9  1  0.71532100  0.12429700  0.98096100  1
  Be  Be10  1  0.28467900  0.62429700  0.51903900  1
  Be  Be11  1  0.78467900  0.87570300  0.48096100  1
  F  F0  1  0.01122200  0.07291400  0.32919900  1
  F  F1  1  0.48877800  0.92708600  0.82919900  1
  F  F2  1  0.98877800  0.57291400  0.17080100  1
  F  F3  1  0.32919900  0.01122200  0.07291400  1
  F  F4  1  0.51122200  0.42708600  0.67080100  1
  F  F5  1  0.82919900  0.48877800  0.92708600  1
  F  F6  1  0.17080100  0.98877800  0.57291400  1
  F  F7  1  0.67080100  0.51122200  0.42708600  1
  F  F8  1  0.07291400  0.32919900  0.01122200  1
  F  F9  1  0.57291400  0.17080100  0.98877800  1
  F  F10  1  0.42708600  0.67080100  0.51122200  1
  F  F11  1  0.92708600  0.82919900  0.48877800  1
  F  F12  1  0.26566200  0.49817400  0.43929400  1
  F  F13  1  0.23433800  0.50182600  0.93929400  1
  F  F14  1  0.73433800  0.99817400  0.06070600  1
  F  F15  1  0.43929400  0.26566200  0.49817400  1
  F  F16  1  0.76566200  0.00182600  0.56070600  1
  F  F17  1  0.93929400  0.23433800  0.50182600  1
  F  F18  1  0.06070600  0.73433800  0.99817400  1
  F  F19  1  0.56070600  0.76566200  0.00182600  1
  F  F20  1  0.49817400  0.43929400  0.26566200  1
  F  F21  1  0.99817400  0.06070600  0.73433800  1
  F  F22  1  0.00182600  0.56070600  0.76566200  1
  F  F23  1  0.50182600  0.93929400  0.23433800  1
  F  F24  1  0.04447200  0.80482900  0.22766500  1
  F  F25  1  0.45552800  0.19517100  0.72766500  1
  F  F26  1  0.95552800  0.30482900  0.27233500  1
  F  F27  1  0.22766500  0.04447200  0.80482900  1
  F  F28  1  0.54447200  0.69517100  0.77233500  1
  F  F29  1  0.72766500  0.45552800  0.19517100  1
  F  F30  1  0.27233500  0.95552800  0.30482900  1
  F  F31  1  0.77233500  0.54447200  0.69517100  1
  F  F32  1  0.80482900  0.22766500  0.04447200  1
  F  F33  1  0.30482900  0.27233500  0.95552800  1
  F  F34  1  0.69517100  0.77233500  0.54447200  1
  F  F35  1  0.19517100  0.72766500  0.45552800  1
  F  F36  1  0.15994400  0.25524700  0.40263500  1
  F  F37  1  0.34005600  0.74475300  0.90263500  1
  F  F38  1  0.84005600  0.75524700  0.09736500  1
  F  F39  1  0.40263500  0.15994400  0.25524700  1
  F  F40  1  0.65994400  0.24475300  0.59736500  1
  F  F41  1  0.90263500  0.34005600  0.74475300  1
  F  F42  1  0.09736500  0.84005600  0.75524700  1
  F  F43  1  0.59736500  0.65994400  0.24475300  1
  F  F44  1  0.25524700  0.40263500  0.15994400  1
  F  F45  1  0.75524700  0.09736500  0.84005600  1
  F  F46  1  0.24475300  0.59736500  0.65994400  1
  F  F47  1  0.74475300  0.90263500  0.34005600  1
loop_
_geom_bond_atom_site_label_1
_geom_bond_atom_site_label_2
_geom_bond_distance
_geom_bond_site_symmetry_2
Be0 F36 1.552261 1_555
Be0 F0 1.563764 1_555
Be0 F17 1.568082 1_455
Be0 F26 1.571624 1_455
Be1 F37 1.552261 1_555
Be1 F1 1.563764 1_555
Be1 F19 1.568082 1_556
Be1 F28 1.571624 1_555
Be2 F38 1.552261 1_555
Be2 F2 1.563764 1_555
Be2 F18 1.568082 1_654
Be2 F24 1.571624 1_655
Be3 F39 1.552261 1_555
Be3 F3 1.563764 1_555
Be3 F23 1.568082 1_545
Be3 F30 1.571624 1_545
Be4 F40 1.552261 1_555
Be4 F4 1.563764 1_555
Be4 F15 1.568082 1_555
Be4 F25 1.571624 1_555
Be5 F41 1.552261 1_555
Be5 F5 1.563764 1_555
Be5 F22 1.568082 1_655
Be5 F31 1.571624 1_555
Be6 F42 1.552261 1_555
Be6 F6 1.563764 1_555
Be6 F21 1.568082 1_465
Be6 F27 1.571624 1_565
Be7 F43 1.552261 1_555
Be7 F7 1.563764 1_555
Be7 F20 1.568082 1_555
Be7 F29 1.571624 1_555
Be8 F44 1.552261 1_555
Be8 F8 1.563764 1_555
Be8 F13 1.568082 1_554
Be8 F33 1.571624 1_554
Be9 F45 1.552261 1_555
Be9 F9 1.563764 1_555
Be9 F14 1.568082 1_546
Be9 F32 1.571624 1_556
Be10 F46 1.552261 1_555
Be10 F10 1.563764 1_555
Be10 F12 1.568082 1_555
Be10 F35 1.571624 1_555
Be11 F47 1.552261 1_555
Be11 F11 1.563764 1_555
Be11 F16 1.568082 1_565
Be11 F34 1.571624 1_555
F0 Mn7 2.134793 1_545
F0 Rb0 2.959844 1_555
F1 Mn6 2.134793 1_565
F1 Rb1 2.959844 1_555
F2 Mn5 2.134793 1_555
F2 Rb2 2.959844 1_555
F3 Mn6 2.134793 1_554
F3 Rb0 2.959844 1_555
F4 Mn4 2.134793 1_555
F4 Rb3 2.959844 1_555
F5 Mn5 2.134793 1_556
F5 Rb3 2.959844 1_555
F6 Mn7 2.134793 1_555
F6 Rb1 2.959844 1_555
F7 Mn4 2.134793 1_555
F7 Rb2 2.959844 1_555
F8 Mn5 2.134793 1_455
F8 Rb0 2.959844 1_555
F9 Mn6 2.134793 1_555
F9 Rb3 2.959844 1_555
F10 Mn4 2.134793 1_555
F10 Rb1 2.959844 1_555
F11 Mn7 2.134793 1_655
F11 Rb2 2.959844 1_555
F12 Mn0 2.149690 1_555
F12 Rb6 3.291942 1_555
F12 Rb2 3.322501 1_455
F12 Rb7 3.333228 1_555
F13 Mn1 2.149690 1_555
F13 Rb7 3.291942 1_556
F13 Rb3 3.322501 1_555
F13 Rb6 3.333228 1_555
F14 Mn2 2.149690 1_555
F14 Rb4 3.291942 1_554
F14 Rb0 3.322501 1_665
F14 Rb5 3.333228 1_565
F15 Mn0 2.149690 1_555
F15 Rb5 3.291942 1_555
F15 Rb1 3.322501 1_545
F15 Rb6 3.333228 1_555
F16 Mn3 2.149690 1_555
F16 Rb5 3.291942 1_555
F16 Rb1 3.322501 1_545
F16 Rb4 3.333228 1_545
F17 Mn3 2.149690 1_555
F17 Rb6 3.291942 1_655
F17 Rb2 3.322501 1_555
F17 Rb5 3.333228 1_555
F18 Mn1 2.149690 1_555
F18 Rb4 3.291942 1_455
F18 Rb0 3.322501 1_566
F18 Rb7 3.333228 1_556
F19 Mn2 2.149690 1_555
F19 Rb7 3.291942 1_555
F19 Rb3 3.322501 1_554
F19 Rb4 3.333228 1_554
F20 Mn0 2.149690 1_555
F20 Rb7 3.291942 1_555
F20 Rb3 3.322501 1_554
F20 Rb5 3.333228 1_555
F21 Mn3 2.149690 1_555
F21 Rb4 3.291942 1_545
F21 Rb0 3.322501 1_656
F21 Rb6 3.333228 1_655
F22 Mn1 2.149690 1_555
F22 Rb6 3.291942 1_555
F22 Rb2 3.322501 1_455
F22 Rb4 3.333228 1_455
F23 Mn2 2.149690 1_555
F23 Rb5 3.291942 1_565
F23 Rb1 3.322501 1_555
F23 Rb7 3.333228 1_555
F24 Mn7 2.157148 1_555
F24 Rb7 3.131572 1_555
F24 Rb0 3.153798 1_565
F25 Mn6 2.157148 1_555
F25 Rb6 3.131572 1_555
F25 Rb1 3.153798 1_545
F26 Mn5 2.157148 1_555
F26 Rb5 3.131572 1_555
F26 Rb2 3.153798 1_555
F27 Mn6 2.157148 1_555
F27 Rb6 3.131572 1_555
F27 Rb0 3.153798 1_556
F28 Mn4 2.157148 1_555
F28 Rb4 3.131572 1_555
F28 Rb3 3.153798 1_555
F29 Mn5 2.157148 1_555
F29 Rb5 3.131572 1_555
F29 Rb3 3.153798 1_554
F30 Mn7 2.157148 1_555
F30 Rb7 3.131572 1_555
F30 Rb1 3.153798 1_555
F31 Mn4 2.157148 1_555
F31 Rb4 3.131572 1_555
F31 Rb2 3.153798 1_555
F32 Mn5 2.157148 1_555
F32 Rb5 3.131572 1_555
F32 Rb0 3.153798 1_655
F33 Mn6 2.157148 1_555
F33 Rb6 3.131572 1_555
F33 Rb3 3.153798 1_555
F34 Mn4 2.157148 1_555
F34 Rb4 3.131572 1_555
F34 Rb1 3.153798 1_555
F35 Mn7 2.157148 1_555
F35 Rb7 3.131572 1_555
F35 Rb2 3.153798 1_455
F36 Mn0 2.120456 1_555
F36 Rb6 3.010951 1_555
F37 Mn1 2.120456 1_555
F37 Rb7 3.010951 1_556
F38 Mn2 2.120456 1_555
F38 Rb4 3.010951 1_554
F39 Mn0 2.120456 1_555
F39 Rb5 3.010951 1_555
F40 Mn3 2.120456 1_555
F40 Rb5 3.010951 1_555
F41 Mn3 2.120456 1_555
F41 Rb6 3.010951 1_655
F42 Mn1 2.120456 1_555
F42 Rb4 3.010951 1_455
F43 Mn2 2.120456 1_555
F43 Rb7 3.010951 1_555
F44 Mn0 2.120456 1_555
F44 Rb7 3.010951 1_555
F45 Mn3 2.120456 1_555
F45 Rb4 3.010951 1_545
F46 Mn1 2.120456 1_555
F46 Rb6 3.010951 1_555
F47 Mn2 2.120456 1_555
F47 Rb5 3.010951 1_565
