# generated using pymatgen
data_SiC
_symmetry_space_group_name_H-M   'P 1'
_cell_length_a   3.09771965
_cell_length_b   3.09771965
_cell_length_c   73.25353158
_cell_angle_alpha   88.78845798
_cell_angle_beta   88.78845798
_cell_angle_gamma   59.99999554
_symmetry_Int_Tables_number   1
_chemical_formula_structural   SiC
_chemical_formula_sum   'Si29 C29'
_cell_volume   608.57474273
_cell_formula_units_Z   29
loop_
 _symmetry_equiv_pos_site_id
 _symmetry_equiv_pos_as_xyz
  1  'x, y, z'
loop_
 _atom_site_type_symbol
 _atom_site_label
 _atom_site_symmetry_multiplicity
 _atom_site_fract_x
 _atom_site_fract_y
 _atom_site_fract_z
 _atom_site_occupancy
  Si  Si0  1  0.00001388  0.00001388  0.99995837  1
  Si  Si1  1  0.97701720  0.97701720  0.06894839  1
  Si  Si2  1  0.93105079  0.93105079  0.20684763  1
  Si  Si3  1  0.90805699  0.90805699  0.27582902  1
  Si  Si4  1  0.86208745  0.86208745  0.41373764  1
  Si  Si5  1  0.83908584  0.83908584  0.48274248  1
  Si  Si6  1  0.79311881  0.79311881  0.62064356  1
  Si  Si7  1  0.77011955  0.77011955  0.68964136  1
  Si  Si8  1  0.72415758  0.72415758  0.82752726  1
  Si  Si9  1  0.70115760  0.70115760  0.89652720  1
  Si  Si10  1  0.65518231  0.65518231  0.03445307  1
  Si  Si11  1  0.62069857  0.62069857  0.13790429  1
  Si  Si12  1  0.58621860  0.58621860  0.24134421  1
  Si  Si13  1  0.55173582  0.55173582  0.34479254  1
  Si  Si14  1  0.51725074  0.51725074  0.44824779  1
  Si  Si15  1  0.48276739  0.48276739  0.55169783  1
  Si  Si16  1  0.44828516  0.44828516  0.65514451  1
  Si  Si17  1  0.41380253  0.41380253  0.75859240  1
  Si  Si18  1  0.37932216  0.37932216  0.86203352  1
  Si  Si19  1  0.34484013  0.34484013  0.96547960  1
  Si  Si20  1  0.29886689  0.29886689  0.10339932  1
  Si  Si21  1  0.27586641  0.27586641  0.17240076  1
  Si  Si22  1  0.22990603  0.22990603  0.31028192  1
  Si  Si23  1  0.20690552  0.20690552  0.37928344  1
  Si  Si24  1  0.16093584  0.16093584  0.51719247  1
  Si  Si25  1  0.13793654  0.13793654  0.58619037  1
  Si  Si26  1  0.09196735  0.09196735  0.72409795  1
  Si  Si27  1  0.06897413  0.06897413  0.79307760  1
  Si  Si28  1  0.02300835  0.02300835  0.93097496  1
  C  C0  1  0.99138405  0.99138405  0.02584784  1
  C  C1  1  0.96838129  0.96838129  0.09485613  1
  C  C2  1  0.92241443  0.92241443  0.23275671  1
  C  C3  1  0.89941760  0.89941760  0.30174721  1
  C  C4  1  0.85345112  0.85345112  0.43964663  1
  C  C5  1  0.83045208  0.83045208  0.50864377  1
  C  C6  1  0.78448607  0.78448607  0.64654179  1
  C  C7  1  0.76148482  0.76148482  0.71554555  1
  C  C8  1  0.71551841  0.71551841  0.85344476  1
  C  C9  1  0.69251978  0.69251978  0.92244066  1
  C  C10  1  0.64652451  0.64652451  0.06042647  1
  C  C11  1  0.61204225  0.61204225  0.16387326  1
  C  C12  1  0.57755921  0.57755921  0.26732237  1
  C  C13  1  0.54307437  0.54307437  0.37077688  1
  C  C14  1  0.50859372  0.50859372  0.47421884  1
  C  C15  1  0.47411147  0.47411147  0.57766558  1
  C  C16  1  0.43962728  0.43962728  0.68111816  1
  C  C17  1  0.40514019  0.40514019  0.78457942  1
  C  C18  1  0.37066108  0.37066108  0.88801675  1
  C  C19  1  0.33618200  0.33618200  0.99145400  1
  C  C20  1  0.29023125  0.29023125  0.12930624  1
  C  C21  1  0.26723085  0.26723085  0.19830744  1
  C  C22  1  0.22126345  0.22126345  0.33620965  1
  C  C23  1  0.19826958  0.19826958  0.40519125  1
  C  C24  1  0.15230233  0.15230233  0.54309302  1
  C  C25  1  0.12930173  0.12930173  0.61209482  1
  C  C26  1  0.08333246  0.08333246  0.75000261  1
  C  C27  1  0.06033395  0.06033395  0.81899814  1
  C  C28  1  0.01437246  0.01437246  0.95688262  1
loop_
_geom_bond_atom_site_label_1
_geom_bond_atom_site_label_2
_geom_bond_distance
_geom_bond_site_symmetry_2
C0 Si0 1.895930 1_664
C0 Si10 1.896245 1_655
C0 Si10 1.896245 1_565
C0 Si10 1.896245 1_555
C1 Si20 1.894740 1_565
C1 Si20 1.894740 1_655
C1 Si20 1.894740 1_665
C1 Si1 1.897268 1_555
C2 Si12 1.895813 1_565
C2 Si12 1.895813 1_655
C2 Si12 1.895814 1_555
C2 Si2 1.897366 1_555
C3 Si22 1.894535 1_565
C3 Si22 1.894535 1_655
C3 Si22 1.894535 1_665
C3 Si3 1.898033 1_555
C4 Si14 1.896146 1_655
C4 Si14 1.896146 1_565
C4 Si14 1.896146 1_555
C4 Si4 1.897359 1_555
C5 Si24 1.894873 1_655
C5 Si24 1.894873 1_565
C5 Si24 1.894873 1_665
C5 Si5 1.896795 1_555
C6 Si16 1.896183 1_655
C6 Si16 1.896183 1_565
C6 Si16 1.896184 1_555
C6 Si6 1.896571 1_555
C7 Si26 1.894962 1_655
C7 Si26 1.894962 1_565
C7 Si26 1.894962 1_665
C7 Si7 1.897008 1_555
C8 Si18 1.895844 1_565
C8 Si18 1.895844 1_655
C8 Si18 1.895844 1_555
C8 Si8 1.897982 1_555
C9 Si28 1.894525 1_655
C9 Si28 1.894525 1_565
C9 Si28 1.894525 1_665
C9 Si9 1.897687 1_555
C10 Si1 1.894226 1_455
C10 Si1 1.894226 1_545
C10 Si1 1.894226 1_555
C10 Si10 1.902076 1_555
C11 Si21 1.894360 1_565
C11 Si21 1.894360 1_655
C11 Si21 1.894361 1_555
C11 Si11 1.901752 1_555
C12 Si3 1.893858 1_455
C12 Si3 1.893858 1_545
C12 Si3 1.893858 1_555
C12 Si12 1.902425 1_555
C13 Si23 1.893855 1_565
C13 Si23 1.893855 1_655
C13 Si23 1.893856 1_555
C13 Si13 1.902877 1_555
C14 Si5 1.894267 1_455
C14 Si5 1.894267 1_545
C14 Si5 1.894267 1_555
C14 Si14 1.901904 1_555
C15 Si25 1.894295 1_655
C15 Si25 1.894295 1_565
C15 Si25 1.894295 1_555
C15 Si15 1.901662 1_555
C16 Si7 1.894257 1_545
C16 Si7 1.894257 1_455
C16 Si7 1.894257 1_555
C16 Si16 1.902094 1_555
C17 Si27 1.893654 1_565
C17 Si27 1.893654 1_655
C17 Si27 1.893654 1_555
C17 Si17 1.903074 1_555
C18 Si9 1.893949 1_545
C18 Si9 1.893949 1_455
C18 Si9 1.893949 1_555
C18 Si18 1.902796 1_555
C19 Si0 1.893803 1_565
C19 Si0 1.893803 1_655
C19 Si0 1.893803 1_555
C19 Si19 1.902149 1_555
C20 Si11 1.896070 1_455
C20 Si11 1.896070 1_545
C20 Si11 1.896070 1_555
C20 Si20 1.897208 1_555
C21 Si2 1.894667 1_545
C21 Si2 1.894667 1_455
C21 Si2 1.894667 1_445
C21 Si21 1.897190 1_555
C22 Si13 1.895701 1_545
C22 Si13 1.895701 1_455
C22 Si13 1.895702 1_555
C22 Si22 1.898732 1_555
C23 Si4 1.894817 1_545
C23 Si4 1.894817 1_455
C23 Si4 1.894817 1_445
C23 Si23 1.897273 1_555
C24 Si15 1.896234 1_455
C24 Si15 1.896234 1_545
C24 Si15 1.896234 1_555
C24 Si24 1.896741 1_555
C25 Si6 1.894874 1_545
C25 Si6 1.894874 1_455
C25 Si6 1.894874 1_445
C25 Si25 1.897027 1_555
C26 Si17 1.895869 1_455
C26 Si17 1.895869 1_545
C26 Si17 1.895869 1_555
C26 Si26 1.897042 1_555
C27 Si8 1.894400 1_455
C27 Si8 1.894400 1_545
C27 Si8 1.894400 1_445
C27 Si27 1.898205 1_555
C28 Si19 1.896044 1_455
C28 Si19 1.896044 1_545
C28 Si19 1.896044 1_555
C28 Si28 1.897262 1_555
