# generated using pymatgen
data_LiBO3
_symmetry_space_group_name_H-M   'P 1'
_cell_length_a   3.30756700
_cell_length_b   3.30756700
_cell_length_c   3.30756700
_cell_angle_alpha   90.00000000
_cell_angle_beta   90.00000000
_cell_angle_gamma   90.00000000
_symmetry_Int_Tables_number   1
_chemical_formula_structural   LiBO3
_chemical_formula_sum   'Li1 B1 O3'
_cell_volume   36.18478119
_cell_formula_units_Z   1
loop_
 _symmetry_equiv_pos_site_id
 _symmetry_equiv_pos_as_xyz
  1  'x, y, z'
loop_
 _atom_site_type_symbol
 _atom_site_label
 _atom_site_symmetry_multiplicity
 _atom_site_fract_x
 _atom_site_fract_y
 _atom_site_fract_z
 _atom_site_occupancy
  Li  Li0  1  0.00000000  0.00000000  0.00000000  1
  B  B0  1  0.50000000  0.50000000  0.50000000  1
  O  O0  1  0.50000000  0.50000000  0.00000000  1
  O  O1  1  0.50000000  0.00000000  0.50000000  1
  O  O2  1  0.00000000  0.50000000  0.50000000  1
loop_
_geom_bond_atom_site_label_1
_geom_bond_atom_site_label_2
_geom_bond_distance
_geom_bond_site_symmetry_2
Li0 O1 2.338803 1_555
Li0 O0 2.338803 1_555
Li0 O1 2.338803 1_554
Li0 O0 2.338803 1_445
Li0 O2 2.338803 1_555
Li0 O2 2.338803 1_554
Li0 O0 2.338803 1_545
Li0 O0 2.338803 1_455
Li0 O2 2.338803 1_544
Li0 O2 2.338803 1_545
Li0 O1 2.338803 1_455
Li0 O1 2.338803 1_454
B0 O2 1.653784 1_655
B0 O0 1.653784 1_556
B0 O1 1.653784 1_555
B0 O0 1.653784 1_555
B0 O2 1.653784 1_555
B0 O1 1.653784 1_565
