# generated using pymatgen
data_Li2Fe2P4H3O16
_symmetry_space_group_name_H-M   'P 1'
_cell_length_a   4.98629187
_cell_length_b   8.26894220
_cell_length_c   7.41273512
_cell_angle_alpha   90.32145944
_cell_angle_beta   103.97010808
_cell_angle_gamma   87.89137195
_symmetry_Int_Tables_number   1
_chemical_formula_structural   Li2Fe2P4H3O16
_chemical_formula_sum   'Li2 Fe2 P4 H3 O16'
_cell_volume   296.39442675
_cell_formula_units_Z   1
loop_
 _symmetry_equiv_pos_site_id
 _symmetry_equiv_pos_as_xyz
  1  'x, y, z'
loop_
 _atom_site_type_symbol
 _atom_site_label
 _atom_site_symmetry_multiplicity
 _atom_site_fract_x
 _atom_site_fract_y
 _atom_site_fract_z
 _atom_site_occupancy
  Li  Li0  1  0.34600300  0.84172500  0.83154100  1
  Li  Li1  1  0.64424000  0.15775800  0.17554200  1
  Fe  Fe0  1  0.49714900  0.50060900  0.00150000  1
  Fe  Fe1  1  0.00306300  0.99813000  0.49951400  1
  P  P0  1  0.12186900  0.34261000  0.26129900  1
  P  P1  1  0.39573900  0.84453600  0.23388300  1
  P  P2  1  0.60255000  0.15572800  0.75695500  1
  P  P3  1  0.87178300  0.65778500  0.73905500  1
  H  H0  1  0.32414900  0.40738200  0.55454600  1
  H  H1  1  0.67577100  0.59859600  0.44141300  1
  H  H2  1  0.95294900  0.01826800  0.97756800  1
  O  O0  1  0.94577600  0.82448600  0.67721000  1
  O  O1  1  0.12918100  0.57224100  0.85953700  1
  O  O2  1  0.23267500  0.84378400  0.38727600  1
  O  O3  1  0.22173300  0.45599400  0.43418300  1
  O  O4  1  0.35534700  0.04341300  0.69360000  1
  O  O5  1  0.49800100  0.32754900  0.79080100  1
  O  O6  1  0.23101700  0.91695400  0.04950700  1
  O  O7  1  0.35288600  0.32648300  0.15370800  1
  O  O8  1  0.64344500  0.67366800  0.84884400  1
  O  O9  1  0.77012500  0.08593800  0.95223100  1
  O  O10  1  0.50326700  0.66854700  0.21115600  1
  O  O11  1  0.65153100  0.95139700  0.30892400  1
  O  O12  1  0.76233100  0.54770500  0.56451600  1
  O  O13  1  0.77760900  0.15551500  0.61410500  1
  O  O14  1  0.86448800  0.42518300  0.13820800  1
  O  O15  1  0.05148700  0.17604300  0.32536300  1
loop_
_geom_bond_atom_site_label_1
_geom_bond_atom_site_label_2
_geom_bond_distance
_geom_bond_site_symmetry_2
Li0 O6 1.932880 1_556
Li0 O4 1.968998 1_565
Li0 O8 1.976298 1_555
Li0 O0 2.056327 1_455
Li1 O7 1.955281 1_555
Li1 O11 1.971717 1_545
Li1 O9 1.987483 1_554
Li1 O15 2.076446 1_655
Fe0 O14 1.948774 1_555
Fe0 O1 1.954351 1_554
Fe0 O10 2.073800 1_555
Fe0 O7 2.085643 1_555
Fe0 O8 2.086625 1_554
Fe0 O5 2.113035 1_554
Fe1 O2 1.993088 1_555
Fe1 O13 2.004987 1_465
Fe1 O11 2.016383 1_455
Fe1 O15 2.021647 1_565
Fe1 O0 2.027657 1_455
Fe1 O4 2.029245 1_565
H0 O3 0.993654 1_555
H1 O12 0.998429 1_555
H2 O9 1.029755 1_555
H2 O6 1.572008 1_646
O0 P3 1.540317 1_555
O1 P3 1.527118 1_455
O2 P1 1.549483 1_555
O3 P0 1.575466 1_555
O4 P2 1.549936 1_555
O5 P2 1.535568 1_555
O6 P1 1.527133 1_555
O7 P0 1.553015 1_555
O8 P3 1.552768 1_555
O9 P2 1.586334 1_555
O10 P1 1.554681 1_555
O11 P1 1.565843 1_555
O12 P3 1.575677 1_555
O13 P2 1.526235 1_555
O14 P0 1.524112 1_655
O15 P0 1.539190 1_555
