# generated using pymatgen
data_Cs(TeO3)2
_symmetry_space_group_name_H-M   'P 1'
_cell_length_a   7.37348065
_cell_length_b   7.37348065
_cell_length_c   7.37348065
_cell_angle_alpha   60.00000000
_cell_angle_beta   60.00000000
_cell_angle_gamma   60.00000000
_symmetry_Int_Tables_number   1
_chemical_formula_structural   Cs(TeO3)2
_chemical_formula_sum   'Cs2 Te4 O12'
_cell_volume   283.46708464
_cell_formula_units_Z   2
loop_
 _symmetry_equiv_pos_site_id
 _symmetry_equiv_pos_as_xyz
  1  'x, y, z'
loop_
 _atom_site_type_symbol
 _atom_site_label
 _atom_site_symmetry_multiplicity
 _atom_site_fract_x
 _atom_site_fract_y
 _atom_site_fract_z
 _atom_site_occupancy
  Cs  Cs0  1  0.50000000  0.50000000  0.50000000  1
  Cs  Cs1  1  0.75000000  0.75000000  0.75000000  1
  Te  Te0  1  0.62500000  0.12500000  0.12500000  1
  Te  Te1  1  0.12500000  0.62500000  0.12500000  1
  Te  Te2  1  0.12500000  0.12500000  0.62500000  1
  Te  Te3  1  0.12500000  0.12500000  0.12500000  1
  O  O0  1  0.80830344  0.19169656  0.19169656  1
  O  O1  1  0.19169656  0.80830344  0.80830344  1
  O  O2  1  0.19169656  0.19169656  0.80830344  1
  O  O3  1  0.80830344  0.80830344  0.19169656  1
  O  O4  1  0.19169656  0.80830344  0.19169656  1
  O  O5  1  0.80830344  0.19169656  0.80830344  1
  O  O6  1  0.44169656  0.05830344  0.05830344  1
  O  O7  1  0.05830344  0.44169656  0.44169656  1
  O  O8  1  0.05830344  0.05830344  0.44169656  1
  O  O9  1  0.44169656  0.44169656  0.05830344  1
  O  O10  1  0.05830344  0.44169656  0.05830344  1
  O  O11  1  0.44169656  0.05830344  0.44169656  1
loop_
_geom_bond_atom_site_label_1
_geom_bond_atom_site_label_2
_geom_bond_distance
_geom_bond_site_symmetry_2
Cs0 O5 3.214888 1_555
Cs0 O2 3.214888 1_555
Cs0 O3 3.214888 1_555
Cs0 O1 3.214888 1_555
Cs0 O4 3.214888 1_555
Cs0 O0 3.214888 1_555
Cs1 O6 3.214888 1_566
Cs1 O11 3.214888 1_565
Cs1 O9 3.214888 1_556
Cs1 O8 3.214888 1_665
Cs1 O7 3.214888 1_655
Cs1 O10 3.214888 1_656
O0 Te3 1.970208 1_655
O0 Te0 1.970208 1_555
O1 Te2 1.970208 1_565
O1 Te1 1.970208 1_556
O2 Te3 1.970208 1_556
O2 Te2 1.970208 1_555
O3 Te1 1.970208 1_655
O3 Te0 1.970208 1_565
O4 Te1 1.970208 1_555
O4 Te3 1.970208 1_565
O5 Te0 1.970208 1_556
O5 Te2 1.970208 1_655
O6 Te3 1.970208 1_555
O6 Te0 1.970208 1_555
O7 Te1 1.970208 1_555
O7 Te2 1.970208 1_555
O8 Te3 1.970208 1_555
O8 Te2 1.970208 1_555
O9 Te0 1.970208 1_555
O9 Te1 1.970208 1_555
O10 Te1 1.970208 1_555
O10 Te3 1.970208 1_555
O11 Te2 1.970208 1_555
O11 Te0 1.970208 1_555
