# generated using pymatgen
data_ErAlGeO5
_symmetry_space_group_name_H-M   'P 1'
_cell_length_a   5.65234000
_cell_length_b   7.28069300
_cell_length_c   8.38339400
_cell_angle_alpha   90.00000000
_cell_angle_beta   90.00000000
_cell_angle_gamma   90.00000000
_symmetry_Int_Tables_number   1
_chemical_formula_structural   ErAlGeO5
_chemical_formula_sum   'Er4 Al4 Ge4 O20'
_cell_volume   345.00141316
_cell_formula_units_Z   4
loop_
 _symmetry_equiv_pos_site_id
 _symmetry_equiv_pos_as_xyz
  1  'x, y, z'
loop_
 _atom_site_type_symbol
 _atom_site_label
 _atom_site_symmetry_multiplicity
 _atom_site_fract_x
 _atom_site_fract_y
 _atom_site_fract_z
 _atom_site_occupancy
  Er  Er0  1  0.50000000  0.35721700  0.32629700  1
  Er  Er1  1  0.50000000  0.64278300  0.67370300  1
  Er  Er2  1  0.50000000  0.14278300  0.82629700  1
  Er  Er3  1  0.50000000  0.85721700  0.17370300  1
  Al  Al0  1  0.25174800  0.00000000  0.50000000  1
  Al  Al1  1  0.74825200  0.00000000  0.50000000  1
  Al  Al2  1  0.74825200  0.50000000  0.00000000  1
  Al  Al3  1  0.25174800  0.50000000  0.00000000  1
  Ge  Ge0  1  0.00000000  0.12054800  0.14458700  1
  Ge  Ge1  1  0.00000000  0.87945200  0.85541300  1
  Ge  Ge2  1  0.00000000  0.37945200  0.64458700  1
  Ge  Ge3  1  0.00000000  0.62054800  0.35541300  1
  O  O0  1  0.24906000  0.10702300  0.28739200  1
  O  O1  1  0.75094000  0.89297700  0.71260800  1
  O  O2  1  0.24906000  0.89297700  0.71260800  1
  O  O3  1  0.75094000  0.39297700  0.78739200  1
  O  O4  1  0.75094000  0.10702300  0.28739200  1
  O  O5  1  0.24906000  0.60702300  0.21260800  1
  O  O6  1  0.75094000  0.60702300  0.21260800  1
  O  O7  1  0.24906000  0.39297700  0.78739200  1
  O  O8  1  0.50000000  0.33777500  0.05491400  1
  O  O9  1  0.50000000  0.66222500  0.94508600  1
  O  O10  1  0.50000000  0.16222500  0.55491400  1
  O  O11  1  0.50000000  0.83777500  0.44508600  1
  O  O12  1  0.21671800  0.00000000  0.00000000  1
  O  O13  1  0.78328200  0.00000000  0.00000000  1
  O  O14  1  0.78328200  0.50000000  0.50000000  1
  O  O15  1  0.21671800  0.50000000  0.50000000  1
  O  O16  1  0.00000000  0.34693000  0.06805600  1
  O  O17  1  0.00000000  0.65307000  0.93194400  1
  O  O18  1  0.00000000  0.15307000  0.56805600  1
  O  O19  1  0.00000000  0.84693000  0.43194400  1
loop_
_geom_bond_atom_site_label_1
_geom_bond_atom_site_label_2
_geom_bond_distance
_geom_bond_site_symmetry_2
Er0 O8 2.279510 1_555
Er0 O0 2.331610 1_555
Er0 O4 2.331610 1_555
Er0 O10 2.385118 1_555
Er0 O14 2.401067 1_555
Er0 O15 2.401067 1_555
Er0 O5 2.495625 1_555
Er0 O6 2.495625 1_555
Er1 O9 2.279510 1_555
Er1 O2 2.331610 1_555
Er1 O1 2.331610 1_555
Er1 O11 2.385118 1_555
Er1 O15 2.401067 1_555
Er1 O14 2.401067 1_555
Er1 O7 2.495625 1_555
Er1 O3 2.495625 1_555
Er2 O10 2.279510 1_555
Er2 O3 2.331610 1_555
Er2 O7 2.331610 1_555
Er2 O8 2.385118 1_556
Er2 O12 2.401067 1_556
Er2 O13 2.401067 1_556
Er2 O2 2.495625 1_545
Er2 O1 2.495625 1_545
Er3 O11 2.279510 1_555
Er3 O5 2.331610 1_555
Er3 O6 2.331610 1_555
Er3 O9 2.385118 1_554
Er3 O12 2.401067 1_565
Er3 O13 2.401067 1_565
Er3 O0 2.495625 1_565
Er3 O4 2.495625 1_565
Al0 O11 1.891016 1_545
Al0 O10 1.891016 1_555
Al0 O18 1.895352 1_555
Al0 O19 1.895352 1_545
Al0 O2 1.945316 1_545
Al0 O0 1.945316 1_555
Al1 O11 1.891016 1_545
Al1 O10 1.891016 1_555
Al1 O18 1.895352 1_655
Al1 O19 1.895352 1_645
Al1 O4 1.945316 1_555
Al1 O1 1.945316 1_545
Al2 O9 1.891016 1_554
Al2 O8 1.891016 1_555
Al2 O16 1.895352 1_655
Al2 O17 1.895352 1_654
Al2 O6 1.945316 1_555
Al2 O3 1.945316 1_554
Al3 O9 1.891016 1_554
Al3 O8 1.891016 1_555
Al3 O16 1.895352 1_555
Al3 O17 1.895352 1_554
Al3 O5 1.945316 1_555
Al3 O7 1.945316 1_554
Ge0 O16 1.768689 1_555
Ge0 O4 1.850617 1_455
Ge0 O0 1.850617 1_555
Ge0 O12 1.933935 1_555
Ge0 O13 1.933935 1_455
Ge1 O17 1.768689 1_555
Ge1 O1 1.850617 1_455
Ge1 O2 1.850617 1_555
Ge1 O13 1.933935 1_466
Ge1 O12 1.933935 1_566
Ge2 O18 1.768689 1_555
Ge2 O3 1.850617 1_455
Ge2 O7 1.850617 1_555
Ge2 O14 1.933935 1_455
Ge2 O15 1.933935 1_555
Ge3 O19 1.768689 1_555
Ge3 O6 1.850617 1_455
Ge3 O5 1.850617 1_555
Ge3 O14 1.933935 1_455
Ge3 O15 1.933935 1_555
