# generated using pymatgen
data_CeSiPd
_symmetry_space_group_name_H-M   'P 1'
_cell_length_a   5.85002251
_cell_length_b   7.91073416
_cell_length_c   10.81546886
_cell_angle_alpha   87.54595228
_cell_angle_beta   90.00000000
_cell_angle_gamma   90.00000000
_symmetry_Int_Tables_number   1
_chemical_formula_structural   CeSiPd
_chemical_formula_sum   'Ce8 Si8 Pd8'
_cell_volume   500.05894207
_cell_formula_units_Z   8
loop_
 _symmetry_equiv_pos_site_id
 _symmetry_equiv_pos_as_xyz
  1  'x, y, z'
loop_
 _atom_site_type_symbol
 _atom_site_label
 _atom_site_symmetry_multiplicity
 _atom_site_fract_x
 _atom_site_fract_y
 _atom_site_fract_z
 _atom_site_occupancy
  Ce  Ce0  1  0.36089848  0.96307867  0.13986990  1
  Ce  Ce1  1  0.63910152  0.03692133  0.86013010  1
  Ce  Ce2  1  0.86089848  0.53692133  0.86013010  1
  Ce  Ce3  1  0.13910152  0.46307867  0.13986990  1
  Ce  Ce4  1  0.86818812  0.82663039  0.37005368  1
  Ce  Ce5  1  0.13181188  0.17336961  0.62994632  1
  Ce  Ce6  1  0.36818812  0.67336961  0.62994632  1
  Ce  Ce7  1  0.63181188  0.32663039  0.37005368  1
  Si  Si0  1  0.86463800  0.53503631  0.57565210  1
  Si  Si1  1  0.13536200  0.46496369  0.42434790  1
  Si  Si2  1  0.36463800  0.96496369  0.42434790  1
  Si  Si3  1  0.63536200  0.03503631  0.57565210  1
  Si  Si4  1  0.64553150  0.62532582  0.14365761  1
  Si  Si5  1  0.35446850  0.37467418  0.85634239  1
  Si  Si6  1  0.14553150  0.87467418  0.85634239  1
  Si  Si7  1  0.85446850  0.12532582  0.14365761  1
  Pd  Pd0  1  0.90073783  0.83885196  0.05254726  1
  Pd  Pd1  1  0.09926217  0.16114804  0.94745274  1
  Pd  Pd2  1  0.40073783  0.66114804  0.94745274  1
  Pd  Pd3  1  0.59926217  0.33885196  0.05254726  1
  Pd  Pd4  1  0.89248270  0.81970814  0.67040755  1
  Pd  Pd5  1  0.10751730  0.18029186  0.32959245  1
  Pd  Pd6  1  0.39248270  0.68029186  0.32959245  1
  Pd  Pd7  1  0.60751730  0.31970814  0.67040755  1
loop_
_geom_bond_atom_site_label_1
_geom_bond_atom_site_label_2
_geom_bond_distance
_geom_bond_site_symmetry_2
Ce0 Pd1 2.974798 1_564
Ce0 Pd6 2.975885 1_555
Ce0 Pd0 3.030476 1_455
Ce0 Si2 3.077515 1_555
Ce0 Pd5 3.108404 1_565
Ce0 Si4 3.147030 1_555
Ce0 Si7 3.160790 1_565
Ce0 Si7 3.229659 1_465
Ce0 Pd2 3.242805 1_554
Ce0 Pd3 3.381210 1_565
Ce0 Si6 3.415172 1_554
Ce0 Pd0 3.451175 1_555
Ce0 Ce1 3.463000 1_564
Ce1 Pd0 2.974798 1_546
Ce1 Pd7 2.975885 1_555
Ce1 Pd1 3.030476 1_655
Ce1 Si3 3.077515 1_555
Ce1 Pd4 3.108404 1_545
Ce1 Si5 3.147030 1_555
Ce1 Si6 3.160790 1_545
Ce1 Si6 3.229659 1_645
Ce1 Pd3 3.242805 1_556
Ce1 Pd2 3.381210 1_545
Ce1 Si7 3.415172 1_556
Ce1 Pd1 3.451175 1_555
Ce2 Pd3 2.974798 1_556
Ce2 Pd4 2.975885 1_555
Ce2 Pd2 3.030476 1_555
Ce2 Si0 3.077515 1_555
Ce2 Pd7 3.108404 1_555
Ce2 Si6 3.147030 1_655
Ce2 Si5 3.160790 1_655
Ce2 Si5 3.229659 1_555
Ce2 Pd0 3.242805 1_556
Ce2 Pd1 3.381210 1_655
Ce2 Si4 3.415172 1_556
Ce2 Pd2 3.451175 1_655
Ce2 Ce3 3.463000 1_656
Ce3 Pd2 2.974798 1_554
Ce3 Pd5 2.975885 1_555
Ce3 Pd3 3.030476 1_555
Ce3 Si1 3.077515 1_555
Ce3 Pd6 3.108404 1_555
Ce3 Si7 3.147030 1_455
Ce3 Si4 3.160790 1_455
Ce3 Si4 3.229659 1_555
Ce3 Pd1 3.242805 1_554
Ce3 Pd0 3.381210 1_455
Ce3 Si5 3.415172 1_554
Ce3 Pd3 3.451175 1_455
Ce4 Pd6 3.052784 1_555
Ce4 Si0 3.134763 1_555
Ce4 Si3 3.135555 1_565
Ce4 Pd5 3.142313 1_665
Ce4 Si2 3.167335 1_655
Ce4 Si2 3.205465 1_555
Ce4 Pd4 3.249694 1_555
Ce4 Si4 3.249929 1_555
Ce4 Si1 3.290811 1_655
Ce4 Pd6 3.313962 1_655
Ce4 Si7 3.330137 1_565
Ce4 Pd0 3.436481 1_555
Ce5 Pd7 3.052784 1_555
Ce5 Si1 3.134763 1_555
Ce5 Si2 3.135555 1_545
Ce5 Pd4 3.142313 1_445
Ce5 Si3 3.167335 1_455
Ce5 Si3 3.205465 1_555
Ce5 Pd5 3.249694 1_555
Ce5 Si5 3.249929 1_555
Ce5 Si0 3.290811 1_455
Ce5 Pd7 3.313962 1_455
Ce5 Si6 3.330137 1_545
Ce5 Pd1 3.436481 1_555
Ce6 Pd4 3.052784 1_455
Ce6 Si2 3.134763 1_555
Ce6 Si1 3.135555 1_555
Ce6 Pd7 3.142313 1_555
Ce6 Si0 3.167335 1_555
Ce6 Si0 3.205465 1_455
Ce6 Pd6 3.249694 1_555
Ce6 Si6 3.249929 1_555
Ce6 Si3 3.290811 1_565
Ce6 Pd4 3.313962 1_555
Ce6 Si5 3.330137 1_555
Ce6 Pd2 3.436481 1_555
Ce7 Pd5 3.052784 1_655
Ce7 Si3 3.134763 1_555
Ce7 Si0 3.135555 1_555
Ce7 Pd6 3.142313 1_555
Ce7 Si1 3.167335 1_555
Ce7 Si1 3.205465 1_655
Ce7 Pd7 3.249694 1_555
Ce7 Si7 3.249929 1_555
Ce7 Si2 3.290811 1_545
Ce7 Pd5 3.313962 1_555
Ce7 Si4 3.330137 1_555
Ce7 Pd3 3.436481 1_555
Si0 Si1 2.360315 1_655
Si2 Si3 2.360315 1_565
Pd0 Si4 2.431180 1_555
Pd0 Si7 2.524136 1_565
Pd0 Si6 2.565669 1_654
Pd1 Si5 2.431180 1_555
Pd1 Si6 2.524136 1_545
Pd1 Si7 2.565669 1_456
Pd2 Si6 2.431180 1_555
Pd2 Si5 2.524136 1_555
Pd2 Si4 2.565669 1_556
Pd3 Si7 2.431180 1_555
Pd3 Si4 2.524136 1_555
Pd3 Si5 2.565669 1_554
Pd4 Si3 2.462693 1_565
Pd4 Si0 2.519082 1_555
Pd4 Si6 2.549387 1_655
Pd5 Si2 2.462693 1_545
Pd5 Si1 2.519082 1_555
Pd5 Si7 2.549387 1_455
Pd6 Si1 2.462693 1_555
Pd6 Si2 2.519082 1_555
Pd6 Si4 2.549387 1_555
Pd7 Si0 2.462693 1_555
Pd7 Si3 2.519082 1_555
Pd7 Si5 2.549387 1_555
