# generated using pymatgen
data_Rb2SbN2(O2F)3
_symmetry_space_group_name_H-M   'P 1'
_cell_length_a   7.82316100
_cell_length_b   11.33453100
_cell_length_c   11.71643762
_cell_angle_alpha   76.10551561
_cell_angle_beta   90.00000000
_cell_angle_gamma   90.00000000
_symmetry_Int_Tables_number   1
_chemical_formula_structural   Rb2SbN2(O2F)3
_chemical_formula_sum   'Rb8 Sb4 N8 O24 F12'
_cell_volume   1008.51916354
_cell_formula_units_Z   4
loop_
 _symmetry_equiv_pos_site_id
 _symmetry_equiv_pos_as_xyz
  1  'x, y, z'
loop_
 _atom_site_type_symbol
 _atom_site_label
 _atom_site_symmetry_multiplicity
 _atom_site_fract_x
 _atom_site_fract_y
 _atom_site_fract_z
 _atom_site_occupancy
  Rb  Rb0  1  0.25570900  0.57098000  0.86600000  1
  Rb  Rb1  1  0.75570900  0.42902000  0.13400000  1
  Rb  Rb2  1  0.99327700  0.14136200  0.51325000  1
  Rb  Rb3  1  0.49327700  0.85863800  0.48675000  1
  Rb  Rb4  1  0.74375900  0.45427900  0.64535100  1
  Rb  Rb5  1  0.24375900  0.54572100  0.35464900  1
  Rb  Rb6  1  0.96686900  0.13150100  0.92791200  1
  Rb  Rb7  1  0.46686900  0.86849900  0.07208800  1
  Sb  Sb0  1  0.75611700  0.71702000  0.82838400  1
  Sb  Sb1  1  0.25611700  0.28298000  0.17161600  1
  Sb  Sb2  1  0.55053000  0.11300200  0.70549900  1
  Sb  Sb3  1  0.05053000  0.88699800  0.29450100  1
  N  N0  1  0.19327900  0.38704600  0.65882800  1
  N  N1  1  0.69327900  0.61295400  0.34117200  1
  N  N2  1  0.46013200  0.24586500  0.93777700  1
  N  N3  1  0.96013200  0.75413500  0.06222300  1
  N  N4  1  0.99060400  0.74537600  0.56706300  1
  N  N5  1  0.49060400  0.25462400  0.43293700  1
  N  N6  1  0.21182700  0.92009400  0.77183300  1
  N  N7  1  0.71182700  0.07990600  0.22816700  1
  O  O0  1  0.34660900  0.42370600  0.64572100  1
  O  O1  1  0.84660900  0.57629400  0.35427900  1
  O  O2  1  0.98300700  0.66819600  0.66599000  1
  O  O3  1  0.48300700  0.33180400  0.33401000  1
  O  O4  1  0.12254000  0.36653800  0.75922700  1
  O  O5  1  0.62254000  0.63346200  0.24077300  1
  O  O6  1  0.36077100  0.15689500  0.96185000  1
  O  O7  1  0.86077100  0.84310500  0.03815000  1
  O  O8  1  0.94481400  0.66689300  0.00993300  1
  O  O9  1  0.44481400  0.33310700  0.99006700  1
  O  O10  1  0.57806300  0.25343700  0.86203200  1
  O  O11  1  0.07806300  0.74656300  0.13796800  1
  O  O12  1  0.10842900  0.37225400  0.57026600  1
  O  O13  1  0.60842900  0.62774600  0.42973400  1
  O  O14  1  0.10773000  0.73307900  0.49450400  1
  O  O15  1  0.60773000  0.26692100  0.50549600  1
  O  O16  1  0.88591200  0.83132200  0.54055800  1
  O  O17  1  0.38591200  0.16867800  0.45944200  1
  O  O18  1  0.30260500  0.89293600  0.69198100  1
  O  O19  1  0.80260500  0.10706400  0.30801900  1
  O  O20  1  0.14885900  0.02654700  0.75519300  1
  O  O21  1  0.64885900  0.97345300  0.24480700  1
  O  O22  1  0.18639900  0.84264900  0.86790200  1
  O  O23  1  0.68639900  0.15735100  0.13209800  1
  F  F0  1  0.58561000  0.67356000  0.71766200  1
  F  F1  1  0.08561000  0.32644000  0.28233800  1
  F  F2  1  0.57008500  0.67909000  0.94639900  1
  F  F3  1  0.07008500  0.32091000  0.05360100  1
  F  F4  1  0.80987400  0.54208400  0.86722500  1
  F  F5  1  0.30987400  0.45791600  0.13277500  1
  F  F6  1  0.66088200  0.00607500  0.61716500  1
  F  F7  1  0.16088200  0.99392500  0.38283500  1
  F  F8  1  0.61333400  0.98498500  0.84806700  1
  F  F9  1  0.11333400  0.01501500  0.15193300  1
  F  F10  1  0.78247500  0.18296400  0.70885000  1
  F  F11  1  0.28247500  0.81703600  0.29115000  1
loop_
_geom_bond_atom_site_label_1
_geom_bond_atom_site_label_2
_geom_bond_distance
_geom_bond_site_symmetry_2
N0 O0 1.266672 1_555
N0 O4 1.269918 1_555
N0 O12 1.276309 1_555
N1 O1 1.266672 1_555
N1 O5 1.269918 1_555
N1 O13 1.276309 1_555
N2 O6 1.250644 1_555
N2 O10 1.268681 1_555
N2 O9 1.287819 1_555
N3 O7 1.250644 1_555
N3 O11 1.268681 1_655
N3 O8 1.287819 1_555
N4 O16 1.253367 1_555
N4 O2 1.274866 1_555
N4 O14 1.280101 1_655
N5 O17 1.253367 1_555
N5 O3 1.274866 1_555
N5 O15 1.280101 1_555
N6 O22 1.265910 1_555
N6 O18 1.269931 1_555
N6 O20 1.274192 1_565
N7 O23 1.265910 1_555
N7 O19 1.269931 1_555
N7 O21 1.274192 1_545
O0 Rb4 3.126121 1_555
O0 Rb5 3.453291 1_555
O1 Rb5 3.126121 1_655
O1 Rb4 3.453291 1_555
O2 Rb4 3.118037 1_555
O2 Rb0 3.164954 1_655
O3 Rb5 3.118037 1_555
O3 Rb1 3.164954 1_555
O4 Rb0 3.067941 1_555
O4 Rb6 3.155570 1_455
O4 Rb4 3.303461 1_455
O5 Rb1 3.067941 1_555
O5 Rb7 3.155570 1_555
O5 Rb5 3.303461 1_555
O6 Rb6 3.129206 1_455
O6 Rb7 3.318844 1_546
O7 Rb7 3.129206 1_555
O7 Rb6 3.318844 1_564
O8 Rb1 3.112674 1_555
O8 Rb0 3.289639 1_654
O9 Rb0 3.112674 1_555
O9 Rb1 3.289639 1_556
O10 Rb4 3.245314 1_555
O10 Rb6 3.353431 1_555
O11 Rb5 3.245314 1_555
O11 Rb7 3.353431 1_555
O12 Rb2 2.991051 1_455
O12 Rb5 2.997192 1_555
O12 Rb4 3.189041 1_455
O13 Rb3 2.991051 1_555
O13 Rb4 2.997192 1_555
O13 Rb5 3.189041 1_555
O14 Rb5 3.162033 1_555
O14 Rb3 3.327005 1_555
O15 Rb4 3.162033 1_555
O15 Rb2 3.327005 1_555
O16 Rb3 3.136014 1_555
O17 Rb2 3.136014 1_455
O18 Rb3 2.933787 1_555
O19 Rb2 2.933787 1_555
O20 Rb6 2.948478 1_455
O20 Rb2 3.072275 1_455
O21 Rb7 2.948478 1_555
O21 Rb3 3.072275 1_555
O22 Rb0 3.131961 1_555
O22 Rb7 3.310603 1_556
O23 Rb1 3.131961 1_555
O23 Rb6 3.310603 1_554
F0 Sb0 2.002939 1_555
F0 Rb4 3.072017 1_555
F0 Rb3 3.084837 1_555
F0 Rb0 3.172201 1_555
F1 Sb1 2.002939 1_555
F1 Rb5 3.072017 1_555
F1 Rb2 3.084837 1_455
F1 Rb1 3.172201 1_455
F2 Sb0 1.982246 1_555
F2 Rb7 2.991329 1_556
F2 Rb0 2.998663 1_555
F3 Sb1 1.982246 1_555
F3 Rb6 2.991329 1_454
F3 Rb1 2.998663 1_455
F4 Sb0 1.970319 1_555
F4 Rb4 3.042749 1_555
F4 Rb1 3.109309 1_556
F5 Sb1 1.970319 1_555
F5 Rb5 3.042749 1_555
F5 Rb0 3.109309 1_554
F6 Sb2 1.971729 1_555
F6 Rb3 2.841313 1_545
F6 Rb2 3.114327 1_555
F7 Sb3 1.971729 1_555
F7 Rb2 2.841313 1_465
F7 Rb3 3.114327 1_555
F8 Sb2 1.993234 1_565
F8 Rb7 2.877668 1_556
F8 Rb6 3.468230 1_565
F9 Sb3 1.993234 1_545
F9 Rb6 2.877668 1_454
F9 Rb7 3.468230 1_545
F10 Sb2 1.984411 1_555
F10 Rb6 2.879188 1_555
F10 Rb2 2.951788 1_555
F10 Rb4 3.000577 1_555
F11 Sb3 1.984411 1_555
F11 Rb7 2.879188 1_555
F11 Rb3 2.951788 1_555
F11 Rb5 3.000577 1_555
