# generated using pymatgen
data_Mg14ZrZn
_symmetry_space_group_name_H-M   'P 1'
_cell_length_a   6.38622653
_cell_length_b   6.38622601
_cell_length_c   10.07897865
_cell_angle_alpha   90.00000000
_cell_angle_beta   90.00000000
_cell_angle_gamma   120.00000273
_symmetry_Int_Tables_number   1
_chemical_formula_structural   Mg14ZrZn
_chemical_formula_sum   'Mg14 Zr1 Zn1'
_cell_volume   355.98832012
_cell_formula_units_Z   1
loop_
 _symmetry_equiv_pos_site_id
 _symmetry_equiv_pos_as_xyz
  1  'x, y, z'
loop_
 _atom_site_type_symbol
 _atom_site_label
 _atom_site_symmetry_multiplicity
 _atom_site_fract_x
 _atom_site_fract_y
 _atom_site_fract_z
 _atom_site_occupancy
  Mg  Mg0  1  0.16495692  0.83247796  0.12500000  1
  Mg  Mg1  1  0.17369280  0.83684590  0.62500000  1
  Mg  Mg2  1  0.66752204  0.33504308  0.12500000  1
  Mg  Mg3  1  0.66315410  0.32630720  0.62500000  1
  Mg  Mg4  1  0.66752204  0.83247796  0.12500000  1
  Mg  Mg5  1  0.66315410  0.83684590  0.62500000  1
  Mg  Mg6  1  0.32838704  0.17161296  0.37209006  1
  Mg  Mg7  1  0.32838704  0.17161296  0.87790994  1
  Mg  Mg8  1  0.32838704  0.65677509  0.37209006  1
  Mg  Mg9  1  0.32838704  0.65677509  0.87790994  1
  Mg  Mg10  1  0.84322491  0.17161296  0.37209006  1
  Mg  Mg11  1  0.84322491  0.17161296  0.87790994  1
  Mg  Mg12  1  0.83333300  0.66666700  0.37806426  1
  Mg  Mg13  1  0.83333300  0.66666700  0.87193574  1
  Zr  Zr0  1  0.16666700  0.33333300  0.62500000  1
  Zn  Zn0  1  0.16666700  0.33333300  0.12500000  1
loop_
_geom_bond_atom_site_label_1
_geom_bond_atom_site_label_2
_geom_bond_distance
_geom_bond_site_symmetry_2
Mg0 Mg8 3.117957 1_555
Mg0 Mg9 3.117957 1_554
Mg0 Mg6 3.117964 1_565
Mg0 Mg7 3.117964 1_564
Mg0 Mg12 3.141592 1_455
Mg0 Mg13 3.141592 1_454
Mg0 Mg2 3.176732 1_455
Mg0 Mg4 3.176732 1_455
Mg0 Zn0 3.193127 1_565
Mg0 Zn0 3.193127 1_555
Mg0 Mg2 3.209494 1_565
Mg0 Mg4 3.209495 1_555
Mg1 Mg13 3.120557 1_455
Mg1 Mg12 3.120557 1_455
Mg1 Mg3 3.125810 1_565
Mg1 Mg5 3.125811 1_555
Mg1 Mg8 3.151549 1_555
Mg1 Mg9 3.151549 1_555
Mg1 Mg6 3.151555 1_565
Mg1 Mg7 3.151555 1_565
Mg1 Zr0 3.193349 1_555
Mg1 Zr0 3.193349 1_565
Mg1 Mg3 3.260416 1_455
Mg1 Mg5 3.260416 1_455
Mg2 Mg7 3.117964 1_554
Mg2 Mg6 3.117964 1_555
Mg2 Mg4 3.176732 1_555
Mg2 Zn0 3.193127 1_555
Mg2 Zn0 3.193127 1_655
Mg2 Mg4 3.209494 1_545
Mg3 Mg5 3.125810 1_545
Mg3 Mg6 3.151555 1_555
Mg3 Mg7 3.151555 1_555
Mg3 Zr0 3.193350 1_655
Mg3 Zr0 3.193350 1_555
Mg3 Mg5 3.260416 1_555
Mg4 Mg8 3.117964 1_555
Mg4 Mg9 3.117964 1_554
Mg4 Zn0 3.193127 1_665
Mg4 Zn0 3.193127 1_555
Mg5 Mg8 3.151555 1_555
Mg5 Mg9 3.151555 1_555
Mg5 Zr0 3.193349 1_555
Mg5 Zr0 3.193349 1_665
Mg6 Zn0 3.066281 1_555
Mg6 Mg8 3.098355 1_555
Mg6 Zr0 3.114111 1_555
Mg6 Mg8 3.287871 1_545
Mg7 Zn0 3.066281 1_556
Mg7 Mg9 3.098355 1_555
Mg7 Zr0 3.114111 1_555
Mg7 Mg9 3.287871 1_545
Mg8 Zn0 3.066287 1_555
Mg8 Zr0 3.114117 1_555
Mg9 Zn0 3.066287 1_556
Mg9 Zr0 3.114117 1_555
Mg10 Zn0 3.066287 1_655
Mg10 Mg8 3.098355 1_655
Mg10 Mg6 3.098355 1_655
Mg10 Zr0 3.114117 1_655
Mg10 Mg2 3.117957 1_555
Mg10 Mg4 3.117964 1_545
Mg10 Mg3 3.151549 1_555
Mg10 Mg5 3.151555 1_545
Mg10 Mg12 3.194149 1_555
Mg10 Mg12 3.194149 1_545
Mg10 Mg8 3.287871 1_545
Mg10 Mg6 3.287871 1_555
Mg11 Zn0 3.066287 1_656
Mg11 Mg9 3.098355 1_655
Mg11 Mg7 3.098355 1_655
Mg11 Zr0 3.114117 1_655
Mg11 Mg2 3.117957 1_556
Mg11 Mg4 3.117964 1_546
Mg11 Mg3 3.151549 1_555
Mg11 Mg5 3.151555 1_545
Mg11 Mg13 3.194149 1_555
Mg11 Mg13 3.194149 1_545
Mg11 Mg9 3.287871 1_545
Mg11 Mg7 3.287871 1_555
Mg12 Mg5 3.120550 1_555
Mg12 Mg3 3.120557 1_555
Mg12 Mg4 3.141585 1_555
Mg12 Mg2 3.141592 1_555
Mg12 Mg6 3.194149 1_665
Mg12 Mg6 3.194149 1_555
Mg12 Mg8 3.194149 1_655
Mg12 Mg8 3.194150 1_555
Mg13 Mg5 3.120550 1_555
Mg13 Mg3 3.120557 1_555
Mg13 Mg4 3.141585 1_556
Mg13 Mg2 3.141592 1_556
Mg13 Mg7 3.194149 1_665
Mg13 Mg7 3.194149 1_555
Mg13 Mg9 3.194149 1_655
Mg13 Mg9 3.194150 1_555
