# generated using pymatgen
data_V2NO
_symmetry_space_group_name_H-M   'P 1'
_cell_length_a   3.07979100
_cell_length_b   3.07979100
_cell_length_c   4.41918900
_cell_angle_alpha   90.00000000
_cell_angle_beta   90.00000000
_cell_angle_gamma   90.00000000
_symmetry_Int_Tables_number   1
_chemical_formula_structural   V2NO
_chemical_formula_sum   'V2 N1 O1'
_cell_volume   41.91650528
_cell_formula_units_Z   1
loop_
 _symmetry_equiv_pos_site_id
 _symmetry_equiv_pos_as_xyz
  1  'x, y, z'
loop_
 _atom_site_type_symbol
 _atom_site_label
 _atom_site_symmetry_multiplicity
 _atom_site_fract_x
 _atom_site_fract_y
 _atom_site_fract_z
 _atom_site_occupancy
  V  V0  1  0.00000000  0.00000000  0.00000000  1
  V  V1  1  0.50000000  0.50000000  0.50000000  1
  N  N0  1  0.00000000  0.00000000  0.50000000  1
  O  O0  1  0.50000000  0.50000000  0.00000000  1
loop_
_geom_bond_atom_site_label_1
_geom_bond_atom_site_label_2
_geom_bond_distance
_geom_bond_site_symmetry_2
N0 V1 2.177741 1_445
N0 V1 2.177741 1_545
N0 V1 2.177741 1_555
N0 V1 2.177741 1_455
N0 V0 2.209595 1_555
N0 V0 2.209595 1_556
O0 V0 2.177741 1_565
O0 V0 2.177741 1_555
O0 V0 2.177741 1_665
O0 V0 2.177741 1_655
O0 V1 2.209595 1_555
O0 V1 2.209595 1_554
