# generated using pymatgen
data_YbLuSO2
_symmetry_space_group_name_H-M   'P 1'
_cell_length_a   3.68464636
_cell_length_b   3.68464636
_cell_length_c   6.45491824
_cell_angle_alpha   90.00000000
_cell_angle_beta   90.00000000
_cell_angle_gamma   119.99999045
_symmetry_Int_Tables_number   1
_chemical_formula_structural   YbLuSO2
_chemical_formula_sum   'Yb1 Lu1 S1 O2'
_cell_volume   75.89497873
_cell_formula_units_Z   1
loop_
 _symmetry_equiv_pos_site_id
 _symmetry_equiv_pos_as_xyz
  1  'x, y, z'
loop_
 _atom_site_type_symbol
 _atom_site_label
 _atom_site_symmetry_multiplicity
 _atom_site_fract_x
 _atom_site_fract_y
 _atom_site_fract_z
 _atom_site_occupancy
  Yb  Yb0  1  0.66666700  0.33333300  0.28378246  1
  Lu  Lu0  1  0.33333300  0.66666700  0.71513085  1
  S  S0  1  0.00000000  0.00000000  0.99908230  1
  O  O0  1  0.33333300  0.66666700  0.37186564  1
  O  O1  1  0.66666700  0.33333300  0.63013975  1
loop_
_geom_bond_atom_site_label_1
_geom_bond_atom_site_label_2
_geom_bond_distance
_geom_bond_site_symmetry_2
Lu0 O1 2.196931 1_565
Lu0 O1 2.196931 1_455
Lu0 O1 2.196937 1_555
Lu0 O0 2.215749 1_555
Lu0 S0 2.808023 1_565
Lu0 S0 2.808025 1_555
Lu0 S0 2.808025 1_665
S0 Yb0 2.811180 1_456
S0 Yb0 2.811182 1_556
S0 Yb0 2.811182 1_446
O0 Yb0 2.202000 1_565
O0 Yb0 2.202000 1_455
O0 Yb0 2.202006 1_555
O1 Yb0 2.235708 1_555
