# generated using pymatgen
data_Rb3GeF7
_symmetry_space_group_name_H-M   'P 1'
_cell_length_a   8.00489959
_cell_length_b   8.00489959
_cell_length_c   5.87822720
_cell_angle_alpha   90.00000000
_cell_angle_beta   90.00000000
_cell_angle_gamma   90.00000000
_symmetry_Int_Tables_number   1
_chemical_formula_structural   Rb3GeF7
_chemical_formula_sum   'Rb6 Ge2 F14'
_cell_volume   376.66749636
_cell_formula_units_Z   2
loop_
 _symmetry_equiv_pos_site_id
 _symmetry_equiv_pos_as_xyz
  1  'x, y, z'
loop_
 _atom_site_type_symbol
 _atom_site_label
 _atom_site_symmetry_multiplicity
 _atom_site_fract_x
 _atom_site_fract_y
 _atom_site_fract_z
 _atom_site_occupancy
  Rb  Rb0  1  0.69135128  0.19135128  0.50000000  1
  Rb  Rb1  1  0.30864872  0.80864872  0.50000000  1
  Rb  Rb2  1  0.19135128  0.30864872  0.50000000  1
  Rb  Rb3  1  0.80864872  0.69135128  0.50000000  1
  Rb  Rb4  1  0.00000000  -0.00000000  0.00000000  1
  Rb  Rb5  1  0.50000000  0.50000000  0.00000000  1
  Ge  Ge0  1  0.50000000  -0.00000000  0.00000000  1
  Ge  Ge1  1  0.00000000  0.50000000  0.00000000  1
  F  F0  1  0.11170514  0.61170514  0.22013577  1
  F  F1  1  0.88829486  0.38829486  0.77986423  1
  F  F2  1  0.88829486  0.38829486  0.22013577  1
  F  F3  1  0.61170514  0.88829486  0.22013577  1
  F  F4  1  0.61170514  0.88829486  0.77986423  1
  F  F5  1  0.11170514  0.61170514  0.77986423  1
  F  F6  1  0.38829486  0.11170514  0.77986423  1
  F  F7  1  0.38829486  0.11170514  0.22013577  1
  F  F8  1  0.65958161  0.15958161  0.00000000  1
  F  F9  1  0.34041839  0.84041839  0.00000000  1
  F  F10  1  0.15958161  0.34041839  0.00000000  1
  F  F11  1  0.84041839  0.65958161  0.00000000  1
  F  F12  1  0.00000000  -0.00000000  0.50000000  1
  F  F13  1  0.50000000  0.50000000  0.50000000  1
loop_
_geom_bond_atom_site_label_1
_geom_bond_atom_site_label_2
_geom_bond_distance
_geom_bond_site_symmetry_2
F0 Ge1 1.809310 1_555
F0 Rb1 2.770769 1_555
F0 Rb2 2.999670 1_555
F0 Rb3 2.999670 1_455
F1 Ge1 1.809310 1_656
F1 Rb0 2.770769 1_555
F1 Rb3 2.999670 1_555
F1 Rb2 2.999670 1_655
F2 Ge1 1.809310 1_655
F2 Rb0 2.770769 1_555
F2 Rb3 2.999670 1_555
F2 Rb2 2.999670 1_655
F3 Ge0 1.809310 1_565
F3 Rb3 2.770769 1_555
F3 Rb1 2.999670 1_555
F3 Rb0 2.999670 1_565
F4 Ge0 1.809310 1_566
F4 Rb3 2.770769 1_555
F4 Rb1 2.999670 1_555
F4 Rb0 2.999670 1_565
F5 Ge1 1.809310 1_556
F5 Rb1 2.770769 1_555
F5 Rb2 2.999670 1_555
F5 Rb3 2.999670 1_455
F6 Ge0 1.809310 1_556
F6 Rb2 2.770769 1_555
F6 Rb0 2.999670 1_555
F6 Rb1 2.999670 1_545
F7 Ge0 1.809310 1_555
F7 Rb2 2.770769 1_555
F7 Rb0 2.999670 1_555
F7 Rb1 2.999670 1_545
F8 Ge0 1.806566 1_555
F8 Rb0 2.961037 1_555
F8 Rb0 2.961037 1_554
F8 Rb4 3.009576 1_655
F8 Rb5 3.009576 1_555
F9 Ge0 1.806566 1_565
F9 Rb1 2.961037 1_555
F9 Rb1 2.961037 1_554
F9 Rb4 3.009576 1_565
F9 Rb5 3.009576 1_555
F10 Ge1 1.806566 1_555
F10 Rb2 2.961037 1_555
F10 Rb2 2.961037 1_554
F10 Rb5 3.009576 1_555
F10 Rb4 3.009576 1_555
F11 Ge1 1.806566 1_655
F11 Rb3 2.961037 1_554
F11 Rb3 2.961037 1_555
F11 Rb4 3.009576 1_665
F11 Rb5 3.009576 1_555
F12 Rb0 2.906995 1_455
F12 Rb2 2.906995 1_555
F12 Rb3 2.906995 1_445
F12 Rb1 2.906995 1_545
F12 Rb4 2.939114 1_555
F12 Rb4 2.939114 1_556
F13 Rb2 2.906995 1_555
F13 Rb0 2.906995 1_555
F13 Rb1 2.906995 1_555
F13 Rb3 2.906995 1_555
F13 Rb5 2.939114 1_555
F13 Rb5 2.939114 1_556
