# generated using pymatgen
data_MgTi
_symmetry_space_group_name_H-M   'P 1'
_cell_length_a   4.88267300
_cell_length_b   5.09811300
_cell_length_c   9.42955800
_cell_angle_alpha   90.00000000
_cell_angle_beta   90.00000000
_cell_angle_gamma   90.00000000
_symmetry_Int_Tables_number   1
_chemical_formula_structural   MgTi
_chemical_formula_sum   'Mg6 Ti6'
_cell_volume   234.72450585
_cell_formula_units_Z   6
loop_
 _symmetry_equiv_pos_site_id
 _symmetry_equiv_pos_as_xyz
  1  'x, y, z'
loop_
 _atom_site_type_symbol
 _atom_site_label
 _atom_site_symmetry_multiplicity
 _atom_site_fract_x
 _atom_site_fract_y
 _atom_site_fract_z
 _atom_site_occupancy
  Mg  Mg0  1  0.00000000  0.98269200  0.25351200  1
  Mg  Mg1  1  0.00000000  0.98822500  0.91636900  1
  Mg  Mg2  1  0.50000000  0.34395200  0.25540700  1
  Mg  Mg3  1  0.00000000  0.48822500  0.08363100  1
  Mg  Mg4  1  0.00000000  0.48269200  0.74648800  1
  Mg  Mg5  1  0.50000000  0.84395200  0.74459300  1
  Ti  Ti0  1  0.00000000  0.00425900  0.56873100  1
  Ti  Ti1  1  0.50000000  0.34797400  0.57619800  1
  Ti  Ti2  1  0.50000000  0.33295700  0.92001100  1
  Ti  Ti3  1  0.00000000  0.50425900  0.43126900  1
  Ti  Ti4  1  0.50000000  0.84797400  0.42380200  1
  Ti  Ti5  1  0.50000000  0.83295700  0.07998900  1
loop_
_geom_bond_atom_site_label_1
_geom_bond_atom_site_label_2
_geom_bond_distance
_geom_bond_site_symmetry_2
Mg0 Ti3 2.959524 1_555
Mg0 Ti0 2.974409 1_565
Mg0 Mg3 2.986766 1_555
Mg0 Ti4 3.001715 1_555
Mg0 Ti4 3.001715 1_455
Mg0 Mg3 3.034532 1_565
Mg0 Ti5 3.036470 1_455
Mg0 Ti5 3.036470 1_555
Mg0 Mg2 3.058180 1_565
Mg0 Mg2 3.058180 1_465
Mg0 Ti3 3.143226 1_565
Mg0 Mg1 3.179235 1_554
Mg1 Mg4 2.986766 1_565
Mg1 Ti5 2.994519 1_456
Mg1 Ti5 2.994519 1_556
Mg1 Mg3 2.997544 1_566
Mg1 Mg3 2.997544 1_556
Mg1 Ti2 3.008330 1_565
Mg1 Ti2 3.008330 1_465
Mg1 Mg5 3.020724 1_555
Mg1 Mg5 3.020724 1_455
Mg1 Mg4 3.034532 1_555
Mg1 Ti0 3.279092 1_565
Mg2 Ti4 2.985795 1_545
Mg2 Ti5 2.991848 1_555
Mg2 Ti4 3.020603 1_555
Mg2 Mg3 3.020724 1_555
Mg2 Mg3 3.020724 1_655
Mg2 Ti1 3.024987 1_555
Mg2 Ti3 3.062353 1_655
Mg2 Ti3 3.062353 1_555
Mg2 Ti5 3.085886 1_545
Mg2 Ti2 3.163133 1_554
Mg3 Ti2 2.994519 1_554
Mg3 Ti2 2.994519 1_454
Mg3 Ti5 3.008330 1_555
Mg3 Ti5 3.008330 1_455
Mg3 Mg4 3.179235 1_554
Mg3 Ti3 3.279092 1_555
Mg4 Ti0 2.959524 1_555
Mg4 Ti3 2.974409 1_555
Mg4 Ti1 3.001715 1_455
Mg4 Ti1 3.001715 1_555
Mg4 Ti2 3.036470 1_555
Mg4 Ti2 3.036470 1_455
Mg4 Mg5 3.058180 1_455
Mg4 Mg5 3.058180 1_555
Mg4 Ti0 3.143226 1_565
Mg5 Ti1 2.985795 1_555
Mg5 Ti2 2.991848 1_565
Mg5 Ti1 3.020603 1_565
Mg5 Ti4 3.024987 1_555
Mg5 Ti0 3.062353 1_565
Mg5 Ti0 3.062353 1_665
Mg5 Ti2 3.085886 1_555
Mg5 Ti5 3.163133 1_556
Ti0 Ti3 2.859692 1_555
Ti0 Ti3 2.859692 1_545
Ti0 Ti4 2.909053 1_545
Ti0 Ti4 2.909053 1_445
Ti0 Ti1 3.005932 1_555
Ti0 Ti1 3.005932 1_455
Ti1 Ti3 2.909053 1_655
Ti1 Ti3 2.909053 1_555
Ti1 Ti4 2.926215 1_545
Ti1 Ti4 2.926215 1_555
Ti1 Ti2 3.242908 1_555
Ti2 Ti5 2.961980 1_556
Ti2 Ti5 2.961980 1_546
Ti3 Ti4 3.005932 1_555
Ti3 Ti4 3.005932 1_455
Ti4 Ti5 3.242908 1_555
