# generated using pymatgen
data_Ca3TlO5
_symmetry_space_group_name_H-M   'P 1'
_cell_length_a   5.91232970
_cell_length_b   5.91232970
_cell_length_c   13.64742600
_cell_angle_alpha   90.00000000
_cell_angle_beta   90.00000000
_cell_angle_gamma   146.81411293
_symmetry_Int_Tables_number   1
_chemical_formula_structural   Ca3TlO5
_chemical_formula_sum   'Ca6 Tl2 O10'
_cell_volume   261.11919047
_cell_formula_units_Z   2
loop_
 _symmetry_equiv_pos_site_id
 _symmetry_equiv_pos_as_xyz
  1  'x, y, z'
loop_
 _atom_site_type_symbol
 _atom_site_label
 _atom_site_symmetry_multiplicity
 _atom_site_fract_x
 _atom_site_fract_y
 _atom_site_fract_z
 _atom_site_occupancy
  Ca  Ca0  1  0.72904500  0.27095500  0.11325800  1
  Ca  Ca1  1  0.27095500  0.72904500  0.88674200  1
  Ca  Ca2  1  0.27095500  0.72904500  0.61325800  1
  Ca  Ca3  1  0.72904500  0.27095500  0.38674200  1
  Ca  Ca4  1  0.47234400  0.52765600  0.25000000  1
  Ca  Ca5  1  0.52765600  0.47234400  0.75000000  1
  Tl  Tl0  1  0.00000000  0.00000000  0.00000000  1
  Tl  Tl1  1  0.00000000  0.00000000  0.50000000  1
  O  O0  1  0.91573800  0.08426200  0.64482100  1
  O  O1  1  0.08426200  0.91573800  0.35517900  1
  O  O2  1  0.08426200  0.91573800  0.14482100  1
  O  O3  1  0.91573800  0.08426200  0.85517900  1
  O  O4  1  0.63902300  0.36097700  0.54770200  1
  O  O5  1  0.36097700  0.63902300  0.45229800  1
  O  O6  1  0.36097700  0.63902300  0.04770200  1
  O  O7  1  0.63902300  0.36097700  0.95229800  1
  O  O8  1  0.83351000  0.16649000  0.25000000  1
  O  O9  1  0.16649000  0.83351000  0.75000000  1
loop_
_geom_bond_atom_site_label_1
_geom_bond_atom_site_label_2
_geom_bond_distance
_geom_bond_site_symmetry_2
Ca0 O8 2.209989 1_555
Ca0 O2 2.393356 1_655
Ca0 O2 2.393356 1_545
Ca0 O7 2.422015 1_554
Ca0 O6 2.426184 1_545
Ca0 O6 2.426184 1_655
Ca1 O9 2.209989 1_555
Ca1 O3 2.393356 1_455
Ca1 O3 2.393356 1_565
Ca1 O6 2.422015 1_556
Ca1 O7 2.426184 1_455
Ca1 O7 2.426184 1_565
Ca2 O9 2.209989 1_555
Ca2 O0 2.393356 1_455
Ca2 O0 2.393356 1_565
Ca2 O5 2.422015 1_555
Ca2 O4 2.426184 1_455
Ca2 O4 2.426184 1_565
Ca3 O8 2.209989 1_555
Ca3 O1 2.393356 1_655
Ca3 O1 2.393356 1_545
Ca3 O4 2.422015 1_555
Ca3 O5 2.426184 1_545
Ca3 O5 2.426184 1_655
Ca4 O8 2.307797 1_565
Ca4 O8 2.307797 1_455
Ca4 O1 2.553356 1_545
Ca4 O2 2.553356 1_545
Ca4 O2 2.553356 1_655
Ca4 O1 2.553356 1_655
Ca5 O9 2.307797 1_655
Ca5 O9 2.307797 1_545
Ca5 O3 2.553356 1_455
Ca5 O0 2.553356 1_455
Ca5 O3 2.553356 1_565
Ca5 O0 2.553356 1_565
O0 Tl1 2.195013 1_655
O1 Tl1 2.195013 1_565
O2 Tl0 2.195013 1_565
O3 Tl0 2.195013 1_656
O4 Tl1 2.399267 1_555
O4 Tl1 2.399267 1_665
O5 Tl1 2.399267 1_555
O5 Tl1 2.399267 1_665
O6 Tl0 2.399267 1_555
O6 Tl0 2.399267 1_665
O7 Tl0 2.399267 1_556
O7 Tl0 2.399267 1_666
