# generated using pymatgen
data_Li9Mn2Co5O16
_symmetry_space_group_name_H-M   'P 1'
_cell_length_a   2.89259600
_cell_length_b   9.87685800
_cell_length_c   10.27090968
_cell_angle_alpha   80.82573574
_cell_angle_beta   90.00000000
_cell_angle_gamma   90.00000000
_symmetry_Int_Tables_number   1
_chemical_formula_structural   Li9Mn2Co5O16
_chemical_formula_sum   'Li9 Mn2 Co5 O16'
_cell_volume   289.68376662
_cell_formula_units_Z   1
loop_
 _symmetry_equiv_pos_site_id
 _symmetry_equiv_pos_as_xyz
  1  'x, y, z'
loop_
 _atom_site_type_symbol
 _atom_site_label
 _atom_site_symmetry_multiplicity
 _atom_site_fract_x
 _atom_site_fract_y
 _atom_site_fract_z
 _atom_site_occupancy
  Li  Li0  1  0.50000000  0.24386200  0.87623000  1
  Li  Li1  1  0.50000000  0.76780900  0.61352600  1
  Li  Li2  1  0.50000000  0.23538100  0.38492500  1
  Li  Li3  1  0.00000000  0.24097000  0.61893400  1
  Li  Li4  1  0.00000000  0.75772100  0.37659700  1
  Li  Li5  1  0.00000000  0.24196700  0.13113000  1
  Li  Li6  1  0.50000000  0.75191100  0.12356700  1
  Li  Li7  1  0.00000000  0.75963500  0.87385000  1
  Li  Li8  1  0.00000000  0.00092400  0.49984300  1
  Mn  Mn0  1  0.00000000  0.99997400  0.00024400  1
  Mn  Mn1  1  0.00000000  0.49996200  0.75166500  1
  Co  Co0  1  0.00000000  0.49807400  0.24703400  1
  Co  Co1  1  0.50000000  0.49692600  0.49751900  1
  Co  Co2  1  0.50000000  0.99318600  0.27188500  1
  Co  Co3  1  0.50000000  0.50449400  0.00232200  1
  Co  Co4  1  0.50000000  0.00649200  0.72853600  1
  O  O0  1  0.50000000  0.11085200  0.05615800  1
  O  O1  1  0.50000000  0.61025800  0.80531400  1
  O  O2  1  0.50000000  0.12233400  0.57490900  1
  O  O3  1  0.00000000  0.10769600  0.82464700  1
  O  O4  1  0.00000000  0.60761700  0.57189400  1
  O  O5  1  0.00000000  0.11949800  0.30504000  1
  O  O6  1  0.50000000  0.60478300  0.30929200  1
  O  O7  1  0.00000000  0.62309500  0.05734400  1
  O  O8  1  0.50000000  0.38996700  0.69506300  1
  O  O9  1  0.50000000  0.87583300  0.42516800  1
  O  O10  1  0.50000000  0.39042900  0.18917100  1
  O  O11  1  0.00000000  0.38482500  0.44574800  1
  O  O12  1  0.00000000  0.89267400  0.17669900  1
  O  O13  1  0.00000000  0.38962100  0.92530600  1
  O  O14  1  0.50000000  0.89126400  0.94449100  1
  O  O15  1  0.00000000  0.87996800  0.69594600  1
loop_
_geom_bond_atom_site_label_1
_geom_bond_atom_site_label_2
_geom_bond_distance
_geom_bond_site_symmetry_2
Li0 O0 2.089711 1_556
Li0 O3 2.099622 1_655
Li0 O3 2.099622 1_555
Li0 O13 2.156342 1_555
Li0 O13 2.156342 1_655
Li0 O8 2.165311 1_555
Li1 O9 2.054963 1_555
Li1 O15 2.081968 1_555
Li1 O15 2.081968 1_655
Li1 O4 2.234656 1_555
Li1 O4 2.234656 1_655
Li1 O1 2.307442 1_555
Li2 O2 2.087952 1_555
Li2 O5 2.091521 1_555
Li2 O5 2.091521 1_655
Li2 O11 2.225928 1_655
Li2 O11 2.225928 1_555
Li2 O10 2.325024 1_555
Li3 O2 1.959131 1_555
Li3 O2 1.959131 1_455
Li3 O11 2.092107 1_555
Li3 O8 2.288179 1_455
Li3 O8 2.288179 1_555
Li3 O3 2.304351 1_555
Li4 O9 1.971578 1_555
Li4 O9 1.971578 1_455
Li4 O12 2.262601 1_555
Li4 O6 2.276923 1_455
Li4 O6 2.276923 1_555
Li4 O4 2.296353 1_555
Li5 O5 1.991167 1_555
Li5 O0 2.163271 1_555
Li5 O0 2.163271 1_455
Li5 O10 2.208176 1_455
Li5 O10 2.208176 1_555
Li5 O13 2.369118 1_554
Li6 O7 2.109289 1_655
Li6 O7 2.109289 1_555
Li6 O14 2.114257 1_554
Li6 O12 2.136454 1_655
Li6 O12 2.136454 1_555
Li6 O6 2.206028 1_555
Li7 O15 2.014659 1_555
Li7 O7 2.135447 1_556
Li7 O14 2.146903 1_455
Li7 O14 2.146903 1_555
Li7 O1 2.257254 1_555
Li7 O1 2.257254 1_455
Li8 O2 2.102138 1_555
Li8 O2 2.102138 1_455
Li8 O9 2.123365 1_445
Li8 O9 2.123365 1_545
Li8 O5 2.151183 1_555
Li8 O15 2.171810 1_545
Mn0 O14 1.941290 1_554
Mn0 O14 1.941290 1_454
Mn0 O3 1.942389 1_564
Mn0 O12 1.948155 1_555
Mn0 O0 1.954848 1_565
Mn0 O0 1.954848 1_465
Mn1 O13 1.936138 1_555
Mn1 O1 1.942566 1_555
Mn1 O1 1.942566 1_455
Mn1 O8 1.952287 1_455
Mn1 O8 1.952287 1_555
Mn1 O4 1.978329 1_555
Co0 O10 1.943411 1_555
Co0 O10 1.943411 1_455
Co0 O6 1.956114 1_455
Co0 O6 1.956114 1_555
Co0 O7 2.133882 1_555
Co0 O11 2.165352 1_555
Co1 O11 1.946319 1_555
Co1 O11 1.946319 1_655
Co1 O4 2.033934 1_555
Co1 O4 2.033934 1_655
Co1 O6 2.053199 1_555
Co1 O8 2.132885 1_555
Co2 O9 1.800049 1_555
Co2 O5 1.974748 1_565
Co2 O5 1.974748 1_665
Co2 O12 2.083889 1_655
Co2 O12 2.083889 1_555
Co2 O0 2.332146 1_565
Co3 O7 1.998607 1_555
Co3 O7 1.998607 1_655
Co3 O10 2.064651 1_555
Co3 O13 2.071464 1_654
Co3 O13 2.071464 1_554
Co3 O1 2.124044 1_554
Co4 O2 1.795311 1_555
Co4 O15 1.974552 1_545
Co4 O15 1.974552 1_645
Co4 O3 2.092854 1_655
Co4 O3 2.092854 1_555
Co4 O14 2.325954 1_545
