# generated using pymatgen
data_Al4ZnS7
_symmetry_space_group_name_H-M   'P 1'
_cell_length_a   6.17017500
_cell_length_b   6.54322800
_cell_length_c   15.23711900
_cell_angle_alpha   90.00000000
_cell_angle_beta   90.00000000
_cell_angle_gamma   90.00000000
_symmetry_Int_Tables_number   1
_chemical_formula_structural   Al4ZnS7
_chemical_formula_sum   'Al8 Zn2 S14'
_cell_volume   615.16610000
_cell_formula_units_Z   2
loop_
 _symmetry_equiv_pos_site_id
 _symmetry_equiv_pos_as_xyz
  1  'x, y, z'
loop_
 _atom_site_type_symbol
 _atom_site_label
 _atom_site_symmetry_multiplicity
 _atom_site_fract_x
 _atom_site_fract_y
 _atom_site_fract_z
 _atom_site_occupancy
  Al  Al0  1  0.57713800  0.15268600  0.87464500  1
  Al  Al1  1  0.57713800  0.15268600  0.12535500  1
  Al  Al2  1  0.07713800  0.84731400  0.62535500  1
  Al  Al3  1  0.07713800  0.84731400  0.37464500  1
  Al  Al4  1  0.57629200  0.67392300  0.75537100  1
  Al  Al5  1  0.57629200  0.67392300  0.24462900  1
  Al  Al6  1  0.07629200  0.32607700  0.74462900  1
  Al  Al7  1  0.07629200  0.32607700  0.25537100  1
  Zn  Zn0  1  0.61108600  0.74632400  0.50000000  1
  Zn  Zn1  1  0.11108600  0.25367600  0.00000000  1
  S  S0  1  0.44606900  0.81605700  0.62904100  1
  S  S1  1  0.44606900  0.81605700  0.37095900  1
  S  S2  1  0.94606900  0.18394300  0.87095900  1
  S  S3  1  0.94606900  0.18394300  0.12904100  1
  S  S4  1  0.46246400  0.83451600  0.87320400  1
  S  S5  1  0.46246400  0.83451600  0.12679600  1
  S  S6  1  0.96246400  0.16548400  0.62679600  1
  S  S7  1  0.96246400  0.16548400  0.37320400  1
  S  S8  1  0.45034700  0.34144500  0.75719900  1
  S  S9  1  0.45034700  0.34144500  0.24280100  1
  S  S10  1  0.95034700  0.65855500  0.74280100  1
  S  S11  1  0.95034700  0.65855500  0.25719900  1
  S  S12  1  0.97109400  0.67862700  0.50000000  1
  S  S13  1  0.47109400  0.32137300  0.00000000  1
loop_
_geom_bond_atom_site_label_1
_geom_bond_atom_site_label_2
_geom_bond_distance
_geom_bond_site_symmetry_2
Al0 S4 2.198922 1_545
Al0 S2 2.286228 1_555
Al0 S13 2.301019 1_556
Al0 S8 2.310829 1_555
Al1 S5 2.198922 1_545
Al1 S3 2.286228 1_555
Al1 S13 2.301019 1_555
Al1 S9 2.310829 1_555
Al2 S6 2.198922 1_465
Al2 S0 2.286228 1_555
Al2 S12 2.301019 1_455
Al2 S10 2.310829 1_455
Al3 S7 2.198922 1_465
Al3 S1 2.286228 1_555
Al3 S12 2.301019 1_455
Al3 S11 2.310829 1_455
Al4 S4 2.195687 1_555
Al4 S0 2.283812 1_555
Al4 S8 2.310276 1_555
Al4 S10 2.318100 1_555
Al5 S5 2.195687 1_555
Al5 S1 2.283812 1_555
Al5 S9 2.310276 1_555
Al5 S11 2.318100 1_555
Al6 S6 2.195687 1_455
Al6 S2 2.283812 1_455
Al6 S10 2.310276 1_455
Al6 S8 2.318100 1_555
Al7 S7 2.195687 1_455
Al7 S3 2.283812 1_455
Al7 S11 2.310276 1_455
Al7 S9 2.318100 1_555
S0 Zn0 2.260726 1_555
S1 Zn0 2.260726 1_555
S2 Zn1 2.260726 1_656
S3 Zn1 2.260726 1_655
S12 Zn0 2.265047 1_555
S13 Zn1 2.265047 1_555
