# generated using pymatgen
data_Lu5CuPb3
_symmetry_space_group_name_H-M   'P 1'
_cell_length_a   9.01730098
_cell_length_b   9.01730098
_cell_length_c   6.64709700
_cell_angle_alpha   90.00000000
_cell_angle_beta   90.00000000
_cell_angle_gamma   120.00000716
_symmetry_Int_Tables_number   1
_chemical_formula_structural   Lu5CuPb3
_chemical_formula_sum   'Lu10 Cu2 Pb6'
_cell_volume   468.07532552
_cell_formula_units_Z   2
loop_
 _symmetry_equiv_pos_site_id
 _symmetry_equiv_pos_as_xyz
  1  'x, y, z'
loop_
 _atom_site_type_symbol
 _atom_site_label
 _atom_site_symmetry_multiplicity
 _atom_site_fract_x
 _atom_site_fract_y
 _atom_site_fract_z
 _atom_site_occupancy
  Lu  Lu0  1  0.24907500  0.00000000  0.75000000  1
  Lu  Lu1  1  0.75092500  0.00000000  0.25000000  1
  Lu  Lu2  1  0.00000000  0.24907500  0.75000000  1
  Lu  Lu3  1  0.00000000  0.75092500  0.25000000  1
  Lu  Lu4  1  0.75092500  0.75092500  0.75000000  1
  Lu  Lu5  1  0.24907500  0.24907500  0.25000000  1
  Lu  Lu6  1  0.33333300  0.66666700  0.50000000  1
  Lu  Lu7  1  0.66666700  0.33333300  0.50000000  1
  Lu  Lu8  1  0.66666700  0.33333300  0.00000000  1
  Lu  Lu9  1  0.33333300  0.66666700  0.00000000  1
  Cu  Cu0  1  0.00000000  0.00000000  0.50000000  1
  Cu  Cu1  1  0.00000000  0.00000000  0.00000000  1
  Pb  Pb0  1  0.60389100  0.00000000  0.75000000  1
  Pb  Pb1  1  0.39610900  0.00000000  0.25000000  1
  Pb  Pb2  1  0.00000000  0.60389100  0.75000000  1
  Pb  Pb3  1  0.00000000  0.39610900  0.25000000  1
  Pb  Pb4  1  0.39610900  0.39610900  0.75000000  1
  Pb  Pb5  1  0.60389100  0.60389100  0.25000000  1
loop_
_geom_bond_atom_site_label_1
_geom_bond_atom_site_label_2
_geom_bond_distance
_geom_bond_site_symmetry_2
Lu0 Pb2 3.127325 1_545
Lu0 Pb4 3.127325 1_555
Lu0 Pb0 3.199483 1_555
Lu0 Pb1 3.578247 1_556
Lu0 Pb1 3.578247 1_555
Lu1 Pb3 3.127325 1_655
Lu1 Pb5 3.127325 1_545
Lu1 Pb1 3.199483 1_555
Lu1 Pb0 3.578247 1_555
Lu1 Pb0 3.578247 1_554
Lu2 Pb0 3.127325 1_455
Lu2 Pb4 3.127325 1_555
Lu2 Pb2 3.199483 1_555
Lu2 Pb3 3.578247 1_555
Lu2 Pb3 3.578247 1_556
Lu3 Pb1 3.127325 1_565
Lu3 Pb5 3.127325 1_455
Lu3 Pb3 3.199483 1_555
Lu3 Pb2 3.578247 1_555
Lu3 Pb2 3.578247 1_554
Lu4 Pb0 3.127325 1_565
Lu4 Pb2 3.127325 1_655
Lu4 Pb4 3.199482 1_555
Lu4 Pb5 3.578247 1_556
Lu4 Pb5 3.578247 1_555
Lu5 Pb3 3.127325 1_555
Lu5 Pb1 3.127325 1_555
Lu5 Pb5 3.199482 1_555
Lu5 Pb4 3.578247 1_554
Lu5 Pb4 3.578247 1_555
Lu6 Pb2 3.227239 1_555
Lu6 Pb1 3.227239 1_565
Lu6 Pb0 3.227242 1_565
Lu6 Pb3 3.227242 1_555
Lu6 Pb5 3.227247 1_555
Lu6 Pb4 3.227247 1_555
Lu7 Pb0 3.227239 1_555
Lu7 Pb3 3.227239 1_655
Lu7 Pb2 3.227242 1_655
Lu7 Pb1 3.227242 1_555
Lu7 Pb5 3.227247 1_555
Lu7 Pb4 3.227247 1_555
Lu8 Pb0 3.227239 1_554
Lu8 Pb3 3.227239 1_655
Lu8 Pb2 3.227242 1_654
Lu8 Pb1 3.227242 1_555
Lu8 Pb5 3.227247 1_555
Lu8 Pb4 3.227247 1_554
Lu9 Pb2 3.227239 1_554
Lu9 Pb1 3.227239 1_565
Lu9 Pb0 3.227242 1_564
Lu9 Pb3 3.227242 1_555
Lu9 Pb5 3.227247 1_555
Lu9 Pb4 3.227247 1_554
Cu0 Lu5 2.793911 1_555
Cu0 Lu4 2.793911 1_445
Cu0 Lu2 2.793911 1_555
Cu0 Lu0 2.793911 1_555
Cu0 Lu3 2.793911 1_545
Cu0 Lu1 2.793911 1_455
Cu1 Lu5 2.793911 1_555
Cu1 Lu4 2.793911 1_444
Cu1 Lu0 2.793911 1_554
Cu1 Lu2 2.793911 1_554
Cu1 Lu3 2.793911 1_545
Cu1 Lu1 2.793911 1_455
