# generated using pymatgen
data_MgTe4H4(O3F4)2
_symmetry_space_group_name_H-M   'P 1'
_cell_length_a   5.18859343
_cell_length_b   6.23227343
_cell_length_c   11.15764494
_cell_angle_alpha   86.54768744
_cell_angle_beta   82.68779346
_cell_angle_gamma   71.61040171
_symmetry_Int_Tables_number   1
_chemical_formula_structural   MgTe4H4(O3F4)2
_chemical_formula_sum   'Mg1 Te4 H4 O6 F8'
_cell_volume   339.51522101
_cell_formula_units_Z   1
loop_
 _symmetry_equiv_pos_site_id
 _symmetry_equiv_pos_as_xyz
  1  'x, y, z'
loop_
 _atom_site_type_symbol
 _atom_site_label
 _atom_site_symmetry_multiplicity
 _atom_site_fract_x
 _atom_site_fract_y
 _atom_site_fract_z
 _atom_site_occupancy
  Mg  Mg0  1  0.97401300  0.34350200  0.67369000  1
  Te  Te0  1  0.65792700  0.25843500  0.90745200  1
  Te  Te1  1  0.85424400  0.81004100  0.11308300  1
  Te  Te2  1  0.44286700  0.74925100  0.58208600  1
  Te  Te3  1  0.80135700  0.27815700  0.37644100  1
  H  H0  1  0.29634900  0.00169400  0.76799200  1
  H  H1  1  0.18119200  0.78209700  0.26075400  1
  H  H2  1  0.63575200  0.76679400  0.77871700  1
  H  H3  1  0.20446400  0.27648000  0.22984100  1
  O  O0  1  0.78685500  0.44347200  0.52099400  1
  O  O1  1  0.93483900  0.01698900  0.98763200  1
  O  O2  1  0.65748100  0.64361700  0.71779700  1
  O  O3  1  0.03212700  0.39592400  0.25936500  1
  O  O4  1  0.21233700  0.01307600  0.69070400  1
  O  O5  1  0.00533100  0.89637300  0.24766800  1
  F  F0  1  0.51669500  0.57411100  0.33207300  1
  F  F1  1  0.25500900  0.48866200  0.66773700  1
  F  F2  1  0.53035100  0.08209100  0.18178900  1
  F  F3  1  0.53204400  0.96746300  0.85804400  1
  F  F4  1  0.15674200  0.08795200  0.43797100  1
  F  F5  1  0.69846500  0.92159600  0.52867200  1
  F  F6  1  0.23825000  0.64206300  0.06448800  1
  F  F7  1  0.84131000  0.47682500  0.95786400  1
loop_
_geom_bond_atom_site_label_1
_geom_bond_atom_site_label_2
_geom_bond_distance
_geom_bond_site_symmetry_2
Mg0 O0 2.036035 1_555
Mg0 O4 2.052277 1_655
Mg0 O2 2.098769 1_555
H0 O4 1.003746 1_555
H1 O5 0.986158 1_555
H2 O2 1.026053 1_555
H3 O3 0.998396 1_555
O0 Te3 1.946492 1_555
O0 Te2 2.232167 1_555
O1 Te1 1.942031 1_546
O1 Te0 1.982404 1_555
O2 Te2 1.952652 1_555
O3 Te3 1.928644 1_455
O4 Te2 2.057438 1_545
O5 Te1 1.955015 1_455
F0 Te3 2.045948 1_555
F1 Mg0 1.936202 1_455
F1 Te2 2.252934 1_555
F2 Te1 2.077833 1_545
F3 H2 1.491472 1_555
F3 H0 1.634923 1_565
F3 Te0 2.231229 1_565
F4 Te3 2.030206 1_455
F5 Te2 1.971840 1_555
F6 Te1 1.958851 1_455
F7 Te0 2.029727 1_555
