# generated using pymatgen
data_Co3Se
_symmetry_space_group_name_H-M   'P 1'
_cell_length_a   3.56662200
_cell_length_b   3.56662200
_cell_length_c   3.56662200
_cell_angle_alpha   90.00000000
_cell_angle_beta   90.00000000
_cell_angle_gamma   90.00000000
_symmetry_Int_Tables_number   1
_chemical_formula_structural   Co3Se
_chemical_formula_sum   'Co3 Se1'
_cell_volume   45.37025836
_cell_formula_units_Z   1
loop_
 _symmetry_equiv_pos_site_id
 _symmetry_equiv_pos_as_xyz
  1  'x, y, z'
loop_
 _atom_site_type_symbol
 _atom_site_label
 _atom_site_symmetry_multiplicity
 _atom_site_fract_x
 _atom_site_fract_y
 _atom_site_fract_z
 _atom_site_occupancy
  Co  Co0  1  0.50000000  0.00000000  0.50000000  1
  Co  Co1  1  0.00000000  0.50000000  0.50000000  1
  Co  Co2  1  0.50000000  0.50000000  0.00000000  1
  Se  Se0  1  0.00000000  0.00000000  0.00000000  1
loop_
_geom_bond_atom_site_label_1
_geom_bond_atom_site_label_2
_geom_bond_distance
_geom_bond_site_symmetry_2
Co0 Se0 2.521983 1_655
Co0 Co1 2.521983 1_645
Co0 Co2 2.521983 1_546
Co0 Co1 2.521983 1_545
Co0 Co1 2.521983 1_555
Co0 Co2 2.521983 1_556
Co0 Co1 2.521983 1_655
Co0 Se0 2.521983 1_656
Co0 Co2 2.521983 1_555
Co0 Se0 2.521983 1_555
Co0 Co2 2.521983 1_545
Co0 Se0 2.521983 1_556
Co1 Se0 2.521983 1_566
Co1 Co2 2.521983 1_456
Co1 Co2 2.521983 1_455
Co1 Co2 2.521983 1_556
Co1 Se0 2.521983 1_565
Co1 Co2 2.521983 1_555
Co1 Se0 2.521983 1_555
Co1 Se0 2.521983 1_556
Co2 Se0 2.521983 1_655
Co2 Se0 2.521983 1_665
Co2 Se0 2.521983 1_565
Co2 Se0 2.521983 1_555
