# generated using pymatgen
data_LiTi2O4
_symmetry_space_group_name_H-M   'P 1'
_cell_length_a   3.94022200
_cell_length_b   8.15514800
_cell_length_c   8.89467900
_cell_angle_alpha   90.00000000
_cell_angle_beta   90.00000000
_cell_angle_gamma   90.00000000
_symmetry_Int_Tables_number   1
_chemical_formula_structural   LiTi2O4
_chemical_formula_sum   'Li4 Ti8 O16'
_cell_volume   285.81355252
_cell_formula_units_Z   4
loop_
 _symmetry_equiv_pos_site_id
 _symmetry_equiv_pos_as_xyz
  1  'x, y, z'
loop_
 _atom_site_type_symbol
 _atom_site_label
 _atom_site_symmetry_multiplicity
 _atom_site_fract_x
 _atom_site_fract_y
 _atom_site_fract_z
 _atom_site_occupancy
  Li  Li0  1  0.00000000  0.62277200  0.00707800  1
  Li  Li1  1  0.50000000  0.37722800  0.50707800  1
  Li  Li2  1  0.50000000  0.63006100  0.75384600  1
  Li  Li3  1  0.00000000  0.36993900  0.25384600  1
  Ti  Ti0  1  0.00000000  0.64594500  0.50061400  1
  Ti  Ti1  1  0.00000000  0.11682400  0.50570300  1
  Ti  Ti2  1  0.50000000  0.35405500  0.00061400  1
  Ti  Ti3  1  0.50000000  0.88317600  0.00570300  1
  Ti  Ti4  1  0.50000000  0.64190700  0.24628200  1
  Ti  Ti5  1  0.50000000  0.11191700  0.24502700  1
  Ti  Ti6  1  0.00000000  0.35809300  0.74628200  1
  Ti  Ti7  1  0.00000000  0.88808300  0.74502700  1
  O  O0  1  0.00000000  0.62705000  0.72203500  1
  O  O1  1  0.00000000  0.12662300  0.73201900  1
  O  O2  1  0.50000000  0.37295000  0.22203500  1
  O  O3  1  0.50000000  0.87337700  0.23201900  1
  O  O4  1  0.50000000  0.61825700  0.47618500  1
  O  O5  1  0.50000000  0.13529000  0.47382000  1
  O  O6  1  0.00000000  0.38174300  0.97618500  1
  O  O7  1  0.00000000  0.86471000  0.97382000  1
  O  O8  1  0.00000000  0.37644900  0.52250000  1
  O  O9  1  0.00000000  0.87655800  0.51994300  1
  O  O10  1  0.50000000  0.62355100  0.02250000  1
  O  O11  1  0.50000000  0.12344200  0.01994300  1
  O  O12  1  0.50000000  0.38524700  0.76775700  1
  O  O13  1  0.50000000  0.87143800  0.77657600  1
  O  O14  1  0.00000000  0.61475300  0.26775700  1
  O  O15  1  0.00000000  0.12856200  0.27657600  1
loop_
_geom_bond_atom_site_label_1
_geom_bond_atom_site_label_2
_geom_bond_distance
_geom_bond_site_symmetry_2
Li0 O10 1.974891 1_455
Li0 O10 1.974891 1_555
Li0 O6 1.984741 1_554
Li0 O7 1.995093 1_554
Li0 O14 2.319578 1_555
Li0 O0 2.535606 1_554
Li1 O8 1.974891 1_555
Li1 O8 1.974891 1_655
Li1 O4 1.984741 1_555
Li1 O5 1.995093 1_555
Li1 O12 2.319578 1_555
Li1 O2 2.535606 1_555
Li2 O13 1.978820 1_555
Li2 O0 1.990477 1_555
Li2 O0 1.990477 1_655
Li2 O12 2.000325 1_555
Li2 O10 2.390181 1_556
Li2 O4 2.471581 1_555
Li3 O15 1.978820 1_555
Li3 O2 1.990477 1_555
Li3 O2 1.990477 1_455
Li3 O14 2.000325 1_555
Li3 O8 2.390181 1_555
Li3 O6 2.471581 1_554
O0 Ti0 1.975488 1_555
O0 Ti7 2.138563 1_555
O0 Ti6 2.203962 1_555
O1 Ti6 1.891930 1_555
O1 Ti7 1.948767 1_545
O1 Ti1 2.014594 1_555
O2 Ti2 1.975488 1_555
O2 Ti5 2.138563 1_555
O2 Ti4 2.203962 1_555
O3 Ti4 1.891930 1_555
O3 Ti5 1.948767 1_565
O3 Ti3 2.014594 1_555
O4 Ti0 1.994878 1_555
O4 Ti0 1.994878 1_655
O4 Ti4 2.053989 1_555
O5 Ti1 1.996106 1_555
O5 Ti1 1.996106 1_655
O5 Ti5 2.043947 1_555
O6 Ti2 1.994878 1_456
O6 Ti2 1.994878 1_556
O6 Ti6 2.053989 1_555
O7 Ti3 1.996106 1_456
O7 Ti3 1.996106 1_556
O7 Ti7 2.043947 1_555
O8 Ti6 1.996090 1_555
O8 Ti1 2.122545 1_555
O8 Ti0 2.206384 1_555
O9 Ti0 1.888525 1_555
O9 Ti1 1.963494 1_565
O9 Ti7 2.004255 1_555
O10 Ti4 1.996090 1_555
O10 Ti3 2.122545 1_555
O10 Ti2 2.206384 1_555
O11 Ti2 1.888525 1_555
O11 Ti3 1.963494 1_545
O11 Ti5 2.004255 1_555
O12 Ti6 1.991698 1_655
O12 Ti6 1.991698 1_555
O12 Ti2 2.086751 1_556
O13 Ti7 1.994620 1_655
O13 Ti7 1.994620 1_555
O13 Ti3 2.040258 1_556
O14 Ti4 1.991698 1_455
O14 Ti4 1.991698 1_555
O14 Ti0 2.086751 1_555
O15 Ti5 1.994620 1_555
O15 Ti5 1.994620 1_455
O15 Ti1 2.040258 1_555
