# generated using pymatgen
data_SrCaZr2O6
_symmetry_space_group_name_H-M   'P 1'
_cell_length_a   4.20421589
_cell_length_b   5.77197264
_cell_length_c   5.77197264
_cell_angle_alpha   89.55576438
_cell_angle_beta   90.00000000
_cell_angle_gamma   90.00000000
_symmetry_Int_Tables_number   1
_chemical_formula_structural   SrCaZr2O6
_chemical_formula_sum   'Sr1 Ca1 Zr2 O6'
_cell_volume   140.06205141
_cell_formula_units_Z   1
loop_
 _symmetry_equiv_pos_site_id
 _symmetry_equiv_pos_as_xyz
  1  'x, y, z'
loop_
 _atom_site_type_symbol
 _atom_site_label
 _atom_site_symmetry_multiplicity
 _atom_site_fract_x
 _atom_site_fract_y
 _atom_site_fract_z
 _atom_site_occupancy
  Sr  Sr0  1  0.50000000  0.00000000  -0.00000000  1
  Ca  Ca0  1  0.50000000  0.50000000  0.50000000  1
  Zr  Zr0  1  0.00000000  0.00000000  0.50000000  1
  Zr  Zr1  1  -0.00000000  0.50000000  -0.00000000  1
  O  O0  1  0.50000000  0.00000000  0.50000000  1
  O  O1  1  0.50000000  0.50000000  -0.00000000  1
  O  O2  1  -0.00000000  0.32151349  0.67848651  1
  O  O3  1  -0.00000000  0.67848651  0.32151349  1
  O  O4  1  -0.00000000  0.81719454  0.81719454  1
  O  O5  1  -0.00000000  0.18280546  0.18280546  1
loop_
_geom_bond_atom_site_label_1
_geom_bond_atom_site_label_2
_geom_bond_distance
_geom_bond_site_symmetry_2
Ca0 O2 2.554428 1_655
Ca0 O3 2.554428 1_555
Ca0 O2 2.554428 1_555
Ca0 O3 2.554428 1_655
Ca0 O1 2.885986 1_555
Ca0 O1 2.885986 1_556
Ca0 O0 2.885986 1_565
Ca0 O0 2.885986 1_555
O0 Zr0 2.102108 1_555
O0 Zr0 2.102108 1_655
O0 Sr0 2.885986 1_556
O0 Sr0 2.885986 1_555
O1 Zr1 2.102108 1_555
O1 Zr1 2.102108 1_655
O1 Sr0 2.885986 1_565
O1 Sr0 2.885986 1_555
O2 Zr1 2.129523 1_556
O2 Zr0 2.129523 1_555
O3 Zr0 2.129523 1_565
O3 Zr1 2.129523 1_555
O4 Zr0 2.106027 1_565
O4 Zr1 2.106027 1_556
O4 Sr0 2.581239 1_566
O4 Sr0 2.581239 1_466
O5 Zr1 2.106027 1_555
O5 Zr0 2.106027 1_555
O5 Sr0 2.581239 1_455
O5 Sr0 2.581239 1_555
