# generated using pymatgen
data_Na5Ni9As7
_symmetry_space_group_name_H-M   'P 1'
_cell_length_a   9.68114654
_cell_length_b   9.68114654
_cell_length_c   3.98143600
_cell_angle_alpha   90.00000000
_cell_angle_beta   90.00000000
_cell_angle_gamma   120.00000371
_symmetry_Int_Tables_number   1
_chemical_formula_structural   Na5Ni9As7
_chemical_formula_sum   'Na5 Ni9 As7'
_cell_volume   323.16471995
_cell_formula_units_Z   1
loop_
 _symmetry_equiv_pos_site_id
 _symmetry_equiv_pos_as_xyz
  1  'x, y, z'
loop_
 _atom_site_type_symbol
 _atom_site_label
 _atom_site_symmetry_multiplicity
 _atom_site_fract_x
 _atom_site_fract_y
 _atom_site_fract_z
 _atom_site_occupancy
  Na  Na0  1  0.22238900  0.11608900  0.50000000  1
  Na  Na1  1  0.88391100  0.10630000  0.50000000  1
  Na  Na2  1  0.89370000  0.77761100  0.50000000  1
  Na  Na3  1  0.33333300  0.66666700  0.00000000  1
  Na  Na4  1  0.66666700  0.33333300  0.50000000  1
  Ni  Ni0  1  0.12826700  0.29931600  0.00000000  1
  Ni  Ni1  1  0.70068400  0.82895100  0.00000000  1
  Ni  Ni2  1  0.17104900  0.87173300  0.00000000  1
  Ni  Ni3  1  0.42435500  0.38232300  0.00000000  1
  Ni  Ni4  1  0.61767700  0.04203300  0.00000000  1
  Ni  Ni5  1  0.95796700  0.57564500  0.00000000  1
  Ni  Ni6  1  0.05167400  0.43857800  0.50000000  1
  Ni  Ni7  1  0.56142200  0.61309600  0.50000000  1
  Ni  Ni8  1  0.38690400  0.94832600  0.50000000  1
  As  As0  1  0.29013300  0.42040700  0.50000000  1
  As  As1  1  0.57959300  0.86972600  0.50000000  1
  As  As2  1  0.13027400  0.70986700  0.50000000  1
  As  As3  1  0.42105000  0.11267800  0.00000000  1
  As  As4  1  0.88732200  0.30837200  0.00000000  1
  As  As5  1  0.69162800  0.57895000  0.00000000  1
  As  As6  1  0.00000000  0.00000000  0.00000000  1
loop_
_geom_bond_atom_site_label_1
_geom_bond_atom_site_label_2
_geom_bond_distance
_geom_bond_site_symmetry_2
Na0 Ni8 2.785903 1_545
Na0 Ni2 2.937768 1_545
Na0 Ni2 2.937768 1_546
Na0 Ni3 3.064256 1_555
Na0 Ni3 3.064256 1_556
Na0 Ni0 3.091301 1_556
Na0 Ni0 3.091301 1_555
Na1 Ni6 2.785903 1_655
Na1 Ni0 2.937768 1_656
Na1 Ni0 2.937768 1_655
Na1 Ni4 3.064259 1_556
Na1 Ni4 3.064259 1_555
Na1 Ni1 3.091301 1_546
Na1 Ni1 3.091301 1_545
Na2 Ni7 2.785903 1_555
Na2 Ni1 2.937768 1_556
Na2 Ni1 2.937768 1_555
Na2 Ni5 3.064251 1_555
Na2 Ni5 3.064251 1_556
Na2 Ni2 3.091301 1_656
Na2 Ni2 3.091301 1_655
Na3 Ni2 3.086860 1_555
Na3 Ni0 3.086868 1_555
Na3 Ni1 3.086869 1_555
Na3 Ni8 3.202044 1_554
Na3 Ni8 3.202044 1_555
Na3 Ni6 3.202047 1_554
Na3 Ni6 3.202047 1_555
Na3 Ni7 3.202052 1_555
Na3 Ni7 3.202052 1_554
Na3 Ni4 3.283294 1_565
Na3 Ni5 3.283294 1_455
Na3 Ni3 3.283295 1_555
Na4 Ni4 3.286859 1_556
Na4 Ni4 3.286859 1_555
Na4 Ni5 3.286864 1_556
Na4 Ni5 3.286864 1_555
Na4 Ni3 3.286874 1_556
Na4 Ni3 3.286874 1_555
Na4 Ni6 3.336652 1_655
Na4 Ni8 3.336655 1_545
Na4 Ni7 3.336662 1_555
Ni0 Ni3 2.561041 1_555
Ni0 Ni6 2.707433 1_555
Ni0 Ni6 2.707433 1_554
Ni1 Ni4 2.561050 1_565
Ni1 Ni7 2.707433 1_554
Ni1 Ni7 2.707433 1_555
Ni2 Ni5 2.561043 1_455
Ni2 Ni8 2.707433 1_555
Ni2 Ni8 2.707433 1_554
As0 Ni7 2.340603 1_555
As0 Ni6 2.401352 1_555
As0 Ni0 2.440458 1_555
As0 Ni0 2.440458 1_556
As0 Ni3 2.503295 1_556
As0 Ni3 2.503295 1_555
As0 Na0 2.679125 1_555
As0 Na3 2.970626 1_556
As0 Na3 2.970626 1_555
As1 Ni8 2.340603 1_555
As1 Ni7 2.401352 1_555
As1 Ni1 2.440458 1_555
As1 Ni1 2.440458 1_556
As1 Ni4 2.503301 1_565
As1 Ni4 2.503301 1_566
As1 Na1 2.679124 1_565
As1 Na3 2.970624 1_556
As1 Na3 2.970624 1_555
As2 Ni6 2.340603 1_555
As2 Ni8 2.401352 1_555
As2 Ni2 2.440458 1_555
As2 Ni2 2.440458 1_556
As2 Ni5 2.503299 1_455
As2 Ni5 2.503299 1_456
As2 Na2 2.679125 1_455
As2 Na3 2.970619 1_556
As2 Na3 2.970619 1_555
As3 Ni4 2.322338 1_555
As3 Ni2 2.377673 1_545
As3 Ni8 2.465341 1_544
As3 Ni8 2.465341 1_545
As3 Ni3 2.594623 1_555
As3 Na0 2.779661 1_555
As3 Na0 2.779661 1_554
As3 Na4 3.016772 1_555
As3 Na4 3.016772 1_554
As4 Ni5 2.322347 1_555
As4 Ni0 2.377673 1_655
As4 Ni6 2.465341 1_654
As4 Ni6 2.465341 1_655
As4 Ni4 2.594618 1_555
As4 Na1 2.779661 1_555
As4 Na1 2.779661 1_554
As4 Na4 3.016768 1_555
As4 Na4 3.016768 1_554
As5 Ni3 2.322344 1_555
As5 Ni1 2.377673 1_555
As5 Ni7 2.465341 1_555
As5 Ni7 2.465341 1_554
As5 Ni5 2.594613 1_555
As5 Na2 2.779660 1_554
As5 Na2 2.779660 1_555
As5 Na4 3.016775 1_555
As5 Na4 3.016775 1_554
As6 Ni1 2.518031 1_445
As6 Ni0 2.518031 1_555
As6 Ni2 2.518031 1_545
As6 Na0 2.727947 1_555
As6 Na0 2.727947 1_554
As6 Na2 2.727947 1_445
As6 Na2 2.727947 1_444
As6 Na1 2.727947 1_454
As6 Na1 2.727947 1_455
