# generated using pymatgen
data_Rb2Zn5Sb4
_symmetry_space_group_name_H-M   'P 1'
_cell_length_a   7.28887850
_cell_length_b   7.28887850
_cell_length_c   12.48209205
_cell_angle_alpha   90.00000000
_cell_angle_beta   90.00000000
_cell_angle_gamma   117.10373849
_symmetry_Int_Tables_number   1
_chemical_formula_structural   Rb2Zn5Sb4
_chemical_formula_sum   'Rb4 Zn10 Sb8'
_cell_volume   590.32086945
_cell_formula_units_Z   2
loop_
 _symmetry_equiv_pos_site_id
 _symmetry_equiv_pos_as_xyz
  1  'x, y, z'
loop_
 _atom_site_type_symbol
 _atom_site_label
 _atom_site_symmetry_multiplicity
 _atom_site_fract_x
 _atom_site_fract_y
 _atom_site_fract_z
 _atom_site_occupancy
  Rb  Rb0  1  0.22371613  0.77628387  0.50000000  1
  Rb  Rb1  1  0.22371613  0.77628387  0.00000000  1
  Rb  Rb2  1  0.77628387  0.22371613  0.50000000  1
  Rb  Rb3  1  0.77628387  0.22371613  -0.00000000  1
  Zn  Zn0  1  0.53578778  0.25366821  0.25000000  1
  Zn  Zn1  1  0.74633179  0.46421222  0.75000000  1
  Zn  Zn2  1  0.46421222  0.74633179  0.75000000  1
  Zn  Zn3  1  0.25366821  0.53578778  0.25000000  1
  Zn  Zn4  1  0.65811315  0.65811315  0.39052165  1
  Zn  Zn5  1  0.34188685  0.34188685  0.60947835  1
  Zn  Zn6  1  0.65811315  0.65811315  0.10947835  1
  Zn  Zn7  1  0.34188685  0.34188685  0.89052165  1
  Zn  Zn8  1  0.00655157  0.00655157  0.25000000  1
  Zn  Zn9  1  0.99344843  0.99344843  0.75000000  1
  Sb  Sb0  1  0.60177940  0.91937002  0.25000000  1
  Sb  Sb1  1  0.08062998  0.39822060  0.75000000  1
  Sb  Sb2  1  0.39822060  0.08062998  0.75000000  1
  Sb  Sb3  1  0.91937002  0.60177940  0.25000000  1
  Sb  Sb4  1  0.27718830  0.27718830  0.40041397  1
  Sb  Sb5  1  0.72281170  0.72281170  0.59958603  1
  Sb  Sb6  1  0.27718830  0.27718830  0.09958603  1
  Sb  Sb7  1  0.72281170  0.72281170  0.90041397  1
loop_
_geom_bond_atom_site_label_1
_geom_bond_atom_site_label_2
_geom_bond_distance
_geom_bond_site_symmetry_2
Rb0 Zn3 3.634125 1_555
Rb0 Zn2 3.634125 1_555
Rb0 Sb3 3.702091 1_455
Rb0 Sb2 3.702091 1_565
Rb0 Sb4 3.705462 1_565
Rb0 Sb5 3.705462 1_455
Rb1 Zn3 3.634125 1_555
Rb1 Zn2 3.634125 1_554
Rb1 Sb3 3.702091 1_455
Rb1 Sb2 3.702091 1_564
Rb1 Sb6 3.705462 1_565
Rb1 Sb7 3.705462 1_454
Rb2 Zn0 3.634125 1_555
Rb2 Zn1 3.634125 1_555
Rb2 Sb0 3.702091 1_545
Rb2 Sb1 3.702091 1_655
Rb2 Sb4 3.705462 1_655
Rb2 Sb5 3.705462 1_545
Rb3 Zn1 3.634125 1_554
Rb3 Zn0 3.634125 1_555
Rb3 Sb0 3.702091 1_545
Rb3 Sb1 3.702091 1_654
Rb3 Sb6 3.705462 1_655
Rb3 Sb7 3.705462 1_544
Sb0 Zn0 2.690102 1_565
Sb0 Zn8 2.720284 1_665
Sb0 Zn4 2.753880 1_555
Sb0 Zn6 2.753880 1_555
Sb0 Zn3 2.791213 1_555
Sb1 Zn1 2.690102 1_455
Sb1 Zn9 2.720284 1_445
Sb1 Zn7 2.753880 1_555
Sb1 Zn5 2.753880 1_555
Sb1 Zn2 2.791213 1_555
Sb2 Zn2 2.690102 1_545
Sb2 Zn9 2.720284 1_445
Sb2 Zn7 2.753880 1_555
Sb2 Zn5 2.753880 1_555
Sb2 Zn1 2.791213 1_555
Sb3 Zn3 2.690102 1_655
Sb3 Zn8 2.720284 1_665
Sb3 Zn4 2.753880 1_555
Sb3 Zn6 2.753880 1_555
Sb3 Zn0 2.791213 1_555
Sb4 Zn5 2.655549 1_555
Sb4 Zn3 2.720592 1_555
Sb4 Zn0 2.720592 1_555
Sb4 Zn8 2.785994 1_555
Sb4 Zn4 2.899793 1_555
Sb5 Zn4 2.655549 1_555
Sb5 Zn1 2.720592 1_555
Sb5 Zn2 2.720592 1_555
Sb5 Zn9 2.785994 1_555
Sb5 Zn5 2.899793 1_555
Sb6 Zn7 2.655549 1_554
Sb6 Zn3 2.720592 1_555
Sb6 Zn0 2.720592 1_555
Sb6 Zn8 2.785994 1_555
Sb6 Zn6 2.899793 1_555
Sb7 Zn6 2.655549 1_556
Sb7 Zn1 2.720592 1_555
Sb7 Zn2 2.720592 1_555
Sb7 Zn9 2.785994 1_555
Sb7 Zn7 2.899793 1_555
