# generated using pymatgen
data_TaVC2
_symmetry_space_group_name_H-M   'P 1'
_cell_length_a   5.27941884
_cell_length_b   5.27941884
_cell_length_c   5.27941921
_cell_angle_alpha   33.92593411
_cell_angle_beta   33.92593411
_cell_angle_gamma   33.92593114
_symmetry_Int_Tables_number   1
_chemical_formula_structural   TaVC2
_chemical_formula_sum   'Ta1 V1 C2'
_cell_volume   40.85283604
_cell_formula_units_Z   1
loop_
 _symmetry_equiv_pos_site_id
 _symmetry_equiv_pos_as_xyz
  1  'x, y, z'
loop_
 _atom_site_type_symbol
 _atom_site_label
 _atom_site_symmetry_multiplicity
 _atom_site_fract_x
 _atom_site_fract_y
 _atom_site_fract_z
 _atom_site_occupancy
  Ta  Ta0  1  0.50000000  0.50000000  0.50000000  1
  V  V0  1  0.00000000  0.00000000  0.00000000  1
  C  C0  1  0.25405500  0.25405500  0.25405500  1
  C  C1  1  0.74594500  0.74594500  0.74594500  1
loop_
_geom_bond_atom_site_label_1
_geom_bond_atom_site_label_2
_geom_bond_distance
_geom_bond_site_symmetry_2
C0 V0 2.135648 1_655
C0 V0 2.135648 1_565
C0 V0 2.135649 1_556
C0 Ta0 2.204899 1_545
C0 Ta0 2.204899 1_455
C0 Ta0 2.204899 1_554
C1 V0 2.135648 1_656
C1 V0 2.135648 1_566
C1 V0 2.135649 1_665
C1 Ta0 2.204899 1_655
C1 Ta0 2.204899 1_565
C1 Ta0 2.204899 1_556
