# generated using pymatgen
data_Sm3(GeRu)2
_symmetry_space_group_name_H-M   'P 1'
_cell_length_a   5.68525900
_cell_length_b   7.92410300
_cell_length_c   13.62692100
_cell_angle_alpha   90.00000000
_cell_angle_beta   90.00000000
_cell_angle_gamma   90.00000000
_symmetry_Int_Tables_number   1
_chemical_formula_structural   Sm3(GeRu)2
_chemical_formula_sum   'Sm12 Ge8 Ru8'
_cell_volume   613.90066602
_cell_formula_units_Z   4
loop_
 _symmetry_equiv_pos_site_id
 _symmetry_equiv_pos_as_xyz
  1  'x, y, z'
loop_
 _atom_site_type_symbol
 _atom_site_label
 _atom_site_symmetry_multiplicity
 _atom_site_fract_x
 _atom_site_fract_y
 _atom_site_fract_z
 _atom_site_occupancy
  Sm  Sm0  1  0.15194400  0.40205400  0.59884600  1
  Sm  Sm1  1  0.84805600  0.59794600  0.09884600  1
  Sm  Sm2  1  0.15194400  0.09794600  0.40115400  1
  Sm  Sm3  1  0.84805600  0.90205400  0.90115400  1
  Sm  Sm4  1  0.84805600  0.59794600  0.40115400  1
  Sm  Sm5  1  0.15194400  0.40205400  0.90115400  1
  Sm  Sm6  1  0.84805600  0.90205400  0.59884600  1
  Sm  Sm7  1  0.15194400  0.09794600  0.09884600  1
  Sm  Sm8  1  0.63086900  0.26293700  0.75000000  1
  Sm  Sm9  1  0.36913100  0.73706300  0.25000000  1
  Sm  Sm10  1  0.63086900  0.23706300  0.25000000  1
  Sm  Sm11  1  0.36913100  0.76293700  0.75000000  1
  Ge  Ge0  1  0.13505000  0.11175700  0.75000000  1
  Ge  Ge1  1  0.86495000  0.88824300  0.25000000  1
  Ge  Ge2  1  0.13505000  0.38824300  0.25000000  1
  Ge  Ge3  1  0.86495000  0.61175700  0.75000000  1
  Ge  Ge4  1  0.61726600  0.25000000  0.50000000  1
  Ge  Ge5  1  0.38273400  0.75000000  0.00000000  1
  Ge  Ge6  1  0.38273400  0.75000000  0.50000000  1
  Ge  Ge7  1  0.61726600  0.25000000  0.00000000  1
  Ru  Ru0  1  0.35249600  0.03217100  0.59071700  1
  Ru  Ru1  1  0.64750400  0.96782900  0.09071700  1
  Ru  Ru2  1  0.35249600  0.46782900  0.40928300  1
  Ru  Ru3  1  0.64750400  0.53217100  0.90928300  1
  Ru  Ru4  1  0.64750400  0.96782900  0.40928300  1
  Ru  Ru5  1  0.35249600  0.03217100  0.90928300  1
  Ru  Ru6  1  0.64750400  0.53217100  0.59071700  1
  Ru  Ru7  1  0.35249600  0.46782900  0.09071700  1
loop_
_geom_bond_atom_site_label_1
_geom_bond_atom_site_label_2
_geom_bond_distance
_geom_bond_site_symmetry_2
Ge0 Ru5 2.576282 1_555
Ge0 Ru0 2.576282 1_555
Ge0 Sm8 3.062857 1_555
Ge0 Sm11 3.067772 1_545
Ge0 Sm5 3.089244 1_555
Ge0 Sm0 3.089244 1_555
Ge0 Sm8 3.106665 1_455
Ge0 Sm3 3.109041 1_445
Ge0 Sm6 3.109041 1_445
Ge1 Ru4 2.576282 1_555
Ge1 Ru1 2.576282 1_555
Ge1 Sm9 3.062857 1_555
Ge1 Sm10 3.067772 1_565
Ge1 Sm4 3.089244 1_555
Ge1 Sm1 3.089244 1_555
Ge1 Sm9 3.106665 1_655
Ge1 Sm7 3.109041 1_665
Ge1 Sm2 3.109041 1_665
Ge2 Ru7 2.576282 1_555
Ge2 Ru2 2.576282 1_555
Ge2 Sm10 3.062857 1_555
Ge2 Sm9 3.067772 1_555
Ge2 Sm7 3.089244 1_555
Ge2 Sm2 3.089244 1_555
Ge2 Sm10 3.106665 1_455
Ge2 Sm4 3.109041 1_455
Ge2 Sm1 3.109041 1_455
Ge3 Ru6 2.576282 1_555
Ge3 Ru3 2.576282 1_555
Ge3 Sm11 3.062857 1_555
Ge3 Sm8 3.067772 1_555
Ge3 Sm6 3.089244 1_555
Ge3 Sm3 3.089244 1_555
Ge3 Sm11 3.106665 1_655
Ge3 Sm5 3.109041 1_655
Ge3 Sm0 3.109041 1_655
Ge4 Ru4 2.560705 1_545
Ge4 Ru6 2.560705 1_555
Ge4 Ru2 2.602591 1_555
Ge4 Ru0 2.602591 1_555
Ge4 Sm2 3.203846 1_555
Ge4 Sm0 3.203846 1_555
Ge4 Sm4 3.337343 1_555
Ge4 Sm6 3.337343 1_545
Ge4 Sm8 3.409150 1_555
Ge4 Sm10 3.409150 1_555
Ge4 Sm2 3.536434 1_655
Ge4 Sm0 3.536434 1_655
Ge5 Ru7 2.560705 1_555
Ge5 Ru5 2.560705 1_564
Ge5 Ru1 2.602591 1_555
Ge5 Ru3 2.602591 1_554
Ge5 Sm1 3.203846 1_555
Ge5 Sm3 3.203846 1_554
Ge5 Sm5 3.337343 1_554
Ge5 Sm7 3.337343 1_565
Ge5 Sm9 3.409150 1_555
Ge5 Sm11 3.409150 1_554
Ge5 Sm3 3.536434 1_454
Ge5 Sm1 3.536434 1_455
Ge6 Ru0 2.560705 1_565
Ge6 Ru2 2.560705 1_555
Ge6 Ru4 2.602591 1_555
Ge6 Ru6 2.602591 1_555
Ge6 Sm4 3.203846 1_555
Ge6 Sm6 3.203846 1_555
Ge6 Sm0 3.337343 1_555
Ge6 Sm2 3.337343 1_565
Ge6 Sm9 3.409150 1_555
Ge6 Sm11 3.409150 1_555
Ge6 Sm4 3.536434 1_455
Ge6 Sm6 3.536434 1_455
Ge7 Ru1 2.560705 1_545
Ge7 Ru3 2.560705 1_554
Ge7 Ru7 2.602591 1_555
Ge7 Ru5 2.602591 1_554
Ge7 Sm7 3.203846 1_555
Ge7 Sm5 3.203846 1_554
Ge7 Sm3 3.337343 1_544
Ge7 Sm1 3.337343 1_555
Ge7 Sm8 3.409150 1_554
Ge7 Sm10 3.409150 1_555
Ge7 Sm7 3.536434 1_655
Ge7 Sm5 3.536434 1_654
Ru0 Sm2 2.871307 1_555
Ru0 Sm6 3.002170 1_545
Ru0 Sm11 3.044952 1_545
Ru0 Sm6 3.049598 1_445
Ru0 Sm0 3.146905 1_555
Ru0 Sm8 3.249577 1_555
Ru1 Sm3 2.871307 1_554
Ru1 Sm7 3.002170 1_565
Ru1 Sm10 3.044952 1_565
Ru1 Sm7 3.049598 1_665
Ru1 Sm1 3.146905 1_555
Ru1 Sm9 3.249577 1_555
Ru2 Sm0 2.871307 1_555
Ru2 Sm4 3.002170 1_555
Ru2 Sm9 3.044952 1_555
Ru2 Sm4 3.049598 1_455
Ru2 Sm2 3.146905 1_555
Ru2 Sm10 3.249577 1_555
Ru3 Sm1 2.871307 1_556
Ru3 Sm5 3.002170 1_555
Ru3 Sm8 3.044952 1_555
Ru3 Sm5 3.049598 1_655
Ru3 Sm3 3.146905 1_555
Ru3 Sm11 3.249577 1_555
Ru4 Sm6 2.871307 1_555
Ru4 Sm2 3.002170 1_565
Ru4 Sm10 3.044952 1_565
Ru4 Sm2 3.049598 1_665
Ru4 Sm4 3.146905 1_555
Ru4 Sm9 3.249577 1_555
Ru5 Sm7 2.871307 1_556
Ru5 Sm3 3.002170 1_545
Ru5 Sm11 3.044952 1_545
Ru5 Sm3 3.049598 1_445
Ru5 Sm5 3.146905 1_555
Ru5 Sm8 3.249577 1_555
Ru6 Sm4 2.871307 1_555
Ru6 Sm0 3.002170 1_555
Ru6 Sm8 3.044952 1_555
Ru6 Sm0 3.049598 1_655
Ru6 Sm6 3.146905 1_555
Ru6 Sm11 3.249577 1_555
Ru7 Sm5 2.871307 1_554
Ru7 Sm1 3.002170 1_555
Ru7 Sm9 3.044952 1_555
Ru7 Sm1 3.049598 1_455
Ru7 Sm7 3.146905 1_555
Ru7 Sm10 3.249577 1_555
