# generated using pymatgen
data_SbO2
_symmetry_space_group_name_H-M   'P 1'
_cell_length_a   5.94257800
_cell_length_b   6.53528100
_cell_length_c   12.29461900
_cell_angle_alpha   90.00000000
_cell_angle_beta   90.00000000
_cell_angle_gamma   90.00000000
_symmetry_Int_Tables_number   1
_chemical_formula_structural   SbO2
_chemical_formula_sum   'Sb8 O16'
_cell_volume   477.47895150
_cell_formula_units_Z   8
loop_
 _symmetry_equiv_pos_site_id
 _symmetry_equiv_pos_as_xyz
  1  'x, y, z'
loop_
 _atom_site_type_symbol
 _atom_site_label
 _atom_site_symmetry_multiplicity
 _atom_site_fract_x
 _atom_site_fract_y
 _atom_site_fract_z
 _atom_site_occupancy
  Sb  Sb0  1  0.50000000  0.96462800  0.32530300  1
  Sb  Sb1  1  0.50000000  0.96462800  0.67469700  1
  Sb  Sb2  1  0.00000000  0.03537200  0.17469700  1
  Sb  Sb3  1  0.00000000  0.03537200  0.82530300  1
  Sb  Sb4  1  0.25000000  0.50000000  0.25000000  1
  Sb  Sb5  1  0.75000000  0.50000000  0.75000000  1
  Sb  Sb6  1  0.75000000  0.50000000  0.25000000  1
  Sb  Sb7  1  0.25000000  0.50000000  0.75000000  1
  O  O0  1  0.50000000  0.54599600  0.35777300  1
  O  O1  1  0.50000000  0.54599600  0.64222700  1
  O  O2  1  0.00000000  0.45400400  0.14222700  1
  O  O3  1  0.00000000  0.45400400  0.85777300  1
  O  O4  1  0.50000000  0.46742100  0.14439800  1
  O  O5  1  0.50000000  0.46742100  0.85560200  1
  O  O6  1  0.00000000  0.53257900  0.35560200  1
  O  O7  1  0.00000000  0.53257900  0.64439800  1
  O  O8  1  0.25310900  0.81623700  0.22895000  1
  O  O9  1  0.74689100  0.81623700  0.77105000  1
  O  O10  1  0.75310900  0.18376300  0.27105000  1
  O  O11  1  0.24689100  0.18376300  0.72895000  1
  O  O12  1  0.24689100  0.18376300  0.27105000  1
  O  O13  1  0.75310900  0.18376300  0.72895000  1
  O  O14  1  0.74689100  0.81623700  0.22895000  1
  O  O15  1  0.25310900  0.81623700  0.77105000  1
loop_
_geom_bond_atom_site_label_1
_geom_bond_atom_site_label_2
_geom_bond_distance
_geom_bond_site_symmetry_2
O0 Sb4 2.013255 1_555
O0 Sb6 2.013255 1_555
O1 Sb7 2.013255 1_555
O1 Sb5 2.013255 1_555
O2 Sb4 2.013255 1_555
O2 Sb6 2.013255 1_455
O3 Sb7 2.013255 1_555
O3 Sb5 2.013255 1_455
O4 Sb4 1.984477 1_555
O4 Sb6 1.984477 1_555
O5 Sb7 1.984477 1_555
O5 Sb5 1.984477 1_555
O6 Sb4 1.984477 1_555
O6 Sb6 1.984477 1_455
O7 Sb7 1.984477 1_555
O7 Sb5 1.984477 1_455
O8 Sb4 2.082921 1_555
O8 Sb0 2.120468 1_555
O8 Sb2 2.181336 1_565
O9 Sb5 2.082921 1_555
O9 Sb1 2.120468 1_555
O9 Sb3 2.181336 1_665
O10 Sb6 2.082921 1_555
O10 Sb2 2.120468 1_655
O10 Sb0 2.181336 1_545
O11 Sb7 2.082921 1_555
O11 Sb3 2.120468 1_555
O11 Sb1 2.181336 1_545
O12 Sb4 2.082921 1_555
O12 Sb2 2.120468 1_555
O12 Sb0 2.181336 1_545
O13 Sb5 2.082921 1_555
O13 Sb3 2.120468 1_655
O13 Sb1 2.181336 1_545
O14 Sb6 2.082921 1_555
O14 Sb0 2.120468 1_555
O14 Sb2 2.181336 1_665
O15 Sb7 2.082921 1_555
O15 Sb1 2.120468 1_555
O15 Sb3 2.181336 1_565
