# generated using pymatgen
data_Co2P
_symmetry_space_group_name_H-M   'P 1'
_cell_length_a   5.70373084
_cell_length_b   5.70538490
_cell_length_c   3.36295078
_cell_angle_alpha   90.00000000
_cell_angle_beta   90.00000000
_cell_angle_gamma   120.01311127
_symmetry_Int_Tables_number   1
_chemical_formula_structural   Co2P
_chemical_formula_sum   'Co6 P3'
_cell_volume   94.76276434
_cell_formula_units_Z   3
loop_
 _symmetry_equiv_pos_site_id
 _symmetry_equiv_pos_as_xyz
  1  'x, y, z'
loop_
 _atom_site_type_symbol
 _atom_site_label
 _atom_site_symmetry_multiplicity
 _atom_site_fract_x
 _atom_site_fract_y
 _atom_site_fract_z
 _atom_site_occupancy
  Co  Co0  1  0.60404690  0.99978347  0.50000000  1
  Co  Co1  1  0.39596896  0.39579157  0.50000000  1
  Co  Co2  1  0.99995709  0.60428960  0.50000000  1
  Co  Co3  1  0.00004549  0.25812089  0.00000000  1
  Co  Co4  1  0.74182954  0.74190020  0.00000000  1
  Co  Co5  1  0.25815523  0.00010161  0.00000000  1
  P  P0  1  -0.00000080  -0.00003168  0.50000000  1
  P  P1  1  0.66676587  0.33339663  -0.00000000  1
  P  P2  1  0.33323171  0.66664871  0.00000000  1
loop_
_geom_bond_atom_site_label_1
_geom_bond_atom_site_label_2
_geom_bond_distance
_geom_bond_site_symmetry_2
Co0 P0 2.257878 1_665
Co0 P2 2.426686 1_556
Co0 P2 2.426686 1_555
Co0 P1 2.428386 1_566
Co0 P1 2.428386 1_565
Co1 P0 2.257967 1_555
Co1 P1 2.426889 1_555
Co1 P1 2.426889 1_556
Co1 P2 2.428311 1_556
Co1 P2 2.428311 1_555
Co2 P0 2.257379 1_665
Co2 P1 2.426798 1_556
Co2 P1 2.426798 1_555
Co2 P2 2.427100 1_656
Co2 P2 2.427100 1_655
Co3 P2 2.147783 1_555
Co3 P1 2.148196 1_455
Co3 P0 2.235237 1_555
Co3 P0 2.235237 1_554
Co4 P2 2.148192 1_555
Co4 P1 2.148738 1_555
Co4 P0 2.234865 1_664
Co4 P0 2.234865 1_665
Co5 P1 2.148053 1_555
Co5 P2 2.148903 1_545
Co5 P0 2.234806 1_554
Co5 P0 2.234806 1_555
