# generated using pymatgen
data_NbCrGa
_symmetry_space_group_name_H-M   'P 1'
_cell_length_a   5.12470558
_cell_length_b   5.12470558
_cell_length_c   8.00184400
_cell_angle_alpha   90.00000000
_cell_angle_beta   90.00000000
_cell_angle_gamma   121.54861123
_symmetry_Int_Tables_number   1
_chemical_formula_structural   NbCrGa
_chemical_formula_sum   'Nb4 Cr4 Ga4'
_cell_volume   179.08849822
_cell_formula_units_Z   4
loop_
 _symmetry_equiv_pos_site_id
 _symmetry_equiv_pos_as_xyz
  1  'x, y, z'
loop_
 _atom_site_type_symbol
 _atom_site_label
 _atom_site_symmetry_multiplicity
 _atom_site_fract_x
 _atom_site_fract_y
 _atom_site_fract_z
 _atom_site_occupancy
  Nb  Nb0  1  0.33060500  0.66939500  0.18463900  1
  Nb  Nb1  1  0.66490400  0.33509600  0.29999600  1
  Nb  Nb2  1  0.66490400  0.33509600  0.70000400  1
  Nb  Nb3  1  0.33060500  0.66939500  0.81536100  1
  Cr  Cr0  1  0.01170100  0.98829900  0.23533600  1
  Cr  Cr1  1  0.01170100  0.98829900  0.76466400  1
  Cr  Cr2  1  0.82793300  0.66989100  0.00000000  1
  Cr  Cr3  1  0.33010900  0.17206700  0.00000000  1
  Ga  Ga0  1  0.82345000  0.17655000  0.00000000  1
  Ga  Ga1  1  0.16862200  0.33516100  0.50000000  1
  Ga  Ga2  1  0.66483900  0.83137800  0.50000000  1
  Ga  Ga3  1  0.17077900  0.82922100  0.50000000  1
loop_
_geom_bond_atom_site_label_1
_geom_bond_atom_site_label_2
_geom_bond_distance
_geom_bond_site_symmetry_2
Nb0 Nb3 2.954905 1_554
Nb0 Nb1 3.051152 1_565
Nb0 Nb1 3.051152 1_455
Nb0 Nb1 3.129435 1_555
Nb1 Nb2 3.200802 1_555
Nb2 Nb3 3.051152 1_545
Nb2 Nb3 3.051152 1_655
Nb2 Nb3 3.129435 1_555
Cr0 Cr2 2.342557 1_455
Cr0 Cr3 2.342557 1_565
Cr0 Ga0 2.526161 1_465
Cr0 Ga3 2.551418 1_555
Cr0 Ga2 2.606847 1_455
Cr0 Ga1 2.606847 1_565
Cr0 Nb0 2.881201 1_555
Cr0 Nb1 2.899361 1_455
Cr0 Nb1 2.899361 1_565
Cr0 Nb0 3.008188 1_455
Cr0 Nb0 3.008188 1_565
Cr0 Nb1 3.144847 1_465
Cr1 Cr2 2.342557 1_456
Cr1 Cr3 2.342557 1_566
Cr1 Ga0 2.526161 1_466
Cr1 Ga3 2.551418 1_555
Cr1 Ga2 2.606847 1_455
Cr1 Ga1 2.606847 1_565
Cr1 Nb3 2.881201 1_555
Cr1 Nb2 2.899361 1_455
Cr1 Nb2 2.899361 1_565
Cr1 Nb3 3.008188 1_455
Cr1 Nb3 3.008188 1_565
Cr1 Nb2 3.144847 1_465
Cr2 Cr3 2.491254 1_555
Cr2 Cr3 2.513032 1_665
Cr2 Ga0 2.516283 1_555
Cr2 Ga0 2.608572 1_565
Cr2 Nb1 2.811444 1_555
Cr2 Nb2 2.811444 1_554
Cr2 Nb3 2.944785 1_554
Cr2 Nb0 2.944785 1_555
Cr2 Nb3 2.970814 1_654
Cr2 Nb0 2.970814 1_655
Cr3 Ga0 2.516283 1_555
Cr3 Ga0 2.608572 1_455
Cr3 Nb1 2.811444 1_555
Cr3 Nb2 2.811444 1_554
Cr3 Nb3 2.944785 1_554
Cr3 Nb0 2.944785 1_555
Cr3 Nb3 2.970814 1_544
Cr3 Nb0 2.970814 1_545
Ga0 Nb1 2.788125 1_555
Ga0 Nb2 2.788125 1_554
Ga0 Nb0 2.906490 1_545
Ga0 Nb3 2.906490 1_654
Ga0 Nb0 2.906490 1_655
Ga0 Nb3 2.906490 1_544
Ga1 Ga2 2.483212 1_555
Ga1 Ga2 2.521074 1_445
Ga1 Ga3 2.526146 1_555
Ga1 Ga3 2.598594 1_545
Ga1 Nb0 2.915981 1_555
Ga1 Nb3 2.915981 1_555
Ga1 Nb1 3.005086 1_555
Ga1 Nb2 3.005086 1_555
Ga1 Nb1 3.037111 1_455
Ga1 Nb2 3.037111 1_455
Ga2 Ga3 2.526146 1_555
Ga2 Ga3 2.598594 1_655
Ga2 Nb0 2.915981 1_555
Ga2 Nb3 2.915981 1_555
Ga2 Nb2 3.005086 1_555
Ga2 Nb1 3.005086 1_555
Ga2 Nb1 3.037111 1_565
Ga2 Nb2 3.037111 1_565
Ga3 Nb0 2.900283 1_555
Ga3 Nb3 2.900283 1_555
Ga3 Nb2 2.970650 1_565
Ga3 Nb1 2.970650 1_565
Ga3 Nb2 2.970650 1_455
Ga3 Nb1 2.970650 1_455
