# generated using pymatgen
data_Li9Mn2Co5O16
_symmetry_space_group_name_H-M   'P 1'
_cell_length_a   5.91841900
_cell_length_b   7.70448581
_cell_length_c   7.78317738
_cell_angle_alpha   97.46062342
_cell_angle_beta   112.30838967
_cell_angle_gamma   111.88658277
_symmetry_Int_Tables_number   1
_chemical_formula_structural   Li9Mn2Co5O16
_chemical_formula_sum   'Li9 Mn2 Co5 O16'
_cell_volume   289.05234952
_cell_formula_units_Z   1
loop_
 _symmetry_equiv_pos_site_id
 _symmetry_equiv_pos_as_xyz
  1  'x, y, z'
loop_
 _atom_site_type_symbol
 _atom_site_label
 _atom_site_symmetry_multiplicity
 _atom_site_fract_x
 _atom_site_fract_y
 _atom_site_fract_z
 _atom_site_occupancy
  Li  Li0  1  0.50917500  0.37851800  0.12990500  1
  Li  Li1  1  0.48945100  0.87035600  0.61921900  1
  Li  Li2  1  0.50011300  0.74894100  0.24957100  1
  Li  Li3  1  0.49720600  0.25041500  0.74713600  1
  Li  Li4  1  0.50904000  0.12865800  0.38139500  1
  Li  Li5  1  0.49185500  0.62127000  0.86755600  1
  Li  Li6  1  0.50043400  0.49948500  0.50305500  1
  Li  Li7  1  0.49978000  0.00060600  0.00259500  1
  Li  Li8  1  0.00128500  0.49766900  0.49888000  1
  Mn  Mn0  1  0.99582200  0.99892100  0.00060700  1
  Mn  Mn1  1  0.00412200  0.37697800  0.12792600  1
  Co  Co0  1  0.99616100  0.87276000  0.62087100  1
  Co  Co1  1  0.99457300  0.74321500  0.25697600  1
  Co  Co2  1  0.00122600  0.25969000  0.74360600  1
  Co  Co3  1  0.00468400  0.13239200  0.38231500  1
  Co  Co4  1  0.00268200  0.62484800  0.86644200  1
  O  O0  1  0.21625500  0.11679600  0.87460700  1
  O  O1  1  0.23129500  0.60843000  0.35152300  1
  O  O2  1  0.22890000  0.49236700  0.99979800  1
  O  O3  1  0.23103000  0.99604900  0.49157400  1
  O  O4  1  0.21863200  0.87524100  0.11727900  1
  O  O5  1  0.24075200  0.36161900  0.62395000  1
  O  O6  1  0.22440500  0.24066600  0.23017800  1
  O  O7  1  0.22682100  0.75529800  0.75404100  1
  O  O8  1  0.76837000  0.63939100  0.37339100  1
  O  O9  1  0.78165300  0.13505500  0.89713300  1
  O  O10  1  0.76741400  0.00350000  0.50645200  1
  O  O11  1  0.77919800  0.49722400  0.00784300  1
  O  O12  1  0.76598100  0.37401700  0.63897100  1
  O  O13  1  0.77288600  0.88279600  0.12188700  1
  O  O14  1  0.76875800  0.76657600  0.76685900  1
  O  O15  1  0.78004300  0.25025100  0.24645800  1
loop_
_geom_bond_atom_site_label_1
_geom_bond_atom_site_label_2
_geom_bond_distance
_geom_bond_site_symmetry_2
Li0 O6 2.111149 1_555
Li0 O8 2.118828 1_555
Li0 O11 2.140455 1_555
Li0 O2 2.141632 1_554
Li0 O15 2.163183 1_555
Li0 O0 2.181243 1_554
Li1 O3 2.112941 1_555
Li1 O14 2.115247 1_555
Li1 O10 2.144949 1_565
Li1 O7 2.180716 1_555
Li1 O1 2.222721 1_555
Li1 O9 2.283355 1_565
Li2 O8 2.051943 1_555
Li2 O1 2.056760 1_555
Li2 O2 2.128568 1_554
Li2 O10 2.147988 1_565
Li2 O13 2.213663 1_555
Li2 O4 2.224608 1_555
Li3 O5 2.008749 1_555
Li3 O12 2.059491 1_555
Li3 O11 2.139996 1_556
Li3 O3 2.141476 1_545
Li3 O9 2.209046 1_555
Li3 O0 2.247317 1_555
Li4 O10 2.104441 1_555
Li4 O12 2.112640 1_555
Li4 O3 2.128829 1_545
Li4 O4 2.182987 1_545
Li4 O6 2.193199 1_555
Li4 O15 2.228735 1_555
Li5 O14 2.094861 1_555
Li5 O5 2.113000 1_555
Li5 O7 2.167884 1_555
Li5 O13 2.170456 1_556
Li5 O2 2.190187 1_555
Li5 O11 2.251820 1_556
Li6 O1 2.111970 1_555
Li6 O5 2.125103 1_555
Li6 O12 2.158592 1_555
Li6 O8 2.217675 1_555
Li6 O14 2.227828 1_555
Li6 O6 2.234565 1_555
Li7 O7 2.079863 1_544
Li7 O15 2.082442 1_555
Li7 O13 2.114669 1_545
Li7 O9 2.121755 1_554
Li7 O4 2.156769 1_545
Li7 O0 2.166075 1_554
Li8 O5 2.092866 1_555
Li8 O15 2.102766 1_455
Li8 O8 2.103183 1_455
Li8 O12 2.114068 1_455
Li8 O1 2.114266 1_555
Li8 O7 2.157341 1_555
Mn0 O13 1.927990 1_555
Mn0 O4 1.929757 1_655
Mn0 O9 1.947013 1_564
Mn0 O0 1.951356 1_664
Mn0 O14 1.955738 1_554
Mn0 O6 1.978355 1_665
Mn1 O1 1.909569 1_555
Mn1 O11 1.924484 1_455
Mn1 O15 1.939225 1_455
Mn1 O6 1.971335 1_555
Mn1 O2 1.977445 1_554
Mn1 O9 1.984873 1_454
Co0 O7 1.961469 1_655
Co0 O10 1.993703 1_565
Co0 O8 2.020514 1_555
Co0 O3 2.042811 1_655
Co0 O14 2.086431 1_555
Co0 O0 2.094944 1_665
Co1 O8 1.887818 1_555
Co1 O1 2.020686 1_655
Co1 O3 2.047189 1_655
Co1 O13 2.069222 1_555
Co1 O11 2.084404 1_555
Co1 O4 2.086031 1_655
Co2 O12 1.901925 1_455
Co2 O5 1.963647 1_555
Co2 O0 2.054794 1_555
Co2 O2 2.058231 1_555
Co2 O10 2.072742 1_455
Co2 O9 2.141313 1_455
Co3 O15 1.947403 1_455
Co3 O5 1.977641 1_555
Co3 O3 2.009331 1_545
Co3 O10 2.032522 1_455
Co3 O6 2.099001 1_555
Co3 O13 2.144390 1_445
Co4 O7 1.910649 1_555
Co4 O12 2.010427 1_455
Co4 O2 2.037306 1_555
Co4 O14 2.059614 1_455
Co4 O11 2.084233 1_456
Co4 O4 2.110928 1_556
