# generated using pymatgen
data_Na3Ca
_symmetry_space_group_name_H-M   'P 1'
_cell_length_a   7.61984004
_cell_length_b   7.61984004
_cell_length_c   6.17582720
_cell_angle_alpha   90.00000000
_cell_angle_beta   90.00000000
_cell_angle_gamma   120.00000433
_symmetry_Int_Tables_number   1
_chemical_formula_structural   Na3Ca
_chemical_formula_sum   'Na6 Ca2'
_cell_volume   310.53993478
_cell_formula_units_Z   2
loop_
 _symmetry_equiv_pos_site_id
 _symmetry_equiv_pos_as_xyz
  1  'x, y, z'
loop_
 _atom_site_type_symbol
 _atom_site_label
 _atom_site_symmetry_multiplicity
 _atom_site_fract_x
 _atom_site_fract_y
 _atom_site_fract_z
 _atom_site_occupancy
  Na  Na0  1  0.16260372  0.32520844  0.25000000  1
  Na  Na1  1  0.67479156  0.83739628  0.25000000  1
  Na  Na2  1  0.16260372  0.83739628  0.25000000  1
  Na  Na3  1  0.83739628  0.67479156  0.75000000  1
  Na  Na4  1  0.32520844  0.16260372  0.75000000  1
  Na  Na5  1  0.83739628  0.16260372  0.75000000  1
  Ca  Ca0  1  0.33333300  0.66666700  0.75000000  1
  Ca  Ca1  1  0.66666700  0.33333300  0.25000000  1
loop_
_geom_bond_atom_site_label_1
_geom_bond_atom_site_label_2
_geom_bond_distance
_geom_bond_site_symmetry_2
Na0 Na1 3.717050 1_445
Na0 Na2 3.717051 1_545
Na0 Na5 3.760409 1_454
Na0 Na5 3.760409 1_455
Na0 Na4 3.760417 1_554
Na0 Na4 3.760417 1_555
Na0 Na1 3.902789 1_555
Na0 Na2 3.902789 1_555
Na1 Na2 3.717051 1_655
Na1 Na5 3.760409 1_564
Na1 Na5 3.760409 1_565
Na1 Na3 3.760417 1_554
Na1 Na3 3.760417 1_555
Na1 Na2 3.902789 1_555
Na2 Na4 3.760409 1_564
Na2 Na4 3.760409 1_565
Na2 Na3 3.760409 1_455
Na2 Na3 3.760409 1_454
Na3 Na4 3.717050 1_665
Na3 Na5 3.717051 1_565
Na3 Na4 3.902789 1_555
Na3 Na5 3.902789 1_555
Na4 Na5 3.717051 1_455
Na4 Na5 3.902789 1_555
Ca0 Na4 3.810290 1_565
Ca0 Na3 3.810290 1_455
Ca0 Na5 3.810297 1_565
Ca0 Na5 3.810297 1_455
Ca0 Na4 3.810305 1_555
Ca0 Na3 3.810305 1_555
Ca0 Na1 3.822625 1_556
Ca0 Na0 3.822625 1_556
Ca0 Na1 3.822625 1_555
Ca0 Na0 3.822625 1_555
Ca0 Na2 3.822625 1_556
Ca0 Na2 3.822625 1_555
Ca1 Na0 3.810290 1_655
Ca1 Na1 3.810290 1_545
Ca1 Na2 3.810297 1_655
Ca1 Na2 3.810297 1_545
Ca1 Na0 3.810305 1_555
Ca1 Na1 3.810305 1_555
Ca1 Na3 3.822625 1_555
Ca1 Na4 3.822625 1_555
Ca1 Na4 3.822625 1_554
Ca1 Na3 3.822625 1_554
Ca1 Na5 3.822625 1_555
Ca1 Na5 3.822625 1_554
