# generated using pymatgen
data_CaBiMoO5
_symmetry_space_group_name_H-M   'P 1'
_cell_length_a   5.82307032
_cell_length_b   8.69017506
_cell_length_c   12.05799800
_cell_angle_alpha   90.00000000
_cell_angle_beta   90.00000000
_cell_angle_gamma   108.55928912
_symmetry_Int_Tables_number   1
_chemical_formula_structural   CaBiMoO5
_chemical_formula_sum   'Ca4 Bi4 Mo4 O20'
_cell_volume   578.44453744
_cell_formula_units_Z   4
loop_
 _symmetry_equiv_pos_site_id
 _symmetry_equiv_pos_as_xyz
  1  'x, y, z'
loop_
 _atom_site_type_symbol
 _atom_site_label
 _atom_site_symmetry_multiplicity
 _atom_site_fract_x
 _atom_site_fract_y
 _atom_site_fract_z
 _atom_site_occupancy
  Ca  Ca0  1  0.62316600  0.18345000  0.91519900  1
  Ca  Ca1  1  0.37683400  0.81655000  0.08480100  1
  Ca  Ca2  1  0.87683400  0.31655000  0.41519900  1
  Ca  Ca3  1  0.12316600  0.68345000  0.58480100  1
  Bi  Bi0  1  0.11280000  0.14436200  0.10208000  1
  Bi  Bi1  1  0.88720000  0.85563800  0.89792000  1
  Bi  Bi2  1  0.61280000  0.64436200  0.39792000  1
  Bi  Bi3  1  0.38720000  0.35563800  0.60208000  1
  Mo  Mo0  1  0.79162200  0.97568600  0.63920800  1
  Mo  Mo1  1  0.20837800  0.02431400  0.36079200  1
  Mo  Mo2  1  0.70837800  0.52431400  0.13920800  1
  Mo  Mo3  1  0.29162200  0.47568600  0.86079200  1
  O  O0  1  0.54222600  0.32788500  0.07367500  1
  O  O1  1  0.04057400  0.33070000  0.93281900  1
  O  O2  1  0.49513500  0.63207900  0.19136200  1
  O  O3  1  0.74043600  0.51210600  0.52814000  1
  O  O4  1  0.78468700  0.49304500  0.29067900  1
  O  O5  1  0.28468700  0.99304500  0.20932100  1
  O  O6  1  0.54057400  0.83070000  0.56718100  1
  O  O7  1  0.45942600  0.16930000  0.43281900  1
  O  O8  1  0.25956400  0.48789400  0.47186000  1
  O  O9  1  0.95777400  0.17211400  0.57367500  1
  O  O10  1  0.21531300  0.50695500  0.70932100  1
  O  O11  1  0.45777400  0.67211400  0.92632500  1
  O  O12  1  0.04222600  0.82788600  0.42632500  1
  O  O13  1  0.71531300  0.00695500  0.79067900  1
  O  O14  1  0.75956400  0.98789400  0.02814000  1
  O  O15  1  0.24043600  0.01210600  0.97186000  1
  O  O16  1  0.50486500  0.36792100  0.80863800  1
  O  O17  1  0.95942600  0.66930000  0.06718100  1
  O  O18  1  0.00486500  0.86792100  0.69136200  1
  O  O19  1  0.99513500  0.13207900  0.30863800  1
loop_
_geom_bond_atom_site_label_1
_geom_bond_atom_site_label_2
_geom_bond_distance
_geom_bond_site_symmetry_2
Ca0 O16 2.323449 1_555
Ca0 O13 2.327800 1_555
Ca0 O15 2.353384 1_555
Ca0 O1 2.368646 1_655
Ca0 O0 2.413653 1_556
Ca0 O14 2.496537 1_546
Ca1 O2 2.323449 1_555
Ca1 O5 2.327800 1_555
Ca1 O14 2.353384 1_555
Ca1 O17 2.368646 1_455
Ca1 O11 2.413658 1_554
Ca1 O15 2.496537 1_564
Ca2 O19 2.323449 1_555
Ca2 O4 2.327800 1_555
Ca2 O8 2.353384 1_655
Ca2 O7 2.368646 1_555
Ca2 O9 2.413658 1_555
Ca2 O3 2.496537 1_555
Ca3 O18 2.323449 1_555
Ca3 O10 2.327800 1_555
Ca3 O3 2.353384 1_455
Ca3 O6 2.368646 1_555
Ca3 O12 2.413658 1_555
Ca3 O8 2.496537 1_555
Bi0 O15 2.209667 1_554
Bi0 O14 2.257051 1_445
Bi0 O5 2.289311 1_545
Bi0 O0 2.524889 1_555
Bi0 O19 2.576386 1_455
Bi0 O1 2.719937 1_554
Bi1 O14 2.209667 1_556
Bi1 O15 2.257051 1_665
Bi1 O13 2.289311 1_565
Bi1 O11 2.524892 1_555
Bi1 O18 2.576386 1_655
Bi1 O17 2.719937 1_556
Bi2 O3 2.209667 1_555
Bi2 O8 2.257051 1_555
Bi2 O4 2.289311 1_555
Bi2 O12 2.524892 1_655
Bi2 O2 2.576386 1_555
Bi2 O6 2.719937 1_555
Bi3 O8 2.209667 1_555
Bi3 O3 2.257051 1_555
Bi3 O10 2.289311 1_555
Bi3 O9 2.524892 1_455
Bi3 O16 2.576386 1_555
Bi3 O7 2.719937 1_555
Mo0 O6 1.818337 1_555
Mo0 O9 1.850135 1_565
Mo0 O18 1.885378 1_655
Mo0 O13 1.919381 1_565
Mo1 O7 1.818337 1_555
Mo1 O12 1.850135 1_545
Mo1 O19 1.885378 1_455
Mo1 O5 1.919381 1_545
Mo2 O17 1.818337 1_555
Mo2 O0 1.850141 1_555
Mo2 O2 1.885378 1_555
Mo2 O4 1.919381 1_555
Mo3 O1 1.818337 1_555
Mo3 O11 1.850135 1_555
Mo3 O16 1.885378 1_555
Mo3 O10 1.919381 1_555
