# generated using pymatgen
data_Fe6Ni9S20
_symmetry_space_group_name_H-M   'P 1'
_cell_length_a   6.57922500
_cell_length_b   6.67640025
_cell_length_c   27.23032047
_cell_angle_alpha   96.33467012
_cell_angle_beta   90.20745797
_cell_angle_gamma   119.36699707
_symmetry_Int_Tables_number   1
_chemical_formula_structural   Fe6Ni9S20
_chemical_formula_sum   'Fe12 Ni18 S40'
_cell_volume   1033.73439618
_cell_formula_units_Z   2
loop_
 _symmetry_equiv_pos_site_id
 _symmetry_equiv_pos_as_xyz
  1  'x, y, z'
loop_
 _atom_site_type_symbol
 _atom_site_label
 _atom_site_symmetry_multiplicity
 _atom_site_fract_x
 _atom_site_fract_y
 _atom_site_fract_z
 _atom_site_occupancy
  Fe  Fe0  1  0.35068400  0.42686100  0.22702500  1
  Fe  Fe1  1  0.59069300  0.29984500  0.10040500  1
  Fe  Fe2  1  0.11010700  0.29972300  0.10009500  1
  Fe  Fe3  1  0.79876300  0.89878200  0.30038200  1
  Fe  Fe4  1  0.89393600  0.68711300  0.40442100  1
  Fe  Fe5  1  0.99591900  0.50046400  0.49943800  1
  Fe  Fe6  1  0.50466200  0.50015000  0.49965500  1
  Fe  Fe7  1  0.10526200  0.30984700  0.59660500  1
  Fe  Fe8  1  0.20146000  0.10003200  0.69978600  1
  Fe  Fe9  1  0.29359000  0.88886800  0.80393700  1
  Fe  Fe10  1  0.38404100  0.70391000  0.89687100  1
  Fe  Fe11  1  0.91983600  0.70415600  0.89740300  1
  Ni  Ni0  1  0.15013200  0.82623200  0.02508800  1
  Ni  Ni1  1  0.69881600  0.09833300  0.20054900  1
  Ni  Ni2  1  0.54814400  0.02189300  0.42411200  1
  Ni  Ni3  1  0.60194100  0.80296000  0.10085600  1
  Ni  Ni4  1  0.04862500  0.76859900  0.17516400  1
  Ni  Ni5  1  0.29722100  0.89717800  0.30045400  1
  Ni  Ni6  1  0.75240500  0.63175600  0.62580300  1
  Ni  Ni7  1  0.80051400  0.40080600  0.30063500  1
  Ni  Ni8  1  0.24761000  0.36736800  0.37467100  1
  Ni  Ni9  1  0.94571000  0.21941100  0.82321200  1
  Ni  Ni10  1  0.00132500  0.00209300  0.50024500  1
  Ni  Ni11  1  0.45075900  0.97375200  0.57560600  1
  Ni  Ni12  1  0.69971500  0.10005000  0.69973700  1
  Ni  Ni13  1  0.19976400  0.59932900  0.69983800  1
  Ni  Ni14  1  0.64848700  0.56981600  0.77391100  1
  Ni  Ni15  1  0.50131600  0.50254500  0.99901000  1
  Ni  Ni16  1  0.40378200  0.21021300  0.89984300  1
  Ni  Ni17  1  0.84635400  0.16825300  0.97489500  1
  S  S0  1  0.30914700  0.63660500  0.05253600  1
  S  S1  1  0.40117600  0.44966000  0.14859900  1
  S  S2  1  0.77515600  0.63647700  0.05245300  1
  S  S3  1  0.30988500  0.17053700  0.05121600  1
  S  S4  1  0.89055000  0.42662700  0.14744100  1
  S  S5  1  0.50523800  0.24341400  0.25151800  1
  S  S6  1  0.42147200  0.96504200  0.14804500  1
  S  S7  1  0.80077800  0.15665700  0.05573800  1
  S  S8  1  0.60446700  0.04862800  0.34431700  1
  S  S9  1  0.98591600  0.23685300  0.25246600  1
  S  S10  1  0.89681500  0.96555400  0.14835100  1
  S  S11  1  0.51020300  0.76172000  0.25224600  1
  S  S12  1  0.07938600  0.01824400  0.35004700  1
  S  S13  1  0.70835700  0.83747200  0.45183400  1
  S  S14  1  0.62607000  0.56652000  0.34986700  1
  S  S15  1  0.99354800  0.74822200  0.25558800  1
  S  S16  1  0.17813600  0.83851400  0.45201900  1
  S  S17  1  0.80305000  0.65099200  0.54553900  1
  S  S18  1  0.08664000  0.55919700  0.35059800  1
  S  S19  1  0.70171800  0.35662300  0.45205800  1
  S  S20  1  0.29567400  0.63753200  0.54705900  1
  S  S21  1  0.91243400  0.43915600  0.65021500  1
  S  S22  1  0.82222400  0.16406300  0.54813800  1
  S  S23  1  0.19925300  0.35370500  0.45497400  1
  S  S24  1  0.00524000  0.24785000  0.74390200  1
  S  S25  1  0.37502900  0.43330600  0.65064700  1
  S  S26  1  0.29451300  0.16423100  0.54850300  1
  S  S27  1  0.91908400  0.97959800  0.65030400  1
  S  S28  1  0.11203700  0.04223500  0.85120600  1
  S  S29  1  0.48204200  0.22209000  0.74936200  1
  S  S30  1  0.02561300  0.76657900  0.74894400  1
  S  S31  1  0.20563100  0.85799600  0.94488300  1
  S  S32  1  0.39435900  0.94946800  0.65512400  1
  S  S33  1  0.57682000  0.04321500  0.85151000  1
  S  S34  1  0.10004800  0.55416400  0.84956900  1
  S  S35  1  0.48748000  0.76079000  0.74941700  1
  S  S36  1  0.69036900  0.82827000  0.94491800  1
  S  S37  1  0.22097200  0.37007800  0.94732200  1
  S  S38  1  0.60225700  0.56205200  0.85454600  1
  S  S39  1  0.69964300  0.36972200  0.94732700  1
loop_
_geom_bond_atom_site_label_1
_geom_bond_atom_site_label_2
_geom_bond_distance
_geom_bond_site_symmetry_2
Fe0 S11 1.981398 1_555
Fe0 S5 2.091814 1_555
Fe0 S1 2.172887 1_555
Fe0 S9 2.251367 1_455
Fe1 S3 2.028594 1_555
Fe1 S4 2.086530 1_555
Fe1 S1 2.285341 1_555
Fe1 S7 2.314156 1_555
Fe1 S6 2.475551 1_545
Fe1 S2 2.492568 1_555
Fe2 S1 2.055120 1_555
Fe2 S7 2.081849 1_455
Fe2 S3 2.261477 1_555
Fe2 S4 2.332265 1_455
Fe2 S0 2.493386 1_555
Fe2 S10 2.502606 1_445
Fe3 S11 2.042824 1_555
Fe3 S12 2.042906 1_665
Fe3 S8 2.251116 1_565
Fe3 S15 2.268211 1_555
Fe3 S14 2.495245 1_555
Fe3 S9 2.499742 1_565
Fe4 S16 2.009339 1_655
Fe4 S14 2.070343 1_555
Fe4 S13 2.256748 1_555
Fe4 S18 2.298703 1_655
Fe4 S19 2.461134 1_555
Fe4 S12 2.580348 1_665
Fe5 S19 2.053957 1_555
Fe5 S20 2.087550 1_655
Fe5 S17 2.275956 1_555
Fe5 S23 2.291556 1_655
Fe5 S16 2.489754 1_655
Fe5 S22 2.501935 1_555
Fe6 S17 2.048113 1_555
Fe6 S23 2.065591 1_555
Fe6 S19 2.288122 1_555
Fe6 S20 2.320909 1_555
Fe6 S13 2.502638 1_555
Fe6 S26 2.518146 1_555
Fe7 S22 2.019374 1_455
Fe7 S25 2.067277 1_555
Fe7 S26 2.264778 1_555
Fe7 S21 2.301177 1_455
Fe7 S20 2.480193 1_555
Fe7 S27 2.564278 1_445
Fe8 S29 2.039116 1_555
Fe8 S27 2.047237 1_445
Fe8 S24 2.254526 1_555
Fe8 S32 2.256740 1_545
Fe8 S25 2.494263 1_555
Fe8 S30 2.495837 1_545
Fe9 S33 2.004241 1_565
Fe9 S30 2.077675 1_555
Fe9 S28 2.247638 1_565
Fe9 S35 2.316450 1_555
Fe9 S34 2.447916 1_555
Fe9 S29 2.594735 1_565
Fe10 S34 2.003988 1_555
Fe10 S36 2.136098 1_555
Fe10 S31 2.245892 1_555
Fe10 S38 2.321911 1_555
Fe10 S33 2.465135 1_565
Fe10 S37 2.519314 1_555
Fe11 S31 2.014260 1_655
Fe11 S38 2.102727 1_555
Fe11 S34 2.234518 1_655
Fe11 S36 2.375808 1_555
Fe11 S28 2.472828 1_665
Fe11 S39 2.538462 1_555
Ni0 S3 2.039362 1_565
Ni0 S0 2.181333 1_555
Ni0 S31 2.231642 1_554
Ni0 S2 2.324384 1_455
Ni1 S6 2.067181 1_545
Ni1 S9 2.097763 1_555
Ni1 S10 2.317567 1_545
Ni1 S5 2.326504 1_555
Ni1 S4 2.547069 1_555
Ni1 S11 2.558855 1_545
Ni2 S19 1.999689 1_555
Ni2 S13 2.160839 1_545
Ni2 S8 2.217423 1_555
Ni2 S16 2.301748 1_545
Ni3 S10 2.054569 1_555
Ni3 S0 2.058245 1_555
Ni3 S6 2.279547 1_555
Ni3 S2 2.280649 1_555
Ni3 S7 2.533583 1_565
Ni3 S1 2.575260 1_555
Ni4 S4 2.036985 1_455
Ni4 S10 2.180481 1_455
Ni4 S15 2.229110 1_455
Ni4 S6 2.313918 1_555
Ni5 S15 2.058826 1_455
Ni5 S8 2.060707 1_565
Ni5 S12 2.332455 1_565
Ni5 S11 2.344976 1_555
Ni5 S18 2.550105 1_555
Ni5 S5 2.565595 1_565
Ni6 S27 2.048386 1_555
Ni6 S21 2.171477 1_555
Ni6 S17 2.220287 1_555
Ni6 S25 2.315410 1_555
Ni7 S18 2.055358 1_655
Ni7 S5 2.082283 1_555
Ni7 S14 2.295161 1_555
Ni7 S9 2.326130 1_555
Ni7 S15 2.499503 1_555
Ni7 S8 2.502156 1_555
Ni8 S12 2.055988 1_555
Ni8 S18 2.168439 1_555
Ni8 S23 2.216232 1_555
Ni8 S14 2.321043 1_555
Ni9 S34 1.988989 1_655
Ni9 S28 2.154151 1_655
Ni9 S24 2.208428 1_655
Ni9 S33 2.298110 1_555
Ni10 S26 2.058931 1_555
Ni10 S13 2.060360 1_445
Ni10 S22 2.282183 1_455
Ni10 S16 2.282782 1_545
Ni10 S17 2.523521 1_445
Ni10 S23 2.525497 1_555
Ni11 S20 2.011711 1_555
Ni11 S26 2.168522 1_565
Ni11 S32 2.208345 1_555
Ni11 S22 2.307390 1_565
Ni12 S24 2.058099 1_655
Ni12 S32 2.062636 1_545
Ni12 S27 2.335651 1_545
Ni12 S29 2.335892 1_555
Ni12 S21 2.546080 1_555
Ni12 S35 2.549123 1_545
Ni13 S21 2.054986 1_455
Ni13 S35 2.055940 1_555
Ni13 S30 2.298728 1_555
Ni13 S25 2.299928 1_555
Ni13 S24 2.504217 1_555
Ni13 S32 2.508041 1_555
Ni14 S29 2.048033 1_555
Ni14 S35 2.167926 1_555
Ni14 S38 2.220554 1_555
Ni14 S30 2.314448 1_655
Ni15 S37 2.066820 1_555
Ni15 S2 2.068117 1_556
Ni15 S39 2.311361 1_555
Ni15 S0 2.315030 1_556
Ni15 S3 2.547689 1_556
Ni15 S36 2.552054 1_555
Ni16 S28 2.058783 1_555
Ni16 S39 2.059059 1_555
Ni16 S33 2.281086 1_555
Ni16 S37 2.285415 1_555
Ni16 S31 2.524820 1_545
Ni16 S38 2.527247 1_555
Ni17 S36 2.042575 1_545
Ni17 S39 2.189857 1_555
Ni17 S7 2.227466 1_556
Ni17 S37 2.330974 1_655
