# generated using pymatgen
data_Ba9U4(Ag5S12)2
_symmetry_space_group_name_H-M   'P 1'
_cell_length_a   14.11018700
_cell_length_b   14.11018700
_cell_length_c   15.65798000
_cell_angle_alpha   116.78057585
_cell_angle_beta   116.78057585
_cell_angle_gamma   90.00000000
_symmetry_Int_Tables_number   1
_chemical_formula_structural   Ba9U4(Ag5S12)2
_chemical_formula_sum   'Ba18 U8 Ag20 S48'
_cell_volume   2402.60023246
_cell_formula_units_Z   2
loop_
 _symmetry_equiv_pos_site_id
 _symmetry_equiv_pos_as_xyz
  1  'x, y, z'
loop_
 _atom_site_type_symbol
 _atom_site_label
 _atom_site_symmetry_multiplicity
 _atom_site_fract_x
 _atom_site_fract_y
 _atom_site_fract_z
 _atom_site_occupancy
  Ba  Ba0  1  0.17546200  0.45124000  0.80642200  1
  Ba  Ba1  1  0.63095900  0.35518200  0.80642200  1
  Ba  Ba2  1  0.67546200  0.85518200  0.80642200  1
  Ba  Ba3  1  0.13095900  0.95124000  0.80642200  1
  Ba  Ba4  1  0.35518200  0.17546200  0.80642200  1
  Ba  Ba5  1  0.45124000  0.63095900  0.80642200  1
  Ba  Ba6  1  0.95124000  0.67546200  0.80642200  1
  Ba  Ba7  1  0.85518200  0.13095900  0.80642200  1
  Ba  Ba8  1  0.04633900  0.32337500  0.18789900  1
  Ba  Ba9  1  0.14156000  0.86452300  0.18789900  1
  Ba  Ba10  1  0.54633900  0.36452300  0.18789900  1
  Ba  Ba11  1  0.64156000  0.82337500  0.18789900  1
  Ba  Ba12  1  0.86452300  0.04633900  0.18789900  1
  Ba  Ba13  1  0.32337500  0.14156000  0.18789900  1
  Ba  Ba14  1  0.82337500  0.54633900  0.18789900  1
  Ba  Ba15  1  0.36452300  0.64156000  0.18789900  1
  Ba  Ba16  1  0.25278800  0.25278800  0.50557500  1
  Ba  Ba17  1  0.75278800  0.75278800  0.50557500  1
  U  U0  1  0.50687600  0.49846600  0.50534300  1
  U  U1  1  0.99846600  0.00687600  0.50534300  1
  U  U2  1  0.00687600  0.50687600  0.50534300  1
  U  U3  1  0.49846600  0.99846600  0.50534300  1
  U  U4  1  0.49161900  0.99161900  0.98323800  1
  U  U5  1  0.99161900  0.49161900  0.98323800  1
  U  U6  1  0.50009700  0.50009700  0.00019500  1
  U  U7  1  0.00009700  0.00009700  0.00019500  1
  Ag  Ag0  1  0.96050100  0.25123400  0.50147100  1
  Ag  Ag1  1  0.54097000  0.25023700  0.50147100  1
  Ag  Ag2  1  0.46050100  0.75023700  0.50147100  1
  Ag  Ag3  1  0.04097000  0.75123400  0.50147100  1
  Ag  Ag4  1  0.25023700  0.96050100  0.50147100  1
  Ag  Ag5  1  0.25123400  0.54097000  0.50147100  1
  Ag  Ag6  1  0.75123400  0.46050100  0.50147100  1
  Ag  Ag7  1  0.75023700  0.04097000  0.50147100  1
  Ag  Ag8  1  0.82247200  0.67690800  0.99938100  1
  Ag  Ag9  1  0.17690800  0.32247200  0.99938100  1
  Ag  Ag10  1  0.32247200  0.82247200  0.99938100  1
  Ag  Ag11  1  0.67690800  0.17690800  0.99938100  1
  Ag  Ag12  1  0.95095300  0.81606700  0.26702000  1
  Ag  Ag13  1  0.31606700  0.45095300  0.26702000  1
  Ag  Ag14  1  0.45095300  0.95095300  0.26702000  1
  Ag  Ag15  1  0.81606700  0.31606700  0.26702000  1
  Ag  Ag16  1  0.33905700  0.83905700  0.67811400  1
  Ag  Ag17  1  0.83905700  0.33905700  0.67811400  1
  Ag  Ag18  1  0.17520700  0.67520700  0.35041300  1
  Ag  Ag19  1  0.67520700  0.17520700  0.35041300  1
  S  S0  1  0.00119500  0.30099800  0.37127500  1
  S  S1  1  0.37008000  0.07027700  0.37127500  1
  S  S2  1  0.50119500  0.57027700  0.37127500  1
  S  S3  1  0.87008000  0.80099800  0.37127500  1
  S  S4  1  0.07027700  0.00119500  0.37127500  1
  S  S5  1  0.30099800  0.37008000  0.37127500  1
  S  S6  1  0.80099800  0.50119500  0.37127500  1
  S  S7  1  0.57027700  0.87008000  0.37127500  1
  S  S8  1  0.39734400  0.65626800  0.99986900  1
  S  S9  1  0.60252500  0.34360100  0.99986900  1
  S  S10  1  0.89734300  0.84360100  0.99986900  1
  S  S11  1  0.10252500  0.15626800  0.99986900  1
  S  S12  1  0.34360100  0.39734400  0.99986900  1
  S  S13  1  0.65626800  0.60252500  0.99986900  1
  S  S14  1  0.15626800  0.89734300  0.99986900  1
  S  S15  1  0.84360100  0.10252500  0.99986900  1
  S  S16  1  0.20334300  0.50500700  0.62917000  1
  S  S17  1  0.42582700  0.12416300  0.62917000  1
  S  S18  1  0.70334300  0.62416300  0.62917000  1
  S  S19  1  0.92582700  0.00500700  0.62917000  1
  S  S20  1  0.12416300  0.20334300  0.62917000  1
  S  S21  1  0.50500700  0.42582700  0.62917000  1
  S  S22  1  0.00500700  0.70334300  0.62917000  1
  S  S23  1  0.62416300  0.92582700  0.62917000  1
  S  S24  1  0.82247300  0.50947800  0.83195100  1
  S  S25  1  0.00947800  0.32247300  0.83195100  1
  S  S26  1  0.32247300  0.82247300  0.83195100  1
  S  S27  1  0.50947800  0.00947800  0.83195100  1
  S  S28  1  0.56453700  0.31916500  0.38370200  1
  S  S29  1  0.81916500  0.06453700  0.38370200  1
  S  S30  1  0.06453700  0.56453700  0.38370200  1
  S  S31  1  0.31916500  0.81916500  0.38370200  1
  S  S32  1  0.99303100  0.66075700  0.15378800  1
  S  S33  1  0.16075700  0.49303100  0.15378800  1
  S  S34  1  0.49303100  0.99303100  0.15378800  1
  S  S35  1  0.66075700  0.16075700  0.15378800  1
  S  S36  1  0.36537600  0.12838900  0.99376500  1
  S  S37  1  0.62838900  0.86537600  0.99376500  1
  S  S38  1  0.86537600  0.36537600  0.99376500  1
  S  S39  1  0.12838900  0.62838900  0.99376500  1
  S  S40  1  0.17293200  0.94128100  0.61421300  1
  S  S41  1  0.44128100  0.67293200  0.61421300  1
  S  S42  1  0.67293200  0.17293200  0.61421300  1
  S  S43  1  0.94128100  0.44128100  0.61421300  1
  S  S44  1  0.39375800  0.39375800  0.78751700  1
  S  S45  1  0.89375800  0.89375800  0.78751700  1
  S  S46  1  0.10612200  0.10612200  0.21224300  1
  S  S47  1  0.60612200  0.60612200  0.21224300  1
loop_
_geom_bond_atom_site_label_1
_geom_bond_atom_site_label_2
_geom_bond_distance
_geom_bond_site_symmetry_2
Ba0 S20 3.146935 1_555
Ba0 S39 3.231461 1_555
Ba0 S25 3.231784 1_555
Ba0 S43 3.263938 1_455
Ba0 S44 3.292171 1_555
Ba0 S8 3.302070 1_555
Ba0 S12 3.313864 1_555
Ba0 S16 3.363721 1_555
Ba1 S21 3.146933 1_555
Ba1 S38 3.231470 1_555
Ba1 S24 3.231795 1_555
Ba1 S42 3.263946 1_555
Ba1 S44 3.292168 1_555
Ba1 S9 3.302062 1_555
Ba1 S13 3.313859 1_555
Ba1 S17 3.363714 1_555
Ba2 S23 3.146935 1_555
Ba2 S37 3.231461 1_555
Ba2 S27 3.231784 1_565
Ba2 S41 3.263938 1_555
Ba2 S45 3.292168 1_555
Ba2 S10 3.302063 1_555
Ba2 S15 3.313864 1_565
Ba2 S18 3.363721 1_555
Ba3 S22 3.146933 1_555
Ba3 S36 3.231470 1_565
Ba3 S26 3.231795 1_555
Ba3 S40 3.263946 1_555
Ba3 S45 3.292171 1_455
Ba3 S11 3.302063 1_565
Ba3 S14 3.313868 1_555
Ba3 S19 3.363714 1_465
Ba4 S17 3.146935 1_555
Ba4 S36 3.231461 1_555
Ba4 S27 3.231784 1_555
Ba4 S40 3.263938 1_545
Ba4 S44 3.292168 1_555
Ba4 S12 3.302070 1_555
Ba4 S9 3.313864 1_555
Ba4 S20 3.363721 1_555
Ba5 S16 3.146933 1_555
Ba5 S37 3.231470 1_555
Ba5 S26 3.231795 1_555
Ba5 S41 3.263946 1_555
Ba5 S44 3.292171 1_555
Ba5 S13 3.302063 1_555
Ba5 S8 3.313859 1_555
Ba5 S21 3.363714 1_555
Ba6 S18 3.146935 1_555
Ba6 S39 3.231461 1_655
Ba6 S24 3.231784 1_555
Ba6 S43 3.263938 1_555
Ba6 S45 3.292171 1_555
Ba6 S14 3.302063 1_655
Ba6 S10 3.313873 1_555
Ba6 S22 3.363721 1_655
Ba7 S19 3.146933 1_555
Ba7 S38 3.231470 1_555
Ba7 S25 3.231795 1_655
Ba7 S42 3.263946 1_555
Ba7 S45 3.292168 1_545
Ba7 S15 3.302062 1_555
Ba7 S11 3.313859 1_655
Ba7 S23 3.363714 1_545
Ba8 S33 3.248333 1_555
Ba8 S5 3.253868 1_555
Ba8 S11 3.271687 1_554
Ba8 S15 3.271840 1_454
Ba8 S38 3.277216 1_454
Ba8 S30 3.306663 1_555
Ba8 S46 3.319228 1_555
Ba8 S0 3.348876 1_555
Ba9 S32 3.248321 1_455
Ba9 S4 3.253870 1_565
Ba9 S10 3.271701 1_454
Ba9 S14 3.271840 1_554
Ba9 S39 3.277208 1_554
Ba9 S31 3.306655 1_555
Ba9 S46 3.319252 1_565
Ba9 S1 3.348883 1_565
Ba10 S35 3.248321 1_555
Ba10 S6 3.253871 1_555
Ba10 S9 3.271691 1_554
Ba10 S12 3.271848 1_554
Ba10 S36 3.277208 1_554
Ba10 S28 3.306655 1_555
Ba10 S47 3.319255 1_555
Ba10 S2 3.348883 1_555
Ba11 S34 3.248333 1_555
Ba11 S7 3.253868 1_555
Ba11 S8 3.271687 1_554
Ba11 S13 3.271840 1_554
Ba11 S37 3.277216 1_554
Ba11 S29 3.306664 1_565
Ba11 S47 3.319225 1_555
Ba11 S3 3.348876 1_555
Ba12 S35 3.248321 1_555
Ba12 S0 3.253871 1_655
Ba12 S15 3.271691 1_554
Ba12 S10 3.271840 1_544
Ba12 S37 3.277208 1_544
Ba12 S29 3.306655 1_555
Ba12 S46 3.319255 1_655
Ba12 S4 3.348883 1_655
Ba13 S34 3.248333 1_545
Ba13 S1 3.253868 1_555
Ba13 S14 3.271696 1_544
Ba13 S11 3.271840 1_554
Ba13 S36 3.277216 1_554
Ba13 S28 3.306664 1_555
Ba13 S46 3.319225 1_555
Ba13 S5 3.348876 1_555
Ba14 S32 3.248333 1_555
Ba14 S3 3.253868 1_555
Ba14 S13 3.271687 1_554
Ba14 S9 3.271840 1_554
Ba14 S38 3.277216 1_554
Ba14 S30 3.306663 1_655
Ba14 S47 3.319228 1_555
Ba14 S6 3.348876 1_555
Ba15 S33 3.248321 1_555
Ba15 S2 3.253870 1_555
Ba15 S12 3.271692 1_554
Ba15 S8 3.271848 1_554
Ba15 S39 3.277208 1_554
Ba15 S31 3.306655 1_555
Ba15 S47 3.319252 1_555
Ba15 S7 3.348883 1_555
Ba16 S44 3.402325 1_555
Ba16 S21 3.450741 1_555
Ba16 S16 3.450747 1_555
Ba16 S17 3.450752 1_555
Ba16 S20 3.450758 1_555
Ba16 S5 3.471192 1_555
Ba16 S1 3.471199 1_555
Ba16 S0 3.471203 1_555
Ba16 S4 3.471210 1_555
Ba16 S46 3.539773 1_555
Ba17 S45 3.402325 1_555
Ba17 S19 3.450741 1_565
Ba17 S22 3.450747 1_655
Ba17 S23 3.450752 1_555
Ba17 S18 3.450758 1_555
Ba17 S3 3.471192 1_555
Ba17 S7 3.471199 1_555
Ba17 S6 3.471203 1_555
Ba17 S2 3.471210 1_555
Ba17 S47 3.539773 1_555
Ag0 S43 2.558585 1_555
Ag0 S29 2.574045 1_555
Ag0 S20 2.616127 1_655
Ag0 S0 2.706197 1_655
Ag1 S42 2.558585 1_555
Ag1 S28 2.574045 1_555
Ag1 S21 2.616127 1_555
Ag1 S1 2.706197 1_555
Ag2 S41 2.558584 1_555
Ag2 S31 2.574045 1_555
Ag2 S23 2.616127 1_555
Ag2 S2 2.706197 1_555
Ag3 S40 2.558585 1_555
Ag3 S30 2.574045 1_555
Ag3 S22 2.616127 1_555
Ag3 S3 2.706197 1_455
Ag4 S40 2.558584 1_555
Ag4 S31 2.574045 1_555
Ag4 S17 2.616127 1_565
Ag4 S4 2.706197 1_565
Ag5 S41 2.558585 1_555
Ag5 S30 2.574045 1_555
Ag5 S16 2.616127 1_555
Ag5 S5 2.706197 1_555
Ag6 S43 2.558585 1_555
Ag6 S28 2.574045 1_555
Ag6 S18 2.616127 1_555
Ag6 S6 2.706197 1_555
Ag7 S42 2.558585 1_555
Ag7 S29 2.574045 1_555
Ag7 S19 2.616127 1_555
Ag7 S7 2.706197 1_545
Ag8 S13 2.573874 1_555
Ag8 S10 2.573887 1_555
Ag8 S24 2.621622 1_555
Ag8 S32 2.634809 1_556
Ag9 S11 2.573874 1_555
Ag9 S12 2.573892 1_555
Ag9 S25 2.621622 1_555
Ag9 S33 2.634809 1_556
Ag10 S14 2.573874 1_555
Ag10 S8 2.573879 1_555
Ag10 S26 2.621628 1_555
Ag10 S34 2.634816 1_556
Ag11 S9 2.573887 1_555
Ag11 S15 2.573887 1_555
Ag11 S27 2.621616 1_555
Ag11 S35 2.634802 1_556
Ag12 S32 2.397025 1_555
Ag12 S3 2.450236 1_555
Ag12 S4 2.450236 1_665
Ag13 S33 2.397025 1_555
Ag13 S5 2.450236 1_555
Ag13 S2 2.450236 1_555
Ag14 S34 2.397025 1_555
Ag14 S1 2.450236 1_565
Ag14 S7 2.450236 1_555
Ag15 S35 2.397025 1_555
Ag15 S6 2.450236 1_555
Ag15 S0 2.450236 1_655
Ag16 S26 2.632035 1_555
Ag16 S27 2.632035 1_565
Ag16 S40 2.786261 1_555
Ag16 S41 2.786261 1_555
Ag17 S25 2.632035 1_655
Ag17 S24 2.632035 1_555
Ag17 S43 2.786261 1_555
Ag17 S42 2.786261 1_555
Ag18 S31 2.572082 1_555
Ag18 S30 2.572101 1_555
Ag18 S32 2.903535 1_455
Ag18 S33 2.903535 1_555
Ag19 S28 2.572092 1_555
Ag19 S29 2.572092 1_555
Ag19 S35 2.903530 1_555
Ag19 S34 2.903541 1_545
S0 U2 2.684221 1_555
S1 U3 2.684227 1_545
S2 U0 2.684232 1_555
S3 U1 2.684217 1_565
S4 U1 2.684232 1_455
S5 U0 2.684217 1_555
S6 U2 2.684221 1_655
S7 U3 2.684227 1_555
S8 U6 2.638458 1_556
S9 U6 2.638454 1_556
S10 U7 2.638454 1_666
S11 U7 2.638466 1_556
S12 U6 2.638446 1_556
S13 U6 2.638466 1_556
S14 U7 2.638466 1_566
S15 U7 2.638454 1_656
S16 U2 2.578260 1_555
S17 U3 2.578254 1_545
S18 U0 2.578265 1_555
S19 U1 2.578249 1_555
S20 U1 2.578265 1_455
S21 U0 2.578249 1_555
S22 U2 2.578260 1_555
S23 U3 2.578254 1_555
S24 U5 2.610422 1_555
S25 U5 2.610422 1_455
S26 U4 2.610422 1_555
S27 U4 2.610422 1_545
S28 U0 2.782891 1_555
S29 U1 2.782891 1_555
S30 U2 2.782899 1_555
S31 U3 2.782883 1_555
S32 U5 2.652603 1_554
S33 U5 2.652603 1_454
S34 U4 2.652603 1_554
S35 U4 2.652603 1_544
S36 U4 2.627261 1_545
S37 U4 2.627261 1_555
S38 U5 2.627261 1_555
S39 U5 2.627261 1_455
S40 U1 2.731840 1_465
S41 U0 2.731840 1_555
S42 U3 2.731849 1_545
S43 U2 2.731831 1_655
S44 U6 2.566484 1_556
S45 U7 2.566484 1_666
S46 U7 2.558881 1_555
S47 U6 2.558881 1_555
