# generated using pymatgen
data_Mg14ZnSi
_symmetry_space_group_name_H-M   'P 1'
_cell_length_a   6.23232585
_cell_length_b   6.23232536
_cell_length_c   10.25309080
_cell_angle_alpha   90.00000000
_cell_angle_beta   90.00000000
_cell_angle_gamma   120.00000254
_symmetry_Int_Tables_number   1
_chemical_formula_structural   Mg14ZnSi
_chemical_formula_sum   'Mg14 Zn1 Si1'
_cell_volume   344.89404332
_cell_formula_units_Z   1
loop_
 _symmetry_equiv_pos_site_id
 _symmetry_equiv_pos_as_xyz
  1  'x, y, z'
loop_
 _atom_site_type_symbol
 _atom_site_label
 _atom_site_symmetry_multiplicity
 _atom_site_fract_x
 _atom_site_fract_y
 _atom_site_fract_z
 _atom_site_occupancy
  Mg  Mg0  1  0.16675622  0.83337761  0.12500000  1
  Mg  Mg1  1  0.16597451  0.83298675  0.62500000  1
  Mg  Mg2  1  0.66662239  0.33324378  0.12500000  1
  Mg  Mg3  1  0.66701325  0.33402549  0.62500000  1
  Mg  Mg4  1  0.66662239  0.83337761  0.12500000  1
  Mg  Mg5  1  0.66701325  0.83298675  0.62500000  1
  Mg  Mg6  1  0.33112789  0.16887211  0.37453304  1
  Mg  Mg7  1  0.33112789  0.16887211  0.87546696  1
  Mg  Mg8  1  0.33112789  0.66225679  0.37453304  1
  Mg  Mg9  1  0.33112789  0.66225679  0.87546696  1
  Mg  Mg10  1  0.83774321  0.16887211  0.37453304  1
  Mg  Mg11  1  0.83774321  0.16887211  0.87546696  1
  Mg  Mg12  1  0.83333300  0.66666700  0.37363168  1
  Mg  Mg13  1  0.83333300  0.66666700  0.87636832  1
  Zn  Zn0  1  0.16666700  0.33333300  0.12500000  1
  Si  Si0  1  0.16666700  0.33333300  0.62500000  1
loop_
_geom_bond_atom_site_label_1
_geom_bond_atom_site_label_2
_geom_bond_distance
_geom_bond_site_symmetry_2
Mg0 Mg2 3.115329 1_565
Mg0 Mg4 3.115329 1_555
Mg0 Zn0 3.116163 1_555
Mg0 Zn0 3.116163 1_565
Mg0 Mg2 3.116997 1_455
Mg0 Mg4 3.116997 1_455
Mg0 Mg12 3.120450 1_455
Mg0 Mg13 3.120450 1_454
Mg0 Mg8 3.134514 1_555
Mg0 Mg9 3.134514 1_554
Mg0 Mg7 3.134520 1_564
Mg0 Mg6 3.134520 1_565
Mg1 Mg3 3.109689 1_455
Mg1 Mg5 3.109689 1_455
Mg1 Si0 3.116165 1_555
Mg1 Si0 3.116165 1_565
Mg1 Mg3 3.122636 1_565
Mg1 Mg5 3.122637 1_555
Mg1 Mg13 3.141001 1_455
Mg1 Mg12 3.141001 1_455
Mg1 Mg9 3.143529 1_555
Mg1 Mg8 3.143529 1_555
Mg1 Mg6 3.143535 1_565
Mg1 Mg7 3.143535 1_565
Mg2 Mg4 3.115329 1_545
Mg2 Zn0 3.116163 1_555
Mg2 Zn0 3.116163 1_655
Mg2 Mg4 3.116997 1_555
Mg2 Mg7 3.134521 1_554
Mg2 Mg6 3.134521 1_555
Mg3 Mg5 3.109689 1_555
Mg3 Si0 3.116165 1_655
Mg3 Si0 3.116165 1_555
Mg3 Mg5 3.122636 1_545
Mg3 Mg6 3.143535 1_555
Mg3 Mg7 3.143535 1_555
Mg4 Zn0 3.116163 1_555
Mg4 Zn0 3.116163 1_665
Mg4 Mg8 3.134520 1_555
Mg4 Mg9 3.134520 1_554
Mg5 Si0 3.116165 1_665
Mg5 Si0 3.116165 1_555
Mg5 Mg9 3.143535 1_555
Mg5 Mg8 3.143535 1_555
Mg6 Mg8 3.074934 1_555
Mg6 Zn0 3.114090 1_555
Mg6 Si0 3.121962 1_555
Mg6 Mg8 3.157392 1_545
Mg7 Mg9 3.074934 1_555
Mg7 Zn0 3.114090 1_556
Mg7 Si0 3.121962 1_555
Mg7 Mg9 3.157392 1_545
Mg8 Zn0 3.114097 1_555
Mg8 Si0 3.121968 1_555
Mg9 Zn0 3.114097 1_556
Mg9 Si0 3.121968 1_555
Mg10 Mg8 3.074934 1_655
Mg10 Mg6 3.074934 1_655
Mg10 Zn0 3.114097 1_655
Mg10 Mg12 3.116267 1_555
Mg10 Mg12 3.116267 1_545
Mg10 Si0 3.121968 1_655
Mg10 Mg2 3.134514 1_555
Mg10 Mg4 3.134520 1_545
Mg10 Mg3 3.143529 1_555
Mg10 Mg5 3.143535 1_545
Mg10 Mg8 3.157392 1_545
Mg10 Mg6 3.157392 1_555
Mg11 Mg9 3.074934 1_655
Mg11 Mg7 3.074934 1_655
Mg11 Zn0 3.114097 1_656
Mg11 Mg13 3.116267 1_555
Mg11 Mg13 3.116267 1_545
Mg11 Si0 3.121968 1_655
Mg11 Mg2 3.134514 1_556
Mg11 Mg4 3.134520 1_546
Mg11 Mg3 3.143529 1_555
Mg11 Mg5 3.143535 1_545
Mg11 Mg9 3.157392 1_545
Mg11 Mg7 3.157392 1_555
Mg12 Mg6 3.116267 1_665
Mg12 Mg6 3.116267 1_555
Mg12 Mg8 3.116268 1_655
Mg12 Mg8 3.116268 1_555
Mg12 Mg4 3.120444 1_555
Mg12 Mg2 3.120450 1_555
Mg12 Mg5 3.140995 1_555
Mg12 Mg3 3.141001 1_555
Mg13 Mg7 3.116267 1_665
Mg13 Mg7 3.116267 1_555
Mg13 Mg9 3.116268 1_655
Mg13 Mg9 3.116268 1_555
Mg13 Mg4 3.120444 1_556
Mg13 Mg2 3.120450 1_556
Mg13 Mg5 3.140995 1_555
Mg13 Mg3 3.141001 1_555
