# generated using pymatgen
data_Ti3O5
_symmetry_space_group_name_H-M   'P 1'
_cell_length_a   10.79992387
_cell_length_b   10.80829374
_cell_length_c   11.18353431
_cell_angle_alpha   90.55199653
_cell_angle_beta   83.06437708
_cell_angle_gamma   91.43446468
_symmetry_Int_Tables_number   1
_chemical_formula_structural   Ti3O5
_chemical_formula_sum   'Ti39 O65'
_cell_volume   1295.45249916
_cell_formula_units_Z   13
loop_
 _symmetry_equiv_pos_site_id
 _symmetry_equiv_pos_as_xyz
  1  'x, y, z'
loop_
 _atom_site_type_symbol
 _atom_site_label
 _atom_site_symmetry_multiplicity
 _atom_site_fract_x
 _atom_site_fract_y
 _atom_site_fract_z
 _atom_site_occupancy
  Ti  Ti0  1  0.69595100  0.74127400  0.57759900  1
  Ti  Ti1  1  0.25170700  0.64332100  0.72136400  1
  Ti  Ti2  1  0.44282300  0.85617400  0.64593200  1
  Ti  Ti3  1  0.53806700  0.06249000  0.95938900  1
  Ti  Ti4  1  0.32235100  0.40065400  0.29881200  1
  Ti  Ti5  1  0.99303500  0.56605700  0.10398100  1
  Ti  Ti6  1  0.49820500  0.35220500  0.99956400  1
  Ti  Ti7  1  0.78743100  0.26599900  0.02595600  1
  Ti  Ti8  1  0.64035800  0.94773400  0.44393700  1
  Ti  Ti9  1  0.01151000  0.28660500  0.85397800  1
  Ti  Ti10  1  0.73409400  0.45963700  0.55891500  1
  Ti  Ti11  1  0.96411200  0.23644700  0.52203000  1
  Ti  Ti12  1  0.31040600  0.78346200  0.92615800  1
  Ti  Ti13  1  0.83339600  0.99592800  0.99146600  1
  Ti  Ti14  1  0.96377800  0.70971400  0.61855000  1
  Ti  Ti15  1  0.08130500  0.64846300  0.30822500  1
  Ti  Ti16  1  0.38239400  0.06782500  0.53316200  1
  Ti  Ti17  1  0.51530200  0.52836800  0.74242000  1
  Ti  Ti18  1  0.69964300  0.61318000  0.97966100  1
  Ti  Ti19  1  0.07703500  0.85244500  0.16218500  1
  Ti  Ti20  1  0.77715300  0.94007000  0.73434300  1
  Ti  Ti21  1  0.34274000  0.88951600  0.35522000  1
  Ti  Ti22  1  0.08472100  0.05604700  0.98866700  1
  Ti  Ti23  1  0.31763900  0.14223800  0.18326000  1
  Ti  Ti24  1  0.77556500  0.26880800  0.34862300  1
  Ti  Ti25  1  0.76905200  0.76464000  0.27923500  1
  Ti  Ti26  1  0.23870600  0.43389500  0.86674200  1
  Ti  Ti27  1  0.96689600  0.52051000  0.85468000  1
  Ti  Ti28  1  0.08434600  0.86101100  0.80380100  1
  Ti  Ti29  1  0.61309400  0.08650800  0.25153200  1
  Ti  Ti30  1  0.51770900  0.34238000  0.49672100  1
  Ti  Ti31  1  0.21619500  0.40548200  0.59642100  1
  Ti  Ti32  1  0.33817600  0.65775000  0.21644100  1
  Ti  Ti33  1  0.62515700  0.45618500  0.24005500  1
  Ti  Ti34  1  0.08460300  0.06950100  0.65695700  1
  Ti  Ti35  1  0.50816200  0.84166100  0.08282100  1
  Ti  Ti36  1  0.96921600  0.91304900  0.48138900  1
  Ti  Ti37  1  0.09415700  0.11946500  0.31311300  1
  Ti  Ti38  1  0.29924000  0.14942900  0.79140200  1
  O  O0  1  0.79472900  0.82825500  0.44149100  1
  O  O1  1  0.13199500  0.66574700  0.12565100  1
  O  O2  1  0.93006300  0.15494000  0.97145500  1
  O  O3  1  0.61195100  0.59060900  0.58830500  1
  O  O4  1  0.50827600  0.18378600  0.53468800  1
  O  O5  1  0.67171100  0.42779000  0.40656900  1
  O  O6  1  0.24436600  0.61456100  0.89185300  1
  O  O7  1  0.14733900  0.03458100  0.81617200  1
  O  O8  1  0.62514000  0.24300100  0.96636100  1
  O  O9  1  0.02961000  0.73849000  0.45187500  1
  O  O10  1  0.43254600  0.68206200  0.72174100  1
  O  O11  1  0.97743100  0.20157000  0.70751500  1
  O  O12  1  0.17925700  0.24791500  0.89910600  1
  O  O13  1  0.98203600  0.51187100  0.25537700  1
  O  O14  1  0.66175500  0.77611700  0.02925400  1
  O  O15  1  0.06434500  0.45423500  0.97918000  1
  O  O16  1  0.78407400  0.34898900  0.17112700  1
  O  O17  1  0.26483300  0.82252800  0.75846700  1
  O  O18  1  0.21763900  0.79439100  0.27628900  1
  O  O19  1  0.07258400  0.36135200  0.52160900  1
  O  O20  1  0.72262800  0.10459000  0.38539400  1
  O  O21  1  0.06550000  0.08476500  0.48543800  1
  O  O22  1  0.62468000  0.89476400  0.66520600  1
  O  O23  1  0.22030800  0.53732500  0.31008700  1
  O  O24  1  0.57545500  0.38440300  0.65221000  1
  O  O25  1  0.45583300  0.52563300  0.25066500  1
  O  O26  1  0.87356900  0.61289600  0.99369000  1
  O  O27  1  0.39015700  0.70444100  0.05378600  1
  O  O28  1  0.44899800  0.90519700  0.93059200  1
  O  O29  1  0.80065200  0.29968100  0.53090100  1
  O  O30  1  0.04861800  0.67258600  0.76422900  1
  O  O31  1  0.47446000  0.03760300  0.13555600  1
  O  O32  1  0.39299100  0.30913400  0.13721600  1
  O  O33  1  0.85185300  0.37838800  0.89384100  1
  O  O34  1  0.40832700  0.15964900  0.91613100  1
  O  O35  1  0.69616200  0.01879800  0.87434800  1
  O  O36  1  0.72200000  0.09411600  0.10206900  1
  O  O37  1  0.85580100  0.01362300  0.59907800  1
  O  O38  1  0.70089900  0.61289000  0.24901300  1
  O  O39  1  0.85370400  0.58363700  0.56934600  1
  O  O40  1  0.32599900  0.88502300  0.52209000  1
  O  O41  1  0.60810300  0.47620100  0.05653700  1
  O  O42  1  0.05613400  0.88348200  0.63273400  1
  O  O43  1  0.02171500  0.95031500  0.30880400  1
  O  O44  1  0.40097600  0.02200000  0.69867600  1
  O  O45  1  0.94735800  0.22335600  0.33598100  1
  O  O46  1  0.10444300  0.41762300  0.75154200  1
  O  O47  1  0.90863800  0.92010900  0.84355100  1
  O  O48  1  0.68003900  0.90507900  0.26003200  1
  O  O49  1  0.93484300  0.74044800  0.21753500  1
  O  O50  1  0.41858100  0.42754500  0.88121300  1
  O  O51  1  0.80880000  0.76833400  0.70451300  1
  O  O52  1  0.95452300  0.93833400  0.08091800  1
  O  O53  1  0.24012200  0.16602500  0.62242700  1
  O  O54  1  0.48973000  0.00617400  0.38004200  1
  O  O55  1  0.16615600  0.87020800  0.98432400  1
  O  O56  1  0.21199500  0.26342800  0.28674400  1
  O  O57  1  0.16804700  0.07838100  0.13068000  1
  O  O58  1  0.55275100  0.79415100  0.49558200  1
  O  O59  1  0.22365900  0.57169000  0.57516800  1
  O  O60  1  0.63659200  0.58291400  0.83667200  1
  O  O61  1  0.27640400  0.04871900  0.33352600  1
  O  O62  1  0.58487100  0.25798600  0.29061200  1
  O  O63  1  0.35362100  0.37484000  0.46209500  1
  O  O64  1  0.45553000  0.79228000  0.25235800  1
loop_
_geom_bond_atom_site_label_1
_geom_bond_atom_site_label_2
_geom_bond_distance
_geom_bond_site_symmetry_2
O0 Ti0 1.980923 1_555
O0 Ti25 1.982511 1_555
O0 Ti8 2.131667 1_555
O0 Ti36 2.167692 1_555
O1 Ti5 1.863816 1_455
O1 Ti15 2.058133 1_555
O1 Ti19 2.139307 1_555
O2 Ti13 1.988697 1_545
O2 Ti7 2.009221 1_556
O2 Ti22 2.034799 1_655
O2 Ti9 2.054073 1_655
O3 Ti0 1.841924 1_555
O3 Ti10 1.957509 1_555
O3 Ti17 2.016284 1_555
O4 Ti30 1.767412 1_555
O4 Ti16 1.827380 1_555
O5 Ti10 1.931199 1_555
O5 Ti33 2.014864 1_555
O5 Ti30 2.042311 1_555
O5 Ti24 2.128406 1_555
O6 Ti1 1.926650 1_555
O6 Ti26 1.970586 1_555
O6 Ti12 1.993953 1_555
O7 Ti22 1.979084 1_555
O7 Ti28 1.988760 1_545
O7 Ti34 2.022157 1_555
O7 Ti38 2.025786 1_555
O8 Ti6 1.833024 1_555
O8 Ti7 1.958358 1_556
O8 Ti3 2.149367 1_555
O9 Ti15 1.902593 1_555
O9 Ti14 1.938250 1_455
O9 Ti36 2.022765 1_455
O10 Ti17 1.934794 1_555
O10 Ti1 1.987650 1_555
O10 Ti2 2.066407 1_555
O11 Ti34 1.898970 1_655
O11 Ti9 1.939790 1_655
O11 Ti11 2.134404 1_555
O12 Ti38 1.982538 1_555
O12 Ti9 1.993612 1_555
O12 Ti26 2.115919 1_555
O12 Ti22 2.456251 1_555
O13 Ti5 1.786305 1_555
O13 Ti15 1.932671 1_655
O14 Ti35 1.850134 1_555
O14 Ti18 1.881187 1_554
O15 Ti5 1.938136 1_456
O15 Ti27 1.992548 1_455
O15 Ti26 2.149201 1_555
O15 Ti9 2.379302 1_555
O16 Ti7 1.844200 1_555
O16 Ti33 2.155244 1_555
O16 Ti24 2.164471 1_555
O17 Ti1 1.982148 1_555
O17 Ti28 2.006854 1_555
O17 Ti12 2.046010 1_555
O17 Ti2 2.191088 1_555
O18 Ti21 1.965374 1_555
O18 Ti32 2.047077 1_555
O18 Ti15 2.133250 1_555
O18 Ti19 2.204337 1_555
O19 Ti11 1.764807 1_455
O19 Ti31 1.897824 1_555
O20 Ti24 1.884881 1_555
O20 Ti8 1.974280 1_545
O20 Ti29 2.022185 1_555
O21 Ti37 1.953106 1_555
O21 Ti34 1.962806 1_555
O21 Ti11 2.005716 1_455
O21 Ti36 2.107383 1_445
O22 Ti20 1.951680 1_555
O22 Ti2 2.034056 1_555
O22 Ti0 2.038392 1_555
O22 Ti8 2.530057 1_555
O23 Ti4 1.859260 1_555
O23 Ti15 1.948160 1_555
O23 Ti32 2.008168 1_555
O24 Ti17 1.929538 1_555
O24 Ti30 1.962544 1_555
O24 Ti10 2.049407 1_555
O25 Ti4 1.980371 1_555
O25 Ti33 1.983986 1_555
O25 Ti32 2.004754 1_555
O26 Ti18 1.903795 1_555
O26 Ti5 1.967593 1_556
O26 Ti27 2.017892 1_555
O27 Ti32 1.906745 1_555
O27 Ti12 1.966164 1_554
O27 Ti35 1.981239 1_555
O28 Ti12 1.972835 1_555
O28 Ti3 1.975264 1_565
O28 Ti35 2.021245 1_556
O29 Ti10 1.897678 1_555
O29 Ti11 1.900061 1_555
O29 Ti24 2.110933 1_555
O30 Ti14 2.011570 1_455
O30 Ti27 2.060996 1_455
O30 Ti28 2.115850 1_555
O30 Ti1 2.217769 1_555
O31 Ti3 2.024827 1_554
O31 Ti23 2.073195 1_555
O31 Ti29 2.149312 1_555
O31 Ti35 2.219923 1_545
O32 Ti6 1.855431 1_554
O32 Ti23 2.006124 1_555
O32 Ti4 2.120585 1_555
O33 Ti27 1.970048 1_555
O33 Ti7 1.971470 1_556
O33 Ti9 2.011832 1_655
O34 Ti3 1.883422 1_555
O34 Ti38 1.932195 1_555
O34 Ti6 2.494879 1_555
O35 Ti20 1.903040 1_545
O35 Ti3 1.918938 1_555
O35 Ti13 2.113467 1_545
O36 Ti29 1.925395 1_555
O36 Ti13 1.944956 1_544
O36 Ti7 2.120063 1_555
O37 Ti20 1.822333 1_545
O37 Ti36 2.015944 1_545
O38 Ti25 1.826220 1_555
O38 Ti33 1.869491 1_555
O39 Ti10 1.850734 1_555
O39 Ti14 1.906659 1_555
O39 Ti0 2.432776 1_555
O40 Ti21 1.854065 1_555
O40 Ti2 2.014280 1_555
O40 Ti16 2.059912 1_565
O41 Ti18 1.911654 1_554
O41 Ti6 1.922842 1_554
O41 Ti33 2.096385 1_555
O42 Ti28 1.991315 1_555
O42 Ti34 2.046679 1_565
O42 Ti36 2.063311 1_455
O42 Ti14 2.118046 1_455
O43 Ti37 1.972971 1_565
O43 Ti19 1.981467 1_555
O43 Ti36 1.987029 1_455
O44 Ti2 1.928813 1_545
O44 Ti16 1.955571 1_555
O44 Ti38 1.988117 1_555
O45 Ti24 1.919530 1_555
O45 Ti37 1.955889 1_655
O45 Ti11 2.113287 1_555
O46 Ti31 1.995314 1_555
O46 Ti9 2.001860 1_555
O46 Ti26 2.056060 1_555
O46 Ti27 2.101890 1_455
O47 Ti13 1.936716 1_555
O47 Ti20 1.998486 1_555
O47 Ti28 2.014476 1_655
O48 Ti25 1.844863 1_555
O48 Ti8 2.098811 1_555
O48 Ti29 2.113816 1_565
O49 Ti25 1.863351 1_555
O49 Ti19 1.974469 1_655
O49 Ti15 2.237129 1_655
O49 Ti5 2.319672 1_555
O50 Ti6 1.866854 1_555
O50 Ti26 1.971688 1_555
O50 Ti17 2.066877 1_555
O51 Ti20 1.914623 1_555
O51 Ti14 1.944183 1_555
O51 Ti0 1.994339 1_555
O52 Ti13 1.862361 1_554
O52 Ti19 1.951050 1_655
O52 Ti22 2.060496 1_664
O53 Ti34 1.954978 1_555
O53 Ti16 2.043236 1_555
O53 Ti38 2.077157 1_555
O53 Ti31 2.629805 1_555
O54 Ti8 1.974042 1_545
O54 Ti29 2.024400 1_555
O54 Ti21 2.046076 1_545
O54 Ti16 2.063364 1_555
O55 Ti12 1.883043 1_555
O55 Ti19 2.110824 1_556
O55 Ti22 2.210565 1_565
O55 Ti28 2.299773 1_555
O56 Ti4 1.893408 1_555
O56 Ti37 1.986645 1_555
O56 Ti23 2.020789 1_555
O57 Ti23 1.896847 1_555
O57 Ti22 1.928064 1_554
O57 Ti37 2.145617 1_555
O57 Ti19 2.620367 1_545
O58 Ti8 1.947345 1_555
O58 Ti0 1.989149 1_555
O58 Ti2 2.054785 1_555
O59 Ti31 1.812866 1_555
O59 Ti1 1.856831 1_555
O60 Ti18 1.835658 1_555
O60 Ti17 1.859396 1_555
O61 Ti21 1.909115 1_545
O61 Ti23 1.968133 1_555
O61 Ti37 2.167499 1_555
O61 Ti16 2.633269 1_555
O62 Ti29 1.923398 1_555
O62 Ti24 2.232757 1_555
O62 Ti33 2.239472 1_555
O62 Ti30 2.502025 1_555
O63 Ti30 1.900788 1_555
O63 Ti4 1.920921 1_555
O63 Ti31 2.011414 1_555
O64 Ti21 1.901063 1_555
O64 Ti32 1.975183 1_555
O64 Ti35 1.986679 1_555
