# generated using pymatgen
data_Li4Fe3Sb(PO4)4
_symmetry_space_group_name_H-M   'P 1'
_cell_length_a   6.30598900
_cell_length_b   4.77075800
_cell_length_c   10.75394888
_cell_angle_alpha   88.28914375
_cell_angle_beta   90.00000000
_cell_angle_gamma   90.00000000
_symmetry_Int_Tables_number   1
_chemical_formula_structural   Li4Fe3Sb(PO4)4
_chemical_formula_sum   'Li4 Fe3 Sb1 P4 O16'
_cell_volume   323.38131403
_cell_formula_units_Z   1
loop_
 _symmetry_equiv_pos_site_id
 _symmetry_equiv_pos_as_xyz
  1  'x, y, z'
loop_
 _atom_site_type_symbol
 _atom_site_label
 _atom_site_symmetry_multiplicity
 _atom_site_fract_x
 _atom_site_fract_y
 _atom_site_fract_z
 _atom_site_occupancy
  Li  Li0  1  0.24885100  0.99285000  0.99192100  1
  Li  Li1  1  0.75114900  0.99285000  0.99192100  1
  Li  Li2  1  0.75242300  0.50670800  0.50526900  1
  Li  Li3  1  0.24757700  0.50670800  0.50526900  1
  Fe  Fe0  1  0.00000000  0.46531000  0.78671000  1
  Fe  Fe1  1  0.50000000  0.51730800  0.20524300  1
  Fe  Fe2  1  0.50000000  0.96868300  0.72456800  1
  Sb  Sb0  1  0.00000000  0.07498000  0.28854700  1
  P  P0  1  0.50000000  0.08686700  0.41804200  1
  P  P1  1  0.50000000  0.41111000  0.90300800  1
  P  P2  1  0.00000000  0.57357700  0.07840300  1
  P  P3  1  0.00000000  0.92266100  0.60876700  1
  O  O0  1  0.50000000  0.19842300  0.55191200  1
  O  O1  1  0.31164800  0.23692700  0.34724600  1
  O  O2  1  0.68835200  0.23692700  0.34724600  1
  O  O3  1  0.00000000  0.24488500  0.60694700  1
  O  O4  1  0.00000000  0.24933900  0.07052200  1
  O  O5  1  0.30302400  0.28482200  0.83355300  1
  O  O6  1  0.69697600  0.28482200  0.83355300  1
  O  O7  1  0.50000000  0.27876500  0.03745200  1
  O  O8  1  0.00000000  0.71554600  0.94567400  1
  O  O9  1  0.79334500  0.68235600  0.14320900  1
  O  O10  1  0.20665500  0.68235600  0.14320900  1
  O  O11  1  0.50000000  0.73387500  0.90064800  1
  O  O12  1  0.50000000  0.76760800  0.40837200  1
  O  O13  1  0.80098200  0.78765800  0.67466600  1
  O  O14  1  0.19901800  0.78765800  0.67466600  1
  O  O15  1  0.00000000  0.80841900  0.47345700  1
loop_
_geom_bond_atom_site_label_1
_geom_bond_atom_site_label_2
_geom_bond_distance
_geom_bond_site_symmetry_2
Li0 O8 2.121174 1_555
Li0 O7 2.156026 1_566
Li0 O4 2.176260 1_566
Li0 O10 2.183591 1_556
Li0 O5 2.194489 1_565
Li0 O11 2.251791 1_555
Li1 O8 2.121174 1_655
Li1 O7 2.156026 1_566
Li1 O4 2.176260 1_666
Li1 O9 2.183591 1_556
Li1 O6 2.194489 1_565
Li1 O11 2.251791 1_555
Li2 O15 2.144033 1_655
Li2 O2 2.199597 1_555
Li2 O0 2.214592 1_555
Li2 O12 2.256409 1_555
Li2 O3 2.260906 1_655
Li2 O13 2.314007 1_555
Li3 O15 2.144033 1_555
Li3 O1 2.199597 1_555
Li3 O0 2.214592 1_555
Li3 O12 2.256409 1_555
Li3 O3 2.260906 1_555
Li3 O14 2.314007 1_555
Fe0 O8 2.114099 1_555
Fe0 O6 2.149582 1_455
Fe0 O5 2.149582 1_555
Fe0 O3 2.228083 1_555
Fe0 O14 2.298082 1_555
Fe0 O13 2.298082 1_455
Fe1 O9 2.110817 1_555
Fe1 O10 2.110817 1_555
Fe1 O7 2.161862 1_555
Fe1 O2 2.325948 1_555
Fe1 O1 2.325948 1_555
Fe1 O12 2.520606 1_555
Fe2 O0 2.127730 1_565
Fe2 O13 2.159600 1_555
Fe2 O14 2.159600 1_555
Fe2 O11 2.171121 1_555
Fe2 O5 2.301477 1_565
Fe2 O6 2.301477 1_565
O0 P0 1.549688 1_555
O1 P0 1.571732 1_555
O1 Sb0 2.210593 1_555
O2 P0 1.571732 1_555
O2 Sb0 2.210593 1_655
O3 P3 1.536793 1_545
O4 P2 1.551706 1_555
O4 Sb0 2.464298 1_555
O5 P1 1.578173 1_555
O6 P1 1.578173 1_555
O7 P1 1.560285 1_554
O8 P2 1.561527 1_556
O9 P2 1.573165 1_655
O10 P2 1.573165 1_555
O11 P1 1.539285 1_555
O12 P0 1.529748 1_565
O13 P3 1.569976 1_655
O14 P3 1.569976 1_555
O15 P3 1.569002 1_555
O15 Sb0 2.328176 1_565
