# generated using pymatgen
data_V2(CN2)3
_symmetry_space_group_name_H-M   'P 1'
_cell_length_a   8.61995063
_cell_length_b   3.03350301
_cell_length_c   4.96581610
_cell_angle_alpha   90.00000913
_cell_angle_beta   79.94704100
_cell_angle_gamma   79.86557683
_symmetry_Int_Tables_number   1
_chemical_formula_structural   V2(CN2)3
_chemical_formula_sum   'V2 C3 N6'
_cell_volume   125.79770874
_cell_formula_units_Z   1
loop_
 _symmetry_equiv_pos_site_id
 _symmetry_equiv_pos_as_xyz
  1  'x, y, z'
loop_
 _atom_site_type_symbol
 _atom_site_label
 _atom_site_symmetry_multiplicity
 _atom_site_fract_x
 _atom_site_fract_y
 _atom_site_fract_z
 _atom_site_occupancy
  V  V0  1  0.20188100  0.89905900  0.94475200  1
  V  V1  1  0.79811900  0.10094100  0.05524800  1
  C  C0  1  0.70394600  0.64802700  0.58083600  1
  C  C1  1  0.29605400  0.35197300  0.41916400  1
  C  C2  1  0.00000000  0.00000000  0.50000000  1
  N  N0  1  0.29879600  0.35060200  0.66638900  1
  N  N1  1  0.70120400  0.64939800  0.33361100  1
  N  N2  1  0.29277900  0.35361000  0.17262000  1
  N  N3  1  0.70722100  0.64639000  0.82738000  1
  N  N4  1  0.99695000  0.00152500  0.25269200  1
  N  N5  1  0.00305000  0.99847500  0.74730800  1
loop_
_geom_bond_atom_site_label_1
_geom_bond_atom_site_label_2
_geom_bond_distance
_geom_bond_site_symmetry_2
C0 N3 1.229524 1_555
C0 N1 1.232013 1_555
C1 N2 1.229524 1_555
C1 N0 1.232013 1_555
C2 N5 1.232938 1_545
C2 N4 1.232938 1_455
N0 V0 2.117645 1_555
N0 V0 2.117647 1_545
N1 V1 2.117645 1_555
N1 V1 2.117647 1_565
N2 V0 2.117875 1_544
N2 V0 2.117875 1_554
N3 V1 2.117875 1_566
N3 V1 2.117875 1_556
N4 V1 2.096317 1_555
N4 V0 2.102189 1_644
N5 V0 2.096317 1_555
N5 V1 2.102189 1_466
