# generated using pymatgen
data_NaMg6V
_symmetry_space_group_name_H-M   'P 1'
_cell_length_a   5.19025500
_cell_length_b   6.33428900
_cell_length_c   11.06733200
_cell_angle_alpha   90.00000000
_cell_angle_beta   90.00000000
_cell_angle_gamma   90.00000000
_symmetry_Int_Tables_number   1
_chemical_formula_structural   NaMg6V
_chemical_formula_sum   'Na2 Mg12 V2'
_cell_volume   363.85597225
_cell_formula_units_Z   2
loop_
 _symmetry_equiv_pos_site_id
 _symmetry_equiv_pos_as_xyz
  1  'x, y, z'
loop_
 _atom_site_type_symbol
 _atom_site_label
 _atom_site_symmetry_multiplicity
 _atom_site_fract_x
 _atom_site_fract_y
 _atom_site_fract_z
 _atom_site_occupancy
  Na  Na0  1  0.50000000  0.50000000  0.16859900  1
  Na  Na1  1  0.50000000  0.00000000  0.66859900  1
  Mg  Mg0  1  0.00000000  0.75135300  0.08249100  1
  Mg  Mg1  1  0.00000000  0.24864700  0.08249100  1
  Mg  Mg2  1  0.00000000  0.00000000  0.33410200  1
  Mg  Mg3  1  0.50000000  0.25950900  0.41263500  1
  Mg  Mg4  1  0.50000000  0.74049100  0.41263500  1
  Mg  Mg5  1  0.50000000  0.00000000  0.16752400  1
  Mg  Mg6  1  0.00000000  0.25135300  0.58249100  1
  Mg  Mg7  1  0.00000000  0.74864700  0.58249100  1
  Mg  Mg8  1  0.00000000  0.50000000  0.83410200  1
  Mg  Mg9  1  0.50000000  0.75950900  0.91263500  1
  Mg  Mg10  1  0.50000000  0.24049100  0.91263500  1
  Mg  Mg11  1  0.50000000  0.50000000  0.66752400  1
  V  V0  1  0.00000000  0.50000000  0.33952300  1
  V  V1  1  0.00000000  0.00000000  0.83952300  1
loop_
_geom_bond_atom_site_label_1
_geom_bond_atom_site_label_2
_geom_bond_distance
_geom_bond_site_symmetry_2
Na0 V0 3.211403 1_555
Na0 V0 3.211403 1_655
Na1 V1 3.211403 1_555
Na1 V1 3.211403 1_655
Mg0 V1 3.116311 1_564
Mg0 Mg1 3.150004 1_565
Mg0 Mg8 3.176781 1_554
Mg0 Mg5 3.178202 1_565
Mg0 Mg5 3.178202 1_465
Mg0 Mg1 3.184285 1_555
Mg0 Na0 3.190264 1_455
Mg0 Na0 3.190264 1_555
Mg0 Mg2 3.199215 1_565
Mg0 Mg9 3.204872 1_554
Mg0 Mg9 3.204872 1_454
Mg0 V0 3.259908 1_555
Mg1 V1 3.116311 1_554
Mg1 Mg8 3.176781 1_554
Mg1 Mg5 3.178202 1_455
Mg1 Mg5 3.178202 1_555
Mg1 Na0 3.190264 1_455
Mg1 Na0 3.190264 1_555
Mg1 Mg2 3.199215 1_555
Mg1 Mg10 3.204872 1_454
Mg1 Mg10 3.204872 1_554
Mg1 V0 3.259908 1_555
Mg2 V0 3.167713 1_555
Mg2 V0 3.167713 1_545
Mg2 Mg6 3.176781 1_555
Mg2 Mg7 3.176781 1_545
Mg2 Mg5 3.183308 1_455
Mg2 Mg5 3.183308 1_555
Mg2 Mg3 3.192523 1_455
Mg2 Mg4 3.192523 1_445
Mg2 Mg3 3.192523 1_555
Mg2 Mg4 3.192523 1_545
Mg3 Mg4 3.046679 1_555
Mg3 Na0 3.100812 1_555
Mg3 V0 3.116084 1_655
Mg3 V0 3.116084 1_555
Mg3 Mg5 3.171903 1_555
Mg3 Mg6 3.204872 1_655
Mg3 Mg6 3.204872 1_555
Mg3 Na1 3.275220 1_555
Mg3 Mg4 3.287610 1_545
Mg4 Na0 3.100812 1_555
Mg4 V0 3.116084 1_655
Mg4 V0 3.116084 1_555
Mg4 Mg5 3.171903 1_565
Mg4 Mg7 3.204872 1_555
Mg4 Mg7 3.204872 1_655
Mg4 Na1 3.275220 1_565
Mg5 Na0 3.167167 1_545
Mg5 Na0 3.167167 1_555
Mg5 Mg9 3.205974 1_544
Mg6 V0 3.116311 1_555
Mg6 Mg7 3.150004 1_555
Mg6 Mg7 3.184285 1_545
Mg6 Na1 3.190264 1_555
Mg6 Na1 3.190264 1_455
Mg6 Mg8 3.199215 1_555
Mg6 V1 3.259908 1_555
Mg7 V0 3.116311 1_555
Mg7 Na1 3.190264 1_465
Mg7 Na1 3.190264 1_565
Mg7 Mg8 3.199215 1_555
Mg7 V1 3.259908 1_565
Mg8 V1 3.167713 1_565
Mg8 V1 3.167713 1_555
Mg8 Mg9 3.192523 1_555
Mg8 Mg9 3.192523 1_455
Mg9 Na1 3.100812 1_565
Mg9 V1 3.116084 1_565
Mg9 V1 3.116084 1_665
Mg9 Na0 3.275220 1_556
Mg10 Mg9 3.046679 1_545
Mg10 Na1 3.100812 1_555
Mg10 V1 3.116084 1_655
Mg10 V1 3.116084 1_555
Mg10 Mg11 3.171903 1_555
Mg10 Mg8 3.192523 1_655
Mg10 Mg8 3.192523 1_555
Mg10 Mg5 3.205974 1_556
Mg10 Na0 3.275220 1_556
Mg10 Mg9 3.287610 1_555
Mg11 Na1 3.167167 1_555
Mg11 Na1 3.167167 1_565
Mg11 Mg9 3.171903 1_555
Mg11 Mg7 3.178202 1_555
Mg11 Mg6 3.178202 1_655
Mg11 Mg7 3.178202 1_655
Mg11 Mg6 3.178202 1_555
Mg11 Mg8 3.183308 1_555
Mg11 Mg8 3.183308 1_655
Mg11 Mg3 3.205974 1_555
Mg11 Mg4 3.205974 1_555
