# generated using pymatgen
data_CaNi5H
_symmetry_space_group_name_H-M   'P 1'
_cell_length_a   5.03483898
_cell_length_b   5.03483898
_cell_length_c   3.93292200
_cell_angle_alpha   90.00000000
_cell_angle_beta   90.00000000
_cell_angle_gamma   122.48159369
_symmetry_Int_Tables_number   1
_chemical_formula_structural   CaNi5H
_chemical_formula_sum   'Ca1 Ni5 H1'
_cell_volume   84.10165605
_cell_formula_units_Z   1
loop_
 _symmetry_equiv_pos_site_id
 _symmetry_equiv_pos_as_xyz
  1  'x, y, z'
loop_
 _atom_site_type_symbol
 _atom_site_label
 _atom_site_symmetry_multiplicity
 _atom_site_fract_x
 _atom_site_fract_y
 _atom_site_fract_z
 _atom_site_occupancy
  Ca  Ca0  1  0.00000000  0.00000000  0.00671400  1
  Ni  Ni0  1  0.67948500  0.32051500  0.00238600  1
  Ni  Ni1  1  0.32051500  0.67948500  0.00238600  1
  Ni  Ni2  1  0.50000000  0.50000000  0.50950300  1
  Ni  Ni3  1  0.50000000  0.00000000  0.50534500  1
  Ni  Ni4  1  0.00000000  0.50000000  0.50534500  1
  H  H0  1  0.50000000  0.50000000  0.08536600  1
loop_
_geom_bond_atom_site_label_1
_geom_bond_atom_site_label_2
_geom_bond_distance
_geom_bond_site_symmetry_2
Ca0 H0 2.442080 1_445
Ca0 H0 2.442080 1_555
Ca0 Ni4 3.191116 1_545
Ca0 Ni3 3.191116 1_455
Ca0 Ni3 3.191116 1_555
Ca0 Ni4 3.191116 1_555
Ca0 Ni3 3.197745 1_454
Ca0 Ni4 3.197745 1_554
Ca0 Ni4 3.197745 1_544
Ca0 Ni3 3.197745 1_554
Ni0 Ni3 2.382400 1_554
Ni0 Ni4 2.382400 1_654
Ni0 Ni4 2.401535 1_655
Ni0 Ni3 2.401535 1_555
Ni1 Ni3 2.382400 1_564
Ni1 Ni4 2.382400 1_554
Ni1 Ni4 2.401535 1_555
Ni1 Ni3 2.401535 1_565
Ni2 Ni3 2.517473 1_555
Ni2 Ni3 2.517473 1_565
Ni2 Ni4 2.517473 1_555
Ni2 Ni4 2.517473 1_655
Ni3 Ni4 2.422410 1_545
Ni3 Ni4 2.422410 1_655
H0 Ni0 1.617679 1_555
H0 Ni1 1.617679 1_555
H0 Ni2 1.668098 1_555
