# generated using pymatgen
data_KLiEr2(MoO4)4
_symmetry_space_group_name_H-M   'P 1'
_cell_length_a   6.86375952
_cell_length_b   6.86375952
_cell_length_c   19.57515888
_cell_angle_alpha   88.76376856
_cell_angle_beta   88.76376856
_cell_angle_gamma   135.06941988
_symmetry_Int_Tables_number   1
_chemical_formula_structural   KLiEr2(MoO4)4
_chemical_formula_sum   'K2 Li2 Er4 Mo8 O32'
_cell_volume   650.27083432
_cell_formula_units_Z   2
loop_
 _symmetry_equiv_pos_site_id
 _symmetry_equiv_pos_as_xyz
  1  'x, y, z'
loop_
 _atom_site_type_symbol
 _atom_site_label
 _atom_site_symmetry_multiplicity
 _atom_site_fract_x
 _atom_site_fract_y
 _atom_site_fract_z
 _atom_site_occupancy
  K  K0  1  0.53095700  0.46904300  0.25000000  1
  K  K1  1  0.46904300  0.53095700  0.75000000  1
  Li  Li0  1  0.81330500  0.18669500  0.25000000  1
  Li  Li1  1  0.18669500  0.81330500  0.75000000  1
  Er  Er0  1  0.64811700  0.35427900  0.03184800  1
  Er  Er1  1  0.35188300  0.64572100  0.96815200  1
  Er  Er2  1  0.64572100  0.35188300  0.46815200  1
  Er  Er3  1  0.35427900  0.64811700  0.53184800  1
  Mo  Mo0  1  0.91837600  0.04307400  0.09164400  1
  Mo  Mo1  1  0.08162400  0.95692600  0.90835600  1
  Mo  Mo2  1  0.95692600  0.08162400  0.40835600  1
  Mo  Mo3  1  0.04307400  0.91837600  0.59164400  1
  Mo  Mo4  1  0.23131800  0.74705600  0.14740600  1
  Mo  Mo5  1  0.76868200  0.25294400  0.85259400  1
  Mo  Mo6  1  0.25294400  0.76868200  0.35259400  1
  Mo  Mo7  1  0.74705600  0.23131800  0.64740600  1
  O  O0  1  0.66401500  0.00427300  0.04167600  1
  O  O1  1  0.33598500  0.99572700  0.95832400  1
  O  O2  1  0.99572700  0.33598500  0.45832400  1
  O  O3  1  0.00427300  0.66401500  0.54167600  1
  O  O4  1  0.49178800  0.76904300  0.17283300  1
  O  O5  1  0.50821200  0.23095700  0.82716700  1
  O  O6  1  0.23095700  0.50821200  0.32716700  1
  O  O7  1  0.76904300  0.49178800  0.67283300  1
  O  O8  1  0.71925100  0.75867100  0.46349900  1
  O  O9  1  0.28074900  0.24132900  0.53650100  1
  O  O10  1  0.24132900  0.28074900  0.03650100  1
  O  O11  1  0.75867100  0.71925100  0.96349900  1
  O  O12  1  0.44022200  0.91930600  0.43386500  1
  O  O13  1  0.55977800  0.08069400  0.56613500  1
  O  O14  1  0.08069400  0.55977800  0.06613500  1
  O  O15  1  0.91930600  0.44022200  0.93386500  1
  O  O16  1  0.79869000  0.98033500  0.32956700  1
  O  O17  1  0.20131000  0.01966500  0.67043300  1
  O  O18  1  0.01966500  0.20131000  0.17043300  1
  O  O19  1  0.98033500  0.79869000  0.82956700  1
  O  O20  1  0.71921200  0.81361800  0.60121600  1
  O  O21  1  0.28078800  0.18638200  0.39878400  1
  O  O22  1  0.18638200  0.28078800  0.89878400  1
  O  O23  1  0.81361800  0.71921200  0.10121600  1
  O  O24  1  0.40150600  0.10121800  0.13132600  1
  O  O25  1  0.59849400  0.89878200  0.86867400  1
  O  O26  1  0.89878200  0.59849400  0.36867400  1
  O  O27  1  0.10121800  0.40150600  0.63132600  1
  O  O28  1  0.43408600  0.02909200  0.28603800  1
  O  O29  1  0.56591400  0.97090800  0.71396200  1
  O  O30  1  0.97090800  0.56591400  0.21396200  1
  O  O31  1  0.02909200  0.43408600  0.78603800  1
loop_
_geom_bond_atom_site_label_1
_geom_bond_atom_site_label_2
_geom_bond_distance
_geom_bond_site_symmetry_2
K0 O30 2.665217 1_555
K0 O28 2.665217 1_555
K0 O6 2.694665 1_555
K0 O4 2.694665 1_555
K0 O18 3.057233 1_555
K0 O16 3.057233 1_555
K0 O24 3.118640 1_555
K0 O26 3.118640 1_555
K0 O23 3.165183 1_555
K0 O21 3.165183 1_555
K1 O31 2.665217 1_555
K1 O29 2.665217 1_555
K1 O5 2.694665 1_555
K1 O7 2.694665 1_555
K1 O17 3.057233 1_555
K1 O19 3.057233 1_555
K1 O25 3.118640 1_555
K1 O27 3.118640 1_555
K1 O20 3.165183 1_555
K1 O22 3.165183 1_555
Li0 O18 2.034471 1_655
Li0 O16 2.034471 1_545
Li0 O30 2.084191 1_555
Li0 O28 2.084191 1_555
Li1 O19 2.034471 1_455
Li1 O17 2.034471 1_565
Li1 O31 2.084191 1_555
Li1 O29 2.084191 1_555
Er0 O24 2.285386 1_555
Er0 O14 2.335085 1_655
Er0 O1 2.353367 1_544
Er0 O23 2.364920 1_555
Er0 O15 2.394571 1_554
Er0 O11 2.400284 1_554
Er0 O10 2.459796 1_555
Er0 O0 2.484427 1_555
Er1 O25 2.285386 1_555
Er1 O15 2.335085 1_455
Er1 O0 2.353367 1_566
Er1 O22 2.364920 1_555
Er1 O14 2.394571 1_556
Er1 O10 2.400284 1_556
Er1 O11 2.459796 1_555
Er1 O1 2.484427 1_555
Er2 O26 2.285386 1_555
Er2 O12 2.335085 1_545
Er2 O3 2.353367 1_655
Er2 O21 2.364920 1_555
Er2 O13 2.394571 1_555
Er2 O9 2.400284 1_555
Er2 O8 2.459796 1_555
Er2 O2 2.484427 1_555
Er3 O27 2.285386 1_555
Er3 O13 2.335085 1_565
Er3 O2 2.353367 1_455
Er3 O20 2.364920 1_555
Er3 O12 2.394571 1_555
Er3 O8 2.400284 1_555
Er3 O9 2.459796 1_555
Er3 O3 2.484427 1_555
Mo0 O18 1.758141 1_655
Mo0 O23 1.790677 1_545
Mo0 O10 1.854901 1_655
Mo0 O0 1.871447 1_555
Mo1 O19 1.758141 1_455
Mo1 O22 1.790677 1_565
Mo1 O11 1.854901 1_455
Mo1 O1 1.871447 1_555
Mo2 O16 1.758141 1_545
Mo2 O21 1.790677 1_655
Mo2 O8 1.854901 1_545
Mo2 O2 1.871447 1_555
Mo3 O17 1.758141 1_565
Mo3 O20 1.790677 1_455
Mo3 O9 1.854901 1_565
Mo3 O3 1.871447 1_555
Mo4 O30 1.766643 1_455
Mo4 O4 1.768156 1_555
Mo4 O24 1.817490 1_565
Mo4 O14 1.878734 1_555
Mo5 O31 1.766643 1_655
Mo5 O5 1.768156 1_555
Mo5 O25 1.817490 1_545
Mo5 O15 1.878734 1_555
Mo6 O28 1.766643 1_565
Mo6 O6 1.768156 1_555
Mo6 O26 1.817490 1_455
Mo6 O12 1.878734 1_555
Mo7 O29 1.766643 1_545
Mo7 O7 1.768156 1_555
Mo7 O27 1.817490 1_655
Mo7 O13 1.878734 1_555
