# generated using pymatgen
data_Co3TeO8
_symmetry_space_group_name_H-M   'P 1'
_cell_length_a   6.11713419
_cell_length_b   10.38976416
_cell_length_c   6.10729882
_cell_angle_alpha   91.76943905
_cell_angle_beta   120.87321864
_cell_angle_gamma   71.21426768
_symmetry_Int_Tables_number   1
_chemical_formula_structural   Co3TeO8
_chemical_formula_sum   'Co6 Te2 O16'
_cell_volume   311.06415368
_cell_formula_units_Z   2
loop_
 _symmetry_equiv_pos_site_id
 _symmetry_equiv_pos_as_xyz
  1  'x, y, z'
loop_
 _atom_site_type_symbol
 _atom_site_label
 _atom_site_symmetry_multiplicity
 _atom_site_fract_x
 _atom_site_fract_y
 _atom_site_fract_z
 _atom_site_occupancy
  Co  Co0  1  0.99522200  0.75030200  0.74745600  1
  Co  Co1  1  0.50810700  0.50066900  0.01144700  1
  Co  Co2  1  0.49805600  0.99822400  0.49425000  1
  Co  Co3  1  0.50493400  0.25007900  0.75050600  1
  Co  Co4  1  0.49349400  0.74931700  0.24922500  1
  Co  Co5  1  0.00483500  0.25059900  0.24788000  1
  Te  Te0  1  0.99816800  0.99998600  0.98832900  1
  Te  Te1  1  0.00420400  0.49915100  0.51495700  1
  O  O0  1  0.28858600  0.13897900  0.58618200  1
  O  O1  1  0.26694000  0.64528400  0.08061100  1
  O  O2  1  0.72073500  0.36067700  0.91063300  1
  O  O3  1  0.71720200  0.85559000  0.41463200  1
  O  O4  1  0.79517200  0.62886100  0.63980200  1
  O  O5  1  0.75504700  0.13129300  0.08140000  1
  O  O6  1  0.24375600  0.87942400  0.32317200  1
  O  O7  1  0.27403700  0.37410400  0.84946200  1
  O  O8  1  0.76613900  0.88428500  0.84056800  1
  O  O9  1  0.77724000  0.38776500  0.37304600  1
  O  O10  1  0.21855700  0.62191300  0.64721000  1
  O  O11  1  0.23852500  0.10677400  0.14232600  1
  O  O12  1  0.74448000  0.61811700  0.17324300  1
  O  O13  1  0.73749800  0.12733700  0.65657500  1
  O  O14  1  0.20045900  0.86991100  0.85910500  1
  O  O15  1  0.24860700  0.37135800  0.41798100  1
loop_
_geom_bond_atom_site_label_1
_geom_bond_atom_site_label_2
_geom_bond_distance
_geom_bond_site_symmetry_2
Co0 O1 1.895097 1_656
Co0 O3 1.900532 1_555
Co0 O4 1.907694 1_555
Co0 O10 1.911770 1_655
Co0 O14 1.912960 1_655
Co0 O8 1.933254 1_555
Co1 O2 1.932484 1_554
Co1 O1 1.945525 1_555
Co1 O9 2.036738 1_555
Co1 O12 2.037581 1_555
Co1 O10 2.089226 1_554
Co1 O7 2.106329 1_554
Co2 O3 1.890664 1_555
Co2 O0 1.891162 1_565
Co2 O11 1.976493 1_565
Co2 O8 1.977072 1_555
Co2 O6 2.126966 1_555
Co2 O13 2.149598 1_565
Co3 O2 1.897913 1_555
Co3 O13 1.898198 1_555
Co3 O0 1.907965 1_555
Co3 O7 1.917392 1_555
Co3 O5 1.926820 1_556
Co3 O15 1.946311 1_555
Co4 O1 1.892286 1_555
Co4 O3 1.896799 1_555
Co4 O6 1.924940 1_555
Co4 O12 1.942902 1_555
Co4 O14 2.194190 1_554
Co4 O4 2.200228 1_555
Co5 O2 1.939663 1_454
Co5 O0 1.948733 1_555
Co5 O11 2.050001 1_555
Co5 O9 2.073812 1_455
Co5 O15 2.100400 1_555
Co5 O5 2.110134 1_455
O4 Te1 1.964638 1_655
O5 Te0 1.977112 1_544
O6 Te0 1.949663 1_454
O7 Te1 1.976874 1_555
O8 Te0 1.997844 1_555
O9 Te1 1.938036 1_655
O10 Te1 1.981193 1_555
O11 Te0 1.960705 1_444
O12 Te1 1.974592 1_655
O13 Te0 1.972187 1_545
O14 Te0 1.959551 1_455
O15 Te1 1.982552 1_555
