# generated using pymatgen
data_Fe3Au
_symmetry_space_group_name_H-M   'P 1'
_cell_length_a   5.39598691
_cell_length_b   5.39598691
_cell_length_c   4.29800600
_cell_angle_alpha   90.00000000
_cell_angle_beta   90.00000000
_cell_angle_gamma   120.00001110
_symmetry_Int_Tables_number   1
_chemical_formula_structural   Fe3Au
_chemical_formula_sum   'Fe6 Au2'
_cell_volume   108.37756140
_cell_formula_units_Z   2
loop_
 _symmetry_equiv_pos_site_id
 _symmetry_equiv_pos_as_xyz
  1  'x, y, z'
loop_
 _atom_site_type_symbol
 _atom_site_label
 _atom_site_symmetry_multiplicity
 _atom_site_fract_x
 _atom_site_fract_y
 _atom_site_fract_z
 _atom_site_occupancy
  Fe  Fe0  1  0.15524800  0.31049700  0.25000000  1
  Fe  Fe1  1  0.68950300  0.84475200  0.25000000  1
  Fe  Fe2  1  0.15524800  0.84475200  0.25000000  1
  Fe  Fe3  1  0.84475200  0.68950300  0.75000000  1
  Fe  Fe4  1  0.31049700  0.15524800  0.75000000  1
  Fe  Fe5  1  0.84475200  0.15524800  0.75000000  1
  Au  Au0  1  0.33333300  0.66666700  0.75000000  1
  Au  Au1  1  0.66666700  0.33333300  0.25000000  1
loop_
_geom_bond_atom_site_label_1
_geom_bond_atom_site_label_2
_geom_bond_distance
_geom_bond_site_symmetry_2
Fe0 Fe1 2.513153 1_445
Fe0 Fe2 2.513154 1_545
Fe0 Fe5 2.592975 1_454
Fe0 Fe5 2.592975 1_455
Fe0 Fe4 2.592980 1_554
Fe0 Fe4 2.592980 1_555
Fe0 Fe1 2.882833 1_555
Fe0 Fe2 2.882833 1_555
Fe1 Fe2 2.513154 1_655
Fe1 Fe5 2.592975 1_564
Fe1 Fe5 2.592975 1_565
Fe1 Fe3 2.592980 1_554
Fe1 Fe3 2.592980 1_555
Fe1 Fe2 2.882833 1_555
Fe2 Fe3 2.592975 1_455
Fe2 Fe4 2.592975 1_564
Fe2 Fe3 2.592975 1_454
Fe2 Fe4 2.592975 1_565
Fe3 Fe4 2.513153 1_665
Fe3 Fe5 2.513154 1_565
Fe3 Fe4 2.882833 1_555
Fe3 Fe5 2.882833 1_555
Fe4 Fe5 2.513154 1_455
Fe4 Fe5 2.882833 1_555
Au0 Fe4 2.700098 1_565
Au0 Fe3 2.700098 1_455
Au0 Fe5 2.700103 1_455
Au0 Fe5 2.700103 1_565
Au0 Fe3 2.700108 1_555
Au0 Fe4 2.700108 1_555
Au0 Fe1 2.718171 1_555
Au0 Fe0 2.718171 1_555
Au0 Fe0 2.718171 1_556
Au0 Fe1 2.718171 1_556
Au0 Fe2 2.718171 1_555
Au0 Fe2 2.718171 1_556
Au1 Fe0 2.700098 1_655
Au1 Fe1 2.700098 1_545
Au1 Fe2 2.700103 1_655
Au1 Fe2 2.700103 1_545
Au1 Fe1 2.700108 1_555
Au1 Fe0 2.700108 1_555
Au1 Fe4 2.718171 1_554
Au1 Fe3 2.718171 1_554
Au1 Fe4 2.718171 1_555
Au1 Fe3 2.718171 1_555
Au1 Fe5 2.718171 1_554
Au1 Fe5 2.718171 1_555
