# generated using pymatgen
data_AsPb2S3I
_symmetry_space_group_name_H-M   'P 1'
_cell_length_a   6.84606800
_cell_length_b   9.71653200
_cell_length_c   11.92286400
_cell_angle_alpha   90.00000000
_cell_angle_beta   90.00000000
_cell_angle_gamma   90.00000000
_symmetry_Int_Tables_number   1
_chemical_formula_structural   AsPb2S3I
_chemical_formula_sum   'As4 Pb8 S12 I4'
_cell_volume   793.10937584
_cell_formula_units_Z   4
loop_
 _symmetry_equiv_pos_site_id
 _symmetry_equiv_pos_as_xyz
  1  'x, y, z'
loop_
 _atom_site_type_symbol
 _atom_site_label
 _atom_site_symmetry_multiplicity
 _atom_site_fract_x
 _atom_site_fract_y
 _atom_site_fract_z
 _atom_site_occupancy
  As  As0  1  0.25000000  0.03476600  0.08039200  1
  As  As1  1  0.75000000  0.96523400  0.91960800  1
  As  As2  1  0.75000000  0.53476600  0.41960800  1
  As  As3  1  0.25000000  0.46523400  0.58039200  1
  Pb  Pb0  1  0.25000000  0.79372300  0.37473800  1
  Pb  Pb1  1  0.75000000  0.20627700  0.62526200  1
  Pb  Pb2  1  0.75000000  0.29372300  0.12526200  1
  Pb  Pb3  1  0.25000000  0.70627700  0.87473800  1
  Pb  Pb4  1  0.25000000  0.27728600  0.32175600  1
  Pb  Pb5  1  0.75000000  0.72271400  0.67824400  1
  Pb  Pb6  1  0.75000000  0.77728600  0.17824400  1
  Pb  Pb7  1  0.25000000  0.22271400  0.82175600  1
  S  S0  1  0.00484300  0.08137900  0.20489000  1
  S  S1  1  0.99515700  0.91862100  0.79511000  1
  S  S2  1  0.99515700  0.58137900  0.29511000  1
  S  S3  1  0.50484300  0.91862100  0.79511000  1
  S  S4  1  0.00484300  0.41862100  0.70489000  1
  S  S5  1  0.49515700  0.08137900  0.20489000  1
  S  S6  1  0.49515700  0.41862100  0.70489000  1
  S  S7  1  0.50484300  0.58137900  0.29511000  1
  S  S8  1  0.25000000  0.80329100  0.09760400  1
  S  S9  1  0.75000000  0.19670900  0.90239600  1
  S  S10  1  0.75000000  0.30329100  0.40239600  1
  S  S11  1  0.25000000  0.69670900  0.59760400  1
  I  I0  1  0.25000000  0.40112000  0.04662600  1
  I  I1  1  0.75000000  0.59888000  0.95337400  1
  I  I2  1  0.75000000  0.90112000  0.45337400  1
  I  I3  1  0.25000000  0.09888000  0.54662600  1
loop_
_geom_bond_atom_site_label_1
_geom_bond_atom_site_label_2
_geom_bond_distance
_geom_bond_site_symmetry_2
As0 S8 2.258477 1_545
As0 S5 2.285912 1_555
As0 S0 2.285912 1_555
As1 S9 2.258477 1_565
As1 S1 2.285912 1_555
As1 S3 2.285912 1_555
As2 S10 2.258477 1_555
As2 S2 2.285912 1_555
As2 S7 2.285912 1_555
As3 S11 2.258477 1_555
As3 S6 2.285912 1_555
As3 S4 2.285912 1_555
Pb0 S11 2.819448 1_555
Pb0 S7 2.863952 1_555
Pb0 S2 2.863952 1_455
Pb1 S10 2.819448 1_555
Pb1 S4 2.863952 1_655
Pb1 S6 2.863952 1_555
Pb2 S9 2.819448 1_554
Pb2 S0 2.863952 1_655
Pb2 S5 2.863952 1_555
Pb3 S8 2.819448 1_556
Pb3 S3 2.863952 1_555
Pb3 S1 2.863952 1_455
Pb4 S5 2.895142 1_555
Pb4 S0 2.895142 1_555
Pb5 S1 2.895142 1_555
Pb5 S3 2.895142 1_555
Pb6 S2 2.895142 1_555
Pb6 S7 2.895142 1_555
Pb7 S6 2.895142 1_555
Pb7 S4 2.895142 1_555
I0 Pb7 3.192686 1_554
I0 Pb4 3.494051 1_555
I1 Pb6 3.192686 1_556
I1 Pb5 3.494051 1_555
I2 Pb5 3.192686 1_555
I2 Pb6 3.494051 1_555
I3 Pb4 3.192686 1_555
I3 Pb7 3.494051 1_555
