# generated using pymatgen
data_MgSi
_symmetry_space_group_name_H-M   'P 1'
_cell_length_a   4.46788200
_cell_length_b   5.40411842
_cell_length_c   10.29692196
_cell_angle_alpha   99.08381027
_cell_angle_beta   94.81634874
_cell_angle_gamma   109.66264258
_symmetry_Int_Tables_number   1
_chemical_formula_structural   MgSi
_chemical_formula_sum   'Mg6 Si6'
_cell_volume   228.65958940
_cell_formula_units_Z   6
loop_
 _symmetry_equiv_pos_site_id
 _symmetry_equiv_pos_as_xyz
  1  'x, y, z'
loop_
 _atom_site_type_symbol
 _atom_site_label
 _atom_site_symmetry_multiplicity
 _atom_site_fract_x
 _atom_site_fract_y
 _atom_site_fract_z
 _atom_site_occupancy
  Mg  Mg0  1  0.19814400  0.80342700  0.07875000  1
  Mg  Mg1  1  0.43057200  0.05554500  0.73788800  1
  Mg  Mg2  1  0.02077700  0.39335700  0.57670000  1
  Mg  Mg3  1  0.29270200  0.91326100  0.41103900  1
  Mg  Mg4  1  0.73594700  0.67463500  0.81851700  1
  Mg  Mg5  1  0.90137000  0.26704100  0.26187000  1
  Si  Si0  1  0.67231400  0.70611800  0.23246900  1
  Si  Si1  1  0.12311800  0.40286100  0.84986300  1
  Si  Si2  1  0.85055900  0.12611200  0.99722100  1
  Si  Si3  1  0.45672600  0.34871100  0.03868200  1
  Si  Si4  1  0.50473900  0.46349900  0.41110200  1
  Si  Si5  1  0.81285400  0.84555300  0.58597000  1
loop_
_geom_bond_atom_site_label_1
_geom_bond_atom_site_label_2
_geom_bond_distance
_geom_bond_site_symmetry_2
Mg0 Si0 2.778407 1_555
Mg0 Si1 2.849744 1_554
Mg0 Si2 2.867610 1_464
Mg0 Si0 2.890880 1_455
Mg0 Si3 2.891598 1_565
Mg0 Si3 3.035447 1_555
Mg0 Si2 3.113654 1_564
Mg1 Si5 2.800814 1_545
Mg1 Si5 2.821100 1_445
Mg1 Si1 2.838483 1_555
Mg1 Si2 3.025332 1_555
Mg1 Si1 3.039030 1_655
Mg1 Si3 3.222090 1_556
Mg2 Si1 2.801039 1_555
Mg2 Si5 2.808814 1_445
Mg2 Si4 2.828135 1_555
Mg2 Si5 2.883200 1_455
Mg2 Si4 2.915312 1_455
Mg3 Si4 2.800542 1_565
Mg3 Si5 2.881560 1_455
Mg3 Si4 2.890520 1_555
Mg3 Si0 2.943143 1_555
Mg3 Si0 2.953494 1_455
Mg3 Si5 2.976018 1_555
Mg4 Si1 2.649385 1_655
Mg4 Si2 2.680367 1_565
Mg4 Si5 2.707007 1_555
Mg4 Si1 2.711092 1_555
Mg4 Si3 3.170966 1_556
Mg5 Si2 2.679927 1_554
Mg5 Si4 2.760223 1_655
Mg5 Si4 2.799464 1_555
Mg5 Si0 2.810385 1_545
Mg5 Si0 2.928867 1_555
Mg5 Si3 3.092991 1_555
Si0 Si3 2.418330 1_555
Si0 Si4 2.448485 1_555
Si1 Si2 2.413132 1_455
Si1 Si3 2.464540 1_556
Si2 Si3 2.472650 1_556
Si2 Si3 2.532856 1_656
Si4 Si5 2.428424 1_555
