# generated using pymatgen
data_Ca7ZrN6
_symmetry_space_group_name_H-M   'P 1'
_cell_length_a   6.39600000
_cell_length_b   9.36700233
_cell_length_c   9.36700233
_cell_angle_alpha   78.03713043
_cell_angle_beta   70.03712144
_cell_angle_gamma   70.03712144
_symmetry_Int_Tables_number   1
_chemical_formula_structural   Ca7ZrN6
_chemical_formula_sum   'Ca14 Zr2 N12'
_cell_volume   493.15580197
_cell_formula_units_Z   2
loop_
 _symmetry_equiv_pos_site_id
 _symmetry_equiv_pos_as_xyz
  1  'x, y, z'
loop_
 _atom_site_type_symbol
 _atom_site_label
 _atom_site_symmetry_multiplicity
 _atom_site_fract_x
 _atom_site_fract_y
 _atom_site_fract_z
 _atom_site_occupancy
  Ca  Ca0  1  0.28090500  0.95790400  0.04209600  1
  Ca  Ca1  1  0.71909500  0.04209600  0.95790400  1
  Ca  Ca2  1  0.21909500  0.45790400  0.54209600  1
  Ca  Ca3  1  0.78090500  0.54209600  0.45790400  1
  Ca  Ca4  1  0.73414200  0.15080500  0.60657700  1
  Ca  Ca5  1  0.50847700  0.60657700  0.15080500  1
  Ca  Ca6  1  0.76585800  0.89342300  0.34919500  1
  Ca  Ca7  1  0.99152300  0.34919500  0.89342300  1
  Ca  Ca8  1  0.26585800  0.84919500  0.39342300  1
  Ca  Ca9  1  0.49152300  0.39342300  0.84919500  1
  Ca  Ca10  1  0.23414200  0.10657700  0.65080500  1
  Ca  Ca11  1  0.00847700  0.65080500  0.10657700  1
  Ca  Ca12  1  0.25000000  0.25000000  0.25000000  1
  Ca  Ca13  1  0.75000000  0.75000000  0.75000000  1
  Zr  Zr0  1  0.75000000  0.25000000  0.25000000  1
  Zr  Zr1  1  0.25000000  0.75000000  0.75000000  1
  N  N0  1  0.03008200  0.06218500  0.27929300  1
  N  N1  1  0.62844100  0.27929300  0.06218500  1
  N  N2  1  0.46991800  0.22070700  0.43781500  1
  N  N3  1  0.87155900  0.43781500  0.22070700  1
  N  N4  1  0.96991800  0.93781500  0.72070700  1
  N  N5  1  0.37155900  0.72070700  0.93781500  1
  N  N6  1  0.53008200  0.77929300  0.56218500  1
  N  N7  1  0.12844100  0.56218500  0.77929300  1
  N  N8  1  0.87900100  0.34297600  0.65702400  1
  N  N9  1  0.12099900  0.65702400  0.34297600  1
  N  N10  1  0.62099900  0.84297600  0.15702400  1
  N  N11  1  0.37900100  0.15702400  0.84297600  1
loop_
_geom_bond_atom_site_label_1
_geom_bond_atom_site_label_2
_geom_bond_distance
_geom_bond_site_symmetry_2
Ca0 N0 2.420774 1_565
Ca0 N5 2.420775 1_554
Ca0 N11 2.430869 1_564
Ca0 N10 2.563021 1_555
Ca1 N4 2.420774 1_545
Ca1 N1 2.420775 1_556
Ca1 N10 2.430869 1_546
Ca1 N11 2.563021 1_555
Ca2 N2 2.420774 1_555
Ca2 N7 2.420775 1_555
Ca2 N9 2.430869 1_555
Ca2 N8 2.563021 1_455
Ca3 N6 2.420774 1_555
Ca3 N3 2.420775 1_555
Ca3 N8 2.430869 1_555
Ca3 N9 2.563021 1_655
Ca4 N4 2.357887 1_545
Ca4 N8 2.472315 1_555
Ca4 N2 2.534394 1_555
Ca4 N11 2.568072 1_555
Ca5 N5 2.357893 1_554
Ca5 N9 2.472320 1_555
Ca5 N3 2.534384 1_555
Ca5 N10 2.568068 1_555
Ca6 N6 2.357887 1_555
Ca6 N10 2.472315 1_555
Ca6 N0 2.534394 1_665
Ca6 N9 2.568072 1_655
Ca7 N7 2.357893 1_655
Ca7 N11 2.472320 1_655
Ca7 N1 2.534384 1_556
Ca7 N8 2.568068 1_555
Ca8 N0 2.357887 1_565
Ca8 N9 2.472315 1_555
Ca8 N6 2.534394 1_555
Ca8 N10 2.568072 1_555
Ca9 N1 2.357893 1_556
Ca9 N8 2.472320 1_555
Ca9 N7 2.534384 1_555
Ca9 N11 2.568068 1_555
Ca10 N2 2.357887 1_555
Ca10 N11 2.472315 1_555
Ca10 N4 2.534394 1_445
Ca10 N8 2.568072 1_455
Ca11 N3 2.357893 1_455
Ca11 N10 2.472320 1_455
Ca11 N5 2.534384 1_554
Ca11 N9 2.568068 1_555
Ca12 N2 2.524847 1_555
Ca12 N0 2.524847 1_555
Ca12 N1 2.524851 1_555
Ca12 N3 2.524851 1_455
Ca13 N4 2.524847 1_555
Ca13 N6 2.524847 1_555
Ca13 N5 2.524851 1_555
Ca13 N7 2.524851 1_655
N0 Zr0 2.088778 1_455
N1 Zr0 2.088775 1_555
N2 Zr0 2.088778 1_555
N3 Zr0 2.088775 1_555
N4 Zr1 2.088778 1_655
N5 Zr1 2.088775 1_555
N6 Zr1 2.088778 1_555
N7 Zr1 2.088775 1_555
