# generated using pymatgen
data_Co12Ge4C
_symmetry_space_group_name_H-M   'P 1'
_cell_length_a   3.65407200
_cell_length_b   3.65407200
_cell_length_c   14.13721300
_cell_angle_alpha   90.00000000
_cell_angle_beta   90.00000000
_cell_angle_gamma   90.00000000
_symmetry_Int_Tables_number   1
_chemical_formula_structural   Co12Ge4C
_chemical_formula_sum   'Co12 Ge4 C1'
_cell_volume   188.76349174
_cell_formula_units_Z   1
loop_
 _symmetry_equiv_pos_site_id
 _symmetry_equiv_pos_as_xyz
  1  'x, y, z'
loop_
 _atom_site_type_symbol
 _atom_site_label
 _atom_site_symmetry_multiplicity
 _atom_site_fract_x
 _atom_site_fract_y
 _atom_site_fract_z
 _atom_site_occupancy
  Co  Co0  1  0.50000000  0.50000000  0.86869200  1
  Co  Co1  1  0.50000000  0.50000000  0.13130800  1
  Co  Co2  1  0.50000000  0.50000000  0.37753600  1
  Co  Co3  1  0.50000000  0.50000000  0.62246400  1
  Co  Co4  1  0.50000000  0.00000000  0.00000000  1
  Co  Co5  1  0.50000000  0.00000000  0.25548200  1
  Co  Co6  1  0.50000000  0.00000000  0.50000000  1
  Co  Co7  1  0.50000000  0.00000000  0.74451800  1
  Co  Co8  1  0.00000000  0.50000000  0.00000000  1
  Co  Co9  1  0.00000000  0.50000000  0.25548200  1
  Co  Co10  1  0.00000000  0.50000000  0.50000000  1
  Co  Co11  1  0.00000000  0.50000000  0.74451800  1
  Ge  Ge0  1  0.00000000  0.00000000  0.86315300  1
  Ge  Ge1  1  0.00000000  0.00000000  0.13684700  1
  Ge  Ge2  1  0.00000000  0.00000000  0.37886500  1
  Ge  Ge3  1  0.00000000  0.00000000  0.62113500  1
  C  C0  1  0.50000000  0.50000000  0.00000000  1
loop_
_geom_bond_atom_site_label_1
_geom_bond_atom_site_label_2
_geom_bond_distance
_geom_bond_site_symmetry_2
Co0 Co7 2.533723 1_555
Co0 Co11 2.533723 1_555
Co0 Co7 2.533723 1_565
Co0 Co11 2.533723 1_655
Co0 Ge0 2.585005 1_565
Co0 Ge0 2.585005 1_655
Co0 Ge0 2.585005 1_555
Co0 Ge0 2.585005 1_665
Co1 Co9 2.533723 1_555
Co1 Co5 2.533723 1_565
Co1 Co9 2.533723 1_655
Co1 Co5 2.533723 1_555
Co1 Ge1 2.585005 1_565
Co1 Ge1 2.585005 1_655
Co1 Ge1 2.585005 1_665
Co1 Ge1 2.585005 1_555
Co2 Co9 2.513050 1_655
Co2 Co5 2.513050 1_555
Co2 Co9 2.513050 1_555
Co2 Co5 2.513050 1_565
Co2 Co6 2.517034 1_555
Co2 Co6 2.517034 1_565
Co2 Ge2 2.583887 1_665
Co2 Ge2 2.583887 1_565
Co2 Ge2 2.583887 1_555
Co2 Ge2 2.583887 1_655
Co3 Co7 2.513050 1_565
Co3 Co7 2.513050 1_555
Co3 Co6 2.517034 1_555
Co3 Co6 2.517034 1_565
Co3 Ge3 2.583887 1_655
Co3 Ge3 2.583887 1_565
Co3 Ge3 2.583887 1_665
Co3 Ge3 2.583887 1_555
Co4 Ge1 2.660991 1_555
Co4 Ge1 2.660991 1_655
Co4 Ge0 2.660991 1_654
Co4 Ge0 2.660991 1_554
Co5 Ge1 2.480112 1_555
Co5 Ge1 2.480112 1_655
Co5 Ge2 2.525988 1_655
Co5 Ge2 2.525988 1_555
Co5 Co9 2.583819 1_645
Co5 Co9 2.583819 1_555
Co5 Co9 2.583819 1_655
Co5 Co9 2.583819 1_545
Co6 Ge2 2.504148 1_655
Co6 Ge3 2.504148 1_655
Co6 Ge3 2.504148 1_555
Co6 Ge2 2.504148 1_555
Co7 Ge0 2.480112 1_655
Co7 Ge0 2.480112 1_555
Co7 Ge3 2.525988 1_655
Co7 Ge3 2.525988 1_555
Co8 Ge1 2.660991 1_555
Co8 Ge1 2.660991 1_565
Co8 Ge0 2.660991 1_554
Co8 Ge0 2.660991 1_564
Co9 Ge1 2.480112 1_565
Co9 Ge1 2.480112 1_555
Co9 Ge2 2.525988 1_565
Co9 Ge2 2.525988 1_555
Co10 Ge2 2.504148 1_565
Co10 Ge3 2.504148 1_565
Co10 Ge3 2.504148 1_555
Co10 Ge2 2.504148 1_555
Co10 Co2 2.517034 1_455
Co10 Co3 2.517034 1_555
Co10 Co3 2.517034 1_455
Co10 Co2 2.517034 1_555
Co10 Co6 2.583819 1_455
Co10 Co6 2.583819 1_565
Co10 Co6 2.583819 1_465
Co10 Co6 2.583819 1_555
Co11 Ge0 2.480112 1_565
Co11 Ge0 2.480112 1_555
Co11 Co3 2.513050 1_455
Co11 Co3 2.513050 1_555
Co11 Ge3 2.525988 1_565
Co11 Ge3 2.525988 1_555
Co11 Co7 2.583819 1_565
Co11 Co7 2.583819 1_465
Co11 Co7 2.583819 1_455
Co11 Co7 2.583819 1_555
C0 Co4 1.827036 1_565
C0 Co8 1.827036 1_555
C0 Co8 1.827036 1_655
C0 Co4 1.827036 1_555
C0 Co1 1.856329 1_555
C0 Co0 1.856329 1_554
