# generated using pymatgen
data_KRb2AlI6
_symmetry_space_group_name_H-M   'P 1'
_cell_length_a   8.69366291
_cell_length_b   8.69366291
_cell_length_c   8.69366291
_cell_angle_alpha   60.00000000
_cell_angle_beta   60.00000000
_cell_angle_gamma   60.00000000
_symmetry_Int_Tables_number   1
_chemical_formula_structural   KRb2AlI6
_chemical_formula_sum   'K1 Rb2 Al1 I6'
_cell_volume   464.61517786
_cell_formula_units_Z   1
loop_
 _symmetry_equiv_pos_site_id
 _symmetry_equiv_pos_as_xyz
  1  'x, y, z'
loop_
 _atom_site_type_symbol
 _atom_site_label
 _atom_site_symmetry_multiplicity
 _atom_site_fract_x
 _atom_site_fract_y
 _atom_site_fract_z
 _atom_site_occupancy
  K  K0  1  0.50000000  0.50000000  0.50000000  1
  Rb  Rb0  1  0.75000000  0.75000000  0.75000000  1
  Rb  Rb1  1  0.25000000  0.25000000  0.25000000  1
  Al  Al0  1  0.00000000  0.00000000  0.00000000  1
  I  I0  1  0.77414200  0.22585800  0.22585800  1
  I  I1  1  0.22585800  0.22585800  0.77414200  1
  I  I2  1  0.22585800  0.77414200  0.77414200  1
  I  I3  1  0.22585800  0.77414200  0.22585800  1
  I  I4  1  0.77414200  0.22585800  0.77414200  1
  I  I5  1  0.77414200  0.77414200  0.22585800  1
loop_
_geom_bond_atom_site_label_1
_geom_bond_atom_site_label_2
_geom_bond_distance
_geom_bond_site_symmetry_2
Al0 I4 2.776855 1_454
Al0 I1 2.776855 1_554
Al0 I3 2.776855 1_545
Al0 I0 2.776855 1_455
Al0 I5 2.776855 1_445
Al0 I2 2.776855 1_544
I0 K0 3.370493 1_555
I0 Rb0 4.356954 1_545
I0 Rb1 4.356954 1_555
I0 Rb1 4.356954 1_655
I0 Rb0 4.356954 1_554
I1 K0 3.370493 1_555
I1 Rb0 4.356954 1_545
I1 Rb1 4.356954 1_556
I1 Rb1 4.356954 1_555
I1 Rb0 4.356954 1_455
I2 K0 3.370493 1_555
I2 Rb1 4.356954 1_556
I2 Rb1 4.356954 1_565
I2 Rb0 4.356954 1_455
I2 Rb0 4.356954 1_555
I3 K0 3.370493 1_555
I3 Rb1 4.356954 1_555
I3 Rb1 4.356954 1_565
I3 Rb0 4.356954 1_455
I3 Rb0 4.356954 1_554
I4 K0 3.370493 1_555
I4 Rb0 4.356954 1_545
I4 Rb1 4.356954 1_556
I4 Rb1 4.356954 1_655
I4 Rb0 4.356954 1_555
I5 K0 3.370493 1_555
I5 Rb1 4.356954 1_565
I5 Rb1 4.356954 1_655
I5 Rb0 4.356954 1_555
I5 Rb0 4.356954 1_554
