# generated using pymatgen
data_LiY4(BiO3)4
_symmetry_space_group_name_H-M   'P 1'
_cell_length_a   5.58702436
_cell_length_b   5.93136120
_cell_length_c   10.14853200
_cell_angle_alpha   90.00010311
_cell_angle_beta   89.99994209
_cell_angle_gamma   89.88786363
_symmetry_Int_Tables_number   1
_chemical_formula_structural   LiY4(BiO3)4
_chemical_formula_sum   'Li1 Y4 Bi4 O12'
_cell_volume   336.30810213
_cell_formula_units_Z   1
loop_
 _symmetry_equiv_pos_site_id
 _symmetry_equiv_pos_as_xyz
  1  'x, y, z'
loop_
 _atom_site_type_symbol
 _atom_site_label
 _atom_site_symmetry_multiplicity
 _atom_site_fract_x
 _atom_site_fract_y
 _atom_site_fract_z
 _atom_site_occupancy
  Li  Li0  1  0.04731800  0.63491400  0.25000000  1
  Y  Y0  1  0.05228100  0.97222000  0.75000100  1
  Y  Y1  1  0.55037000  0.51529900  0.25000000  1
  Y  Y2  1  0.43394500  0.45772000  0.75000000  1
  Y  Y3  1  0.95576000  0.07161000  0.24999900  1
  Bi  Bi0  1  0.93113200  0.48479200  0.55808300  1
  Bi  Bi1  1  0.47671000  0.97355100  0.47300600  1
  Bi  Bi2  1  0.47671000  0.97355100  0.02699400  1
  Bi  Bi3  1  0.93113200  0.48479200  0.94191700  1
  O  O0  1  0.70706600  0.25460000  0.39039900  1
  O  O1  1  0.23108400  0.22204200  0.60641800  1
  O  O2  1  0.79836600  0.74874900  0.11383100  1
  O  O3  1  0.24314600  0.70697500  0.89118700  1
  O  O4  1  0.24314700  0.70697400  0.60881300  1
  O  O5  1  0.79836500  0.74874900  0.38616900  1
  O  O6  1  0.23108300  0.22204100  0.89358200  1
  O  O7  1  0.70706600  0.25460000  0.10960100  1
  O  O8  1  0.19274900  0.36086800  0.25000100  1
  O  O9  1  0.76106800  0.23344800  0.75000000  1
  O  O10  1  0.31263800  0.85558700  0.25000000  1
  O  O11  1  0.77302800  0.68983800  0.75000000  1
loop_
_geom_bond_atom_site_label_1
_geom_bond_atom_site_label_2
_geom_bond_distance
_geom_bond_site_symmetry_2
Li0 O8 1.815811 1_555
Li0 O10 1.979432 1_555
Li0 O2 2.072804 1_455
Li0 O5 2.072804 1_455
Bi0 O4 2.247137 1_655
Bi0 O1 2.338301 1_655
Bi0 O5 2.457796 1_555
Bi0 O11 2.459399 1_555
Bi0 O0 2.516738 1_555
Bi0 O9 2.631407 1_555
Bi1 O0 2.268589 1_565
Bi1 O5 2.403061 1_555
Bi1 O1 2.425041 1_565
Bi1 O4 2.471949 1_555
Bi1 O10 2.540544 1_555
Bi2 O7 2.268587 1_565
Bi2 O2 2.403068 1_555
Bi2 O6 2.425045 1_564
Bi2 O3 2.471947 1_554
Bi2 O10 2.540544 1_555
Bi3 O3 2.247136 1_655
Bi3 O6 2.338299 1_655
Bi3 O2 2.457790 1_556
Bi3 O11 2.459404 1_555
Bi3 O7 2.516740 1_556
Bi3 O9 2.631404 1_555
O0 Y3 2.265600 1_555
O0 Y1 2.276483 1_555
O1 Y0 2.307107 1_545
O1 Y2 2.316926 1_555
O2 Y1 2.398814 1_555
O2 Y3 2.521264 1_565
O3 Y2 2.317096 1_555
O3 Y0 2.378812 1_555
O4 Y2 2.317095 1_555
O4 Y0 2.378826 1_555
O5 Y1 2.398809 1_555
O5 Y3 2.521280 1_565
O6 Y0 2.307086 1_545
O6 Y2 2.316934 1_555
O7 Y3 2.265591 1_555
O7 Y1 2.276478 1_555
O8 Y3 2.169249 1_455
O8 Y1 2.199624 1_555
O9 Y0 2.244563 1_645
O9 Y2 2.258384 1_555
O10 Y3 2.367982 1_465
O10 Y1 2.414018 1_555
O11 Y0 2.291234 1_655
O11 Y2 2.344082 1_555
