# generated using pymatgen
data_Na3TbV2O8
_symmetry_space_group_name_H-M   'P 1'
_cell_length_a   5.63946204
_cell_length_b   14.27569561
_cell_length_c   14.86589007
_cell_angle_alpha   91.52693092
_cell_angle_beta   100.93398653
_cell_angle_gamma   90.00000000
_symmetry_Int_Tables_number   1
_chemical_formula_structural   Na3TbV2O8
_chemical_formula_sum   'Na18 Tb6 V12 O48'
_cell_volume   1174.65252065
_cell_formula_units_Z   6
loop_
 _symmetry_equiv_pos_site_id
 _symmetry_equiv_pos_as_xyz
  1  'x, y, z'
loop_
 _atom_site_type_symbol
 _atom_site_label
 _atom_site_symmetry_multiplicity
 _atom_site_fract_x
 _atom_site_fract_y
 _atom_site_fract_z
 _atom_site_occupancy
  Na  Na0  1  0.71019055  0.41711547  0.42218966  1
  Na  Na1  1  0.71199911  0.91711547  0.42218966  1
  Na  Na2  1  0.82107793  0.32898572  0.67362397  1
  Na  Na3  1  0.85254603  0.82898572  0.67362397  1
  Na  Na4  1  0.66637946  0.07547648  0.22165761  1
  Na  Na5  1  0.55527816  0.57547648  0.22165761  1
  Na  Na6  1  0.45744645  0.23552296  0.00517136  1
  Na  Na7  1  0.54772491  0.73552296  0.00517136  1
  Na  Na8  1  0.94052716  0.00909676  0.87577083  1
  Na  Na9  1  0.93524367  0.50909676  0.87577083  1
  Na  Na10  1  0.38583499  0.39061121  0.80298686  1
  Na  Na11  1  0.41715186  0.89061121  0.80298686  1
  Na  Na12  1  0.06392111  0.15301415  0.11501234  1
  Na  Na13  1  0.05109123  0.65301415  0.11501234  1
  Na  Na14  1  0.27964210  0.47175673  0.55763092  1
  Na  Na15  1  0.27798882  0.97175673  0.55763092  1
  Na  Na16  1  0.18839972  0.29419379  0.35640517  1
  Na  Na17  1  0.16800545  0.79419379  0.35640517  1
  Tb  Tb0  1  0.42164617  0.63465132  0.76281553  1
  Tb  Tb1  1  0.34116936  0.13465132  0.76281553  1
  Tb  Tb2  1  0.96235048  0.40058235  0.11497582  1
  Tb  Tb3  1  0.15262533  0.90058235  0.11497582  1
  Tb  Tb4  1  0.77222892  0.17123773  0.46405016  1
  Tb  Tb5  1  0.69182124  0.67123773  0.46405016  1
  V  V0  1  0.29699274  0.24960051  0.57210298  1
  V  V1  1  0.27511025  0.74960051  0.57210298  1
  V  V2  1  0.91502309  0.25719790  0.89037213  1
  V  V3  1  0.97534903  0.75719790  0.89037213  1
  V  V4  1  0.82289654  0.05434094  0.65399371  1
  V  V5  1  0.83109717  0.55434094  0.65399371  1
  V  V6  1  0.19938826  0.04756314  0.33651480  1
  V  V7  1  0.13712654  0.54756314  0.33651480  1
  V  V8  1  0.57159648  0.30804852  0.22829704  1
  V  V9  1  0.65670056  0.80804852  0.22829704  1
  V  V10  1  0.54710445  0.00130321  0.99960548  1
  V  V11  1  0.45250103  0.50130321  0.99960548  1
  O  O0  1  0.07936685  0.16198799  0.85813067  1
  O  O1  1  0.77876382  0.66198799  0.85813067  1
  O  O2  1  0.58118901  0.02349607  0.70551002  1
  O  O3  1  0.12432101  0.52349607  0.70551002  1
  O  O4  1  0.60172570  0.39407607  0.00849416  1
  O  O5  1  0.40676846  0.89407607  0.00849416  1
  O  O6  1  0.53758741  0.28436907  0.52181802  1
  O  O7  1  0.98423062  0.78436907  0.52181802  1
  O  O8  1  0.69700153  0.41767299  0.21931522  1
  O  O9  1  0.52231369  0.91767299  0.21931522  1
  O  O10  1  0.97678048  0.35317032  0.83100471  1
  O  O11  1  0.85422422  0.85317032  0.83100471  1
  O  O12  1  0.87491888  0.17258045  0.65852405  1
  O  O13  1  0.78360517  0.67258045  0.65852405  1
  O  O14  1  0.42051588  0.07792838  0.06816991  1
  O  O15  1  0.64765403  0.57792838  0.06816991  1
  O  O16  1  0.12228248  0.52567066  0.21878083  1
  O  O17  1  0.09649834  0.02567066  0.21878083  1
  O  O18  1  0.64044502  0.27503967  0.34235091  1
  O  O19  1  0.70190589  0.77503967  0.34235091  1
  O  O20  1  0.33930278  0.64145621  0.36686705  1
  O  O21  1  0.02756428  0.14145621  0.36686705  1
  O  O22  1  0.25289897  0.30726086  0.19523558  1
  O  O23  1  0.94233661  0.80726086  0.19523558  1
  O  O24  1  0.50675492  0.07880475  0.36214066  1
  O  O25  1  0.85538574  0.57880475  0.36214066  1
  O  O26  1  0.26078376  0.13088722  0.56613693  1
  O  O27  1  0.30535317  0.63088722  0.56613693  1
  O  O28  1  0.03430953  0.30139179  0.51230335  1
  O  O29  1  0.47799381  0.80139179  0.51230335  1
  O  O30  1  0.76930721  0.02443635  0.53734708  1
  O  O31  1  0.76803987  0.52443635  0.53734708  1
  O  O32  1  0.47891474  0.03309645  0.88505800  1
  O  O33  1  0.40614326  0.53309645  0.88505800  1
  O  O34  1  0.60500145  0.23028246  0.86343194  1
  O  O35  1  0.25843049  0.73028246  0.86343194  1
  O  O36  1  0.25038405  0.45160302  0.39730067  1
  O  O37  1  0.14691662  0.95160302  0.39730067  1
  O  O38  1  0.62811822  0.50075777  0.71271480  1
  O  O39  1  0.08459658  0.00075777  0.71271480  1
  O  O40  1  0.01830873  0.27731691  0.00815715  1
  O  O41  1  0.98984842  0.77731691  0.00815715  1
  O  O42  1  0.71408072  0.23772694  0.15877608  1
  O  O43  1  0.44469537  0.73772694  0.15877608  1
  O  O44  1  0.16659211  0.49515666  0.03231580  1
  O  O45  1  0.86572369  0.99515666  0.03231580  1
  O  O46  1  0.33644648  0.78033206  0.68880005  1
  O  O47  1  0.35235357  0.28033206  0.68880005  1
loop_
_geom_bond_atom_site_label_1
_geom_bond_atom_site_label_2
_geom_bond_distance
_geom_bond_site_symmetry_2
Na0 O31 2.243372 1_555
Na0 O18 2.317695 1_555
Na0 O36 2.597884 1_555
Na0 O28 2.655919 1_655
Na0 O25 2.679993 1_555
Na0 O6 2.725568 1_555
Na1 O30 2.243372 1_565
Na1 O19 2.317695 1_555
Na1 O37 2.597884 1_655
Na1 O29 2.655919 1_555
Na1 O24 2.679993 1_565
Na1 O7 2.725568 1_555
Na2 O12 2.264309 1_555
Na2 O10 2.354058 1_555
Na2 O6 2.570833 1_555
Na2 O38 2.774693 1_555
Na2 O47 2.784819 1_555
Na2 O28 2.897603 1_655
Na3 O13 2.264309 1_555
Na3 O11 2.354058 1_555
Na3 O7 2.570833 1_555
Na3 O39 2.774693 1_665
Na3 O46 2.784819 1_655
Na3 O29 2.897603 1_555
Na4 O9 2.391920 1_545
Na4 O24 2.425271 1_555
Na4 O14 2.436000 1_555
Na4 O17 2.535513 1_655
Na4 O42 2.553810 1_555
Na4 O21 2.814174 1_655
Na5 O8 2.391920 1_555
Na5 O25 2.425271 1_555
Na5 O15 2.436000 1_555
Na5 O16 2.535513 1_555
Na5 O43 2.553810 1_555
Na5 O20 2.814174 1_555
Na6 O4 2.401355 1_555
Na6 O34 2.407194 1_554
Na6 O42 2.460145 1_555
Na6 O14 2.483590 1_555
Na6 O40 2.555639 1_555
Na6 O0 2.921627 1_554
Na7 O5 2.401355 1_555
Na7 O35 2.407195 1_554
Na7 O43 2.460145 1_555
Na7 O15 2.483590 1_555
Na7 O41 2.555639 1_555
Na7 O1 2.921627 1_554
Na8 O11 2.330842 1_545
Na8 O0 2.356712 1_655
Na8 O45 2.455694 1_546
Na8 O32 2.654648 1_555
Na8 O39 2.698455 1_655
Na9 O10 2.330842 1_555
Na9 O1 2.356712 1_555
Na9 O44 2.455694 1_656
Na9 O33 2.654648 1_655
Na9 O38 2.698455 1_555
Na10 O47 2.265296 1_555
Na10 O33 2.335351 1_555
Na10 O10 2.481344 1_455
Na10 O38 2.635972 1_555
Na10 O3 2.685022 1_555
Na10 O34 2.694808 1_555
Na11 O46 2.265296 1_555
Na11 O32 2.335351 1_565
Na11 O11 2.481344 1_555
Na11 O39 2.635972 1_565
Na11 O2 2.685022 1_565
Na11 O35 2.694808 1_555
Na12 O40 2.394491 1_555
Na12 O17 2.400034 1_555
Na12 O14 2.483842 1_555
Na12 O42 2.494619 1_455
Na12 O22 2.604739 1_555
Na12 O45 2.677704 1_445
Na13 O41 2.394491 1_455
Na13 O16 2.400034 1_555
Na13 O15 2.483842 1_455
Na13 O43 2.494619 1_555
Na13 O23 2.604739 1_455
Na13 O44 2.677704 1_555
Na14 O27 2.274942 1_555
Na14 O36 2.367511 1_555
Na14 O3 2.605670 1_555
Na14 O38 2.752999 1_555
Na14 O28 2.800401 1_555
Na14 O31 2.927423 1_555
Na14 O31 2.943246 1_455
Na15 O26 2.274942 1_565
Na15 O37 2.367511 1_555
Na15 O2 2.605670 1_565
Na15 O39 2.752999 1_565
Na15 O29 2.800401 1_555
Na15 O30 2.927423 1_465
Na15 O30 2.943245 1_565
Na16 O36 2.321194 1_555
Na16 O21 2.381757 1_555
Na16 O22 2.502401 1_555
Na16 O18 2.610808 1_555
Na16 O28 2.624521 1_555
Na16 O6 2.850556 1_555
Na17 O37 2.321194 1_555
Na17 O20 2.381757 1_555
Na17 O23 2.502401 1_455
Na17 O19 2.610808 1_455
Na17 O29 2.624521 1_555
Na17 O7 2.850556 1_455
O0 V2 1.752111 1_455
O0 Tb1 2.259205 1_555
O1 V3 1.752111 1_555
O1 Tb0 2.259205 1_555
O2 V4 1.747119 1_555
O2 Tb1 2.332660 1_555
O3 V5 1.747119 1_455
O3 Tb0 2.332660 1_555
O4 V11 1.742822 1_554
O4 Tb2 2.328370 1_555
O5 V10 1.742822 1_564
O5 Tb3 2.328370 1_555
O6 V0 1.746618 1_555
O6 Tb4 2.335374 1_555
O7 V1 1.746618 1_655
O7 Tb5 2.335374 1_555
O8 V8 1.736105 1_555
O8 Tb2 2.359041 1_555
O9 V9 1.736105 1_555
O9 Tb3 2.359041 1_555
O10 V2 1.719981 1_555
O11 V3 1.719981 1_555
O12 V4 1.710623 1_555
O12 Tb1 2.847612 1_655
O13 V5 1.710623 1_555
O13 Tb0 2.847612 1_555
O14 V10 1.720971 1_554
O15 V11 1.720971 1_554
O16 V7 1.755910 1_555
O16 Tb2 2.389300 1_455
O17 V6 1.755910 1_555
O17 Tb3 2.389300 1_545
O18 V8 1.743678 1_555
O18 Tb4 2.377834 1_555
O19 V9 1.743678 1_555
O19 Tb5 2.377834 1_555
O20 V7 1.752946 1_555
O20 Tb5 2.257846 1_555
O21 V6 1.752945 1_555
O21 Tb4 2.257846 1_455
O22 V8 1.771021 1_555
O22 Tb2 2.286106 1_455
O23 V9 1.771021 1_555
O23 Tb3 2.286105 1_655
O24 V6 1.757582 1_555
O24 Tb4 2.304515 1_555
O25 V7 1.757582 1_655
O25 Tb5 2.304515 1_555
O26 V0 1.704917 1_555
O26 Tb1 2.871555 1_555
O27 V1 1.704917 1_555
O27 Tb0 2.871555 1_555
O28 V0 1.751255 1_555
O28 Tb4 2.382878 1_455
O29 V1 1.751255 1_555
O29 Tb5 2.382878 1_555
O30 V4 1.744213 1_555
O30 Tb4 2.389139 1_555
O31 V5 1.744213 1_555
O31 Tb5 2.389139 1_555
O32 V10 1.745380 1_555
O32 Tb1 2.369075 1_555
O33 V11 1.745380 1_555
O33 Tb0 2.369075 1_555
O34 V2 1.758110 1_555
O34 Tb1 2.315542 1_555
O35 V3 1.758110 1_455
O35 Tb0 2.315542 1_555
O36 V7 1.717018 1_555
O37 V6 1.717018 1_565
O38 V5 1.752750 1_555
O38 Tb0 2.411883 1_555
O39 V4 1.752750 1_455
O39 Tb1 2.411883 1_555
O40 V2 1.753280 1_454
O40 Tb2 2.399774 1_455
O41 V3 1.753280 1_554
O41 Tb3 2.399774 1_655
O42 V8 1.726646 1_555
O43 V9 1.726646 1_555
O44 V11 1.773022 1_554
O44 Tb2 2.298871 1_455
O45 V10 1.773022 1_564
O45 Tb3 2.298871 1_655
O46 V1 1.747417 1_555
O46 Tb0 2.384965 1_555
O47 V0 1.747417 1_555
O47 Tb1 2.384965 1_555
