# generated using pymatgen
data_HfV2
_symmetry_space_group_name_H-M   'P 1'
_cell_length_a   5.15435049
_cell_length_b   5.15433859
_cell_length_c   5.15434309
_cell_angle_alpha   59.99990501
_cell_angle_beta   59.99998007
_cell_angle_gamma   59.99995545
_symmetry_Int_Tables_number   1
_chemical_formula_structural   HfV2
_chemical_formula_sum   'Hf2 V4'
_cell_volume   96.82883181
_cell_formula_units_Z   2
loop_
 _symmetry_equiv_pos_site_id
 _symmetry_equiv_pos_as_xyz
  1  'x, y, z'
loop_
 _atom_site_type_symbol
 _atom_site_label
 _atom_site_symmetry_multiplicity
 _atom_site_fract_x
 _atom_site_fract_y
 _atom_site_fract_z
 _atom_site_occupancy
  Hf  Hf0  1  0.12500100  0.12499900  0.12499900  1
  Hf  Hf1  1  0.87499900  0.87500100  0.87500100  1
  V  V0  1  0.50000000  0.00000000  0.50000000  1
  V  V1  1  0.00000000  0.50000000  0.50000000  1
  V  V2  1  0.50000000  0.50000000  0.50000000  1
  V  V3  1  0.50000000  0.50000000  -0.00000000  1
loop_
_geom_bond_atom_site_label_1
_geom_bond_atom_site_label_2
_geom_bond_distance
_geom_bond_site_symmetry_2
Hf0 V3 3.021992 1_545
Hf0 V1 3.021995 1_545
Hf0 V0 3.021995 1_554
Hf0 V2 3.021995 1_545
Hf0 V1 3.021997 1_554
Hf0 V2 3.021997 1_554
Hf0 V3 3.022005 1_555
Hf0 V0 3.022006 1_555
Hf0 V3 3.022006 1_455
Hf0 V0 3.022007 1_455
Hf0 V1 3.022008 1_555
Hf0 V2 3.022009 1_455
Hf0 Hf1 3.156371 1_444
Hf0 Hf1 3.156373 1_544
Hf0 Hf1 3.156380 1_454
Hf0 Hf1 3.156384 1_445
Hf1 V3 3.021992 1_566
Hf1 V1 3.021995 1_665
Hf1 V0 3.021995 1_566
Hf1 V2 3.021995 1_565
Hf1 V1 3.021997 1_656
Hf1 V2 3.021997 1_556
Hf1 V3 3.022005 1_556
Hf1 V0 3.022006 1_565
Hf1 V3 3.022006 1_656
Hf1 V0 3.022007 1_665
Hf1 V1 3.022008 1_655
Hf1 V2 3.022009 1_655
V0 V3 2.577167 1_546
V0 V3 2.577167 1_555
V0 V2 2.577169 1_545
V0 V2 2.577169 1_555
V0 V1 2.577171 1_645
V0 V1 2.577171 1_555
V1 V3 2.577173 1_555
V1 V3 2.577173 1_456
V1 V2 2.577175 1_455
V1 V2 2.577175 1_555
V2 V3 2.577172 1_556
V2 V3 2.577172 1_555
