# generated using pymatgen
data_Li7Mn4CoO12
_symmetry_space_group_name_H-M   'P 1'
_cell_length_a   5.02457619
_cell_length_b   5.02457619
_cell_length_c   9.77620187
_cell_angle_alpha   85.75585977
_cell_angle_beta   85.75585977
_cell_angle_gamma   118.39775337
_symmetry_Int_Tables_number   1
_chemical_formula_structural   Li7Mn4CoO12
_chemical_formula_sum   'Li7 Mn4 Co1 O12'
_cell_volume   214.83429477
_cell_formula_units_Z   1
loop_
 _symmetry_equiv_pos_site_id
 _symmetry_equiv_pos_as_xyz
  1  'x, y, z'
loop_
 _atom_site_type_symbol
 _atom_site_label
 _atom_site_symmetry_multiplicity
 _atom_site_fract_x
 _atom_site_fract_y
 _atom_site_fract_z
 _atom_site_occupancy
  Li  Li0  1  0.93043400  0.59153800  0.24777400  1
  Li  Li1  1  0.40846200  0.06956600  0.75222600  1
  Li  Li2  1  0.57699700  0.91259700  0.24564300  1
  Li  Li3  1  0.08740300  0.42300300  0.75435700  1
  Li  Li4  1  0.24686500  0.25040900  0.24871900  1
  Li  Li5  1  0.74959100  0.75313500  0.75128100  1
  Li  Li6  1  0.33343500  0.66656500  0.00000000  1
  Mn  Mn0  1  0.00056100  0.99943900  0.00000000  1
  Mn  Mn1  1  0.66583700  0.33416300  0.00000000  1
  Mn  Mn2  1  0.49676200  0.50323800  0.50000000  1
  Mn  Mn3  1  0.83660800  0.16339200  0.50000000  1
  Co  Co0  1  0.16667500  0.83332500  0.50000000  1
  O  O0  1  0.30477900  0.99411500  0.11014600  1
  O  O1  1  0.80773000  0.47465300  0.60594200  1
  O  O2  1  0.93886800  0.27344300  0.11336400  1
  O  O3  1  0.43404300  0.77063800  0.61976900  1
  O  O4  1  0.66066700  0.63732900  0.11143800  1
  O  O5  1  0.10518000  0.10071600  0.61751000  1
  O  O6  1  0.52534700  0.19227000  0.39405800  1
  O  O7  1  0.00588500  0.69522100  0.88985400  1
  O  O8  1  0.22936200  0.56595700  0.38023100  1
  O  O9  1  0.72655700  0.06113200  0.88663600  1
  O  O10  1  0.89928400  0.89482000  0.38249000  1
  O  O11  1  0.36267100  0.33933300  0.88856200  1
loop_
_geom_bond_atom_site_label_1
_geom_bond_atom_site_label_2
_geom_bond_distance
_geom_bond_site_symmetry_2
Li0 O4 2.045816 1_555
Li0 O8 2.096710 1_655
Li0 O10 2.138827 1_555
Li0 O2 2.156390 1_555
Li0 O0 2.245766 1_655
Li0 O6 2.339489 1_555
Li1 O11 2.045816 1_555
Li1 O3 2.096710 1_545
Li1 O5 2.138827 1_555
Li1 O9 2.156390 1_555
Li1 O7 2.245766 1_545
Li1 O1 2.339489 1_555
Li2 O8 2.059781 1_555
Li2 O2 2.105919 1_565
Li2 O0 2.124624 1_555
Li2 O4 2.133339 1_555
Li2 O6 2.177198 1_565
Li2 O10 2.204694 1_555
Li3 O3 2.059781 1_555
Li3 O9 2.105919 1_455
Li3 O7 2.124624 1_555
Li3 O11 2.133339 1_555
Li3 O1 2.177198 1_455
Li3 O5 2.204694 1_555
Li4 O0 2.033370 1_545
Li4 O10 2.073807 1_445
Li4 O8 2.142926 1_555
Li4 O2 2.147121 1_455
Li4 O6 2.164194 1_555
Li4 O4 2.293408 1_555
Li5 O7 2.033370 1_655
Li5 O5 2.073807 1_665
Li5 O3 2.142926 1_555
Li5 O9 2.147121 1_565
Li5 O1 2.164194 1_555
Li5 O11 2.293408 1_555
Li6 O0 2.086545 1_555
Li6 O7 2.086545 1_554
Li6 O4 2.093571 1_555
Li6 O11 2.093571 1_554
Li6 O2 2.164787 1_455
Li6 O9 2.164787 1_564
Mn0 O7 1.942938 1_554
Mn0 O0 1.942938 1_555
Mn0 O2 1.949545 1_465
Mn0 O9 1.949545 1_464
Mn0 O11 1.972197 1_564
Mn0 O4 1.972197 1_455
Mn1 O9 1.943311 1_554
Mn1 O2 1.943311 1_555
Mn1 O4 1.946027 1_555
Mn1 O11 1.946027 1_554
Mn1 O7 1.964739 1_654
Mn1 O0 1.964739 1_545
Mn2 O8 1.963782 1_555
Mn2 O3 1.963782 1_555
Mn2 O1 1.991392 1_555
Mn2 O6 1.991392 1_555
Mn2 O5 2.194977 1_555
Mn2 O10 2.194977 1_555
Mn3 O5 1.954507 1_655
Mn3 O10 1.954507 1_545
Mn3 O1 1.993254 1_555
Mn3 O6 1.993254 1_555
Mn3 O3 2.206219 1_545
Mn3 O8 2.206219 1_655
Co0 O10 1.947063 1_455
Co0 O5 1.947063 1_565
Co0 O8 1.963582 1_555
Co0 O3 1.963582 1_555
Co0 O6 1.982154 1_565
Co0 O1 1.982154 1_455
