# generated using pymatgen
data_Sr2PrF6
_symmetry_space_group_name_H-M   'P 1'
_cell_length_a   7.16963845
_cell_length_b   7.16963845
_cell_length_c   7.16963845
_cell_angle_alpha   147.38767432
_cell_angle_beta   129.73699166
_cell_angle_gamma   61.20998812
_symmetry_Int_Tables_number   1
_chemical_formula_structural   Sr2PrF6
_chemical_formula_sum   'Sr2 Pr1 F6'
_cell_volume   151.29775476
_cell_formula_units_Z   1
loop_
 _symmetry_equiv_pos_site_id
 _symmetry_equiv_pos_as_xyz
  1  'x, y, z'
loop_
 _atom_site_type_symbol
 _atom_site_label
 _atom_site_symmetry_multiplicity
 _atom_site_fract_x
 _atom_site_fract_y
 _atom_site_fract_z
 _atom_site_occupancy
  Sr  Sr0  1  0.67122000  0.67122000  0.00000000  1
  Sr  Sr1  1  0.32878000  0.32878000  0.00000000  1
  Pr  Pr0  1  0.00000000  0.00000000  0.00000000  1
  F  F0  1  0.73370600  0.50000000  0.23370600  1
  F  F1  1  0.41415300  0.16210000  0.25205300  1
  F  F2  1  0.08995200  0.83790000  0.25205300  1
  F  F3  1  0.26629400  0.50000000  0.76629400  1
  F  F4  1  0.91004800  0.16210000  0.74794700  1
  F  F5  1  0.58584700  0.83790000  0.74794700  1
loop_
_geom_bond_atom_site_label_1
_geom_bond_atom_site_label_2
_geom_bond_distance
_geom_bond_site_symmetry_2
F0 Sr1 2.547752 1_555
F0 Sr0 2.547752 1_555
F0 Pr0 2.584981 1_666
F0 Pr0 2.584981 1_655
F1 Sr0 2.518908 1_545
F1 Sr0 2.518908 1_556
F1 Pr0 2.521613 1_555
F1 Sr1 2.566690 1_555
F2 Sr1 2.518908 1_566
F2 Sr1 2.518911 1_555
F2 Pr0 2.521616 1_565
F2 Sr0 2.566683 1_455
F3 Sr0 2.547752 1_556
F3 Sr1 2.547752 1_556
F3 Pr0 2.584981 1_555
F3 Pr0 2.584981 1_566
F4 Sr0 2.518908 1_545
F4 Sr0 2.518911 1_556
F4 Pr0 2.521616 1_656
F4 Sr1 2.566683 1_656
F5 Sr1 2.518908 1_555
F5 Sr1 2.518908 1_566
F5 Pr0 2.521613 1_666
F5 Sr0 2.566690 1_556
