# generated using pymatgen
data_SnSb4S7
_symmetry_space_group_name_H-M   'P 1'
_cell_length_a   3.89935900
_cell_length_b   11.36690800
_cell_length_c   14.77170734
_cell_angle_alpha   75.38542493
_cell_angle_beta   90.00000000
_cell_angle_gamma   90.00000000
_symmetry_Int_Tables_number   1
_chemical_formula_structural   SnSb4S7
_chemical_formula_sum   'Sn2 Sb8 S14'
_cell_volume   633.55208598
_cell_formula_units_Z   2
loop_
 _symmetry_equiv_pos_site_id
 _symmetry_equiv_pos_as_xyz
  1  'x, y, z'
loop_
 _atom_site_type_symbol
 _atom_site_label
 _atom_site_symmetry_multiplicity
 _atom_site_fract_x
 _atom_site_fract_y
 _atom_site_fract_z
 _atom_site_occupancy
  Sn  Sn0  1  0.25000000  0.61903700  0.21415000  1
  Sn  Sn1  1  0.75000000  0.38096300  0.78585000  1
  Sb  Sb0  1  0.25000000  0.33138200  0.47379200  1
  Sb  Sb1  1  0.75000000  0.66861800  0.52620800  1
  Sb  Sb2  1  0.25000000  0.05609100  0.88037400  1
  Sb  Sb3  1  0.75000000  0.94390900  0.11962600  1
  Sb  Sb4  1  0.25000000  0.34442200  0.03961400  1
  Sb  Sb5  1  0.75000000  0.65557800  0.96038600  1
  Sb  Sb6  1  0.25000000  0.92781700  0.61886100  1
  Sb  Sb7  1  0.75000000  0.07218300  0.38113900  1
  S  S0  1  0.25000000  0.24036100  0.33318200  1
  S  S1  1  0.75000000  0.75963900  0.66681800  1
  S  S2  1  0.25000000  0.04746800  0.18047600  1
  S  S3  1  0.75000000  0.95253200  0.81952400  1
  S  S4  1  0.25000000  0.88987300  0.46087000  1
  S  S5  1  0.75000000  0.11012700  0.53913000  1
  S  S6  1  0.25000000  0.23329200  0.74433100  1
  S  S7  1  0.75000000  0.76670800  0.25566900  1
  S  S8  1  0.25000000  0.53099400  0.60078700  1
  S  S9  1  0.75000000  0.46900600  0.39921300  1
  S  S10  1  0.25000000  0.51287600  0.89502700  1
  S  S11  1  0.75000000  0.48712400  0.10497300  1
  S  S12  1  0.25000000  0.76267400  0.03786100  1
  S  S13  1  0.75000000  0.23732600  0.96213900  1
loop_
_geom_bond_atom_site_label_1
_geom_bond_atom_site_label_2
_geom_bond_distance
_geom_bond_site_symmetry_2
S0 Sb0 2.543428 1_555
S0 Sb7 2.697065 1_455
S0 Sb7 2.697065 1_555
S1 Sb1 2.543428 1_555
S1 Sb6 2.697065 1_655
S1 Sb6 2.697065 1_555
S2 Sb3 2.555154 1_545
S2 Sb3 2.555154 1_445
S3 Sb2 2.555154 1_665
S3 Sb2 2.555154 1_565
S4 Sb6 2.478020 1_555
S4 Sb7 2.872484 1_465
S4 Sb7 2.872484 1_565
S4 Sb1 3.135763 1_455
S4 Sb1 3.135763 1_555
S5 Sb7 2.478020 1_555
S5 Sb6 2.872484 1_645
S5 Sb6 2.872484 1_545
S5 Sb0 3.135763 1_655
S5 Sb0 3.135763 1_555
S6 Sb2 2.460269 1_555
S6 Sn1 2.741254 1_555
S6 Sn1 2.741254 1_455
S7 Sb3 2.460269 1_555
S7 Sn0 2.741254 1_655
S7 Sn0 2.741254 1_555
S8 Sb1 2.567576 1_455
S8 Sb1 2.567576 1_555
S9 Sb0 2.567576 1_555
S9 Sb0 2.567576 1_655
S10 Sb4 2.482809 1_556
S10 Sb5 2.855661 1_555
S10 Sb5 2.855661 1_455
S10 Sn1 3.141779 1_455
S10 Sn1 3.141779 1_555
S11 Sb5 2.482809 1_554
S11 Sb4 2.855661 1_655
S11 Sb4 2.855661 1_555
S11 Sn0 3.141779 1_655
S11 Sn0 3.141779 1_555
S12 Sb5 2.701106 1_454
S12 Sb5 2.701106 1_554
S12 Sn0 2.702123 1_555
S13 Sb4 2.701106 1_556
S13 Sb4 2.701106 1_656
S13 Sn1 2.702123 1_555
