# generated using pymatgen
data_MnSbO4
_symmetry_space_group_name_H-M   'P 1'
_cell_length_a   5.66586374
_cell_length_b   8.00070018
_cell_length_c   7.99166364
_cell_angle_alpha   112.24127606
_cell_angle_beta   100.49925781
_cell_angle_gamma   69.07314030
_symmetry_Int_Tables_number   1
_chemical_formula_structural   MnSbO4
_chemical_formula_sum   'Mn4 Sb4 O16'
_cell_volume   312.73351678
_cell_formula_units_Z   4
loop_
 _symmetry_equiv_pos_site_id
 _symmetry_equiv_pos_as_xyz
  1  'x, y, z'
loop_
 _atom_site_type_symbol
 _atom_site_label
 _atom_site_symmetry_multiplicity
 _atom_site_fract_x
 _atom_site_fract_y
 _atom_site_fract_z
 _atom_site_occupancy
  Mn  Mn0  1  0.51695700  0.50165500  0.99180500  1
  Mn  Mn1  1  0.73016700  0.74902700  0.50760000  1
  Mn  Mn2  1  0.98126700  0.99694700  0.00669000  1
  Mn  Mn3  1  0.27021300  0.25124700  0.49507700  1
  Sb  Sb0  1  0.43131500  0.18856600  0.12045900  1
  Sb  Sb1  1  0.69779400  0.43509300  0.62214400  1
  Sb  Sb2  1  0.94349600  0.68694300  0.12976600  1
  Sb  Sb3  1  0.17773600  0.93920300  0.62740100  1
  O  O0  1  0.18912400  0.14643500  0.23762000  1
  O  O1  1  0.44664200  0.38305500  0.72366000  1
  O  O2  1  0.68346700  0.62823500  0.21283500  1
  O  O3  1  0.93003100  0.89267200  0.72621800  1
  O  O4  1  0.69903500  0.22522800  0.02571200  1
  O  O5  1  0.93005200  0.50171200  0.52403000  1
  O  O6  1  0.17560300  0.75017400  0.02528200  1
  O  O7  1  0.44296600  0.97352300  0.52545500  1
  O  O8  1  0.25087000  0.05686400  0.90015200  1
  O  O9  1  0.51758700  0.30222000  0.39443800  1
  O  O10  1  0.77118300  0.54830400  0.89240400  1
  O  O11  1  0.00121900  0.80098200  0.39647400  1
  O  O12  1  0.25192400  0.45130200  0.10122100  1
  O  O13  1  0.48070700  0.69492800  0.60770300  1
  O  O14  1  0.72901200  0.94578000  0.10804700  1
  O  O15  1  0.00163400  0.19990300  0.59780600  1
loop_
_geom_bond_atom_site_label_1
_geom_bond_atom_site_label_2
_geom_bond_distance
_geom_bond_site_symmetry_2
Mn0 O2 1.938246 1_556
Mn0 O10 1.967384 1_555
Mn0 O1 2.017629 1_555
Mn0 O12 2.087865 1_556
Mn0 O4 2.179646 1_556
Mn0 O6 2.191901 1_556
Mn1 O7 1.922782 1_555
Mn1 O5 1.938235 1_555
Mn1 O13 1.984002 1_555
Mn1 O3 2.084274 1_555
Mn1 O11 2.133663 1_655
Mn1 O2 2.187520 1_555
Mn2 O4 1.925628 1_565
Mn2 O6 1.934436 1_655
Mn2 O14 1.989307 1_555
Mn2 O3 2.079567 1_554
Mn2 O8 2.143392 1_664
Mn2 O0 2.183225 1_665
Mn3 O0 1.942218 1_555
Mn3 O9 1.960883 1_555
Mn3 O1 2.019304 1_555
Mn3 O15 2.077395 1_555
Mn3 O7 2.173094 1_545
Mn3 O5 2.199148 1_455
O0 Sb0 1.977595 1_555
O1 Sb1 1.988988 1_555
O2 Sb2 1.979584 1_555
O3 Sb3 1.931752 1_655
O4 Sb0 1.965910 1_555
O5 Sb1 1.955519 1_555
O6 Sb2 1.969222 1_455
O7 Sb3 1.976805 1_555
O8 Sb0 1.991103 1_556
O8 Sb3 2.050671 1_545
O9 Sb1 2.029257 1_555
O9 Sb0 2.068854 1_555
O10 Sb1 2.029522 1_555
O10 Sb2 2.070660 1_556
O11 Sb2 1.992334 1_455
O11 Sb3 2.049747 1_555
O12 Sb2 2.031352 1_455
O12 Sb0 2.033930 1_555
O13 Sb1 2.037440 1_555
O13 Sb3 2.063993 1_555
O14 Sb2 2.047669 1_555
O14 Sb0 2.050028 1_565
O15 Sb1 2.018197 1_455
O15 Sb3 2.050062 1_545
