# generated using pymatgen
data_KCaCeNbO6
_symmetry_space_group_name_H-M   'P 1'
_cell_length_a   8.35807469
_cell_length_b   8.33224427
_cell_length_c   8.34480276
_cell_angle_alpha   90.00000000
_cell_angle_beta   90.00000000
_cell_angle_gamma   90.00000000
_symmetry_Int_Tables_number   1
_chemical_formula_structural   KCaCeNbO6
_chemical_formula_sum   'K4 Ca4 Ce4 Nb4 O24'
_cell_volume   581.14474784
_cell_formula_units_Z   4
loop_
 _symmetry_equiv_pos_site_id
 _symmetry_equiv_pos_as_xyz
  1  'x, y, z'
loop_
 _atom_site_type_symbol
 _atom_site_label
 _atom_site_symmetry_multiplicity
 _atom_site_fract_x
 _atom_site_fract_y
 _atom_site_fract_z
 _atom_site_occupancy
  K  K0  1  0.00000000  0.50000000  0.50000000  1
  K  K1  1  0.50000000  0.00000000  0.50000000  1
  K  K2  1  0.50000000  0.00000000  0.00000000  1
  K  K3  1  0.00000000  0.50000000  0.00000000  1
  Ca  Ca0  1  0.50000000  0.50000000  0.00000000  1
  Ca  Ca1  1  0.00000000  0.00000000  0.50000000  1
  Ca  Ca2  1  0.00000000  0.00000000  0.00000000  1
  Ca  Ca3  1  0.50000000  0.50000000  0.50000000  1
  Ce  Ce0  1  0.75000000  0.75000000  0.75000000  1
  Ce  Ce1  1  0.25000000  0.25000000  0.75000000  1
  Ce  Ce2  1  0.25000000  0.75000000  0.25000000  1
  Ce  Ce3  1  0.75000000  0.25000000  0.25000000  1
  Nb  Nb0  1  0.25000000  0.25000000  0.25000000  1
  Nb  Nb1  1  0.75000000  0.75000000  0.25000000  1
  Nb  Nb2  1  0.75000000  0.25000000  0.75000000  1
  Nb  Nb3  1  0.25000000  0.75000000  0.75000000  1
  O  O0  1  0.01486183  0.20700719  0.29715543  1
  O  O1  1  0.98513817  0.79299281  0.29715543  1
  O  O2  1  0.98513817  0.20700719  0.70284457  1
  O  O3  1  0.01486183  0.79299281  0.70284457  1
  O  O4  1  0.27930276  0.01333997  0.28485864  1
  O  O5  1  0.27930276  0.98666003  0.71514136  1
  O  O6  1  0.72069724  0.98666003  0.28485864  1
  O  O7  1  0.72069724  0.01333997  0.71514136  1
  O  O8  1  0.20514992  0.20419682  0.01403622  1
  O  O9  1  0.79485008  0.20419682  0.98596378  1
  O  O10  1  0.20514992  0.79580318  0.98596378  1
  O  O11  1  0.79485008  0.79580318  0.01403622  1
  O  O12  1  0.48513817  0.29299281  0.20284457  1
  O  O13  1  0.51486183  0.70700719  0.20284457  1
  O  O14  1  0.51486183  0.29299281  0.79715543  1
  O  O15  1  0.48513817  0.70700719  0.79715543  1
  O  O16  1  0.22069724  0.48666003  0.21514136  1
  O  O17  1  0.22069724  0.51333997  0.78485864  1
  O  O18  1  0.77930276  0.51333997  0.21514136  1
  O  O19  1  0.77930276  0.48666003  0.78485864  1
  O  O20  1  0.29485008  0.29580318  0.48596378  1
  O  O21  1  0.70514992  0.29580318  0.51403622  1
  O  O22  1  0.29485008  0.70419682  0.51403622  1
  O  O23  1  0.70514992  0.70419682  0.48596378  1
loop_
_geom_bond_atom_site_label_1
_geom_bond_atom_site_label_2
_geom_bond_distance
_geom_bond_site_symmetry_2
K0 O0 2.973305 1_555
K0 O2 2.973305 1_455
K0 O3 2.973305 1_555
K0 O1 2.973305 1_455
K0 O20 2.996949 1_555
K0 O21 2.996949 1_455
K0 O22 2.996949 1_555
K0 O23 2.996949 1_455
K0 O18 3.010892 1_455
K0 O16 3.010892 1_555
K0 O17 3.010892 1_555
K0 O19 3.010892 1_455
K1 O4 2.576444 1_555
K1 O6 2.576444 1_545
K1 O7 2.576444 1_555
K1 O5 2.576444 1_545
K1 O22 3.004753 1_545
K1 O23 3.004753 1_545
K1 O20 3.004753 1_555
K1 O21 3.004753 1_555
K2 O12 2.973305 1_555
K2 O14 2.973305 1_554
K2 O13 2.973305 1_545
K2 O15 2.973305 1_544
K2 O11 2.996949 1_545
K2 O10 2.996949 1_544
K2 O9 2.996949 1_554
K2 O8 2.996949 1_555
K2 O6 3.010892 1_545
K2 O4 3.010892 1_555
K2 O5 3.010892 1_544
K2 O7 3.010892 1_554
K3 O17 2.576444 1_554
K3 O19 2.576444 1_454
K3 O16 2.576444 1_555
K3 O18 2.576444 1_455
K3 O8 3.004753 1_555
K3 O9 3.004753 1_454
K3 O10 3.004753 1_554
K3 O11 3.004753 1_455
Ca0 O14 2.419857 1_554
Ca0 O15 2.419857 1_554
Ca0 O12 2.419857 1_555
Ca0 O13 2.419857 1_555
Ca0 O16 2.947046 1_555
Ca0 O19 2.947046 1_554
Ca0 O17 2.947046 1_554
Ca0 O18 2.947046 1_555
Ca1 O2 2.419857 1_455
Ca1 O3 2.419857 1_545
Ca1 O1 2.419857 1_445
Ca1 O0 2.419857 1_555
Ca1 O6 2.947046 1_445
Ca1 O4 2.947046 1_555
Ca1 O5 2.947046 1_545
Ca1 O7 2.947046 1_455
Ca2 O10 2.418387 1_544
Ca2 O9 2.418387 1_454
Ca2 O8 2.418387 1_555
Ca2 O11 2.418387 1_445
Ca3 O21 2.418387 1_555
Ca3 O20 2.418387 1_555
Ca3 O23 2.418387 1_555
Ca3 O22 2.418387 1_555
Ce0 O19 2.226919 1_555
Ce0 O7 2.226919 1_565
Ce0 O23 2.267341 1_555
Ce0 O11 2.267341 1_556
Ce0 O15 2.276794 1_555
Ce0 O3 2.276794 1_655
Ce1 O17 2.226919 1_555
Ce1 O5 2.226919 1_545
Ce1 O8 2.267341 1_556
Ce1 O20 2.267341 1_555
Ce1 O14 2.276794 1_555
Ce1 O2 2.276794 1_455
Ce2 O16 2.226919 1_555
Ce2 O4 2.226919 1_565
Ce2 O10 2.267341 1_554
Ce2 O22 2.267341 1_555
Ce2 O1 2.276794 1_455
Ce2 O13 2.276794 1_555
Ce3 O6 2.226919 1_545
Ce3 O18 2.226919 1_555
Ce3 O9 2.267341 1_554
Ce3 O21 2.267341 1_555
Ce3 O12 2.276794 1_555
Ce3 O0 2.276794 1_655
Nb0 O4 2.008239 1_555
Nb0 O16 2.008239 1_555
Nb0 O0 2.036071 1_555
Nb0 O12 2.036071 1_555
Nb0 O8 2.040444 1_555
Nb0 O20 2.040444 1_555
Nb1 O6 2.008239 1_555
Nb1 O18 2.008239 1_555
Nb1 O13 2.036071 1_555
Nb1 O1 2.036071 1_555
Nb1 O11 2.040444 1_555
Nb1 O23 2.040444 1_555
Nb2 O7 2.008239 1_555
Nb2 O19 2.008239 1_555
Nb2 O2 2.036071 1_555
Nb2 O14 2.036071 1_555
Nb2 O21 2.040444 1_555
Nb2 O9 2.040444 1_555
Nb3 O17 2.008239 1_555
Nb3 O5 2.008239 1_555
Nb3 O3 2.036071 1_555
Nb3 O15 2.036071 1_555
Nb3 O22 2.040444 1_555
Nb3 O10 2.040444 1_555
