# generated using pymatgen
data_TaCr3(CuS4)2
_symmetry_space_group_name_H-M   'P 1'
_cell_length_a   6.97705019
_cell_length_b   6.97705019
_cell_length_c   6.98017269
_cell_angle_alpha   61.19790034
_cell_angle_beta   61.19790034
_cell_angle_gamma   61.44879862
_symmetry_Int_Tables_number   1
_chemical_formula_structural   TaCr3(CuS4)2
_chemical_formula_sum   'Ta1 Cr3 Cu2 S8'
_cell_volume   247.18667592
_cell_formula_units_Z   1
loop_
 _symmetry_equiv_pos_site_id
 _symmetry_equiv_pos_as_xyz
  1  'x, y, z'
loop_
 _atom_site_type_symbol
 _atom_site_label
 _atom_site_symmetry_multiplicity
 _atom_site_fract_x
 _atom_site_fract_y
 _atom_site_fract_z
 _atom_site_occupancy
  Ta  Ta0  1  0.35845300  0.64154700  0.00000000  1
  Cr  Cr0  1  0.88397300  0.62080100  0.00110500  1
  Cr  Cr1  1  0.37919900  0.11602700  0.99889500  1
  Cr  Cr2  1  0.38006600  0.61993400  0.50000000  1
  Cu  Cu0  1  0.73964600  0.00677600  0.37234000  1
  Cu  Cu1  1  0.99322400  0.26035400  0.62766000  1
  S  S0  1  0.13083700  0.86326800  0.74644900  1
  S  S1  1  0.13684700  0.36962400  0.23177200  1
  S  S2  1  0.60130500  0.37659300  0.75878400  1
  S  S3  1  0.13743700  0.38150300  0.76089200  1
  S  S4  1  0.62340700  0.39869500  0.24121600  1
  S  S5  1  0.61849700  0.86256300  0.23910800  1
  S  S6  1  0.13673200  0.86916300  0.25355100  1
  S  S7  1  0.63037600  0.86315300  0.76822800  1
loop_
_geom_bond_atom_site_label_1
_geom_bond_atom_site_label_2
_geom_bond_distance
_geom_bond_site_symmetry_2
Cr0 S3 2.396728 1_654
Cr0 S4 2.402052 1_555
Cr0 S5 2.405119 1_555
Cr0 S1 2.416449 1_655
Cr0 S7 2.427993 1_554
Cr0 S0 2.434284 1_654
Cr1 S5 2.396728 1_546
Cr1 S2 2.402052 1_555
Cr1 S3 2.405119 1_555
Cr1 S7 2.416449 1_545
Cr1 S1 2.427993 1_556
Cr1 S6 2.434284 1_546
Cr2 S3 2.398271 1_555
Cr2 S5 2.398271 1_555
Cr2 S2 2.398880 1_555
Cr2 S4 2.398880 1_555
Cr2 S0 2.444427 1_555
Cr2 S6 2.444427 1_555
Cu0 S5 2.250288 1_545
Cu0 S4 2.270783 1_555
Cu0 S7 2.292077 1_545
Cu0 S6 2.301278 1_645
Cu1 S3 2.250288 1_655
Cu1 S2 2.270783 1_555
Cu1 S1 2.292077 1_655
Cu1 S0 2.301278 1_645
S0 Ta0 2.401917 1_556
S1 Ta0 2.458365 1_555
S2 Ta0 2.525732 1_556
S4 Ta0 2.525732 1_555
S6 Ta0 2.401917 1_555
S7 Ta0 2.458365 1_556
