# generated using pymatgen
data_Na6TeMo6(H22O23)2
_symmetry_space_group_name_H-M   'P 1'
_cell_length_a   10.35202600
_cell_length_b   10.71436951
_cell_length_c   11.13968634
_cell_angle_alpha   90.08191126
_cell_angle_beta   114.76486703
_cell_angle_gamma   105.29532995
_symmetry_Int_Tables_number   1
_chemical_formula_structural   Na6TeMo6(H22O23)2
_chemical_formula_sum   'Na6 Te1 Mo6 H44 O46'
_cell_volume   1073.32051393
_cell_formula_units_Z   1
loop_
 _symmetry_equiv_pos_site_id
 _symmetry_equiv_pos_as_xyz
  1  'x, y, z'
loop_
 _atom_site_type_symbol
 _atom_site_label
 _atom_site_symmetry_multiplicity
 _atom_site_fract_x
 _atom_site_fract_y
 _atom_site_fract_z
 _atom_site_occupancy
  Na  Na0  1  0.56339500  0.23795800  0.84187000  1
  Na  Na1  1  0.43660500  0.76204200  0.15813000  1
  Na  Na2  1  0.39205400  0.84095900  0.43277500  1
  Na  Na3  1  0.60794600  0.15904100  0.56722500  1
  Na  Na4  1  0.79954000  0.41371200  0.44989200  1
  Na  Na5  1  0.20046000  0.58628800  0.55010800  1
  Te  Te0  1  0.00000000  0.00000000  0.00000000  1
  Mo  Mo0  1  0.79650500  0.75758700  0.09090500  1
  Mo  Mo1  1  0.20349500  0.24241300  0.90909500  1
  Mo  Mo2  1  0.05079300  0.94631900  0.72985100  1
  Mo  Mo3  1  0.94920700  0.05368100  0.27014900  1
  Mo  Mo4  1  0.84398400  0.70345100  0.81940900  1
  Mo  Mo5  1  0.15601600  0.29654900  0.18059100  1
  H  H0  1  0.66401300  0.00316300  0.94724200  1
  H  H1  1  0.33598700  0.99683700  0.05275800  1
  H  H2  1  0.49000500  0.95840600  0.89679600  1
  H  H3  1  0.50999500  0.04159400  0.10320400  1
  H  H4  1  0.18028700  0.71492000  0.89694600  1
  H  H5  1  0.81971300  0.28508000  0.10305400  1
  H  H6  1  0.21104600  0.57966500  0.92920200  1
  H  H7  1  0.78895400  0.42033500  0.07079800  1
  H  H8  1  0.41204700  0.40808000  0.70383500  1
  H  H9  1  0.58795300  0.59192000  0.29616500  1
  H  H10  1  0.55336500  0.50864300  0.81066200  1
  H  H11  1  0.44663500  0.49135700  0.18933800  1
  H  H12  1  0.81994200  0.36514500  0.81779000  1
  H  H13  1  0.18005800  0.63485500  0.18221000  1
  H  H14  1  0.85932900  0.23462800  0.85054200  1
  H  H15  1  0.14067100  0.76537200  0.14945800  1
  H  H16  1  0.69007500  0.84679400  0.46205200  1
  H  H17  1  0.30992500  0.15320600  0.53794800  1
  H  H18  1  0.33775800  0.06380900  0.64608100  1
  H  H19  1  0.66224200  0.93619100  0.35391900  1
  H  H20  1  0.69292000  0.93369600  0.69031500  1
  H  H21  1  0.30708000  0.06630400  0.30968500  1
  H  H22  1  0.57142900  0.95838100  0.72422300  1
  H  H23  1  0.42857100  0.04161900  0.27577700  1
  H  H24  1  0.90260400  0.17668500  0.59636100  1
  H  H25  1  0.09739600  0.82331500  0.40363900  1
  H  H26  1  0.81039800  0.14604600  0.44046100  1
  H  H27  1  0.18960200  0.85395400  0.55953900  1
  H  H28  1  0.49939900  0.36403500  0.44285800  1
  H  H29  1  0.50060100  0.63596500  0.55714200  1
  H  H30  1  0.58972000  0.42129200  0.59111000  1
  H  H31  1  0.41028000  0.57870800  0.40889000  1
  H  H32  1  0.04713100  0.47285700  0.71445900  1
  H  H33  1  0.95286900  0.52714300  0.28554100  1
  H  H34  1  0.01263100  0.60629500  0.68738300  1
  H  H35  1  0.98736900  0.39370500  0.31261700  1
  H  H36  1  0.50391100  0.28548800  0.19887600  1
  H  H37  1  0.49608900  0.71451100  0.80112400  1
  H  H38  1  0.64840000  0.31576700  0.17456800  1
  H  H39  1  0.35160000  0.68423300  0.82543200  1
  H  H40  1  0.84778600  0.70971900  0.39954000  1
  H  H41  1  0.15221400  0.29028100  0.60046000  1
  H  H42  1  0.77267900  0.66150500  0.49241300  1
  H  H43  1  0.22732100  0.33849500  0.50758700  1
  O  O0  1  0.06002800  0.13181000  0.73782800  1
  O  O1  1  0.93997200  0.86819000  0.26217200  1
  O  O2  1  0.70570600  0.71289000  0.89484400  1
  O  O3  1  0.29429400  0.28711000  0.10515600  1
  O  O4  1  0.83502900  0.61132500  0.14131800  1
  O  O5  1  0.16497100  0.38867500  0.85868200  1
  O  O6  1  0.63088900  0.75655500  0.09678300  1
  O  O7  1  0.36911100  0.24344500  0.90321700  1
  O  O8  1  0.83072000  0.97369500  0.04491100  1
  O  O9  1  0.16928000  0.02630500  0.95508900  1
  O  O10  1  0.01040100  0.18169900  0.96673800  1
  O  O11  1  0.98959900  0.81830100  0.03326200  1
  O  O12  1  0.87773600  0.92670100  0.81271800  1
  O  O13  1  0.12226400  0.07329900  0.18728200  1
  O  O14  1  0.02940300  0.77323500  0.79743100  1
  O  O15  1  0.97059700  0.22676500  0.20256900  1
  O  O16  1  0.90774100  0.89587200  0.56970200  1
  O  O17  1  0.09225900  0.10412800  0.43029800  1
  O  O18  1  0.21591400  0.95319300  0.71620600  1
  O  O19  1  0.78408600  0.04680700  0.28379400  1
  O  O20  1  0.87656700  0.55545700  0.86593800  1
  O  O21  1  0.12343300  0.44454300  0.13406200  1
  O  O22  1  0.71639400  0.67282500  0.65030100  1
  O  O23  1  0.28360600  0.32717500  0.34969900  1
  O  O24  1  0.42998400  0.98007400  0.11594000  1
  O  O25  1  0.57001600  0.01992600  0.88406000  1
  O  O26  1  0.73926200  0.32713000  0.06318600  1
  O  O27  1  0.26073800  0.67287000  0.93681400  1
  O  O28  1  0.52193200  0.43006500  0.74912000  1
  O  O29  1  0.47806800  0.56993500  0.25088000  1
  O  O30  1  0.77949900  0.27060700  0.79088200  1
  O  O31  1  0.22050100  0.72939300  0.20911800  1
  O  O32  1  0.39167900  0.13401500  0.61314500  1
  O  O33  1  0.60832100  0.86598500  0.38685500  1
  O  O34  1  0.59316500  0.94623100  0.64758100  1
  O  O35  1  0.40683500  0.05376900  0.35241900  1
  O  O36  1  0.17596500  0.80088600  0.48060500  1
  O  O37  1  0.82403500  0.19911400  0.51939500  1
  O  O38  1  0.40210200  0.62132000  0.48228600  1
  O  O39  1  0.59789800  0.37868000  0.51771400  1
  O  O40  1  0.98677400  0.47270700  0.35656200  1
  O  O41  1  0.01322600  0.52729300  0.64343800  1
  O  O42  1  0.61266300  0.30708500  0.24465100  1
  O  O43  1  0.38733700  0.69291500  0.75534900  1
  O  O44  1  0.77940000  0.63427400  0.41144000  1
  O  O45  1  0.22060000  0.36572600  0.58856000  1
loop_
_geom_bond_atom_site_label_1
_geom_bond_atom_site_label_2
_geom_bond_distance
_geom_bond_site_symmetry_2
Na0 O28 2.364111 1_555
Na0 O26 2.370798 1_556
Na0 O7 2.393595 1_555
Na0 O25 2.396551 1_555
Na0 O32 2.458657 1_555
Na0 O30 2.470203 1_555
Na1 O29 2.364111 1_555
Na1 O27 2.370798 1_554
Na1 O6 2.393595 1_555
Na1 O24 2.396551 1_555
Na1 O33 2.458657 1_555
Na1 O31 2.470203 1_555
Na2 O34 2.431483 1_555
Na2 O38 2.436759 1_555
Na2 O31 2.440236 1_555
Na2 O35 2.441347 1_565
Na2 O36 2.442272 1_555
Na2 O33 2.447230 1_555
Na3 O35 2.431483 1_555
Na3 O39 2.436759 1_555
Na3 O30 2.440236 1_555
Na3 O34 2.441347 1_545
Na3 O37 2.442272 1_555
Na3 O32 2.447230 1_555
Na4 O42 2.322903 1_555
Na4 O41 2.366287 1_655
Na4 O39 2.444921 1_555
Na4 O44 2.449407 1_555
Na4 O37 2.469547 1_555
Na4 O40 2.506198 1_555
Na5 O43 2.322903 1_555
Na5 O40 2.366287 1_455
Na5 O38 2.444921 1_555
Na5 O45 2.449407 1_555
Na5 O36 2.469547 1_555
Na5 O41 2.506198 1_555
Mo0 O6 1.740069 1_555
Mo0 O4 1.753524 1_555
Mo0 O2 1.980549 1_554
Mo0 O1 1.985219 1_555
Mo0 O11 2.285095 1_555
Mo0 O8 2.339245 1_555
Mo1 O7 1.740069 1_555
Mo1 O5 1.753524 1_555
Mo1 O3 1.980549 1_556
Mo1 O0 1.985219 1_555
Mo1 O10 2.285095 1_555
Mo1 O9 2.339245 1_555
Mo2 O16 1.740525 1_455
Mo2 O18 1.761150 1_555
Mo2 O0 1.964436 1_565
Mo2 O14 1.995467 1_555
Mo2 O12 2.300682 1_455
Mo2 O9 2.322783 1_565
Mo3 O17 1.740525 1_655
Mo3 O19 1.761150 1_555
Mo3 O1 1.964436 1_545
Mo3 O15 1.995467 1_555
Mo3 O13 2.300682 1_655
Mo3 O8 2.322783 1_545
Mo4 O20 1.742070 1_555
Mo4 O22 1.756695 1_555
Mo4 O2 1.961974 1_555
Mo4 O14 1.985038 1_655
Mo4 O12 2.330367 1_555
Mo4 O11 2.337970 1_556
Mo5 O21 1.742070 1_555
Mo5 O23 1.756695 1_555
Mo5 O3 1.961974 1_555
Mo5 O15 1.985038 1_455
Mo5 O13 2.330367 1_555
Mo5 O10 2.337970 1_554
H0 O25 0.996628 1_555
H0 O8 1.725416 1_546
H1 O24 0.996628 1_555
H1 O9 1.725416 1_564
H2 O25 0.975358 1_565
H3 O24 0.975358 1_545
H4 O27 0.991207 1_555
H5 O26 0.991207 1_555
H6 O27 0.980441 1_555
H7 O26 0.980441 1_555
H8 O28 0.990697 1_555
H9 O29 0.990697 1_555
H10 O28 0.975507 1_555
H11 O29 0.975507 1_555
H12 O30 0.980502 1_555
H13 O31 0.980502 1_555
H14 O30 0.990911 1_555
H14 O10 1.793574 1_655
H15 O31 0.990911 1_555
H15 O11 1.793574 1_455
H16 O33 0.979077 1_555
H17 O32 0.979077 1_555
H18 O32 0.981254 1_555
H19 O33 0.981254 1_555
H20 O34 0.986183 1_555
H21 O35 0.986183 1_555
H22 O34 0.986194 1_555
H23 O35 0.986194 1_555
H24 O37 0.986844 1_555
H25 O36 0.986844 1_555
H26 O37 0.984184 1_555
H27 O36 0.984184 1_555
H28 O39 0.981093 1_555
H29 O38 0.981093 1_555
H30 O39 0.980517 1_555
H31 O38 0.980517 1_555
H32 O41 0.982839 1_555
H33 O40 0.982839 1_555
H34 O41 0.979930 1_555
H35 O40 0.979930 1_555
H36 O42 0.980952 1_555
H37 O43 0.980953 1_555
H38 O42 0.989463 1_555
H39 O43 0.989463 1_555
H40 O44 0.974258 1_555
H41 O45 0.974258 1_555
H42 O44 0.982920 1_555
H43 O45 0.982920 1_555
O8 Te0 1.968485 1_665
O9 Te0 1.968485 1_556
O10 Te0 1.965648 1_556
O11 Te0 1.965648 1_665
O12 Te0 1.957009 1_666
O13 Te0 1.957009 1_555
