# generated using pymatgen
data_Dy2Fe15Co2CN
_symmetry_space_group_name_H-M   'P 1'
_cell_length_a   6.43988873
_cell_length_b   6.45430520
_cell_length_c   6.49442375
_cell_angle_alpha   83.32349122
_cell_angle_beta   83.12537041
_cell_angle_gamma   82.62437165
_symmetry_Int_Tables_number   1
_chemical_formula_structural   Dy2Fe15Co2CN
_chemical_formula_sum   'Dy2 Fe15 Co2 C1 N1'
_cell_volume   264.38332455
_cell_formula_units_Z   1
loop_
 _symmetry_equiv_pos_site_id
 _symmetry_equiv_pos_as_xyz
  1  'x, y, z'
loop_
 _atom_site_type_symbol
 _atom_site_label
 _atom_site_symmetry_multiplicity
 _atom_site_fract_x
 _atom_site_fract_y
 _atom_site_fract_z
 _atom_site_occupancy
  Dy  Dy0  1  0.66103900  0.65144400  0.65865900  1
  Dy  Dy1  1  0.33896100  0.34855600  0.34134100  1
  Fe  Fe0  1  0.34518600  0.85203000  0.34080000  1
  Fe  Fe1  1  0.85082200  0.34395400  0.34100700  1
  Fe  Fe2  1  0.34762900  0.34589300  0.85658400  1
  Fe  Fe3  1  0.65481400  0.14797000  0.65920000  1
  Fe  Fe4  1  0.14917800  0.65604600  0.65899300  1
  Fe  Fe5  1  0.65237100  0.65410700  0.14341600  1
  Fe  Fe6  1  0.00000000  0.50000000  0.00000000  1
  Fe  Fe7  1  0.50000000  0.00000000  0.00000000  1
  Fe  Fe8  1  0.00000000  0.00000000  0.50000000  1
  Fe  Fe9  1  0.71340000  0.00082700  0.28503700  1
  Fe  Fe10  1  0.00244600  0.28139200  0.71844800  1
  Fe  Fe11  1  0.28707700  0.71427400  0.99767000  1
  Fe  Fe12  1  0.99755400  0.71860800  0.28155200  1
  Fe  Fe13  1  0.71292300  0.28572600  0.00233000  1
  Fe  Fe14  1  0.28660000  0.99917300  0.71496300  1
  Co  Co0  1  0.90476200  0.90559500  0.90784500  1
  Co  Co1  1  0.09523800  0.09440500  0.09215500  1
  C  C0  1  0.50000000  0.00000000  0.50000000  1
  N  N0  1  0.00000000  0.50000000  0.50000000  1
loop_
_geom_bond_atom_site_label_1
_geom_bond_atom_site_label_2
_geom_bond_distance
_geom_bond_site_symmetry_2
Dy0 N0 2.435162 1_655
Dy0 Fe13 3.068543 1_556
Dy0 Fe2 3.070275 1_555
Dy0 Fe11 3.082072 1_555
Dy0 Fe5 3.144034 1_556
Dy0 Fe6 3.277406 1_656
Dy0 Fe7 3.325828 1_566
Dy0 Fe8 3.327326 1_665
Dy0 Fe5 3.351359 1_555
Dy1 N0 2.435162 1_555
Dy1 Fe11 3.068543 1_554
Dy1 Fe5 3.070275 1_555
Dy1 Fe13 3.082072 1_555
Dy1 Fe2 3.144034 1_554
Dy1 Fe6 3.277406 1_555
Dy1 Fe7 3.325828 1_555
Dy1 Fe8 3.327326 1_555
Dy1 Fe2 3.351359 1_555
Fe0 Fe7 2.455500 1_565
Fe0 Fe8 2.461086 1_565
Fe0 Fe5 2.512656 1_555
Fe0 Fe11 2.577257 1_554
Fe1 N0 1.931639 1_655
Fe1 Fe6 2.462193 1_655
Fe1 Fe8 2.464617 1_655
Fe1 Fe5 2.534901 1_555
Fe1 Fe13 2.552105 1_555
Fe2 Fe7 2.446889 1_556
Fe2 Fe6 2.452170 1_556
Fe2 Fe3 2.512656 1_555
Fe2 Fe4 2.534901 1_555
Fe3 Fe7 2.455500 1_556
Fe3 Fe8 2.461086 1_655
Fe4 N0 1.931639 1_555
Fe4 Fe6 2.462193 1_556
Fe4 Fe8 2.464617 1_565
Fe5 Fe7 2.446889 1_565
Fe5 Fe6 2.452170 1_655
Fe5 Fe9 2.607539 1_565
Fe7 Fe9 2.434874 1_555
Fe8 Fe9 2.442969 1_455
Fe10 N0 1.880943 1_555
Fe10 Fe6 2.433486 1_556
Fe10 Fe8 2.433786 1_555
Fe10 Fe13 2.460053 1_456
Fe10 Fe2 2.592574 1_555
Fe11 Fe7 2.437633 1_566
Fe11 Fe14 2.442768 1_555
Fe11 Fe6 2.444510 1_556
Fe11 Fe12 2.460053 1_456
Fe11 Fe4 2.552105 1_555
Fe11 Fe5 2.606493 1_556
Fe11 Fe2 2.613006 1_555
Fe12 N0 1.880943 1_655
Fe12 Fe6 2.433486 1_655
Fe12 Fe8 2.433786 1_665
Fe12 Fe5 2.592574 1_555
Fe13 Fe7 2.437633 1_555
Fe13 Fe9 2.442768 1_555
Fe13 Fe6 2.444510 1_655
Fe13 Fe3 2.577257 1_554
Fe13 Fe2 2.606493 1_554
Fe13 Fe5 2.613006 1_555
Fe14 Fe7 2.434874 1_566
Fe14 Fe8 2.442969 1_565
Fe14 Fe2 2.607539 1_565
Co0 Co1 2.344566 1_666
Co0 Fe7 2.612947 1_566
Co0 Fe6 2.626547 1_656
Co0 Fe4 2.651244 1_655
Co0 Fe3 2.652189 1_565
Co0 Fe8 2.663627 1_665
Co0 Fe5 2.668665 1_556
Co0 Fe12 2.680476 1_556
Co0 Fe10 2.702697 1_665
Co0 Fe13 2.704209 1_566
Co0 Fe11 2.706044 1_655
Co0 Fe9 2.707433 1_566
Co0 Fe14 2.729210 1_655
Co0 Dy0 3.107994 1_555
Co1 Fe7 2.612947 1_555
Co1 Fe6 2.626547 1_555
Co1 Fe1 2.651244 1_455
Co1 Fe0 2.652189 1_545
Co1 Fe8 2.663627 1_555
Co1 Fe2 2.668665 1_554
Co1 Fe10 2.680476 1_554
Co1 Fe12 2.702697 1_445
Co1 Fe11 2.704209 1_544
Co1 Fe13 2.706044 1_455
Co1 Fe14 2.707433 1_544
Co1 Fe9 2.729210 1_455
Co1 Dy1 3.107994 1_555
C0 Fe14 1.838068 1_545
C0 Fe9 1.838068 1_555
C0 Fe3 1.922472 1_555
C0 Fe0 1.922472 1_545
C0 Dy1 2.513189 1_555
C0 Dy0 2.513189 1_545
