# generated using pymatgen
data_AsH4CNF8
_symmetry_space_group_name_H-M   'P 1'
_cell_length_a   7.81841000
_cell_length_b   9.04146246
_cell_length_c   9.73883794
_cell_angle_alpha   96.71514278
_cell_angle_beta   92.87929152
_cell_angle_gamma   91.06212361
_symmetry_Int_Tables_number   1
_chemical_formula_structural   AsH4CNF8
_chemical_formula_sum   'As4 H16 C4 N4 F32'
_cell_volume   682.64431416
_cell_formula_units_Z   4
loop_
 _symmetry_equiv_pos_site_id
 _symmetry_equiv_pos_as_xyz
  1  'x, y, z'
loop_
 _atom_site_type_symbol
 _atom_site_label
 _atom_site_symmetry_multiplicity
 _atom_site_fract_x
 _atom_site_fract_y
 _atom_site_fract_z
 _atom_site_occupancy
  As  As0  1  0.25581600  0.37042800  0.59873200  1
  As  As1  1  0.74418400  0.62957200  0.40126800  1
  As  As2  1  0.22921100  0.92810300  0.23882000  1
  As  As3  1  0.77078900  0.07189700  0.76118000  1
  H  H0  1  0.73418700  0.02936800  0.17424400  1
  H  H1  1  0.26581300  0.97063200  0.82575600  1
  H  H2  1  0.74819400  0.24306500  0.43507000  1
  H  H3  1  0.25180600  0.75693500  0.56493000  1
  H  H4  1  0.85688100  0.08214200  0.41111900  1
  H  H5  1  0.14311900  0.91785800  0.58888100  1
  H  H6  1  0.64132900  0.07613900  0.41327200  1
  H  H7  1  0.35867100  0.92386100  0.58672800  1
  H  H8  1  0.10372700  0.32774100  0.02862600  1
  H  H9  1  0.89627300  0.67225900  0.97137400  1
  H  H10  1  0.34391800  0.48795300  0.25090100  1
  H  H11  1  0.65608200  0.51204700  0.74909900  1
  H  H12  1  0.24024200  0.32234900  0.25526200  1
  H  H13  1  0.75975800  0.67765100  0.74473800  1
  H  H14  1  0.12823200  0.48111700  0.26014700  1
  H  H15  1  0.87176800  0.51888300  0.73985300  1
  C  C0  1  0.73269800  0.14124900  0.23160100  1
  C  C1  1  0.26730200  0.85875100  0.76839900  1
  C  C2  1  0.21235100  0.40361700  0.06444300  1
  C  C3  1  0.78764900  0.59638300  0.93555700  1
  N  N0  1  0.74572200  0.13498500  0.38408300  1
  N  N1  1  0.25427800  0.86501500  0.61591700  1
  N  N2  1  0.23259600  0.42569500  0.21899800  1
  N  N3  1  0.76740400  0.57430500  0.78100200  1
  F  F0  1  0.86773000  0.22612300  0.20108700  1
  F  F1  1  0.13227000  0.77387700  0.79891300  1
  F  F2  1  0.58602900  0.21065200  0.20242600  1
  F  F3  1  0.41397100  0.78934800  0.79757400  1
  F  F4  1  0.36038500  0.34830100  0.01688700  1
  F  F5  1  0.63961500  0.65169900  0.98311300  1
  F  F6  1  0.18843800  0.54016900  0.02219600  1
  F  F7  1  0.81156200  0.45983100  0.97780400  1
  F  F8  1  0.09867100  0.42980700  0.71824300  1
  F  F9  1  0.90132900  0.57019300  0.28175700  1
  F  F10  1  0.09212700  0.29640900  0.47607300  1
  F  F11  1  0.90787300  0.70359100  0.52392700  1
  F  F12  1  0.41025400  0.31658600  0.47676600  1
  F  F13  1  0.58974600  0.68341400  0.52323400  1
  F  F14  1  0.42021700  0.45016300  0.71885800  1
  F  F15  1  0.57978300  0.54983700  0.28114200  1
  F  F16  1  0.27138100  0.19896800  0.66730500  1
  F  F17  1  0.72861900  0.80103200  0.33269500  1
  F  F18  1  0.23878500  0.54461300  0.52838300  1
  F  F19  1  0.76121500  0.45538700  0.47161700  1
  F  F20  1  0.38351800  0.88668900  0.11627000  1
  F  F21  1  0.61648200  0.11331100  0.88373000  1
  F  F22  1  0.39409600  0.99180200  0.36781800  1
  F  F23  1  0.60590400  0.00819800  0.63218200  1
  F  F24  1  0.07528400  0.97417300  0.36658300  1
  F  F25  1  0.92471600  0.02582700  0.63341700  1
  F  F26  1  0.06069800  0.86786000  0.11688700  1
  F  F27  1  0.93930200  0.13214000  0.88311300  1
  F  F28  1  0.21495300  0.11257600  0.19200200  1
  F  F29  1  0.78504700  0.88742400  0.80799800  1
  F  F30  1  0.24305900  0.74880900  0.29454000  1
  F  F31  1  0.75694100  0.25119100  0.70546000  1
loop_
_geom_bond_atom_site_label_1
_geom_bond_atom_site_label_2
_geom_bond_distance
_geom_bond_site_symmetry_2
As0 F16 1.762106 1_555
As0 F12 1.771011 1_555
As0 F10 1.772117 1_555
As0 F14 1.777030 1_555
As0 F8 1.781682 1_555
As0 F18 1.793971 1_555
As1 F17 1.762106 1_555
As1 F13 1.771011 1_555
As1 F11 1.772117 1_555
As1 F15 1.777030 1_555
As1 F9 1.781682 1_555
As1 F19 1.793971 1_555
As2 F20 1.754141 1_555
As2 F26 1.762831 1_555
As2 F30 1.772123 1_555
As2 F28 1.783779 1_565
As2 F22 1.792317 1_555
As2 F24 1.793833 1_555
As3 F21 1.754141 1_555
As3 F27 1.762831 1_555
As3 F31 1.772123 1_555
As3 F29 1.783779 1_545
As3 F23 1.792317 1_555
As3 F25 1.793833 1_555
H2 N0 1.042458 1_555
H3 N1 1.042458 1_555
H4 N0 1.036694 1_555
H5 N1 1.036694 1_555
H6 N0 1.035679 1_555
H7 N1 1.035679 1_555
H10 N2 1.041484 1_555
H11 N3 1.041484 1_555
H12 N2 1.038523 1_555
H13 N3 1.038523 1_555
H14 N2 1.038523 1_555
H15 N3 1.038523 1_555
C0 H0 1.097439 1_555
C0 F2 1.350961 1_555
C0 F0 1.358891 1_555
C0 N0 1.491136 1_555
C1 H1 1.097439 1_555
C1 F3 1.350961 1_555
C1 F1 1.358891 1_555
C1 N1 1.491136 1_555
C2 H8 1.098289 1_555
C2 F4 1.351048 1_555
C2 F6 1.359475 1_555
C2 N2 1.495029 1_555
C3 H9 1.098289 1_555
C3 F5 1.351048 1_555
C3 F7 1.359475 1_555
C3 N3 1.495029 1_555
