# generated using pymatgen
data_Li9Mn2Co5O16
_symmetry_space_group_name_H-M   'P 1'
_cell_length_a   2.90372300
_cell_length_b   9.85214400
_cell_length_c   10.22937445
_cell_angle_alpha   80.33517159
_cell_angle_beta   90.00000000
_cell_angle_gamma   90.00000000
_symmetry_Int_Tables_number   1
_chemical_formula_structural   Li9Mn2Co5O16
_chemical_formula_sum   'Li9 Mn2 Co5 O16'
_cell_volume   288.48735575
_cell_formula_units_Z   1
loop_
 _symmetry_equiv_pos_site_id
 _symmetry_equiv_pos_as_xyz
  1  'x, y, z'
loop_
 _atom_site_type_symbol
 _atom_site_label
 _atom_site_symmetry_multiplicity
 _atom_site_fract_x
 _atom_site_fract_y
 _atom_site_fract_z
 _atom_site_occupancy
  Li  Li0  1  0.50000000  0.26958400  0.86755300  1
  Li  Li1  1  0.50000000  0.73685600  0.63489900  1
  Li  Li2  1  0.50000000  0.24914400  0.37381800  1
  Li  Li3  1  0.00000000  0.25683300  0.62123900  1
  Li  Li4  1  0.00000000  0.74490800  0.37988900  1
  Li  Li5  1  0.00000000  0.26338300  0.12453200  1
  Li  Li6  1  0.50000000  0.74226500  0.12612800  1
  Li  Li7  1  0.00000000  0.74086700  0.87503400  1
  Li  Li8  1  0.00000000  0.49741200  0.74955300  1
  Mn  Mn0  1  0.00000000  0.99895300  0.00210700  1
  Mn  Mn1  1  0.50000000  0.49609200  0.50799100  1
  Co  Co0  1  0.00000000  0.00020800  0.49825000  1
  Co  Co1  1  0.00000000  0.49906000  0.24524300  1
  Co  Co2  1  0.50000000  0.00103800  0.25609700  1
  Co  Co3  1  0.50000000  0.50854800  0.97940100  1
  Co  Co4  1  0.50000000  0.00014400  0.74747300  1
  O  O0  1  0.50000000  0.11107600  0.05226200  1
  O  O1  1  0.50000000  0.62472100  0.82253000  1
  O  O2  1  0.50000000  0.11434500  0.55849200  1
  O  O3  1  0.00000000  0.10193200  0.81840600  1
  O  O4  1  0.00000000  0.61007400  0.55556900  1
  O  O5  1  0.00000000  0.11795400  0.31059200  1
  O  O6  1  0.50000000  0.60963500  0.31978200  1
  O  O7  1  0.00000000  0.61340900  0.06470900  1
  O  O8  1  0.50000000  0.38208400  0.67109300  1
  O  O9  1  0.50000000  0.88097300  0.44003500  1
  O  O10  1  0.50000000  0.38501300  0.19244300  1
  O  O11  1  0.00000000  0.39006600  0.44187000  1
  O  O12  1  0.00000000  0.89068600  0.17845100  1
  O  O13  1  0.00000000  0.38357400  0.94331700  1
  O  O14  1  0.50000000  0.88856600  0.94923100  1
  O  O15  1  0.00000000  0.89059800  0.69200800  1
loop_
_geom_bond_atom_site_label_1
_geom_bond_atom_site_label_2
_geom_bond_distance
_geom_bond_site_symmetry_2
Li0 O13 2.064469 1_555
Li0 O13 2.064469 1_655
Li0 O8 2.125868 1_555
Li0 O0 2.240099 1_556
Li0 O3 2.316828 1_655
Li0 O3 2.316828 1_555
Li1 O1 2.047544 1_555
Li1 O4 2.160314 1_555
Li1 O4 2.160314 1_655
Li1 O9 2.244791 1_555
Li1 O15 2.245121 1_655
Li1 O15 2.245121 1_555
Li2 O10 2.097684 1_555
Li2 O5 2.115999 1_655
Li2 O5 2.115999 1_555
Li2 O2 2.118974 1_555
Li2 O11 2.201051 1_655
Li2 O11 2.201051 1_555
Li3 O8 2.025342 1_555
Li3 O8 2.025342 1_455
Li3 O11 2.069040 1_555
Li3 O2 2.189320 1_555
Li3 O2 2.189320 1_455
Li3 O3 2.315896 1_555
Li4 O4 2.047594 1_555
Li4 O6 2.130084 1_455
Li4 O6 2.130084 1_555
Li4 O9 2.135509 1_455
Li4 O9 2.135509 1_555
Li4 O12 2.305441 1_555
Li5 O13 2.025196 1_554
Li5 O10 2.075082 1_455
Li5 O10 2.075082 1_555
Li5 O5 2.181675 1_555
Li5 O0 2.297512 1_455
Li5 O0 2.297512 1_555
Li6 O7 2.093346 1_555
Li6 O7 2.093346 1_655
Li6 O14 2.115718 1_554
Li6 O6 2.182316 1_555
Li6 O12 2.189836 1_555
Li6 O12 2.189836 1_655
Li7 O1 1.977905 1_455
Li7 O1 1.977905 1_555
Li7 O7 2.126825 1_556
Li7 O15 2.180382 1_555
Li7 O14 2.274263 1_555
Li7 O14 2.274263 1_455
Li8 O8 2.085492 1_555
Li8 O8 2.085492 1_455
Li8 O4 2.104771 1_555
Li8 O13 2.107158 1_555
Li8 O1 2.133717 1_455
Li8 O1 2.133717 1_555
Mn0 O12 1.935386 1_555
Mn0 O14 1.944412 1_454
Mn0 O14 1.944412 1_554
Mn0 O0 1.944654 1_565
Mn0 O0 1.944654 1_465
Mn0 O3 1.979996 1_564
Mn1 O8 1.848258 1_555
Mn1 O4 1.946622 1_555
Mn1 O4 1.946622 1_655
Mn1 O11 1.973264 1_655
Mn1 O11 1.973264 1_555
Mn1 O6 2.057875 1_555
Co0 O2 1.996199 1_555
Co0 O2 1.996199 1_455
Co0 O9 2.019252 1_545
Co0 O9 2.019252 1_445
Co0 O5 2.069532 1_555
Co0 O15 2.091869 1_545
Co1 O10 1.966185 1_455
Co1 O10 1.966185 1_555
Co1 O7 1.995270 1_555
Co1 O6 2.038379 1_455
Co1 O6 2.038379 1_555
Co1 O11 2.115065 1_555
Co2 O5 1.990242 1_555
Co2 O5 1.990242 1_655
Co2 O9 2.047494 1_545
Co2 O12 2.052005 1_545
Co2 O12 2.052005 1_645
Co2 O0 2.182649 1_555
Co3 O1 1.807857 1_555
Co3 O13 1.978068 1_555
Co3 O13 1.978068 1_655
Co3 O7 2.058988 1_656
Co3 O7 2.058988 1_556
Co3 O10 2.310844 1_556
Co4 O15 1.949417 1_545
Co4 O15 1.949417 1_645
Co4 O3 1.970885 1_655
Co4 O3 1.970885 1_555
Co4 O2 2.067049 1_555
Co4 O14 2.169367 1_545
