# generated using pymatgen
data_Li7Mn2(CoO4)3
_symmetry_space_group_name_H-M   'P 1'
_cell_length_a   2.98540600
_cell_length_b   5.05122785
_cell_length_c   14.62990289
_cell_angle_alpha   81.74866985
_cell_angle_beta   85.61262790
_cell_angle_gamma   88.22166311
_symmetry_Int_Tables_number   1
_chemical_formula_structural   Li7Mn2(CoO4)3
_chemical_formula_sum   'Li7 Mn2 Co3 O12'
_cell_volume   217.64984474
_cell_formula_units_Z   1
loop_
 _symmetry_equiv_pos_site_id
 _symmetry_equiv_pos_as_xyz
  1  'x, y, z'
loop_
 _atom_site_type_symbol
 _atom_site_label
 _atom_site_symmetry_multiplicity
 _atom_site_fract_x
 _atom_site_fract_y
 _atom_site_fract_z
 _atom_site_occupancy
  Li  Li0  1  0.91861500  0.07981400  0.65888200  1
  Li  Li1  1  0.56909000  0.41265700  0.34218600  1
  Li  Li2  1  0.24850600  0.75018700  0.00097100  1
  Li  Li3  1  0.43091000  0.58734300  0.65781400  1
  Li  Li4  1  0.08138500  0.92018600  0.34111800  1
  Li  Li5  1  0.75149400  0.24981300  0.99902900  1
  Li  Li6  1  0.50000000  0.00000000  0.50000000  1
  Mn  Mn0  1  0.83559000  0.66694700  0.83164300  1
  Mn  Mn1  1  0.16441000  0.33305300  0.16835700  1
  Co  Co0  1  0.33374800  0.16671200  0.83152400  1
  Co  Co1  1  0.00000000  0.50000000  0.50000000  1
  Co  Co2  1  0.66625200  0.83328800  0.16847600  1
  O  O0  1  0.41346700  0.87909400  0.75233600  1
  O  O1  1  0.03886500  0.24562800  0.42621000  1
  O  O2  1  0.74249700  0.54413000  0.08959600  1
  O  O3  1  0.86920600  0.37254500  0.75741400  1
  O  O4  1  0.52321100  0.68530800  0.42786000  1
  O  O5  1  0.20440100  0.04308200  0.09179600  1
  O  O6  1  0.47678900  0.31469200  0.57214000  1
  O  O7  1  0.13079400  0.62745500  0.24258600  1
  O  O8  1  0.79559900  0.95691800  0.90820400  1
  O  O9  1  0.96113500  0.75437200  0.57379000  1
  O  O10  1  0.58653300  0.12090600  0.24766400  1
  O  O11  1  0.25750300  0.45587000  0.91040400  1
loop_
_geom_bond_atom_site_label_1
_geom_bond_atom_site_label_2
_geom_bond_distance
_geom_bond_site_symmetry_2
Li0 O6 2.117708 1_555
Li0 O0 2.133797 1_545
Li0 O9 2.195102 1_545
Li0 O3 2.202695 1_555
Li0 O0 2.213133 1_645
Li0 O6 2.271969 1_655
Li1 O4 1.985956 1_555
Li1 O1 2.020515 1_655
Li1 O1 2.053314 1_555
Li1 O10 2.157762 1_555
Li1 O7 2.182297 1_555
Li1 O7 2.323314 1_655
Li2 O2 2.111174 1_455
Li2 O5 2.120663 1_565
Li2 O11 2.126957 1_554
Li2 O8 2.132348 1_454
Li2 O2 2.179292 1_555
Li2 O8 2.227092 1_554
Li3 O6 1.985956 1_555
Li3 O9 2.020515 1_455
Li3 O9 2.053314 1_555
Li3 O0 2.157762 1_555
Li3 O3 2.182297 1_555
Li3 O3 2.323314 1_455
Li4 O4 2.117708 1_555
Li4 O10 2.133797 1_565
Li4 O1 2.195102 1_565
Li4 O7 2.202695 1_555
Li4 O10 2.213133 1_465
Li4 O4 2.271969 1_455
Li5 O11 2.111174 1_655
Li5 O8 2.120663 1_545
Li5 O2 2.126957 1_556
Li5 O5 2.132348 1_656
Li5 O11 2.179292 1_555
Li5 O5 2.227092 1_556
Li6 O6 2.027055 1_555
Li6 O4 2.027055 1_545
Li6 O1 2.082535 1_555
Li6 O9 2.082535 1_545
Li6 O1 2.183240 1_655
Li6 O9 2.183240 1_445
Mn0 O11 1.958856 1_655
Mn0 O3 1.959190 1_555
Mn0 O8 1.963108 1_555
Mn0 O0 1.966129 1_555
Mn0 O11 2.213659 1_555
Mn0 O0 2.218658 1_655
Mn1 O2 1.958856 1_455
Mn1 O7 1.959190 1_555
Mn1 O5 1.963108 1_555
Mn1 O10 1.966129 1_555
Mn1 O2 2.213659 1_555
Mn1 O10 2.218658 1_455
Co0 O0 1.982159 1_545
Co0 O11 1.984914 1_555
Co0 O3 1.999219 1_455
Co0 O8 2.021719 1_545
Co0 O3 2.079986 1_555
Co0 O8 2.109814 1_445
Co1 O9 1.788725 1_455
Co1 O1 1.788725 1_555
Co1 O4 1.969700 1_455
Co1 O6 1.969700 1_555
Co1 O4 1.996204 1_555
Co1 O6 1.996204 1_455
Co2 O10 1.982159 1_565
Co2 O2 1.984914 1_555
Co2 O7 1.999219 1_655
Co2 O5 2.021719 1_565
Co2 O7 2.079986 1_555
Co2 O5 2.109814 1_665
