# generated using pymatgen
data_Yb2MgSe4
_symmetry_space_group_name_H-M   'P 1'
_cell_length_a   8.31871500
_cell_length_b   8.31871500
_cell_length_c   9.54064100
_cell_angle_alpha   90.00000000
_cell_angle_beta   90.00000000
_cell_angle_gamma   90.00000000
_symmetry_Int_Tables_number   1
_chemical_formula_structural   Yb2MgSe4
_chemical_formula_sum   'Yb8 Mg4 Se16'
_cell_volume   660.22208151
_cell_formula_units_Z   4
loop_
 _symmetry_equiv_pos_site_id
 _symmetry_equiv_pos_as_xyz
  1  'x, y, z'
loop_
 _atom_site_type_symbol
 _atom_site_label
 _atom_site_symmetry_multiplicity
 _atom_site_fract_x
 _atom_site_fract_y
 _atom_site_fract_z
 _atom_site_occupancy
  Yb  Yb0  1  0.12158800  0.25000000  0.62500000  1
  Yb  Yb1  1  0.75000000  0.12158800  0.37500000  1
  Yb  Yb2  1  0.87841200  0.75000000  0.62500000  1
  Yb  Yb3  1  0.75000000  0.37841200  0.87500000  1
  Yb  Yb4  1  0.62158800  0.75000000  0.12500000  1
  Yb  Yb5  1  0.25000000  0.87841200  0.37500000  1
  Yb  Yb6  1  0.37841200  0.25000000  0.12500000  1
  Yb  Yb7  1  0.25000000  0.62158800  0.87500000  1
  Mg  Mg0  1  0.00000000  0.00000000  0.00000000  1
  Mg  Mg1  1  0.50000000  0.50000000  0.50000000  1
  Mg  Mg2  1  0.50000000  0.00000000  0.75000000  1
  Mg  Mg3  1  0.00000000  0.50000000  0.25000000  1
  Se  Se0  1  0.08780400  0.19925700  0.31301300  1
  Se  Se1  1  0.80074300  0.08780400  0.68698700  1
  Se  Se2  1  0.91219600  0.80074300  0.31301300  1
  Se  Se3  1  0.69925700  0.41219600  0.18698700  1
  Se  Se4  1  0.58780400  0.80074300  0.43698700  1
  Se  Se5  1  0.30074300  0.91219600  0.06301300  1
  Se  Se6  1  0.41219600  0.19925700  0.43698700  1
  Se  Se7  1  0.69925700  0.08780400  0.06301300  1
  Se  Se8  1  0.58780400  0.69925700  0.81301300  1
  Se  Se9  1  0.30074300  0.58780400  0.18698700  1
  Se  Se10  1  0.41219600  0.30074300  0.81301300  1
  Se  Se11  1  0.19925700  0.91219600  0.68698700  1
  Se  Se12  1  0.08780400  0.30074300  0.93698700  1
  Se  Se13  1  0.80074300  0.41219600  0.56301300  1
  Se  Se14  1  0.91219600  0.69925700  0.93698700  1
  Se  Se15  1  0.19925700  0.58780400  0.56301300  1
loop_
_geom_bond_atom_site_label_1
_geom_bond_atom_site_label_2
_geom_bond_distance
_geom_bond_site_symmetry_2
Mg0 Se14 2.674680 1_444
Mg0 Se7 2.674680 1_455
Mg0 Se5 2.674680 1_545
Mg0 Se12 2.674680 1_554
Mg1 Se13 2.674680 1_555
Mg1 Se6 2.674680 1_555
Mg1 Se4 2.674680 1_555
Mg1 Se15 2.674680 1_555
Mg2 Se10 2.674680 1_555
Mg2 Se8 2.674680 1_545
Mg2 Se1 2.674680 1_555
Mg2 Se11 2.674680 1_545
Mg3 Se0 2.674680 1_555
Mg3 Se9 2.674680 1_555
Mg3 Se3 2.674680 1_455
Mg3 Se2 2.674680 1_455
Se0 Yb1 2.943440 1_455
Se0 Yb0 3.019445 1_555
Se0 Yb6 3.039738 1_555
Se0 Yb5 3.048592 1_545
Se1 Yb2 2.943440 1_545
Se1 Yb1 3.019445 1_555
Se1 Yb3 3.039738 1_555
Se1 Yb0 3.048592 1_655
Se2 Yb5 2.943440 1_655
Se2 Yb2 3.019445 1_555
Se2 Yb4 3.039738 1_555
Se2 Yb1 3.048592 1_565
Se3 Yb4 2.943440 1_555
Se3 Yb3 3.019445 1_554
Se3 Yb1 3.039738 1_555
Se3 Yb6 3.048592 1_555
Se4 Yb5 2.943440 1_555
Se4 Yb4 3.019445 1_555
Se4 Yb2 3.039738 1_555
Se4 Yb1 3.048592 1_565
Se5 Yb6 2.943440 1_565
Se5 Yb5 3.019445 1_555
Se5 Yb7 3.039738 1_554
Se5 Yb4 3.048592 1_555
Se6 Yb1 2.943440 1_555
Se6 Yb6 3.019445 1_555
Se6 Yb0 3.039738 1_555
Se6 Yb5 3.048592 1_545
Se7 Yb4 2.943440 1_545
Se7 Yb1 3.019445 1_555
Se7 Yb3 3.039738 1_554
Se7 Yb6 3.048592 1_555
Se8 Yb7 2.943440 1_555
Se8 Yb4 3.019445 1_556
Se8 Yb2 3.039738 1_555
Se8 Yb3 3.048592 1_555
Se9 Yb6 2.943440 1_555
Se9 Yb7 3.019445 1_554
Se9 Yb5 3.039738 1_555
Se9 Yb4 3.048592 1_555
Se10 Yb3 2.943440 1_555
Se10 Yb6 3.019445 1_556
Se10 Yb0 3.039738 1_555
Se10 Yb7 3.048592 1_555
Se11 Yb0 2.943440 1_565
Se11 Yb5 3.019445 1_555
Se11 Yb7 3.039738 1_555
Se11 Yb2 3.048592 1_455
Se12 Yb3 2.943440 1_455
Se12 Yb0 3.019445 1_555
Se12 Yb6 3.039738 1_556
Se12 Yb7 3.048592 1_555
Se13 Yb2 2.943440 1_555
Se13 Yb3 3.019445 1_555
Se13 Yb1 3.039738 1_555
Se13 Yb0 3.048592 1_655
Se14 Yb7 2.943440 1_655
Se14 Yb2 3.019445 1_555
Se14 Yb4 3.039738 1_556
Se14 Yb3 3.048592 1_555
Se15 Yb0 2.943440 1_555
Se15 Yb7 3.019445 1_555
Se15 Yb5 3.039738 1_555
Se15 Yb2 3.048592 1_455
