# generated using pymatgen
data_Hf2Co
_symmetry_space_group_name_H-M   'P 1'
_cell_length_a   8.44260317
_cell_length_b   8.44260317
_cell_length_c   8.44260317
_cell_angle_alpha   60.00000000
_cell_angle_beta   60.00000000
_cell_angle_gamma   60.00000000
_symmetry_Int_Tables_number   1
_chemical_formula_structural   Hf2Co
_chemical_formula_sum   'Hf16 Co8'
_cell_volume   425.51427196
_cell_formula_units_Z   8
loop_
 _symmetry_equiv_pos_site_id
 _symmetry_equiv_pos_as_xyz
  1  'x, y, z'
loop_
 _atom_site_type_symbol
 _atom_site_label
 _atom_site_symmetry_multiplicity
 _atom_site_fract_x
 _atom_site_fract_y
 _atom_site_fract_z
 _atom_site_occupancy
  Hf  Hf0  1  0.00000000  -0.00000000  0.50000000  1
  Hf  Hf1  1  0.00000000  0.50000000  -0.00000000  1
  Hf  Hf2  1  0.50000000  -0.00000000  -0.00000000  1
  Hf  Hf3  1  0.00000000  -0.00000000  -0.00000000  1
  Hf  Hf4  1  0.43727849  0.81272151  0.81272151  1
  Hf  Hf5  1  0.81272151  0.43727849  0.43727849  1
  Hf  Hf6  1  0.81272151  0.43727849  0.81272151  1
  Hf  Hf7  1  0.43727849  0.81272151  0.43727849  1
  Hf  Hf8  1  0.81272151  0.81272151  0.43727849  1
  Hf  Hf9  1  0.43727849  0.43727849  0.81272151  1
  Hf  Hf10  1  0.56272151  0.18727849  0.18727849  1
  Hf  Hf11  1  0.18727849  0.56272151  0.56272151  1
  Hf  Hf12  1  0.18727849  0.56272151  0.18727849  1
  Hf  Hf13  1  0.56272151  0.18727849  0.56272151  1
  Hf  Hf14  1  0.18727849  0.18727849  0.56272151  1
  Hf  Hf15  1  0.56272151  0.56272151  0.18727849  1
  Co  Co0  1  0.22261220  0.22261220  0.83216441  1
  Co  Co1  1  0.22261220  0.83216441  0.22261220  1
  Co  Co2  1  0.83216441  0.22261220  0.22261220  1
  Co  Co3  1  0.22261220  0.22261220  0.22261220  1
  Co  Co4  1  0.77738780  0.77738780  0.16783559  1
  Co  Co5  1  0.77738780  0.16783559  0.77738780  1
  Co  Co6  1  0.16783559  0.77738780  0.77738780  1
  Co  Co7  1  0.77738780  0.77738780  0.77738780  1
loop_
_geom_bond_atom_site_label_1
_geom_bond_atom_site_label_2
_geom_bond_distance
_geom_bond_site_symmetry_2
Hf0 Hf8 3.074852 1_445
Hf0 Hf7 3.074852 1_545
Hf0 Hf13 3.074852 1_455
Hf0 Hf11 3.074852 1_545
Hf0 Hf5 3.074852 1_455
Hf0 Hf14 3.074852 1_555
Hf1 Hf6 3.074852 1_454
Hf1 Hf11 3.074852 1_554
Hf1 Hf15 3.074852 1_455
Hf1 Hf9 3.074852 1_554
Hf1 Hf5 3.074852 1_455
Hf1 Hf12 3.074852 1_555
Hf2 Hf4 3.074852 1_544
Hf2 Hf7 3.074852 1_545
Hf2 Hf9 3.074852 1_554
Hf3 Hf4 3.074852 1_544
Hf3 Hf6 3.074852 1_454
Hf3 Hf8 3.074852 1_445
Hf4 Hf9 3.169716 1_555
Hf4 Hf7 3.169716 1_555
Hf4 Hf6 3.169716 1_555
Hf4 Hf8 3.169716 1_555
Hf5 Hf9 3.169716 1_555
Hf5 Hf7 3.169716 1_555
Hf5 Hf6 3.169716 1_555
Hf5 Hf8 3.169716 1_555
Hf6 Hf9 3.169716 1_555
Hf6 Hf8 3.169716 1_555
Hf7 Hf9 3.169716 1_555
Hf7 Hf8 3.169716 1_555
Hf10 Hf3 3.074852 1_655
Hf10 Hf2 3.074852 1_555
Hf10 Hf7 3.164731 1_545
Hf10 Hf9 3.164731 1_554
Hf10 Hf6 3.164731 1_554
Hf10 Hf8 3.164731 1_545
Hf10 Hf12 3.169716 1_555
Hf10 Hf13 3.169716 1_555
Hf10 Hf14 3.169716 1_555
Hf10 Hf15 3.169716 1_555
Hf11 Hf8 3.164731 1_455
Hf11 Hf6 3.164731 1_455
Hf11 Hf9 3.164731 1_555
Hf11 Hf7 3.164731 1_555
Hf11 Hf12 3.169716 1_555
Hf11 Hf13 3.169716 1_555
Hf11 Hf15 3.169716 1_555
Hf11 Hf14 3.169716 1_555
Hf12 Hf3 3.074852 1_565
Hf12 Hf5 3.164731 1_455
Hf12 Hf9 3.164731 1_554
Hf12 Hf4 3.164731 1_554
Hf12 Hf8 3.164731 1_455
Hf12 Hf14 3.169716 1_555
Hf12 Hf15 3.169716 1_555
Hf13 Hf2 3.074852 1_556
Hf13 Hf8 3.164731 1_545
Hf13 Hf4 3.164731 1_545
Hf13 Hf9 3.164731 1_555
Hf13 Hf5 3.164731 1_555
Hf13 Hf15 3.169716 1_555
Hf13 Hf14 3.169716 1_555
Hf14 Hf3 3.074852 1_556
Hf14 Hf5 3.164731 1_455
Hf14 Hf7 3.164731 1_545
Hf14 Hf6 3.164731 1_455
Hf14 Hf4 3.164731 1_545
Hf15 Hf2 3.074852 1_565
Hf15 Hf4 3.164731 1_554
Hf15 Hf6 3.164731 1_554
Hf15 Hf7 3.164731 1_555
Hf15 Hf5 3.164731 1_555
Co0 Hf13 2.607457 1_555
Co0 Hf11 2.607457 1_555
Co0 Hf14 2.607462 1_555
Co0 Hf1 2.697836 1_556
Co0 Hf2 2.697836 1_556
Co0 Hf3 2.697843 1_556
Co0 Hf9 3.047247 1_555
Co0 Hf4 3.047254 1_545
Co0 Hf6 3.047254 1_455
Co1 Hf11 2.607457 1_555
Co1 Hf15 2.607457 1_555
Co1 Hf12 2.607462 1_555
Co1 Hf0 2.697836 1_565
Co1 Hf2 2.697836 1_565
Co1 Hf3 2.697843 1_565
Co1 Hf7 3.047247 1_555
Co1 Hf4 3.047254 1_554
Co1 Hf8 3.047254 1_455
Co2 Hf13 2.607457 1_555
Co2 Hf15 2.607457 1_555
Co2 Hf10 2.607462 1_555
Co2 Hf1 2.697836 1_655
Co2 Hf0 2.697836 1_655
Co2 Hf3 2.697843 1_655
Co2 Hf5 3.047247 1_555
Co2 Hf6 3.047254 1_554
Co2 Hf8 3.047254 1_545
Co3 Hf14 2.607454 1_555
Co3 Hf10 2.607454 1_555
Co3 Hf12 2.607454 1_555
Co3 Hf1 2.697841 1_555
Co3 Hf2 2.697841 1_555
Co3 Hf0 2.697841 1_555
Co3 Hf7 3.047251 1_545
Co3 Hf9 3.047251 1_554
Co3 Hf5 3.047251 1_455
Co4 Hf5 2.607457 1_555
Co4 Hf7 2.607457 1_555
Co4 Hf8 2.607462 1_555
Co4 Hf2 2.697836 1_565
Co4 Hf1 2.697836 1_655
Co4 Hf3 2.697843 1_665
Co4 Hf15 3.047247 1_555
Co4 Hf12 3.047254 1_655
Co4 Hf10 3.047254 1_565
Co5 Hf5 2.607457 1_555
Co5 Hf9 2.607457 1_555
Co5 Hf6 2.607462 1_555
Co5 Hf2 2.697836 1_556
Co5 Hf0 2.697836 1_655
Co5 Hf3 2.697843 1_656
Co5 Hf13 3.047247 1_555
Co5 Hf10 3.047254 1_556
Co5 Hf14 3.047254 1_655
Co6 Hf9 2.607457 1_555
Co6 Hf7 2.607457 1_555
Co6 Hf4 2.607462 1_555
Co6 Hf1 2.697836 1_556
Co6 Hf0 2.697836 1_565
Co6 Hf3 2.697843 1_566
Co6 Hf11 3.047247 1_555
Co6 Hf14 3.047254 1_565
Co6 Hf12 3.047254 1_556
Co7 Hf6 2.607454 1_555
Co7 Hf4 2.607454 1_555
Co7 Hf8 2.607454 1_555
Co7 Hf1 2.697841 1_656
Co7 Hf0 2.697841 1_665
Co7 Hf2 2.697841 1_566
Co7 Hf13 3.047251 1_565
Co7 Hf15 3.047251 1_556
Co7 Hf11 3.047251 1_655
