# generated using pymatgen
data_Li4Mn3CoO8
_symmetry_space_group_name_H-M   'P 1'
_cell_length_a   5.08903000
_cell_length_b   5.85449801
_cell_length_c   6.02502306
_cell_angle_alpha   61.61996909
_cell_angle_beta   77.13094463
_cell_angle_gamma   73.71722812
_symmetry_Int_Tables_number   1
_chemical_formula_structural   Li4Mn3CoO8
_chemical_formula_sum   'Li4 Mn3 Co1 O8'
_cell_volume   150.74592700
_cell_formula_units_Z   1
loop_
 _symmetry_equiv_pos_site_id
 _symmetry_equiv_pos_as_xyz
  1  'x, y, z'
loop_
 _atom_site_type_symbol
 _atom_site_label
 _atom_site_symmetry_multiplicity
 _atom_site_fract_x
 _atom_site_fract_y
 _atom_site_fract_z
 _atom_site_occupancy
  Li  Li0  1  0.51723800  0.25971100  0.22715900  1
  Li  Li1  1  0.00000000  0.50000000  0.00000000  1
  Li  Li2  1  0.00000000  0.00000000  0.50000000  1
  Li  Li3  1  0.48276200  0.74028900  0.77284100  1
  Mn  Mn0  1  0.49924000  0.24620600  0.75779300  1
  Mn  Mn1  1  0.00000000  0.50000000  0.50000000  1
  Mn  Mn2  1  0.50076000  0.75379400  0.24220700  1
  Co  Co0  1  0.00000000  0.00000000  0.00000000  1
  O  O0  1  0.73783600  0.36834200  0.86951900  1
  O  O1  1  0.24823900  0.59743800  0.63033100  1
  O  O2  1  0.25375400  0.09783200  0.14128300  1
  O  O3  1  0.77464300  0.87116300  0.33368200  1
  O  O4  1  0.22535700  0.12883700  0.66631800  1
  O  O5  1  0.75176100  0.40256200  0.36966900  1
  O  O6  1  0.74624600  0.90216800  0.85871700  1
  O  O7  1  0.26216400  0.63165800  0.13048100  1
loop_
_geom_bond_atom_site_label_1
_geom_bond_atom_site_label_2
_geom_bond_distance
_geom_bond_site_symmetry_2
Li0 O7 2.076546 1_555
Li0 O0 2.080371 1_554
Li0 O2 2.109887 1_555
Li0 O5 2.135400 1_555
Li0 O3 2.148964 1_545
Li0 O4 2.598980 1_555
Li1 O7 2.147568 1_555
Li1 O0 2.147568 1_454
Li1 O6 2.194365 1_454
Li1 O2 2.194365 1_555
Li1 O5 2.196581 1_455
Li1 O1 2.196581 1_554
Li2 O4 2.145660 1_555
Li2 O3 2.145660 1_445
Li2 O6 2.159057 1_445
Li2 O2 2.159057 1_555
Li2 O5 2.186331 1_455
Li2 O1 2.186331 1_545
Li3 O0 2.076546 1_555
Li3 O7 2.080371 1_556
Li3 O6 2.109887 1_555
Li3 O1 2.135400 1_555
Li3 O4 2.148964 1_565
Li3 O3 2.598980 1_555
Mn0 O0 1.935790 1_555
Mn0 O6 1.939887 1_545
Mn0 O1 1.978028 1_555
Mn0 O4 1.989431 1_555
Mn0 O2 2.251358 1_556
Mn0 O5 2.289948 1_555
Mn1 O1 1.951862 1_555
Mn1 O5 1.951862 1_455
Mn1 O3 2.021314 1_455
Mn1 O4 2.021314 1_555
Mn1 O0 2.225528 1_455
Mn1 O7 2.225528 1_555
Mn2 O7 1.935790 1_555
Mn2 O2 1.939887 1_565
Mn2 O5 1.978028 1_555
Mn2 O3 1.989431 1_555
Mn2 O6 2.251358 1_554
Mn2 O1 2.289948 1_555
Co0 O4 1.985578 1_554
Co0 O3 1.985578 1_445
Co0 O2 2.021920 1_555
Co0 O6 2.021920 1_444
Co0 O0 2.071374 1_454
Co0 O7 2.071374 1_545
