# generated using pymatgen
data_Mg14ZnSnO16
_symmetry_space_group_name_H-M   'P 1'
_cell_length_a   8.66681504
_cell_length_b   8.66681504
_cell_length_c   4.36700949
_cell_angle_alpha   90.00000000
_cell_angle_beta   90.00000000
_cell_angle_gamma   90.00000000
_symmetry_Int_Tables_number   1
_chemical_formula_structural   Mg14ZnSnO16
_chemical_formula_sum   'Mg14 Zn1 Sn1 O16'
_cell_volume   328.02216622
_cell_formula_units_Z   1
loop_
 _symmetry_equiv_pos_site_id
 _symmetry_equiv_pos_as_xyz
  1  'x, y, z'
loop_
 _atom_site_type_symbol
 _atom_site_label
 _atom_site_symmetry_multiplicity
 _atom_site_fract_x
 _atom_site_fract_y
 _atom_site_fract_z
 _atom_site_occupancy
  Mg  Mg0  1  0.00000000  0.50000000  -0.00000000  1
  Mg  Mg1  1  0.50000000  0.00000000  -0.00000000  1
  Mg  Mg2  1  0.00000000  0.24864895  0.50000000  1
  Mg  Mg3  1  0.00000000  0.75135105  0.50000000  1
  Mg  Mg4  1  0.50000000  0.24081693  0.50000000  1
  Mg  Mg5  1  0.50000000  0.75918307  0.50000000  1
  Mg  Mg6  1  0.24864895  0.00000000  0.50000000  1
  Mg  Mg7  1  0.24081693  0.50000000  0.50000000  1
  Mg  Mg8  1  0.75135105  0.00000000  0.50000000  1
  Mg  Mg9  1  0.75918307  0.50000000  0.50000000  1
  Mg  Mg10  1  0.24530411  0.24530411  -0.00000000  1
  Mg  Mg11  1  0.24530411  0.75469589  0.00000000  1
  Mg  Mg12  1  0.75469589  0.24530411  -0.00000000  1
  Mg  Mg13  1  0.75469589  0.75469589  -0.00000000  1
  Zn  Zn0  1  0.00000000  0.00000000  -0.00000000  1
  Sn  Sn0  1  0.50000000  0.50000000  -0.00000000  1
  O  O0  1  0.24953531  0.00000000  0.00000000  1
  O  O1  1  0.22842027  0.50000000  0.00000000  1
  O  O2  1  0.75046469  0.00000000  -0.00000000  1
  O  O3  1  0.77157973  0.50000000  -0.00000000  1
  O  O4  1  0.24997341  0.24997341  0.50000000  1
  O  O5  1  0.24997341  0.75002659  0.50000000  1
  O  O6  1  0.75002659  0.24997341  0.50000000  1
  O  O7  1  0.75002659  0.75002659  0.50000000  1
  O  O8  1  0.00000000  0.00000000  0.50000000  1
  O  O9  1  0.00000000  0.50000000  0.50000000  1
  O  O10  1  0.50000000  0.00000000  0.50000000  1
  O  O11  1  0.50000000  0.50000000  0.50000000  1
  O  O12  1  0.00000000  0.24953531  -0.00000000  1
  O  O13  1  0.00000000  0.75046469  0.00000000  1
  O  O14  1  0.50000000  0.22842027  -0.00000000  1
  O  O15  1  0.50000000  0.77157973  0.00000000  1
loop_
_geom_bond_atom_site_label_1
_geom_bond_atom_site_label_2
_geom_bond_distance
_geom_bond_site_symmetry_2
Mg0 O3 1.979676 1_455
Mg0 O1 1.979676 1_555
Mg0 O12 2.170731 1_555
Mg0 O13 2.170731 1_555
Mg0 O9 2.183505 1_554
Mg0 O9 2.183505 1_555
Mg1 O15 1.979676 1_545
Mg1 O14 1.979676 1_555
Mg1 O0 2.170731 1_555
Mg1 O2 2.170731 1_555
Mg1 O10 2.183505 1_554
Mg1 O10 2.183505 1_555
Mg2 O8 2.154994 1_555
Mg2 O6 2.166504 1_455
Mg2 O4 2.166504 1_555
Mg2 O9 2.178413 1_555
Mg2 O12 2.183518 1_555
Mg2 O12 2.183518 1_556
Mg3 O8 2.154994 1_565
Mg3 O7 2.166504 1_455
Mg3 O5 2.166504 1_555
Mg3 O9 2.178413 1_555
Mg3 O13 2.183518 1_556
Mg3 O13 2.183518 1_555
Mg4 O10 2.087116 1_555
Mg4 O4 2.168387 1_555
Mg4 O6 2.168387 1_555
Mg4 O14 2.186146 1_555
Mg4 O14 2.186146 1_556
Mg4 O11 2.246292 1_555
Mg5 O10 2.087116 1_565
Mg5 O5 2.168387 1_555
Mg5 O7 2.168387 1_555
Mg5 O15 2.186146 1_555
Mg5 O15 2.186146 1_556
Mg5 O11 2.246292 1_555
Mg6 O8 2.154994 1_555
Mg6 O5 2.166504 1_545
Mg6 O4 2.166504 1_555
Mg6 O10 2.178413 1_555
Mg6 O0 2.183518 1_555
Mg6 O0 2.183518 1_556
Mg7 O9 2.087116 1_555
Mg7 O4 2.168387 1_555
Mg7 O5 2.168387 1_555
Mg7 O1 2.186146 1_556
Mg7 O1 2.186146 1_555
Mg7 O11 2.246292 1_555
Mg8 O8 2.154994 1_655
Mg8 O7 2.166504 1_545
Mg8 O6 2.166504 1_555
Mg8 O10 2.178413 1_555
Mg8 O2 2.183518 1_555
Mg8 O2 2.183518 1_556
Mg9 O9 2.087116 1_655
Mg9 O6 2.168387 1_555
Mg9 O7 2.168387 1_555
Mg9 O3 2.186146 1_556
Mg9 O3 2.186146 1_555
Mg9 O11 2.246292 1_555
Mg10 O0 2.126322 1_555
Mg10 O12 2.126322 1_555
Mg10 O4 2.184255 1_554
Mg10 O4 2.184255 1_555
Mg10 O14 2.212247 1_555
Mg10 O1 2.212247 1_555
Mg11 O0 2.126322 1_565
Mg11 O13 2.126322 1_555
Mg11 O5 2.184255 1_555
Mg11 O5 2.184255 1_554
Mg11 O1 2.212247 1_555
Mg11 O15 2.212247 1_555
Mg12 O12 2.126322 1_655
Mg12 O2 2.126322 1_555
Mg12 O6 2.184255 1_555
Mg12 O6 2.184255 1_554
Mg12 O14 2.212247 1_555
Mg12 O3 2.212247 1_555
Mg13 O2 2.126322 1_565
Mg13 O13 2.126322 1_655
Mg13 O7 2.184255 1_555
Mg13 O7 2.184255 1_554
Mg13 O3 2.212247 1_555
Mg13 O15 2.212247 1_555
O0 Zn0 2.162676 1_555
O1 Sn0 2.353731 1_555
O2 Zn0 2.162676 1_655
O3 Sn0 2.353731 1_555
O8 Zn0 2.183505 1_556
O8 Zn0 2.183505 1_555
O11 Sn0 2.183505 1_556
O11 Sn0 2.183505 1_555
O12 Zn0 2.162676 1_555
O13 Zn0 2.162676 1_565
O14 Sn0 2.353731 1_555
O15 Sn0 2.353731 1_555
