# generated using pymatgen
data_Lu5Ir3
_symmetry_space_group_name_H-M   'P 1'
_cell_length_a   6.08254800
_cell_length_b   8.16416363
_cell_length_c   8.16580805
_cell_angle_alpha   119.99333052
_cell_angle_beta   90.00000000
_cell_angle_gamma   90.00000000
_symmetry_Int_Tables_number   1
_chemical_formula_structural   Lu5Ir3
_chemical_formula_sum   'Lu10 Ir6'
_cell_volume   351.20139084
_cell_formula_units_Z   2
loop_
 _symmetry_equiv_pos_site_id
 _symmetry_equiv_pos_as_xyz
  1  'x, y, z'
loop_
 _atom_site_type_symbol
 _atom_site_label
 _atom_site_symmetry_multiplicity
 _atom_site_fract_x
 _atom_site_fract_y
 _atom_site_fract_z
 _atom_site_occupancy
  Lu  Lu0  1  0.50000000  0.33332800  0.66668500  1
  Lu  Lu1  1  0.50000000  0.66664300  0.33331500  1
  Lu  Lu2  1  0.00000000  0.66667200  0.33331500  1
  Lu  Lu3  1  0.00000000  0.33335700  0.66668500  1
  Lu  Lu4  1  0.75001400  0.25825800  0.00000000  1
  Lu  Lu5  1  0.74999800  0.74168800  0.74167300  1
  Lu  Lu6  1  0.74999800  0.00001400  0.25832700  1
  Lu  Lu7  1  0.25001400  0.74174200  0.00000000  1
  Lu  Lu8  1  0.24999800  0.25831200  0.25832700  1
  Lu  Lu9  1  0.24999800  0.99998600  0.74167300  1
  Ir  Ir0  1  0.75000500  0.60916500  0.00000000  1
  Ir  Ir1  1  0.74999200  0.39096600  0.39088700  1
  Ir  Ir2  1  0.74999200  0.00007900  0.60911300  1
  Ir  Ir3  1  0.25000500  0.39083500  0.00000000  1
  Ir  Ir4  1  0.24999300  0.60903400  0.60911300  1
  Ir  Ir5  1  0.24999300  0.99992100  0.39088700  1
loop_
_geom_bond_atom_site_label_1
_geom_bond_atom_site_label_2
_geom_bond_distance
_geom_bond_site_symmetry_2
Ir0 Lu6 2.811080 1_565
Ir0 Lu5 2.811086 1_554
Ir0 Lu4 2.864862 1_555
Ir0 Lu2 2.943328 1_655
Ir0 Lu3 2.943328 1_654
Ir0 Lu1 2.943431 1_555
Ir0 Lu0 2.943431 1_554
Ir0 Lu7 3.228089 1_555
Ir0 Lu7 3.228193 1_655
Ir1 Lu4 2.811506 1_555
Ir1 Lu6 2.811581 1_555
Ir1 Lu5 2.864190 1_555
Ir1 Lu1 2.942211 1_555
Ir1 Lu2 2.942461 1_655
Ir1 Lu3 2.943592 1_655
Ir1 Lu0 2.943670 1_555
Ir1 Lu8 3.228262 1_555
Ir1 Lu8 3.228331 1_655
Ir2 Lu4 2.811506 1_556
Ir2 Lu5 2.811573 1_545
Ir2 Lu6 2.864186 1_555
Ir2 Lu0 2.942211 1_555
Ir2 Lu3 2.942461 1_655
Ir2 Lu2 2.943592 1_645
Ir2 Lu1 2.943670 1_545
Ir2 Lu9 3.228261 1_545
Ir2 Lu9 3.228329 1_645
Ir3 Lu9 2.811080 1_544
Ir3 Lu8 2.811086 1_555
Ir3 Lu7 2.864862 1_555
Ir3 Lu0 2.943328 1_554
Ir3 Lu1 2.943328 1_555
Ir3 Lu3 2.943431 1_554
Ir3 Lu2 2.943431 1_555
Ir3 Lu4 3.228089 1_455
Ir3 Lu4 3.228193 1_555
Ir4 Lu7 2.811506 1_556
Ir4 Lu9 2.811581 1_555
Ir4 Lu8 2.864190 1_555
Ir4 Lu3 2.942214 1_555
Ir4 Lu0 2.942458 1_555
Ir4 Lu1 2.943588 1_555
Ir4 Lu2 2.943673 1_555
Ir4 Lu5 3.228268 1_455
Ir4 Lu5 3.228325 1_555
Ir5 Lu7 2.811506 1_555
Ir5 Lu8 2.811573 1_565
Ir5 Lu9 2.864186 1_555
Ir5 Lu2 2.942214 1_555
Ir5 Lu1 2.942458 1_555
Ir5 Lu0 2.943589 1_565
Ir5 Lu3 2.943673 1_565
Ir5 Lu6 3.228266 1_465
Ir5 Lu6 3.228324 1_565
