# generated using pymatgen
data_Cs2Pr10Os2I17
_symmetry_space_group_name_H-M   'P 1'
_cell_length_a   11.86199470
_cell_length_b   11.86199470
_cell_length_c   10.13862530
_cell_angle_alpha   86.50546154
_cell_angle_beta   86.50546154
_cell_angle_gamma   108.08568318
_symmetry_Int_Tables_number   1
_chemical_formula_structural   Cs2Pr10Os2I17
_chemical_formula_sum   'Cs2 Pr10 Os2 I17'
_cell_volume   1348.76607973
_cell_formula_units_Z   1
loop_
 _symmetry_equiv_pos_site_id
 _symmetry_equiv_pos_as_xyz
  1  'x, y, z'
loop_
 _atom_site_type_symbol
 _atom_site_label
 _atom_site_symmetry_multiplicity
 _atom_site_fract_x
 _atom_site_fract_y
 _atom_site_fract_z
 _atom_site_occupancy
  Cs  Cs0  1  0.67430700  0.32569300  0.00000000  1
  Cs  Cs1  1  0.32569300  0.67430700  0.00000000  1
  Pr  Pr0  1  0.70757600  0.00635100  0.42723000  1
  Pr  Pr1  1  0.29242400  0.99364900  0.57277000  1
  Pr  Pr2  1  0.99364900  0.29242400  0.57277000  1
  Pr  Pr3  1  0.00635100  0.70757600  0.42723000  1
  Pr  Pr4  1  0.67122900  0.67122900  0.55546300  1
  Pr  Pr5  1  0.32877100  0.32877100  0.44453700  1
  Pr  Pr6  1  0.93642200  0.93642200  0.68170500  1
  Pr  Pr7  1  0.06357800  0.06357800  0.31829500  1
  Pr  Pr8  1  0.79283900  0.79283900  0.18262300  1
  Pr  Pr9  1  0.20716100  0.20716100  0.81737700  1
  Os  Os0  1  0.85942700  0.85942700  0.43021200  1
  Os  Os1  1  0.14057300  0.14057300  0.56978800  1
  I  I0  1  0.61647200  0.94979100  0.14028600  1
  I  I1  1  0.38352800  0.05020900  0.85971400  1
  I  I2  1  0.05020900  0.38352800  0.85971400  1
  I  I3  1  0.94979100  0.61647200  0.14028600  1
  I  I4  1  0.52651700  0.18943100  0.42130600  1
  I  I5  1  0.47348300  0.81056900  0.57869400  1
  I  I6  1  0.81056900  0.47348300  0.57869400  1
  I  I7  1  0.18943100  0.52651700  0.42130600  1
  I  I8  1  0.56386800  0.56386800  0.28273200  1
  I  I9  1  0.43613200  0.43613200  0.71726800  1
  I  I10  1  0.24663500  0.89975700  0.27635600  1
  I  I11  1  0.75336500  0.10024300  0.72364400  1
  I  I12  1  0.10024300  0.75336500  0.72364400  1
  I  I13  1  0.89975700  0.24663500  0.27635600  1
  I  I14  1  0.28916700  0.28916700  0.13261500  1
  I  I15  1  0.71083300  0.71083300  0.86738500  1
  I  I16  1  0.00000000  0.00000000  0.00000000  1
loop_
_geom_bond_atom_site_label_1
_geom_bond_atom_site_label_2
_geom_bond_distance
_geom_bond_site_symmetry_2
Cs0 I13 4.246406 1_555
Cs0 I11 4.246406 1_554
Cs0 I3 4.331866 1_555
Cs0 I1 4.331866 1_554
Cs0 I2 4.425434 1_654
Cs0 I0 4.425434 1_545
Cs0 I4 4.518564 1_555
Cs0 I6 4.518564 1_554
Cs0 I8 4.554386 1_555
Cs0 I9 4.554386 1_554
Cs0 I15 4.562690 1_554
Cs0 I14 4.562690 1_555
Cs1 I10 4.246406 1_555
Cs1 I12 4.246406 1_554
Cs1 I0 4.331866 1_555
Cs1 I2 4.331866 1_554
Cs1 I1 4.425434 1_564
Cs1 I3 4.425434 1_455
Cs1 I7 4.518564 1_555
Cs1 I5 4.518564 1_554
Cs1 I8 4.554386 1_555
Cs1 I9 4.554386 1_554
Cs1 I15 4.562690 1_554
Cs1 I14 4.562690 1_555
Os0 Pr8 2.764960 1_555
Os0 Pr4 2.791850 1_555
Os0 Pr6 2.866987 1_555
Os0 Pr0 2.869170 1_565
Os0 Pr3 2.869170 1_655
Os0 Pr7 2.950456 1_665
Os1 Pr9 2.764960 1_555
Os1 Pr5 2.791850 1_555
Os1 Pr7 2.866987 1_555
Os1 Pr2 2.869170 1_455
Os1 Pr1 2.869170 1_545
Os1 Pr6 2.950456 1_445
I0 Pr0 3.201965 1_565
I0 Pr8 3.233801 1_555
I1 Pr1 3.201965 1_545
I1 Pr9 3.233801 1_555
I2 Pr2 3.201965 1_455
I2 Pr9 3.233801 1_555
I3 Pr3 3.201965 1_655
I3 Pr8 3.233801 1_555
I4 Pr1 3.240949 1_545
I4 Pr5 3.267535 1_555
I4 Pr0 3.496897 1_555
I5 Pr0 3.240949 1_565
I5 Pr4 3.267535 1_555
I5 Pr1 3.496897 1_555
I6 Pr3 3.240949 1_655
I6 Pr4 3.267535 1_555
I6 Pr2 3.496897 1_555
I7 Pr2 3.240949 1_455
I7 Pr5 3.267535 1_555
I7 Pr3 3.496897 1_555
I8 Pr8 3.245265 1_555
I8 Pr4 3.277371 1_555
I8 Pr5 3.507298 1_555
I9 Pr9 3.245265 1_555
I9 Pr5 3.277371 1_555
I9 Pr4 3.507298 1_555
I10 Pr3 3.266461 1_555
I10 Pr1 3.286074 1_555
I10 Pr7 3.358585 1_565
I11 Pr2 3.266461 1_555
I11 Pr0 3.286074 1_555
I11 Pr6 3.358585 1_545
I12 Pr1 3.266461 1_555
I12 Pr3 3.286074 1_555
I12 Pr6 3.358585 1_455
I13 Pr0 3.266461 1_555
I13 Pr2 3.286074 1_555
I13 Pr7 3.358585 1_655
I14 Pr5 3.266152 1_555
I14 Pr7 3.491578 1_555
I14 Pr9 3.503989 1_554
I15 Pr4 3.266152 1_555
I15 Pr6 3.491578 1_555
I15 Pr8 3.503989 1_556
I16 Pr9 3.262940 1_554
I16 Pr8 3.262940 1_445
I16 Pr7 3.433915 1_555
I16 Pr6 3.433915 1_444
