# generated using pymatgen
data_ZrCrAgS4
_symmetry_space_group_name_H-M   'P 1'
_cell_length_a   12.26641466
_cell_length_b   3.62998300
_cell_length_c   12.23863954
_cell_angle_alpha   90.00000000
_cell_angle_beta   89.16400450
_cell_angle_gamma   90.00000000
_symmetry_Int_Tables_number   1
_chemical_formula_structural   ZrCrAgS4
_chemical_formula_sum   'Zr4 Cr4 Ag4 S16'
_cell_volume   544.89038661
_cell_formula_units_Z   4
loop_
 _symmetry_equiv_pos_site_id
 _symmetry_equiv_pos_as_xyz
  1  'x, y, z'
loop_
 _atom_site_type_symbol
 _atom_site_label
 _atom_site_symmetry_multiplicity
 _atom_site_fract_x
 _atom_site_fract_y
 _atom_site_fract_z
 _atom_site_occupancy
  Zr  Zr0  1  0.39831600  0.75000000  0.58916600  1
  Zr  Zr1  1  0.84024000  0.75000000  0.28625600  1
  Zr  Zr2  1  0.33884700  0.75000000  0.20975500  1
  Zr  Zr3  1  0.67239800  0.25000000  0.81226800  1
  Cr  Cr0  1  0.10619900  0.25000000  0.06709100  1
  Cr  Cr1  1  0.90482600  0.75000000  0.92217500  1
  Cr  Cr2  1  0.60555400  0.25000000  0.42401600  1
  Cr  Cr3  1  0.15416900  0.25000000  0.69767500  1
  Ag  Ag0  1  0.12105300  0.75000000  0.40977600  1
  Ag  Ag1  1  0.88708500  0.25000000  0.59306700  1
  Ag  Ag2  1  0.35787200  0.25000000  0.90902100  1
  Ag  Ag3  1  0.62662300  0.75000000  0.08579400  1
  S  S0  1  0.05668900  0.75000000  0.61405300  1
  S  S1  1  0.94250000  0.25000000  0.38338700  1
  S  S2  1  0.44614700  0.25000000  0.11341200  1
  S  S3  1  0.54499800  0.75000000  0.88127300  1
  S  S4  1  0.03273200  0.25000000  0.87997700  1
  S  S5  1  0.97489400  0.75000000  0.10885700  1
  S  S6  1  0.47115000  0.75000000  0.38072100  1
  S  S7  1  0.54690100  0.25000000  0.62058300  1
  S  S8  1  0.19158400  0.25000000  0.25331400  1
  S  S9  1  0.80860400  0.75000000  0.74654900  1
  S  S10  1  0.27767500  0.75000000  0.75821600  1
  S  S11  1  0.69204200  0.25000000  0.24509400  1
  S  S12  1  0.22667800  0.75000000  0.02892400  1
  S  S13  1  0.78471200  0.25000000  0.98026100  1
  S  S14  1  0.26585200  0.25000000  0.53262500  1
  S  S15  1  0.72365600  0.75000000  0.46669400  1
loop_
_geom_bond_atom_site_label_1
_geom_bond_atom_site_label_2
_geom_bond_distance
_geom_bond_site_symmetry_2
Cr0 S12 2.382493 1_545
Cr0 S12 2.382493 1_555
Cr0 S4 2.473163 1_554
Cr0 S5 2.474999 1_445
Cr0 S5 2.474999 1_455
Cr0 S8 2.522104 1_555
Cr1 S13 2.437173 1_555
Cr1 S13 2.437173 1_565
Cr1 S4 2.449258 1_665
Cr1 S4 2.449258 1_655
Cr1 S5 2.452758 1_556
Cr1 S9 2.467216 1_555
Cr2 S15 2.384909 1_555
Cr2 S15 2.384909 1_545
Cr2 S11 2.419250 1_555
Cr2 S7 2.500914 1_555
Cr2 S6 2.513665 1_555
Cr2 S6 2.513665 1_545
Cr3 S0 2.409785 1_545
Cr3 S0 2.409785 1_555
Cr3 S14 2.424121 1_555
Cr3 S10 2.484168 1_555
Cr3 S10 2.484168 1_545
Cr3 S4 2.664555 1_555
Ag0 S0 2.610766 1_555
Ag0 S8 2.767875 1_555
Ag0 S8 2.767875 1_565
Ag0 S1 2.866381 1_465
Ag0 S1 2.866381 1_455
Ag0 S14 2.964356 1_565
Ag0 S14 2.964356 1_555
Ag1 S1 2.645094 1_555
Ag1 S9 2.774276 1_545
Ag1 S9 2.774276 1_555
Ag1 S0 2.775600 1_645
Ag1 S0 2.775600 1_655
Ag1 S15 3.129779 1_545
Ag1 S15 3.129779 1_555
Ag2 S2 2.740233 1_556
Ag2 S10 2.778726 1_555
Ag2 S10 2.778726 1_545
Ag2 S12 2.822848 1_556
Ag2 S12 2.822848 1_546
Ag2 S3 2.942019 1_545
Ag2 S3 2.942019 1_555
Ag3 S3 2.709415 1_554
Ag3 S11 2.790122 1_565
Ag3 S11 2.790122 1_555
Ag3 S2 2.878800 1_555
Ag3 S2 2.878800 1_565
Ag3 S13 2.941042 1_554
Ag3 S13 2.941042 1_564
S1 Zr1 2.514809 1_555
S1 Zr1 2.514809 1_545
S2 Zr2 2.524193 1_555
S2 Zr2 2.524193 1_545
S3 Zr3 2.532009 1_555
S3 Zr3 2.532009 1_565
S5 Zr1 2.708747 1_555
S6 Zr2 2.666635 1_555
S6 Zr0 2.690670 1_555
S7 Zr0 2.604683 1_555
S7 Zr0 2.604683 1_545
S7 Zr3 2.824655 1_555
S8 Zr2 2.610236 1_555
S8 Zr2 2.610236 1_545
S9 Zr3 2.587148 1_565
S9 Zr3 2.587148 1_555
S10 Zr0 2.526081 1_555
S11 Zr1 2.622843 1_555
S11 Zr1 2.622843 1_545
S12 Zr2 2.622959 1_555
S13 Zr3 2.491555 1_555
S14 Zr0 2.538900 1_545
S14 Zr0 2.538900 1_555
S15 Zr1 2.613350 1_555
