# generated using pymatgen
data_Gd2MgSi2
_symmetry_space_group_name_H-M   'P 1'
_cell_length_a   7.23710533
_cell_length_b   7.23710533
_cell_length_c   4.25493792
_cell_angle_alpha   90.00000000
_cell_angle_beta   90.00000000
_cell_angle_gamma   90.00006049
_symmetry_Int_Tables_number   1
_chemical_formula_structural   Gd2MgSi2
_chemical_formula_sum   'Gd4 Mg2 Si4'
_cell_volume   222.85532460
_cell_formula_units_Z   2
loop_
 _symmetry_equiv_pos_site_id
 _symmetry_equiv_pos_as_xyz
  1  'x, y, z'
loop_
 _atom_site_type_symbol
 _atom_site_label
 _atom_site_symmetry_multiplicity
 _atom_site_fract_x
 _atom_site_fract_y
 _atom_site_fract_z
 _atom_site_occupancy
  Gd  Gd0  1  0.67845934  0.17845934  0.50000000  1
  Gd  Gd1  1  0.32154066  0.82154066  0.50000000  1
  Gd  Gd2  1  0.17845768  0.32154232  0.50000000  1
  Gd  Gd3  1  0.82154232  0.67845768  0.50000000  1
  Mg  Mg0  1  -0.00000000  -0.00000000  -0.00000000  1
  Mg  Mg1  1  0.50000000  0.50000000  -0.00000000  1
  Si  Si0  1  0.11674921  0.61674921  -0.00000000  1
  Si  Si1  1  0.88325079  0.38325079  -0.00000000  1
  Si  Si2  1  0.61674299  0.88325701  -0.00000000  1
  Si  Si3  1  0.38325701  0.11674299  -0.00000000  1
loop_
_geom_bond_atom_site_label_1
_geom_bond_atom_site_label_2
_geom_bond_distance
_geom_bond_site_symmetry_2
Gd0 Si1 2.986527 1_555
Gd0 Si1 2.986527 1_556
Gd0 Si2 3.047928 1_545
Gd0 Si3 3.047928 1_555
Gd0 Si2 3.047928 1_546
Gd0 Si3 3.047928 1_556
Gd1 Si0 2.986527 1_556
Gd1 Si0 2.986527 1_555
Gd1 Si2 3.047928 1_556
Gd1 Si2 3.047928 1_555
Gd1 Si3 3.047928 1_565
Gd1 Si3 3.047928 1_566
Gd2 Si3 2.986585 1_555
Gd2 Si3 2.986585 1_556
Gd2 Si0 3.047944 1_555
Gd2 Si1 3.047944 1_455
Gd2 Si1 3.047944 1_456
Gd2 Si0 3.047944 1_556
Gd3 Si2 2.986585 1_556
Gd3 Si2 2.986585 1_555
Gd3 Si0 3.047944 1_656
Gd3 Si1 3.047944 1_555
Gd3 Si0 3.047944 1_655
Gd3 Si1 3.047944 1_556
Mg0 Si0 2.899467 1_545
Mg0 Si1 2.899467 1_455
Mg0 Si3 2.899495 1_555
Mg0 Si2 2.899495 1_445
Mg1 Si1 2.899467 1_555
Mg1 Si0 2.899467 1_555
Mg1 Si3 2.899495 1_555
Mg1 Si2 2.899495 1_555
Si0 Si1 2.389811 1_455
Si2 Si3 2.389686 1_565
