# generated using pymatgen
data_La2TiNiO6
_symmetry_space_group_name_H-M   'P 1'
_cell_length_a   5.58097555
_cell_length_b   11.28325200
_cell_length_c   7.90922055
_cell_angle_alpha   90.00108753
_cell_angle_beta   90.04793550
_cell_angle_gamma   90.00002250
_symmetry_Int_Tables_number   1
_chemical_formula_structural   La2TiNiO6
_chemical_formula_sum   'La8 Ti4 Ni4 O24'
_cell_volume   498.05573075
_cell_formula_units_Z   4
loop_
 _symmetry_equiv_pos_site_id
 _symmetry_equiv_pos_as_xyz
  1  'x, y, z'
loop_
 _atom_site_type_symbol
 _atom_site_label
 _atom_site_symmetry_multiplicity
 _atom_site_fract_x
 _atom_site_fract_y
 _atom_site_fract_z
 _atom_site_occupancy
  La  La0  1  0.00793500  0.23034800  0.25077300  1
  La  La1  1  0.00789300  0.73015800  0.25083600  1
  La  La2  1  0.99197300  0.26983300  0.74917900  1
  La  La3  1  0.99216900  0.76955800  0.74922700  1
  La  La4  1  0.49218000  0.48040000  0.24925200  1
  La  La5  1  0.49196000  0.98021400  0.24916500  1
  La  La6  1  0.50793700  0.01972600  0.75080200  1
  La  La7  1  0.50786800  0.51975800  0.75077400  1
  Ti  Ti0  1  0.99994500  0.99992400  0.00000400  1
  Ti  Ti1  1  0.00003500  0.50002700  0.99998300  1
  Ti  Ti2  1  0.49998400  0.25002800  0.49999500  1
  Ti  Ti3  1  0.50003200  0.75002700  0.49999500  1
  Ni  Ni0  1  0.99999500  0.49998900  0.50000400  1
  Ni  Ni1  1  0.49996300  0.75001600  0.00002300  1
  Ni  Ni2  1  0.00000800  0.99997800  0.50000000  1
  Ni  Ni3  1  0.50001300  0.24999700  0.99999100  1
  O  O0  1  0.91771500  0.01038300  0.24252700  1
  O  O1  1  0.91797200  0.51025700  0.24253300  1
  O  O2  1  0.08208100  0.48990400  0.75745600  1
  O  O3  1  0.08224800  0.98949200  0.75748100  1
  O  O4  1  0.58220000  0.26050600  0.25746100  1
  O  O5  1  0.58213600  0.76018000  0.25746500  1
  O  O6  1  0.41776100  0.23967200  0.74253500  1
  O  O7  1  0.41793200  0.73962700  0.74254200  1
  O  O8  1  0.20210100  0.35862700  0.04455000  1
  O  O9  1  0.20194200  0.85853900  0.04476400  1
  O  O10  1  0.79803500  0.14140600  0.95524800  1
  O  O11  1  0.79791700  0.64143100  0.95547400  1
  O  O12  1  0.29799700  0.10861900  0.45525900  1
  O  O13  1  0.29784600  0.60859400  0.45542000  1
  O  O14  1  0.70206800  0.39143400  0.54471200  1
  O  O15  1  0.70210100  0.89134800  0.54465000  1
  O  O16  1  0.28154900  0.10153000  0.04249400  1
  O  O17  1  0.28145600  0.60163300  0.04246800  1
  O  O18  1  0.71857300  0.39842700  0.95744100  1
  O  O19  1  0.71844700  0.89840100  0.95755900  1
  O  O20  1  0.21854700  0.35164000  0.45762900  1
  O  O21  1  0.21855600  0.85157200  0.45747500  1
  O  O22  1  0.78151800  0.14845100  0.54249300  1
  O  O23  1  0.78141500  0.64834400  0.54236200  1
loop_
_geom_bond_atom_site_label_1
_geom_bond_atom_site_label_2
_geom_bond_distance
_geom_bond_site_symmetry_2
La0 O4 2.400886 1_455
La0 O20 2.434751 1_555
La0 O8 2.435705 1_555
La0 O0 2.533308 1_455
La0 O12 2.668061 1_555
La0 O16 2.676238 1_555
La0 O22 2.789111 1_455
La0 O10 2.799651 1_454
La1 O5 2.400780 1_455
La1 O21 2.434510 1_555
La1 O9 2.435298 1_555
La1 O1 2.532281 1_455
La1 O13 2.667204 1_555
La1 O17 2.674715 1_555
La1 O23 2.787685 1_455
La1 O11 2.797884 1_454
La2 O6 2.401176 1_655
La2 O22 2.433997 1_555
La2 O10 2.435316 1_555
La2 O2 2.534362 1_655
La2 O14 2.666696 1_555
La2 O18 2.674101 1_555
La2 O20 2.788060 1_655
La2 O8 2.798569 1_656
La3 O7 2.400679 1_655
La3 O23 2.434686 1_555
La3 O11 2.435027 1_555
La3 O3 2.532811 1_655
La3 O15 2.668872 1_555
La3 O19 2.676994 1_555
La3 O21 2.789682 1_655
La3 O9 2.799592 1_656
La4 O1 2.400728 1_555
La4 O17 2.434331 1_555
La4 O13 2.435225 1_555
La4 O4 2.532297 1_555
La4 O8 2.669377 1_555
La4 O20 2.676454 1_555
La4 O18 2.789901 1_554
La4 O14 2.799324 1_555
La5 O0 2.401005 1_565
La5 O16 2.433415 1_565
La5 O12 2.435326 1_565
La5 O5 2.534036 1_555
La5 O9 2.667159 1_555
La5 O21 2.674675 1_555
La5 O19 2.788199 1_554
La5 O15 2.799675 1_555
La6 O3 2.400752 1_545
La6 O19 2.434195 1_545
La6 O15 2.435952 1_545
La6 O6 2.533056 1_555
La6 O10 2.667675 1_555
La6 O22 2.675742 1_555
La6 O16 2.788478 1_556
La6 O12 2.799698 1_555
La7 O2 2.400689 1_555
La7 O18 2.434281 1_555
La7 O14 2.435202 1_555
La7 O7 2.531932 1_555
La7 O11 2.668686 1_555
La7 O23 2.675285 1_555
La7 O17 2.788817 1_556
La7 O13 2.798411 1_555
Ni0 O2 2.089871 1_655
Ni0 O1 2.090055 1_555
Ni0 O13 2.095287 1_655
Ni0 O14 2.095459 1_555
Ni0 O20 2.098224 1_655
Ni0 O23 2.098348 1_555
Ni1 O5 2.089945 1_555
Ni1 O7 2.090213 1_554
Ni1 O11 2.095557 1_554
Ni1 O9 2.095702 1_555
Ni1 O19 2.098450 1_554
Ni1 O17 2.098483 1_555
Ni2 O0 2.090486 1_465
Ni2 O3 2.090534 1_555
Ni2 O15 2.095788 1_455
Ni2 O12 2.096346 1_565
Ni2 O21 2.098915 1_555
Ni2 O22 2.099289 1_465
Ni3 O6 2.090250 1_555
Ni3 O4 2.090395 1_556
Ni3 O8 2.095681 1_556
Ni3 O10 2.096157 1_555
Ni3 O16 2.099173 1_556
Ni3 O18 2.099211 1_555
O0 Ti0 1.976201 1_545
O1 Ti1 1.976039 1_654
O2 Ti1 1.975770 1_555
O3 Ti0 1.976278 1_456
O4 Ti2 1.976284 1_555
O5 Ti3 1.975892 1_555
O6 Ti2 1.976258 1_555
O7 Ti3 1.976181 1_555
O8 Ti1 1.985154 1_554
O9 Ti0 1.985071 1_455
O10 Ti0 1.985669 1_546
O11 Ti1 1.985274 1_655
O12 Ti2 1.985211 1_555
O13 Ti3 1.985834 1_555
O14 Ti2 1.985465 1_555
O15 Ti3 1.984560 1_555
O16 Ti0 1.973926 1_445
O17 Ti1 1.973106 1_554
O18 Ti1 1.973325 1_655
O19 Ti0 1.972850 1_556
O20 Ti2 1.973065 1_555
O21 Ti3 1.973006 1_555
O22 Ti2 1.973443 1_555
O23 Ti3 1.973292 1_555
