# generated using pymatgen
data_Cs2CuH8(SeO6)2
_symmetry_space_group_name_H-M   'P 1'
_cell_length_a   8.10623500
_cell_length_b   7.56078800
_cell_length_c   12.05304840
_cell_angle_alpha   70.34438334
_cell_angle_beta   90.00000000
_cell_angle_gamma   90.00000000
_symmetry_Int_Tables_number   1
_chemical_formula_structural   Cs2CuH8(SeO6)2
_chemical_formula_sum   'Cs4 Cu2 H16 Se4 O24'
_cell_volume   695.68108747
_cell_formula_units_Z   2
loop_
 _symmetry_equiv_pos_site_id
 _symmetry_equiv_pos_as_xyz
  1  'x, y, z'
loop_
 _atom_site_type_symbol
 _atom_site_label
 _atom_site_symmetry_multiplicity
 _atom_site_fract_x
 _atom_site_fract_y
 _atom_site_fract_z
 _atom_site_occupancy
  Cs  Cs0  1  0.88781100  0.28569800  0.25830700  1
  Cs  Cs1  1  0.61218900  0.28569800  0.75830700  1
  Cs  Cs2  1  0.11218900  0.71430200  0.74169300  1
  Cs  Cs3  1  0.38781100  0.71430200  0.24169300  1
  Cu  Cu0  1  0.50000000  0.00000000  0.50000000  1
  Cu  Cu1  1  0.00000000  0.00000000  0.00000000  1
  H  H0  1  0.45130500  0.18939200  0.28067700  1
  H  H1  1  0.04869500  0.18939200  0.78067700  1
  H  H2  1  0.54869500  0.81060800  0.71932300  1
  H  H3  1  0.95130500  0.81060800  0.21932300  1
  H  H4  1  0.34100000  0.26715100  0.36860900  1
  H  H5  1  0.15900000  0.26715100  0.86860900  1
  H  H6  1  0.65900000  0.73284900  0.63139100  1
  H  H7  1  0.84100000  0.73284900  0.13139100  1
  H  H8  1  0.84939800  0.16609000  0.56830200  1
  H  H9  1  0.65060200  0.16609000  0.06830200  1
  H  H10  1  0.15060200  0.83391000  0.43169800  1
  H  H11  1  0.34939800  0.83391000  0.93169800  1
  H  H12  1  0.72859300  0.31791200  0.48668500  1
  H  H13  1  0.77140700  0.31791200  0.98668500  1
  H  H14  1  0.27140700  0.68208800  0.51331500  1
  H  H15  1  0.22859300  0.68208800  0.01331500  1
  Se  Se0  1  0.28831800  0.26684200  0.06914500  1
  Se  Se1  1  0.21168200  0.26684200  0.56914500  1
  Se  Se2  1  0.71168200  0.73315800  0.93085500  1
  Se  Se3  1  0.78831800  0.73315800  0.43085500  1
  O  O0  1  0.22817500  0.44358200  0.11270300  1
  O  O1  1  0.27182500  0.44358200  0.61270300  1
  O  O2  1  0.77182500  0.55641800  0.88729700  1
  O  O3  1  0.72817500  0.55641800  0.38729700  1
  O  O4  1  0.67668400  0.66302000  0.07608200  1
  O  O5  1  0.82331600  0.66302000  0.57608200  1
  O  O6  1  0.32331600  0.33698000  0.92391800  1
  O  O7  1  0.17668400  0.33698000  0.42391800  1
  O  O8  1  0.95757000  0.83414100  0.35485700  1
  O  O9  1  0.54243000  0.83414100  0.85485700  1
  O  O10  1  0.04243000  0.16585900  0.64514300  1
  O  O11  1  0.45757000  0.16585900  0.14514300  1
  O  O12  1  0.63692600  0.89906200  0.39394600  1
  O  O13  1  0.86307400  0.89906200  0.89394600  1
  O  O14  1  0.36307400  0.10093800  0.60605400  1
  O  O15  1  0.13692600  0.10093800  0.10605400  1
  O  O16  1  0.45256700  0.21787800  0.35627300  1
  O  O17  1  0.04743300  0.21787800  0.85627300  1
  O  O18  1  0.54743300  0.78212200  0.64372700  1
  O  O19  1  0.95256700  0.78212200  0.14372700  1
  O  O20  1  0.73758700  0.18286300  0.53418900  1
  O  O21  1  0.76241300  0.18286300  0.03418900  1
  O  O22  1  0.26241300  0.81713700  0.46581100  1
  O  O23  1  0.23758700  0.81713700  0.96581100  1
loop_
_geom_bond_atom_site_label_1
_geom_bond_atom_site_label_2
_geom_bond_distance
_geom_bond_site_symmetry_2
Cs0 H12 3.123018 1_555
Cs0 O7 3.184167 1_655
Cs0 O21 3.216800 1_555
Cs0 O3 3.228339 1_555
Cs0 H7 3.230290 1_555
Cs0 O8 3.264576 1_545
Cs0 O0 3.272314 1_655
Cs0 O15 3.334897 1_655
Cs0 O4 3.417098 1_555
Cs0 O12 3.484148 1_545
Cs1 H13 3.123018 1_555
Cs1 O6 3.184167 1_555
Cs1 O20 3.216800 1_555
Cs1 O2 3.228339 1_555
Cs1 H6 3.230290 1_555
Cs1 O9 3.264576 1_545
Cs1 O1 3.272314 1_555
Cs1 O14 3.334897 1_555
Cs1 O5 3.417098 1_555
Cs1 O13 3.484148 1_545
Cs2 H14 3.123018 1_555
Cs2 O5 3.184167 1_455
Cs2 O23 3.216800 1_555
Cs2 O1 3.228339 1_555
Cs2 H5 3.230290 1_555
Cs2 O10 3.264576 1_565
Cs2 O2 3.272314 1_455
Cs2 O13 3.334897 1_455
Cs2 O6 3.417098 1_555
Cs2 O14 3.484148 1_565
Cs3 H15 3.123018 1_555
Cs3 O4 3.184167 1_555
Cs3 O22 3.216800 1_555
Cs3 O0 3.228339 1_555
Cs3 H4 3.230290 1_555
Cs3 O11 3.264576 1_565
Cs3 O3 3.272314 1_555
Cs3 O12 3.334897 1_555
Cs3 O7 3.417098 1_555
Cs3 O15 3.484148 1_565
Cu0 O16 1.985639 1_555
Cu0 O18 1.985639 1_545
Cu0 O12 2.026004 1_545
Cu0 O14 2.026004 1_555
Cu0 O20 2.484728 1_555
Cu0 O22 2.484728 1_545
Cu1 O19 1.985639 1_445
Cu1 O17 1.985639 1_554
Cu1 O13 2.026004 1_444
Cu1 O15 2.026004 1_555
Cu1 O21 2.484728 1_455
Cu1 O23 2.484728 1_544
H0 O16 1.004354 1_555
H1 O17 1.004354 1_555
H2 O18 1.004354 1_555
H3 O19 1.004354 1_555
H4 O16 1.008007 1_555
H4 O7 1.653515 1_555
H5 O17 1.008007 1_555
H5 O6 1.653515 1_555
H6 O18 1.008007 1_555
H6 O5 1.653515 1_555
H7 O19 1.008007 1_555
H7 O4 1.653515 1_555
H8 O20 0.985678 1_555
H9 O21 0.985678 1_555
H10 O22 0.985678 1_555
H11 O23 0.985678 1_555
H12 O20 0.991183 1_555
H13 O21 0.991183 1_556
H14 O22 0.991183 1_555
H15 O23 0.991183 1_554
O0 Se0 1.664622 1_555
O1 Se1 1.664622 1_555
O2 Se2 1.664622 1_555
O3 Se3 1.664622 1_555
O4 Se2 1.673690 1_554
O5 Se3 1.673690 1_555
O6 Se0 1.673690 1_556
O7 Se1 1.673690 1_555
O8 Se3 1.683418 1_555
O9 Se2 1.683418 1_555
O10 Se1 1.683418 1_555
O11 Se0 1.683418 1_555
O12 Se3 1.703527 1_555
O13 Se2 1.703527 1_555
O14 Se1 1.703527 1_555
O15 Se0 1.703527 1_555
