# generated using pymatgen
data_KCaNi2H3(SeO5)2
_symmetry_space_group_name_H-M   'P 1'
_cell_length_a   5.54785563
_cell_length_b   6.64126745
_cell_length_c   9.45854967
_cell_angle_alpha   59.14245239
_cell_angle_beta   69.61773913
_cell_angle_gamma   67.33792902
_symmetry_Int_Tables_number   1
_chemical_formula_structural   KCaNi2H3(SeO5)2
_chemical_formula_sum   'K1 Ca1 Ni2 H3 Se2 O10'
_cell_volume   271.03005745
_cell_formula_units_Z   1
loop_
 _symmetry_equiv_pos_site_id
 _symmetry_equiv_pos_as_xyz
  1  'x, y, z'
loop_
 _atom_site_type_symbol
 _atom_site_label
 _atom_site_symmetry_multiplicity
 _atom_site_fract_x
 _atom_site_fract_y
 _atom_site_fract_z
 _atom_site_occupancy
  K  K0  1  0.65657600  0.37272500  0.45369800  1
  Ca  Ca0  1  0.95546000  0.51996200  0.68328300  1
  Ni  Ni0  1  0.00806200  0.47024700  0.98847300  1
  Ni  Ni1  1  0.48960200  0.08912800  0.99941700  1
  H  H0  1  0.56301300  0.77844300  0.88374100  1
  H  H1  1  0.31901600  0.29677000  0.20400300  1
  H  H2  1  0.49794700  0.49881100  0.00015100  1
  Se  Se0  1  0.94259000  0.92542600  0.23420900  1
  Se  Se1  1  0.10927400  0.99906900  0.76819000  1
  O  O0  1  0.81748000  0.76363800  0.43425900  1
  O  O1  1  0.20575800  0.21062300  0.57012800  1
  O  O2  1  0.27732800  0.83150000  0.20491700  1
  O  O3  1  0.83536700  0.21582300  0.20757100  1
  O  O4  1  0.76938900  0.17256400  0.78545400  1
  O  O5  1  0.08570900  0.76455100  0.74323900  1
  O  O6  1  0.64723300  0.60651100  0.91495200  1
  O  O7  1  0.33670300  0.35614600  0.08385600  1
  O  O8  1  0.81791900  0.86698300  0.12358400  1
  O  O9  1  0.19190800  0.25170000  0.88120800  1
loop_
_geom_bond_atom_site_label_1
_geom_bond_atom_site_label_2
_geom_bond_distance
_geom_bond_site_symmetry_2
K0 O1 2.750863 1_555
K0 O3 2.751873 1_555
K0 O4 2.907460 1_555
K0 O0 2.958475 1_555
K0 O1 3.201260 1_655
K0 O2 3.225115 1_555
K0 O8 3.336002 1_555
Ca0 O9 2.210846 1_655
Ca0 O0 2.268041 1_555
Ca0 O5 2.370078 1_655
Ca0 O6 2.445535 1_555
Ca0 O4 2.485112 1_555
Ca0 O1 2.513227 1_655
Ni0 O9 1.955838 1_555
Ni0 O7 2.022928 1_556
Ni0 O6 2.058635 1_455
Ni0 O3 2.083288 1_456
Ni0 O5 2.165243 1_555
Ni1 O9 1.953800 1_555
Ni1 O4 2.033814 1_555
Ni1 O7 2.079410 1_556
Ni1 O8 2.124973 1_546
Ni1 O2 2.153866 1_546
H0 O6 0.973883 1_555
H1 O7 0.974176 1_555
H2 O6 1.116810 1_554
H2 O7 1.309606 1_555
O0 Se0 1.670599 1_555
O1 Se1 1.717871 1_545
O2 Se0 1.685477 1_455
O3 Se0 1.690778 1_545
O4 Se1 1.792815 1_645
O5 Se1 1.747581 1_555
O8 Se0 1.688634 1_555
