# generated using pymatgen
data_Mg2TePb4WO12
_symmetry_space_group_name_H-M   'P 1'
_cell_length_a   5.73200700
_cell_length_b   8.08072100
_cell_length_c   11.47951100
_cell_angle_alpha   90.00000000
_cell_angle_beta   90.00000000
_cell_angle_gamma   90.00000000
_symmetry_Int_Tables_number   1
_chemical_formula_structural   Mg2TePb4WO12
_chemical_formula_sum   'Mg4 Te2 Pb8 W2 O24'
_cell_volume   531.71659252
_cell_formula_units_Z   2
loop_
 _symmetry_equiv_pos_site_id
 _symmetry_equiv_pos_as_xyz
  1  'x, y, z'
loop_
 _atom_site_type_symbol
 _atom_site_label
 _atom_site_symmetry_multiplicity
 _atom_site_fract_x
 _atom_site_fract_y
 _atom_site_fract_z
 _atom_site_occupancy
  Mg  Mg0  1  0.99492400  0.50000000  0.37621300  1
  Mg  Mg1  1  0.00507600  0.50000000  0.87621300  1
  Mg  Mg2  1  0.50765600  0.00000000  0.62276800  1
  Mg  Mg3  1  0.49234400  0.00000000  0.12276800  1
  Te  Te0  1  0.00316400  0.00000000  0.87735900  1
  Te  Te1  1  0.99683600  0.00000000  0.37735900  1
  Pb  Pb0  1  0.97366200  0.25220500  0.13256800  1
  Pb  Pb1  1  0.02633800  0.74779500  0.63256800  1
  Pb  Pb2  1  0.52180800  0.75256500  0.86781000  1
  Pb  Pb3  1  0.47819200  0.24743500  0.36781000  1
  Pb  Pb4  1  0.52180800  0.24743500  0.86781000  1
  Pb  Pb5  1  0.47819200  0.75256500  0.36781000  1
  Pb  Pb6  1  0.97366200  0.74779500  0.13256800  1
  Pb  Pb7  1  0.02633800  0.25220500  0.63256800  1
  W  W0  1  0.49369900  0.50000000  0.12182500  1
  W  W1  1  0.50630100  0.50000000  0.62182500  1
  O  O0  1  0.50802000  0.74223600  0.12911200  1
  O  O1  1  0.49198000  0.25776400  0.62911200  1
  O  O2  1  0.99210100  0.24030100  0.87116200  1
  O  O3  1  0.00789900  0.75969900  0.37116200  1
  O  O4  1  0.99210100  0.75969900  0.87116200  1
  O  O5  1  0.00789900  0.24030100  0.37116200  1
  O  O6  1  0.50802000  0.25776400  0.12911200  1
  O  O7  1  0.49198000  0.74223600  0.62911200  1
  O  O8  1  0.25229400  0.50000000  0.00799700  1
  O  O9  1  0.74770600  0.50000000  0.50799700  1
  O  O10  1  0.24958500  0.00000000  0.99084100  1
  O  O11  1  0.75041500  0.00000000  0.49084100  1
  O  O12  1  0.27123200  0.50000000  0.25039800  1
  O  O13  1  0.72876800  0.50000000  0.75039800  1
  O  O14  1  0.22754000  0.00000000  0.74966700  1
  O  O15  1  0.77246000  0.00000000  0.24966700  1
  O  O16  1  0.75737300  0.50000000  0.23842400  1
  O  O17  1  0.24262700  0.50000000  0.73842400  1
  O  O18  1  0.74483000  0.00000000  0.76312900  1
  O  O19  1  0.25517000  0.00000000  0.26312900  1
  O  O20  1  0.73406400  0.50000000  0.00075400  1
  O  O21  1  0.26593600  0.50000000  0.50075400  1
  O  O22  1  0.76761000  0.00000000  0.99932100  1
  O  O23  1  0.23239000  0.00000000  0.49932100  1
loop_
_geom_bond_atom_site_label_1
_geom_bond_atom_site_label_2
_geom_bond_distance
_geom_bond_site_symmetry_2
Mg0 O9 2.072838 1_555
Mg0 O16 2.087105 1_555
Mg0 O5 2.100673 1_655
Mg0 O3 2.100673 1_655
Mg0 O21 2.111194 1_655
Mg0 O12 2.143457 1_655
Mg1 O8 2.072838 1_556
Mg1 O17 2.087105 1_555
Mg1 O4 2.100673 1_455
Mg1 O2 2.100673 1_455
Mg1 O20 2.111194 1_456
Mg1 O13 2.143457 1_455
Mg2 O11 2.056658 1_555
Mg2 O1 2.086128 1_555
Mg2 O7 2.086128 1_545
Mg2 O18 2.108175 1_555
Mg2 O23 2.120788 1_555
Mg2 O14 2.167977 1_555
Mg3 O10 2.056658 1_554
Mg3 O0 2.086128 1_545
Mg3 O6 2.086128 1_555
Mg3 O19 2.108175 1_555
Mg3 O22 2.120788 1_554
Mg3 O15 2.167977 1_555
O0 W0 1.960947 1_555
O0 Pb6 2.669736 1_555
O0 Pb5 2.746734 1_555
O1 W1 1.960947 1_555
O1 Pb7 2.669736 1_555
O1 Pb4 2.746734 1_555
O2 Te0 1.944142 1_655
O2 Pb4 2.696614 1_555
O2 Pb7 2.747648 1_655
O3 Te1 1.944142 1_465
O3 Pb5 2.696614 1_555
O3 Pb6 2.747648 1_455
O4 Te0 1.944142 1_665
O4 Pb2 2.696614 1_555
O4 Pb1 2.747648 1_655
O5 Te1 1.944142 1_455
O5 Pb3 2.696614 1_555
O5 Pb0 2.747648 1_455
O6 W0 1.960947 1_555
O6 Pb0 2.669736 1_555
O6 Pb3 2.746734 1_555
O7 W1 1.960947 1_555
O7 Pb1 2.669736 1_555
O7 Pb2 2.746734 1_555
O8 W0 1.903198 1_555
O9 W1 1.903198 1_555
O10 Te0 1.921508 1_555
O11 Te1 1.921508 1_555
O12 W0 1.950521 1_555
O12 Pb3 2.718318 1_555
O12 Pb5 2.718318 1_555
O13 W1 1.950521 1_555
O13 Pb4 2.718318 1_555
O13 Pb2 2.718318 1_555
O14 Te0 1.950079 1_555
O14 Pb7 2.700092 1_555
O14 Pb1 2.700092 1_545
O15 Te1 1.950079 1_555
O15 Pb0 2.700092 1_555
O15 Pb6 2.700092 1_545
O16 W0 2.018874 1_555
O16 Pb0 2.650120 1_555
O16 Pb6 2.650120 1_555
O17 W1 2.018874 1_555
O17 Pb7 2.650120 1_555
O17 Pb1 2.650120 1_555
O18 Te0 1.977930 1_655
O18 Pb2 2.660090 1_545
O18 Pb4 2.660090 1_555
O19 Te1 1.977930 1_455
O19 Pb5 2.660090 1_545
O19 Pb3 2.660090 1_555
O20 W0 1.957014 1_555
O21 W1 1.957014 1_555
O22 Te0 1.945048 1_655
O22 Pb6 2.808580 1_546
O22 Pb0 2.808580 1_556
O23 Te1 1.945048 1_455
O23 Pb1 2.808580 1_545
O23 Pb7 2.808580 1_555
