# generated using pymatgen
data_BaBr2O
_symmetry_space_group_name_H-M   'P 1'
_cell_length_a   4.77769500
_cell_length_b   9.03121400
_cell_length_c   10.88714900
_cell_angle_alpha   90.00000000
_cell_angle_beta   90.00000000
_cell_angle_gamma   90.00000000
_symmetry_Int_Tables_number   1
_chemical_formula_structural   BaBr2O
_chemical_formula_sum   'Ba4 Br8 O4'
_cell_volume   469.76290718
_cell_formula_units_Z   4
loop_
 _symmetry_equiv_pos_site_id
 _symmetry_equiv_pos_as_xyz
  1  'x, y, z'
loop_
 _atom_site_type_symbol
 _atom_site_label
 _atom_site_symmetry_multiplicity
 _atom_site_fract_x
 _atom_site_fract_y
 _atom_site_fract_z
 _atom_site_occupancy
  Ba  Ba0  1  0.25000000  0.23141500  0.89113000  1
  Ba  Ba1  1  0.25000000  0.73141500  0.60887000  1
  Ba  Ba2  1  0.75000000  0.76858500  0.10887000  1
  Ba  Ba3  1  0.75000000  0.26858500  0.39113000  1
  Br  Br0  1  0.75000000  0.13232700  0.09897100  1
  Br  Br1  1  0.75000000  0.63232700  0.40102900  1
  Br  Br2  1  0.25000000  0.86767300  0.90102900  1
  Br  Br3  1  0.25000000  0.36767300  0.59897100  1
  Br  Br4  1  0.75000000  0.05109600  0.67929200  1
  Br  Br5  1  0.75000000  0.55109600  0.82070800  1
  Br  Br6  1  0.25000000  0.94890400  0.32070800  1
  Br  Br7  1  0.25000000  0.44890400  0.17929200  1
  O  O0  1  0.75000000  0.35153600  0.84745400  1
  O  O1  1  0.75000000  0.85153600  0.65254600  1
  O  O2  1  0.25000000  0.64846400  0.15254600  1
  O  O3  1  0.25000000  0.14846400  0.34745400  1
loop_
_geom_bond_atom_site_label_1
_geom_bond_atom_site_label_2
_geom_bond_distance
_geom_bond_site_symmetry_2
Ba0 O0 2.666378 1_455
Ba0 O0 2.666378 1_555
Ba0 Br2 3.286799 1_545
Ba0 Br0 3.409935 1_456
Ba0 Br0 3.409935 1_556
Ba0 Br3 3.410523 1_555
Ba1 O1 2.666378 1_555
Ba1 O1 2.666378 1_455
Ba1 Br3 3.286799 1_555
Ba1 Br1 3.409935 1_455
Ba1 Br1 3.409935 1_555
Ba1 Br2 3.410523 1_555
Ba2 O2 2.666378 1_555
Ba2 O2 2.666378 1_655
Ba2 Br0 3.286799 1_565
Ba2 Br2 3.409935 1_654
Ba2 Br2 3.409935 1_554
Ba2 Br1 3.410523 1_555
Ba3 O3 2.666378 1_555
Ba3 O3 2.666378 1_655
Ba3 Br1 3.286799 1_555
Ba3 Br3 3.409935 1_555
Ba3 Br3 3.409935 1_655
Ba3 Br0 3.410523 1_555
Br4 O1 1.825641 1_545
Br5 O0 1.825641 1_555
Br6 O3 1.825641 1_565
Br7 O2 1.825641 1_555
