# generated using pymatgen
data_Ca(RhO2)2
_symmetry_space_group_name_H-M   'P 1'
_cell_length_a   3.12277276
_cell_length_b   9.03738845
_cell_length_c   10.78767953
_cell_angle_alpha   90.00000000
_cell_angle_beta   90.00000000
_cell_angle_gamma   90.00000000
_symmetry_Int_Tables_number   1
_chemical_formula_structural   Ca(RhO2)2
_chemical_formula_sum   'Ca4 Rh8 O16'
_cell_volume   304.44676837
_cell_formula_units_Z   4
loop_
 _symmetry_equiv_pos_site_id
 _symmetry_equiv_pos_as_xyz
  1  'x, y, z'
loop_
 _atom_site_type_symbol
 _atom_site_label
 _atom_site_symmetry_multiplicity
 _atom_site_fract_x
 _atom_site_fract_y
 _atom_site_fract_z
 _atom_site_occupancy
  Ca  Ca0  1  0.75000000  0.26538195  0.16124279  1
  Ca  Ca1  1  0.25000000  0.73461805  0.83875721  1
  Ca  Ca2  1  0.75000000  0.76538195  0.33875721  1
  Ca  Ca3  1  0.25000000  0.23461805  0.66124279  1
  Rh  Rh0  1  0.25000000  0.09126278  0.40188769  1
  Rh  Rh1  1  0.75000000  0.90873722  0.59811231  1
  Rh  Rh2  1  0.25000000  0.59126278  0.09811231  1
  Rh  Rh3  1  0.75000000  0.40873722  0.90188769  1
  Rh  Rh4  1  0.75000000  0.44710558  0.38387488  1
  Rh  Rh5  1  0.25000000  0.55289442  0.61612512  1
  Rh  Rh6  1  0.75000000  0.94710558  0.11612512  1
  Rh  Rh7  1  0.25000000  0.05289442  0.88387488  1
  O  O0  1  0.25000000  0.08780644  0.07323338  1
  O  O1  1  0.75000000  0.91219356  0.92676662  1
  O  O2  1  0.25000000  0.58780644  0.42676662  1
  O  O3  1  0.75000000  0.41219356  0.57323338  1
  O  O4  1  0.25000000  0.45979498  0.78891690  1
  O  O5  1  0.75000000  0.54020502  0.21108310  1
  O  O6  1  0.25000000  0.95979498  0.71108310  1
  O  O7  1  0.75000000  0.04020502  0.28891690  1
  O  O8  1  0.25000000  0.38195065  0.02739753  1
  O  O9  1  0.75000000  0.61804935  0.97260247  1
  O  O10  1  0.25000000  0.88195065  0.47260247  1
  O  O11  1  0.75000000  0.11804935  0.52739753  1
  O  O12  1  0.75000000  0.19284046  0.83261103  1
  O  O13  1  0.25000000  0.80715954  0.16738897  1
  O  O14  1  0.75000000  0.69284046  0.66738897  1
  O  O15  1  0.25000000  0.30715954  0.33261103  1
loop_
_geom_bond_atom_site_label_1
_geom_bond_atom_site_label_2
_geom_bond_distance
_geom_bond_site_symmetry_2
Ca0 O8 2.373295 1_555
Ca0 O8 2.373295 1_655
Ca0 O0 2.432029 1_555
Ca0 O0 2.432029 1_655
Ca0 O15 2.449090 1_555
Ca0 O15 2.449090 1_655
Ca0 O7 2.457284 1_555
Ca0 O5 2.541212 1_555
Ca1 O9 2.373295 1_555
Ca1 O9 2.373295 1_455
Ca1 O1 2.432029 1_455
Ca1 O1 2.432029 1_555
Ca1 O14 2.449090 1_455
Ca1 O14 2.449090 1_555
Ca1 O6 2.457284 1_555
Ca1 O4 2.541212 1_555
Ca2 O10 2.373295 1_555
Ca2 O10 2.373295 1_655
Ca2 O2 2.432029 1_655
Ca2 O2 2.432029 1_555
Ca2 O13 2.449090 1_655
Ca2 O13 2.449090 1_555
Ca2 O5 2.457284 1_555
Ca2 O7 2.541212 1_565
Ca3 O11 2.373295 1_555
Ca3 O11 2.373295 1_455
Ca3 O3 2.432029 1_555
Ca3 O3 2.432029 1_455
Ca3 O12 2.449090 1_555
Ca3 O12 2.449090 1_455
Ca3 O4 2.457284 1_555
Ca3 O6 2.541212 1_545
O0 Rh6 2.066133 1_445
O0 Rh6 2.066133 1_545
O0 Rh7 2.066962 1_554
O1 Rh7 2.066133 1_565
O1 Rh7 2.066133 1_665
O1 Rh6 2.066962 1_556
O2 Rh4 2.066133 1_555
O2 Rh4 2.066133 1_455
O2 Rh5 2.066962 1_555
O3 Rh5 2.066133 1_555
O3 Rh5 2.066133 1_655
O3 Rh4 2.066962 1_555
O4 Rh3 2.033730 1_555
O4 Rh3 2.033730 1_455
O4 Rh5 2.045114 1_555
O5 Rh2 2.033730 1_655
O5 Rh2 2.033730 1_555
O5 Rh4 2.045114 1_555
O6 Rh1 2.033730 1_455
O6 Rh1 2.033730 1_555
O6 Rh7 2.045114 1_565
O7 Rh0 2.033730 1_655
O7 Rh0 2.033730 1_555
O7 Rh6 2.045114 1_545
O8 Rh2 2.039662 1_555
O8 Rh3 2.080802 1_454
O8 Rh3 2.080802 1_554
O9 Rh3 2.039662 1_555
O9 Rh2 2.080802 1_556
O9 Rh2 2.080802 1_656
O10 Rh0 2.039662 1_565
O10 Rh1 2.080802 1_455
O10 Rh1 2.080802 1_555
O11 Rh1 2.039662 1_545
O11 Rh0 2.080802 1_655
O11 Rh0 2.080802 1_555
O12 Rh7 2.084068 1_655
O12 Rh7 2.084068 1_555
O12 Rh3 2.089370 1_555
O13 Rh6 2.084068 1_455
O13 Rh6 2.084068 1_555
O13 Rh2 2.089370 1_555
O14 Rh5 2.084068 1_655
O14 Rh5 2.084068 1_555
O14 Rh1 2.089370 1_555
O15 Rh4 2.084068 1_555
O15 Rh4 2.084068 1_455
O15 Rh0 2.089370 1_555
