# generated using pymatgen
data_MgV3CrS8
_symmetry_space_group_name_H-M   'P 1'
_cell_length_a   6.96194620
_cell_length_b   7.07710193
_cell_length_c   6.96371915
_cell_angle_alpha   60.46589820
_cell_angle_beta   59.95113777
_cell_angle_gamma   60.47660504
_symmetry_Int_Tables_number   1
_chemical_formula_structural   MgV3CrS8
_chemical_formula_sum   'Mg1 V3 Cr1 S8'
_cell_volume   244.23421296
_cell_formula_units_Z   1
loop_
 _symmetry_equiv_pos_site_id
 _symmetry_equiv_pos_as_xyz
  1  'x, y, z'
loop_
 _atom_site_type_symbol
 _atom_site_label
 _atom_site_symmetry_multiplicity
 _atom_site_fract_x
 _atom_site_fract_y
 _atom_site_fract_z
 _atom_site_occupancy
  Mg  Mg0  1  0.12846200  0.11389800  0.12913700  1
  V  V0  1  0.51655900  0.51035800  0.51624300  1
  V  V1  1  0.51639700  0.51062300  0.95635500  1
  V  V2  1  0.95664600  0.51051500  0.51617900  1
  Cr  Cr0  1  0.50455600  0.98640500  0.50488700  1
  S  S0  1  0.74739300  0.74705300  0.74765200  1
  S  S1  1  0.26245200  0.26749400  0.70749400  1
  S  S2  1  0.26576000  0.70259300  0.26565700  1
  S  S3  1  0.70765900  0.26733700  0.26241000  1
  S  S4  1  0.75112000  0.24691600  0.75108900  1
  S  S5  1  0.25812400  0.74720000  0.74739400  1
  S  S6  1  0.26257300  0.26732400  0.26248100  1
  S  S7  1  0.74731400  0.74727900  0.25800600  1
loop_
_geom_bond_atom_site_label_1
_geom_bond_atom_site_label_2
_geom_bond_distance
_geom_bond_site_symmetry_2
Mg0 S2 2.393774 1_545
Mg0 S3 2.399676 1_455
Mg0 S6 2.403000 1_555
Mg0 S1 2.404736 1_554
Cr0 S0 2.408767 1_555
Cr0 S5 2.409050 1_555
Cr0 S7 2.411563 1_555
Cr0 S1 2.422767 1_565
Cr0 S3 2.423479 1_565
Cr0 S6 2.424585 1_565
S0 V1 2.326379 1_555
S0 V2 2.329785 1_555
S1 V0 2.497588 1_555
S1 V2 2.497684 1_455
S2 V2 2.511539 1_455
S2 V0 2.512836 1_555
S2 V1 2.512847 1_554
S3 V0 2.497882 1_555
S3 V1 2.498941 1_554
S4 V2 2.341263 1_555
S4 V1 2.341291 1_555
S4 V0 2.342046 1_555
S5 V1 2.324899 1_555
S5 V0 2.329173 1_555
S6 V2 2.497241 1_455
S6 V1 2.497848 1_554
S7 V2 2.326182 1_555
S7 V0 2.327002 1_555
