# generated using pymatgen
data_TmGePt
_symmetry_space_group_name_H-M   'P 1'
_cell_length_a   4.32316748
_cell_length_b   6.90625573
_cell_length_c   7.52400516
_cell_angle_alpha   90.00000000
_cell_angle_beta   90.00000000
_cell_angle_gamma   90.00000000
_symmetry_Int_Tables_number   1
_chemical_formula_structural   TmGePt
_chemical_formula_sum   'Tm4 Ge4 Pt4'
_cell_volume   224.64347102
_cell_formula_units_Z   4
loop_
 _symmetry_equiv_pos_site_id
 _symmetry_equiv_pos_as_xyz
  1  'x, y, z'
loop_
 _atom_site_type_symbol
 _atom_site_label
 _atom_site_symmetry_multiplicity
 _atom_site_fract_x
 _atom_site_fract_y
 _atom_site_fract_z
 _atom_site_occupancy
  Tm  Tm0  1  0.25000000  0.99711678  0.29531601  1
  Tm  Tm1  1  0.25000000  0.49711678  0.20468399  1
  Tm  Tm2  1  0.75000000  0.00288322  0.70468399  1
  Tm  Tm3  1  0.75000000  0.50288322  0.79531601  1
  Ge  Ge0  1  0.25000000  0.30932589  0.58873983  1
  Ge  Ge1  1  0.25000000  0.80932589  0.91126017  1
  Ge  Ge2  1  0.75000000  0.69067411  0.41126017  1
  Ge  Ge3  1  0.75000000  0.19067411  0.08873983  1
  Pt  Pt0  1  0.25000000  0.20628385  0.91619939  1
  Pt  Pt1  1  0.25000000  0.70628385  0.58380061  1
  Pt  Pt2  1  0.75000000  0.79371615  0.08380061  1
  Pt  Pt3  1  0.75000000  0.29371615  0.41619939  1
loop_
_geom_bond_atom_site_label_1
_geom_bond_atom_site_label_2
_geom_bond_distance
_geom_bond_site_symmetry_2
Ge0 Pt3 2.523762 1_455
Ge0 Pt3 2.523762 1_555
Ge0 Pt0 2.564522 1_555
Ge0 Pt1 2.741745 1_555
Ge0 Tm3 2.979119 1_455
Ge0 Tm3 2.979119 1_555
Ge0 Tm0 3.085971 1_545
Ge0 Tm2 3.148411 1_555
Ge0 Tm2 3.148411 1_455
Ge0 Tm1 3.167340 1_555
Ge1 Pt2 2.523762 1_456
Ge1 Pt2 2.523762 1_556
Ge1 Pt1 2.564522 1_555
Ge1 Pt0 2.741745 1_565
Ge1 Tm2 2.979119 1_465
Ge1 Tm2 2.979119 1_565
Ge1 Tm1 3.085971 1_556
Ge1 Tm3 3.148411 1_455
Ge1 Tm3 3.148411 1_555
Ge1 Tm0 3.167340 1_556
Ge2 Pt1 2.523762 1_655
Ge2 Pt1 2.523762 1_555
Ge2 Pt2 2.564522 1_555
Ge2 Pt3 2.741745 1_555
Ge2 Tm1 2.979119 1_555
Ge2 Tm1 2.979119 1_655
Ge2 Tm2 3.085971 1_565
Ge2 Tm0 3.148411 1_555
Ge2 Tm0 3.148411 1_655
Ge2 Tm3 3.167340 1_555
Ge3 Pt0 2.523762 1_554
Ge3 Pt0 2.523762 1_654
Ge3 Pt3 2.564522 1_555
Ge3 Pt2 2.741745 1_545
Ge3 Tm0 2.979119 1_645
Ge3 Tm0 2.979119 1_545
Ge3 Tm3 3.085971 1_554
Ge3 Tm1 3.148411 1_655
Ge3 Tm1 3.148411 1_555
Ge3 Tm2 3.167340 1_554
Pt0 Tm1 2.957308 1_556
Pt0 Tm2 3.029591 1_555
Pt0 Tm2 3.029591 1_455
Pt0 Tm3 3.113774 1_455
Pt0 Tm3 3.113774 1_555
Pt0 Tm0 3.197401 1_546
Pt1 Tm0 2.957308 1_555
Pt1 Tm3 3.029591 1_555
Pt1 Tm3 3.029591 1_455
Pt1 Tm2 3.113774 1_565
Pt1 Tm2 3.113774 1_465
Pt1 Tm1 3.197401 1_555
Pt2 Tm3 2.957308 1_554
Pt2 Tm0 3.029591 1_655
Pt2 Tm0 3.029591 1_555
Pt2 Tm1 3.113774 1_655
Pt2 Tm1 3.113774 1_555
Pt2 Tm2 3.197401 1_564
Pt3 Tm2 2.957308 1_555
Pt3 Tm1 3.029591 1_655
Pt3 Tm1 3.029591 1_555
Pt3 Tm0 3.113774 1_645
Pt3 Tm0 3.113774 1_545
Pt3 Tm3 3.197401 1_555
