# generated using pymatgen
data_TbAl7Au3
_symmetry_space_group_name_H-M   'P 1'
_cell_length_a   8.46458772
_cell_length_b   8.46458772
_cell_length_c   8.46458760
_cell_angle_alpha   57.23769171
_cell_angle_beta   57.23769171
_cell_angle_gamma   57.23768438
_symmetry_Int_Tables_number   1
_chemical_formula_structural   TbAl7Au3
_chemical_formula_sum   'Tb2 Al14 Au6'
_cell_volume   401.56513277
_cell_formula_units_Z   2
loop_
 _symmetry_equiv_pos_site_id
 _symmetry_equiv_pos_as_xyz
  1  'x, y, z'
loop_
 _atom_site_type_symbol
 _atom_site_label
 _atom_site_symmetry_multiplicity
 _atom_site_fract_x
 _atom_site_fract_y
 _atom_site_fract_z
 _atom_site_occupancy
  Tb  Tb0  1  0.00000000  0.00000000  0.00000000  1
  Tb  Tb1  1  0.50000000  0.50000000  0.50000000  1
  Al  Al0  1  0.93031000  0.14724200  0.33260600  1
  Al  Al1  1  0.33260600  0.93031000  0.14724200  1
  Al  Al2  1  0.14724200  0.33260600  0.93031000  1
  Al  Al3  1  0.56969000  0.16739400  0.35275800  1
  Al  Al4  1  0.35275800  0.56969000  0.16739400  1
  Al  Al5  1  0.16739400  0.35275800  0.56969000  1
  Al  Al6  1  0.06969000  0.85275800  0.66739400  1
  Al  Al7  1  0.66739400  0.06969000  0.85275800  1
  Al  Al8  1  0.75000000  0.75000000  0.75000000  1
  Al  Al9  1  0.25000000  0.25000000  0.25000000  1
  Al  Al10  1  0.83260600  0.64724200  0.43031000  1
  Al  Al11  1  0.64724200  0.43031000  0.83260600  1
  Al  Al12  1  0.43031000  0.83260600  0.64724200  1
  Al  Al13  1  0.85275800  0.66739400  0.06969000  1
  Au  Au0  1  0.25000000  0.57338800  0.92661200  1
  Au  Au1  1  0.92661200  0.25000000  0.57338800  1
  Au  Au2  1  0.57338800  0.92661200  0.25000000  1
  Au  Au3  1  0.75000000  0.42661200  0.07338800  1
  Au  Au4  1  0.07338800  0.75000000  0.42661200  1
  Au  Au5  1  0.42661200  0.07338800  0.75000000  1
loop_
_geom_bond_atom_site_label_1
_geom_bond_atom_site_label_2
_geom_bond_distance
_geom_bond_site_symmetry_2
Al0 Au1 2.594540 1_555
Al0 Au3 2.615025 1_555
Al0 Au4 2.673192 1_645
Al0 Al1 2.827973 1_645
Al0 Al2 2.827974 1_654
Al0 Al3 2.877558 1_555
Al0 Al9 2.899912 1_655
Al0 Al6 2.902822 1_645
Al0 Tb0 3.321476 1_655
Al0 Tb1 3.378269 1_555
Al1 Au2 2.594540 1_555
Al1 Au4 2.615025 1_555
Al1 Au5 2.673192 1_564
Al1 Al2 2.827973 1_564
Al1 Al4 2.877558 1_555
Al1 Al9 2.899911 1_565
Al1 Al7 2.902822 1_564
Al1 Tb0 3.321476 1_565
Al1 Tb1 3.378269 1_555
Al2 Au0 2.594540 1_555
Al2 Au5 2.615025 1_555
Al2 Au3 2.673192 1_456
Al2 Al5 2.877558 1_555
Al2 Al9 2.899911 1_556
Al2 Tb0 3.321476 1_556
Al2 Tb1 3.378270 1_555
Al3 Au2 2.594540 1_545
Al3 Au3 2.615025 1_555
Al3 Au5 2.673192 1_555
Al3 Al4 2.827973 1_555
Al3 Al5 2.827973 1_555
Al3 Al9 2.899911 1_555
Al3 Tb1 3.321476 1_555
Al3 Tb0 3.378269 1_655
Al4 Au0 2.594540 1_554
Al4 Au4 2.615025 1_555
Al4 Au3 2.673192 1_555
Al4 Al5 2.827974 1_555
Al4 Al9 2.899912 1_555
Al4 Tb1 3.321476 1_555
Al4 Tb0 3.378269 1_565
Al5 Au1 2.594540 1_455
Al5 Au5 2.615025 1_555
Al5 Au4 2.673192 1_555
Al5 Al9 2.899911 1_555
Al5 Tb1 3.321476 1_555
Al5 Tb0 3.378270 1_556
Al6 Au4 2.594540 1_555
Al6 Au0 2.615025 1_555
Al6 Au1 2.673192 1_465
Al6 Al7 2.827973 1_465
Al6 Al8 2.899912 1_455
Al6 Tb0 3.321476 1_566
Al6 Tb1 3.378269 1_555
Al7 Au5 2.594540 1_555
Al7 Au1 2.615025 1_555
Al7 Au2 2.673192 1_546
Al7 Al8 2.899911 1_545
Al7 Tb0 3.321476 1_656
Al7 Tb1 3.378269 1_555
Al8 Au5 2.622271 1_565
Al8 Au3 2.622271 1_556
Al8 Au4 2.622271 1_655
Al9 Au2 2.622271 1_545
Al9 Au1 2.622271 1_455
Al9 Au0 2.622271 1_554
Al10 Au4 2.594540 1_655
Al10 Au2 2.615025 1_555
Al10 Au1 2.673192 1_555
Al10 Al12 2.827973 1_555
Al10 Al11 2.827974 1_555
Al10 Al13 2.877558 1_555
Al10 Al8 2.899911 1_555
Al10 Al5 2.902822 1_655
Al10 Tb1 3.321476 1_555
Al10 Tb0 3.378270 1_665
Al11 Au3 2.594540 1_556
Al11 Au1 2.615025 1_555
Al11 Au0 2.673192 1_555
Al11 Al12 2.827973 1_555
Al11 Al7 2.877558 1_555
Al11 Al8 2.899912 1_555
Al11 Al4 2.902822 1_556
Al11 Tb1 3.321476 1_555
Al11 Tb0 3.378269 1_656
Al12 Au5 2.594540 1_565
Al12 Au0 2.615025 1_555
Al12 Au2 2.673192 1_555
Al12 Al6 2.877558 1_555
Al12 Al8 2.899911 1_555
Al12 Al3 2.902822 1_565
Al12 Tb1 3.321476 1_555
Al12 Tb0 3.378269 1_566
Al13 Au3 2.594540 1_555
Al13 Au2 2.615025 1_555
Al13 Au0 2.673192 1_654
Al13 Al7 2.827973 1_564
Al13 Al6 2.827974 1_654
Al13 Al8 2.899911 1_554
Al13 Al2 2.902822 1_654
Al13 Tb0 3.321476 1_665
Al13 Tb1 3.378270 1_555
Au0 Tb0 3.261668 1_566
Au0 Tb1 3.261668 1_555
Au1 Tb1 3.261668 1_555
Au1 Tb0 3.261668 1_656
Au2 Tb1 3.261668 1_555
Au2 Tb0 3.261668 1_665
Au3 Tb0 3.261668 1_655
Au3 Tb1 3.261668 1_555
Au4 Tb1 3.261668 1_555
Au4 Tb0 3.261668 1_565
Au5 Tb1 3.261668 1_555
Au5 Tb0 3.261668 1_556
