# generated using pymatgen
data_Ca7SN6
_symmetry_space_group_name_H-M   'P 1'
_cell_length_a   12.11501800
_cell_length_b   6.37050100
_cell_length_c   12.49201300
_cell_angle_alpha   90.00000000
_cell_angle_beta   90.00000000
_cell_angle_gamma   90.00000000
_symmetry_Int_Tables_number   1
_chemical_formula_structural   Ca7SN6
_chemical_formula_sum   'Ca28 S4 N24'
_cell_volume   964.11775200
_cell_formula_units_Z   4
loop_
 _symmetry_equiv_pos_site_id
 _symmetry_equiv_pos_as_xyz
  1  'x, y, z'
loop_
 _atom_site_type_symbol
 _atom_site_label
 _atom_site_symmetry_multiplicity
 _atom_site_fract_x
 _atom_site_fract_y
 _atom_site_fract_z
 _atom_site_occupancy
  Ca  Ca0  1  0.06573800  0.69997700  0.00180000  1
  Ca  Ca1  1  0.43426200  0.80002300  0.50180000  1
  Ca  Ca2  1  0.56573800  0.80002300  0.99820000  1
  Ca  Ca3  1  0.93426200  0.69997700  0.49820000  1
  Ca  Ca4  1  0.93426200  0.30002300  0.99820000  1
  Ca  Ca5  1  0.56573800  0.19997700  0.49820000  1
  Ca  Ca6  1  0.43426200  0.19997700  0.00180000  1
  Ca  Ca7  1  0.06573800  0.30002300  0.50180000  1
  Ca  Ca8  1  0.22159500  0.90241000  0.66757500  1
  Ca  Ca9  1  0.27840500  0.59759000  0.16757500  1
  Ca  Ca10  1  0.72159500  0.59759000  0.33242500  1
  Ca  Ca11  1  0.77840500  0.90241000  0.83242500  1
  Ca  Ca12  1  0.77840500  0.09759000  0.33242500  1
  Ca  Ca13  1  0.72159500  0.40241000  0.83242500  1
  Ca  Ca14  1  0.27840500  0.40241000  0.66757500  1
  Ca  Ca15  1  0.22159500  0.09759000  0.16757500  1
  Ca  Ca16  1  0.31349100  0.65834800  0.89650700  1
  Ca  Ca17  1  0.18650900  0.84165200  0.39650700  1
  Ca  Ca18  1  0.81349100  0.84165200  0.10349300  1
  Ca  Ca19  1  0.68650900  0.65834800  0.60349300  1
  Ca  Ca20  1  0.68650900  0.34165200  0.10349300  1
  Ca  Ca21  1  0.81349100  0.15834800  0.60349300  1
  Ca  Ca22  1  0.18650900  0.15834800  0.89650700  1
  Ca  Ca23  1  0.31349100  0.34165200  0.39650700  1
  Ca  Ca24  1  0.00000000  0.61995800  0.75000000  1
  Ca  Ca25  1  0.50000000  0.88004200  0.25000000  1
  Ca  Ca26  1  0.00000000  0.38004200  0.25000000  1
  Ca  Ca27  1  0.50000000  0.11995800  0.75000000  1
  S  S0  1  0.00000000  0.09650600  0.75000000  1
  S  S1  1  0.50000000  0.40349400  0.25000000  1
  S  S2  1  0.00000000  0.90349300  0.25000000  1
  S  S3  1  0.50000000  0.59650700  0.75000000  1
  N  N0  1  0.15225400  0.79557500  0.84118800  1
  N  N1  1  0.34774600  0.70442500  0.34118800  1
  N  N2  1  0.65225400  0.70442500  0.15881200  1
  N  N3  1  0.84774600  0.79557500  0.65881200  1
  N  N4  1  0.84774600  0.20442500  0.15881200  1
  N  N5  1  0.65225400  0.29557500  0.65881200  1
  N  N6  1  0.34774600  0.29557500  0.84118800  1
  N  N7  1  0.15225400  0.20442500  0.34118800  1
  N  N8  1  0.12480800  0.65680100  0.55372600  1
  N  N9  1  0.37519200  0.84319900  0.05372600  1
  N  N10  1  0.62480800  0.84319900  0.44627400  1
  N  N11  1  0.87519200  0.65680100  0.94627400  1
  N  N12  1  0.87519200  0.34319900  0.44627400  1
  N  N13  1  0.62480800  0.15680100  0.94627400  1
  N  N14  1  0.37519200  0.15680100  0.55372600  1
  N  N15  1  0.12480800  0.34319900  0.05372600  1
  N  N16  1  0.40166300  0.72980600  0.70344700  1
  N  N17  1  0.09833700  0.77019400  0.20344700  1
  N  N18  1  0.90166300  0.77019400  0.29655300  1
  N  N19  1  0.59833700  0.72980600  0.79655300  1
  N  N20  1  0.59833700  0.27019400  0.29655300  1
  N  N21  1  0.90166300  0.22980600  0.79655300  1
  N  N22  1  0.09833700  0.22980600  0.70344700  1
  N  N23  1  0.40166300  0.27019400  0.20344700  1
loop_
_geom_bond_atom_site_label_1
_geom_bond_atom_site_label_2
_geom_bond_distance
_geom_bond_site_symmetry_2
Ca0 N0 2.344142 1_554
Ca0 N11 2.426068 1_454
Ca0 N15 2.469567 1_555
Ca0 N17 2.588690 1_555
Ca1 N1 2.344142 1_555
Ca1 N10 2.426068 1_555
Ca1 N14 2.469567 1_565
Ca1 N16 2.588690 1_555
Ca2 N2 2.344142 1_556
Ca2 N9 2.426068 1_556
Ca2 N13 2.469567 1_565
Ca2 N19 2.588690 1_555
Ca3 N3 2.344142 1_555
Ca3 N8 2.426068 1_655
Ca3 N12 2.469567 1_555
Ca3 N18 2.588690 1_555
Ca4 N4 2.344142 1_556
Ca4 N15 2.426068 1_656
Ca4 N11 2.469567 1_555
Ca4 N21 2.588690 1_555
Ca5 N5 2.344142 1_555
Ca5 N14 2.426068 1_555
Ca5 N10 2.469567 1_545
Ca5 N20 2.588690 1_555
Ca6 N6 2.344142 1_554
Ca6 N13 2.426068 1_554
Ca6 N9 2.469567 1_545
Ca6 N23 2.588690 1_555
Ca7 N7 2.344142 1_555
Ca7 N12 2.426068 1_455
Ca7 N8 2.469567 1_555
Ca7 N22 2.588690 1_555
Ca8 N8 2.417795 1_555
Ca8 N0 2.423326 1_555
Ca8 N16 2.483733 1_555
Ca8 N22 2.603981 1_565
Ca8 N14 2.848103 1_565
Ca9 N9 2.417795 1_555
Ca9 N1 2.423326 1_555
Ca9 N17 2.483733 1_555
Ca9 N23 2.603981 1_555
Ca9 N15 2.848103 1_555
Ca10 N10 2.417795 1_555
Ca10 N2 2.423326 1_555
Ca10 N18 2.483733 1_555
Ca10 N20 2.603981 1_555
Ca10 N12 2.848103 1_555
Ca11 N11 2.417795 1_555
Ca11 N3 2.423326 1_555
Ca11 N19 2.483733 1_555
Ca11 N21 2.603981 1_565
Ca11 N13 2.848103 1_565
Ca12 N12 2.417795 1_555
Ca12 N4 2.423326 1_555
Ca12 N20 2.483733 1_555
Ca12 N18 2.603981 1_545
Ca12 N10 2.848103 1_545
Ca13 N13 2.417795 1_555
Ca13 N5 2.423326 1_555
Ca13 N21 2.483733 1_555
Ca13 N19 2.603981 1_555
Ca13 N11 2.848103 1_555
Ca14 N14 2.417795 1_555
Ca14 N6 2.423326 1_555
Ca14 N22 2.483733 1_555
Ca14 N16 2.603981 1_555
Ca14 N8 2.848103 1_555
Ca15 N15 2.417795 1_555
Ca15 N7 2.423326 1_555
Ca15 N23 2.483733 1_555
Ca15 N17 2.603981 1_545
Ca15 N9 2.848103 1_545
Ca16 N0 2.248890 1_555
Ca16 N9 2.408884 1_556
Ca16 N6 2.447591 1_555
Ca16 N16 2.676682 1_555
Ca17 N1 2.248890 1_555
Ca17 N8 2.408884 1_555
Ca17 N7 2.447591 1_565
Ca17 N17 2.676682 1_555
Ca18 N2 2.248890 1_555
Ca18 N11 2.408884 1_554
Ca18 N4 2.447591 1_565
Ca18 N18 2.676682 1_555
Ca19 N3 2.248890 1_555
Ca19 N10 2.408884 1_555
Ca19 N5 2.447591 1_555
Ca19 N19 2.676682 1_555
Ca20 N4 2.248890 1_555
Ca20 N13 2.408884 1_554
Ca20 N2 2.447591 1_555
Ca20 N20 2.676682 1_555
Ca21 N5 2.248890 1_555
Ca21 N12 2.408884 1_555
Ca21 N3 2.447591 1_545
Ca21 N21 2.676682 1_555
Ca22 N6 2.248890 1_555
Ca22 N15 2.408884 1_556
Ca22 N0 2.447591 1_545
Ca22 N22 2.676682 1_555
Ca23 N7 2.248890 1_555
Ca23 N14 2.408884 1_555
Ca23 N1 2.447591 1_555
Ca23 N23 2.676682 1_555
Ca24 N0 2.439599 1_555
Ca24 N3 2.439599 1_455
Ca24 N21 2.816921 1_455
Ca24 N22 2.816921 1_555
Ca24 N11 2.890154 1_455
Ca24 N8 2.890154 1_555
Ca24 S0 3.035850 1_565
Ca25 N1 2.439599 1_555
Ca25 N2 2.439599 1_555
Ca25 N20 2.816921 1_565
Ca25 N23 2.816921 1_565
Ca25 N10 2.890154 1_555
Ca25 N9 2.890154 1_555
Ca25 S1 3.035850 1_555
Ca26 N7 2.439599 1_555
Ca26 N4 2.439599 1_455
Ca26 N18 2.816921 1_455
Ca26 N17 2.816921 1_555
Ca26 N12 2.890154 1_455
Ca26 N15 2.890154 1_555
Ca26 S2 3.035856 1_545
Ca27 N6 2.439599 1_555
Ca27 N5 2.439599 1_555
Ca27 N19 2.816921 1_545
Ca27 N16 2.816921 1_545
Ca27 N13 2.890154 1_555
Ca27 N14 2.890154 1_555
Ca27 S3 3.035856 1_555
N16 S3 1.574365 1_555
N17 S2 1.574365 1_555
N18 S2 1.574365 1_655
N19 S3 1.574365 1_555
N20 S1 1.574368 1_555
N21 S0 1.574368 1_655
N22 S0 1.574368 1_555
N23 S1 1.574368 1_555
