# generated using pymatgen
data_TbMnGa
_symmetry_space_group_name_H-M   'P 1'
_cell_length_a   7.27242319
_cell_length_b   7.27242319
_cell_length_c   3.89418400
_cell_angle_alpha   90.00000000
_cell_angle_beta   90.00000000
_cell_angle_gamma   119.99999266
_symmetry_Int_Tables_number   1
_chemical_formula_structural   TbMnGa
_chemical_formula_sum   'Tb3 Mn3 Ga3'
_cell_volume   178.36326691
_cell_formula_units_Z   3
loop_
 _symmetry_equiv_pos_site_id
 _symmetry_equiv_pos_as_xyz
  1  'x, y, z'
loop_
 _atom_site_type_symbol
 _atom_site_label
 _atom_site_symmetry_multiplicity
 _atom_site_fract_x
 _atom_site_fract_y
 _atom_site_fract_z
 _atom_site_occupancy
  Tb  Tb0  1  0.58602800  0.00000000  0.00000000  1
  Tb  Tb1  1  0.00000000  0.58602800  0.00000000  1
  Tb  Tb2  1  0.41397200  0.41397200  0.00000000  1
  Mn  Mn0  1  0.33333300  0.66666700  0.50000000  1
  Mn  Mn1  1  0.66666700  0.33333300  0.50000000  1
  Mn  Mn2  1  0.00000000  0.00000000  0.00000000  1
  Ga  Ga0  1  0.25653100  0.00000000  0.50000000  1
  Ga  Ga1  1  0.00000000  0.25653100  0.50000000  1
  Ga  Ga2  1  0.74346900  0.74346900  0.50000000  1
loop_
_geom_bond_atom_site_label_1
_geom_bond_atom_site_label_2
_geom_bond_distance
_geom_bond_site_symmetry_2
Mn0 Tb1 2.930856 1_556
Mn0 Tb1 2.930856 1_555
Mn0 Tb0 2.930857 1_565
Mn0 Tb0 2.930857 1_566
Mn0 Tb2 2.930861 1_556
Mn0 Tb2 2.930861 1_555
Mn1 Tb0 2.930856 1_555
Mn1 Tb0 2.930856 1_556
Mn1 Tb1 2.930857 1_656
Mn1 Tb1 2.930857 1_655
Mn1 Tb2 2.930861 1_556
Mn1 Tb2 2.930861 1_555
Mn2 Tb1 3.010580 1_545
Mn2 Tb0 3.010580 1_455
Mn2 Tb2 3.010580 1_555
Ga0 Mn2 2.696597 1_555
Ga0 Mn2 2.696597 1_556
Ga0 Mn0 2.746340 1_545
Ga0 Mn1 2.746345 1_555
Ga0 Tb0 3.087579 1_555
Ga0 Tb0 3.087579 1_556
Ga0 Tb2 3.273940 1_556
Ga0 Tb2 3.273940 1_555
Ga0 Tb1 3.273940 1_546
Ga0 Tb1 3.273940 1_545
Ga1 Mn2 2.696597 1_555
Ga1 Mn2 2.696597 1_556
Ga1 Mn1 2.746340 1_455
Ga1 Mn0 2.746345 1_555
Ga1 Tb1 3.087579 1_555
Ga1 Tb1 3.087579 1_556
Ga1 Tb2 3.273940 1_556
Ga1 Tb2 3.273940 1_555
Ga1 Tb0 3.273940 1_456
Ga1 Tb0 3.273940 1_455
Ga2 Mn2 2.696598 1_666
Ga2 Mn2 2.696598 1_665
Ga2 Mn0 2.746347 1_555
Ga2 Mn1 2.746347 1_555
Ga2 Tb2 3.087579 1_555
Ga2 Tb2 3.087579 1_556
Ga2 Tb0 3.273940 1_565
Ga2 Tb1 3.273940 1_656
Ga2 Tb1 3.273940 1_655
Ga2 Tb0 3.273940 1_566
