# generated using pymatgen
data_Hf2Hg
_symmetry_space_group_name_H-M   'P 1'
_cell_length_a   3.33008193
_cell_length_b   3.33008193
_cell_length_c   6.26120998
_cell_angle_alpha   105.42221078
_cell_angle_beta   105.42221078
_cell_angle_gamma   90.00000000
_symmetry_Int_Tables_number   1
_chemical_formula_structural   Hf2Hg
_chemical_formula_sum   'Hf2 Hg1'
_cell_volume   64.33600685
_cell_formula_units_Z   1
loop_
 _symmetry_equiv_pos_site_id
 _symmetry_equiv_pos_as_xyz
  1  'x, y, z'
loop_
 _atom_site_type_symbol
 _atom_site_label
 _atom_site_symmetry_multiplicity
 _atom_site_fract_x
 _atom_site_fract_y
 _atom_site_fract_z
 _atom_site_occupancy
  Hf  Hf0  1  0.66573582  0.66573582  0.33146963  1
  Hf  Hf1  1  0.33426418  0.33426418  0.66853037  1
  Hg  Hg0  1  0.00000000  0.00000000  0.00000000  1
loop_
_geom_bond_atom_site_label_1
_geom_bond_atom_site_label_2
_geom_bond_distance
_geom_bond_site_symmetry_2
Hf0 Hg0 3.040194 1_665
Hf0 Hg0 3.040197 1_565
Hf0 Hg0 3.040197 1_655
Hf0 Hg0 3.040201 1_555
Hf1 Hg0 3.040194 1_556
Hf1 Hg0 3.040197 1_566
Hf1 Hg0 3.040197 1_656
Hf1 Hg0 3.040201 1_666
