# generated using pymatgen
data_TiO2
_symmetry_space_group_name_H-M   'P 1'
_cell_length_a   7.35998045
_cell_length_b   7.35998045
_cell_length_c   7.35998045
_cell_angle_alpha   92.32913389
_cell_angle_beta   92.32913389
_cell_angle_gamma   156.73970690
_symmetry_Int_Tables_number   1
_chemical_formula_structural   TiO2
_chemical_formula_sum   'Ti4 O8'
_cell_volume   154.21185054
_cell_formula_units_Z   4
loop_
 _symmetry_equiv_pos_site_id
 _symmetry_equiv_pos_as_xyz
  1  'x, y, z'
loop_
 _atom_site_type_symbol
 _atom_site_label
 _atom_site_symmetry_multiplicity
 _atom_site_fract_x
 _atom_site_fract_y
 _atom_site_fract_z
 _atom_site_occupancy
  Ti  Ti0  1  0.64445292  0.17258691  0.81703983  1
  Ti  Ti1  1  0.17258691  0.35554708  0.52813399  1
  Ti  Ti2  1  0.82741309  0.64445292  0.47186601  1
  Ti  Ti3  1  0.35554708  0.82741309  0.18296017  1
  O  O0  1  0.83626247  0.45898473  0.29524720  1
  O  O1  1  0.45898473  0.16373753  0.62272126  1
  O  O2  1  0.54101527  0.83626247  0.37727874  1
  O  O3  1  0.16373753  0.54101527  0.70475280  1
  O  O4  1  0.15660689  0.79096421  0.94757110  1
  O  O5  1  0.79096421  0.84339311  0.63435832  1
  O  O6  1  0.84339311  0.20903579  0.05242890  1
  O  O7  1  0.20903579  0.15660689  0.36564168  1
loop_
_geom_bond_atom_site_label_1
_geom_bond_atom_site_label_2
_geom_bond_distance
_geom_bond_site_symmetry_2
O0 Ti2 1.892979 1_555
O0 Ti3 2.009808 1_545
O0 Ti3 2.009808 1_655
O1 Ti0 1.892984 1_555
O1 Ti2 2.009803 1_555
O1 Ti2 2.009805 1_445
O2 Ti3 1.892984 1_555
O2 Ti1 2.009803 1_555
O2 Ti1 2.009805 1_665
O3 Ti1 1.892979 1_555
O3 Ti0 2.009808 1_565
O3 Ti0 2.009808 1_455
O4 Ti0 1.916574 1_455
O4 Ti0 1.916574 1_565
O4 Ti3 2.061933 1_556
O5 Ti1 1.916576 1_555
O5 Ti1 1.916578 1_665
O5 Ti2 2.061937 1_555
O6 Ti3 1.916574 1_655
O6 Ti3 1.916574 1_545
O6 Ti0 2.061933 1_554
O7 Ti2 1.916576 1_555
O7 Ti2 1.916578 1_445
O7 Ti1 2.061937 1_555
