# generated using pymatgen
data_Na2CoSiCO7
_symmetry_space_group_name_H-M   'P 1'
_cell_length_a   5.14823958
_cell_length_b   11.45442510
_cell_length_c   11.44860766
_cell_angle_alpha   113.07761686
_cell_angle_beta   88.83574601
_cell_angle_gamma   91.13395103
_symmetry_Int_Tables_number   1
_chemical_formula_structural   Na2CoSiCO7
_chemical_formula_sum   'Na8 Co4 Si4 C4 O28'
_cell_volume   620.91912613
_cell_formula_units_Z   4
loop_
 _symmetry_equiv_pos_site_id
 _symmetry_equiv_pos_as_xyz
  1  'x, y, z'
loop_
 _atom_site_type_symbol
 _atom_site_label
 _atom_site_symmetry_multiplicity
 _atom_site_fract_x
 _atom_site_fract_y
 _atom_site_fract_z
 _atom_site_occupancy
  Na  Na0  1  0.24002200  0.12351100  0.88300200  1
  Na  Na1  1  0.24676100  0.62016900  0.38005300  1
  Na  Na2  1  0.24866100  0.37099300  0.12945700  1
  Na  Na3  1  0.23942100  0.86645100  0.62764400  1
  Na  Na4  1  0.76550000  0.63406300  0.86995700  1
  Na  Na5  1  0.74655700  0.12762500  0.37375100  1
  Na  Na6  1  0.76169300  0.88056500  0.11640900  1
  Na  Na7  1  0.75025900  0.37517100  0.62162200  1
  Co  Co0  1  0.79798500  0.06026900  0.69029300  1
  Co  Co1  1  0.19438200  0.93645000  0.31335700  1
  Co  Co2  1  0.80988200  0.57314700  0.17717200  1
  Co  Co3  1  0.19658100  0.43738000  0.81150500  1
  Si  Si0  1  0.67705200  0.34156900  0.91102800  1
  Si  Si1  1  0.67609200  0.83853900  0.40932000  1
  Si  Si2  1  0.32084100  0.66365300  0.08608200  1
  Si  Si3  1  0.32197300  0.15777200  0.59166200  1
  C  C0  1  0.73949900  0.40492600  0.34467300  1
  C  C1  1  0.71937200  0.91227600  0.83866100  1
  C  C2  1  0.27768200  0.58725300  0.65908400  1
  C  C3  1  0.27321400  0.09183200  0.16175200  1
  O  O0  1  0.22952500  0.15762700  0.09662100  1
  O  O1  1  0.23515600  0.65273700  0.59361400  1
  O  O2  1  0.76650200  0.84697200  0.90361500  1
  O  O3  1  0.74261700  0.33786100  0.41128100  1
  O  O4  1  0.95154500  0.44103900  0.30842600  1
  O  O5  1  0.91817400  0.95628000  0.79464300  1
  O  O6  1  0.07820000  0.54176500  0.70016100  1
  O  O7  1  0.07579400  0.05011000  0.20739400  1
  O  O8  1  0.52137900  0.43599800  0.31421200  1
  O  O9  1  0.49105600  0.93622600  0.81498300  1
  O  O10  1  0.50543700  0.56500400  0.68539400  1
  O  O11  1  0.50252400  0.06631300  0.18294700  1
  O  O12  1  0.18181100  0.58548400  0.16448500  1
  O  O13  1  0.16964400  0.08210000  0.66780400  1
  O  O14  1  0.82534900  0.41598700  0.83226600  1
  O  O15  1  0.82286800  0.91726400  0.33419500  1
  O  O16  1  0.35544300  0.34976200  0.90437400  1
  O  O17  1  0.35446500  0.84393300  0.40108500  1
  O  O18  1  0.64188800  0.66111200  0.08911700  1
  O  O19  1  0.64343700  0.15002600  0.60020100  1
  O  O20  1  0.74319600  0.18801000  0.85239100  1
  O  O21  1  0.74944100  0.68587400  0.34554600  1
  O  O22  1  0.74895100  0.40481600  0.06380200  1
  O  O23  1  0.74382900  0.89757200  0.56260300  1
  O  O24  1  0.24013000  0.60209900  0.93498200  1
  O  O25  1  0.25883400  0.09809800  0.43814800  1
  O  O26  1  0.24222500  0.81523900  0.14883700  1
  O  O27  1  0.25714700  0.31108100  0.65038900  1
loop_
_geom_bond_atom_site_label_1
_geom_bond_atom_site_label_2
_geom_bond_distance
_geom_bond_site_symmetry_2
Na0 O0 2.320133 1_556
Na0 O13 2.353613 1_555
Na0 O9 2.374432 1_545
Na0 O5 2.421046 1_445
Na0 O16 2.564579 1_555
Na0 O20 2.733032 1_555
Na0 O20 2.743187 1_455
Na1 O1 2.323908 1_555
Na1 O12 2.370664 1_555
Na1 O4 2.408432 1_455
Na1 O8 2.417734 1_555
Na1 O17 2.529862 1_555
Na1 O21 2.744862 1_555
Na1 O21 2.761921 1_455
Na2 O0 2.322886 1_555
Na2 O12 2.360284 1_555
Na2 O4 2.411246 1_455
Na2 O8 2.417502 1_555
Na2 O16 2.541288 1_554
Na2 O22 2.731116 1_555
Na2 O22 2.771249 1_455
Na3 O1 2.322795 1_555
Na3 O13 2.362217 1_565
Na3 O9 2.375957 1_555
Na3 O5 2.417845 1_455
Na3 O17 2.562065 1_555
Na3 O23 2.740916 1_455
Na3 O23 2.741872 1_555
Na4 O2 2.314926 1_555
Na4 O10 2.376074 1_555
Na4 O14 2.387648 1_555
Na4 O6 2.411895 1_655
Na4 O18 2.475869 1_556
Na4 O24 2.642346 1_655
Na4 O24 2.845431 1_555
Na5 O3 2.274764 1_555
Na5 O15 2.310891 1_545
Na5 O11 2.391089 1_555
Na5 O7 2.427212 1_655
Na5 O19 2.548899 1_555
Na5 O25 2.655046 1_555
Na5 O25 2.814821 1_655
Na6 O2 2.312304 1_554
Na6 O11 2.384919 1_565
Na6 O15 2.386979 1_555
Na6 O7 2.414484 1_665
Na6 O18 2.475381 1_555
Na6 O26 2.673250 1_655
Na6 O26 2.819237 1_555
Na7 O3 2.275868 1_555
Na7 O14 2.308807 1_555
Na7 O10 2.382500 1_555
Na7 O6 2.426796 1_655
Na7 O19 2.543005 1_555
Na7 O27 2.678428 1_555
Na7 O27 2.785245 1_655
Co0 O20 1.879044 1_555
Co0 O23 1.883625 1_545
Co0 O19 1.910753 1_555
Co0 O13 1.949717 1_655
Co0 O5 2.098492 1_545
Co1 O26 1.865627 1_555
Co1 O25 1.871024 1_565
Co1 O17 1.927070 1_555
Co1 O15 1.941478 1_455
Co1 O7 2.199798 1_565
Co2 O21 1.876206 1_555
Co2 O22 1.879206 1_555
Co2 O18 1.909385 1_555
Co2 O12 1.923935 1_655
Co3 O27 1.869493 1_555
Co3 O24 1.874482 1_555
Co3 O16 1.926377 1_555
Co3 O14 1.943671 1_455
Co3 O6 2.163630 1_555
C0 O3 1.277541 1_555
C0 O4 1.278020 1_555
C0 O8 1.279964 1_555
C1 O9 1.270582 1_555
C1 O2 1.273573 1_555
C1 O5 1.308924 1_555
C2 O10 1.271566 1_555
C2 O1 1.275259 1_555
C2 O6 1.303310 1_555
C3 O11 1.272363 1_555
C3 O0 1.276187 1_555
C3 O7 1.299768 1_555
O12 Si2 1.642652 1_555
O13 Si3 1.632138 1_555
O14 Si0 1.634451 1_555
O15 Si1 1.636615 1_555
O16 Si0 1.665203 1_555
O17 Si1 1.664146 1_555
O18 Si2 1.654969 1_555
O19 Si3 1.665999 1_555
O20 Si0 1.658066 1_555
O21 Si1 1.657589 1_555
O22 Si0 1.656310 1_554
O23 Si1 1.656414 1_555
O24 Si2 1.650367 1_556
O25 Si3 1.653601 1_555
O26 Si2 1.653138 1_555
O27 Si3 1.653988 1_555
