# generated using pymatgen
data_YCuSi
_symmetry_space_group_name_H-M   'P 1'
_cell_length_a   4.05151979
_cell_length_b   4.05151979
_cell_length_c   3.97513600
_cell_angle_alpha   90.00000000
_cell_angle_beta   90.00000000
_cell_angle_gamma   119.99999655
_symmetry_Int_Tables_number   1
_chemical_formula_structural   YCuSi
_chemical_formula_sum   'Y1 Cu1 Si1'
_cell_volume   56.50912301
_cell_formula_units_Z   1
loop_
 _symmetry_equiv_pos_site_id
 _symmetry_equiv_pos_as_xyz
  1  'x, y, z'
loop_
 _atom_site_type_symbol
 _atom_site_label
 _atom_site_symmetry_multiplicity
 _atom_site_fract_x
 _atom_site_fract_y
 _atom_site_fract_z
 _atom_site_occupancy
  Y  Y0  1  0.33333300  0.66666700  0.00000000  1
  Cu  Cu0  1  0.66666700  0.33333300  0.50000000  1
  Si  Si0  1  0.00000000  0.00000000  0.50000000  1
loop_
_geom_bond_atom_site_label_1
_geom_bond_atom_site_label_2
_geom_bond_distance
_geom_bond_site_symmetry_2
Cu0 Si0 2.339144 1_655
Cu0 Si0 2.339147 1_555
Cu0 Si0 2.339147 1_665
Cu0 Y0 3.069531 1_545
Cu0 Y0 3.069531 1_546
Cu0 Y0 3.069531 1_655
Cu0 Y0 3.069531 1_656
Cu0 Y0 3.069536 1_556
Cu0 Y0 3.069536 1_555
Si0 Y0 3.069531 1_545
Si0 Y0 3.069531 1_546
Si0 Y0 3.069534 1_556
Si0 Y0 3.069534 1_555
Si0 Y0 3.069534 1_445
Si0 Y0 3.069534 1_446
