# generated using pymatgen
data_Li9Mn2Co5O16
_symmetry_space_group_name_H-M   'P 1'
_cell_length_a   5.14846132
_cell_length_b   7.73372584
_cell_length_c   7.73372492
_cell_angle_alpha   96.28460304
_cell_angle_beta   75.94413024
_cell_angle_gamma   75.94413940
_symmetry_Int_Tables_number   1
_chemical_formula_structural   Li9Mn2Co5O16
_chemical_formula_sum   'Li9 Mn2 Co5 O16'
_cell_volume   285.08816854
_cell_formula_units_Z   1
loop_
 _symmetry_equiv_pos_site_id
 _symmetry_equiv_pos_as_xyz
  1  'x, y, z'
loop_
 _atom_site_type_symbol
 _atom_site_label
 _atom_site_symmetry_multiplicity
 _atom_site_fract_x
 _atom_site_fract_y
 _atom_site_fract_z
 _atom_site_occupancy
  Li  Li0  1  0.01025700  0.12034400  0.37034400  1
  Li  Li1  1  0.98974300  0.62965600  0.87965600  1
  Li  Li2  1  0.50170800  0.00012200  0.49970200  1
  Li  Li3  1  0.49829200  0.50029800  0.99987800  1
  Li  Li4  1  0.00000000  0.87500000  0.62500000  1
  Li  Li5  1  0.00000000  0.37500000  0.12500000  1
  Li  Li6  1  0.49829200  0.74987800  0.75029800  1
  Li  Li7  1  0.50170800  0.24970200  0.25012200  1
  Li  Li8  1  0.50000000  0.87500000  0.12500000  1
  Mn  Mn0  1  0.00000000  0.99982100  0.00017900  1
  Mn  Mn1  1  0.00000000  0.75017900  0.24982100  1
  Co  Co0  1  0.00000000  0.50111000  0.49889000  1
  Co  Co1  1  0.50000000  0.37500000  0.62500000  1
  Co  Co2  1  0.00000000  0.24889000  0.75111000  1
  Co  Co3  1  0.50000000  0.62711300  0.37288700  1
  Co  Co4  1  0.50000000  0.12288700  0.87711300  1
  O  O0  1  0.78296800  0.99181100  0.24181100  1
  O  O1  1  0.76181000  0.49355200  0.74355200  1
  O  O2  1  0.24695400  0.85043500  0.36324000  1
  O  O3  1  0.26523000  0.35732000  0.86247300  1
  O  O4  1  0.77165600  0.74752600  0.49015400  1
  O  O5  1  0.77165600  0.24015400  0.99752600  1
  O  O6  1  0.26523000  0.61247300  0.60732000  1
  O  O7  1  0.24695400  0.11324000  0.10043500  1
  O  O8  1  0.23819000  0.25644800  0.50644800  1
  O  O9  1  0.21703200  0.75818900  0.00818900  1
  O  O10  1  0.73477000  0.13752700  0.64268000  1
  O  O11  1  0.75304600  0.63676000  0.14956500  1
  O  O12  1  0.22834400  0.00247400  0.75984600  1
  O  O13  1  0.22834400  0.50984600  0.25247400  1
  O  O14  1  0.75304600  0.89956500  0.88676000  1
  O  O15  1  0.73477000  0.39268000  0.38752700  1
loop_
_geom_bond_atom_site_label_1
_geom_bond_atom_site_label_2
_geom_bond_distance
_geom_bond_site_symmetry_2
Li0 O0 2.063799 1_445
Li0 O8 2.133171 1_555
Li0 O7 2.133562 1_555
Li0 O2 2.133563 1_545
Li0 O10 2.204868 1_455
Li0 O15 2.204869 1_455
Li1 O9 2.063799 1_656
Li1 O1 2.133171 1_555
Li1 O11 2.133562 1_556
Li1 O14 2.133563 1_555
Li1 O6 2.204868 1_655
Li1 O3 2.204869 1_655
Li2 O4 2.086391 1_545
Li2 O8 2.099933 1_555
Li2 O0 2.145399 1_545
Li2 O12 2.152432 1_555
Li2 O10 2.190498 1_555
Li2 O2 2.305770 1_545
Li3 O13 2.086390 1_556
Li3 O1 2.099933 1_555
Li3 O9 2.145400 1_556
Li3 O5 2.152432 1_555
Li3 O3 2.190498 1_555
Li3 O11 2.305770 1_556
Li4 O14 2.073404 1_455
Li4 O2 2.073404 1_555
Li4 O4 2.091634 1_455
Li4 O12 2.091634 1_565
Li4 O10 2.123059 1_465
Li4 O6 2.123059 1_555
Li5 O11 2.073404 1_455
Li5 O7 2.073404 1_555
Li5 O5 2.091634 1_454
Li5 O13 2.091634 1_555
Li5 O15 2.123058 1_455
Li5 O3 2.123058 1_554
Li6 O12 2.086391 1_565
Li6 O1 2.099933 1_555
Li6 O9 2.145399 1_556
Li6 O4 2.152432 1_555
Li6 O6 2.190498 1_555
Li6 O14 2.305770 1_555
Li7 O5 2.086390 1_554
Li7 O8 2.099933 1_555
Li7 O0 2.145400 1_545
Li7 O13 2.152432 1_555
Li7 O15 2.190498 1_555
Li7 O7 2.305770 1_555
Li8 O2 2.039368 1_555
Li8 O14 2.039368 1_554
Li8 O11 2.039368 1_555
Li8 O7 2.039368 1_565
Li8 O9 2.203291 1_555
Li8 O0 2.203291 1_555
Mn0 O0 1.946585 1_455
Mn0 O9 1.946585 1_555
Mn0 O12 1.948293 1_564
Mn0 O5 1.948293 1_464
Mn0 O14 1.964374 1_454
Mn0 O7 1.964374 1_565
Mn1 O9 1.946585 1_555
Mn1 O0 1.946585 1_455
Mn1 O4 1.948293 1_455
Mn1 O13 1.948293 1_555
Mn1 O2 1.964374 1_555
Mn1 O11 1.964374 1_455
Co0 O13 1.999230 1_555
Co0 O4 1.999230 1_455
Co0 O1 2.004852 1_455
Co0 O8 2.004852 1_555
Co0 O15 2.068564 1_455
Co0 O6 2.068564 1_555
Co1 O15 1.977265 1_555
Co1 O3 1.977265 1_555
Co1 O10 1.977265 1_555
Co1 O6 1.977265 1_555
Co1 O1 2.124770 1_555
Co1 O8 2.124770 1_555
Co2 O5 1.999230 1_455
Co2 O12 1.999230 1_555
Co2 O8 2.004852 1_555
Co2 O1 2.004852 1_455
Co2 O3 2.068564 1_555
Co2 O10 2.068564 1_455
Co3 O11 1.915265 1_555
Co3 O2 1.915266 1_555
Co3 O6 1.951374 1_555
Co3 O15 1.951374 1_555
Co3 O13 2.170176 1_555
Co3 O4 2.170176 1_555
Co4 O7 1.915265 1_556
Co4 O14 1.915266 1_545
Co4 O10 1.951374 1_555
Co4 O3 1.951374 1_555
Co4 O5 2.170176 1_555
Co4 O12 2.170176 1_555
