# generated using pymatgen
data_Ba(V3S4)4
_symmetry_space_group_name_H-M   'P 1'
_cell_length_a   9.77350441
_cell_length_b   9.77350441
_cell_length_c   9.22600495
_cell_angle_alpha   61.96272325
_cell_angle_beta   61.96272325
_cell_angle_gamma   38.73386054
_symmetry_Int_Tables_number   1
_chemical_formula_structural   Ba(V3S4)4
_chemical_formula_sum   'Ba1 V12 S16'
_cell_volume   478.10361794
_cell_formula_units_Z   1
loop_
 _symmetry_equiv_pos_site_id
 _symmetry_equiv_pos_as_xyz
  1  'x, y, z'
loop_
 _atom_site_type_symbol
 _atom_site_label
 _atom_site_symmetry_multiplicity
 _atom_site_fract_x
 _atom_site_fract_y
 _atom_site_fract_z
 _atom_site_occupancy
  Ba  Ba0  1  0.37499600  0.37499600  0.99929300  1
  V  V0  1  0.93220800  0.93220800  0.51073800  1
  V  V1  1  0.43220200  0.43220200  0.51380100  1
  V  V2  1  0.13040200  0.13040200  0.37721300  1
  V  V3  1  0.63202600  0.63202600  0.36925500  1
  V  V4  1  0.05928000  0.05928000  0.11611500  1
  V  V5  1  0.56372000  0.56372000  0.11294500  1
  V  V6  1  0.06541700  0.57179300  0.49150100  1
  V  V7  1  0.57179300  0.06541700  0.49150100  1
  V  V8  1  0.87830000  0.36300800  0.62149900  1
  V  V9  1  0.36300800  0.87830000  0.62149900  1
  V  V10  1  0.92854100  0.44326700  0.88684600  1
  V  V11  1  0.44326700  0.92854100  0.88684600  1
  S  S0  1  0.52605500  0.52605500  0.64332100  1
  S  S1  1  0.02114900  0.02114900  0.65440400  1
  S  S2  1  0.70220000  0.70220000  0.05330100  1
  S  S3  1  0.19697200  0.19697200  0.05451300  1
  S  S4  1  0.40231400  0.40231400  0.30023100  1
  S  S5  1  0.90174000  0.90174000  0.29420500  1
  S  S6  1  0.48041000  0.97905900  0.34366400  1
  S  S7  1  0.97905900  0.48041000  0.34366400  1
  S  S8  1  0.29601300  0.79727400  0.94697200  1
  S  S9  1  0.79727400  0.29601300  0.94697200  1
  S  S10  1  0.60104200  0.09584100  0.70961300  1
  S  S11  1  0.09584100  0.60104200  0.70961300  1
  S  S12  1  0.70750000  0.70750000  0.66617000  1
  S  S13  1  0.20911100  0.20911100  0.66738000  1
  S  S14  1  0.29092500  0.79223500  0.33346300  1
  S  S15  1  0.79223500  0.29092500  0.33346300  1
loop_
_geom_bond_atom_site_label_1
_geom_bond_atom_site_label_2
_geom_bond_distance
_geom_bond_site_symmetry_2
Ba0 S4 3.058800 1_556
Ba0 S3 3.061132 1_556
Ba0 S0 3.070740 1_555
Ba0 S10 3.371600 1_555
Ba0 S11 3.371600 1_555
Ba0 S9 3.371822 1_555
Ba0 S8 3.371822 1_555
Ba0 S6 3.380765 1_546
Ba0 S7 3.380765 1_456
S0 V3 2.299680 1_555
S0 V9 2.350109 1_555
S0 V8 2.350109 1_555
S0 V1 2.546414 1_555
S1 V9 2.317777 1_545
S1 V8 2.317777 1_455
S1 V2 2.337733 1_555
S1 V0 2.571627 1_445
S2 V10 2.319980 1_554
S2 V11 2.319980 1_554
S2 V5 2.328925 1_555
S2 V3 2.532367 1_555
S3 V4 2.309189 1_555
S3 V11 2.352072 1_544
S3 V10 2.352072 1_454
S3 V2 2.594017 1_555
S4 V1 2.295307 1_555
S4 V6 2.340085 1_555
S4 V7 2.340085 1_555
S4 V5 2.592317 1_555
S5 V0 2.329188 1_555
S5 V6 2.332909 1_655
S5 V7 2.332909 1_565
S5 V4 2.526491 1_665
S6 V9 2.341307 1_555
S6 V3 2.343155 1_555
S6 V2 2.350867 1_565
S6 V7 2.602670 1_565
S7 V8 2.341307 1_555
S7 V3 2.343155 1_555
S7 V2 2.350867 1_655
S7 V6 2.602670 1_655
S8 V4 2.337681 1_566
S8 V11 2.342208 1_555
S8 V5 2.358777 1_556
S8 V9 2.607265 1_555
S9 V4 2.337681 1_656
S9 V10 2.342208 1_555
S9 V5 2.358777 1_556
S9 V8 2.607265 1_555
S10 V7 2.335681 1_555
S10 V0 2.345251 1_545
S10 V1 2.355828 1_555
S10 V11 2.602861 1_545
S11 V6 2.335681 1_555
S11 V0 2.345251 1_455
S11 V1 2.355828 1_555
S11 V10 2.602861 1_455
S12 V10 2.443249 1_555
S12 V11 2.443249 1_555
S12 V7 2.462571 1_565
S12 V6 2.462571 1_655
S12 V8 2.486291 1_555
S12 V9 2.486291 1_555
S13 V9 2.448691 1_545
S13 V8 2.448691 1_455
S13 V7 2.477641 1_555
S13 V6 2.477641 1_555
S13 V10 2.490491 1_455
S13 V11 2.490491 1_545
S14 V0 2.463370 1_455
S14 V3 2.465702 1_555
S14 V4 2.467333 1_565
S14 V2 2.473261 1_565
S14 V5 2.473470 1_555
S14 V1 2.476372 1_555
S15 V0 2.463370 1_545
S15 V3 2.465702 1_555
S15 V4 2.467333 1_655
S15 V2 2.473261 1_655
S15 V5 2.473470 1_555
S15 V1 2.476372 1_555
