# generated using pymatgen
data_CeCrB4
_symmetry_space_group_name_H-M   'P 1'
_cell_length_a   3.54916300
_cell_length_b   5.96060400
_cell_length_c   11.52375000
_cell_angle_alpha   90.00000000
_cell_angle_beta   90.00000000
_cell_angle_gamma   90.00000000
_symmetry_Int_Tables_number   1
_chemical_formula_structural   CeCrB4
_chemical_formula_sum   'Ce4 Cr4 B16'
_cell_volume   243.78671944
_cell_formula_units_Z   4
loop_
 _symmetry_equiv_pos_site_id
 _symmetry_equiv_pos_as_xyz
  1  'x, y, z'
loop_
 _atom_site_type_symbol
 _atom_site_label
 _atom_site_symmetry_multiplicity
 _atom_site_fract_x
 _atom_site_fract_y
 _atom_site_fract_z
 _atom_site_occupancy
  Ce  Ce0  1  0.00000000  0.62397300  0.34891100  1
  Ce  Ce1  1  0.00000000  0.37602700  0.65108900  1
  Ce  Ce2  1  0.00000000  0.12397300  0.15108900  1
  Ce  Ce3  1  0.00000000  0.87602700  0.84891100  1
  Cr  Cr0  1  0.00000000  0.62356900  0.08136000  1
  Cr  Cr1  1  0.00000000  0.37643100  0.91864000  1
  Cr  Cr2  1  0.00000000  0.12356900  0.41864000  1
  Cr  Cr3  1  0.00000000  0.87643100  0.58136000  1
  B  B0  1  0.50000000  0.77912500  0.18290800  1
  B  B1  1  0.50000000  0.22087500  0.81709200  1
  B  B2  1  0.50000000  0.27912500  0.31709200  1
  B  B3  1  0.50000000  0.72087500  0.68290800  1
  B  B4  1  0.50000000  0.86008700  0.03299900  1
  B  B5  1  0.50000000  0.13991300  0.96700100  1
  B  B6  1  0.50000000  0.36008700  0.46700100  1
  B  B7  1  0.50000000  0.63991300  0.53299900  1
  B  B8  1  0.50000000  0.88796300  0.45411400  1
  B  B9  1  0.50000000  0.11203700  0.54588600  1
  B  B10  1  0.50000000  0.38796300  0.04588600  1
  B  B11  1  0.50000000  0.61203700  0.95411400  1
  B  B12  1  0.50000000  0.97546600  0.31012600  1
  B  B13  1  0.50000000  0.02453400  0.68987400  1
  B  B14  1  0.50000000  0.47546600  0.18987400  1
  B  B15  1  0.50000000  0.52453400  0.81012600  1
loop_
_geom_bond_atom_site_label_1
_geom_bond_atom_site_label_2
_geom_bond_distance
_geom_bond_site_symmetry_2
B0 B4 1.793653 1_555
B0 B14 1.811770 1_555
B0 B12 1.875864 1_555
B0 Cr0 2.319106 1_655
B0 Cr0 2.319106 1_555
B0 Ce2 2.740197 1_665
B0 Ce2 2.740197 1_565
B0 Ce0 2.768370 1_555
B0 Ce0 2.768370 1_655
B1 B5 1.793653 1_555
B1 B15 1.811770 1_555
B1 B13 1.875864 1_555
B1 Cr1 2.319106 1_555
B1 Cr1 2.319106 1_655
B1 Ce3 2.740197 1_545
B1 Ce3 2.740197 1_645
B1 Ce1 2.768370 1_555
B1 Ce1 2.768370 1_655
B2 B6 1.793653 1_555
B2 Cr2 2.319106 1_555
B2 Cr2 2.319106 1_655
B2 Ce0 2.740197 1_555
B2 Ce0 2.740197 1_655
B2 Ce2 2.768370 1_555
B2 Ce2 2.768370 1_655
B3 B7 1.793653 1_555
B3 Cr3 2.319106 1_655
B3 Cr3 2.319106 1_555
B3 Ce1 2.740197 1_555
B3 Ce1 2.740197 1_655
B3 Ce3 2.768370 1_655
B3 Ce3 2.768370 1_555
B4 B5 1.833146 1_564
B4 Cr0 2.333930 1_555
B4 Cr0 2.333930 1_655
B4 Ce2 2.734063 1_665
B4 Ce2 2.734063 1_565
B4 Ce3 2.767388 1_654
B4 Ce3 2.767388 1_554
B5 Cr1 2.333930 1_555
B5 Cr1 2.333930 1_655
B5 Ce3 2.734063 1_545
B5 Ce3 2.734063 1_645
B5 Ce2 2.767388 1_556
B5 Ce2 2.767388 1_656
B6 B9 1.735632 1_555
B6 B7 1.833146 1_555
B6 Cr2 2.333930 1_655
B6 Cr2 2.333930 1_555
B6 Ce0 2.734063 1_555
B6 Ce0 2.734063 1_655
B6 Ce1 2.767388 1_555
B6 Ce1 2.767388 1_655
B7 B8 1.735632 1_555
B7 Cr3 2.333930 1_555
B7 Cr3 2.333930 1_655
B7 Ce1 2.734063 1_555
B7 Ce1 2.734063 1_655
B7 Ce0 2.767388 1_555
B7 Ce0 2.767388 1_655
B8 B9 1.703614 1_565
B8 Cr2 2.299666 1_565
B8 Cr2 2.299666 1_665
B8 Cr3 2.303052 1_655
B8 Cr3 2.303052 1_555
B8 Ce0 2.663629 1_655
B8 Ce0 2.663629 1_555
B9 Cr3 2.299666 1_545
B9 Cr3 2.299666 1_645
B9 Cr2 2.303052 1_655
B9 Cr2 2.303052 1_555
B9 Ce1 2.663629 1_555
B9 Ce1 2.663629 1_655
B10 B11 1.703614 1_554
B10 B5 1.735632 1_554
B10 B14 1.739325 1_555
B10 Cr0 2.299666 1_655
B10 Cr0 2.299666 1_555
B10 Cr1 2.303052 1_654
B10 Cr1 2.303052 1_554
B10 Ce2 2.663629 1_655
B10 Ce2 2.663629 1_555
B11 B4 1.735632 1_556
B11 B15 1.739325 1_555
B11 Cr1 2.299666 1_655
B11 Cr1 2.299666 1_555
B11 Cr0 2.303052 1_556
B11 Cr0 2.303052 1_656
B11 Ce3 2.663629 1_655
B11 Ce3 2.663629 1_555
B12 B8 1.739325 1_555
B12 B2 1.811770 1_565
B12 Cr2 2.343537 1_565
B12 Cr2 2.343537 1_665
B12 Ce2 2.700278 1_565
B12 Ce2 2.700278 1_665
B12 Ce0 2.781796 1_555
B12 Ce0 2.781796 1_655
B13 B9 1.739325 1_555
B13 B3 1.811770 1_545
B13 Cr3 2.343537 1_545
B13 Cr3 2.343537 1_645
B13 Ce3 2.700278 1_545
B13 Ce3 2.700278 1_645
B13 Ce1 2.781796 1_655
B13 Ce1 2.781796 1_555
B14 B2 1.875864 1_555
B14 Cr0 2.343537 1_655
B14 Cr0 2.343537 1_555
B14 Ce0 2.700278 1_555
B14 Ce0 2.700278 1_655
B14 Ce2 2.781796 1_555
B14 Ce2 2.781796 1_655
B15 B3 1.875864 1_555
B15 Cr1 2.343537 1_655
B15 Cr1 2.343537 1_555
B15 Ce1 2.700278 1_555
B15 Ce1 2.700278 1_655
B15 Ce3 2.781796 1_655
B15 Ce3 2.781796 1_555
