# generated using pymatgen
data_Lu(AlCu)6
_symmetry_space_group_name_H-M   'P 1'
_cell_length_a   6.54556190
_cell_length_b   6.54556190
_cell_length_c   6.54556190
_cell_angle_alpha   135.29298165
_cell_angle_beta   99.08875187
_cell_angle_gamma   97.54601973
_symmetry_Int_Tables_number   1
_chemical_formula_structural   Lu(AlCu)6
_chemical_formula_sum   'Lu1 Al6 Cu6'
_cell_volume   182.43770286
_cell_formula_units_Z   1
loop_
 _symmetry_equiv_pos_site_id
 _symmetry_equiv_pos_as_xyz
  1  'x, y, z'
loop_
 _atom_site_type_symbol
 _atom_site_label
 _atom_site_symmetry_multiplicity
 _atom_site_fract_x
 _atom_site_fract_y
 _atom_site_fract_z
 _atom_site_occupancy
  Lu  Lu0  1  0.00000000  -0.00000000  0.00000000  1
  Al  Al0  1  0.65182730  0.65182730  0.00000000  1
  Al  Al1  1  0.34817270  0.34817270  -0.00000000  1
  Al  Al2  1  0.34574378  0.00000000  0.34574378  1
  Al  Al3  1  0.65425622  -0.00000000  0.65425622  1
  Al  Al4  1  0.19887170  0.69887170  0.50000000  1
  Al  Al5  1  0.80112830  0.30112830  0.50000000  1
  Cu  Cu0  1  0.50000000  0.50000000  0.50000000  1
  Cu  Cu1  1  0.50000000  -0.00000000  0.00000000  1
  Cu  Cu2  1  0.00000000  0.50000000  0.00000000  1
  Cu  Cu3  1  0.00000000  -0.00000000  0.50000000  1
  Cu  Cu4  1  0.77138189  0.50000000  0.27138189  1
  Cu  Cu5  1  0.22861811  0.50000000  0.72861811  1
loop_
_geom_bond_atom_site_label_1
_geom_bond_atom_site_label_2
_geom_bond_distance
_geom_bond_site_symmetry_2
Al0 Cu3 2.603124 1_665
Al0 Cu1 2.603124 1_565
Al0 Cu2 2.603124 1_655
Al0 Cu0 2.603124 1_554
Al0 Al1 2.619818 1_555
Al0 Cu4 2.651376 1_555
Al0 Cu5 2.651376 1_554
Al0 Al5 2.802925 1_565
Al0 Al5 2.802925 1_554
Al0 Lu0 3.003903 1_665
Al1 Cu2 2.603124 1_555
Al1 Cu3 2.603124 1_554
Al1 Cu1 2.603124 1_555
Al1 Cu0 2.603124 1_555
Al1 Cu5 2.651376 1_554
Al1 Cu4 2.651376 1_555
Al1 Al4 2.802925 1_544
Al1 Al4 2.802925 1_555
Al1 Lu0 3.003903 1_555
Al2 Cu1 2.619723 1_555
Al2 Cu0 2.619723 1_555
Al2 Cu2 2.619723 1_545
Al2 Cu3 2.619723 1_555
Al2 Al3 2.620595 1_555
Al2 Cu5 2.680854 1_544
Al2 Cu5 2.680854 1_555
Al2 Al5 2.909742 1_555
Al2 Al4 2.909742 1_545
Al2 Lu0 2.936849 1_555
Al3 Cu1 2.619723 1_556
Al3 Cu0 2.619723 1_545
Al3 Cu2 2.619723 1_656
Al3 Cu3 2.619723 1_655
Al3 Cu4 2.680854 1_545
Al3 Cu4 2.680854 1_556
Al3 Al5 2.909742 1_555
Al3 Al4 2.909742 1_545
Al3 Lu0 2.936849 1_656
Al4 Cu3 2.500687 1_565
Al4 Cu2 2.500687 1_555
Al4 Cu1 2.500687 1_566
Al4 Cu0 2.500687 1_555
Al4 Cu4 2.591351 1_455
Al4 Cu5 2.591351 1_555
Al4 Lu0 3.023424 1_566
Al4 Lu0 3.023424 1_555
Al5 Cu3 2.500687 1_655
Al5 Cu2 2.500687 1_656
Al5 Cu1 2.500687 1_555
Al5 Cu0 2.500687 1_555
Al5 Cu5 2.591351 1_655
Al5 Cu4 2.591351 1_555
Al5 Lu0 3.023424 1_655
Al5 Lu0 3.023424 1_666
Cu0 Cu1 2.489408 1_555
Cu0 Cu1 2.489408 1_566
Cu0 Cu5 2.496902 1_555
Cu0 Cu4 2.496902 1_555
Cu0 Lu0 3.272781 1_555
Cu0 Lu0 3.272781 1_666
Cu1 Cu4 2.496902 1_555
Cu1 Cu5 2.496902 1_544
Cu1 Lu0 3.272781 1_555
Cu1 Lu0 3.272781 1_655
Cu2 Cu3 2.489408 1_565
Cu2 Cu3 2.489408 1_554
Cu2 Cu4 2.496902 1_455
Cu2 Cu5 2.496902 1_554
Cu2 Lu0 3.272781 1_555
Cu2 Lu0 3.272781 1_565
Cu3 Cu5 2.496902 1_555
Cu3 Cu4 2.496902 1_445
Cu3 Lu0 3.272781 1_556
Cu3 Lu0 3.272781 1_555
Cu4 Lu0 3.157265 1_655
Cu4 Lu0 3.157265 1_666
Cu5 Lu0 3.157265 1_555
Cu5 Lu0 3.157265 1_566
