# generated using pymatgen
data_Ga3Sb7(S4Cl7)2
_symmetry_space_group_name_H-M   'P 1'
_cell_length_a   12.12852566
_cell_length_b   8.92334323
_cell_length_c   17.31685389
_cell_angle_alpha   86.94669732
_cell_angle_beta   90.00000000
_cell_angle_gamma   90.00000000
_symmetry_Int_Tables_number   1
_chemical_formula_structural   Ga3Sb7(S4Cl7)2
_chemical_formula_sum   'Ga6 Sb14 S16 Cl28'
_cell_volume   1871.49058223
_cell_formula_units_Z   2
loop_
 _symmetry_equiv_pos_site_id
 _symmetry_equiv_pos_as_xyz
  1  'x, y, z'
loop_
 _atom_site_type_symbol
 _atom_site_label
 _atom_site_symmetry_multiplicity
 _atom_site_fract_x
 _atom_site_fract_y
 _atom_site_fract_z
 _atom_site_occupancy
  Ga  Ga0  1  0.13793185  0.71707408  0.96450494  1
  Ga  Ga1  1  0.63793185  0.28292592  0.03549506  1
  Ga  Ga2  1  0.61748443  0.77006371  0.73546070  1
  Ga  Ga3  1  0.11748443  0.22993629  0.26453930  1
  Ga  Ga4  1  0.13679657  0.72822451  0.52857352  1
  Ga  Ga5  1  0.63679657  0.27177549  0.47142648  1
  Sb  Sb0  1  0.13148818  0.31244687  0.75494039  1
  Sb  Sb1  1  0.63148818  0.68755313  0.24505961  1
  Sb  Sb2  1  0.92258822  0.04675481  0.85052996  1
  Sb  Sb3  1  0.42258822  0.95324519  0.14947004  1
  Sb  Sb4  1  0.85623111  0.43675607  0.84871751  1
  Sb  Sb5  1  0.35623111  0.56324393  0.15128249  1
  Sb  Sb6  1  0.85002608  0.25024941  0.65337742  1
  Sb  Sb7  1  0.35002608  0.74975059  0.34662258  1
  Sb  Sb8  1  0.40646315  0.42671196  0.65678966  1
  Sb  Sb9  1  0.90646315  0.57328804  0.34321034  1
  Sb  Sb10  1  0.33895649  0.03690529  0.67752427  1
  Sb  Sb11  1  0.83895649  0.96309471  0.32247573  1
  Sb  Sb12  1  0.41469858  0.24458916  0.86169907  1
  Sb  Sb13  1  0.91469858  0.75541084  0.13830093  1
  S  S0  1  0.00973663  0.08727167  0.71573419  1
  S  S1  1  0.50973663  0.91272833  0.28426581  1
  S  S2  1  0.75765641  0.20151240  0.82407793  1
  S  S3  1  0.25765641  0.79848760  0.17592207  1
  S  S4  1  0.02098680  0.27593848  0.89249918  1
  S  S5  1  0.52098680  0.72406152  0.10750082  1
  S  S6  1  0.92165874  0.47563586  0.71263904  1
  S  S7  1  0.42165874  0.52436414  0.28736096  1
  S  S8  1  0.24386892  0.26484704  0.61981961  1
  S  S9  1  0.74386892  0.73515296  0.38018039  1
  S  S10  1  0.50421468  0.18976537  0.69467025  1
  S  S11  1  0.00421468  0.81023463  0.30532975  1
  S  S12  1  0.25299911  0.08776645  0.81009526  1
  S  S13  1  0.75299911  0.91223355  0.18990474  1
  S  S14  1  0.34075938  0.47097761  0.79117055  1
  S  S15  1  0.84075938  0.52902239  0.20882945  1
  Cl  Cl0  1  0.30346920  0.28169693  0.97348427  1
  Cl  Cl1  1  0.80346920  0.71830307  0.02651573  1
  Cl  Cl2  1  0.96828921  0.30790623  0.54667991  1
  Cl  Cl3  1  0.46828921  0.69209377  0.45332009  1
  Cl  Cl4  1  0.31640608  0.71056092  0.96475237  1
  Cl  Cl5  1  0.81640608  0.28943908  0.03524763  1
  Cl  Cl6  1  0.07329089  0.54589684  0.04831825  1
  Cl  Cl7  1  0.57329089  0.45410316  0.95168175  1
  Cl  Cl8  1  0.08381481  0.93904898  0.99730439  1
  Cl  Cl9  1  0.58381481  0.06095102  0.00269561  1
  Cl  Cl10  1  0.07071191  0.67683308  0.84902508  1
  Cl  Cl11  1  0.57071191  0.32316692  0.15097492  1
  Cl  Cl12  1  0.62930797  0.52295905  0.75356850  1
  Cl  Cl13  1  0.12930797  0.47704095  0.24643150  1
  Cl  Cl14  1  0.54338620  0.81421789  0.62301175  1
  Cl  Cl15  1  0.04338620  0.18578211  0.37698825  1
  Cl  Cl16  1  0.78872922  0.84939986  0.73789075  1
  Cl  Cl17  1  0.28872922  0.15060014  0.26210925  1
  Cl  Cl18  1  0.51336569  0.86285309  0.82297713  1
  Cl  Cl19  1  0.01336569  0.13714691  0.17702287  1
  Cl  Cl20  1  0.19275445  0.65224825  0.64611457  1
  Cl  Cl21  1  0.69275445  0.34775175  0.35388543  1
  Cl  Cl22  1  0.95968406  0.75558400  0.52583634  1
  Cl  Cl23  1  0.45968406  0.24441600  0.47416366  1
  Cl  Cl24  1  0.18490615  0.55735087  0.44735520  1
  Cl  Cl25  1  0.68490615  0.44264913  0.55264480  1
  Cl  Cl26  1  0.22528782  0.93659015  0.49968191  1
  Cl  Cl27  1  0.72528782  0.06340985  0.50031809  1
loop_
_geom_bond_atom_site_label_1
_geom_bond_atom_site_label_2
_geom_bond_distance
_geom_bond_site_symmetry_2
S0 Sb2 2.570349 1_455
S0 Sb0 2.612310 1_555
S0 Sb6 2.620288 1_455
S1 Sb3 2.570349 1_555
S1 Sb1 2.612310 1_555
S1 Sb7 2.620288 1_555
S2 Sb2 2.459877 1_555
S2 Sb4 2.472513 1_555
S3 Sb3 2.459877 1_555
S3 Sb5 2.472513 1_555
S4 Sb2 2.508622 1_455
S4 Sb4 2.551704 1_455
S4 Sb0 2.737513 1_555
S5 Sb3 2.508622 1_555
S5 Sb5 2.551704 1_555
S5 Sb1 2.737513 1_555
S6 Sb6 2.464295 1_555
S6 Sb4 2.493159 1_555
S6 Sb0 3.003345 1_655
S7 Sb7 2.464295 1_555
S7 Sb5 2.493159 1_555
S7 Sb1 3.003345 1_555
S8 Sb10 2.499841 1_555
S8 Sb8 2.546270 1_555
S8 Sb0 2.760266 1_555
S9 Sb11 2.499841 1_555
S9 Sb9 2.546270 1_555
S9 Sb1 2.760266 1_555
S10 Sb10 2.451374 1_555
S10 Sb8 2.481663 1_555
S11 Sb11 2.451374 1_455
S11 Sb9 2.481663 1_455
S12 Sb10 2.583438 1_555
S12 Sb12 2.595429 1_555
S12 Sb0 2.626747 1_555
S13 Sb11 2.583438 1_555
S13 Sb13 2.595429 1_555
S13 Sb1 2.626747 1_555
S14 Sb12 2.472648 1_555
S14 Sb8 2.510808 1_555
S14 Sb0 2.988569 1_555
S15 Sb13 2.472648 1_555
S15 Sb9 2.510808 1_555
S15 Sb1 2.988569 1_555
Cl0 Sb12 2.396885 1_555
Cl1 Sb13 2.396885 1_555
Cl2 Sb6 2.373748 1_555
Cl3 Sb7 2.373748 1_555
Cl4 Ga0 2.165407 1_555
Cl5 Ga1 2.165407 1_555
Cl6 Ga0 2.195033 1_554
Cl7 Ga1 2.195033 1_556
Cl8 Ga0 2.190129 1_555
Cl9 Ga1 2.190129 1_555
Cl10 Ga0 2.206606 1_555
Cl11 Ga1 2.206606 1_555
Cl12 Ga2 2.215233 1_555
Cl13 Ga3 2.215233 1_555
Cl14 Ga2 2.161712 1_555
Cl15 Ga3 2.161712 1_555
Cl16 Ga2 2.195413 1_555
Cl17 Ga3 2.195413 1_555
Cl18 Ga2 2.170414 1_555
Cl19 Ga3 2.170414 1_555
Cl20 Ga4 2.217265 1_555
Cl21 Ga5 2.217265 1_555
Cl22 Ga4 2.162177 1_655
Cl23 Ga5 2.162177 1_555
Cl24 Ga4 2.207242 1_555
Cl25 Ga5 2.207242 1_555
Cl26 Ga4 2.181784 1_555
Cl27 Ga5 2.181784 1_555
