# generated using pymatgen
data_Tb3Sm
_symmetry_space_group_name_H-M   'P 1'
_cell_length_a   7.29353522
_cell_length_b   7.29353576
_cell_length_c   5.83679585
_cell_angle_alpha   90.00000000
_cell_angle_beta   90.00000000
_cell_angle_gamma   120.00000544
_symmetry_Int_Tables_number   1
_chemical_formula_structural   Tb3Sm
_chemical_formula_sum   'Tb6 Sm2'
_cell_volume   268.89412432
_cell_formula_units_Z   2
loop_
 _symmetry_equiv_pos_site_id
 _symmetry_equiv_pos_as_xyz
  1  'x, y, z'
loop_
 _atom_site_type_symbol
 _atom_site_label
 _atom_site_symmetry_multiplicity
 _atom_site_fract_x
 _atom_site_fract_y
 _atom_site_fract_z
 _atom_site_occupancy
  Tb  Tb0  1  0.16572821  0.33145542  0.25000000  1
  Tb  Tb1  1  0.66854458  0.83427179  0.25000000  1
  Tb  Tb2  1  0.16572821  0.83427179  0.25000000  1
  Tb  Tb3  1  0.83427179  0.66854458  0.75000000  1
  Tb  Tb4  1  0.33145542  0.16572821  0.75000000  1
  Tb  Tb5  1  0.83427179  0.16572821  0.75000000  1
  Sm  Sm0  1  0.33333300  0.66666700  0.75000000  1
  Sm  Sm1  1  0.66666700  0.33333300  0.25000000  1
loop_
_geom_bond_atom_site_label_1
_geom_bond_atom_site_label_2
_geom_bond_distance
_geom_bond_site_symmetry_2
Tb0 Tb4 3.591683 1_555
Tb0 Tb4 3.591683 1_554
Tb0 Tb5 3.591690 1_454
Tb0 Tb5 3.591690 1_455
Tb0 Tb1 3.626226 1_445
Tb0 Tb2 3.626227 1_545
Tb0 Tb1 3.667309 1_555
Tb0 Tb2 3.667309 1_555
Tb1 Tb3 3.591683 1_554
Tb1 Tb3 3.591683 1_555
Tb1 Tb5 3.591690 1_565
Tb1 Tb5 3.591690 1_564
Tb1 Tb2 3.626226 1_655
Tb1 Tb2 3.667309 1_555
Tb2 Tb3 3.591690 1_454
Tb2 Tb3 3.591690 1_455
Tb2 Tb4 3.591690 1_565
Tb2 Tb4 3.591690 1_564
Tb3 Tb4 3.626226 1_665
Tb3 Tb5 3.626227 1_565
Tb3 Tb4 3.667309 1_555
Tb3 Tb5 3.667309 1_555
Tb4 Tb5 3.626226 1_455
Tb4 Tb5 3.667309 1_555
Sm0 Tb2 3.605560 1_555
Sm0 Tb2 3.605560 1_556
Sm0 Tb1 3.605567 1_555
Sm0 Tb1 3.605567 1_556
Sm0 Tb0 3.605567 1_555
Sm0 Tb0 3.605567 1_556
Sm0 Tb5 3.646787 1_565
Sm0 Tb5 3.646787 1_455
Sm0 Tb3 3.646787 1_555
Sm0 Tb3 3.646787 1_455
Sm0 Tb4 3.646787 1_555
Sm0 Tb4 3.646787 1_565
Sm1 Tb5 3.605560 1_554
Sm1 Tb5 3.605560 1_555
Sm1 Tb4 3.605567 1_554
Sm1 Tb4 3.605567 1_555
Sm1 Tb3 3.605567 1_555
Sm1 Tb3 3.605567 1_554
Sm1 Tb2 3.646787 1_545
Sm1 Tb2 3.646787 1_655
Sm1 Tb0 3.646787 1_555
Sm1 Tb0 3.646787 1_655
Sm1 Tb1 3.646787 1_555
Sm1 Tb1 3.646787 1_545
