# generated using pymatgen
data_In2O3
_symmetry_space_group_name_H-M   'P 1'
_cell_length_a   11.83071667
_cell_length_b   11.36463494
_cell_length_c   11.37804769
_cell_angle_alpha   93.14057407
_cell_angle_beta   89.77572221
_cell_angle_gamma   86.18068653
_symmetry_Int_Tables_number   1
_chemical_formula_structural   In2O3
_chemical_formula_sum   'In40 O60'
_cell_volume   1524.06475761
_cell_formula_units_Z   20
loop_
 _symmetry_equiv_pos_site_id
 _symmetry_equiv_pos_as_xyz
  1  'x, y, z'
loop_
 _atom_site_type_symbol
 _atom_site_label
 _atom_site_symmetry_multiplicity
 _atom_site_fract_x
 _atom_site_fract_y
 _atom_site_fract_z
 _atom_site_occupancy
  In  In0  1  0.82899631  0.46018796  0.17099531  1
  In  In1  1  0.21477073  0.99332223  0.02349274  1
  In  In2  1  0.48241411  0.88323057  0.11815692  1
  In  In3  1  0.92385214  0.40128313  0.90325050  1
  In  In4  1  0.01887020  0.67154655  0.93586412  1
  In  In5  1  0.75060255  0.04596698  0.67217626  1
  In  In6  1  0.15743638  0.20811023  0.83393852  1
  In  In7  1  0.39743220  0.21585732  0.02765407  1
  In  In8  1  0.24871281  0.69786436  0.12815061  1
  In  In9  1  0.74833527  0.57022164  0.43574689  1
  In  In10  1  0.34177230  0.99178580  0.61839466  1
  In  In11  1  0.66527924  0.11963345  0.20011636  1
  In  In12  1  0.83876391  0.31278791  0.66417081  1
  In  In13  1  0.00209830  0.90786541  0.19251063  1
  In  In14  1  0.23728015  0.24730508  0.48718347  1
  In  In15  1  0.70326448  0.22011843  0.95638915  1
  In  In16  1  0.52912857  -0.00156660  0.86063522  1
  In  In17  1  0.91730620  0.83232500  0.52093221  1
  In  In18  1  0.57057866  0.36522183  0.44122441  1
  In  In19  1  0.52583425  0.63575652  0.92969420  1
  In  In20  1  0.28956442  0.79393206  0.81520824  1
  In  In21  1  0.22590150  0.50918671  0.80848990  1
  In  In22  1  0.97903391  0.16672480  0.12246617  1
  In  In23  1  0.06443233  0.93159290  0.72211319  1
  In  In24  1  0.29497628  0.41051928  0.32163886  1
  In  In25  1  0.53588064  0.42288017  0.17195273  1
  In  In26  1  0.04056397  0.47732316  0.59201041  1
  In  In27  1  0.20145283  0.68972699  0.54740904  1
  In  In28  1  0.45141573  0.68539721  0.37650620  1
  In  In29  1  0.98031012  0.12775963  0.46438881  1
  In  In30  1  0.28101525  0.90943931  0.35113906  1
  In  In31  1  0.74719526  0.81181384  0.28007867  1
  In  In32  1  0.01260289  0.63606218  0.29802220  1
  In  In33  1  0.10525266  0.45356980  0.10505461  1
  In  In34  1  0.78781650  0.61631847  0.72591610  1
  In  In35  1  0.59669998  0.81230178  0.57859410  1
  In  In36  1  0.51211729  0.05523249  0.42657339  1
  In  In37  1  0.41752585  0.24832421  0.71560438  1
  In  In38  1  0.49679927  0.54422884  0.65864997  1
  In  In39  1  0.75684804  0.85874406  0.95894709  1
  O  O0  1  0.80325763  0.17354012  0.11615825  1
  O  O1  1  0.02909640  0.00329308  0.03785791  1
  O  O2  1  0.89116037  0.91851083  0.69384128  1
  O  O3  1  0.85201812  0.72409637  0.86871663  1
  O  O4  1  0.17453715  0.01805336  0.83031738  1
  O  O5  1  0.22756845  0.17701731  0.00893566  1
  O  O6  1  0.58891140  0.79847613  0.98985499  1
  O  O7  1  0.82160973  0.87318280  0.13127557  1
  O  O8  1  0.21472539  0.52025429  0.61263678  1
  O  O9  1  0.26467918  0.73083179  0.38959200  1
  O  O10  1  0.49811803  0.18989934  0.86770049  1
  O  O11  1  0.06295220  0.28809981  0.51151507  1
  O  O12  1  0.77590495  0.93828333  0.42828952  1
  O  O13  1  0.82313410  0.62559379  0.27829429  1
  O  O14  1  0.94761719  0.53898029  0.03388819  1
  O  O15  1  0.45285122  0.37493612  0.59660789  1
  O  O16  1  0.67643545  0.02804923  0.96424356  1
  O  O17  1  0.03097758  0.65689399  0.49695137  1
  O  O18  1  0.79396446  0.44894794  0.78667293  1
  O  O19  1  0.44164912  0.89416847  0.46919560  1
  O  O20  1  0.57347464  0.24650713  0.09326363  1
  O  O21  1  0.04100739  0.51516151  0.78779819  1
  O  O22  1  0.03299207  0.30334670  0.02796081  1
  O  O23  1  0.99105873  0.44797631  0.25678756  1
  O  O24  1  0.05064282  0.96863278  0.52970874  1
  O  O25  1  0.94148907  0.81453654  0.33614931  1
  O  O26  1  0.49151245  0.10029390  0.61212699  1
  O  O27  1  0.11059490  0.76731902  0.81680523  1
  O  O28  1  0.19839144  0.54983719  0.23910203  1
  O  O29  1  0.28839876  0.33732860  0.83361391  1
  O  O30  1  0.18826772  0.56795222  0.98765463  1
  O  O31  1  0.68391676  0.42967887  0.28892885  1
  O  O32  1  0.77327340  0.71652146  0.57238259  1
  O  O33  1  0.57846177  0.20151719  0.35518527  1
  O  O34  1  0.25808937  0.16762921  0.65553145  1
  O  O35  1  0.37585239  0.61370865  0.80563254  1
  O  O36  1  0.62672206  0.72476204  0.38361290  1
  O  O37  1  0.76741886  0.38785391  0.01357564  1
  O  O38  1  0.39409708  0.78027949  0.22563868  1
  O  O39  1  0.46237674  0.69060645  0.56413259  1
  O  O40  1  0.22769177  0.84830404  0.63923974  1
  O  O41  1  0.41693034  0.02368836  0.02680968  1
  O  O42  1  0.61134128  0.62731442  0.77284639  1
  O  O43  1  0.82390147  0.16834488  0.54880646  1
  O  O44  1  0.41216251  0.90580749  0.76506937  1
  O  O45  1  0.64869797  0.91218267  0.73348620  1
  O  O46  1  0.99212689  0.26481597  0.77786179  1
  O  O47  1  0.36951399  0.34796282  0.16188916  1
  O  O48  1  0.45401527  0.49254879  0.34861059  1
  O  O49  1  0.48362123  0.56735154  0.08039298  1
  O  O50  1  0.74165355  0.20196758  0.77752748  1
  O  O51  1  0.64644177  0.48358662  0.55098876  1
  O  O52  1  0.58976649  0.96617851  0.24968260  1
  O  O53  1  0.18909994  0.92945239  0.20101450  1
  O  O54  1  0.67559470  0.97261178  0.50378790  1
  O  O55  1  0.86972963  0.47321954  0.55955322  1
  O  O56  1  0.06413896  0.72874948  0.13368404  1
  O  O57  1  0.31366269  0.08163197  0.41815447  1
  O  O58  1  0.98474724  0.08873147  0.28487261  1
  O  O59  1  0.30629531  0.81449743  0.00033996  1
loop_
_geom_bond_atom_site_label_1
_geom_bond_atom_site_label_2
_geom_bond_distance
_geom_bond_site_symmetry_2
In0 O37 2.084056 1_555
In0 O23 2.154592 1_555
In0 O13 2.181596 1_555
In0 O31 2.231374 1_555
In0 O14 2.346964 1_555
In1 O5 2.118572 1_565
In1 O1 2.197014 1_565
In1 O53 2.210003 1_555
In1 O59 2.240080 1_555
In1 O4 2.279176 1_564
In1 O41 2.439252 1_565
In2 O41 2.061992 1_565
In2 O38 2.065387 1_555
In2 O6 2.077536 1_554
In2 O52 2.181973 1_555
In2 O59 2.621558 1_555
In3 O18 2.097133 1_555
In3 O14 2.131737 1_556
In3 O46 2.162127 1_555
In3 O22 2.217067 1_656
In3 O37 2.250471 1_556
In3 O21 2.394284 1_655
In4 O27 2.122438 1_555
In4 O14 2.137811 1_456
In4 O3 2.177547 1_455
In4 O30 2.349604 1_555
In4 O56 2.381398 1_556
In4 O21 2.381579 1_555
In5 O50 2.081430 1_555
In5 O45 2.146062 1_545
In5 O2 2.155360 1_545
In5 O43 2.240919 1_555
In5 O54 2.256125 1_545
In6 O46 2.129366 1_455
In6 O4 2.154038 1_555
In6 O5 2.197461 1_556
In6 O29 2.204723 1_555
In6 O34 2.357118 1_555
In7 O47 2.091548 1_555
In7 O5 2.095221 1_555
In7 O10 2.166930 1_554
In7 O41 2.180235 1_555
In7 O20 2.257566 1_555
In8 O59 2.158604 1_555
In8 O56 2.188572 1_555
In8 O30 2.266622 1_554
In8 O28 2.266803 1_555
In8 O38 2.276345 1_555
In9 O51 2.104536 1_555
In9 O13 2.138662 1_555
In9 O32 2.248127 1_555
In9 O55 2.288521 1_555
In9 O36 2.300152 1_555
In9 O31 2.408793 1_555
In10 O44 2.124744 1_555
In10 O34 2.189273 1_565
In10 O40 2.206761 1_555
In10 O26 2.227951 1_565
In10 O19 2.260991 1_555
In10 O57 2.561175 1_565
In11 O0 2.034132 1_555
In11 O52 2.113988 1_545
In11 O33 2.170842 1_555
In11 O20 2.174980 1_555
In12 O43 2.062211 1_555
In12 O18 2.065621 1_555
In12 O50 2.220086 1_555
In12 O55 2.280072 1_555
In12 O46 2.286148 1_555
In13 O25 2.142953 1_455
In13 O1 2.150666 1_565
In13 O56 2.185904 1_555
In13 O53 2.243988 1_555
In13 O58 2.253203 1_465
In13 O7 2.300875 1_455
In14 O11 2.097442 1_555
In14 O57 2.141078 1_555
In14 O34 2.171079 1_555
In15 O50 2.079597 1_555
In15 O37 2.166552 1_556
In15 O20 2.177581 1_556
In15 O16 2.233111 1_555
In15 O0 2.241236 1_556
In15 O10 2.668136 1_555
In16 O44 2.070200 1_545
In16 O16 2.142640 1_555
In16 O45 2.167652 1_545
In16 O10 2.179456 1_555
In16 O41 2.299862 1_556
In17 O25 2.117572 1_555
In17 O2 2.160859 1_555
In17 O24 2.282077 1_655
In17 O12 2.290021 1_555
In17 O32 2.313817 1_555
In17 O17 2.331992 1_655
In18 O51 2.039686 1_555
In18 O33 2.050588 1_555
In18 O15 2.239780 1_555
In18 O48 2.240231 1_555
In18 O31 2.364100 1_555
In19 O49 1.996217 1_556
In19 O42 2.042452 1_555
In19 O6 2.119978 1_555
In19 O35 2.289955 1_555
In20 O44 2.089106 1_555
In20 O59 2.118104 1_556
In20 O27 2.158828 1_555
In20 O35 2.223769 1_555
In20 O40 2.239003 1_555
In21 O29 2.076891 1_555
In21 O30 2.145700 1_555
In21 O21 2.197927 1_555
In21 O35 2.200849 1_555
In21 O8 2.242764 1_555
In22 O22 2.069807 1_655
In22 O0 2.077507 1_555
In22 O58 2.092198 1_555
In22 O1 2.092923 1_655
In23 O4 2.056346 1_565
In23 O2 2.090054 1_455
In23 O27 2.243572 1_555
In23 O24 2.256318 1_555
In23 O40 2.271579 1_555
In24 O47 2.085476 1_555
In24 O28 2.150522 1_555
In24 O48 2.170323 1_555
In25 O49 2.054382 1_555
In25 O20 2.167622 1_555
In25 O47 2.196882 1_555
In25 O31 2.206749 1_555
In25 O48 2.305067 1_555
In26 O55 2.059098 1_455
In26 O8 2.159574 1_555
In26 O21 2.245650 1_555
In26 O11 2.289073 1_555
In26 O17 2.357829 1_555
In27 O9 2.032252 1_555
In27 O40 2.075246 1_555
In27 O8 2.098134 1_555
In27 O17 2.149963 1_555
In28 O39 2.137084 1_555
In28 O36 2.151536 1_555
In28 O38 2.164195 1_555
In28 O48 2.195393 1_555
In28 O9 2.237521 1_555
In28 O19 2.538348 1_555
In29 O58 2.065977 1_555
In29 O43 2.093617 1_555
In29 O24 2.113470 1_645
In29 O11 2.167550 1_655
In30 O53 2.043544 1_555
In30 O9 2.120804 1_555
In30 O57 2.121222 1_565
In30 O19 2.334012 1_555
In30 O38 2.340345 1_555
In31 O7 2.080275 1_555
In31 O36 2.168017 1_555
In31 O12 2.197467 1_555
In31 O13 2.242372 1_555
In31 O25 2.389662 1_555
In31 O52 2.510439 1_555
In32 O25 2.164117 1_455
In32 O23 2.194935 1_455
In32 O13 2.263986 1_455
In32 O17 2.275608 1_555
In32 O56 2.295666 1_555
In32 O28 2.422904 1_555
In33 O22 2.109772 1_555
In33 O28 2.174457 1_555
In33 O30 2.188318 1_554
In33 O23 2.194306 1_455
In33 O14 2.220954 1_455
In34 O18 2.056021 1_555
In34 O32 2.138300 1_555
In34 O42 2.146852 1_555
In34 O3 2.152365 1_555
In34 O55 2.570074 1_555
In35 O45 2.157586 1_555
In35 O39 2.176029 1_555
In35 O32 2.289369 1_555
In35 O54 2.303275 1_555
In35 O19 2.386900 1_555
In35 O36 2.396369 1_555
In36 O33 2.087212 1_555
In36 O19 2.139651 1_545
In36 O26 2.154037 1_555
In36 O54 2.292557 1_545
In36 O57 2.350043 1_555
In36 O52 2.357437 1_545
In37 O15 2.089836 1_555
In37 O10 2.097443 1_555
In37 O26 2.135714 1_555
In37 O29 2.188392 1_555
In37 O34 2.244548 1_555
In38 O39 2.049124 1_555
In38 O15 2.111294 1_555
In38 O42 2.113291 1_555
In38 O51 2.199487 1_555
In38 O35 2.270203 1_555
In39 O3 2.062180 1_555
In39 O16 2.086575 1_565
In39 O7 2.109928 1_556
In39 O6 2.177710 1_555
O12 O54 1.480574 1_555
