# generated using pymatgen
data_Na3Gd(CO3)3
_symmetry_space_group_name_H-M   'P 1'
_cell_length_a   6.60919182
_cell_length_b   6.60919182
_cell_length_c   10.03651700
_cell_angle_alpha   90.00000000
_cell_angle_beta   90.00000000
_cell_angle_gamma   114.12296117
_symmetry_Int_Tables_number   1
_chemical_formula_structural   Na3Gd(CO3)3
_chemical_formula_sum   'Na6 Gd2 C6 O18'
_cell_volume   400.12320132
_cell_formula_units_Z   2
loop_
 _symmetry_equiv_pos_site_id
 _symmetry_equiv_pos_as_xyz
  1  'x, y, z'
loop_
 _atom_site_type_symbol
 _atom_site_label
 _atom_site_symmetry_multiplicity
 _atom_site_fract_x
 _atom_site_fract_y
 _atom_site_fract_z
 _atom_site_occupancy
  Na  Na0  1  0.60814200  0.64366000  0.75000000  1
  Na  Na1  1  0.64366000  0.60814200  0.25000000  1
  Na  Na2  1  0.94488600  0.94488600  0.00000000  1
  Na  Na3  1  0.94488600  0.94488600  0.50000000  1
  Na  Na4  1  0.21593100  0.80516300  0.75000000  1
  Na  Na5  1  0.80516300  0.21593100  0.25000000  1
  Gd  Gd0  1  0.78562000  0.24109000  0.75000000  1
  Gd  Gd1  1  0.24109000  0.78562000  0.25000000  1
  C  C0  1  0.22868100  0.25166200  0.75000000  1
  C  C1  1  0.25166200  0.22868100  0.25000000  1
  C  C2  1  0.48181500  0.89095600  0.00090100  1
  C  C3  1  0.89095600  0.48181500  0.99909900  1
  C  C4  1  0.48181500  0.89095600  0.49909900  1
  C  C5  1  0.89095600  0.48181500  0.50090100  1
  O  O0  1  0.20422400  0.43614900  0.75000000  1
  O  O1  1  0.43614900  0.20422400  0.25000000  1
  O  O2  1  0.57990700  0.91051500  0.88672800  1
  O  O3  1  0.91051500  0.57990700  0.11327200  1
  O  O4  1  0.57990700  0.91051500  0.61327200  1
  O  O5  1  0.91051500  0.57990700  0.38672800  1
  O  O6  1  0.85411500  0.57123200  0.89083800  1
  O  O7  1  0.57123200  0.85411500  0.10916200  1
  O  O8  1  0.85411500  0.57123200  0.60916200  1
  O  O9  1  0.57123200  0.85411500  0.39083800  1
  O  O10  1  0.42177900  0.24654000  0.75000000  1
  O  O11  1  0.24654000  0.42177900  0.25000000  1
  O  O12  1  0.90224100  0.29214000  0.98900800  1
  O  O13  1  0.29214000  0.90224100  0.01099200  1
  O  O14  1  0.90224100  0.29214000  0.51099200  1
  O  O15  1  0.29214000  0.90224100  0.48900800  1
  O  O16  1  0.04713200  0.06611500  0.75000000  1
  O  O17  1  0.06611500  0.04713200  0.25000000  1
loop_
_geom_bond_atom_site_label_1
_geom_bond_atom_site_label_2
_geom_bond_distance
_geom_bond_site_symmetry_2
Na0 O2 2.301652 1_555
Na0 O4 2.301652 1_555
Na0 O6 2.346514 1_555
Na0 O8 2.346514 1_555
Na0 O10 2.400706 1_555
Na0 O0 2.452525 1_555
Na1 O5 2.301652 1_555
Na1 O3 2.301652 1_555
Na1 O9 2.346514 1_555
Na1 O7 2.346514 1_555
Na1 O11 2.400706 1_555
Na1 O1 2.452525 1_555
Na2 O13 2.426456 1_655
Na2 O12 2.426456 1_564
Na2 O7 2.539280 1_555
Na2 O6 2.539280 1_554
Na2 O3 2.591318 1_555
Na2 O2 2.591318 1_554
Na2 O17 2.636623 1_665
Na2 O16 2.636623 1_664
Na3 O15 2.426456 1_655
Na3 O14 2.426456 1_565
Na3 O8 2.539280 1_555
Na3 O9 2.539280 1_555
Na3 O4 2.591318 1_555
Na3 O5 2.591318 1_555
Na3 O17 2.636623 1_665
Na3 O16 2.636623 1_665
Na4 O16 2.406635 1_565
Na4 O0 2.408297 1_555
Na4 O2 2.604934 1_555
Na4 O4 2.604934 1_555
Na4 O6 2.661723 1_455
Na4 O8 2.661723 1_455
Na4 O10 2.667704 1_565
Na4 O13 2.694944 1_556
Na4 O15 2.694944 1_555
Na5 O17 2.406635 1_655
Na5 O1 2.408297 1_555
Na5 O5 2.604934 1_555
Na5 O3 2.604934 1_555
Na5 O9 2.661723 1_545
Na5 O7 2.661723 1_545
Na5 O11 2.667704 1_655
Na5 O12 2.694944 1_554
Na5 O14 2.694944 1_555
Gd0 O10 2.419640 1_555
Gd0 O16 2.440995 1_655
Gd0 O2 2.465173 1_545
Gd0 O4 2.465173 1_545
Gd0 O6 2.481247 1_555
Gd0 O8 2.481247 1_555
Gd0 O14 2.499927 1_555
Gd0 O12 2.499927 1_555
Gd0 O0 2.529993 1_655
Gd1 O11 2.419640 1_555
Gd1 O17 2.440995 1_565
Gd1 O5 2.465173 1_455
Gd1 O3 2.465173 1_455
Gd1 O9 2.481247 1_555
Gd1 O7 2.481247 1_555
Gd1 O15 2.499927 1_555
Gd1 O13 2.499927 1_555
Gd1 O1 2.529993 1_565
C0 O10 1.290427 1_555
C0 O0 1.293810 1_555
C0 O16 1.319410 1_555
C1 O11 1.290427 1_555
C1 O1 1.293810 1_555
C1 O17 1.319410 1_555
C2 O13 1.289866 1_555
C2 O2 1.296764 1_554
C2 O7 1.306437 1_555
C3 O12 1.289866 1_555
C3 O3 1.296764 1_556
C3 O6 1.306437 1_555
C4 O15 1.289866 1_555
C4 O4 1.296764 1_555
C4 O9 1.306437 1_555
C5 O14 1.289866 1_555
C5 O5 1.296764 1_555
C5 O8 1.306437 1_555
