# generated using pymatgen
data_ReW3
_symmetry_space_group_name_H-M   'P 1'
_cell_length_a   5.48970150
_cell_length_b   5.48970150
_cell_length_c   17.95936600
_cell_angle_alpha   90.00000000
_cell_angle_beta   90.00000000
_cell_angle_gamma   109.77619908
_symmetry_Int_Tables_number   1
_chemical_formula_structural   ReW3
_chemical_formula_sum   'Re8 W24'
_cell_volume   509.31675415
_cell_formula_units_Z   8
loop_
 _symmetry_equiv_pos_site_id
 _symmetry_equiv_pos_as_xyz
  1  'x, y, z'
loop_
 _atom_site_type_symbol
 _atom_site_label
 _atom_site_symmetry_multiplicity
 _atom_site_fract_x
 _atom_site_fract_y
 _atom_site_fract_z
 _atom_site_occupancy
  Re  Re0_0  1  0.00000000  0.00000000  0.00000000  1
  Re  Re0_1  1  0.00000000  0.00000000  0.50000000  1
  Re  Re0_2  1  0.00000000  0.50000000  0.00000000  1
  Re  Re0_3  1  0.00000000  0.50000000  0.50000000  1
  Re  Re0_4  1  0.50000000  0.00000000  0.00000000  1
  Re  Re0_5  1  0.50000000  0.00000000  0.50000000  1
  Re  Re0_6  1  0.50000000  0.50000000  0.00000000  1
  Re  Re0_7  1  0.50000000  0.50000000  0.50000000  1
  W  W0_0  1  0.25000000  0.25000000  0.37536000  1
  W  W0_1  1  0.25000000  0.25000000  0.87536000  1
  W  W0_2  1  0.25000000  0.75000000  0.37536000  1
  W  W0_3  1  0.25000000  0.75000000  0.87536000  1
  W  W0_4  1  0.75000000  0.25000000  0.37536000  1
  W  W0_5  1  0.75000000  0.25000000  0.87536000  1
  W  W0_6  1  0.75000000  0.75000000  0.37536000  1
  W  W0_7  1  0.75000000  0.75000000  0.87536000  1
  W  W1_0  1  0.00000000  0.00000000  0.25000000  1
  W  W1_1  1  0.00000000  0.00000000  0.75000000  1
  W  W1_2  1  0.00000000  0.50000000  0.25000000  1
  W  W1_3  1  0.00000000  0.50000000  0.75000000  1
  W  W1_4  1  0.50000000  0.00000000  0.25000000  1
  W  W1_5  1  0.50000000  0.00000000  0.75000000  1
  W  W1_6  1  0.50000000  0.50000000  0.25000000  1
  W  W1_7  1  0.50000000  0.50000000  0.75000000  1
  W  W2_0  1  0.25000000  0.25000000  0.12464000  1
  W  W2_1  1  0.25000000  0.25000000  0.62464000  1
  W  W2_2  1  0.25000000  0.75000000  0.12464000  1
  W  W2_3  1  0.25000000  0.75000000  0.62464000  1
  W  W2_4  1  0.75000000  0.25000000  0.12464000  1
  W  W2_5  1  0.75000000  0.25000000  0.62464000  1
  W  W2_6  1  0.75000000  0.75000000  0.12464000  1
  W  W2_7  1  0.75000000  0.75000000  0.62464000  1
loop_
_geom_bond_atom_site_label_1
_geom_bond_atom_site_label_2
_geom_bond_distance
_geom_bond_site_symmetry_2
Re0_0 W0_1 2.739196 1_554
Re0_0 W0_7 2.739196 1_444
Re0_0 W2_6 2.739196 1_445
Re0_0 W2_0 2.739196 1_555
Re0_0 Re0_4 2.744851 1_555
Re0_0 Re0_2 2.744851 1_555
Re0_0 Re0_2 2.744851 1_545
Re0_0 Re0_4 2.744851 1_455
Re0_1 W0_0 2.739196 1_555
Re0_1 W2_1 2.739196 1_555
Re0_1 W0_6 2.739196 1_445
Re0_1 W2_7 2.739196 1_445
Re0_1 Re0_5 2.744851 1_555
Re0_1 Re0_3 2.744851 1_555
Re0_1 Re0_5 2.744851 1_455
Re0_1 Re0_3 2.744851 1_545
Re0_2 W0_3 2.739196 1_554
Re0_2 W0_5 2.739196 1_454
Re0_2 W2_2 2.739196 1_555
Re0_2 W2_4 2.739196 1_455
Re0_2 Re0_6 2.744851 1_555
Re0_2 Re0_6 2.744851 1_455
Re0_3 W2_3 2.739196 1_555
Re0_3 W2_5 2.739196 1_455
Re0_3 W0_4 2.739196 1_455
Re0_3 W0_2 2.739196 1_555
Re0_3 Re0_7 2.744851 1_555
Re0_3 Re0_7 2.744851 1_455
Re0_4 W0_3 2.739196 1_544
Re0_4 W0_5 2.739196 1_554
Re0_4 W2_4 2.739196 1_555
Re0_4 W2_2 2.739196 1_545
Re0_4 Re0_6 2.744851 1_555
Re0_4 Re0_6 2.744851 1_545
Re0_5 W2_3 2.739196 1_545
Re0_5 W0_4 2.739196 1_555
Re0_5 W0_2 2.739196 1_545
Re0_5 W2_5 2.739196 1_555
Re0_5 Re0_7 2.744851 1_555
Re0_5 Re0_7 2.744851 1_545
Re0_6 W0_7 2.739196 1_554
Re0_6 W0_1 2.739196 1_554
Re0_6 W2_6 2.739196 1_555
Re0_6 W2_0 2.739196 1_555
Re0_7 W0_6 2.739196 1_555
Re0_7 W0_0 2.739196 1_555
Re0_7 W2_1 2.739196 1_555
Re0_7 W2_7 2.739196 1_555
W0_0 W0_2 2.744851 1_555
W0_0 W0_4 2.744851 1_455
W0_0 W0_4 2.744851 1_555
W0_0 W0_2 2.744851 1_545
W0_0 W1_0 2.749773 1_555
W0_0 W1_6 2.749773 1_555
W0_1 W0_3 2.744851 1_555
W0_1 W0_5 2.744851 1_555
W0_1 W0_5 2.744851 1_455
W0_1 W0_3 2.744851 1_545
W0_1 W1_7 2.749773 1_555
W0_1 W1_1 2.749773 1_555
W0_2 W0_6 2.744851 1_555
W0_2 W0_6 2.744851 1_455
W0_2 W1_4 2.749773 1_565
W0_2 W1_2 2.749773 1_555
W0_3 W0_7 2.744851 1_555
W0_3 W0_7 2.744851 1_455
W0_3 W1_5 2.749773 1_565
W0_3 W1_3 2.749773 1_555
W0_4 W0_6 2.744851 1_555
W0_4 W0_6 2.744851 1_545
W0_4 W1_4 2.749773 1_555
W0_4 W1_2 2.749773 1_655
W0_5 W0_7 2.744851 1_555
W0_5 W0_7 2.744851 1_545
W0_5 W1_5 2.749773 1_555
W0_5 W1_3 2.749773 1_655
W0_6 W1_0 2.749773 1_665
W0_6 W1_6 2.749773 1_555
W0_7 W1_7 2.749773 1_555
W0_7 W1_1 2.749773 1_665
W1_0 W1_2 2.744851 1_555
W1_0 W1_4 2.744851 1_555
W1_0 W1_4 2.744851 1_455
W1_0 W1_2 2.744851 1_545
W1_0 W2_0 2.749773 1_555
W1_0 W2_6 2.749773 1_445
W1_1 W1_5 2.744851 1_555
W1_1 W1_3 2.744851 1_555
W1_1 W1_3 2.744851 1_545
W1_1 W1_5 2.744851 1_455
W1_1 W2_1 2.749773 1_555
W1_1 W2_7 2.749773 1_445
W1_2 W1_6 2.744851 1_555
W1_2 W1_6 2.744851 1_455
W1_2 W2_2 2.749773 1_555
W1_2 W2_4 2.749773 1_455
W1_3 W1_7 2.744851 1_555
W1_3 W1_7 2.744851 1_455
W1_3 W2_5 2.749773 1_455
W1_3 W2_3 2.749773 1_555
W1_4 W1_6 2.744851 1_555
W1_4 W1_6 2.744851 1_545
W1_4 W2_4 2.749773 1_555
W1_4 W2_2 2.749773 1_545
W1_5 W1_7 2.744851 1_555
W1_5 W1_7 2.744851 1_545
W1_5 W2_3 2.749773 1_545
W1_5 W2_5 2.749773 1_555
W1_6 W2_6 2.749773 1_555
W1_6 W2_0 2.749773 1_555
W1_7 W2_1 2.749773 1_555
W1_7 W2_7 2.749773 1_555
W2_0 W2_2 2.744851 1_555
W2_0 W2_4 2.744851 1_555
W2_0 W2_4 2.744851 1_455
W2_0 W2_2 2.744851 1_545
W2_1 W2_3 2.744851 1_555
W2_1 W2_5 2.744851 1_555
W2_1 W2_5 2.744851 1_455
W2_1 W2_3 2.744851 1_545
W2_2 W2_6 2.744851 1_555
W2_2 W2_6 2.744851 1_455
W2_3 W2_7 2.744851 1_555
W2_3 W2_7 2.744851 1_455
W2_4 W2_6 2.744851 1_555
W2_4 W2_6 2.744851 1_545
W2_5 W2_7 2.744851 1_555
W2_5 W2_7 2.744851 1_545
