# generated using pymatgen
data_AlMo3Se2ClO8
_symmetry_space_group_name_H-M   'P 1'
_cell_length_a   6.56432200
_cell_length_b   7.21932300
_cell_length_c   9.91129102
_cell_angle_alpha   105.36672960
_cell_angle_beta   92.94645559
_cell_angle_gamma   94.05907802
_symmetry_Int_Tables_number   1
_chemical_formula_structural   AlMo3Se2ClO8
_chemical_formula_sum   'Al2 Mo6 Se4 Cl2 O16'
_cell_volume   450.56422857
_cell_formula_units_Z   2
loop_
 _symmetry_equiv_pos_site_id
 _symmetry_equiv_pos_as_xyz
  1  'x, y, z'
loop_
 _atom_site_type_symbol
 _atom_site_label
 _atom_site_symmetry_multiplicity
 _atom_site_fract_x
 _atom_site_fract_y
 _atom_site_fract_z
 _atom_site_occupancy
  Al  Al0  1  0.74025100  0.72560800  0.74198200  1
  Al  Al1  1  0.25786600  0.27223100  0.25427200  1
  Mo  Mo0  1  0.99764800  0.49972500  0.00021700  1
  Mo  Mo1  1  0.00261900  0.50620300  0.49716600  1
  Mo  Mo2  1  0.00422100  0.99703600  0.99809700  1
  Mo  Mo3  1  0.74616200  0.26958400  0.24835500  1
  Mo  Mo4  1  0.25445200  0.72221300  0.75038600  1
  Mo  Mo5  1  0.00140400  0.00577100  0.50358600  1
  Se  Se0  1  0.57042400  0.16092100  0.86565400  1
  Se  Se1  1  0.42374300  0.83239600  0.14624100  1
  Se  Se2  1  0.55811200  0.26614600  0.57159500  1
  Se  Se3  1  0.44454300  0.74281800  0.42672700  1
  Cl  Cl0  1  0.87853900  0.73413000  0.25227400  1
  Cl  Cl1  1  0.12133700  0.26494200  0.74861700  1
  O  O0  1  0.97398100  0.70047700  0.86932100  1
  O  O1  1  0.52017900  0.68012400  0.83461100  1
  O  O2  1  0.50627500  0.26606400  0.39572800  1
  O  O3  1  0.70523300  0.37941300  0.94025200  1
  O  O4  1  0.25071600  0.54828700  0.37126900  1
  O  O5  1  0.30051500  0.93768900  0.46925800  1
  O  O6  1  0.02358100  0.29437200  0.12755700  1
  O  O7  1  0.77127700  0.99873000  0.83811900  1
  O  O8  1  0.70198000  0.07207200  0.54125200  1
  O  O9  1  0.22439500  0.99751900  0.16671200  1
  O  O10  1  0.96247900  0.78653300  0.62332100  1
  O  O11  1  0.03922900  0.22177900  0.37906100  1
  O  O12  1  0.29119400  0.61845500  0.05167000  1
  O  O13  1  0.75671300  0.45812400  0.62212500  1
  O  O14  1  0.47781400  0.30941800  0.16090400  1
  O  O15  1  0.49311600  0.73121700  0.60367300  1
loop_
_geom_bond_atom_site_label_1
_geom_bond_atom_site_label_2
_geom_bond_distance
_geom_bond_site_symmetry_2
Al0 O1 1.807369 1_555
Al0 O7 1.940276 1_555
Al0 O0 1.985322 1_555
Al0 O13 1.994691 1_555
Al0 O10 2.016025 1_555
Al0 O15 2.079100 1_555
Al1 O14 1.796433 1_555
Al1 O9 1.934207 1_545
Al1 O6 1.977547 1_555
Al1 O11 2.017284 1_555
Al1 O4 2.027975 1_555
Al1 O2 2.105926 1_555
Mo0 O12 2.035022 1_655
Mo0 O3 2.040893 1_554
Mo0 O0 2.194395 1_554
Mo0 O6 2.196593 1_655
Mo1 O11 2.114031 1_555
Mo1 O10 2.120565 1_455
Mo1 O13 2.148040 1_455
Mo1 O4 2.154392 1_555
Mo2 O7 2.148514 1_455
Mo2 O9 2.151663 1_556
Mo2 O0 2.172020 1_455
Mo2 O6 2.180628 1_566
Mo3 O14 1.995940 1_555
Mo3 O2 2.205515 1_555
Mo3 O6 2.252402 1_655
Mo3 O11 2.360726 1_655
Mo4 O1 1.972713 1_555
Mo4 O15 2.200683 1_555
Mo4 O0 2.254795 1_455
Mo4 O10 2.379665 1_455
Mo5 O5 2.080670 1_545
Mo5 O8 2.084620 1_455
Mo5 O10 2.224435 1_445
Mo5 O11 2.239080 1_555
Cl0 Mo5 2.771496 1_665
Cl0 Mo0 2.804211 1_555
Cl1 Mo5 2.684251 1_555
Cl1 Mo0 2.813089 1_456
O2 Se2 1.758558 1_555
O3 Se0 1.713143 1_555
O4 Se3 1.777439 1_555
O5 Se3 1.722127 1_555
O7 Se0 1.808326 1_565
O8 Se2 1.714224 1_555
O9 Se1 1.815090 1_555
O12 Se1 1.726203 1_555
O13 Se2 1.783388 1_555
O15 Se3 1.791230 1_555
