# generated using pymatgen
data_EuCu
_symmetry_space_group_name_H-M   'P 1'
_cell_length_a   4.29263433
_cell_length_b   5.92876766
_cell_length_c   7.90206592
_cell_angle_alpha   89.99984159
_cell_angle_beta   90.00005587
_cell_angle_gamma   90.00005438
_symmetry_Int_Tables_number   1
_chemical_formula_structural   EuCu
_chemical_formula_sum   'Eu4 Cu4'
_cell_volume   201.10782730
_cell_formula_units_Z   4
loop_
 _symmetry_equiv_pos_site_id
 _symmetry_equiv_pos_as_xyz
  1  'x, y, z'
loop_
 _atom_site_type_symbol
 _atom_site_label
 _atom_site_symmetry_multiplicity
 _atom_site_fract_x
 _atom_site_fract_y
 _atom_site_fract_z
 _atom_site_occupancy
  Eu  Eu0  1  0.24999997  0.37513312  0.67879454  1
  Eu  Eu1  1  0.24999972  0.12487404  0.17880934  1
  Eu  Eu2  1  0.74999974  0.62487420  0.32119040  1
  Eu  Eu3  1  0.75000009  0.87513230  0.82120602  1
  Cu  Cu0  1  0.25000003  0.90022840  0.52868445  1
  Cu  Cu1  1  0.24999910  0.59976729  0.02871862  1
  Cu  Cu2  1  0.74999954  0.09976619  0.47128081  1
  Cu  Cu3  1  0.75000081  0.40022446  0.97131581  1
loop_
_geom_bond_atom_site_label_1
_geom_bond_atom_site_label_2
_geom_bond_distance
_geom_bond_site_symmetry_2
Cu0 Cu2 2.492377 1_565
Cu0 Cu2 2.492382 1_465
Cu0 Eu0 3.055265 1_565
Cu0 Eu1 3.068815 1_565
Cu0 Eu2 3.155973 1_455
Cu0 Eu2 3.155976 1_555
Cu0 Eu3 3.157840 1_555
Cu0 Eu3 3.157842 1_455
Cu0 Eu0 3.331489 1_555
Cu1 Cu3 2.492386 1_454
Cu1 Cu3 2.492401 1_554
Cu1 Eu1 3.055137 1_555
Cu1 Eu0 3.069141 1_554
Cu1 Eu3 3.156076 1_454
Cu1 Eu3 3.156082 1_554
Cu1 Eu2 3.157556 1_455
Cu1 Eu2 3.157557 1_555
Cu1 Eu1 3.331504 1_565
Cu2 Eu2 3.055135 1_545
Cu2 Eu3 3.069142 1_545
Cu2 Eu0 3.156094 1_655
Cu2 Eu0 3.156095 1_555
Cu2 Eu1 3.157553 1_555
Cu2 Eu1 3.157557 1_655
Cu2 Eu2 3.331504 1_555
Cu3 Eu3 3.055275 1_555
Cu3 Eu2 3.068829 1_556
Cu3 Eu1 3.155953 1_656
Cu3 Eu1 3.155960 1_556
Cu3 Eu0 3.157838 1_655
Cu3 Eu0 3.157839 1_555
Cu3 Eu3 3.331477 1_545
