# generated using pymatgen
data_Li9Mn2Co5O16
_symmetry_space_group_name_H-M   'P 1'
_cell_length_a   5.79212800
_cell_length_b   5.91499568
_cell_length_c   9.69549191
_cell_angle_alpha   97.15851064
_cell_angle_beta   91.46297985
_cell_angle_gamma   119.06404730
_symmetry_Int_Tables_number   1
_chemical_formula_structural   Li9Mn2Co5O16
_chemical_formula_sum   'Li9 Mn2 Co5 O16'
_cell_volume   286.65831247
_cell_formula_units_Z   1
loop_
 _symmetry_equiv_pos_site_id
 _symmetry_equiv_pos_as_xyz
  1  'x, y, z'
loop_
 _atom_site_type_symbol
 _atom_site_label
 _atom_site_symmetry_multiplicity
 _atom_site_fract_x
 _atom_site_fract_y
 _atom_site_fract_z
 _atom_site_occupancy
  Li  Li0  1  0.62150300  0.24712300  0.75719000  1
  Li  Li1  1  0.12243800  0.24859700  0.75287600  1
  Li  Li2  1  0.50000000  0.50000000  0.00000000  1
  Li  Li3  1  0.00000000  0.50000000  0.00000000  1
  Li  Li4  1  0.37849700  0.75287700  0.24281000  1
  Li  Li5  1  0.87756200  0.75140300  0.24712400  1
  Li  Li6  1  0.24854700  0.99487000  0.49772500  1
  Li  Li7  1  0.75145300  0.00513000  0.50227500  1
  Li  Li8  1  0.50000000  0.00000000  0.00000000  1
  Mn  Mn0  1  0.62381500  0.74950900  0.75337400  1
  Mn  Mn1  1  0.37618500  0.25049100  0.24662600  1
  Co  Co0  1  0.13184500  0.75807800  0.75878900  1
  Co  Co1  1  0.00000000  0.00000000  0.00000000  1
  Co  Co2  1  0.86815500  0.24192200  0.24121100  1
  Co  Co3  1  0.24710400  0.50350300  0.49624300  1
  Co  Co4  1  0.75289600  0.49649700  0.50375700  1
  O  O0  1  0.44048200  0.86353900  0.63203100  1
  O  O1  1  0.91832700  0.85296400  0.63203400  1
  O  O2  1  0.27631500  0.09741400  0.87942500  1
  O  O3  1  0.80217300  0.08415800  0.86936900  1
  O  O4  1  0.19927400  0.37950900  0.13413500  1
  O  O5  1  0.68109100  0.37044200  0.14008500  1
  O  O6  1  0.06635900  0.61558300  0.38282300  1
  O  O7  1  0.55816500  0.59463400  0.37400900  1
  O  O8  1  0.80072600  0.62049100  0.86586500  1
  O  O9  1  0.31890900  0.62955800  0.85991500  1
  O  O10  1  0.72368500  0.90258600  0.12057500  1
  O  O11  1  0.19782700  0.91584200  0.13063100  1
  O  O12  1  0.55951800  0.13646100  0.36796900  1
  O  O13  1  0.08167300  0.14703600  0.36796600  1
  O  O14  1  0.44183500  0.40536600  0.62599100  1
  O  O15  1  0.93364100  0.38441700  0.61717700  1
loop_
_geom_bond_atom_site_label_1
_geom_bond_atom_site_label_2
_geom_bond_distance
_geom_bond_site_symmetry_2
Li0 O8 2.049864 1_555
Li0 O3 2.095335 1_555
Li0 O0 2.158078 1_545
Li0 O15 2.178196 1_555
Li0 O14 2.180066 1_555
Li0 O2 2.201944 1_555
Li1 O2 2.022732 1_555
Li1 O3 2.071375 1_455
Li1 O9 2.077306 1_555
Li1 O14 2.128276 1_555
Li1 O15 2.148425 1_455
Li1 O1 2.191966 1_445
Li2 O8 2.091369 1_554
Li2 O4 2.091369 1_555
Li2 O9 2.121268 1_554
Li2 O5 2.121268 1_555
Li2 O10 2.224215 1_555
Li2 O2 2.224215 1_554
Li3 O4 2.117800 1_555
Li3 O8 2.117800 1_454
Li3 O5 2.203672 1_455
Li3 O9 2.203672 1_554
Li3 O11 2.319129 1_555
Li3 O3 2.319129 1_454
Li4 O4 2.049864 1_555
Li4 O11 2.095335 1_555
Li4 O12 2.158078 1_565
Li4 O6 2.178196 1_555
Li4 O7 2.180066 1_555
Li4 O10 2.201944 1_555
Li5 O10 2.022732 1_555
Li5 O11 2.071375 1_655
Li5 O5 2.077306 1_555
Li5 O7 2.128276 1_555
Li5 O6 2.148425 1_655
Li5 O13 2.191966 1_665
Li6 O13 2.095817 1_565
Li6 O6 2.098752 1_555
Li6 O12 2.107378 1_565
Li6 O0 2.133595 1_555
Li6 O1 2.213224 1_455
Li6 O14 2.287089 1_565
Li7 O1 2.095817 1_545
Li7 O15 2.098752 1_555
Li7 O0 2.107378 1_545
Li7 O12 2.133595 1_555
Li7 O13 2.213224 1_655
Li7 O7 2.287089 1_545
Li8 O10 2.047711 1_545
Li8 O2 2.047711 1_554
Li8 O3 2.083033 1_554
Li8 O11 2.083033 1_545
Li8 O5 2.167634 1_555
Li8 O9 2.167634 1_544
Mn0 O3 1.910317 1_565
Mn0 O8 1.931847 1_555
Mn0 O9 1.935916 1_555
Mn0 O0 1.948459 1_555
Mn0 O1 1.983968 1_555
Mn0 O14 2.000586 1_555
Mn1 O11 1.910317 1_545
Mn1 O4 1.931847 1_555
Mn1 O5 1.935916 1_555
Mn1 O12 1.948459 1_555
Mn1 O13 1.983968 1_555
Mn1 O7 2.000586 1_555
Co0 O9 1.909176 1_555
Co0 O2 1.957055 1_565
Co0 O1 2.030638 1_455
Co0 O8 2.052836 1_455
Co0 O0 2.077275 1_555
Co0 O15 2.187703 1_455
Co1 O10 1.904611 1_445
Co1 O2 1.904611 1_554
Co1 O11 1.949886 1_545
Co1 O3 1.949886 1_454
Co1 O4 2.177398 1_555
Co1 O8 2.177398 1_444
Co2 O5 1.909176 1_555
Co2 O10 1.957055 1_545
Co2 O13 2.030638 1_655
Co2 O4 2.052836 1_655
Co2 O12 2.077275 1_555
Co2 O6 2.187703 1_655
Co3 O6 1.882016 1_555
Co3 O14 1.984258 1_555
Co3 O13 2.057517 1_555
Co3 O15 2.058985 1_455
Co3 O7 2.065399 1_555
Co3 O0 2.105110 1_555
Co4 O15 1.882016 1_555
Co4 O7 1.984258 1_555
Co4 O1 2.057517 1_555
Co4 O6 2.058985 1_655
Co4 O14 2.065399 1_555
Co4 O12 2.105110 1_555
