# generated using pymatgen
data_RbIn3O5
_symmetry_space_group_name_H-M   'P 1'
_cell_length_a   3.31996821
_cell_length_b   9.85814417
_cell_length_c   16.75099955
_cell_angle_alpha   90.00000000
_cell_angle_beta   90.00000000
_cell_angle_gamma   90.00000000
_symmetry_Int_Tables_number   1
_chemical_formula_structural   RbIn3O5
_chemical_formula_sum   'Rb4 In12 O20'
_cell_volume   548.23886200
_cell_formula_units_Z   4
loop_
 _symmetry_equiv_pos_site_id
 _symmetry_equiv_pos_as_xyz
  1  'x, y, z'
loop_
 _atom_site_type_symbol
 _atom_site_label
 _atom_site_symmetry_multiplicity
 _atom_site_fract_x
 _atom_site_fract_y
 _atom_site_fract_z
 _atom_site_occupancy
  Rb  Rb0  1  0.75000000  0.46975979  0.37194568  1
  Rb  Rb1  1  0.25000000  0.53024021  0.62805432  1
  Rb  Rb2  1  0.25000000  0.03024021  0.87194568  1
  Rb  Rb3  1  0.75000000  -0.03024021  0.12805432  1
  In  In0  1  0.75000000  0.81781500  0.31596377  1
  In  In1  1  0.25000000  0.18218500  0.68403623  1
  In  In2  1  0.25000000  0.68218500  0.81596377  1
  In  In3  1  0.75000000  0.31781500  0.18403623  1
  In  In4  1  0.75000000  0.65189934  0.98603706  1
  In  In5  1  0.25000000  0.34810066  0.01396294  1
  In  In6  1  0.25000000  0.84810066  0.48603706  1
  In  In7  1  0.75000000  0.15189934  0.51396294  1
  In  In8  1  0.75000000  0.88648825  0.65828896  1
  In  In9  1  0.25000000  0.11351175  0.34171104  1
  In  In10  1  0.25000000  0.61351175  0.15828896  1
  In  In11  1  0.75000000  0.38648825  0.84171104  1
  O  O0  1  0.75000000  0.97933966  0.42418230  1
  O  O1  1  0.25000000  0.02066034  0.57581770  1
  O  O2  1  0.25000000  0.52066034  0.92418230  1
  O  O3  1  0.75000000  0.47933966  0.07581770  1
  O  O4  1  0.75000000  0.76728433  0.55155210  1
  O  O5  1  0.25000000  0.23271567  0.44844790  1
  O  O6  1  0.25000000  0.73271567  0.05155210  1
  O  O7  1  0.75000000  0.26728433  0.94844790  1
  O  O8  1  0.75000000  0.70559179  0.20966938  1
  O  O9  1  0.25000000  0.29440821  0.79033062  1
  O  O10  1  0.25000000  0.79440821  0.70966938  1
  O  O11  1  0.75000000  0.20559179  0.29033062  1
  O  O12  1  0.75000000  0.77634083  0.88315542  1
  O  O13  1  0.25000000  0.22365917  0.11684458  1
  O  O14  1  0.25000000  0.72365917  0.38315542  1
  O  O15  1  0.75000000  0.27634083  0.61684458  1
  O  O16  1  0.75000000  0.56120033  0.77201316  1
  O  O17  1  0.25000000  0.43879967  0.22798684  1
  O  O18  1  0.25000000  0.93879967  0.27201316  1
  O  O19  1  0.75000000  0.06120033  0.72798684  1
loop_
_geom_bond_atom_site_label_1
_geom_bond_atom_site_label_2
_geom_bond_distance
_geom_bond_site_symmetry_2
In0 O8 2.096244 1_555
In0 O18 2.172569 1_555
In0 O18 2.172569 1_655
In0 O14 2.209959 1_655
In0 O14 2.209959 1_555
In0 O0 2.412811 1_555
In1 O9 2.096244 1_555
In1 O19 2.172569 1_455
In1 O19 2.172569 1_555
In1 O15 2.209959 1_555
In1 O15 2.209959 1_455
In1 O1 2.412811 1_555
In2 O10 2.096244 1_555
In2 O16 2.172569 1_455
In2 O16 2.172569 1_555
In2 O12 2.209959 1_555
In2 O12 2.209959 1_455
In2 O2 2.412811 1_555
In3 O11 2.096244 1_555
In3 O17 2.172569 1_655
In3 O17 2.172569 1_555
In3 O13 2.209959 1_555
In3 O13 2.209959 1_655
In3 O3 2.412811 1_555
In4 O12 2.115408 1_555
In4 O6 2.143515 1_556
In4 O6 2.143515 1_656
In4 O3 2.270587 1_556
In4 O2 2.345839 1_655
In4 O2 2.345839 1_555
In5 O13 2.115408 1_555
In5 O7 2.143515 1_454
In5 O7 2.143515 1_554
In5 O2 2.270587 1_554
In5 O3 2.345839 1_455
In5 O3 2.345839 1_555
In6 O14 2.115408 1_555
In6 O4 2.143515 1_555
In6 O4 2.143515 1_455
In6 O1 2.270587 1_565
In6 O0 2.345839 1_455
In6 O0 2.345839 1_555
In7 O15 2.115408 1_555
In7 O5 2.143515 1_555
In7 O5 2.143515 1_655
In7 O0 2.270587 1_545
In7 O1 2.345839 1_555
In7 O1 2.345839 1_655
In8 O10 2.078532 1_555
In8 O10 2.078532 1_655
In8 O19 2.080750 1_565
In8 O4 2.139554 1_555
In8 O1 2.532494 1_565
In8 O1 2.532494 1_665
In9 O11 2.078532 1_455
In9 O11 2.078532 1_555
In9 O18 2.080750 1_545
In9 O5 2.139554 1_555
In9 O0 2.532494 1_545
In9 O0 2.532494 1_445
In10 O8 2.078532 1_455
In10 O8 2.078532 1_555
In10 O17 2.080750 1_555
In10 O6 2.139554 1_555
In10 O3 2.532494 1_455
In10 O3 2.532494 1_555
In11 O9 2.078532 1_655
In11 O9 2.078532 1_555
In11 O16 2.080750 1_555
In11 O7 2.139554 1_555
In11 O2 2.532494 1_655
In11 O2 2.532494 1_555
O4 Rb1 3.139819 1_655
O4 Rb1 3.139819 1_555
O5 Rb0 3.139819 1_455
O5 Rb0 3.139819 1_555
O6 Rb3 3.139819 1_565
O6 Rb3 3.139819 1_465
O7 Rb2 3.139819 1_555
O7 Rb2 3.139819 1_655
O8 Rb3 2.941249 1_565
O9 Rb2 2.941249 1_555
O10 Rb1 2.941249 1_555
O11 Rb0 2.941249 1_555
O12 Rb2 3.009269 1_665
O12 Rb2 3.009269 1_565
O13 Rb3 3.009269 1_555
O13 Rb3 3.009269 1_455
O14 Rb0 3.009269 1_455
O14 Rb0 3.009269 1_555
O15 Rb1 3.009269 1_555
O15 Rb1 3.009269 1_655
O16 Rb1 2.943436 1_555
O16 Rb1 2.943436 1_655
O17 Rb0 2.943436 1_455
O17 Rb0 2.943436 1_555
O18 Rb3 2.943436 1_465
O18 Rb3 2.943436 1_565
O19 Rb2 2.943436 1_555
O19 Rb2 2.943436 1_655
