# generated using pymatgen
data_BaSrSmBiO6
_symmetry_space_group_name_H-M   'P 1'
_cell_length_a   8.70720839
_cell_length_b   8.71221387
_cell_length_c   8.70434664
_cell_angle_alpha   90.00000000
_cell_angle_beta   90.00000000
_cell_angle_gamma   90.00000000
_symmetry_Int_Tables_number   1
_chemical_formula_structural   BaSrSmBiO6
_chemical_formula_sum   'Ba4 Sr4 Sm4 Bi4 O24'
_cell_volume   660.30356886
_cell_formula_units_Z   4
loop_
 _symmetry_equiv_pos_site_id
 _symmetry_equiv_pos_as_xyz
  1  'x, y, z'
loop_
 _atom_site_type_symbol
 _atom_site_label
 _atom_site_symmetry_multiplicity
 _atom_site_fract_x
 _atom_site_fract_y
 _atom_site_fract_z
 _atom_site_occupancy
  Ba  Ba0  1  -0.00000000  0.00000000  0.00000000  1
  Ba  Ba1  1  0.50000000  0.50000000  0.50000000  1
  Ba  Ba2  1  0.50000000  -0.00000000  0.50000000  1
  Ba  Ba3  1  0.50000000  0.50000000  0.00000000  1
  Sr  Sr0  1  -0.00000000  0.50000000  0.50000000  1
  Sr  Sr1  1  0.50000000  0.00000000  -0.00000000  1
  Sr  Sr2  1  -0.00000000  0.50000000  0.00000000  1
  Sr  Sr3  1  -0.00000000  0.00000000  0.50000000  1
  Sm  Sm0  1  0.24749402  0.24932294  0.24911534  1
  Sm  Sm1  1  0.75250598  0.75067706  0.24911534  1
  Sm  Sm2  1  0.75250598  0.24932294  0.75088466  1
  Sm  Sm3  1  0.24749402  0.75067706  0.75088466  1
  Bi  Bi0  1  0.75342008  0.75086665  0.75014519  1
  Bi  Bi1  1  0.24657992  0.24913335  0.75014519  1
  Bi  Bi2  1  0.24657992  0.75086665  0.24985481  1
  Bi  Bi3  1  0.75342008  0.24913335  0.24985481  1
  O  O0  1  0.99153660  0.20439670  0.28505944  1
  O  O1  1  0.00846340  0.79560330  0.28505944  1
  O  O2  1  0.00846340  0.20439670  0.71494056  1
  O  O3  1  0.99153660  0.79560330  0.71494056  1
  O  O4  1  0.28441793  0.99037533  0.20568473  1
  O  O5  1  0.28441793  0.00962467  0.79431527  1
  O  O6  1  0.71558207  0.00962467  0.20568473  1
  O  O7  1  0.71558207  0.99037533  0.79431527  1
  O  O8  1  0.20805109  0.28855185  0.99006911  1
  O  O9  1  0.79194891  0.28855185  0.00993089  1
  O  O10  1  0.20805109  0.71144815  0.00993089  1
  O  O11  1  0.79194891  0.71144815  0.99006911  1
  O  O12  1  0.51009657  0.28152034  0.22392505  1
  O  O13  1  0.48990343  0.71847966  0.22392505  1
  O  O14  1  0.48990343  0.28152034  0.77607495  1
  O  O15  1  0.51009657  0.71847966  0.77607495  1
  O  O16  1  0.21092481  0.50953076  0.28714607  1
  O  O17  1  0.21092481  0.49046924  0.71285393  1
  O  O18  1  0.78907519  0.49046924  0.28714607  1
  O  O19  1  0.78907519  0.50953076  0.71285393  1
  O  O20  1  0.27752448  0.21933647  0.50855395  1
  O  O21  1  0.72247552  0.21933647  0.49144605  1
  O  O22  1  0.27752448  0.78066353  0.49144605  1
  O  O23  1  0.72247552  0.78066353  0.50855395  1
loop_
_geom_bond_atom_site_label_1
_geom_bond_atom_site_label_2
_geom_bond_distance
_geom_bond_site_symmetry_2
Ba0 O1 3.055016 1_545
Ba0 O0 3.055016 1_455
Ba0 O2 3.055016 1_554
Ba0 O3 3.055016 1_444
Ba0 O5 3.057020 1_554
Ba0 O4 3.057020 1_545
Ba0 O7 3.057020 1_444
Ba0 O6 3.057020 1_455
Ba0 O8 3.099836 1_554
Ba0 O9 3.099836 1_455
Ba0 O11 3.099836 1_444
Ba0 O10 3.099836 1_545
Ba1 O15 3.066835 1_555
Ba1 O13 3.066835 1_555
Ba1 O12 3.066835 1_555
Ba1 O14 3.066835 1_555
Ba1 O22 3.120427 1_555
Ba1 O20 3.120427 1_555
Ba1 O23 3.120427 1_555
Ba1 O21 3.120427 1_555
Ba1 O19 3.126511 1_555
Ba1 O16 3.126511 1_555
Ba1 O17 3.126511 1_555
Ba1 O18 3.126511 1_555
Ba2 O20 2.722062 1_555
Ba2 O22 2.722062 1_545
Ba2 O21 2.722062 1_555
Ba2 O23 2.722062 1_545
Ba2 O6 3.177033 1_555
Ba2 O7 3.177033 1_545
Ba2 O5 3.177033 1_555
Ba2 O4 3.177033 1_545
Ba3 O13 2.725783 1_555
Ba3 O15 2.725783 1_554
Ba3 O12 2.725783 1_555
Ba3 O14 2.725783 1_554
Ba3 O11 3.140569 1_554
Ba3 O10 3.140569 1_555
Ba3 O9 3.140569 1_555
Ba3 O8 3.140569 1_554
Bi0 O3 2.131785 1_555
Bi0 O23 2.135919 1_555
Bi0 O11 2.142853 1_555
Bi0 O7 2.147202 1_555
Bi0 O15 2.149259 1_555
Bi0 O19 2.150011 1_555
Bi1 O2 2.131785 1_555
Bi1 O20 2.135919 1_555
Bi1 O8 2.142853 1_555
Bi1 O5 2.147202 1_555
Bi1 O14 2.149259 1_555
Bi1 O17 2.150011 1_555
Bi2 O1 2.131785 1_555
Bi2 O22 2.135919 1_555
Bi2 O10 2.142853 1_555
Bi2 O4 2.147202 1_555
Bi2 O13 2.149259 1_555
Bi2 O16 2.150011 1_555
Bi3 O0 2.131785 1_555
Bi3 O21 2.135919 1_555
Bi3 O9 2.142853 1_555
Bi3 O6 2.147202 1_555
Bi3 O12 2.149259 1_555
Bi3 O18 2.150011 1_555
O0 Sm0 2.284311 1_655
O0 Sr3 2.583955 1_655
O0 Sr0 3.184060 1_655
O1 Sm1 2.284311 1_455
O1 Sr3 2.583955 1_565
O1 Sr0 3.184060 1_555
O2 Sm2 2.284311 1_455
O2 Sr3 2.583955 1_555
O2 Sr0 3.184060 1_555
O3 Sm3 2.284311 1_655
O3 Sr3 2.583955 1_665
O3 Sr0 3.184060 1_655
O4 Sm0 2.309944 1_565
O4 Sr1 2.595373 1_565
O5 Sm3 2.309944 1_545
O5 Sr1 2.595373 1_556
O6 Sm1 2.309944 1_545
O6 Sr1 2.595373 1_555
O7 Sm2 2.309944 1_565
O7 Sr1 2.595373 1_566
O8 Sm0 2.306297 1_556
O8 Sr2 2.585111 1_556
O9 Sm2 2.306297 1_554
O9 Sr2 2.585111 1_655
O10 Sm3 2.306297 1_554
O10 Sr2 2.585111 1_555
O11 Sm1 2.306297 1_556
O11 Sr2 2.585111 1_656
O12 Sm0 2.314089 1_555
O12 Sr1 3.134066 1_555
O13 Sm1 2.314089 1_555
O13 Sr1 3.134066 1_565
O14 Sm2 2.314089 1_555
O14 Sr1 3.134066 1_556
O15 Sm3 2.314089 1_555
O15 Sr1 3.134066 1_566
O16 Sm0 2.313049 1_555
O16 Sr0 2.610090 1_555
O16 Sr2 3.102735 1_555
O17 Sm3 2.313049 1_555
O17 Sr0 2.610090 1_555
O17 Sr2 3.102735 1_556
O18 Sm1 2.313049 1_555
O18 Sr0 2.610090 1_655
O18 Sr2 3.102735 1_655
O19 Sm2 2.313049 1_555
O19 Sr0 2.610090 1_655
O19 Sr2 3.102735 1_656
O20 Sm0 2.288294 1_555
O20 Sr3 3.081623 1_555
O21 Sm2 2.288294 1_555
O21 Sr3 3.081623 1_655
O22 Sm3 2.288294 1_555
O22 Sr3 3.081623 1_565
O23 Sm1 2.288294 1_555
O23 Sr3 3.081623 1_665
