# generated using pymatgen
data_UCu(Mo2O9)6
_symmetry_space_group_name_H-M   'P 1'
_cell_length_a   10.58493551
_cell_length_b   10.58493551
_cell_length_c   10.58493547
_cell_angle_alpha   76.52120659
_cell_angle_beta   76.52120659
_cell_angle_gamma   76.52121003
_symmetry_Int_Tables_number   1
_chemical_formula_structural   UCu(Mo2O9)6
_chemical_formula_sum   'U1 Cu1 Mo12 O54'
_cell_volume   1101.29565946
_cell_formula_units_Z   1
loop_
 _symmetry_equiv_pos_site_id
 _symmetry_equiv_pos_as_xyz
  1  'x, y, z'
loop_
 _atom_site_type_symbol
 _atom_site_label
 _atom_site_symmetry_multiplicity
 _atom_site_fract_x
 _atom_site_fract_y
 _atom_site_fract_z
 _atom_site_occupancy
  U  U0  1  0.00000000  0.00000000  0.00000000  1
  Cu  Cu0  1  0.50000000  0.50000000  0.50000000  1
  Mo  Mo0  1  0.65500400  0.14973200  0.07471300  1
  Mo  Mo1  1  0.07471300  0.65500400  0.14973200  1
  Mo  Mo2  1  0.14973200  0.07471300  0.65500400  1
  Mo  Mo3  1  0.34499600  0.85026800  0.92528700  1
  Mo  Mo4  1  0.92528700  0.34499600  0.85026800  1
  Mo  Mo5  1  0.85026800  0.92528700  0.34499600  1
  Mo  Mo6  1  0.72185900  0.83985400  0.06264200  1
  Mo  Mo7  1  0.06264200  0.72185900  0.83985400  1
  Mo  Mo8  1  0.83985400  0.06264200  0.72185900  1
  Mo  Mo9  1  0.27814100  0.16014600  0.93735800  1
  Mo  Mo10  1  0.93735800  0.27814100  0.16014600  1
  Mo  Mo11  1  0.16014600  0.93735800  0.27814100  1
  O  O0  1  0.06301900  0.32047800  0.21202200  1
  O  O1  1  0.21202200  0.06301900  0.32047900  1
  O  O2  1  0.32047800  0.21202200  0.06301900  1
  O  O3  1  0.93698100  0.67952100  0.78797800  1
  O  O4  1  0.78797800  0.93698100  0.67952100  1
  O  O5  1  0.67952100  0.78797800  0.93698100  1
  O  O6  1  0.79847300  0.32033700  0.27717600  1
  O  O7  1  0.27717600  0.79847300  0.32033700  1
  O  O8  1  0.32033700  0.27717600  0.79847300  1
  O  O9  1  0.20152700  0.67966300  0.72282400  1
  O  O10  1  0.72282400  0.20152700  0.67966300  1
  O  O11  1  0.67966300  0.72282400  0.20152700  1
  O  O12  1  0.08039600  0.20282800  0.97656600  1
  O  O13  1  0.97656600  0.08039600  0.20282800  1
  O  O14  1  0.20282800  0.97656600  0.08039600  1
  O  O15  1  0.91960400  0.79717200  0.02343400  1
  O  O16  1  0.02343400  0.91960400  0.79717200  1
  O  O17  1  0.79717200  0.02343400  0.91960400  1
  O  O18  1  0.90545000  0.41899600  0.00755600  1
  O  O19  1  0.00755600  0.90545000  0.41899600  1
  O  O20  1  0.41899600  0.00755600  0.90545000  1
  O  O21  1  0.09455000  0.58100400  0.99244400  1
  O  O22  1  0.99244400  0.09455000  0.58100400  1
  O  O23  1  0.58100400  0.99244400  0.09455000  1
  O  O24  1  0.83345600  0.20123200  0.02948600  1
  O  O25  1  0.02948600  0.83345600  0.20123200  1
  O  O26  1  0.20123200  0.02948600  0.83345600  1
  O  O27  1  0.16654400  0.79876800  0.97051400  1
  O  O28  1  0.97051400  0.16654400  0.79876800  1
  O  O29  1  0.79876800  0.97051400  0.16654400  1
  O  O30  1  0.04915300  0.41930000  0.74180600  1
  O  O31  1  0.74180600  0.04915300  0.41930000  1
  O  O32  1  0.41930000  0.74180600  0.04915300  1
  O  O33  1  0.95084700  0.58070000  0.25819400  1
  O  O34  1  0.25819400  0.95084700  0.58070000  1
  O  O35  1  0.58070000  0.25819400  0.95084700  1
  O  O36  1  0.78450900  0.41981400  0.78588000  1
  O  O37  1  0.78588000  0.78450900  0.41981400  1
  O  O38  1  0.41981400  0.78588000  0.78450900  1
  O  O39  1  0.21549100  0.58018600  0.21412000  1
  O  O40  1  0.21412000  0.21549100  0.58018600  1
  O  O41  1  0.58018600  0.21412000  0.21549100  1
  O  O42  1  0.47605800  0.54824700  0.29305300  1
  O  O43  1  0.29305300  0.47605800  0.54824700  1
  O  O44  1  0.54824700  0.29305300  0.47605800  1
  O  O45  1  0.52394200  0.45175300  0.70694700  1
  O  O46  1  0.70694700  0.52394200  0.45175300  1
  O  O47  1  0.45175300  0.70694700  0.52394200  1
  O  O48  1  0.47843200  0.80907400  0.45138700  1
  O  O49  1  0.45138700  0.47843200  0.80907400  1
  O  O50  1  0.80907400  0.45138700  0.47843200  1
  O  O51  1  0.52156800  0.19092600  0.54861300  1
  O  O52  1  0.54861300  0.52156800  0.19092600  1
  O  O53  1  0.19092600  0.54861300  0.52156800  1
loop_
_geom_bond_atom_site_label_1
_geom_bond_atom_site_label_2
_geom_bond_distance
_geom_bond_site_symmetry_2
Cu0 O46 2.190974 1_555
Cu0 O43 2.190974 1_555
Cu0 O45 2.190974 1_555
Cu0 O42 2.190974 1_555
Cu0 O47 2.190974 1_555
Cu0 O44 2.190974 1_555
Mo0 O41 1.727382 1_555
Mo0 O35 1.736012 1_554
Mo0 O23 1.948781 1_545
Mo0 O24 2.007761 1_555
Mo0 O29 2.311577 1_545
Mo0 O17 2.383465 1_554
Mo1 O39 1.727382 1_555
Mo1 O33 1.736012 1_455
Mo1 O21 1.948781 1_554
Mo1 O25 2.007761 1_555
Mo1 O27 2.311577 1_554
Mo1 O15 2.383465 1_455
Mo2 O40 1.727382 1_555
Mo2 O34 1.736012 1_545
Mo2 O22 1.948782 1_455
Mo2 O26 2.007761 1_555
Mo2 O28 2.311577 1_455
Mo2 O16 2.383465 1_545
Mo3 O38 1.727382 1_555
Mo3 O32 1.736012 1_556
Mo3 O20 1.948781 1_565
Mo3 O27 2.007761 1_555
Mo3 O26 2.311577 1_565
Mo3 O14 2.383465 1_556
Mo4 O36 1.727382 1_555
Mo4 O30 1.736012 1_655
Mo4 O18 1.948781 1_556
Mo4 O28 2.007761 1_555
Mo4 O24 2.311577 1_556
Mo4 O12 2.383465 1_655
Mo5 O37 1.727382 1_555
Mo5 O31 1.736012 1_565
Mo5 O19 1.948782 1_655
Mo5 O29 2.007761 1_555
Mo5 O25 2.311577 1_655
Mo5 O13 2.383465 1_565
Mo6 O11 1.731492 1_555
Mo6 O5 1.733384 1_554
Mo6 O23 1.960274 1_555
Mo6 O15 1.999779 1_555
Mo6 O29 2.331595 1_555
Mo6 O17 2.343452 1_564
Mo7 O9 1.731492 1_555
Mo7 O3 1.733384 1_455
Mo7 O21 1.960274 1_555
Mo7 O16 1.999779 1_555
Mo7 O27 2.331595 1_555
Mo7 O15 2.343452 1_456
Mo8 O10 1.731492 1_555
Mo8 O4 1.733384 1_545
Mo8 O22 1.960274 1_555
Mo8 O17 1.999779 1_555
Mo8 O28 2.331595 1_555
Mo8 O16 2.343452 1_645
Mo9 O8 1.731492 1_555
Mo9 O2 1.733379 1_556
Mo9 O20 1.960274 1_555
Mo9 O12 1.999779 1_555
Mo9 O26 2.331595 1_555
Mo9 O14 2.343452 1_546
Mo10 O6 1.731492 1_555
Mo10 O0 1.733379 1_655
Mo10 O18 1.960274 1_555
Mo10 O13 1.999779 1_555
Mo10 O24 2.331595 1_555
Mo10 O12 2.343452 1_654
Mo11 O7 1.731492 1_555
Mo11 O1 1.733384 1_565
Mo11 O19 1.960274 1_555
Mo11 O14 1.999779 1_555
Mo11 O25 2.331595 1_555
Mo11 O13 2.343452 1_465
O12 U0 2.428995 1_556
O13 U0 2.428995 1_655
O14 U0 2.428995 1_565
O15 U0 2.428995 1_665
O16 U0 2.428995 1_566
O17 U0 2.428995 1_656
O24 U0 2.458674 1_655
O25 U0 2.458674 1_565
O26 U0 2.458674 1_556
O27 U0 2.458674 1_566
O28 U0 2.458674 1_656
O29 U0 2.458674 1_665
O42 O52 1.221607 1_555
O43 O53 1.221607 1_555
O44 O51 1.221607 1_555
O45 O49 1.221607 1_555
O46 O50 1.221607 1_555
O47 O48 1.221607 1_555
