# generated using pymatgen
data_ZnCu15H24(ClO3)8
_symmetry_space_group_name_H-M   'P 1'
_cell_length_a   9.20396900
_cell_length_b   9.27155764
_cell_length_c   9.29831835
_cell_angle_alpha   97.00482133
_cell_angle_beta   97.24449536
_cell_angle_gamma   97.46993204
_symmetry_Int_Tables_number   1
_chemical_formula_structural   ZnCu15H24(ClO3)8
_chemical_formula_sum   'Zn1 Cu15 H24 Cl8 O24'
_cell_volume   772.69998763
_cell_formula_units_Z   1
loop_
 _symmetry_equiv_pos_site_id
 _symmetry_equiv_pos_as_xyz
  1  'x, y, z'
loop_
 _atom_site_type_symbol
 _atom_site_label
 _atom_site_symmetry_multiplicity
 _atom_site_fract_x
 _atom_site_fract_y
 _atom_site_fract_z
 _atom_site_occupancy
  Zn  Zn0  1  0.00000000  0.50000000  0.00000000  1
  Cu  Cu0  1  0.75296600  0.99692900  0.25595300  1
  Cu  Cu1  1  0.99577000  0.25519900  0.75272800  1
  Cu  Cu2  1  0.25485700  0.75513300  0.99698000  1
  Cu  Cu3  1  0.24703400  0.00307100  0.74404700  1
  Cu  Cu4  1  0.00423000  0.74480100  0.24727200  1
  Cu  Cu5  1  0.74514300  0.24486700  0.00302000  1
  Cu  Cu6  1  0.50000000  0.50000000  0.50000000  1
  Cu  Cu7  1  0.50000000  0.00000000  0.00000000  1
  Cu  Cu8  1  0.00000000  0.00000000  0.50000000  1
  Cu  Cu9  1  0.49849700  0.24478600  0.25435500  1
  Cu  Cu10  1  0.24552500  0.25490500  0.50047300  1
  Cu  Cu11  1  0.25377300  0.49689900  0.24372500  1
  Cu  Cu12  1  0.50150300  0.75521400  0.74564500  1
  Cu  Cu13  1  0.75447500  0.74509500  0.49952700  1
  Cu  Cu14  1  0.74622700  0.50310100  0.75627500  1
  H  H0  1  0.48207600  0.77762200  0.47518700  1
  H  H1  1  0.77547900  0.47312100  0.48295100  1
  H  H2  1  0.47430200  0.48438600  0.78204100  1
  H  H3  1  0.51792400  0.22237800  0.52481300  1
  H  H4  1  0.22452100  0.52687900  0.51704900  1
  H  H5  1  0.52569800  0.51561400  0.21795900  1
  H  H6  1  0.48580100  0.97822000  0.29402000  1
  H  H7  1  0.97807000  0.29329200  0.48661500  1
  H  H8  1  0.29037700  0.48553400  0.97759200  1
  H  H9  1  0.51419900  0.02178000  0.70598000  1
  H  H10  1  0.02193000  0.70670800  0.51338500  1
  H  H11  1  0.70962300  0.51446600  0.02240800  1
  H  H12  1  0.77279600  0.97206300  0.98168700  1
  H  H13  1  0.97256400  0.98228300  0.77402300  1
  H  H14  1  0.98080800  0.77950300  0.97500500  1
  H  H15  1  0.22720400  0.02793700  0.01831300  1
  H  H16  1  0.02743600  0.01771700  0.22597700  1
  H  H17  1  0.01919200  0.22049700  0.02499500  1
  H  H18  1  0.46704300  0.26074200  0.97604000  1
  H  H19  1  0.26176100  0.97627100  0.46781600  1
  H  H20  1  0.97670800  0.46919000  0.26775800  1
  H  H21  1  0.53295700  0.73925800  0.02396000  1
  H  H22  1  0.73823900  0.02372900  0.53218400  1
  H  H23  1  0.02329200  0.53081000  0.73224200  1
  Cl  Cl0  1  0.81770500  0.32119200  0.31412000  1
  Cl  Cl1  1  0.32199400  0.31335400  0.81868400  1
  Cl  Cl2  1  0.31408500  0.81830500  0.32192200  1
  Cl  Cl3  1  0.18229500  0.67880800  0.68588000  1
  Cl  Cl4  1  0.67800600  0.68664600  0.18131600  1
  Cl  Cl5  1  0.68591500  0.18169500  0.67807800  1
  Cl  Cl6  1  0.81897500  0.82008100  0.81924000  1
  Cl  Cl7  1  0.18102500  0.17991900  0.18076000  1
  O  O0  1  0.72771000  0.03881300  0.05002600  1
  O  O1  1  0.04109900  0.04961700  0.72858200  1
  O  O2  1  0.04813500  0.73338800  0.04194200  1
  O  O3  1  0.27229000  0.96118700  0.94997400  1
  O  O4  1  0.95890100  0.95038300  0.27141800  1
  O  O5  1  0.95186500  0.26661200  0.95805800  1
  O  O6  1  0.53621400  0.21796000  0.04561600  1
  O  O7  1  0.21698900  0.04438400  0.53575000  1
  O  O8  1  0.04695800  0.53839100  0.22570000  1
  O  O9  1  0.46378600  0.78204000  0.95438400  1
  O  O10  1  0.78301100  0.95561600  0.46425000  1
  O  O11  1  0.95304200  0.46160900  0.77430000  1
  O  O12  1  0.54945100  0.73143800  0.54260400  1
  O  O13  1  0.72494900  0.53936000  0.54656200  1
  O  O14  1  0.54469400  0.55250400  0.73923300  1
  O  O15  1  0.45054900  0.26856200  0.45739600  1
  O  O16  1  0.27505100  0.46064000  0.45343800  1
  O  O17  1  0.45530600  0.44749600  0.26076700  1
  O  O18  1  0.55654400  0.05046300  0.25807400  1
  O  O19  1  0.04899600  0.25417300  0.55568800  1
  O  O20  1  0.24447300  0.55183200  0.04480700  1
  O  O21  1  0.44345600  0.94953700  0.74192600  1
  O  O22  1  0.95100400  0.74582700  0.44431200  1
  O  O23  1  0.75552700  0.44816800  0.95519300  1
loop_
_geom_bond_atom_site_label_1
_geom_bond_atom_site_label_2
_geom_bond_distance
_geom_bond_site_symmetry_2
Cu0 O18 1.937790 1_565
Cu0 O4 1.989625 1_555
Cu0 O0 1.990922 1_565
Cu0 O10 2.011923 1_555
Cu1 O19 1.954521 1_655
Cu1 O5 1.994005 1_555
Cu1 O11 1.994808 1_555
Cu1 O1 1.995888 1_655
Cu2 O20 1.981955 1_556
Cu2 O2 1.989219 1_556
Cu2 O3 2.002053 1_555
Cu2 O9 2.002099 1_555
Cu3 O21 1.937790 1_545
Cu3 O1 1.989625 1_555
Cu3 O3 1.990922 1_545
Cu3 O7 2.011923 1_555
Cu4 O22 1.954521 1_455
Cu4 O2 1.994005 1_555
Cu4 O8 1.994808 1_555
Cu4 O4 1.995888 1_455
Cu5 O23 1.981955 1_554
Cu5 O5 1.989219 1_554
Cu5 O0 2.002053 1_555
Cu5 O6 2.002099 1_555
Cu6 O13 2.036224 1_555
Cu6 O16 2.036224 1_555
Cu6 O12 2.112288 1_555
Cu6 O15 2.112288 1_555
Cu6 O14 2.192593 1_555
Cu6 O17 2.192593 1_555
Cu7 O9 1.988693 1_544
Cu7 O6 1.988693 1_555
Cu7 O3 2.062909 1_544
Cu7 O0 2.062909 1_555
Cu7 O18 2.365580 1_555
Cu7 O21 2.365580 1_544
Cu8 O7 1.963160 1_555
Cu8 O10 1.963160 1_445
Cu8 O1 2.094197 1_555
Cu8 O4 2.094197 1_445
Cu8 O19 2.322093 1_555
Cu8 O22 2.322093 1_445
Cu9 O18 1.947688 1_555
Cu9 O17 1.966413 1_555
Cu9 O15 1.985343 1_555
Cu9 O6 2.006038 1_555
Cu10 O19 1.940988 1_555
Cu10 O15 1.969325 1_555
Cu10 O16 2.000571 1_555
Cu10 O7 2.007715 1_555
Cu11 O17 1.959608 1_555
Cu11 O20 1.972037 1_555
Cu11 O8 1.981194 1_555
Cu11 O16 2.008601 1_555
Cu12 O21 1.947688 1_555
Cu12 O14 1.966413 1_555
Cu12 O12 1.985343 1_555
Cu12 O9 2.006038 1_555
Cu13 O22 1.940988 1_555
Cu13 O12 1.969325 1_555
Cu13 O13 2.000571 1_555
Cu13 O10 2.007715 1_555
Cu14 O14 1.959608 1_555
Cu14 O23 1.972037 1_555
Cu14 O11 1.981194 1_555
Cu14 O13 2.008601 1_555
H0 O12 0.998664 1_555
H1 O13 0.999175 1_555
H2 O14 0.998512 1_555
H3 O15 0.998664 1_555
H4 O16 0.999175 1_555
H5 O17 0.998512 1_555
H6 O18 0.990152 1_565
H7 O19 0.991379 1_655
H8 O20 0.993667 1_556
H9 O21 0.990152 1_545
H10 O22 0.991379 1_455
H11 O23 0.993667 1_554
H12 O0 0.998174 1_566
H13 O1 0.997663 1_665
H14 O2 0.995344 1_656
H15 O3 0.998174 1_544
H16 O4 0.997663 1_445
H17 O5 0.995344 1_454
H18 O6 1.002776 1_556
H19 O7 1.001821 1_565
H20 O8 0.999878 1_655
H21 O9 1.002776 1_554
H22 O10 1.001821 1_545
H23 O11 0.999878 1_455
Cl0 H20 1.997914 1_555
Cl0 H1 2.087231 1_555
Cl0 H7 2.102716 1_555
Cl0 Cu5 2.864463 1_555
Cl0 Cu9 2.897143 1_555
Cl0 Cu0 2.956769 1_545
Cl1 H18 2.002946 1_555
Cl1 H2 2.066407 1_555
Cl1 H8 2.114296 1_555
Cl1 Cu3 2.847783 1_555
Cl1 Cu10 2.920311 1_555
Cl1 Cu1 2.952315 1_455
Cl2 H19 2.020099 1_555
Cl2 H0 2.071451 1_555
Cl2 H6 2.086007 1_555
Cl2 Cu4 2.821270 1_555
Cl2 Cu11 2.942185 1_555
Cl2 Cu2 2.973064 1_554
Cl3 H23 1.997914 1_555
Cl3 H4 2.087231 1_555
Cl3 H10 2.102716 1_555
Cl3 Cu2 2.864463 1_555
Cl3 Cu12 2.897143 1_555
Cl3 Cu3 2.956769 1_565
Cl4 H21 2.002946 1_555
Cl4 H5 2.066407 1_555
Cl4 H11 2.114296 1_555
Cl4 Cu0 2.847783 1_555
Cl4 Cu13 2.920311 1_555
Cl4 Cu4 2.952315 1_655
Cl5 H22 2.020099 1_555
Cl5 H3 2.071451 1_555
Cl5 H9 2.086007 1_555
Cl5 Cu1 2.821270 1_555
Cl5 Cu14 2.942185 1_555
Cl5 Cu5 2.973064 1_556
Cl6 H13 2.046481 1_555
Cl6 H14 2.047538 1_555
Cl6 H12 2.060657 1_555
Cl6 Cu12 2.882094 1_555
Cl6 Cu14 2.897935 1_555
Cl6 Cu13 2.935432 1_555
Cl7 H16 2.046481 1_555
Cl7 H17 2.047538 1_555
Cl7 H15 2.060657 1_555
Cl7 Cu9 2.882094 1_555
Cl7 Cu11 2.897935 1_555
Cl7 Cu10 2.935432 1_555
O2 Zn0 2.128858 1_555
O5 Zn0 2.128858 1_656
O8 Zn0 2.065620 1_555
O11 Zn0 2.065620 1_656
O20 Zn0 2.213852 1_555
O23 Zn0 2.213852 1_656
