# generated using pymatgen
data_LiPa
_symmetry_space_group_name_H-M   'P 1'
_cell_length_a   6.07592233
_cell_length_b   6.07594582
_cell_length_c   11.35016886
_cell_angle_alpha   89.96160381
_cell_angle_beta   90.03794133
_cell_angle_gamma   119.99323535
_symmetry_Int_Tables_number   1
_chemical_formula_structural   LiPa
_chemical_formula_sum   'Li8 Pa8'
_cell_volume   362.90130655
_cell_formula_units_Z   8
loop_
 _symmetry_equiv_pos_site_id
 _symmetry_equiv_pos_as_xyz
  1  'x, y, z'
loop_
 _atom_site_type_symbol
 _atom_site_label
 _atom_site_symmetry_multiplicity
 _atom_site_fract_x
 _atom_site_fract_y
 _atom_site_fract_z
 _atom_site_occupancy
  Li  Li0_0  1  0.33334000  0.16666100  0.37499250  1
  Li  Li0_1  1  0.33334000  0.16666100  0.87499250  1
  Li  Li0_2  1  0.33334000  0.66666100  0.37499250  1
  Li  Li0_3  1  0.33334000  0.66666100  0.87499250  1
  Li  Li0_4  1  0.83334000  0.16666100  0.37499250  1
  Li  Li0_5  1  0.83334000  0.16666100  0.87499250  1
  Li  Li0_6  1  0.83334000  0.66666100  0.37499250  1
  Li  Li0_7  1  0.83334000  0.66666100  0.87499250  1
  Pa  Pa0_0  1  0.16666050  0.33333950  0.12500800  1
  Pa  Pa0_1  1  0.16666050  0.33333950  0.62500800  1
  Pa  Pa0_2  1  0.16666050  0.83333950  0.12500800  1
  Pa  Pa0_3  1  0.16666050  0.83333950  0.62500800  1
  Pa  Pa0_4  1  0.66666050  0.33333950  0.12500800  1
  Pa  Pa0_5  1  0.66666050  0.33333950  0.62500800  1
  Pa  Pa0_6  1  0.66666050  0.83333950  0.12500800  1
  Pa  Pa0_7  1  0.66666050  0.83333950  0.62500800  1
loop_
_geom_bond_atom_site_label_1
_geom_bond_atom_site_label_2
_geom_bond_distance
_geom_bond_site_symmetry_2
Li0_0 Li0_4 3.037961 1_555
Li0_0 Li0_4 3.037961 1_455
Li0_0 Li0_2 3.037973 1_545
Li0_0 Li0_2 3.037973 1_555
Li0_0 Li0_6 3.038278 1_555
Li0_0 Li0_6 3.038278 1_445
Li0_0 Pa0_0 3.334614 1_555
Li0_0 Pa0_3 3.335472 1_545
Li0_0 Pa0_5 3.335486 1_555
Li0_0 Pa0_4 3.336314 1_555
Li0_0 Pa0_2 3.336341 1_545
Li0_0 Pa0_1 3.337209 1_555
Li0_1 Li0_5 3.037961 1_455
Li0_1 Li0_5 3.037961 1_555
Li0_1 Li0_3 3.037973 1_545
Li0_1 Li0_3 3.037973 1_555
Li0_1 Li0_7 3.038278 1_445
Li0_1 Li0_7 3.038278 1_555
Li0_1 Pa0_1 3.334614 1_555
Li0_1 Pa0_2 3.335472 1_546
Li0_1 Pa0_4 3.335486 1_556
Li0_1 Pa0_5 3.336314 1_555
Li0_1 Pa0_3 3.336341 1_545
Li0_1 Pa0_0 3.337209 1_556
Li0_2 Li0_6 3.037961 1_455
Li0_2 Li0_6 3.037961 1_555
Li0_2 Li0_4 3.038278 1_565
Li0_2 Li0_4 3.038278 1_455
Li0_2 Pa0_2 3.334614 1_555
Li0_2 Pa0_1 3.335472 1_555
Li0_2 Pa0_7 3.335486 1_555
Li0_2 Pa0_6 3.336314 1_555
Li0_2 Pa0_0 3.336341 1_555
Li0_2 Pa0_3 3.337209 1_555
Li0_3 Li0_7 3.037961 1_455
Li0_3 Li0_7 3.037961 1_555
Li0_3 Li0_5 3.038278 1_455
Li0_3 Li0_5 3.038278 1_565
Li0_3 Pa0_3 3.334614 1_555
Li0_3 Pa0_0 3.335472 1_556
Li0_3 Pa0_6 3.335486 1_556
Li0_3 Pa0_7 3.336314 1_555
Li0_3 Pa0_1 3.336341 1_555
Li0_3 Pa0_2 3.337209 1_556
Li0_4 Li0_6 3.037973 1_545
Li0_4 Li0_6 3.037973 1_555
Li0_4 Pa0_4 3.334614 1_555
Li0_4 Pa0_7 3.335472 1_545
Li0_4 Pa0_1 3.335486 1_655
Li0_4 Pa0_0 3.336314 1_655
Li0_4 Pa0_6 3.336341 1_545
Li0_4 Pa0_5 3.337209 1_555
Li0_5 Li0_7 3.037973 1_545
Li0_5 Li0_7 3.037973 1_555
Li0_5 Pa0_5 3.334614 1_555
Li0_5 Pa0_6 3.335472 1_546
Li0_5 Pa0_0 3.335486 1_656
Li0_5 Pa0_1 3.336314 1_655
Li0_5 Pa0_7 3.336341 1_545
Li0_5 Pa0_4 3.337209 1_556
Li0_6 Pa0_6 3.334614 1_555
Li0_6 Pa0_5 3.335472 1_555
Li0_6 Pa0_3 3.335486 1_655
Li0_6 Pa0_2 3.336314 1_655
Li0_6 Pa0_4 3.336341 1_555
Li0_6 Pa0_7 3.337209 1_555
Li0_7 Pa0_7 3.334614 1_555
Li0_7 Pa0_4 3.335472 1_556
Li0_7 Pa0_2 3.335486 1_656
Li0_7 Pa0_3 3.336314 1_655
Li0_7 Pa0_5 3.336341 1_555
Li0_7 Pa0_6 3.337209 1_556
Pa0_0 Pa0_4 3.037961 1_455
Pa0_0 Pa0_4 3.037961 1_555
Pa0_0 Pa0_2 3.037973 1_545
Pa0_0 Pa0_2 3.037973 1_555
Pa0_0 Pa0_6 3.038278 1_445
Pa0_0 Pa0_6 3.038278 1_555
Pa0_1 Pa0_5 3.037961 1_455
Pa0_1 Pa0_5 3.037961 1_555
Pa0_1 Pa0_3 3.037973 1_545
Pa0_1 Pa0_3 3.037973 1_555
Pa0_1 Pa0_7 3.038278 1_445
Pa0_1 Pa0_7 3.038278 1_555
Pa0_2 Pa0_6 3.037961 1_455
Pa0_2 Pa0_6 3.037961 1_555
Pa0_2 Pa0_4 3.038278 1_455
Pa0_2 Pa0_4 3.038278 1_565
Pa0_3 Pa0_7 3.037961 1_555
Pa0_3 Pa0_7 3.037961 1_455
Pa0_3 Pa0_5 3.038278 1_565
Pa0_3 Pa0_5 3.038278 1_455
Pa0_4 Pa0_6 3.037973 1_555
Pa0_4 Pa0_6 3.037973 1_545
Pa0_5 Pa0_7 3.037973 1_545
Pa0_5 Pa0_7 3.037973 1_555
