# generated using pymatgen
data_Li6V3P8O29
_symmetry_space_group_name_H-M   'P 1'
_cell_length_a   9.81043000
_cell_length_b   9.82803205
_cell_length_c   14.02815445
_cell_angle_alpha   89.14543240
_cell_angle_beta   88.99648306
_cell_angle_gamma   60.22158341
_symmetry_Int_Tables_number   1
_chemical_formula_structural   Li6V3P8O29
_chemical_formula_sum   'Li12 V6 P16 O58'
_cell_volume   1173.74403390
_cell_formula_units_Z   2
loop_
 _symmetry_equiv_pos_site_id
 _symmetry_equiv_pos_as_xyz
  1  'x, y, z'
loop_
 _atom_site_type_symbol
 _atom_site_label
 _atom_site_symmetry_multiplicity
 _atom_site_fract_x
 _atom_site_fract_y
 _atom_site_fract_z
 _atom_site_occupancy
  Li  Li0  1  0.08748400  0.67912500  0.56116000  1
  Li  Li1  1  0.32732300  0.32267500  0.38834700  1
  Li  Li2  1  0.32300900  0.33023800  0.88962800  1
  Li  Li3  1  0.22666500  0.69199600  0.06462600  1
  Li  Li4  1  0.68426900  0.09010500  0.06762600  1
  Li  Li5  1  0.33974000  0.76344100  0.43949800  1
  Li  Li6  1  0.67676900  0.23443200  0.56099400  1
  Li  Li7  1  0.31127000  0.91340300  0.93655600  1
  Li  Li8  1  0.77483600  0.31861100  0.94288700  1
  Li  Li9  1  0.89710100  0.33615400  0.43694700  1
  Li  Li10  1  0.90679200  0.77898700  0.94574100  1
  Li  Li11  1  0.00026600  0.00257400  0.49331200  1
  V  V0  1  0.43516500  0.56999400  0.24682200  1
  V  V1  1  0.56625400  0.43142600  0.75000200  1
  V  V2  1  0.43415000  0.00183200  0.74308400  1
  V  V3  1  0.56854000  0.99127500  0.25716000  1
  V  V4  1  0.00166400  0.43205300  0.24779500  1
  V  V5  1  0.99689900  0.56360900  0.74818500  1
  P  P0  1  0.08810200  0.22472500  0.83528400  1
  P  P1  1  0.21694600  0.08405900  0.33880400  1
  P  P2  1  0.09224200  0.68205400  0.34441100  1
  P  P3  1  0.33734300  0.33438700  0.12951000  1
  P  P4  1  0.33290900  0.33702500  0.62820200  1
  P  P5  1  0.22892000  0.67535900  0.84402700  1
  P  P6  1  0.31773000  0.76887300  0.66006600  1
  P  P7  1  0.67529500  0.08908600  0.84513900  1
  P  P8  1  0.32061000  0.91735000  0.15335000  1
  P  P9  1  0.67872200  0.22701300  0.34135100  1
  P  P10  1  0.77280900  0.31816400  0.15881500  1
  P  P11  1  0.66803200  0.66202700  0.37264900  1
  P  P12  1  0.66356100  0.66698500  0.86909300  1
  P  P13  1  0.91558600  0.31341200  0.65210800  1
  P  P14  1  0.77903100  0.91983600  0.65910400  1
  P  P15  1  0.91332000  0.76921000  0.16183600  1
  O  O0  1  0.98288600  0.23318500  0.55901200  1
  O  O1  1  0.07758500  0.25295600  0.34245300  1
  O  O2  1  0.25422100  0.99201200  0.05999800  1
  O  O3  1  0.25475000  0.07977800  0.83782200  1
  O  O4  1  0.11033300  0.37167100  0.82266000  1
  O  O5  1  0.18843800  0.33803200  0.17791800  1
  O  O6  1  0.10254800  0.52047500  0.33593900  1
  O  O7  1  0.00333900  0.75923900  0.07126000  1
  O  O8  1  0.07705400  0.66547900  0.84576800  1
  O  O9  1  0.32589400  0.19342000  0.67137000  1
  O  O10  1  0.37034700  0.09533200  0.33428500  1
  O  O11  1  0.18621900  0.49112000  0.66745900  1
  O  O12  1  0.33101000  0.33698200  0.02247800  1
  O  O13  1  0.33354000  0.34263200  0.52113300  1
  O  O14  1  0.33228600  0.48915400  0.16318400  1
  O  O15  1  0.51003600  0.11234100  0.82586700  1
  O  O16  1  0.48474000  0.18618900  0.16909100  1
  O  O17  1  0.26228700  0.65721100  0.33706800  1
  O  O18  1  0.21146000  0.78491600  0.75285400  1
  O  O19  1  0.23237300  0.76843900  0.57148400  1
  O  O20  1  0.24914400  0.75021500  0.93145500  1
  O  O21  1  0.36906100  0.50834800  0.82525400  1
  O  O22  1  0.48844700  0.32697200  0.66552200  1
  O  O23  1  0.33479700  0.75210700  0.16177800  1
  O  O24  1  0.51698000  0.37601900  0.32919100  1
  O  O25  1  0.65422200  0.08507100  0.34170800  1
  O  O26  1  0.20094800  0.01630000  0.23839600  1
  O  O27  1  0.20572000  0.98503800  0.41794300  1
  O  O28  1  0.79890600  0.01314900  0.57991400  1
  O  O29  1  0.34620400  0.90731500  0.66284600  1
  O  O30  1  0.47323200  0.61197200  0.67342500  1
  O  O31  1  0.66015500  0.25434800  0.84317100  1
  O  O32  1  0.51508000  0.67219200  0.33259300  1
  O  O33  1  0.62014000  0.47759500  0.17818000  1
  O  O34  1  0.75555300  0.24469300  0.06979500  1
  O  O35  1  0.76740000  0.22950500  0.42833500  1
  O  O36  1  0.78692900  0.20810000  0.24895400  1
  O  O37  1  0.74847000  0.33420100  0.66547100  1
  O  O38  1  0.51834300  0.81655100  0.82632700  1
  O  O39  1  0.47926100  0.90552100  0.17622800  1
  O  O40  1  0.66324200  0.51703500  0.83245400  1
  O  O41  1  0.67144700  0.66994500  0.97482900  1
  O  O42  1  0.66891700  0.65556800  0.47884400  1
  O  O43  1  0.81666600  0.51159400  0.33049700  1
  O  O44  1  0.61916700  0.92603900  0.66404900  1
  O  O45  1  0.67301800  0.80914700  0.32947200  1
  O  O46  1  0.91466200  0.34043000  0.16063600  1
  O  O47  1  0.01585400  0.20102600  0.73834800  1
  O  O48  1  0.98772000  0.23620800  0.91837100  1
  O  O49  1  0.91362600  0.46995900  0.66530900  1
  O  O50  1  0.81604500  0.66253400  0.82284100  1
  O  O51  1  0.89809500  0.62292100  0.17798700  1
  O  O52  1  0.75155100  0.91908000  0.16376900  1
  O  O53  1  0.74555900  0.00289900  0.93690500  1
  O  O54  1  0.79287900  0.99273000  0.76029200  1
  O  O55  1  0.91712600  0.75041600  0.65993300  1
  O  O56  1  0.01667500  0.77170400  0.43387800  1
  O  O57  1  0.00591000  0.78543900  0.25165800  1
loop_
_geom_bond_atom_site_label_1
_geom_bond_atom_site_label_2
_geom_bond_distance
_geom_bond_site_symmetry_2
Li0 O56 1.966142 1_555
Li0 O55 1.997176 1_455
Li0 O19 2.015503 1_555
Li0 O11 2.183249 1_555
Li1 O13 1.881159 1_555
Li1 O10 2.201849 1_555
Li1 O6 2.222242 1_555
Li1 O24 2.308085 1_555
Li2 O12 1.870210 1_556
Li2 O4 2.148240 1_555
Li2 O21 2.192683 1_555
Li2 O15 2.202124 1_555
Li3 O7 1.949884 1_555
Li3 O20 1.986203 1_554
Li3 O23 2.007215 1_555
Li3 O14 2.208068 1_555
Li4 O34 1.963600 1_555
Li4 O52 1.985311 1_545
Li4 O53 1.988769 1_554
Li4 O16 2.203589 1_555
Li5 O27 1.926978 1_555
Li5 O19 2.103098 1_555
Li5 O32 2.104686 1_555
Li5 O17 2.145470 1_555
Li6 O28 1.908235 1_555
Li6 O35 2.039126 1_555
Li6 O37 2.090062 1_555
Li6 O22 2.160207 1_555
Li7 O2 1.866877 1_556
Li7 O20 1.981089 1_555
Li7 O3 1.989542 1_565
Li7 O38 2.331772 1_555
Li8 O48 1.854461 1_555
Li8 O34 1.954249 1_556
Li8 O31 2.099688 1_555
Li8 O40 2.291308 1_555
Li9 O0 1.953801 1_555
Li9 O35 2.016477 1_555
Li9 O1 2.018141 1_655
Li9 O43 2.106796 1_555
Li10 O7 1.975054 1_656
Li10 O53 1.975163 1_565
Li10 O8 2.028569 1_655
Li10 O50 2.489890 1_555
Li11 O27 2.189958 1_545
Li11 O28 2.259378 1_455
Li11 O56 2.357609 1_545
Li11 O0 2.385009 1_455
Li11 O35 2.444458 1_455
Li11 O19 2.547586 1_545
O0 P13 1.498858 1_555
O1 P1 1.540471 1_555
O1 V4 2.019634 1_555
O2 P8 1.484612 1_555
O3 P0 1.546165 1_555
O3 V2 2.014914 1_555
O4 P0 1.571143 1_555
O4 V5 1.945532 1_455
O5 P3 1.584432 1_555
O5 V4 1.858625 1_555
O6 P2 1.546554 1_555
O6 V4 2.047651 1_555
O7 P15 1.510768 1_455
O8 P5 1.540160 1_555
O8 V5 2.086917 1_455
O9 P4 1.559774 1_555
O9 V2 1.918336 1_555
O10 P1 1.563065 1_555
O10 V3 1.995283 1_545
O11 P4 1.581177 1_555
O11 V5 1.968664 1_455
O12 P3 1.503146 1_555
O13 P4 1.502187 1_555
O14 P3 1.576348 1_555
O14 V0 1.972885 1_555
O15 P7 1.548957 1_555
O15 V2 1.988334 1_555
O16 P3 1.559701 1_555
O16 V3 2.066999 1_545
O17 P2 1.563112 1_555
O17 V0 1.930555 1_555
O18 P6 1.612876 1_555
O18 P5 1.614899 1_555
O19 P6 1.511804 1_555
O20 P5 1.505062 1_555
O21 P5 1.553190 1_555
O21 V1 1.981910 1_555
O22 P4 1.577622 1_555
O22 V1 1.971625 1_555
O23 P8 1.562403 1_555
O23 V0 1.955293 1_555
O24 P9 1.544467 1_555
O24 V0 2.015093 1_555
O25 P9 1.528610 1_555
O25 V3 1.949428 1_545
O26 P1 1.609853 1_555
O26 P8 1.612068 1_545
O27 P1 1.503878 1_565
O28 P14 1.500925 1_545
O29 P6 1.519971 1_555
O29 V2 1.932753 1_565
O30 P6 1.550803 1_555
O30 V1 1.871995 1_555
O31 P7 1.555645 1_555
O31 V1 1.991848 1_555
O32 P11 1.567246 1_555
O32 V0 1.980521 1_555
O33 P10 1.561913 1_555
O33 V0 1.836560 1_555
O34 P10 1.505072 1_555
O35 P9 1.518432 1_555
O36 P9 1.613839 1_555
O36 P10 1.613911 1_555
O37 P13 1.556417 1_555
O37 V1 1.943617 1_555
O38 P12 1.572829 1_555
O38 V2 1.959107 1_565
O39 P8 1.541317 1_555
O39 V3 1.887592 1_555
O40 P12 1.569473 1_555
O40 V1 1.952907 1_555
O41 P12 1.488118 1_555
O42 P11 1.490119 1_555
O43 P11 1.586264 1_555
O43 V4 1.948078 1_655
O44 P14 1.539334 1_555
O44 V2 1.920898 1_565
O45 P11 1.582079 1_555
O45 V3 1.855651 1_555
O46 P10 1.512978 1_555
O46 V4 1.966501 1_655
O47 P13 1.604308 1_455
O47 P0 1.616464 1_555
O48 P0 1.481350 1_655
O49 P13 1.542979 1_555
O49 V5 1.917867 1_555
O50 P12 1.600800 1_555
O50 V5 1.855234 1_555
O51 P15 1.530726 1_555
O51 V4 1.896591 1_655
O52 P15 1.538403 1_555
O52 V3 2.030591 1_555
O53 P7 1.506120 1_555
O54 P7 1.595183 1_565
O54 P14 1.637187 1_555
O55 P14 1.538604 1_555
O55 V5 2.013652 1_555
O56 P2 1.500885 1_555
O57 P2 1.608447 1_555
O57 P15 1.621180 1_455
