# generated using pymatgen
data_Ce2Ge5Ir3
_symmetry_space_group_name_H-M   'P 1'
_cell_length_a   8.43364764
_cell_length_b   8.43364764
_cell_length_c   8.43364764
_cell_angle_alpha   137.63041672
_cell_angle_beta   104.99151161
_cell_angle_gamma   90.14386156
_symmetry_Int_Tables_number   1
_chemical_formula_structural   Ce2Ge5Ir3
_chemical_formula_sum   'Ce4 Ge10 Ir6'
_cell_volume   372.81647769
_cell_formula_units_Z   2
loop_
 _symmetry_equiv_pos_site_id
 _symmetry_equiv_pos_as_xyz
  1  'x, y, z'
loop_
 _atom_site_type_symbol
 _atom_site_label
 _atom_site_symmetry_multiplicity
 _atom_site_fract_x
 _atom_site_fract_y
 _atom_site_fract_z
 _atom_site_occupancy
  Ce  Ce0  1  0.86209400  0.63501000  0.22708400  1
  Ce  Ce1  1  0.13790600  0.36499000  0.77291600  1
  Ce  Ce2  1  0.40792500  0.13501000  0.27291600  1
  Ce  Ce3  1  0.59207500  0.86499000  0.72708400  1
  Ge  Ge0  1  0.50000000  0.75000000  0.25000000  1
  Ge  Ge1  1  0.50000000  0.25000000  0.75000000  1
  Ge  Ge2  1  0.22238500  0.97238500  0.75000000  1
  Ge  Ge3  1  0.77761500  0.52761500  0.75000000  1
  Ge  Ge4  1  0.77761500  0.02761500  0.25000000  1
  Ge  Ge5  1  0.22238500  0.47238500  0.25000000  1
  Ge  Ge6  1  0.06228800  0.90134500  0.16094300  1
  Ge  Ge7  1  0.93771200  0.09865500  0.83905700  1
  Ge  Ge8  1  0.74040200  0.40134500  0.33905700  1
  Ge  Ge9  1  0.25959800  0.59865500  0.66094300  1
  Ir  Ir0  1  0.00000000  0.75000000  0.75000000  1
  Ir  Ir1  1  0.00000000  0.25000000  0.25000000  1
  Ir  Ir2  1  0.24863600  0.85825300  0.39038300  1
  Ir  Ir3  1  0.75136400  0.14174700  0.60961700  1
  Ir  Ir4  1  0.46786900  0.35825300  0.10961700  1
  Ir  Ir5  1  0.53213100  0.64174700  0.89038300  1
loop_
_geom_bond_atom_site_label_1
_geom_bond_atom_site_label_2
_geom_bond_distance
_geom_bond_site_symmetry_2
Ce0 Ge8 3.011578 1_555
Ce0 Ir2 3.143859 1_655
Ce0 Ge1 3.216617 1_554
Ce0 Ge0 3.216617 1_555
Ce0 Ge6 3.244473 1_655
Ce0 Ge3 3.262792 1_554
Ce0 Ge4 3.262792 1_565
Ce0 Ir3 3.278751 1_554
Ce0 Ir3 3.278751 1_565
Ce0 Ge7 3.286088 1_554
Ce0 Ge7 3.286088 1_565
Ce0 Ge2 3.355607 1_655
Ce0 Ge5 3.355607 1_655
Ce0 Ir5 3.458559 1_554
Ce0 Ir4 3.510498 1_555
Ce0 Ir0 3.572568 1_655
Ce0 Ir1 3.572568 1_655
Ce1 Ge9 3.011578 1_555
Ce1 Ir3 3.143859 1_455
Ce1 Ge0 3.216617 1_556
Ce1 Ge1 3.216617 1_555
Ce1 Ge7 3.244473 1_455
Ce1 Ge2 3.262792 1_545
Ce1 Ge5 3.262792 1_556
Ce1 Ir2 3.278751 1_556
Ce1 Ir2 3.278751 1_545
Ce1 Ge6 3.286088 1_556
Ce1 Ge6 3.286088 1_545
Ce1 Ge3 3.355607 1_455
Ce1 Ge4 3.355607 1_455
Ce1 Ir4 3.458559 1_556
Ce1 Ir5 3.510498 1_555
Ce1 Ir0 3.572568 1_555
Ce1 Ir1 3.572568 1_555
Ce2 Ge6 3.011571 1_545
Ce2 Ir4 3.143859 1_555
Ce2 Ge1 3.216617 1_555
Ce2 Ge0 3.216620 1_545
Ce2 Ge8 3.244479 1_555
Ce2 Ge3 3.262797 1_555
Ce2 Ge4 3.262800 1_555
Ce2 Ir5 3.278749 1_555
Ce2 Ir5 3.278761 1_544
Ce2 Ge9 3.286083 1_555
Ce2 Ge9 3.286089 1_544
Ce2 Ge5 3.355603 1_555
Ce2 Ge2 3.355606 1_544
Ce2 Ir3 3.458570 1_555
Ce2 Ir2 3.510487 1_545
Ce2 Ir1 3.572560 1_555
Ce2 Ir0 3.572563 1_544
Ce3 Ge7 3.011571 1_565
Ce3 Ir5 3.143859 1_555
Ce3 Ge0 3.216617 1_555
Ce3 Ge1 3.216620 1_565
Ce3 Ge9 3.244479 1_555
Ce3 Ge5 3.262797 1_555
Ce3 Ge2 3.262800 1_555
Ce3 Ir4 3.278749 1_555
Ce3 Ir4 3.278761 1_566
Ce3 Ge8 3.286083 1_555
Ce3 Ge8 3.286089 1_566
Ce3 Ge3 3.355603 1_555
Ce3 Ge4 3.355606 1_566
Ce3 Ir2 3.458570 1_555
Ce3 Ir3 3.510487 1_565
Ce3 Ir0 3.572560 1_655
Ce3 Ir1 3.572563 1_666
Ge0 Ir4 2.537774 1_555
Ge0 Ir2 2.537774 1_555
Ge0 Ir3 2.537774 1_565
Ge0 Ir5 2.537778 1_554
Ge1 Ir5 2.537774 1_555
Ge1 Ir2 2.537774 1_545
Ge1 Ir3 2.537774 1_555
Ge1 Ir4 2.537778 1_556
Ge2 Ir4 2.491724 1_566
Ge2 Ir2 2.491728 1_555
Ge2 Ir0 2.649049 1_555
Ge2 Ge9 2.688128 1_555
Ge2 Ge7 2.688128 1_465
Ge3 Ir5 2.491720 1_555
Ge3 Ir3 2.491728 1_555
Ge3 Ir0 2.649049 1_655
Ge3 Ge6 2.688128 1_656
Ge3 Ge8 2.688128 1_555
Ge4 Ir5 2.491724 1_544
Ge4 Ir3 2.491728 1_555
Ge4 Ir1 2.649049 1_655
Ge4 Ge8 2.688128 1_555
Ge4 Ge6 2.688128 1_645
Ge5 Ir4 2.491720 1_555
Ge5 Ir2 2.491728 1_555
Ge5 Ir1 2.649049 1_555
Ge5 Ge9 2.688128 1_555
Ge5 Ge7 2.688128 1_454
Ge6 Ir2 2.411421 1_555
Ge6 Ir1 2.536687 1_565
Ge6 Ir0 2.536687 1_554
Ge7 Ir3 2.411421 1_555
Ge7 Ir1 2.536687 1_656
Ge7 Ir0 2.536687 1_645
Ge8 Ir4 2.411427 1_555
Ge8 Ir0 2.536687 1_655
Ge8 Ir1 2.536687 1_655
Ge9 Ir5 2.411427 1_555
Ge9 Ir0 2.536687 1_555
Ge9 Ir1 2.536687 1_555
