# generated using pymatgen
data_NaFeO2
_symmetry_space_group_name_H-M   'P 1'
_cell_length_a   5.61429207
_cell_length_b   5.61429233
_cell_length_c   5.61429099
_cell_angle_alpha   31.18323422
_cell_angle_beta   31.18322056
_cell_angle_gamma   31.18322551
_symmetry_Int_Tables_number   1
_chemical_formula_structural   NaFeO2
_chemical_formula_sum   'Na1 Fe1 O2'
_cell_volume   42.09905783
_cell_formula_units_Z   1
loop_
 _symmetry_equiv_pos_site_id
 _symmetry_equiv_pos_as_xyz
  1  'x, y, z'
loop_
 _atom_site_type_symbol
 _atom_site_label
 _atom_site_symmetry_multiplicity
 _atom_site_fract_x
 _atom_site_fract_y
 _atom_site_fract_z
 _atom_site_occupancy
  Na  Na0  1  0.00000000  -0.00000000  0.00000000  1
  Fe  Fe0  1  0.50000000  0.50000000  0.50000000  1
  O  O0  1  0.76513884  0.76513884  0.76513884  1
  O  O1  1  0.23486116  0.23486116  0.23486116  1
loop_
_geom_bond_atom_site_label_1
_geom_bond_atom_site_label_2
_geom_bond_distance
_geom_bond_site_symmetry_2
Na0 O0 2.349884 1_445
Na0 O1 2.349884 1_554
Na0 O1 2.349885 1_455
Na0 O0 2.349885 1_544
Na0 O0 2.349885 1_454
Na0 O1 2.349885 1_545
Fe0 O1 2.056284 1_556
Fe0 O0 2.056284 1_554
Fe0 O1 2.056285 1_655
Fe0 O0 2.056285 1_455
Fe0 O1 2.056285 1_565
Fe0 O0 2.056285 1_545
