# generated using pymatgen
data_ZnCu2(MoO4)2
_symmetry_space_group_name_H-M   'P 1'
_cell_length_a   8.71030200
_cell_length_b   6.59676800
_cell_length_c   12.63325486
_cell_angle_alpha   88.27263175
_cell_angle_beta   90.00000000
_cell_angle_gamma   90.00000000
_symmetry_Int_Tables_number   1
_chemical_formula_structural   ZnCu2(MoO4)2
_chemical_formula_sum   'Zn4 Cu8 Mo8 O32'
_cell_volume   725.57495303
_cell_formula_units_Z   4
loop_
 _symmetry_equiv_pos_site_id
 _symmetry_equiv_pos_as_xyz
  1  'x, y, z'
loop_
 _atom_site_type_symbol
 _atom_site_label
 _atom_site_symmetry_multiplicity
 _atom_site_fract_x
 _atom_site_fract_y
 _atom_site_fract_z
 _atom_site_occupancy
  Zn  Zn0  1  0.83545900  0.89177700  0.05260700  1
  Zn  Zn1  1  0.16454100  0.10822300  0.94739300  1
  Zn  Zn2  1  0.33545900  0.10822300  0.44739300  1
  Zn  Zn3  1  0.66454100  0.89177700  0.55260700  1
  Cu  Cu0  1  0.81983200  0.23105900  0.86724600  1
  Cu  Cu1  1  0.94649700  0.62234200  0.61949400  1
  Cu  Cu2  1  0.05350300  0.37765800  0.38050600  1
  Cu  Cu3  1  0.18016800  0.76894100  0.13275400  1
  Cu  Cu4  1  0.68016800  0.23105900  0.36724600  1
  Cu  Cu5  1  0.55350300  0.62234200  0.11949400  1
  Cu  Cu6  1  0.31983200  0.76894100  0.63275400  1
  Cu  Cu7  1  0.44649700  0.37765800  0.88050600  1
  Mo  Mo0  1  0.54331200  0.90054400  0.84551200  1
  Mo  Mo1  1  0.95668800  0.90054400  0.34551200  1
  Mo  Mo2  1  0.91786100  0.38874000  0.13121600  1
  Mo  Mo3  1  0.04331200  0.09945600  0.65448800  1
  Mo  Mo4  1  0.08213900  0.61126000  0.86878400  1
  Mo  Mo5  1  0.41786100  0.61126000  0.36878400  1
  Mo  Mo6  1  0.58213900  0.38874000  0.63121600  1
  Mo  Mo7  1  0.45668800  0.09945600  0.15448800  1
  O  O0  1  0.76668400  0.95953300  0.40070000  1
  O  O1  1  0.98726800  0.34085300  0.60026500  1
  O  O2  1  0.42382600  0.82129700  0.46484800  1
  O  O3  1  0.92382600  0.17870300  0.03515200  1
  O  O4  1  0.73331600  0.95953300  0.90070000  1
  O  O5  1  0.23331600  0.04046700  0.59930000  1
  O  O6  1  0.89659800  0.91632600  0.61344600  1
  O  O7  1  0.10393900  0.49532600  0.13604000  1
  O  O8  1  0.39606100  0.49532600  0.63604000  1
  O  O9  1  0.12954200  0.69363200  0.73479500  1
  O  O10  1  0.62954200  0.30636800  0.76520500  1
  O  O11  1  0.89606100  0.50467400  0.86396000  1
  O  O12  1  0.10340200  0.08367400  0.38655400  1
  O  O13  1  0.45692900  0.12079100  0.29696600  1
  O  O14  1  0.70977300  0.59369600  0.58571500  1
  O  O15  1  0.79022700  0.59369600  0.08571500  1
  O  O16  1  0.95692900  0.87920900  0.20303400  1
  O  O17  1  0.60393900  0.50467400  0.36396000  1
  O  O18  1  0.54307100  0.87920900  0.70303400  1
  O  O19  1  0.57617400  0.17870300  0.53515200  1
  O  O20  1  0.51273200  0.34085300  0.10026500  1
  O  O21  1  0.87045800  0.30636800  0.26520500  1
  O  O22  1  0.26668400  0.04046700  0.09930000  1
  O  O23  1  0.60340200  0.91632600  0.11344600  1
  O  O24  1  0.07617400  0.82129700  0.96484800  1
  O  O25  1  0.20977300  0.40630400  0.91428500  1
  O  O26  1  0.01273200  0.65914700  0.39973500  1
  O  O27  1  0.48726800  0.65914700  0.89973500  1
  O  O28  1  0.39659800  0.08367400  0.88655400  1
  O  O29  1  0.29022700  0.40630400  0.41428500  1
  O  O30  1  0.37045800  0.69363200  0.23479500  1
  O  O31  1  0.04307100  0.12079100  0.79696600  1
loop_
_geom_bond_atom_site_label_1
_geom_bond_atom_site_label_2
_geom_bond_distance
_geom_bond_site_symmetry_2
Cu0 O11 1.922500 1_555
Cu0 O4 1.977180 1_545
Cu0 O10 2.148779 1_555
Cu0 O31 2.266576 1_655
Cu0 O3 2.322739 1_556
Cu1 O1 1.913235 1_555
Cu1 O6 1.986673 1_555
Cu1 O14 2.115246 1_555
Cu1 O9 2.219519 1_655
Cu2 O26 1.913235 1_555
Cu2 O12 1.986673 1_555
Cu2 O29 2.115246 1_555
Cu2 O21 2.219519 1_455
Cu3 O7 1.922500 1_555
Cu3 O22 1.977180 1_565
Cu3 O30 2.148779 1_555
Cu3 O16 2.266576 1_455
Cu3 O24 2.322739 1_554
Cu4 O17 1.922500 1_555
Cu4 O0 1.977180 1_545
Cu4 O21 2.148779 1_555
Cu4 O13 2.266576 1_555
Cu4 O19 2.322739 1_555
Cu5 O20 1.913235 1_555
Cu5 O23 1.986673 1_555
Cu5 O15 2.115246 1_555
Cu5 O30 2.219519 1_555
Cu6 O8 1.922500 1_555
Cu6 O5 1.977180 1_565
Cu6 O9 2.148779 1_555
Cu6 O18 2.266576 1_555
Cu6 O2 2.322739 1_555
Cu7 O27 1.913235 1_555
Cu7 O28 1.986673 1_555
Cu7 O25 2.115246 1_555
Cu7 O10 2.219519 1_555
Mo0 O27 1.782595 1_555
Mo0 O18 1.809681 1_555
Mo0 O4 1.841976 1_555
Mo0 O28 1.843668 1_565
Mo1 O26 1.782595 1_655
Mo1 O16 1.809681 1_555
Mo1 O0 1.841976 1_555
Mo1 O12 1.843668 1_665
Mo2 O7 1.768519 1_655
Mo2 O21 1.809860 1_555
Mo2 O15 1.829630 1_555
Mo2 O3 1.869945 1_555
Mo3 O1 1.782595 1_455
Mo3 O31 1.809681 1_555
Mo3 O5 1.841976 1_555
Mo3 O6 1.843668 1_445
Mo4 O11 1.768519 1_455
Mo4 O9 1.809860 1_555
Mo4 O25 1.829630 1_555
Mo4 O24 1.869945 1_555
Mo5 O17 1.768519 1_555
Mo5 O30 1.809860 1_555
Mo5 O29 1.829630 1_555
Mo5 O2 1.869945 1_555
Mo6 O8 1.768519 1_555
Mo6 O10 1.809860 1_555
Mo6 O14 1.829630 1_555
Mo6 O19 1.869945 1_555
Mo7 O20 1.782595 1_555
Mo7 O13 1.809681 1_555
Mo7 O22 1.841976 1_555
Mo7 O23 1.843668 1_545
O0 Zn3 2.149999 1_555
O2 Zn2 2.049034 1_565
O2 Zn3 2.423339 1_555
O3 Zn0 2.049034 1_545
O3 Zn1 2.423339 1_654
O4 Zn0 2.149999 1_556
O5 Zn2 2.149999 1_555
O6 Zn3 2.170269 1_555
O12 Zn2 2.170269 1_555
O13 Zn2 2.174461 1_555
O14 Zn3 2.036467 1_555
O15 Zn0 2.036467 1_555
O16 Zn0 2.174461 1_555
O18 Zn3 2.174461 1_555
O19 Zn3 2.049034 1_545
O19 Zn2 2.423339 1_555
O22 Zn1 2.149999 1_554
O23 Zn0 2.170269 1_555
O24 Zn1 2.049034 1_565
O24 Zn0 2.423339 1_456
O25 Zn1 2.036467 1_555
O28 Zn1 2.170269 1_555
O29 Zn2 2.036467 1_555
O31 Zn1 2.174461 1_555
