# generated using pymatgen
data_LiYF2
_symmetry_space_group_name_H-M   'P 1'
_cell_length_a   7.36388199
_cell_length_b   7.36388199
_cell_length_c   7.36388199
_cell_angle_alpha   125.62281706
_cell_angle_beta   125.62281706
_cell_angle_gamma   80.50895490
_symmetry_Int_Tables_number   1
_chemical_formula_structural   LiYF2
_chemical_formula_sum   'Li4 Y4 F8'
_cell_volume   254.50156182
_cell_formula_units_Z   4
loop_
 _symmetry_equiv_pos_site_id
 _symmetry_equiv_pos_as_xyz
  1  'x, y, z'
loop_
 _atom_site_type_symbol
 _atom_site_label
 _atom_site_symmetry_multiplicity
 _atom_site_fract_x
 _atom_site_fract_y
 _atom_site_fract_z
 _atom_site_occupancy
  Li  Li0  1  0.87500000  0.62500000  0.25000000  1
  Li  Li1  1  0.37500000  0.62500000  0.75000000  1
  Li  Li2  1  0.37500000  0.62500000  0.25000000  1
  Li  Li3  1  0.37500000  0.12500000  0.75000000  1
  Y  Y0  1  0.37500000  0.12500000  0.25000000  1
  Y  Y1  1  0.87500000  0.12500000  0.75000000  1
  Y  Y2  1  0.87500000  0.12500000  0.25000000  1
  Y  Y3  1  0.87500000  0.62500000  0.75000000  1
  F  F0  1  0.20848000  0.41391300  0.20543300  1
  F  F1  1  0.20848000  0.00304800  0.79456700  1
  F  F2  1  0.16391300  0.45848000  0.70543300  1
  F  F3  1  0.54152000  0.83608700  0.29456700  1
  F  F4  1  0.75304800  0.45848000  0.29456700  1
  F  F5  1  0.54152000  0.24695200  0.70543300  1
  F  F6  1  0.58608700  0.79152000  0.79456700  1
  F  F7  1  0.99695200  0.79152000  0.20543300  1
loop_
_geom_bond_atom_site_label_1
_geom_bond_atom_site_label_2
_geom_bond_distance
_geom_bond_site_symmetry_2
F0 Li2 1.895555 1_555
F0 Y1 2.371056 1_454
F0 Y0 2.371056 1_555
F1 Li3 1.895550 1_555
F1 Y1 2.371054 1_455
F1 Y0 2.371058 1_556
F2 Li1 1.895555 1_555
F2 Y3 2.371056 1_455
F2 Y2 2.371056 1_455
F3 Li2 1.895555 1_555
F3 Y0 2.371056 1_565
F3 Y1 2.371056 1_565
F4 Li0 1.895550 1_555
F4 Y2 2.371054 1_555
F4 Y3 2.371058 1_555
F5 Li3 1.895550 1_555
F5 Y1 2.371054 1_555
F5 Y0 2.371058 1_555
F6 Li1 1.895555 1_555
F6 Y3 2.371056 1_555
F6 Y2 2.371056 1_566
F7 Li0 1.895550 1_555
F7 Y2 2.371054 1_565
F7 Y3 2.371058 1_554
