# generated using pymatgen
data_CuH
_symmetry_space_group_name_H-M   'P 1'
_cell_length_a   2.83989730
_cell_length_b   2.83989730
_cell_length_c   4.68527700
_cell_angle_alpha   90.00000000
_cell_angle_beta   90.00000000
_cell_angle_gamma   119.99998361
_symmetry_Int_Tables_number   1
_chemical_formula_structural   CuH
_chemical_formula_sum   'Cu2 H2'
_cell_volume   32.72436621
_cell_formula_units_Z   2
loop_
 _symmetry_equiv_pos_site_id
 _symmetry_equiv_pos_as_xyz
  1  'x, y, z'
loop_
 _atom_site_type_symbol
 _atom_site_label
 _atom_site_symmetry_multiplicity
 _atom_site_fract_x
 _atom_site_fract_y
 _atom_site_fract_z
 _atom_site_occupancy
  Cu  Cu0  1  0.33333300  0.66666700  0.27637600  1
  Cu  Cu1  1  0.66666700  0.33333300  0.72362400  1
  H  H0  1  0.33333300  0.66666700  0.81338200  1
  H  H1  1  0.66666700  0.33333300  0.18661800  1
loop_
_geom_bond_atom_site_label_1
_geom_bond_atom_site_label_2
_geom_bond_distance
_geom_bond_site_symmetry_2
Cu0 H1 1.692687 1_455
Cu0 H1 1.692687 1_565
Cu0 H1 1.692691 1_555
Cu0 H0 2.169255 1_554
Cu1 H0 1.692687 1_545
Cu1 H0 1.692687 1_655
Cu1 H0 1.692691 1_555
Cu1 H1 2.169255 1_556
