# generated using pymatgen
data_Na2Al2Si3(HO3)4
_symmetry_space_group_name_H-M   'P 1'
_cell_length_a   9.02883100
_cell_length_b   9.72933172
_cell_length_c   15.82928454
_cell_angle_alpha   90.66450596
_cell_angle_beta   95.25279464
_cell_angle_gamma   117.43853602
_symmetry_Int_Tables_number   1
_chemical_formula_structural   Na2Al2Si3(HO3)4
_chemical_formula_sum   'Na8 Al8 Si12 H16 O48'
_cell_volume   1226.62999230
_cell_formula_units_Z   4
loop_
 _symmetry_equiv_pos_site_id
 _symmetry_equiv_pos_as_xyz
  1  'x, y, z'
loop_
 _atom_site_type_symbol
 _atom_site_label
 _atom_site_symmetry_multiplicity
 _atom_site_fract_x
 _atom_site_fract_y
 _atom_site_fract_z
 _atom_site_occupancy
  Na  Na0  1  0.64135500  0.15326500  0.16729300  1
  Na  Na1  1  0.62929400  0.58882600  0.16581300  1
  Na  Na2  1  0.30890900  0.36971800  0.29959400  1
  Na  Na3  1  0.52548400  0.89933500  0.51885500  1
  Na  Na4  1  0.91396000  0.79782600  0.70396400  1
  Na  Na5  1  0.54619100  0.50653900  0.66850600  1
  Na  Na6  1  0.12279900  0.73888800  0.52872700  1
  Na  Na7  1  0.02242900  0.46998600  0.89240600  1
  Al  Al0  1  0.29906400  0.68876600  0.16355400  1
  Al  Al1  1  0.98023500  0.33072400  0.45192900  1
  Al  Al2  1  0.67248300  0.34622300  0.35916200  1
  Al  Al3  1  0.48827600  0.82463500  0.95284800  1
  Al  Al4  1  0.87155100  0.03332300  0.97075000  1
  Al  Al5  1  0.70232000  0.13187000  0.82970900  1
  Al  Al6  1  0.45213800  0.22533200  0.51872500  1
  Al  Al7  1  0.53469900  0.18667400  0.96515800  1
  Si  Si0  1  0.04653500  0.11824000  0.13833800  1
  Si  Si1  1  0.93572800  0.02467400  0.53841400  1
  Si  Si2  1  0.23234100  0.20751800  0.03354600  1
  Si  Si3  1  0.55308100  0.72964600  0.32434900  1
  Si  Si4  1  0.65806600  0.78709800  0.83546800  1
  Si  Si5  1  0.30250600  0.69093600  0.75080700  1
  Si  Si6  1  0.21120100  0.08890600  0.59780300  1
  Si  Si7  1  0.93568000  0.81080800  0.33825000  1
  Si  Si8  1  0.06944300  0.82461500  0.21663200  1
  Si  Si9  1  0.94054100  0.55413800  0.08747400  1
  Si  Si10  1  0.31926500  0.00088900  0.77309900  1
  Si  Si11  1  0.81404300  0.46671700  0.55552300  1
  H  H0  1  0.94525300  0.59789400  0.99859400  1
  H  H1  1  0.83253300  0.86662600  0.49559600  1
  H  H2  1  0.16583200  0.53370900  0.76067000  1
  H  H3  1  0.39567100  0.59854000  0.43297600  1
  H  H4  1  0.04183100  0.95861600  0.39047000  1
  H  H5  1  0.90501100  0.27134000  0.29081100  1
  H  H6  1  0.56474900  0.14633100  0.66561000  1
  H  H7  1  0.26121100  0.45786900  0.02587900  1
  H  H8  1  0.56056200  0.88919700  0.32097600  1
  H  H9  1  0.91934500  0.68527100  0.39704800  1
  H  H10  1  0.86153800  0.31562000  0.73302800  1
  H  H11  1  0.20567500  0.07410500  0.88464900  1
  H  H12  1  0.69956000  0.95261700  0.70246600  1
  H  H13  1  0.48602700  0.07101000  0.31102500  1
  H  H14  1  0.85314200  0.17562400  0.92478100  1
  H  H15  1  0.71079900  0.51241600  0.84868700  1
  O  O0  1  0.51249900  0.07054900  0.75158400  1
  O  O1  1  0.84725800  0.63460700  0.58700500  1
  O  O2  1  0.74946000  0.40556500  0.09867500  1
  O  O3  1  0.86459200  0.04005900  0.08106500  1
  O  O4  1  0.87314300  0.35990400  0.36155100  1
  O  O5  1  0.42913600  0.64032300  0.23221400  1
  O  O6  1  0.89395700  0.18428000  0.24801000  1
  O  O7  1  0.53468500  0.17782300  0.29541500  1
  O  O8  1  0.56445100  0.56066600  0.36303900  1
  O  O9  1  0.73101000  0.27506100  0.03974000  1
  O  O10  1  0.98198500  0.46242400  0.53097300  1
  O  O11  1  0.39154800  0.17182000  0.03602500  1
  O  O12  1  0.75175000  0.45470000  0.88915400  1
  O  O13  1  0.72395500  0.36164700  0.64035800  1
  O  O14  1  0.63237100  0.48806800  0.30305600  1
  O  O15  1  0.88394100  0.14213700  0.48787800  1
  O  O16  1  0.32014700  0.39687000  0.01778200  1
  O  O17  1  0.35396800  0.24623100  0.41718400  1
  O  O18  1  0.62690200  0.29106900  0.87136600  1
  O  O19  1  0.73747600  0.96168800  0.80182200  1
  O  O20  1  0.08598900  0.09248300  0.95557500  1
  O  O21  1  0.70006800  0.94743200  0.63850700  1
  O  O22  1  0.65457200  0.35647400  0.47795000  1
  O  O23  1  0.70034800  0.83268200  0.94324300  1
  O  O24  1  0.60790400  0.19680400  0.60902300  1
  O  O25  1  0.42079000  0.76385200  0.06862100  1
  O  O26  1  0.10549400  0.53531800  0.11860300  1
  O  O27  1  0.87989200  0.27903900  0.78778900  1
  O  O28  1  0.30685700  0.01807200  0.53641400  1
  O  O29  1  0.70499300  0.66505000  0.79418300  1
  O  O30  1  0.24687100  0.82125000  0.21249400  1
  O  O31  1  0.35016600  0.27439100  0.59883900  1
  O  O32  1  0.31118900  0.09159800  0.86015800  1
  O  O33  1  0.18578200  0.21793800  0.42112200  1
  O  O34  1  0.75697300  0.80446200  0.29951600  1
  O  O35  1  0.44301500  0.70507900  0.41409900  1
  O  O36  1  0.92285000  0.68671000  0.14646100  1
  O  O37  1  0.55211100  0.01955400  0.93034300  1
  O  O38  1  0.42843500  0.66876100  0.68213000  1
  O  O39  1  0.19142500  0.37626200  0.43231700  1
  O  O40  1  0.08908000  0.99225200  0.18701600  1
  O  O41  1  0.31278100  0.73683000  0.64507600  1
  O  O42  1  0.44865400  0.72647300  0.84066300  1
  O  O43  1  0.29655000  0.68862700  0.98720700  1
  O  O44  1  0.05685600  0.25274500  0.21002000  1
  O  O45  1  0.23168200  0.81215700  0.78627800  1
  O  O46  1  0.19726100  0.01679700  0.69345900  1
  O  O47  1  0.88402400  0.00771500  0.63903800  1
loop_
_geom_bond_atom_site_label_1
_geom_bond_atom_site_label_2
_geom_bond_distance
_geom_bond_site_symmetry_2
Na0 O9 2.367881 1_555
Na0 O7 2.378286 1_555
Na0 O6 2.397581 1_555
Na0 O2 2.491173 1_555
Na1 O14 2.396831 1_555
Na1 O5 2.406616 1_555
Na1 O36 2.419701 1_555
Na1 O34 2.726007 1_555
Na1 O2 2.726841 1_555
Na2 O8 2.316361 1_555
Na2 O17 2.331811 1_555
Na2 O44 2.338695 1_555
Na2 O39 2.451578 1_555
Na2 O33 2.462053 1_555
Na2 O14 2.593871 1_555
Na2 O5 2.625043 1_555
Na3 O21 2.245869 1_555
Na3 O35 2.297916 1_555
Na3 O28 2.739135 1_565
Na3 O41 2.856121 1_555
Na4 O1 2.271199 1_555
Na4 O29 2.357531 1_555
Na4 O47 2.409537 1_565
Na4 O46 2.484577 1_665
Na5 O38 2.290970 1_555
Na5 O31 2.313185 1_555
Na5 O29 2.400109 1_555
Na5 O13 2.638818 1_555
Na5 O1 2.857257 1_555
Na6 O10 2.389896 1_455
Na6 O41 2.405975 1_555
Na6 O28 2.439237 1_565
Na6 O1 2.487033 1_455
Na7 O27 2.277055 1_455
Na7 O12 2.374723 1_455
Na7 O43 2.701190 1_555
Al0 O5 1.752387 1_555
Al0 O30 1.757030 1_555
Al0 O26 1.769937 1_555
Al0 O25 1.894116 1_555
Al1 O4 1.752519 1_555
Al1 O15 1.758106 1_555
Al1 O10 1.774310 1_555
Al1 O39 1.805978 1_655
Al2 O4 1.751168 1_555
Al2 O7 1.761738 1_555
Al2 O14 1.804059 1_555
Al2 O22 1.907335 1_555
Al3 O37 1.761105 1_565
Al3 O43 1.766759 1_555
Al3 O23 1.900259 1_555
Al3 O42 1.929525 1_555
Al3 O25 1.994228 1_556
Al4 H14 1.639278 1_555
Al4 O3 1.754626 1_556
Al4 O20 1.788550 1_655
Al4 O23 1.861673 1_545
Al5 O27 1.778250 1_555
Al5 H14 1.837397 1_555
Al5 O0 1.864155 1_555
Al5 O19 1.878885 1_545
Al5 O18 2.080410 1_555
Al5 O37 2.154321 1_555
Al6 O31 1.813403 1_555
Al6 O17 1.822987 1_555
Al6 O22 1.863091 1_555
Al6 O28 1.872950 1_555
Al6 O24 2.024570 1_555
Al7 O11 1.745529 1_556
Al7 O37 1.789649 1_555
Al7 O18 1.846865 1_555
Al7 O9 1.861044 1_556
Al7 O32 2.306611 1_555
H0 Si9 1.473293 1_556
H0 Na7 2.413437 1_655
H1 Si1 1.493934 1_565
H2 Si5 1.479296 1_555
H2 Na7 2.488728 1_555
H3 O35 0.984215 1_555
H4 Si7 1.492332 1_455
H5 O6 1.040599 1_555
H5 O4 1.531089 1_555
H6 O24 1.045501 1_555
H6 O0 1.561575 1_555
H7 O16 0.976508 1_555
H8 Si3 1.524164 1_555
H9 Si7 1.505090 1_555
H9 Na6 2.526213 1_655
H10 O27 0.969913 1_555
H11 O32 1.003276 1_555
H11 O20 1.689897 1_555
H12 O21 1.013632 1_555
H12 O19 1.571252 1_555
H13 O7 0.969079 1_555
H14 Na7 2.635197 1_655
H15 O12 1.009295 1_555
H15 O29 1.745161 1_555
O0 Si10 1.625926 1_555
O1 Si11 1.583907 1_555
O2 O9 1.503121 1_555
O2 Si9 1.691457 1_555
O3 Si0 1.630585 1_655
O5 Si3 1.705898 1_555
O8 Si3 1.804423 1_555
O10 Si11 1.617984 1_555
O11 Si2 1.624357 1_555
O12 O18 1.470401 1_555
O13 O24 1.501266 1_555
O13 Si11 1.724957 1_555
O14 O8 1.505568 1_555
O15 Si1 1.615489 1_555
O16 Si2 1.669013 1_555
O17 O33 1.420588 1_555
O19 Si4 1.628375 1_555
O20 Si2 1.681785 1_556
O21 O47 1.483997 1_565
O22 Si11 1.718674 1_555
O23 Si4 1.720476 1_555
O25 O43 1.552929 1_554
O26 Si9 1.616628 1_455
O28 Si6 1.688735 1_555
O29 Si4 1.585241 1_555
O30 Si8 1.624549 1_555
O31 Si6 1.655316 1_555
O32 Si10 1.653117 1_555
O33 O39 1.525279 1_555
O34 Si7 1.646009 1_555
O34 Si3 1.725542 1_555
O35 Si3 1.763663 1_555
O36 Si9 1.658395 1_555
O36 Si8 1.686846 1_655
O38 O41 1.551520 1_555
O38 Si5 1.722803 1_555
O40 Si0 1.626491 1_565
O40 Si8 1.636401 1_555
O41 Si5 1.736854 1_555
O42 Si4 1.712130 1_555
O42 Si5 1.763042 1_555
O44 O6 1.495624 1_455
O44 Si0 1.685980 1_555
O45 Si10 1.655747 1_565
O45 Si5 1.691323 1_555
O46 Si10 1.653476 1_555
O46 Si6 1.667003 1_555
O47 Si1 1.689212 1_555
