# generated using pymatgen
data_Er2Ni7
_symmetry_space_group_name_H-M   'P 1'
_cell_length_a   4.91202437
_cell_length_b   4.91202400
_cell_length_c   12.32794203
_cell_angle_alpha   78.50846272
_cell_angle_beta   78.50846379
_cell_angle_gamma   60.00000252
_symmetry_Int_Tables_number   1
_chemical_formula_structural   Er2Ni7
_chemical_formula_sum   'Er4 Ni14'
_cell_volume   250.68917965
_cell_formula_units_Z   2
loop_
 _symmetry_equiv_pos_site_id
 _symmetry_equiv_pos_as_xyz
  1  'x, y, z'
loop_
 _atom_site_type_symbol
 _atom_site_label
 _atom_site_symmetry_multiplicity
 _atom_site_fract_x
 _atom_site_fract_y
 _atom_site_fract_z
 _atom_site_occupancy
  Er  Er0  1  0.94931200  0.94931200  0.15206400  1
  Er  Er1  1  0.05068800  0.05068800  0.84793600  1
  Er  Er2  1  0.85268900  0.85268900  0.44193300  1
  Er  Er3  1  0.14731100  0.14731100  0.55806700  1
  Ni  Ni0  1  0.50000000  0.50000000  0.50000000  1
  Ni  Ni1  1  0.72183100  0.72183100  0.83450800  1
  Ni  Ni2  1  0.27816900  0.27816900  0.16549200  1
  Ni  Ni3  1  0.61159900  0.61159900  0.16520200  1
  Ni  Ni4  1  0.38840100  0.38840100  0.83479800  1
  Ni  Ni5  1  0.00000000  0.50000000  0.00000000  1
  Ni  Ni6  1  0.50000000  0.00000000  0.00000000  1
  Ni  Ni7  1  0.50000000  0.50000000  0.00000000  1
  Ni  Ni8  1  0.38945000  0.38945000  0.32978000  1
  Ni  Ni9  1  0.89131900  0.38945000  0.32978000  1
  Ni  Ni10  1  0.38945000  0.89131900  0.32978000  1
  Ni  Ni11  1  0.61055000  0.61055000  0.67022000  1
  Ni  Ni12  1  0.10868100  0.61055000  0.67022000  1
  Ni  Ni13  1  0.61055000  0.10868100  0.67022000  1
loop_
_geom_bond_atom_site_label_1
_geom_bond_atom_site_label_2
_geom_bond_distance
_geom_bond_site_symmetry_2
Er0 Ni3 2.840334 1_565
Er0 Ni3 2.840334 1_655
Er0 Ni3 2.840338 1_555
Er0 Ni2 2.840528 1_665
Er0 Ni2 2.840532 1_655
Er0 Ni2 2.840532 1_565
Er0 Ni5 3.059458 1_665
Er0 Ni5 3.059458 1_655
Er0 Ni7 3.059458 1_565
Er0 Ni6 3.059458 1_565
Er0 Ni6 3.059458 1_665
Er0 Ni7 3.059458 1_655
Er0 Ni9 3.252372 1_565
Er0 Ni10 3.252372 1_655
Er0 Ni8 3.252374 1_655
Er0 Ni8 3.252374 1_565
Er0 Ni9 3.252376 1_555
Er0 Ni10 3.252376 1_555
Er1 Ni4 2.840334 1_545
Er1 Ni4 2.840334 1_455
Er1 Ni4 2.840338 1_555
Er1 Ni1 2.840528 1_445
Er1 Ni1 2.840532 1_455
Er1 Ni1 2.840532 1_545
Er1 Ni5 3.059458 1_546
Er1 Ni5 3.059458 1_556
Er1 Ni6 3.059458 1_556
Er1 Ni7 3.059458 1_546
Er1 Ni6 3.059458 1_456
Er1 Ni7 3.059458 1_456
Er1 Ni12 3.252372 1_545
Er1 Ni13 3.252372 1_455
Er1 Ni11 3.252374 1_455
Er1 Ni11 3.252374 1_545
Er1 Ni12 3.252376 1_555
Er1 Ni13 3.252376 1_555
Er2 Ni9 2.800442 1_565
Er2 Ni10 2.800442 1_655
Er2 Ni8 2.800444 1_565
Er2 Ni8 2.800444 1_655
Er2 Ni9 2.800446 1_555
Er2 Ni10 2.800446 1_555
Er2 Ni0 2.920270 1_565
Er2 Ni0 2.920270 1_555
Er2 Ni0 2.920270 1_655
Er2 Ni11 3.081695 1_555
Er2 Ni12 3.081697 1_655
Er2 Ni13 3.081697 1_565
Er3 Ni12 2.800442 1_545
Er3 Ni13 2.800442 1_455
Er3 Ni11 2.800444 1_545
Er3 Ni11 2.800444 1_455
Er3 Ni12 2.800446 1_555
Er3 Ni13 2.800446 1_555
Er3 Ni0 2.920270 1_545
Er3 Ni0 2.920270 1_555
Er3 Ni0 2.920270 1_455
Er3 Ni8 3.081695 1_555
Er3 Ni9 3.081697 1_455
Er3 Ni10 3.081697 1_545
Ni0 Ni10 2.489223 1_555
Ni0 Ni13 2.489223 1_555
Ni0 Ni9 2.489223 1_555
Ni0 Ni12 2.489223 1_555
Ni0 Ni8 2.489225 1_555
Ni0 Ni11 2.489225 1_555
Ni1 Ni11 2.424986 1_555
Ni1 Ni13 2.424986 1_565
Ni1 Ni12 2.424987 1_655
Ni1 Ni6 2.439817 1_566
Ni1 Ni5 2.439817 1_656
Ni1 Ni7 2.439820 1_556
Ni2 Ni8 2.424986 1_555
Ni2 Ni9 2.424987 1_455
Ni2 Ni6 2.439817 1_555
Ni2 Ni5 2.439817 1_555
Ni2 Ni7 2.439820 1_555
Ni3 Ni8 2.433999 1_555
Ni3 Ni9 2.433999 1_555
Ni3 Ni7 2.436986 1_555
Ni3 Ni6 2.436989 1_565
Ni3 Ni5 2.436989 1_655
Ni4 Ni7 2.436986 1_556
Ni4 Ni6 2.436989 1_556
Ni4 Ni5 2.436989 1_556
Ni5 Ni7 2.456012 1_555
Ni5 Ni7 2.456012 1_455
Ni5 Ni6 2.456012 1_555
Ni5 Ni6 2.456012 1_465
Ni6 Ni7 2.456012 1_555
Ni6 Ni7 2.456012 1_545
Ni8 Ni9 2.446832 1_455
Ni8 Ni9 2.465193 1_555
Ni10 Ni2 2.424986 1_565
Ni10 Ni3 2.433999 1_555
Ni10 Ni8 2.446831 1_565
Ni10 Ni9 2.446832 1_465
Ni10 Ni8 2.465193 1_555
Ni10 Ni9 2.465193 1_555
Ni11 Ni4 2.433999 1_555
Ni11 Ni13 2.446831 1_565
Ni11 Ni12 2.446832 1_655
Ni11 Ni13 2.465193 1_555
Ni11 Ni12 2.465193 1_555
Ni12 Ni4 2.433999 1_555
Ni12 Ni13 2.446832 1_465
Ni12 Ni13 2.465193 1_555
Ni13 Ni4 2.433999 1_555
