# generated using pymatgen
data_GaFeO3
_symmetry_space_group_name_H-M   'P 1'
_cell_length_a   3.78465800
_cell_length_b   3.78465800
_cell_length_c   3.78465800
_cell_angle_alpha   90.00000000
_cell_angle_beta   90.00000000
_cell_angle_gamma   90.00000000
_symmetry_Int_Tables_number   1
_chemical_formula_structural   GaFeO3
_chemical_formula_sum   'Ga1 Fe1 O3'
_cell_volume   54.21006425
_cell_formula_units_Z   1
loop_
 _symmetry_equiv_pos_site_id
 _symmetry_equiv_pos_as_xyz
  1  'x, y, z'
loop_
 _atom_site_type_symbol
 _atom_site_label
 _atom_site_symmetry_multiplicity
 _atom_site_fract_x
 _atom_site_fract_y
 _atom_site_fract_z
 _atom_site_occupancy
  Ga  Ga0  1  0.50000000  0.50000000  0.50000000  1
  Fe  Fe0  1  0.00000000  0.00000000  0.00000000  1
  O  O0  1  0.50000000  0.50000000  0.00000000  1
  O  O1  1  0.50000000  0.00000000  0.50000000  1
  O  O2  1  0.00000000  0.50000000  0.50000000  1
loop_
_geom_bond_atom_site_label_1
_geom_bond_atom_site_label_2
_geom_bond_distance
_geom_bond_site_symmetry_2
Ga0 O2 1.892329 1_555
Ga0 O1 1.892329 1_565
Ga0 O2 1.892329 1_655
Ga0 O0 1.892329 1_556
Ga0 O1 1.892329 1_555
Ga0 O0 1.892329 1_555
Fe0 O0 2.676157 1_445
Fe0 O2 2.676157 1_555
Fe0 O0 2.676157 1_455
Fe0 O2 2.676157 1_554
Fe0 O2 2.676157 1_544
Fe0 O2 2.676157 1_545
Fe0 O1 2.676157 1_455
Fe0 O1 2.676157 1_454
Fe0 O1 2.676157 1_555
Fe0 O1 2.676157 1_554
Fe0 O0 2.676157 1_545
Fe0 O0 2.676157 1_555
