# generated using pymatgen
data_MgMn4O8
_symmetry_space_group_name_H-M   'P 1'
_cell_length_a   6.04669049
_cell_length_b   6.04669049
_cell_length_c   6.04669049
_cell_angle_alpha   122.35277100
_cell_angle_beta   122.01743585
_cell_angle_gamma   86.25546541
_symmetry_Int_Tables_number   1
_chemical_formula_structural   MgMn4O8
_chemical_formula_sum   'Mg1 Mn4 O8'
_cell_volume   150.81281839
_cell_formula_units_Z   1
loop_
 _symmetry_equiv_pos_site_id
 _symmetry_equiv_pos_as_xyz
  1  'x, y, z'
loop_
 _atom_site_type_symbol
 _atom_site_label
 _atom_site_symmetry_multiplicity
 _atom_site_fract_x
 _atom_site_fract_y
 _atom_site_fract_z
 _atom_site_occupancy
  Mg  Mg0  1  0.61378600  0.11378600  0.50000000  1
  Mn  Mn0  1  0.24812400  0.99252000  0.74439600  1
  Mn  Mn1  1  0.24812400  0.50372800  0.25560400  1
  Mn  Mn2  1  0.75450600  0.49974800  0.25475800  1
  Mn  Mn3  1  0.24499000  0.49974800  0.74524200  1
  O  O0  1  0.03731500  0.75078400  0.28653200  1
  O  O1  1  0.46425200  0.75078400  0.71346800  1
  O  O2  1  0.03061700  0.75297600  0.72235900  1
  O  O3  1  0.03061700  0.30825900  0.27764100  1
  O  O4  1  0.02543200  0.24927100  0.77616100  1
  O  O5  1  0.47310900  0.24927100  0.22383900  1
  O  O6  1  0.47662900  0.70201300  0.22538400  1
  O  O7  1  0.47662900  0.25124500  0.77461600  1
loop_
_geom_bond_atom_site_label_1
_geom_bond_atom_site_label_2
_geom_bond_distance
_geom_bond_site_symmetry_2
Mg0 O6 2.007251 1_545
Mg0 O7 2.007251 1_555
Mg0 O5 2.012485 1_555
Mg0 O4 2.012485 1_655
Mn0 O0 1.896446 1_555
Mn0 O1 1.896446 1_555
Mn0 O2 1.924040 1_555
Mn0 O4 1.985541 1_565
Mn0 O5 1.985541 1_566
Mn0 O7 2.024497 1_565
Mn1 O1 1.896446 1_555
Mn1 O0 1.896450 1_555
Mn1 O3 1.924036 1_555
Mn1 O5 1.985537 1_555
Mn1 O4 1.985541 1_554
Mn1 O6 2.024497 1_555
Mn2 O3 1.954804 1_655
Mn2 O2 1.954807 1_655
Mn2 O7 1.999546 1_554
Mn2 O6 1.999546 1_555
Mn2 O5 2.218163 1_555
Mn2 O0 2.223485 1_655
Mn3 O2 1.954807 1_555
Mn3 O3 1.954808 1_555
Mn3 O7 1.999546 1_555
Mn3 O6 1.999546 1_556
Mn3 O4 2.218158 1_555
Mn3 O1 2.223490 1_555
