# generated using pymatgen
data_CoSi4Ni
_symmetry_space_group_name_H-M   'P 1'
_cell_length_a   6.53458663
_cell_length_b   6.53458663
_cell_length_c   6.53458532
_cell_angle_alpha   33.53599692
_cell_angle_beta   33.53599692
_cell_angle_gamma   33.53598945
_symmetry_Int_Tables_number   1
_chemical_formula_structural   CoSi4Ni
_chemical_formula_sum   'Co1 Si4 Ni1'
_cell_volume   75.85510751
_cell_formula_units_Z   1
loop_
 _symmetry_equiv_pos_site_id
 _symmetry_equiv_pos_as_xyz
  1  'x, y, z'
loop_
 _atom_site_type_symbol
 _atom_site_label
 _atom_site_symmetry_multiplicity
 _atom_site_fract_x
 _atom_site_fract_y
 _atom_site_fract_z
 _atom_site_occupancy
  Co  Co0  1  -0.00000000  -0.00000000  0.00000000  1
  Si  Si0  1  0.62699239  0.62699239  0.62699239  1
  Si  Si1  1  0.12313013  0.12313013  0.12313013  1
  Si  Si2  1  0.87686987  0.87686987  0.87686987  1
  Si  Si3  1  0.37300761  0.37300761  0.37300761  1
  Ni  Ni0  1  0.50000000  0.50000000  0.50000000  1
loop_
_geom_bond_atom_site_label_1
_geom_bond_atom_site_label_2
_geom_bond_distance
_geom_bond_site_symmetry_2
Co0 Si2 2.275940 1_444
Co0 Si1 2.275940 1_555
Co0 Si0 2.297057 1_544
Co0 Si0 2.297057 1_454
Co0 Si3 2.297057 1_455
Co0 Si3 2.297057 1_545
Co0 Si0 2.297057 1_445
Co0 Si3 2.297057 1_554
Si0 Si3 2.624849 1_556
Si0 Si3 2.624850 1_565
Si0 Si3 2.624850 1_655
Si0 Si2 2.668013 1_554
Si0 Si2 2.668014 1_455
Si0 Si2 2.668014 1_545
Si1 Si3 2.668013 1_554
Si1 Si3 2.668014 1_455
Si1 Si3 2.668014 1_545
Ni0 Si1 2.320834 1_655
Ni0 Si1 2.320834 1_565
Ni0 Si2 2.320834 1_455
Ni0 Si2 2.320834 1_545
Ni0 Si1 2.320835 1_556
Ni0 Si2 2.320835 1_554
Ni0 Si3 2.347331 1_555
Ni0 Si0 2.347331 1_555
