# generated using pymatgen
data_K2Fe3P4(HO4)4
_symmetry_space_group_name_H-M   'P 1'
_cell_length_a   8.37897100
_cell_length_b   9.30584317
_cell_length_c   9.40266298
_cell_angle_alpha   99.17236463
_cell_angle_beta   90.00000000
_cell_angle_gamma   90.00000000
_symmetry_Int_Tables_number   1
_chemical_formula_structural   K2Fe3P4(HO4)4
_chemical_formula_sum   'K4 Fe6 P8 H8 O32'
_cell_volume   723.78281769
_cell_formula_units_Z   2
loop_
 _symmetry_equiv_pos_site_id
 _symmetry_equiv_pos_as_xyz
  1  'x, y, z'
loop_
 _atom_site_type_symbol
 _atom_site_label
 _atom_site_symmetry_multiplicity
 _atom_site_fract_x
 _atom_site_fract_y
 _atom_site_fract_z
 _atom_site_occupancy
  K  K0  1  0.77468800  0.42857900  0.01841000  1
  K  K1  1  0.27468800  0.57142100  0.48159000  1
  K  K2  1  0.22531200  0.57142100  0.98159000  1
  K  K3  1  0.72531200  0.42857900  0.51841000  1
  Fe  Fe0  1  0.36003800  0.13521800  0.99574200  1
  Fe  Fe1  1  0.86003800  0.86478200  0.50425800  1
  Fe  Fe2  1  0.63996200  0.86478200  0.00425800  1
  Fe  Fe3  1  0.13996200  0.13521800  0.49574200  1
  Fe  Fe4  1  0.00000000  0.00000000  0.00000000  1
  Fe  Fe5  1  0.50000000  0.00000000  0.50000000  1
  P  P0  1  0.80339500  0.10015000  0.28934000  1
  P  P1  1  0.30339500  0.89985000  0.21066000  1
  P  P2  1  0.19660500  0.89985000  0.71066000  1
  P  P3  1  0.69660500  0.10015000  0.78934000  1
  P  P4  1  0.06185600  0.30378400  0.23338600  1
  P  P5  1  0.56185600  0.69621600  0.26661400  1
  P  P6  1  0.93814400  0.69621600  0.76661400  1
  P  P7  1  0.43814400  0.30378400  0.73338600  1
  H  H0  1  0.53615700  0.21647700  0.22970800  1
  H  H1  1  0.03615700  0.78352300  0.27029200  1
  H  H2  1  0.46384300  0.78352300  0.77029200  1
  H  H3  1  0.96384300  0.21647700  0.72970800  1
  H  H4  1  0.48881200  0.37559300  0.20417000  1
  H  H5  1  0.98881200  0.62440700  0.29583000  1
  H  H6  1  0.51118800  0.62440700  0.79583000  1
  H  H7  1  0.01118800  0.37559300  0.70417000  1
  O  O0  1  0.15078100  0.30592500  0.37568100  1
  O  O1  1  0.65078100  0.69407500  0.12431900  1
  O  O2  1  0.84921900  0.69407500  0.62431900  1
  O  O3  1  0.34921900  0.30592500  0.87568100  1
  O  O4  1  0.87406200  0.25795400  0.26407600  1
  O  O5  1  0.37406200  0.74204600  0.23592400  1
  O  O6  1  0.12593800  0.74204600  0.73592400  1
  O  O7  1  0.62593800  0.25795400  0.76407600  1
  O  O8  1  0.63909800  0.13522300  0.35524200  1
  O  O9  1  0.13909800  0.86477700  0.14475800  1
  O  O10  1  0.36090200  0.86477700  0.64475800  1
  O  O11  1  0.86090200  0.13522300  0.85524200  1
  O  O12  1  0.80065200  0.00731700  0.13730900  1
  O  O13  1  0.30065200  0.99268300  0.36269100  1
  O  O14  1  0.19934800  0.99268300  0.86269100  1
  O  O15  1  0.69934800  0.00731700  0.63730900  1
  O  O16  1  0.12177500  0.18601200  0.11105800  1
  O  O17  1  0.62177500  0.81398800  0.38894200  1
  O  O18  1  0.87822500  0.81398800  0.88894200  1
  O  O19  1  0.37822500  0.18601200  0.61105800  1
  O  O20  1  0.42018700  0.96056100  0.10976800  1
  O  O21  1  0.92018700  0.03943900  0.39023200  1
  O  O22  1  0.57981300  0.03943900  0.89023200  1
  O  O23  1  0.07981300  0.96056100  0.60976800  1
  O  O24  1  0.04394700  0.45381800  0.19031400  1
  O  O25  1  0.54394700  0.54618200  0.30968600  1
  O  O26  1  0.95605300  0.54618200  0.80968600  1
  O  O27  1  0.45605300  0.45381800  0.69031400  1
  O  O28  1  0.49706800  0.27315900  0.15462900  1
  O  O29  1  0.99706800  0.72684100  0.34537100  1
  O  O30  1  0.50293200  0.72684100  0.84537100  1
  O  O31  1  0.00293200  0.27315900  0.65462900  1
loop_
_geom_bond_atom_site_label_1
_geom_bond_atom_site_label_2
_geom_bond_distance
_geom_bond_site_symmetry_2
K0 O1 2.718336 1_555
K0 O24 2.763473 1_655
K0 O26 2.836095 1_554
K0 O7 2.929658 1_554
K0 O11 2.998812 1_554
K0 O4 3.117604 1_555
K0 O28 3.119933 1_555
K1 O0 2.718336 1_555
K1 O25 2.763473 1_555
K1 O27 2.836095 1_555
K1 O6 2.929658 1_555
K1 O10 2.998812 1_555
K1 O5 3.117604 1_555
K1 O29 3.119933 1_455
K2 O3 2.718336 1_555
K2 O26 2.763473 1_455
K2 O24 2.836095 1_556
K2 O5 2.929658 1_556
K2 O9 2.998812 1_556
K2 O6 3.117604 1_555
K2 O30 3.119933 1_555
K3 O2 2.718336 1_555
K3 O27 2.763473 1_555
K3 O25 2.836095 1_555
K3 O4 2.929658 1_555
K3 O8 2.998812 1_555
K3 O7 3.117604 1_555
K3 O31 3.119933 1_655
Fe0 O3 2.092346 1_555
Fe0 O28 2.141634 1_556
Fe0 O20 2.144938 1_546
Fe0 O14 2.146685 1_545
Fe0 O22 2.210839 1_555
Fe0 O16 2.285016 1_556
Fe1 O2 2.092346 1_555
Fe1 O29 2.141634 1_555
Fe1 O21 2.144938 1_565
Fe1 O15 2.146685 1_565
Fe1 O23 2.210839 1_655
Fe1 O17 2.285016 1_555
Fe2 O1 2.092346 1_555
Fe2 O30 2.141634 1_554
Fe2 O22 2.144938 1_564
Fe2 O12 2.146685 1_565
Fe2 O20 2.210839 1_555
Fe2 O18 2.285016 1_554
Fe3 O0 2.092346 1_555
Fe3 O31 2.141634 1_555
Fe3 O23 2.144938 1_545
Fe3 O13 2.146685 1_545
Fe3 O21 2.210839 1_455
Fe3 O19 2.285016 1_555
Fe4 O12 2.105583 1_455
Fe4 O14 2.105583 1_544
Fe4 O18 2.133456 1_444
Fe4 O16 2.133456 1_555
Fe4 O9 2.310960 1_545
Fe4 O11 2.310960 1_454
Fe5 O15 2.105583 1_555
Fe5 O13 2.105583 1_545
Fe5 O17 2.133456 1_545
Fe5 O19 2.133456 1_555
Fe5 O10 2.310960 1_545
Fe5 O8 2.310960 1_555
H0 O28 1.001284 1_555
H1 O29 1.001284 1_455
H2 O30 1.001284 1_555
H3 O31 1.001284 1_655
H4 O28 0.994417 1_555
H5 O29 0.994417 1_555
H6 O30 0.994417 1_555
H7 O31 0.994417 1_555
O0 P4 1.528786 1_555
O1 P5 1.528786 1_555
O2 P6 1.528786 1_555
O3 P7 1.528786 1_555
O4 P0 1.635462 1_555
O4 P4 1.667443 1_655
O5 P1 1.635462 1_555
O5 P5 1.667443 1_555
O6 P2 1.635462 1_555
O6 P6 1.667443 1_455
O7 P3 1.635462 1_555
O7 P7 1.667443 1_555
O8 P0 1.523534 1_555
O9 P1 1.523534 1_555
O10 P2 1.523534 1_555
O11 P3 1.523534 1_555
O12 P0 1.548091 1_555
O13 P1 1.548091 1_555
O14 P2 1.548091 1_555
O15 P3 1.548091 1_555
O16 P4 1.540876 1_555
O17 P5 1.540876 1_555
O18 P6 1.540876 1_555
O19 P7 1.540876 1_555
O20 P1 1.532205 1_555
O21 P0 1.532205 1_555
O22 P3 1.532205 1_555
O23 P2 1.532205 1_555
O24 P4 1.521894 1_555
O25 P5 1.521894 1_555
O26 P6 1.521894 1_555
O27 P7 1.521894 1_555
