# generated using pymatgen
data_TbGdRh2
_symmetry_space_group_name_H-M   'P 1'
_cell_length_a   4.88303053
_cell_length_b   4.88303053
_cell_length_c   4.88303053
_cell_angle_alpha   60.00000000
_cell_angle_beta   60.00000000
_cell_angle_gamma   60.00000000
_symmetry_Int_Tables_number   1
_chemical_formula_structural   TbGdRh2
_chemical_formula_sum   'Tb1 Gd1 Rh2'
_cell_volume   82.32909109
_cell_formula_units_Z   1
loop_
 _symmetry_equiv_pos_site_id
 _symmetry_equiv_pos_as_xyz
  1  'x, y, z'
loop_
 _atom_site_type_symbol
 _atom_site_label
 _atom_site_symmetry_multiplicity
 _atom_site_fract_x
 _atom_site_fract_y
 _atom_site_fract_z
 _atom_site_occupancy
  Tb  Tb0  1  0.00000000  0.00000000  0.00000000  1
  Gd  Gd0  1  0.50000000  0.50000000  0.50000000  1
  Rh  Rh0  1  0.25000000  0.25000000  0.25000000  1
  Rh  Rh1  1  0.75000000  0.75000000  0.75000000  1
loop_
_geom_bond_atom_site_label_1
_geom_bond_atom_site_label_2
_geom_bond_distance
_geom_bond_site_symmetry_2
Gd0 Rh0 2.990233 1_555
Gd0 Rh0 2.990233 1_556
Gd0 Rh0 2.990233 1_565
Gd0 Rh1 2.990233 1_554
Gd0 Rh1 2.990233 1_555
Gd0 Rh1 2.990233 1_545
Gd0 Rh0 2.990233 1_655
Gd0 Rh1 2.990233 1_455
Rh0 Tb0 2.990233 1_555
Rh0 Tb0 2.990233 1_556
Rh0 Tb0 2.990233 1_565
Rh0 Tb0 2.990233 1_655
Rh1 Tb0 2.990233 1_666
Rh1 Tb0 2.990233 1_656
Rh1 Tb0 2.990233 1_665
Rh1 Tb0 2.990233 1_566
