# generated using pymatgen
data_Ba2Tl2Bi3O10
_symmetry_space_group_name_H-M   'P 1'
_cell_length_a   3.88149700
_cell_length_b   3.98828907
_cell_length_c   21.37538988
_cell_angle_alpha   94.48580076
_cell_angle_beta   92.85667523
_cell_angle_gamma   90.01050155
_symmetry_Int_Tables_number   1
_chemical_formula_structural   Ba2Tl2Bi3O10
_chemical_formula_sum   'Ba2 Tl2 Bi3 O10'
_cell_volume   329.47605915
_cell_formula_units_Z   1
loop_
 _symmetry_equiv_pos_site_id
 _symmetry_equiv_pos_as_xyz
  1  'x, y, z'
loop_
 _atom_site_type_symbol
 _atom_site_label
 _atom_site_symmetry_multiplicity
 _atom_site_fract_x
 _atom_site_fract_y
 _atom_site_fract_z
 _atom_site_occupancy
  Ba  Ba0  1  0.81906400  0.88388800  0.69375100  1
  Ba  Ba1  1  0.19296300  0.21555000  0.30570900  1
  Tl  Tl0  1  0.27155500  0.34123800  0.55440800  1
  Tl  Tl1  1  0.73663800  0.79447900  0.44576900  1
  Bi  Bi0  1  0.66425500  0.65870600  0.17104200  1
  Bi  Bi1  1  0.35825600  0.43461500  0.82818000  1
  Bi  Bi2  1  0.46029700  0.60948200  0.00035400  1
  O  O0  1  0.16835100  0.67887000  0.21966000  1
  O  O1  1  0.70465200  0.73621900  0.35040200  1
  O  O2  1  0.66854900  0.17697200  0.21568200  1
  O  O3  1  0.24136400  0.17965100  0.45898400  1
  O  O4  1  0.45889000  0.09031600  0.95847000  1
  O  O5  1  0.34512300  0.92084400  0.78291100  1
  O  O6  1  0.30426800  0.36794600  0.64960600  1
  O  O7  1  0.84411500  0.41907900  0.77970300  1
  O  O8  1  0.76713000  0.71519100  0.54119600  1
  O  O9  1  0.97582400  0.62648600  0.05111800  1
loop_
_geom_bond_atom_site_label_1
_geom_bond_atom_site_label_2
_geom_bond_distance
_geom_bond_site_symmetry_2
Ba0 O7 2.703651 1_565
Ba0 O7 2.708605 1_555
Ba0 O5 2.709919 1_555
Ba0 O5 2.718697 1_655
Ba0 O6 2.923416 1_655
Ba0 O6 2.936697 1_555
Ba0 O6 2.936858 1_665
Ba0 O6 2.951041 1_565
Ba0 O8 3.273861 1_555
Ba1 O0 2.705741 1_555
Ba1 O0 2.709299 1_545
Ba1 O2 2.726405 1_455
Ba1 O2 2.728072 1_555
Ba1 O1 2.934265 1_545
Ba1 O1 2.936764 1_445
Ba1 O1 2.944240 1_555
Ba1 O1 2.947694 1_455
Ba1 O3 3.286648 1_555
Bi0 O0 2.167745 1_655
Bi0 O2 2.207515 1_565
Bi0 O2 2.210733 1_555
Bi0 O0 2.231117 1_555
Bi1 O7 2.195183 1_555
Bi1 O5 2.196019 1_545
Bi1 O7 2.200895 1_455
Bi1 O5 2.233418 1_555
Bi2 O4 2.178816 1_564
Bi2 O4 2.190530 1_554
Bi2 O9 2.215891 1_455
Bi2 O9 2.226684 1_555
O1 Tl1 2.031154 1_555
O3 Tl0 2.088076 1_555
O3 Tl1 2.474390 1_545
O3 Tl1 2.480632 1_445
O6 Tl0 2.026968 1_555
O8 Tl1 2.086047 1_555
O8 Tl0 2.474519 1_555
O8 Tl0 2.479806 1_655
