# generated using pymatgen
data_LiMg14SbO16
_symmetry_space_group_name_H-M   'P 1'
_cell_length_a   8.63523648
_cell_length_b   8.63392115
_cell_length_c   4.32865632
_cell_angle_alpha   90.00000000
_cell_angle_beta   90.00000000
_cell_angle_gamma   90.00000000
_symmetry_Int_Tables_number   1
_chemical_formula_structural   LiMg14SbO16
_chemical_formula_sum   'Li1 Mg14 Sb1 O16'
_cell_volume   322.72708797
_cell_formula_units_Z   1
loop_
 _symmetry_equiv_pos_site_id
 _symmetry_equiv_pos_as_xyz
  1  'x, y, z'
loop_
 _atom_site_type_symbol
 _atom_site_label
 _atom_site_symmetry_multiplicity
 _atom_site_fract_x
 _atom_site_fract_y
 _atom_site_fract_z
 _atom_site_occupancy
  Li  Li0  1  0.00000000  0.00000000  0.00000000  1
  Mg  Mg0  1  0.50000000  0.00000000  0.00000000  1
  Mg  Mg1  1  0.50000000  0.50000000  0.00000000  1
  Mg  Mg2  1  0.00000000  0.23101681  0.50000000  1
  Mg  Mg3  1  0.00000000  0.76898319  0.50000000  1
  Mg  Mg4  1  0.50000000  0.24663598  0.50000000  1
  Mg  Mg5  1  0.50000000  0.75336402  0.50000000  1
  Mg  Mg6  1  0.24499360  0.00000000  0.50000000  1
  Mg  Mg7  1  0.26122806  0.50000000  0.50000000  1
  Mg  Mg8  1  0.75500640  0.00000000  0.50000000  1
  Mg  Mg9  1  0.73877194  0.50000000  0.50000000  1
  Mg  Mg10  1  0.25256903  0.23881384  0.00000000  1
  Mg  Mg11  1  0.25256903  0.76118616  -0.00000000  1
  Mg  Mg12  1  0.74743097  0.23881384  0.00000000  1
  Mg  Mg13  1  0.74743097  0.76118616  -0.00000000  1
  Sb  Sb0  1  0.00000000  0.50000000  0.00000000  1
  O  O0  1  0.26012739  0.00000000  0.00000000  1
  O  O1  1  0.26358042  0.50000000  0.00000000  1
  O  O2  1  0.73987261  0.00000000  0.00000000  1
  O  O3  1  0.73641958  0.50000000  0.00000000  1
  O  O4  1  0.24854942  0.25290739  0.50000000  1
  O  O5  1  0.24854942  0.74709261  0.50000000  1
  O  O6  1  0.75145058  0.25290739  0.50000000  1
  O  O7  1  0.75145058  0.74709261  0.50000000  1
  O  O8  1  0.00000000  0.00000000  0.50000000  1
  O  O9  1  0.00000000  0.50000000  0.50000000  1
  O  O10  1  0.50000000  0.00000000  0.50000000  1
  O  O11  1  0.50000000  0.50000000  0.50000000  1
  O  O12  1  0.00000000  0.24062074  0.00000000  1
  O  O13  1  0.00000000  0.75937926  0.00000000  1
  O  O14  1  0.50000000  0.25101941  -0.00000000  1
  O  O15  1  0.50000000  0.74898059  0.00000000  1
loop_
_geom_bond_atom_site_label_1
_geom_bond_atom_site_label_2
_geom_bond_distance
_geom_bond_site_symmetry_2
Li0 O12 2.077500 1_555
Li0 O13 2.077500 1_545
Li0 O8 2.164328 1_554
Li0 O8 2.164328 1_555
Li0 O2 2.246262 1_455
Li0 O0 2.246262 1_555
Mg0 O0 2.071357 1_555
Mg0 O2 2.071357 1_555
Mg0 O10 2.164328 1_555
Mg0 O10 2.164328 1_554
Mg0 O15 2.167282 1_545
Mg0 O14 2.167282 1_555
Mg1 O3 2.041539 1_555
Mg1 O1 2.041539 1_555
Mg1 O14 2.149679 1_555
Mg1 O15 2.149679 1_555
Mg1 O11 2.164328 1_554
Mg1 O11 2.164328 1_555
Mg2 O8 1.994581 1_555
Mg2 O4 2.154589 1_555
Mg2 O6 2.154589 1_455
Mg2 O12 2.165916 1_555
Mg2 O12 2.165916 1_556
Mg2 O9 2.322380 1_555
Mg3 O8 1.994581 1_565
Mg3 O5 2.154589 1_555
Mg3 O7 2.154589 1_455
Mg3 O13 2.165916 1_555
Mg3 O13 2.165916 1_556
Mg3 O9 2.322380 1_555
Mg4 O10 2.129436 1_555
Mg4 O14 2.164659 1_555
Mg4 O14 2.164659 1_556
Mg4 O6 2.172010 1_555
Mg4 O4 2.172010 1_555
Mg4 O11 2.187525 1_555
Mg5 O10 2.129436 1_565
Mg5 O15 2.164659 1_556
Mg5 O15 2.164659 1_555
Mg5 O5 2.172010 1_555
Mg5 O7 2.172010 1_555
Mg5 O11 2.187525 1_555
Mg6 O8 2.115578 1_555
Mg6 O0 2.168270 1_556
Mg6 O0 2.168270 1_555
Mg6 O5 2.183798 1_545
Mg6 O4 2.183798 1_555
Mg6 O10 2.202041 1_555
Mg7 O11 2.061852 1_555
Mg7 O4 2.136186 1_555
Mg7 O5 2.136186 1_555
Mg7 O1 2.164423 1_555
Mg7 O1 2.164423 1_556
Mg7 O9 2.255766 1_555
Mg8 O8 2.115578 1_655
Mg8 O2 2.168270 1_555
Mg8 O2 2.168270 1_556
Mg8 O7 2.183798 1_545
Mg8 O6 2.183798 1_555
Mg8 O10 2.202041 1_555
Mg9 O11 2.061852 1_555
Mg9 O6 2.136186 1_555
Mg9 O7 2.136186 1_555
Mg9 O3 2.164423 1_556
Mg9 O3 2.164423 1_555
Mg9 O9 2.255766 1_655
Mg10 O0 2.062933 1_555
Mg10 O14 2.139222 1_555
Mg10 O4 2.168024 1_555
Mg10 O4 2.168024 1_554
Mg10 O12 2.181049 1_555
Mg10 O1 2.257064 1_555
Mg11 O0 2.062933 1_565
Mg11 O15 2.139222 1_555
Mg11 O5 2.168024 1_555
Mg11 O5 2.168024 1_554
Mg11 O13 2.181049 1_555
Mg11 O1 2.257064 1_555
Mg12 O2 2.062933 1_555
Mg12 O14 2.139222 1_555
Mg12 O6 2.168024 1_555
Mg12 O6 2.168024 1_554
Mg12 O12 2.181049 1_655
Mg12 O3 2.257064 1_555
Mg13 O2 2.062933 1_565
Mg13 O15 2.139222 1_555
Mg13 O7 2.168024 1_555
Mg13 O7 2.168024 1_554
Mg13 O13 2.181049 1_655
Mg13 O3 2.257064 1_555
O1 Sb0 2.276079 1_555
O3 Sb0 2.276079 1_655
O9 Sb0 2.164328 1_555
O9 Sb0 2.164328 1_556
O12 Sb0 2.239460 1_555
O13 Sb0 2.239460 1_555
