# generated using pymatgen
data_RbTb(SO6)2
_symmetry_space_group_name_H-M   'P 1'
_cell_length_a   6.27946856
_cell_length_b   8.91421689
_cell_length_c   19.26075700
_cell_angle_alpha   90.00000000
_cell_angle_beta   90.00000000
_cell_angle_gamma   93.85356955
_symmetry_Int_Tables_number   1
_chemical_formula_structural   RbTb(SO6)2
_chemical_formula_sum   'Rb4 Tb4 S8 O48'
_cell_volume   1075.71300033
_cell_formula_units_Z   4
loop_
 _symmetry_equiv_pos_site_id
 _symmetry_equiv_pos_as_xyz
  1  'x, y, z'
loop_
 _atom_site_type_symbol
 _atom_site_label
 _atom_site_symmetry_multiplicity
 _atom_site_fract_x
 _atom_site_fract_y
 _atom_site_fract_z
 _atom_site_occupancy
  Rb  Rb0  1  0.84226300  0.86396600  0.71326400  1
  Rb  Rb1  1  0.15773700  0.13603400  0.28673600  1
  Rb  Rb2  1  0.15773700  0.63603400  0.21326400  1
  Rb  Rb3  1  0.84226300  0.36396600  0.78673600  1
  Tb  Tb0  1  0.37052500  0.72683700  0.86979200  1
  Tb  Tb1  1  0.62947500  0.27316300  0.13020800  1
  Tb  Tb2  1  0.62947500  0.77316300  0.36979200  1
  Tb  Tb3  1  0.37052500  0.22683700  0.63020800  1
  S  S0  1  0.37001700  0.59134600  0.72248500  1
  S  S1  1  0.62998300  0.40865400  0.27751500  1
  S  S2  1  0.62998300  0.90865400  0.22248500  1
  S  S3  1  0.37001700  0.09134600  0.77751500  1
  S  S4  1  0.80665000  0.74071400  0.93318400  1
  S  S5  1  0.19335000  0.25928600  0.06681600  1
  S  S6  1  0.19335000  0.75928600  0.43318400  1
  S  S7  1  0.80665000  0.24071400  0.56681600  1
  O  O0  1  0.19386500  0.98571300  0.62857000  1
  O  O1  1  0.80613500  0.01428700  0.37143000  1
  O  O2  1  0.80613500  0.51428700  0.12857000  1
  O  O3  1  0.19386500  0.48571300  0.87143000  1
  O  O4  1  0.64880000  0.60755500  0.92423900  1
  O  O5  1  0.35120000  0.39244500  0.07576100  1
  O  O6  1  0.35120000  0.89244500  0.42423900  1
  O  O7  1  0.64880000  0.10755500  0.57576100  1
  O  O8  1  0.82590200  0.87768300  0.26614700  1
  O  O9  1  0.17409800  0.12231700  0.73385300  1
  O  O10  1  0.17409800  0.62231700  0.76614700  1
  O  O11  1  0.82590200  0.37768300  0.23385300  1
  O  O12  1  0.42958200  0.95721600  0.95814600  1
  O  O13  1  0.57041800  0.04278400  0.04185400  1
  O  O14  1  0.57041800  0.54278400  0.45814600  1
  O  O15  1  0.42958200  0.45721600  0.54185400  1
  O  O16  1  0.77395600  0.70652800  0.57170200  1
  O  O17  1  0.22604400  0.29347200  0.42829800  1
  O  O18  1  0.22604400  0.79347200  0.07170200  1
  O  O19  1  0.77395600  0.20652800  0.92829800  1
  O  O20  1  0.38921900  0.69351200  0.66405900  1
  O  O21  1  0.61078100  0.30648800  0.33594100  1
  O  O22  1  0.61078100  0.80648800  0.16405900  1
  O  O23  1  0.38921900  0.19351200  0.83594100  1
  O  O24  1  0.70822000  0.86291100  0.88961700  1
  O  O25  1  0.29178000  0.13708900  0.11038300  1
  O  O26  1  0.29178000  0.63708900  0.38961700  1
  O  O27  1  0.70822000  0.36291100  0.61038300  1
  O  O28  1  0.35105300  0.93043800  0.79826400  1
  O  O29  1  0.64894700  0.06956200  0.20173600  1
  O  O30  1  0.64894700  0.56956200  0.29826400  1
  O  O31  1  0.35105300  0.43043800  0.70173600  1
  O  O32  1  0.55195400  0.61683600  0.77357800  1
  O  O33  1  0.44804600  0.38316400  0.22642200  1
  O  O34  1  0.44804600  0.88316400  0.27357800  1
  O  O35  1  0.55195400  0.11683600  0.72642200  1
  O  O36  1  0.84419100  0.78301000  0.00418300  1
  O  O37  1  0.15580900  0.21699000  0.99581700  1
  O  O38  1  0.15580900  0.71699000  0.50418300  1
  O  O39  1  0.84419100  0.28301000  0.49581700  1
  O  O40  1  0.71286800  0.80039200  0.53066100  1
  O  O41  1  0.28713200  0.19960800  0.46933900  1
  O  O42  1  0.28713200  0.69960800  0.03066100  1
  O  O43  1  0.71286800  0.30039200  0.96933900  1
  O  O44  1  0.01193300  0.71102300  0.89566900  1
  O  O45  1  0.98806700  0.28897700  0.10433100  1
  O  O46  1  0.98806700  0.78897700  0.39566900  1
  O  O47  1  0.01193300  0.21102300  0.60433100  1
loop_
_geom_bond_atom_site_label_1
_geom_bond_atom_site_label_2
_geom_bond_distance
_geom_bond_site_symmetry_2
O0 Tb3 2.351843 1_565
O0 Rb0 2.896809 1_455
O1 Tb2 2.351843 1_545
O1 Rb1 2.896809 1_655
O2 Tb1 2.351843 1_555
O2 Rb2 2.896809 1_655
O3 Tb0 2.351843 1_555
O3 Rb3 2.896809 1_455
O4 S4 1.504337 1_555
O4 Tb0 2.352358 1_555
O5 S5 1.504337 1_555
O5 Tb1 2.352358 1_555
O6 S6 1.504337 1_555
O6 Tb2 2.352358 1_555
O7 S7 1.504337 1_555
O7 Tb3 2.352358 1_555
O8 S2 1.530572 1_555
O8 Tb2 2.494028 1_555
O8 Rb1 3.026223 1_665
O8 Rb2 3.259296 1_655
O9 S3 1.530572 1_555
O9 Tb3 2.494028 1_555
O9 Rb0 3.026223 1_445
O9 Rb3 3.259296 1_455
O10 S0 1.530572 1_555
O10 Tb0 2.494028 1_555
O10 Rb3 3.026223 1_455
O10 Rb0 3.259296 1_455
O11 S1 1.530572 1_555
O11 Tb1 2.494028 1_555
O11 Rb2 3.026223 1_655
O11 Rb1 3.259296 1_655
O12 O13 1.967921 1_566
O12 Tb0 2.673693 1_555
O13 Tb1 2.673693 1_555
O14 O15 1.967921 1_555
O14 Tb2 2.673693 1_555
O15 Tb3 2.673693 1_555
O16 O40 1.230958 1_555
O16 Rb0 3.083343 1_555
O17 O41 1.230958 1_555
O17 Rb1 3.083343 1_555
O18 O42 1.230958 1_555
O18 Rb2 3.083343 1_555
O19 O43 1.230958 1_555
O19 Rb3 3.083343 1_555
O20 S0 1.447609 1_555
O20 Rb0 3.274026 1_555
O21 S1 1.447609 1_555
O21 Rb1 3.274026 1_555
O22 S2 1.447609 1_555
O22 Rb2 3.274026 1_555
O23 S3 1.447609 1_555
O23 Rb3 3.274026 1_555
O24 S4 1.537280 1_555
O24 Tb0 2.401693 1_555
O24 Rb0 3.499290 1_555
O25 S5 1.537280 1_555
O25 Tb1 2.401693 1_555
O25 Rb1 3.499290 1_555
O26 S6 1.537280 1_555
O26 Tb2 2.401693 1_555
O26 Rb2 3.499290 1_555
O27 S7 1.537280 1_555
O27 Tb3 2.401693 1_555
O27 Rb3 3.499290 1_555
O28 S3 1.486051 1_565
O28 Tb0 2.288408 1_555
O29 S2 1.486051 1_545
O29 Tb1 2.288408 1_555
O30 S1 1.486051 1_555
O30 Tb2 2.288408 1_555
O31 S0 1.486051 1_555
O31 Tb3 2.288408 1_555
O32 S0 1.513408 1_555
O32 Tb0 2.417399 1_555
O32 Rb0 2.997680 1_555
O32 Rb3 3.003496 1_555
O33 S1 1.513408 1_555
O33 Tb1 2.417399 1_555
O33 Rb1 2.997680 1_555
O33 Rb2 3.003496 1_555
O34 S2 1.513408 1_555
O34 Tb2 2.417399 1_555
O34 Rb2 2.997680 1_555
O34 Rb1 3.003496 1_565
O35 S3 1.513408 1_555
O35 Tb3 2.417399 1_555
O35 Rb3 2.997680 1_555
O35 Rb0 3.003496 1_545
O36 S4 1.433814 1_554
O37 S5 1.433814 1_556
O38 S6 1.433814 1_555
O39 S7 1.433814 1_555
O44 S4 1.516480 1_455
O44 Tb0 2.301320 1_555
O45 S5 1.516480 1_655
O45 Tb1 2.301320 1_555
O46 S6 1.516480 1_655
O46 Tb2 2.301320 1_555
O47 S7 1.516480 1_455
O47 Tb3 2.301320 1_555
