# generated using pymatgen
data_CaYTi2O6
_symmetry_space_group_name_H-M   'P 1'
_cell_length_a   5.37310000
_cell_length_b   5.58663600
_cell_length_c   7.71739400
_cell_angle_alpha   90.00000000
_cell_angle_beta   90.00000000
_cell_angle_gamma   90.00000000
_symmetry_Int_Tables_number   1
_chemical_formula_structural   CaYTi2O6
_chemical_formula_sum   'Ca2 Y2 Ti4 O12'
_cell_volume   231.65729030
_cell_formula_units_Z   2
loop_
 _symmetry_equiv_pos_site_id
 _symmetry_equiv_pos_as_xyz
  1  'x, y, z'
loop_
 _atom_site_type_symbol
 _atom_site_label
 _atom_site_symmetry_multiplicity
 _atom_site_fract_x
 _atom_site_fract_y
 _atom_site_fract_z
 _atom_site_occupancy
  Ca  Ca0  1  0.98807500  0.80443100  0.50000000  1
  Ca  Ca1  1  0.48807500  0.19556900  0.00000000  1
  Y  Y0  1  0.51552500  0.31334500  0.50000000  1
  Y  Y1  1  0.01552500  0.68665500  0.00000000  1
  Ti  Ti0  1  0.00033900  0.24705200  0.75049000  1
  Ti  Ti1  1  0.50033900  0.75294800  0.25049000  1
  Ti  Ti2  1  0.00033900  0.24705200  0.24951000  1
  Ti  Ti3  1  0.50033900  0.75294800  0.74951000  1
  O  O0  1  0.19322200  0.94671900  0.19781600  1
  O  O1  1  0.29541800  0.45818300  0.79698100  1
  O  O2  1  0.79541800  0.54181700  0.70301900  1
  O  O3  1  0.69322200  0.05328100  0.30218400  1
  O  O4  1  0.79541800  0.54181700  0.29698100  1
  O  O5  1  0.69322200  0.05328100  0.69781600  1
  O  O6  1  0.19322200  0.94671900  0.80218400  1
  O  O7  1  0.29541800  0.45818300  0.20301900  1
  O  O8  1  0.41459300  0.71873000  0.50000000  1
  O  O9  1  0.10385100  0.22187800  0.50000000  1
  O  O10  1  0.60385100  0.77812200  0.00000000  1
  O  O11  1  0.91459300  0.28127000  0.00000000  1
loop_
_geom_bond_atom_site_label_1
_geom_bond_atom_site_label_2
_geom_bond_distance
_geom_bond_site_symmetry_2
Ca0 O8 2.341202 1_655
Ca0 O2 2.383029 1_555
Ca0 O4 2.383029 1_555
Ca0 O9 2.413666 1_665
Ca0 O5 2.602548 1_565
Ca0 O3 2.602548 1_565
Ca0 O6 2.699159 1_655
Ca0 O0 2.699159 1_655
Ca1 O11 2.341202 1_555
Ca1 O1 2.383029 1_554
Ca1 O7 2.383029 1_555
Ca1 O10 2.413666 1_545
Ca1 O6 2.602548 1_544
Ca1 O0 2.602548 1_545
Ca1 O3 2.699159 1_555
Ca1 O5 2.699159 1_554
O0 Ti2 2.012069 1_565
O0 Ti1 2.014988 1_555
O0 Y1 2.313668 1_555
O1 Ti0 2.008421 1_555
O1 Ti3 2.014527 1_555
O1 Y1 2.519059 1_556
O1 Y0 2.703018 1_555
O2 Ti3 2.008421 1_555
O2 Ti0 2.014527 1_655
O2 Y0 2.519059 1_555
O2 Y1 2.703018 1_656
O3 Ti1 2.012069 1_545
O3 Ti2 2.014988 1_655
O3 Y0 2.313668 1_555
O4 Ti1 2.008421 1_555
O4 Ti2 2.014527 1_655
O4 Y0 2.519059 1_555
O4 Y1 2.703018 1_655
O5 Ti3 2.012069 1_545
O5 Ti0 2.014988 1_655
O5 Y0 2.313668 1_555
O6 Ti0 2.012069 1_565
O6 Ti3 2.014988 1_555
O6 Y1 2.313668 1_556
O7 Ti2 2.008421 1_555
O7 Ti1 2.014527 1_555
O7 Y1 2.519059 1_555
O7 Y0 2.703018 1_555
O8 Ti1 1.989125 1_555
O8 Ti3 1.989125 1_555
O8 Y0 2.328765 1_555
O9 Ti0 2.016459 1_555
O9 Ti2 2.016459 1_555
O9 Y0 2.270221 1_555
O10 Ti1 2.016459 1_555
O10 Ti3 2.016459 1_554
O10 Y1 2.270221 1_655
O11 Ti0 1.989125 1_654
O11 Ti2 1.989125 1_655
O11 Y1 2.328765 1_655
