# generated using pymatgen
data_Na3SrLaZnSi6O17
_symmetry_space_group_name_H-M   'P 1'
_cell_length_a   5.27239900
_cell_length_b   14.60938100
_cell_length_c   19.98516600
_cell_angle_alpha   90.00000000
_cell_angle_beta   90.00000000
_cell_angle_gamma   90.00000000
_symmetry_Int_Tables_number   1
_chemical_formula_structural   Na3SrLaZnSi6O17
_chemical_formula_sum   'Na12 Sr4 La4 Zn4 Si24 O68'
_cell_volume   1539.38710461
_cell_formula_units_Z   4
loop_
 _symmetry_equiv_pos_site_id
 _symmetry_equiv_pos_as_xyz
  1  'x, y, z'
loop_
 _atom_site_type_symbol
 _atom_site_label
 _atom_site_symmetry_multiplicity
 _atom_site_fract_x
 _atom_site_fract_y
 _atom_site_fract_z
 _atom_site_occupancy
  Na  Na0  1  0.99512100  0.42372600  0.17103600  1
  Na  Na1  1  0.99512100  0.57627400  0.32896400  1
  Na  Na2  1  0.00487900  0.92372600  0.32896400  1
  Na  Na3  1  0.00487900  0.07627400  0.17103600  1
  Na  Na4  1  0.00487900  0.57627400  0.82896400  1
  Na  Na5  1  0.00487900  0.42372600  0.67103600  1
  Na  Na6  1  0.99512100  0.07627400  0.67103600  1
  Na  Na7  1  0.99512100  0.92372600  0.82896400  1
  Na  Na8  1  0.00000000  0.50000000  0.00000000  1
  Na  Na9  1  0.00000000  0.50000000  0.50000000  1
  Na  Na10  1  0.00000000  0.00000000  0.50000000  1
  Na  Na11  1  0.00000000  0.00000000  0.00000000  1
  Sr  Sr0  1  0.00000000  0.75000000  0.47725300  1
  Sr  Sr1  1  0.00000000  0.25000000  0.02274700  1
  Sr  Sr2  1  0.00000000  0.25000000  0.52274700  1
  Sr  Sr3  1  0.00000000  0.75000000  0.97725300  1
  La  La0  1  0.00000000  0.75000000  0.18077900  1
  La  La1  1  0.00000000  0.25000000  0.31922100  1
  La  La2  1  0.00000000  0.25000000  0.81922100  1
  La  La3  1  0.00000000  0.75000000  0.68077900  1
  Zn  Zn0  1  0.50000000  0.75000000  0.33041300  1
  Zn  Zn1  1  0.50000000  0.25000000  0.16958700  1
  Zn  Zn2  1  0.50000000  0.25000000  0.66958700  1
  Zn  Zn3  1  0.50000000  0.75000000  0.83041300  1
  Si  Si0  1  0.45065500  0.38905400  0.91851400  1
  Si  Si1  1  0.45065500  0.61094600  0.58148600  1
  Si  Si2  1  0.54934500  0.88905400  0.58148600  1
  Si  Si3  1  0.54934500  0.11094600  0.91851400  1
  Si  Si4  1  0.54934500  0.61094600  0.08148600  1
  Si  Si5  1  0.54934500  0.38905400  0.41851400  1
  Si  Si6  1  0.45065500  0.11094600  0.41851400  1
  Si  Si7  1  0.45065500  0.88905400  0.08148600  1
  Si  Si8  1  0.46452700  0.39722000  0.27392500  1
  Si  Si9  1  0.46452700  0.60278000  0.22607500  1
  Si  Si10  1  0.53547300  0.89722000  0.22607500  1
  Si  Si11  1  0.53547300  0.10278000  0.27392500  1
  Si  Si12  1  0.53547300  0.60278000  0.72607500  1
  Si  Si13  1  0.53547300  0.39722000  0.77392500  1
  Si  Si14  1  0.46452700  0.10278000  0.77392500  1
  Si  Si15  1  0.46452700  0.89722000  0.72607500  1
  Si  Si16  1  0.53430000  0.40122300  0.06468500  1
  Si  Si17  1  0.53430000  0.59877700  0.43531500  1
  Si  Si18  1  0.46570000  0.90122300  0.43531500  1
  Si  Si19  1  0.46570000  0.09877700  0.06468500  1
  Si  Si20  1  0.46570000  0.59877700  0.93531500  1
  Si  Si21  1  0.46570000  0.40122300  0.56468500  1
  Si  Si22  1  0.53430000  0.09877700  0.56468500  1
  Si  Si23  1  0.53430000  0.90122300  0.93531500  1
  O  O0  1  0.77623000  0.31597900  0.41739500  1
  O  O1  1  0.77623000  0.68402100  0.08260500  1
  O  O2  1  0.22377000  0.81597900  0.08260500  1
  O  O3  1  0.22377000  0.18402100  0.41739500  1
  O  O4  1  0.22377000  0.68402100  0.58260500  1
  O  O5  1  0.22377000  0.31597900  0.91739500  1
  O  O6  1  0.77623000  0.18402100  0.91739500  1
  O  O7  1  0.77623000  0.81597900  0.58260500  1
  O  O8  1  0.76550100  0.38294000  0.27135000  1
  O  O9  1  0.76550100  0.61706000  0.22865000  1
  O  O10  1  0.23449900  0.88294000  0.22865000  1
  O  O11  1  0.23449900  0.11706000  0.27135000  1
  O  O12  1  0.23449900  0.61706000  0.72865000  1
  O  O13  1  0.23449900  0.38294000  0.77135000  1
  O  O14  1  0.76550100  0.11706000  0.77135000  1
  O  O15  1  0.76550100  0.88294000  0.72865000  1
  O  O16  1  0.35535600  0.38154400  0.35284600  1
  O  O17  1  0.35535600  0.61845600  0.14715400  1
  O  O18  1  0.64464400  0.88154400  0.14715400  1
  O  O19  1  0.64464400  0.11845600  0.35284600  1
  O  O20  1  0.64464400  0.61845600  0.64715400  1
  O  O21  1  0.64464400  0.38154400  0.85284600  1
  O  O22  1  0.35535600  0.11845600  0.85284600  1
  O  O23  1  0.35535600  0.88154400  0.64715400  1
  O  O24  1  0.28962500  0.32361300  0.23271800  1
  O  O25  1  0.28962500  0.67638700  0.26728200  1
  O  O26  1  0.71037500  0.82361300  0.26728200  1
  O  O27  1  0.71037500  0.17638700  0.23271800  1
  O  O28  1  0.36074600  0.61862000  0.01465300  1
  O  O29  1  0.71037500  0.67638700  0.76728200  1
  O  O30  1  0.28962500  0.17638700  0.73271800  1
  O  O31  1  0.28962500  0.82361300  0.76728200  1
  O  O32  1  0.36547500  0.50000000  0.25000000  1
  O  O33  1  0.63452500  0.00000000  0.25000000  1
  O  O34  1  0.63452500  0.50000000  0.75000000  1
  O  O35  1  0.36547500  0.00000000  0.75000000  1
  O  O36  1  0.23156900  0.39787600  0.06779300  1
  O  O37  1  0.23156900  0.60212400  0.43220700  1
  O  O38  1  0.76843100  0.89787600  0.43220700  1
  O  O39  1  0.76843100  0.10212400  0.06779300  1
  O  O40  1  0.76843100  0.60212400  0.93220700  1
  O  O41  1  0.76843100  0.39787600  0.56779300  1
  O  O42  1  0.23156900  0.10212400  0.56779300  1
  O  O43  1  0.23156900  0.89787600  0.93220700  1
  O  O44  1  0.63925400  0.38138000  0.98534700  1
  O  O45  1  0.63925400  0.61862000  0.51465300  1
  O  O46  1  0.36074600  0.88138000  0.51465300  1
  O  O47  1  0.36074600  0.11862000  0.98534700  1
  O  O48  1  0.66188200  0.00424700  0.91799000  1
  O  O49  1  0.66188200  0.99575300  0.58201000  1
  O  O50  1  0.33811800  0.50424700  0.58201000  1
  O  O51  1  0.33811800  0.49575300  0.91799000  1
  O  O52  1  0.33811800  0.99575300  0.08201000  1
  O  O53  1  0.33811800  0.00424700  0.41799000  1
  O  O54  1  0.66188200  0.49575300  0.41799000  1
  O  O55  1  0.66188200  0.50424700  0.08201000  1
  O  O56  1  0.69750300  0.82902800  0.89077100  1
  O  O57  1  0.69750300  0.17097200  0.60922900  1
  O  O58  1  0.30249700  0.32902800  0.60922900  1
  O  O59  1  0.30249700  0.67097200  0.89077100  1
  O  O60  1  0.30249700  0.17097200  0.10922900  1
  O  O61  1  0.30249700  0.82902800  0.39077100  1
  O  O62  1  0.69750300  0.67097200  0.39077100  1
  O  O63  1  0.69750300  0.32902800  0.10922900  1
  O  O64  1  0.63925400  0.88138000  0.01465300  1
  O  O65  1  0.63925400  0.11862000  0.48534700  1
  O  O66  1  0.36074600  0.38138000  0.48534700  1
  O  O67  1  0.71037500  0.32361300  0.73271800  1
loop_
_geom_bond_atom_site_label_1
_geom_bond_atom_site_label_2
_geom_bond_distance
_geom_bond_site_symmetry_2
Na0 O8 2.416590 1_555
Na0 O63 2.429415 1_555
Na0 O36 2.440098 1_655
Na0 O24 2.463694 1_655
Na0 O32 2.746814 1_655
Na0 O55 2.763389 1_555
Na1 O9 2.416590 1_555
Na1 O62 2.429415 1_555
Na1 O37 2.440098 1_655
Na1 O25 2.463694 1_655
Na1 O32 2.746814 1_655
Na1 O54 2.763389 1_555
Na2 O10 2.416590 1_555
Na2 O61 2.429415 1_555
Na2 O38 2.440098 1_455
Na2 O26 2.463694 1_455
Na2 O33 2.746814 1_465
Na2 O53 2.763389 1_565
Na3 O11 2.416590 1_555
Na3 O60 2.429415 1_555
Na3 O39 2.440098 1_455
Na3 O27 2.463694 1_455
Na3 O33 2.746814 1_455
Na3 O52 2.763389 1_545
Na4 O12 2.416590 1_555
Na4 O59 2.429415 1_555
Na4 O40 2.440098 1_455
Na4 O29 2.463694 1_455
Na4 O34 2.746814 1_455
Na4 O51 2.763389 1_555
Na5 O13 2.416590 1_555
Na5 O58 2.429415 1_555
Na5 O41 2.440098 1_455
Na5 O67 2.463694 1_455
Na5 O34 2.746814 1_455
Na5 O50 2.763389 1_555
Na6 O14 2.416590 1_555
Na6 O57 2.429415 1_555
Na6 O42 2.440098 1_655
Na6 O30 2.463694 1_655
Na6 O35 2.746814 1_655
Na6 O49 2.763389 1_545
Na7 O15 2.416590 1_555
Na7 O56 2.429415 1_555
Na7 O43 2.440098 1_655
Na7 O31 2.463694 1_655
Na7 O35 2.746814 1_665
Na7 O48 2.763389 1_565
Na8 O36 2.356323 1_555
Na8 O40 2.356323 1_454
Na8 O51 2.422418 1_554
Na8 O55 2.422418 1_455
Na8 O44 2.589694 1_454
Na8 O28 2.589694 1_555
Na9 O37 2.356323 1_555
Na9 O41 2.356323 1_455
Na9 O50 2.422418 1_555
Na9 O54 2.422418 1_455
Na9 O66 2.589694 1_555
Na9 O45 2.589694 1_455
Na10 O42 2.356323 1_555
Na10 O38 2.356323 1_445
Na10 O53 2.422418 1_555
Na10 O49 2.422418 1_445
Na10 O46 2.589694 1_545
Na10 O65 2.589694 1_455
Na11 O39 2.356323 1_455
Na11 O43 2.356323 1_544
Na11 O48 2.422418 1_454
Na11 O52 2.422418 1_545
Na11 O64 2.589694 1_445
Na11 O47 2.589694 1_554
La0 O2 2.484070 1_555
La0 O1 2.484070 1_455
La0 O10 2.493178 1_555
La0 O9 2.493178 1_455
La0 O26 2.545000 1_455
La0 O25 2.545000 1_555
La0 O17 2.766786 1_555
La0 O18 2.766786 1_455
La1 O3 2.484070 1_555
La1 O0 2.484070 1_455
La1 O11 2.493178 1_555
La1 O8 2.493178 1_455
La1 O24 2.545000 1_555
La1 O27 2.545000 1_455
La1 O16 2.766786 1_555
La1 O19 2.766786 1_455
La2 O5 2.484070 1_555
La2 O6 2.484070 1_455
La2 O13 2.493178 1_555
La2 O14 2.493178 1_455
La2 O30 2.545000 1_555
La2 O67 2.545000 1_455
La2 O21 2.766786 1_455
La2 O22 2.766786 1_555
La3 O7 2.484070 1_455
La3 O4 2.484070 1_555
La3 O12 2.493178 1_555
La3 O15 2.493178 1_455
La3 O31 2.545000 1_555
La3 O29 2.545000 1_455
La3 O20 2.766786 1_455
La3 O23 2.766786 1_555
O0 Si5 1.603493 1_555
O0 Sr2 2.598865 1_655
O1 Si4 1.603493 1_555
O1 Sr3 2.598865 1_654
O2 Si7 1.603493 1_555
O2 Sr3 2.598865 1_554
O3 Si6 1.603493 1_555
O3 Sr2 2.598865 1_555
O4 Si1 1.603493 1_555
O4 Sr0 2.598865 1_555
O5 Si0 1.603493 1_555
O5 Sr1 2.598865 1_556
O6 Si3 1.603493 1_555
O6 Sr1 2.598865 1_656
O7 Si2 1.603493 1_555
O7 Sr0 2.598865 1_655
O8 Si8 1.601337 1_555
O9 Si9 1.601337 1_555
O10 Si10 1.601337 1_555
O11 Si11 1.601337 1_555
O12 Si12 1.601337 1_555
O13 Si13 1.601337 1_555
O14 Si14 1.601337 1_555
O15 Si15 1.601337 1_555
O16 Si5 1.667480 1_555
O16 Si8 1.694542 1_555
O17 Si4 1.667480 1_555
O17 Si9 1.694542 1_555
O18 Si7 1.667480 1_555
O18 Si10 1.694542 1_555
O19 Si6 1.667480 1_555
O19 Si11 1.694542 1_555
O20 Si1 1.667480 1_555
O20 Si12 1.694542 1_555
O21 Si0 1.667480 1_555
O21 Si13 1.694542 1_555
O22 Si3 1.667480 1_555
O22 Si14 1.694542 1_555
O23 Si2 1.667480 1_555
O23 Si15 1.694542 1_555
O24 Si8 1.638582 1_555
O24 Zn1 1.994668 1_555
O25 Si9 1.638582 1_555
O25 Zn0 1.994668 1_555
O26 Si10 1.638582 1_555
O26 Zn0 1.994668 1_555
O27 Si11 1.638582 1_555
O27 Zn1 1.994668 1_555
O28 Si4 1.668937 1_555
O28 Si20 1.704206 1_554
O28 Sr3 2.803620 1_554
O29 Si12 1.638582 1_555
O29 Zn3 1.994668 1_555
O30 Si14 1.638582 1_555
O30 Zn2 1.994668 1_555
O31 Si15 1.638582 1_555
O31 Zn3 1.994668 1_555
O32 Si8 1.660126 1_555
O32 Si9 1.660126 1_555
O33 Si10 1.660126 1_545
O33 Si11 1.660126 1_555
O34 Si13 1.660126 1_555
O34 Si12 1.660126 1_555
O35 Si14 1.660126 1_555
O35 Si15 1.660126 1_545
O36 Si16 1.598075 1_555
O36 Sr1 2.639761 1_555
O37 Si17 1.598075 1_555
O37 Sr0 2.639761 1_555
O38 Si18 1.598075 1_555
O38 Sr0 2.639761 1_655
O39 Si19 1.598075 1_555
O39 Sr1 2.639761 1_655
O40 Si20 1.598075 1_555
O40 Sr3 2.639761 1_655
O41 Si21 1.598075 1_555
O41 Sr2 2.639761 1_655
O42 Si22 1.598075 1_555
O42 Sr2 2.639761 1_555
O43 Si23 1.598075 1_555
O43 Sr3 2.639761 1_555
O44 Si0 1.668937 1_555
O44 Si16 1.704206 1_556
O44 Sr1 2.803620 1_656
O45 Si1 1.668937 1_555
O45 Si17 1.704206 1_555
O45 Sr0 2.803620 1_655
O46 Si2 1.668937 1_555
O46 Si18 1.704206 1_555
O46 Sr0 2.803620 1_555
O47 Si3 1.668937 1_555
O47 Si19 1.704206 1_556
O47 Sr1 2.803620 1_556
O48 Si3 1.667945 1_555
O48 Si23 1.684558 1_545
O49 Si2 1.667945 1_555
O49 Si22 1.684558 1_565
O50 Si1 1.667945 1_555
O50 Si21 1.684558 1_555
O51 Si0 1.667945 1_555
O51 Si20 1.684558 1_555
O52 Si7 1.667945 1_555
O52 Si19 1.684558 1_565
O53 Si6 1.667945 1_555
O53 Si18 1.684558 1_545
O54 Si5 1.667945 1_555
O54 Si17 1.684558 1_555
O55 Si4 1.667945 1_555
O55 Si16 1.684558 1_555
O56 Si23 1.626451 1_555
O56 Zn3 1.967841 1_555
O56 Sr3 2.619897 1_655
O57 Si22 1.626451 1_555
O57 Zn2 1.967841 1_555
O57 Sr2 2.619897 1_655
O58 Si21 1.626451 1_555
O58 Zn2 1.967841 1_555
O58 Sr2 2.619897 1_555
O59 Si20 1.626451 1_555
O59 Zn3 1.967841 1_555
O59 Sr3 2.619897 1_555
O60 Si19 1.626451 1_555
O60 Zn1 1.967841 1_555
O60 Sr1 2.619897 1_555
O61 Si18 1.626451 1_555
O61 Zn0 1.967841 1_555
O61 Sr0 2.619897 1_555
O62 Si17 1.626451 1_555
O62 Zn0 1.967841 1_555
O62 Sr0 2.619897 1_655
O63 Si16 1.626451 1_555
O63 Zn1 1.967841 1_555
O63 Sr1 2.619897 1_655
O64 Si7 1.668937 1_555
O64 Si23 1.704206 1_554
O64 Sr3 2.803620 1_654
O65 Si6 1.668937 1_555
O65 Si22 1.704206 1_555
O65 Sr2 2.803620 1_655
O66 Si5 1.668937 1_555
O66 Si21 1.704206 1_555
O66 Sr2 2.803620 1_555
O67 Si13 1.638582 1_555
O67 Zn2 1.994668 1_555
