# generated using pymatgen
data_TaTiWC3
_symmetry_space_group_name_H-M   'P 1'
_cell_length_a   3.11241349
_cell_length_b   3.11241349
_cell_length_c   7.63864100
_cell_angle_alpha   90.00000000
_cell_angle_beta   90.00000000
_cell_angle_gamma   119.99998912
_symmetry_Int_Tables_number   1
_chemical_formula_structural   TaTiWC3
_chemical_formula_sum   'Ta1 Ti1 W1 C3'
_cell_volume   64.08278185
_cell_formula_units_Z   1
loop_
 _symmetry_equiv_pos_site_id
 _symmetry_equiv_pos_as_xyz
  1  'x, y, z'
loop_
 _atom_site_type_symbol
 _atom_site_label
 _atom_site_symmetry_multiplicity
 _atom_site_fract_x
 _atom_site_fract_y
 _atom_site_fract_z
 _atom_site_occupancy
  Ta  Ta0  1  0.33333300  0.66666700  0.16975000  1
  Ti  Ti0  1  0.00000000  0.00000000  0.50200500  1
  W  W0  1  0.66666700  0.33333300  0.82895200  1
  C  C0  1  0.33333300  0.66666700  0.66698300  1
  C  C1  1  0.00000000  0.00000000  0.99539800  1
  C  C2  1  0.66666700  0.33333300  0.33691300  1
loop_
_geom_bond_atom_site_label_1
_geom_bond_atom_site_label_2
_geom_bond_distance
_geom_bond_site_symmetry_2
C0 W0 2.181686 1_455
C0 W0 2.181686 1_565
C0 W0 2.181690 1_555
C0 Ti0 2.194802 1_565
C0 Ti0 2.194804 1_665
C0 Ti0 2.194804 1_555
C1 W0 2.201260 1_455
C1 W0 2.201262 1_555
C1 W0 2.201262 1_445
C1 Ta0 2.236684 1_546
C1 Ta0 2.236687 1_446
C1 Ta0 2.236687 1_556
C2 Ti0 2.195302 1_655
C2 Ti0 2.195305 1_555
C2 Ti0 2.195305 1_665
C2 Ta0 2.204428 1_545
C2 Ta0 2.204428 1_655
C2 Ta0 2.204432 1_555
