# generated using pymatgen
data_Ba3Ge5
_symmetry_space_group_name_H-M   'P 1'
_cell_length_a   6.78479760
_cell_length_b   6.78479760
_cell_length_c   10.42094495
_cell_angle_alpha   90.00000000
_cell_angle_beta   90.00000000
_cell_angle_gamma   100.17883846
_symmetry_Int_Tables_number   1
_chemical_formula_structural   Ba3Ge5
_chemical_formula_sum   'Ba6 Ge10'
_cell_volume   472.16212576
_cell_formula_units_Z   2
loop_
 _symmetry_equiv_pos_site_id
 _symmetry_equiv_pos_as_xyz
  1  'x, y, z'
loop_
 _atom_site_type_symbol
 _atom_site_label
 _atom_site_symmetry_multiplicity
 _atom_site_fract_x
 _atom_site_fract_y
 _atom_site_fract_z
 _atom_site_occupancy
  Ba  Ba0  1  0.65502763  0.65502763  0.25000000  1
  Ba  Ba1  1  0.34497237  0.34497237  0.75000000  1
  Ba  Ba2  1  0.78937157  0.21062843  0.50000000  1
  Ba  Ba3  1  0.78937157  0.21062843  0.00000000  1
  Ba  Ba4  1  0.21062843  0.78937157  0.50000000  1
  Ba  Ba5  1  0.21062843  0.78937157  0.00000000  1
  Ge  Ge0  1  0.10752430  0.46365619  0.25000000  1
  Ge  Ge1  1  0.53634381  0.89247570  0.75000000  1
  Ge  Ge2  1  0.89247570  0.53634381  0.75000000  1
  Ge  Ge3  1  0.46365619  0.10752430  0.25000000  1
  Ge  Ge4  1  0.07309282  0.07309282  0.25000000  1
  Ge  Ge5  1  0.92690718  0.92690718  0.75000000  1
  Ge  Ge6  1  0.29476024  0.29476024  0.42626404  1
  Ge  Ge7  1  0.70523976  0.70523976  0.57373596  1
  Ge  Ge8  1  0.29476024  0.29476024  0.07373596  1
  Ge  Ge9  1  0.70523976  0.70523976  0.92626404  1
loop_
_geom_bond_atom_site_label_1
_geom_bond_atom_site_label_2
_geom_bond_distance
_geom_bond_site_symmetry_2
Ba0 Ge7 3.401840 1_555
Ba0 Ge9 3.401840 1_554
Ba0 Ge0 3.538404 1_655
Ba0 Ge3 3.538404 1_565
Ba0 Ge6 3.634808 1_555
Ba0 Ge8 3.634808 1_555
Ba0 Ge4 3.639732 1_665
Ba0 Ge0 3.712161 1_555
Ba0 Ge3 3.712161 1_555
Ba1 Ge8 3.401840 1_556
Ba1 Ge6 3.401840 1_555
Ba1 Ge1 3.538404 1_545
Ba1 Ge2 3.538404 1_455
Ba1 Ge7 3.634808 1_555
Ba1 Ge9 3.634808 1_555
Ba1 Ge5 3.639732 1_445
Ba1 Ge2 3.712161 1_555
Ba1 Ge1 3.712161 1_555
Ba2 Ge2 3.407922 1_555
Ba2 Ge3 3.407922 1_555
Ba2 Ge7 3.461537 1_545
Ba2 Ge6 3.461537 1_655
Ba2 Ge5 3.463887 1_545
Ba2 Ge4 3.463887 1_655
Ba2 Ge7 3.585381 1_555
Ba2 Ge6 3.585381 1_555
Ba2 Ge1 3.617215 1_545
Ba2 Ge0 3.617215 1_655
Ba3 Ge3 3.407922 1_555
Ba3 Ge2 3.407922 1_554
Ba3 Ge9 3.461537 1_544
Ba3 Ge8 3.461537 1_655
Ba3 Ge5 3.463887 1_544
Ba3 Ge4 3.463887 1_655
Ba3 Ge8 3.585381 1_555
Ba3 Ge9 3.585381 1_554
Ba3 Ge1 3.617215 1_544
Ba3 Ge0 3.617215 1_655
Ba4 Ge1 3.407922 1_555
Ba4 Ge0 3.407922 1_555
Ba4 Ge6 3.461537 1_565
Ba4 Ge7 3.461537 1_455
Ba4 Ge5 3.463887 1_455
Ba4 Ge4 3.463887 1_565
Ba4 Ge7 3.585381 1_555
Ba4 Ge6 3.585381 1_555
Ba4 Ge3 3.617215 1_565
Ba4 Ge2 3.617215 1_455
Ba5 Ge1 3.407922 1_554
Ba5 Ge0 3.407922 1_555
Ba5 Ge9 3.461537 1_454
Ba5 Ge8 3.461537 1_565
Ba5 Ge5 3.463887 1_454
Ba5 Ge4 3.463887 1_565
Ba5 Ge8 3.585381 1_555
Ba5 Ge9 3.585381 1_554
Ba5 Ge3 3.617215 1_565
Ba5 Ge2 3.617215 1_454
Ge0 Ge8 2.610641 1_555
Ge0 Ge6 2.610641 1_555
Ge0 Ge4 2.618724 1_555
Ge1 Ge7 2.610641 1_555
Ge1 Ge9 2.610641 1_555
Ge1 Ge5 2.618724 1_555
Ge2 Ge7 2.610641 1_555
Ge2 Ge9 2.610641 1_555
Ge2 Ge5 2.618724 1_555
Ge3 Ge8 2.610641 1_555
Ge3 Ge6 2.610641 1_555
Ge3 Ge4 2.618724 1_555
Ge4 Ge6 2.664274 1_555
Ge4 Ge8 2.664274 1_555
Ge5 Ge7 2.664274 1_555
Ge5 Ge9 2.664274 1_555
