# generated using pymatgen
data_CsFeCuS2
_symmetry_space_group_name_H-M   'P 1'
_cell_length_a   7.67242170
_cell_length_b   7.67242170
_cell_length_c   7.67242170
_cell_angle_alpha   150.14439209
_cell_angle_beta   150.14439209
_cell_angle_gamma   42.72949240
_symmetry_Int_Tables_number   1
_chemical_formula_structural   CsFeCuS2
_chemical_formula_sum   'Cs1 Fe1 Cu1 S2'
_cell_volume   111.64396087
_cell_formula_units_Z   1
loop_
 _symmetry_equiv_pos_site_id
 _symmetry_equiv_pos_as_xyz
  1  'x, y, z'
loop_
 _atom_site_type_symbol
 _atom_site_label
 _atom_site_symmetry_multiplicity
 _atom_site_fract_x
 _atom_site_fract_y
 _atom_site_fract_z
 _atom_site_occupancy
  Cs  Cs0  1  0.00000000  0.00000000  0.00000000  1
  Fe  Fe0  1  0.75000000  0.25000000  0.50000000  1
  Cu  Cu0  1  0.25000000  0.75000000  0.50000000  1
  S  S0  1  0.65796200  0.65796200  0.00000000  1
  S  S1  1  0.34203800  0.34203800  0.00000000  1
loop_
_geom_bond_atom_site_label_1
_geom_bond_atom_site_label_2
_geom_bond_distance
_geom_bond_site_symmetry_2
Cs0 S0 3.592783 1_545
Cs0 S0 3.592783 1_556
Cs0 S0 3.592783 1_455
Cs0 S0 3.592783 1_444
Cs0 S1 3.592783 1_545
Cs0 S1 3.592783 1_556
Cs0 S1 3.592783 1_444
Cs0 S1 3.592783 1_455
Fe0 S1 2.374061 1_656
Fe0 S1 2.374061 1_555
Fe0 S0 2.374061 1_556
Fe0 S0 2.374061 1_545
Cu0 S1 2.374061 1_566
Cu0 S1 2.374061 1_555
Cu0 S0 2.374061 1_556
Cu0 S0 2.374061 1_455
