# generated using pymatgen
data_MgV6O5F19
_symmetry_space_group_name_H-M   'P 1'
_cell_length_a   5.45054841
_cell_length_b   5.36651492
_cell_length_c   15.58231846
_cell_angle_alpha   89.85365017
_cell_angle_beta   99.76418078
_cell_angle_gamma   88.57727176
_symmetry_Int_Tables_number   1
_chemical_formula_structural   MgV6O5F19
_chemical_formula_sum   'Mg1 V6 O5 F19'
_cell_volume   449.03823510
_cell_formula_units_Z   1
loop_
 _symmetry_equiv_pos_site_id
 _symmetry_equiv_pos_as_xyz
  1  'x, y, z'
loop_
 _atom_site_type_symbol
 _atom_site_label
 _atom_site_symmetry_multiplicity
 _atom_site_fract_x
 _atom_site_fract_y
 _atom_site_fract_z
 _atom_site_occupancy
  Mg  Mg0  1  0.16783600  0.27544800  0.84129000  1
  V  V0  1  0.04414300  0.97006300  0.01715700  1
  V  V1  1  0.11918100  0.47085400  0.33055200  1
  V  V2  1  0.31805000  0.99178100  0.65212400  1
  V  V3  1  0.55290900  0.45600200  0.01371400  1
  V  V4  1  0.64958000  0.99003700  0.33408300  1
  V  V5  1  0.80242200  0.44632700  0.64891600  1
  O  O0  1  0.03557900  0.23288000  0.64219300  1
  O  O1  1  0.54654800  0.27328700  0.64310500  1
  O  O2  1  0.73981600  0.22095100  0.99156100  1
  O  O3  1  0.28236500  0.77595800  0.02480100  1
  O  O4  1  0.87654400  0.29159000  0.31636100  1
  F  F0  1  0.23376700  0.26894300  0.00215800  1
  F  F1  1  0.11191900  0.73371000  0.67668600  1
  F  F2  1  0.05738800  0.05474900  0.12650200  1
  F  F3  1  0.23603800  0.43064100  0.44272100  1
  F  F4  1  0.36379400  0.07670500  0.77483200  1
  F  F5  1  0.11814700  0.58826000  0.22404700  1
  F  F6  1  0.28123300  0.94253100  0.53995200  1
  F  F7  1  0.40020600  0.52269300  0.89091800  1
  F  F8  1  0.35478100  0.21519900  0.30743300  1
  F  F9  1  0.45912500  0.71834700  0.35033100  1
  F  F10  1  0.60490400  0.77056000  0.67947100  1
  F  F11  1  0.57786600  0.47442400  0.12978900  1
  F  F12  1  0.70261200  0.08783700  0.44364300  1
  F  F13  1  0.88814300  0.44883800  0.77573400  1
  F  F14  1  0.64032300  0.94855800  0.22107600  1
  F  F15  1  0.76516400  0.58261400  0.54408900  1
  F  F16  1  0.00637300  0.99828000  0.89232100  1
  F  F17  1  0.79818400  0.72967200  0.01106700  1
  F  F18  1  0.95553400  0.77475900  0.35810200  1
loop_
_geom_bond_atom_site_label_1
_geom_bond_atom_site_label_2
_geom_bond_distance
_geom_bond_site_symmetry_2
O0 V5 1.706332 1_455
O0 V2 1.971726 1_545
O1 V5 1.684489 1_555
O1 V2 2.001204 1_545
O2 V3 1.675063 1_556
O2 V0 2.094101 1_646
O3 V0 1.632468 1_555
O3 V3 2.261588 1_555
O4 V1 1.639657 1_655
O4 V4 2.106770 1_545
F0 V0 1.964138 1_545
F0 V3 2.011815 1_555
F0 Mg0 2.471290 1_554
F1 V2 1.883421 1_555
F1 V5 2.301413 1_455
F2 V0 1.754627 1_545
F3 V1 1.766604 1_555
F4 Mg0 1.917024 1_555
F4 V2 1.942754 1_545
F5 V1 1.772730 1_555
F6 V2 1.746797 1_555
F7 Mg0 1.928509 1_555
F7 V3 1.980818 1_556
F8 V1 1.932119 1_555
F8 V4 1.972074 1_545
F9 V4 1.852022 1_555
F9 V1 2.285346 1_555
F10 V2 1.927387 1_555
F10 V5 2.120941 1_555
F11 V3 1.793841 1_555
F12 V4 1.765863 1_545
F13 Mg0 1.905218 1_655
F13 V5 1.952128 1_555
F14 V4 1.767860 1_555
F15 V5 1.765878 1_555
F16 V0 1.926231 1_556
F16 Mg0 1.978784 1_565
F17 V0 1.874529 1_655
F17 V3 2.015390 1_555
F18 V1 1.923794 1_655
F18 V4 1.986491 1_555
