# generated using pymatgen
data_AlV2O4
_symmetry_space_group_name_H-M   'P 1'
_cell_length_a   5.94854279
_cell_length_b   5.97918822
_cell_length_c   10.22863095
_cell_angle_alpha   72.81524657
_cell_angle_beta   90.99411043
_cell_angle_gamma   120.58191607
_symmetry_Int_Tables_number   1
_chemical_formula_structural   AlV2O4
_chemical_formula_sum   'Al4 V8 O16'
_cell_volume   295.28336601
_cell_formula_units_Z   4
loop_
 _symmetry_equiv_pos_site_id
 _symmetry_equiv_pos_as_xyz
  1  'x, y, z'
loop_
 _atom_site_type_symbol
 _atom_site_label
 _atom_site_symmetry_multiplicity
 _atom_site_fract_x
 _atom_site_fract_y
 _atom_site_fract_z
 _atom_site_occupancy
  Al  Al0  1  0.68814600  0.37375400  0.93588300  1
  Al  Al1  1  0.19569600  0.37786600  0.43547500  1
  Al  Al2  1  0.81190300  0.62627100  0.56413500  1
  Al  Al3  1  0.30430600  0.62216600  0.06449800  1
  V  V0  1  0.24997200  0.49993600  0.75000000  1
  V  V1  1  0.25000900  0.00009100  0.74998900  1
  V  V2  1  0.24999400  0.00001400  0.25000400  1
  V  V3  1  0.99695300  0.99892500  0.99933600  1
  V  V4  1  0.50306100  0.00105300  0.50067700  1
  V  V5  1  0.75000900  0.49999100  0.25000100  1
  V  V6  1  0.75001800  0.00000500  0.24999700  1
  V  V7  1  0.74997200  0.99997700  0.74998600  1
  O  O0  1  0.86829500  0.74526300  0.37809300  1
  O  O1  1  0.37321300  0.75546700  0.87733700  1
  O  O2  1  0.63171800  0.25472200  0.12192100  1
  O  O3  1  0.12671400  0.24451600  0.62263700  1
  O  O4  1  0.86586400  0.24729700  0.87283000  1
  O  O5  1  0.38416800  0.26249700  0.37354300  1
  O  O6  1  0.12425000  0.75665800  0.62591900  1
  O  O7  1  0.61822200  0.74347200  0.13192800  1
  O  O8  1  0.63134300  0.25324000  0.62864400  1
  O  O9  1  0.11648200  0.25286400  0.12611800  1
  O  O10  1  0.37577800  0.24333800  0.87412700  1
  O  O11  1  0.88176700  0.25650900  0.36805800  1
  O  O12  1  0.63407700  0.75264000  0.62718700  1
  O  O13  1  0.11585400  0.73751300  0.12646700  1
  O  O14  1  0.86866100  0.74677600  0.87135000  1
  O  O15  1  0.38355100  0.74718100  0.37386100  1
loop_
_geom_bond_atom_site_label_1
_geom_bond_atom_site_label_2
_geom_bond_distance
_geom_bond_site_symmetry_2
Al0 O2 1.794180 1_556
Al0 O4 1.797336 1_555
Al0 O10 1.798812 1_555
Al0 O14 1.811344 1_555
Al1 O5 1.789938 1_555
Al1 O15 1.792567 1_555
Al1 O3 1.805950 1_555
Al1 O11 1.833438 1_455
Al2 O0 1.794221 1_555
Al2 O12 1.797416 1_555
Al2 O6 1.798842 1_655
Al2 O8 1.811379 1_555
Al3 O13 1.789914 1_555
Al3 O9 1.792503 1_555
Al3 O1 1.805927 1_554
Al3 O7 1.833442 1_555
O0 V6 2.100223 1_565
O0 V5 2.101394 1_555
O0 V2 2.144042 1_665
O1 V1 2.074858 1_565
O1 V7 2.121087 1_555
O1 V0 2.138069 1_555
O2 V6 2.100129 1_555
O2 V5 2.101279 1_555
O2 V2 2.144124 1_555
O3 V1 2.074423 1_555
O3 V7 2.121001 1_445
O3 V0 2.137805 1_555
O4 V7 2.066754 1_545
O4 V3 2.120305 1_545
O4 V0 2.132405 1_655
O5 V5 2.059089 1_555
O5 V4 2.127617 1_555
O5 V2 2.135232 1_555
O6 V1 2.058965 1_565
O6 V4 2.120747 1_565
O6 V0 2.123740 1_555
O7 V6 2.064945 1_565
O7 V5 2.069314 1_555
O7 V3 2.151369 1_554
O8 V7 2.068313 1_545
O8 V1 2.114482 1_555
O8 V4 2.128396 1_555
O9 V6 2.062444 1_455
O9 V3 2.127354 1_444
O9 V2 2.139383 1_555
O10 V1 2.058751 1_555
O10 V3 2.120662 1_445
O10 V0 2.123735 1_555
O11 V6 2.064757 1_555
O11 V5 2.069132 1_555
O11 V4 2.151387 1_555
O12 V7 2.066452 1_555
O12 V4 2.120185 1_565
O12 V0 2.132319 1_555
O13 V5 2.059066 1_455
O13 V3 2.127499 1_454
O13 V2 2.135295 1_565
O14 V7 2.068379 1_555
O14 V1 2.114603 1_665
O14 V3 2.128393 1_555
O15 V6 2.062390 1_565
O15 V4 2.127351 1_565
O15 V2 2.139391 1_565
