# generated using pymatgen
data_Eu2Cu6P5
_symmetry_space_group_name_H-M   'P 1'
_cell_length_a   12.70685853
_cell_length_b   12.70685853
_cell_length_c   12.70685853
_cell_angle_alpha   161.63926039
_cell_angle_beta   161.63926039
_cell_angle_gamma   26.07960003
_symmetry_Int_Tables_number   1
_chemical_formula_structural   Eu2Cu6P5
_chemical_formula_sum   'Eu2 Cu6 P5'
_cell_volume   203.50923259
_cell_formula_units_Z   1
loop_
 _symmetry_equiv_pos_site_id
 _symmetry_equiv_pos_as_xyz
  1  'x, y, z'
loop_
 _atom_site_type_symbol
 _atom_site_label
 _atom_site_symmetry_multiplicity
 _atom_site_fract_x
 _atom_site_fract_y
 _atom_site_fract_z
 _atom_site_occupancy
  Eu  Eu0  1  0.64887600  0.64887600  0.00000000  1
  Eu  Eu1  1  0.35112400  0.35112400  0.00000000  1
  Cu  Cu0  1  0.44749800  0.94749800  0.50000000  1
  Cu  Cu1  1  0.94749800  0.44749800  0.50000000  1
  Cu  Cu2  1  0.55250200  0.05250200  0.50000000  1
  Cu  Cu3  1  0.05250200  0.55250200  0.50000000  1
  Cu  Cu4  1  0.75000000  0.25000000  0.50000000  1
  Cu  Cu5  1  0.25000000  0.75000000  0.50000000  1
  P  P0  1  0.50000000  0.50000000  0.00000000  1
  P  P1  1  0.89487800  0.89487800  0.00000000  1
  P  P2  1  0.10512200  0.10512200  0.00000000  1
  P  P3  1  0.80225900  0.80225900  0.00000000  1
  P  P4  1  0.19774100  0.19774100  0.00000000  1
loop_
_geom_bond_atom_site_label_1
_geom_bond_atom_site_label_2
_geom_bond_distance
_geom_bond_site_symmetry_2
Eu0 P2 3.064849 1_565
Eu0 P2 3.064849 1_655
Eu0 P2 3.064849 1_666
Eu0 P2 3.064849 1_554
Eu0 P4 3.111828 1_655
Eu0 P4 3.111828 1_554
Eu0 P4 3.111828 1_666
Eu0 P4 3.111828 1_565
Eu1 P1 3.064849 1_556
Eu1 P1 3.064849 1_444
Eu1 P1 3.064849 1_545
Eu1 P1 3.064849 1_455
Eu1 P3 3.111828 1_556
Eu1 P3 3.111828 1_444
Eu1 P3 3.111828 1_455
Eu1 P3 3.111828 1_545
Cu0 P0 2.408226 1_555
Cu0 P0 2.408226 1_566
Cu0 P1 2.409804 1_455
Cu0 P1 2.409804 1_556
Cu0 Eu1 3.131008 1_555
Cu0 Eu1 3.131008 1_566
Cu1 P0 2.408226 1_656
Cu1 P0 2.408226 1_555
Cu1 P1 2.409804 1_556
Cu1 P1 2.409804 1_545
Cu1 Eu1 3.131008 1_656
Cu1 Eu1 3.131008 1_555
Cu2 P0 2.408226 1_556
Cu2 P0 2.408226 1_545
Cu2 P2 2.409804 1_555
Cu2 P2 2.409804 1_656
Cu2 Eu0 3.131008 1_556
Cu2 Eu0 3.131008 1_545
Cu3 P0 2.408226 1_556
Cu3 P0 2.408226 1_455
Cu3 P2 2.409804 1_555
Cu3 P2 2.409804 1_566
Cu3 Eu0 3.131008 1_556
Cu3 Eu0 3.131008 1_455
Cu4 P3 2.404984 1_545
Cu4 P3 2.404984 1_556
Cu4 P4 2.404984 1_555
Cu4 P4 2.404984 1_656
Cu4 Eu1 3.221530 1_656
Cu4 Eu0 3.221530 1_545
Cu4 Eu0 3.221530 1_556
Cu4 Eu1 3.221530 1_555
Cu5 P3 2.404984 1_455
Cu5 P3 2.404984 1_556
Cu5 P4 2.404984 1_555
Cu5 P4 2.404984 1_566
Cu5 Eu1 3.221530 1_555
Cu5 Eu1 3.221530 1_566
Cu5 Eu0 3.221530 1_455
Cu5 Eu0 3.221530 1_556
P1 P3 2.293097 1_555
P2 P4 2.293097 1_555
