# generated using pymatgen
data_Zn(WO2)2
_symmetry_space_group_name_H-M   'P 1'
_cell_length_a   6.47284371
_cell_length_b   6.47284371
_cell_length_c   15.32254000
_cell_angle_alpha   90.00000000
_cell_angle_beta   90.00000000
_cell_angle_gamma   119.99999700
_symmetry_Int_Tables_number   1
_chemical_formula_structural   Zn(WO2)2
_chemical_formula_sum   'Zn6 W12 O24'
_cell_volume   555.97037396
_cell_formula_units_Z   6
loop_
 _symmetry_equiv_pos_site_id
 _symmetry_equiv_pos_as_xyz
  1  'x, y, z'
loop_
 _atom_site_type_symbol
 _atom_site_label
 _atom_site_symmetry_multiplicity
 _atom_site_fract_x
 _atom_site_fract_y
 _atom_site_fract_z
 _atom_site_occupancy
  Zn  Zn0  1  0.00000000  0.00000000  0.94915700  1
  Zn  Zn1  1  0.66666700  0.33333300  0.61860500  1
  Zn  Zn2  1  0.33333300  0.66666700  0.65933600  1
  Zn  Zn3  1  0.33333300  0.66666700  0.29238700  1
  Zn  Zn4  1  0.66666700  0.33333300  0.99305400  1
  Zn  Zn5  1  0.66666700  0.33333300  0.38054800  1
  W  W0  1  0.99652300  0.49826200  0.83296500  1
  W  W1  1  0.50173800  0.49826200  0.83296500  1
  W  W2  1  0.66147600  0.83073800  0.50263800  1
  W  W3  1  0.50173800  0.00347700  0.83296500  1
  W  W4  1  0.16926200  0.83073800  0.50263800  1
  W  W5  1  0.00000000  0.00000000  0.33480300  1
  W  W6  1  0.00000000  0.00000000  0.73079600  1
  W  W7  1  0.33660200  0.16830100  0.16656400  1
  W  W8  1  0.16926200  0.33852400  0.50263800  1
  W  W9  1  0.83169900  0.16830100  0.16656400  1
  W  W10  1  0.83169900  0.66339800  0.16656400  1
  W  W11  1  0.33333300  0.66666700  0.06038200  1
  O  O0  1  0.35533800  0.17766900  0.91355500  1
  O  O1  1  0.66666700  0.33333300  0.75713000  1
  O  O2  1  0.82233100  0.17766900  0.91355500  1
  O  O3  1  0.82233100  0.64466200  0.91355500  1
  O  O4  1  0.01430800  0.50715400  0.58169200  1
  O  O5  1  0.17868600  0.35737300  0.75015000  1
  O  O6  1  0.33333300  0.66666700  0.42455700  1
  O  O7  1  0.17868600  0.82131400  0.75015000  1
  O  O8  1  0.33333300  0.66666700  0.90363100  1
  O  O9  1  0.49284600  0.50715400  0.58169200  1
  O  O10  1  0.49284600  0.98569200  0.58169200  1
  O  O11  1  0.64262700  0.82131400  0.75015000  1
  O  O12  1  0.68867600  0.84433800  0.24555200  1
  O  O13  1  0.84184300  0.68368700  0.41947900  1
  O  O14  1  0.84184300  0.15815700  0.41947900  1
  O  O15  1  0.00000000  0.00000000  0.08976000  1
  O  O16  1  0.00000000  0.00000000  0.57454300  1
  O  O17  1  0.15566200  0.84433800  0.24555200  1
  O  O18  1  0.15566200  0.31132400  0.24555200  1
  O  O19  1  0.31631300  0.15815700  0.41947900  1
  O  O20  1  0.51340500  0.02681000  0.08367300  1
  O  O21  1  0.51340500  0.48659500  0.08367300  1
  O  O22  1  0.66666700  0.33333300  0.24122200  1
  O  O23  1  0.97319000  0.48659500  0.08367300  1
loop_
_geom_bond_atom_site_label_1
_geom_bond_atom_site_label_2
_geom_bond_distance
_geom_bond_site_symmetry_2
O0 Zn0 2.065248 1_555
O0 Zn4 2.128276 1_555
O0 W3 2.182336 1_555
O0 W1 2.182341 1_555
O1 Zn1 2.122555 1_555
O1 W3 2.183854 1_555
O1 W0 2.183854 1_555
O1 W1 2.183863 1_555
O2 Zn0 2.065248 1_655
O2 Zn4 2.128271 1_555
O2 W3 2.182340 1_555
O2 W0 2.182340 1_555
O3 Zn0 2.065248 1_665
O3 Zn4 2.128276 1_555
O3 W0 2.182336 1_555
O3 W1 2.182341 1_555
O4 Zn1 2.029173 1_455
O4 Zn2 2.147920 1_555
O4 W8 2.181617 1_555
O4 W4 2.181617 1_555
O5 W6 2.025138 1_555
O5 W0 2.215278 1_455
O5 W1 2.215278 1_555
O5 Zn2 2.223132 1_555
O6 Zn3 2.025180 1_555
O6 W4 2.194297 1_555
O6 W2 2.194302 1_555
O6 W8 2.194302 1_555
O7 W6 2.025132 1_565
O7 W3 2.215278 1_565
O7 W0 2.215278 1_455
O7 Zn2 2.223131 1_555
O8 W1 2.176489 1_555
O8 W0 2.176489 1_455
O8 W3 2.176489 1_565
O8 W11 2.401823 1_556
O9 Zn1 2.029178 1_555
O9 Zn2 2.147924 1_555
O9 W2 2.181617 1_555
O9 W8 2.181617 1_555
O10 Zn1 2.029173 1_565
O10 Zn2 2.147920 1_555
O10 W2 2.181617 1_555
O10 W4 2.181617 1_555
O11 W6 2.025138 1_665
O11 W3 2.215278 1_565
O11 W1 2.215278 1_555
O11 Zn2 2.223132 1_555
O12 Zn3 2.117255 1_555
O12 W10 2.185821 1_555
O12 W9 2.185821 1_565
O12 W5 2.217166 1_665
O13 Zn5 2.052555 1_555
O13 W5 2.197135 1_665
O13 W2 2.236937 1_555
O13 W4 2.236941 1_655
O14 Zn5 2.052544 1_555
O14 W5 2.197140 1_655
O14 W8 2.236941 1_655
O14 W2 2.236941 1_545
O15 Zn0 2.154395 1_554
O15 W9 2.223785 1_455
O15 W10 2.223785 1_445
O15 W7 2.223785 1_555
O16 W4 2.194300 1_545
O16 W8 2.194300 1_555
O16 W2 2.194300 1_445
O16 W6 2.394193 1_555
O17 Zn3 2.117250 1_555
O17 W10 2.185821 1_455
O17 W7 2.185821 1_565
O17 W5 2.217166 1_565
O18 Zn3 2.117255 1_555
O18 W7 2.185821 1_555
O18 W9 2.185821 1_455
O18 W5 2.217166 1_555
O19 Zn5 2.052555 1_555
O19 W5 2.197135 1_555
O19 W8 2.236937 1_555
O19 W4 2.236941 1_545
O20 W11 2.050135 1_545
O20 W7 2.193113 1_555
O20 W9 2.193113 1_555
O20 Zn4 2.209160 1_554
O21 W11 2.050141 1_555
O21 W7 2.193113 1_555
O21 W10 2.193113 1_555
O21 Zn4 2.209164 1_554
O22 Zn5 2.134828 1_555
O22 W9 2.175303 1_555
O22 W10 2.175308 1_555
O22 W7 2.175308 1_555
O23 W11 2.050135 1_655
O23 W10 2.193113 1_555
O23 W9 2.193113 1_555
O23 Zn4 2.209160 1_554
