# generated using pymatgen
data_Ba2MgMo4(Se2O11)2
_symmetry_space_group_name_H-M   'P 1'
_cell_length_a   7.85542206
_cell_length_b   8.77653827
_cell_length_c   8.97901539
_cell_angle_alpha   119.25680398
_cell_angle_beta   91.05478966
_cell_angle_gamma   87.84136997
_symmetry_Int_Tables_number   1
_chemical_formula_structural   Ba2MgMo4(Se2O11)2
_chemical_formula_sum   'Ba2 Mg1 Mo4 Se4 O22'
_cell_volume   539.69420659
_cell_formula_units_Z   1
loop_
 _symmetry_equiv_pos_site_id
 _symmetry_equiv_pos_as_xyz
  1  'x, y, z'
loop_
 _atom_site_type_symbol
 _atom_site_label
 _atom_site_symmetry_multiplicity
 _atom_site_fract_x
 _atom_site_fract_y
 _atom_site_fract_z
 _atom_site_occupancy
  Ba  Ba0  1  0.67300000  0.30208500  0.00000000  1
  Ba  Ba1  1  0.16308600  0.67242600  0.00000000  1
  Mg  Mg0  1  0.41269600  0.00311500  0.00000000  1
  Mo  Mo0  1  0.65975300  0.86189800  0.22474100  1
  Mo  Mo1  1  0.16567800  0.12846400  0.77408900  1
  Mo  Mo2  1  0.65975300  0.63715600  0.77525900  1
  Mo  Mo3  1  0.16567800  0.35437400  0.22591100  1
  Se  Se0  1  0.81635200  0.31250300  0.42381100  1
  Se  Se1  1  0.29923800  0.13000100  0.41305700  1
  Se  Se2  1  0.81635200  0.88869100  0.57618900  1
  Se  Se3  1  0.29923800  0.71694300  0.58694300  1
  O  O0  1  0.13974000  0.54336800  0.20224800  1
  O  O1  1  0.62224800  0.85415700  0.00000000  1
  O  O2  1  0.38570500  0.95463400  0.21890500  1
  O  O3  1  0.69468500  0.85696400  0.71303600  1
  O  O4  1  0.38570500  0.73572900  0.78109500  1
  O  O5  1  0.87802800  0.81156900  0.19559400  1
  O  O6  1  0.38924400  0.26200400  0.17484800  1
  O  O7  1  0.88465300  0.38618800  0.29056500  1
  O  O8  1  0.21767500  0.01303700  0.49987800  1
  O  O9  1  0.88465300  0.09562300  0.70943500  1
  O  O10  1  0.57859600  0.48669900  0.82982200  1
  O  O11  1  0.64971200  0.48765200  0.52734900  1
  O  O12  1  0.69468500  0.14392800  0.28696400  1
  O  O13  1  0.57859600  0.65687600  0.17017800  1
  O  O14  1  0.38924400  0.08715600  0.82515200  1
  O  O15  1  0.08164900  0.17903600  0.00000000  1
  O  O16  1  0.12033500  0.16587600  0.31677000  1
  O  O17  1  0.12033500  0.84910600  0.68323000  1
  O  O18  1  0.64971200  0.96030200  0.47265100  1
  O  O19  1  0.87802800  0.61597500  0.80440600  1
  O  O20  1  0.21767500  0.51315900  0.50012200  1
  O  O21  1  0.13974000  0.34112100  0.79775200  1
loop_
_geom_bond_atom_site_label_1
_geom_bond_atom_site_label_2
_geom_bond_distance
_geom_bond_site_symmetry_2
Ba0 O13 2.792458 1_555
Ba0 O10 2.792465 1_554
Ba0 O7 2.857686 1_555
Ba0 O9 2.857686 1_554
Ba0 O6 2.878332 1_555
Ba0 O14 2.878332 1_554
Ba1 O21 2.579311 1_554
Ba1 O0 2.579317 1_555
Ba1 O19 2.726240 1_454
Ba1 O5 2.726240 1_455
Ba1 O4 2.915028 1_554
Ba1 O2 2.915028 1_555
Mg0 O14 2.038075 1_554
Mg0 O6 2.038075 1_555
Mg0 O1 2.063181 1_545
Mg0 O2 2.220137 1_545
Mg0 O4 2.220137 1_544
Mo0 O5 1.746446 1_555
Mo0 O13 1.759966 1_555
Mo0 O18 1.956872 1_555
Mo0 O1 2.002289 1_555
Mo0 O2 2.281471 1_555
Mo0 O12 2.282121 1_565
Mo1 O21 1.776349 1_555
Mo1 O14 1.873707 1_555
Mo1 O15 1.973463 1_556
Mo1 O8 2.196154 1_555
Mo1 O17 2.214431 1_545
Mo1 O9 2.265095 1_455
Mo2 O19 1.746445 1_555
Mo2 O10 1.759950 1_555
Mo2 O11 1.956870 1_555
Mo2 O1 2.002293 1_556
Mo2 O4 2.281474 1_555
Mo2 O3 2.282130 1_555
Mo3 O0 1.776349 1_555
Mo3 O6 1.873704 1_555
Mo3 O15 1.973461 1_555
Mo3 O20 2.196155 1_555
Mo3 O16 2.214423 1_555
Mo3 O7 2.265094 1_455
O2 Se1 1.792073 1_565
O3 Se2 1.702508 1_555
O4 Se3 1.792069 1_555
O7 Se0 1.715678 1_555
O8 Se1 1.709434 1_555
O9 Se2 1.715684 1_545
O11 Se0 1.853964 1_555
O12 Se0 1.702513 1_555
O16 Se1 1.734833 1_555
O17 Se3 1.734837 1_555
O18 Se2 1.853964 1_555
O20 Se3 1.709427 1_555
