# generated using pymatgen
data_NaCo4(CO5)3
_symmetry_space_group_name_H-M   'P 1'
_cell_length_a   10.05897445
_cell_length_b   10.04251420
_cell_length_c   6.20088677
_cell_angle_alpha   90.00000000
_cell_angle_beta   90.00000000
_cell_angle_gamma   120.17993987
_symmetry_Int_Tables_number   1
_chemical_formula_structural   NaCo4(CO5)3
_chemical_formula_sum   'Na2 Co8 C6 O30'
_cell_volume   541.48979133
_cell_formula_units_Z   2
loop_
 _symmetry_equiv_pos_site_id
 _symmetry_equiv_pos_as_xyz
  1  'x, y, z'
loop_
 _atom_site_type_symbol
 _atom_site_label
 _atom_site_symmetry_multiplicity
 _atom_site_fract_x
 _atom_site_fract_y
 _atom_site_fract_z
 _atom_site_occupancy
  Na  Na0  1  0.99846009  0.99905629  0.86559473  1
  Na  Na1  1  0.00153991  0.00094371  0.36559473  1
  Co  Co0  1  0.50539596  0.50440115  0.75546032  1
  Co  Co1  1  0.99926602  0.49483243  0.75532658  1
  Co  Co2  1  0.49565126  0.00086546  0.75603345  1
  Co  Co3  1  0.49460404  0.49559885  0.25546032  1
  Co  Co4  1  0.00073398  0.50516757  0.25532658  1
  Co  Co5  1  0.50434874  0.99913454  0.25603345  1
  Co  Co6  1  0.33383489  0.66589040  0.08691514  1
  Co  Co7  1  0.66616511  0.33410960  0.58691514  1
  C  C0  1  0.55771363  0.76898474  0.50979787  1
  C  C1  1  0.21113330  0.44247091  0.50921058  1
  C  C2  1  0.23074478  0.78945044  0.51062153  1
  C  C3  1  0.44228637  0.23101526  0.00979787  1
  C  C4  1  0.78886670  0.55752909  0.00921058  1
  C  C5  1  0.76925522  0.21054956  0.01062153  1
  O  O0  1  0.91194952  0.11720904  0.61507767  1
  O  O1  1  0.18220752  0.07705090  0.61783214  1
  O  O2  1  0.91078043  0.81557812  0.61452300  1
  O  O3  1  0.08805048  0.88279096  0.11507767  1
  O  O4  1  0.81779248  0.92294910  0.11783214  1
  O  O5  1  0.08921957  0.18442188  0.11452300  1
  O  O6  1  0.39885073  0.52414171  0.00406659  1
  O  O7  1  0.12563606  0.60234909  0.00404942  1
  O  O8  1  0.47515060  0.87404861  0.00455087  1
  O  O9  1  0.60114927  0.47585829  0.50406659  1
  O  O10  1  0.87436494  0.39765091  0.50404942  1
  O  O11  1  0.52484940  0.12595139  0.50455087  1
  O  O12  1  0.57061649  0.71206153  0.68815954  1
  O  O13  1  0.13921784  0.42678417  0.68704685  1
  O  O14  1  0.28791722  0.85936604  0.68874279  1
  O  O15  1  0.42938351  0.28793847  0.18815954  1
  O  O16  1  0.86078216  0.57321583  0.18704685  1
  O  O17  1  0.71208278  0.14063396  0.18874279  1
  O  O18  1  0.52062087  0.69556755  0.32591814  1
  O  O19  1  0.17541668  0.48091847  0.32604078  1
  O  O20  1  0.30401768  0.82600144  0.32652155  1
  O  O21  1  0.47937913  0.30443245  0.82591814  1
  O  O22  1  0.82458332  0.51908153  0.82604078  1
  O  O23  1  0.69598232  0.17399856  0.82652155  1
  O  O24  1  0.58051160  0.90708213  0.51205432  1
  O  O25  1  0.32677805  0.42119984  0.51184169  1
  O  O26  1  0.09299613  0.67335364  0.51261545  1
  O  O27  1  0.41948840  0.09291787  0.01205432  1
  O  O28  1  0.67322195  0.57880016  0.01184169  1
  O  O29  1  0.90700387  0.32664636  0.01261545  1
loop_
_geom_bond_atom_site_label_1
_geom_bond_atom_site_label_2
_geom_bond_distance
_geom_bond_site_symmetry_2
Na0 O1 2.221382 1_665
Na0 O4 2.221870 1_556
Na0 O2 2.227753 1_555
Na0 O5 2.229955 1_666
Na0 O0 2.369907 1_565
Na0 O3 2.372049 1_656
Na1 O4 2.221382 1_445
Na1 O1 2.221870 1_555
Na1 O5 2.227753 1_555
Na1 O2 2.229955 1_445
Na1 O3 2.369907 1_545
Na1 O0 2.372049 1_455
Co0 O12 1.891561 1_555
Co0 O9 1.928088 1_555
Co0 O21 1.940048 1_555
Co0 O6 1.943709 1_556
Co0 O28 2.160413 1_556
Co0 O25 2.167715 1_555
Co1 O13 1.896141 1_655
Co1 O10 1.930269 1_555
Co1 O22 1.941469 1_555
Co1 O7 1.944322 1_656
Co1 O26 2.160711 1_655
Co1 O29 2.164115 1_556
Co2 O14 1.890582 1_545
Co2 O11 1.930044 1_555
Co2 O23 1.937034 1_555
Co2 O8 1.942986 1_546
Co2 O27 2.161930 1_556
Co2 O24 2.170902 1_545
Co3 O15 1.891561 1_555
Co3 O6 1.928088 1_555
Co3 O18 1.940048 1_555
Co3 O9 1.943709 1_555
Co3 O25 2.160413 1_555
Co3 O28 2.167715 1_555
Co4 O16 1.896141 1_455
Co4 O7 1.930273 1_555
Co4 O19 1.941469 1_555
Co4 O10 1.944318 1_455
Co4 O29 2.160711 1_455
Co4 O26 2.164115 1_555
Co5 O17 1.890582 1_565
Co5 O8 1.930044 1_555
Co5 O20 1.937034 1_555
Co5 O11 1.942986 1_565
Co5 O24 2.161930 1_555
Co5 O27 2.170902 1_565
Co6 O6 1.911556 1_555
Co6 O8 1.914082 1_555
Co6 O7 1.927052 1_555
Co6 O19 2.283071 1_555
Co6 O18 2.291812 1_555
Co6 O20 2.316843 1_555
Co7 O9 1.911556 1_555
Co7 O11 1.914082 1_555
Co7 O10 1.927062 1_555
Co7 O22 2.283071 1_555
Co7 O21 2.291812 1_555
Co7 O23 2.316843 1_555
C0 O12 1.281197 1_555
C0 O24 1.286996 1_555
C0 O18 1.306262 1_555
C1 O25 1.284107 1_555
C1 O13 1.284360 1_555
C1 O19 1.306793 1_555
C2 O14 1.279717 1_555
C2 O26 1.286519 1_555
C2 O20 1.307355 1_555
C3 O15 1.281197 1_555
C3 O27 1.286996 1_555
C3 O21 1.306262 1_554
C4 O28 1.284107 1_555
C4 O16 1.284360 1_555
C4 O22 1.306793 1_554
C5 O17 1.279717 1_555
C5 O29 1.286519 1_555
C5 O23 1.307355 1_554
