# generated using pymatgen
data_NaErGeO4
_symmetry_space_group_name_H-M   'P 1'
_cell_length_a   5.23548754
_cell_length_b   6.36770343
_cell_length_c   11.30865342
_cell_angle_alpha   90.00000000
_cell_angle_beta   90.00000000
_cell_angle_gamma   90.00000000
_symmetry_Int_Tables_number   1
_chemical_formula_structural   NaErGeO4
_chemical_formula_sum   'Na4 Er4 Ge4 O16'
_cell_volume   377.00824921
_cell_formula_units_Z   4
loop_
 _symmetry_equiv_pos_site_id
 _symmetry_equiv_pos_as_xyz
  1  'x, y, z'
loop_
 _atom_site_type_symbol
 _atom_site_label
 _atom_site_symmetry_multiplicity
 _atom_site_fract_x
 _atom_site_fract_y
 _atom_site_fract_z
 _atom_site_occupancy
  Na  Na0  1  0.50000000  -0.00000000  0.00000000  1
  Na  Na1  1  0.00000000  -0.00000000  0.50000000  1
  Na  Na2  1  0.50000000  0.50000000  0.00000000  1
  Na  Na3  1  0.00000000  0.50000000  0.50000000  1
  Er  Er0  1  0.00497104  0.75000000  0.77684481  1
  Er  Er1  1  0.50497104  0.25000000  0.72315519  1
  Er  Er2  1  0.99502896  0.25000000  0.22315519  1
  Er  Er3  1  0.49502896  0.75000000  0.27684481  1
  Ge  Ge0  1  0.05392638  0.75000000  0.09688219  1
  Ge  Ge1  1  0.55392638  0.25000000  0.40311781  1
  Ge  Ge2  1  0.94607362  0.25000000  0.90311781  1
  Ge  Ge3  1  0.44607362  0.75000000  0.59688219  1
  O  O0  1  0.79121042  0.04029468  0.82574735  1
  O  O1  1  0.29121042  0.95970532  0.67425265  1
  O  O2  1  0.20878958  0.54029468  0.17425265  1
  O  O3  1  0.70878958  0.45970532  0.32574735  1
  O  O4  1  0.20878958  0.95970532  0.17425265  1
  O  O5  1  0.70878958  0.04029468  0.32574735  1
  O  O6  1  0.79121042  0.45970532  0.82574735  1
  O  O7  1  0.29121042  0.54029468  0.67425265  1
  O  O8  1  0.17553242  0.75000000  0.95303654  1
  O  O9  1  0.67553242  0.25000000  0.54696346  1
  O  O10  1  0.82446758  0.25000000  0.04696346  1
  O  O11  1  0.32446758  0.75000000  0.45303654  1
  O  O12  1  0.77518932  0.75000000  0.61000205  1
  O  O13  1  0.27518932  0.25000000  0.88999795  1
  O  O14  1  0.22481068  0.25000000  0.38999795  1
  O  O15  1  0.72481068  0.75000000  0.11000205  1
loop_
_geom_bond_atom_site_label_1
_geom_bond_atom_site_label_2
_geom_bond_distance
_geom_bond_site_symmetry_2
Na0 O15 2.338165 1_545
Na0 O13 2.338165 1_554
Na0 O10 2.387892 1_555
Na0 O8 2.387892 1_544
Na0 O4 2.504685 1_545
Na0 O0 2.504685 1_554
Na1 O12 2.338165 1_445
Na1 O14 2.338165 1_555
Na1 O9 2.387892 1_455
Na1 O11 2.387892 1_545
Na1 O5 2.504685 1_455
Na1 O1 2.504685 1_545
Na2 O15 2.338165 1_555
Na2 O13 2.338165 1_554
Na2 O10 2.387892 1_555
Na2 O8 2.387892 1_554
Na2 O2 2.504685 1_555
Na2 O6 2.504685 1_554
Na3 O12 2.338165 1_455
Na3 O14 2.338165 1_555
Na3 O9 2.387892 1_455
Na3 O11 2.387892 1_555
Na3 O3 2.504685 1_455
Na3 O7 2.504685 1_555
Er0 O8 2.183442 1_555
Er0 O0 2.230538 1_465
Er0 O6 2.230538 1_455
Er0 O12 2.237665 1_455
Er0 O7 2.318396 1_555
Er0 O1 2.318396 1_555
Er1 O9 2.183442 1_555
Er1 O1 2.230538 1_545
Er1 O7 2.230538 1_555
Er1 O13 2.237665 1_555
Er1 O0 2.318396 1_555
Er1 O6 2.318396 1_555
Er2 O10 2.183442 1_555
Er2 O4 2.230538 1_645
Er2 O2 2.230538 1_655
Er2 O14 2.237665 1_655
Er2 O5 2.318396 1_555
Er2 O3 2.318396 1_555
Er3 O11 2.183442 1_555
Er3 O5 2.230538 1_565
Er3 O3 2.230538 1_555
Er3 O15 2.237665 1_555
Er3 O2 2.318396 1_555
Er3 O4 2.318396 1_555
Ge0 O15 1.729457 1_455
Ge0 O8 1.746854 1_554
Ge0 O4 1.790546 1_555
Ge0 O2 1.790546 1_555
Ge1 O14 1.729457 1_555
Ge1 O9 1.746854 1_555
Ge1 O5 1.790546 1_555
Ge1 O3 1.790546 1_555
Ge2 O13 1.729457 1_655
Ge2 O10 1.746854 1_556
Ge2 O0 1.790546 1_555
Ge2 O6 1.790546 1_555
Ge3 O12 1.729457 1_555
Ge3 O11 1.746854 1_555
Ge3 O7 1.790546 1_555
Ge3 O1 1.790546 1_555
