# generated using pymatgen
data_Li2CrTeO6
_symmetry_space_group_name_H-M   'P 1'
_cell_length_a   5.09048813
_cell_length_b   10.66773853
_cell_length_c   7.37097515
_cell_angle_alpha   93.65430670
_cell_angle_beta   90.00014527
_cell_angle_gamma   90.01410767
_symmetry_Int_Tables_number   1
_chemical_formula_structural   Li2CrTeO6
_chemical_formula_sum   'Li8 Cr4 Te4 O24'
_cell_volume   399.45954600
_cell_formula_units_Z   4
loop_
 _symmetry_equiv_pos_site_id
 _symmetry_equiv_pos_as_xyz
  1  'x, y, z'
loop_
 _atom_site_type_symbol
 _atom_site_label
 _atom_site_symmetry_multiplicity
 _atom_site_fract_x
 _atom_site_fract_y
 _atom_site_fract_z
 _atom_site_occupancy
  Li  Li0  1  0.00040800  0.28272900  0.71711900  1
  Li  Li1  1  0.00034700  0.78264800  0.71713400  1
  Li  Li2  1  0.50041200  0.53296500  0.21739100  1
  Li  Li3  1  0.50031800  0.03268000  0.21749800  1
  Li  Li4  1  0.99974100  0.28762900  0.21204300  1
  Li  Li5  1  0.99992500  0.78743100  0.21230200  1
  Li  Li6  1  0.50013000  0.53762300  0.71236500  1
  Li  Li7  1  0.49980700  0.03739400  0.71236800  1
  Cr  Cr0  1  0.00017800  0.50171800  0.99819800  1
  Cr  Cr1  1  0.50016800  0.75136600  0.49870500  1
  Cr  Cr2  1  0.00009200  0.00158300  0.99834700  1
  Cr  Cr3  1  0.50011500  0.25141100  0.49864700  1
  Te  Te0  1  0.49992400  0.25066600  0.99960600  1
  Te  Te1  1  0.49994700  0.75062100  0.99961200  1
  Te  Te2  1  0.00027900  0.50041600  0.49931800  1
  Te  Te3  1  0.00016300  0.00039400  0.49945000  1
  O  O0  1  0.31832500  0.08918000  0.94495200  1
  O  O1  1  0.31838400  0.58918400  0.94479500  1
  O  O2  1  0.81885700  0.33917500  0.44493700  1
  O  O3  1  0.81857500  0.83913400  0.44497200  1
  O  O4  1  0.37477400  0.24233300  0.25163900  1
  O  O5  1  0.37480300  0.74211900  0.25152300  1
  O  O6  1  0.87477600  0.49271800  0.75163000  1
  O  O7  1  0.87450400  0.99251700  0.75167300  1
  O  O8  1  0.80590400  0.15156400  0.07022900  1
  O  O9  1  0.80594800  0.65157200  0.07019800  1
  O  O10  1  0.30631700  0.40175600  0.57048800  1
  O  O11  1  0.30609800  0.90160700  0.57058400  1
  O  O12  1  0.17901100  0.33807600  0.94641800  1
  O  O13  1  0.17918600  0.83810800  0.94637800  1
  O  O14  1  0.67962000  0.58831600  0.44645500  1
  O  O15  1  0.67941100  0.08820900  0.44662000  1
  O  O16  1  0.62582400  0.24092500  0.75137400  1
  O  O17  1  0.62585300  0.74073900  0.75141600  1
  O  O18  1  0.12598500  0.49082600  0.25128100  1
  O  O19  1  0.12588900  0.99067200  0.25143300  1
  O  O20  1  0.69496900  0.40114000  0.07221200  1
  O  O21  1  0.69496900  0.90105700  0.07228500  1
  O  O22  1  0.19507600  0.65112800  0.57190800  1
  O  O23  1  0.19499100  0.15107100  0.57209800  1
loop_
_geom_bond_atom_site_label_1
_geom_bond_atom_site_label_2
_geom_bond_distance
_geom_bond_site_symmetry_2
Li0 O12 1.975945 1_555
Li0 O23 1.976283 1_555
Li0 O16 1.978007 1_455
Li0 O10 2.319342 1_555
Li0 O2 2.322926 1_455
Li0 O6 2.328058 1_455
Li1 O22 1.976410 1_555
Li1 O13 1.976454 1_555
Li1 O17 1.977855 1_455
Li1 O11 2.318084 1_555
Li1 O3 2.323379 1_455
Li1 O7 2.327141 1_455
Li2 O14 1.975927 1_555
Li2 O18 1.977693 1_555
Li2 O20 1.977999 1_555
Li2 O9 2.317565 1_555
Li2 O5 2.319384 1_555
Li2 O1 2.325820 1_554
Li3 O15 1.976478 1_555
Li3 O21 1.976906 1_545
Li3 O19 1.977421 1_545
Li3 O8 2.319719 1_555
Li3 O4 2.324381 1_555
Li3 O0 2.326365 1_554
Li4 O2 1.994255 1_555
Li4 O8 1.994754 1_555
Li4 O4 1.995436 1_655
Li4 O12 2.256083 1_654
Li4 O20 2.257341 1_555
Li4 O18 2.261582 1_655
Li5 O5 1.994279 1_655
Li5 O3 1.994331 1_555
Li5 O9 1.994604 1_555
Li5 O13 2.258733 1_654
Li5 O21 2.259352 1_555
Li5 O19 2.261571 1_655
Li6 O6 1.992111 1_555
Li6 O1 1.993441 1_555
Li6 O10 1.993450 1_555
Li6 O14 2.259163 1_555
Li6 O17 2.259917 1_555
Li6 O22 2.260559 1_555
Li7 O11 1.992268 1_545
Li7 O7 1.992333 1_545
Li7 O0 1.994305 1_555
Li7 O15 2.258727 1_555
Li7 O23 2.260086 1_555
Li7 O16 2.264528 1_555
Cr0 O1 1.922359 1_555
Cr0 O6 1.922902 1_455
Cr0 O9 1.925460 1_456
Cr0 O18 1.982743 1_556
Cr0 O20 1.984061 1_456
Cr0 O12 1.984361 1_555
Cr1 O3 1.925401 1_555
Cr1 O5 1.927077 1_555
Cr1 O11 1.928202 1_555
Cr1 O17 1.979619 1_555
Cr1 O22 1.979729 1_555
Cr1 O14 1.980814 1_555
Cr2 O0 1.923157 1_555
Cr2 O7 1.923945 1_445
Cr2 O8 1.926259 1_456
Cr2 O19 1.982772 1_546
Cr2 O21 1.983235 1_446
Cr2 O13 1.983617 1_545
Cr3 O4 1.925846 1_555
Cr3 O2 1.926776 1_555
Cr3 O10 1.928334 1_555
Cr3 O16 1.979594 1_555
Cr3 O23 1.981025 1_555
Cr3 O15 1.981625 1_555
O0 Te0 1.973643 1_555
O1 Te1 1.973287 1_555
O2 Te2 1.970676 1_655
O3 Te3 1.971352 1_665
O4 Te0 1.971282 1_554
O5 Te1 1.970612 1_554
O6 Te2 1.973107 1_655
O7 Te3 1.972939 1_665
O8 Te0 1.971213 1_554
O9 Te1 1.970903 1_554
O10 Te2 1.970049 1_555
O11 Te3 1.970302 1_565
O12 Te0 1.933702 1_555
O13 Te1 1.933535 1_555
O14 Te2 1.934648 1_655
O15 Te3 1.934540 1_655
O16 Te0 1.935249 1_555
O17 Te1 1.935000 1_555
O18 Te2 1.933579 1_555
O19 Te3 1.933464 1_565
O20 Te0 1.933556 1_554
O21 Te1 1.933278 1_554
O22 Te2 1.934946 1_555
O23 Te3 1.934819 1_555
