# generated using pymatgen
data_BaNb2Fe2O9
_symmetry_space_group_name_H-M   'P 1'
_cell_length_a   13.50567632
_cell_length_b   13.50555184
_cell_length_c   3.97573760
_cell_angle_alpha   81.53775313
_cell_angle_beta   81.53420444
_cell_angle_gamma   16.92804243
_symmetry_Int_Tables_number   1
_chemical_formula_structural   BaNb2Fe2O9
_chemical_formula_sum   'Ba1 Nb2 Fe2 O9'
_cell_volume   208.80029090
_cell_formula_units_Z   1
loop_
 _symmetry_equiv_pos_site_id
 _symmetry_equiv_pos_as_xyz
  1  'x, y, z'
loop_
 _atom_site_type_symbol
 _atom_site_label
 _atom_site_symmetry_multiplicity
 _atom_site_fract_x
 _atom_site_fract_y
 _atom_site_fract_z
 _atom_site_occupancy
  Ba  Ba0  1  0.72252100  0.27747900  0.72252100  1
  Nb  Nb0  1  0.29860200  0.86932600  0.13067400  1
  Nb  Nb1  1  0.13067400  0.70139800  0.29860200  1
  Fe  Fe0  1  0.46176800  0.98866300  0.01133700  1
  Fe  Fe1  1  0.01133700  0.53823200  0.46176800  1
  O  O0  1  0.22768100  0.77231900  0.22768100  1
  O  O1  1  0.38784500  0.92545800  0.07454200  1
  O  O2  1  0.07454200  0.61215500  0.38784500  1
  O  O3  1  0.98656400  0.51343600  0.98656400  1
  O  O4  1  0.48656400  0.01343600  0.48656400  1
  O  O5  1  0.15591200  0.69095400  0.80603900  1
  O  O6  1  0.30904600  0.84408800  0.65290500  1
  O  O7  1  0.80603900  0.34709500  0.15591200  1
  O  O8  1  0.65290500  0.19396100  0.30904600  1
loop_
_geom_bond_atom_site_label_1
_geom_bond_atom_site_label_2
_geom_bond_distance
_geom_bond_site_symmetry_2
Ba0 O0 2.782555 1_555
Ba0 O5 2.808651 1_555
Ba0 O6 2.808651 1_555
Ba0 O7 2.808651 1_555
Ba0 O8 2.808651 1_555
Ba0 O0 2.811122 1_645
Ba0 O0 2.811122 1_556
Ba0 O0 2.840585 1_646
Ba0 O6 2.864152 1_645
Ba0 O5 2.864152 1_645
Ba0 O8 2.864152 1_556
Ba0 O7 2.864152 1_556
Nb0 O1 1.922627 1_555
Nb0 O7 1.940049 1_465
Nb0 O6 1.940049 1_554
Nb0 O6 2.057391 1_555
Nb0 O7 2.057391 1_555
Nb0 O0 2.219505 1_555
Nb1 O2 1.922627 1_555
Nb1 O5 1.940049 1_554
Nb1 O8 1.940049 1_465
Nb1 O8 2.057391 1_555
Nb1 O5 2.057391 1_555
Nb1 O0 2.219505 1_555
Fe0 O1 1.811682 1_555
Fe0 O4 2.092892 1_564
Fe0 O3 2.092892 1_464
Fe0 O3 2.092979 1_554
Fe0 O4 2.092979 1_565
Fe1 O2 1.811682 1_555
Fe1 O4 2.092892 1_465
Fe1 O3 2.092892 1_454
Fe1 O3 2.092979 1_455
Fe1 O4 2.092979 1_555
