# generated using pymatgen
data_CePrO2
_symmetry_space_group_name_H-M   'P 1'
_cell_length_a   6.16128541
_cell_length_b   6.16128541
_cell_length_c   6.16128490
_cell_angle_alpha   33.73183180
_cell_angle_beta   33.73183180
_cell_angle_gamma   33.73183314
_symmetry_Int_Tables_number   1
_chemical_formula_structural   CePrO2
_chemical_formula_sum   'Ce1 Pr1 O2'
_cell_volume   64.26099100
_cell_formula_units_Z   1
loop_
 _symmetry_equiv_pos_site_id
 _symmetry_equiv_pos_as_xyz
  1  'x, y, z'
loop_
 _atom_site_type_symbol
 _atom_site_label
 _atom_site_symmetry_multiplicity
 _atom_site_fract_x
 _atom_site_fract_y
 _atom_site_fract_z
 _atom_site_occupancy
  Ce  Ce0  1  0.00000000  0.00000000  0.00000000  1
  Pr  Pr0  1  0.50000000  0.50000000  0.50000000  1
  O  O0  1  0.25465700  0.25465700  0.25465700  1
  O  O1  1  0.74534300  0.74534300  0.74534300  1
loop_
_geom_bond_atom_site_label_1
_geom_bond_atom_site_label_2
_geom_bond_distance
_geom_bond_site_symmetry_2
Ce0 O1 2.477520 1_445
Ce0 O0 2.477520 1_554
Ce0 O1 2.477520 1_544
Ce0 O0 2.477520 1_455
Ce0 O1 2.477520 1_454
Ce0 O0 2.477520 1_545
O0 Pr0 2.570786 1_554
O0 Pr0 2.570786 1_545
O0 Pr0 2.570786 1_455
O1 Pr0 2.570786 1_556
O1 Pr0 2.570786 1_565
O1 Pr0 2.570786 1_655
