# generated using pymatgen
data_Ca3Nd4Nb6(FeO14)2
_symmetry_space_group_name_H-M   'P 1'
_cell_length_a   7.36144423
_cell_length_b   14.96199826
_cell_length_c   12.90044105
_cell_angle_alpha   30.24964605
_cell_angle_beta   54.77353634
_cell_angle_gamma   60.16063295
_symmetry_Int_Tables_number   1
_chemical_formula_structural   Ca3Nd4Nb6(FeO14)2
_chemical_formula_sum   'Ca3 Nd4 Nb6 Fe2 O28'
_cell_volume   584.71628277
_cell_formula_units_Z   1
loop_
 _symmetry_equiv_pos_site_id
 _symmetry_equiv_pos_as_xyz
  1  'x, y, z'
loop_
 _atom_site_type_symbol
 _atom_site_label
 _atom_site_symmetry_multiplicity
 _atom_site_fract_x
 _atom_site_fract_y
 _atom_site_fract_z
 _atom_site_occupancy
  Ca  Ca0  1  0.47727600  0.25437000  0.99988000  1
  Ca  Ca1  1  0.52272400  0.74563000  0.00012000  1
  Ca  Ca2  1  0.50000000  0.50000000  0.50000000  1
  Nd  Nd0  1  0.52359700  0.25201400  0.49396400  1
  Nd  Nd1  1  0.47640300  0.74798600  0.50603600  1
  Nd  Nd2  1  0.50000000  0.00000000  0.50000000  1
  Nd  Nd3  1  0.00000000  0.50000000  0.50000000  1
  Nb  Nb0  1  0.50000000  0.00000000  0.00000000  1
  Nb  Nb1  1  0.00000000  0.50000000  0.00000000  1
  Nb  Nb2  1  0.01243400  0.74969200  0.99912700  1
  Nb  Nb3  1  0.01725900  0.25015600  0.49906300  1
  Nb  Nb4  1  0.98756600  0.25030800  0.00087300  1
  Nb  Nb5  1  0.98274100  0.74984400  0.50093700  1
  Fe  Fe0  1  0.00000000  0.00000000  0.00000000  1
  Fe  Fe1  1  0.50000000  0.50000000  0.00000000  1
  O  O0  1  0.07379200  0.31860800  0.04847800  1
  O  O1  1  0.08076000  0.00136300  0.68751700  1
  O  O2  1  0.40731400  0.00085800  0.36570800  1
  O  O3  1  0.68231800  0.99589400  0.07337400  1
  O  O4  1  0.07915300  0.20709700  0.66908000  1
  O  O5  1  0.06972700  0.79819400  0.08195600  1
  O  O6  1  0.33031900  0.29912700  0.32387900  1
  O  O7  1  0.67425800  0.30157300  0.07510000  1
  O  O8  1  0.06911100  0.49999100  0.67181800  1
  O  O9  1  0.31768200  0.00410600  0.92662600  1
  O  O10  1  0.38381000  0.49793300  0.37331200  1
  O  O11  1  0.91924000  0.99863700  0.31248300  1
  O  O12  1  0.67583600  0.49481000  0.07825800  1
  O  O13  1  0.07526500  0.68360200  0.68329000  1
  O  O14  1  0.32220000  0.19293400  0.93299100  1
  O  O15  1  0.32062600  0.80514800  0.32297000  1
  O  O16  1  0.92473500  0.31639800  0.31671000  1
  O  O17  1  0.67937400  0.19485200  0.67703000  1
  O  O18  1  0.67780000  0.80706600  0.06700900  1
  O  O19  1  0.32416400  0.50519000  0.92174200  1
  O  O20  1  0.93088900  0.50000900  0.32818200  1
  O  O21  1  0.61619000  0.50206700  0.62668800  1
  O  O22  1  0.32574200  0.69842700  0.92490000  1
  O  O23  1  0.66968100  0.70087300  0.67612100  1
  O  O24  1  0.93027300  0.20180600  0.91804400  1
  O  O25  1  0.92084700  0.79290300  0.33092000  1
  O  O26  1  0.59268600  0.99914200  0.63429200  1
  O  O27  1  0.92620800  0.68139200  0.95152200  1
loop_
_geom_bond_atom_site_label_1
_geom_bond_atom_site_label_2
_geom_bond_distance
_geom_bond_site_symmetry_2
Ca0 O2 2.266737 1_556
Ca0 O21 2.285784 1_555
Ca0 O0 2.488171 1_556
Ca0 O14 2.538454 1_555
Ca0 O19 2.633562 1_555
Ca0 O7 2.714691 1_556
Ca0 O24 2.759821 1_555
Ca0 O3 2.764154 1_546
Ca1 O26 2.266737 1_554
Ca1 O10 2.285784 1_555
Ca1 O27 2.488171 1_554
Ca1 O18 2.538454 1_555
Ca1 O12 2.633562 1_555
Ca1 O22 2.714691 1_554
Ca1 O5 2.759821 1_555
Ca1 O9 2.764154 1_564
Ca2 O10 2.264918 1_555
Ca2 O21 2.264918 1_555
Ca2 O8 2.619821 1_555
Ca2 O20 2.619821 1_555
Ca2 O18 2.689733 1_555
Ca2 O14 2.689733 1_555
Ca2 O15 2.696182 1_555
Ca2 O17 2.696182 1_555
Nd0 O26 2.272560 1_545
Nd0 O10 2.281521 1_555
Nd0 O16 2.472276 1_555
Nd0 O17 2.506481 1_555
Nd0 O12 2.583107 1_555
Nd0 O6 2.695715 1_555
Nd0 O9 2.697422 1_555
Nd0 O4 2.701478 1_555
Nd1 O2 2.272560 1_565
Nd1 O21 2.281521 1_555
Nd1 O13 2.472276 1_555
Nd1 O15 2.506481 1_555
Nd1 O19 2.583107 1_555
Nd1 O23 2.695715 1_555
Nd1 O3 2.697422 1_555
Nd1 O25 2.701478 1_555
Nd2 O26 2.187118 1_545
Nd2 O2 2.187118 1_555
Nd2 O11 2.605177 1_545
Nd2 O1 2.605177 1_555
Nd2 O6 2.625937 1_555
Nd2 O23 2.625937 1_545
Nd2 O7 2.639823 1_555
Nd2 O22 2.639823 1_545
Nd3 O10 2.308297 1_555
Nd3 O21 2.308297 1_455
Nd3 O20 2.544042 1_455
Nd3 O8 2.544042 1_555
Nd3 O4 2.590946 1_555
Nd3 O25 2.590946 1_455
Nd3 O24 2.601704 1_455
Nd3 O5 2.601704 1_555
Nb0 O3 1.996015 1_545
Nb0 O9 1.996015 1_554
Nb0 O14 2.006849 1_554
Nb0 O18 2.006849 1_545
Nb0 O15 2.025040 1_545
Nb0 O17 2.025040 1_554
Nb1 O12 1.997369 1_455
Nb1 O19 1.997369 1_554
Nb1 O27 2.011053 1_454
Nb1 O0 2.011053 1_555
Nb1 O16 2.014589 1_455
Nb1 O13 2.014589 1_554
Nb2 O22 1.945612 1_555
Nb2 O1 1.998018 1_565
Nb2 O27 2.000948 1_455
Nb2 O5 2.002599 1_556
Nb2 O20 2.056730 1_456
Nb2 O18 2.068294 1_456
Nb3 O6 1.940756 1_555
Nb3 O4 1.962823 1_555
Nb3 O1 1.982383 1_555
Nb3 O16 2.031912 1_455
Nb3 O20 2.062226 1_455
Nb3 O17 2.078622 1_455
Nb4 O7 1.945612 1_555
Nb4 O11 1.998018 1_545
Nb4 O0 2.000948 1_655
Nb4 O24 2.002599 1_554
Nb4 O8 2.056730 1_654
Nb4 O14 2.068294 1_654
Nb5 O23 1.940756 1_555
Nb5 O25 1.962823 1_555
Nb5 O11 1.982383 1_555
Nb5 O13 2.031912 1_655
Nb5 O8 2.062226 1_655
Nb5 O15 2.078622 1_655
Fe0 O9 1.964083 1_554
Fe0 O3 1.964083 1_445
Fe0 O24 2.016581 1_454
Fe0 O5 2.016581 1_545
Fe0 O4 2.058833 1_554
Fe0 O25 2.058833 1_445
Fe1 O12 1.993189 1_555
Fe1 O19 1.993189 1_554
Fe1 O6 2.017512 1_555
Fe1 O23 2.017512 1_554
Fe1 O7 2.018116 1_555
Fe1 O22 2.018116 1_554
