# generated using pymatgen
data_SrLaVFeO6
_symmetry_space_group_name_H-M   'P 1'
_cell_length_a   5.56731855
_cell_length_b   5.53039647
_cell_length_c   9.62989791
_cell_angle_alpha   73.73092943
_cell_angle_beta   90.01418142
_cell_angle_gamma   60.55353050
_symmetry_Int_Tables_number   1
_chemical_formula_structural   SrLaVFeO6
_chemical_formula_sum   'Sr2 La2 V2 Fe2 O12'
_cell_volume   244.45806681
_cell_formula_units_Z   2
loop_
 _symmetry_equiv_pos_site_id
 _symmetry_equiv_pos_as_xyz
  1  'x, y, z'
loop_
 _atom_site_type_symbol
 _atom_site_label
 _atom_site_symmetry_multiplicity
 _atom_site_fract_x
 _atom_site_fract_y
 _atom_site_fract_z
 _atom_site_occupancy
  Sr  Sr0  1  0.37809300  0.25226500  0.12408000  1
  Sr  Sr1  1  0.87570800  0.24476100  0.62875400  1
  La  La0  1  0.12519700  0.75472400  0.36917200  1
  La  La1  1  0.62188200  0.76340500  0.87265800  1
  V  V0  1  0.75413000  0.49677000  0.25242900  1
  V  V1  1  0.24695700  0.50456100  0.74902800  1
  Fe  Fe0  1  0.49962500  0.00261900  0.49818100  1
  Fe  Fe1  1  0.00022700  0.00099600  0.00119800  1
  O  O0  1  0.67349900  0.18882300  0.36156500  1
  O  O1  1  0.16701500  0.21296600  0.86135900  1
  O  O2  1  0.65367400  0.67563300  0.39998600  1
  O  O3  1  0.15200000  0.69968600  0.90023700  1
  O  O4  1  0.14347100  0.21673400  0.35382600  1
  O  O5  1  0.63947500  0.22779000  0.85681500  1
  O  O6  1  0.85146400  0.79057400  0.14411000  1
  O  O7  1  0.34297200  0.77716600  0.64059500  1
  O  O8  1  0.83805900  0.33655100  0.09226400  1
  O  O9  1  0.33537100  0.32215700  0.58881100  1
  O  O10  1  0.35455100  0.77051100  0.15062900  1
  O  O11  1  0.84663400  0.76131000  0.65430400  1
loop_
_geom_bond_atom_site_label_1
_geom_bond_atom_site_label_2
_geom_bond_distance
_geom_bond_site_symmetry_2
La0 O9 2.444840 1_555
La0 O0 2.461359 1_465
La0 O10 2.464786 1_555
La0 O6 2.553347 1_455
La0 O4 2.569970 1_565
La0 O2 2.756342 1_555
La0 O2 2.868320 1_455
La0 O7 2.940296 1_555
La0 O4 2.972092 1_555
La0 O0 3.139057 1_555
La0 O11 3.154114 1_455
La0 O8 3.186350 1_465
La1 O8 2.429334 1_556
La1 O11 2.447031 1_555
La1 O1 2.502810 1_565
La1 O5 2.580017 1_565
La1 O7 2.682871 1_555
La1 O3 2.798160 1_655
La1 O3 2.809336 1_555
La1 O5 2.962303 1_555
La1 O6 2.982748 1_556
La1 O10 3.063571 1_556
La1 O1 3.097009 1_655
La1 O9 3.159693 1_565
Fe0 O0 1.987451 1_555
Fe0 O9 1.999124 1_555
Fe0 O4 2.008483 1_555
Fe0 O11 2.028067 1_545
Fe0 O7 2.075512 1_545
Fe0 O2 2.081707 1_545
Fe1 O3 1.989912 1_544
Fe1 O6 1.996254 1_445
Fe1 O5 2.021092 1_454
Fe1 O10 2.021239 1_545
Fe1 O1 2.058221 1_554
Fe1 O8 2.071927 1_455
O0 V0 1.988854 1_555
O0 Sr0 2.653159 1_555
O0 Sr1 2.961479 1_555
O1 V1 1.922847 1_555
O1 Sr1 2.678751 1_455
O1 Sr0 2.895980 1_556
O2 V0 1.885310 1_555
O2 Sr1 2.494127 1_555
O2 Sr0 3.165909 1_565
O3 V1 1.970829 1_555
O3 Sr0 2.510271 1_556
O3 Sr1 3.051440 1_465
O4 V0 1.975194 1_455
O4 Sr0 2.578734 1_555
O4 Sr1 3.043087 1_455
O5 V1 2.003904 1_555
O5 Sr1 2.563033 1_555
O5 Sr0 2.960306 1_556
O6 V0 1.984491 1_555
O6 Sr0 2.570939 1_565
O6 Sr0 3.039113 1_655
O7 V1 1.886686 1_555
O7 Sr1 2.586109 1_465
O7 Sr1 3.013493 1_555
O8 V0 1.934266 1_555
O8 Sr0 2.809276 1_655
O8 Sr0 2.821833 1_555
O9 V1 2.006132 1_555
O9 Sr1 2.804521 1_455
O9 Sr1 2.832273 1_555
O10 V0 2.014395 1_555
O10 Sr0 2.672581 1_565
O10 Sr0 2.887618 1_555
O11 V1 1.994302 1_655
O11 Sr1 2.700412 1_565
O11 Sr1 2.861257 1_555
