# generated using pymatgen
data_Sm(MnSn)6
_symmetry_space_group_name_H-M   'P 1'
_cell_length_a   5.71924619
_cell_length_b   5.71927675
_cell_length_c   9.18550661
_cell_angle_alpha   90.00000000
_cell_angle_beta   90.00000000
_cell_angle_gamma   119.99988170
_symmetry_Int_Tables_number   1
_chemical_formula_structural   Sm(MnSn)6
_chemical_formula_sum   'Sm1 Mn6 Sn6'
_cell_volume   260.20411932
_cell_formula_units_Z   1
loop_
 _symmetry_equiv_pos_site_id
 _symmetry_equiv_pos_as_xyz
  1  'x, y, z'
loop_
 _atom_site_type_symbol
 _atom_site_label
 _atom_site_symmetry_multiplicity
 _atom_site_fract_x
 _atom_site_fract_y
 _atom_site_fract_z
 _atom_site_occupancy
  Sm  Sm0  1  -0.00000164  -0.00000000  0.00000000  1
  Mn  Mn0  1  0.49998398  -0.00000000  0.24737893  1
  Mn  Mn1  1  0.49998726  0.50000514  0.24737877  1
  Mn  Mn2  1  0.99998412  0.49999486  0.24737777  1
  Mn  Mn3  1  0.49998398  -0.00000000  0.75262107  1
  Mn  Mn4  1  0.49998726  0.50000514  0.75262123  1
  Mn  Mn5  1  0.99998412  0.49999486  0.75262223  1
  Sn  Sn0  1  0.33334471  0.66669469  0.00000000  1
  Sn  Sn1  1  0.66664902  0.33330531  0.00000000  1
  Sn  Sn2  1  0.33331144  0.66669652  0.50000000  1
  Sn  Sn3  1  0.66661592  0.33330448  0.50000000  1
  Sn  Sn4  1  0.99998541  -0.00000000  0.33715150  1
  Sn  Sn5  1  0.99998541  -0.00000000  0.66284850  1
loop_
_geom_bond_atom_site_label_1
_geom_bond_atom_site_label_2
_geom_bond_distance
_geom_bond_site_symmetry_2
Sm0 Sn4 3.096907 1_455
Sm0 Sn5 3.096907 1_454
Sm0 Sn1 3.301933 1_555
Sm0 Sn0 3.301941 1_545
Sm0 Sn0 3.301948 1_445
Sm0 Sn1 3.301956 1_455
Sm0 Sn1 3.302169 1_445
Sm0 Sn0 3.302169 1_555
Mn0 Sn1 2.808691 1_555
Mn0 Sn0 2.808691 1_545
Mn0 Sn2 2.847782 1_545
Mn0 Sn3 2.847785 1_555
Mn0 Sn4 2.976134 1_455
Mn0 Sn4 2.976150 1_555
Mn1 Sn0 2.808763 1_555
Mn1 Sn1 2.808849 1_555
Mn1 Sn3 2.847853 1_555
Mn1 Sn2 2.847962 1_555
Mn1 Sn4 2.976135 1_565
Mn1 Sn4 2.976174 1_455
Mn2 Sn1 2.808764 1_555
Mn2 Sn0 2.808838 1_655
Mn2 Sn2 2.847854 1_655
Mn2 Sn3 2.847971 1_555
Mn2 Sn4 2.976135 1_555
Mn2 Sn4 2.976184 1_565
Mn3 Sn1 2.808691 1_556
Mn3 Sn0 2.808691 1_546
Mn3 Sn2 2.847782 1_545
Mn3 Sn3 2.847785 1_555
Mn3 Sn5 2.976134 1_455
Mn3 Sn5 2.976150 1_555
Mn4 Sn0 2.808763 1_556
Mn4 Sn1 2.808849 1_556
Mn4 Sn3 2.847853 1_555
Mn4 Sn2 2.847962 1_555
Mn4 Sn5 2.976135 1_565
Mn4 Sn5 2.976174 1_455
Mn5 Sn1 2.808764 1_556
Mn5 Sn0 2.808838 1_656
Mn5 Sn2 2.847854 1_655
Mn5 Sn3 2.847971 1_555
Mn5 Sn5 2.976135 1_555
Mn5 Sn5 2.976184 1_565
Sn4 Sn5 2.991692 1_555
