# generated using pymatgen
data_Sc2Ga3Cu
_symmetry_space_group_name_H-M   'P 1'
_cell_length_a   6.52491230
_cell_length_b   8.49920992
_cell_length_c   14.74567876
_cell_angle_alpha   90.00000000
_cell_angle_beta   90.00000000
_cell_angle_gamma   90.00000000
_symmetry_Int_Tables_number   1
_chemical_formula_structural   Sc2Ga3Cu
_chemical_formula_sum   'Sc16 Ga24 Cu8'
_cell_volume   817.74519910
_cell_formula_units_Z   8
loop_
 _symmetry_equiv_pos_site_id
 _symmetry_equiv_pos_as_xyz
  1  'x, y, z'
loop_
 _atom_site_type_symbol
 _atom_site_label
 _atom_site_symmetry_multiplicity
 _atom_site_fract_x
 _atom_site_fract_y
 _atom_site_fract_z
 _atom_site_occupancy
  Sc  Sc0_0  1  0.00000000  0.00000000  0.00157120  1
  Sc  Sc0_1  1  0.00000000  0.00000000  0.50157120  1
  Sc  Sc0_2  1  0.00000000  0.50000000  0.00157120  1
  Sc  Sc0_3  1  0.00000000  0.50000000  0.50157120  1
  Sc  Sc0_4  1  0.50000000  0.00000000  0.00157120  1
  Sc  Sc0_5  1  0.50000000  0.00000000  0.50157120  1
  Sc  Sc0_6  1  0.50000000  0.50000000  0.00157120  1
  Sc  Sc0_7  1  0.50000000  0.50000000  0.50157120  1
  Sc  Sc1_0  1  0.00000000  0.25000000  0.24896252  1
  Sc  Sc1_1  1  0.00000000  0.25000000  0.74896252  1
  Sc  Sc1_2  1  0.00000000  0.75000000  0.24896252  1
  Sc  Sc1_3  1  0.00000000  0.75000000  0.74896252  1
  Sc  Sc1_4  1  0.50000000  0.25000000  0.24896252  1
  Sc  Sc1_5  1  0.50000000  0.25000000  0.74896252  1
  Sc  Sc1_6  1  0.50000000  0.75000000  0.24896252  1
  Sc  Sc1_7  1  0.50000000  0.75000000  0.74896252  1
  Ga  Ga0_0  1  0.25000000  0.25000000  0.41828319  1
  Ga  Ga0_1  1  0.25000000  0.25000000  0.91828319  1
  Ga  Ga0_2  1  0.25000000  0.75000000  0.41828319  1
  Ga  Ga0_3  1  0.25000000  0.75000000  0.91828319  1
  Ga  Ga0_4  1  0.75000000  0.25000000  0.41828319  1
  Ga  Ga0_5  1  0.75000000  0.25000000  0.91828319  1
  Ga  Ga0_6  1  0.75000000  0.75000000  0.41828319  1
  Ga  Ga0_7  1  0.75000000  0.75000000  0.91828319  1
  Ga  Ga1_0  1  0.25000000  0.25000000  0.08836885  1
  Ga  Ga1_1  1  0.25000000  0.25000000  0.58836885  1
  Ga  Ga1_2  1  0.25000000  0.75000000  0.08836885  1
  Ga  Ga1_3  1  0.25000000  0.75000000  0.58836885  1
  Ga  Ga1_4  1  0.75000000  0.25000000  0.08836885  1
  Ga  Ga1_5  1  0.75000000  0.25000000  0.58836885  1
  Ga  Ga1_6  1  0.75000000  0.75000000  0.08836885  1
  Ga  Ga1_7  1  0.75000000  0.75000000  0.58836885  1
  Ga  Ga2_0  1  0.25000000  0.00000000  0.32777036  1
  Ga  Ga2_1  1  0.25000000  0.00000000  0.82777035  1
  Ga  Ga2_2  1  0.25000000  0.50000000  0.32777036  1
  Ga  Ga2_3  1  0.25000000  0.50000000  0.82777035  1
  Ga  Ga2_4  1  0.75000000  0.00000000  0.32777036  1
  Ga  Ga2_5  1  0.75000000  0.00000000  0.82777035  1
  Ga  Ga2_6  1  0.75000000  0.50000000  0.32777036  1
  Ga  Ga2_7  1  0.75000000  0.50000000  0.82777035  1
  Cu  Cu0_0  1  0.25000000  0.00000000  0.16504388  1
  Cu  Cu0_1  1  0.25000000  0.00000000  0.66504388  1
  Cu  Cu0_2  1  0.25000000  0.50000000  0.16504388  1
  Cu  Cu0_3  1  0.25000000  0.50000000  0.66504388  1
  Cu  Cu0_4  1  0.75000000  0.00000000  0.16504388  1
  Cu  Cu0_5  1  0.75000000  0.00000000  0.66504388  1
  Cu  Cu0_6  1  0.75000000  0.50000000  0.16504388  1
  Cu  Cu0_7  1  0.75000000  0.50000000  0.66504388  1
loop_
_geom_bond_atom_site_label_1
_geom_bond_atom_site_label_2
_geom_bond_distance
_geom_bond_site_symmetry_2
Sc0_0 Sc0_4 3.262456 1_555
Sc0_0 Sc0_4 3.262456 1_455
Sc0_1 Sc0_5 3.262456 1_555
Sc0_1 Sc0_5 3.262456 1_455
Sc0_2 Sc0_6 3.262456 1_455
Sc0_2 Sc0_6 3.262456 1_555
Sc0_3 Sc0_7 3.262456 1_455
Sc0_3 Sc0_7 3.262456 1_555
Sc1_0 Sc1_4 3.262456 1_555
Sc1_0 Sc1_4 3.262456 1_455
Sc1_1 Sc1_5 3.262456 1_455
Sc1_1 Sc1_5 3.262456 1_555
Sc1_2 Sc1_6 3.262456 1_455
Sc1_2 Sc1_6 3.262456 1_555
Sc1_3 Sc1_7 3.262456 1_555
Sc1_3 Sc1_7 3.262456 1_455
Ga0_0 Ga1_1 2.508028 1_555
Ga0_0 Ga2_2 2.509211 1_555
Ga0_0 Ga2_0 2.509211 1_555
Ga0_0 Sc0_7 2.946865 1_555
Ga0_0 Sc0_1 2.946865 1_555
Ga0_0 Sc0_3 2.946865 1_555
Ga0_0 Sc0_5 2.946865 1_555
Ga0_0 Sc1_0 2.982391 1_555
Ga0_0 Sc1_4 2.982391 1_555
Ga0_1 Ga1_0 2.508028 1_556
Ga0_1 Ga2_1 2.509211 1_555
Ga0_1 Ga2_3 2.509211 1_555
Ga0_1 Sc0_0 2.946865 1_556
Ga0_1 Sc0_6 2.946865 1_556
Ga0_1 Sc0_4 2.946865 1_556
Ga0_1 Sc0_2 2.946865 1_556
Ga0_1 Sc1_1 2.982391 1_555
Ga0_1 Sc1_5 2.982391 1_555
Ga0_2 Ga1_3 2.508028 1_555
Ga0_2 Ga2_2 2.509211 1_555
Ga0_2 Ga2_0 2.509211 1_565
Ga0_2 Sc0_1 2.946865 1_565
Ga0_2 Sc0_5 2.946865 1_565
Ga0_2 Sc0_7 2.946865 1_555
Ga0_2 Sc0_3 2.946865 1_555
Ga0_2 Sc1_2 2.982391 1_555
Ga0_2 Sc1_6 2.982391 1_555
Ga0_3 Ga1_2 2.508028 1_556
Ga0_3 Ga2_1 2.509211 1_565
Ga0_3 Ga2_3 2.509211 1_555
Ga0_3 Sc0_4 2.946865 1_566
Ga0_3 Sc0_6 2.946865 1_556
Ga0_3 Sc0_0 2.946865 1_566
Ga0_3 Sc0_2 2.946865 1_556
Ga0_3 Sc1_3 2.982391 1_555
Ga0_3 Sc1_7 2.982391 1_555
Ga0_4 Ga1_5 2.508028 1_555
Ga0_4 Ga2_4 2.509211 1_555
Ga0_4 Ga2_6 2.509211 1_555
Ga0_4 Sc0_7 2.946865 1_555
Ga0_4 Sc0_1 2.946865 1_655
Ga0_4 Sc0_3 2.946865 1_655
Ga0_4 Sc0_5 2.946865 1_555
Ga0_4 Sc1_4 2.982391 1_555
Ga0_4 Sc1_0 2.982391 1_655
Ga0_5 Ga1_4 2.508028 1_556
Ga0_5 Ga2_5 2.509211 1_555
Ga0_5 Ga2_7 2.509211 1_555
Ga0_5 Sc0_2 2.946865 1_656
Ga0_5 Sc0_6 2.946865 1_556
Ga0_5 Sc0_0 2.946865 1_656
Ga0_5 Sc0_4 2.946865 1_556
Ga0_5 Sc1_1 2.982391 1_655
Ga0_5 Sc1_5 2.982391 1_555
Ga0_6 Ga1_7 2.508028 1_555
Ga0_6 Ga2_4 2.509211 1_565
Ga0_6 Ga2_6 2.509211 1_555
Ga0_6 Sc0_5 2.946865 1_565
Ga0_6 Sc0_7 2.946865 1_555
Ga0_6 Sc0_1 2.946865 1_665
Ga0_6 Sc0_3 2.946865 1_655
Ga0_6 Sc1_6 2.982391 1_555
Ga0_6 Sc1_2 2.982391 1_655
Ga0_7 Ga1_6 2.508028 1_556
Ga0_7 Ga2_5 2.509211 1_565
Ga0_7 Ga2_7 2.509211 1_555
Ga0_7 Sc0_0 2.946865 1_666
Ga0_7 Sc0_2 2.946865 1_656
Ga0_7 Sc0_4 2.946865 1_566
Ga0_7 Sc0_6 2.946865 1_556
Ga0_7 Sc1_3 2.982391 1_655
Ga0_7 Sc1_7 2.982391 1_555
Ga1_0 Sc1_0 2.875522 1_555
Ga1_0 Sc1_4 2.875522 1_555
Ga1_0 Sc0_4 2.968806 1_555
Ga1_0 Sc0_0 2.968806 1_555
Ga1_0 Sc0_6 2.968806 1_555
Ga1_0 Sc0_2 2.968806 1_555
Ga1_1 Sc1_1 2.875522 1_555
Ga1_1 Sc1_5 2.875522 1_555
Ga1_1 Sc0_1 2.968806 1_555
Ga1_1 Sc0_3 2.968806 1_555
Ga1_1 Sc0_5 2.968806 1_555
Ga1_1 Sc0_7 2.968806 1_555
Ga1_2 Sc1_2 2.875522 1_555
Ga1_2 Sc1_6 2.875522 1_555
Ga1_2 Sc0_6 2.968806 1_555
Ga1_2 Sc0_0 2.968806 1_565
Ga1_2 Sc0_4 2.968806 1_565
Ga1_2 Sc0_2 2.968806 1_555
Ga1_3 Sc1_3 2.875522 1_555
Ga1_3 Sc1_7 2.875522 1_555
Ga1_3 Sc0_3 2.968806 1_555
Ga1_3 Sc0_1 2.968806 1_565
Ga1_3 Sc0_5 2.968806 1_565
Ga1_3 Sc0_7 2.968806 1_555
Ga1_4 Sc1_4 2.875522 1_555
Ga1_4 Sc1_0 2.875522 1_655
Ga1_4 Sc0_4 2.968806 1_555
Ga1_4 Sc0_2 2.968806 1_655
Ga1_4 Sc0_0 2.968806 1_655
Ga1_4 Sc0_6 2.968806 1_555
Ga1_5 Sc1_1 2.875522 1_655
Ga1_5 Sc1_5 2.875522 1_555
Ga1_5 Sc0_1 2.968806 1_655
Ga1_5 Sc0_3 2.968806 1_655
Ga1_5 Sc0_5 2.968806 1_555
Ga1_5 Sc0_7 2.968806 1_555
Ga1_6 Sc1_6 2.875522 1_555
Ga1_6 Sc1_2 2.875522 1_655
Ga1_6 Sc0_2 2.968806 1_655
Ga1_6 Sc0_0 2.968806 1_665
Ga1_6 Sc0_4 2.968806 1_565
Ga1_6 Sc0_6 2.968806 1_555
Ga1_7 Sc1_3 2.875522 1_655
Ga1_7 Sc1_7 2.875522 1_555
Ga1_7 Sc0_3 2.968806 1_655
Ga1_7 Sc0_5 2.968806 1_565
Ga1_7 Sc0_7 2.968806 1_555
Ga1_7 Sc0_1 2.968806 1_665
Ga2_0 Sc1_0 2.919950 1_555
Ga2_0 Sc1_2 2.919950 1_545
Ga2_0 Sc1_4 2.919950 1_555
Ga2_0 Sc1_6 2.919950 1_545
Ga2_0 Sc0_1 3.037912 1_555
Ga2_0 Sc0_5 3.037912 1_555
Ga2_1 Sc1_1 2.919950 1_555
Ga2_1 Sc1_5 2.919950 1_555
Ga2_1 Sc1_7 2.919950 1_545
Ga2_1 Sc1_3 2.919950 1_545
Ga2_1 Sc0_4 3.037912 1_556
Ga2_1 Sc0_0 3.037912 1_556
Ga2_2 Sc1_0 2.919950 1_555
Ga2_2 Sc1_2 2.919950 1_555
Ga2_2 Sc1_4 2.919950 1_555
Ga2_2 Sc1_6 2.919950 1_555
Ga2_2 Sc0_3 3.037912 1_555
Ga2_2 Sc0_7 3.037912 1_555
Ga2_3 Sc1_1 2.919950 1_555
Ga2_3 Sc1_5 2.919950 1_555
Ga2_3 Sc1_7 2.919950 1_555
Ga2_3 Sc1_3 2.919950 1_555
Ga2_3 Sc0_2 3.037912 1_556
Ga2_3 Sc0_6 3.037912 1_556
Ga2_4 Sc1_4 2.919950 1_555
Ga2_4 Sc1_2 2.919950 1_645
Ga2_4 Sc1_6 2.919950 1_545
Ga2_4 Sc1_0 2.919950 1_655
Ga2_4 Sc0_1 3.037912 1_655
Ga2_4 Sc0_5 3.037912 1_555
Ga2_5 Sc1_5 2.919950 1_555
Ga2_5 Sc1_1 2.919950 1_655
Ga2_5 Sc1_7 2.919950 1_545
Ga2_5 Sc1_3 2.919950 1_645
Ga2_5 Sc0_4 3.037912 1_556
Ga2_5 Sc0_0 3.037912 1_656
Ga2_6 Sc1_4 2.919950 1_555
Ga2_6 Sc1_6 2.919950 1_555
Ga2_6 Sc1_2 2.919950 1_655
Ga2_6 Sc1_0 2.919950 1_655
Ga2_6 Sc0_3 3.037912 1_655
Ga2_6 Sc0_7 3.037912 1_555
Ga2_7 Sc1_3 2.919950 1_655
Ga2_7 Sc1_5 2.919950 1_555
Ga2_7 Sc1_1 2.919950 1_655
Ga2_7 Sc1_7 2.919950 1_555
Ga2_7 Sc0_2 3.037912 1_656
Ga2_7 Sc0_6 3.037912 1_556
Cu0_0 Ga2_0 2.399512 1_555
Cu0_0 Ga1_0 2.406886 1_555
Cu0_0 Ga1_2 2.406886 1_545
Cu0_0 Sc0_0 2.910582 1_555
Cu0_0 Sc0_4 2.910582 1_555
Cu0_0 Sc1_4 2.950753 1_555
Cu0_0 Sc1_6 2.950753 1_545
Cu0_0 Sc1_0 2.950753 1_555
Cu0_0 Sc1_2 2.950753 1_545
Cu0_1 Ga2_1 2.399512 1_555
Cu0_1 Ga1_3 2.406886 1_545
Cu0_1 Ga1_1 2.406886 1_555
Cu0_1 Sc0_1 2.910582 1_555
Cu0_1 Sc0_5 2.910582 1_555
Cu0_1 Sc1_3 2.950753 1_545
Cu0_1 Sc1_1 2.950753 1_555
Cu0_1 Sc1_5 2.950753 1_555
Cu0_1 Sc1_7 2.950753 1_545
Cu0_2 Ga2_2 2.399512 1_555
Cu0_2 Ga1_2 2.406886 1_555
Cu0_2 Ga1_0 2.406886 1_555
Cu0_2 Sc0_2 2.910582 1_555
Cu0_2 Sc0_6 2.910582 1_555
Cu0_2 Sc1_2 2.950753 1_555
Cu0_2 Sc1_4 2.950753 1_555
Cu0_2 Sc1_6 2.950753 1_555
Cu0_2 Sc1_0 2.950753 1_555
Cu0_3 Ga2_3 2.399512 1_555
Cu0_3 Ga1_1 2.406886 1_555
Cu0_3 Ga1_3 2.406886 1_555
Cu0_3 Sc0_3 2.910582 1_555
Cu0_3 Sc0_7 2.910582 1_555
Cu0_3 Sc1_3 2.950753 1_555
Cu0_3 Sc1_1 2.950753 1_555
Cu0_3 Sc1_5 2.950753 1_555
Cu0_3 Sc1_7 2.950753 1_555
Cu0_4 Ga2_4 2.399512 1_555
Cu0_4 Ga1_6 2.406886 1_545
Cu0_4 Ga1_4 2.406886 1_555
Cu0_4 Sc0_4 2.910582 1_555
Cu0_4 Sc0_0 2.910582 1_655
Cu0_4 Sc1_2 2.950753 1_645
Cu0_4 Sc1_4 2.950753 1_555
Cu0_4 Sc1_6 2.950753 1_545
Cu0_4 Sc1_0 2.950753 1_655
Cu0_5 Ga2_5 2.399512 1_555
Cu0_5 Ga1_7 2.406886 1_545
Cu0_5 Ga1_5 2.406886 1_555
Cu0_5 Sc0_1 2.910582 1_655
Cu0_5 Sc0_5 2.910582 1_555
Cu0_5 Sc1_5 2.950753 1_555
Cu0_5 Sc1_1 2.950753 1_655
Cu0_5 Sc1_7 2.950753 1_545
Cu0_5 Sc1_3 2.950753 1_645
Cu0_6 Ga2_6 2.399512 1_555
Cu0_6 Ga1_6 2.406886 1_555
Cu0_6 Ga1_4 2.406886 1_555
Cu0_6 Sc0_6 2.910582 1_555
Cu0_6 Sc0_2 2.910582 1_655
Cu0_6 Sc1_4 2.950753 1_555
Cu0_6 Sc1_6 2.950753 1_555
Cu0_6 Sc1_0 2.950753 1_655
Cu0_6 Sc1_2 2.950753 1_655
Cu0_7 Ga2_7 2.399512 1_555
Cu0_7 Ga1_7 2.406886 1_555
Cu0_7 Ga1_5 2.406886 1_555
Cu0_7 Sc0_3 2.910582 1_655
Cu0_7 Sc0_7 2.910582 1_555
Cu0_7 Sc1_3 2.950753 1_655
Cu0_7 Sc1_5 2.950753 1_555
Cu0_7 Sc1_1 2.950753 1_655
Cu0_7 Sc1_7 2.950753 1_555
