# generated using pymatgen
data_Ca3Tm2(GeO4)3
_symmetry_space_group_name_H-M   'P 1'
_cell_length_a   11.15963716
_cell_length_b   11.15963716
_cell_length_c   11.15963716
_cell_angle_alpha   109.47122063
_cell_angle_beta   109.47122063
_cell_angle_gamma   109.47122063
_symmetry_Int_Tables_number   1
_chemical_formula_structural   Ca3Tm2(GeO4)3
_chemical_formula_sum   'Ca12 Tm8 Ge12 O48'
_cell_volume   1069.86340509
_cell_formula_units_Z   4
loop_
 _symmetry_equiv_pos_site_id
 _symmetry_equiv_pos_as_xyz
  1  'x, y, z'
loop_
 _atom_site_type_symbol
 _atom_site_label
 _atom_site_symmetry_multiplicity
 _atom_site_fract_x
 _atom_site_fract_y
 _atom_site_fract_z
 _atom_site_occupancy
  Ca  Ca0  1  0.87500000  0.62500000  0.75000000  1
  Ca  Ca1  1  0.12500000  0.37500000  0.25000000  1
  Ca  Ca2  1  0.62500000  0.87500000  0.25000000  1
  Ca  Ca3  1  0.62500000  0.75000000  0.87500000  1
  Ca  Ca4  1  0.87500000  0.25000000  0.62500000  1
  Ca  Ca5  1  0.37500000  0.12500000  0.75000000  1
  Ca  Ca6  1  0.37500000  0.25000000  0.12500000  1
  Ca  Ca7  1  0.12500000  0.75000000  0.37500000  1
  Ca  Ca8  1  0.75000000  0.87500000  0.62500000  1
  Ca  Ca9  1  0.25000000  0.12500000  0.37500000  1
  Ca  Ca10  1  0.25000000  0.62500000  0.87500000  1
  Ca  Ca11  1  0.75000000  0.37500000  0.12500000  1
  Tm  Tm0  1  0.00000000  -0.00000000  0.00000000  1
  Tm  Tm1  1  0.50000000  -0.00000000  0.50000000  1
  Tm  Tm2  1  0.50000000  0.50000000  0.00000000  1
  Tm  Tm3  1  0.00000000  -0.00000000  0.50000000  1
  Tm  Tm4  1  0.00000000  0.50000000  0.50000000  1
  Tm  Tm5  1  0.50000000  0.50000000  0.50000000  1
  Tm  Tm6  1  0.50000000  -0.00000000  0.00000000  1
  Tm  Tm7  1  0.00000000  0.50000000  0.00000000  1
  Ge  Ge0  1  0.62500000  0.37500000  0.75000000  1
  Ge  Ge1  1  0.37500000  0.62500000  0.25000000  1
  Ge  Ge2  1  0.87500000  0.12500000  0.25000000  1
  Ge  Ge3  1  0.37500000  0.75000000  0.62500000  1
  Ge  Ge4  1  0.62500000  0.25000000  0.37500000  1
  Ge  Ge5  1  0.12500000  0.87500000  0.75000000  1
  Ge  Ge6  1  0.12500000  0.25000000  0.87500000  1
  Ge  Ge7  1  0.87500000  0.75000000  0.12500000  1
  Ge  Ge8  1  0.75000000  0.62500000  0.37500000  1
  Ge  Ge9  1  0.25000000  0.37500000  0.62500000  1
  Ge  Ge10  1  0.25000000  0.87500000  0.12500000  1
  Ge  Ge11  1  0.75000000  0.12500000  0.87500000  1
  O  O0  1  0.71340565  0.62409155  0.51921058  1
  O  O1  1  0.28659435  0.37590845  0.48078942  1
  O  O2  1  0.78659435  0.80580493  0.41068590  1
  O  O3  1  0.39511903  0.87590845  0.08931410  1
  O  O4  1  0.62409155  0.51921058  0.71340565  1
  O  O5  1  0.71340565  0.08931410  0.69419507  1
  O  O6  1  0.21340565  0.19419507  0.58931410  1
  O  O7  1  0.60488097  0.12409155  0.91068590  1
  O  O8  1  0.37590845  0.48078942  0.28659435  1
  O  O9  1  0.28659435  0.91068590  0.30580493  1
  O  O10  1  0.10488097  0.69419507  0.98078942  1
  O  O11  1  0.80580493  0.41068590  0.78659435  1
  O  O12  1  0.78659435  0.98078942  0.87590845  1
  O  O13  1  0.89511903  0.30580493  0.01921058  1
  O  O14  1  0.19419507  0.58931410  0.21340565  1
  O  O15  1  0.21340565  0.01921058  0.12409155  1
  O  O16  1  0.87590845  0.08931410  0.39511903  1
  O  O17  1  0.39511903  0.51921058  0.80580493  1
  O  O18  1  0.12409155  0.91068590  0.60488097  1
  O  O19  1  0.60488097  0.48078942  0.19419507  1
  O  O20  1  0.69419507  0.98078942  0.10488097  1
  O  O21  1  0.10488097  0.41068590  0.62409155  1
  O  O22  1  0.30580493  0.01921058  0.89511903  1
  O  O23  1  0.89511903  0.58931410  0.37590845  1
  O  O24  1  0.51921058  0.71340565  0.62409155  1
  O  O25  1  0.62409155  0.10488097  0.41068590  1
  O  O26  1  0.48078942  0.28659435  0.37590845  1
  O  O27  1  0.37590845  0.89511903  0.58931410  1
  O  O28  1  0.08931410  0.39511903  0.87590845  1
  O  O29  1  0.87590845  0.78659435  0.98078942  1
  O  O30  1  0.91068590  0.60488097  0.12409155  1
  O  O31  1  0.12409155  0.21340565  0.01921058  1
  O  O32  1  0.98078942  0.10488097  0.69419507  1
  O  O33  1  0.69419507  0.71340565  0.08931410  1
  O  O34  1  0.01921058  0.89511903  0.30580493  1
  O  O35  1  0.30580493  0.28659435  0.91068590  1
  O  O36  1  0.41068590  0.78659435  0.80580493  1
  O  O37  1  0.80580493  0.39511903  0.51921058  1
  O  O38  1  0.58931410  0.21340565  0.19419507  1
  O  O39  1  0.19419507  0.60488097  0.48078942  1
  O  O40  1  0.08931410  0.69419507  0.71340565  1
  O  O41  1  0.91068590  0.30580493  0.28659435  1
  O  O42  1  0.98078942  0.87590845  0.78659435  1
  O  O43  1  0.01921058  0.12409155  0.21340565  1
  O  O44  1  0.41068590  0.62409155  0.10488097  1
  O  O45  1  0.58931410  0.37590845  0.89511903  1
  O  O46  1  0.51921058  0.80580493  0.39511903  1
  O  O47  1  0.48078942  0.19419507  0.60488097  1
loop_
_geom_bond_atom_site_label_1
_geom_bond_atom_site_label_2
_geom_bond_distance
_geom_bond_site_symmetry_2
Ca0 O42 2.472505 1_555
Ca0 O40 2.472505 1_655
Ca0 O4 2.472505 1_555
Ca0 O11 2.472505 1_555
Ca0 O10 2.599904 1_655
Ca0 O37 2.599904 1_555
Ca0 O0 2.599904 1_555
Ca0 O29 2.599904 1_555
Ca1 O14 2.472505 1_555
Ca1 O41 2.472505 1_455
Ca1 O8 2.472505 1_555
Ca1 O43 2.472505 1_555
Ca1 O39 2.599904 1_555
Ca1 O31 2.599904 1_555
Ca1 O13 2.599904 1_455
Ca1 O1 2.599904 1_555
Ca2 O44 2.472505 1_555
Ca2 O16 2.472505 1_565
Ca2 O20 2.472505 1_555
Ca2 O46 2.472505 1_555
Ca2 O25 2.599904 1_565
Ca2 O3 2.599904 1_555
Ca2 O33 2.599904 1_555
Ca2 O2 2.599904 1_555
Ca3 O29 2.472505 1_555
Ca3 O33 2.472505 1_556
Ca3 O24 2.472505 1_555
Ca3 O36 2.472505 1_555
Ca3 O20 2.599904 1_556
Ca3 O17 2.599904 1_555
Ca3 O4 2.599904 1_555
Ca3 O12 2.599904 1_555
Ca4 O25 2.472505 1_555
Ca4 O28 2.472505 1_655
Ca4 O37 2.472505 1_555
Ca4 O32 2.472505 1_555
Ca4 O21 2.599904 1_655
Ca4 O16 2.599904 1_555
Ca4 O11 2.599904 1_555
Ca4 O5 2.599904 1_555
Ca5 O45 2.472505 1_555
Ca5 O18 2.472505 1_545
Ca5 O47 2.472505 1_555
Ca5 O22 2.472505 1_555
Ca5 O6 2.599904 1_555
Ca5 O27 2.599904 1_545
Ca5 O7 2.599904 1_555
Ca5 O35 2.599904 1_555
Ca6 O31 2.472505 1_555
Ca6 O35 2.472505 1_554
Ca6 O38 2.472505 1_555
Ca6 O26 2.472505 1_555
Ca6 O22 2.599904 1_554
Ca6 O8 2.599904 1_555
Ca6 O15 2.599904 1_555
Ca6 O19 2.599904 1_555
Ca7 O30 2.472505 1_455
Ca7 O27 2.472505 1_555
Ca7 O34 2.472505 1_555
Ca7 O39 2.472505 1_555
Ca7 O18 2.599904 1_555
Ca7 O23 2.599904 1_455
Ca7 O14 2.599904 1_555
Ca7 O9 2.599904 1_555
Ca8 O0 2.472505 1_555
Ca8 O5 2.472505 1_565
Ca8 O12 2.472505 1_555
Ca8 O2 2.472505 1_555
Ca8 O32 2.599904 1_565
Ca8 O46 2.599904 1_555
Ca8 O42 2.599904 1_555
Ca8 O24 2.599904 1_555
Ca9 O9 2.472505 1_545
Ca9 O6 2.472505 1_555
Ca9 O15 2.472505 1_555
Ca9 O1 2.472505 1_555
Ca9 O34 2.599904 1_545
Ca9 O43 2.599904 1_555
Ca9 O47 2.599904 1_555
Ca9 O26 2.599904 1_555
Ca10 O3 2.472505 1_556
Ca10 O21 2.472505 1_555
Ca10 O10 2.472505 1_555
Ca10 O17 2.472505 1_555
Ca10 O44 2.599904 1_556
Ca10 O28 2.599904 1_555
Ca10 O40 2.599904 1_555
Ca10 O36 2.599904 1_555
Ca11 O23 2.472505 1_555
Ca11 O7 2.472505 1_554
Ca11 O13 2.472505 1_555
Ca11 O19 2.472505 1_555
Ca11 O38 2.599904 1_555
Ca11 O45 2.599904 1_554
Ca11 O30 2.599904 1_555
Ca11 O41 2.599904 1_555
Ge0 O4 1.789723 1_555
Ge0 O11 1.789723 1_555
Ge0 O47 1.789723 1_555
Ge0 O45 1.789723 1_555
Ge1 O46 1.789723 1_555
Ge1 O8 1.789723 1_555
Ge1 O44 1.789723 1_555
Ge1 O14 1.789723 1_555
Ge2 O41 1.789723 1_555
Ge2 O20 1.789723 1_545
Ge2 O43 1.789723 1_655
Ge2 O16 1.789723 1_555
Ge3 O36 1.789723 1_555
Ge3 O24 1.789723 1_555
Ge3 O39 1.789723 1_555
Ge3 O27 1.789723 1_555
Ge4 O26 1.789723 1_555
Ge4 O37 1.789723 1_555
Ge4 O38 1.789723 1_555
Ge4 O25 1.789723 1_555
Ge5 O42 1.789723 1_455
Ge5 O40 1.789723 1_555
Ge5 O22 1.789723 1_565
Ge5 O18 1.789723 1_555
Ge6 O35 1.789723 1_555
Ge6 O31 1.789723 1_556
Ge6 O28 1.789723 1_555
Ge6 O32 1.789723 1_455
Ge7 O33 1.789723 1_555
Ge7 O29 1.789723 1_554
Ge7 O34 1.789723 1_655
Ge7 O30 1.789723 1_555
Ge8 O0 1.789723 1_555
Ge8 O2 1.789723 1_555
Ge8 O19 1.789723 1_555
Ge8 O23 1.789723 1_555
Ge9 O17 1.789723 1_555
Ge9 O1 1.789723 1_555
Ge9 O21 1.789723 1_555
Ge9 O6 1.789723 1_555
Ge10 O9 1.789723 1_555
Ge10 O10 1.789723 1_554
Ge10 O15 1.789723 1_565
Ge10 O3 1.789723 1_555
Ge11 O5 1.789723 1_555
Ge11 O12 1.789723 1_545
Ge11 O13 1.789723 1_556
Ge11 O7 1.789723 1_555
O0 Tm5 2.213236 1_555
O1 Tm5 2.213236 1_555
O2 Tm3 2.213236 1_665
O3 Tm6 2.213236 1_565
O4 Tm5 2.213236 1_555
O5 Tm1 2.213236 1_555
O6 Tm3 2.213236 1_555
O7 Tm6 2.213236 1_556
O8 Tm5 2.213236 1_555
O9 Tm1 2.213236 1_565
O10 Tm7 2.213236 1_556
O11 Tm7 2.213236 1_656
O12 Tm0 2.213236 1_666
O13 Tm7 2.213236 1_655
O14 Tm7 2.213236 1_555
O15 Tm0 2.213236 1_555
O16 Tm3 2.213236 1_655
O17 Tm2 2.213236 1_556
O18 Tm3 2.213236 1_565
O19 Tm2 2.213236 1_555
O20 Tm6 2.213236 1_565
O21 Tm4 2.213236 1_555
O22 Tm6 2.213236 1_556
O23 Tm4 2.213236 1_655
O24 Tm5 2.213236 1_555
O25 Tm1 2.213236 1_555
O26 Tm5 2.213236 1_555
O27 Tm1 2.213236 1_565
O28 Tm7 2.213236 1_556
O29 Tm0 2.213236 1_666
O30 Tm7 2.213236 1_655
O31 Tm0 2.213236 1_555
O32 Tm3 2.213236 1_655
O33 Tm2 2.213236 1_555
O34 Tm3 2.213236 1_565
O35 Tm2 2.213236 1_556
O36 Tm6 2.213236 1_566
O37 Tm4 2.213236 1_655
O38 Tm6 2.213236 1_555
O39 Tm4 2.213236 1_555
O40 Tm4 2.213236 1_555
O41 Tm4 2.213236 1_655
O42 Tm0 2.213236 1_666
O43 Tm0 2.213236 1_555
O44 Tm2 2.213236 1_555
O45 Tm2 2.213236 1_556
O46 Tm1 2.213236 1_565
O47 Tm1 2.213236 1_555
