# generated using pymatgen
data_BaFe4Sn2O11
_symmetry_space_group_name_H-M   'P 1'
_cell_length_a   6.07359566
_cell_length_b   6.07359566
_cell_length_c   13.68346300
_cell_angle_alpha   90.00000000
_cell_angle_beta   90.00000000
_cell_angle_gamma   119.97271849
_symmetry_Int_Tables_number   1
_chemical_formula_structural   BaFe4Sn2O11
_chemical_formula_sum   'Ba2 Fe8 Sn4 O22'
_cell_volume   437.25796731
_cell_formula_units_Z   2
loop_
 _symmetry_equiv_pos_site_id
 _symmetry_equiv_pos_as_xyz
  1  'x, y, z'
loop_
 _atom_site_type_symbol
 _atom_site_label
 _atom_site_symmetry_multiplicity
 _atom_site_fract_x
 _atom_site_fract_y
 _atom_site_fract_z
 _atom_site_occupancy
  Ba  Ba0  1  0.66310000  0.33690000  0.75000000  1
  Ba  Ba1  1  0.33690000  0.66310000  0.25000000  1
  Fe  Fe0  1  0.67013300  0.32986700  0.25000000  1
  Fe  Fe1  1  0.32986700  0.67013300  0.75000000  1
  Fe  Fe2  1  0.50000000  0.50000000  0.00000000  1
  Fe  Fe3  1  0.50000000  0.50000000  0.50000000  1
  Fe  Fe4  1  0.50000000  0.00000000  0.00000000  1
  Fe  Fe5  1  0.00000000  0.50000000  0.00000000  1
  Fe  Fe6  1  0.50000000  0.00000000  0.50000000  1
  Fe  Fe7  1  0.00000000  0.50000000  0.50000000  1
  Sn  Sn0  1  0.99756800  0.00243200  0.86084900  1
  Sn  Sn1  1  0.00243200  0.99756800  0.13915100  1
  Sn  Sn2  1  0.99756800  0.00243200  0.63915100  1
  Sn  Sn3  1  0.00243200  0.99756800  0.36084900  1
  O  O0  1  0.82113800  0.17886200  0.92060500  1
  O  O1  1  0.17886200  0.82113800  0.07939500  1
  O  O2  1  0.82113800  0.17886200  0.57939500  1
  O  O3  1  0.17886200  0.82113800  0.42060500  1
  O  O4  1  0.14573600  0.85426400  0.75000000  1
  O  O5  1  0.85426400  0.14573600  0.25000000  1
  O  O6  1  0.69675000  0.85571000  0.75000000  1
  O  O7  1  0.85571000  0.69675000  0.25000000  1
  O  O8  1  0.30325000  0.14429000  0.25000000  1
  O  O9  1  0.14429000  0.30325000  0.75000000  1
  O  O10  1  0.82280600  0.64774200  0.92016600  1
  O  O11  1  0.64774200  0.82280600  0.07983400  1
  O  O12  1  0.82280600  0.64774200  0.57983400  1
  O  O13  1  0.64774200  0.82280600  0.42016600  1
  O  O14  1  0.17719400  0.35225800  0.07983400  1
  O  O15  1  0.35225800  0.17719400  0.92016600  1
  O  O16  1  0.17719400  0.35225800  0.42016600  1
  O  O17  1  0.35225800  0.17719400  0.57983400  1
  O  O18  1  0.66720100  0.33279900  0.41479300  1
  O  O19  1  0.33279900  0.66720100  0.58520700  1
  O  O20  1  0.66720100  0.33279900  0.08520700  1
  O  O21  1  0.33279900  0.66720100  0.91479300  1
loop_
_geom_bond_atom_site_label_1
_geom_bond_atom_site_label_2
_geom_bond_distance
_geom_bond_site_symmetry_2
Ba0 O10 2.845544 1_555
Ba0 O15 2.845544 1_555
Ba0 O12 2.845544 1_555
Ba0 O17 2.845544 1_555
Ba0 O0 2.865827 1_555
Ba0 O2 2.865827 1_555
Ba0 O6 3.029835 1_545
Ba0 O9 3.029835 1_655
Ba0 O4 3.043535 1_655
Ba0 O4 3.043535 1_545
Ba0 O6 3.054074 1_555
Ba0 O9 3.054074 1_555
Ba1 O13 2.845544 1_555
Ba1 O11 2.845544 1_555
Ba1 O16 2.845544 1_555
Ba1 O14 2.845544 1_555
Ba1 O3 2.865827 1_555
Ba1 O1 2.865827 1_555
Ba1 O7 3.029835 1_455
Ba1 O8 3.029835 1_565
Ba1 O5 3.043535 1_565
Ba1 O5 3.043535 1_455
Ba1 O7 3.054074 1_555
Ba1 O8 3.054074 1_555
Fe0 O8 1.930344 1_555
Fe0 O7 1.930344 1_555
Fe0 O5 1.936751 1_555
Fe0 O18 2.255150 1_555
Fe0 O20 2.255150 1_555
Fe1 O9 1.930344 1_555
Fe1 O6 1.930344 1_555
Fe1 O4 1.936751 1_555
Fe1 O21 2.255150 1_555
Fe1 O19 2.255150 1_555
Fe2 O11 2.021047 1_555
Fe2 O14 2.021047 1_555
Fe2 O10 2.021047 1_554
Fe2 O15 2.021047 1_554
Fe2 O20 2.110053 1_555
Fe2 O21 2.110053 1_554
Fe3 O12 2.021047 1_555
Fe3 O13 2.021047 1_555
Fe3 O17 2.021047 1_555
Fe3 O16 2.021047 1_555
Fe3 O19 2.110053 1_555
Fe3 O18 2.110053 1_555
Fe4 O0 2.011860 1_554
Fe4 O1 2.011860 1_545
Fe4 O11 2.030189 1_545
Fe4 O15 2.030189 1_554
Fe4 O20 2.103640 1_555
Fe4 O21 2.103640 1_544
Fe5 O1 2.011860 1_555
Fe5 O0 2.011860 1_454
Fe5 O14 2.030189 1_555
Fe5 O10 2.030189 1_454
Fe5 O20 2.103640 1_455
Fe5 O21 2.103640 1_554
Fe6 O2 2.011860 1_555
Fe6 O3 2.011860 1_545
Fe6 O13 2.030189 1_545
Fe6 O17 2.030189 1_555
Fe6 O19 2.103640 1_545
Fe6 O18 2.103640 1_555
Fe7 O3 2.011860 1_555
Fe7 O2 2.011860 1_455
Fe7 O12 2.030189 1_455
Fe7 O16 2.030189 1_555
Fe7 O19 2.103640 1_555
Fe7 O18 2.103640 1_455
O0 Sn0 2.027902 1_555
O1 Sn1 2.027902 1_555
O2 Sn2 2.027902 1_555
O3 Sn3 2.027902 1_555
O4 Sn2 2.174750 1_465
O4 Sn0 2.174750 1_465
O5 Sn3 2.174750 1_645
O5 Sn1 2.174750 1_645
O6 Sn2 2.192281 1_565
O6 Sn0 2.192281 1_565
O7 Sn3 2.192281 1_655
O7 Sn1 2.192281 1_655
O8 Sn3 2.192281 1_545
O8 Sn1 2.192281 1_545
O9 Sn0 2.192281 1_455
O9 Sn2 2.192281 1_455
O10 Sn0 2.035068 1_565
O11 Sn1 2.035068 1_655
O12 Sn2 2.035068 1_565
O13 Sn3 2.035068 1_655
O14 Sn1 2.035068 1_545
O15 Sn0 2.035068 1_455
O16 Sn3 2.035068 1_545
O17 Sn2 2.035068 1_455
