# generated using pymatgen
data_Ni16GeP5
_symmetry_space_group_name_H-M   'P 1'
_cell_length_a   6.52155480
_cell_length_b   6.61694857
_cell_length_c   6.69809445
_cell_angle_alpha   98.73540458
_cell_angle_beta   102.53529164
_cell_angle_gamma   119.20067184
_symmetry_Int_Tables_number   1
_chemical_formula_structural   Ni16GeP5
_chemical_formula_sum   'Ni16 Ge1 P5'
_cell_volume   234.75587809
_cell_formula_units_Z   1
loop_
 _symmetry_equiv_pos_site_id
 _symmetry_equiv_pos_as_xyz
  1  'x, y, z'
loop_
 _atom_site_type_symbol
 _atom_site_label
 _atom_site_symmetry_multiplicity
 _atom_site_fract_x
 _atom_site_fract_y
 _atom_site_fract_z
 _atom_site_occupancy
  Ni  Ni0  1  0.27993473  0.64301002  0.29848024  1
  Ni  Ni1  1  0.72006527  0.35698998  0.70151976  1
  Ni  Ni2  1  0.58575931  0.72853869  0.10593661  1
  Ni  Ni3  1  0.41424069  0.27146131  0.89406339  1
  Ni  Ni4  1  0.55593720  0.44454801  0.33625271  1
  Ni  Ni5  1  0.44406280  0.55545199  0.66374729  1
  Ni  Ni6  1  0.61417110  0.08281613  0.35162234  1
  Ni  Ni7  1  0.38582890  0.91718387  0.64837766  1
  Ni  Ni8  1  0.20590048  0.00490673  0.10231288  1
  Ni  Ni9  1  0.79409952  0.99509327  0.89768712  1
  Ni  Ni10  1  0.04707491  0.20708237  0.29943584  1
  Ni  Ni11  1  0.95292509  0.79291763  0.70056416  1
  Ni  Ni12  1  0.82584345  0.37536484  0.10256959  1
  Ni  Ni13  1  0.17415655  0.62463516  0.89743041  1
  Ni  Ni14  1  0.01627985  0.19616404  0.66276867  1
  Ni  Ni15  1  0.98372015  0.80383596  0.33723133  1
  Ge  Ge0  1  0.00000000  0.50000000  0.50000000  1
  P  P0  1  0.17275641  0.33563576  0.03129087  1
  P  P1  1  0.82724359  0.66436424  0.96870913  1
  P  P2  1  0.33030647  0.16955256  0.49848748  1
  P  P3  1  0.66969353  0.83044744  0.50151252  1
  P  P4  1  0.50000000  -0.00000000  -0.00000000  1
loop_
_geom_bond_atom_site_label_1
_geom_bond_atom_site_label_2
_geom_bond_distance
_geom_bond_site_symmetry_2
Ni0 P3 2.181675 1_555
Ni0 P0 2.189147 1_555
Ni1 P2 2.181675 1_555
Ni1 P1 2.189147 1_555
Ni2 P1 2.160477 1_554
Ni2 P4 2.288647 1_565
Ni2 P3 2.498464 1_555
Ni2 P0 2.540008 1_555
Ni3 P0 2.160477 1_556
Ni3 P4 2.288647 1_556
Ni3 P2 2.498464 1_555
Ni3 P1 2.540008 1_555
Ni4 P3 2.287469 1_555
Ni4 P2 2.310677 1_555
Ni4 P0 2.552724 1_555
Ni5 P2 2.287469 1_555
Ni5 P3 2.310677 1_555
Ni5 P1 2.552724 1_555
Ni6 P4 2.202338 1_555
Ni6 P3 2.206608 1_545
Ni6 P2 2.525847 1_555
Ni7 P4 2.202338 1_566
Ni7 P2 2.206608 1_565
Ni7 P3 2.525847 1_555
Ni8 P4 2.184931 1_555
Ni8 P1 2.230527 1_444
Ni8 P0 2.407348 1_555
Ni8 P2 2.492329 1_555
Ni9 P4 2.184931 1_566
Ni9 P0 2.230527 1_666
Ni9 P1 2.407348 1_555
Ni9 P3 2.492329 1_555
Ni10 P2 2.174905 1_555
Ni10 P0 2.245884 1_555
Ni11 P3 2.174905 1_555
Ni11 P1 2.245884 1_555
Ni12 P4 2.203349 1_555
Ni12 P1 2.228939 1_554
Ni12 P0 2.535080 1_655
Ni13 P4 2.203349 1_566
Ni13 P0 2.228939 1_556
Ni13 P1 2.535080 1_455
Ni14 P3 2.222807 1_445
Ni14 P0 2.298210 1_556
Ni14 P2 2.589808 1_555
Ni15 P2 2.222807 1_665
Ni15 P1 2.298210 1_554
Ni15 P3 2.589808 1_555
Ge0 Ni11 2.371583 1_455
Ge0 Ni10 2.371583 1_555
Ge0 Ni0 2.412937 1_555
Ge0 Ni1 2.412937 1_455
Ge0 Ni15 2.462859 1_455
Ge0 Ni14 2.462859 1_555
Ge0 Ni12 2.482597 1_455
Ge0 Ni13 2.482597 1_555
Ge0 Ni7 2.498604 1_555
Ge0 Ni6 2.498604 1_455
Ge0 Ni5 2.680757 1_555
Ge0 Ni4 2.680757 1_455
