# generated using pymatgen
data_Li7Mn2(CoO4)3
_symmetry_space_group_name_H-M   'P 1'
_cell_length_a   2.87924800
_cell_length_b   5.20255400
_cell_length_c   14.52412594
_cell_angle_alpha   89.18261901
_cell_angle_beta   90.00000000
_cell_angle_gamma   90.00000000
_symmetry_Int_Tables_number   1
_chemical_formula_structural   Li7Mn2(CoO4)3
_chemical_formula_sum   'Li7 Mn2 Co3 O12'
_cell_volume   217.54118082
_cell_formula_units_Z   1
loop_
 _symmetry_equiv_pos_site_id
 _symmetry_equiv_pos_as_xyz
  1  'x, y, z'
loop_
 _atom_site_type_symbol
 _atom_site_label
 _atom_site_symmetry_multiplicity
 _atom_site_fract_x
 _atom_site_fract_y
 _atom_site_fract_z
 _atom_site_occupancy
  Li  Li0  1  0.50000000  0.82154400  0.82257400  1
  Li  Li1  1  0.50000000  0.51196100  0.50562400  1
  Li  Li2  1  0.50000000  0.17154000  0.17234200  1
  Li  Li3  1  0.00000000  0.31884600  0.81994900  1
  Li  Li4  1  0.00000000  0.00549200  0.50504100  1
  Li  Li5  1  0.00000000  0.67225300  0.17309200  1
  Li  Li6  1  0.50000000  0.16435300  0.66551200  1
  Mn  Mn0  1  0.00000000  0.99759400  0.99684000  1
  Mn  Mn1  1  0.50000000  0.49697500  0.99862200  1
  Co  Co0  1  0.00000000  0.66604000  0.66609400  1
  Co  Co1  1  0.00000000  0.33600700  0.33719700  1
  Co  Co2  1  0.50000000  0.83658900  0.33613200  1
  O  O0  1  0.50000000  0.13764500  0.91875000  1
  O  O1  1  0.50000000  0.81538900  0.59424400  1
  O  O2  1  0.50000000  0.50175300  0.25738200  1
  O  O3  1  0.00000000  0.63860300  0.92204800  1
  O  O4  1  0.00000000  0.38264200  0.59474200  1
  O  O5  1  0.00000000  0.00238700  0.25726700  1
  O  O6  1  0.50000000  0.51597800  0.73918300  1
  O  O7  1  0.50000000  0.16735900  0.41511400  1
  O  O8  1  0.50000000  0.86051000  0.07541300  1
  O  O9  1  0.00000000  0.95321700  0.73877900  1
  O  O10  1  0.00000000  0.67109200  0.41222500  1
  O  O11  1  0.00000000  0.35422900  0.07583400  1
loop_
_geom_bond_atom_site_label_1
_geom_bond_atom_site_label_2
_geom_bond_distance
_geom_bond_site_symmetry_2
Li0 O9 1.999803 1_655
Li0 O9 1.999803 1_555
Li0 O6 2.012242 1_555
Li0 O0 2.172851 1_565
Li0 O3 2.241986 1_555
Li0 O3 2.241986 1_655
Li1 O4 2.043450 1_555
Li1 O4 2.043450 1_655
Li1 O1 2.051012 1_555
Li1 O10 2.136837 1_555
Li1 O10 2.136837 1_655
Li1 O7 2.238198 1_555
Li2 O5 2.082648 1_655
Li2 O5 2.082648 1_555
Li2 O2 2.130128 1_555
Li2 O8 2.159938 1_545
Li2 O11 2.214183 1_655
Li2 O11 2.214183 1_555
Li3 O6 2.113312 1_555
Li3 O6 2.113312 1_455
Li3 O0 2.232003 1_455
Li3 O0 2.232003 1_555
Li3 O3 2.244277 1_555
Li3 O9 2.252160 1_545
Li4 O7 2.110979 1_455
Li4 O7 2.110979 1_555
Li4 O1 2.166262 1_445
Li4 O1 2.166262 1_545
Li4 O10 2.216051 1_545
Li4 O4 2.370718 1_555
Li5 O2 2.080175 1_455
Li5 O2 2.080175 1_555
Li5 O5 2.122387 1_565
Li5 O11 2.190794 1_555
Li5 O8 2.237152 1_555
Li5 O8 2.237152 1_455
Li6 O9 2.092402 1_545
Li6 O9 2.092402 1_645
Li6 O4 2.094149 1_555
Li6 O4 2.094149 1_655
Li6 O1 2.102645 1_545
Li6 O6 2.132434 1_555
Mn0 O8 1.964759 1_456
Mn0 O8 1.964759 1_556
Mn0 O0 1.966269 1_565
Mn0 O0 1.966269 1_465
Mn0 O3 2.173959 1_555
Mn0 O11 2.195366 1_566
Mn1 O3 1.956777 1_555
Mn1 O3 1.956777 1_655
Mn1 O11 1.964153 1_656
Mn1 O11 1.964153 1_556
Mn1 O8 2.209340 1_556
Mn1 O0 2.214141 1_555
Co0 O4 1.814222 1_555
Co0 O9 1.841649 1_555
Co0 O1 1.934456 1_455
Co0 O1 1.934456 1_555
Co0 O6 1.945577 1_555
Co0 O6 1.945577 1_455
Co1 O7 2.023539 1_455
Co1 O7 2.023539 1_555
Co1 O2 2.032586 1_555
Co1 O2 2.032586 1_455
Co1 O10 2.069002 1_555
Co1 O5 2.101852 1_555
Co2 O10 2.002032 1_655
Co2 O10 2.002032 1_555
Co2 O5 2.024946 1_565
Co2 O5 2.024946 1_665
Co2 O7 2.081726 1_565
Co2 O2 2.097532 1_555
