# generated using pymatgen
data_MgFe2(PO4)2
_symmetry_space_group_name_H-M   'P 1'
_cell_length_a   8.87978472
_cell_length_b   8.87978472
_cell_length_c   16.54759920
_cell_angle_alpha   61.44010649
_cell_angle_beta   61.44010649
_cell_angle_gamma   33.57190671
_symmetry_Int_Tables_number   1
_chemical_formula_structural   MgFe2(PO4)2
_chemical_formula_sum   'Mg4 Fe8 P8 O32'
_cell_volume   625.12812379
_cell_formula_units_Z   4
loop_
 _symmetry_equiv_pos_site_id
 _symmetry_equiv_pos_as_xyz
  1  'x, y, z'
loop_
 _atom_site_type_symbol
 _atom_site_label
 _atom_site_symmetry_multiplicity
 _atom_site_fract_x
 _atom_site_fract_y
 _atom_site_fract_z
 _atom_site_occupancy
  Mg  Mg0  1  0.14161000  0.55917700  0.12359400  1
  Mg  Mg1  1  0.44082300  0.85839000  0.37640600  1
  Mg  Mg2  1  0.55917700  0.14161000  0.62359400  1
  Mg  Mg3  1  0.85839000  0.44082300  0.87640600  1
  Fe  Fe0  1  0.39418100  0.79620400  0.03398500  1
  Fe  Fe1  1  0.20379600  0.60581900  0.46601500  1
  Fe  Fe2  1  0.60581900  0.20379600  0.96601500  1
  Fe  Fe3  1  0.00000000  0.50000000  0.00000000  1
  Fe  Fe4  1  0.79620400  0.39418100  0.53398500  1
  Fe  Fe5  1  0.57480100  0.42519900  0.75000000  1
  Fe  Fe6  1  0.42519900  0.57480100  0.25000000  1
  Fe  Fe7  1  0.50000000  0.00000000  0.50000000  1
  P  P0  1  0.48740000  0.93646900  0.14416400  1
  P  P1  1  0.82011900  0.22186900  0.38879500  1
  P  P2  1  0.51260000  0.06353100  0.85583600  1
  P  P3  1  0.22186900  0.82011900  0.88879500  1
  P  P4  1  0.93646900  0.48740000  0.64416400  1
  P  P5  1  0.06353100  0.51260000  0.35583600  1
  P  P6  1  0.17988100  0.77813100  0.61120500  1
  P  P7  1  0.77813100  0.17988100  0.11120500  1
  O  O0  1  0.19975800  0.27490800  0.90052000  1
  O  O1  1  0.57336700  0.26071100  0.08055500  1
  O  O2  1  0.27490800  0.19975800  0.40052000  1
  O  O3  1  0.64662200  0.19102400  0.45889600  1
  O  O4  1  0.67465400  0.78494600  0.92751800  1
  O  O5  1  0.76268500  0.34195700  0.28980500  1
  O  O6  1  0.80897600  0.35337800  0.04110400  1
  O  O7  1  0.92951400  0.13207500  0.89534400  1
  O  O8  1  0.35337800  0.80897600  0.54110400  1
  O  O9  1  0.73928900  0.42663300  0.41944500  1
  O  O10  1  0.60454100  0.15716800  0.85590600  1
  O  O11  1  0.97116800  0.43168500  0.73881600  1
  O  O12  1  0.42663300  0.73928900  0.91944500  1
  O  O13  1  0.13207500  0.92951400  0.39534400  1
  O  O14  1  0.80024200  0.72509200  0.09948000  1
  O  O15  1  0.39545900  0.84283200  0.14409400  1
  O  O16  1  0.43168500  0.97116800  0.23881600  1
  O  O17  1  0.19102400  0.64662200  0.95889600  1
  O  O18  1  0.15716800  0.60454100  0.35590600  1
  O  O19  1  0.02883200  0.56831500  0.26118400  1
  O  O20  1  0.86792500  0.07048600  0.60465600  1
  O  O21  1  0.78494600  0.67465400  0.42751800  1
  O  O22  1  0.07048600  0.86792500  0.10465600  1
  O  O23  1  0.34195700  0.76268500  0.78980500  1
  O  O24  1  0.26071100  0.57336700  0.58055500  1
  O  O25  1  0.72509200  0.80024200  0.59948000  1
  O  O26  1  0.56831500  0.02883200  0.76118400  1
  O  O27  1  0.21505400  0.32534600  0.57248200  1
  O  O28  1  0.32534600  0.21505400  0.07248200  1
  O  O29  1  0.65804300  0.23731500  0.21019500  1
  O  O30  1  0.23731500  0.65804300  0.71019500  1
  O  O31  1  0.84283200  0.39545900  0.64409400  1
loop_
_geom_bond_atom_site_label_1
_geom_bond_atom_site_label_2
_geom_bond_distance
_geom_bond_site_symmetry_2
Mg0 O19 2.013543 1_555
Mg0 O1 2.119437 1_555
Mg0 O22 2.120359 1_555
Mg0 O14 2.161220 1_455
Mg0 O28 2.357689 1_555
Mg0 O17 2.371488 1_554
Mg1 O16 2.013543 1_555
Mg1 O9 2.119437 1_555
Mg1 O13 2.120359 1_555
Mg1 O2 2.161220 1_565
Mg1 O21 2.357689 1_555
Mg1 O8 2.371488 1_555
Mg2 O26 2.013543 1_555
Mg2 O24 2.119437 1_555
Mg2 O20 2.120359 1_555
Mg2 O25 2.161220 1_545
Mg2 O27 2.357689 1_555
Mg2 O3 2.371488 1_555
Mg3 O11 2.013543 1_555
Mg3 O12 2.119437 1_555
Mg3 O7 2.120359 1_555
Mg3 O0 2.161220 1_655
Mg3 O4 2.357689 1_555
Mg3 O6 2.371488 1_556
Fe0 O12 2.020357 1_554
Fe0 O15 2.059205 1_555
Fe0 O22 2.117244 1_555
Fe0 O4 2.207885 1_554
Fe0 O6 2.209002 1_555
Fe1 O24 2.020357 1_555
Fe1 O18 2.059205 1_555
Fe1 O13 2.117244 1_555
Fe1 O27 2.207885 1_555
Fe1 O3 2.209002 1_555
Fe2 O1 2.020357 1_556
Fe2 O10 2.059205 1_555
Fe2 O7 2.117244 1_555
Fe2 O28 2.207885 1_556
Fe2 O17 2.209002 1_555
Fe3 O0 2.072999 1_554
Fe3 O14 2.072999 1_455
Fe3 O28 2.101756 1_555
Fe3 O4 2.101756 1_454
Fe3 O17 2.601020 1_554
Fe3 O6 2.601020 1_455
Fe4 O9 2.020357 1_555
Fe4 O31 2.059205 1_555
Fe4 O20 2.117244 1_555
Fe4 O21 2.207885 1_555
Fe4 O8 2.209002 1_555
Fe5 O23 1.987365 1_555
Fe5 O30 1.987365 1_555
Fe5 O10 2.052467 1_555
Fe5 O31 2.052467 1_555
Fe6 O5 1.987365 1_555
Fe6 O29 1.987365 1_555
Fe6 O15 2.052467 1_555
Fe6 O18 2.052467 1_555
Fe7 O2 2.072999 1_555
Fe7 O25 2.072999 1_545
Fe7 O27 2.101756 1_555
Fe7 O21 2.101756 1_545
Fe7 O3 2.601020 1_555
Fe7 O8 2.601020 1_545
O0 P2 1.568775 1_555
O1 P7 1.561226 1_555
O2 P5 1.568775 1_555
O3 P1 1.576305 1_555
O4 P2 1.578524 1_565
O5 P1 1.517493 1_555
O6 P7 1.576305 1_555
O7 P3 1.568186 1_645
O8 P6 1.576305 1_555
O9 P1 1.561226 1_555
O10 P2 1.578261 1_555
O11 P4 1.503125 1_555
O12 P3 1.561226 1_555
O13 P1 1.568186 1_465
O14 P0 1.568775 1_555
O15 P0 1.578261 1_555
O16 P0 1.503125 1_555
O17 P3 1.576305 1_555
O18 P5 1.578261 1_555
O19 P5 1.503125 1_555
O20 P6 1.568186 1_645
O21 P5 1.578524 1_655
O22 P7 1.568186 1_465
O23 P3 1.517493 1_555
O24 P6 1.561226 1_555
O25 P4 1.568775 1_555
O26 P2 1.503125 1_555
O27 P4 1.578524 1_455
O28 P0 1.578524 1_545
O29 P7 1.517493 1_555
O30 P6 1.517493 1_555
O31 P4 1.578261 1_555
