# generated using pymatgen
data_BaTeH3(S2O3)2
_symmetry_space_group_name_H-M   'P 1'
_cell_length_a   5.36445200
_cell_length_b   11.03683900
_cell_length_c   21.54224607
_cell_angle_alpha   77.96757209
_cell_angle_beta   90.00000000
_cell_angle_gamma   90.00000000
_symmetry_Int_Tables_number   1
_chemical_formula_structural   BaTeH3(S2O3)2
_chemical_formula_sum   'Ba4 Te4 H12 S16 O24'
_cell_volume   1247.42122224
_cell_formula_units_Z   4
loop_
 _symmetry_equiv_pos_site_id
 _symmetry_equiv_pos_as_xyz
  1  'x, y, z'
loop_
 _atom_site_type_symbol
 _atom_site_label
 _atom_site_symmetry_multiplicity
 _atom_site_fract_x
 _atom_site_fract_y
 _atom_site_fract_z
 _atom_site_occupancy
  Ba  Ba0  1  0.66982000  0.14331300  0.08957100  1
  Ba  Ba1  1  0.33018000  0.85668700  0.91042900  1
  Ba  Ba2  1  0.16982000  0.85668700  0.41042900  1
  Ba  Ba3  1  0.83018000  0.14331300  0.58957100  1
  Te  Te0  1  0.98722300  0.59866500  0.18790800  1
  Te  Te1  1  0.01277700  0.40133500  0.81209200  1
  Te  Te2  1  0.48722300  0.40133500  0.31209200  1
  Te  Te3  1  0.51277700  0.59866500  0.68790800  1
  H  H0  1  0.70600300  0.41648500  0.02939900  1
  H  H1  1  0.29399700  0.58351500  0.97060100  1
  H  H2  1  0.20600300  0.58351500  0.47060100  1
  H  H3  1  0.79399700  0.41648500  0.52939900  1
  H  H4  1  0.35947800  0.91471200  0.14962900  1
  H  H5  1  0.64052200  0.08528800  0.85037100  1
  H  H6  1  0.85947800  0.08528800  0.35037100  1
  H  H7  1  0.14052200  0.91471200  0.64962900  1
  H  H8  1  0.89765200  0.98236600  0.21452200  1
  H  H9  1  0.10234800  0.01763400  0.78547800  1
  H  H10  1  0.39765200  0.01763400  0.28547800  1
  H  H11  1  0.60234800  0.98236600  0.71452200  1
  S  S0  1  0.59484700  0.71884300  0.31890800  1
  S  S1  1  0.40515300  0.28115700  0.68109200  1
  S  S2  1  0.09484700  0.28115700  0.18109200  1
  S  S3  1  0.90515300  0.71884300  0.81890800  1
  S  S4  1  0.70112100  0.66683500  0.10211700  1
  S  S5  1  0.29887900  0.33316500  0.89788300  1
  S  S6  1  0.20112100  0.33316500  0.39788300  1
  S  S7  1  0.79887900  0.66683500  0.60211700  1
  S  S8  1  0.73288700  0.53900500  0.36134700  1
  S  S9  1  0.26711300  0.46099500  0.63865300  1
  S  S10  1  0.23288700  0.46099500  0.13865300  1
  S  S11  1  0.76711300  0.53900500  0.86134700  1
  S  S12  1  0.87048400  0.82734100  0.04607400  1
  S  S13  1  0.12951600  0.17265900  0.95392600  1
  S  S14  1  0.37048400  0.17265900  0.45392600  1
  S  S15  1  0.62951600  0.82734100  0.54607400  1
  O  O0  1  0.82151600  0.28157400  0.17233000  1
  O  O1  1  0.17848400  0.71842600  0.82767000  1
  O  O2  1  0.32151600  0.71842600  0.32767000  1
  O  O3  1  0.67848400  0.28157400  0.67233000  1
  O  O4  1  0.37659600  0.79627700  0.52841800  1
  O  O5  1  0.62340400  0.20372300  0.47158200  1
  O  O6  1  0.87659600  0.20372300  0.97158200  1
  O  O7  1  0.12340400  0.79627700  0.02841800  1
  O  O8  1  0.86964300  0.92504700  0.08320000  1
  O  O9  1  0.13035700  0.07495300  0.91680000  1
  O  O10  1  0.36964300  0.07495300  0.41680000  1
  O  O11  1  0.63035700  0.92504700  0.58320000  1
  O  O12  1  0.71611800  0.79687900  0.35890300  1
  O  O13  1  0.28388200  0.20312100  0.64109700  1
  O  O14  1  0.21611800  0.20312100  0.14109700  1
  O  O15  1  0.78388200  0.79687900  0.85890300  1
  O  O16  1  0.79887200  0.85473700  0.49114000  1
  O  O17  1  0.20112800  0.14526300  0.50886000  1
  O  O18  1  0.29887200  0.14526300  0.00886000  1
  O  O19  1  0.70112800  0.85473700  0.99114000  1
  O  O20  1  0.67107400  0.74789200  0.25258100  1
  O  O21  1  0.32892600  0.25210800  0.74741900  1
  O  O22  1  0.17107400  0.25210800  0.24741900  1
  O  O23  1  0.82892600  0.74789200  0.75258100  1
loop_
_geom_bond_atom_site_label_1
_geom_bond_atom_site_label_2
_geom_bond_distance
_geom_bond_site_symmetry_2
Ba0 O18 2.639651 1_555
Ba0 O8 2.666245 1_545
Ba0 O0 2.702494 1_555
Ba0 O6 2.725596 1_554
Ba0 O14 2.810153 1_555
Ba0 H0 3.029598 1_555
Ba0 H4 3.074119 1_545
Ba1 O19 2.639651 1_555
Ba1 O9 2.666245 1_565
Ba1 O1 2.702494 1_555
Ba1 O7 2.725596 1_556
Ba1 O15 2.810153 1_555
Ba1 H1 3.029598 1_555
Ba1 H5 3.074119 1_565
Ba2 O16 2.639651 1_455
Ba2 O10 2.666245 1_565
Ba2 O2 2.702494 1_555
Ba2 O4 2.725596 1_555
Ba2 O12 2.810153 1_455
Ba2 H2 3.029598 1_555
Ba2 H6 3.074119 1_465
Ba3 O17 2.639651 1_655
Ba3 O11 2.666245 1_545
Ba3 O3 2.702494 1_555
Ba3 O5 2.725596 1_555
Ba3 O13 2.810153 1_655
Ba3 H3 3.029598 1_555
Ba3 H7 3.074119 1_645
S0 S8 2.137103 1_555
S1 S9 2.137103 1_555
S4 Te0 2.399474 1_555
S5 Te1 2.399474 1_555
S6 Te2 2.399474 1_555
S7 Te3 2.399474 1_555
S8 Te2 2.417329 1_555
S9 Te3 2.417329 1_555
S10 S2 2.137103 1_555
S10 Te0 2.417329 1_455
S11 S3 2.137103 1_555
S11 Te1 2.417329 1_655
S12 S4 2.128250 1_555
S13 S5 2.128250 1_555
S14 S6 2.128250 1_555
S15 S7 2.128250 1_555
O0 S2 1.478255 1_655
O1 S3 1.478255 1_455
O2 S0 1.478255 1_555
O3 S1 1.478255 1_555
O4 S15 1.468817 1_555
O5 S14 1.468817 1_555
O6 S13 1.468817 1_655
O7 S12 1.468817 1_455
O8 S12 1.470415 1_555
O9 S13 1.470415 1_555
O10 S14 1.470415 1_555
O11 S15 1.470415 1_555
O12 S0 1.488864 1_555
O13 S1 1.488864 1_555
O14 S2 1.488864 1_555
O15 S3 1.488864 1_555
O16 S15 1.472432 1_555
O17 S14 1.472432 1_555
O18 S13 1.472432 1_554
O19 S12 1.472432 1_556
O20 S0 1.456218 1_555
O21 S1 1.456218 1_555
O22 S2 1.456218 1_555
O23 S3 1.456218 1_555
