# generated using pymatgen
data_HfAlPt2
_symmetry_space_group_name_H-M   'P 1'
_cell_length_a   4.50080075
_cell_length_b   4.50080075
_cell_length_c   8.22900700
_cell_angle_alpha   90.00000000
_cell_angle_beta   90.00000000
_cell_angle_gamma   120.00001098
_symmetry_Int_Tables_number   1
_chemical_formula_structural   HfAlPt2
_chemical_formula_sum   'Hf2 Al2 Pt4'
_cell_volume   144.36356200
_cell_formula_units_Z   2
loop_
 _symmetry_equiv_pos_site_id
 _symmetry_equiv_pos_as_xyz
  1  'x, y, z'
loop_
 _atom_site_type_symbol
 _atom_site_label
 _atom_site_symmetry_multiplicity
 _atom_site_fract_x
 _atom_site_fract_y
 _atom_site_fract_z
 _atom_site_occupancy
  Hf  Hf0  1  0.33333300  0.66666700  0.25000000  1
  Hf  Hf1  1  0.66666700  0.33333300  0.75000000  1
  Al  Al0  1  0.00000000  0.00000000  0.25000000  1
  Al  Al1  1  0.00000000  0.00000000  0.75000000  1
  Pt  Pt0  1  0.33333300  0.66666700  0.91696500  1
  Pt  Pt1  1  0.66666700  0.33333300  0.08303500  1
  Pt  Pt2  1  0.66666700  0.33333300  0.41696500  1
  Pt  Pt3  1  0.33333300  0.66666700  0.58303500  1
loop_
_geom_bond_atom_site_label_1
_geom_bond_atom_site_label_2
_geom_bond_distance
_geom_bond_site_symmetry_2
Hf0 Pt0 2.740547 1_554
Hf0 Pt3 2.740547 1_555
Hf0 Pt2 2.939412 1_455
Hf0 Pt1 2.939412 1_455
Hf0 Pt1 2.939412 1_565
Hf0 Pt2 2.939412 1_565
Hf0 Pt1 2.939419 1_555
Hf0 Pt2 2.939419 1_555
Hf1 Pt1 2.740547 1_556
Hf1 Pt2 2.740547 1_555
Hf1 Pt0 2.939412 1_545
Hf1 Pt3 2.939412 1_545
Hf1 Pt3 2.939412 1_655
Hf1 Pt0 2.939412 1_655
Hf1 Pt0 2.939419 1_555
Hf1 Pt3 2.939419 1_555
Al0 Hf0 2.598536 1_545
Al0 Hf0 2.598540 1_555
Al0 Hf0 2.598540 1_445
Al0 Pt1 2.939412 1_455
Al0 Pt2 2.939412 1_455
Al0 Pt2 2.939415 1_445
Al0 Pt1 2.939415 1_555
Al0 Pt1 2.939415 1_445
Al0 Pt2 2.939415 1_555
Al1 Hf1 2.598536 1_455
Al1 Hf1 2.598540 1_445
Al1 Hf1 2.598540 1_555
Al1 Pt3 2.939412 1_545
Al1 Pt0 2.939412 1_545
Al1 Pt3 2.939415 1_555
Al1 Pt0 2.939415 1_445
Al1 Pt3 2.939415 1_445
Al1 Pt0 2.939415 1_555
Pt0 Pt3 2.747912 1_555
Pt0 Pt1 2.935977 1_456
Pt0 Pt1 2.935977 1_566
Pt0 Pt1 2.935984 1_556
Pt1 Pt2 2.747912 1_555
Pt2 Pt3 2.935977 1_545
Pt2 Pt3 2.935977 1_655
Pt2 Pt3 2.935984 1_555
