# generated using pymatgen
data_SrLiEu(CoO3)2
_symmetry_space_group_name_H-M   'P 1'
_cell_length_a   3.79655130
_cell_length_b   4.59691673
_cell_length_c   7.40550651
_cell_angle_alpha   90.00000000
_cell_angle_beta   90.00000000
_cell_angle_gamma   90.00000000
_symmetry_Int_Tables_number   1
_chemical_formula_structural   SrLiEu(CoO3)2
_chemical_formula_sum   'Sr1 Li1 Eu1 Co2 O6'
_cell_volume   129.24408537
_cell_formula_units_Z   1
loop_
 _symmetry_equiv_pos_site_id
 _symmetry_equiv_pos_as_xyz
  1  'x, y, z'
loop_
 _atom_site_type_symbol
 _atom_site_label
 _atom_site_symmetry_multiplicity
 _atom_site_fract_x
 _atom_site_fract_y
 _atom_site_fract_z
 _atom_site_occupancy
  Sr  Sr0  1  0.00000000  -0.00000000  0.50000000  1
  Li  Li0  1  0.00000000  0.50000000  0.50000000  1
  Eu  Eu0  1  -0.00000000  -0.00000000  -0.00000000  1
  Co  Co0  1  0.50000000  0.50000000  0.24068702  1
  Co  Co1  1  0.50000000  0.50000000  0.75931298  1
  O  O0  1  0.00000000  0.50000000  0.25371817  1
  O  O1  1  0.00000000  0.50000000  0.74628183  1
  O  O2  1  0.50000000  0.50000000  -0.00000000  1
  O  O3  1  0.50000000  0.50000000  0.50000000  1
  O  O4  1  0.50000000  -0.00000000  0.23565424  1
  O  O5  1  0.50000000  -0.00000000  0.76434576  1
loop_
_geom_bond_atom_site_label_1
_geom_bond_atom_site_label_2
_geom_bond_distance
_geom_bond_site_symmetry_2
Li0 O0 1.823842 1_555
Li0 O1 1.823842 1_555
Li0 O3 1.898276 1_455
Li0 O3 1.898276 1_555
Li0 Sr0 2.298458 1_555
Li0 Sr0 2.298458 1_565
Eu0 O4 2.578558 1_455
Eu0 O4 2.578558 1_555
Eu0 O5 2.578558 1_554
Eu0 O5 2.578558 1_454
Eu0 O1 2.968707 1_554
Eu0 O1 2.968707 1_544
Eu0 O0 2.968707 1_555
Eu0 O0 2.968707 1_545
Eu0 O2 2.981000 1_455
Eu0 O2 2.981000 1_555
Eu0 O2 2.981000 1_445
Eu0 O2 2.981000 1_545
Co0 O2 1.782409 1_555
Co0 O0 1.900727 1_555
Co0 O0 1.900727 1_655
Co0 O3 1.920344 1_555
Co0 O4 2.298761 1_555
Co0 O4 2.298761 1_565
Co1 O2 1.782409 1_556
Co1 O1 1.900727 1_655
Co1 O1 1.900727 1_555
Co1 O3 1.920344 1_555
Co1 O5 2.298761 1_565
Co1 O5 2.298761 1_555
O0 Sr0 2.934162 1_565
O0 Sr0 2.934162 1_555
O1 Sr0 2.934162 1_555
O1 Sr0 2.934162 1_565
O3 Sr0 2.981000 1_665
O3 Sr0 2.981000 1_655
O3 Sr0 2.981000 1_555
O3 Sr0 2.981000 1_565
O4 Sr0 2.726849 1_555
O4 Sr0 2.726849 1_655
O5 Sr0 2.726849 1_555
O5 Sr0 2.726849 1_655
