# generated using pymatgen
data_Ni6SnTe2
_symmetry_space_group_name_H-M   'P 1'
_cell_length_a   10.04631121
_cell_length_b   10.04631121
_cell_length_c   10.04631121
_cell_angle_alpha   158.22595711
_cell_angle_beta   158.22595711
_cell_angle_gamma   30.98434981
_symmetry_Int_Tables_number   1
_chemical_formula_structural   Ni6SnTe2
_chemical_formula_sum   'Ni6 Sn1 Te2'
_cell_volume   139.42691572
_cell_formula_units_Z   1
loop_
 _symmetry_equiv_pos_site_id
 _symmetry_equiv_pos_as_xyz
  1  'x, y, z'
loop_
 _atom_site_type_symbol
 _atom_site_label
 _atom_site_symmetry_multiplicity
 _atom_site_fract_x
 _atom_site_fract_y
 _atom_site_fract_z
 _atom_site_occupancy
  Ni  Ni0  1  0.50107500  0.50107500  0.00000000  1
  Ni  Ni1  1  0.90655600  0.40655600  0.50000000  1
  Ni  Ni2  1  0.40655600  0.90655600  0.50000000  1
  Ni  Ni3  1  0.09540900  0.59540900  0.50000000  1
  Ni  Ni4  1  0.59540900  0.09540900  0.50000000  1
  Ni  Ni5  1  0.80885300  0.80885300  0.00000000  1
  Sn  Sn0  1  0.00035100  0.00035100  0.00000000  1
  Te  Te0  1  0.31622500  0.31622500  0.00000000  1
  Te  Te1  1  0.67916700  0.67916700  0.00000000  1
loop_
_geom_bond_atom_site_label_1
_geom_bond_atom_site_label_2
_geom_bond_distance
_geom_bond_site_symmetry_2
Ni0 Ni3 2.633763 1_554
Ni0 Ni4 2.633763 1_554
Ni0 Ni4 2.633763 1_565
Ni0 Ni3 2.633763 1_655
Ni0 Ni2 2.636249 1_555
Ni0 Ni1 2.636249 1_555
Ni0 Ni1 2.636249 1_454
Ni0 Ni2 2.636249 1_544
Ni0 Sn0 2.683474 1_666
Ni0 Sn0 2.683474 1_554
Ni0 Sn0 2.683474 1_655
Ni0 Sn0 2.683474 1_565
Ni1 Te0 2.580614 1_555
Ni1 Te0 2.580614 1_656
Ni1 Sn0 2.626536 1_666
Ni1 Sn0 2.626536 1_655
Ni1 Ni5 2.679415 1_556
Ni1 Ni5 2.679415 1_545
Ni1 Ni2 2.683438 1_555
Ni1 Ni2 2.683438 1_656
Ni1 Ni2 2.683438 1_544
Ni1 Ni2 2.683438 1_645
Ni2 Te0 2.580614 1_555
Ni2 Te0 2.580614 1_566
Ni2 Sn0 2.626536 1_666
Ni2 Sn0 2.626536 1_565
Ni2 Ni5 2.679415 1_556
Ni2 Ni5 2.679415 1_455
Ni3 Te1 2.496110 1_556
Ni3 Te1 2.496110 1_455
Ni3 Sn0 2.643504 1_566
Ni3 Sn0 2.643504 1_555
Ni3 Ni4 2.683438 1_566
Ni3 Ni4 2.683438 1_555
Ni3 Ni4 2.683438 1_454
Ni3 Ni4 2.683438 1_465
Ni4 Te1 2.496110 1_556
Ni4 Te1 2.496110 1_545
Ni4 Sn0 2.643504 1_656
Ni4 Sn0 2.643504 1_555
Ni5 Te1 2.511058 1_555
Ni5 Te0 2.687231 1_565
Ni5 Te0 2.687231 1_655
Ni5 Te0 2.687231 1_554
Ni5 Te0 2.687231 1_666
