# generated using pymatgen
data_RbMg14Cd
_symmetry_space_group_name_H-M   'P 1'
_cell_length_a   6.60264410
_cell_length_b   6.60264353
_cell_length_c   10.67275607
_cell_angle_alpha   90.00000000
_cell_angle_beta   90.00000000
_cell_angle_gamma   120.00000288
_symmetry_Int_Tables_number   1
_chemical_formula_structural   RbMg14Cd
_chemical_formula_sum   'Rb1 Mg14 Cd1'
_cell_volume   402.94237462
_cell_formula_units_Z   1
loop_
 _symmetry_equiv_pos_site_id
 _symmetry_equiv_pos_as_xyz
  1  'x, y, z'
loop_
 _atom_site_type_symbol
 _atom_site_label
 _atom_site_symmetry_multiplicity
 _atom_site_fract_x
 _atom_site_fract_y
 _atom_site_fract_z
 _atom_site_occupancy
  Rb  Rb0  1  0.16666700  0.33333300  0.12500000  1
  Mg  Mg0  1  0.17565538  0.83782719  0.12500000  1
  Mg  Mg1  1  0.16194419  0.83097160  0.62500000  1
  Mg  Mg2  1  0.66217281  0.32434462  0.12500000  1
  Mg  Mg3  1  0.66902840  0.33805581  0.62500000  1
  Mg  Mg4  1  0.66217281  0.83782719  0.12500000  1
  Mg  Mg5  1  0.66902840  0.83097160  0.62500000  1
  Mg  Mg6  1  0.34048316  0.15951684  0.39492090  1
  Mg  Mg7  1  0.34048316  0.15951684  0.85507910  1
  Mg  Mg8  1  0.34048316  0.68096732  0.39492090  1
  Mg  Mg9  1  0.34048316  0.68096732  0.85507910  1
  Mg  Mg10  1  0.81903268  0.15951684  0.39492090  1
  Mg  Mg11  1  0.81903268  0.15951684  0.85507910  1
  Mg  Mg12  1  0.83333300  0.66666700  0.36971441  1
  Mg  Mg13  1  0.83333300  0.66666700  0.88028559  1
  Cd  Cd0  1  0.16666700  0.33333300  0.62500000  1
loop_
_geom_bond_atom_site_label_1
_geom_bond_atom_site_label_2
_geom_bond_distance
_geom_bond_site_symmetry_2
Mg0 Mg2 3.212301 1_565
Mg0 Mg4 3.212301 1_555
Mg0 Mg12 3.263873 1_455
Mg0 Mg13 3.263873 1_454
Mg0 Rb0 3.301722 1_555
Mg0 Rb0 3.301722 1_565
Mg0 Mg2 3.390342 1_455
Mg0 Mg4 3.390343 1_455
Mg0 Mg8 3.418069 1_555
Mg0 Mg9 3.418069 1_554
Mg0 Mg6 3.418075 1_565
Mg0 Mg7 3.418075 1_564
Mg1 Mg9 3.093216 1_555
Mg1 Mg8 3.093216 1_555
Mg1 Mg7 3.093223 1_565
Mg1 Mg6 3.093223 1_565
Mg1 Mg3 3.254547 1_455
Mg1 Mg5 3.254548 1_455
Mg1 Mg12 3.309706 1_455
Mg1 Mg13 3.309706 1_455
Mg1 Mg3 3.348096 1_565
Mg1 Mg5 3.348097 1_555
Mg2 Mg4 3.212301 1_545
Mg2 Rb0 3.301722 1_655
Mg2 Rb0 3.301722 1_555
Mg2 Mg4 3.390342 1_555
Mg2 Mg6 3.418075 1_555
Mg2 Mg7 3.418075 1_554
Mg3 Mg7 3.093223 1_555
Mg3 Mg6 3.093223 1_555
Mg3 Mg5 3.254547 1_555
Mg3 Mg5 3.348096 1_545
Mg4 Rb0 3.301722 1_555
Mg4 Rb0 3.301722 1_665
Mg4 Mg8 3.418075 1_555
Mg4 Mg9 3.418075 1_554
Mg5 Mg9 3.093223 1_555
Mg5 Mg8 3.093223 1_555
Mg6 Mg8 3.159692 1_545
Mg6 Mg8 3.442952 1_555
Mg6 Rb0 3.500041 1_555
Mg7 Mg9 3.159692 1_545
Mg7 Mg9 3.442952 1_555
Mg7 Rb0 3.500041 1_556
Mg8 Rb0 3.500047 1_555
Mg9 Rb0 3.500047 1_556
Mg10 Mg3 3.093216 1_555
Mg10 Mg5 3.093223 1_545
Mg10 Mg8 3.159692 1_545
Mg10 Mg6 3.159692 1_555
Mg10 Mg12 3.313274 1_555
Mg10 Mg12 3.313274 1_545
Mg10 Mg2 3.418069 1_555
Mg10 Mg4 3.418075 1_545
Mg10 Mg8 3.442952 1_655
Mg10 Mg6 3.442952 1_655
Mg10 Rb0 3.500047 1_655
Mg11 Mg3 3.093216 1_555
Mg11 Mg5 3.093223 1_545
Mg11 Mg9 3.159692 1_545
Mg11 Mg7 3.159692 1_555
Mg11 Mg13 3.313274 1_555
Mg11 Mg13 3.313274 1_545
Mg11 Mg2 3.418069 1_556
Mg11 Mg4 3.418075 1_546
Mg11 Mg9 3.442952 1_655
Mg11 Mg7 3.442952 1_655
Mg11 Rb0 3.500047 1_656
Mg12 Mg4 3.263867 1_555
Mg12 Mg2 3.263873 1_555
Mg12 Mg5 3.309700 1_555
Mg12 Mg3 3.309706 1_555
Mg12 Mg6 3.313274 1_555
Mg12 Mg6 3.313274 1_665
Mg12 Mg8 3.313274 1_555
Mg12 Mg8 3.313274 1_655
Mg13 Mg4 3.263867 1_556
Mg13 Mg2 3.263873 1_556
Mg13 Mg5 3.309700 1_555
Mg13 Mg3 3.309706 1_555
Mg13 Mg7 3.313274 1_555
Mg13 Mg7 3.313274 1_665
Mg13 Mg9 3.313274 1_555
Mg13 Mg9 3.313274 1_655
Cd0 Mg7 3.159294 1_555
Cd0 Mg6 3.159294 1_555
Cd0 Mg9 3.159301 1_555
Cd0 Mg8 3.159301 1_555
Cd0 Mg11 3.159301 1_455
Cd0 Mg10 3.159301 1_455
Cd0 Mg1 3.301432 1_545
Cd0 Mg5 3.301432 1_445
Cd0 Mg5 3.301432 1_555
Cd0 Mg1 3.301432 1_555
Cd0 Mg3 3.301432 1_555
Cd0 Mg3 3.301433 1_455
