# generated using pymatgen
data_In2Au3
_symmetry_space_group_name_H-M   'P 1'
_cell_length_a   4.62025663
_cell_length_b   4.62015385
_cell_length_c   5.74619816
_cell_angle_alpha   89.99977492
_cell_angle_beta   90.00047404
_cell_angle_gamma   119.99936698
_symmetry_Int_Tables_number   1
_chemical_formula_structural   In2Au3
_chemical_formula_sum   'In2 Au3'
_cell_volume   106.22739652
_cell_formula_units_Z   1
loop_
 _symmetry_equiv_pos_site_id
 _symmetry_equiv_pos_as_xyz
  1  'x, y, z'
loop_
 _atom_site_type_symbol
 _atom_site_label
 _atom_site_symmetry_multiplicity
 _atom_site_fract_x
 _atom_site_fract_y
 _atom_site_fract_z
 _atom_site_occupancy
  In  In0  1  0.66670977  0.33335589  0.32167020  1
  In  In1  1  0.33329023  0.66664411  0.67832980  1
  Au  Au0  1  0.66667311  0.33333706  0.80654473  1
  Au  Au1  1  0.33332689  0.66666294  0.19345527  1
  Au  Au2  1  0.00000000  0.00000000  0.00000000  1
loop_
_geom_bond_atom_site_label_1
_geom_bond_atom_site_label_2
_geom_bond_distance
_geom_bond_site_symmetry_2
In0 In1 3.363622 1_655
In0 In1 3.364004 1_545
In0 In1 3.364005 1_555
Au0 In1 2.767210 1_655
Au0 In1 2.767427 1_555
Au0 In1 2.767440 1_545
Au0 In0 2.786185 1_555
Au0 Au2 2.889811 1_666
Au0 Au2 2.889812 1_656
Au0 Au2 2.889911 1_556
Au0 In0 2.960013 1_556
Au1 In0 2.767210 1_455
Au1 In0 2.767427 1_555
Au1 In0 2.767440 1_565
Au1 In1 2.786185 1_555
Au1 Au2 2.889811 1_555
Au1 Au2 2.889812 1_565
Au1 Au2 2.889911 1_665
Au1 In1 2.960013 1_554
Au2 In0 3.245211 1_445
Au2 In1 3.245211 1_554
Au2 In0 3.245232 1_455
Au2 In1 3.245232 1_544
Au2 In0 3.245465 1_555
Au2 In1 3.245465 1_444
