# generated using pymatgen
data_BaZrTiPbO6
_symmetry_space_group_name_H-M   'P 1'
_cell_length_a   4.08373300
_cell_length_b   4.08373300
_cell_length_c   8.58059500
_cell_angle_alpha   90.00000000
_cell_angle_beta   90.00000000
_cell_angle_gamma   90.00000000
_symmetry_Int_Tables_number   1
_chemical_formula_structural   BaZrTiPbO6
_chemical_formula_sum   'Ba1 Zr1 Ti1 Pb1 O6'
_cell_volume   143.09751209
_cell_formula_units_Z   1
loop_
 _symmetry_equiv_pos_site_id
 _symmetry_equiv_pos_as_xyz
  1  'x, y, z'
loop_
 _atom_site_type_symbol
 _atom_site_label
 _atom_site_symmetry_multiplicity
 _atom_site_fract_x
 _atom_site_fract_y
 _atom_site_fract_z
 _atom_site_occupancy
  Ba  Ba0  1  0.00000000  0.00000000  0.51758200  1
  Zr  Zr0  1  0.50000000  0.50000000  0.25224200  1
  Ti  Ti0  1  0.50000000  0.50000000  0.76764500  1
  Pb  Pb0  1  0.00000000  0.00000000  0.97670000  1
  O  O0  1  0.50000000  0.00000000  0.29912000  1
  O  O1  1  0.50000000  0.00000000  0.78694300  1
  O  O2  1  0.00000000  0.50000000  0.29912000  1
  O  O3  1  0.00000000  0.50000000  0.78694300  1
  O  O4  1  0.50000000  0.50000000  0.01704400  1
  O  O5  1  0.50000000  0.50000000  0.55666000  1
loop_
_geom_bond_atom_site_label_1
_geom_bond_atom_site_label_2
_geom_bond_distance
_geom_bond_site_symmetry_2
Ba0 O0 2.771840 1_455
Ba0 O2 2.771840 1_555
Ba0 O0 2.771840 1_555
Ba0 O2 2.771840 1_545
Ba0 O5 2.907038 1_545
Ba0 O5 2.907038 1_455
Ba0 O5 2.907038 1_555
Ba0 O5 2.907038 1_445
Ba0 O3 3.084027 1_545
Ba0 O3 3.084027 1_555
Ba0 O1 3.084027 1_455
Ba0 O1 3.084027 1_555
O0 Zr0 2.081109 1_545
O0 Zr0 2.081109 1_555
O1 Ti0 2.048570 1_545
O1 Ti0 2.048570 1_555
O1 Pb0 2.611579 1_655
O1 Pb0 2.611579 1_555
O2 Zr0 2.081109 1_455
O2 Zr0 2.081109 1_555
O3 Ti0 2.048570 1_455
O3 Ti0 2.048570 1_555
O3 Pb0 2.611579 1_565
O3 Pb0 2.611579 1_555
O4 Zr0 2.018139 1_555
O4 Ti0 2.139992 1_554
O5 Ti0 1.810377 1_555
O5 Zr0 2.612088 1_555
