# generated using pymatgen
data_Sr2Ca2Fe3CoO10
_symmetry_space_group_name_H-M   'P 1'
_cell_length_a   10.90390221
_cell_length_b   11.33889292
_cell_length_c   17.41635838
_cell_angle_alpha   109.20883170
_cell_angle_beta   108.40553143
_cell_angle_gamma   89.69973887
_symmetry_Int_Tables_number   1
_chemical_formula_structural   Sr2Ca2Fe3CoO10
_chemical_formula_sum   'Sr16 Ca16 Fe24 Co8 O80'
_cell_volume   1917.69460077
_cell_formula_units_Z   8
loop_
 _symmetry_equiv_pos_site_id
 _symmetry_equiv_pos_as_xyz
  1  'x, y, z'
loop_
 _atom_site_type_symbol
 _atom_site_label
 _atom_site_symmetry_multiplicity
 _atom_site_fract_x
 _atom_site_fract_y
 _atom_site_fract_z
 _atom_site_occupancy
  Sr  Sr0  1  0.30723800  0.56524400  0.61150000  1
  Sr  Sr1  1  0.80216700  0.06246000  0.60939700  1
  Sr  Sr2  1  0.80794200  0.56470300  0.61152300  1
  Sr  Sr3  1  0.19449700  0.43320100  0.38570100  1
  Sr  Sr4  1  0.19623900  0.43968200  0.89399100  1
  Sr  Sr5  1  0.69374600  0.43326900  0.38558900  1
  Sr  Sr6  1  0.69036000  0.93343700  0.38565600  1
  Sr  Sr7  1  0.70081000  0.93642000  0.89420400  1
  Sr  Sr8  1  0.05825300  0.29428000  0.61080500  1
  Sr  Sr9  1  0.05796900  0.79915900  0.61039200  1
  Sr  Sr10  1  0.55738500  0.29523700  0.61142000  1
  Sr  Sr11  1  0.55647100  0.79856500  0.61015300  1
  Sr  Sr12  1  0.44417100  0.19951300  0.38612800  1
  Sr  Sr13  1  0.45245000  0.20627400  0.89305600  1
  Sr  Sr14  1  0.94490400  0.20037300  0.38627200  1
  Sr  Sr15  1  0.94510500  0.20667100  0.89371500  1
  Ca  Ca0  1  0.30347900  0.06739200  0.10562400  1
  Ca  Ca1  1  0.30850600  0.06389700  0.60493800  1
  Ca  Ca2  1  0.29941000  0.56882000  0.10765900  1
  Ca  Ca3  1  0.80342600  0.06932100  0.10525100  1
  Ca  Ca4  1  0.79985800  0.56691700  0.10689300  1
  Ca  Ca5  1  0.20302000  0.93145000  0.39091100  1
  Ca  Ca6  1  0.19968800  0.93382800  0.89716900  1
  Ca  Ca7  1  0.69521400  0.43513900  0.89813200  1
  Ca  Ca8  1  0.04885100  0.28701000  0.10652300  1
  Ca  Ca9  1  0.05172600  0.78771900  0.10645900  1
  Ca  Ca10  1  0.55583200  0.28703000  0.10493200  1
  Ca  Ca11  1  0.55274100  0.78718900  0.10454000  1
  Ca  Ca12  1  0.44402200  0.71219600  0.39034900  1
  Ca  Ca13  1  0.44749000  0.71333400  0.89621800  1
  Ca  Ca14  1  0.94531000  0.71014900  0.39023100  1
  Ca  Ca15  1  0.94919800  0.71355400  0.89759300  1
  Fe  Fe0  1  0.00508800  0.99776300  0.49710800  1
  Fe  Fe1  1  0.00225600  0.49920400  0.49666400  1
  Fe  Fe2  1  0.50258300  0.49915400  0.49722000  1
  Fe  Fe3  1  0.25792200  0.25269100  0.00479000  1
  Fe  Fe4  1  0.25469200  0.24684800  0.49816000  1
  Fe  Fe5  1  0.25371200  0.74963700  0.49644300  1
  Fe  Fe6  1  0.75248500  0.24848900  0.49911100  1
  Fe  Fe7  1  0.75124300  0.74825400  0.49568600  1
  Fe  Fe8  1  0.10474200  0.08501400  0.24711900  1
  Fe  Fe9  1  0.11306100  0.09046900  0.75406400  1
  Fe  Fe10  1  0.10408600  0.59401900  0.24801900  1
  Fe  Fe11  1  0.10894400  0.59726400  0.75429800  1
  Fe  Fe12  1  0.60341300  0.08547400  0.24502300  1
  Fe  Fe13  1  0.60493200  0.09373800  0.75161600  1
  Fe  Fe14  1  0.60303500  0.59040100  0.24695600  1
  Fe  Fe15  1  0.60930500  0.59247100  0.75576500  1
  Fe  Fe16  1  0.35237700  0.41123300  0.24534200  1
  Fe  Fe17  1  0.36076000  0.41076100  0.75163100  1
  Fe  Fe18  1  0.34962700  0.90327300  0.24384900  1
  Fe  Fe19  1  0.35633100  0.90823300  0.75063900  1
  Fe  Fe20  1  0.85396000  0.41243600  0.24645400  1
  Fe  Fe21  1  0.85613000  0.41430400  0.75416400  1
  Fe  Fe22  1  0.85586500  0.90345100  0.24414100  1
  Fe  Fe23  1  0.86163100  0.90733900  0.75079500  1
  Co  Co0  1  0.01045000  0.00123700  0.00506100  1
  Co  Co1  1  0.00543100  0.50332800  0.00435600  1
  Co  Co2  1  0.50901400  0.00116300  0.00417100  1
  Co  Co3  1  0.50294300  0.99894200  0.49847600  1
  Co  Co4  1  0.50738500  0.50308900  0.00442000  1
  Co  Co5  1  0.25784500  0.75243500  0.00367000  1
  Co  Co6  1  0.75831700  0.25446100  0.00545600  1
  Co  Co7  1  0.75723500  0.74919100  0.00211900  1
  O  O0  1  0.12685400  0.11681500  0.48915700  1
  O  O1  1  0.12694600  0.11719000  0.99215700  1
  O  O2  1  0.11938300  0.62224400  0.48636100  1
  O  O3  1  0.11815900  0.62282100  0.99179500  1
  O  O4  1  0.61934800  0.11803200  0.49005500  1
  O  O5  1  0.62463200  0.11888000  0.99520400  1
  O  O6  1  0.62052300  0.62171900  0.48743300  1
  O  O7  1  0.61937300  0.61703600  0.98757900  1
  O  O8  1  0.13662900  0.38252100  0.01819900  1
  O  O9  1  0.13189900  0.37785800  0.50775100  1
  O  O10  1  0.14203100  0.87746200  0.01317500  1
  O  O11  1  0.13493100  0.87897800  0.50559000  1
  O  O12  1  0.63635300  0.38750600  0.01779800  1
  O  O13  1  0.63171300  0.37801200  0.50667000  1
  O  O14  1  0.64045200  0.87341500  0.01422800  1
  O  O15  1  0.62565500  0.87712300  0.50391000  1
  O  O16  1  0.37293000  0.11057100  0.48809900  1
  O  O17  1  0.37468600  0.11559500  0.99156300  1
  O  O18  1  0.37388500  0.62036000  0.48781800  1
  O  O19  1  0.37423100  0.62604100  0.99185800  1
  O  O20  1  0.87491700  0.11850800  0.49143500  1
  O  O21  1  0.88084900  0.11723600  0.99535000  1
  O  O22  1  0.87428200  0.61932900  0.48807500  1
  O  O23  1  0.87117300  0.62185900  0.98966700  1
  O  O24  1  0.38897200  0.38854700  0.01698100  1
  O  O25  1  0.38163700  0.37925900  0.50731000  1
  O  O26  1  0.39290100  0.88768200  0.01475500  1
  O  O27  1  0.38384100  0.88551300  0.50743600  1
  O  O28  1  0.88775600  0.39265100  0.01615500  1
  O  O29  1  0.88174600  0.38007500  0.50649400  1
  O  O30  1  0.89576300  0.88589900  0.01735000  1
  O  O31  1  0.88299900  0.87763100  0.50487800  1
  O  O32  1  0.10182500  0.11066600  0.14707500  1
  O  O33  1  0.09071200  0.09011600  0.64122000  1
  O  O34  1  0.09305100  0.61395300  0.14538000  1
  O  O35  1  0.07834300  0.59646000  0.64047300  1
  O  O36  1  0.59625400  0.11199400  0.14516000  1
  O  O37  1  0.58298900  0.09689600  0.64211500  1
  O  O38  1  0.59277000  0.61440000  0.14537100  1
  O  O39  1  0.58060800  0.59349600  0.64185800  1
  O  O40  1  0.43605200  0.40301300  0.35656400  1
  O  O41  1  0.44841700  0.39700200  0.85711800  1
  O  O42  1  0.43619300  0.89338300  0.35238000  1
  O  O43  1  0.44886000  0.89049200  0.85522700  1
  O  O44  1  0.93745600  0.40363600  0.35754700  1
  O  O45  1  0.94650100  0.39640500  0.85771200  1
  O  O46  1  0.94339200  0.89984100  0.35701500  1
  O  O47  1  0.95043200  0.88904000  0.85570500  1
  O  O48  1  0.34114900  0.28757500  0.13931700  1
  O  O49  1  0.33096000  0.28997000  0.63853400  1
  O  O50  1  0.33588300  0.78313400  0.13730100  1
  O  O51  1  0.32622800  0.79410300  0.63682800  1
  O  O52  1  0.84494500  0.28868200  0.14271500  1
  O  O53  1  0.82827000  0.29980500  0.63967600  1
  O  O54  1  0.84016300  0.78112900  0.13820000  1
  O  O55  1  0.82698100  0.79594400  0.63577100  1
  O  O56  1  0.18882300  0.20121100  0.36047500  1
  O  O57  1  0.19556400  0.20935600  0.86489500  1
  O  O58  1  0.19749100  0.70959000  0.36008700  1
  O  O59  1  0.20333200  0.71467500  0.86278800  1
  O  O60  1  0.68727600  0.19804300  0.35983800  1
  O  O61  1  0.68815000  0.21357600  0.86128200  1
  O  O62  1  0.69696800  0.70137200  0.35969800  1
  O  O63  1  0.70489200  0.70943600  0.86320800  1
  O  O64  1  0.42380300  0.05609700  0.24016200  1
  O  O65  1  0.42437200  0.06087700  0.74415300  1
  O  O66  1  0.42491700  0.56906600  0.24861700  1
  O  O67  1  0.43337400  0.57107100  0.75810100  1
  O  O68  1  0.92375700  0.05780800  0.23982400  1
  O  O69  1  0.93621000  0.06162700  0.75104200  1
  O  O70  1  0.92615800  0.57078700  0.24963700  1
  O  O71  1  0.93467600  0.57199600  0.75974600  1
  O  O72  1  0.17291300  0.43353000  0.24056100  1
  O  O73  1  0.18436400  0.44199400  0.75169900  1
  O  O74  1  0.17324800  0.92758100  0.24779800  1
  O  O75  1  0.18379400  0.93605800  0.75994600  1
  O  O76  1  0.67300400  0.43107300  0.23978800  1
  O  O77  1  0.68058900  0.43746900  0.75924200  1
  O  O78  1  0.67677300  0.92845100  0.24012300  1
  O  O79  1  0.68738600  0.94254900  0.75303200  1
loop_
_geom_bond_atom_site_label_1
_geom_bond_atom_site_label_2
_geom_bond_distance
_geom_bond_site_symmetry_2
Ca0 O64 2.341484 1_555
Ca0 O48 2.375023 1_555
Ca0 O1 2.500022 1_554
Ca0 O10 2.509503 1_545
Ca0 O32 2.520859 1_555
Ca0 O26 2.537558 1_545
Ca0 O17 2.557497 1_554
Ca1 O65 2.365567 1_555
Ca1 O49 2.429518 1_555
Ca1 O27 2.500586 1_545
Ca1 O16 2.555317 1_555
Ca1 O11 2.561004 1_545
Ca1 O0 2.571189 1_555
Ca1 O33 2.635145 1_555
Ca1 O37 2.854030 1_555
Ca2 O50 2.320549 1_555
Ca2 O66 2.402855 1_555
Ca2 O8 2.483453 1_555
Ca2 O24 2.540654 1_555
Ca2 O34 2.541006 1_555
Ca2 O3 2.575819 1_554
Ca2 O19 2.657036 1_554
Ca3 O68 2.342959 1_555
Ca3 O52 2.361090 1_555
Ca3 O5 2.475405 1_554
Ca3 O21 2.526076 1_554
Ca3 O30 2.557195 1_545
Ca3 O14 2.559425 1_545
Ca3 O36 2.564958 1_555
Ca4 O54 2.319164 1_555
Ca4 O70 2.417834 1_555
Ca4 O12 2.436940 1_555
Ca4 O28 2.490448 1_555
Ca4 O38 2.557980 1_555
Ca4 O7 2.587855 1_554
Ca4 O23 2.646827 1_554
Ca5 O58 2.390146 1_555
Ca5 O74 2.395233 1_555
Ca5 O16 2.493908 1_565
Ca5 O27 2.536810 1_555
Ca5 O0 2.558870 1_565
Ca5 O11 2.572423 1_555
Ca5 O46 2.703209 1_455
Ca5 O42 2.824226 1_555
Ca6 O75 2.349592 1_555
Ca6 O59 2.360082 1_555
Ca6 O1 2.497344 1_565
Ca6 O17 2.534231 1_565
Ca6 O10 2.557690 1_556
Ca6 O47 2.588420 1_455
Ca6 O26 2.622078 1_556
Ca6 O43 3.026541 1_555
Ca7 O61 2.374703 1_555
Ca7 O77 2.382415 1_555
Ca7 O7 2.458873 1_555
Ca7 O41 2.556181 1_555
Ca7 O23 2.568124 1_555
Ca7 O12 2.576109 1_556
Ca7 O28 2.604018 1_556
Ca8 O32 2.343117 1_555
Ca8 O72 2.348847 1_555
Ca8 O21 2.480934 1_454
Ca8 O52 2.493542 1_455
Ca8 O28 2.543652 1_455
Ca8 O8 2.547961 1_555
Ca8 O1 2.632575 1_554
Ca9 O34 2.285027 1_555
Ca9 O74 2.392445 1_555
Ca9 O30 2.447518 1_455
Ca9 O3 2.539906 1_554
Ca9 O54 2.543048 1_455
Ca9 O23 2.557948 1_454
Ca9 O10 2.598695 1_555
Ca9 O50 2.976095 1_555
Ca10 O36 2.309777 1_555
Ca10 O76 2.327886 1_555
Ca10 O5 2.518510 1_554
Ca10 O24 2.521916 1_555
Ca10 O12 2.522177 1_555
Ca10 O17 2.574980 1_554
Ca10 O48 2.592502 1_555
Ca11 O38 2.290557 1_555
Ca11 O78 2.342622 1_555
Ca11 O26 2.492375 1_555
Ca11 O19 2.498867 1_554
Ca11 O14 2.513228 1_555
Ca11 O7 2.594905 1_554
Ca11 O50 2.605645 1_555
Ca11 O54 3.005749 1_555
Ca12 O42 2.349868 1_555
Ca12 O66 2.411072 1_555
Ca12 O15 2.542211 1_555
Ca12 O18 2.557782 1_555
Ca12 O58 2.569185 1_555
Ca12 O27 2.577908 1_555
Ca12 O6 2.584799 1_555
Ca12 O62 2.964835 1_555
Ca13 O43 2.344311 1_555
Ca13 O67 2.372268 1_555
Ca13 O19 2.515112 1_555
Ca13 O59 2.540374 1_555
Ca13 O7 2.544672 1_555
Ca13 O26 2.569561 1_556
Ca13 O14 2.607748 1_556
Ca14 O70 2.381367 1_555
Ca14 O46 2.402525 1_555
Ca14 O31 2.530416 1_555
Ca14 O2 2.543774 1_655
Ca14 O22 2.561394 1_555
Ca14 O62 2.585356 1_555
Ca14 O11 2.619863 1_655
Ca14 O58 2.957376 1_655
Ca15 O47 2.335267 1_555
Ca15 O71 2.364771 1_555
Ca15 O3 2.515252 1_655
Ca15 O23 2.518783 1_555
Ca15 O63 2.536261 1_555
Ca15 O30 2.565554 1_556
Ca15 O10 2.614142 1_656
Ca15 O59 3.018693 1_655
Fe0 O11 1.954298 1_555
Fe0 O0 1.965249 1_565
Fe0 O20 1.969503 1_465
Fe0 O31 1.974863 1_455
Fe0 O46 2.197092 1_455
Fe0 O33 2.251414 1_565
Fe1 O22 1.951198 1_455
Fe1 O29 1.973185 1_455
Fe1 O9 1.977585 1_555
Fe1 O2 1.984395 1_555
Fe1 O44 2.177908 1_455
Fe1 O35 2.248889 1_555
Fe2 O18 1.966640 1_555
Fe2 O13 1.969413 1_555
Fe2 O6 1.981744 1_555
Fe2 O25 1.985092 1_555
Fe2 O40 2.201037 1_555
Fe2 O39 2.257615 1_555
Fe3 O8 1.979721 1_555
Fe3 O17 2.004847 1_554
Fe3 O1 2.012653 1_554
Fe3 O24 2.018975 1_555
Fe3 O48 2.126211 1_555
Fe3 O57 2.193097 1_554
Fe4 O0 1.967987 1_555
Fe4 O25 1.980057 1_555
Fe4 O9 1.996110 1_555
Fe4 O16 2.006048 1_555
Fe4 O56 2.152595 1_555
Fe4 O49 2.200341 1_555
Fe5 O11 1.952018 1_555
Fe5 O18 1.961532 1_555
Fe5 O2 1.988879 1_555
Fe5 O27 2.020134 1_555
Fe5 O58 2.143777 1_555
Fe5 O51 2.197636 1_555
Fe6 O13 1.967340 1_555
Fe6 O20 1.983606 1_555
Fe6 O29 2.002652 1_555
Fe6 O4 2.011190 1_555
Fe6 O60 2.172231 1_555
Fe6 O53 2.192023 1_555
Fe7 O6 1.966524 1_555
Fe7 O22 1.979587 1_555
Fe7 O31 1.990976 1_555
Fe7 O15 1.999033 1_555
Fe7 O62 2.128833 1_555
Fe7 O55 2.188858 1_555
Fe8 O32 1.849318 1_555
Fe8 O56 1.905825 1_555
Fe8 O74 1.933675 1_545
Fe8 O68 1.956538 1_455
Fe9 O57 1.885837 1_555
Fe9 O33 1.901138 1_555
Fe9 O75 1.929974 1_545
Fe9 O69 1.938946 1_455
Fe10 O34 1.841422 1_555
Fe10 O58 1.907819 1_555
Fe10 O72 1.945085 1_555
Fe10 O70 1.969512 1_455
Fe11 O59 1.879606 1_555
Fe11 O35 1.900481 1_555
Fe11 O73 1.932334 1_555
Fe11 O71 1.959415 1_455
Fe12 O36 1.838390 1_555
Fe12 O60 1.908415 1_555
Fe12 O78 1.935303 1_545
Fe12 O64 1.958885 1_555
Fe13 O37 1.858035 1_555
Fe13 O61 1.878436 1_555
Fe13 O79 1.935324 1_545
Fe13 O65 1.961163 1_555
Fe14 O38 1.846138 1_555
Fe14 O62 1.898845 1_555
Fe14 O76 1.938752 1_555
Fe14 O66 1.968867 1_555
Fe15 O63 1.869950 1_555
Fe15 O39 1.912282 1_555
Fe15 O77 1.929456 1_555
Fe15 O67 1.949667 1_555
Fe16 O48 1.883116 1_555
Fe16 O40 1.896121 1_555
Fe16 O66 1.936728 1_555
Fe16 O72 1.950876 1_555
Fe17 O41 1.841565 1_555
Fe17 O49 1.920055 1_555
Fe17 O67 1.941066 1_555
Fe17 O73 1.954208 1_555
Fe18 O50 1.866768 1_555
Fe18 O42 1.867656 1_555
Fe18 O64 1.944682 1_565
Fe18 O74 1.960860 1_555
Fe19 O43 1.858728 1_555
Fe19 O51 1.901876 1_555
Fe19 O65 1.937511 1_565
Fe19 O75 1.953946 1_555
Fe20 O52 1.861208 1_555
Fe20 O44 1.896350 1_555
Fe20 O70 1.941259 1_555
Fe20 O76 1.954094 1_555
Fe21 O45 1.838778 1_555
Fe21 O53 1.916221 1_555
Fe21 O71 1.946584 1_555
Fe21 O77 1.956238 1_555
Fe22 O54 1.864538 1_555
Fe22 O46 1.909156 1_555
Fe22 O68 1.937093 1_565
Fe22 O78 1.954391 1_555
Fe23 O47 1.857214 1_555
Fe23 O55 1.900887 1_555
Fe23 O69 1.931233 1_565
Fe23 O79 1.949175 1_555
Co0 O30 1.921028 1_445
Co0 O21 1.931736 1_454
Co0 O1 1.945490 1_554
Co0 O10 2.007378 1_545
Co0 O32 2.255475 1_555
Co0 O47 2.359945 1_444
Co1 O28 1.901738 1_455
Co1 O3 1.943410 1_554
Co1 O8 1.989984 1_555
Co1 O23 1.996009 1_454
Co1 O34 2.241030 1_555
Co1 O45 2.310846 1_454
Co2 O26 1.900843 1_545
Co2 O5 1.916898 1_554
Co2 O17 1.960004 1_554
Co2 O14 2.041957 1_545
Co2 O36 2.240687 1_555
Co2 O43 2.350800 1_544
Co3 O16 1.901169 1_565
Co3 O27 1.908578 1_555
Co3 O15 1.921968 1_555
Co3 O4 1.929205 1_565
Co3 O37 2.248719 1_565
Co3 O42 2.296144 1_555
Co4 O12 1.929813 1_555
Co4 O7 1.933534 1_554
Co4 O24 1.945431 1_555
Co4 O19 2.019505 1_554
Co4 O38 2.239723 1_555
Co4 O41 2.319007 1_554
Co5 O10 1.894923 1_555
Co5 O19 1.912747 1_554
Co5 O3 2.036458 1_554
Co5 O26 2.051104 1_555
Co5 O50 2.116906 1_555
Co5 O59 2.224282 1_554
Co6 O12 2.009161 1_555
Co6 O28 2.036409 1_555
Co6 O21 2.045398 1_554
Co6 O5 2.049061 1_554
Co6 O52 2.173722 1_555
Co6 O61 2.264929 1_554
Co7 O14 1.898779 1_555
Co7 O23 1.902731 1_554
Co7 O7 2.025547 1_554
Co7 O30 2.062951 1_555
Co7 O54 2.156666 1_555
Co7 O63 2.189792 1_554
O0 Sr14 2.626240 1_455
O0 Sr8 2.697609 1_555
O1 Sr15 2.622450 1_455
O2 Sr3 2.598957 1_555
O2 Sr9 2.680827 1_555
O2 Sr0 2.730833 1_555
O3 Sr4 2.551134 1_555
O4 Sr6 2.579619 1_545
O4 Sr12 2.583988 1_555
O4 Sr1 2.631204 1_555
O4 Sr10 2.656043 1_555
O5 Sr7 2.564073 1_545
O5 Sr13 2.589053 1_555
O6 Sr5 2.594615 1_555
O6 Sr11 2.680434 1_555
O6 Sr2 2.716903 1_555
O8 Sr4 2.708719 1_554
O8 Sr15 2.716137 1_454
O9 Sr0 2.601835 1_555
O9 Sr8 2.608013 1_555
O9 Sr3 2.678917 1_555
O9 Sr14 2.683444 1_455
O11 Sr9 2.630065 1_555
O12 Sr13 2.705236 1_554
O13 Sr2 2.606034 1_555
O13 Sr10 2.633342 1_555
O13 Sr5 2.659265 1_555
O13 Sr12 2.687389 1_555
O14 Sr7 2.677609 1_554
O15 Sr11 2.599900 1_555
O15 Sr1 2.600948 1_565
O15 Sr6 2.633433 1_555
O16 Sr12 2.613906 1_555
O16 Sr10 2.720233 1_555
O17 Sr13 2.609238 1_555
O18 Sr3 2.618375 1_555
O18 Sr11 2.667738 1_555
O18 Sr0 2.727252 1_555
O19 Sr4 2.592522 1_555
O20 Sr14 2.609106 1_555
O20 Sr8 2.642258 1_655
O20 Sr6 2.646998 1_545
O20 Sr1 2.673494 1_555
O21 Sr15 2.573789 1_555
O21 Sr7 2.577286 1_545
O22 Sr5 2.618934 1_555
O22 Sr9 2.682855 1_655
O22 Sr2 2.718930 1_555
O24 Sr4 2.702371 1_554
O24 Sr13 2.720676 1_554
O25 Sr10 2.605981 1_555
O25 Sr0 2.606105 1_555
O25 Sr3 2.670958 1_555
O25 Sr12 2.671511 1_555
O27 Sr11 2.594265 1_555
O28 Sr15 2.693443 1_554
O29 Sr2 2.601613 1_555
O29 Sr8 2.624186 1_655
O29 Sr5 2.664029 1_555
O29 Sr14 2.664345 1_555
O30 Sr7 2.713593 1_554
O31 Sr9 2.579311 1_655
O31 Sr1 2.639340 1_565
O31 Sr6 2.687097 1_555
O33 Sr8 2.538704 1_555
O33 Sr1 3.016507 1_455
O35 Sr9 2.513938 1_555
O35 Sr0 2.697718 1_555
O35 Sr2 2.833725 1_455
O37 Sr10 2.472225 1_555
O37 Sr1 2.625366 1_555
O39 Sr11 2.554934 1_555
O39 Sr2 2.689856 1_555
O39 Sr0 2.858437 1_555
O40 Sr12 2.519569 1_555
O40 Sr5 2.695854 1_555
O40 Sr3 2.834141 1_555
O41 Sr13 2.437840 1_555
O41 Sr4 3.017325 1_555
O42 Sr6 2.654920 1_555
O43 Sr7 2.623746 1_555
O44 Sr14 2.509979 1_555
O44 Sr3 2.691108 1_655
O44 Sr5 2.848748 1_555
O45 Sr15 2.432255 1_555
O45 Sr4 2.603625 1_655
O46 Sr6 2.956223 1_555
O47 Sr7 3.007792 1_555
O49 Sr10 2.660536 1_555
O49 Sr8 2.860928 1_555
O51 Sr0 2.483190 1_555
O51 Sr11 2.697141 1_555
O51 Sr9 2.817173 1_555
O53 Sr1 2.565383 1_555
O53 Sr8 2.705415 1_655
O53 Sr10 2.834812 1_555
O55 Sr2 2.513588 1_555
O55 Sr9 2.693507 1_655
O55 Sr11 2.841995 1_555
O55 Sr1 3.200473 1_565
O56 Sr3 2.518034 1_555
O56 Sr12 2.678023 1_555
O56 Sr14 2.834336 1_455
O57 Sr4 2.490885 1_555
O57 Sr13 2.688945 1_555
O57 Sr15 2.930474 1_455
O60 Sr5 2.552439 1_555
O60 Sr14 2.698160 1_555
O60 Sr12 2.828003 1_555
O60 Sr6 3.175296 1_545
O61 Sr15 2.683793 1_555
O61 Sr13 2.801561 1_555
O62 Sr6 2.523771 1_555
O63 Sr7 2.453017 1_555
O64 Sr12 2.466471 1_555
O65 Sr13 2.495542 1_555
O67 Sr0 2.467290 1_555
O68 Sr14 2.468048 1_555
O69 Sr1 2.441396 1_555
O69 Sr15 2.459481 1_555
O71 Sr2 2.487697 1_555
O72 Sr3 2.464902 1_555
O73 Sr8 2.430332 1_555
O73 Sr4 2.449296 1_555
O75 Sr9 2.486252 1_555
O76 Sr5 2.468950 1_555
O77 Sr10 2.477975 1_555
O78 Sr6 2.473517 1_555
O79 Sr7 2.440602 1_555
O79 Sr11 2.450184 1_555
