# generated using pymatgen
data_Li5Mn(CoO4)2
_symmetry_space_group_name_H-M   'P 1'
_cell_length_a   9.75348313
_cell_length_b   9.75348313
_cell_length_c   5.09465018
_cell_angle_alpha   86.21867935
_cell_angle_beta   86.21867935
_cell_angle_gamma   17.04164274
_symmetry_Int_Tables_number   1
_chemical_formula_structural   Li5Mn(CoO4)2
_chemical_formula_sum   'Li5 Mn1 Co2 O8'
_cell_volume   141.72044359
_cell_formula_units_Z   1
loop_
 _symmetry_equiv_pos_site_id
 _symmetry_equiv_pos_as_xyz
  1  'x, y, z'
loop_
 _atom_site_type_symbol
 _atom_site_label
 _atom_site_symmetry_multiplicity
 _atom_site_fract_x
 _atom_site_fract_y
 _atom_site_fract_z
 _atom_site_occupancy
  Li  Li0  1  0.37682500  0.37682500  0.87404200  1
  Li  Li1  1  0.62317500  0.62317500  0.12595800  1
  Li  Li2  1  0.87950100  0.87950100  0.38290900  1
  Li  Li3  1  0.12049900  0.12049900  0.61709100  1
  Li  Li4  1  0.50000000  0.50000000  0.50000000  1
  Mn  Mn0  1  0.00000000  0.00000000  0.00000000  1
  Co  Co0  1  0.24982000  0.24982000  0.25046900  1
  Co  Co1  1  0.75018000  0.75018000  0.74953100  1
  O  O0  1  0.55530400  0.55530400  0.83333000  1
  O  O1  1  0.80656100  0.80656100  0.06829700  1
  O  O2  1  0.05832200  0.05832200  0.28725500  1
  O  O3  1  0.30761900  0.30761900  0.56431800  1
  O  O4  1  0.19343900  0.19343900  0.93170300  1
  O  O5  1  0.44469600  0.44469600  0.16667000  1
  O  O6  1  0.69238100  0.69238100  0.43568200  1
  O  O7  1  0.94167800  0.94167800  0.71274500  1
loop_
_geom_bond_atom_site_label_1
_geom_bond_atom_site_label_2
_geom_bond_distance
_geom_bond_site_symmetry_2
Li0 O7 2.047427 1_455
Li0 O7 2.047427 1_545
Li0 O5 2.048735 1_556
Li0 O3 2.133855 1_555
Li0 O1 2.174031 1_546
Li0 O1 2.174031 1_456
Li1 O2 2.047427 1_655
Li1 O2 2.047427 1_565
Li1 O0 2.048735 1_554
Li1 O6 2.133855 1_555
Li1 O4 2.174031 1_654
Li1 O4 2.174031 1_564
Li2 O7 2.128699 1_555
Li2 O3 2.166734 1_655
Li2 O3 2.166734 1_565
Li2 O5 2.167767 1_565
Li2 O5 2.167767 1_655
Li2 O1 2.202252 1_555
Li3 O2 2.128699 1_555
Li3 O6 2.166734 1_545
Li3 O6 2.166734 1_455
Li3 O0 2.167767 1_545
Li3 O0 2.167767 1_455
Li3 O4 2.202252 1_555
Li4 O5 2.064900 1_555
Li4 O0 2.064900 1_555
Li4 O2 2.089622 1_655
Li4 O2 2.089622 1_565
Li4 O7 2.089622 1_545
Li4 O7 2.089622 1_455
Mn0 O2 1.904532 1_555
Mn0 O7 1.904532 1_444
Mn0 O0 1.956264 1_454
Mn0 O5 1.956264 1_455
Mn0 O5 1.956264 1_545
Mn0 O0 1.956264 1_544
Co0 O1 2.003143 1_545
Co0 O1 2.003143 1_455
Co0 O3 2.009412 1_555
Co0 O4 2.013955 1_554
Co0 O6 2.016751 1_455
Co0 O6 2.016751 1_545
Co1 O4 2.003143 1_655
Co1 O4 2.003143 1_565
Co1 O6 2.009412 1_555
Co1 O1 2.013955 1_556
Co1 O3 2.016751 1_655
Co1 O3 2.016751 1_565
