# generated using pymatgen
data_ZrSO6
_symmetry_space_group_name_H-M   'P 1'
_cell_length_a   5.74091500
_cell_length_b   6.91176000
_cell_length_c   11.45150400
_cell_angle_alpha   90.00000000
_cell_angle_beta   90.00000000
_cell_angle_gamma   90.00000000
_symmetry_Int_Tables_number   1
_chemical_formula_structural   ZrSO6
_chemical_formula_sum   'Zr4 S4 O24'
_cell_volume   454.39369372
_cell_formula_units_Z   4
loop_
 _symmetry_equiv_pos_site_id
 _symmetry_equiv_pos_as_xyz
  1  'x, y, z'
loop_
 _atom_site_type_symbol
 _atom_site_label
 _atom_site_symmetry_multiplicity
 _atom_site_fract_x
 _atom_site_fract_y
 _atom_site_fract_z
 _atom_site_occupancy
  Zr  Zr0  1  0.25000000  0.33208300  0.57181900  1
  Zr  Zr1  1  0.25000000  0.16791700  0.07181900  1
  Zr  Zr2  1  0.75000000  0.66791700  0.42818100  1
  Zr  Zr3  1  0.75000000  0.83208300  0.92818100  1
  S  S0  1  0.25000000  0.54695100  0.85624100  1
  S  S1  1  0.25000000  0.95304900  0.35624100  1
  S  S2  1  0.75000000  0.45304900  0.14375900  1
  S  S3  1  0.75000000  0.04695100  0.64375900  1
  O  O0  1  0.25000000  0.43324400  0.96585800  1
  O  O1  1  0.25000000  0.06675600  0.46585800  1
  O  O2  1  0.75000000  0.56675600  0.03414200  1
  O  O3  1  0.75000000  0.93324400  0.53414200  1
  O  O4  1  0.25000000  0.41396000  0.75580300  1
  O  O5  1  0.25000000  0.08604000  0.25580300  1
  O  O6  1  0.75000000  0.58604000  0.24419700  1
  O  O7  1  0.75000000  0.91396000  0.74419700  1
  O  O8  1  0.04014700  0.67045400  0.85032600  1
  O  O9  1  0.45985300  0.82954600  0.35032600  1
  O  O10  1  0.54014700  0.32954600  0.14967400  1
  O  O11  1  0.95985300  0.17045400  0.64967400  1
  O  O12  1  0.95985300  0.32954600  0.14967400  1
  O  O13  1  0.54014700  0.17045400  0.64967400  1
  O  O14  1  0.45985300  0.67045400  0.85032600  1
  O  O15  1  0.04014700  0.82954600  0.35032600  1
  O  O16  1  0.99943300  0.06493400  0.94663400  1
  O  O17  1  0.50056700  0.43506600  0.44663400  1
  O  O18  1  0.49943300  0.93506600  0.05336600  1
  O  O19  1  0.00056700  0.56493400  0.55336600  1
  O  O20  1  0.00056700  0.93506600  0.05336600  1
  O  O21  1  0.49943300  0.56493400  0.55336600  1
  O  O22  1  0.50056700  0.06493400  0.94663400  1
  O  O23  1  0.99943300  0.43506600  0.44663400  1
loop_
_geom_bond_atom_site_label_1
_geom_bond_atom_site_label_2
_geom_bond_distance
_geom_bond_site_symmetry_2
O0 S0 1.481010 1_555
O0 Zr1 2.198971 1_556
O1 S1 1.481010 1_545
O1 Zr0 2.198971 1_555
O2 S2 1.481010 1_555
O2 Zr3 2.198971 1_554
O3 S3 1.481010 1_565
O3 Zr2 2.198971 1_555
O4 S0 1.472350 1_555
O4 Zr0 2.181573 1_555
O5 S1 1.472350 1_545
O5 Zr1 2.181573 1_555
O6 S2 1.472350 1_555
O6 Zr2 2.181573 1_555
O7 S3 1.472350 1_565
O7 Zr3 2.181573 1_555
O8 S0 1.478066 1_555
O8 Zr3 2.194872 1_455
O9 S1 1.478066 1_555
O9 Zr2 2.194872 1_555
O10 S2 1.478066 1_555
O10 Zr1 2.194872 1_555
O11 S3 1.478066 1_555
O11 Zr0 2.194872 1_655
O12 S2 1.478066 1_555
O12 Zr1 2.194872 1_655
O13 S3 1.478066 1_555
O13 Zr0 2.194872 1_555
O14 S0 1.478066 1_555
O14 Zr3 2.194872 1_555
O15 S1 1.478066 1_555
O15 Zr2 2.194872 1_455
O16 O20 1.516454 1_646
O16 Zr1 2.151969 1_656
O16 Zr3 2.164579 1_545
O17 O21 1.516454 1_555
O17 Zr0 2.151969 1_555
O17 Zr2 2.164579 1_555
O18 O22 1.516454 1_564
O18 Zr3 2.151969 1_554
O18 Zr1 2.164579 1_565
O19 O23 1.516454 1_455
O19 Zr2 2.151969 1_455
O19 Zr0 2.164579 1_555
O20 Zr3 2.151969 1_454
O20 Zr1 2.164579 1_565
O21 Zr2 2.151969 1_555
O21 Zr0 2.164579 1_555
O22 Zr1 2.151969 1_556
O22 Zr3 2.164579 1_545
O23 Zr0 2.151969 1_655
O23 Zr2 2.164579 1_555
