# generated using pymatgen
data_TiAlO3
_symmetry_space_group_name_H-M   'P 1'
_cell_length_a   5.49789459
_cell_length_b   5.49449102
_cell_length_c   12.00178100
_cell_angle_alpha   89.99892428
_cell_angle_beta   89.99927647
_cell_angle_gamma   119.87193301
_symmetry_Int_Tables_number   1
_chemical_formula_structural   TiAlO3
_chemical_formula_sum   'Ti6 Al6 O18'
_cell_volume   314.38311486
_cell_formula_units_Z   6
loop_
 _symmetry_equiv_pos_site_id
 _symmetry_equiv_pos_as_xyz
  1  'x, y, z'
loop_
 _atom_site_type_symbol
 _atom_site_label
 _atom_site_symmetry_multiplicity
 _atom_site_fract_x
 _atom_site_fract_y
 _atom_site_fract_z
 _atom_site_occupancy
  Ti  Ti0  1  0.66937000  0.95766700  0.50067600  1
  Ti  Ti1  1  0.62123400  0.62074400  0.00199200  1
  Ti  Ti2  1  0.04353800  0.33202300  0.00154000  1
  Ti  Ti3  1  0.95570300  0.66608800  0.50092400  1
  Ti  Ti4  1  0.37789600  0.37979800  0.50329500  1
  Ti  Ti5  1  0.33238200  0.04301700  0.00139100  1
  Al  Al0  1  0.66314800  0.33429700  0.25206900  1
  Al  Al1  1  0.33604300  0.66666000  0.75199600  1
  Al  Al2  1  0.66733800  0.33603500  0.75201900  1
  Al  Al3  1  0.33366200  0.66319100  0.25189500  1
  Al  Al4  1  0.00028600  0.00055200  0.75105800  1
  Al  Al5  1  0.99939000  0.99983200  0.25100900  1
  O  O0  1  0.69947800  0.33065400  0.00257200  1
  O  O1  1  0.30156900  0.67144300  0.50303900  1
  O  O2  1  0.66623500  0.29943300  0.50324000  1
  O  O3  1  0.33159000  0.69928200  0.00255900  1
  O  O4  1  0.96510300  0.96444600  0.99978600  1
  O  O5  1  0.03627300  0.03427300  0.49872900  1
  O  O6  1  0.33518800  0.00541000  0.82650500  1
  O  O7  1  0.34061100  0.34187400  0.32927500  1
  O  O8  1  0.99352300  0.66346100  0.32673300  1
  O  O9  1  0.00556600  0.33512400  0.82704100  1
  O  O10  1  0.65921900  0.65898900  0.82923000  1
  O  O11  1  0.66567000  0.99522100  0.32668100  1
  O  O12  1  0.33069200  0.00433500  0.17689000  1
  O  O13  1  0.33668100  0.33816200  0.67419300  1
  O  O14  1  0.99495200  0.66846200  0.67664200  1
  O  O15  1  0.00481200  0.33089300  0.17634300  1
  O  O16  1  0.66236600  0.66241700  0.17400000  1
  O  O17  1  0.67048300  0.99621800  0.67667600  1
loop_
_geom_bond_atom_site_label_1
_geom_bond_atom_site_label_2
_geom_bond_distance
_geom_bond_site_symmetry_2
Al0 O7 2.019490 1_555
Al0 O8 2.025079 1_555
Al0 O16 2.033681 1_555
Al0 O12 2.034955 1_555
Al0 O11 2.073330 1_545
Al0 O15 2.095189 1_655
Al1 O10 2.023022 1_555
Al1 O9 2.033152 1_555
Al1 O13 2.033737 1_555
Al1 O17 2.039659 1_555
Al1 O6 2.067063 1_565
Al1 O14 2.086439 1_455
Al2 O10 2.021981 1_555
Al2 O14 2.030170 1_555
Al2 O6 2.032088 1_555
Al2 O13 2.049053 1_555
Al2 O9 2.068321 1_655
Al2 O17 2.082386 1_545
Al3 O7 2.011955 1_555
Al3 O15 2.033827 1_555
Al3 O16 2.036548 1_555
Al3 O11 2.036828 1_555
Al3 O8 2.075222 1_455
Al3 O12 2.086735 1_565
Al4 O17 2.010551 1_445
Al4 O14 2.018587 1_445
Al4 O9 2.039295 1_555
Al4 O6 2.040086 1_555
Al4 O13 2.072438 1_555
Al4 O10 2.100684 1_445
Al5 O15 2.014611 1_665
Al5 O12 2.016116 1_665
Al5 O11 2.036039 1_555
Al5 O8 2.045323 1_555
Al5 O16 2.074325 1_555
Al5 O7 2.102801 1_665
O0 Ti5 1.842267 1_555
O0 Ti1 1.846242 1_555
O0 Ti2 1.887911 1_655
O1 Ti0 1.842624 1_555
O1 Ti4 1.847637 1_555
O1 Ti3 1.887224 1_455
O2 Ti3 1.843463 1_555
O2 Ti4 1.845346 1_555
O2 Ti0 1.886726 1_545
O3 Ti2 1.843038 1_555
O3 Ti1 1.845702 1_555
O3 Ti5 1.886536 1_565
O4 Ti5 1.842771 1_666
O4 Ti2 1.843320 1_666
O4 Ti1 1.893353 1_556
O5 Ti3 1.843028 1_445
O5 Ti0 1.844183 1_445
O5 Ti4 1.892876 1_555
O6 Ti5 2.109903 1_556
O7 Ti4 2.098799 1_555
O8 Ti3 2.101676 1_555
O9 Ti2 2.105591 1_556
O10 Ti1 2.084042 1_556
O11 Ti0 2.099510 1_555
O12 Ti5 2.116548 1_555
O13 Ti4 2.063721 1_555
O14 Ti3 2.119322 1_555
O15 Ti2 2.108417 1_555
O16 Ti1 2.076963 1_555
O17 Ti0 2.122616 1_555
