# generated using pymatgen
data_Pb5F8
_symmetry_space_group_name_H-M   'P 1'
_cell_length_a   10.99931885
_cell_length_b   10.99931885
_cell_length_c   12.09103247
_cell_angle_alpha   73.58742357
_cell_angle_beta   73.58742357
_cell_angle_gamma   21.91320245
_symmetry_Int_Tables_number   1
_chemical_formula_structural   Pb5F8
_chemical_formula_sum   'Pb10 F16'
_cell_volume   522.83406710
_cell_formula_units_Z   2
loop_
 _symmetry_equiv_pos_site_id
 _symmetry_equiv_pos_as_xyz
  1  'x, y, z'
loop_
 _atom_site_type_symbol
 _atom_site_label
 _atom_site_symmetry_multiplicity
 _atom_site_fract_x
 _atom_site_fract_y
 _atom_site_fract_z
 _atom_site_occupancy
  Pb  Pb0  1  0.99672100  0.99672100  0.99740400  1
  Pb  Pb1  1  0.60265900  0.60265900  0.20040800  1
  Pb  Pb2  1  0.20236700  0.20236700  0.40897600  1
  Pb  Pb3  1  0.59845000  0.59845000  0.70088500  1
  Pb  Pb4  1  0.80193500  0.80193500  0.60866600  1
  Pb  Pb5  1  0.40201900  0.40201900  0.80078500  1
  Pb  Pb6  1  0.40142800  0.40142800  0.29400400  1
  Pb  Pb7  1  0.19581000  0.19581000  0.91907900  1
  Pb  Pb8  1  0.78762600  0.78762600  0.10245200  1
  Pb  Pb9  1  0.00295400  0.00295400  0.47932200  1
  F  F0  1  0.11764900  0.11764900  0.31365700  1
  F  F1  1  0.10110000  0.10110000  0.82620500  1
  F  F2  1  0.30172600  0.30172600  0.73152700  1
  F  F3  1  0.09836600  0.09836600  0.57691100  1
  F  F4  1  0.69988900  0.69988900  0.77490500  1
  F  F5  1  0.49417700  0.49417700  0.10938400  1
  F  F6  1  0.08601100  0.08601100  0.07962200  1
  F  F7  1  0.29843200  0.29843200  0.98322300  1
  F  F8  1  0.29625300  0.29625300  0.23161100  1
  F  F9  1  0.90322000  0.90322000  0.41332300  1
  F  F10  1  0.70562000  0.70562000  0.29547100  1
  F  F11  1  0.89831000  0.89831000  0.17425900  1
  F  F12  1  0.49872500  0.49872500  0.63608300  1
  F  F13  1  0.30210600  0.30210600  0.48119100  1
  F  F14  1  0.90232100  0.90232100  0.64475900  1
  F  F15  1  0.50412600  0.50412600  0.86588700  1
loop_
_geom_bond_atom_site_label_1
_geom_bond_atom_site_label_2
_geom_bond_distance
_geom_bond_site_symmetry_2
F0 Pb2 2.426909 1_555
F0 Pb1 2.570121 1_455
F0 Pb1 2.570121 1_545
F0 Pb9 2.700453 1_555
F1 Pb0 2.584736 1_445
F1 Pb3 2.592246 1_545
F1 Pb3 2.592246 1_455
F1 Pb7 2.601396 1_555
F2 Pb5 2.537175 1_555
F2 Pb4 2.563881 1_455
F2 Pb4 2.563881 1_545
F2 Pb7 2.718345 1_555
F3 Pb2 2.557937 1_555
F3 Pb3 2.572753 1_455
F3 Pb3 2.572753 1_545
F3 Pb9 2.652965 1_555
F4 Pb4 2.519454 1_555
F4 Pb3 2.594105 1_555
F4 Pb7 2.707161 1_655
F4 Pb7 2.707161 1_565
F5 Pb0 2.482732 1_454
F5 Pb0 2.482732 1_544
F5 Pb6 2.534120 1_555
F6 Pb0 2.410524 1_444
F6 Pb7 2.596524 1_554
F6 Pb1 2.633429 1_455
F6 Pb1 2.633429 1_545
F7 Pb8 2.511890 1_546
F7 Pb8 2.511890 1_456
F7 Pb7 2.550162 1_555
F7 Pb5 2.651502 1_555
F8 Pb2 2.491515 1_555
F8 Pb6 2.591395 1_555
F8 Pb8 2.647936 1_455
F8 Pb8 2.647936 1_545
F9 Pb9 2.503195 1_665
F9 Pb6 2.546676 1_655
F9 Pb6 2.546676 1_565
F9 Pb4 2.718430 1_555
F10 Pb2 2.490676 1_565
F10 Pb2 2.490676 1_655
F10 Pb8 2.490848 1_555
F11 Pb0 2.544412 1_554
F11 Pb6 2.554890 1_655
F11 Pb6 2.554890 1_565
F11 Pb8 2.768213 1_555
F12 Pb5 2.435979 1_555
F12 Pb3 2.494840 1_555
F13 Pb2 2.546623 1_555
F13 Pb4 2.596714 1_545
F13 Pb4 2.596714 1_455
F13 Pb6 2.632388 1_555
F14 Pb4 2.331461 1_555
F14 Pb9 2.494516 1_665
F15 Pb3 2.406432 1_555
F15 Pb5 2.545974 1_555
F15 Pb0 2.603540 1_545
F15 Pb0 2.603540 1_455
