# generated using pymatgen
data_Rb4Cu8(GeS4)3
_symmetry_space_group_name_H-M   'P 1'
_cell_length_a   12.69432873
_cell_length_b   12.69432873
_cell_length_c   12.33754965
_cell_angle_alpha   60.92544415
_cell_angle_beta   119.07455585
_cell_angle_gamma   121.85088830
_symmetry_Int_Tables_number   1
_chemical_formula_structural   Rb4Cu8(GeS4)3
_chemical_formula_sum   'Rb8 Cu16 Ge6 S24'
_cell_volume   1403.67126239
_cell_formula_units_Z   2
loop_
 _symmetry_equiv_pos_site_id
 _symmetry_equiv_pos_as_xyz
  1  'x, y, z'
loop_
 _atom_site_type_symbol
 _atom_site_label
 _atom_site_symmetry_multiplicity
 _atom_site_fract_x
 _atom_site_fract_y
 _atom_site_fract_z
 _atom_site_occupancy
  Rb  Rb0  1  0.57403046  0.07403046  0.07403046  1
  Rb  Rb1  1  0.92596954  0.42596954  0.42596954  1
  Rb  Rb2  1  0.07403046  0.57403046  0.92596954  1
  Rb  Rb3  1  0.42596954  0.92596954  0.57403046  1
  Rb  Rb4  1  0.09860142  0.90139858  0.59860142  1
  Rb  Rb5  1  0.40139858  0.59860142  0.90139858  1
  Rb  Rb6  1  0.59860142  0.40139858  0.09860142  1
  Rb  Rb7  1  0.90139858  0.09860142  0.40139858  1
  Cu  Cu0  1  0.90947781  0.72810070  0.09050278  1
  Cu  Cu1  1  0.90912567  0.09050278  0.72810070  1
  Cu  Cu2  1  0.90949722  0.09087433  0.09052219  1
  Cu  Cu3  1  0.27189930  0.09052219  0.09087433  1
  Cu  Cu4  1  0.40947781  0.22810070  0.59087433  1
  Cu  Cu5  1  0.40949722  0.59087433  0.22810070  1
  Cu  Cu6  1  0.40912567  0.59050278  0.59052219  1
  Cu  Cu7  1  0.77189930  0.59052219  0.59050278  1
  Cu  Cu8  1  0.08673411  0.27201933  0.91062542  1
  Cu  Cu9  1  0.09591064  0.91062542  0.27201933  1
  Cu  Cu10  1  0.08937458  0.90408936  0.91326589  1
  Cu  Cu11  1  0.72798067  0.91326589  0.90408936  1
  Cu  Cu12  1  0.58673411  0.77201933  0.40408936  1
  Cu  Cu13  1  0.58937458  0.40408936  0.77201933  1
  Cu  Cu14  1  0.59591064  0.41062542  0.41326589  1
  Cu  Cu15  1  0.22798067  0.41326589  0.41062542  1
  Ge  Ge0  1  0.75063952  0.75063952  0.24936048  1
  Ge  Ge1  1  0.24936048  0.24936048  0.75063952  1
  Ge  Ge2  1  0.75000000  0.25000000  0.75000000  1
  Ge  Ge3  1  0.25000000  0.75000000  0.25000000  1
  Ge  Ge4  1  0.74936048  0.74936048  0.74936048  1
  Ge  Ge5  1  0.25063952  0.25063952  0.25063952  1
  S  S0  1  0.92520061  0.71953302  0.28322298  1
  S  S1  1  0.07755539  0.28322298  0.71953302  1
  S  S2  1  0.71677702  0.92244461  0.07479939  1
  S  S3  1  0.28046698  0.07479939  0.92244461  1
  S  S4  1  0.56841116  0.21408324  0.77998879  1
  S  S5  1  0.42566087  0.77998879  0.21408324  1
  S  S6  1  0.22001121  0.57433913  0.43158884  1
  S  S7  1  0.78591676  0.43158884  0.57433913  1
  S  S8  1  0.92566087  0.27998879  0.93158884  1
  S  S9  1  0.06841116  0.71408324  0.07433913  1
  S  S10  1  0.72001121  0.07433913  0.71408324  1
  S  S11  1  0.28591676  0.93158884  0.27998879  1
  S  S12  1  0.57755539  0.78322298  0.57479939  1
  S  S13  1  0.42520061  0.21953302  0.42244461  1
  S  S14  1  0.21677702  0.42244461  0.21953302  1
  S  S15  1  0.78046698  0.57479939  0.78322298  1
  S  S16  1  0.93196757  0.93015541  0.72074454  1
  S  S17  1  0.06984459  0.06803243  0.28106763  1
  S  S18  1  0.71893237  0.72074454  0.93015541  1
  S  S19  1  0.27925546  0.28106763  0.06803243  1
  S  S20  1  0.56984459  0.56803243  0.22074454  1
  S  S21  1  0.43196757  0.43015541  0.78106763  1
  S  S22  1  0.21893237  0.22074454  0.56803243  1
  S  S23  1  0.77925546  0.78106763  0.43015541  1
loop_
_geom_bond_atom_site_label_1
_geom_bond_atom_site_label_2
_geom_bond_distance
_geom_bond_site_symmetry_2
Rb0 S4 3.152847 1_554
Rb0 S5 3.152847 1_545
Rb0 S2 3.260718 1_545
Rb0 S3 3.260718 1_554
Rb1 S7 3.152847 1_555
Rb1 S6 3.152847 1_655
Rb1 S0 3.260718 1_555
Rb1 S1 3.260718 1_655
Rb2 S8 3.152847 1_455
Rb2 S9 3.152847 1_556
Rb2 S15 3.260718 1_455
Rb2 S14 3.260718 1_556
Rb3 S10 3.152847 1_565
Rb3 S11 3.152847 1_555
Rb3 S12 3.260718 1_555
Rb3 S13 3.260718 1_565
Rb4 S17 3.365465 1_565
Rb4 S16 3.365466 1_455
Rb4 S23 3.383477 1_455
Rb4 S22 3.383477 1_565
Rb5 S18 3.365465 1_555
Rb5 S19 3.365465 1_556
Rb5 S21 3.383477 1_555
Rb5 S20 3.383477 1_556
Rb6 S21 3.365465 1_554
Rb6 S20 3.365466 1_555
Rb6 S18 3.383477 1_554
Rb6 S19 3.383477 1_555
Rb7 S23 3.365465 1_545
Rb7 S22 3.365465 1_655
Rb7 S17 3.383477 1_655
Rb7 S16 3.383477 1_545
Cu0 S9 2.224044 1_655
Cu0 S0 2.239520 1_555
Cu0 S18 2.250252 1_554
Cu1 S10 2.224044 1_555
Cu1 S1 2.239520 1_655
Cu1 S16 2.250252 1_545
Cu2 S8 2.224044 1_554
Cu2 S2 2.239520 1_545
Cu2 S17 2.250252 1_655
Cu3 S11 2.224044 1_545
Cu3 S3 2.239520 1_554
Cu3 S19 2.250252 1_555
Cu4 S4 2.224044 1_555
Cu4 S13 2.239520 1_555
Cu4 S22 2.250252 1_555
Cu5 S5 2.224044 1_555
Cu5 S14 2.239520 1_555
Cu5 S20 2.250252 1_555
Cu6 S6 2.224044 1_555
Cu6 S12 2.239520 1_555
Cu6 S21 2.250252 1_555
Cu7 S7 2.224044 1_555
Cu7 S15 2.239520 1_555
Cu7 S23 2.250252 1_555
Cu8 S8 2.239581 1_455
Cu8 S1 2.239813 1_555
Cu8 S19 2.250595 1_556
Cu9 S11 2.239581 1_555
Cu9 S0 2.239813 1_455
Cu9 S17 2.250595 1_565
Cu10 S9 2.239581 1_556
Cu10 S3 2.239813 1_565
Cu10 S16 2.250595 1_455
Cu11 S10 2.239581 1_565
Cu11 S2 2.239813 1_556
Cu11 S18 2.250595 1_555
Cu12 S5 2.239581 1_555
Cu12 S12 2.239813 1_555
Cu12 S23 2.250595 1_555
Cu13 S4 2.239581 1_555
Cu13 S15 2.239813 1_555
Cu13 S21 2.250595 1_555
Cu14 S7 2.239581 1_555
Cu14 S13 2.239813 1_555
Cu14 S20 2.250595 1_555
Cu15 S6 2.239581 1_555
Cu15 S14 2.239813 1_555
Cu15 S22 2.250595 1_555
Ge0 S2 2.259262 1_555
Ge0 S0 2.259262 1_555
Ge0 S20 2.271203 1_555
Ge0 S23 2.271203 1_555
Ge1 S3 2.259262 1_555
Ge1 S1 2.259262 1_555
Ge1 S22 2.271203 1_555
Ge1 S21 2.271203 1_555
Ge2 S4 2.283458 1_555
Ge2 S10 2.283458 1_555
Ge2 S8 2.283458 1_555
Ge2 S7 2.283458 1_555
Ge3 S11 2.283458 1_555
Ge3 S9 2.283458 1_555
Ge3 S6 2.283458 1_555
Ge3 S5 2.283458 1_555
Ge4 S12 2.259262 1_555
Ge4 S15 2.259262 1_555
Ge4 S16 2.271203 1_555
Ge4 S18 2.271203 1_555
Ge5 S14 2.259262 1_555
Ge5 S13 2.259262 1_555
Ge5 S19 2.271203 1_555
Ge5 S17 2.271203 1_555
