# generated using pymatgen
data_BaYCuMoO5
_symmetry_space_group_name_H-M   'P 1'
_cell_length_a   4.02652300
_cell_length_b   4.02652300
_cell_length_c   7.89682200
_cell_angle_alpha   90.00000000
_cell_angle_beta   90.00000000
_cell_angle_gamma   90.00000000
_symmetry_Int_Tables_number   1
_chemical_formula_structural   BaYCuMoO5
_chemical_formula_sum   'Ba1 Y1 Cu1 Mo1 O5'
_cell_volume   128.03028645
_cell_formula_units_Z   1
loop_
 _symmetry_equiv_pos_site_id
 _symmetry_equiv_pos_as_xyz
  1  'x, y, z'
loop_
 _atom_site_type_symbol
 _atom_site_label
 _atom_site_symmetry_multiplicity
 _atom_site_fract_x
 _atom_site_fract_y
 _atom_site_fract_z
 _atom_site_occupancy
  Ba  Ba0  1  0.00000000  0.00000000  0.99494000  1
  Y  Y0  1  0.00000000  0.00000000  0.44264800  1
  Cu  Cu0  1  0.50000000  0.50000000  0.27011700  1
  Mo  Mo0  1  0.50000000  0.50000000  0.68553000  1
  O  O0  1  0.00000000  0.50000000  0.64301900  1
  O  O1  1  0.50000000  0.00000000  0.64301900  1
  O  O2  1  0.00000000  0.50000000  0.28256600  1
  O  O3  1  0.50000000  0.00000000  0.28256600  1
  O  O4  1  0.50000000  0.50000000  0.94351100  1
loop_
_geom_bond_atom_site_label_1
_geom_bond_atom_site_label_2
_geom_bond_distance
_geom_bond_site_symmetry_2
Ba0 O4 2.876001 1_445
Ba0 O4 2.876001 1_545
Ba0 O4 2.876001 1_455
Ba0 O4 2.876001 1_555
Ba0 O2 3.035155 1_556
Ba0 O3 3.035155 1_456
Ba0 O3 3.035155 1_556
Ba0 O2 3.035155 1_546
Cu0 O2 2.015660 1_655
Cu0 O3 2.015660 1_555
Cu0 O2 2.015660 1_555
Cu0 O3 2.015660 1_565
Cu0 O4 2.579149 1_554
Mo0 O4 2.037230 1_555
Mo0 O0 2.041058 1_655
Mo0 O1 2.041058 1_555
Mo0 O1 2.041058 1_565
Mo0 O0 2.041058 1_555
O0 Y0 2.560640 1_555
O0 Y0 2.560640 1_565
O1 Y0 2.560640 1_555
O1 Y0 2.560640 1_655
O2 Y0 2.377240 1_565
O2 Y0 2.377240 1_555
O3 Y0 2.377240 1_655
O3 Y0 2.377240 1_555
