# generated using pymatgen
data_Rb3NdF6
_symmetry_space_group_name_H-M   'P 1'
_cell_length_a   7.18110436
_cell_length_b   7.18110436
_cell_length_c   7.18110436
_cell_angle_alpha   117.30736506
_cell_angle_beta   117.30736506
_cell_angle_gamma   94.73069618
_symmetry_Int_Tables_number   1
_chemical_formula_structural   Rb3NdF6
_chemical_formula_sum   'Rb3 Nd1 F6'
_cell_volume   271.50955885
_cell_formula_units_Z   1
loop_
 _symmetry_equiv_pos_site_id
 _symmetry_equiv_pos_as_xyz
  1  'x, y, z'
loop_
 _atom_site_type_symbol
 _atom_site_label
 _atom_site_symmetry_multiplicity
 _atom_site_fract_x
 _atom_site_fract_y
 _atom_site_fract_z
 _atom_site_occupancy
  Rb  Rb0  1  0.75000000  0.25000000  0.50000000  1
  Rb  Rb1  1  0.25000000  0.75000000  0.50000000  1
  Rb  Rb2  1  0.50000000  0.50000000  0.00000000  1
  Nd  Nd0  1  0.00000000  0.00000000  0.00000000  1
  F  F0  1  0.00000000  0.30584300  0.30584300  1
  F  F1  1  0.00000000  0.69415700  0.69415700  1
  F  F2  1  0.30584300  0.00000000  0.30584300  1
  F  F3  1  0.69415700  0.00000000  0.69415700  1
  F  F4  1  0.23713900  0.23713900  0.00000000  1
  F  F5  1  0.76286100  0.76286100  0.00000000  1
loop_
_geom_bond_atom_site_label_1
_geom_bond_atom_site_label_2
_geom_bond_distance
_geom_bond_site_symmetry_2
F0 Nd0 2.285063 1_555
F0 Rb0 2.831731 1_455
F0 Rb1 2.831731 1_555
F1 Nd0 2.285063 1_566
F1 Rb0 2.831731 1_455
F1 Rb1 2.831731 1_555
F2 Nd0 2.285063 1_555
F2 Rb1 2.831731 1_545
F2 Rb0 2.831731 1_555
F3 Nd0 2.285063 1_656
F3 Rb1 2.831731 1_545
F3 Rb0 2.831731 1_555
F4 Nd0 2.306847 1_555
F4 Rb2 2.557066 1_555
F5 Nd0 2.306847 1_665
F5 Rb2 2.557066 1_555
