# generated using pymatgen
data_K2CuSbF6
_symmetry_space_group_name_H-M   'P 1'
_cell_length_a   6.24438525
_cell_length_b   6.24438540
_cell_length_c   6.24438539
_cell_angle_alpha   59.99999933
_cell_angle_beta   59.99999909
_cell_angle_gamma   59.99999910
_symmetry_Int_Tables_number   1
_chemical_formula_structural   K2CuSbF6
_chemical_formula_sum   'K2 Cu1 Sb1 F6'
_cell_volume   172.16865316
_cell_formula_units_Z   1
loop_
 _symmetry_equiv_pos_site_id
 _symmetry_equiv_pos_as_xyz
  1  'x, y, z'
loop_
 _atom_site_type_symbol
 _atom_site_label
 _atom_site_symmetry_multiplicity
 _atom_site_fract_x
 _atom_site_fract_y
 _atom_site_fract_z
 _atom_site_occupancy
  K  K0  1  0.25000000  0.25000000  0.25000000  1
  K  K1  1  0.75000000  0.75000000  0.75000000  1
  Cu  Cu0  1  0.50000000  0.50000000  0.50000000  1
  Sb  Sb0  1  0.00000000  0.00000000  0.00000000  1
  F  F0  1  0.25042915  0.74957085  0.25042915  1
  F  F1  1  0.74957085  0.74957085  0.25042915  1
  F  F2  1  0.74957085  0.25042915  0.74957085  1
  F  F3  1  0.74957085  0.25042915  0.25042915  1
  F  F4  1  0.25042915  0.74957085  0.74957085  1
  F  F5  1  0.25042915  0.25042915  0.74957085  1
loop_
_geom_bond_atom_site_label_1
_geom_bond_atom_site_label_2
_geom_bond_distance
_geom_bond_site_symmetry_2
Cu0 F0 2.203934 1_555
Cu0 F2 2.203934 1_555
Cu0 F5 2.203934 1_555
Cu0 F1 2.203934 1_555
Cu0 F3 2.203934 1_555
Cu0 F4 2.203934 1_555
F0 Sb0 2.211513 1_565
F0 K1 3.122195 1_455
F0 K1 3.122195 1_554
F0 K0 3.122195 1_565
F0 K0 3.122195 1_555
F1 Sb0 2.211513 1_665
F1 K0 3.122195 1_655
F1 K0 3.122195 1_565
F1 K1 3.122195 1_554
F1 K1 3.122195 1_555
F2 Sb0 2.211513 1_656
F2 K0 3.122195 1_655
F2 K0 3.122195 1_556
F2 K1 3.122195 1_545
F2 K1 3.122195 1_555
F3 Sb0 2.211513 1_655
F3 K0 3.122195 1_655
F3 K0 3.122195 1_555
F3 K1 3.122195 1_554
F3 K1 3.122195 1_545
F4 Sb0 2.211513 1_566
F4 K1 3.122195 1_455
F4 K1 3.122195 1_555
F4 K0 3.122195 1_556
F4 K0 3.122195 1_565
F5 Sb0 2.211513 1_556
F5 K1 3.122195 1_455
F5 K1 3.122195 1_545
F5 K0 3.122195 1_556
F5 K0 3.122195 1_555
