# generated using pymatgen
data_BCl
_symmetry_space_group_name_H-M   'P 1'
_cell_length_a   11.70534586
_cell_length_b   9.71803553
_cell_length_c   11.72204267
_cell_angle_alpha   81.17761836
_cell_angle_beta   83.75397808
_cell_angle_gamma   80.89484325
_symmetry_Int_Tables_number   1
_chemical_formula_structural   BCl
_chemical_formula_sum   'B18 Cl18'
_cell_volume   1296.14674345
_cell_formula_units_Z   18
loop_
 _symmetry_equiv_pos_site_id
 _symmetry_equiv_pos_as_xyz
  1  'x, y, z'
loop_
 _atom_site_type_symbol
 _atom_site_label
 _atom_site_symmetry_multiplicity
 _atom_site_fract_x
 _atom_site_fract_y
 _atom_site_fract_z
 _atom_site_occupancy
  B  B0  1  0.27151700  0.49066800  0.27060700  1
  B  B1  1  0.25832700  0.24354700  0.42705300  1
  B  B2  1  0.22522300  0.41837800  0.40019600  1
  B  B3  1  0.23511000  0.74002600  0.72460200  1
  B  B4  1  0.24063100  0.65272300  0.23898000  1
  B  B5  1  0.29651700  0.25291400  0.78386100  1
  B  B6  1  0.40214400  0.41845100  0.22578300  1
  B  B7  1  0.40138600  0.21652300  0.40017300  1
  B  B8  1  0.42745000  0.24355200  0.25733200  1
  B  B9  1  0.59349300  0.76604100  0.74310700  1
  B  B10  1  0.59965200  0.74543500  0.59828700  1
  B  B11  1  0.61348000  0.60390700  0.71691700  1
  B  B12  1  0.72728500  0.74230500  0.23172100  1
  B  B13  1  0.73213500  0.34143000  0.73112000  1
  B  B14  1  0.78621300  0.24834900  0.29891900  1
  B  B15  1  0.71801100  0.60301800  0.61299300  1
  B  B16  1  0.81390500  0.41468800  0.81190700  1
  B  B17  1  0.74479000  0.76464700  0.59344800  1
  Cl  Cl0  1  0.09388800  0.79423000  0.77604100  1
  Cl  Cl1  1  0.16313700  0.11998500  0.47594000  1
  Cl  Cl2  1  0.14729000  0.51336700  0.51043600  1
  Cl  Cl3  1  0.22271500  0.82882600  0.22004000  1
  Cl  Cl4  1  0.24712800  0.23811900  0.92878600  1
  Cl  Cl5  1  0.54131000  0.88462500  0.83616500  1
  Cl  Cl6  1  0.50339800  0.17897000  0.50303900  1
  Cl  Cl7  1  0.51588800  0.50866500  0.15061500  1
  Cl  Cl8  1  0.56490900  0.43177200  0.76202500  1
  Cl  Cl9  1  0.50059800  0.81498400  0.49746700  1
  Cl  Cl10  1  0.47623300  0.11808800  0.16326600  1
  Cl  Cl11  1  0.77652500  0.79545800  0.09006000  1
  Cl  Cl12  1  0.74365900  0.15651800  0.74314300  1
  Cl  Cl13  1  0.76259400  0.43038900  0.56414700  1
  Cl  Cl14  1  0.76312300  0.44579800  0.95303400  1
  Cl  Cl15  1  0.92938500  0.24351800  0.24376100  1
  Cl  Cl16  1  0.83825600  0.88220500  0.54198200  1
  Cl  Cl17  1  0.95579800  0.44218100  0.76084800  1
loop_
_geom_bond_atom_site_label_1
_geom_bond_atom_site_label_2
_geom_bond_distance
_geom_bond_site_symmetry_2
B0 B4 1.555054 1_555
B0 B6 1.644757 1_555
B0 B2 1.645814 1_555
B1 B7 1.656433 1_555
B1 B2 1.670335 1_555
B1 Cl1 1.756479 1_555
B2 Cl2 1.788032 1_555
B3 Cl0 1.725856 1_555
B4 Cl3 1.673938 1_555
B5 Cl4 1.725847 1_555
B6 B8 1.668857 1_555
B6 Cl7 1.787414 1_555
B7 B8 1.656789 1_555
B7 Cl6 1.747391 1_555
B8 Cl10 1.755999 1_555
B9 Cl5 1.705543 1_555
B10 Cl9 1.732911 1_555
B11 Cl8 1.834503 1_555
B12 Cl11 1.726072 1_555
B13 B16 1.714482 1_555
B13 Cl12 1.765484 1_555
B13 Cl13 2.032744 1_555
B13 Cl8 2.032966 1_555
B14 Cl15 1.725528 1_555
B15 Cl13 1.834970 1_555
B16 Cl17 1.750230 1_555
B16 Cl14 1.750429 1_555
B17 Cl16 1.704877 1_555
