# generated using pymatgen
data_RbLaMg6
_symmetry_space_group_name_H-M   'P 1'
_cell_length_a   5.38287000
_cell_length_b   7.29165600
_cell_length_c   12.30652600
_cell_angle_alpha   90.00000000
_cell_angle_beta   90.00000000
_cell_angle_gamma   90.00000000
_symmetry_Int_Tables_number   1
_chemical_formula_structural   RbLaMg6
_chemical_formula_sum   'Rb2 La2 Mg12'
_cell_volume   483.03159263
_cell_formula_units_Z   2
loop_
 _symmetry_equiv_pos_site_id
 _symmetry_equiv_pos_as_xyz
  1  'x, y, z'
loop_
 _atom_site_type_symbol
 _atom_site_label
 _atom_site_symmetry_multiplicity
 _atom_site_fract_x
 _atom_site_fract_y
 _atom_site_fract_z
 _atom_site_occupancy
  Rb  Rb0  1  0.50000000  0.50000000  0.83104700  1
  Rb  Rb1  1  0.50000000  0.00000000  0.33104700  1
  La  La0  1  0.50000000  0.50000000  0.33920800  1
  La  La1  1  0.50000000  0.00000000  0.83920800  1
  Mg  Mg0  1  0.50000000  0.25831700  0.08033800  1
  Mg  Mg1  1  0.50000000  0.74168300  0.08033800  1
  Mg  Mg2  1  0.00000000  0.23049100  0.93412900  1
  Mg  Mg3  1  0.00000000  0.76950900  0.93412900  1
  Mg  Mg4  1  0.00000000  0.50000000  0.15943000  1
  Mg  Mg5  1  0.00000000  0.50000000  0.64138600  1
  Mg  Mg6  1  0.50000000  0.75831700  0.58033800  1
  Mg  Mg7  1  0.50000000  0.24168300  0.58033800  1
  Mg  Mg8  1  0.00000000  0.73049100  0.43412900  1
  Mg  Mg9  1  0.00000000  0.26950900  0.43412900  1
  Mg  Mg10  1  0.00000000  0.00000000  0.65943000  1
  Mg  Mg11  1  0.00000000  0.00000000  0.14138600  1
loop_
_geom_bond_atom_site_label_1
_geom_bond_atom_site_label_2
_geom_bond_distance
_geom_bond_site_symmetry_2
La0 Mg9 3.381274 1_655
La0 Mg8 3.381274 1_555
La0 Mg8 3.381274 1_655
La0 Mg9 3.381274 1_555
La0 Mg4 3.484067 1_655
La0 Mg4 3.484067 1_555
La0 Mg6 3.514781 1_555
La0 Mg7 3.514781 1_555
La0 Mg1 3.640722 1_555
La0 Mg0 3.640722 1_555
La0 Rb1 3.647211 1_555
La0 Rb1 3.647211 1_565
La1 Mg2 3.381274 1_555
La1 Mg3 3.381274 1_545
La1 Mg3 3.381274 1_645
La1 Mg2 3.381274 1_655
La1 Mg10 3.484067 1_555
La1 Mg10 3.484067 1_655
La1 Mg1 3.514781 1_546
La1 Mg0 3.514781 1_556
La1 Mg6 3.640722 1_545
La1 Mg7 3.640722 1_555
La1 Rb0 3.647211 1_555
La1 Rb0 3.647211 1_545
Mg0 Mg2 3.243850 1_654
Mg0 Mg2 3.243850 1_554
Mg0 Mg4 3.361074 1_555
Mg0 Mg4 3.361074 1_655
Mg0 Mg11 3.369874 1_555
Mg0 Mg11 3.369874 1_655
Mg0 Mg1 3.524539 1_555
Mg0 Rb0 3.538028 1_554
Mg0 Rb1 3.614861 1_555
Mg1 Mg3 3.243850 1_554
Mg1 Mg3 3.243850 1_654
Mg1 Mg4 3.361074 1_555
Mg1 Mg4 3.361074 1_655
Mg1 Mg11 3.369874 1_565
Mg1 Mg11 3.369874 1_665
Mg1 Rb0 3.538028 1_554
Mg1 Rb1 3.614861 1_565
Mg2 Mg3 3.361322 1_545
Mg2 Mg4 3.398469 1_556
Mg2 Rb0 3.565810 1_455
Mg2 Rb0 3.565810 1_555
Mg3 Mg4 3.398469 1_556
Mg3 Rb0 3.565810 1_455
Mg3 Rb0 3.565810 1_555
Mg5 Mg8 3.054546 1_555
Mg5 Mg9 3.054546 1_555
Mg5 Mg7 3.369874 1_555
Mg5 Mg6 3.369874 1_455
Mg5 Mg7 3.369874 1_455
Mg5 Mg6 3.369874 1_555
Mg5 Rb0 3.562541 1_555
Mg5 Rb0 3.562541 1_455
Mg6 Mg8 3.243850 1_555
Mg6 Mg8 3.243850 1_655
Mg6 Mg7 3.524539 1_565
Mg6 Rb1 3.538028 1_565
Mg6 Rb0 3.614861 1_555
Mg7 Mg9 3.243850 1_655
Mg7 Mg9 3.243850 1_555
Mg7 Rb1 3.538028 1_555
Mg7 Rb0 3.614861 1_555
Mg8 Mg9 3.361322 1_555
Mg8 Rb1 3.565810 1_465
Mg8 Rb1 3.565810 1_565
Mg9 Rb1 3.565810 1_555
Mg9 Rb1 3.565810 1_455
Mg10 Mg6 3.361074 1_445
Mg10 Mg6 3.361074 1_545
Mg10 Mg7 3.361074 1_455
Mg10 Mg7 3.361074 1_555
Mg10 Mg8 3.398469 1_545
Mg10 Mg9 3.398469 1_555
Mg11 Mg2 3.054546 1_554
Mg11 Mg3 3.054546 1_544
Mg11 Rb1 3.562541 1_455
Mg11 Rb1 3.562541 1_555
