# generated using pymatgen
data_MnTe(PbO3)2
_symmetry_space_group_name_H-M   'P 1'
_cell_length_a   5.79459936
_cell_length_b   5.79459299
_cell_length_c   8.18952400
_cell_angle_alpha   89.99993571
_cell_angle_beta   90.00003462
_cell_angle_gamma   90.00004894
_symmetry_Int_Tables_number   1
_chemical_formula_structural   MnTe(PbO3)2
_chemical_formula_sum   'Mn2 Te2 Pb4 O12'
_cell_volume   274.98247141
_cell_formula_units_Z   2
loop_
 _symmetry_equiv_pos_site_id
 _symmetry_equiv_pos_as_xyz
  1  'x, y, z'
loop_
 _atom_site_type_symbol
 _atom_site_label
 _atom_site_symmetry_multiplicity
 _atom_site_fract_x
 _atom_site_fract_y
 _atom_site_fract_z
 _atom_site_occupancy
  Mn  Mn0  1  0.99999000  0.50000100  0.24999300  1
  Mn  Mn1  1  0.50000900  0.00000000  0.74999300  1
  Te  Te0  1  0.50000000  0.00000000  0.25000100  1
  Te  Te1  1  0.99999900  0.50000000  0.75000000  1
  Pb  Pb0  1  0.00000400  0.00000100  0.99999800  1
  Pb  Pb1  1  0.50000000  0.50000000  0.50000300  1
  Pb  Pb2  1  0.00000100  0.99999800  0.50000300  1
  Pb  Pb3  1  0.50000000  0.50000100  0.00000100  1
  O  O0  1  0.49999900  0.00000000  0.48851700  1
  O  O1  1  0.00000000  0.50000000  0.98851900  1
  O  O2  1  0.50000000  0.00000000  0.01148400  1
  O  O3  1  0.00000000  0.50000000  0.51148200  1
  O  O4  1  0.73844200  0.76155800  0.25000100  1
  O  O5  1  0.23843800  0.26156100  0.75000100  1
  O  O6  1  0.26155700  0.23844200  0.25000000  1
  O  O7  1  0.76156100  0.73843900  0.75000100  1
  O  O8  1  0.26155700  0.76155800  0.25000100  1
  O  O9  1  0.76156100  0.26156100  0.75000100  1
  O  O10  1  0.73844200  0.23844200  0.25000000  1
  O  O11  1  0.23843800  0.73843900  0.75000100  1
loop_
_geom_bond_atom_site_label_1
_geom_bond_atom_site_label_2
_geom_bond_distance
_geom_bond_site_symmetry_2
Mn0 O1 2.141348 1_654
Mn0 O3 2.141470 1_655
Mn0 O4 2.143370 1_555
Mn0 O10 2.143377 1_555
Mn0 O8 2.143446 1_655
Mn0 O6 2.143456 1_655
Mn1 O0 2.141364 1_555
Mn1 O2 2.141487 1_556
Mn1 O9 2.143401 1_555
Mn1 O7 2.143403 1_545
Mn1 O11 2.143479 1_545
Mn1 O5 2.143481 1_555
O0 Te0 1.953333 1_555
O0 Pb2 2.898815 1_545
O0 Pb1 2.898823 1_545
O0 Pb1 2.898823 1_555
O0 Pb2 2.898838 1_645
O1 Te1 1.953357 1_455
O1 Pb0 2.898815 1_555
O1 Pb3 2.898825 1_556
O1 Pb3 2.898825 1_456
O1 Pb0 2.898827 1_565
O2 Te0 1.953341 1_555
O2 Pb0 2.898803 1_554
O2 Pb3 2.898817 1_545
O2 Pb3 2.898828 1_555
O2 Pb0 2.898849 1_654
O3 Te1 1.953349 1_455
O3 Pb2 2.898810 1_555
O3 Pb1 2.898824 1_455
O3 Pb1 2.898824 1_555
O3 Pb2 2.898833 1_545
O4 Te0 1.953985 1_565
O4 Pb3 2.897911 1_555
O4 Pb2 2.897923 1_655
O4 Pb1 2.897925 1_555
O4 Pb0 2.897946 1_664
O5 Te1 1.953960 1_455
O5 Pb0 2.897880 1_555
O5 Pb2 2.897904 1_545
O5 Pb1 2.897906 1_555
O5 Pb3 2.897921 1_556
O6 Te0 1.953989 1_555
O6 Pb0 2.897908 1_554
O6 Pb3 2.897913 1_555
O6 Pb2 2.897930 1_545
O6 Pb1 2.897934 1_555
O7 Te1 1.953956 1_555
O7 Pb2 2.897899 1_655
O7 Pb1 2.897904 1_555
O7 Pb3 2.897911 1_556
O7 Pb0 2.897912 1_665
O8 Te0 1.953987 1_565
O8 Pb3 2.897917 1_555
O8 Pb2 2.897917 1_555
O8 Pb0 2.897918 1_564
O8 Pb1 2.897928 1_555
O9 Te1 1.953954 1_555
O9 Pb1 2.897903 1_555
O9 Pb0 2.897905 1_655
O9 Pb2 2.897915 1_645
O9 Pb3 2.897920 1_556
O10 Te0 1.953983 1_555
O10 Pb3 2.897910 1_555
O10 Pb1 2.897934 1_555
O10 Pb0 2.897938 1_654
O10 Pb2 2.897939 1_645
O11 Te1 1.953958 1_455
O11 Pb0 2.897889 1_565
O11 Pb2 2.897891 1_555
O11 Pb1 2.897909 1_555
O11 Pb3 2.897914 1_556
