# generated using pymatgen
data_CdAg3
_symmetry_space_group_name_H-M   'P 1'
_cell_length_a   19.29629460
_cell_length_b   19.29629460
_cell_length_c   19.29629588
_cell_angle_alpha   17.69515588
_cell_angle_beta   17.69515588
_cell_angle_gamma   17.69515115
_symmetry_Int_Tables_number   1
_chemical_formula_structural   CdAg3
_chemical_formula_sum   'Cd8 Ag24'
_cell_volume   579.43079993
_cell_formula_units_Z   8
loop_
 _symmetry_equiv_pos_site_id
 _symmetry_equiv_pos_as_xyz
  1  'x, y, z'
loop_
 _atom_site_type_symbol
 _atom_site_label
 _atom_site_symmetry_multiplicity
 _atom_site_fract_x
 _atom_site_fract_y
 _atom_site_fract_z
 _atom_site_occupancy
  Cd  Cd0_0  1  0.00000000  0.00000000  0.00000000  1
  Cd  Cd0_1  1  0.00000000  0.00000000  0.50000000  1
  Cd  Cd0_2  1  0.00000000  0.50000000  0.00000000  1
  Cd  Cd0_3  1  0.00000000  0.50000000  0.50000000  1
  Cd  Cd0_4  1  0.50000000  0.00000000  0.00000000  1
  Cd  Cd0_5  1  0.50000000  0.00000000  0.50000000  1
  Cd  Cd0_6  1  0.50000000  0.50000000  0.00000000  1
  Cd  Cd0_7  1  0.50000000  0.50000000  0.50000000  1
  Ag  Ag0_0  1  0.12406559  0.12406559  0.12406559  1
  Ag  Ag0_1  1  0.12406559  0.12406559  0.62406559  1
  Ag  Ag0_2  1  0.12406559  0.62406559  0.12406559  1
  Ag  Ag0_3  1  0.12406559  0.62406559  0.62406559  1
  Ag  Ag0_4  1  0.62406559  0.12406559  0.12406559  1
  Ag  Ag0_5  1  0.62406559  0.12406559  0.62406559  1
  Ag  Ag0_6  1  0.62406559  0.62406559  0.12406559  1
  Ag  Ag0_7  1  0.62406559  0.62406559  0.62406559  1
  Ag  Ag1_0  1  0.25000000  0.25000000  0.25000000  1
  Ag  Ag1_1  1  0.25000000  0.25000000  0.75000000  1
  Ag  Ag1_2  1  0.25000000  0.75000000  0.25000000  1
  Ag  Ag1_3  1  0.25000000  0.75000000  0.75000000  1
  Ag  Ag1_4  1  0.75000000  0.25000000  0.25000000  1
  Ag  Ag1_5  1  0.75000000  0.25000000  0.75000000  1
  Ag  Ag1_6  1  0.75000000  0.75000000  0.25000000  1
  Ag  Ag1_7  1  0.75000000  0.75000000  0.75000000  1
  Ag  Ag2_0  1  0.37593441  0.37593441  0.37593441  1
  Ag  Ag2_1  1  0.37593441  0.37593441  0.87593441  1
  Ag  Ag2_2  1  0.37593441  0.87593441  0.37593441  1
  Ag  Ag2_3  1  0.37593441  0.87593441  0.87593441  1
  Ag  Ag2_4  1  0.87593441  0.37593441  0.37593441  1
  Ag  Ag2_5  1  0.87593441  0.37593441  0.87593441  1
  Ag  Ag2_6  1  0.87593441  0.87593441  0.37593441  1
  Ag  Ag2_7  1  0.87593441  0.87593441  0.87593441  1
loop_
_geom_bond_atom_site_label_1
_geom_bond_atom_site_label_2
_geom_bond_distance
_geom_bond_site_symmetry_2
Cd0_0 Cd0_6 2.967893 1_545
Cd0_0 Cd0_6 2.967893 1_455
Cd0_0 Cd0_3 2.967894 1_554
Cd0_0 Cd0_5 2.967894 1_554
Cd0_0 Cd0_3 2.967894 1_545
Cd0_0 Cd0_5 2.967894 1_455
Cd0_1 Cd0_7 2.967893 1_455
Cd0_1 Cd0_7 2.967893 1_545
Cd0_1 Cd0_4 2.967894 1_555
Cd0_1 Cd0_4 2.967894 1_456
Cd0_1 Cd0_2 2.967894 1_546
Cd0_1 Cd0_2 2.967894 1_555
Cd0_2 Cd0_4 2.967893 1_465
Cd0_2 Cd0_4 2.967893 1_555
Cd0_2 Cd0_7 2.967894 1_455
Cd0_2 Cd0_7 2.967894 1_554
Cd0_3 Cd0_5 2.967893 1_555
Cd0_3 Cd0_5 2.967893 1_465
Cd0_3 Cd0_6 2.967894 1_456
Cd0_3 Cd0_6 2.967894 1_555
Cd0_4 Cd0_7 2.967894 1_554
Cd0_4 Cd0_7 2.967894 1_545
Cd0_5 Cd0_6 2.967894 1_555
Cd0_5 Cd0_6 2.967894 1_546
Ag0_0 Ag1_4 2.884556 1_455
Ag0_0 Ag1_2 2.884556 1_545
Ag0_0 Ag1_1 2.884557 1_554
Ag0_0 Ag0_6 2.967893 1_455
Ag0_0 Ag0_6 2.967893 1_545
Ag0_0 Ag0_5 2.967894 1_455
Ag0_0 Ag0_3 2.967894 1_545
Ag0_0 Ag0_3 2.967894 1_554
Ag0_0 Ag0_5 2.967894 1_554
Ag0_0 Cd0_2 2.970873 1_555
Ag0_0 Cd0_4 2.970873 1_555
Ag0_0 Cd0_1 2.970874 1_555
Ag0_1 Ag1_5 2.884556 1_455
Ag0_1 Ag1_3 2.884556 1_545
Ag0_1 Ag1_0 2.884557 1_555
Ag0_1 Ag0_7 2.967893 1_455
Ag0_1 Ag0_7 2.967893 1_545
Ag0_1 Ag0_2 2.967894 1_546
Ag0_1 Ag0_4 2.967894 1_456
Ag0_1 Ag0_4 2.967894 1_555
Ag0_1 Ag0_2 2.967894 1_555
Ag0_1 Cd0_3 2.970873 1_555
Ag0_1 Cd0_5 2.970873 1_555
Ag0_1 Cd0_0 2.970874 1_556
Ag0_2 Ag1_0 2.884556 1_555
Ag0_2 Ag1_6 2.884556 1_455
Ag0_2 Ag1_3 2.884557 1_554
Ag0_2 Ag0_4 2.967893 1_465
Ag0_2 Ag0_4 2.967893 1_555
Ag0_2 Ag0_7 2.967894 1_554
Ag0_2 Ag0_7 2.967894 1_455
Ag0_2 Cd0_0 2.970873 1_565
Ag0_2 Cd0_6 2.970873 1_555
Ag0_2 Cd0_3 2.970874 1_555
Ag0_3 Ag1_1 2.884556 1_555
Ag0_3 Ag1_7 2.884556 1_455
Ag0_3 Ag1_2 2.884557 1_555
Ag0_3 Ag0_5 2.967893 1_465
Ag0_3 Ag0_5 2.967893 1_555
Ag0_3 Ag0_6 2.967894 1_456
Ag0_3 Ag0_6 2.967894 1_555
Ag0_3 Cd0_1 2.970873 1_565
Ag0_3 Cd0_7 2.970873 1_555
Ag0_3 Cd0_2 2.970874 1_556
Ag0_4 Ag1_0 2.884556 1_555
Ag0_4 Ag1_6 2.884556 1_545
Ag0_4 Ag1_5 2.884557 1_554
Ag0_4 Ag0_7 2.967894 1_545
Ag0_4 Ag0_7 2.967894 1_554
Ag0_4 Cd0_6 2.970873 1_555
Ag0_4 Cd0_0 2.970873 1_655
Ag0_4 Cd0_5 2.970874 1_555
Ag0_5 Ag1_1 2.884556 1_555
Ag0_5 Ag1_7 2.884556 1_545
Ag0_5 Ag1_4 2.884557 1_555
Ag0_5 Ag0_6 2.967894 1_546
Ag0_5 Ag0_6 2.967894 1_555
Ag0_5 Cd0_1 2.970873 1_655
Ag0_5 Cd0_7 2.970873 1_555
Ag0_5 Cd0_4 2.970874 1_556
Ag0_6 Ag1_2 2.884556 1_555
Ag0_6 Ag1_4 2.884556 1_555
Ag0_6 Ag1_7 2.884557 1_554
Ag0_6 Cd0_4 2.970873 1_565
Ag0_6 Cd0_2 2.970873 1_655
Ag0_6 Cd0_7 2.970874 1_555
Ag0_7 Ag1_5 2.884556 1_555
Ag0_7 Ag1_3 2.884556 1_555
Ag0_7 Ag1_6 2.884557 1_555
Ag0_7 Cd0_5 2.970873 1_565
Ag0_7 Cd0_3 2.970873 1_655
Ag0_7 Cd0_6 2.970874 1_556
Ag1_0 Ag2_4 2.884556 1_455
Ag1_0 Ag2_2 2.884556 1_545
Ag1_0 Ag2_1 2.884557 1_554
Ag1_0 Ag1_6 2.967893 1_455
Ag1_0 Ag1_6 2.967893 1_545
Ag1_0 Ag1_3 2.967894 1_545
Ag1_0 Ag1_5 2.967894 1_455
Ag1_0 Ag1_5 2.967894 1_554
Ag1_0 Ag1_3 2.967894 1_554
Ag1_1 Ag2_5 2.884556 1_455
Ag1_1 Ag2_3 2.884556 1_545
Ag1_1 Ag2_0 2.884557 1_555
Ag1_1 Ag1_7 2.967893 1_545
Ag1_1 Ag1_7 2.967893 1_455
Ag1_1 Ag1_4 2.967894 1_555
Ag1_1 Ag1_2 2.967894 1_555
Ag1_1 Ag1_2 2.967894 1_546
Ag1_1 Ag1_4 2.967894 1_456
Ag1_2 Ag2_6 2.884556 1_455
Ag1_2 Ag2_0 2.884556 1_555
Ag1_2 Ag2_3 2.884557 1_554
Ag1_2 Ag1_4 2.967893 1_465
Ag1_2 Ag1_4 2.967893 1_555
Ag1_2 Ag1_7 2.967894 1_554
Ag1_2 Ag1_7 2.967894 1_455
Ag1_3 Ag2_1 2.884556 1_555
Ag1_3 Ag2_7 2.884556 1_455
Ag1_3 Ag2_2 2.884557 1_555
Ag1_3 Ag1_5 2.967893 1_465
Ag1_3 Ag1_5 2.967893 1_555
Ag1_3 Ag1_6 2.967894 1_555
Ag1_3 Ag1_6 2.967894 1_456
Ag1_4 Ag2_6 2.884556 1_545
Ag1_4 Ag2_0 2.884556 1_555
Ag1_4 Ag2_5 2.884557 1_554
Ag1_4 Ag1_7 2.967894 1_554
Ag1_4 Ag1_7 2.967894 1_545
Ag1_5 Ag2_1 2.884556 1_555
Ag1_5 Ag2_7 2.884556 1_545
Ag1_5 Ag2_4 2.884557 1_555
Ag1_5 Ag1_6 2.967894 1_555
Ag1_5 Ag1_6 2.967894 1_546
Ag1_6 Ag2_2 2.884556 1_555
Ag1_6 Ag2_4 2.884556 1_555
Ag1_6 Ag2_7 2.884557 1_554
Ag1_7 Ag2_3 2.884556 1_555
Ag1_7 Ag2_5 2.884556 1_555
Ag1_7 Ag2_6 2.884557 1_555
Ag2_0 Ag2_6 2.967893 1_545
Ag2_0 Ag2_6 2.967893 1_455
Ag2_0 Ag2_3 2.967894 1_554
Ag2_0 Ag2_5 2.967894 1_554
Ag2_0 Ag2_5 2.967894 1_455
Ag2_0 Ag2_3 2.967894 1_545
Ag2_0 Cd0_3 2.970873 1_555
Ag2_0 Cd0_5 2.970873 1_555
Ag2_0 Cd0_6 2.970874 1_555
Ag2_1 Ag2_7 2.967893 1_455
Ag2_1 Ag2_7 2.967893 1_545
Ag2_1 Ag2_2 2.967894 1_546
Ag2_1 Ag2_4 2.967894 1_456
Ag2_1 Ag2_2 2.967894 1_555
Ag2_1 Ag2_4 2.967894 1_555
Ag2_1 Cd0_4 2.970873 1_556
Ag2_1 Cd0_2 2.970873 1_556
Ag2_1 Cd0_7 2.970874 1_555
Ag2_2 Ag2_4 2.967893 1_465
Ag2_2 Ag2_4 2.967893 1_555
Ag2_2 Ag2_7 2.967894 1_554
Ag2_2 Ag2_7 2.967894 1_455
Ag2_2 Cd0_1 2.970873 1_565
Ag2_2 Cd0_7 2.970873 1_555
Ag2_2 Cd0_4 2.970874 1_565
Ag2_3 Ag2_5 2.967893 1_465
Ag2_3 Ag2_5 2.967893 1_555
Ag2_3 Ag2_6 2.967894 1_456
Ag2_3 Ag2_6 2.967894 1_555
Ag2_3 Cd0_6 2.970873 1_556
Ag2_3 Cd0_0 2.970873 1_566
Ag2_3 Cd0_5 2.970874 1_565
Ag2_4 Ag2_7 2.967894 1_554
Ag2_4 Ag2_7 2.967894 1_545
Ag2_4 Cd0_1 2.970873 1_655
Ag2_4 Cd0_7 2.970873 1_555
Ag2_4 Cd0_2 2.970874 1_655
Ag2_5 Ag2_6 2.967894 1_546
Ag2_5 Ag2_6 2.967894 1_555
Ag2_5 Cd0_6 2.970873 1_556
Ag2_5 Cd0_0 2.970873 1_656
Ag2_5 Cd0_3 2.970874 1_655
Ag2_6 Cd0_5 2.970873 1_565
Ag2_6 Cd0_3 2.970873 1_655
Ag2_6 Cd0_0 2.970874 1_665
Ag2_7 Cd0_2 2.970873 1_656
Ag2_7 Cd0_4 2.970873 1_566
Ag2_7 Cd0_1 2.970874 1_665
