# generated using pymatgen
data_Ba6LiNb2Ir(ClO6)2
_symmetry_space_group_name_H-M   'P 1'
_cell_length_a   6.27485951
_cell_length_b   6.27480181
_cell_length_c   15.05055053
_cell_angle_alpha   86.35106059
_cell_angle_beta   93.64909371
_cell_angle_gamma   124.03247461
_symmetry_Int_Tables_number   1
_chemical_formula_structural   Ba6LiNb2Ir(ClO6)2
_chemical_formula_sum   'Ba6 Li1 Nb2 Ir1 Cl2 O12'
_cell_volume   489.81675853
_cell_formula_units_Z   1
loop_
 _symmetry_equiv_pos_site_id
 _symmetry_equiv_pos_as_xyz
  1  'x, y, z'
loop_
 _atom_site_type_symbol
 _atom_site_label
 _atom_site_symmetry_multiplicity
 _atom_site_fract_x
 _atom_site_fract_y
 _atom_site_fract_z
 _atom_site_occupancy
  Ba  Ba0  1  0.30686500  0.69314700  0.37764900  1
  Ba  Ba1  1  0.31563600  0.68437400  0.79624600  1
  Ba  Ba2  1  0.65687500  0.34312900  0.64168300  1
  Ba  Ba3  1  0.65261900  0.34739800  0.92641700  1
  Ba  Ba4  1  0.35724900  0.64276300  0.05817300  1
  Ba  Ba5  1  0.71312200  0.28690300  0.19791900  1
  Li  Li0  1  0.49958400  0.50038700  0.27231800  1
  Nb  Nb0  1  0.00311600  0.99689700  0.81458600  1
  Nb  Nb1  1  0.00815600  0.99180700  0.18516800  1
  Ir  Ir0  1  0.00570100  0.99431200  0.00458400  1
  Cl  Cl0  1  0.64011800  0.35987900  0.40981200  1
  Cl  Cl1  1  0.30475100  0.69525700  0.58296800  1
  O  O0  1  0.17512800  0.29637400  0.91146200  1
  O  O1  1  0.33422700  0.14995200  0.76348500  1
  O  O2  1  0.15667600  0.31771700  0.25019000  1
  O  O3  1  0.85007100  0.66578700  0.76348500  1
  O  O4  1  0.85205500  0.14795700  0.74585200  1
  O  O5  1  0.82027100  0.68558300  0.09645100  1
  O  O6  1  0.15985100  0.84007700  0.25158800  1
  O  O7  1  0.31441600  0.17972700  0.09646400  1
  O  O8  1  0.85217600  0.14782200  0.07709800  1
  O  O9  1  0.70363800  0.82488300  0.91145800  1
  O  O10  1  0.68225000  0.84329700  0.25017800  1
  O  O11  1  0.15628100  0.84373900  0.92726400  1
loop_
_geom_bond_atom_site_label_1
_geom_bond_atom_site_label_2
_geom_bond_distance
_geom_bond_site_symmetry_2
Ba0 O6 2.409821 1_555
Ba0 Cl1 3.091939 1_555
Ba1 O9 2.639352 1_555
Ba1 O0 2.639371 1_555
Ba1 O11 2.740328 1_555
Ba1 O3 2.869430 1_455
Ba1 O1 2.869472 1_565
Ba1 O4 3.074249 1_455
Ba1 O4 3.074274 1_565
Ba1 Cl1 3.203518 1_555
Ba2 O1 2.524171 1_555
Ba2 O3 2.524189 1_555
Ba2 O4 2.578334 1_555
Ba2 Cl1 3.513391 1_545
Ba2 Cl1 3.513446 1_655
Ba3 O9 2.824823 1_555
Ba3 O0 2.824872 1_555
Ba3 O3 2.921006 1_555
Ba3 O1 2.921009 1_555
Ba3 O11 2.944569 1_545
Ba3 O11 2.944588 1_655
Ba3 O8 3.051486 1_556
Ba3 O5 3.163632 1_556
Ba3 O7 3.163862 1_556
Ba4 O5 2.788956 1_555
Ba4 O7 2.789006 1_555
Ba4 O11 2.865307 1_554
Ba4 O0 2.900897 1_554
Ba4 O9 2.900964 1_554
Ba4 O8 2.958909 1_565
Ba4 O8 2.958995 1_455
Ba4 O10 3.306574 1_555
Ba4 O2 3.306852 1_555
Ba5 O8 2.466964 1_555
Ba5 O7 2.608477 1_555
Ba5 O5 2.608482 1_555
Ba5 Li0 2.689735 1_555
Ba5 O2 2.746088 1_655
Ba5 O10 2.746162 1_545
Ba5 O6 3.120273 1_655
Ba5 O6 3.120830 1_545
Ba5 Cl0 3.346126 1_555
Li0 O2 1.803137 1_555
Li0 O10 1.803160 1_555
Nb0 O4 1.903461 1_465
Nb0 O3 1.925211 1_455
Nb0 O1 1.925228 1_565
Nb0 O9 2.167982 1_455
Nb0 O0 2.168003 1_565
Nb0 O11 2.311316 1_555
Nb1 O6 1.893127 1_555
Nb1 O10 2.003338 1_455
Nb1 O2 2.003423 1_565
Nb1 O5 2.110797 1_455
Nb1 O7 2.110831 1_565
Nb1 O8 2.286711 1_465
Ir0 O0 2.069559 1_564
Ir0 O9 2.069607 1_454
Ir0 O8 2.086454 1_465
Ir0 O5 2.087870 1_455
Ir0 O7 2.087941 1_565
Ir0 O11 2.102103 1_554
Cl0 Li0 2.498587 1_555
