# generated using pymatgen
data_Ba3CaLa2Cu6O13
_symmetry_space_group_name_H-M   'P 1'
_cell_length_a   5.57361704
_cell_length_b   5.57361704
_cell_length_c   12.44992526
_cell_angle_alpha   77.52344465
_cell_angle_beta   77.52344465
_cell_angle_gamma   90.97586596
_symmetry_Int_Tables_number   1
_chemical_formula_structural   Ba3CaLa2Cu6O13
_chemical_formula_sum   'Ba3 Ca1 La2 Cu6 O13'
_cell_volume   367.88401918
_cell_formula_units_Z   1
loop_
 _symmetry_equiv_pos_site_id
 _symmetry_equiv_pos_as_xyz
  1  'x, y, z'
loop_
 _atom_site_type_symbol
 _atom_site_label
 _atom_site_symmetry_multiplicity
 _atom_site_fract_x
 _atom_site_fract_y
 _atom_site_fract_z
 _atom_site_occupancy
  Ba  Ba0  1  0.58518000  0.08518000  0.81716100  1
  Ba  Ba1  1  0.10074100  0.60074100  0.81296500  1
  Ba  Ba2  1  0.91623400  0.41623400  0.18235900  1
  Ca  Ca0  1  0.41329500  0.91329500  0.20790000  1
  La  La0  1  0.25061800  0.75061800  0.49840700  1
  La  La1  1  0.75158100  0.25158100  0.49610900  1
  Cu  Cu0  1  0.17558200  0.17817200  0.64663500  1
  Cu  Cu1  1  0.67817200  0.67558200  0.64663500  1
  Cu  Cu2  1  0.32967400  0.32908400  0.34285700  1
  Cu  Cu3  1  0.82908400  0.82967400  0.34285700  1
  Cu  Cu4  1  0.48500900  0.50579300  0.00620300  1
  Cu  Cu5  1  0.00579300  0.98500900  0.00620300  1
  O  O0  1  0.05775300  0.09630600  0.85278900  1
  O  O1  1  0.59630600  0.55775300  0.85278900  1
  O  O2  1  0.43521800  0.35268800  0.15489000  1
  O  O3  1  0.85268800  0.93521800  0.15489000  1
  O  O4  1  0.43476700  0.93476700  0.63334400  1
  O  O5  1  0.93547100  0.43547100  0.62799600  1
  O  O6  1  0.93488200  0.93639500  0.62901200  1
  O  O7  1  0.43639500  0.43488200  0.62901200  1
  O  O8  1  0.56273800  0.06273800  0.36485600  1
  O  O9  1  0.08072200  0.58072200  0.35364000  1
  O  O10  1  0.07188400  0.06628400  0.36210800  1
  O  O11  1  0.56628400  0.57188400  0.36210800  1
  O  O12  1  0.26392800  0.76392800  0.01627400  1
loop_
_geom_bond_atom_site_label_1
_geom_bond_atom_site_label_2
_geom_bond_distance
_geom_bond_site_symmetry_2
Ba0 O0 2.765750 1_655
Ba0 O1 2.765750 1_555
Ba0 O4 2.876963 1_545
Ba0 O1 2.880448 1_545
Ba0 O0 2.880448 1_555
Ba0 O12 2.934671 1_546
Ba0 O6 2.982512 1_545
Ba0 O7 2.982512 1_555
Ba0 O5 3.011112 1_555
Ba1 O1 2.744328 1_455
Ba1 O0 2.744328 1_555
Ba1 O4 2.866556 1_555
Ba1 O0 2.914670 1_565
Ba1 O1 2.914670 1_555
Ba1 O7 2.953294 1_555
Ba1 O6 2.953294 1_455
Ba1 O5 2.967217 1_455
Ba1 O12 3.165868 1_556
Ba2 O3 2.801126 1_545
Ba2 O2 2.801126 1_555
Ba2 O9 2.808755 1_655
Ba2 O12 2.862844 1_655
Ba2 O2 2.875664 1_655
Ba2 O3 2.875664 1_555
Ba2 O11 2.928401 1_555
Ba2 O10 2.928401 1_655
Ba2 O8 2.987543 1_555
Ca0 O3 2.388459 1_555
Ca0 O2 2.388459 1_565
Ca0 O8 2.566895 1_565
Ca0 O9 2.672202 1_555
Ca0 O11 2.686658 1_555
Ca0 O10 2.686658 1_565
Ca0 O12 2.961522 1_555
La0 O8 2.492907 1_565
La0 O5 2.493908 1_455
La0 O7 2.523121 1_555
La0 O6 2.523121 1_455
La0 O4 2.526520 1_555
La0 O11 2.543133 1_555
La0 O10 2.543133 1_565
La0 O9 2.546785 1_555
La1 O5 2.493113 1_555
La1 O8 2.516842 1_555
La1 O6 2.530467 1_545
La1 O7 2.530467 1_555
La1 O4 2.538095 1_545
La1 O11 2.560733 1_555
La1 O10 2.560733 1_655
La1 O9 2.636361 1_655
Cu0 O6 1.963989 1_445
Cu0 O7 1.965757 1_555
Cu0 O5 1.989279 1_455
Cu0 O4 2.003797 1_545
Cu0 O0 2.445898 1_555
Cu1 O7 1.963989 1_555
Cu1 O6 1.965757 1_555
Cu1 O5 1.989279 1_555
Cu1 O4 2.003797 1_555
Cu1 O1 2.445898 1_555
Cu2 O11 1.960582 1_555
Cu2 O10 1.973630 1_555
Cu2 O9 1.994395 1_555
Cu2 O8 2.002485 1_555
Cu2 O2 2.260376 1_555
Cu3 O10 1.960582 1_665
Cu3 O11 1.973630 1_555
Cu3 O9 1.994395 1_655
Cu3 O8 2.002485 1_565
Cu3 O3 2.260376 1_555
Cu4 O2 1.821913 1_555
Cu4 O1 1.832946 1_554
Cu4 O12 1.917200 1_555
Cu5 O3 1.821913 1_455
Cu5 O0 1.832946 1_564
Cu5 O12 1.917200 1_555
