# generated using pymatgen
data_RbMg6Cr
_symmetry_space_group_name_H-M   'P 1'
_cell_length_a   5.35466100
_cell_length_b   6.71410400
_cell_length_c   11.60355000
_cell_angle_alpha   90.00000000
_cell_angle_beta   90.00000000
_cell_angle_gamma   90.00000000
_symmetry_Int_Tables_number   1
_chemical_formula_structural   RbMg6Cr
_chemical_formula_sum   'Rb2 Mg12 Cr2'
_cell_volume   417.16793844
_cell_formula_units_Z   2
loop_
 _symmetry_equiv_pos_site_id
 _symmetry_equiv_pos_as_xyz
  1  'x, y, z'
loop_
 _atom_site_type_symbol
 _atom_site_label
 _atom_site_symmetry_multiplicity
 _atom_site_fract_x
 _atom_site_fract_y
 _atom_site_fract_z
 _atom_site_occupancy
  Rb  Rb0  1  0.50000000  0.00000000  0.83432700  1
  Rb  Rb1  1  0.50000000  0.50000000  0.33432700  1
  Mg  Mg0  1  0.50000000  0.24769600  0.58283400  1
  Mg  Mg1  1  0.50000000  0.75230400  0.58283400  1
  Mg  Mg2  1  0.00000000  0.22621000  0.41963900  1
  Mg  Mg3  1  0.00000000  0.77379000  0.41963900  1
  Mg  Mg4  1  0.00000000  0.00000000  0.65547000  1
  Mg  Mg5  1  0.00000000  0.00000000  0.17083500  1
  Mg  Mg6  1  0.50000000  0.74769600  0.08283400  1
  Mg  Mg7  1  0.50000000  0.25230400  0.08283400  1
  Mg  Mg8  1  0.00000000  0.72621000  0.91963900  1
  Mg  Mg9  1  0.00000000  0.27379000  0.91963900  1
  Mg  Mg10  1  0.00000000  0.50000000  0.15547000  1
  Mg  Mg11  1  0.00000000  0.50000000  0.67083500  1
  Cr  Cr0  1  0.50000000  0.00000000  0.33442700  1
  Cr  Cr1  1  0.50000000  0.50000000  0.83442700  1
loop_
_geom_bond_atom_site_label_1
_geom_bond_atom_site_label_2
_geom_bond_distance
_geom_bond_site_symmetry_2
Mg0 Mg4 3.262549 1_555
Mg0 Mg4 3.262549 1_655
Mg0 Mg2 3.282497 1_655
Mg0 Mg2 3.282497 1_555
Mg0 Mg1 3.326113 1_545
Mg0 Mg11 3.328725 1_655
Mg0 Mg11 3.328725 1_555
Mg0 Rb1 3.344332 1_555
Mg0 Rb0 3.358827 1_555
Mg0 Mg1 3.387991 1_555
Mg1 Mg4 3.262549 1_565
Mg1 Mg4 3.262549 1_665
Mg1 Mg3 3.282497 1_655
Mg1 Mg3 3.282497 1_555
Mg1 Mg11 3.328725 1_655
Mg1 Mg11 3.328725 1_555
Mg1 Rb1 3.344332 1_555
Mg1 Rb0 3.358827 1_565
Mg2 Mg4 3.129705 1_555
Mg2 Mg5 3.262142 1_555
Mg2 Rb1 3.395177 1_455
Mg2 Rb1 3.395177 1_555
Mg3 Mg4 3.129705 1_565
Mg3 Mg5 3.262142 1_565
Mg3 Rb1 3.395177 1_455
Mg3 Rb1 3.395177 1_555
Mg4 Rb0 3.387519 1_555
Mg4 Rb0 3.387519 1_455
Mg5 Mg6 3.328725 1_445
Mg5 Mg6 3.328725 1_545
Mg5 Mg7 3.328725 1_455
Mg5 Mg7 3.328725 1_555
Mg5 Mg9 3.446018 1_554
Mg5 Mg8 3.446018 1_544
Mg6 Mg8 3.282497 1_654
Mg6 Mg8 3.282497 1_554
Mg6 Mg7 3.326113 1_555
Mg6 Rb0 3.344332 1_564
Mg6 Rb1 3.358827 1_555
Mg6 Mg7 3.387991 1_565
Mg7 Mg9 3.282497 1_554
Mg7 Mg9 3.282497 1_654
Mg7 Rb0 3.344332 1_554
Mg7 Rb1 3.358827 1_555
Mg8 Rb0 3.395177 1_465
Mg8 Rb0 3.395177 1_565
Mg9 Rb0 3.395177 1_455
Mg9 Rb0 3.395177 1_555
Mg10 Mg8 3.129705 1_554
Mg10 Mg9 3.129705 1_554
Mg10 Mg7 3.262549 1_555
Mg10 Mg7 3.262549 1_455
Mg10 Mg6 3.262549 1_455
Mg10 Mg6 3.262549 1_555
Mg10 Mg5 3.361783 1_565
Mg10 Mg5 3.361783 1_555
Mg10 Rb1 3.387519 1_555
Mg10 Rb1 3.387519 1_455
Mg11 Mg8 3.262142 1_555
Mg11 Mg9 3.262142 1_555
Mg11 Mg4 3.361783 1_555
Mg11 Mg4 3.361783 1_565
Mg11 Mg3 3.446018 1_555
Mg11 Mg2 3.446018 1_555
Cr0 Mg2 3.233032 1_555
Cr0 Mg3 3.233032 1_645
Cr0 Mg3 3.233032 1_545
Cr0 Mg2 3.233032 1_655
Cr0 Mg5 3.281988 1_555
Cr0 Mg5 3.281988 1_655
Cr0 Mg0 3.327763 1_555
Cr0 Mg1 3.327763 1_545
Cr0 Rb1 3.357052 1_545
Cr0 Rb1 3.357052 1_555
Cr0 Mg7 3.375256 1_555
Cr0 Mg6 3.375256 1_545
Cr1 Mg8 3.233032 1_555
Cr1 Mg8 3.233032 1_655
Cr1 Mg9 3.233032 1_555
Cr1 Mg9 3.233032 1_655
Cr1 Mg11 3.281988 1_655
Cr1 Mg11 3.281988 1_555
Cr1 Mg7 3.327763 1_556
Cr1 Mg6 3.327763 1_556
Cr1 Rb0 3.357052 1_565
Cr1 Rb0 3.357052 1_555
Cr1 Mg1 3.375256 1_555
Cr1 Mg0 3.375256 1_555
