# generated using pymatgen
data_Na2InSiO5
_symmetry_space_group_name_H-M   'P 1'
_cell_length_a   6.43023200
_cell_length_b   7.11587500
_cell_length_c   9.14441800
_cell_angle_alpha   90.00000000
_cell_angle_beta   90.00000000
_cell_angle_gamma   90.00000000
_symmetry_Int_Tables_number   1
_chemical_formula_structural   Na2InSiO5
_chemical_formula_sum   'Na8 In4 Si4 O20'
_cell_volume   418.41863922
_cell_formula_units_Z   4
loop_
 _symmetry_equiv_pos_site_id
 _symmetry_equiv_pos_as_xyz
  1  'x, y, z'
loop_
 _atom_site_type_symbol
 _atom_site_label
 _atom_site_symmetry_multiplicity
 _atom_site_fract_x
 _atom_site_fract_y
 _atom_site_fract_z
 _atom_site_occupancy
  Na  Na0  1  0.87894100  0.03022400  0.32664900  1
  Na  Na1  1  0.62105900  0.46977600  0.82664900  1
  Na  Na2  1  0.12105900  0.53022400  0.67335100  1
  Na  Na3  1  0.37894100  0.96977600  0.17335100  1
  Na  Na4  1  0.12105900  0.96977600  0.67335100  1
  Na  Na5  1  0.37894100  0.53022400  0.17335100  1
  Na  Na6  1  0.87894100  0.46977600  0.32664900  1
  Na  Na7  1  0.62105900  0.03022400  0.82664900  1
  In  In0  1  0.88169400  0.75000000  0.03870100  1
  In  In1  1  0.61830600  0.75000000  0.53870100  1
  In  In2  1  0.11830600  0.25000000  0.96129900  1
  In  In3  1  0.38169400  0.25000000  0.46129900  1
  Si  Si0  1  0.67565200  0.25000000  0.10054800  1
  Si  Si1  1  0.82434800  0.25000000  0.60054800  1
  Si  Si2  1  0.32434800  0.75000000  0.89945200  1
  Si  Si3  1  0.17565200  0.75000000  0.39945200  1
  O  O0  1  0.82623600  0.06630700  0.06774400  1
  O  O1  1  0.67376400  0.43369300  0.56774400  1
  O  O2  1  0.17376400  0.56630700  0.93225600  1
  O  O3  1  0.32623600  0.93369300  0.43225600  1
  O  O4  1  0.17376400  0.93369300  0.93225600  1
  O  O5  1  0.32623600  0.56630700  0.43225600  1
  O  O6  1  0.82623600  0.43369300  0.06774400  1
  O  O7  1  0.67376400  0.06630700  0.56774400  1
  O  O8  1  0.59966200  0.25000000  0.27335700  1
  O  O9  1  0.90033800  0.25000000  0.77335700  1
  O  O10  1  0.40033800  0.75000000  0.72664300  1
  O  O11  1  0.09966200  0.75000000  0.22664300  1
  O  O12  1  0.02708600  0.25000000  0.49126600  1
  O  O13  1  0.47291400  0.25000000  0.99126600  1
  O  O14  1  0.97291400  0.75000000  0.50873400  1
  O  O15  1  0.52708600  0.75000000  0.00873400  1
  O  O16  1  0.68613000  0.75000000  0.30343700  1
  O  O17  1  0.81387000  0.75000000  0.80343700  1
  O  O18  1  0.31387000  0.25000000  0.69656300  1
  O  O19  1  0.18613000  0.25000000  0.19656300  1
loop_
_geom_bond_atom_site_label_1
_geom_bond_atom_site_label_2
_geom_bond_distance
_geom_bond_site_symmetry_2
Na0 O16 2.357626 1_545
Na0 O12 2.370495 1_655
Na0 O0 2.405412 1_555
Na0 O8 2.430692 1_555
Na0 O7 2.582084 1_555
Na0 O11 2.612828 1_645
Na0 O14 2.667163 1_545
Na0 O19 2.786150 1_655
Na1 O17 2.357626 1_555
Na1 O13 2.370495 1_555
Na1 O1 2.405412 1_555
Na1 O9 2.430692 1_555
Na1 O6 2.582084 1_556
Na1 O10 2.612828 1_555
Na1 O15 2.667163 1_556
Na1 O18 2.786150 1_555
Na2 O18 2.357626 1_555
Na2 O14 2.370495 1_455
Na2 O2 2.405412 1_555
Na2 O10 2.430692 1_555
Na2 O5 2.582084 1_555
Na2 O9 2.612828 1_455
Na2 O12 2.667163 1_555
Na2 O17 2.786150 1_455
Na3 O19 2.357626 1_565
Na3 O15 2.370495 1_555
Na3 O3 2.405412 1_555
Na3 O11 2.430692 1_555
Na3 O4 2.582084 1_554
Na3 O8 2.612828 1_565
Na3 O13 2.667163 1_564
Na3 O16 2.786150 1_555
Na4 O18 2.357626 1_565
Na4 O14 2.370495 1_455
Na4 O4 2.405412 1_555
Na4 O10 2.430692 1_555
Na4 O3 2.582084 1_555
Na4 O9 2.612828 1_465
Na4 O12 2.667163 1_565
Na4 O17 2.786150 1_455
Na5 O19 2.357626 1_555
Na5 O15 2.370495 1_555
Na5 O5 2.405412 1_555
Na5 O11 2.430692 1_555
Na5 O2 2.582084 1_554
Na5 O8 2.612828 1_555
Na5 O13 2.667163 1_554
Na5 O16 2.786150 1_555
Na6 O16 2.357626 1_555
Na6 O12 2.370495 1_655
Na6 O6 2.405412 1_555
Na6 O8 2.430692 1_555
Na6 O1 2.582084 1_555
Na6 O11 2.612828 1_655
Na6 O14 2.667163 1_555
Na6 O19 2.786150 1_655
Na7 O17 2.357626 1_545
Na7 O13 2.370495 1_555
Na7 O7 2.405412 1_555
Na7 O9 2.430692 1_555
Na7 O0 2.582084 1_556
Na7 O10 2.612828 1_545
Na7 O15 2.667163 1_546
Na7 O18 2.786150 1_555
In0 O17 2.195113 1_554
In0 O11 2.217678 1_655
In0 O0 2.294299 1_565
In0 O6 2.294299 1_555
In0 O15 2.296619 1_555
In0 O2 2.486613 1_654
In0 O4 2.486613 1_654
In0 O16 2.727986 1_555
In1 O16 2.195113 1_555
In1 O10 2.217678 1_555
In1 O7 2.294299 1_565
In1 O1 2.294299 1_555
In1 O14 2.296619 1_555
In1 O5 2.486613 1_555
In1 O3 2.486613 1_555
In1 O17 2.727986 1_555
In2 O19 2.195113 1_556
In2 O9 2.217678 1_455
In2 O4 2.294299 1_545
In2 O2 2.294299 1_555
In2 O13 2.296619 1_555
In2 O6 2.486613 1_456
In2 O0 2.486613 1_456
In2 O18 2.727986 1_555
In3 O18 2.195113 1_555
In3 O8 2.217678 1_555
In3 O3 2.294299 1_545
In3 O5 2.294299 1_555
In3 O12 2.296619 1_555
In3 O1 2.486613 1_555
In3 O7 2.486613 1_555
In3 O19 2.727986 1_555
O0 Si0 1.654139 1_555
O1 Si1 1.654139 1_555
O2 Si2 1.654139 1_555
O3 Si3 1.654139 1_555
O4 Si2 1.654139 1_555
O5 Si3 1.654139 1_555
O6 Si0 1.654139 1_555
O7 Si1 1.654139 1_555
O8 Si0 1.654060 1_555
O9 Si1 1.654060 1_555
O10 Si2 1.654060 1_555
O11 Si3 1.654060 1_555
O12 Si1 1.642605 1_455
O13 Si0 1.642605 1_556
O14 Si3 1.642605 1_655
O15 Si2 1.642605 1_554
