# generated using pymatgen
data_Cu6Te2Mo2H2Cl4O15
_symmetry_space_group_name_H-M   'P 1'
_cell_length_a   6.22355105
_cell_length_b   6.45924509
_cell_length_c   12.12872265
_cell_angle_alpha   81.30151490
_cell_angle_beta   85.30323377
_cell_angle_gamma   86.04991015
_symmetry_Int_Tables_number   1
_chemical_formula_structural   Cu6Te2Mo2H2Cl4O15
_chemical_formula_sum   'Cu6 Te2 Mo2 H2 Cl4 O15'
_cell_volume   479.55070872
_cell_formula_units_Z   1
loop_
 _symmetry_equiv_pos_site_id
 _symmetry_equiv_pos_as_xyz
  1  'x, y, z'
loop_
 _atom_site_type_symbol
 _atom_site_label
 _atom_site_symmetry_multiplicity
 _atom_site_fract_x
 _atom_site_fract_y
 _atom_site_fract_z
 _atom_site_occupancy
  Cu  Cu0  1  0.33995000  0.46729600  0.10528000  1
  Cu  Cu1  1  0.65919000  0.53145400  0.89442500  1
  Cu  Cu2  1  0.01165800  0.10154700  0.10634000  1
  Cu  Cu3  1  0.98902900  0.89711200  0.89397100  1
  Cu  Cu4  1  0.32871200  0.96354400  0.30563600  1
  Cu  Cu5  1  0.66652700  0.04547800  0.69387800  1
  Te  Te0  1  0.16645900  0.38561100  0.84038100  1
  Te  Te1  1  0.83252800  0.61313500  0.15820800  1
  Mo  Mo0  1  0.15128500  0.95171200  0.60798700  1
  Mo  Mo1  1  0.84882400  0.04003100  0.39307300  1
  H  H0  1  0.91376700  0.55680400  0.40519100  1
  H  H1  1  0.99412000  0.60581500  0.51655900  1
  Cl  Cl0  1  0.34326500  0.53424400  0.28003200  1
  Cl  Cl1  1  0.65748500  0.46406700  0.72037100  1
  Cl  Cl2  1  0.48240900  0.04415300  0.13333400  1
  Cl  Cl3  1  0.51399500  0.95511000  0.86507300  1
  O  O0  1  0.63396100  0.54539100  0.05807100  1
  O  O1  1  0.36501700  0.45467200  0.94057200  1
  O  O2  1  0.19666500  0.68152200  0.64011900  1
  O  O3  1  0.81094600  0.30981600  0.35292000  1
  O  O4  1  0.01605200  0.17271100  0.94216500  1
  O  O5  1  0.98377900  0.82684300  0.05751600  1
  O  O6  1  0.16989200  0.99764300  0.44662400  1
  O  O7  1  0.83828200  0.03310700  0.55526100  1
  O  O8  1  0.02837600  0.97657200  0.26174400  1
  O  O9  1  0.97190400  0.01739900  0.73872300  1
  O  O10  1  0.59898800  0.94177200  0.36902400  1
  O  O11  1  0.38888500  0.07555200  0.62997300  1
  O  O12  1  0.04241300  0.39186900  0.12430000  1
  O  O13  1  0.95656800  0.60696200  0.87507100  1
  O  O14  1  0.89887000  0.65955400  0.45747900  1
loop_
_geom_bond_atom_site_label_1
_geom_bond_atom_site_label_2
_geom_bond_distance
_geom_bond_site_symmetry_2
Cu0 O12 1.933871 1_555
Cu0 O0 1.949019 1_555
Cu0 O1 2.004561 1_554
Cu1 O13 1.933088 1_555
Cu1 O1 1.945352 1_555
Cu1 O0 1.993318 1_556
Cu2 O8 1.943055 1_545
Cu2 O12 1.944358 1_555
Cu2 O4 1.973072 1_554
Cu2 O5 1.976426 1_445
Cu3 O9 1.933783 1_565
Cu3 O13 1.948203 1_555
Cu3 O5 1.964898 1_556
Cu3 O4 1.977630 1_665
Cu4 O10 1.893865 1_555
Cu4 O6 1.938231 1_555
Cu4 O8 1.977868 1_555
Cu5 O7 1.926173 1_555
Cu5 O11 1.936941 1_555
Cu5 O9 2.008160 1_555
Mo0 O2 1.738345 1_555
Mo0 O11 1.785953 1_565
Mo0 O6 1.929707 1_555
Mo0 O9 1.946535 1_465
Mo0 O7 2.107427 1_465
Mo1 O3 1.742107 1_555
Mo1 O10 1.780937 1_545
Mo1 O8 1.948533 1_645
Mo1 O7 1.956675 1_555
Mo1 O6 2.138441 1_645
Mo1 O14 2.469960 1_545
H0 O14 0.980037 1_555
H1 O14 0.975365 1_555
Cl0 Cu0 2.228318 1_555
Cl0 Cu4 2.831107 1_555
Cl1 Cu1 2.219989 1_555
Cl1 Cu5 2.766883 1_555
Cl2 Cu4 2.228337 1_545
Cl2 Cu0 2.793990 1_555
Cl2 Cu2 2.966269 1_555
Cl3 Cu5 2.222648 1_565
Cl3 Cu1 2.801613 1_555
Cl3 Cu3 2.996810 1_555
O0 Te1 1.916975 1_555
O1 Te0 1.920558 1_555
O4 Te0 1.940606 1_555
O5 Te1 1.940078 1_555
O12 Te1 1.936651 1_455
O13 Te0 1.939642 1_655
