# generated using pymatgen
data_TaTiFeO6
_symmetry_space_group_name_H-M   'P 1'
_cell_length_a   4.70940601
_cell_length_b   10.23788081
_cell_length_c   9.41876202
_cell_angle_alpha   62.61917633
_cell_angle_beta   89.99493270
_cell_angle_gamma   89.99938169
_symmetry_Int_Tables_number   1
_chemical_formula_structural   TaTiFeO6
_chemical_formula_sum   'Ta4 Ti4 Fe4 O24'
_cell_volume   403.24408399
_cell_formula_units_Z   4
loop_
 _symmetry_equiv_pos_site_id
 _symmetry_equiv_pos_as_xyz
  1  'x, y, z'
loop_
 _atom_site_type_symbol
 _atom_site_label
 _atom_site_symmetry_multiplicity
 _atom_site_fract_x
 _atom_site_fract_y
 _atom_site_fract_z
 _atom_site_occupancy
  Ta  Ta0  1  0.49984700  0.83393100  0.83298800  1
  Ta  Ta1  1  0.49995400  0.83410000  0.33295000  1
  Ta  Ta2  1  0.00006000  0.33407900  0.33302100  1
  Ta  Ta3  1  0.00015500  0.33386800  0.83308000  1
  Ti  Ti0  1  0.50010400  0.49931100  0.00032400  1
  Ti  Ti1  1  0.50021400  0.49937200  0.50036500  1
  Ti  Ti2  1  0.99991100  0.99924100  0.00027900  1
  Ti  Ti3  1  0.99978100  0.99937400  0.50034300  1
  Fe  Fe0  1  0.50011300  0.16816300  0.16611000  1
  Fe  Fe1  1  0.00012800  0.66773100  0.16604000  1
  Fe  Fe2  1  0.49993900  0.16758800  0.66608500  1
  Fe  Fe3  1  0.99985300  0.66762400  0.66597600  1
  O  O0  1  0.19256700  0.16547000  0.01355700  1
  O  O1  1  0.19256600  0.16538600  0.51355700  1
  O  O2  1  0.80742100  0.16534800  0.32109400  1
  O  O3  1  0.80743400  0.16533600  0.82103500  1
  O  O4  1  0.30742600  0.66541200  0.01359600  1
  O  O5  1  0.30743600  0.66536400  0.51359900  1
  O  O6  1  0.69257500  0.66531100  0.82106200  1
  O  O7  1  0.69257500  0.66532300  0.32112800  1
  O  O8  1  0.19999900  0.49621000  0.85193400  1
  O  O9  1  0.20002300  0.49620700  0.35197500  1
  O  O10  1  0.79973100  0.49613900  0.15189600  1
  O  O11  1  0.79970200  0.49620700  0.65183600  1
  O  O12  1  0.30000400  0.99626000  0.35196600  1
  O  O13  1  0.29998400  0.99622000  0.85192400  1
  O  O14  1  0.70024100  0.99616700  0.15192400  1
  O  O15  1  0.70027600  0.99620100  0.65184300  1
  O  O16  1  0.19698100  0.83789500  0.67945400  1
  O  O17  1  0.19700900  0.83784800  0.17952400  1
  O  O18  1  0.80323400  0.83787500  0.98263800  1
  O  O19  1  0.80321100  0.83783200  0.48266300  1
  O  O20  1  0.30298100  0.33790800  0.17950800  1
  O  O21  1  0.30299900  0.33791800  0.67945400  1
  O  O22  1  0.69679700  0.33793700  0.98261800  1
  O  O23  1  0.69676900  0.33785100  0.48264600  1
loop_
_geom_bond_atom_site_label_1
_geom_bond_atom_site_label_2
_geom_bond_distance
_geom_bond_site_symmetry_2
Fe0 O20 2.024725 1_555
Fe0 O22 2.025503 1_554
Fe0 O2 2.046435 1_555
Fe0 O0 2.049361 1_555
Fe0 O12 2.053243 1_545
Fe0 O14 2.055033 1_545
Fe1 O18 2.027457 1_454
Fe1 O17 2.027961 1_555
Fe1 O4 2.046346 1_555
Fe1 O7 2.049074 1_455
Fe1 O9 2.051446 1_555
Fe1 O10 2.051795 1_455
Fe2 O23 2.027926 1_555
Fe2 O21 2.029501 1_555
Fe2 O1 2.046935 1_555
Fe2 O3 2.048648 1_555
Fe2 O15 2.050201 1_545
Fe2 O13 2.050295 1_545
Fe3 O19 2.026838 1_555
Fe3 O16 2.029867 1_655
Fe3 O5 2.046648 1_655
Fe3 O6 2.048453 1_555
Fe3 O11 2.049658 1_555
Fe3 O8 2.051567 1_655
O0 Ti2 1.982645 1_445
O0 Ta3 1.996894 1_554
O1 Ti3 1.980676 1_445
O1 Ta2 1.998774 1_555
O2 Ti3 1.979869 1_545
O2 Ta2 1.999570 1_655
O3 Ti2 1.980677 1_546
O3 Ta3 1.998438 1_655
O4 Ti0 1.981477 1_555
O4 Ta0 1.997939 1_554
O5 Ti1 1.980539 1_555
O5 Ta1 1.999371 1_555
O6 Ti0 1.980168 1_556
O6 Ta0 1.998720 1_555
O7 Ti1 1.979589 1_555
O7 Ta1 1.999477 1_555
O8 Ta3 1.987763 1_555
O8 Ti0 1.998264 1_556
O9 Ta2 1.986554 1_555
O9 Ti1 1.998772 1_555
O10 Ta2 1.987451 1_655
O10 Ti0 1.996991 1_555
O11 Ta3 1.989517 1_655
O11 Ti1 1.995878 1_555
O12 Ta1 1.987057 1_555
O12 Ti3 1.998441 1_455
O13 Ta0 1.987664 1_555
O13 Ti2 1.997473 1_456
O14 Ta1 1.986820 1_555
O14 Ti2 1.997756 1_555
O15 Ta0 1.988584 1_555
O15 Ti3 1.995924 1_555
O16 Ti3 1.968878 1_455
O16 Ta0 2.018321 1_555
O17 Ti2 1.968854 1_455
O17 Ta1 2.018550 1_555
O18 Ti2 1.966549 1_556
O18 Ta0 2.020512 1_555
O19 Ti3 1.968069 1_555
O19 Ta1 2.019760 1_555
O20 Ti0 1.968560 1_555
O20 Ta2 2.018613 1_555
O21 Ti1 1.968576 1_555
O21 Ta3 2.018409 1_555
O22 Ti0 1.966914 1_556
O22 Ta3 2.019929 1_655
O23 Ti1 1.967989 1_555
O23 Ta2 2.019249 1_655
