# generated using pymatgen
data_YbTlS2
_symmetry_space_group_name_H-M   'P 1'
_cell_length_a   4.09169435
_cell_length_b   4.09169435
_cell_length_c   7.15392233
_cell_angle_alpha   73.38282078
_cell_angle_beta   73.38282078
_cell_angle_gamma   59.99999432
_symmetry_Int_Tables_number   1
_chemical_formula_structural   YbTlS2
_chemical_formula_sum   'Yb1 Tl1 S2'
_cell_volume   97.90607051
_cell_formula_units_Z   1
loop_
 _symmetry_equiv_pos_site_id
 _symmetry_equiv_pos_as_xyz
  1  'x, y, z'
loop_
 _atom_site_type_symbol
 _atom_site_label
 _atom_site_symmetry_multiplicity
 _atom_site_fract_x
 _atom_site_fract_y
 _atom_site_fract_z
 _atom_site_occupancy
  Yb  Yb0  1  0.00000000  0.00000000  0.00000000  1
  Tl  Tl0  1  0.50000000  0.50000000  0.50000000  1
  S  S0  1  0.74228800  0.74228800  0.77313600  1
  S  S1  1  0.25771200  0.25771200  0.22686400  1
loop_
_geom_bond_atom_site_label_1
_geom_bond_atom_site_label_2
_geom_bond_distance
_geom_bond_site_symmetry_2
S0 Yb0 2.815574 1_566
S0 Yb0 2.815574 1_656
S0 Yb0 2.815574 1_666
S0 Tl0 2.997067 1_565
S0 Tl0 2.997067 1_655
S0 Tl0 2.997067 1_555
S1 Yb0 2.815574 1_655
S1 Yb0 2.815574 1_565
S1 Yb0 2.815574 1_555
S1 Tl0 2.997067 1_545
S1 Tl0 2.997067 1_455
S1 Tl0 2.997067 1_555
