# generated using pymatgen
data_Co4(CuO4)3
_symmetry_space_group_name_H-M   'P 1'
_cell_length_a   7.14017145
_cell_length_b   7.14087616
_cell_length_c   7.14354698
_cell_angle_alpha   90.00356994
_cell_angle_beta   89.99676941
_cell_angle_gamma   89.99662297
_symmetry_Int_Tables_number   1
_chemical_formula_structural   Co4(CuO4)3
_chemical_formula_sum   'Co8 Cu6 O24'
_cell_volume   364.22860011
_cell_formula_units_Z   2
loop_
 _symmetry_equiv_pos_site_id
 _symmetry_equiv_pos_as_xyz
  1  'x, y, z'
loop_
 _atom_site_type_symbol
 _atom_site_label
 _atom_site_symmetry_multiplicity
 _atom_site_fract_x
 _atom_site_fract_y
 _atom_site_fract_z
 _atom_site_occupancy
  Co  Co0  1  0.25000300  0.25000000  0.24999900  1
  Co  Co1  1  0.74999700  0.74999900  0.75000000  1
  Co  Co2  1  0.25000400  0.74999900  0.75000100  1
  Co  Co3  1  0.74999600  0.25000100  0.24999900  1
  Co  Co4  1  0.25000400  0.74999900  0.24999900  1
  Co  Co5  1  0.74999600  0.25000100  0.75000200  1
  Co  Co6  1  0.74999700  0.75000000  0.24999800  1
  Co  Co7  1  0.25000400  0.25000100  0.75000100  1
  Cu  Cu0  1  0.49998400  0.99994400  0.50000300  1
  Cu  Cu1  1  0.00000500  0.50001200  0.49999200  1
  Cu  Cu2  1  0.50000200  0.50003600  0.00001500  1
  Cu  Cu3  1  0.00001300  0.50005800  0.99999600  1
  Cu  Cu4  1  0.49999200  0.99998500  0.00000900  1
  Cu  Cu5  1  0.00000100  0.99996400  0.49998600  1
  O  O0  1  0.81457800  0.50004600  0.31850100  1
  O  O1  1  0.31457700  0.00003200  0.81850300  1
  O  O2  1  0.68541900  0.99995400  0.18149900  1
  O  O3  1  0.18542800  0.49996800  0.68149500  1
  O  O4  1  0.18542100  0.49996400  0.31852600  1
  O  O5  1  0.68541900  0.99999600  0.81851300  1
  O  O6  1  0.18155600  0.68538300  0.99997100  1
  O  O7  1  0.68157000  0.18540800  0.49998600  1
  O  O8  1  0.99998200  0.81851100  0.31454600  1
  O  O9  1  0.50002400  0.31851400  0.81452900  1
  O  O10  1  0.49998000  0.68149300  0.81460200  1
  O  O11  1  0.99999900  0.18149900  0.31459500  1
  O  O12  1  0.18159600  0.31458300  0.99999400  1
  O  O13  1  0.68159900  0.81457800  0.49997000  1
  O  O14  1  0.50002000  0.68148100  0.18545800  1
  O  O15  1  0.99997500  0.18149600  0.68546900  1
  O  O16  1  0.31458200  0.00003500  0.18147500  1
  O  O17  1  0.81457800  0.50000400  0.68148600  1
  O  O18  1  0.31843500  0.81460800  0.50002800  1
  O  O19  1  0.81843900  0.31460100  0.00001500  1
  O  O20  1  0.00002100  0.81849900  0.68539500  1
  O  O21  1  0.50000000  0.31850900  0.18540700  1
  O  O22  1  0.31839600  0.18542700  0.50000700  1
  O  O23  1  0.81841000  0.68541200  0.00002900  1
loop_
_geom_bond_atom_site_label_1
_geom_bond_atom_site_label_2
_geom_bond_distance
_geom_bond_site_symmetry_2
Co0 O16 1.907385 1_555
Co0 O4 1.907389 1_555
Co0 O21 1.907505 1_555
Co0 O11 1.907544 1_455
Co0 O22 1.908105 1_555
Co0 O12 1.908128 1_554
Co1 O17 1.907570 1_555
Co1 O5 1.907577 1_555
Co1 O10 1.907650 1_555
Co1 O20 1.907691 1_655
Co1 O13 1.908271 1_555
Co1 O23 1.908306 1_556
Co2 O10 1.907369 1_555
Co2 O20 1.907414 1_555
Co2 O3 1.907852 1_555
Co2 O1 1.907853 1_565
Co2 O18 1.907965 1_555
Co2 O6 1.907988 1_555
Co3 O21 1.907491 1_555
Co3 O11 1.907534 1_555
Co3 O0 1.907948 1_555
Co3 O2 1.907949 1_545
Co3 O7 1.908022 1_555
Co3 O19 1.908045 1_555
Co4 O14 1.907492 1_555
Co4 O8 1.907531 1_455
Co4 O16 1.907965 1_565
Co4 O4 1.907973 1_555
Co4 O18 1.908337 1_555
Co4 O6 1.908373 1_554
Co5 O9 1.907164 1_555
Co5 O15 1.907207 1_555
Co5 O5 1.907733 1_545
Co5 O17 1.907737 1_555
Co5 O7 1.908213 1_555
Co5 O19 1.908236 1_556
Co6 O14 1.907334 1_555
Co6 O2 1.907334 1_555
Co6 O0 1.907346 1_555
Co6 O8 1.907386 1_555
Co6 O13 1.907777 1_555
Co6 O23 1.907801 1_555
Co7 O3 1.907430 1_555
Co7 O1 1.907431 1_555
Co7 O9 1.907589 1_555
Co7 O15 1.907642 1_455
Co7 O22 1.907906 1_555
Co7 O12 1.907942 1_555
Cu0 O18 1.852599 1_555
Cu0 O13 1.852973 1_555
Cu0 O22 1.853435 1_565
Cu0 O7 1.853437 1_565
Cu1 O4 1.852821 1_555
Cu1 O17 1.853017 1_455
Cu1 O0 1.853106 1_455
Cu1 O3 1.853146 1_555
Cu2 O14 1.852957 1_555
Cu2 O10 1.852979 1_554
Cu2 O21 1.853221 1_555
Cu2 O9 1.853561 1_554
Cu3 O6 1.852513 1_555
Cu3 O23 1.852851 1_456
Cu3 O19 1.853341 1_456
Cu3 O12 1.853369 1_555
Cu4 O16 1.852790 1_565
Cu4 O5 1.853027 1_554
Cu4 O2 1.853101 1_555
Cu4 O1 1.853120 1_564
Cu5 O8 1.852981 1_455
Cu5 O20 1.852998 1_555
Cu5 O11 1.853256 1_465
Cu5 O15 1.853595 1_465
