# generated using pymatgen
data_TaOs3
_symmetry_space_group_name_H-M   'P 1'
_cell_length_a   5.58131233
_cell_length_b   5.58131233
_cell_length_c   4.44575187
_cell_angle_alpha   90.00000000
_cell_angle_beta   90.00000000
_cell_angle_gamma   119.99999849
_symmetry_Int_Tables_number   1
_chemical_formula_structural   TaOs3
_chemical_formula_sum   'Ta2 Os6'
_cell_volume   119.93571020
_cell_formula_units_Z   2
loop_
 _symmetry_equiv_pos_site_id
 _symmetry_equiv_pos_as_xyz
  1  'x, y, z'
loop_
 _atom_site_type_symbol
 _atom_site_label
 _atom_site_symmetry_multiplicity
 _atom_site_fract_x
 _atom_site_fract_y
 _atom_site_fract_z
 _atom_site_occupancy
  Ta  Ta0  1  0.33333300  0.66666700  0.75000000  1
  Ta  Ta1  1  0.66666700  0.33333300  0.25000000  1
  Os  Os0  1  0.16537797  0.33075694  0.25000000  1
  Os  Os1  1  0.66924306  0.83462203  0.25000000  1
  Os  Os2  1  0.16537797  0.83462203  0.25000000  1
  Os  Os3  1  0.83462203  0.66924306  0.75000000  1
  Os  Os4  1  0.33075694  0.16537797  0.75000000  1
  Os  Os5  1  0.83462203  0.16537797  0.75000000  1
loop_
_geom_bond_atom_site_label_1
_geom_bond_atom_site_label_2
_geom_bond_distance
_geom_bond_site_symmetry_2
Os0 Os5 2.738085 1_455
Os0 Os5 2.738085 1_454
Os0 Os4 2.738091 1_554
Os0 Os4 2.738091 1_555
Os0 Ta0 2.752705 1_555
Os0 Ta0 2.752705 1_554
Os0 Os2 2.769084 1_545
Os0 Os1 2.769084 1_445
Os0 Ta1 2.790678 1_455
Os0 Ta1 2.790690 1_555
Os0 Os2 2.812228 1_555
Os0 Os1 2.812229 1_555
Os1 Os5 2.738085 1_565
Os1 Os5 2.738085 1_564
Os1 Os3 2.738091 1_555
Os1 Os3 2.738091 1_554
Os1 Ta0 2.752705 1_555
Os1 Ta0 2.752705 1_554
Os1 Os2 2.769084 1_655
Os1 Ta1 2.790678 1_565
Os1 Ta1 2.790690 1_555
Os1 Os2 2.812228 1_555
Os2 Os4 2.738085 1_565
Os2 Os4 2.738085 1_564
Os2 Os3 2.738085 1_454
Os2 Os3 2.738085 1_455
Os2 Ta0 2.752705 1_555
Os2 Ta0 2.752705 1_554
Os2 Ta1 2.790684 1_455
Os2 Ta1 2.790684 1_565
Os3 Ta1 2.752705 1_555
Os3 Ta1 2.752705 1_556
Os3 Os5 2.769084 1_565
Os3 Os4 2.769084 1_665
Os3 Ta0 2.790678 1_655
Os3 Ta0 2.790690 1_555
Os3 Os5 2.812228 1_555
Os3 Os4 2.812229 1_555
Os4 Ta1 2.752705 1_555
Os4 Ta1 2.752705 1_556
Os4 Os5 2.769084 1_455
Os4 Ta0 2.790678 1_545
Os4 Ta0 2.790690 1_555
Os4 Os5 2.812228 1_555
Os5 Ta1 2.752705 1_556
Os5 Ta1 2.752705 1_555
Os5 Ta0 2.790684 1_545
Os5 Ta0 2.790684 1_655
