# generated using pymatgen
data_RbNd(PO3)4
_symmetry_space_group_name_H-M   'P 1'
_cell_length_a   13.26510842
_cell_length_b   13.26510842
_cell_length_c   13.27005202
_cell_angle_alpha   70.53171666
_cell_angle_beta   70.53171666
_cell_angle_gamma   109.46043834
_symmetry_Int_Tables_number   1
_chemical_formula_structural   RbNd(PO3)4
_chemical_formula_sum   'Rb6 Nd6 P24 O72'
_cell_volume   1797.88366084
_cell_formula_units_Z   6
loop_
 _symmetry_equiv_pos_site_id
 _symmetry_equiv_pos_as_xyz
  1  'x, y, z'
loop_
 _atom_site_type_symbol
 _atom_site_label
 _atom_site_symmetry_multiplicity
 _atom_site_fract_x
 _atom_site_fract_y
 _atom_site_fract_z
 _atom_site_occupancy
  Rb  Rb0  1  0.50089300  0.27837400  0.49853300  1
  Rb  Rb1  1  0.72252500  0.22289000  0.77859100  1
  Rb  Rb2  1  0.99921100  0.99830800  0.72310300  1
  Rb  Rb3  1  0.27837400  0.50089300  0.99853300  1
  Rb  Rb4  1  0.22289000  0.72252500  0.27859100  1
  Rb  Rb5  1  0.99830800  0.99921100  0.22310300  1
  Nd  Nd0  1  0.62411200  0.87313900  0.74768900  1
  Nd  Nd1  1  0.87313900  0.62411200  0.24768900  1
  Nd  Nd2  1  0.12497100  0.74761300  0.62736300  1
  Nd  Nd3  1  0.37602000  0.25113800  0.87487700  1
  Nd  Nd4  1  0.25113800  0.37602000  0.37487700  1
  Nd  Nd5  1  0.74761300  0.12497100  0.12736300  1
  P  P0  1  0.57870900  0.58713800  0.73744600  1
  P  P1  1  0.32414400  0.81563300  0.76137100  1
  P  P2  1  0.92136000  0.68416800  0.49212700  1
  P  P3  1  0.17550500  0.91346600  0.00744800  1
  P  P4  1  0.58713800  0.57870900  0.23744600  1
  P  P5  1  0.81563300  0.32414400  0.26137100  1
  P  P6  1  0.68416800  0.92136000  0.99212700  1
  P  P7  1  0.91346600  0.17550500  0.50744800  1
  P  P8  1  0.41390700  0.99105000  0.32451900  1
  P  P9  1  0.18373600  0.50856100  0.57867300  1
  P  P10  1  0.31693800  0.23780100  0.17566400  1
  P  P11  1  0.08604200  0.26264000  0.92146600  1
  P  P12  1  0.42139200  0.00750300  0.81600100  1
  P  P13  1  0.67574400  0.49257600  0.58649400  1
  P  P14  1  0.07757600  0.76087600  0.91381300  1
  P  P15  1  0.82412600  0.73686200  0.68488100  1
  P  P16  1  0.00750300  0.42139200  0.31600100  1
  P  P17  1  0.49257600  0.67574400  0.08649400  1
  P  P18  1  0.76087600  0.07757600  0.41381300  1
  P  P19  1  0.73686200  0.82412600  0.18488100  1
  P  P20  1  0.99105000  0.41390700  0.82451900  1
  P  P21  1  0.50856100  0.18373600  0.07867300  1
  P  P22  1  0.23780100  0.31693800  0.67566400  1
  P  P23  1  0.26264000  0.08604200  0.42146600  1
  O  O0  1  0.62815500  0.58495600  0.60846900  1
  O  O1  1  0.19338200  0.73631700  0.89209800  1
  O  O2  1  0.87117600  0.76341800  0.54304000  1
  O  O3  1  0.30685800  0.91504600  0.95697200  1
  O  O4  1  0.58495600  0.62815500  0.10846900  1
  O  O5  1  0.73631700  0.19338200  0.39209800  1
  O  O6  1  0.76341800  0.87117600  0.04304000  1
  O  O7  1  0.91504600  0.30685800  0.45697200  1
  O  O8  1  0.41379200  0.04302700  0.19367600  1
  O  O9  1  0.26329100  0.45664900  0.62832900  1
  O  O10  1  0.23608400  0.10827700  0.30677300  1
  O  O11  1  0.08507100  0.39181000  0.87197500  1
  O  O12  1  0.37203400  0.95703600  0.73617200  1
  O  O13  1  0.80672300  0.54286100  0.58501100  1
  O  O14  1  0.12845700  0.89213500  0.91453400  1
  O  O15  1  0.69368300  0.60798300  0.76287700  1
  O  O16  1  0.95703600  0.37203400  0.23617200  1
  O  O17  1  0.54286100  0.80672300  0.08501100  1
  O  O18  1  0.89213500  0.12845700  0.41453400  1
  O  O19  1  0.60798300  0.69368300  0.26287700  1
  O  O20  1  0.04302700  0.41379200  0.69367600  1
  O  O21  1  0.45664900  0.26329100  0.12832900  1
  O  O22  1  0.10827700  0.23608400  0.80677300  1
  O  O23  1  0.39181000  0.08507100  0.37197500  1
  O  O24  1  0.47194700  0.46116800  0.83975800  1
  O  O25  1  0.29973300  0.81286700  0.66004600  1
  O  O26  1  0.02823800  0.68762700  0.51006700  1
  O  O27  1  0.19855300  0.03890200  0.98932600  1
  O  O28  1  0.46116800  0.47194700  0.33975800  1
  O  O29  1  0.81286700  0.29973300  0.16004600  1
  O  O30  1  0.68762700  0.02823800  0.01006700  1
  O  O31  1  0.03890200  0.19855300  0.48932600  1
  O  O32  1  0.54002300  0.01304400  0.29967500  1
  O  O33  1  0.18779700  0.48867600  0.47224300  1
  O  O34  1  0.31164900  0.34016000  0.19851400  1
  O  O35  1  0.96155700  0.15914500  0.02832600  1
  O  O36  1  0.52843400  0.98971900  0.81237700  1
  O  O37  1  0.69819100  0.50998500  0.46159900  1
  O  O38  1  0.97315300  0.66049100  0.04037000  1
  O  O39  1  0.80140000  0.84015600  0.68775000  1
  O  O40  1  0.98971900  0.52843400  0.31237700  1
  O  O41  1  0.50998500  0.69819100  0.96159900  1
  O  O42  1  0.66049100  0.97315300  0.54037000  1
  O  O43  1  0.84015600  0.80140000  0.18775000  1
  O  O44  1  0.01304400  0.54002300  0.79967500  1
  O  O45  1  0.48867600  0.18779700  0.97224300  1
  O  O46  1  0.34016000  0.31164900  0.69851400  1
  O  O47  1  0.15914500  0.96155700  0.52832600  1
  O  O48  1  0.56346300  0.69774000  0.71261700  1
  O  O49  1  0.40688300  0.77368000  0.79220600  1
  O  O50  1  0.93629500  0.72630700  0.36580800  1
  O  O51  1  0.09283700  0.80268000  0.13417300  1
  O  O52  1  0.69774100  0.56346300  0.21261700  1
  O  O53  1  0.77368000  0.40688300  0.29220600  1
  O  O54  1  0.72630700  0.93629500  0.86580800  1
  O  O55  1  0.80268000  0.09283700  0.63417300  1
  O  O56  1  0.30070900  0.86651700  0.40707100  1
  O  O57  1  0.22399900  0.63417600  0.56345100  1
  O  O58  1  0.27311800  0.20993000  0.09259100  1
  O  O59  1  0.19776500  0.29001100  0.93615600  1
  O  O60  1  0.43616900  0.13389300  0.77368100  1
  O  O61  1  0.59240300  0.36568700  0.69752300  1
  O  O62  1  0.06521900  0.79217500  0.80129900  1
  O  O63  1  0.91072800  0.71254400  0.72339000  1
  O  O64  1  0.13389300  0.43616900  0.27368100  1
  O  O65  1  0.36568700  0.59240300  0.19752300  1
  O  O66  1  0.79217500  0.06522000  0.30129900  1
  O  O67  1  0.71254400  0.91072800  0.22339000  1
  O  O68  1  0.86651700  0.30070900  0.90707100  1
  O  O69  1  0.63417600  0.22399900  0.06345100  1
  O  O70  1  0.20993000  0.27311800  0.59259100  1
  O  O71  1  0.29001100  0.19776500  0.43615600  1
loop_
_geom_bond_atom_site_label_1
_geom_bond_atom_site_label_2
_geom_bond_distance
_geom_bond_site_symmetry_2
Nd0 O42 2.411902 1_555
Nd0 O48 2.449788 1_555
Nd0 O39 2.454686 1_555
Nd0 O41 2.477637 1_555
Nd0 O36 2.491108 1_555
Nd0 O49 2.491124 1_555
Nd0 O55 2.543394 1_565
Nd0 O54 2.555666 1_555
Nd1 O38 2.411902 1_555
Nd1 O52 2.449776 1_555
Nd1 O43 2.454686 1_555
Nd1 O37 2.477637 1_555
Nd1 O40 2.491108 1_555
Nd1 O53 2.491124 1_555
Nd1 O51 2.543394 1_655
Nd1 O50 2.555666 1_555
Nd2 O44 2.414846 1_555
Nd2 O25 2.427952 1_555
Nd2 O57 2.476754 1_555
Nd2 O26 2.485771 1_555
Nd2 O63 2.495381 1_455
Nd2 O47 2.499277 1_555
Nd2 O62 2.511444 1_555
Nd2 O56 2.530201 1_555
Nd3 O24 2.444504 1_555
Nd3 O45 2.451250 1_555
Nd3 O46 2.468218 1_555
Nd3 O27 2.474915 1_555
Nd3 O61 2.508771 1_555
Nd3 O59 2.515672 1_555
Nd3 O58 2.516002 1_556
Nd3 O60 2.522614 1_555
Nd4 O28 2.444504 1_555
Nd4 O33 2.451250 1_555
Nd4 O34 2.468218 1_555
Nd4 O31 2.474915 1_555
Nd4 O65 2.508771 1_555
Nd4 O71 2.515672 1_555
Nd4 O70 2.516002 1_555
Nd4 O64 2.522614 1_555
Nd5 O32 2.414846 1_555
Nd5 O29 2.427952 1_555
Nd5 O69 2.476754 1_555
Nd5 O30 2.485771 1_555
Nd5 O67 2.495381 1_545
Nd5 O35 2.499277 1_555
Nd5 O66 2.511443 1_555
Nd5 O68 2.530201 1_554
O0 P13 1.617455 1_555
O0 P0 1.630266 1_555
O1 P14 1.627876 1_555
O1 P1 1.639119 1_555
O2 P2 1.626252 1_555
O2 P15 1.638574 1_555
O3 P12 1.626829 1_565
O3 P3 1.635069 1_556
O4 P17 1.617455 1_555
O4 P4 1.630266 1_555
O5 P18 1.627876 1_555
O5 P5 1.639119 1_555
O6 P6 1.626252 1_554
O6 P19 1.638574 1_555
O7 P16 1.626829 1_655
O7 P7 1.635069 1_555
O8 P21 1.628568 1_555
O8 P8 1.641520 1_545
O9 P22 1.615073 1_555
O9 P9 1.633198 1_555
O10 P23 1.629386 1_555
O10 P10 1.632512 1_555
O11 P11 1.624086 1_555
O11 P20 1.637706 1_455
O12 P12 1.625429 1_565
O12 P1 1.637093 1_555
O13 P2 1.629895 1_555
O13 P13 1.631043 1_555
O14 P3 1.617898 1_556
O14 P14 1.649140 1_555
O15 P0 1.625019 1_555
O15 P15 1.625956 1_555
O16 P16 1.625429 1_655
O16 P5 1.637093 1_555
O17 P6 1.629895 1_554
O17 P17 1.631043 1_555
O18 P7 1.617898 1_555
O18 P18 1.649140 1_555
O19 P4 1.625019 1_555
O19 P19 1.625956 1_555
O20 P9 1.628568 1_555
O20 P20 1.641520 1_455
O21 P10 1.615073 1_555
O21 P21 1.633198 1_555
O22 P11 1.629386 1_555
O22 P22 1.632512 1_555
O23 P23 1.624086 1_555
O23 P8 1.637706 1_545
O24 P0 1.506815 1_555
O24 Rb3 3.057085 1_555
O25 P1 1.493087 1_555
O26 P2 1.502566 1_455
O26 Rb4 3.047239 1_555
O27 P3 1.505074 1_546
O27 Rb5 3.073019 1_446
O28 P4 1.506815 1_555
O28 Rb0 3.057085 1_555
O29 P5 1.493087 1_555
O30 P6 1.502566 1_544
O30 Rb1 3.047239 1_554
O31 P7 1.505074 1_455
O31 Rb2 3.073019 1_445
O32 P8 1.495184 1_545
O33 P9 1.508058 1_555
O33 Rb4 3.061028 1_555
O34 P10 1.504734 1_555
O34 Rb3 3.069134 1_554
O35 P11 1.501118 1_654
O35 Rb5 3.048470 1_545
O36 P12 1.503126 1_565
O36 Rb1 3.065407 1_565
O37 P13 1.502981 1_555
O37 Rb0 3.051666 1_555
O38 P14 1.497340 1_654
O39 P15 1.507364 1_555
O39 Rb2 3.052084 1_555
O40 P16 1.503126 1_655
O40 Rb4 3.065407 1_655
O41 P17 1.502981 1_556
O41 Rb3 3.051666 1_555
O42 P18 1.497340 1_565
O43 P19 1.507364 1_555
O43 Rb5 3.052084 1_555
O44 P20 1.495184 1_455
O45 P21 1.508058 1_556
O45 Rb1 3.061028 1_555
O46 P22 1.504734 1_555
O46 Rb0 3.069134 1_555
O47 P23 1.501118 1_565
O47 Rb2 3.048470 1_455
O48 P0 1.490598 1_555
O49 P1 1.495419 1_555
O49 Rb3 3.109828 1_555
O50 P2 1.497274 1_555
O50 Rb5 3.126617 1_555
O51 P3 1.496607 1_555
O51 Rb4 3.138027 1_555
O52 P4 1.490611 1_555
O53 P5 1.495419 1_555
O53 Rb0 3.109828 1_555
O54 P6 1.497274 1_555
O54 Rb2 3.126617 1_555
O55 P7 1.496607 1_555
O55 Rb1 3.138027 1_555
O56 P8 1.492712 1_555
O56 Rb4 3.106581 1_555
O57 P9 1.487730 1_555
O58 P10 1.498474 1_555
O58 Rb5 3.142739 1_445
O59 P11 1.499139 1_555
O59 Rb3 3.129568 1_555
O60 P12 1.498251 1_555
O60 Rb0 3.145041 1_555
O61 P13 1.499148 1_555
O61 Rb1 3.127732 1_555
O62 P14 1.491232 1_555
O62 Rb2 3.103205 1_455
O63 P15 1.487700 1_555
O64 P16 1.498251 1_555
O64 Rb3 3.145041 1_554
O65 P17 1.499148 1_555
O65 Rb4 3.127732 1_555
O66 P18 1.491224 1_555
O66 Rb5 3.103214 1_545
O67 P19 1.487700 1_555
O68 P20 1.492712 1_555
O68 Rb1 3.106581 1_555
O69 P21 1.487730 1_555
O70 P22 1.498474 1_555
O70 Rb2 3.142739 1_445
O71 P23 1.499139 1_555
O71 Rb0 3.129568 1_555
