# generated using pymatgen
data_Mg6MoW
_symmetry_space_group_name_H-M   'P 1'
_cell_length_a   4.74259900
_cell_length_b   5.95618200
_cell_length_c   10.87978400
_cell_angle_alpha   90.00000000
_cell_angle_beta   90.00000000
_cell_angle_gamma   90.00000000
_symmetry_Int_Tables_number   1
_chemical_formula_structural   Mg6MoW
_chemical_formula_sum   'Mg12 Mo2 W2'
_cell_volume   307.32977531
_cell_formula_units_Z   2
loop_
 _symmetry_equiv_pos_site_id
 _symmetry_equiv_pos_as_xyz
  1  'x, y, z'
loop_
 _atom_site_type_symbol
 _atom_site_label
 _atom_site_symmetry_multiplicity
 _atom_site_fract_x
 _atom_site_fract_y
 _atom_site_fract_z
 _atom_site_occupancy
  Mg  Mg0  1  0.00000000  0.74069400  0.07641900  1
  Mg  Mg1  1  0.00000000  0.25930600  0.07641900  1
  Mg  Mg2  1  0.00000000  0.00000000  0.33036200  1
  Mg  Mg3  1  0.50000000  0.25835200  0.42434100  1
  Mg  Mg4  1  0.50000000  0.74164800  0.42434100  1
  Mg  Mg5  1  0.50000000  0.00000000  0.16947700  1
  Mg  Mg6  1  0.00000000  0.24069400  0.57641900  1
  Mg  Mg7  1  0.00000000  0.75930600  0.57641900  1
  Mg  Mg8  1  0.00000000  0.50000000  0.83036200  1
  Mg  Mg9  1  0.50000000  0.75835200  0.92434100  1
  Mg  Mg10  1  0.50000000  0.24164800  0.92434100  1
  Mg  Mg11  1  0.50000000  0.50000000  0.66947700  1
  Mo  Mo0  1  0.00000000  0.50000000  0.30959700  1
  Mo  Mo1  1  0.00000000  0.00000000  0.80959700  1
  W  W0  1  0.50000000  0.50000000  0.18904200  1
  W  W1  1  0.50000000  0.00000000  0.68904200  1
loop_
_geom_bond_atom_site_label_1
_geom_bond_atom_site_label_2
_geom_bond_distance
_geom_bond_site_symmetry_2
Mg0 Mg1 2.867235 1_555
Mg0 Mg9 2.893397 1_554
Mg0 Mg9 2.893397 1_454
Mg0 Mo0 2.913976 1_555
Mg0 Mg5 3.005581 1_465
Mg0 Mg5 3.005581 1_565
Mg0 W0 3.029804 1_455
Mg0 W0 3.029804 1_555
Mg0 Mg8 3.036748 1_554
Mg0 Mg1 3.088947 1_565
Mg0 Mg2 3.165235 1_565
Mg0 Mo1 3.288253 1_564
Mg1 Mg10 2.893397 1_454
Mg1 Mg10 2.893397 1_554
Mg1 Mo0 2.913976 1_555
Mg1 Mg5 3.005581 1_455
Mg1 Mg5 3.005581 1_555
Mg1 W0 3.029804 1_555
Mg1 W0 3.029804 1_455
Mg1 Mg8 3.036748 1_554
Mg1 Mg2 3.165235 1_555
Mg1 Mo1 3.288253 1_554
Mg2 Mo0 2.986648 1_545
Mg2 Mo0 2.986648 1_555
Mg2 Mg4 3.006059 1_545
Mg2 Mg3 3.006059 1_455
Mg2 Mg4 3.006059 1_445
Mg2 Mg3 3.006059 1_555
Mg2 Mg6 3.036748 1_555
Mg2 Mg7 3.036748 1_545
Mg3 Mg4 2.878599 1_555
Mg3 Mg6 2.893397 1_655
Mg3 Mg6 2.893397 1_555
Mg3 W0 2.936868 1_555
Mg3 Mo0 3.041894 1_655
Mg3 Mo0 3.041894 1_555
Mg3 Mg4 3.077583 1_545
Mg3 Mg5 3.171224 1_555
Mg3 W1 3.265217 1_555
Mg4 Mg7 2.893397 1_555
Mg4 Mg7 2.893397 1_655
Mg4 W0 2.936868 1_555
Mg4 Mo0 3.041894 1_655
Mg4 Mo0 3.041894 1_555
Mg4 Mg5 3.171224 1_565
Mg4 W1 3.265217 1_565
Mg5 W0 2.985689 1_555
Mg5 W0 2.985689 1_545
Mg5 Mg9 3.030613 1_544
Mg6 Mg7 2.867235 1_545
Mg6 Mo1 2.913976 1_555
Mg6 W1 3.029804 1_455
Mg6 W1 3.029804 1_555
Mg6 Mg7 3.088947 1_555
Mg6 Mg8 3.165235 1_555
Mg6 Mo0 3.288253 1_555
Mg7 Mo1 2.913976 1_565
Mg7 W1 3.029804 1_565
Mg7 W1 3.029804 1_465
Mg7 Mg8 3.165235 1_555
Mg7 Mo0 3.288253 1_555
Mg8 Mo1 2.986648 1_555
Mg8 Mo1 2.986648 1_565
Mg8 Mg9 3.006059 1_455
Mg8 Mg9 3.006059 1_555
Mg9 W1 2.936868 1_565
Mg9 Mo1 3.041894 1_565
Mg9 Mo1 3.041894 1_665
Mg9 W0 3.265217 1_556
Mg10 Mg9 2.878599 1_545
Mg10 W1 2.936868 1_555
Mg10 Mg8 3.006059 1_655
Mg10 Mg8 3.006059 1_555
Mg10 Mg5 3.030613 1_556
Mg10 Mo1 3.041894 1_655
Mg10 Mo1 3.041894 1_555
Mg10 Mg9 3.077583 1_555
Mg10 Mg11 3.171224 1_555
Mg10 W0 3.265217 1_556
Mg11 W1 2.985689 1_555
Mg11 W1 2.985689 1_565
Mg11 Mg7 3.005581 1_655
Mg11 Mg6 3.005581 1_555
Mg11 Mg7 3.005581 1_555
Mg11 Mg6 3.005581 1_655
Mg11 Mg4 3.030613 1_555
Mg11 Mg3 3.030613 1_555
Mg11 Mg9 3.171224 1_555
Mo0 W0 2.709869 1_455
Mo0 W0 2.709869 1_555
Mo1 W1 2.709869 1_455
Mo1 W1 2.709869 1_555
