# generated using pymatgen
data_NaLaScNbO6
_symmetry_space_group_name_H-M   'P 1'
_cell_length_a   5.69240413
_cell_length_b   5.69240413
_cell_length_c   8.13016686
_cell_angle_alpha   89.72470722
_cell_angle_beta   89.72470722
_cell_angle_gamma   90.65402142
_symmetry_Int_Tables_number   1
_chemical_formula_structural   NaLaScNbO6
_chemical_formula_sum   'Na2 La2 Sc2 Nb2 O12'
_cell_volume   263.42226029
_cell_formula_units_Z   2
loop_
 _symmetry_equiv_pos_site_id
 _symmetry_equiv_pos_as_xyz
  1  'x, y, z'
loop_
 _atom_site_type_symbol
 _atom_site_label
 _atom_site_symmetry_multiplicity
 _atom_site_fract_x
 _atom_site_fract_y
 _atom_site_fract_z
 _atom_site_occupancy
  Na  Na0  1  0.73545400  0.26454600  0.00000000  1
  Na  Na1  1  0.26454600  0.73545400  0.00000000  1
  La  La0  1  0.74243000  0.25757000  0.50000000  1
  La  La1  1  0.25757000  0.74243000  0.50000000  1
  Sc  Sc0  1  0.75571700  0.75571700  0.24690600  1
  Sc  Sc1  1  0.24428300  0.24428300  0.75309400  1
  Nb  Nb0  1  0.74787900  0.74787900  0.76330100  1
  Nb  Nb1  1  0.25212100  0.25212100  0.23669900  1
  O  O0  1  0.49815500  0.00988000  0.27870200  1
  O  O1  1  0.00988000  0.49815500  0.27870200  1
  O  O2  1  0.50184500  0.99012000  0.72129800  1
  O  O3  1  0.99012000  0.50184500  0.72129800  1
  O  O4  1  0.80335300  0.80335300  0.99169700  1
  O  O5  1  0.19664700  0.19664700  0.00830300  1
  O  O6  1  0.00847100  0.00847100  0.31888100  1
  O  O7  1  0.99152900  0.99152900  0.68111900  1
  O  O8  1  0.68531000  0.68531000  0.49976800  1
  O  O9  1  0.31469000  0.31469000  0.50023200  1
  O  O10  1  0.49651100  0.49651100  0.20475000  1
  O  O11  1  0.50348900  0.50348900  0.79525000  1
loop_
_geom_bond_atom_site_label_1
_geom_bond_atom_site_label_2
_geom_bond_distance
_geom_bond_site_symmetry_2
Na0 O10 2.530815 1_555
Na0 O11 2.530815 1_554
Na0 O5 2.659088 1_655
Na0 O4 2.659088 1_544
Na1 O10 2.530815 1_555
Na1 O11 2.530815 1_554
Na1 O5 2.659088 1_565
Na1 O4 2.659088 1_454
La0 O8 2.460152 1_555
La0 O9 2.460152 1_555
La0 O6 2.553446 1_655
La0 O7 2.553446 1_545
La0 O3 2.676234 1_555
La0 O0 2.676234 1_555
La0 O1 2.707921 1_655
La0 O2 2.707921 1_545
La1 O8 2.460152 1_555
La1 O9 2.460152 1_555
La1 O6 2.553446 1_565
La1 O7 2.553446 1_455
La1 O2 2.676234 1_555
La1 O1 2.676234 1_555
La1 O0 2.707921 1_565
La1 O3 2.707921 1_455
Nb0 O4 1.912197 1_555
Nb0 O11 1.971556 1_555
Nb0 O2 2.005917 1_555
Nb0 O3 2.005917 1_555
Nb0 O7 2.057180 1_555
Nb0 O8 2.203651 1_555
Nb1 O5 1.912197 1_555
Nb1 O10 1.971556 1_555
Nb1 O1 2.005917 1_555
Nb1 O0 2.005917 1_555
Nb1 O6 2.057180 1_555
Nb1 O9 2.203651 1_555
O0 Sc0 2.087586 1_545
O1 Sc0 2.087586 1_455
O2 Sc1 2.087586 1_565
O3 Sc1 2.087586 1_655
O4 Sc0 2.107070 1_556
O5 Sc1 2.107070 1_554
O6 Sc0 2.109860 1_445
O7 Sc1 2.109860 1_665
O8 Sc0 2.127936 1_555
O9 Sc1 2.127936 1_555
O10 Sc0 2.105164 1_555
O11 Sc1 2.105164 1_555
