# generated using pymatgen
data_TiCrCuS4
_symmetry_space_group_name_H-M   'P 1'
_cell_length_a   3.41204700
_cell_length_b   11.10034500
_cell_length_c   12.44623100
_cell_angle_alpha   90.00000000
_cell_angle_beta   90.00000000
_cell_angle_gamma   90.00000000
_symmetry_Int_Tables_number   1
_chemical_formula_structural   TiCrCuS4
_chemical_formula_sum   'Ti4 Cr4 Cu4 S16'
_cell_volume   471.39974027
_cell_formula_units_Z   4
loop_
 _symmetry_equiv_pos_site_id
 _symmetry_equiv_pos_as_xyz
  1  'x, y, z'
loop_
 _atom_site_type_symbol
 _atom_site_label
 _atom_site_symmetry_multiplicity
 _atom_site_fract_x
 _atom_site_fract_y
 _atom_site_fract_z
 _atom_site_occupancy
  Ti  Ti0  1  0.00000000  0.80082500  0.11167700  1
  Ti  Ti1  1  0.50000000  0.19917500  0.61167700  1
  Ti  Ti2  1  0.50000000  0.66379600  0.42212700  1
  Ti  Ti3  1  0.00000000  0.33620400  0.92212700  1
  Cr  Cr0  1  0.50000000  0.69775200  0.87862200  1
  Cr  Cr1  1  0.00000000  0.30224800  0.37862200  1
  Cr  Cr2  1  0.00000000  0.83660000  0.58650700  1
  Cr  Cr3  1  0.50000000  0.16340000  0.08650700  1
  Cu  Cu0  1  0.50000000  0.48145600  0.67799700  1
  Cu  Cu1  1  0.00000000  0.02670000  0.32916500  1
  Cu  Cu2  1  0.00000000  0.51854400  0.17799700  1
  Cu  Cu3  1  0.50000000  0.97330000  0.82916500  1
  S  S0  1  0.00000000  0.68883500  0.28665600  1
  S  S1  1  0.50000000  0.81104100  0.71245500  1
  S  S2  1  0.50000000  0.31116500  0.78665600  1
  S  S3  1  0.00000000  0.18895900  0.21245500  1
  S  S4  1  0.50000000  0.64952700  0.06542000  1
  S  S5  1  0.00000000  0.84687300  0.92628500  1
  S  S6  1  0.00000000  0.35047300  0.56542000  1
  S  S7  1  0.50000000  0.15312700  0.42628500  1
  S  S8  1  0.00000000  0.62602300  0.55649600  1
  S  S9  1  0.50000000  0.87213700  0.45105700  1
  S  S10  1  0.50000000  0.37397700  0.05649600  1
  S  S11  1  0.00000000  0.12786300  0.95105700  1
  S  S12  1  0.00000000  0.55730900  0.83541300  1
  S  S13  1  0.50000000  0.94618200  0.16012200  1
  S  S14  1  0.50000000  0.44269100  0.33541300  1
  S  S15  1  0.00000000  0.05381800  0.66012200  1
loop_
_geom_bond_atom_site_label_1
_geom_bond_atom_site_label_2
_geom_bond_distance
_geom_bond_site_symmetry_2
Cr0 S12 2.372785 1_655
Cr0 S12 2.372785 1_555
Cr0 S4 2.385763 1_556
Cr0 S1 2.420471 1_555
Cr0 S5 2.449986 1_555
Cr0 S5 2.449986 1_655
Cr1 S14 2.372785 1_555
Cr1 S14 2.372785 1_455
Cr1 S6 2.385763 1_555
Cr1 S3 2.420471 1_555
Cr1 S7 2.449986 1_455
Cr1 S7 2.449986 1_555
Cr2 S1 2.334162 1_455
Cr2 S1 2.334162 1_555
Cr2 S8 2.367133 1_555
Cr2 S9 2.430677 1_455
Cr2 S9 2.430677 1_555
Cr2 S15 2.579406 1_565
Cr3 S3 2.334162 1_655
Cr3 S3 2.334162 1_555
Cr3 S10 2.367133 1_555
Cr3 S11 2.430677 1_554
Cr3 S11 2.430677 1_654
Cr3 S13 2.579406 1_545
Cu0 S2 2.324256 1_555
Cu0 S6 2.643436 1_555
Cu0 S6 2.643436 1_655
Cu0 S12 2.730948 1_655
Cu0 S12 2.730948 1_555
Cu0 S8 2.787930 1_555
Cu0 S8 2.787930 1_655
Cu1 S3 2.313897 1_555
Cu1 S7 2.518163 1_455
Cu1 S7 2.518163 1_555
Cu1 S13 2.852359 1_445
Cu1 S13 2.852359 1_545
Cu1 S9 2.855824 1_445
Cu1 S9 2.855824 1_545
Cu2 S0 2.324256 1_555
Cu2 S4 2.643436 1_555
Cu2 S4 2.643436 1_455
Cu2 S14 2.730948 1_455
Cu2 S14 2.730948 1_555
Cu2 S10 2.787930 1_555
Cu2 S10 2.787930 1_455
Cu3 S1 2.313897 1_555
Cu3 S5 2.518163 1_655
Cu3 S5 2.518163 1_555
Cu3 S15 2.852359 1_565
Cu3 S15 2.852359 1_665
Cu3 S11 2.855824 1_565
Cu3 S11 2.855824 1_665
S0 Ti2 2.414687 1_555
S0 Ti2 2.414687 1_455
S0 Ti0 2.507649 1_555
S2 Ti3 2.414687 1_655
S2 Ti3 2.414687 1_555
S2 Ti1 2.507649 1_555
S4 Ti0 2.462227 1_555
S4 Ti0 2.462227 1_655
S5 Ti0 2.363369 1_556
S6 Ti1 2.462227 1_555
S6 Ti1 2.462227 1_455
S7 Ti1 2.363369 1_555
S8 Ti2 2.425532 1_455
S8 Ti2 2.425532 1_555
S9 Ti2 2.340520 1_555
S10 Ti3 2.425532 1_554
S10 Ti3 2.425532 1_654
S11 Ti3 2.340520 1_555
S12 Ti3 2.681157 1_555
S13 Ti0 2.424355 1_655
S13 Ti0 2.424355 1_555
S14 Ti2 2.681157 1_555
S15 Ti1 2.424355 1_455
S15 Ti1 2.424355 1_555
