# generated using pymatgen
data_ZnC5O8
_symmetry_space_group_name_H-M   'P 1'
_cell_length_a   8.60214100
_cell_length_b   12.70358400
_cell_length_c   15.08530100
_cell_angle_alpha   90.00000000
_cell_angle_beta   90.00000000
_cell_angle_gamma   90.00000000
_symmetry_Int_Tables_number   1
_chemical_formula_structural   ZnC5O8
_chemical_formula_sum   'Zn8 C40 O64'
_cell_volume   1648.49183605
_cell_formula_units_Z   8
loop_
 _symmetry_equiv_pos_site_id
 _symmetry_equiv_pos_as_xyz
  1  'x, y, z'
loop_
 _atom_site_type_symbol
 _atom_site_label
 _atom_site_symmetry_multiplicity
 _atom_site_fract_x
 _atom_site_fract_y
 _atom_site_fract_z
 _atom_site_occupancy
  Zn  Zn0  1  0.16468000  0.54203400  0.81001200  1
  Zn  Zn1  1  0.83532000  0.45796600  0.18998800  1
  Zn  Zn2  1  0.33532000  0.04203400  0.18998800  1
  Zn  Zn3  1  0.83532000  0.95796600  0.31001200  1
  Zn  Zn4  1  0.66468000  0.95796600  0.81001200  1
  Zn  Zn5  1  0.16468000  0.04203400  0.68998800  1
  Zn  Zn6  1  0.66468000  0.45796600  0.68998800  1
  Zn  Zn7  1  0.33532000  0.54203400  0.31001200  1
  C  C0  1  0.29528300  0.61173200  0.99216400  1
  C  C1  1  0.70471700  0.38826800  0.00783600  1
  C  C2  1  0.20471700  0.11173200  0.00783600  1
  C  C3  1  0.70471700  0.88826800  0.49216400  1
  C  C4  1  0.79528300  0.88826800  0.99216400  1
  C  C5  1  0.29528300  0.11173200  0.50783600  1
  C  C6  1  0.79528300  0.38826800  0.50783600  1
  C  C7  1  0.20471700  0.61173200  0.49216400  1
  C  C8  1  0.33650900  0.60869500  0.55582400  1
  C  C9  1  0.66349100  0.39130500  0.44417600  1
  C  C10  1  0.16349100  0.10869500  0.44417600  1
  C  C11  1  0.66349100  0.89130500  0.05582400  1
  C  C12  1  0.83650900  0.89130500  0.55582400  1
  C  C13  1  0.33650900  0.10869500  0.94417600  1
  C  C14  1  0.83650900  0.39130500  0.94417600  1
  C  C15  1  0.16349100  0.60869500  0.05582400  1
  C  C16  1  0.26745600  0.60032900  0.64330300  1
  C  C17  1  0.73254400  0.39967100  0.35669700  1
  C  C18  1  0.23254400  0.10032900  0.35669700  1
  C  C19  1  0.73254400  0.89967100  0.14330300  1
  C  C20  1  0.76745600  0.89967100  0.64330300  1
  C  C21  1  0.26745600  0.10032900  0.85669700  1
  C  C22  1  0.76745600  0.39967100  0.85669700  1
  C  C23  1  0.23254400  0.60032900  0.14330300  1
  C  C24  1  0.05421200  0.61757800  0.54358100  1
  C  C25  1  0.94578800  0.38242200  0.45641900  1
  C  C26  1  0.44578800  0.11757800  0.45641900  1
  C  C27  1  0.94578800  0.88242200  0.04358100  1
  C  C28  1  0.55421200  0.88242200  0.54358100  1
  C  C29  1  0.05421200  0.11757800  0.95641900  1
  C  C30  1  0.55421200  0.38242200  0.95641900  1
  C  C31  1  0.44578800  0.61757800  0.04358100  1
  C  C32  1  0.09985600  0.60404900  0.63727900  1
  C  C33  1  0.90014400  0.39595100  0.36272100  1
  C  C34  1  0.40014400  0.10404900  0.36272100  1
  C  C35  1  0.90014400  0.89595100  0.13727900  1
  C  C36  1  0.59985600  0.89595100  0.63727900  1
  C  C37  1  0.09985600  0.10404900  0.86272100  1
  C  C38  1  0.59985600  0.39595100  0.86272100  1
  C  C39  1  0.40014400  0.60404900  0.13727900  1
  O  O0  1  0.33451300  0.58377300  0.71692800  1
  O  O1  1  0.66548700  0.41622700  0.28307200  1
  O  O2  1  0.16548700  0.08377300  0.28307200  1
  O  O3  1  0.66548700  0.91622700  0.21692800  1
  O  O4  1  0.83451300  0.91622700  0.71692800  1
  O  O5  1  0.33451300  0.08377300  0.78307200  1
  O  O6  1  0.83451300  0.41622700  0.78307200  1
  O  O7  1  0.16548700  0.58377300  0.21692800  1
  O  O8  1  0.48972800  0.79165900  0.85851000  1
  O  O9  1  0.51027200  0.20834100  0.14149000  1
  O  O10  1  0.01027200  0.29165900  0.14149000  1
  O  O11  1  0.51027200  0.70834100  0.35851000  1
  O  O12  1  0.98972800  0.70834100  0.85851000  1
  O  O13  1  0.48972800  0.29165900  0.64149000  1
  O  O14  1  0.98972800  0.20834100  0.64149000  1
  O  O15  1  0.01027200  0.79165900  0.35851000  1
  O  O16  1  0.11059900  0.89893800  0.66642800  1
  O  O17  1  0.88940100  0.10106200  0.33357200  1
  O  O18  1  0.38940100  0.39893800  0.33357200  1
  O  O19  1  0.88940100  0.60106200  0.16642800  1
  O  O20  1  0.61059900  0.60106200  0.66642800  1
  O  O21  1  0.11059900  0.39893800  0.83357200  1
  O  O22  1  0.61059900  0.10106200  0.83357200  1
  O  O23  1  0.38940100  0.89893800  0.16642800  1
  O  O24  1  0.47730000  0.60725900  0.53594900  1
  O  O25  1  0.52270000  0.39274100  0.46405100  1
  O  O26  1  0.02270000  0.10725900  0.46405100  1
  O  O27  1  0.52270000  0.89274100  0.03594900  1
  O  O28  1  0.97730000  0.89274100  0.53594900  1
  O  O29  1  0.47730000  0.10725900  0.96405100  1
  O  O30  1  0.97730000  0.39274100  0.96405100  1
  O  O31  1  0.02270000  0.60725900  0.03594900  1
  O  O32  1  0.06197200  0.78750300  0.83495800  1
  O  O33  1  0.93802800  0.21249700  0.16504200  1
  O  O34  1  0.43802800  0.28750300  0.16504200  1
  O  O35  1  0.93802800  0.71249700  0.33495800  1
  O  O36  1  0.56197200  0.71249700  0.83495800  1
  O  O37  1  0.06197200  0.28750300  0.66504200  1
  O  O38  1  0.56197200  0.21249700  0.66504200  1
  O  O39  1  0.43802800  0.78750300  0.33495800  1
  O  O40  1  0.51595300  0.91034300  0.70485700  1
  O  O41  1  0.48404700  0.08965700  0.29514300  1
  O  O42  1  0.98404700  0.41034300  0.29514300  1
  O  O43  1  0.48404700  0.58965700  0.20485700  1
  O  O44  1  0.01595300  0.58965700  0.70485700  1
  O  O45  1  0.51595300  0.41034300  0.79514300  1
  O  O46  1  0.01595300  0.08965700  0.79514300  1
  O  O47  1  0.98404700  0.91034300  0.20485700  1
  O  O48  1  0.28899600  0.60623700  0.90956400  1
  O  O49  1  0.71100400  0.39376300  0.09043600  1
  O  O50  1  0.21100400  0.10623700  0.09043600  1
  O  O51  1  0.71100400  0.89376300  0.40956400  1
  O  O52  1  0.78899600  0.89376300  0.90956400  1
  O  O53  1  0.28899600  0.10623700  0.59043600  1
  O  O54  1  0.78899600  0.39376300  0.59043600  1
  O  O55  1  0.21100400  0.60623700  0.40956400  1
  O  O56  1  0.42273200  0.87577800  0.51212200  1
  O  O57  1  0.57726800  0.12422200  0.48787800  1
  O  O58  1  0.07726800  0.37577800  0.48787800  1
  O  O59  1  0.57726800  0.62422200  0.01212200  1
  O  O60  1  0.92273200  0.62422200  0.51212200  1
  O  O61  1  0.42273200  0.37577800  0.98787800  1
  O  O62  1  0.92273200  0.12422200  0.98787800  1
  O  O63  1  0.07726800  0.87577800  0.01212200  1
loop_
_geom_bond_atom_site_label_1
_geom_bond_atom_site_label_2
_geom_bond_distance
_geom_bond_site_symmetry_2
C0 O48 1.249171 1_555
C1 O49 1.249171 1_555
C2 O50 1.249171 1_555
C3 O51 1.249171 1_555
C4 O52 1.249171 1_555
C5 O53 1.249171 1_555
C6 O54 1.249171 1_555
C7 O55 1.249171 1_555
C8 O24 1.247797 1_555
C9 O25 1.247797 1_555
C10 O26 1.247797 1_555
C11 O27 1.247797 1_555
C12 O28 1.247797 1_555
C13 O29 1.247797 1_555
C14 O30 1.247797 1_555
C15 O31 1.247797 1_555
C16 O0 1.269065 1_555
C17 O1 1.269065 1_555
C18 O2 1.269065 1_555
C19 O3 1.269065 1_555
C20 O4 1.269065 1_555
C21 O5 1.269065 1_555
C22 O6 1.269065 1_555
C23 O7 1.269065 1_555
C24 O60 1.229440 1_455
C25 O58 1.229440 1_655
C26 O57 1.229440 1_555
C27 O63 1.229440 1_655
C28 O56 1.229440 1_555
C29 O62 1.229440 1_455
C30 O61 1.229440 1_555
C31 O59 1.229440 1_555
C32 O44 1.262375 1_555
C33 O42 1.262375 1_555
C34 O41 1.262375 1_555
C35 O47 1.262375 1_555
C36 O40 1.262375 1_555
C37 O46 1.262375 1_555
C38 O45 1.262375 1_555
C39 O43 1.262375 1_555
O0 Zn0 2.094573 1_555
O1 Zn1 2.094573 1_555
O2 Zn2 2.094573 1_555
O3 Zn3 2.094573 1_555
O4 Zn4 2.094573 1_555
O5 Zn5 2.094573 1_555
O6 Zn6 2.094573 1_555
O7 Zn7 2.094573 1_555
O10 O33 1.234402 1_455
O11 O39 1.234402 1_555
O12 O32 1.234402 1_655
O13 O38 1.234402 1_555
O14 O37 1.234402 1_655
O15 O35 1.234402 1_455
O16 Zn5 1.909778 1_565
O17 Zn3 1.909778 1_545
O18 Zn7 1.909778 1_555
O19 Zn1 1.909778 1_555
O20 Zn6 1.909778 1_555
O21 Zn0 1.909778 1_555
O22 Zn4 1.909778 1_545
O23 Zn2 1.909778 1_565
O34 O9 1.234402 1_555
O36 O8 1.234402 1_555
O40 Zn4 2.125823 1_555
O41 Zn2 2.125823 1_555
O42 Zn1 2.125823 1_555
O43 Zn7 2.125823 1_555
O44 Zn0 2.125823 1_555
O45 Zn6 2.125823 1_555
O46 Zn5 2.125823 1_555
O47 Zn3 2.125823 1_555
O48 Zn0 2.015966 1_555
O49 Zn1 2.015966 1_555
O50 Zn2 2.015966 1_555
O51 Zn3 2.015966 1_555
O52 Zn4 2.015966 1_555
O53 Zn5 2.015966 1_555
O54 Zn6 2.015966 1_555
O55 Zn7 2.015966 1_555
