# generated using pymatgen
data_Zn13Fe
_symmetry_space_group_name_H-M   'P 1'
_cell_length_a   6.57229787
_cell_length_b   6.57229787
_cell_length_c   5.26288668
_cell_angle_alpha   79.97077848
_cell_angle_beta   79.97077848
_cell_angle_gamma   70.49784148
_symmetry_Int_Tables_number   1
_chemical_formula_structural   Zn13Fe
_chemical_formula_sum   'Zn13 Fe1'
_cell_volume   209.35959185
_cell_formula_units_Z   1
loop_
 _symmetry_equiv_pos_site_id
 _symmetry_equiv_pos_as_xyz
  1  'x, y, z'
loop_
 _atom_site_type_symbol
 _atom_site_label
 _atom_site_symmetry_multiplicity
 _atom_site_fract_x
 _atom_site_fract_y
 _atom_site_fract_z
 _atom_site_occupancy
  Zn  Zn0  1  0.37957000  0.79177700  0.69368900  1
  Zn  Zn1  1  0.79177700  0.37957000  0.69368900  1
  Zn  Zn2  1  0.62043000  0.20822300  0.30631100  1
  Zn  Zn3  1  0.20822300  0.62043000  0.30631100  1
  Zn  Zn4  1  0.22700500  0.22700500  0.64010400  1
  Zn  Zn5  1  0.77299500  0.77299500  0.35989600  1
  Zn  Zn6  1  0.34891200  0.99101700  0.18461400  1
  Zn  Zn7  1  0.99101700  0.34891200  0.18461400  1
  Zn  Zn8  1  0.65108800  0.00898300  0.81538600  1
  Zn  Zn9  1  0.00898300  0.65108800  0.81538600  1
  Zn  Zn10  1  0.60794500  0.60794500  0.07855400  1
  Zn  Zn11  1  0.39205500  0.39205500  0.92144600  1
  Zn  Zn12  1  0.00000000  0.00000000  0.50000000  1
  Fe  Fe0  1  0.00000000  0.00000000  0.00000000  1
loop_
_geom_bond_atom_site_label_1
_geom_bond_atom_site_label_2
_geom_bond_distance
_geom_bond_site_symmetry_2
Zn0 Zn10 2.609783 1_556
Zn0 Zn11 2.671827 1_555
Zn0 Zn4 2.677609 1_565
Zn0 Zn12 2.693616 1_565
Zn0 Zn6 2.779090 1_555
Zn0 Zn9 2.819833 1_555
Zn0 Zn8 2.837243 1_565
Zn0 Zn5 2.840330 1_555
Zn0 Zn3 3.023059 1_555
Zn0 Zn6 3.041646 1_556
Zn0 Zn1 3.127059 1_555
Zn1 Zn10 2.609783 1_556
Zn1 Zn11 2.671827 1_555
Zn1 Zn4 2.677609 1_655
Zn1 Zn12 2.693616 1_655
Zn1 Zn7 2.779090 1_555
Zn1 Zn8 2.819833 1_555
Zn1 Zn9 2.837243 1_655
Zn1 Zn5 2.840330 1_555
Zn1 Zn2 3.023059 1_555
Zn1 Zn7 3.041646 1_556
Zn2 Zn5 2.677609 1_545
Zn2 Zn8 2.779090 1_555
Zn2 Zn7 2.819833 1_555
Zn2 Zn6 2.837243 1_545
Zn2 Zn4 2.840330 1_555
Zn2 Zn8 3.041646 1_554
Zn2 Zn3 3.127059 1_555
Zn3 Zn5 2.677609 1_455
Zn3 Zn9 2.779090 1_555
Zn3 Zn6 2.819833 1_555
Zn3 Zn7 2.837243 1_455
Zn3 Zn4 2.840330 1_555
Zn3 Zn9 3.041646 1_554
Zn4 Zn8 2.905380 1_555
Zn4 Zn9 2.905380 1_555
Zn4 Zn6 2.930926 1_545
Zn4 Zn7 2.930926 1_455
Zn4 Zn7 3.111530 1_456
Zn4 Zn6 3.111530 1_546
Zn5 Zn6 2.905380 1_555
Zn5 Zn7 2.905380 1_555
Zn5 Zn9 2.930926 1_655
Zn5 Zn8 2.930926 1_565
Zn5 Zn9 3.111530 1_654
Zn5 Zn8 3.111530 1_564
Zn6 Zn8 2.542960 1_564
Zn6 Zn7 2.715041 1_465
Zn7 Zn9 2.542960 1_654
Zn8 Zn9 2.715041 1_645
Zn10 Zn5 2.539746 1_555
Zn10 Zn6 2.616330 1_555
Zn10 Zn7 2.616330 1_555
Zn10 Zn11 2.621385 1_554
Zn10 Zn3 2.671827 1_555
Zn10 Zn2 2.671827 1_555
Zn10 Zn8 2.834880 1_564
Zn10 Zn9 2.834880 1_654
Zn11 Zn4 2.539746 1_555
Zn11 Zn2 2.609783 1_556
Zn11 Zn3 2.609783 1_556
Zn11 Zn8 2.616330 1_555
Zn11 Zn9 2.616330 1_555
Zn11 Zn7 2.834880 1_456
Zn11 Zn6 2.834880 1_546
Zn12 Zn8 2.575873 1_455
Zn12 Zn9 2.575873 1_545
Zn12 Zn6 2.575873 1_545
Zn12 Zn7 2.575873 1_455
Zn12 Zn4 2.692212 1_555
Zn12 Zn5 2.692212 1_445
Zn12 Zn2 2.693616 1_455
Zn12 Zn3 2.693616 1_545
Fe0 Zn6 2.621393 1_545
Fe0 Zn7 2.621393 1_455
Fe0 Zn8 2.621393 1_454
Fe0 Zn9 2.621393 1_544
Fe0 Zn12 2.631443 1_555
Fe0 Zn12 2.631443 1_554
Fe0 Zn4 2.749012 1_554
Fe0 Zn5 2.749012 1_445
Fe0 Zn3 2.789824 1_545
Fe0 Zn2 2.789824 1_455
Fe0 Zn0 2.789824 1_544
Fe0 Zn1 2.789824 1_454
