# generated using pymatgen
data_Na3Mn2BO6
_symmetry_space_group_name_H-M   'P 1'
_cell_length_a   5.55983358
_cell_length_b   5.88225767
_cell_length_c   9.43259317
_cell_angle_alpha   78.56476099
_cell_angle_beta   87.72728019
_cell_angle_gamma   74.91879211
_symmetry_Int_Tables_number   1
_chemical_formula_structural   Na3Mn2BO6
_chemical_formula_sum   'Na6 Mn4 B2 O12'
_cell_volume   291.92621938
_cell_formula_units_Z   2
loop_
 _symmetry_equiv_pos_site_id
 _symmetry_equiv_pos_as_xyz
  1  'x, y, z'
loop_
 _atom_site_type_symbol
 _atom_site_label
 _atom_site_symmetry_multiplicity
 _atom_site_fract_x
 _atom_site_fract_y
 _atom_site_fract_z
 _atom_site_occupancy
  Na  Na0  1  0.49992500  0.00015100  0.50001800  1
  Na  Na1  1  0.50000800  0.50009700  0.50001900  1
  Na  Na2  1  0.47152100  0.65368000  0.82374600  1
  Na  Na3  1  0.47155900  0.15365300  0.82380300  1
  Na  Na4  1  0.52837800  0.84633800  0.17622300  1
  Na  Na5  1  0.52841600  0.34636400  0.17622300  1
  Mn  Mn0  1  0.03646400  0.91370000  0.35115400  1
  Mn  Mn1  1  0.96337000  0.08636000  0.64871300  1
  Mn  Mn2  1  0.03655200  0.41376400  0.35124100  1
  Mn  Mn3  1  0.96353000  0.58621700  0.64865800  1
  B  B0  1  0.00015600  0.49991800  0.00009700  1
  B  B1  1  0.99993900  0.99996000  0.00004700  1
  O  O0  1  0.24775300  0.13112700  0.28899200  1
  O  O1  1  0.24781100  0.63112300  0.28899100  1
  O  O2  1  0.75219500  0.36888500  0.71093500  1
  O  O3  1  0.75218300  0.86887400  0.71093600  1
  O  O4  1  0.18777000  0.79769400  0.59475800  1
  O  O5  1  0.18776800  0.29768600  0.59475300  1
  O  O6  1  0.81222300  0.70232900  0.40520300  1
  O  O7  1  0.81224100  0.20231900  0.40519600  1
  O  O8  1  0.20608600  0.93074200  0.93908400  1
  O  O9  1  0.20619300  0.43072700  0.93908800  1
  O  O10  1  0.79408700  0.56912900  0.06111900  1
  O  O11  1  0.79387300  0.06916400  0.06100100  1
loop_
_geom_bond_atom_site_label_1
_geom_bond_atom_site_label_2
_geom_bond_distance
_geom_bond_site_symmetry_2
Na0 O3 2.360088 1_545
Na0 O0 2.360636 1_555
Na0 O7 2.399788 1_555
Na0 O4 2.399886 1_545
Na0 O5 2.406290 1_555
Na0 O6 2.408098 1_545
Na1 O2 2.359856 1_555
Na1 O1 2.360728 1_555
Na1 O6 2.399533 1_555
Na1 O5 2.400102 1_555
Na1 O4 2.406765 1_555
Na1 O7 2.407790 1_555
Na2 O8 2.311220 1_555
Na2 O9 2.322384 1_555
Na2 O3 2.351944 1_555
Na2 O2 2.364036 1_555
Na2 O4 2.592516 1_555
Na2 O10 2.808873 1_556
Na3 O9 2.310805 1_555
Na3 O8 2.322652 1_545
Na3 O2 2.352144 1_555
Na3 O3 2.364148 1_545
Na3 O5 2.593103 1_555
Na3 O11 2.806753 1_556
Na4 O10 2.311142 1_555
Na4 O11 2.322243 1_565
Na4 O1 2.351479 1_555
Na4 O0 2.363666 1_565
Na4 O6 2.592747 1_555
Na4 O8 2.806312 1_554
Na5 O11 2.311147 1_555
Na5 O10 2.322394 1_555
Na5 O0 2.351982 1_555
Na5 O1 2.363499 1_555
Na5 O7 2.592633 1_555
Na5 O9 2.806078 1_554
Mn0 O0 1.946634 1_565
Mn0 O1 1.950099 1_555
Mn0 O6 1.965977 1_455
Mn0 O7 1.971716 1_465
Mn0 O4 2.384563 1_555
Mn1 O3 1.946549 1_545
Mn1 O2 1.949763 1_555
Mn1 O5 1.966376 1_655
Mn1 O4 1.971983 1_645
Mn1 O7 2.383495 1_555
Mn2 O1 1.946328 1_555
Mn2 O0 1.950428 1_555
Mn2 O7 1.966512 1_455
Mn2 O6 1.971408 1_455
Mn2 O5 2.383607 1_555
Mn3 O2 1.946568 1_555
Mn3 O3 1.950938 1_555
Mn3 O4 1.966285 1_655
Mn3 O5 1.970840 1_655
Mn3 O6 2.383273 1_555
B0 O9 1.267688 1_554
B0 O10 1.267910 1_455
B1 O11 1.267581 1_565
B1 O8 1.267997 1_654
