# generated using pymatgen
data_Li7Co5O12
_symmetry_space_group_name_H-M   'P 1'
_cell_length_a   7.54402106
_cell_length_b   7.54402106
_cell_length_c   11.70198835
_cell_angle_alpha   55.87987538
_cell_angle_beta   55.87987538
_cell_angle_gamma   21.97579790
_symmetry_Int_Tables_number   1
_chemical_formula_structural   Li7Co5O12
_chemical_formula_sum   'Li7 Co5 O12'
_cell_volume   204.52862928
_cell_formula_units_Z   1
loop_
 _symmetry_equiv_pos_site_id
 _symmetry_equiv_pos_as_xyz
  1  'x, y, z'
loop_
 _atom_site_type_symbol
 _atom_site_label
 _atom_site_symmetry_multiplicity
 _atom_site_fract_x
 _atom_site_fract_y
 _atom_site_fract_z
 _atom_site_occupancy
  Li  Li0  1  0.50079000  0.50079000  0.24586400  1
  Li  Li1  1  0.83375100  0.83375100  0.74908400  1
  Li  Li2  1  0.16624900  0.16624900  0.25091600  1
  Li  Li3  1  0.49921000  0.49921000  0.75413600  1
  Li  Li4  1  0.16000400  0.16000400  0.75812900  1
  Li  Li5  1  0.83999600  0.83999600  0.24187100  1
  Li  Li6  1  0.50000000  0.50000000  0.00000000  1
  Co  Co0  1  0.16317200  0.16317200  0.00069700  1
  Co  Co1  1  0.83682800  0.83682800  0.99930300  1
  Co  Co2  1  0.50000000  0.50000000  0.50000000  1
  Co  Co3  1  0.16658300  0.16658300  0.49851300  1
  Co  Co4  1  0.83341700  0.83341700  0.50148700  1
  O  O0  1  0.66886900  0.66886900  0.88992300  1
  O  O1  1  0.99693900  0.99693900  0.39001900  1
  O  O2  1  0.32373700  0.32373700  0.89746000  1
  O  O3  1  0.65934100  0.65934100  0.38387900  1
  O  O4  1  0.33080900  0.33080900  0.37916800  1
  O  O5  1  0.98443300  0.98443300  0.88460200  1
  O  O6  1  0.34065900  0.34065900  0.61612100  1
  O  O7  1  0.67626300  0.67626300  0.10254000  1
  O  O8  1  0.00306100  0.00306100  0.60998100  1
  O  O9  1  0.33113100  0.33113100  0.11007700  1
  O  O10  1  0.01556700  0.01556700  0.11539800  1
  O  O11  1  0.66919100  0.66919100  0.62083200  1
loop_
_geom_bond_atom_site_label_1
_geom_bond_atom_site_label_2
_geom_bond_distance
_geom_bond_site_symmetry_2
Li0 O10 2.016048 1_565
Li0 O10 2.016048 1_655
Li0 O4 2.069725 1_555
Li0 O7 2.141555 1_555
Li0 O1 2.192371 1_545
Li0 O1 2.192371 1_455
Li1 O0 2.020048 1_555
Li1 O8 2.067214 1_665
Li1 O6 2.077745 1_565
Li1 O6 2.077745 1_655
Li1 O2 2.193165 1_565
Li1 O2 2.193165 1_655
Li2 O9 2.020048 1_555
Li2 O1 2.067214 1_445
Li2 O3 2.077745 1_545
Li2 O3 2.077745 1_455
Li2 O7 2.193165 1_545
Li2 O7 2.193165 1_455
Li3 O5 2.016048 1_545
Li3 O5 2.016048 1_455
Li3 O11 2.069725 1_555
Li3 O2 2.141555 1_555
Li3 O8 2.192371 1_655
Li3 O8 2.192371 1_565
Li4 O11 2.101798 1_455
Li4 O11 2.101798 1_545
Li4 O5 2.134122 1_445
Li4 O0 2.166742 1_545
Li4 O0 2.166742 1_455
Li4 O6 2.199925 1_555
Li5 O4 2.101798 1_655
Li5 O4 2.101798 1_565
Li5 O10 2.134122 1_665
Li5 O9 2.166742 1_565
Li5 O9 2.166742 1_655
Li5 O3 2.199925 1_555
Li6 O9 2.057492 1_555
Li6 O0 2.057492 1_554
Li6 O5 2.073667 1_454
Li6 O5 2.073667 1_544
Li6 O10 2.073667 1_655
Li6 O10 2.073667 1_565
Co0 O10 1.796588 1_555
Co0 O0 1.905260 1_544
Co0 O0 1.905260 1_454
Co0 O7 1.946676 1_545
Co0 O7 1.946676 1_455
Co0 O2 1.957532 1_554
Co1 O5 1.796588 1_555
Co1 O9 1.905260 1_566
Co1 O9 1.905260 1_656
Co1 O2 1.946676 1_655
Co1 O2 1.946676 1_565
Co1 O7 1.957532 1_556
Co2 O3 1.936861 1_555
Co2 O6 1.936861 1_555
Co2 O8 1.947476 1_565
Co2 O1 1.947476 1_455
Co2 O8 1.947476 1_655
Co2 O1 1.947476 1_545
Co3 O8 1.989246 1_555
Co3 O4 1.996224 1_555
Co3 O3 2.010718 1_455
Co3 O3 2.010718 1_545
Co3 O11 2.044769 1_455
Co3 O11 2.044769 1_545
Co4 O1 1.989246 1_555
Co4 O11 1.996224 1_555
Co4 O6 2.010718 1_565
Co4 O6 2.010718 1_655
Co4 O4 2.044769 1_655
Co4 O4 2.044769 1_565
