# generated using pymatgen
data_HfMg6Bi
_symmetry_space_group_name_H-M   'P 1'
_cell_length_a   5.35196600
_cell_length_b   6.17285400
_cell_length_c   11.27781000
_cell_angle_alpha   90.00000000
_cell_angle_beta   90.00000000
_cell_angle_gamma   90.00000000
_symmetry_Int_Tables_number   1
_chemical_formula_structural   HfMg6Bi
_chemical_formula_sum   'Hf2 Mg12 Bi2'
_cell_volume   372.58393454
_cell_formula_units_Z   2
loop_
 _symmetry_equiv_pos_site_id
 _symmetry_equiv_pos_as_xyz
  1  'x, y, z'
loop_
 _atom_site_type_symbol
 _atom_site_label
 _atom_site_symmetry_multiplicity
 _atom_site_fract_x
 _atom_site_fract_y
 _atom_site_fract_z
 _atom_site_occupancy
  Hf  Hf0  1  0.50000000  0.50000000  0.16806800  1
  Hf  Hf1  1  0.50000000  0.00000000  0.66806800  1
  Mg  Mg0  1  0.50000000  0.25221300  0.41685700  1
  Mg  Mg1  1  0.50000000  0.74778700  0.41685700  1
  Mg  Mg2  1  0.00000000  0.73963100  0.08134500  1
  Mg  Mg3  1  0.00000000  0.26036900  0.08134500  1
  Mg  Mg4  1  0.00000000  0.00000000  0.33794400  1
  Mg  Mg5  1  0.00000000  0.50000000  0.32990900  1
  Mg  Mg6  1  0.50000000  0.75221300  0.91685700  1
  Mg  Mg7  1  0.50000000  0.24778700  0.91685700  1
  Mg  Mg8  1  0.00000000  0.23963100  0.58134500  1
  Mg  Mg9  1  0.00000000  0.76036900  0.58134500  1
  Mg  Mg10  1  0.00000000  0.50000000  0.83794400  1
  Mg  Mg11  1  0.00000000  0.00000000  0.82990900  1
  Bi  Bi0  1  0.50000000  0.00000000  0.16767100  1
  Bi  Bi1  1  0.50000000  0.50000000  0.66767100  1
loop_
_geom_bond_atom_site_label_1
_geom_bond_atom_site_label_2
_geom_bond_distance
_geom_bond_site_symmetry_2
Hf0 Mg0 3.195625 1_555
Hf0 Mg1 3.195625 1_555
Hf0 Mg3 3.210220 1_655
Hf0 Mg3 3.210220 1_555
Hf0 Mg2 3.210220 1_655
Hf0 Mg2 3.210220 1_555
Hf0 Mg6 3.232703 1_554
Hf0 Mg7 3.232703 1_554
Hf0 Mg5 3.239180 1_555
Hf0 Mg5 3.239180 1_655
Hf1 Mg7 3.195625 1_555
Hf1 Mg6 3.195625 1_545
Hf1 Mg8 3.210220 1_655
Hf1 Mg8 3.210220 1_555
Hf1 Mg9 3.210220 1_645
Hf1 Mg9 3.210220 1_545
Hf1 Mg0 3.232703 1_555
Hf1 Mg1 3.232703 1_545
Hf1 Mg11 3.239180 1_555
Hf1 Mg11 3.239180 1_655
Mg0 Mg1 3.059106 1_555
Mg0 Mg1 3.113748 1_545
Mg0 Mg4 3.221301 1_655
Mg0 Mg4 3.221301 1_555
Mg0 Mg5 3.234495 1_555
Mg0 Mg5 3.234495 1_655
Mg0 Mg8 3.257020 1_555
Mg0 Mg8 3.257020 1_655
Mg1 Mg4 3.221301 1_665
Mg1 Mg4 3.221301 1_565
Mg1 Mg5 3.234495 1_555
Mg1 Mg5 3.234495 1_655
Mg1 Mg9 3.257020 1_555
Mg1 Mg9 3.257020 1_655
Mg2 Mg3 2.958414 1_555
Mg2 Mg5 3.169591 1_555
Mg2 Mg3 3.214440 1_565
Mg2 Mg6 3.257020 1_454
Mg2 Mg6 3.257020 1_554
Mg2 Mg4 3.310237 1_565
Mg3 Mg5 3.169591 1_555
Mg3 Mg7 3.257020 1_554
Mg3 Mg7 3.257020 1_454
Mg3 Mg4 3.310237 1_555
Mg4 Mg5 3.087757 1_555
Mg4 Mg5 3.087757 1_545
Mg4 Mg8 3.118212 1_555
Mg4 Mg9 3.118212 1_545
Mg5 Mg8 3.259456 1_555
Mg5 Mg9 3.259456 1_555
Mg6 Mg7 3.059106 1_565
Mg6 Mg7 3.113748 1_555
Mg8 Mg9 2.958414 1_545
Mg8 Mg9 3.214440 1_555
Mg10 Mg11 3.087757 1_555
Mg10 Mg11 3.087757 1_565
Mg10 Mg2 3.118212 1_556
Mg10 Mg3 3.118212 1_556
Mg10 Mg6 3.221301 1_555
Mg10 Mg7 3.221301 1_455
Mg10 Mg7 3.221301 1_555
Mg10 Mg6 3.221301 1_455
Mg10 Mg8 3.310237 1_555
Mg10 Mg9 3.310237 1_555
Mg11 Mg9 3.169591 1_545
Mg11 Mg8 3.169591 1_555
Mg11 Mg6 3.234495 1_445
Mg11 Mg6 3.234495 1_545
Mg11 Mg7 3.234495 1_555
Mg11 Mg7 3.234495 1_455
Mg11 Mg2 3.259456 1_546
Mg11 Mg3 3.259456 1_556
Bi0 Hf0 3.086430 1_545
Bi0 Hf0 3.086430 1_555
Bi0 Mg1 3.212707 1_545
Bi0 Mg0 3.212707 1_555
Bi0 Mg6 3.215695 1_544
Bi0 Mg7 3.215695 1_554
Bi0 Mg2 3.269843 1_645
Bi0 Mg2 3.269843 1_545
Bi0 Mg3 3.269843 1_555
Bi0 Mg3 3.269843 1_655
Bi0 Mg4 3.293700 1_555
Bi0 Mg4 3.293700 1_655
Bi1 Hf1 3.086430 1_555
Bi1 Hf1 3.086430 1_565
Bi1 Mg7 3.212707 1_555
Bi1 Mg6 3.212707 1_555
Bi1 Mg0 3.215695 1_555
Bi1 Mg1 3.215695 1_555
Bi1 Mg8 3.269843 1_555
Bi1 Mg8 3.269843 1_655
Bi1 Mg9 3.269843 1_555
Bi1 Mg9 3.269843 1_655
Bi1 Mg10 3.293700 1_655
Bi1 Mg10 3.293700 1_555
