# generated using pymatgen
data_Li9Mn2Co5O16
_symmetry_space_group_name_H-M   'P 1'
_cell_length_a   5.01261400
_cell_length_b   7.79858542
_cell_length_c   7.91734239
_cell_angle_alpha   99.32091639
_cell_angle_beta   100.09804168
_cell_angle_gamma   102.46692216
_symmetry_Int_Tables_number   1
_chemical_formula_structural   Li9Mn2Co5O16
_chemical_formula_sum   'Li9 Mn2 Co5 O16'
_cell_volume   291.02187764
_cell_formula_units_Z   1
loop_
 _symmetry_equiv_pos_site_id
 _symmetry_equiv_pos_as_xyz
  1  'x, y, z'
loop_
 _atom_site_type_symbol
 _atom_site_label
 _atom_site_symmetry_multiplicity
 _atom_site_fract_x
 _atom_site_fract_y
 _atom_site_fract_z
 _atom_site_occupancy
  Li  Li0  1  0.50276900  0.74992800  0.75178300  1
  Li  Li1  1  0.99128200  0.37364600  0.11665400  1
  Li  Li2  1  0.50888900  0.00404600  0.50336200  1
  Li  Li3  1  0.00989400  0.88246200  0.62871600  1
  Li  Li4  1  0.49358700  0.49474100  0.99404200  1
  Li  Li5  1  0.00570100  0.12747700  0.38228900  1
  Li  Li6  1  0.99242000  0.61517300  0.87225500  1
  Li  Li7  1  0.49614600  0.25149300  0.24974200  1
  Li  Li8  1  0.00280400  0.25016500  0.75335900  1
  Mn  Mn0  1  0.99807100  0.00021100  0.99766200  1
  Mn  Mn1  1  0.50155600  0.62577400  0.37834100  1
  Co  Co0  1  0.49211900  0.87606100  0.11785900  1
  Co  Co1  1  0.00354200  0.49699600  0.50151300  1
  Co  Co2  1  0.50114400  0.13176700  0.86905700  1
  Co  Co3  1  0.99643100  0.75063200  0.24672200  1
  Co  Co4  1  0.50850200  0.37073000  0.63582900  1
  O  O0  1  0.76121700  0.76583100  0.00685900  1
  O  O1  1  0.24190400  0.39221000  0.37562400  1
  O  O2  1  0.75926400  0.00315200  0.77924200  1
  O  O3  1  0.23887400  0.88421900  0.88207000  1
  O  O4  1  0.75078500  0.51265100  0.26196400  1
  O  O5  1  0.28227500  0.13927200  0.63310800  1
  O  O6  1  0.24728900  0.64434700  0.12234700  1
  O  O7  1  0.72679700  0.26452400  0.50777300  1
  O  O8  1  0.25237800  0.74362600  0.48985800  1
  O  O9  1  0.73472300  0.36817400  0.87212300  1
  O  O10  1  0.22521400  0.99369300  0.22582800  1
  O  O11  1  0.74790700  0.86263500  0.36976900  1
  O  O12  1  0.27284500  0.48811000  0.73082100  1
  O  O13  1  0.74790400  0.10658200  0.12025200  1
  O  O14  1  0.75881500  0.60338900  0.62467100  1
  O  O15  1  0.24695600  0.22627700  0.99850300  1
loop_
_geom_bond_atom_site_label_1
_geom_bond_atom_site_label_2
_geom_bond_distance
_geom_bond_site_symmetry_2
Li0 O2 2.065623 1_565
Li0 O12 2.081342 1_555
Li0 O3 2.153445 1_555
Li0 O14 2.163268 1_555
Li0 O0 2.168924 1_556
Li0 O8 2.214906 1_555
Li1 O9 2.116692 1_554
Li1 O15 2.132238 1_654
Li1 O4 2.144431 1_555
Li1 O1 2.173754 1_655
Li1 O13 2.182026 1_555
Li1 O6 2.210141 1_655
Li2 O5 2.008273 1_555
Li2 O7 2.079999 1_555
Li2 O11 2.099373 1_545
Li2 O8 2.131499 1_545
Li2 O2 2.322387 1_555
Li2 O10 2.377823 1_545
Li3 O8 2.123567 1_555
Li3 O3 2.125596 1_555
Li3 O2 2.134644 1_465
Li3 O5 2.157912 1_565
Li3 O11 2.194820 1_455
Li3 O14 2.258824 1_455
Li4 O9 1.995654 1_555
Li4 O6 2.143630 1_556
Li4 O12 2.168380 1_555
Li4 O15 2.198793 1_555
Li4 O0 2.222104 1_556
Li4 O4 2.246896 1_556
Li5 O10 2.094935 1_545
Li5 O1 2.160737 1_555
Li5 O11 2.163782 1_445
Li5 O5 2.189589 1_555
Li5 O13 2.204544 1_455
Li5 O7 2.207272 1_455
Li6 O9 2.074508 1_555
Li6 O14 2.076612 1_555
Li6 O6 2.108575 1_656
Li6 O0 2.115345 1_556
Li6 O3 2.174615 1_655
Li6 O12 2.237323 1_655
Li7 O15 2.109874 1_554
Li7 O1 2.125243 1_555
Li7 O10 2.128359 1_545
Li7 O4 2.134722 1_555
Li7 O7 2.138768 1_555
Li7 O13 2.148228 1_555
Li8 O9 2.057570 1_455
Li8 O5 2.083469 1_555
Li8 O12 2.101182 1_555
Li8 O2 2.107934 1_455
Li8 O15 2.163827 1_555
Li8 O7 2.213910 1_455
Mn0 O3 1.924424 1_645
Mn0 O15 1.925690 1_655
Mn0 O2 1.929443 1_555
Mn0 O13 1.953916 1_556
Mn0 O0 1.972900 1_546
Mn0 O10 1.973767 1_646
Mn1 O8 1.950339 1_555
Mn1 O4 1.950424 1_555
Mn1 O1 1.991517 1_555
Mn1 O11 2.006672 1_555
Mn1 O14 2.196029 1_555
Mn1 O6 2.241043 1_555
Co0 O6 1.962494 1_555
Co0 O13 1.965046 1_565
Co0 O0 2.000603 1_555
Co0 O10 2.009768 1_555
Co0 O3 2.083948 1_554
Co0 O11 2.204915 1_555
Co1 O1 1.914189 1_555
Co1 O14 1.934139 1_455
Co1 O7 2.044750 1_455
Co1 O8 2.079834 1_555
Co1 O12 2.084437 1_555
Co1 O4 2.125170 1_455
Co2 O9 1.952952 1_555
Co2 O15 1.958500 1_555
Co2 O2 1.958995 1_555
Co2 O5 2.010293 1_555
Co2 O3 2.117077 1_545
Co2 O13 2.211930 1_556
Co3 O6 1.964106 1_655
Co3 O11 1.970699 1_555
Co3 O4 2.028091 1_555
Co3 O10 2.040862 1_655
Co3 O0 2.087764 1_555
Co3 O8 2.133745 1_655
Co4 O12 1.831485 1_555
Co4 O7 1.849209 1_555
Co4 O5 1.907791 1_555
Co4 O14 1.995518 1_555
Co4 O9 2.015974 1_555
Co4 O1 2.302407 1_555
