# generated using pymatgen
data_Rb2BeF4
_symmetry_space_group_name_H-M   'P 1'
_cell_length_a   5.98767100
_cell_length_b   7.78346700
_cell_length_c   10.48827000
_cell_angle_alpha   90.00000000
_cell_angle_beta   90.00000000
_cell_angle_gamma   90.00000000
_symmetry_Int_Tables_number   1
_chemical_formula_structural   Rb2BeF4
_chemical_formula_sum   'Rb8 Be4 F16'
_cell_volume   488.80414140
_cell_formula_units_Z   4
loop_
 _symmetry_equiv_pos_site_id
 _symmetry_equiv_pos_as_xyz
  1  'x, y, z'
loop_
 _atom_site_type_symbol
 _atom_site_label
 _atom_site_symmetry_multiplicity
 _atom_site_fract_x
 _atom_site_fract_y
 _atom_site_fract_z
 _atom_site_occupancy
  Rb  Rb0  1  0.75443600  0.33850200  0.58780800  1
  Rb  Rb1  1  0.25443600  0.66149800  0.41219200  1
  Rb  Rb2  1  0.25443600  0.16149800  0.08780800  1
  Rb  Rb3  1  0.75443600  0.83850200  0.91219200  1
  Rb  Rb4  1  0.25793200  0.49736200  0.81076500  1
  Rb  Rb5  1  0.75793200  0.50263800  0.18923500  1
  Rb  Rb6  1  0.75793200  0.00263800  0.31076500  1
  Rb  Rb7  1  0.25793200  0.99736200  0.68923500  1
  Be  Be0  1  0.75395800  0.26683400  0.91292200  1
  Be  Be1  1  0.25395800  0.73316600  0.08707800  1
  Be  Be2  1  0.25395800  0.23316600  0.41292200  1
  Be  Be3  1  0.75395800  0.76683400  0.58707800  1
  F  F0  1  0.54616300  0.19531500  0.83900600  1
  F  F1  1  0.04616300  0.80468500  0.16099400  1
  F  F2  1  0.04616300  0.30468500  0.33900600  1
  F  F3  1  0.54616300  0.69531500  0.66099400  1
  F  F4  1  0.97467400  0.20537800  0.84531000  1
  F  F5  1  0.47467400  0.79462200  0.15469000  1
  F  F6  1  0.47467400  0.29462200  0.34531000  1
  F  F7  1  0.97467400  0.70537800  0.65469000  1
  F  F8  1  0.74329500  0.46694700  0.91561100  1
  F  F9  1  0.24329500  0.53305300  0.08438900  1
  F  F10  1  0.24329500  0.03305300  0.41561100  1
  F  F11  1  0.74329500  0.96694700  0.58438900  1
  F  F12  1  0.25154200  0.31243400  0.55247000  1
  F  F13  1  0.75154200  0.68756600  0.44753000  1
  F  F14  1  0.75154200  0.18756600  0.05247000  1
  F  F15  1  0.25154200  0.81243400  0.94753000  1
loop_
_geom_bond_atom_site_label_1
_geom_bond_atom_site_label_2
_geom_bond_distance
_geom_bond_site_symmetry_2
Be0 F8 1.559136 1_555
Be0 F0 1.568102 1_555
Be0 F4 1.574242 1_555
Be0 F14 1.588411 1_556
Be1 F9 1.559136 1_555
Be1 F1 1.568102 1_555
Be1 F5 1.574242 1_555
Be1 F15 1.588411 1_554
Be2 F10 1.559136 1_555
Be2 F2 1.568102 1_555
Be2 F6 1.574242 1_555
Be2 F12 1.588411 1_555
Be3 F11 1.559136 1_555
Be3 F3 1.568102 1_555
Be3 F7 1.574242 1_555
Be3 F13 1.588411 1_555
F0 Rb7 2.796422 1_545
F0 Rb4 2.931434 1_555
F0 Rb0 3.120667 1_555
F0 Rb3 3.139659 1_545
F0 Rb2 3.151186 1_556
F1 Rb6 2.796422 1_465
F1 Rb5 2.931434 1_455
F1 Rb1 3.120667 1_555
F1 Rb2 3.139659 1_565
F1 Rb3 3.151186 1_454
F2 Rb5 2.796422 1_455
F2 Rb6 2.931434 1_455
F2 Rb2 3.120667 1_555
F2 Rb1 3.139659 1_555
F2 Rb0 3.151186 1_455
F3 Rb4 2.796422 1_555
F3 Rb7 2.931434 1_555
F3 Rb3 3.120667 1_555
F3 Rb0 3.139659 1_555
F3 Rb1 3.151186 1_555
F4 Rb4 2.858812 1_655
F4 Rb7 2.859663 1_645
F4 Rb2 3.064554 1_656
F4 Rb0 3.179103 1_555
F4 Rb3 3.222629 1_545
F5 Rb5 2.858812 1_555
F5 Rb6 2.859663 1_565
F5 Rb3 3.064554 1_554
F5 Rb1 3.179103 1_555
F5 Rb2 3.222629 1_565
F6 Rb6 2.858812 1_555
F6 Rb5 2.859663 1_555
F6 Rb0 3.064554 1_555
F6 Rb2 3.179103 1_555
F6 Rb1 3.222629 1_555
F7 Rb7 2.858812 1_655
F7 Rb4 2.859663 1_655
F7 Rb1 3.064554 1_655
F7 Rb3 3.179103 1_555
F7 Rb0 3.222629 1_555
F8 Rb5 2.884588 1_556
F8 Rb3 2.892978 1_555
F8 Rb4 3.116287 1_555
F8 Rb4 3.280363 1_655
F9 Rb4 2.884588 1_554
F9 Rb2 2.892978 1_555
F9 Rb5 3.116287 1_455
F9 Rb5 3.280363 1_555
F10 Rb7 2.884588 1_545
F10 Rb1 2.892978 1_545
F10 Rb6 3.116287 1_455
F10 Rb6 3.280363 1_555
F11 Rb6 2.884588 1_565
F11 Rb0 2.892978 1_565
F11 Rb7 3.116287 1_555
F11 Rb7 3.280363 1_655
F12 Rb7 2.841317 1_545
F12 Rb0 3.006349 1_455
F12 Rb0 3.040665 1_555
F12 Rb4 3.067952 1_555
F12 Rb1 3.089764 1_555
F13 Rb6 2.841317 1_565
F13 Rb1 3.006349 1_555
F13 Rb1 3.040665 1_655
F13 Rb5 3.067952 1_555
F13 Rb0 3.089764 1_555
F14 Rb5 2.841317 1_555
F14 Rb2 3.006349 1_555
F14 Rb2 3.040665 1_655
F14 Rb6 3.067952 1_555
F14 Rb3 3.089764 1_544
F15 Rb4 2.841317 1_555
F15 Rb3 3.006349 1_455
F15 Rb3 3.040665 1_555
F15 Rb7 3.067952 1_555
F15 Rb2 3.089764 1_566
