# generated using pymatgen
data_BaIn9Ir2
_symmetry_space_group_name_H-M   'P 1'
_cell_length_a   17.86465605
_cell_length_b   17.86465605
_cell_length_c   8.65746284
_cell_angle_alpha   90.00000000
_cell_angle_beta   90.00000000
_cell_angle_gamma   119.99999351
_symmetry_Int_Tables_number   1
_chemical_formula_structural   BaIn9Ir2
_chemical_formula_sum   'Ba8 In72 Ir16'
_cell_volume   2392.82321908
_cell_formula_units_Z   8
loop_
 _symmetry_equiv_pos_site_id
 _symmetry_equiv_pos_as_xyz
  1  'x, y, z'
loop_
 _atom_site_type_symbol
 _atom_site_label
 _atom_site_symmetry_multiplicity
 _atom_site_fract_x
 _atom_site_fract_y
 _atom_site_fract_z
 _atom_site_occupancy
  Ba  Ba0_0  1  0.00000000  0.00000000  0.00000000  1
  Ba  Ba0_1  1  0.00000000  0.00000000  0.50000000  1
  Ba  Ba0_2  1  0.00000000  0.50000000  0.00000000  1
  Ba  Ba0_3  1  0.00000000  0.50000000  0.50000000  1
  Ba  Ba0_4  1  0.50000000  0.00000000  0.00000000  1
  Ba  Ba0_5  1  0.50000000  0.00000000  0.50000000  1
  Ba  Ba0_6  1  0.50000000  0.50000000  0.00000000  1
  Ba  Ba0_7  1  0.50000000  0.50000000  0.50000000  1
  In  In0_0  1  0.29268437  0.39634218  0.25000000  1
  In  In0_1  1  0.29268437  0.39634218  0.75000000  1
  In  In0_2  1  0.29268437  0.89634219  0.25000000  1
  In  In0_3  1  0.29268437  0.89634219  0.75000000  1
  In  In0_4  1  0.79268437  0.39634219  0.25000000  1
  In  In0_5  1  0.79268437  0.39634219  0.75000000  1
  In  In0_6  1  0.79268437  0.89634218  0.25000000  1
  In  In0_7  1  0.79268437  0.89634218  0.75000000  1
  In  In1_0  1  0.10365782  0.39634218  0.25000000  1
  In  In1_1  1  0.10365782  0.39634218  0.75000000  1
  In  In1_2  1  0.10365782  0.89634218  0.25000000  1
  In  In1_3  1  0.10365782  0.89634218  0.75000000  1
  In  In1_4  1  0.60365782  0.39634218  0.25000000  1
  In  In1_5  1  0.60365782  0.39634218  0.75000000  1
  In  In1_6  1  0.60365782  0.89634218  0.25000000  1
  In  In1_7  1  0.60365782  0.89634218  0.75000000  1
  In  In2_0  1  0.10365782  0.20731563  0.25000000  1
  In  In2_1  1  0.10365782  0.20731563  0.75000000  1
  In  In2_2  1  0.10365782  0.70731563  0.25000000  1
  In  In2_3  1  0.10365782  0.70731563  0.75000000  1
  In  In2_4  1  0.60365782  0.20731563  0.25000000  1
  In  In2_5  1  0.60365782  0.20731563  0.75000000  1
  In  In2_6  1  0.60365782  0.70731563  0.25000000  1
  In  In2_7  1  0.60365782  0.70731563  0.75000000  1
  In  In3_0  1  0.39634219  0.29268437  0.25000000  1
  In  In3_1  1  0.39634219  0.29268437  0.75000000  1
  In  In3_2  1  0.39634219  0.79268437  0.25000000  1
  In  In3_3  1  0.39634219  0.79268437  0.75000000  1
  In  In3_4  1  0.89634219  0.29268437  0.25000000  1
  In  In3_5  1  0.89634219  0.29268437  0.75000000  1
  In  In3_6  1  0.89634219  0.79268437  0.25000000  1
  In  In3_7  1  0.89634219  0.79268437  0.75000000  1
  In  In4_0  1  0.39634218  0.10365781  0.25000000  1
  In  In4_1  1  0.39634218  0.10365781  0.75000000  1
  In  In4_2  1  0.39634219  0.60365781  0.25000000  1
  In  In4_3  1  0.39634219  0.60365781  0.75000000  1
  In  In4_4  1  0.89634218  0.10365781  0.25000000  1
  In  In4_5  1  0.89634218  0.10365781  0.75000000  1
  In  In4_6  1  0.89634218  0.60365781  0.25000000  1
  In  In4_7  1  0.89634218  0.60365781  0.75000000  1
  In  In5_0  1  0.20731563  0.10365781  0.25000000  1
  In  In5_1  1  0.20731563  0.10365781  0.75000000  1
  In  In5_2  1  0.20731563  0.60365781  0.25000000  1
  In  In5_3  1  0.20731563  0.60365781  0.75000000  1
  In  In5_4  1  0.70731563  0.10365781  0.25000000  1
  In  In5_5  1  0.70731563  0.10365781  0.75000000  1
  In  In5_6  1  0.70731563  0.60365781  0.25000000  1
  In  In5_7  1  0.70731563  0.60365781  0.75000000  1
  In  In6_0  1  0.00000000  0.25000000  0.00000000  1
  In  In6_1  1  0.00000000  0.25000000  0.50000000  1
  In  In6_2  1  0.00000000  0.75000000  0.00000000  1
  In  In6_3  1  0.00000000  0.75000000  0.50000000  1
  In  In6_4  1  0.50000000  0.25000000  0.00000000  1
  In  In6_5  1  0.50000000  0.25000000  0.50000000  1
  In  In6_6  1  0.50000000  0.75000000  0.00000000  1
  In  In6_7  1  0.50000000  0.75000000  0.50000000  1
  In  In7_0  1  0.25000000  0.25000000  0.00000000  1
  In  In7_1  1  0.25000000  0.25000000  0.50000000  1
  In  In7_2  1  0.25000000  0.75000000  0.00000000  1
  In  In7_3  1  0.25000000  0.75000000  0.50000000  1
  In  In7_4  1  0.75000000  0.25000000  0.00000000  1
  In  In7_5  1  0.75000000  0.25000000  0.50000000  1
  In  In7_6  1  0.75000000  0.75000000  0.00000000  1
  In  In7_7  1  0.75000000  0.75000000  0.50000000  1
  In  In8_0  1  0.25000000  0.00000000  0.00000000  1
  In  In8_1  1  0.25000000  0.00000000  0.50000000  1
  In  In8_2  1  0.25000000  0.50000000  0.00000000  1
  In  In8_3  1  0.25000000  0.50000000  0.50000000  1
  In  In8_4  1  0.75000000  0.00000000  0.00000000  1
  In  In8_5  1  0.75000000  0.00000000  0.50000000  1
  In  In8_6  1  0.75000000  0.50000000  0.00000000  1
  In  In8_7  1  0.75000000  0.50000000  0.50000000  1
  Ir  Ir0_0  1  0.16666650  0.33333350  0.00000000  1
  Ir  Ir0_1  1  0.16666650  0.33333350  0.50000000  1
  Ir  Ir0_2  1  0.16666650  0.83333350  0.00000000  1
  Ir  Ir0_3  1  0.16666650  0.83333350  0.50000000  1
  Ir  Ir0_4  1  0.66666650  0.33333350  0.00000000  1
  Ir  Ir0_5  1  0.66666650  0.33333350  0.50000000  1
  Ir  Ir0_6  1  0.66666650  0.83333350  0.00000000  1
  Ir  Ir0_7  1  0.66666650  0.83333350  0.50000000  1
  Ir  Ir1_0  1  0.33333350  0.16666650  0.00000000  1
  Ir  Ir1_1  1  0.33333350  0.16666650  0.50000000  1
  Ir  Ir1_2  1  0.33333350  0.66666650  0.00000000  1
  Ir  Ir1_3  1  0.33333350  0.66666650  0.50000000  1
  Ir  Ir1_4  1  0.83333350  0.16666650  0.00000000  1
  Ir  Ir1_5  1  0.83333350  0.16666650  0.50000000  1
  Ir  Ir1_6  1  0.83333350  0.66666650  0.00000000  1
  Ir  Ir1_7  1  0.83333350  0.66666650  0.50000000  1
loop_
_geom_bond_atom_site_label_1
_geom_bond_atom_site_label_2
_geom_bond_distance
_geom_bond_site_symmetry_2
Ba0_0 In4_5 3.869379 1_454
Ba0_0 In4_4 3.869379 1_455
Ba0_0 In1_2 3.869379 1_545
Ba0_0 In1_3 3.869379 1_544
Ba0_0 In2_0 3.869379 1_555
Ba0_0 In3_6 3.869379 1_445
Ba0_0 In3_7 3.869379 1_444
Ba0_0 In2_1 3.869379 1_554
Ba0_0 In0_6 3.869379 1_445
Ba0_0 In0_7 3.869379 1_444
Ba0_0 In5_1 3.869379 1_554
Ba0_0 In5_0 3.869379 1_555
Ba0_0 Ba0_1 4.328731 1_555
Ba0_0 Ba0_1 4.328731 1_554
Ba0_1 In4_4 3.869379 1_455
Ba0_1 In4_5 3.869379 1_455
Ba0_1 In1_2 3.869379 1_545
Ba0_1 In1_3 3.869379 1_545
Ba0_1 In2_0 3.869379 1_555
Ba0_1 In3_6 3.869379 1_445
Ba0_1 In2_1 3.869379 1_555
Ba0_1 In3_7 3.869379 1_445
Ba0_1 In0_6 3.869379 1_445
Ba0_1 In0_7 3.869379 1_445
Ba0_1 In5_1 3.869379 1_555
Ba0_1 In5_0 3.869379 1_555
Ba0_2 In1_0 3.869379 1_555
Ba0_2 In1_1 3.869379 1_554
Ba0_2 In4_7 3.869379 1_454
Ba0_2 In4_6 3.869379 1_455
Ba0_2 In3_4 3.869379 1_455
Ba0_2 In3_5 3.869379 1_454
Ba0_2 In0_5 3.869379 1_454
Ba0_2 In5_3 3.869379 1_554
Ba0_2 In5_2 3.869379 1_555
Ba0_2 In2_3 3.869379 1_554
Ba0_2 In2_2 3.869379 1_555
Ba0_2 In0_4 3.869379 1_455
Ba0_2 Ba0_3 4.328731 1_555
Ba0_2 Ba0_3 4.328731 1_554
Ba0_3 In1_0 3.869379 1_555
Ba0_3 In1_1 3.869379 1_555
Ba0_3 In4_7 3.869379 1_455
Ba0_3 In4_6 3.869379 1_455
Ba0_3 In3_4 3.869379 1_455
Ba0_3 In3_5 3.869379 1_455
Ba0_3 In5_2 3.869379 1_555
Ba0_3 In5_3 3.869379 1_555
Ba0_3 In0_5 3.869379 1_455
Ba0_3 In2_2 3.869379 1_555
Ba0_3 In2_3 3.869379 1_555
Ba0_3 In0_4 3.869379 1_455
Ba0_4 In4_0 3.869379 1_555
Ba0_4 In4_1 3.869379 1_554
Ba0_4 In1_6 3.869379 1_545
Ba0_4 In1_7 3.869379 1_544
Ba0_4 In0_2 3.869379 1_545
Ba0_4 In0_3 3.869379 1_544
Ba0_4 In2_5 3.869379 1_554
Ba0_4 In5_4 3.869379 1_555
Ba0_4 In2_4 3.869379 1_555
Ba0_4 In3_2 3.869379 1_545
Ba0_4 In3_3 3.869379 1_544
Ba0_4 In5_5 3.869379 1_554
Ba0_4 Ba0_5 4.328731 1_554
Ba0_4 Ba0_5 4.328731 1_555
Ba0_5 In4_0 3.869379 1_555
Ba0_5 In4_1 3.869379 1_555
Ba0_5 In1_6 3.869379 1_545
Ba0_5 In1_7 3.869379 1_545
Ba0_5 In0_2 3.869379 1_545
Ba0_5 In0_3 3.869379 1_545
Ba0_5 In5_4 3.869379 1_555
Ba0_5 In2_4 3.869379 1_555
Ba0_5 In3_2 3.869379 1_545
Ba0_5 In5_5 3.869379 1_555
Ba0_5 In3_3 3.869379 1_545
Ba0_5 In2_5 3.869379 1_555
Ba0_6 In4_3 3.869379 1_554
Ba0_6 In4_2 3.869379 1_555
Ba0_6 In1_4 3.869379 1_555
Ba0_6 In1_5 3.869379 1_554
Ba0_6 In3_1 3.869379 1_554
Ba0_6 In3_0 3.869379 1_555
Ba0_6 In0_0 3.869379 1_555
Ba0_6 In0_1 3.869379 1_554
Ba0_6 In2_7 3.869379 1_554
Ba0_6 In2_6 3.869379 1_555
Ba0_6 In5_6 3.869379 1_555
Ba0_6 In5_7 3.869379 1_554
Ba0_6 Ba0_7 4.328731 1_555
Ba0_6 Ba0_7 4.328731 1_554
Ba0_7 In4_2 3.869379 1_555
Ba0_7 In4_3 3.869379 1_555
Ba0_7 In1_4 3.869379 1_555
Ba0_7 In1_5 3.869379 1_555
Ba0_7 In3_0 3.869379 1_555
Ba0_7 In3_1 3.869379 1_555
Ba0_7 In0_1 3.869379 1_555
Ba0_7 In0_0 3.869379 1_555
Ba0_7 In2_7 3.869379 1_555
Ba0_7 In2_6 3.869379 1_555
Ba0_7 In5_6 3.869379 1_555
Ba0_7 In5_7 3.869379 1_555
In0_0 Ir0_0 2.913010 1_555
In0_0 Ir0_1 2.913010 1_555
In0_0 In8_2 3.179188 1_555
In0_0 In8_3 3.179188 1_555
In0_0 In7_0 3.179188 1_555
In0_0 In7_1 3.179188 1_555
In0_0 In3_0 3.207431 1_555
In0_0 In4_2 3.207431 1_555
In0_0 In1_0 3.376894 1_555
In0_0 In2_0 3.376895 1_555
In0_1 Ir0_0 2.913010 1_556
In0_1 Ir0_1 2.913010 1_555
In0_1 In8_2 3.179188 1_556
In0_1 In8_3 3.179188 1_555
In0_1 In7_0 3.179188 1_556
In0_1 In7_1 3.179188 1_555
In0_1 In3_1 3.207431 1_555
In0_1 In4_3 3.207431 1_555
In0_1 In1_1 3.376894 1_555
In0_1 In2_1 3.376895 1_555
In0_2 Ir0_3 2.913010 1_555
In0_2 Ir0_2 2.913010 1_555
In0_2 In8_0 3.179188 1_565
In0_2 In8_1 3.179188 1_565
In0_2 In7_3 3.179188 1_555
In0_2 In7_2 3.179188 1_555
In0_2 In3_2 3.207431 1_555
In0_2 In4_0 3.207431 1_565
In0_2 In1_2 3.376894 1_555
In0_2 In2_2 3.376895 1_555
In0_3 Ir0_2 2.913010 1_556
In0_3 Ir0_3 2.913010 1_555
In0_3 In8_1 3.179188 1_565
In0_3 In8_0 3.179188 1_566
In0_3 In7_3 3.179188 1_555
In0_3 In7_2 3.179188 1_556
In0_3 In3_3 3.207431 1_555
In0_3 In4_1 3.207431 1_565
In0_3 In1_3 3.376894 1_555
In0_3 In2_3 3.376895 1_555
In0_4 Ir0_5 2.913010 1_555
In0_4 Ir0_4 2.913010 1_555
In0_4 In8_6 3.179188 1_555
In0_4 In8_7 3.179188 1_555
In0_4 In7_5 3.179188 1_555
In0_4 In7_4 3.179188 1_555
In0_4 In3_4 3.207431 1_555
In0_4 In4_6 3.207431 1_555
In0_4 In1_4 3.376894 1_555
In0_4 In2_4 3.376895 1_555
In0_5 Ir0_5 2.913010 1_555
In0_5 Ir0_4 2.913010 1_556
In0_5 In8_7 3.179188 1_555
In0_5 In8_6 3.179188 1_556
In0_5 In7_5 3.179188 1_555
In0_5 In7_4 3.179188 1_556
In0_5 In3_5 3.207431 1_555
In0_5 In4_7 3.207431 1_555
In0_5 In1_5 3.376894 1_555
In0_5 In2_5 3.376895 1_555
In0_6 Ir0_6 2.913010 1_555
In0_6 Ir0_7 2.913010 1_555
In0_6 In8_4 3.179188 1_565
In0_6 In8_5 3.179188 1_565
In0_6 In7_7 3.179188 1_555
In0_6 In7_6 3.179188 1_555
In0_6 In3_6 3.207431 1_555
In0_6 In4_4 3.207431 1_565
In0_6 In1_6 3.376894 1_555
In0_6 In2_6 3.376895 1_555
In0_7 Ir0_6 2.913010 1_556
In0_7 Ir0_7 2.913010 1_555
In0_7 In8_4 3.179188 1_566
In0_7 In8_5 3.179188 1_565
In0_7 In7_7 3.179188 1_555
In0_7 In7_6 3.179188 1_556
In0_7 In3_7 3.207431 1_555
In0_7 In4_5 3.207431 1_565
In0_7 In1_7 3.376894 1_555
In0_7 In2_7 3.376895 1_555
In1_0 Ir0_0 2.913005 1_555
In1_0 Ir0_1 2.913005 1_555
In1_0 In8_2 3.179188 1_555
In1_0 In6_0 3.179188 1_555
In1_0 In8_3 3.179188 1_555
In1_0 In6_1 3.179188 1_555
In1_0 In3_4 3.207431 1_455
In1_0 In5_2 3.207431 1_555
In1_0 In2_0 3.376894 1_555
In1_1 Ir0_1 2.913005 1_555
In1_1 Ir0_0 2.913005 1_556
In1_1 In8_2 3.179188 1_556
In1_1 In8_3 3.179188 1_555
In1_1 In6_1 3.179188 1_555
In1_1 In6_0 3.179188 1_556
In1_1 In3_5 3.207431 1_455
In1_1 In5_3 3.207431 1_555
In1_1 In2_1 3.376894 1_555
In1_2 Ir0_3 2.913005 1_555
In1_2 Ir0_2 2.913005 1_555
In1_2 In8_0 3.179188 1_565
In1_2 In8_1 3.179188 1_565
In1_2 In6_2 3.179188 1_555
In1_2 In6_3 3.179188 1_555
In1_2 In3_6 3.207431 1_455
In1_2 In5_0 3.207431 1_565
In1_2 In2_2 3.376894 1_555
In1_3 Ir0_3 2.913005 1_555
In1_3 Ir0_2 2.913005 1_556
In1_3 In8_0 3.179188 1_566
In1_3 In8_1 3.179188 1_565
In1_3 In6_2 3.179188 1_556
In1_3 In6_3 3.179188 1_555
In1_3 In3_7 3.207431 1_455
In1_3 In5_1 3.207431 1_565
In1_3 In2_3 3.376894 1_555
In1_4 Ir0_5 2.913005 1_555
In1_4 Ir0_4 2.913005 1_555
In1_4 In6_5 3.179188 1_555
In1_4 In6_4 3.179188 1_555
In1_4 In8_6 3.179188 1_555
In1_4 In8_7 3.179188 1_555
In1_4 In5_6 3.207431 1_555
In1_4 In3_0 3.207431 1_555
In1_4 In2_4 3.376894 1_555
In1_5 Ir0_5 2.913005 1_555
In1_5 Ir0_4 2.913005 1_556
In1_5 In6_5 3.179188 1_555
In1_5 In6_4 3.179188 1_556
In1_5 In8_6 3.179188 1_556
In1_5 In8_7 3.179188 1_555
In1_5 In5_7 3.207431 1_555
In1_5 In3_1 3.207431 1_555
In1_5 In2_5 3.376894 1_555
In1_6 Ir0_6 2.913005 1_555
In1_6 Ir0_7 2.913005 1_555
In1_6 In6_6 3.179188 1_555
In1_6 In6_7 3.179188 1_555
In1_6 In8_4 3.179188 1_565
In1_6 In8_5 3.179188 1_565
In1_6 In3_2 3.207431 1_555
In1_6 In5_4 3.207431 1_565
In1_6 In2_6 3.376894 1_555
In1_7 Ir0_6 2.913005 1_556
In1_7 Ir0_7 2.913005 1_555
In1_7 In6_6 3.179188 1_556
In1_7 In6_7 3.179188 1_555
In1_7 In8_5 3.179188 1_565
In1_7 In8_4 3.179188 1_566
In1_7 In3_3 3.207431 1_555
In1_7 In5_5 3.207431 1_565
In1_7 In2_7 3.376894 1_555
In2_0 Ir0_1 2.913010 1_555
In2_0 Ir0_0 2.913010 1_555
In2_0 In6_1 3.179188 1_555
In2_0 In6_0 3.179188 1_555
In2_0 In7_0 3.179188 1_555
In2_0 In7_1 3.179188 1_555
In2_0 In5_0 3.207431 1_555
In2_0 In4_4 3.207431 1_455
In2_1 Ir0_0 2.913010 1_556
In2_1 Ir0_1 2.913010 1_555
In2_1 In6_1 3.179188 1_555
In2_1 In6_0 3.179188 1_556
In2_1 In7_1 3.179188 1_555
In2_1 In7_0 3.179188 1_556
In2_1 In5_1 3.207431 1_555
In2_1 In4_5 3.207431 1_455
In2_2 Ir0_3 2.913010 1_555
In2_2 Ir0_2 2.913010 1_555
In2_2 In6_3 3.179188 1_555
In2_2 In6_2 3.179188 1_555
In2_2 In7_3 3.179188 1_555
In2_2 In7_2 3.179188 1_555
In2_2 In5_2 3.207431 1_555
In2_2 In4_6 3.207431 1_455
In2_3 Ir0_3 2.913010 1_555
In2_3 Ir0_2 2.913010 1_556
In2_3 In6_2 3.179188 1_556
In2_3 In6_3 3.179188 1_555
In2_3 In7_3 3.179188 1_555
In2_3 In7_2 3.179188 1_556
In2_3 In5_3 3.207431 1_555
In2_3 In4_7 3.207431 1_455
In2_4 Ir0_5 2.913010 1_555
In2_4 Ir0_4 2.913010 1_555
In2_4 In6_4 3.179188 1_555
In2_4 In6_5 3.179188 1_555
In2_4 In7_5 3.179188 1_555
In2_4 In7_4 3.179188 1_555
In2_4 In5_4 3.207431 1_555
In2_4 In4_0 3.207431 1_555
In2_5 Ir0_5 2.913010 1_555
In2_5 Ir0_4 2.913010 1_556
In2_5 In6_5 3.179188 1_555
In2_5 In6_4 3.179188 1_556
In2_5 In7_5 3.179188 1_555
In2_5 In7_4 3.179188 1_556
In2_5 In5_5 3.207431 1_555
In2_5 In4_1 3.207431 1_555
In2_6 Ir0_6 2.913010 1_555
In2_6 Ir0_7 2.913010 1_555
In2_6 In6_6 3.179188 1_555
In2_6 In6_7 3.179188 1_555
In2_6 In7_6 3.179188 1_555
In2_6 In7_7 3.179188 1_555
In2_6 In5_6 3.207431 1_555
In2_6 In4_2 3.207431 1_555
In2_7 Ir0_6 2.913010 1_556
In2_7 Ir0_7 2.913010 1_555
In2_7 In6_6 3.179188 1_556
In2_7 In6_7 3.179188 1_555
In2_7 In7_7 3.179188 1_555
In2_7 In7_6 3.179188 1_556
In2_7 In5_7 3.207431 1_555
In2_7 In4_3 3.207431 1_555
In3_0 Ir1_1 2.913010 1_555
In3_0 Ir1_0 2.913010 1_555
In3_0 In6_5 3.179188 1_555
In3_0 In6_4 3.179188 1_555
In3_0 In7_1 3.179188 1_555
In3_0 In7_0 3.179188 1_555
In3_0 In4_0 3.376894 1_555
In3_0 In5_0 3.376895 1_555
In3_1 Ir1_1 2.913010 1_555
In3_1 Ir1_0 2.913010 1_556
In3_1 In6_5 3.179188 1_555
In3_1 In6_4 3.179188 1_556
In3_1 In7_1 3.179188 1_555
In3_1 In7_0 3.179188 1_556
In3_1 In4_1 3.376894 1_555
In3_1 In5_1 3.376895 1_555
In3_2 Ir1_3 2.913010 1_555
In3_2 Ir1_2 2.913010 1_555
In3_2 In6_6 3.179188 1_555
In3_2 In6_7 3.179188 1_555
In3_2 In7_2 3.179188 1_555
In3_2 In7_3 3.179188 1_555
In3_2 In4_2 3.376894 1_555
In3_2 In5_2 3.376895 1_555
In3_3 Ir1_2 2.913010 1_556
In3_3 Ir1_3 2.913010 1_555
In3_3 In6_6 3.179188 1_556
In3_3 In6_7 3.179188 1_555
In3_3 In7_2 3.179188 1_556
In3_3 In7_3 3.179188 1_555
In3_3 In4_3 3.376894 1_555
In3_3 In5_3 3.376895 1_555
In3_4 Ir1_5 2.913010 1_555
In3_4 Ir1_4 2.913010 1_555
In3_4 In6_0 3.179188 1_655
In3_4 In6_1 3.179188 1_655
In3_4 In7_4 3.179188 1_555
In3_4 In7_5 3.179188 1_555
In3_4 In4_4 3.376894 1_555
In3_4 In5_4 3.376895 1_555
In3_5 Ir1_4 2.913010 1_556
In3_5 Ir1_5 2.913010 1_555
In3_5 In6_0 3.179188 1_656
In3_5 In6_1 3.179188 1_655
In3_5 In7_5 3.179188 1_555
In3_5 In7_4 3.179188 1_556
In3_5 In4_5 3.376894 1_555
In3_5 In5_5 3.376895 1_555
In3_6 Ir1_6 2.913010 1_555
In3_6 Ir1_7 2.913010 1_555
In3_6 In6_3 3.179188 1_655
In3_6 In6_2 3.179188 1_655
In3_6 In7_6 3.179188 1_555
In3_6 In7_7 3.179188 1_555
In3_6 In4_6 3.376894 1_555
In3_6 In5_6 3.376895 1_555
In3_7 Ir1_7 2.913010 1_555
In3_7 Ir1_6 2.913010 1_556
In3_7 In6_3 3.179188 1_655
In3_7 In6_2 3.179188 1_656
In3_7 In7_7 3.179188 1_555
In3_7 In7_6 3.179188 1_556
In3_7 In4_7 3.376894 1_555
In3_7 In5_7 3.376895 1_555
In4_0 Ir1_0 2.913005 1_555
In4_0 Ir1_1 2.913005 1_555
In4_0 In6_4 3.179188 1_555
In4_0 In8_0 3.179188 1_555
In4_0 In8_1 3.179188 1_555
In4_0 In6_5 3.179188 1_555
In4_0 In5_0 3.376894 1_555
In4_1 Ir1_1 2.913005 1_555
In4_1 Ir1_0 2.913005 1_556
In4_1 In6_4 3.179188 1_556
In4_1 In8_1 3.179188 1_555
In4_1 In6_5 3.179188 1_555
In4_1 In8_0 3.179188 1_556
In4_1 In5_1 3.376894 1_555
In4_2 Ir1_3 2.913005 1_555
In4_2 Ir1_2 2.913005 1_555
In4_2 In8_2 3.179188 1_555
In4_2 In8_3 3.179188 1_555
In4_2 In6_7 3.179188 1_555
In4_2 In6_6 3.179188 1_555
In4_2 In5_2 3.376894 1_555
In4_3 Ir1_2 2.913005 1_556
In4_3 Ir1_3 2.913005 1_555
In4_3 In8_2 3.179188 1_556
In4_3 In8_3 3.179188 1_555
In4_3 In6_6 3.179188 1_556
In4_3 In6_7 3.179188 1_555
In4_3 In5_3 3.376894 1_555
In4_4 Ir1_4 2.913005 1_555
In4_4 Ir1_5 2.913005 1_555
In4_4 In6_0 3.179188 1_655
In4_4 In8_5 3.179188 1_555
In4_4 In6_1 3.179188 1_655
In4_4 In8_4 3.179188 1_555
In4_4 In5_4 3.376894 1_555
In4_5 Ir1_4 2.913005 1_556
In4_5 Ir1_5 2.913005 1_555
In4_5 In6_0 3.179188 1_656
In4_5 In8_4 3.179188 1_556
In4_5 In8_5 3.179188 1_555
In4_5 In6_1 3.179188 1_655
In4_5 In5_5 3.376894 1_555
In4_6 Ir1_6 2.913005 1_555
In4_6 Ir1_7 2.913005 1_555
In4_6 In8_7 3.179188 1_555
In4_6 In8_6 3.179188 1_555
In4_6 In6_3 3.179188 1_655
In4_6 In6_2 3.179188 1_655
In4_6 In5_6 3.376894 1_555
In4_7 Ir1_7 2.913005 1_555
In4_7 Ir1_6 2.913005 1_556
In4_7 In8_6 3.179188 1_556
In4_7 In8_7 3.179188 1_555
In4_7 In6_3 3.179188 1_655
In4_7 In6_2 3.179188 1_656
In4_7 In5_7 3.376894 1_555
In5_0 Ir1_1 2.913010 1_555
In5_0 Ir1_0 2.913010 1_555
In5_0 In8_1 3.179188 1_555
In5_0 In8_0 3.179188 1_555
In5_0 In7_0 3.179188 1_555
In5_0 In7_1 3.179188 1_555
In5_1 Ir1_1 2.913010 1_555
In5_1 Ir1_0 2.913010 1_556
In5_1 In8_0 3.179188 1_556
In5_1 In8_1 3.179188 1_555
In5_1 In7_1 3.179188 1_555
In5_1 In7_0 3.179188 1_556
In5_2 Ir1_3 2.913010 1_555
In5_2 Ir1_2 2.913010 1_555
In5_2 In8_2 3.179188 1_555
In5_2 In8_3 3.179188 1_555
In5_2 In7_3 3.179188 1_555
In5_2 In7_2 3.179188 1_555
In5_3 Ir1_2 2.913010 1_556
In5_3 Ir1_3 2.913010 1_555
In5_3 In8_2 3.179188 1_556
In5_3 In8_3 3.179188 1_555
In5_3 In7_3 3.179188 1_555
In5_3 In7_2 3.179188 1_556
In5_4 Ir1_4 2.913010 1_555
In5_4 Ir1_5 2.913010 1_555
In5_4 In8_4 3.179188 1_555
In5_4 In8_5 3.179188 1_555
In5_4 In7_4 3.179188 1_555
In5_4 In7_5 3.179188 1_555
In5_5 Ir1_4 2.913010 1_556
In5_5 Ir1_5 2.913010 1_555
In5_5 In8_5 3.179188 1_555
In5_5 In8_4 3.179188 1_556
In5_5 In7_5 3.179188 1_555
In5_5 In7_4 3.179188 1_556
In5_6 Ir1_6 2.913010 1_555
In5_6 Ir1_7 2.913010 1_555
In5_6 In8_6 3.179188 1_555
In5_6 In8_7 3.179188 1_555
In5_6 In7_6 3.179188 1_555
In5_6 In7_7 3.179188 1_555
In5_7 Ir1_7 2.913010 1_555
In5_7 Ir1_6 2.913010 1_556
In5_7 In8_6 3.179188 1_556
In5_7 In8_7 3.179188 1_555
In5_7 In7_7 3.179188 1_555
In5_7 In7_6 3.179188 1_556
In6_0 Ir0_0 2.578539 1_555
In6_0 Ir1_4 2.578539 1_455
In6_1 Ir0_1 2.578539 1_555
In6_1 Ir1_5 2.578539 1_455
In6_2 Ir0_2 2.578539 1_555
In6_2 Ir1_6 2.578539 1_455
In6_3 Ir0_3 2.578539 1_555
In6_3 Ir1_7 2.578539 1_455
In6_4 Ir0_4 2.578539 1_555
In6_4 Ir1_0 2.578539 1_555
In6_5 Ir0_5 2.578539 1_555
In6_5 Ir1_1 2.578539 1_555
In6_6 Ir0_6 2.578539 1_555
In6_6 Ir1_2 2.578539 1_555
In6_7 Ir0_7 2.578539 1_555
In6_7 Ir1_3 2.578539 1_555
In7_0 Ir0_0 2.578546 1_555
In7_0 Ir1_0 2.578546 1_555
In7_1 Ir0_1 2.578546 1_555
In7_1 Ir1_1 2.578546 1_555
In7_2 Ir1_2 2.578546 1_555
In7_2 Ir0_2 2.578546 1_555
In7_3 Ir1_3 2.578546 1_555
In7_3 Ir0_3 2.578546 1_555
In7_4 Ir1_4 2.578546 1_555
In7_4 Ir0_4 2.578546 1_555
In7_5 Ir1_5 2.578546 1_555
In7_5 Ir0_5 2.578546 1_555
In7_6 Ir1_6 2.578546 1_555
In7_6 Ir0_6 2.578546 1_555
In7_7 Ir0_7 2.578546 1_555
In7_7 Ir1_7 2.578546 1_555
In8_0 Ir1_0 2.578539 1_555
In8_0 Ir0_2 2.578539 1_545
In8_1 Ir1_1 2.578539 1_555
In8_1 Ir0_3 2.578539 1_545
In8_2 Ir0_0 2.578539 1_555
In8_2 Ir1_2 2.578539 1_555
In8_3 Ir0_1 2.578539 1_555
In8_3 Ir1_3 2.578539 1_555
In8_4 Ir1_4 2.578539 1_555
In8_4 Ir0_6 2.578539 1_545
In8_5 Ir1_5 2.578539 1_555
In8_5 Ir0_7 2.578539 1_545
In8_6 Ir1_6 2.578539 1_555
In8_6 Ir0_4 2.578539 1_555
In8_7 Ir1_7 2.578539 1_555
In8_7 Ir0_5 2.578539 1_555
