# generated using pymatgen
data_NiGeH12(OF)6
_symmetry_space_group_name_H-M   'P 1'
_cell_length_a   6.50969498
_cell_length_b   6.50969462
_cell_length_c   6.50969490
_cell_angle_alpha   96.78709749
_cell_angle_beta   96.78709877
_cell_angle_gamma   96.78709597
_symmetry_Int_Tables_number   1
_chemical_formula_structural   NiGeH12(OF)6
_chemical_formula_sum   'Ni1 Ge1 H12 O6 F6'
_cell_volume   269.54909632
_cell_formula_units_Z   1
loop_
 _symmetry_equiv_pos_site_id
 _symmetry_equiv_pos_as_xyz
  1  'x, y, z'
loop_
 _atom_site_type_symbol
 _atom_site_label
 _atom_site_symmetry_multiplicity
 _atom_site_fract_x
 _atom_site_fract_y
 _atom_site_fract_z
 _atom_site_occupancy
  Ni  Ni0  1  0.00000000  0.00000000  0.00000000  1
  Ge  Ge0  1  0.50000000  0.50000000  0.50000000  1
  H  H0  1  0.05602100  0.20056700  0.39262900  1
  H  H1  1  0.18334300  0.81269300  0.69771100  1
  H  H2  1  0.18730700  0.30228900  0.81665700  1
  H  H3  1  0.20056700  0.39262900  0.05602100  1
  H  H4  1  0.30228900  0.81665700  0.18730700  1
  H  H5  1  0.39262900  0.05602100  0.20056700  1
  H  H6  1  0.60737100  0.94397900  0.79943300  1
  H  H7  1  0.69771100  0.18334300  0.81269300  1
  H  H8  1  0.79943300  0.60737100  0.94397900  1
  H  H9  1  0.81269300  0.69771100  0.18334300  1
  H  H10  1  0.81665700  0.18730700  0.30228900  1
  H  H11  1  0.94397900  0.79943300  0.60737100  1
  O  O0  1  0.05808100  0.88197800  0.70638400  1
  O  O1  1  0.11802200  0.29361600  0.94191900  1
  O  O2  1  0.29361600  0.94191900  0.11802200  1
  O  O3  1  0.70638400  0.05808100  0.88197800  1
  O  O4  1  0.88197800  0.70638400  0.05808100  1
  O  O5  1  0.94191900  0.11802200  0.29361600  1
  F  F0  1  0.26498200  0.34914500  0.56353000  1
  F  F1  1  0.34914500  0.56353000  0.26498200  1
  F  F2  1  0.43647000  0.73501800  0.65085500  1
  F  F3  1  0.56353000  0.26498200  0.34914500  1
  F  F4  1  0.65085500  0.43647000  0.73501800  1
  F  F5  1  0.73501800  0.65085500  0.43647000  1
loop_
_geom_bond_atom_site_label_1
_geom_bond_atom_site_label_2
_geom_bond_distance
_geom_bond_site_symmetry_2
Ni0 O4 2.068540 1_445
Ni0 O1 2.068540 1_554
Ni0 O3 2.068540 1_454
Ni0 O2 2.068540 1_545
Ni0 O0 2.068540 1_544
Ni0 O5 2.068540 1_455
H0 O5 0.983120 1_455
H1 O0 0.981481 1_555
H2 O1 0.981481 1_555
H3 O1 0.983120 1_554
H4 O2 0.981481 1_555
H5 O2 0.983120 1_545
H6 O3 0.983120 1_565
H7 O3 0.981481 1_555
H8 O4 0.983120 1_556
H9 O4 0.981481 1_555
H10 O5 0.981481 1_555
H11 O0 0.983120 1_655
F0 Ge0 1.834778 1_555
F1 Ge0 1.834778 1_555
F2 Ge0 1.834778 1_555
F3 Ge0 1.834778 1_555
F4 Ge0 1.834778 1_555
F5 Ge0 1.834778 1_555
