# generated using pymatgen
data_K4Na4VMo7O20
_symmetry_space_group_name_H-M   'P 1'
_cell_length_a   11.47046842
_cell_length_b   11.78320454
_cell_length_c   17.36238400
_cell_angle_alpha   109.89485634
_cell_angle_beta   109.32358097
_cell_angle_gamma   89.90072443
_symmetry_Int_Tables_number   1
_chemical_formula_structural   K4Na4VMo7O20
_chemical_formula_sum   'K16 Na16 V4 Mo28 O80'
_cell_volume   2065.99815935
_cell_formula_units_Z   4
loop_
 _symmetry_equiv_pos_site_id
 _symmetry_equiv_pos_as_xyz
  1  'x, y, z'
loop_
 _atom_site_type_symbol
 _atom_site_label
 _atom_site_symmetry_multiplicity
 _atom_site_fract_x
 _atom_site_fract_y
 _atom_site_fract_z
 _atom_site_occupancy
  K  K0  1  0.30384000  0.06601800  0.10787900  1
  K  K1  1  0.30313200  0.56230700  0.10708000  1
  K  K2  1  0.80339700  0.06368200  0.10889100  1
  K  K3  1  0.80305800  0.56259500  0.10777600  1
  K  K4  1  0.20092200  0.93566500  0.39575400  1
  K  K5  1  0.19049100  0.92312800  0.87865400  1
  K  K6  1  0.69858000  0.43740700  0.39721200  1
  K  K7  1  0.68813900  0.42778600  0.87906900  1
  K  K8  1  0.69853000  0.93361500  0.39534900  1
  K  K9  1  0.05690700  0.29473700  0.10893200  1
  K  K10  1  0.05160600  0.79129100  0.10614400  1
  K  K11  1  0.55364900  0.29231900  0.10620800  1
  K  K12  1  0.55280600  0.79333200  0.10424300  1
  K  K13  1  0.45009300  0.71066300  0.39796600  1
  K  K14  1  0.43738200  0.70218600  0.87647700  1
  K  K15  1  0.94191700  0.70209500  0.87898300  1
  Na  Na0  1  0.29788000  0.07137200  0.60740700  1
  Na  Na1  1  0.30807700  0.56840900  0.60816300  1
  Na  Na2  1  0.80358900  0.06892500  0.60602200  1
  Na  Na3  1  0.81023100  0.56901300  0.60516900  1
  Na  Na4  1  0.20131000  0.43877000  0.40644700  1
  Na  Na5  1  0.19944300  0.43144300  0.88919700  1
  Na  Na6  1  0.69782900  0.93099400  0.89385200  1
  Na  Na7  1  0.05849900  0.28900400  0.60822400  1
  Na  Na8  1  0.05788600  0.78455400  0.60680400  1
  Na  Na9  1  0.55437600  0.28968100  0.60501100  1
  Na  Na10  1  0.55163500  0.78415800  0.60505700  1
  Na  Na11  1  0.45038400  0.21705800  0.40638800  1
  Na  Na12  1  0.44212000  0.21062000  0.89138700  1
  Na  Na13  1  0.95011000  0.21825700  0.40545700  1
  Na  Na14  1  0.94634000  0.21269200  0.89335400  1
  Na  Na15  1  0.95078100  0.71698700  0.40506600  1
  V  V0  1  0.10553300  0.57962800  0.74333600  1
  V  V1  1  0.59912600  0.58478200  0.74314600  1
  V  V2  1  0.34988000  0.40685100  0.74438000  1
  V  V3  1  0.34713000  0.91477000  0.74406000  1
  Mo  Mo0  1  0.00341600  0.99810600  0.99406100  1
  Mo  Mo1  1  0.01261100  0.00280200  0.50536000  1
  Mo  Mo2  1  0.00264200  0.49448900  0.99296800  1
  Mo  Mo3  1  0.01445200  0.50179600  0.50561900  1
  Mo  Mo4  1  0.50035900  0.99685600  0.99084700  1
  Mo  Mo5  1  0.51340600  0.00660200  0.50866200  1
  Mo  Mo6  1  0.50091500  0.49572700  0.99171800  1
  Mo  Mo7  1  0.51348100  0.50266500  0.50947700  1
  Mo  Mo8  1  0.25310600  0.24776800  0.99292700  1
  Mo  Mo9  1  0.26166600  0.25424200  0.50632500  1
  Mo  Mo10  1  0.25122200  0.74505500  0.99297500  1
  Mo  Mo11  1  0.26239100  0.75348400  0.50847300  1
  Mo  Mo12  1  0.75275500  0.24432300  0.99107300  1
  Mo  Mo13  1  0.76517100  0.25157400  0.50621600  1
  Mo  Mo14  1  0.75103200  0.74619300  0.99167800  1
  Mo  Mo15  1  0.76576800  0.75364900  0.50868800  1
  Mo  Mo16  1  0.09849700  0.10655700  0.25806900  1
  Mo  Mo17  1  0.09463500  0.09060000  0.74634600  1
  Mo  Mo18  1  0.09707700  0.59384300  0.25767500  1
  Mo  Mo19  1  0.59804100  0.09989000  0.25468900  1
  Mo  Mo20  1  0.58869300  0.08351100  0.74496600  1
  Mo  Mo21  1  0.59924000  0.59224200  0.25102800  1
  Mo  Mo22  1  0.34648400  0.40386900  0.25863200  1
  Mo  Mo23  1  0.34850500  0.91429900  0.25217200  1
  Mo  Mo24  1  0.85490200  0.40661400  0.25465000  1
  Mo  Mo25  1  0.85252100  0.40800700  0.74326900  1
  Mo  Mo26  1  0.85119700  0.91035500  0.25398600  1
  Mo  Mo27  1  0.83771600  0.91217600  0.74584500  1
  O  O0  1  0.12617100  0.12458100  0.48904000  1
  O  O1  1  0.12037700  0.11932900  0.98137100  1
  O  O2  1  0.12810700  0.61905200  0.48929100  1
  O  O3  1  0.12191100  0.61271000  0.98155900  1
  O  O4  1  0.62868300  0.12571400  0.49302000  1
  O  O5  1  0.61903300  0.11185000  0.97474900  1
  O  O6  1  0.63251900  0.62570100  0.49969000  1
  O  O7  1  0.62099600  0.61797600  0.98355600  1
  O  O8  1  0.13161500  0.37564000  0.00209600  1
  O  O9  1  0.14652800  0.38716000  0.52107300  1
  O  O10  1  0.13222200  0.87605500  0.00561800  1
  O  O11  1  0.14296000  0.88312600  0.52056700  1
  O  O12  1  0.62884600  0.37165800  0.00029100  1
  O  O13  1  0.64757200  0.38679900  0.52634300  1
  O  O14  1  0.63009500  0.87659000  0.99904400  1
  O  O15  1  0.64846200  0.88970500  0.52792300  1
  O  O16  1  0.38152600  0.12487000  0.49378200  1
  O  O17  1  0.37236600  0.11773800  0.98071000  1
  O  O18  1  0.37835500  0.61881000  0.49669500  1
  O  O19  1  0.36823900  0.61273100  0.98051000  1
  O  O20  1  0.88122500  0.11951500  0.48984300  1
  O  O21  1  0.87111200  0.11437700  0.97910600  1
  O  O22  1  0.88305000  0.62228500  0.49278400  1
  O  O23  1  0.87073600  0.61486100  0.98221300  1
  O  O24  1  0.38152600  0.37686600  0.00147200  1
  O  O25  1  0.39611200  0.38608800  0.52308000  1
  O  O26  1  0.37998800  0.87696100  0.00268300  1
  O  O27  1  0.39826400  0.89284200  0.52930600  1
  O  O28  1  0.88380300  0.37590300  0.00450500  1
  O  O29  1  0.89716200  0.38483300  0.52184400  1
  O  O30  1  0.87792400  0.87792300  0.00085700  1
  O  O31  1  0.89728300  0.88694300  0.52459700  1
  O  O32  1  0.07386800  0.08937500  0.13805000  1
  O  O33  1  0.09060400  0.11139800  0.64045800  1
  O  O34  1  0.07686200  0.58644300  0.14141800  1
  O  O35  1  0.09264200  0.60333500  0.64497500  1
  O  O36  1  0.57358000  0.08722300  0.13556400  1
  O  O37  1  0.59002400  0.11629900  0.64531600  1
  O  O38  1  0.57527400  0.58898500  0.13500600  1
  O  O39  1  0.58180900  0.61143000  0.64602600  1
  O  O40  1  0.44866700  0.39262600  0.36753700  1
  O  O41  1  0.43024400  0.40180300  0.85083800  1
  O  O42  1  0.44482500  0.90826900  0.36532400  1
  O  O43  1  0.42782900  0.90941500  0.84980500  1
  O  O44  1  0.95392200  0.39193300  0.36441700  1
  O  O45  1  0.93972000  0.39321100  0.85396600  1
  O  O46  1  0.94418300  0.89187900  0.36359500  1
  O  O47  1  0.94154300  0.90529600  0.85565800  1
  O  O48  1  0.32536500  0.30217400  0.13885100  1
  O  O49  1  0.32733900  0.28590000  0.64406400  1
  O  O50  1  0.32955700  0.79902200  0.13860200  1
  O  O51  1  0.33573300  0.79081600  0.64617200  1
  O  O52  1  0.83176000  0.29794700  0.13801600  1
  O  O53  1  0.84407400  0.27409600  0.64125000  1
  O  O54  1  0.83030700  0.80133100  0.13766200  1
  O  O55  1  0.84434700  0.78307300  0.64583500  1
  O  O56  1  0.20637400  0.22463100  0.36578500  1
  O  O57  1  0.19447200  0.21251300  0.85454700  1
  O  O58  1  0.20331200  0.70934400  0.36816200  1
  O  O59  1  0.17848200  0.68904400  0.85129700  1
  O  O60  1  0.70952200  0.20935400  0.36484700  1
  O  O61  1  0.69780400  0.19959700  0.85320500  1
  O  O62  1  0.70105700  0.70391600  0.36569400  1
  O  O63  1  0.67685900  0.69688600  0.85019000  1
  O  O64  1  0.44158500  0.07191200  0.26809200  1
  O  O65  1  0.41796300  0.06071400  0.74580800  1
  O  O66  1  0.44059100  0.54577300  0.25377600  1
  O  O67  1  0.43778700  0.53463300  0.73573300  1
  O  O68  1  0.94292000  0.06895500  0.27026400  1
  O  O69  1  0.92551900  0.06158100  0.74755900  1
  O  O70  1  0.93763700  0.56705500  0.26793300  1
  O  O71  1  0.94011300  0.54319800  0.73218400  1
  O  O72  1  0.18888700  0.44925600  0.26941700  1
  O  O73  1  0.18848100  0.44250700  0.74444500  1
  O  O74  1  0.18605600  0.95646000  0.25159300  1
  O  O75  1  0.18200300  0.94105700  0.73391600  1
  O  O76  1  0.69207700  0.44829700  0.25321700  1
  O  O77  1  0.68117400  0.44559400  0.73370600  1
  O  O78  1  0.68768500  0.95195300  0.25134200  1
  O  O79  1  0.66628300  0.93121000  0.74673000  1
loop_
_geom_bond_atom_site_label_1
_geom_bond_atom_site_label_2
_geom_bond_distance
_geom_bond_site_symmetry_2
K0 O48 2.643767 1_555
K0 O10 2.652395 1_545
K0 O64 2.683131 1_555
K0 O26 2.709495 1_545
K0 O1 2.742823 1_554
K0 O17 2.816085 1_554
K0 O32 2.849994 1_555
K0 O36 2.967030 1_555
K1 O66 2.586520 1_555
K1 O8 2.635163 1_555
K1 O50 2.650579 1_555
K1 O3 2.702175 1_554
K1 O24 2.702379 1_555
K1 O19 2.777823 1_554
K1 O34 2.842295 1_555
K1 O38 2.996042 1_555
K2 O52 2.631642 1_555
K2 O14 2.663377 1_544
K2 O30 2.701959 1_545
K2 O68 2.707330 1_555
K2 O5 2.802598 1_554
K2 O36 2.821073 1_555
K2 O21 2.848487 1_554
K2 O32 2.971951 1_655
K2 O54 3.293448 1_545
K3 O70 2.679189 1_555
K3 O54 2.680037 1_555
K3 O12 2.688436 1_555
K3 O28 2.705460 1_555
K3 O7 2.722306 1_554
K3 O23 2.787491 1_554
K3 O38 2.803840 1_555
K3 O34 2.993522 1_655
K4 O58 2.545771 1_555
K4 O74 2.547317 1_555
K4 O0 2.602381 1_565
K4 O16 2.694223 1_565
K4 O11 2.718343 1_555
K4 O46 2.823380 1_455
K4 O27 2.841468 1_555
K4 O42 3.011543 1_555
K5 O75 2.562927 1_555
K5 O59 2.630387 1_555
K5 O1 2.703483 1_565
K5 O26 2.711695 1_556
K5 O10 2.724386 1_556
K5 O47 2.747394 1_455
K5 O17 2.748657 1_565
K5 O43 2.921331 1_555
K6 O76 2.523371 1_555
K6 O60 2.563267 1_555
K6 O6 2.619604 1_555
K6 O22 2.684861 1_555
K6 O13 2.739319 1_555
K6 O40 2.757561 1_555
K6 O29 2.810726 1_555
K6 O44 3.174957 1_555
K7 O77 2.578208 1_555
K7 O61 2.579482 1_555
K7 O7 2.656736 1_555
K7 O12 2.688124 1_556
K7 O23 2.701848 1_555
K7 O28 2.796525 1_556
K7 O41 2.833055 1_555
K7 O45 3.064468 1_555
K8 O78 2.544692 1_555
K8 O62 2.579288 1_555
K8 O4 2.630905 1_565
K8 O20 2.678830 1_565
K8 O15 2.753590 1_555
K8 O42 2.778989 1_555
K8 O31 2.825855 1_555
K8 O46 3.053578 1_555
K9 O32 2.629613 1_555
K9 O28 2.633557 1_455
K9 O72 2.671322 1_555
K9 O8 2.709642 1_555
K9 O1 2.766506 1_554
K9 O21 2.777675 1_454
K9 O52 2.788488 1_455
K9 O48 2.944686 1_555
K9 O34 3.283733 1_555
K10 O74 2.575159 1_555
K10 O10 2.675210 1_555
K10 O34 2.677973 1_555
K10 O30 2.684297 1_455
K10 O23 2.696696 1_454
K10 O54 2.762453 1_455
K10 O3 2.794265 1_554
K10 O50 3.044285 1_555
K11 O76 2.559145 1_555
K11 O36 2.629016 1_555
K11 O24 2.654692 1_555
K11 O12 2.687451 1_555
K11 O17 2.696120 1_554
K11 O5 2.849220 1_554
K11 O48 2.850911 1_555
K11 O52 3.048896 1_555
K12 O78 2.560471 1_555
K12 O26 2.621529 1_555
K12 O38 2.632784 1_555
K12 O14 2.716381 1_554
K12 O7 2.721088 1_554
K12 O19 2.742263 1_554
K12 O50 2.810890 1_555
K12 O54 3.036278 1_555
K13 O66 2.562028 1_555
K13 O42 2.573211 1_555
K13 O18 2.643141 1_555
K13 O6 2.692673 1_555
K13 O58 2.702982 1_555
K13 O27 2.778999 1_555
K13 O15 2.845776 1_555
K13 O62 3.105384 1_555
K14 O67 2.567745 1_555
K14 O43 2.631357 1_555
K14 O19 2.692471 1_555
K14 O26 2.711979 1_556
K14 O7 2.744766 1_555
K14 O14 2.750331 1_555
K14 O59 2.851411 1_555
K14 O63 2.927021 1_555
K15 O47 2.560417 1_555
K15 O71 2.592228 1_555
K15 O23 2.675980 1_555
K15 O30 2.710669 1_556
K15 O3 2.716511 1_655
K15 O10 2.751866 1_656
K15 O59 2.903333 1_655
K15 O63 2.910537 1_555
Na0 O49 2.382191 1_555
Na0 O65 2.387801 1_555
Na0 O11 2.513073 1_545
Na0 O27 2.583310 1_545
Na0 O0 2.586458 1_555
Na0 O33 2.630464 1_555
Na0 O16 2.703894 1_555
Na1 O67 2.386394 1_555
Na1 O51 2.468060 1_555
Na1 O9 2.498571 1_555
Na1 O18 2.562133 1_555
Na1 O25 2.576246 1_555
Na1 O2 2.625176 1_555
Na1 O35 2.747204 1_555
Na2 O53 2.289966 1_555
Na2 O69 2.423261 1_555
Na2 O15 2.435535 1_545
Na2 O4 2.570225 1_555
Na2 O31 2.585754 1_545
Na2 O20 2.688172 1_555
Na2 O37 2.760464 1_555
Na3 O71 2.335803 1_555
Na3 O55 2.371121 1_555
Na3 O13 2.507615 1_555
Na3 O6 2.512480 1_555
Na3 O29 2.570513 1_555
Na3 O22 2.610216 1_555
Na3 O39 2.932950 1_555
Na4 O72 2.381523 1_555
Na4 O56 2.383861 1_555
Na4 O2 2.449523 1_555
Na4 O9 2.525505 1_555
Na4 O18 2.593553 1_555
Na4 O44 2.692636 1_455
Na4 O25 2.708338 1_555
Na5 O57 2.437535 1_555
Na5 O73 2.522495 1_555
Na5 O19 2.550162 1_555
Na5 O3 2.555525 1_555
Na5 O24 2.594188 1_556
Na5 O8 2.601600 1_556
Na5 O45 2.839630 1_455
Na5 O41 2.929097 1_555
Na6 O79 2.459381 1_555
Na6 O14 2.467373 1_555
Na6 O5 2.475370 1_565
Na6 O30 2.521192 1_556
Na6 O63 2.588528 1_555
Na6 O21 2.588795 1_565
Na6 O43 2.923011 1_555
Na7 O33 2.342344 1_555
Na7 O73 2.419185 1_555
Na7 O29 2.501517 1_455
Na7 O20 2.608110 1_455
Na7 O9 2.617860 1_555
Na7 O0 2.639597 1_555
Na7 O53 2.722588 1_455
Na7 O49 2.939906 1_555
Na8 O75 2.336252 1_555
Na8 O35 2.437865 1_555
Na8 O31 2.512090 1_455
Na8 O22 2.531104 1_455
Na8 O11 2.587986 1_555
Na8 O2 2.643646 1_555
Na8 O55 2.750597 1_455
Na9 O77 2.355403 1_555
Na9 O37 2.368858 1_555
Na9 O25 2.448096 1_555
Na9 O13 2.520367 1_555
Na9 O16 2.521654 1_555
Na9 O4 2.602774 1_555
Na9 O49 2.904012 1_555
Na10 O39 2.363919 1_555
Na10 O79 2.397631 1_555
Na10 O27 2.464148 1_555
Na10 O18 2.515968 1_555
Na10 O6 2.546816 1_555
Na10 O15 2.587773 1_555
Na10 O51 2.789260 1_555
Na11 O40 2.382426 1_555
Na11 O64 2.397091 1_555
Na11 O16 2.454414 1_555
Na11 O25 2.558001 1_555
Na11 O4 2.581082 1_555
Na11 O56 2.659877 1_555
Na11 O13 2.741707 1_555
Na12 O65 2.466814 1_555
Na12 O17 2.494513 1_555
Na12 O24 2.509953 1_556
Na12 O41 2.569818 1_555
Na12 O12 2.579793 1_556
Na12 O5 2.600342 1_555
Na12 O57 2.699235 1_555
Na13 O68 2.381889 1_555
Na13 O44 2.389773 1_555
Na13 O20 2.460534 1_555
Na13 O29 2.532496 1_555
Na13 O0 2.558451 1_655
Na13 O60 2.605145 1_555
Na13 O9 2.714766 1_655
Na14 O45 2.439890 1_555
Na14 O69 2.483745 1_555
Na14 O28 2.514521 1_556
Na14 O21 2.516134 1_555
Na14 O1 2.578445 1_655
Na14 O8 2.580534 1_656
Na14 O61 2.692596 1_555
Na15 O70 2.390265 1_555
Na15 O46 2.396729 1_555
Na15 O22 2.472052 1_555
Na15 O31 2.589221 1_555
Na15 O2 2.603697 1_655
Na15 O11 2.670340 1_655
Na15 O62 2.707412 1_555
Mo0 O21 2.054664 1_465
Mo0 O10 2.069851 1_556
Mo0 O1 2.074898 1_565
Mo0 O30 2.079566 1_456
Mo0 O47 2.135314 1_455
Mo0 O32 2.212630 1_566
Mo1 O20 2.052171 1_455
Mo1 O11 2.068486 1_545
Mo1 O31 2.081892 1_445
Mo1 O0 2.088915 1_555
Mo1 O33 2.124175 1_555
Mo1 O46 2.217711 1_445
Mo2 O8 2.040484 1_556
Mo2 O3 2.055510 1_555
Mo2 O28 2.056353 1_456
Mo2 O23 2.078874 1_455
Mo2 O45 2.158619 1_455
Mo2 O34 2.278669 1_556
Mo3 O9 2.040173 1_555
Mo3 O2 2.050930 1_555
Mo3 O29 2.076126 1_455
Mo3 O22 2.079121 1_455
Mo3 O35 2.165056 1_555
Mo3 O44 2.210176 1_455
Mo4 O17 2.051250 1_565
Mo4 O14 2.057380 1_555
Mo4 O5 2.069559 1_565
Mo4 O26 2.082446 1_556
Mo4 O43 2.165167 1_555
Mo4 O36 2.222189 1_566
Mo5 O16 2.067903 1_555
Mo5 O4 2.072575 1_555
Mo5 O27 2.077512 1_545
Mo5 O15 2.090994 1_545
Mo5 O37 2.146916 1_555
Mo5 O42 2.213574 1_545
Mo6 O24 2.046266 1_556
Mo6 O19 2.057670 1_555
Mo6 O7 2.065734 1_555
Mo6 O12 2.075778 1_556
Mo6 O41 2.171039 1_555
Mo6 O38 2.205133 1_556
Mo7 O25 2.047634 1_555
Mo7 O13 2.069341 1_555
Mo7 O18 2.072750 1_555
Mo7 O6 2.079213 1_555
Mo7 O39 2.140879 1_555
Mo7 O40 2.218855 1_555
Mo8 O8 2.052782 1_556
Mo8 O24 2.053143 1_556
Mo8 O17 2.056078 1_555
Mo8 O1 2.061010 1_555
Mo8 O57 2.156316 1_555
Mo8 O48 2.241358 1_556
Mo9 O9 2.050965 1_555
Mo9 O16 2.055829 1_555
Mo9 O0 2.056040 1_555
Mo9 O25 2.068881 1_555
Mo9 O49 2.151129 1_555
Mo9 O56 2.207995 1_555
Mo10 O19 2.057884 1_555
Mo10 O10 2.062634 1_556
Mo10 O3 2.067438 1_555
Mo10 O26 2.071382 1_556
Mo10 O59 2.172872 1_555
Mo10 O50 2.238049 1_556
Mo11 O11 2.054061 1_555
Mo11 O18 2.069110 1_555
Mo11 O2 2.074255 1_555
Mo11 O27 2.118448 1_555
Mo11 O51 2.138110 1_555
Mo11 O58 2.170438 1_555
Mo12 O21 2.047863 1_555
Mo12 O28 2.061013 1_556
Mo12 O12 2.068007 1_556
Mo12 O5 2.071017 1_555
Mo12 O61 2.132830 1_555
Mo12 O52 2.259257 1_556
Mo13 O20 2.053405 1_555
Mo13 O4 2.059692 1_555
Mo13 O29 2.068282 1_555
Mo13 O13 2.099075 1_555
Mo13 O53 2.135268 1_555
Mo13 O60 2.193783 1_555
Mo14 O30 2.058930 1_556
Mo14 O7 2.061752 1_555
Mo14 O23 2.067845 1_555
Mo14 O14 2.068283 1_555
Mo14 O63 2.177907 1_555
Mo14 O54 2.242607 1_556
Mo15 O22 2.056627 1_555
Mo15 O31 2.063019 1_555
Mo15 O6 2.079213 1_555
Mo15 O15 2.101845 1_555
Mo15 O55 2.149771 1_555
Mo15 O62 2.202264 1_555
Mo16 O56 1.915214 1_555
Mo16 O68 1.934524 1_455
Mo16 O32 1.945907 1_555
Mo16 O74 2.020548 1_545
Mo17 O57 1.910364 1_555
Mo17 O33 1.921589 1_555
Mo17 O69 1.978530 1_455
Mo17 O75 2.008497 1_545
Mo18 O58 1.923261 1_555
Mo18 O34 1.925159 1_555
Mo18 O70 1.931808 1_455
Mo18 O72 2.035010 1_555
Mo19 O60 1.914433 1_555
Mo19 O64 1.927215 1_555
Mo19 O36 1.945462 1_555
Mo19 O78 2.015870 1_545
Mo20 O37 1.901419 1_555
Mo20 O61 1.915457 1_555
Mo20 O65 1.982665 1_555
Mo20 O79 2.006845 1_545
Mo21 O66 1.921556 1_555
Mo21 O38 1.927657 1_555
Mo21 O62 1.934594 1_555
Mo21 O76 2.005772 1_555
Mo22 O40 1.915693 1_555
Mo22 O72 1.934274 1_555
Mo22 O48 1.947097 1_555
Mo22 O66 2.032393 1_555
Mo23 O50 1.917021 1_555
Mo23 O74 1.925313 1_555
Mo23 O42 1.934830 1_555
Mo23 O64 2.031662 1_565
Mo24 O52 1.921326 1_555
Mo24 O76 1.924699 1_555
Mo24 O44 1.934748 1_555
Mo24 O70 2.022985 1_555
Mo25 O53 1.902995 1_555
Mo25 O45 1.918327 1_555
Mo25 O77 1.979319 1_555
Mo25 O71 1.981485 1_555
Mo26 O54 1.923989 1_555
Mo26 O78 1.927494 1_555
Mo26 O46 1.935082 1_555
Mo26 O68 2.032199 1_565
Mo27 O55 1.903765 1_555
Mo27 O47 1.913693 1_555
Mo27 O79 1.983294 1_555
Mo27 O69 2.016216 1_565
O35 V0 1.781525 1_555
O39 V1 1.766327 1_555
O41 V2 1.793530 1_555
O43 V3 1.784817 1_555
O49 V2 1.773541 1_555
O51 V3 1.789710 1_555
O59 V0 1.787996 1_555
O63 V1 1.797383 1_555
O65 V3 1.889811 1_545
O67 V2 1.888293 1_555
O67 V1 1.893406 1_555
O71 V0 1.877542 1_655
O73 V0 1.876145 1_555
O73 V2 1.897967 1_555
O75 V3 1.878520 1_555
O77 V1 1.875163 1_555
