# generated using pymatgen
data_CS5
_symmetry_space_group_name_H-M   'P 1'
_cell_length_a   10.87244652
_cell_length_b   14.19099603
_cell_length_c   31.22146334
_cell_angle_alpha   90.00000000
_cell_angle_beta   90.00000000
_cell_angle_gamma   90.00000000
_symmetry_Int_Tables_number   1
_chemical_formula_structural   CS5
_chemical_formula_sum   'C8 S40'
_cell_volume   4817.18597341
_cell_formula_units_Z   8
loop_
 _symmetry_equiv_pos_site_id
 _symmetry_equiv_pos_as_xyz
  1  'x, y, z'
loop_
 _atom_site_type_symbol
 _atom_site_label
 _atom_site_symmetry_multiplicity
 _atom_site_fract_x
 _atom_site_fract_y
 _atom_site_fract_z
 _atom_site_occupancy
  C  C0  1  0.18272610  0.25000000  0.09739205  1
  C  C1  1  0.81727390  0.75000000  0.90260795  1
  C  C2  1  0.31727390  0.75000000  0.59739205  1
  C  C3  1  0.68272610  0.25000000  0.40260795  1
  C  C4  1  0.26227810  0.25000000  0.60052287  1
  C  C5  1  0.73772190  0.75000000  0.39947713  1
  C  C6  1  0.23772190  0.75000000  0.10052287  1
  C  C7  1  0.76227810  0.25000000  0.89947713  1
  S  S0  1  0.23438443  0.13252492  0.35979788  1
  S  S1  1  0.76561557  0.86747508  0.64020212  1
  S  S2  1  0.26561557  0.86747508  0.85979788  1
  S  S3  1  0.76561557  0.63252492  0.64020212  1
  S  S4  1  0.73438443  0.13252492  0.14020212  1
  S  S5  1  0.23438443  0.36747508  0.35979788  1
  S  S6  1  0.73438443  0.36747508  0.14020212  1
  S  S7  1  0.26561557  0.63252492  0.85979788  1
  S  S8  1  0.33142463  0.25000000  0.23072386  1
  S  S9  1  0.66857537  0.75000000  0.76927614  1
  S  S10  1  0.16857537  0.75000000  0.73072386  1
  S  S11  1  0.83142463  0.25000000  0.26927614  1
  S  S12  1  0.12423440  0.25000000  0.36368458  1
  S  S13  1  0.87576560  0.75000000  0.63631542  1
  S  S14  1  0.37576560  0.75000000  0.86368458  1
  S  S15  1  0.62423440  0.25000000  0.13631542  1
  S  S16  1  0.23058582  0.08112002  0.29806883  1
  S  S17  1  0.76941418  0.91887998  0.70193117  1
  S  S18  1  0.26941418  0.91887998  0.79806883  1
  S  S19  1  0.76941418  0.58112002  0.70193117  1
  S  S20  1  0.73058582  0.08112002  0.20193117  1
  S  S21  1  0.23058582  0.41887998  0.29806883  1
  S  S22  1  0.73058582  0.41887998  0.20193117  1
  S  S23  1  0.26941418  0.58112002  0.79806883  1
  S  S24  1  0.38103903  0.13146444  0.26481024  1
  S  S25  1  0.61896097  0.86853556  0.73518976  1
  S  S26  1  0.11896097  0.86853556  0.76481024  1
  S  S27  1  0.61896097  0.63146444  0.73518976  1
  S  S28  1  0.88103903  0.13146444  0.23518976  1
  S  S29  1  0.38103903  0.36853556  0.26481024  1
  S  S30  1  0.88103903  0.36853556  0.23518976  1
  S  S31  1  0.11896097  0.63146444  0.76481024  1
  S  S32  1  0.29337823  0.25000000  0.06575675  1
  S  S33  1  0.70662177  0.75000000  0.93424325  1
  S  S34  1  0.20662177  0.75000000  0.56575675  1
  S  S35  1  0.79337823  0.25000000  0.43424325  1
  S  S36  1  0.07204360  0.25000000  0.12905090  1
  S  S37  1  0.92795640  0.75000000  0.87094910  1
  S  S38  1  0.42795640  0.75000000  0.62905090  1
  S  S39  1  0.57204360  0.25000000  0.37094910  1
loop_
_geom_bond_atom_site_label_1
_geom_bond_atom_site_label_2
_geom_bond_distance
_geom_bond_site_symmetry_2
C0 S32 1.556568 1_555
C0 S36 1.557290 1_555
C1 S33 1.556568 1_555
C1 S37 1.557290 1_555
C2 S34 1.556568 1_555
C2 S38 1.557290 1_555
C3 S35 1.556568 1_555
C3 S39 1.557290 1_555
S0 S12 2.056248 1_555
S0 S16 2.061124 1_555
S1 S13 2.056248 1_555
S1 S17 2.061124 1_555
S10 S31 2.062317 1_555
S10 S26 2.062317 1_555
S11 S30 2.062317 1_555
S11 S28 2.062317 1_555
S12 S5 2.056248 1_555
S13 S3 2.056248 1_555
S14 S7 2.056248 1_555
S14 S2 2.056248 1_555
S15 S4 2.056248 1_555
S15 S6 2.056248 1_555
S16 S24 2.065062 1_555
S17 S25 2.065062 1_555
S18 S2 2.061124 1_555
S18 S26 2.065062 1_555
S19 S3 2.061124 1_555
S19 S27 2.065062 1_555
S20 S4 2.061124 1_555
S20 S28 2.065062 1_555
S21 S5 2.061124 1_555
S21 S29 2.065062 1_555
S22 S6 2.061124 1_555
S22 S30 2.065062 1_555
S23 S7 2.061124 1_555
S23 S31 2.065062 1_555
S24 S8 2.062317 1_555
S25 S9 2.062317 1_555
S27 S9 2.062317 1_555
S29 S8 2.062317 1_555
