# generated using pymatgen
data_Al4VNi15
_symmetry_space_group_name_H-M   'P 1'
_cell_length_a   3.54213100
_cell_length_b   3.54213100
_cell_length_c   17.96339400
_cell_angle_alpha   90.00000000
_cell_angle_beta   90.00000000
_cell_angle_gamma   90.00000000
_symmetry_Int_Tables_number   1
_chemical_formula_structural   Al4VNi15
_chemical_formula_sum   'Al4 V1 Ni15'
_cell_volume   225.38117217
_cell_formula_units_Z   1
loop_
 _symmetry_equiv_pos_site_id
 _symmetry_equiv_pos_as_xyz
  1  'x, y, z'
loop_
 _atom_site_type_symbol
 _atom_site_label
 _atom_site_symmetry_multiplicity
 _atom_site_fract_x
 _atom_site_fract_y
 _atom_site_fract_z
 _atom_site_occupancy
  Al  Al0  1  0.00000000  0.00000000  0.20187600  1
  Al  Al1  1  0.00000000  0.00000000  0.39994600  1
  Al  Al2  1  0.00000000  0.00000000  0.60005400  1
  Al  Al3  1  0.00000000  0.00000000  0.79812400  1
  V  V0  1  0.00000000  0.00000000  0.00000000  1
  Ni  Ni0  1  0.50000000  0.50000000  0.00000000  1
  Ni  Ni1  1  0.50000000  0.50000000  0.19938900  1
  Ni  Ni2  1  0.50000000  0.50000000  0.39926200  1
  Ni  Ni3  1  0.50000000  0.50000000  0.60073800  1
  Ni  Ni4  1  0.50000000  0.50000000  0.80061100  1
  Ni  Ni5  1  0.50000000  0.00000000  0.09705300  1
  Ni  Ni6  1  0.50000000  0.00000000  0.29991600  1
  Ni  Ni7  1  0.50000000  0.00000000  0.50000000  1
  Ni  Ni8  1  0.50000000  0.00000000  0.70008400  1
  Ni  Ni9  1  0.50000000  0.00000000  0.90294700  1
  Ni  Ni10  1  0.00000000  0.50000000  0.09705300  1
  Ni  Ni11  1  0.00000000  0.50000000  0.29991600  1
  Ni  Ni12  1  0.00000000  0.50000000  0.50000000  1
  Ni  Ni13  1  0.00000000  0.50000000  0.70008400  1
  Ni  Ni14  1  0.00000000  0.50000000  0.90294700  1
loop_
_geom_bond_atom_site_label_1
_geom_bond_atom_site_label_2
_geom_bond_distance
_geom_bond_site_symmetry_2
Al0 Ni11 2.497650 1_555
Al0 Ni11 2.497650 1_545
Al0 Ni6 2.497650 1_455
Al0 Ni6 2.497650 1_555
Al0 Ni1 2.505063 1_445
Al0 Ni1 2.505063 1_455
Al0 Ni1 2.505063 1_555
Al0 Ni1 2.505063 1_545
Al0 Ni10 2.585010 1_545
Al0 Ni5 2.585010 1_555
Al0 Ni5 2.585010 1_455
Al0 Ni10 2.585010 1_555
Al1 Ni2 2.504695 1_445
Al1 Ni2 2.504695 1_555
Al1 Ni2 2.504695 1_545
Al1 Ni2 2.504695 1_455
Al1 Ni11 2.522983 1_555
Al1 Ni6 2.522983 1_455
Al1 Ni11 2.522983 1_545
Al1 Ni6 2.522983 1_555
Al1 Ni12 2.523290 1_545
Al1 Ni12 2.523290 1_555
Al1 Ni7 2.523290 1_455
Al1 Ni7 2.523290 1_555
Al2 Ni3 2.504695 1_455
Al2 Ni3 2.504695 1_545
Al2 Ni3 2.504695 1_445
Al2 Ni3 2.504695 1_555
Al2 Ni8 2.522983 1_555
Al2 Ni8 2.522983 1_455
Al2 Ni13 2.522983 1_555
Al2 Ni13 2.522983 1_545
Al2 Ni7 2.523290 1_455
Al2 Ni7 2.523290 1_555
Al2 Ni12 2.523290 1_555
Al2 Ni12 2.523290 1_545
Al3 Ni8 2.497650 1_555
Al3 Ni13 2.497650 1_555
Al3 Ni8 2.497650 1_455
Al3 Ni13 2.497650 1_545
Al3 Ni4 2.505063 1_455
Al3 Ni4 2.505063 1_445
Al3 Ni4 2.505063 1_555
Al3 Ni4 2.505063 1_545
Al3 Ni14 2.585010 1_555
Al3 Ni14 2.585010 1_545
Al3 Ni9 2.585010 1_555
Al3 Ni9 2.585010 1_455
Ni0 Ni5 2.485180 1_565
Ni0 Ni10 2.485180 1_655
Ni0 Ni5 2.485180 1_555
Ni0 Ni10 2.485180 1_555
Ni0 Ni14 2.485180 1_654
Ni0 Ni14 2.485180 1_554
Ni0 Ni9 2.485180 1_564
Ni0 Ni9 2.485180 1_554
Ni0 V0 2.504665 1_565
Ni0 V0 2.504665 1_555
Ni0 V0 2.504665 1_665
Ni0 V0 2.504665 1_655
Ni1 Ni11 2.529349 1_555
Ni1 Ni6 2.529349 1_565
Ni1 Ni11 2.529349 1_655
Ni1 Ni6 2.529349 1_555
Ni1 Ni10 2.552651 1_555
Ni1 Ni5 2.552651 1_565
Ni1 Ni10 2.552651 1_655
Ni1 Ni5 2.552651 1_555
Ni2 Ni6 2.514247 1_565
Ni2 Ni6 2.514247 1_555
Ni2 Ni7 2.532057 1_555
Ni2 Ni7 2.532057 1_565
Ni3 Ni8 2.514247 1_555
Ni3 Ni8 2.514247 1_565
Ni3 Ni7 2.532057 1_555
Ni3 Ni7 2.532057 1_565
Ni4 Ni8 2.529349 1_565
Ni4 Ni8 2.529349 1_555
Ni4 Ni9 2.552651 1_565
Ni4 Ni9 2.552651 1_555
Ni5 V0 2.485180 1_655
Ni5 V0 2.485180 1_555
Ni9 V0 2.485180 1_556
Ni9 V0 2.485180 1_656
Ni10 V0 2.485180 1_565
Ni10 V0 2.485180 1_555
Ni10 Ni5 2.504665 1_555
Ni10 Ni5 2.504665 1_455
Ni10 Ni5 2.504665 1_565
Ni10 Ni5 2.504665 1_465
Ni11 Ni6 2.504665 1_555
Ni11 Ni6 2.504665 1_465
Ni11 Ni6 2.504665 1_455
Ni11 Ni6 2.504665 1_565
Ni11 Ni2 2.514247 1_555
Ni11 Ni2 2.514247 1_455
Ni12 Ni7 2.504665 1_555
Ni12 Ni7 2.504665 1_565
Ni12 Ni7 2.504665 1_455
Ni12 Ni7 2.504665 1_465
Ni12 Ni3 2.532057 1_455
Ni12 Ni3 2.532057 1_555
Ni12 Ni2 2.532057 1_555
Ni12 Ni2 2.532057 1_455
Ni13 Ni8 2.504665 1_465
Ni13 Ni8 2.504665 1_455
Ni13 Ni8 2.504665 1_565
Ni13 Ni8 2.504665 1_555
Ni13 Ni3 2.514247 1_555
Ni13 Ni3 2.514247 1_455
Ni13 Ni4 2.529349 1_555
Ni13 Ni4 2.529349 1_455
Ni14 V0 2.485180 1_556
Ni14 V0 2.485180 1_566
Ni14 Ni9 2.504665 1_555
Ni14 Ni9 2.504665 1_465
Ni14 Ni9 2.504665 1_455
Ni14 Ni9 2.504665 1_565
Ni14 Ni4 2.552651 1_555
Ni14 Ni4 2.552651 1_455
