# generated using pymatgen
data_Ca2LaSbO6
_symmetry_space_group_name_H-M   'P 1'
_cell_length_a   8.38303115
_cell_length_b   8.38303115
_cell_length_c   8.38303115
_cell_angle_alpha   90.00000000
_cell_angle_beta   90.00000000
_cell_angle_gamma   90.00000000
_symmetry_Int_Tables_number   1
_chemical_formula_structural   Ca2LaSbO6
_chemical_formula_sum   'Ca8 La4 Sb4 O24'
_cell_volume   589.11928508
_cell_formula_units_Z   4
loop_
 _symmetry_equiv_pos_site_id
 _symmetry_equiv_pos_as_xyz
  1  'x, y, z'
loop_
 _atom_site_type_symbol
 _atom_site_label
 _atom_site_symmetry_multiplicity
 _atom_site_fract_x
 _atom_site_fract_y
 _atom_site_fract_z
 _atom_site_occupancy
  Ca  Ca0  1  0.50000000  0.50000000  0.50000000  1
  Ca  Ca1  1  -0.00000000  -0.00000000  0.00000000  1
  Ca  Ca2  1  -0.00000000  -0.00000000  0.50000000  1
  Ca  Ca3  1  -0.00000000  0.50000000  0.00000000  1
  Ca  Ca4  1  0.50000000  -0.00000000  0.00000000  1
  Ca  Ca5  1  0.50000000  0.50000000  0.00000000  1
  Ca  Ca6  1  0.50000000  -0.00000000  0.50000000  1
  Ca  Ca7  1  -0.00000000  0.50000000  0.50000000  1
  La  La0  1  0.75000000  0.75000000  0.75000000  1
  La  La1  1  0.75000000  0.25000000  0.25000000  1
  La  La2  1  0.25000000  0.75000000  0.25000000  1
  La  La3  1  0.25000000  0.25000000  0.75000000  1
  Sb  Sb0  1  0.25000000  0.25000000  0.25000000  1
  Sb  Sb1  1  0.25000000  0.75000000  0.75000000  1
  Sb  Sb2  1  0.75000000  0.25000000  0.75000000  1
  Sb  Sb3  1  0.75000000  0.75000000  0.25000000  1
  O  O0  1  0.20426145  0.31062331  0.47804850  1
  O  O1  1  0.20426145  0.68937669  0.52195150  1
  O  O2  1  0.79573855  0.31062331  0.52195150  1
  O  O3  1  0.79573855  0.68937669  0.47804850  1
  O  O4  1  0.31062331  0.47804850  0.20426145  1
  O  O5  1  0.68937669  0.52195150  0.20426145  1
  O  O6  1  0.31062331  0.52195150  0.79573855  1
  O  O7  1  0.68937669  0.47804850  0.79573855  1
  O  O8  1  0.47804850  0.20426145  0.31062331  1
  O  O9  1  0.52195150  0.20426145  0.68937669  1
  O  O10  1  0.52195150  0.79573855  0.31062331  1
  O  O11  1  0.47804850  0.79573855  0.68937669  1
  O  O12  1  0.29573855  0.18937669  0.02195150  1
  O  O13  1  0.29573855  0.81062331  0.97804850  1
  O  O14  1  0.70426145  0.18937669  0.97804850  1
  O  O15  1  0.70426145  0.81062331  0.02195150  1
  O  O16  1  0.18937669  0.02195150  0.29573855  1
  O  O17  1  0.81062331  0.97804850  0.29573855  1
  O  O18  1  0.18937669  0.97804850  0.70426145  1
  O  O19  1  0.81062331  0.02195150  0.70426145  1
  O  O20  1  0.02195150  0.29573855  0.18937669  1
  O  O21  1  0.97804850  0.29573855  0.81062331  1
  O  O22  1  0.97804850  0.70426145  0.18937669  1
  O  O23  1  0.02195150  0.70426145  0.81062331  1
loop_
_geom_bond_atom_site_label_1
_geom_bond_atom_site_label_2
_geom_bond_distance
_geom_bond_site_symmetry_2
Ca0 O5 2.949668 1_555
Ca0 O4 2.949668 1_555
Ca0 O1 2.949668 1_555
Ca0 O8 2.949668 1_555
Ca0 O0 2.949668 1_555
Ca0 O9 2.949668 1_555
Ca0 O7 2.949668 1_555
Ca0 O6 2.949668 1_555
Ca0 O10 2.949668 1_555
Ca0 O11 2.949668 1_555
Ca0 O2 2.949668 1_555
Ca0 O3 2.949668 1_555
Ca1 O17 2.949668 1_445
Ca1 O14 2.949668 1_454
Ca1 O23 2.949668 1_544
Ca1 O19 2.949668 1_454
Ca1 O15 2.949668 1_445
Ca1 O16 2.949668 1_555
Ca1 O18 2.949668 1_544
Ca1 O22 2.949668 1_445
Ca1 O20 2.949668 1_555
Ca1 O13 2.949668 1_544
Ca1 O21 2.949668 1_454
Ca1 O12 2.949668 1_555
Ca2 O19 2.342276 1_455
Ca2 O18 2.342276 1_545
Ca2 O17 2.342276 1_445
Ca2 O16 2.342276 1_555
Ca3 O20 2.342276 1_555
Ca3 O21 2.342276 1_454
Ca3 O23 2.342276 1_554
Ca3 O22 2.342276 1_455
Ca4 O14 2.342276 1_554
Ca4 O15 2.342276 1_545
Ca4 O12 2.342276 1_555
Ca4 O13 2.342276 1_544
Ca5 O6 2.342276 1_554
Ca5 O7 2.342276 1_554
Ca5 O4 2.342276 1_555
Ca5 O5 2.342276 1_555
Ca6 O10 2.342276 1_545
Ca6 O11 2.342276 1_545
Ca6 O9 2.342276 1_555
Ca6 O8 2.342276 1_555
Ca7 O3 2.342276 1_455
Ca7 O2 2.342276 1_455
Ca7 O1 2.342276 1_555
Ca7 O0 2.342276 1_555
La0 O15 2.366998 1_556
La0 O19 2.366998 1_565
La0 O23 2.366998 1_655
La0 O3 2.366998 1_555
La0 O11 2.366998 1_555
La0 O7 2.366998 1_555
La1 O20 2.366998 1_655
La1 O17 2.366998 1_545
La1 O2 2.366998 1_555
La1 O14 2.366998 1_554
La1 O8 2.366998 1_555
La1 O5 2.366998 1_555
La2 O16 2.366998 1_565
La2 O13 2.366998 1_554
La2 O10 2.366998 1_555
La2 O1 2.366998 1_555
La2 O4 2.366998 1_555
La2 O22 2.366998 1_455
La3 O12 2.366998 1_556
La3 O6 2.366998 1_555
La3 O9 2.366998 1_555
La3 O0 2.366998 1_555
La3 O18 2.366998 1_545
La3 O21 2.366998 1_455
O0 Sb0 2.014952 1_555
O1 Sb1 2.014952 1_555
O2 Sb2 2.014952 1_555
O3 Sb3 2.014952 1_555
O4 Sb0 2.014952 1_555
O5 Sb3 2.014952 1_555
O6 Sb1 2.014952 1_555
O7 Sb2 2.014952 1_555
O8 Sb0 2.014952 1_555
O9 Sb2 2.014952 1_555
O10 Sb3 2.014952 1_555
O11 Sb1 2.014952 1_555
O12 Sb0 2.014952 1_555
O13 Sb1 2.014952 1_555
O14 Sb2 2.014952 1_555
O15 Sb3 2.014952 1_555
O16 Sb0 2.014952 1_555
O17 Sb3 2.014952 1_555
O18 Sb1 2.014952 1_555
O19 Sb2 2.014952 1_555
O20 Sb0 2.014952 1_555
O21 Sb2 2.014952 1_555
O22 Sb3 2.014952 1_555
O23 Sb1 2.014952 1_555
