# generated using pymatgen
data_Te2MoW3(SeS2)2
_symmetry_space_group_name_H-M   'P 1'
_cell_length_a   3.30400366
_cell_length_b   3.30400366
_cell_length_c   37.66154100
_cell_angle_alpha   90.00000000
_cell_angle_beta   90.00000000
_cell_angle_gamma   119.99999309
_symmetry_Int_Tables_number   1
_chemical_formula_structural   Te2MoW3(SeS2)2
_chemical_formula_sum   'Te2 Mo1 W3 Se2 S4'
_cell_volume   356.04901301
_cell_formula_units_Z   1
loop_
 _symmetry_equiv_pos_site_id
 _symmetry_equiv_pos_as_xyz
  1  'x, y, z'
loop_
 _atom_site_type_symbol
 _atom_site_label
 _atom_site_symmetry_multiplicity
 _atom_site_fract_x
 _atom_site_fract_y
 _atom_site_fract_z
 _atom_site_occupancy
  Te  Te0  1  0.33333300  0.66666700  0.33253800  1
  Te  Te1  1  0.33333300  0.66666700  0.23104100  1
  Mo  Mo0  1  0.66666700  0.33333300  0.28180400  1
  W  W0  1  0.33333300  0.66666700  0.09390600  1
  W  W1  1  0.33333300  0.66666700  0.46968900  1
  W  W2  1  0.66666700  0.33333300  0.65753200  1
  Se  Se0  1  0.33333300  0.66666700  0.70236700  1
  Se  Se1  1  0.33333300  0.66666700  0.61270500  1
  S  S0  1  0.66666700  0.33333300  0.05316400  1
  S  S1  1  0.66666700  0.33333300  0.42894100  1
  S  S2  1  0.66666700  0.33333300  0.13465300  1
  S  S3  1  0.66666700  0.33333300  0.51040700  1
loop_
_geom_bond_atom_site_label_1
_geom_bond_atom_site_label_2
_geom_bond_distance
_geom_bond_site_symmetry_2
Mo0 Te0 2.699937 1_545
Mo0 Te0 2.699937 1_655
Mo0 Te0 2.699941 1_555
Mo0 Te1 2.700710 1_655
Mo0 Te1 2.700710 1_545
Mo0 Te1 2.700714 1_555
Se0 W2 2.547553 1_455
Se0 W2 2.547553 1_565
Se0 W2 2.547557 1_555
Se1 W2 2.547353 1_455
Se1 W2 2.547353 1_565
Se1 W2 2.547357 1_555
S0 W0 2.448103 1_545
S0 W0 2.448103 1_655
S0 W0 2.448108 1_555
S1 W1 2.448245 1_545
S1 W1 2.448245 1_655
S1 W1 2.448249 1_555
S2 W0 2.448221 1_545
S2 W0 2.448221 1_655
S2 W0 2.448226 1_555
S3 W1 2.447537 1_545
S3 W1 2.447537 1_655
S3 W1 2.447541 1_555
