# generated using pymatgen
data_V3O2F5
_symmetry_space_group_name_H-M   'P 1'
_cell_length_a   6.42782400
_cell_length_b   7.54212300
_cell_length_c   8.47852819
_cell_angle_alpha   116.40719177
_cell_angle_beta   112.27324596
_cell_angle_gamma   90.00078722
_symmetry_Int_Tables_number   1
_chemical_formula_structural   V3O2F5
_chemical_formula_sum   'V6 O4 F10'
_cell_volume   333.55519435
_cell_formula_units_Z   2
loop_
 _symmetry_equiv_pos_site_id
 _symmetry_equiv_pos_as_xyz
  1  'x, y, z'
loop_
 _atom_site_type_symbol
 _atom_site_label
 _atom_site_symmetry_multiplicity
 _atom_site_fract_x
 _atom_site_fract_y
 _atom_site_fract_z
 _atom_site_occupancy
  V  V0  1  0.11589100  0.11586800  0.23172800  1
  V  V1  1  0.49999300  0.50000200  0.50000500  1
  V  V2  1  0.00000700  0.50000100  0.49999700  1
  V  V3  1  0.99999800  0.00000000  0.50000300  1
  V  V4  1  0.50000100  0.99999300  0.49999800  1
  V  V5  1  0.88411900  0.88414000  0.76827500  1
  O  O0  1  0.00948300  0.78822700  0.57646100  1
  O  O1  1  0.56695000  0.78822500  0.57645900  1
  O  O2  1  0.99051600  0.21177100  0.42354000  1
  O  O3  1  0.43304900  0.21177100  0.42354100  1
  F  F0  1  0.19158600  0.99997200  0.99995700  1
  F  F1  1  0.80840900  0.00003000  0.00004200  1
  F  F2  1  0.14828200  0.87326900  0.29654900  1
  F  F3  1  0.85167300  0.57668600  0.70340600  1
  F  F4  1  0.33462800  0.56137000  0.66924200  1
  F  F5  1  0.66535500  0.89216200  0.33078000  1
  F  F6  1  0.66537000  0.43863000  0.33075500  1
  F  F7  1  0.33464500  0.10783900  0.66921900  1
  F  F8  1  0.85171500  0.12673200  0.70345100  1
  F  F9  1  0.14833100  0.42331200  0.29659300  1
loop_
_geom_bond_atom_site_label_1
_geom_bond_atom_site_label_2
_geom_bond_distance
_geom_bond_site_symmetry_2
O0 V5 1.940227 1_455
O0 V2 1.966231 1_555
O0 V3 1.966234 1_465
O1 V5 1.940272 1_555
O1 V4 1.966208 1_555
O1 V1 1.966210 1_555
O2 V0 1.940265 1_655
O2 V3 1.966250 1_555
O2 V2 1.966261 1_655
O3 V0 1.940213 1_555
O3 V1 1.966240 1_555
O3 V4 1.966262 1_545
F0 V5 2.014534 1_455
F0 V0 2.014757 1_566
F1 V0 2.014607 1_655
F1 V5 2.014786 1_544
F2 V0 2.121549 1_565
F2 V4 2.139482 1_555
F2 V3 2.139501 1_465
F3 V5 2.121719 1_555
F3 V1 2.139201 1_555
F3 V2 2.139430 1_655
F4 V1 1.992081 1_555
F4 V2 1.992277 1_555
F5 V4 1.991889 1_555
F5 V3 1.992344 1_565
F6 V1 1.992230 1_555
F6 V2 1.992353 1_655
F7 V4 1.991928 1_545
F7 V3 1.992357 1_455
F8 V5 2.121513 1_545
F8 V3 2.139457 1_555
F8 V4 2.139475 1_545
F9 V0 2.121655 1_555
F9 V1 2.139137 1_555
F9 V2 2.139343 1_555
