# generated using pymatgen
data_Li9Mn2Co5O16
_symmetry_space_group_name_H-M   'P 1'
_cell_length_a   2.89516600
_cell_length_b   10.27259400
_cell_length_c   10.33021563
_cell_angle_alpha   69.56745239
_cell_angle_beta   90.00000000
_cell_angle_gamma   90.00000000
_symmetry_Int_Tables_number   1
_chemical_formula_structural   Li9Mn2Co5O16
_chemical_formula_sum   'Li9 Mn2 Co5 O16'
_cell_volume   287.89984000
_cell_formula_units_Z   1
loop_
 _symmetry_equiv_pos_site_id
 _symmetry_equiv_pos_as_xyz
  1  'x, y, z'
loop_
 _atom_site_type_symbol
 _atom_site_label
 _atom_site_symmetry_multiplicity
 _atom_site_fract_x
 _atom_site_fract_y
 _atom_site_fract_z
 _atom_site_occupancy
  Li  Li0  1  0.50000000  0.00846200  0.73583300  1
  Li  Li1  1  0.50000000  0.99630500  0.26098700  1
  Li  Li2  1  0.00000000  0.74027700  0.74820300  1
  Li  Li3  1  0.00000000  0.74161200  0.25992600  1
  Li  Li4  1  0.50000000  0.50342500  0.73863100  1
  Li  Li5  1  0.50000000  0.49479400  0.25883700  1
  Li  Li6  1  0.00000000  0.25362200  0.73016500  1
  Li  Li7  1  0.00000000  0.26494600  0.26407200  1
  Li  Li8  1  0.50000000  0.24832300  0.50309600  1
  Mn  Mn0  1  0.00000000  0.00054000  0.99981200  1
  Mn  Mn1  1  0.00000000  0.00627700  0.50325100  1
  Co  Co0  1  0.50000000  0.74831200  0.99938100  1
  Co  Co1  1  0.50000000  0.74452400  0.49954700  1
  Co  Co2  1  0.00000000  0.49889900  0.00007800  1
  Co  Co3  1  0.00000000  0.48349800  0.49330300  1
  Co  Co4  1  0.50000000  0.25204000  0.00083800  1
  O  O0  1  0.50000000  0.10619500  0.88634700  1
  O  O1  1  0.50000000  0.11130600  0.38738900  1
  O  O2  1  0.00000000  0.86920600  0.89914900  1
  O  O3  1  0.00000000  0.87699500  0.38969600  1
  O  O4  1  0.50000000  0.61752300  0.88308700  1
  O  O5  1  0.50000000  0.62556100  0.38353200  1
  O  O6  1  0.00000000  0.36461200  0.89234100  1
  O  O7  1  0.00000000  0.38475400  0.37840400  1
  O  O8  1  0.50000000  0.88590800  0.61201400  1
  O  O9  1  0.50000000  0.89298300  0.11389400  1
  O  O10  1  0.00000000  0.63561000  0.61373500  1
  O  O11  1  0.00000000  0.63816400  0.10775200  1
  O  O12  1  0.50000000  0.38395800  0.61986500  1
  O  O13  1  0.50000000  0.38294000  0.11837000  1
  O  O14  1  0.00000000  0.11143400  0.61601200  1
  O  O15  1  0.00000000  0.12699500  0.10245100  1
loop_
_geom_bond_atom_site_label_1
_geom_bond_atom_site_label_2
_geom_bond_distance
_geom_bond_site_symmetry_2
Li0 O14 1.957635 1_555
Li0 O14 1.957635 1_655
Li0 O8 2.084540 1_545
Li0 O0 2.124949 1_555
Li0 O2 2.302843 1_545
Li0 O2 2.302843 1_645
Li1 O1 2.043931 1_565
Li1 O3 2.056132 1_555
Li1 O3 2.056132 1_655
Li1 O9 2.135762 1_555
Li1 O15 2.246072 1_565
Li1 O15 2.246072 1_665
Li2 O10 2.031851 1_555
Li2 O4 2.097699 1_455
Li2 O4 2.097699 1_555
Li2 O8 2.200748 1_455
Li2 O8 2.200748 1_555
Li2 O2 2.372235 1_555
Li3 O5 2.020963 1_455
Li3 O5 2.020963 1_555
Li3 O11 2.183303 1_555
Li3 O3 2.243419 1_555
Li3 O9 2.269652 1_555
Li3 O9 2.269652 1_455
Li4 O12 2.015592 1_555
Li4 O10 2.093022 1_555
Li4 O10 2.093022 1_655
Li4 O4 2.195866 1_555
Li4 O6 2.251503 1_555
Li4 O6 2.251503 1_655
Li5 O7 1.980921 1_655
Li5 O7 1.980921 1_555
Li5 O13 2.142419 1_555
Li5 O5 2.161463 1_555
Li5 O11 2.257337 1_555
Li5 O11 2.257337 1_655
Li6 O12 2.030085 1_455
Li6 O12 2.030085 1_555
Li6 O14 2.174086 1_555
Li6 O0 2.299153 1_455
Li6 O0 2.299153 1_555
Li6 O6 2.332443 1_555
Li7 O7 1.981052 1_555
Li7 O13 2.134554 1_455
Li7 O13 2.134554 1_555
Li7 O1 2.192140 1_555
Li7 O1 2.192140 1_455
Li7 O15 2.539225 1_555
Li8 O14 2.070812 1_555
Li8 O14 2.070812 1_655
Li8 O7 2.111501 1_655
Li8 O7 2.111501 1_555
Li8 O12 2.137724 1_555
Li8 O1 2.141134 1_555
Mn0 O0 1.938843 1_455
Mn0 O0 1.938843 1_555
Mn0 O15 1.942503 1_556
Mn0 O9 1.948327 1_446
Mn0 O9 1.948327 1_546
Mn0 O2 1.970038 1_545
Mn1 O14 1.844542 1_555
Mn1 O1 1.946911 1_555
Mn1 O1 1.946911 1_455
Mn1 O8 1.979088 1_445
Mn1 O8 1.979088 1_545
Mn1 O3 2.056092 1_545
Co0 O11 1.935107 1_556
Co0 O11 1.935107 1_656
Co0 O2 1.952454 1_655
Co0 O2 1.952454 1_555
Co0 O4 2.091716 1_555
Co0 O9 2.198968 1_556
Co1 O10 1.953775 1_655
Co1 O10 1.953775 1_555
Co1 O5 1.988045 1_555
Co1 O3 2.038839 1_655
Co1 O3 2.038839 1_555
Co1 O8 2.153452 1_555
Co2 O13 1.997840 1_455
Co2 O13 1.997840 1_555
Co2 O4 2.003184 1_454
Co2 O4 2.003184 1_554
Co2 O6 2.052694 1_554
Co2 O11 2.096399 1_555
Co3 O7 1.810622 1_555
Co3 O12 1.979137 1_455
Co3 O12 1.979137 1_555
Co3 O5 2.087019 1_455
Co3 O5 2.087019 1_555
Co3 O10 2.312302 1_555
Co4 O6 1.945254 1_554
Co4 O6 1.945254 1_654
Co4 O15 1.976343 1_655
Co4 O15 1.976343 1_555
Co4 O13 2.102902 1_555
Co4 O0 2.209216 1_554
