# generated using pymatgen
data_Li7Mn2(CoO4)3
_symmetry_space_group_name_H-M   'P 1'
_cell_length_a   6.58628079
_cell_length_b   6.58628079
_cell_length_c   5.01484622
_cell_angle_alpha   83.10872756
_cell_angle_beta   83.10872756
_cell_angle_gamma   83.91583686
_symmetry_Int_Tables_number   1
_chemical_formula_structural   Li7Mn2(CoO4)3
_chemical_formula_sum   'Li7 Mn2 Co3 O12'
_cell_volume   213.47984140
_cell_formula_units_Z   1
loop_
 _symmetry_equiv_pos_site_id
 _symmetry_equiv_pos_as_xyz
  1  'x, y, z'
loop_
 _atom_site_type_symbol
 _atom_site_label
 _atom_site_symmetry_multiplicity
 _atom_site_fract_x
 _atom_site_fract_y
 _atom_site_fract_z
 _atom_site_occupancy
  Li  Li0  1  0.58131500  0.90776200  0.75305600  1
  Li  Li1  1  0.25584900  0.25584900  0.75257900  1
  Li  Li2  1  0.90776200  0.58131500  0.75305600  1
  Li  Li3  1  0.09223800  0.41868500  0.24694400  1
  Li  Li4  1  0.74415100  0.74415100  0.24742100  1
  Li  Li5  1  0.41868500  0.09223800  0.24694400  1
  Li  Li6  1  0.50000000  0.50000000  0.00000000  1
  Mn  Mn0  1  0.82989800  0.17010200  0.00000000  1
  Mn  Mn1  1  0.17010200  0.82989800  0.00000000  1
  Co  Co0  1  0.34283800  0.65716200  0.50000000  1
  Co  Co1  1  0.00000000  0.00000000  0.50000000  1
  Co  Co2  1  0.65716200  0.34283800  0.50000000  1
  O  O0  1  0.94750600  0.27447000  0.64497000  1
  O  O1  1  0.62357000  0.62357000  0.60512900  1
  O  O2  1  0.27447000  0.94750600  0.64497000  1
  O  O3  1  0.43033400  0.79514300  0.13475700  1
  O  O4  1  0.11090700  0.11090700  0.12009800  1
  O  O5  1  0.79514300  0.43033400  0.13475700  1
  O  O6  1  0.20485700  0.56966600  0.86524300  1
  O  O7  1  0.88909300  0.88909300  0.87990200  1
  O  O8  1  0.56966600  0.20485700  0.86524300  1
  O  O9  1  0.72553000  0.05249400  0.35503000  1
  O  O10  1  0.37643000  0.37643000  0.39487100  1
  O  O11  1  0.05249400  0.72553000  0.35503000  1
loop_
_geom_bond_atom_site_label_1
_geom_bond_atom_site_label_2
_geom_bond_distance
_geom_bond_site_symmetry_2
Li0 O1 2.074735 1_555
Li0 O8 2.091238 1_565
Li0 O3 2.135868 1_556
Li0 O2 2.136192 1_555
Li0 O7 2.183294 1_555
Li0 O9 2.252868 1_565
Li1 O10 1.982246 1_555
Li1 O4 2.137340 1_556
Li1 O2 2.150547 1_545
Li1 O0 2.150547 1_455
Li1 O6 2.188968 1_555
Li1 O8 2.188968 1_555
Li2 O1 2.074735 1_555
Li2 O6 2.091238 1_655
Li2 O5 2.135868 1_556
Li2 O0 2.136192 1_555
Li2 O7 2.183294 1_555
Li2 O11 2.252868 1_655
Li3 O10 2.074735 1_555
Li3 O5 2.091238 1_455
Li3 O6 2.135868 1_554
Li3 O11 2.136192 1_555
Li3 O4 2.183294 1_555
Li3 O0 2.252868 1_455
Li4 O1 1.982246 1_555
Li4 O7 2.137340 1_554
Li4 O9 2.150547 1_565
Li4 O11 2.150547 1_655
Li4 O5 2.188968 1_555
Li4 O3 2.188968 1_555
Li5 O10 2.074735 1_555
Li5 O3 2.091238 1_545
Li5 O8 2.135868 1_554
Li5 O9 2.136192 1_555
Li5 O4 2.183294 1_555
Li5 O2 2.252868 1_545
Li6 O5 2.120779 1_555
Li6 O3 2.120779 1_555
Li6 O6 2.120779 1_554
Li6 O8 2.120779 1_554
Li6 O10 2.147775 1_555
Li6 O1 2.147775 1_554
Mn0 O8 1.898528 1_554
Mn0 O5 1.898528 1_555
Mn0 O9 1.931489 1_555
Mn0 O0 1.931489 1_554
Mn0 O4 1.999599 1_655
Mn0 O7 1.999599 1_544
Mn1 O6 1.898528 1_554
Mn1 O3 1.898528 1_555
Mn1 O11 1.931489 1_555
Mn1 O2 1.931489 1_554
Mn1 O4 1.999599 1_565
Mn1 O7 1.999599 1_454
Co0 O1 1.965919 1_555
Co0 O10 1.965919 1_555
Co0 O3 1.992773 1_555
Co0 O6 1.992773 1_555
Co0 O2 2.112028 1_555
Co0 O11 2.112028 1_555
Co1 O9 2.009615 1_455
Co1 O11 2.009615 1_545
Co1 O2 2.009615 1_545
Co1 O0 2.009615 1_455
Co1 O4 2.035179 1_555
Co1 O7 2.035179 1_445
Co2 O1 1.965919 1_555
Co2 O10 1.965919 1_555
Co2 O5 1.992773 1_555
Co2 O8 1.992773 1_555
Co2 O0 2.112028 1_555
Co2 O9 2.112028 1_555
