# generated using pymatgen
data_Li5Mn2CoO8
_symmetry_space_group_name_H-M   'P 1'
_cell_length_a   2.88855039
_cell_length_b   10.10042897
_cell_length_c   9.76570791
_cell_angle_alpha   79.29769579
_cell_angle_beta   90.60989055
_cell_angle_gamma   90.47653442
_symmetry_Int_Tables_number   1
_chemical_formula_structural   Li5Mn2CoO8
_chemical_formula_sum   'Li10 Mn4 Co2 O16'
_cell_volume   279.94258275
_cell_formula_units_Z   2
loop_
 _symmetry_equiv_pos_site_id
 _symmetry_equiv_pos_as_xyz
  1  'x, y, z'
loop_
 _atom_site_type_symbol
 _atom_site_label
 _atom_site_symmetry_multiplicity
 _atom_site_fract_x
 _atom_site_fract_y
 _atom_site_fract_z
 _atom_site_occupancy
  Li  Li0  1  0.50000200  0.75000200  0.00000000  1
  Li  Li1  1  0.00000000  0.74999700  0.50000100  1
  Li  Li2  1  0.99708500  0.12495800  0.25486100  1
  Li  Li3  1  0.50394900  0.12513000  0.75138600  1
  Li  Li4  1  0.49605100  0.37487100  0.24861300  1
  Li  Li5  1  0.00291800  0.37503900  0.74514000  1
  Li  Li6  1  0.99352600  0.64040500  0.24606200  1
  Li  Li7  1  0.49099900  0.63958600  0.74604600  1
  Li  Li8  1  0.50900500  0.86041700  0.25395600  1
  Li  Li9  1  0.00647700  0.85959700  0.75393700  1
  Mn  Mn0  1  0.49836100  0.99467400  0.50550600  1
  Mn  Mn1  1  0.50163300  0.50531700  0.49449400  1
  Mn  Mn2  1  0.00646500  0.98973200  0.00654900  1
  Mn  Mn3  1  0.99352100  0.51028400  0.99344000  1
  Co  Co0  1  0.00000000  0.24999700  0.50000000  1
  Co  Co1  1  0.50000200  0.25000200  0.00000000  1
  O  O0  1  0.51081500  0.05875400  0.11373200  1
  O  O1  1  0.00259200  0.06870700  0.60932400  1
  O  O2  1  0.99740700  0.43128700  0.39067800  1
  O  O3  1  0.48918600  0.44125000  0.88626800  1
  O  O4  1  0.97811000  0.31504500  0.11277000  1
  O  O5  1  0.50486200  0.31171600  0.60697300  1
  O  O6  1  0.49513800  0.18827700  0.39302700  1
  O  O7  1  0.02189400  0.18496000  0.88723000  1
  O  O8  1  0.49771900  0.55318500  0.10807400  1
  O  O9  1  0.00663100  0.55058100  0.60780100  1
  O  O10  1  0.99336700  0.94941400  0.39220100  1
  O  O11  1  0.50228100  0.94681900  0.89192600  1
  O  O12  1  0.00414800  0.82671700  0.12086600  1
  O  O13  1  0.50059500  0.83109900  0.62062800  1
  O  O14  1  0.49940600  0.66889600  0.37937400  1
  O  O15  1  0.99585600  0.67328600  0.87913600  1
loop_
_geom_bond_atom_site_label_1
_geom_bond_atom_site_label_2
_geom_bond_distance
_geom_bond_site_symmetry_2
Li0 O11 2.070389 1_554
Li0 O8 2.070389 1_555
Li0 O15 2.097277 1_454
Li0 O12 2.097285 1_655
Li0 O15 2.106941 1_554
Li0 O12 2.106948 1_555
Li1 O9 2.092426 1_555
Li1 O10 2.092435 1_455
Li1 O14 2.109987 1_455
Li1 O13 2.109994 1_555
Li1 O14 2.133994 1_555
Li1 O13 2.133997 1_455
Li2 O10 2.014823 1_545
Li2 O6 2.136164 1_655
Li2 O0 2.145938 1_555
Li2 O4 2.150666 1_555
Li2 O6 2.170113 1_555
Li2 O0 2.225096 1_655
Li3 O11 2.051656 1_545
Li3 O7 2.101204 1_555
Li3 O5 2.133892 1_555
Li3 O1 2.141005 1_555
Li3 O7 2.145670 1_655
Li3 O1 2.161933 1_655
Li4 O8 2.051673 1_555
Li4 O4 2.101188 1_555
Li4 O6 2.133958 1_555
Li4 O2 2.140997 1_555
Li4 O4 2.145640 1_455
Li4 O2 2.161928 1_455
Li5 O9 2.014802 1_555
Li5 O5 2.136193 1_455
Li5 O3 2.145958 1_555
Li5 O7 2.150599 1_555
Li5 O5 2.170130 1_555
Li5 O3 2.225123 1_455
Li6 O14 2.000104 1_555
Li6 O14 2.001163 1_655
Li6 O12 2.045079 1_655
Li6 O8 2.240964 1_555
Li6 O8 2.284094 1_655
Li6 O2 2.312597 1_555
Li7 O15 2.011837 1_555
Li7 O15 2.015618 1_455
Li7 O13 2.088668 1_555
Li7 O3 2.206679 1_555
Li7 O9 2.231150 1_555
Li7 O9 2.316269 1_655
Li8 O12 2.011837 1_555
Li8 O12 2.015618 1_655
Li8 O14 2.088734 1_555
Li8 O0 2.206695 1_565
Li8 O10 2.231098 1_555
Li8 O10 2.316240 1_455
Li9 O13 2.000099 1_555
Li9 O13 2.001166 1_455
Li9 O15 2.045083 1_455
Li9 O11 2.240975 1_555
Li9 O11 2.284116 1_455
Li9 O1 2.312519 1_565
Mn0 O13 1.817638 1_555
Mn0 O10 1.924463 1_455
Mn0 O10 1.926196 1_555
Mn0 O1 1.985060 1_665
Mn0 O1 1.992018 1_565
Mn0 O6 2.057385 1_565
Mn1 O14 1.817661 1_555
Mn1 O9 1.924497 1_655
Mn1 O9 1.926213 1_555
Mn1 O2 1.985024 1_455
Mn1 O2 1.992002 1_555
Mn1 O5 2.057368 1_555
Mn2 O12 1.809602 1_555
Mn2 O11 1.922720 1_454
Mn2 O11 1.927873 1_554
Mn2 O0 1.981336 1_565
Mn2 O0 1.987704 1_465
Mn2 O7 2.096268 1_564
Mn3 O15 1.809441 1_555
Mn3 O8 1.922777 1_656
Mn3 O8 1.927869 1_556
Mn3 O3 1.981296 1_555
Mn3 O3 1.987726 1_655
Mn3 O4 2.096401 1_556
Co0 O2 1.940818 1_455
Co0 O1 1.940826 1_555
Co0 O5 1.949605 1_555
Co0 O6 1.949609 1_455
Co0 O5 1.952951 1_455
Co0 O6 1.952955 1_555
Co1 O7 1.942399 1_554
Co1 O4 1.942403 1_555
Co1 O0 2.041910 1_555
Co1 O3 2.041910 1_554
Co1 O7 2.058524 1_654
Co1 O4 2.058528 1_455
