# generated using pymatgen
data_Gd(SiPt)2
_symmetry_space_group_name_H-M   'P 1'
_cell_length_a   5.86013528
_cell_length_b   5.86013528
_cell_length_c   5.86013528
_cell_angle_alpha   137.45927176
_cell_angle_beta   137.45927176
_cell_angle_gamma   61.73216643
_symmetry_Int_Tables_number   1
_chemical_formula_structural   Gd(SiPt)2
_chemical_formula_sum   'Gd1 Si2 Pt2'
_cell_volume   90.93222090
_cell_formula_units_Z   1
loop_
 _symmetry_equiv_pos_site_id
 _symmetry_equiv_pos_as_xyz
  1  'x, y, z'
loop_
 _atom_site_type_symbol
 _atom_site_label
 _atom_site_symmetry_multiplicity
 _atom_site_fract_x
 _atom_site_fract_y
 _atom_site_fract_z
 _atom_site_occupancy
  Gd  Gd0  1  0.00000000  0.00000000  0.00000000  1
  Si  Si0  1  0.25000000  0.75000000  0.50000000  1
  Si  Si1  1  0.75000000  0.25000000  0.50000000  1
  Pt  Pt0  1  0.63404400  0.63404400  0.00000000  1
  Pt  Pt1  1  0.36595600  0.36595600  0.00000000  1
loop_
_geom_bond_atom_site_label_1
_geom_bond_atom_site_label_2
_geom_bond_distance
_geom_bond_site_symmetry_2
Gd0 Si0 3.293171 1_555
Gd0 Si1 3.293171 1_555
Gd0 Si1 3.293171 1_455
Gd0 Si0 3.293171 1_544
Gd0 Si1 3.293171 1_444
Gd0 Si0 3.293171 1_545
Gd0 Si0 3.293171 1_444
Gd0 Si1 3.293171 1_454
Gd0 Pt1 3.295030 1_455
Gd0 Pt0 3.295030 1_455
Gd0 Pt1 3.295030 1_556
Gd0 Pt0 3.295030 1_444
Gd0 Pt1 3.295030 1_545
Gd0 Pt0 3.295030 1_545
Gd0 Pt0 3.295030 1_556
Gd0 Pt1 3.295030 1_444
Pt0 Si1 2.424913 1_554
Pt0 Si0 2.424913 1_554
Pt0 Si0 2.424913 1_655
Pt0 Si1 2.424913 1_565
Pt1 Si1 2.424913 1_555
Pt1 Si1 2.424913 1_454
Pt1 Si0 2.424913 1_544
Pt1 Si0 2.424913 1_555
