# generated using pymatgen
data_CsLa2Ti2NbO10
_symmetry_space_group_name_H-M   'P 1'
_cell_length_a   3.90175137
_cell_length_b   3.90175137
_cell_length_c   15.69065940
_cell_angle_alpha   89.60689220
_cell_angle_beta   90.39310780
_cell_angle_gamma   89.95130635
_symmetry_Int_Tables_number   1
_chemical_formula_structural   CsLa2Ti2NbO10
_chemical_formula_sum   'Cs1 La2 Ti2 Nb1 O10'
_cell_volume   238.85798272
_cell_formula_units_Z   1
loop_
 _symmetry_equiv_pos_site_id
 _symmetry_equiv_pos_as_xyz
  1  'x, y, z'
loop_
 _atom_site_type_symbol
 _atom_site_label
 _atom_site_symmetry_multiplicity
 _atom_site_fract_x
 _atom_site_fract_y
 _atom_site_fract_z
 _atom_site_occupancy
  Cs  Cs0  1  0.50003900  0.49996100  0.50945900  1
  La  La0  1  0.50747300  0.49252700  0.84621700  1
  La  La1  1  0.50356300  0.49643700  0.12793600  1
  Ti  Ti0  1  0.98522200  0.01477800  0.99769500  1
  Ti  Ti1  1  0.00066700  0.99933300  0.71596600  1
  Nb  Nb0  1  0.00094900  0.99905100  0.28023500  1
  O  O0  1  0.99060400  0.00939600  0.87881700  1
  O  O1  1  0.98836300  0.01163700  0.12734200  1
  O  O2  1  0.49940100  0.99955900  0.75155600  1
  O  O3  1  0.00044100  0.50059900  0.75155600  1
  O  O4  1  0.49815800  0.00350700  0.24846100  1
  O  O5  1  0.99649300  0.50184200  0.24846100  1
  O  O6  1  0.99930800  0.00069200  0.60772200  1
  O  O7  1  0.00135600  0.99864400  0.39431900  1
  O  O8  1  0.47465600  0.05169300  0.00712900  1
  O  O9  1  0.94830700  0.52534400  0.00712900  1
loop_
_geom_bond_atom_site_label_1
_geom_bond_atom_site_label_2
_geom_bond_distance
_geom_bond_site_symmetry_2
Cs0 O6 3.142912 1_555
Cs0 O6 3.161585 1_565
Cs0 O6 3.161585 1_455
Cs0 O6 3.176077 1_465
Cs0 O7 3.276090 1_555
Cs0 O7 3.298862 1_655
Cs0 O7 3.298862 1_545
Cs0 O7 3.317581 1_645
La0 O2 2.438312 1_545
La0 O3 2.438312 1_655
La0 O3 2.465713 1_555
La0 O2 2.465713 1_555
La0 O0 2.708510 1_555
La0 O0 2.808831 1_565
La0 O0 2.808831 1_455
La0 O0 2.901234 1_465
La0 O9 3.048736 1_556
La0 O8 3.048736 1_556
La1 O9 2.580607 1_555
La1 O8 2.580607 1_555
La1 O1 2.674052 1_555
La1 O5 2.688219 1_555
La1 O4 2.688219 1_555
La1 O5 2.746433 1_455
La1 O4 2.746433 1_565
La1 O1 2.761413 1_455
La1 O1 2.761413 1_565
La1 O1 2.841544 1_465
La1 O8 2.870487 1_565
La1 O9 2.870487 1_455
Nb0 O7 1.790033 1_555
Nb0 O5 2.006393 1_455
Nb0 O4 2.006393 1_565
Nb0 O4 2.020838 1_465
Nb0 O5 2.020838 1_465
Nb0 O1 2.399322 1_465
O0 Ti0 1.865798 1_555
O1 Ti0 2.034153 1_554
O2 Ti1 2.020795 1_555
O2 Ti1 2.037658 1_655
O3 Ti1 2.020795 1_555
O3 Ti1 2.037658 1_545
O6 Ti1 1.698364 1_645
O8 Ti0 1.919974 1_454
O8 Ti0 2.003741 1_554
O9 Ti0 1.919974 1_564
O9 Ti0 2.003741 1_554
