# generated using pymatgen
data_CsNb2PSe10
_symmetry_space_group_name_H-M   'P 1'
_cell_length_a   8.11103300
_cell_length_b   13.79469500
_cell_length_c   15.15904363
_cell_angle_alpha   81.77914267
_cell_angle_beta   90.00000000
_cell_angle_gamma   90.00000000
_symmetry_Int_Tables_number   1
_chemical_formula_structural   CsNb2PSe10
_chemical_formula_sum   'Cs4 Nb8 P4 Se40'
_cell_volume   1678.70460899
_cell_formula_units_Z   4
loop_
 _symmetry_equiv_pos_site_id
 _symmetry_equiv_pos_as_xyz
  1  'x, y, z'
loop_
 _atom_site_type_symbol
 _atom_site_label
 _atom_site_symmetry_multiplicity
 _atom_site_fract_x
 _atom_site_fract_y
 _atom_site_fract_z
 _atom_site_occupancy
  Cs  Cs0  1  0.50625200  0.45042800  0.40703000  1
  Cs  Cs1  1  0.49374800  0.95042800  0.40703000  1
  Cs  Cs2  1  0.52793500  0.20635900  0.90914900  1
  Cs  Cs3  1  0.47206500  0.70635900  0.90914900  1
  Nb  Nb0  1  0.06673300  0.05857300  0.13495700  1
  Nb  Nb1  1  0.93326700  0.55857300  0.13495700  1
  Nb  Nb2  1  0.05918400  0.81810400  0.63210100  1
  Nb  Nb3  1  0.94081600  0.31810400  0.63210100  1
  Nb  Nb4  1  0.06267700  0.11244300  0.62770000  1
  Nb  Nb5  1  0.93732300  0.61244300  0.62770000  1
  Nb  Nb6  1  0.05556200  0.35287900  0.13116800  1
  Nb  Nb7  1  0.94443800  0.85287900  0.13116800  1
  P  P0  1  0.59349000  0.45720600  0.70261700  1
  P  P1  1  0.40651000  0.95720600  0.70261700  1
  P  P2  1  0.40620200  0.20302500  0.20448900  1
  P  P3  1  0.59379800  0.70302500  0.20448900  1
  Se  Se0  1  0.15316300  0.22864800  0.74900200  1
  Se  Se1  1  0.84683700  0.72864800  0.74900200  1
  Se  Se2  1  0.14212200  0.46916900  0.25230100  1
  Se  Se3  1  0.85787800  0.96916900  0.25230100  1
  Se  Se4  1  0.15772100  0.95011900  0.01286100  1
  Se  Se5  1  0.84227900  0.45011900  0.01286100  1
  Se  Se6  1  0.39666300  0.09482700  0.60413900  1
  Se  Se7  1  0.60333700  0.59482700  0.60413900  1
  Se  Se8  1  0.39173300  0.34152600  0.10730200  1
  Se  Se9  1  0.60826700  0.84152600  0.10730200  1
  Se  Se10  1  0.05997000  0.98519500  0.50642100  1
  Se  Se11  1  0.94003000  0.48519500  0.50642100  1
  Se  Se12  1  0.06069200  0.22614500  0.00944200  1
  Se  Se13  1  0.93930800  0.72614500  0.00944200  1
  Se  Se14  1  0.14058300  0.71249600  0.50578500  1
  Se  Se15  1  0.85941700  0.21249600  0.50578500  1
  Se  Se16  1  0.16300500  0.46938100  0.60837300  1
  Se  Se17  1  0.83699500  0.96938100  0.60837300  1
  Se  Se18  1  0.16212400  0.70614700  0.11169200  1
  Se  Se19  1  0.83787600  0.20614700  0.11169200  1
  Se  Se20  1  0.13499600  0.26124800  0.50400200  1
  Se  Se21  1  0.86500400  0.76124800  0.50400200  1
  Se  Se22  1  0.11781400  0.49920300  0.00353500  1
  Se  Se23  1  0.88218600  0.99920300  0.00353500  1
  Se  Se24  1  0.59489300  0.32062700  0.63855500  1
  Se  Se25  1  0.40510700  0.82062700  0.63855500  1
  Se  Se26  1  0.40989700  0.06769400  0.13889400  1
  Se  Se27  1  0.59010300  0.56769400  0.13889400  1
  Se  Se28  1  0.14311300  0.19036800  0.25585200  1
  Se  Se29  1  0.85688700  0.69036800  0.25585200  1
  Se  Se30  1  0.14191900  0.94903200  0.75266100  1
  Se  Se31  1  0.85808100  0.44903200  0.75266100  1
  Se  Se32  1  0.11537200  0.66335100  0.75903400  1
  Se  Se33  1  0.88462800  0.16335100  0.75903400  1
  Se  Se34  1  0.12564000  0.90213200  0.26248700  1
  Se  Se35  1  0.87436000  0.40213200  0.26248700  1
  Se  Se36  1  0.39793500  0.45848800  0.80047000  1
  Se  Se37  1  0.60206500  0.95848700  0.80047000  1
  Se  Se38  1  0.60230800  0.20553600  0.30209900  1
  Se  Se39  1  0.39769200  0.70553600  0.30209900  1
loop_
_geom_bond_atom_site_label_1
_geom_bond_atom_site_label_2
_geom_bond_distance
_geom_bond_site_symmetry_2
Cs0 Se39 3.753534 1_555
Cs0 Se2 3.757391 1_555
Cs0 Se24 3.774100 1_555
Cs0 Se35 3.817986 1_555
Cs0 Se11 3.884041 1_555
Cs0 Se7 3.901035 1_555
Cs0 Se38 4.010764 1_555
Cs0 Se20 4.116067 1_555
Cs0 Se16 4.166946 1_555
Cs0 Se27 4.209589 1_555
Cs1 Se38 3.753534 1_565
Cs1 Se3 3.757391 1_555
Cs1 Se25 3.774100 1_555
Cs1 Se34 3.817986 1_555
Cs1 Se10 3.884041 1_555
Cs1 Se6 3.901035 1_565
Cs1 Se39 4.010764 1_555
Cs1 Se21 4.116067 1_555
Cs1 Se17 4.166946 1_555
Cs1 Se26 4.209589 1_565
Cs2 Se36 3.779434 1_555
Cs2 Se33 3.779780 1_555
Cs2 Se26 3.847043 1_556
Cs2 Se0 3.874918 1_555
Cs2 Se8 3.914299 1_556
Cs2 Se19 3.967927 1_556
Cs2 Se37 4.047024 1_545
Cs2 Se12 4.106992 1_556
Cs2 Se23 4.159348 1_546
Cs2 Se24 4.213848 1_555
Cs3 Se37 3.779422 1_555
Cs3 Se32 3.779780 1_555
Cs3 Se27 3.847043 1_556
Cs3 Se1 3.874918 1_555
Cs3 Se9 3.914299 1_556
Cs3 Se18 3.967927 1_556
Cs3 Se36 4.047012 1_555
Cs3 Se13 4.106992 1_556
Cs3 Se22 4.159348 1_556
Cs3 Se25 4.213848 1_555
Nb0 Se3 2.632032 1_445
Nb0 Se4 2.645847 1_545
Nb0 Se23 2.710526 1_445
Nb0 Se34 2.725761 1_545
Nb0 Se19 2.740259 1_455
Nb0 Se12 2.776388 1_555
Nb0 Se26 2.787281 1_555
Nb0 Se28 2.828543 1_555
Nb1 Se2 2.632032 1_655
Nb1 Se5 2.645847 1_555
Nb1 Se22 2.710526 1_655
Nb1 Se35 2.725761 1_555
Nb1 Se18 2.740259 1_655
Nb1 Se13 2.776388 1_555
Nb1 Se27 2.787281 1_555
Nb1 Se29 2.828543 1_555
Nb2 Se1 2.646561 1_455
Nb2 Se14 2.650017 1_555
Nb2 Se32 2.700503 1_555
Nb2 Se21 2.702246 1_455
Nb2 Se17 2.741787 1_455
Nb2 Se10 2.772512 1_555
Nb2 Se25 2.807887 1_555
Nb2 Se30 2.827783 1_555
Nb3 Se0 2.646561 1_655
Nb3 Se15 2.650017 1_555
Nb3 Se33 2.700503 1_555
Nb3 Se20 2.702246 1_655
Nb3 Se16 2.741787 1_655
Nb3 Se11 2.772512 1_555
Nb3 Se24 2.807887 1_555
Nb3 Se31 2.827783 1_555
Nb4 Se33 2.634821 1_455
Nb4 Se20 2.640668 1_555
Nb4 Se15 2.703527 1_455
Nb4 Se0 2.707867 1_555
Nb4 Se10 2.717464 1_545
Nb4 Se17 2.738003 1_445
Nb4 Se6 2.747720 1_555
Nb4 Se30 2.803876 1_545
Nb5 Se32 2.634821 1_655
Nb5 Se21 2.640668 1_555
Nb5 Se14 2.703527 1_655
Nb5 Se1 2.707867 1_555
Nb5 Se11 2.717464 1_555
Nb5 Se16 2.738003 1_655
Nb5 Se7 2.747720 1_555
Nb5 Se31 2.803876 1_555
Nb6 Se22 2.637395 1_555
Nb6 Se35 2.640324 1_455
Nb6 Se2 2.698259 1_555
Nb6 Se5 2.705631 1_455
Nb6 Se12 2.717653 1_555
Nb6 Se19 2.733622 1_455
Nb6 Se8 2.757985 1_555
Nb6 Se28 2.809021 1_555
Nb7 Se23 2.637395 1_555
Nb7 Se34 2.640324 1_655
Nb7 Se3 2.698259 1_555
Nb7 Se4 2.705631 1_655
Nb7 Se13 2.717653 1_555
Nb7 Se18 2.733622 1_655
Nb7 Se9 2.757985 1_555
Nb7 Se29 2.809021 1_555
P0 Se36 2.173487 1_555
P0 Se24 2.239675 1_555
P0 Se7 2.242437 1_555
P0 Se31 2.273659 1_555
P1 Se37 2.173486 1_555
P1 Se25 2.239675 1_555
P1 Se6 2.242437 1_565
P1 Se30 2.273659 1_555
P2 Se38 2.176091 1_555
P2 Se26 2.237329 1_555
P2 Se8 2.242681 1_555
P2 Se28 2.269687 1_555
P3 Se39 2.176091 1_555
P3 Se27 2.237329 1_555
P3 Se9 2.242681 1_555
P3 Se29 2.269687 1_555
Se0 Se33 2.353595 1_455
Se1 Se32 2.353595 1_655
Se2 Se35 2.356907 1_455
Se3 Se34 2.356907 1_655
Se10 Se17 2.368672 1_455
Se11 Se16 2.368672 1_655
Se12 Se19 2.371197 1_455
Se13 Se18 2.371197 1_655
Se14 Se21 2.333253 1_455
Se15 Se20 2.333253 1_655
Se22 Se5 2.333610 1_455
Se23 Se4 2.333610 1_655
