# generated using pymatgen
data_HC12N3F10
_symmetry_space_group_name_H-M   'P 1'
_cell_length_a   10.41658100
_cell_length_b   10.33185900
_cell_length_c   13.12829426
_cell_angle_alpha   86.03163256
_cell_angle_beta   90.00000000
_cell_angle_gamma   90.00000000
_symmetry_Int_Tables_number   1
_chemical_formula_structural   HC12N3F10
_chemical_formula_sum   'H4 C48 N12 F40'
_cell_volume   1409.51420936
_cell_formula_units_Z   4
loop_
 _symmetry_equiv_pos_site_id
 _symmetry_equiv_pos_as_xyz
  1  'x, y, z'
loop_
 _atom_site_type_symbol
 _atom_site_label
 _atom_site_symmetry_multiplicity
 _atom_site_fract_x
 _atom_site_fract_y
 _atom_site_fract_z
 _atom_site_occupancy
  H  H0  1  0.94737700  0.48270300  0.09276100  1
  H  H1  1  0.05262300  0.51729700  0.90723900  1
  H  H2  1  0.44737700  0.51729700  0.40723900  1
  H  H3  1  0.55262300  0.48270300  0.59276100  1
  C  C0  1  0.94940600  0.79427000  0.05971600  1
  C  C1  1  0.05059400  0.20573000  0.94028400  1
  C  C2  1  0.44940600  0.20573000  0.44028400  1
  C  C3  1  0.55059400  0.79427000  0.55971600  1
  C  C4  1  0.40323300  0.62941900  0.04619100  1
  C  C5  1  0.59676700  0.37058100  0.95380900  1
  C  C6  1  0.90323300  0.37058100  0.45380900  1
  C  C7  1  0.09676700  0.62941900  0.54619100  1
  C  C8  1  0.81903300  0.98852400  0.07696200  1
  C  C9  1  0.18096700  0.01147600  0.92303800  1
  C  C10  1  0.31903300  0.01147600  0.42303800  1
  C  C11  1  0.68096700  0.98852400  0.57696200  1
  C  C12  1  0.84144700  0.46550300  0.39098200  1
  C  C13  1  0.15855300  0.53449700  0.60901800  1
  C  C14  1  0.34144700  0.53449700  0.10901800  1
  C  C15  1  0.65855300  0.46550300  0.89098200  1
  C  C16  1  0.48401300  0.71729000  0.09042100  1
  C  C17  1  0.51598700  0.28271000  0.90957900  1
  C  C18  1  0.98401300  0.28271000  0.40957900  1
  C  C19  1  0.01598700  0.71729000  0.59042100  1
  C  C20  1  0.85564900  0.99352400  0.17885900  1
  C  C21  1  0.14435100  0.00647600  0.82114100  1
  C  C22  1  0.35564900  0.00647600  0.32114100  1
  C  C23  1  0.64435100  0.99352400  0.67885900  1
  C  C24  1  0.50249900  0.71051400  0.19595800  1
  C  C25  1  0.49750100  0.28948600  0.80404200  1
  C  C26  1  0.00249900  0.28948600  0.30404200  1
  C  C27  1  0.99750100  0.71051400  0.69595800  1
  C  C28  1  0.93829000  0.38213500  0.23889800  1
  C  C29  1  0.06171000  0.61786500  0.76110200  1
  C  C30  1  0.43829000  0.61786500  0.26110200  1
  C  C31  1  0.56171000  0.38213500  0.73889800  1
  C  C32  1  0.94043100  0.90027200  0.22137100  1
  C  C33  1  0.05956900  0.09972800  0.77862900  1
  C  C34  1  0.44043100  0.09972800  0.27862900  1
  C  C35  1  0.55956900  0.90027200  0.72137100  1
  C  C36  1  0.98491300  0.80250300  0.16254800  1
  C  C37  1  0.01508700  0.19749700  0.83745200  1
  C  C38  1  0.48491300  0.19749700  0.33745200  1
  C  C39  1  0.51508700  0.80250300  0.66254800  1
  C  C40  1  0.86524900  0.89118800  0.01825500  1
  C  C41  1  0.13475100  0.10881200  0.98174500  1
  C  C42  1  0.36524900  0.10881200  0.48174500  1
  C  C43  1  0.63475100  0.89118800  0.51825500  1
  C  C44  1  0.85800300  0.46983000  0.28549200  1
  C  C45  1  0.14199700  0.53017000  0.71450800  1
  C  C46  1  0.35800300  0.53017000  0.21450800  1
  C  C47  1  0.64199700  0.46983000  0.78549200  1
  N  N0  1  0.95362400  0.39317800  0.13306100  1
  N  N1  1  0.04637600  0.60682200  0.86693900  1
  N  N2  1  0.45362400  0.60682200  0.36693900  1
  N  N3  1  0.54637600  0.39317800  0.63306100  1
  N  N4  1  0.98767200  0.28947600  0.08515200  1
  N  N5  1  0.01232800  0.71052400  0.91484800  1
  N  N6  1  0.48767200  0.71052400  0.41484800  1
  N  N7  1  0.51232800  0.28947600  0.58515200  1
  N  N8  1  0.99150000  0.68557600  0.01018500  1
  N  N9  1  0.00850000  0.31442400  0.98981500  1
  N  N10  1  0.49150000  0.31442400  0.48981500  1
  N  N11  1  0.50850000  0.68557600  0.51018500  1
  F  F0  1  0.76443100  0.55250900  0.43266900  1
  F  F1  1  0.23556900  0.44749100  0.56733100  1
  F  F2  1  0.26443100  0.44749100  0.06733100  1
  F  F3  1  0.73556900  0.55250900  0.93266900  1
  F  F4  1  0.30981700  0.91301400  0.26473400  1
  F  F5  1  0.69018300  0.08698600  0.73526600  1
  F  F6  1  0.80981700  0.08698600  0.23526600  1
  F  F7  1  0.19018300  0.91301400  0.76473400  1
  F  F8  1  0.23811400  0.92117900  0.46480600  1
  F  F9  1  0.76188600  0.07882100  0.53519400  1
  F  F10  1  0.73811400  0.07882100  0.03519400  1
  F  F11  1  0.26188600  0.92117900  0.96480600  1
  F  F12  1  0.79463700  0.56191800  0.22662900  1
  F  F13  1  0.20536300  0.43808200  0.77337100  1
  F  F14  1  0.29463700  0.43808200  0.27337100  1
  F  F15  1  0.70536300  0.56191800  0.72662900  1
  F  F16  1  0.97908800  0.90517100  0.31862500  1
  F  F17  1  0.02091200  0.09482900  0.68137500  1
  F  F18  1  0.47908800  0.09482900  0.18137500  1
  F  F19  1  0.52091200  0.90517100  0.81862500  1
  F  F20  1  0.58702600  0.79444900  0.23238000  1
  F  F21  1  0.41297400  0.20555100  0.76762000  1
  F  F22  1  0.08702600  0.20555100  0.26762000  1
  F  F23  1  0.91297400  0.79444900  0.73238000  1
  F  F24  1  0.56551100  0.28702600  0.29261500  1
  F  F25  1  0.43448900  0.71297400  0.70738500  1
  F  F26  1  0.06551100  0.71297400  0.20738500  1
  F  F27  1  0.93448900  0.28702600  0.79261500  1
  F  F28  1  0.61365700  0.36509600  0.05578900  1
  F  F29  1  0.38634300  0.63490400  0.94421100  1
  F  F30  1  0.11365700  0.63490400  0.44421100  1
  F  F31  1  0.88634300  0.36509600  0.55578900  1
  F  F32  1  0.54716100  0.80731000  0.03101100  1
  F  F33  1  0.45283900  0.19269000  0.96898900  1
  F  F34  1  0.04716100  0.19269000  0.46898900  1
  F  F35  1  0.95283900  0.80731000  0.53101100  1
  F  F36  1  0.67873800  0.89034500  0.42166200  1
  F  F37  1  0.32126200  0.10965500  0.57833800  1
  F  F38  1  0.17873800  0.10965500  0.07833800  1
  F  F39  1  0.82126200  0.89034500  0.92166200  1
loop_
_geom_bond_atom_site_label_1
_geom_bond_atom_site_label_2
_geom_bond_distance
_geom_bond_site_symmetry_2
H0 N0 1.035358 1_555
H1 N1 1.035358 1_555
H2 N2 1.035358 1_555
H3 N3 1.035358 1_555
C0 N8 1.406174 1_555
C0 C36 1.407995 1_555
C0 C40 1.411383 1_555
C1 N9 1.406174 1_555
C1 C37 1.407995 1_555
C1 C41 1.411383 1_555
C2 N10 1.406174 1_555
C2 C38 1.407995 1_555
C2 C42 1.411383 1_555
C3 N11 1.406174 1_555
C3 C39 1.407995 1_555
C3 C43 1.411383 1_555
C4 F29 1.347632 1_554
C5 F28 1.347632 1_556
C6 F31 1.347632 1_555
C7 F30 1.347632 1_555
C8 F10 1.345630 1_565
C9 F11 1.345630 1_545
C10 F8 1.345630 1_545
C11 F9 1.345630 1_565
C12 F0 1.348809 1_555
C13 F1 1.348809 1_555
C14 F2 1.348809 1_555
C15 F3 1.348809 1_555
C16 F32 1.343741 1_555
C17 F33 1.343741 1_555
C18 F34 1.343741 1_655
C19 F35 1.343741 1_455
C20 F6 1.344520 1_565
C21 F7 1.344520 1_545
C22 F4 1.344520 1_545
C23 F5 1.344520 1_565
C24 F20 1.346597 1_555
C24 C30 1.407747 1_555
C25 F21 1.346597 1_555
C25 C31 1.407747 1_555
C26 F22 1.346597 1_555
C26 C28 1.407747 1_455
C27 F23 1.346597 1_555
C27 C29 1.407747 1_655
C28 N0 1.395416 1_555
C28 C44 1.404010 1_555
C29 N1 1.395416 1_555
C29 C45 1.404010 1_555
C30 N2 1.395416 1_555
C30 C46 1.404010 1_555
C31 N3 1.395416 1_555
C31 C47 1.404010 1_555
C32 F16 1.343063 1_555
C33 F17 1.343063 1_555
C34 F18 1.343063 1_555
C35 F19 1.343063 1_555
C36 F26 1.353369 1_655
C37 F27 1.353369 1_455
C38 F24 1.353369 1_555
C39 F25 1.353369 1_555
C40 F39 1.348936 1_554
C41 F38 1.348936 1_556
C42 F37 1.348936 1_555
C43 F36 1.348936 1_555
C44 F12 1.355110 1_555
C45 F13 1.355110 1_555
C46 F14 1.355110 1_555
C47 F15 1.355110 1_555
N0 N4 1.327640 1_555
N1 N5 1.327640 1_555
N2 N6 1.327640 1_555
N3 N7 1.327640 1_555
N4 N9 1.278823 1_654
N5 N8 1.278823 1_456
N10 N7 1.278823 1_555
N11 N6 1.278823 1_555
