# generated using pymatgen
data_Ca4SiP4
_symmetry_space_group_name_H-M   'P 1'
_cell_length_a   11.87052873
_cell_length_b   11.87052873
_cell_length_c   11.87052873
_cell_angle_alpha   90.00000000
_cell_angle_beta   90.00000000
_cell_angle_gamma   90.00000000
_symmetry_Int_Tables_number   1
_chemical_formula_structural   Ca4SiP4
_chemical_formula_sum   'Ca32 Si8 P32'
_cell_volume   1672.66970221
_cell_formula_units_Z   8
loop_
 _symmetry_equiv_pos_site_id
 _symmetry_equiv_pos_as_xyz
  1  'x, y, z'
loop_
 _atom_site_type_symbol
 _atom_site_label
 _atom_site_symmetry_multiplicity
 _atom_site_fract_x
 _atom_site_fract_y
 _atom_site_fract_z
 _atom_site_occupancy
  Ca  Ca0  1  0.35437045  0.35437045  0.35437045  1
  Ca  Ca1  1  0.64562955  0.64562955  0.35437045  1
  Ca  Ca2  1  0.64562955  0.35437045  0.64562955  1
  Ca  Ca3  1  0.85437045  0.85437045  0.85437045  1
  Ca  Ca4  1  0.35437045  0.64562955  0.64562955  1
  Ca  Ca5  1  0.14562955  0.14562955  0.85437045  1
  Ca  Ca6  1  0.85437045  0.14562955  0.14562955  1
  Ca  Ca7  1  0.14562955  0.85437045  0.14562955  1
  Ca  Ca8  1  0.09545026  0.13341167  0.35482929  1
  Ca  Ca9  1  0.90454974  0.86658833  0.35482929  1
  Ca  Ca10  1  0.90454974  0.13341167  0.64517071  1
  Ca  Ca11  1  0.35482929  0.09545026  0.13341167  1
  Ca  Ca12  1  0.63341167  0.59545026  0.85482929  1
  Ca  Ca13  1  0.09545026  0.86658833  0.64517071  1
  Ca  Ca14  1  0.35482929  0.90454974  0.86658833  1
  Ca  Ca15  1  0.36658833  0.40454974  0.85482929  1
  Ca  Ca16  1  0.64517071  0.90454974  0.13341167  1
  Ca  Ca17  1  0.63341167  0.40454974  0.14517071  1
  Ca  Ca18  1  0.64517071  0.09545026  0.86658833  1
  Ca  Ca19  1  0.36658833  0.59545026  0.14517071  1
  Ca  Ca20  1  0.13341167  0.35482929  0.09545026  1
  Ca  Ca21  1  0.59545026  0.85482929  0.63341167  1
  Ca  Ca22  1  0.13341167  0.64517071  0.90454974  1
  Ca  Ca23  1  0.40454974  0.14517071  0.63341167  1
  Ca  Ca24  1  0.86658833  0.64517071  0.09545026  1
  Ca  Ca25  1  0.59545026  0.14517071  0.36658833  1
  Ca  Ca26  1  0.86658833  0.35482929  0.90454974  1
  Ca  Ca27  1  0.40454974  0.85482929  0.36658833  1
  Ca  Ca28  1  0.85482929  0.63341167  0.59545026  1
  Ca  Ca29  1  0.85482929  0.36658833  0.40454974  1
  Ca  Ca30  1  0.14517071  0.36658833  0.59545026  1
  Ca  Ca31  1  0.14517071  0.63341167  0.40454974  1
  Si  Si0  1  0.25000000  -0.00000000  0.50000000  1
  Si  Si1  1  0.75000000  -0.00000000  0.50000000  1
  Si  Si2  1  0.50000000  0.25000000  -0.00000000  1
  Si  Si3  1  0.50000000  0.75000000  -0.00000000  1
  Si  Si4  1  0.00000000  0.50000000  0.25000000  1
  Si  Si5  1  0.00000000  0.50000000  0.75000000  1
  Si  Si6  1  0.00000000  -0.00000000  -0.00000000  1
  Si  Si7  1  0.50000000  0.50000000  0.50000000  1
  P  P0  1  0.10743290  0.38212299  0.35322123  1
  P  P1  1  0.89256710  0.61787701  0.35322123  1
  P  P2  1  0.89256710  0.38212299  0.64677877  1
  P  P3  1  0.35322123  0.10743290  0.38212299  1
  P  P4  1  0.88212299  0.60743290  0.85322123  1
  P  P5  1  0.10743290  0.61787701  0.64677877  1
  P  P6  1  0.35322123  0.89256710  0.61787701  1
  P  P7  1  0.11787701  0.39256710  0.85322123  1
  P  P8  1  0.64677877  0.89256710  0.38212299  1
  P  P9  1  0.88212299  0.39256710  0.14677877  1
  P  P10  1  0.64677877  0.10743290  0.61787701  1
  P  P11  1  0.11787701  0.60743290  0.14677877  1
  P  P12  1  0.38212299  0.35322123  0.10743290  1
  P  P13  1  0.60743290  0.85322123  0.88212299  1
  P  P14  1  0.38212299  0.64677877  0.89256710  1
  P  P15  1  0.39256710  0.14677877  0.88212299  1
  P  P16  1  0.61787701  0.64677877  0.10743290  1
  P  P17  1  0.60743290  0.14677877  0.11787701  1
  P  P18  1  0.61787701  0.35322123  0.89256710  1
  P  P19  1  0.39256710  0.85322123  0.11787701  1
  P  P20  1  0.85322123  0.88212299  0.60743290  1
  P  P21  1  0.85322123  0.11787701  0.39256710  1
  P  P22  1  0.14677877  0.11787701  0.60743290  1
  P  P23  1  0.14677877  0.88212299  0.39256710  1
  P  P24  1  0.10928938  0.10928938  0.10928938  1
  P  P25  1  0.89071062  0.89071062  0.10928938  1
  P  P26  1  0.89071062  0.10928938  0.89071062  1
  P  P27  1  0.60928938  0.60928938  0.60928938  1
  P  P28  1  0.10928938  0.89071062  0.89071062  1
  P  P29  1  0.39071062  0.39071062  0.60928938  1
  P  P30  1  0.60928938  0.39071062  0.39071062  1
  P  P31  1  0.39071062  0.60928938  0.39071062  1
loop_
_geom_bond_atom_site_label_1
_geom_bond_atom_site_label_2
_geom_bond_distance
_geom_bond_site_symmetry_2
Ca0 P3 2.949765 1_555
Ca0 P12 2.949765 1_555
Ca0 P0 2.949765 1_555
Ca0 Si7 2.994196 1_555
Ca0 P30 3.086905 1_555
Ca0 P31 3.086905 1_555
Ca0 P29 3.086905 1_555
Ca1 P1 2.949765 1_555
Ca1 P8 2.949765 1_555
Ca1 P16 2.949765 1_555
Ca1 Si7 2.994196 1_555
Ca1 P31 3.086905 1_555
Ca1 P30 3.086905 1_555
Ca1 P27 3.086905 1_555
Ca2 P18 2.949765 1_555
Ca2 P2 2.949765 1_555
Ca2 P10 2.949765 1_555
Ca2 Si7 2.994196 1_555
Ca2 P29 3.086905 1_555
Ca2 P30 3.086905 1_555
Ca2 P27 3.086905 1_555
Ca3 P4 2.949765 1_555
Ca3 P13 2.949765 1_555
Ca3 P20 2.949765 1_555
Ca3 Si6 2.994196 1_666
Ca3 P28 3.086905 1_655
Ca3 P25 3.086905 1_556
Ca3 P26 3.086905 1_565
Ca4 P6 2.949765 1_555
Ca4 P14 2.949765 1_555
Ca4 P5 2.949765 1_555
Ca4 Si7 2.994196 1_555
Ca4 P27 3.086905 1_555
Ca4 P31 3.086905 1_555
Ca4 P29 3.086905 1_555
Ca5 P7 2.949765 1_555
Ca5 P15 2.949765 1_555
Ca5 P22 2.949765 1_555
Ca5 Si6 2.994196 1_556
Ca5 P26 3.086905 1_455
Ca5 P28 3.086905 1_545
Ca5 P24 3.086905 1_556
Ca6 P9 2.949765 1_555
Ca6 P21 2.949765 1_555
Ca6 P17 2.949765 1_555
Ca6 Si6 2.994196 1_655
Ca6 P26 3.086905 1_554
Ca6 P25 3.086905 1_545
Ca6 P24 3.086905 1_655
Ca7 P19 2.949765 1_555
Ca7 P23 2.949765 1_555
Ca7 P11 2.949765 1_555
Ca7 Si6 2.994196 1_565
Ca7 P25 3.086905 1_455
Ca7 P28 3.086905 1_554
Ca7 P24 3.086905 1_565
Ca8 P21 2.915910 1_455
Ca8 P24 2.933324 1_555
Ca8 P0 2.955821 1_555
Ca8 Si0 2.973771 1_555
Ca8 P22 3.065368 1_555
Ca8 P23 3.077302 1_545
Ca8 P3 3.092397 1_555
Ca9 P23 2.915910 1_655
Ca9 P25 2.933324 1_555
Ca9 P1 2.955821 1_555
Ca9 Si1 2.973771 1_565
Ca9 P20 3.065368 1_555
Ca9 P21 3.077302 1_565
Ca9 P8 3.092397 1_555
Ca10 P22 2.915910 1_655
Ca10 P26 2.933324 1_555
Ca10 P2 2.955821 1_555
Ca10 Si1 2.973771 1_555
Ca10 P21 3.065368 1_555
Ca10 P20 3.077302 1_545
Ca10 P10 3.092397 1_555
Ca11 P19 2.915910 1_545
Ca11 P24 2.933324 1_555
Ca11 P3 2.955821 1_555
Ca11 Si2 2.973771 1_555
Ca11 P17 3.065368 1_555
Ca11 P15 3.077302 1_554
Ca11 P12 3.092397 1_555
Ca12 P18 2.915910 1_555
Ca12 P27 2.933324 1_555
Ca12 P4 2.955821 1_555
Ca12 Si3 2.973771 1_556
Ca12 P16 3.065368 1_556
Ca12 P14 3.077302 1_555
Ca12 P13 3.092397 1_555
Ca13 P20 2.915910 1_455
Ca13 P28 2.933324 1_555
Ca13 P5 2.955821 1_555
Ca13 Si0 2.973771 1_565
Ca13 P23 3.065368 1_555
Ca13 P22 3.077302 1_565
Ca13 P6 3.092397 1_555
Ca14 P15 2.915910 1_565
Ca14 P28 2.933324 1_555
Ca14 P6 2.955821 1_555
Ca14 Si3 2.973771 1_556
Ca14 P13 3.065368 1_555
Ca14 P19 3.077302 1_556
Ca14 P14 3.092397 1_555
Ca15 P14 2.915910 1_555
Ca15 P29 2.933324 1_555
Ca15 P7 2.955821 1_555
Ca15 Si2 2.973771 1_556
Ca15 P12 3.065368 1_556
Ca15 P18 3.077302 1_555
Ca15 P15 3.092397 1_555
Ca16 P17 2.915910 1_565
Ca16 P25 2.933324 1_555
Ca16 P8 2.955821 1_555
Ca16 Si3 2.973771 1_555
Ca16 P19 3.065368 1_555
Ca16 P13 3.077302 1_554
Ca16 P16 3.092397 1_555
Ca17 P16 2.915910 1_555
Ca17 P30 2.933324 1_555
Ca17 P9 2.955821 1_555
Ca17 Si2 2.973771 1_555
Ca17 P18 3.065368 1_554
Ca17 P12 3.077302 1_555
Ca17 P17 3.092397 1_555
Ca18 P13 2.915910 1_545
Ca18 P26 2.933324 1_555
Ca18 P10 2.955821 1_555
Ca18 Si2 2.973771 1_556
Ca18 P15 3.065368 1_555
Ca18 P17 3.077302 1_556
Ca18 P18 3.092397 1_555
Ca19 P12 2.915910 1_555
Ca19 P31 2.933324 1_555
Ca19 P11 2.955821 1_555
Ca19 Si3 2.973771 1_555
Ca19 P14 3.065368 1_554
Ca19 P16 3.077302 1_555
Ca19 P19 3.092397 1_555
Ca20 P7 2.915910 1_554
Ca20 P24 2.933324 1_555
Ca20 P12 2.955821 1_555
Ca20 Si4 2.973771 1_555
Ca20 P11 3.065368 1_555
Ca20 P9 3.077302 1_455
Ca20 P0 3.092397 1_555
Ca21 P6 2.915910 1_555
Ca21 P27 2.933324 1_555
Ca21 P13 2.955821 1_555
Ca21 Si1 2.973771 1_565
Ca21 P10 3.065368 1_565
Ca21 P8 3.077302 1_555
Ca21 P20 3.092397 1_555
Ca22 P11 2.915910 1_556
Ca22 P28 2.933324 1_555
Ca22 P14 2.955821 1_555
Ca22 Si5 2.973771 1_555
Ca22 P7 3.065368 1_555
Ca22 P4 3.077302 1_455
Ca22 P5 3.092397 1_555
Ca23 P10 2.915910 1_555
Ca23 P29 2.933324 1_555
Ca23 P15 2.955821 1_555
Ca23 Si0 2.973771 1_555
Ca23 P6 3.065368 1_545
Ca23 P3 3.077302 1_555
Ca23 P22 3.092397 1_555
Ca24 P4 2.915910 1_554
Ca24 P25 2.933324 1_555
Ca24 P16 2.955821 1_555
Ca24 Si4 2.973771 1_655
Ca24 P9 3.065368 1_555
Ca24 P11 3.077302 1_655
Ca24 P1 3.092397 1_555
Ca25 P3 2.915910 1_555
Ca25 P30 2.933324 1_555
Ca25 P17 2.955821 1_555
Ca25 Si1 2.973771 1_555
Ca25 P8 3.065368 1_545
Ca25 P10 3.077302 1_555
Ca25 P21 3.092397 1_555
Ca26 P9 2.915910 1_556
Ca26 P26 2.933324 1_555
Ca26 P18 2.955821 1_555
Ca26 Si5 2.973771 1_655
Ca26 P4 3.065368 1_555
Ca26 P7 3.077302 1_655
Ca26 P2 3.092397 1_555
Ca27 P8 2.915910 1_555
Ca27 P31 2.933324 1_555
Ca27 P19 2.955821 1_555
Ca27 Si0 2.973771 1_565
Ca27 P3 3.065368 1_565
Ca27 P6 3.077302 1_555
Ca27 P23 3.092397 1_555
Ca28 P1 2.915910 1_555
Ca28 P27 2.933324 1_555
Ca28 P20 2.955821 1_555
Ca28 Si5 2.973771 1_655
Ca28 P5 3.065368 1_655
Ca28 P2 3.077302 1_555
Ca28 P4 3.092397 1_555
Ca29 P2 2.915910 1_555
Ca29 P30 2.933324 1_555
Ca29 P21 2.955821 1_555
Ca29 Si4 2.973771 1_655
Ca29 P0 3.065368 1_655
Ca29 P1 3.077302 1_555
Ca29 P9 3.092397 1_555
Ca30 P0 2.915910 1_555
Ca30 P29 2.933324 1_555
Ca30 P22 2.955821 1_555
Ca30 Si5 2.973771 1_555
Ca30 P2 3.065368 1_455
Ca30 P5 3.077302 1_555
Ca30 P7 3.092397 1_555
Ca31 P5 2.915910 1_555
Ca31 P31 2.933324 1_555
Ca31 P23 2.955821 1_555
Ca31 Si4 2.973771 1_555
Ca31 P1 3.065368 1_455
Ca31 P0 3.077302 1_555
Ca31 P11 3.092397 1_555
P0 Si4 2.255133 1_555
P1 Si4 2.255133 1_655
P2 Si5 2.255133 1_655
P3 Si0 2.255133 1_555
P4 Si5 2.255133 1_655
P5 Si5 2.255133 1_555
P6 Si0 2.255133 1_565
P7 Si5 2.255133 1_555
P8 Si1 2.255133 1_565
P9 Si4 2.255133 1_655
P10 Si1 2.255133 1_555
P11 Si4 2.255133 1_555
P12 Si2 2.255133 1_555
P13 Si3 2.255133 1_556
P14 Si3 2.255133 1_556
P15 Si2 2.255133 1_556
P16 Si3 2.255133 1_555
P17 Si2 2.255133 1_555
P18 Si2 2.255133 1_556
P19 Si3 2.255133 1_555
P20 Si1 2.255133 1_565
P21 Si1 2.255133 1_555
P22 Si0 2.255133 1_555
P23 Si0 2.255133 1_565
P24 Si6 2.247029 1_555
P25 Si6 2.247029 1_665
P26 Si6 2.247029 1_656
P27 Si7 2.247029 1_555
P28 Si6 2.247029 1_566
P29 Si7 2.247029 1_555
P30 Si7 2.247029 1_555
P31 Si7 2.247029 1_555
