# generated using pymatgen
data_TmCu(BO2)5
_symmetry_space_group_name_H-M   'P 1'
_cell_length_a   8.27216141
_cell_length_b   8.27216141
_cell_length_c   8.27216141
_cell_angle_alpha   135.18797815
_cell_angle_beta   117.75476213
_cell_angle_gamma   79.91488533
_symmetry_Int_Tables_number   1
_chemical_formula_structural   TmCu(BO2)5
_chemical_formula_sum   'Tm2 Cu2 B10 O20'
_cell_volume   341.93186916
_cell_formula_units_Z   2
loop_
 _symmetry_equiv_pos_site_id
 _symmetry_equiv_pos_as_xyz
  1  'x, y, z'
loop_
 _atom_site_type_symbol
 _atom_site_label
 _atom_site_symmetry_multiplicity
 _atom_site_fract_x
 _atom_site_fract_y
 _atom_site_fract_z
 _atom_site_occupancy
  Tm  Tm0  1  0.25000000  0.75000000  0.50000000  1
  Tm  Tm1  1  0.75000000  0.25000000  0.50000000  1
  Cu  Cu0  1  0.00000000  0.50000000  0.50000000  1
  Cu  Cu1  1  0.50000000  0.00000000  0.50000000  1
  B  B0  1  0.09241700  0.78471000  0.07563400  1
  B  B1  1  0.25000000  0.25000000  0.00000000  1
  B  B2  1  0.75000000  0.75000000  0.00000000  1
  B  B3  1  0.29092300  0.98321700  0.07563400  1
  B  B4  1  0.90758300  0.21529000  0.92436600  1
  B  B5  1  0.70907700  0.01678300  0.92436600  1
  B  B6  1  0.59241700  0.51678300  0.30770700  1
  B  B7  1  0.20907700  0.28471000  0.69229300  1
  B  B8  1  0.40758300  0.48321700  0.69229300  1
  B  B9  1  0.79092300  0.71529000  0.30770700  1
  O  O0  1  0.45644100  0.05196200  0.28264100  1
  O  O1  1  0.26932200  0.55196200  0.59552100  1
  O  O2  1  0.95644100  0.67380000  0.40447900  1
  O  O3  1  0.76932200  0.17380000  0.71735900  1
  O  O4  1  0.23067800  0.82620000  0.28264100  1
  O  O5  1  0.54355900  0.94803800  0.71735900  1
  O  O6  1  0.73067800  0.44803800  0.40447900  1
  O  O7  1  0.04355900  0.32620000  0.59552100  1
  O  O8  1  0.90803500  0.66423100  0.94428100  1
  O  O9  1  0.71994900  0.96375400  0.05571900  1
  O  O10  1  0.40803500  0.46375400  0.24380500  1
  O  O11  1  0.21994900  0.16423100  0.75619500  1
  O  O12  1  0.37389600  0.35224300  0.72613900  1
  O  O13  1  0.62610400  0.64775700  0.27386100  1
  O  O14  1  0.87389600  0.14775700  0.02165400  1
  O  O15  1  0.12610400  0.85224300  0.97834600  1
  O  O16  1  0.59196500  0.53624600  0.75619500  1
  O  O17  1  0.78005100  0.83576900  0.24380500  1
  O  O18  1  0.09196500  0.33576900  0.05571900  1
  O  O19  1  0.28005100  0.03624600  0.94428100  1
loop_
_geom_bond_atom_site_label_1
_geom_bond_atom_site_label_2
_geom_bond_distance
_geom_bond_site_symmetry_2
Cu0 O7 1.996600 1_555
Cu0 O2 1.996600 1_455
Cu0 O1 1.996608 1_555
Cu0 O6 1.996608 1_455
Cu0 O15 2.469208 1_555
Cu0 O14 2.469208 1_455
Cu1 O0 1.996600 1_555
Cu1 O5 1.996600 1_545
Cu1 O3 1.996607 1_555
Cu1 O4 1.996607 1_545
Cu1 O12 2.469213 1_555
Cu1 O13 2.469213 1_545
B0 O4 1.355612 1_555
B0 O15 1.392372 1_554
B0 O8 1.397350 1_454
B1 O18 1.482301 1_555
B1 O19 1.482301 1_554
B1 O10 1.482301 1_555
B1 O11 1.482305 1_554
B2 O8 1.482301 1_554
B2 O9 1.482301 1_555
B2 O16 1.482301 1_554
B2 O17 1.482305 1_555
B3 O0 1.355619 1_565
B3 O15 1.392353 1_554
B3 O19 1.397356 1_564
B4 O3 1.355612 1_555
B4 O14 1.392372 1_556
B4 O18 1.397350 1_656
B5 O5 1.355619 1_545
B5 O14 1.392353 1_556
B5 O9 1.397356 1_546
B6 O6 1.355610 1_555
B6 O13 1.392364 1_555
B6 O10 1.397353 1_555
B7 O7 1.355620 1_555
B7 O12 1.392356 1_555
B7 O11 1.397347 1_555
B8 O1 1.355610 1_555
B8 O12 1.392364 1_555
B8 O16 1.397353 1_555
B9 O2 1.355620 1_555
B9 O13 1.392356 1_555
B9 O17 1.397347 1_555
O0 Tm1 2.227312 1_555
O1 Tm0 2.227310 1_555
O2 Tm0 2.227312 1_655
O3 Tm1 2.227309 1_555
O4 Tm0 2.227309 1_555
O5 Tm0 2.227312 1_555
O6 Tm1 2.227310 1_555
O7 Tm1 2.227312 1_455
O8 Tm1 2.486656 1_555
O9 Tm1 2.486653 1_565
O10 Tm0 2.486653 1_555
O11 Tm0 2.486659 1_545
O16 Tm1 2.486653 1_555
O17 Tm1 2.486659 1_565
O18 Tm0 2.486656 1_555
O19 Tm0 2.486653 1_545
