# generated using pymatgen
data_CaGaCu
_symmetry_space_group_name_H-M   'P 1'
_cell_length_a   5.49320026
_cell_length_b   5.49320026
_cell_length_c   7.20549423
_cell_angle_alpha   51.45179703
_cell_angle_beta   51.45179703
_cell_angle_gamma   47.47189227
_symmetry_Int_Tables_number   1
_chemical_formula_structural   CaGaCu
_chemical_formula_sum   'Ca2 Ga2 Cu2'
_cell_volume   117.37154375
_cell_formula_units_Z   2
loop_
 _symmetry_equiv_pos_site_id
 _symmetry_equiv_pos_as_xyz
  1  'x, y, z'
loop_
 _atom_site_type_symbol
 _atom_site_label
 _atom_site_symmetry_multiplicity
 _atom_site_fract_x
 _atom_site_fract_y
 _atom_site_fract_z
 _atom_site_occupancy
  Ca  Ca0  1  0.55576784  0.55576784  0.69053688  1
  Ca  Ca1  1  0.44423216  0.44423216  0.30946312  1
  Ga  Ga0  1  0.82967694  0.82967694  0.10329549  1
  Ga  Ga1  1  0.17032306  0.17032306  0.89670451  1
  Cu  Cu0  1  0.16414072  0.16414072  0.26726044  1
  Cu  Cu1  1  0.83585928  0.83585928  0.73273956  1
loop_
_geom_bond_atom_site_label_1
_geom_bond_atom_site_label_2
_geom_bond_distance
_geom_bond_site_symmetry_2
Ca0 Cu1 2.992865 1_545
Ca0 Cu1 2.992865 1_455
Ca0 Cu1 3.032103 1_555
Ca0 Ga1 3.064832 1_555
Ca0 Ga0 3.102062 1_555
Ca0 Ga0 3.114062 1_546
Ca0 Ga0 3.114062 1_456
Ca0 Cu0 3.239953 1_556
Ca0 Ga1 3.279246 1_655
Ca0 Ga1 3.279246 1_565
Ca0 Cu0 3.294411 1_655
Ca0 Cu0 3.294411 1_565
Ca0 Ca1 3.604352 1_555
Ca0 Ca1 3.617498 1_655
Ca0 Ca1 3.617498 1_565
Ca0 Ca1 3.786280 1_556
Ca1 Cu0 2.992865 1_565
Ca1 Cu0 2.992865 1_655
Ca1 Cu0 3.032103 1_555
Ca1 Ga0 3.064832 1_555
Ca1 Ga1 3.102062 1_555
Ca1 Ga1 3.114062 1_654
Ca1 Ga1 3.114062 1_564
Ca1 Cu1 3.239953 1_554
Ca1 Ga0 3.279246 1_545
Ca1 Ga0 3.279246 1_455
Ca1 Cu1 3.294411 1_545
Ca1 Cu1 3.294411 1_455
Ga0 Ga1 2.647505 1_664
Cu0 Ga0 2.525585 1_545
Cu0 Ga0 2.525585 1_455
Cu0 Ga1 2.628106 1_554
Cu0 Cu1 2.659502 1_445
Cu1 Ga1 2.525585 1_565
Cu1 Ga1 2.525585 1_655
Cu1 Ga0 2.628106 1_556
