# generated using pymatgen
data_Sc6Al16Pd7
_symmetry_space_group_name_H-M   'P 1'
_cell_length_a   8.77660378
_cell_length_b   8.77649226
_cell_length_c   8.77640873
_cell_angle_alpha   60.00133614
_cell_angle_beta   60.00065294
_cell_angle_gamma   59.99873094
_symmetry_Int_Tables_number   1
_chemical_formula_structural   Sc6Al16Pd7
_chemical_formula_sum   'Sc6 Al16 Pd7'
_cell_volume   478.02616922
_cell_formula_units_Z   1
loop_
 _symmetry_equiv_pos_site_id
 _symmetry_equiv_pos_as_xyz
  1  'x, y, z'
loop_
 _atom_site_type_symbol
 _atom_site_label
 _atom_site_symmetry_multiplicity
 _atom_site_fract_x
 _atom_site_fract_y
 _atom_site_fract_z
 _atom_site_occupancy
  Sc  Sc0  1  0.69197756  0.69197391  0.30802378  1
  Sc  Sc1  1  0.30802835  0.69197159  0.30802753  1
  Sc  Sc2  1  0.69197960  0.30802189  0.30802379  1
  Sc  Sc3  1  0.30802841  0.30802446  0.69197390  1
  Sc  Sc4  1  0.69197767  0.30802071  0.69197652  1
  Sc  Sc5  1  0.30802664  0.69197244  0.69197452  1
  Al  Al0  1  0.87957846  0.87957456  0.36126922  1
  Al  Al1  1  0.87957798  0.36126558  0.87957897  1
  Al  Al2  1  0.36126983  0.87957408  0.87957884  1
  Al  Al3  1  0.87957888  0.87957490  0.87957921  1
  Al  Al4  1  0.12042394  0.12041981  0.63873304  1
  Al  Al5  1  0.12042348  0.63872933  0.12042427  1
  Al  Al6  1  0.63873385  0.12041960  0.12042437  1
  Al  Al7  1  0.12042385  0.12041971  0.12042441  1
  Al  Al8  1  0.66635447  0.66634719  0.00095070  1
  Al  Al9  1  0.66635560  0.00094350  0.66635167  1
  Al  Al10  1  0.00095523  0.66634717  0.66634958  1
  Al  Al11  1  0.66635552  0.66634793  0.66635052  1
  Al  Al12  1  0.33365430  0.33364677  0.99905238  1
  Al  Al13  1  0.33365542  0.99904477  0.33365138  1
  Al  Al14  1  0.99905692  0.33364682  0.33364955  1
  Al  Al15  1  0.33365398  0.33364671  0.33364920  1
  Pd  Pd0  1  0.00000342  -0.00000083  0.00000115  1
  Pd  Pd1  1  0.00002044  -0.00002072  0.49999933  1
  Pd  Pd2  1  0.50002079  -0.00003942  0.49998576  1
  Pd  Pd3  1  -0.00006091  0.50006136  0.49993588  1
  Pd  Pd4  1  0.50000409  0.49999593  0.00000680  1
  Pd  Pd5  1  -0.00005295  0.50006592  0.00005639  1
  Pd  Pd6  1  0.49999619  0.00000235  0.99999734  1
loop_
_geom_bond_atom_site_label_1
_geom_bond_atom_site_label_2
_geom_bond_distance
_geom_bond_site_symmetry_2
Al0 Pd0 2.588861 1_665
Al0 Pd3 2.721153 1_655
Al0 Pd2 2.721495 1_565
Al0 Pd1 2.721614 1_665
Al0 Sc2 3.144789 1_565
Al0 Sc0 3.144839 1_555
Al0 Sc1 3.144847 1_655
Al1 Pd0 2.588823 1_656
Al1 Pd4 2.721608 1_556
Al1 Pd5 2.722131 1_656
Al1 Pd3 2.722132 1_655
Al1 Sc2 3.144806 1_556
Al1 Sc4 3.144816 1_555
Al1 Sc3 3.144892 1_655
Al2 Pd0 2.588839 1_566
Al2 Pd6 2.721594 1_565
Al2 Pd4 2.721623 1_556
Al2 Pd2 2.721765 1_565
Al2 Sc5 3.144810 1_555
Al2 Sc1 3.144852 1_556
Al2 Sc3 3.144872 1_565
Al3 Pd0 2.588856 1_666
Al3 Pd5 2.721120 1_656
Al3 Pd1 2.721662 1_665
Al3 Pd6 2.721678 1_565
Al3 Sc4 3.144806 1_565
Al3 Sc5 3.144822 1_655
Al3 Sc0 3.144857 1_556
Al4 Pd0 2.588861 1_556
Al4 Pd1 2.721622 1_555
Al4 Pd2 2.721780 1_555
Al4 Pd3 2.722095 1_555
Al4 Sc5 3.144796 1_545
Al4 Sc4 3.144817 1_455
Al4 Sc3 3.144869 1_555
Al5 Pd0 2.588848 1_565
Al5 Pd5 2.721112 1_555
Al5 Pd3 2.721169 1_555
Al5 Pd4 2.721656 1_555
Al5 Sc1 3.144841 1_555
Al5 Sc5 3.144844 1_554
Al5 Sc0 3.144853 1_455
Al6 Pd0 2.588861 1_655
Al6 Pd2 2.721531 1_555
Al6 Pd4 2.721609 1_555
Al6 Pd6 2.721659 1_554
Al6 Sc2 3.144793 1_555
Al6 Sc0 3.144833 1_545
Al6 Sc4 3.144842 1_554
Al7 Pd0 2.588809 1_555
Al7 Pd6 2.721603 1_554
Al7 Pd1 2.721626 1_555
Al7 Pd5 2.722126 1_555
Al7 Sc2 3.144792 1_455
Al7 Sc1 3.144826 1_545
Al7 Sc3 3.144904 1_554
Al8 Pd5 2.533268 1_655
Al8 Pd6 2.533563 1_564
Al8 Pd4 2.533578 1_555
Al8 Sc0 2.937162 1_555
Al8 Sc2 2.937245 1_555
Al8 Sc1 2.937254 1_555
Al9 Pd6 2.533546 1_555
Al9 Pd1 2.533690 1_655
Al9 Pd2 2.533733 1_555
Al9 Sc3 2.937209 1_555
Al9 Sc4 2.937214 1_555
Al9 Sc2 2.937284 1_555
Al10 Pd1 2.533500 1_565
Al10 Pd5 2.533860 1_556
Al10 Pd3 2.533868 1_555
Al10 Sc3 2.937153 1_555
Al10 Sc5 2.937214 1_555
Al10 Sc1 2.937223 1_555
Al11 Pd3 2.533214 1_655
Al11 Pd2 2.533368 1_565
Al11 Pd4 2.533661 1_556
Al11 Sc0 2.937209 1_555
Al11 Sc4 2.937236 1_555
Al11 Sc5 2.937287 1_555
Al12 Pd6 2.533502 1_555
Al12 Pd4 2.533611 1_556
Al12 Pd5 2.533864 1_556
Al12 Sc3 2.937201 1_555
Al12 Sc4 2.937237 1_555
Al12 Sc5 2.937265 1_555
Al13 Pd2 2.533384 1_565
Al13 Pd1 2.533538 1_565
Al13 Pd6 2.533569 1_564
Al13 Sc0 2.937146 1_555
Al13 Sc1 2.937199 1_555
Al13 Sc5 2.937238 1_555
Al14 Pd3 2.533197 1_655
Al14 Pd5 2.533293 1_655
Al14 Pd1 2.533697 1_655
Al14 Sc0 2.937198 1_555
Al14 Sc2 2.937268 1_555
Al14 Sc4 2.937270 1_555
Al15 Pd4 2.533580 1_555
Al15 Pd2 2.533751 1_555
Al15 Pd3 2.533883 1_555
Al15 Sc3 2.937192 1_555
Al15 Sc1 2.937219 1_555
Al15 Sc2 2.937252 1_555
Pd1 Sc1 3.185236 1_545
Pd1 Sc5 3.185289 1_545
Pd1 Sc4 3.185514 1_455
Pd1 Sc2 3.185550 1_455
Pd2 Sc0 3.185041 1_545
Pd2 Sc5 3.185345 1_545
Pd2 Sc2 3.185714 1_555
Pd2 Sc3 3.185724 1_555
Pd3 Sc0 3.184670 1_455
Pd3 Sc4 3.185364 1_455
Pd3 Sc1 3.185713 1_555
Pd3 Sc3 3.186209 1_555
Pd4 Sc1 3.185355 1_555
Pd4 Sc2 3.185377 1_555
Pd4 Sc4 3.185427 1_554
Pd4 Sc5 3.185499 1_554
Pd5 Sc0 3.184658 1_455
Pd5 Sc2 3.185431 1_455
Pd5 Sc5 3.185632 1_554
Pd5 Sc3 3.186130 1_554
Pd6 Sc3 3.185393 1_555
Pd6 Sc0 3.185483 1_546
Pd6 Sc4 3.185520 1_555
Pd6 Sc1 3.185545 1_546
