# generated using pymatgen
data_NaW(ClO)2
_symmetry_space_group_name_H-M   'P 1'
_cell_length_a   8.19846144
_cell_length_b   8.19846144
_cell_length_c   3.88466700
_cell_angle_alpha   90.00000000
_cell_angle_beta   90.00000000
_cell_angle_gamma   152.53403909
_symmetry_Int_Tables_number   1
_chemical_formula_structural   NaW(ClO)2
_chemical_formula_sum   'Na1 W1 Cl2 O2'
_cell_volume   120.42817842
_cell_formula_units_Z   1
loop_
 _symmetry_equiv_pos_site_id
 _symmetry_equiv_pos_as_xyz
  1  'x, y, z'
loop_
 _atom_site_type_symbol
 _atom_site_label
 _atom_site_symmetry_multiplicity
 _atom_site_fract_x
 _atom_site_fract_y
 _atom_site_fract_z
 _atom_site_occupancy
  Na  Na0  1  0.71506300  0.28493700  0.50000000  1
  W  W0  1  0.99748000  0.00252000  0.00000000  1
  Cl  Cl0  1  0.15755000  0.84245000  0.00000000  1
  Cl  Cl1  1  0.84344500  0.15655500  0.00000000  1
  O  O0  1  0.50032300  0.49967700  0.00000000  1
  O  O1  1  0.00013900  0.99986100  0.50000000  1
loop_
_geom_bond_atom_site_label_1
_geom_bond_atom_site_label_2
_geom_bond_distance
_geom_bond_site_symmetry_2
Cl0 W0 2.549623 1_465
Cl0 Na0 2.898260 1_565
Cl0 Na0 2.898260 1_564
Cl0 Na0 2.898260 1_455
Cl0 Na0 2.898260 1_454
Cl1 W0 2.453497 1_555
Cl1 Na0 2.820326 1_554
Cl1 Na0 2.820326 1_555
O0 W0 1.946820 1_455
O0 W0 1.946820 1_565
O1 W0 1.942795 1_466
O1 W0 1.942795 1_465
