# generated using pymatgen
data_LiLa2Mn3O9
_symmetry_space_group_name_H-M   'P 1'
_cell_length_a   5.45061830
_cell_length_b   5.45061830
_cell_length_c   6.69145200
_cell_angle_alpha   90.00000000
_cell_angle_beta   90.00000000
_cell_angle_gamma   120.00000363
_symmetry_Int_Tables_number   1
_chemical_formula_structural   LiLa2Mn3O9
_chemical_formula_sum   'Li1 La2 Mn3 O9'
_cell_volume   172.16407068
_cell_formula_units_Z   1
loop_
 _symmetry_equiv_pos_site_id
 _symmetry_equiv_pos_as_xyz
  1  'x, y, z'
loop_
 _atom_site_type_symbol
 _atom_site_label
 _atom_site_symmetry_multiplicity
 _atom_site_fract_x
 _atom_site_fract_y
 _atom_site_fract_z
 _atom_site_occupancy
  Li  Li0  1  0.00000000  0.00000000  0.50000000  1
  La  La0  1  0.33333300  0.66666700  0.82193700  1
  La  La1  1  0.66666700  0.33333300  0.17806300  1
  Mn  Mn0  1  0.00000000  0.00000000  0.00000000  1
  Mn  Mn1  1  0.33333300  0.66666700  0.33676700  1
  Mn  Mn2  1  0.66666700  0.33333300  0.66323300  1
  O  O0  1  0.00000000  0.50000000  0.50000000  1
  O  O1  1  0.34137400  0.17068700  0.84165600  1
  O  O2  1  0.65862600  0.82931300  0.15834400  1
  O  O3  1  0.82931300  0.65862600  0.84165600  1
  O  O4  1  0.17068700  0.34137400  0.15834400  1
  O  O5  1  0.50000000  0.00000000  0.50000000  1
  O  O6  1  0.50000000  0.50000000  0.50000000  1
  O  O7  1  0.82931300  0.17068700  0.84165600  1
  O  O8  1  0.17068700  0.82931300  0.15834400  1
loop_
_geom_bond_atom_site_label_1
_geom_bond_atom_site_label_2
_geom_bond_distance
_geom_bond_site_symmetry_2
La0 O0 2.667668 1_555
La0 O5 2.667668 1_565
La0 O6 2.667671 1_555
La0 O8 2.724884 1_556
La0 O4 2.724886 1_556
La0 O2 2.724886 1_556
La0 O1 2.728763 1_565
La0 O3 2.728763 1_455
La0 O7 2.728765 1_565
La0 O7 2.728765 1_455
La0 O3 2.728768 1_555
La0 O1 2.728768 1_555
La1 O5 2.667668 1_555
La1 O0 2.667668 1_655
La1 O6 2.667671 1_555
La1 O7 2.724884 1_554
La1 O1 2.724886 1_554
La1 O3 2.724886 1_554
La1 O4 2.728763 1_655
La1 O2 2.728763 1_545
La1 O8 2.728765 1_655
La1 O8 2.728765 1_545
La1 O2 2.728768 1_555
La1 O4 2.728768 1_555
Mn0 O2 1.928549 1_445
Mn0 O3 1.928549 1_444
Mn0 O4 1.928549 1_555
Mn0 O1 1.928549 1_554
Mn0 O7 1.928549 1_454
Mn0 O8 1.928549 1_545
Mn1 O0 1.915414 1_555
Mn1 O5 1.915414 1_565
Mn1 O6 1.915418 1_555
Mn1 O8 1.945039 1_555
Mn1 O4 1.945043 1_555
Mn1 O2 1.945043 1_555
Mn2 O0 1.915414 1_655
Mn2 O5 1.915414 1_555
Mn2 O6 1.915418 1_555
Mn2 O7 1.945039 1_555
Mn2 O1 1.945043 1_555
Mn2 O3 1.945043 1_555
