# generated using pymatgen
data_HoSc(BRh)8
_symmetry_space_group_name_H-M   'P 1'
_cell_length_a   5.33079700
_cell_length_b   5.33079700
_cell_length_c   7.41104200
_cell_angle_alpha   90.00000000
_cell_angle_beta   90.00000000
_cell_angle_gamma   90.00000000
_symmetry_Int_Tables_number   1
_chemical_formula_structural   HoSc(BRh)8
_chemical_formula_sum   'Ho1 Sc1 B8 Rh8'
_cell_volume   210.60252014
_cell_formula_units_Z   1
loop_
 _symmetry_equiv_pos_site_id
 _symmetry_equiv_pos_as_xyz
  1  'x, y, z'
loop_
 _atom_site_type_symbol
 _atom_site_label
 _atom_site_symmetry_multiplicity
 _atom_site_fract_x
 _atom_site_fract_y
 _atom_site_fract_z
 _atom_site_occupancy
  Ho  Ho0  1  0.50000000  0.50000000  0.00000000  1
  Sc  Sc0  1  0.00000000  0.00000000  0.50000000  1
  B  B0  1  0.33138900  0.00000000  0.14997800  1
  B  B1  1  0.66861100  0.00000000  0.14997800  1
  B  B2  1  0.50000000  0.82979300  0.64939800  1
  B  B3  1  0.50000000  0.17020700  0.64939800  1
  B  B4  1  0.17020700  0.50000000  0.35060200  1
  B  B5  1  0.82979300  0.50000000  0.35060200  1
  B  B6  1  0.00000000  0.66861100  0.85002200  1
  B  B7  1  0.00000000  0.33138900  0.85002200  1
  Rh  Rh0  1  0.75238000  0.00000000  0.85102900  1
  Rh  Rh1  1  0.24762000  0.00000000  0.85102900  1
  Rh  Rh2  1  0.50000000  0.25014200  0.35649700  1
  Rh  Rh3  1  0.50000000  0.74985800  0.35649700  1
  Rh  Rh4  1  0.74985800  0.50000000  0.64350300  1
  Rh  Rh5  1  0.25014200  0.50000000  0.64350300  1
  Rh  Rh6  1  0.00000000  0.24762000  0.14897100  1
  Rh  Rh7  1  0.00000000  0.75238000  0.14897100  1
loop_
_geom_bond_atom_site_label_1
_geom_bond_atom_site_label_2
_geom_bond_distance
_geom_bond_site_symmetry_2
Ho0 Rh3 2.958768 1_555
Ho0 Rh2 2.958768 1_555
Ho0 Rh4 2.958768 1_554
Ho0 Rh5 2.958768 1_554
Ho0 Rh6 3.183284 1_555
Ho0 Rh6 3.183284 1_655
Ho0 Rh7 3.183284 1_555
Ho0 Rh7 3.183284 1_655
Ho0 Rh0 3.183284 1_554
Ho0 Rh1 3.183284 1_554
Ho0 Rh1 3.183284 1_564
Ho0 Rh0 3.183284 1_564
B0 B1 1.797662 1_555
B0 Rh7 2.205277 1_545
B0 Rh6 2.205277 1_555
B0 Rh2 2.220022 1_555
B0 Rh3 2.220022 1_545
B0 Rh1 2.260079 1_554
B0 Ho0 3.024510 1_555
B0 Ho0 3.024510 1_545
B0 Sc0 3.138430 1_555
B1 Rh7 2.205277 1_645
B1 Rh6 2.205277 1_655
B1 Rh2 2.220022 1_555
B1 Rh3 2.220022 1_545
B1 Rh0 2.260079 1_554
B1 Ho0 3.024510 1_555
B1 Ho0 3.024510 1_545
B1 Sc0 3.138430 1_655
B2 B3 1.814678 1_565
B2 Rh0 2.205958 1_565
B2 Rh1 2.205958 1_565
B2 Rh4 2.206072 1_555
B2 Rh5 2.206072 1_555
B2 Rh3 2.212131 1_555
B2 Sc0 3.025474 1_565
B2 Sc0 3.025474 1_665
B2 Ho0 3.137208 1_556
B3 Rh1 2.205958 1_555
B3 Rh0 2.205958 1_555
B3 Rh4 2.206072 1_555
B3 Rh5 2.206072 1_555
B3 Rh2 2.212131 1_555
B3 Sc0 3.025474 1_655
B3 Sc0 3.025474 1_555
B3 Ho0 3.137208 1_556
B4 B5 1.814678 1_455
B4 Rh6 2.205958 1_555
B4 Rh7 2.205958 1_555
B4 Rh3 2.206072 1_555
B4 Rh2 2.206072 1_555
B4 Rh5 2.212131 1_555
B4 Sc0 3.025474 1_555
B4 Sc0 3.025474 1_565
B4 Ho0 3.137208 1_555
B5 Rh6 2.205958 1_655
B5 Rh7 2.205958 1_655
B5 Rh3 2.206072 1_555
B5 Rh2 2.206072 1_555
B5 Rh4 2.212131 1_555
B5 Sc0 3.025474 1_655
B5 Sc0 3.025474 1_665
B5 Ho0 3.137208 1_555
B6 B7 1.797662 1_555
B6 Rh1 2.205277 1_565
B6 Rh0 2.205277 1_465
B6 Rh5 2.220022 1_555
B6 Rh4 2.220022 1_455
B6 Rh7 2.260079 1_556
B6 Ho0 3.024510 1_556
B6 Ho0 3.024510 1_456
B6 Sc0 3.138430 1_565
B7 Rh0 2.205277 1_455
B7 Rh1 2.205277 1_555
B7 Rh5 2.220022 1_555
B7 Rh4 2.220022 1_455
B7 Rh6 2.260079 1_556
B7 Ho0 3.024510 1_556
B7 Ho0 3.024510 1_456
B7 Sc0 3.138430 1_555
Rh0 Sc0 2.917222 1_655
Rh1 Sc0 2.917222 1_555
Rh2 Sc0 3.164412 1_555
Rh2 Sc0 3.164412 1_655
Rh3 Sc0 3.164412 1_565
Rh3 Sc0 3.164412 1_665
Rh4 Sc0 3.164412 1_665
Rh4 Sc0 3.164412 1_655
Rh5 Sc0 3.164412 1_565
Rh5 Sc0 3.164412 1_555
Rh6 Sc0 2.917222 1_555
Rh7 Sc0 2.917222 1_565
