# generated using pymatgen
data_Mg5Si9
_symmetry_space_group_name_H-M   'P 1'
_cell_length_a   6.70854700
_cell_length_b   7.48982269
_cell_length_c   12.06534880
_cell_angle_alpha   84.00242816
_cell_angle_beta   82.32483648
_cell_angle_gamma   63.54281283
_symmetry_Int_Tables_number   1
_chemical_formula_structural   Mg5Si9
_chemical_formula_sum   'Mg10 Si18'
_cell_volume   537.18705158
_cell_formula_units_Z   2
loop_
 _symmetry_equiv_pos_site_id
 _symmetry_equiv_pos_as_xyz
  1  'x, y, z'
loop_
 _atom_site_type_symbol
 _atom_site_label
 _atom_site_symmetry_multiplicity
 _atom_site_fract_x
 _atom_site_fract_y
 _atom_site_fract_z
 _atom_site_occupancy
  Mg  Mg0  1  0.50798000  0.02237700  0.28719700  1
  Mg  Mg1  1  0.88075800  0.89360300  0.55874200  1
  Mg  Mg2  1  0.18285100  0.34352200  0.47780800  1
  Mg  Mg3  1  0.72219100  0.56677900  0.67438400  1
  Mg  Mg4  1  0.69100600  0.34327900  0.45589000  1
  Mg  Mg5  1  0.39734000  0.82454400  0.51105900  1
  Mg  Mg6  1  0.59948000  0.91326800  0.89381300  1
  Mg  Mg7  1  0.34602600  0.80319800  0.10983300  1
  Mg  Mg8  1  0.13794800  0.30601600  0.83740000  1
  Mg  Mg9  1  0.93832700  0.58434200  0.03793300  1
  Si  Si0  1  0.27665400  0.76444900  0.85101900  1
  Si  Si1  1  0.49539300  0.35388300  0.09544200  1
  Si  Si2  1  0.99217300  0.16478900  0.66383800  1
  Si  Si3  1  0.05522200  0.78790700  0.29935000  1
  Si  Si4  1  0.04461600  0.67752400  0.75464900  1
  Si  Si5  1  0.00676000  0.25061600  0.20628700  1
  Si  Si6  1  0.57813100  0.18853000  0.69161600  1
  Si  Si7  1  0.70151800  0.57958200  0.24827000  1
  Si  Si8  1  0.76053400  0.21786000  0.84386800  1
  Si  Si9  1  0.08907700  0.05368100  0.38163400  1
  Si  Si10  1  0.83579200  0.06456500  0.15228400  1
  Si  Si11  1  0.94436600  0.94010800  0.97237100  1
  Si  Si12  1  0.38042300  0.97638400  0.70458600  1
  Si  Si13  1  0.40004600  0.47723200  0.27946600  1
  Si  Si14  1  0.27979300  0.20082700  0.04866400  1
  Si  Si15  1  0.60435200  0.52784100  0.93881900  1
  Si  Si16  1  0.81206800  0.66718400  0.40987700  1
  Si  Si17  1  0.33877100  0.50627000  0.61414400  1
loop_
_geom_bond_atom_site_label_1
_geom_bond_atom_site_label_2
_geom_bond_distance
_geom_bond_site_symmetry_2
Mg0 Si10 2.672307 1_555
Mg0 Si9 2.804291 1_555
Mg0 Si16 2.928772 1_545
Mg0 Si7 3.038251 1_545
Mg0 Si13 3.145275 1_555
Mg0 Si1 3.192125 1_555
Mg1 Si6 2.728720 1_565
Mg1 Si4 2.779206 1_655
Mg1 Si16 2.805020 1_555
Mg1 Si9 2.848984 1_665
Mg1 Si2 2.904507 1_565
Mg2 Si17 2.701947 1_555
Mg2 Si16 2.737144 1_455
Mg2 Si9 2.897086 1_555
Mg2 Si2 2.932104 1_455
Mg2 Si13 2.953092 1_555
Mg3 Si2 2.742464 1_555
Mg3 Si12 2.923049 1_555
Mg3 Si4 2.937770 1_655
Mg3 Si17 2.992783 1_555
Mg3 Si8 3.082537 1_555
Mg4 Si9 2.691568 1_655
Mg4 Si17 2.726036 1_555
Mg4 Si16 2.864780 1_555
Mg4 Si13 2.875089 1_555
Mg4 Si7 2.924040 1_555
Mg4 Si6 3.086046 1_555
Mg4 Si2 3.226524 1_555
Mg5 Si9 2.607779 1_565
Mg5 Si16 2.663030 1_555
Mg5 Si12 2.669728 1_555
Mg5 Si17 2.732831 1_555
Mg5 Si2 3.278917 1_465
Mg6 Si11 2.707759 1_555
Mg6 Si12 2.765357 1_555
Mg6 Si15 2.867494 1_555
Mg6 Si14 2.895444 1_566
Mg6 Si8 2.910347 1_565
Mg6 Si0 2.961271 1_555
Mg6 Si6 3.000281 1_565
Mg6 Si4 3.071856 1_655
Mg7 Si3 2.828483 1_555
Mg7 Si14 2.839149 1_565
Mg7 Si7 2.864042 1_555
Mg7 Si15 2.874623 1_554
Mg7 Si13 2.940468 1_555
Mg7 Si1 3.070873 1_555
Mg7 Si11 3.072313 1_454
Mg7 Si10 3.095394 1_465
Mg8 Si4 2.676819 1_555
Mg8 Si14 2.753847 1_556
Mg8 Si12 2.803785 1_545
Mg8 Si8 2.877263 1_455
Mg8 Si2 2.896906 1_455
Mg8 Si6 3.034622 1_555
Mg9 Si11 2.715649 1_554
Mg9 Si14 2.766509 1_655
Mg9 Si7 2.814266 1_555
Mg9 Si15 2.880135 1_554
Mg9 Si5 2.958052 1_655
Si0 Si4 2.396592 1_555
Si0 Si11 2.400274 1_455
Si0 Si15 2.419483 1_555
Si0 Si12 2.489140 1_555
Si1 Si14 2.356974 1_555
Si1 Si13 2.390648 1_555
Si1 Si15 2.401673 1_554
Si1 Si10 2.465603 1_555
Si2 Si8 2.453434 1_555
Si2 Si6 2.680077 1_555
Si3 Si9 2.423995 1_565
Si5 Si9 2.427060 1_555
Si5 Si7 2.451240 1_455
Si6 Si8 2.417509 1_555
Si10 Si5 2.344212 1_655
Si10 Si11 2.346693 1_544
Si10 Si3 2.611613 1_645
Si11 Si8 2.408967 1_565
Si12 Si2 2.436997 1_465
Si12 Si6 2.465529 1_565
Si13 Si7 2.436682 1_555
Si13 Si3 2.448532 1_555
Si14 Si5 2.391628 1_555
Si15 Si8 2.422430 1_555
Si16 Si3 2.395409 1_655
Si16 Si7 2.422727 1_555
Si17 Si6 2.376272 1_555
Si17 Si4 2.391361 1_555
