# generated using pymatgen
data_Sr2La6Cu3IrO16
_symmetry_space_group_name_H-M   'P 1'
_cell_length_a   8.92653121
_cell_length_b   8.92653121
_cell_length_c   11.05876763
_cell_angle_alpha   52.01338987
_cell_angle_beta   52.01338987
_cell_angle_gamma   35.29579066
_symmetry_Int_Tables_number   1
_chemical_formula_structural   Sr2La6Cu3IrO16
_chemical_formula_sum   'Sr2 La6 Cu3 Ir1 O16'
_cell_volume   388.70964873
_cell_formula_units_Z   1
loop_
 _symmetry_equiv_pos_site_id
 _symmetry_equiv_pos_as_xyz
  1  'x, y, z'
loop_
 _atom_site_type_symbol
 _atom_site_label
 _atom_site_symmetry_multiplicity
 _atom_site_fract_x
 _atom_site_fract_y
 _atom_site_fract_z
 _atom_site_occupancy
  Sr  Sr0  1  0.36167300  0.36167300  0.63277800  1
  Sr  Sr1  1  0.63832700  0.63832700  0.36722200  1
  La  La0  1  0.13875800  0.13875800  0.61166500  1
  La  La1  1  0.13992000  0.13992000  0.09716300  1
  La  La2  1  0.86124200  0.86124200  0.38833500  1
  La  La3  1  0.86008000  0.86008000  0.90283700  1
  La  La4  1  0.35665800  0.35665800  0.14137400  1
  La  La5  1  0.64334200  0.64334200  0.85862600  1
  Cu  Cu0  1  0.50627700  0.50627700  0.74700100  1
  Cu  Cu1  1  0.49372300  0.49372300  0.25299900  1
  Cu  Cu2  1  0.00000000  0.00000000  0.00000000  1
  Ir  Ir0  1  0.00000000  0.00000000  0.50000000  1
  O  O0  1  0.24776900  0.73663100  0.13020900  1
  O  O1  1  0.23114200  0.73717800  0.64959500  1
  O  O2  1  0.26336900  0.75223100  0.86979100  1
  O  O3  1  0.26282200  0.76885800  0.35040500  1
  O  O4  1  0.75223100  0.26336900  0.86979100  1
  O  O5  1  0.76885800  0.26282200  0.35040500  1
  O  O6  1  0.73663100  0.24776900  0.13020900  1
  O  O7  1  0.73717800  0.23114200  0.64959500  1
  O  O8  1  0.31345400  0.31345400  0.43411200  1
  O  O9  1  0.31004600  0.31004600  0.97865300  1
  O  O10  1  0.68654600  0.68654600  0.56588800  1
  O  O11  1  0.68995400  0.68995400  0.02134700  1
  O  O12  1  0.16287700  0.16287700  0.35811000  1
  O  O13  1  0.17607800  0.17607800  0.83915300  1
  O  O14  1  0.83712300  0.83712300  0.64189000  1
  O  O15  1  0.82392200  0.82392200  0.16084700  1
loop_
_geom_bond_atom_site_label_1
_geom_bond_atom_site_label_2
_geom_bond_distance
_geom_bond_site_symmetry_2
La0 O8 2.269441 1_555
La0 O12 2.558235 1_555
La0 O2 2.609673 1_545
La0 O4 2.609673 1_455
La0 O1 2.730480 1_545
La0 O7 2.730480 1_455
La0 O10 2.776557 1_455
La0 O10 2.776557 1_545
La0 O13 2.965696 1_555
La1 O9 2.279220 1_554
La1 O13 2.500462 1_554
La1 O5 2.539601 1_455
La1 O3 2.539601 1_545
La1 O0 2.678889 1_545
La1 O6 2.678889 1_455
La1 O11 2.798088 1_545
La1 O11 2.798088 1_455
La2 O10 2.269441 1_555
La2 O14 2.558235 1_555
La2 O0 2.609673 1_655
La2 O6 2.609673 1_565
La2 O3 2.730480 1_655
La2 O5 2.730480 1_565
La2 O8 2.776557 1_565
La2 O8 2.776557 1_655
La2 O15 2.965696 1_555
La3 O11 2.279220 1_556
La3 O15 2.500462 1_556
La3 O1 2.539601 1_655
La3 O7 2.539601 1_565
La3 O2 2.678889 1_655
La3 O4 2.678889 1_565
La3 O9 2.798088 1_565
La3 O9 2.798088 1_655
La4 O9 2.389636 1_554
La4 O12 2.531078 1_555
La4 O6 2.591360 1_555
La4 O0 2.591360 1_555
La4 O2 2.721497 1_554
La4 O4 2.721497 1_554
La4 O15 2.743225 1_455
La4 O15 2.743225 1_545
La4 O8 2.819005 1_555
La5 O11 2.389636 1_556
La5 O14 2.531078 1_555
La5 O4 2.591360 1_555
La5 O2 2.591360 1_555
La5 O0 2.721497 1_556
La5 O6 2.721497 1_556
La5 O13 2.743225 1_655
La5 O13 2.743225 1_565
La5 O10 2.819005 1_555
Cu0 O4 1.907952 1_555
Cu0 O2 1.907952 1_555
Cu0 O7 1.923766 1_555
Cu0 O1 1.923766 1_555
Cu0 O10 2.341504 1_555
Cu0 O9 2.580787 1_555
Cu1 O0 1.907952 1_555
Cu1 O6 1.907952 1_555
Cu1 O3 1.923766 1_555
Cu1 O5 1.923766 1_555
Cu1 O8 2.341504 1_555
Cu1 O11 2.580787 1_555
Cu2 O0 1.938462 1_545
Cu2 O6 1.938462 1_455
Cu2 O4 1.938462 1_454
Cu2 O2 1.938462 1_544
Cu2 O13 2.292280 1_554
Cu2 O15 2.292280 1_445
Ir0 O1 2.005129 1_545
Ir0 O7 2.005129 1_455
Ir0 O3 2.005129 1_545
Ir0 O5 2.005129 1_455
Ir0 O12 2.126976 1_555
Ir0 O14 2.126976 1_445
O1 Sr0 2.598659 1_555
O1 Sr1 2.815324 1_555
O3 Sr1 2.598659 1_555
O3 Sr0 2.815324 1_555
O5 Sr1 2.598659 1_555
O5 Sr0 2.815324 1_555
O7 Sr0 2.598659 1_555
O7 Sr1 2.815324 1_555
O8 Sr0 2.797836 1_555
O10 Sr1 2.797836 1_555
O12 Sr1 2.730182 1_455
O12 Sr1 2.730182 1_545
O13 Sr0 2.422783 1_555
O14 Sr0 2.730182 1_655
O14 Sr0 2.730182 1_565
O15 Sr1 2.422783 1_555
