# generated using pymatgen
data_LiCoO2
_symmetry_space_group_name_H-M   'P 1'
_cell_length_a   5.79461628
_cell_length_b   5.79461628
_cell_length_c   5.82922632
_cell_angle_alpha   59.98219226
_cell_angle_beta   59.98219226
_cell_angle_gamma   60.60513106
_symmetry_Int_Tables_number   1
_chemical_formula_structural   LiCoO2
_chemical_formula_sum   'Li4 Co4 O8'
_cell_volume   138.98697781
_cell_formula_units_Z   4
loop_
 _symmetry_equiv_pos_site_id
 _symmetry_equiv_pos_as_xyz
  1  'x, y, z'
loop_
 _atom_site_type_symbol
 _atom_site_label
 _atom_site_symmetry_multiplicity
 _atom_site_fract_x
 _atom_site_fract_y
 _atom_site_fract_z
 _atom_site_occupancy
  Li  Li0  1  0.50000000  0.00000000  0.50000000  1
  Li  Li1  1  0.00000000  0.00000000  0.00000000  1
  Li  Li2  1  0.00000000  0.00000000  0.50000000  1
  Li  Li3  1  0.00000000  0.50000000  0.50000000  1
  Co  Co0  1  0.50000000  0.50000000  0.50000000  1
  Co  Co1  1  0.50000000  0.00000000  0.00000000  1
  Co  Co2  1  0.50000000  0.50000000  0.00000000  1
  Co  Co3  1  0.00000000  0.50000000  0.00000000  1
  O  O0  1  0.26155900  0.72741300  0.76810300  1
  O  O1  1  0.72741300  0.26155900  0.76810300  1
  O  O2  1  0.26341400  0.26341400  0.74625600  1
  O  O3  1  0.25975200  0.25975200  0.22973900  1
  O  O4  1  0.74024800  0.74024800  0.77026100  1
  O  O5  1  0.73658600  0.73658600  0.25374400  1
  O  O6  1  0.27258700  0.73844100  0.23189700  1
  O  O7  1  0.73844100  0.27258700  0.23189700  1
loop_
_geom_bond_atom_site_label_1
_geom_bond_atom_site_label_2
_geom_bond_distance
_geom_bond_site_symmetry_2
Li0 O7 2.087678 1_555
Li0 O0 2.087678 1_545
Li0 O2 2.106895 1_555
Li0 O5 2.106895 1_545
Li0 O3 2.109598 1_555
Li0 O4 2.109598 1_545
Li1 O7 2.087043 1_455
Li1 O6 2.087043 1_545
Li1 O0 2.087043 1_544
Li1 O1 2.087043 1_454
Li1 O2 2.148661 1_554
Li1 O5 2.148661 1_445
Li2 O3 2.119397 1_555
Li2 O4 2.119397 1_445
Li2 O7 2.187358 1_455
Li2 O1 2.187358 1_455
Li2 O0 2.187358 1_545
Li2 O6 2.187358 1_545
Li3 O6 2.087678 1_555
Li3 O1 2.087678 1_455
Li3 O2 2.106895 1_555
Li3 O5 2.106895 1_455
Li3 O3 2.109598 1_555
Li3 O4 2.109598 1_455
Co0 O2 1.930398 1_555
Co0 O5 1.930398 1_555
Co0 O1 2.049572 1_555
Co0 O0 2.049572 1_555
Co0 O6 2.049572 1_555
Co0 O7 2.049572 1_555
Co1 O1 1.997345 1_554
Co1 O6 1.997345 1_545
Co1 O3 2.022751 1_555
Co1 O4 2.022751 1_544
Co1 O5 2.028024 1_545
Co1 O2 2.028024 1_554
Co2 O7 1.942154 1_555
Co2 O6 1.942154 1_555
Co2 O1 1.942154 1_554
Co2 O0 1.942154 1_554
Co2 O3 1.959941 1_555
Co2 O4 1.959941 1_554
Co3 O0 1.997345 1_554
Co3 O7 1.997345 1_455
Co3 O3 2.022751 1_555
Co3 O4 2.022751 1_454
Co3 O5 2.028024 1_455
Co3 O2 2.028024 1_554
