# generated using pymatgen
data_Li6Ca12Mo4N16O3
_symmetry_space_group_name_H-M   'P 1'
_cell_length_a   11.37071087
_cell_length_b   11.37071149
_cell_length_c   11.37071100
_cell_angle_alpha   109.47121977
_cell_angle_beta   109.47122087
_cell_angle_gamma   109.47122182
_symmetry_Int_Tables_number   1
_chemical_formula_structural   Li6Ca12Mo4N16O3
_chemical_formula_sum   'Li12 Ca24 Mo8 N32 O6'
_cell_volume   1131.72519497
_cell_formula_units_Z   2
loop_
 _symmetry_equiv_pos_site_id
 _symmetry_equiv_pos_as_xyz
  1  'x, y, z'
loop_
 _atom_site_type_symbol
 _atom_site_label
 _atom_site_symmetry_multiplicity
 _atom_site_fract_x
 _atom_site_fract_y
 _atom_site_fract_z
 _atom_site_occupancy
  Li  Li0  1  0.25000000  0.27518000  0.02518100  1
  Li  Li1  1  0.25000000  0.97482000  0.72481900  1
  Li  Li2  1  0.77518100  0.75000000  0.52518100  1
  Li  Li3  1  0.52518100  0.77518000  0.75000000  1
  Li  Li4  1  0.72481900  0.25000000  0.97482000  1
  Li  Li5  1  0.97482000  0.72481900  0.25000000  1
  Li  Li6  1  0.75000000  0.22481900  0.47481900  1
  Li  Li7  1  0.22482000  0.47482000  0.75000000  1
  Li  Li8  1  0.27518100  0.02518100  0.25000000  1
  Li  Li9  1  0.02518100  0.25000000  0.27518100  1
  Li  Li10  1  0.47481900  0.75000000  0.22482000  1
  Li  Li11  1  0.75000100  0.52518100  0.77518100  1
  Ca  Ca0  1  0.59501100  0.53845000  0.20822700  1
  Ca  Ca1  1  0.96155100  0.55656200  0.66977700  1
  Ca  Ca2  1  0.29177300  0.83022300  0.38678500  1
  Ca  Ca3  1  0.90498800  0.11321500  0.94343800  1
  Ca  Ca4  1  0.11321600  0.94343800  0.90498800  1
  Ca  Ca5  1  0.94343700  0.90498800  0.11321500  1
  Ca  Ca6  1  0.09501200  0.70822700  0.03845000  1
  Ca  Ca7  1  0.16977800  0.05656300  0.46155100  1
  Ca  Ca8  1  0.33022200  0.79177300  0.88678500  1
  Ca  Ca9  1  0.44343800  0.61321500  0.40498800  1
  Ca  Ca10  1  0.61321500  0.40498800  0.44343800  1
  Ca  Ca11  1  0.03845000  0.09501200  0.70822700  1
  Ca  Ca12  1  0.05656200  0.46155100  0.16977700  1
  Ca  Ca13  1  0.88678500  0.33022300  0.79177300  1
  Ca  Ca14  1  0.70822800  0.03845000  0.09501200  1
  Ca  Ca15  1  0.46155000  0.16977800  0.05656300  1
  Ca  Ca16  1  0.79177300  0.88678400  0.33022300  1
  Ca  Ca17  1  0.66977800  0.96155100  0.55656200  1
  Ca  Ca18  1  0.83022300  0.38678500  0.29177300  1
  Ca  Ca19  1  0.38678500  0.29177300  0.83022300  1
  Ca  Ca20  1  0.53844900  0.20822700  0.59501200  1
  Ca  Ca21  1  0.20822700  0.59501100  0.53844900  1
  Ca  Ca22  1  0.55656200  0.66977800  0.96155100  1
  Ca  Ca23  1  0.40498800  0.44343800  0.61321600  1
  Mo  Mo0  1  0.27580200  0.27580200  0.27580200  1
  Mo  Mo1  1  0.72419800  0.50000000  0.00000000  1
  Mo  Mo2  1  0.50000000  0.00000000  0.72419900  1
  Mo  Mo3  1  0.00000000  0.72419800  0.50000000  1
  Mo  Mo4  1  0.50000000  0.00000000  0.22419900  1
  Mo  Mo5  1  0.00000000  0.22419900  0.50000000  1
  Mo  Mo6  1  0.22419800  0.50000000  0.00000000  1
  Mo  Mo7  1  0.77580200  0.77580200  0.77580200  1
  N  N0  1  0.11073400  0.11073400  0.11073400  1
  N  N1  1  0.88926600  0.50000000  0.00000000  1
  N  N2  1  0.50000000  0.00000000  0.88926700  1
  N  N3  1  0.00000100  0.88926700  0.50000000  1
  N  N4  1  0.50000000  0.00000000  0.38926700  1
  N  N5  1  0.00000000  0.38926700  0.50000000  1
  N  N6  1  0.38926600  0.50000000  0.00000000  1
  N  N7  1  0.61073300  0.61073400  0.61073400  1
  N  N8  1  0.41833300  0.36712000  0.23477000  1
  N  N9  1  0.13288100  0.55121300  0.86765000  1
  N  N10  1  0.26523000  0.63234900  0.18356200  1
  N  N11  1  0.08166700  0.31643700  0.94878700  1
  N  N12  1  0.31643700  0.94878600  0.08166700  1
  N  N13  1  0.94878700  0.08166800  0.31643700  1
  N  N14  1  0.91833200  0.73477000  0.86711900  1
  N  N15  1  0.36765100  0.05121300  0.63288100  1
  N  N16  1  0.13235000  0.76523000  0.68356300  1
  N  N17  1  0.44878600  0.81643700  0.58166700  1
  N  N18  1  0.81643700  0.58166700  0.44878700  1
  N  N19  1  0.86712000  0.91833300  0.73477000  1
  N  N20  1  0.05121300  0.63288100  0.36765000  1
  N  N21  1  0.68356300  0.13234900  0.76523000  1
  N  N22  1  0.73477000  0.86712000  0.91833300  1
  N  N23  1  0.63288000  0.36765000  0.05121300  1
  N  N24  1  0.76523000  0.68356300  0.13235000  1
  N  N25  1  0.86765100  0.13288100  0.55121400  1
  N  N26  1  0.63235000  0.18356300  0.26523000  1
  N  N27  1  0.18356300  0.26523100  0.63234900  1
  N  N28  1  0.36711900  0.23476900  0.41833300  1
  N  N29  1  0.23477000  0.41833200  0.36711900  1
  N  N30  1  0.55121300  0.86765000  0.13288000  1
  N  N31  1  0.58166700  0.44878600  0.81643700  1
  O  O0  1  0.12500000  0.87500000  0.25000000  1
  O  O1  1  0.62500000  0.75000000  0.37500000  1
  O  O2  1  0.87500000  0.25000000  0.12500000  1
  O  O3  1  0.25000000  0.12500000  0.87499900  1
  O  O4  1  0.75000000  0.37500000  0.62500000  1
  O  O5  1  0.37500000  0.62499900  0.75000000  1
loop_
_geom_bond_atom_site_label_1
_geom_bond_atom_site_label_2
_geom_bond_distance
_geom_bond_site_symmetry_2
Li0 O3 1.971841 1_554
Li0 N8 2.097639 1_555
Li0 N11 2.097649 1_554
Li1 O3 1.971828 1_565
Li1 N15 2.097635 1_565
Li1 N16 2.097651 1_555
Li2 O1 1.971841 1_555
Li2 N19 2.097641 1_555
Li2 N18 2.097642 1_555
Li3 O5 1.971841 1_555
Li3 N22 2.097639 1_555
Li3 N17 2.097651 1_555
Li4 O2 1.971835 1_556
Li4 N23 2.097637 1_556
Li4 N21 2.097653 1_555
Li5 O0 1.971835 1_655
Li5 N20 2.097628 1_655
Li5 N24 2.097651 1_555
Li6 O4 1.971841 1_555
Li6 N26 2.097641 1_555
Li6 N25 2.097644 1_555
Li7 O5 1.971822 1_555
Li7 N9 2.097637 1_555
Li7 N27 2.097639 1_555
Li8 O0 1.971841 1_545
Li8 N28 2.097636 1_555
Li8 N12 2.097644 1_545
Li9 O2 1.971841 1_455
Li9 N13 2.097632 1_455
Li9 N29 2.097639 1_555
Li10 O1 1.971835 1_555
Li10 N10 2.097635 1_555
Li10 N30 2.097651 1_555
Li11 O4 1.971835 1_555
Li11 N14 2.097635 1_555
Li11 N31 2.097653 1_555
Ca0 O1 2.340869 1_555
Ca0 N23 2.429648 1_555
Ca0 N8 2.471700 1_555
Ca0 N6 2.491076 1_555
Ca0 N24 2.673284 1_555
Ca0 N18 2.783968 1_555
Ca1 O4 2.340881 1_555
Ca1 N16 2.429635 1_655
Ca1 N9 2.471707 1_655
Ca1 N5 2.491068 1_655
Ca1 N18 2.673281 1_555
Ca1 N14 2.783971 1_555
Ca2 O0 2.340874 1_555
Ca2 N17 2.429635 1_555
Ca2 N10 2.471720 1_555
Ca2 N4 2.491076 1_565
Ca2 N15 2.673280 1_565
Ca2 N20 2.783957 1_555
Ca3 O2 2.340874 1_556
Ca3 N19 2.429640 1_545
Ca3 N11 2.471707 1_655
Ca3 N0 2.491082 1_656
Ca3 N22 2.673277 1_545
Ca3 N21 2.783955 1_555
Ca4 O3 2.340877 1_565
Ca4 N14 2.429647 1_455
Ca4 N12 2.471706 1_556
Ca4 N0 2.491089 1_566
Ca4 N19 2.673286 1_455
Ca4 N16 2.783955 1_555
Ca5 O0 2.340882 1_655
Ca5 N22 2.429633 1_554
Ca5 N13 2.471706 1_565
Ca5 N0 2.491088 1_665
Ca5 N14 2.673286 1_554
Ca5 N24 2.783957 1_555
Ca6 O0 2.340874 1_555
Ca6 N9 2.429648 1_554
Ca6 N14 2.471720 1_454
Ca6 N1 2.491082 1_455
Ca6 N10 2.673280 1_555
Ca6 N12 2.783955 1_555
Ca7 O0 2.340882 1_545
Ca7 N27 2.429636 1_555
Ca7 N15 2.471713 1_555
Ca7 N3 2.491075 1_545
Ca7 N13 2.673290 1_455
Ca7 N28 2.783944 1_555
Ca8 O5 2.340889 1_555
Ca8 N12 2.429628 1_556
Ca8 N16 2.471700 1_555
Ca8 N2 2.491081 1_565
Ca8 N30 2.673282 1_556
Ca8 N9 2.783952 1_555
Ca9 O1 2.340874 1_555
Ca9 N29 2.429641 1_555
Ca9 N17 2.471713 1_555
Ca9 N7 2.491077 1_555
Ca9 N8 2.673277 1_555
Ca9 N10 2.783963 1_555
Ca10 O4 2.340874 1_555
Ca10 N8 2.429640 1_555
Ca10 N18 2.471707 1_555
Ca10 N7 2.491089 1_555
Ca10 N28 2.673290 1_555
Ca10 N26 2.783962 1_555
Ca11 O3 2.340869 1_555
Ca11 N25 2.429635 1_455
Ca11 N19 2.471707 1_445
Ca11 N3 2.491081 1_545
Ca11 N27 2.673293 1_555
Ca11 N11 2.783962 1_555
Ca12 O2 2.340881 1_455
Ca12 N10 2.429636 1_555
Ca12 N20 2.471707 1_555
Ca12 N1 2.491075 1_455
Ca12 N11 2.673281 1_554
Ca12 N29 2.783971 1_555
Ca13 O4 2.340874 1_555
Ca13 N11 2.429640 1_655
Ca13 N21 2.471713 1_555
Ca13 N1 2.491082 1_556
Ca13 N9 2.673284 1_655
Ca13 N25 2.783955 1_555
Ca14 O2 2.340869 1_555
Ca14 N30 2.429646 1_545
Ca14 N22 2.471699 1_544
Ca14 N2 2.491083 1_554
Ca14 N26 2.673286 1_555
Ca14 N13 2.783950 1_555
Ca15 O3 2.340880 1_554
Ca15 N26 2.429638 1_555
Ca15 N23 2.471706 1_555
Ca15 N2 2.491089 1_554
Ca15 N12 2.673287 1_545
Ca15 N8 2.783949 1_555
Ca16 O1 2.340868 1_555
Ca16 N13 2.429656 1_565
Ca16 N24 2.471700 1_555
Ca16 N3 2.491077 1_655
Ca16 N25 2.673293 1_565
Ca16 N30 2.783968 1_555
Ca17 O1 2.340877 1_555
Ca17 N21 2.429636 1_565
Ca17 N25 2.471700 1_565
Ca17 N4 2.491075 1_565
Ca17 N17 2.673298 1_555
Ca17 N19 2.783963 1_555
Ca18 O2 2.340874 1_555
Ca18 N18 2.429640 1_555
Ca18 N26 2.471707 1_555
Ca18 N5 2.491076 1_655
Ca18 N20 2.673284 1_655
Ca18 N23 2.783962 1_555
Ca19 O3 2.340866 1_555
Ca19 N31 2.429635 1_555
Ca19 N27 2.471719 1_555
Ca19 N6 2.491082 1_556
Ca19 N23 2.673277 1_556
Ca19 N15 2.783963 1_555
Ca20 O4 2.340882 1_555
Ca20 N15 2.429634 1_555
Ca20 N28 2.471699 1_555
Ca20 N4 2.491081 1_555
Ca20 N21 2.673291 1_555
Ca20 N31 2.783950 1_555
Ca21 O5 2.340882 1_555
Ca21 N20 2.429649 1_555
Ca21 N29 2.471707 1_555
Ca21 N5 2.491075 1_555
Ca21 N16 2.673290 1_555
Ca21 N17 2.783956 1_555
Ca22 O5 2.340872 1_555
Ca22 N24 2.429641 1_556
Ca22 N30 2.471694 1_556
Ca22 N6 2.491081 1_556
Ca22 N31 2.673298 1_555
Ca22 N22 2.783963 1_555
Ca23 O5 2.340861 1_555
Ca23 N28 2.429648 1_555
Ca23 N31 2.471706 1_555
Ca23 N7 2.491081 1_555
Ca23 N29 2.673289 1_555
Ca23 N27 2.783943 1_555
Mo0 N0 1.876941 1_555
Mo0 N29 1.904623 1_555
Mo0 N8 1.904635 1_555
Mo0 N28 1.904639 1_555
Mo1 N1 1.876941 1_555
Mo1 N31 1.904631 1_554
Mo1 N23 1.904635 1_555
Mo1 N24 1.904635 1_555
Mo2 N2 1.876941 1_555
Mo2 N15 1.904627 1_555
Mo2 N21 1.904635 1_555
Mo2 N17 1.904635 1_545
Mo3 N3 1.876948 1_555
Mo3 N20 1.904631 1_555
Mo3 N18 1.904635 1_455
Mo3 N16 1.904635 1_555
Mo4 N4 1.876941 1_555
Mo4 N12 1.904635 1_545
Mo4 N26 1.904639 1_555
Mo4 N30 1.904639 1_545
Mo5 N5 1.876941 1_555
Mo5 N27 1.904631 1_555
Mo5 N13 1.904635 1_455
Mo5 N25 1.904635 1_455
Mo6 N6 1.876941 1_555
Mo6 N10 1.904623 1_555
Mo6 N9 1.904631 1_554
Mo6 N11 1.904635 1_554
Mo7 N7 1.876944 1_555
Mo7 N14 1.904622 1_555
Mo7 N19 1.904635 1_555
Mo7 N22 1.904635 1_555
