# generated using pymatgen
data_BaGd2Si3O10
_symmetry_space_group_name_H-M   'P 1'
_cell_length_a   12.25364832
_cell_length_b   5.45022190
_cell_length_c   6.94672692
_cell_angle_alpha   73.62189849
_cell_angle_beta   90.00000000
_cell_angle_gamma   90.00000000
_symmetry_Int_Tables_number   1
_chemical_formula_structural   BaGd2Si3O10
_chemical_formula_sum   'Ba2 Gd4 Si6 O20'
_cell_volume   445.11211296
_cell_formula_units_Z   2
loop_
 _symmetry_equiv_pos_site_id
 _symmetry_equiv_pos_as_xyz
  1  'x, y, z'
loop_
 _atom_site_type_symbol
 _atom_site_label
 _atom_site_symmetry_multiplicity
 _atom_site_fract_x
 _atom_site_fract_y
 _atom_site_fract_z
 _atom_site_occupancy
  Ba  Ba0  1  0.25000000  0.23839543  0.01801844  1
  Ba  Ba1  1  0.75000000  0.76160457  0.98198156  1
  Gd  Gd0  1  0.09757441  0.83924442  0.68715025  1
  Gd  Gd1  1  0.59757441  0.16075558  0.31284975  1
  Gd  Gd2  1  0.90242559  0.16075558  0.31284975  1
  Gd  Gd3  1  0.40242559  0.83924442  0.68715025  1
  Si  Si0  1  0.25000000  0.41427286  0.48988335  1
  Si  Si1  1  0.75000000  0.58572714  0.51011665  1
  Si  Si2  1  0.06400209  0.69532589  0.21519084  1
  Si  Si3  1  0.56400209  0.30467411  0.78480916  1
  Si  Si4  1  0.93599791  0.30467411  0.78480916  1
  Si  Si5  1  0.43599791  0.69532589  0.21519084  1
  O  O0  1  0.25000000  0.62047134  0.61722319  1
  O  O1  1  0.75000000  0.37952866  0.38277681  1
  O  O2  1  0.25000000  0.12324048  0.63405328  1
  O  O3  1  0.75000000  0.87675952  0.36594672  1
  O  O4  1  0.14277896  0.45066283  0.34185103  1
  O  O5  1  0.64277896  0.54933717  0.65814897  1
  O  O6  1  0.85722104  0.54933717  0.65814897  1
  O  O7  1  0.35722104  0.45066283  0.34185103  1
  O  O8  1  0.94694014  0.57498215  0.18921747  1
  O  O9  1  0.44694014  0.42501785  0.81078253  1
  O  O10  1  0.05305986  0.42501785  0.81078253  1
  O  O11  1  0.55305986  0.57498215  0.18921747  1
  O  O12  1  0.12608098  0.82939794  0.00748924  1
  O  O13  1  0.62608098  0.17060206  0.99251076  1
  O  O14  1  0.87391902  0.17060206  0.99251076  1
  O  O15  1  0.37391902  0.82939794  0.00748924  1
  O  O16  1  0.05456197  0.89878921  0.34886473  1
  O  O17  1  0.55456197  0.10121079  0.65113527  1
  O  O18  1  0.94543803  0.10121079  0.65113527  1
  O  O19  1  0.44543803  0.89878921  0.34886473  1
loop_
_geom_bond_atom_site_label_1
_geom_bond_atom_site_label_2
_geom_bond_distance
_geom_bond_site_symmetry_2
Ba0 O12 2.715148 1_545
Ba0 O15 2.715148 1_545
Ba0 O10 2.846922 1_554
Ba0 O9 2.846922 1_554
Ba0 O2 2.907315 1_554
Ba0 O0 2.969604 1_554
Ba0 O4 3.097245 1_555
Ba0 O7 3.097245 1_555
Ba1 O14 2.715148 1_565
Ba1 O13 2.715148 1_565
Ba1 O8 2.846922 1_556
Ba1 O11 2.846922 1_556
Ba1 O3 2.907315 1_556
Ba1 O1 2.969604 1_556
Ba1 O6 3.097245 1_555
Ba1 O5 3.097245 1_555
Gd0 O12 2.238201 1_556
Gd0 O10 2.244672 1_555
Gd0 O18 2.318410 1_465
Gd0 O0 2.339423 1_555
Gd0 O16 2.339960 1_555
Gd0 O2 2.387144 1_565
Gd1 O13 2.238201 1_554
Gd1 O11 2.244672 1_555
Gd1 O19 2.318410 1_545
Gd1 O1 2.339423 1_555
Gd1 O17 2.339960 1_555
Gd1 O3 2.387144 1_545
Gd2 O14 2.238201 1_554
Gd2 O8 2.244672 1_555
Gd2 O16 2.318410 1_645
Gd2 O1 2.339423 1_555
Gd2 O18 2.339960 1_555
Gd2 O3 2.387144 1_545
Gd3 O15 2.238201 1_556
Gd3 O9 2.244672 1_555
Gd3 O17 2.318410 1_565
Gd3 O0 2.339423 1_555
Gd3 O19 2.339960 1_555
Gd3 O2 2.387144 1_565
O0 Si0 1.614353 1_555
O1 Si1 1.614353 1_555
O2 Si0 1.619611 1_555
O3 Si1 1.619611 1_555
O4 Si0 1.645600 1_555
O4 Si2 1.680016 1_555
O5 Si1 1.645600 1_555
O5 Si3 1.680016 1_555
O6 Si1 1.645600 1_555
O6 Si4 1.680016 1_555
O7 Si0 1.645600 1_555
O7 Si5 1.680016 1_555
O8 Si2 1.608448 1_655
O9 Si3 1.608448 1_555
O10 Si4 1.608448 1_455
O11 Si5 1.608448 1_555
O12 Si2 1.612399 1_555
O13 Si3 1.612399 1_555
O14 Si4 1.612399 1_555
O15 Si5 1.612399 1_555
O16 Si2 1.638931 1_555
O17 Si3 1.638931 1_555
O18 Si4 1.638931 1_555
O19 Si5 1.638931 1_555
