# generated using pymatgen
data_Sr5Co3F19
_symmetry_space_group_name_H-M   'P 1'
_cell_length_a   10.89864176
_cell_length_b   10.89864176
_cell_length_c   10.89864176
_cell_angle_alpha   96.66621605
_cell_angle_beta   96.66621605
_cell_angle_gamma   140.15940431
_symmetry_Int_Tables_number   1
_chemical_formula_structural   Sr5Co3F19
_chemical_formula_sum   'Sr10 Co6 F38'
_cell_volume   779.73284171
_cell_formula_units_Z   2
loop_
 _symmetry_equiv_pos_site_id
 _symmetry_equiv_pos_as_xyz
  1  'x, y, z'
loop_
 _atom_site_type_symbol
 _atom_site_label
 _atom_site_symmetry_multiplicity
 _atom_site_fract_x
 _atom_site_fract_y
 _atom_site_fract_z
 _atom_site_occupancy
  Sr  Sr0  1  0.22108300  0.04939700  0.27048000  1
  Sr  Sr1  1  0.77891700  0.95060300  0.72952000  1
  Sr  Sr2  1  0.95060300  0.22108300  0.17168600  1
  Sr  Sr3  1  0.04939700  0.77891700  0.82831400  1
  Sr  Sr4  1  0.42460100  0.25143700  0.67603900  1
  Sr  Sr5  1  0.57539900  0.74856300  0.32396100  1
  Sr  Sr6  1  0.74856300  0.42460100  0.17316400  1
  Sr  Sr7  1  0.25143700  0.57539900  0.82683600  1
  Sr  Sr8  1  0.25000000  0.75000000  0.50000000  1
  Sr  Sr9  1  0.75000000  0.25000000  0.50000000  1
  Co  Co0  1  0.17660000  0.33968100  0.51628100  1
  Co  Co1  1  0.82340000  0.66031900  0.48371900  1
  Co  Co2  1  0.66031900  0.17660000  0.83691900  1
  Co  Co3  1  0.33968100  0.82340000  0.16308100  1
  Co  Co4  1  0.25297700  0.25297700  0.00000000  1
  Co  Co5  1  0.74702300  0.74702300  0.00000000  1
  F  F0  1  0.56950800  0.42429200  0.34352500  1
  F  F1  1  0.43049200  0.57570800  0.65647500  1
  F  F2  1  0.08076600  0.22598300  0.65647500  1
  F  F3  1  0.22598300  0.56950800  0.14521600  1
  F  F4  1  0.91923400  0.77401700  0.34352500  1
  F  F5  1  0.77401700  0.43049200  0.85478400  1
  F  F6  1  0.42429200  0.08076600  0.85478400  1
  F  F7  1  0.57570800  0.91923400  0.14521600  1
  F  F8  1  0.28826400  0.36073400  0.17306500  1
  F  F9  1  0.71173600  0.63926600  0.82693500  1
  F  F10  1  0.18767000  0.11519900  0.82693500  1
  F  F11  1  0.11519900  0.28826400  0.92753000  1
  F  F12  1  0.81233000  0.88480100  0.17306500  1
  F  F13  1  0.88480100  0.71173600  0.07247000  1
  F  F14  1  0.36073400  0.18767000  0.07247000  1
  F  F15  1  0.63926600  0.81233000  0.92753000  1
  F  F16  1  0.38288000  0.07880100  0.46168200  1
  F  F17  1  0.61712000  0.92119900  0.53831800  1
  F  F18  1  0.92119900  0.38288000  0.30407900  1
  F  F19  1  0.07880100  0.61712000  0.69592100  1
  F  F20  1  0.00000000  0.00000000  0.00000000  1
  F  F21  1  0.10842600  0.45323100  0.56165700  1
  F  F22  1  0.89157400  0.54676900  0.43834300  1
  F  F23  1  0.54676900  0.10842600  0.65519500  1
  F  F24  1  0.45323100  0.89157400  0.34480500  1
  F  F25  1  0.26499100  0.47974100  0.38488400  1
  F  F26  1  0.73500900  0.52025900  0.61511600  1
  F  F27  1  0.09485700  0.88010700  0.61511600  1
  F  F28  1  0.88010700  0.26499100  0.78525000  1
  F  F29  1  0.90514300  0.11989300  0.38488400  1
  F  F30  1  0.11989300  0.73500900  0.21475000  1
  F  F31  1  0.47974100  0.09485700  0.21475000  1
  F  F32  1  0.52025900  0.90514300  0.78525000  1
  F  F33  1  0.24416200  0.22983500  0.47399700  1
  F  F34  1  0.75583800  0.77016500  0.52600300  1
  F  F35  1  0.77016500  0.24416200  0.01432700  1
  F  F36  1  0.22983500  0.75583800  0.98567300  1
  F  F37  1  0.50000000  0.50000000  0.00000000  1
loop_
_geom_bond_atom_site_label_1
_geom_bond_atom_site_label_2
_geom_bond_distance
_geom_bond_site_symmetry_2
Co0 F33 1.868739 1_555
Co0 F21 1.919214 1_555
Co0 F1 1.945124 1_555
Co0 F2 1.945126 1_555
Co0 F29 1.969389 1_455
Co0 F25 1.969389 1_555
Co1 F34 1.868739 1_555
Co1 F22 1.919214 1_555
Co1 F0 1.945124 1_555
Co1 F4 1.945126 1_555
Co1 F27 1.969389 1_655
Co1 F26 1.969389 1_555
Co2 F35 1.868739 1_556
Co2 F23 1.919214 1_555
Co2 F6 1.945119 1_555
Co2 F5 1.945124 1_555
Co2 F28 1.969389 1_555
Co2 F32 1.969389 1_545
Co3 F36 1.868739 1_554
Co3 F24 1.919214 1_555
Co3 F7 1.945119 1_555
Co3 F3 1.945124 1_555
Co3 F31 1.969389 1_565
Co3 F30 1.969389 1_555
Co4 F37 1.834543 1_555
Co4 F20 1.878762 1_555
Co4 F14 1.925735 1_555
Co4 F8 1.925745 1_555
Co4 F11 1.925745 1_554
Co4 F10 1.925749 1_554
Co5 F37 1.834543 1_555
Co5 F20 1.878762 1_665
Co5 F15 1.925735 1_554
Co5 F13 1.925745 1_555
Co5 F9 1.925745 1_554
Co5 F12 1.925749 1_555
F0 Sr0 2.542515 1_555
F0 Sr6 2.843962 1_555
F1 Sr1 2.542515 1_555
F1 Sr7 2.843962 1_555
F2 Sr1 2.542510 1_445
F2 Sr7 2.843957 1_555
F3 Sr2 2.542515 1_455
F3 Sr5 2.843957 1_555
F4 Sr0 2.542510 1_665
F4 Sr6 2.843957 1_555
F5 Sr3 2.542515 1_655
F5 Sr4 2.843957 1_555
F6 Sr3 2.542515 1_545
F6 Sr4 2.843961 1_555
F7 Sr2 2.542515 1_565
F7 Sr5 2.843961 1_555
F8 Sr2 2.690726 1_455
F8 Sr5 2.691128 1_555
F9 Sr3 2.690726 1_655
F9 Sr4 2.691128 1_555
F10 Sr3 2.690721 1_545
F10 Sr4 2.691116 1_555
F11 Sr1 2.690726 1_445
F11 Sr7 2.691132 1_555
F12 Sr2 2.690721 1_565
F12 Sr5 2.691116 1_555
F13 Sr0 2.690726 1_665
F13 Sr6 2.691132 1_555
F14 Sr0 2.690728 1_555
F14 Sr6 2.691135 1_555
F15 Sr1 2.690728 1_555
F15 Sr7 2.691135 1_555
F16 Sr0 2.382980 1_555
F16 Sr4 2.573652 1_555
F16 Sr8 2.762501 1_545
F16 Sr9 2.762506 1_555
F17 Sr1 2.382980 1_555
F17 Sr5 2.573652 1_555
F17 Sr9 2.762501 1_565
F17 Sr8 2.762506 1_555
F18 Sr2 2.382972 1_555
F18 Sr6 2.573652 1_555
F18 Sr9 2.762505 1_555
F18 Sr8 2.762505 1_655
F19 Sr3 2.382972 1_555
F19 Sr7 2.573652 1_555
F19 Sr8 2.762505 1_555
F19 Sr9 2.762505 1_455
F21 Sr8 2.524890 1_555
F21 Sr9 2.524890 1_455
F21 Sr7 2.725550 1_555
F22 Sr9 2.524890 1_555
F22 Sr8 2.524890 1_655
F22 Sr6 2.725550 1_555
F23 Sr9 2.524890 1_555
F23 Sr8 2.524890 1_545
F23 Sr4 2.725551 1_555
F24 Sr8 2.524890 1_555
F24 Sr9 2.524890 1_565
F24 Sr5 2.725551 1_555
F25 Sr5 2.494351 1_555
F25 Sr2 2.623703 1_455
F26 Sr4 2.494351 1_555
F26 Sr3 2.623703 1_655
F27 Sr4 2.494344 1_565
F27 Sr3 2.623703 1_555
F28 Sr7 2.494345 1_655
F28 Sr1 2.623703 1_545
F29 Sr5 2.494344 1_545
F29 Sr2 2.623703 1_555
F30 Sr6 2.494345 1_455
F30 Sr0 2.623703 1_565
F31 Sr6 2.494345 1_555
F31 Sr0 2.623703 1_555
F32 Sr7 2.494345 1_555
F32 Sr1 2.623703 1_555
F33 Sr4 2.633386 1_555
F33 Sr0 2.635994 1_555
F34 Sr5 2.633386 1_555
F34 Sr1 2.635994 1_555
F35 Sr6 2.633378 1_555
F35 Sr2 2.635994 1_555
F36 Sr7 2.633378 1_555
F36 Sr3 2.635994 1_555
