# generated using pymatgen
data_Fe(Mo3S4)2
_symmetry_space_group_name_H-M   'P 1'
_cell_length_a   6.48569508
_cell_length_b   6.48569508
_cell_length_c   6.48569500
_cell_angle_alpha   92.60665089
_cell_angle_beta   92.60665089
_cell_angle_gamma   92.60666312
_symmetry_Int_Tables_number   1
_chemical_formula_structural   Fe(Mo3S4)2
_chemical_formula_sum   'Fe1 Mo6 S8'
_cell_volume   271.94236000
_cell_formula_units_Z   1
loop_
 _symmetry_equiv_pos_site_id
 _symmetry_equiv_pos_as_xyz
  1  'x, y, z'
loop_
 _atom_site_type_symbol
 _atom_site_label
 _atom_site_symmetry_multiplicity
 _atom_site_fract_x
 _atom_site_fract_y
 _atom_site_fract_z
 _atom_site_occupancy
  Fe  Fe0  1  0.00000000  0.00000000  0.00000000  1
  Mo  Mo0  1  0.21795400  0.40959800  0.55123600  1
  Mo  Mo1  1  0.40959800  0.55123600  0.21795400  1
  Mo  Mo2  1  0.55123600  0.21795400  0.40959800  1
  Mo  Mo3  1  0.78204600  0.59040200  0.44876400  1
  Mo  Mo4  1  0.59040200  0.44876400  0.78204600  1
  Mo  Mo5  1  0.44876400  0.78204600  0.59040200  1
  S  S0  1  0.21670800  0.21670800  0.21670800  1
  S  S1  1  0.78329200  0.78329200  0.78329200  1
  S  S2  1  0.37514600  0.13087800  0.73825800  1
  S  S3  1  0.13087800  0.73825800  0.37514600  1
  S  S4  1  0.73825800  0.37514600  0.13087800  1
  S  S5  1  0.62485400  0.86912200  0.26174200  1
  S  S6  1  0.86912200  0.26174200  0.62485400  1
  S  S7  1  0.26174200  0.62485400  0.86912200  1
loop_
_geom_bond_atom_site_label_1
_geom_bond_atom_site_label_2
_geom_bond_distance
_geom_bond_site_symmetry_2
Fe0 S0 2.321048 1_555
Fe0 S1 2.321048 1_444
Fe0 S5 3.137050 1_445
Fe0 S2 3.137050 1_554
Fe0 S3 3.137051 1_545
Fe0 S6 3.137051 1_454
Fe0 S7 3.137051 1_544
Fe0 S4 3.137051 1_455
Mo0 S7 2.435002 1_555
Mo0 S0 2.454200 1_555
Mo0 S2 2.456220 1_555
Mo0 S6 2.491717 1_455
Mo0 S3 2.537555 1_555
Mo1 S5 2.435002 1_555
Mo1 S0 2.454200 1_555
Mo1 S3 2.456220 1_555
Mo1 S7 2.491717 1_554
Mo1 S4 2.537555 1_555
Mo2 S6 2.435002 1_555
Mo2 S0 2.454200 1_555
Mo2 S4 2.456219 1_555
Mo2 S5 2.491717 1_545
Mo2 S2 2.537555 1_555
Mo3 S4 2.435002 1_555
Mo3 S1 2.454200 1_555
Mo3 S5 2.456220 1_555
Mo3 S3 2.491717 1_655
Mo3 S6 2.537555 1_555
Mo4 S2 2.435002 1_555
Mo4 S1 2.454200 1_555
Mo4 S6 2.456220 1_555
Mo4 S4 2.491717 1_556
Mo4 S7 2.537555 1_555
Mo5 S3 2.435002 1_555
Mo5 S1 2.454200 1_555
Mo5 S7 2.456219 1_555
Mo5 S2 2.491717 1_565
Mo5 S5 2.537555 1_555
