# generated using pymatgen
data_Y3Th
_symmetry_space_group_name_H-M   'P 1'
_cell_length_a   6.17721300
_cell_length_b   6.17721300
_cell_length_c   6.17721300
_cell_angle_alpha   130.80334949
_cell_angle_beta   130.80334949
_cell_angle_gamma   72.12570220
_symmetry_Int_Tables_number   1
_chemical_formula_structural   Y3Th
_chemical_formula_sum   'Y3 Th1'
_cell_volume   132.05842967
_cell_formula_units_Z   1
loop_
 _symmetry_equiv_pos_site_id
 _symmetry_equiv_pos_as_xyz
  1  'x, y, z'
loop_
 _atom_site_type_symbol
 _atom_site_label
 _atom_site_symmetry_multiplicity
 _atom_site_fract_x
 _atom_site_fract_y
 _atom_site_fract_z
 _atom_site_occupancy
  Y  Y0  1  0.75000000  0.25000000  0.50000000  1
  Y  Y1  1  0.25000000  0.75000000  0.50000000  1
  Y  Y2  1  0.50000000  0.50000000  -0.00000000  1
  Th  Th0  1  -0.00000000  -0.00000000  -0.00000000  1
loop_
_geom_bond_atom_site_label_1
_geom_bond_atom_site_label_2
_geom_bond_distance
_geom_bond_site_symmetry_2
Y0 Y2 3.584028 1_656
Y0 Y2 3.584028 1_556
Y0 Y2 3.584028 1_545
Y0 Y2 3.584028 1_555
Y0 Y1 3.636355 1_555
Y0 Y1 3.636355 1_544
Y0 Y1 3.636355 1_656
Y0 Y1 3.636355 1_645
Y1 Y2 3.584028 1_566
Y1 Y2 3.584028 1_556
Y1 Y2 3.584028 1_455
Y1 Y2 3.584028 1_555
Th0 Y0 3.584028 1_454
Th0 Y0 3.584028 1_444
Th0 Y0 3.584028 1_555
Th0 Y1 3.584028 1_544
Th0 Y1 3.584028 1_444
Th0 Y1 3.584028 1_545
Th0 Y1 3.584028 1_555
Th0 Y0 3.584028 1_455
Th0 Y2 3.636355 1_545
Th0 Y2 3.636355 1_455
Th0 Y2 3.636355 1_556
Th0 Y2 3.636355 1_444
