# generated using pymatgen
data_Sr3Ca(CuO2)4
_symmetry_space_group_name_H-M   'P 1'
_cell_length_a   3.42396100
_cell_length_b   3.94792900
_cell_length_c   15.68480900
_cell_angle_alpha   90.00000000
_cell_angle_beta   90.00000000
_cell_angle_gamma   90.00000000
_symmetry_Int_Tables_number   1
_chemical_formula_structural   Sr3Ca(CuO2)4
_chemical_formula_sum   'Sr3 Ca1 Cu4 O8'
_cell_volume   212.02026717
_cell_formula_units_Z   1
loop_
 _symmetry_equiv_pos_site_id
 _symmetry_equiv_pos_as_xyz
  1  'x, y, z'
loop_
 _atom_site_type_symbol
 _atom_site_label
 _atom_site_symmetry_multiplicity
 _atom_site_fract_x
 _atom_site_fract_y
 _atom_site_fract_z
 _atom_site_occupancy
  Sr  Sr0  1  0.50000000  0.50000000  0.24827300  1
  Sr  Sr1  1  0.50000000  0.50000000  0.50000000  1
  Sr  Sr2  1  0.50000000  0.50000000  0.75172700  1
  Ca  Ca0  1  0.50000000  0.50000000  0.00000000  1
  Cu  Cu0  1  0.00000000  0.00000000  0.87723000  1
  Cu  Cu1  1  0.00000000  0.00000000  0.12277000  1
  Cu  Cu2  1  0.00000000  0.00000000  0.37446700  1
  Cu  Cu3  1  0.00000000  0.00000000  0.62553300  1
  O  O0  1  0.00000000  0.50000000  0.88222600  1
  O  O1  1  0.00000000  0.50000000  0.11777400  1
  O  O2  1  0.00000000  0.50000000  0.37419400  1
  O  O3  1  0.00000000  0.50000000  0.62580600  1
  O  O4  1  0.00000000  0.00000000  0.00000000  1
  O  O5  1  0.00000000  0.00000000  0.24829900  1
  O  O6  1  0.00000000  0.00000000  0.50000000  1
  O  O7  1  0.00000000  0.00000000  0.75170100  1
loop_
_geom_bond_atom_site_label_1
_geom_bond_atom_site_label_2
_geom_bond_distance
_geom_bond_site_symmetry_2
Ca0 O1 2.518582 1_655
Ca0 O1 2.518582 1_555
Ca0 O0 2.518582 1_554
Ca0 O0 2.518582 1_654
Ca0 O4 2.612932 1_555
Ca0 O4 2.612932 1_565
Ca0 O4 2.612932 1_655
Ca0 O4 2.612932 1_665
Cu0 O4 1.925624 1_556
Cu0 O7 1.968898 1_555
Cu0 O0 1.975519 1_545
Cu0 O0 1.975519 1_555
Cu1 O4 1.925624 1_555
Cu1 O5 1.968898 1_555
Cu1 O1 1.975519 1_545
Cu1 O1 1.975519 1_555
Cu2 O6 1.968961 1_555
Cu2 O2 1.973969 1_545
Cu2 O2 1.973969 1_555
Cu2 O5 1.978921 1_555
Cu3 O6 1.968961 1_555
Cu3 O3 1.973969 1_555
Cu3 O3 1.973969 1_545
Cu3 O7 1.978921 1_555
O0 Sr2 2.668423 1_455
O0 Sr2 2.668423 1_555
O1 Sr0 2.668423 1_555
O1 Sr0 2.668423 1_455
O2 Sr1 2.612387 1_455
O2 Sr1 2.612387 1_555
O2 Sr0 2.613750 1_455
O2 Sr0 2.613750 1_555
O3 Sr1 2.612387 1_455
O3 Sr1 2.612387 1_555
O3 Sr2 2.613750 1_455
O3 Sr2 2.613750 1_555
O5 Sr0 2.612932 1_445
O5 Sr0 2.612932 1_545
O5 Sr0 2.612932 1_455
O5 Sr0 2.612932 1_555
O6 Sr1 2.612932 1_445
O6 Sr1 2.612932 1_545
O6 Sr1 2.612932 1_455
O6 Sr1 2.612932 1_555
O7 Sr2 2.612932 1_455
O7 Sr2 2.612932 1_545
O7 Sr2 2.612932 1_555
O7 Sr2 2.612932 1_445
