# generated using pymatgen
data_ScNb(NiSn)2
_symmetry_space_group_name_H-M   'P 1'
_cell_length_a   7.45148305
_cell_length_b   7.45148305
_cell_length_c   7.45148367
_cell_angle_alpha   33.39818528
_cell_angle_beta   33.39818528
_cell_angle_gamma   33.39818503
_symmetry_Int_Tables_number   1
_chemical_formula_structural   ScNb(NiSn)2
_chemical_formula_sum   'Sc1 Nb1 Ni2 Sn2'
_cell_volume   111.63496844
_cell_formula_units_Z   1
loop_
 _symmetry_equiv_pos_site_id
 _symmetry_equiv_pos_as_xyz
  1  'x, y, z'
loop_
 _atom_site_type_symbol
 _atom_site_label
 _atom_site_symmetry_multiplicity
 _atom_site_fract_x
 _atom_site_fract_y
 _atom_site_fract_z
 _atom_site_occupancy
  Sc  Sc0  1  0.99931200  0.99931200  0.99931200  1
  Nb  Nb0  1  0.50142000  0.50142000  0.50142000  1
  Ni  Ni0  1  0.12858800  0.12858800  0.12858800  1
  Ni  Ni1  1  0.62100900  0.62100900  0.62100900  1
  Sn  Sn0  1  0.75002700  0.75002700  0.75002700  1
  Sn  Sn1  1  0.24964200  0.24964200  0.24964200  1
loop_
_geom_bond_atom_site_label_1
_geom_bond_atom_site_label_2
_geom_bond_distance
_geom_bond_site_symmetry_2
Sc0 Sn1 3.029278 1_656
Sc0 Sn1 3.029278 1_566
Sc0 Sn1 3.029278 1_665
Sc0 Sn0 3.042065 1_655
Sc0 Sn0 3.042065 1_565
Sc0 Sn0 3.042065 1_556
Nb0 Ni1 2.521903 1_555
Nb0 Ni0 2.608927 1_556
Nb0 Ni0 2.608927 1_565
Nb0 Ni0 2.608927 1_655
Nb0 Sn1 3.011737 1_655
Nb0 Sn1 3.011737 1_565
Nb0 Sn1 3.011738 1_556
Nb0 Sn0 3.050417 1_545
Nb0 Sn0 3.050417 1_455
Nb0 Sn0 3.050418 1_554
Ni0 Sn1 2.552797 1_555
Ni0 Sn0 2.649973 1_445
Ni0 Sn0 2.649974 1_454
Ni0 Sn0 2.649974 1_544
Ni0 Sc0 2.726183 1_444
Ni1 Sn1 2.599228 1_556
Ni1 Sn1 2.599228 1_655
Ni1 Sn1 2.599228 1_565
Ni1 Sc0 2.648020 1_554
Ni1 Sc0 2.648020 1_545
Ni1 Sc0 2.648020 1_455
Ni1 Sn0 2.720742 1_555
