# generated using pymatgen
data_Cs2ZnI4
_symmetry_space_group_name_H-M   'P 1'
_cell_length_a   8.56860600
_cell_length_b   14.97348800
_cell_length_c   33.29865400
_cell_angle_alpha   90.00000000
_cell_angle_beta   90.00000000
_cell_angle_gamma   90.00000000
_symmetry_Int_Tables_number   1
_chemical_formula_structural   Cs2ZnI4
_chemical_formula_sum   'Cs24 Zn12 I48'
_cell_volume   4272.28121224
_cell_formula_units_Z   12
loop_
 _symmetry_equiv_pos_site_id
 _symmetry_equiv_pos_as_xyz
  1  'x, y, z'
loop_
 _atom_site_type_symbol
 _atom_site_label
 _atom_site_symmetry_multiplicity
 _atom_site_fract_x
 _atom_site_fract_y
 _atom_site_fract_z
 _atom_site_occupancy
  Cs  Cs0  1  0.74968500  0.16490100  0.50817100  1
  Cs  Cs1  1  0.24968500  0.83509900  0.49182900  1
  Cs  Cs2  1  0.24968500  0.66490100  0.99182900  1
  Cs  Cs3  1  0.74968500  0.33509900  0.00817100  1
  Cs  Cs4  1  0.74499700  0.16661400  0.84155800  1
  Cs  Cs5  1  0.24499700  0.83338600  0.15844200  1
  Cs  Cs6  1  0.24499700  0.66661400  0.65844200  1
  Cs  Cs7  1  0.74499700  0.33338600  0.34155800  1
  Cs  Cs8  1  0.74920700  0.16453700  0.17489400  1
  Cs  Cs9  1  0.24920700  0.83546300  0.82510600  1
  Cs  Cs10  1  0.24920700  0.66453700  0.32510600  1
  Cs  Cs11  1  0.74920700  0.33546300  0.67489400  1
  Cs  Cs12  1  0.74874100  0.89711200  0.62314100  1
  Cs  Cs13  1  0.24874100  0.10288800  0.37685900  1
  Cs  Cs14  1  0.24874100  0.39711200  0.87685900  1
  Cs  Cs15  1  0.74874100  0.60288800  0.12314100  1
  Cs  Cs16  1  0.75371100  0.90033000  0.95680100  1
  Cs  Cs17  1  0.25371100  0.09967000  0.04319900  1
  Cs  Cs18  1  0.25371100  0.40033000  0.54319900  1
  Cs  Cs19  1  0.75371100  0.59967000  0.45680100  1
  Cs  Cs20  1  0.74282300  0.89574400  0.28979100  1
  Cs  Cs21  1  0.24282300  0.10425600  0.71020900  1
  Cs  Cs22  1  0.24282300  0.39574400  0.21020900  1
  Cs  Cs23  1  0.74282300  0.60425600  0.78979100  1
  Zn  Zn0  1  0.74601900  0.92366100  0.75453000  1
  Zn  Zn1  1  0.24601900  0.07633900  0.24547000  1
  Zn  Zn2  1  0.24601900  0.42366100  0.74547000  1
  Zn  Zn3  1  0.74601900  0.57633900  0.25453000  1
  Zn  Zn4  1  0.75041100  0.92221600  0.08791700  1
  Zn  Zn5  1  0.25041100  0.07778400  0.91208300  1
  Zn  Zn6  1  0.25041100  0.42221600  0.41208300  1
  Zn  Zn7  1  0.75041100  0.57778400  0.58791700  1
  Zn  Zn8  1  0.74278800  0.92163100  0.42108900  1
  Zn  Zn9  1  0.24278800  0.07836900  0.57891100  1
  Zn  Zn10  1  0.24278800  0.42163100  0.07891100  1
  Zn  Zn11  1  0.74278800  0.57836900  0.92108900  1
  I  I0  1  0.73752100  0.90115200  0.49949000  1
  I  I1  1  0.23752100  0.09884800  0.50051000  1
  I  I2  1  0.23752100  0.40115200  0.00051000  1
  I  I3  1  0.73752100  0.59884800  0.99949000  1
  I  I4  1  0.74942300  0.90237500  0.83287700  1
  I  I5  1  0.24942300  0.09762500  0.16712300  1
  I  I6  1  0.24942300  0.40237500  0.66712300  1
  I  I7  1  0.74942300  0.59762500  0.33287700  1
  I  I8  1  0.75458000  0.90059300  0.16619400  1
  I  I9  1  0.25458000  0.09940700  0.83380600  1
  I  I10  1  0.25458000  0.40059300  0.33380600  1
  I  I11  1  0.75458000  0.59940700  0.66619400  1
  I  I12  1  0.72661200  0.09217500  0.73050400  1
  I  I13  1  0.22661200  0.90782500  0.26949600  1
  I  I14  1  0.22661200  0.59217500  0.76949600  1
  I  I15  1  0.72661200  0.40782500  0.23050400  1
  I  I16  1  0.75828100  0.09087400  0.06370400  1
  I  I17  1  0.25828100  0.90912600  0.93629600  1
  I  I18  1  0.25828100  0.59087400  0.43629600  1
  I  I19  1  0.75828100  0.40912600  0.56370400  1
  I  I20  1  0.75848700  0.09039600  0.39712400  1
  I  I21  1  0.25848700  0.90960400  0.60287600  1
  I  I22  1  0.25848700  0.59039600  0.10287600  1
  I  I23  1  0.75848700  0.40960400  0.89712400  1
  I  I24  1  0.50072900  0.84007900  0.72464800  1
  I  I25  1  0.00072900  0.15992100  0.27535200  1
  I  I26  1  0.00072900  0.34007900  0.77535200  1
  I  I27  1  0.50072900  0.65992100  0.22464800  1
  I  I28  1  0.49366700  0.85229100  0.05746200  1
  I  I29  1  0.99366700  0.14770900  0.94253800  1
  I  I30  1  0.99366700  0.35229100  0.44253800  1
  I  I31  1  0.49366700  0.64770900  0.55746200  1
  I  I32  1  0.48466300  0.85588700  0.38920900  1
  I  I33  1  0.98466300  0.14411300  0.61079100  1
  I  I34  1  0.98466300  0.35588700  0.11079100  1
  I  I35  1  0.48466300  0.64411300  0.88920900  1
  I  I36  1  0.50521600  0.14254600  0.27636100  1
  I  I37  1  0.00521600  0.85745400  0.72363900  1
  I  I38  1  0.00521600  0.64254600  0.22363900  1
  I  I39  1  0.50521600  0.35745400  0.77636100  1
  I  I40  1  0.49858200  0.15740300  0.94267000  1
  I  I41  1  0.99858200  0.84259700  0.05733000  1
  I  I42  1  0.99858200  0.65740300  0.55733000  1
  I  I43  1  0.49858200  0.34259700  0.44267000  1
  I  I44  1  0.48995800  0.16151500  0.60763300  1
  I  I45  1  0.98995800  0.83848500  0.39236700  1
  I  I46  1  0.98995800  0.66151500  0.89236700  1
  I  I47  1  0.48995800  0.33848500  0.10763300  1
loop_
_geom_bond_atom_site_label_1
_geom_bond_atom_site_label_2
_geom_bond_distance
_geom_bond_site_symmetry_2
Cs0 I20 3.863075 1_555
Cs0 I0 3.961179 1_545
Cs0 I33 3.978370 1_555
Cs0 I44 3.990543 1_555
Cs0 I43 4.057838 1_555
Cs0 I19 4.098511 1_555
Cs0 I30 4.125517 1_555
Cs0 I1 4.303058 1_655
Cs0 I1 4.505829 1_555
Cs1 I21 3.863075 1_555
Cs1 I1 3.961179 1_565
Cs1 I32 3.978370 1_555
Cs1 I45 3.990543 1_455
Cs1 I42 4.057838 1_455
Cs1 I18 4.098511 1_555
Cs1 I31 4.125517 1_555
Cs1 I0 4.303058 1_555
Cs1 I0 4.505829 1_455
Cs2 I22 3.863075 1_556
Cs2 I2 3.961179 1_556
Cs2 I35 3.978370 1_555
Cs2 I46 3.990543 1_455
Cs2 I41 4.057838 1_456
Cs2 I17 4.098511 1_555
Cs2 I28 4.125517 1_556
Cs2 I3 4.303058 1_555
Cs2 I3 4.505829 1_455
Cs3 I23 3.863075 1_554
Cs3 I3 3.961179 1_554
Cs3 I34 3.978370 1_555
Cs3 I47 3.990543 1_555
Cs3 I40 4.057838 1_554
Cs3 I16 4.098511 1_555
Cs3 I29 4.125517 1_554
Cs3 I2 4.303058 1_655
Cs3 I2 4.505829 1_555
Cs4 I12 3.865488 1_555
Cs4 I4 3.967306 1_545
Cs4 I40 3.976574 1_555
Cs4 I29 3.990820 1_555
Cs4 I26 4.050697 1_655
Cs4 I23 4.083489 1_555
Cs4 I39 4.135214 1_555
Cs4 I9 4.328709 1_555
Cs4 I9 4.488308 1_655
Cs5 I13 3.865488 1_555
Cs5 I5 3.967306 1_565
Cs5 I41 3.976574 1_455
Cs5 I28 3.990820 1_555
Cs5 I27 4.050697 1_555
Cs5 I22 4.083489 1_555
Cs5 I38 4.135214 1_555
Cs5 I8 4.328709 1_455
Cs5 I8 4.488308 1_555
Cs6 I14 3.865488 1_555
Cs6 I6 3.967306 1_555
Cs6 I42 3.976574 1_455
Cs6 I31 3.990820 1_555
Cs6 I24 4.050697 1_555
Cs6 I21 4.083489 1_555
Cs6 I37 4.135214 1_555
Cs6 I11 4.328709 1_455
Cs6 I11 4.488308 1_555
Cs7 I15 3.865488 1_555
Cs7 I7 3.967306 1_555
Cs7 I43 3.976574 1_555
Cs7 I30 3.990820 1_555
Cs7 I25 4.050697 1_655
Cs7 I20 4.083489 1_555
Cs7 I36 4.135214 1_555
Cs7 I10 4.328709 1_555
Cs7 I10 4.488308 1_655
Cs8 I16 3.864062 1_555
Cs8 I8 3.963033 1_545
Cs8 I25 3.979879 1_655
Cs8 I36 3.986855 1_555
Cs8 I47 4.090828 1_555
Cs8 I15 4.091078 1_555
Cs8 I34 4.103162 1_555
Cs8 I5 4.405698 1_555
Cs8 I5 4.409296 1_655
Cs9 I17 3.864062 1_555
Cs9 I9 3.963033 1_565
Cs9 I24 3.979879 1_555
Cs9 I37 3.986855 1_555
Cs9 I46 4.090828 1_455
Cs9 I14 4.091078 1_555
Cs9 I35 4.103162 1_555
Cs9 I4 4.405698 1_455
Cs9 I4 4.409296 1_555
Cs10 I18 3.864062 1_555
Cs10 I10 3.963033 1_555
Cs10 I27 3.979879 1_555
Cs10 I38 3.986855 1_555
Cs10 I45 4.090828 1_455
Cs10 I13 4.091078 1_555
Cs10 I32 4.103162 1_555
Cs10 I7 4.405698 1_455
Cs10 I7 4.409296 1_555
Cs11 I19 3.864062 1_555
Cs11 I11 3.963033 1_555
Cs11 I26 3.979879 1_655
Cs11 I39 3.986855 1_555
Cs11 I44 4.090828 1_555
Cs11 I12 4.091078 1_555
Cs11 I33 4.103162 1_555
Cs11 I6 4.405698 1_555
Cs11 I6 4.409296 1_655
Cs12 I37 4.047336 1_655
Cs12 I24 4.082906 1_555
Cs12 I0 4.118978 1_555
Cs12 I33 4.234894 1_565
Cs12 I21 4.258756 1_555
Cs12 I21 4.423587 1_655
Cs13 I36 4.047336 1_555
Cs13 I25 4.082906 1_555
Cs13 I1 4.118978 1_555
Cs13 I32 4.234894 1_545
Cs13 I20 4.258756 1_455
Cs13 I20 4.423587 1_555
Cs14 I39 4.047336 1_555
Cs14 I26 4.082906 1_555
Cs14 I2 4.118978 1_556
Cs14 I35 4.234894 1_555
Cs14 I23 4.258756 1_455
Cs14 I23 4.423587 1_555
Cs15 I38 4.047336 1_655
Cs15 I27 4.082906 1_555
Cs15 I3 4.118978 1_554
Cs15 I34 4.234894 1_555
Cs15 I22 4.258756 1_555
Cs15 I22 4.423587 1_655
Cs16 I41 4.044179 1_556
Cs16 I28 4.088694 1_556
Cs16 I4 4.126780 1_555
Cs16 I29 4.263053 1_565
Cs16 I17 4.301720 1_555
Cs16 I17 4.379026 1_655
Cs16 I40 4.451673 1_565
Cs17 I40 4.044179 1_554
Cs17 I29 4.088694 1_454
Cs17 I5 4.126780 1_555
Cs17 I28 4.263053 1_545
Cs17 I16 4.301720 1_455
Cs17 I16 4.379026 1_555
Cs17 I41 4.451673 1_445
Cs18 I43 4.044179 1_555
Cs18 I30 4.088694 1_455
Cs18 I6 4.126780 1_555
Cs18 I31 4.263053 1_555
Cs18 I19 4.301720 1_455
Cs18 I19 4.379026 1_555
Cs18 I42 4.451673 1_455
Cs19 I42 4.044179 1_555
Cs19 I31 4.088694 1_555
Cs19 I7 4.126780 1_555
Cs19 I30 4.263053 1_555
Cs19 I18 4.301720 1_555
Cs19 I18 4.379026 1_655
Cs19 I43 4.451673 1_555
Cs20 I32 4.026008 1_555
Cs20 I45 4.109250 1_555
Cs20 I8 4.117487 1_555
Cs20 I13 4.204015 1_655
Cs20 I36 4.242847 1_565
Cs21 I33 4.026008 1_455
Cs21 I44 4.109250 1_555
Cs21 I9 4.117487 1_555
Cs21 I12 4.204015 1_555
Cs21 I37 4.242847 1_545
Cs22 I34 4.026008 1_455
Cs22 I47 4.109250 1_555
Cs22 I10 4.117487 1_555
Cs22 I15 4.204015 1_555
Cs22 I38 4.242847 1_555
Cs23 I35 4.026008 1_555
Cs23 I46 4.109250 1_555
Cs23 I11 4.117487 1_555
Cs23 I14 4.204015 1_655
Cs23 I39 4.242847 1_555
I0 Zn8 2.628982 1_555
I1 Zn9 2.628982 1_555
I2 Zn10 2.628982 1_555
I3 Zn11 2.628982 1_555
I4 Zn0 2.628409 1_555
I5 Zn1 2.628409 1_555
I6 Zn2 2.628409 1_555
I7 Zn3 2.628409 1_555
I8 Zn4 2.626794 1_555
I9 Zn5 2.626794 1_555
I10 Zn6 2.626794 1_555
I11 Zn7 2.626794 1_555
I12 Zn0 2.652255 1_545
I13 Zn1 2.652255 1_565
I14 Zn2 2.652255 1_555
I15 Zn3 2.652255 1_555
I16 Zn4 2.651837 1_545
I17 Zn5 2.651837 1_565
I18 Zn6 2.651837 1_555
I19 Zn7 2.651837 1_555
I20 Zn8 2.653420 1_545
I21 Zn9 2.653420 1_565
I22 Zn10 2.653420 1_555
I23 Zn11 2.653420 1_555
I24 Zn0 2.640816 1_555
I25 Zn1 2.640816 1_555
I26 Zn2 2.640816 1_555
I27 Zn3 2.640816 1_555
I28 Zn4 2.639015 1_555
I29 Zn5 2.639015 1_655
I30 Zn6 2.639015 1_655
I31 Zn7 2.639015 1_555
I32 Zn8 2.643468 1_555
I33 Zn9 2.643468 1_655
I34 Zn10 2.643468 1_655
I35 Zn11 2.643468 1_555
I36 Zn1 2.640739 1_555
I37 Zn0 2.640739 1_455
I38 Zn3 2.640739 1_455
I39 Zn2 2.640739 1_555
I40 Zn5 2.642073 1_555
I41 Zn4 2.642073 1_555
I42 Zn7 2.642073 1_555
I43 Zn6 2.642073 1_555
I44 Zn9 2.636325 1_555
I45 Zn8 2.636325 1_555
I46 Zn11 2.636325 1_555
I47 Zn10 2.636325 1_555
