# generated using pymatgen
data_Ge2SbO6
_symmetry_space_group_name_H-M   'P 1'
_cell_length_a   9.38167600
_cell_length_b   5.71082700
_cell_length_c   10.38667021
_cell_angle_alpha   74.26943697
_cell_angle_beta   90.00000000
_cell_angle_gamma   90.00000000
_symmetry_Int_Tables_number   1
_chemical_formula_structural   Ge2SbO6
_chemical_formula_sum   'Ge8 Sb4 O24'
_cell_volume   535.64596916
_cell_formula_units_Z   4
loop_
 _symmetry_equiv_pos_site_id
 _symmetry_equiv_pos_as_xyz
  1  'x, y, z'
loop_
 _atom_site_type_symbol
 _atom_site_label
 _atom_site_symmetry_multiplicity
 _atom_site_fract_x
 _atom_site_fract_y
 _atom_site_fract_z
 _atom_site_occupancy
  Ge  Ge0  1  0.67271300  0.76206000  0.05155000  1
  Ge  Ge1  1  0.17271300  0.73794000  0.94845000  1
  Ge  Ge2  1  0.32728700  0.23794000  0.94845000  1
  Ge  Ge3  1  0.82728700  0.26206000  0.05155000  1
  Ge  Ge4  1  0.66559700  0.67674700  0.46612600  1
  Ge  Ge5  1  0.16559700  0.82325300  0.53387400  1
  Ge  Ge6  1  0.33440300  0.32325300  0.53387400  1
  Ge  Ge7  1  0.83440300  0.17674700  0.46612600  1
  Sb  Sb0  1  0.36683600  0.74725300  0.24151700  1
  Sb  Sb1  1  0.86683600  0.75274700  0.75848300  1
  Sb  Sb2  1  0.63316400  0.25274700  0.75848300  1
  Sb  Sb3  1  0.13316400  0.24725300  0.24151700  1
  O  O0  1  0.74850100  0.96187600  0.40028500  1
  O  O1  1  0.24850100  0.53812400  0.59971500  1
  O  O2  1  0.25149900  0.03812400  0.59971500  1
  O  O3  1  0.75149900  0.46187600  0.40028500  1
  O  O4  1  0.70161200  0.02442200  0.10869300  1
  O  O5  1  0.20161200  0.47557800  0.89130700  1
  O  O6  1  0.29838800  0.97557800  0.89130700  1
  O  O7  1  0.79838800  0.52442200  0.10869300  1
  O  O8  1  0.01207500  0.22445800  0.40812900  1
  O  O9  1  0.51207500  0.27554200  0.59187100  1
  O  O10  1  0.98792500  0.77554200  0.59187100  1
  O  O11  1  0.48792500  0.72445800  0.40812900  1
  O  O12  1  0.99597800  0.15602700  0.11188600  1
  O  O13  1  0.49597800  0.34397300  0.88811400  1
  O  O14  1  0.00402200  0.84397300  0.88811400  1
  O  O15  1  0.50402200  0.65602700  0.11188600  1
  O  O16  1  0.69061500  0.86586500  0.87020200  1
  O  O17  1  0.19061500  0.63413500  0.12979800  1
  O  O18  1  0.30938500  0.13413500  0.12979800  1
  O  O19  1  0.80938500  0.36586500  0.87020200  1
  O  O20  1  0.69284300  0.60275500  0.64806500  1
  O  O21  1  0.19284300  0.89724500  0.35193500  1
  O  O22  1  0.30715700  0.39724500  0.35193500  1
  O  O23  1  0.80715700  0.10275500  0.64806500  1
loop_
_geom_bond_atom_site_label_1
_geom_bond_atom_site_label_2
_geom_bond_distance
_geom_bond_site_symmetry_2
Ge0 O15 1.748795 1_555
Ge0 O7 1.774093 1_555
Ge0 O4 1.775637 1_565
Ge0 O16 1.822670 1_554
Ge1 O14 1.748795 1_555
Ge1 O6 1.774093 1_555
Ge1 O5 1.775637 1_555
Ge1 O17 1.822670 1_556
Ge2 O13 1.748795 1_555
Ge2 O5 1.774093 1_555
Ge2 O6 1.775637 1_545
Ge2 O18 1.822670 1_556
Ge3 O12 1.748795 1_555
Ge3 O4 1.774093 1_555
Ge3 O7 1.775637 1_555
Ge3 O19 1.822670 1_554
Ge4 O3 1.754404 1_555
Ge4 O0 1.766422 1_555
Ge4 O11 1.768205 1_555
Ge4 O20 1.839030 1_555
Ge5 O2 1.754404 1_565
Ge5 O1 1.766422 1_555
Ge5 O10 1.768205 1_455
Ge5 O21 1.839030 1_555
Ge6 O1 1.754404 1_555
Ge6 O2 1.766422 1_555
Ge6 O9 1.768205 1_555
Ge6 O22 1.839030 1_555
Ge7 O0 1.754404 1_545
Ge7 O3 1.766422 1_555
Ge7 O8 1.768205 1_655
Ge7 O23 1.839030 1_555
O8 Sb3 2.044532 1_555
O9 Sb2 2.044532 1_555
O10 Sb1 2.044532 1_555
O11 Sb0 2.044532 1_555
O12 Sb3 2.030052 1_655
O13 Sb2 2.030052 1_555
O14 Sb1 2.030052 1_455
O15 Sb0 2.030052 1_555
O16 Sb1 2.214385 1_555
O16 Sb2 2.264591 1_565
O17 Sb0 2.214385 1_555
O17 Sb3 2.264591 1_555
O18 Sb3 2.214385 1_555
O18 Sb0 2.264591 1_545
O19 Sb2 2.214385 1_555
O19 Sb1 2.264591 1_555
O20 Sb2 2.093115 1_555
O20 Sb1 2.290476 1_555
O21 Sb3 2.093115 1_565
O21 Sb0 2.290476 1_555
O22 Sb0 2.093115 1_555
O22 Sb3 2.290476 1_555
O23 Sb1 2.093115 1_545
O23 Sb2 2.290476 1_555
