# generated using pymatgen
data_MgCu3P3O13
_symmetry_space_group_name_H-M   'P 1'
_cell_length_a   6.13806300
_cell_length_b   7.56695700
_cell_length_c   10.08761326
_cell_angle_alpha   79.41029745
_cell_angle_beta   90.00000000
_cell_angle_gamma   90.00000000
_symmetry_Int_Tables_number   1
_chemical_formula_structural   MgCu3P3O13
_chemical_formula_sum   'Mg2 Cu6 P6 O26'
_cell_volume   460.55402825
_cell_formula_units_Z   2
loop_
 _symmetry_equiv_pos_site_id
 _symmetry_equiv_pos_as_xyz
  1  'x, y, z'
loop_
 _atom_site_type_symbol
 _atom_site_label
 _atom_site_symmetry_multiplicity
 _atom_site_fract_x
 _atom_site_fract_y
 _atom_site_fract_z
 _atom_site_occupancy
  Mg  Mg0  1  0.75000000  0.35627600  0.17821900  1
  Mg  Mg1  1  0.25000000  0.64372400  0.82178100  1
  Cu  Cu0  1  0.25000000  0.64918300  0.20298200  1
  Cu  Cu1  1  0.75000000  0.35081700  0.79701800  1
  Cu  Cu2  1  0.25000000  0.23856900  0.43082400  1
  Cu  Cu3  1  0.50000000  0.00000000  0.00000000  1
  Cu  Cu4  1  0.75000000  0.76143100  0.56917600  1
  Cu  Cu5  1  0.00000000  0.00000000  0.00000000  1
  P  P0  1  0.25000000  0.78961700  0.48880000  1
  P  P1  1  0.75000000  0.21038300  0.51120000  1
  P  P2  1  0.25000000  0.26242600  0.75933900  1
  P  P3  1  0.75000000  0.73757400  0.24066100  1
  P  P4  1  0.75000000  0.68007800  0.88746900  1
  P  P5  1  0.25000000  0.31992200  0.11253100  1
  O  O0  1  0.75000000  0.62035100  0.74565300  1
  O  O1  1  0.56214100  0.24898500  0.40351400  1
  O  O2  1  0.25000000  0.20002000  0.62534800  1
  O  O3  1  0.53508700  0.78583600  0.89362600  1
  O  O4  1  0.75000000  0.35604600  0.59955000  1
  O  O5  1  0.75000000  0.11911600  0.90436900  1
  O  O6  1  0.25000000  0.64395400  0.40045000  1
  O  O7  1  0.03508700  0.21416400  0.10637400  1
  O  O8  1  0.25000000  0.97498400  0.39923400  1
  O  O9  1  0.75000000  0.02501600  0.60076600  1
  O  O10  1  0.06254800  0.38833100  0.78867100  1
  O  O11  1  0.25000000  0.88088400  0.09563100  1
  O  O12  1  0.56254800  0.61166900  0.21132900  1
  O  O13  1  0.75000000  0.49497400  0.98019900  1
  O  O14  1  0.75000000  0.79998000  0.37465200  1
  O  O15  1  0.46491300  0.21416400  0.10637400  1
  O  O16  1  0.93785900  0.24898500  0.40351400  1
  O  O17  1  0.43785900  0.75101500  0.59648600  1
  O  O18  1  0.43745200  0.38833100  0.78867100  1
  O  O19  1  0.25000000  0.37964900  0.25434700  1
  O  O20  1  0.75000000  0.91227400  0.12870400  1
  O  O21  1  0.25000000  0.08772600  0.87129600  1
  O  O22  1  0.93745200  0.61166900  0.21132900  1
  O  O23  1  0.96491300  0.78583600  0.89362600  1
  O  O24  1  0.06214100  0.75101500  0.59648600  1
  O  O25  1  0.25000000  0.50502600  0.01980100  1
loop_
_geom_bond_atom_site_label_1
_geom_bond_atom_site_label_2
_geom_bond_distance
_geom_bond_site_symmetry_2
Mg0 O13 2.078736 1_554
Mg0 O7 2.242807 1_655
Mg0 O15 2.242807 1_555
Mg0 O22 2.325382 1_555
Mg0 O12 2.325382 1_555
Mg0 O16 2.544737 1_555
Mg0 O1 2.544737 1_555
Mg1 O25 2.078736 1_556
Mg1 O3 2.242807 1_555
Mg1 O23 2.242807 1_455
Mg1 O18 2.325382 1_555
Mg1 O10 2.325382 1_555
Mg1 O17 2.544737 1_555
Mg1 O24 2.544737 1_555
Cu0 O11 1.883831 1_555
Cu0 O12 1.938890 1_555
Cu0 O22 1.938890 1_455
Cu0 O6 1.985090 1_555
Cu0 O19 2.009933 1_555
Cu0 O25 2.312004 1_555
Cu1 O5 1.883831 1_555
Cu1 O10 1.938890 1_655
Cu1 O18 1.938890 1_555
Cu1 O4 1.985090 1_555
Cu1 O0 2.009933 1_555
Cu1 O13 2.312004 1_555
Cu2 O19 1.900095 1_555
Cu2 O2 1.930093 1_555
Cu2 O16 1.935189 1_455
Cu2 O1 1.935189 1_555
Cu2 O8 2.076857 1_545
Cu3 O11 1.943758 1_545
Cu3 O5 1.943758 1_554
Cu3 O20 2.040649 1_545
Cu3 O21 2.040649 1_554
Cu3 O15 2.112639 1_555
Cu3 O3 2.112639 1_544
Cu4 O0 1.900095 1_555
Cu4 O14 1.930093 1_555
Cu4 O24 1.935189 1_655
Cu4 O17 1.935189 1_555
Cu4 O9 2.076857 1_565
Cu5 O11 1.943758 1_545
Cu5 O5 1.943758 1_454
Cu5 O20 2.040649 1_445
Cu5 O21 2.040649 1_554
Cu5 O7 2.112639 1_555
Cu5 O23 2.112639 1_444
O0 P4 1.577490 1_555
O1 P1 1.574278 1_555
O2 P2 1.511473 1_555
O3 P4 1.550067 1_555
O4 P1 1.539569 1_555
O6 P0 1.539569 1_555
O7 P5 1.550067 1_555
O8 P0 1.522495 1_555
O9 P1 1.522495 1_555
O10 P2 1.556501 1_555
O12 P3 1.556501 1_555
O13 P4 1.534710 1_555
O14 P3 1.511473 1_555
O15 P5 1.550067 1_555
O16 P1 1.574278 1_555
O17 P0 1.574278 1_555
O18 P2 1.556501 1_555
O19 P5 1.577490 1_555
O20 P3 1.572990 1_555
O21 P2 1.572990 1_555
O22 P3 1.556501 1_555
O23 P4 1.550067 1_555
O24 P0 1.574278 1_555
O25 P5 1.534710 1_555
