# generated using pymatgen
data_CaMg6C
_symmetry_space_group_name_H-M   'P 1'
_cell_length_a   20.66008390
_cell_length_b   20.66008390
_cell_length_c   7.03431800
_cell_angle_alpha   90.00000000
_cell_angle_beta   90.00000000
_cell_angle_gamma   148.00589058
_symmetry_Int_Tables_number   1
_chemical_formula_structural   CaMg6C
_chemical_formula_sum   'Ca8 Mg48 C8'
_cell_volume   1590.83231487
_cell_formula_units_Z   8
loop_
 _symmetry_equiv_pos_site_id
 _symmetry_equiv_pos_as_xyz
  1  'x, y, z'
loop_
 _atom_site_type_symbol
 _atom_site_label
 _atom_site_symmetry_multiplicity
 _atom_site_fract_x
 _atom_site_fract_y
 _atom_site_fract_z
 _atom_site_occupancy
  Ca  Ca0_0  1  0.39414900  0.10585100  0.25000000  1
  Ca  Ca0_1  1  0.39414900  0.10585100  0.75000000  1
  Ca  Ca0_2  1  0.39414900  0.60585100  0.25000000  1
  Ca  Ca0_3  1  0.39414900  0.60585100  0.75000000  1
  Ca  Ca0_4  1  0.89414900  0.10585100  0.25000000  1
  Ca  Ca0_5  1  0.89414900  0.10585100  0.75000000  1
  Ca  Ca0_6  1  0.89414900  0.60585100  0.25000000  1
  Ca  Ca0_7  1  0.89414900  0.60585100  0.75000000  1
  Mg  Mg0_0  1  0.14716100  0.10726500  0.25000000  1
  Mg  Mg0_1  1  0.14716100  0.10726500  0.75000000  1
  Mg  Mg0_2  1  0.14716100  0.60726500  0.25000000  1
  Mg  Mg0_3  1  0.14716100  0.60726500  0.75000000  1
  Mg  Mg0_4  1  0.64716100  0.10726500  0.25000000  1
  Mg  Mg0_5  1  0.64716100  0.10726500  0.75000000  1
  Mg  Mg0_6  1  0.64716100  0.60726500  0.25000000  1
  Mg  Mg0_7  1  0.64716100  0.60726500  0.75000000  1
  Mg  Mg1_0  1  0.39273500  0.35283900  0.25000000  1
  Mg  Mg1_1  1  0.39273500  0.35283900  0.75000000  1
  Mg  Mg1_2  1  0.39273500  0.85283900  0.25000000  1
  Mg  Mg1_3  1  0.39273500  0.85283900  0.75000000  1
  Mg  Mg1_4  1  0.89273500  0.35283900  0.25000000  1
  Mg  Mg1_5  1  0.89273500  0.35283900  0.75000000  1
  Mg  Mg1_6  1  0.89273500  0.85283900  0.25000000  1
  Mg  Mg1_7  1  0.89273500  0.85283900  0.75000000  1
  Mg  Mg2_0  1  0.09447650  0.17405800  0.00000000  1
  Mg  Mg2_1  1  0.09447650  0.17405800  0.50000000  1
  Mg  Mg2_2  1  0.09447650  0.67405800  0.00000000  1
  Mg  Mg2_3  1  0.09447650  0.67405800  0.50000000  1
  Mg  Mg2_4  1  0.59447650  0.17405800  0.00000000  1
  Mg  Mg2_5  1  0.59447650  0.17405800  0.50000000  1
  Mg  Mg2_6  1  0.59447650  0.67405800  0.00000000  1
  Mg  Mg2_7  1  0.59447650  0.67405800  0.50000000  1
  Mg  Mg3_0  1  0.32594200  0.40552350  0.00000000  1
  Mg  Mg3_1  1  0.32594200  0.40552350  0.50000000  1
  Mg  Mg3_2  1  0.32594200  0.90552350  0.00000000  1
  Mg  Mg3_3  1  0.32594200  0.90552350  0.50000000  1
  Mg  Mg3_4  1  0.82594200  0.40552350  0.00000000  1
  Mg  Mg3_5  1  0.82594200  0.40552350  0.50000000  1
  Mg  Mg3_6  1  0.82594200  0.90552350  0.00000000  1
  Mg  Mg3_7  1  0.82594200  0.90552350  0.50000000  1
  Mg  Mg4_0  1  0.32375150  0.17624850  0.00000000  1
  Mg  Mg4_1  1  0.32375150  0.17624850  0.50000000  1
  Mg  Mg4_2  1  0.32375150  0.67624850  0.00000000  1
  Mg  Mg4_3  1  0.32375150  0.67624850  0.50000000  1
  Mg  Mg4_4  1  0.82375150  0.17624850  0.00000000  1
  Mg  Mg4_5  1  0.82375150  0.17624850  0.50000000  1
  Mg  Mg4_6  1  0.82375150  0.67624850  0.00000000  1
  Mg  Mg4_7  1  0.82375150  0.67624850  0.50000000  1
  Mg  Mg5_0  1  0.09749500  0.40250500  0.00000000  1
  Mg  Mg5_1  1  0.09749500  0.40250500  0.50000000  1
  Mg  Mg5_2  1  0.09749500  0.90250500  0.00000000  1
  Mg  Mg5_3  1  0.09749500  0.90250500  0.50000000  1
  Mg  Mg5_4  1  0.59749500  0.40250500  0.00000000  1
  Mg  Mg5_5  1  0.59749500  0.40250500  0.50000000  1
  Mg  Mg5_6  1  0.59749500  0.90250500  0.00000000  1
  Mg  Mg5_7  1  0.59749500  0.90250500  0.50000000  1
  C  C0_0  1  0.22429350  0.27570650  0.25000000  1
  C  C0_1  1  0.22429350  0.27570650  0.75000000  1
  C  C0_2  1  0.22429350  0.77570650  0.25000000  1
  C  C0_3  1  0.22429350  0.77570650  0.75000000  1
  C  C0_4  1  0.72429350  0.27570650  0.25000000  1
  C  C0_5  1  0.72429350  0.27570650  0.75000000  1
  C  C0_6  1  0.72429350  0.77570650  0.25000000  1
  C  C0_7  1  0.72429350  0.77570650  0.75000000  1
loop_
_geom_bond_atom_site_label_1
_geom_bond_atom_site_label_2
_geom_bond_distance
_geom_bond_site_symmetry_2
Ca0_0 Mg4_0 3.303226 1_555
Ca0_0 Mg4_1 3.303226 1_555
Ca0_0 Mg2_4 3.509306 1_555
Ca0_0 Mg2_5 3.509306 1_555
Ca0_0 Mg3_2 3.509306 1_545
Ca0_0 Mg3_3 3.509306 1_545
Ca0_0 Ca0_1 3.517159 1_555
Ca0_0 Ca0_1 3.517159 1_554
Ca0_0 Mg5_5 3.825056 1_555
Ca0_0 Mg5_4 3.825056 1_555
Ca0_0 Mg5_2 3.825056 1_545
Ca0_0 Mg5_3 3.825056 1_545
Ca0_1 Mg4_1 3.303226 1_555
Ca0_1 Mg4_0 3.303226 1_556
Ca0_1 Mg2_4 3.509306 1_556
Ca0_1 Mg2_5 3.509306 1_555
Ca0_1 Mg3_2 3.509306 1_546
Ca0_1 Mg3_3 3.509306 1_545
Ca0_1 Mg5_4 3.825056 1_556
Ca0_1 Mg5_5 3.825056 1_555
Ca0_1 Mg5_2 3.825056 1_546
Ca0_1 Mg5_3 3.825056 1_545
Ca0_2 Mg4_2 3.303226 1_555
Ca0_2 Mg4_3 3.303226 1_555
Ca0_2 Mg2_6 3.509306 1_555
Ca0_2 Mg2_7 3.509306 1_555
Ca0_2 Mg3_0 3.509306 1_555
Ca0_2 Mg3_1 3.509306 1_555
Ca0_2 Ca0_3 3.517159 1_554
Ca0_2 Ca0_3 3.517159 1_555
Ca0_2 Mg5_6 3.825056 1_555
Ca0_2 Mg5_7 3.825056 1_555
Ca0_2 Mg5_0 3.825056 1_555
Ca0_2 Mg5_1 3.825056 1_555
Ca0_3 Mg4_2 3.303226 1_556
Ca0_3 Mg4_3 3.303226 1_555
Ca0_3 Mg2_6 3.509306 1_556
Ca0_3 Mg2_7 3.509306 1_555
Ca0_3 Mg3_1 3.509306 1_555
Ca0_3 Mg3_0 3.509306 1_556
Ca0_3 Mg5_7 3.825056 1_555
Ca0_3 Mg5_6 3.825056 1_556
Ca0_3 Mg5_0 3.825056 1_556
Ca0_3 Mg5_1 3.825056 1_555
Ca0_4 Mg4_4 3.303226 1_555
Ca0_4 Mg4_5 3.303226 1_555
Ca0_4 Mg2_0 3.509306 1_655
Ca0_4 Mg2_1 3.509306 1_655
Ca0_4 Mg3_7 3.509306 1_545
Ca0_4 Mg3_6 3.509306 1_545
Ca0_4 Ca0_5 3.517159 1_555
Ca0_4 Ca0_5 3.517159 1_554
Ca0_4 Mg5_1 3.825056 1_655
Ca0_4 Mg5_0 3.825056 1_655
Ca0_4 Mg5_7 3.825056 1_545
Ca0_4 Mg5_6 3.825056 1_545
Ca0_5 Mg4_4 3.303226 1_556
Ca0_5 Mg4_5 3.303226 1_555
Ca0_5 Mg2_0 3.509306 1_656
Ca0_5 Mg2_1 3.509306 1_655
Ca0_5 Mg3_7 3.509306 1_545
Ca0_5 Mg3_6 3.509306 1_546
Ca0_5 Mg5_1 3.825056 1_655
Ca0_5 Mg5_0 3.825056 1_656
Ca0_5 Mg5_7 3.825056 1_545
Ca0_5 Mg5_6 3.825056 1_546
Ca0_6 Mg4_7 3.303226 1_555
Ca0_6 Mg4_6 3.303226 1_555
Ca0_6 Mg3_4 3.509306 1_555
Ca0_6 Mg3_5 3.509306 1_555
Ca0_6 Mg2_3 3.509306 1_655
Ca0_6 Mg2_2 3.509306 1_655
Ca0_6 Ca0_7 3.517159 1_555
Ca0_6 Ca0_7 3.517159 1_554
Ca0_6 Mg5_5 3.825056 1_555
Ca0_6 Mg5_4 3.825056 1_555
Ca0_6 Mg5_3 3.825056 1_655
Ca0_6 Mg5_2 3.825056 1_655
Ca0_7 Mg4_7 3.303226 1_555
Ca0_7 Mg4_6 3.303226 1_556
Ca0_7 Mg2_2 3.509306 1_656
Ca0_7 Mg3_5 3.509306 1_555
Ca0_7 Mg2_3 3.509306 1_655
Ca0_7 Mg3_4 3.509306 1_556
Ca0_7 Mg5_4 3.825056 1_556
Ca0_7 Mg5_5 3.825056 1_555
Ca0_7 Mg5_3 3.825056 1_655
Ca0_7 Mg5_2 3.825056 1_656
Mg0_0 Mg4_1 3.100761 1_555
Mg0_0 Mg4_0 3.100761 1_555
Mg0_1 Mg4_0 3.100761 1_556
Mg0_1 Mg4_1 3.100761 1_555
Mg0_2 Mg4_3 3.100761 1_555
Mg0_2 Mg4_2 3.100761 1_555
Mg0_3 Mg4_2 3.100761 1_556
Mg0_3 Mg4_3 3.100761 1_555
Mg0_4 Mg4_4 3.100761 1_555
Mg0_4 Mg4_5 3.100761 1_555
Mg0_5 Mg4_5 3.100761 1_555
Mg0_5 Mg4_4 3.100761 1_556
Mg0_6 Mg4_6 3.100761 1_555
Mg0_6 Mg4_7 3.100761 1_555
Mg0_7 Mg4_7 3.100761 1_555
Mg0_7 Mg4_6 3.100761 1_556
Mg1_0 Mg4_0 3.100761 1_555
Mg1_0 Mg4_1 3.100761 1_555
Mg1_1 Mg4_0 3.100761 1_556
Mg1_1 Mg4_1 3.100761 1_555
Mg1_2 Mg4_3 3.100761 1_555
Mg1_2 Mg4_2 3.100761 1_555
Mg1_3 Mg4_2 3.100761 1_556
Mg1_3 Mg4_3 3.100761 1_555
Mg1_4 Mg4_4 3.100761 1_555
Mg1_4 Mg4_5 3.100761 1_555
Mg1_5 Mg4_4 3.100761 1_556
Mg1_5 Mg4_5 3.100761 1_555
Mg1_6 Mg4_6 3.100761 1_555
Mg1_6 Mg4_7 3.100761 1_555
Mg1_7 Mg4_7 3.100761 1_555
Mg1_7 Mg4_6 3.100761 1_556
Mg4_0 Mg5_2 2.998982 1_545
Mg4_0 Mg5_4 2.998982 1_555
Mg4_1 Mg5_5 2.998982 1_555
Mg4_1 Mg5_3 2.998982 1_545
Mg4_2 Mg5_6 2.998982 1_555
Mg4_2 Mg5_0 2.998982 1_555
Mg4_3 Mg5_7 2.998982 1_555
Mg4_3 Mg5_1 2.998982 1_555
Mg4_4 Mg5_0 2.998982 1_655
Mg4_4 Mg5_6 2.998982 1_545
Mg4_5 Mg5_1 2.998982 1_655
Mg4_5 Mg5_7 2.998982 1_545
Mg4_6 Mg5_2 2.998982 1_655
Mg4_6 Mg5_4 2.998982 1_555
Mg4_7 Mg5_3 2.998982 1_655
Mg4_7 Mg5_5 2.998982 1_555
Mg5_0 Mg5_1 3.517159 1_555
Mg5_0 Mg5_1 3.517159 1_554
Mg5_2 Mg5_3 3.517159 1_555
Mg5_2 Mg5_3 3.517159 1_554
Mg5_4 Mg5_5 3.517159 1_555
Mg5_4 Mg5_5 3.517159 1_554
Mg5_6 Mg5_7 3.517159 1_555
Mg5_6 Mg5_7 3.517159 1_554
C0_0 Mg2_1 2.267684 1_555
C0_0 Mg3_1 2.267684 1_555
C0_0 Mg2_0 2.267684 1_555
C0_0 Mg3_0 2.267684 1_555
C0_0 Mg0_0 2.289854 1_555
C0_0 Mg1_0 2.289854 1_555
C0_1 Mg2_0 2.267684 1_556
C0_1 Mg3_1 2.267684 1_555
C0_1 Mg3_0 2.267684 1_556
C0_1 Mg2_1 2.267684 1_555
C0_1 Mg0_1 2.289854 1_555
C0_1 Mg1_1 2.289854 1_555
C0_2 Mg3_3 2.267684 1_555
C0_2 Mg3_2 2.267684 1_555
C0_2 Mg2_3 2.267684 1_555
C0_2 Mg2_2 2.267684 1_555
C0_2 Mg1_2 2.289854 1_555
C0_2 Mg0_2 2.289854 1_555
C0_3 Mg3_3 2.267684 1_555
C0_3 Mg3_2 2.267684 1_556
C0_3 Mg2_3 2.267684 1_555
C0_3 Mg2_2 2.267684 1_556
C0_3 Mg1_3 2.289854 1_555
C0_3 Mg0_3 2.289854 1_555
C0_4 Mg3_5 2.267684 1_555
C0_4 Mg3_4 2.267684 1_555
C0_4 Mg2_5 2.267684 1_555
C0_4 Mg2_4 2.267684 1_555
C0_4 Mg1_4 2.289854 1_555
C0_4 Mg0_4 2.289854 1_555
C0_5 Mg3_5 2.267684 1_555
C0_5 Mg3_4 2.267684 1_556
C0_5 Mg2_4 2.267684 1_556
C0_5 Mg2_5 2.267684 1_555
C0_5 Mg1_5 2.289854 1_555
C0_5 Mg0_5 2.289854 1_555
C0_6 Mg2_6 2.267684 1_555
C0_6 Mg3_7 2.267684 1_555
C0_6 Mg3_6 2.267684 1_555
C0_6 Mg2_7 2.267684 1_555
C0_6 Mg1_6 2.289854 1_555
C0_6 Mg0_6 2.289854 1_555
C0_7 Mg2_6 2.267684 1_556
C0_7 Mg3_7 2.267684 1_555
C0_7 Mg3_6 2.267684 1_556
C0_7 Mg2_7 2.267684 1_555
C0_7 Mg1_7 2.289854 1_555
C0_7 Mg0_7 2.289854 1_555
