# generated using pymatgen
data_PbS
_symmetry_space_group_name_H-M   'P 1'
_cell_length_a   4.12227102
_cell_length_b   4.11595742
_cell_length_c   7.34953648
_cell_angle_alpha   90.00000000
_cell_angle_beta   90.00000000
_cell_angle_gamma   120.05077162
_symmetry_Int_Tables_number   1
_chemical_formula_structural   PbS
_chemical_formula_sum   'Pb2 S2'
_cell_volume   107.93830148
_cell_formula_units_Z   2
loop_
 _symmetry_equiv_pos_site_id
 _symmetry_equiv_pos_as_xyz
  1  'x, y, z'
loop_
 _atom_site_type_symbol
 _atom_site_label
 _atom_site_symmetry_multiplicity
 _atom_site_fract_x
 _atom_site_fract_y
 _atom_site_fract_z
 _atom_site_occupancy
  Pb  Pb0  1  0.00000000  0.00000000  0.50000000  1
  Pb  Pb1  1  0.00000000  0.00000000  0.00000000  1
  S  S0  1  0.33377069  0.66753938  0.25000000  1
  S  S1  1  0.66622931  0.33246062  0.75000000  1
loop_
_geom_bond_atom_site_label_1
_geom_bond_atom_site_label_2
_geom_bond_distance
_geom_bond_site_symmetry_2
Pb0 S1 3.004527 1_555
Pb0 S0 3.004527 1_445
Pb0 S0 3.004533 1_545
Pb0 S1 3.004533 1_455
Pb0 S1 3.005331 1_445
Pb0 S0 3.005331 1_555
Pb1 S1 3.004527 1_554
Pb1 S0 3.004527 1_445
Pb1 S0 3.004533 1_545
Pb1 S1 3.004533 1_454
Pb1 S0 3.005331 1_555
Pb1 S1 3.005331 1_444
