# generated using pymatgen
data_LiMnCo3O8
_symmetry_space_group_name_H-M   'P 1'
_cell_length_a   5.72872934
_cell_length_b   5.99204846
_cell_length_c   9.98750938
_cell_angle_alpha   74.44278887
_cell_angle_beta   90.65325754
_cell_angle_gamma   118.76383128
_symmetry_Int_Tables_number   1
_chemical_formula_structural   LiMnCo3O8
_chemical_formula_sum   'Li2 Mn2 Co6 O16'
_cell_volume   286.70227701
_cell_formula_units_Z   2
loop_
 _symmetry_equiv_pos_site_id
 _symmetry_equiv_pos_as_xyz
  1  'x, y, z'
loop_
 _atom_site_type_symbol
 _atom_site_label
 _atom_site_symmetry_multiplicity
 _atom_site_fract_x
 _atom_site_fract_y
 _atom_site_fract_z
 _atom_site_occupancy
  Li  Li0  1  0.75264200  0.49776500  0.25192000  1
  Li  Li1  1  0.24940200  0.50257300  0.74875100  1
  Mn  Mn0  1  0.99917500  0.99997000  0.00023600  1
  Mn  Mn1  1  0.50079200  0.99970500  0.49990200  1
  Co  Co0  1  0.49818700  0.99912700  0.99983300  1
  Co  Co1  1  0.25169200  0.99781600  0.75085100  1
  Co  Co2  1  0.24792500  0.00001600  0.24937400  1
  Co  Co3  1  0.00072800  0.00100300  0.49989400  1
  Co  Co4  1  0.74755200  0.00218100  0.24878500  1
  Co  Co5  1  0.75197200  0.00028500  0.75077400  1
  O  O0  1  0.09493500  0.19348200  0.13723400  1
  O  O1  1  0.59743300  0.19074500  0.63925900  1
  O  O2  1  0.90443400  0.80728100  0.86162900  1
  O  O3  1  0.40328400  0.80844100  0.36164100  1
  O  O4  1  0.10310600  0.19677300  0.64707200  1
  O  O5  1  0.59541900  0.19608900  0.14527600  1
  O  O6  1  0.90025700  0.80458100  0.35219100  1
  O  O7  1  0.40322200  0.80222700  0.85492900  1
  O  O8  1  0.84201800  0.19979800  0.37930800  1
  O  O9  1  0.34619000  0.18902800  0.88510200  1
  O  O10  1  0.35781100  0.19880800  0.37849600  1
  O  O11  1  0.86146800  0.19997100  0.87813200  1
  O  O12  1  0.64319800  0.80012000  0.62163700  1
  O  O13  1  0.13623600  0.79970800  0.12207300  1
  O  O14  1  0.15906700  0.80176600  0.62068100  1
  O  O15  1  0.65185300  0.81074300  0.11501800  1
loop_
_geom_bond_atom_site_label_1
_geom_bond_atom_site_label_2
_geom_bond_distance
_geom_bond_site_symmetry_2
Li0 O6 2.137757 1_555
Li0 O5 2.158074 1_555
Li0 O8 2.171428 1_555
Li0 O13 2.182729 1_655
Li0 O10 2.207758 1_555
Li0 O15 2.317030 1_555
Li1 O4 2.142903 1_555
Li1 O7 2.145309 1_555
Li1 O14 2.183052 1_555
Li1 O11 2.197041 1_455
Li1 O12 2.204561 1_555
Li1 O9 2.303195 1_555
Mn0 O13 1.907598 1_655
Mn0 O11 1.910431 1_564
Mn0 O0 1.933740 1_665
Mn0 O15 1.934515 1_555
Mn0 O9 1.934835 1_664
Mn0 O2 1.944533 1_554
Mn1 O10 1.925196 1_565
Mn1 O12 1.926241 1_555
Mn1 O8 1.932063 1_565
Mn1 O14 1.935475 1_555
Mn1 O3 1.935851 1_555
Mn1 O1 1.944534 1_565
Co0 O9 1.896696 1_565
Co0 O15 1.899810 1_556
Co0 O7 2.015606 1_555
Co0 O5 2.020324 1_566
Co0 O13 2.026947 1_556
Co0 O11 2.029657 1_565
Co1 O7 1.874213 1_555
Co1 O4 1.874517 1_565
Co1 O14 1.885564 1_555
Co1 O9 1.901107 1_565
Co1 O1 1.912378 1_565
Co1 O2 1.916214 1_455
Co2 O13 1.878146 1_545
Co2 O6 1.884044 1_445
Co2 O10 1.887346 1_555
Co2 O5 1.888186 1_555
Co2 O0 1.904051 1_555
Co2 O3 1.907137 1_545
Co3 O8 1.985919 1_455
Co3 O14 1.986974 1_545
Co3 O10 2.002943 1_555
Co3 O12 2.005350 1_445
Co3 O4 2.030746 1_555
Co3 O6 2.037822 1_445
Co4 O5 1.867627 1_555
Co4 O6 1.885243 1_545
Co4 O8 1.894624 1_555
Co4 O15 1.897741 1_545
Co4 O3 1.911320 1_545
Co4 O0 1.919815 1_655
Co5 O11 1.875892 1_555
Co5 O12 1.892747 1_545
Co5 O7 1.893519 1_545
Co5 O2 1.894565 1_545
Co5 O1 1.895984 1_555
Co5 O4 1.902466 1_655
