# generated using pymatgen
data_RbV2Fe(AgO4)2
_symmetry_space_group_name_H-M   'P 1'
_cell_length_a   5.54177453
_cell_length_b   15.15381701
_cell_length_c   5.54175200
_cell_angle_alpha   89.99849684
_cell_angle_beta   59.99887264
_cell_angle_gamma   89.99607109
_symmetry_Int_Tables_number   1
_chemical_formula_structural   RbV2Fe(AgO4)2
_chemical_formula_sum   'Rb2 V4 Fe2 Ag4 O16'
_cell_volume   403.03584637
_cell_formula_units_Z   2
loop_
 _symmetry_equiv_pos_site_id
 _symmetry_equiv_pos_as_xyz
  1  'x, y, z'
loop_
 _atom_site_type_symbol
 _atom_site_label
 _atom_site_symmetry_multiplicity
 _atom_site_fract_x
 _atom_site_fract_y
 _atom_site_fract_z
 _atom_site_occupancy
  Rb  Rb0  1  0.00000100  0.99999800  0.00000000  1
  Rb  Rb1  1  0.00000100  0.49999600  0.00000000  1
  V  V0  1  0.66675300  0.13525300  0.66666900  1
  V  V1  1  0.66675500  0.63528300  0.66666500  1
  V  V2  1  0.33324300  0.36473300  0.33333600  1
  V  V3  1  0.33324800  0.86473300  0.33333200  1
  Fe  Fe0  1  0.99999900  0.75000900  0.99999900  1
  Fe  Fe1  1  0.99999700  0.24999100  0.00000200  1
  Ag  Ag0  1  0.33334500  0.13295600  0.33333300  1
  Ag  Ag1  1  0.33333800  0.63295600  0.33333500  1
  Ag  Ag2  1  0.66666700  0.36704700  0.66666200  1
  Ag  Ag3  1  0.66666500  0.86704800  0.66666300  1
  O  O0  1  0.33327900  0.47631800  0.33333600  1
  O  O1  1  0.33328100  0.97631500  0.33333600  1
  O  O2  1  0.66671700  0.02367000  0.66666600  1
  O  O3  1  0.66672100  0.52369900  0.66666200  1
  O  O4  1  0.66995400  0.32834600  0.25353900  1
  O  O5  1  0.66995700  0.82835700  0.25352900  1
  O  O6  1  0.25352300  0.32834700  0.07648500  1
  O  O7  1  0.25351700  0.82835700  0.07648900  1
  O  O8  1  0.07647700  0.32834300  0.66997300  1
  O  O9  1  0.07648400  0.82835400  0.66997100  1
  O  O10  1  0.33005200  0.17164000  0.74646700  1
  O  O11  1  0.33004300  0.67165500  0.74646400  1
  O  O12  1  0.74647600  0.17164000  0.92350400  1
  O  O13  1  0.74647700  0.67165400  0.92351600  1
  O  O14  1  0.92350900  0.17164300  0.33004000  1
  O  O15  1  0.92352100  0.67165900  0.33002800  1
loop_
_geom_bond_atom_site_label_1
_geom_bond_atom_site_label_2
_geom_bond_distance
_geom_bond_site_symmetry_2
Fe0 O9 2.039332 1_655
Fe0 O5 2.039333 1_556
Fe0 O7 2.039354 1_656
Fe0 O15 2.039390 1_556
Fe0 O11 2.039398 1_655
Fe0 O13 2.039412 1_555
Fe1 O14 2.039398 1_555
Fe1 O8 2.039405 1_654
Fe1 O10 2.039406 1_654
Fe1 O4 2.039407 1_555
Fe1 O12 2.039418 1_554
Fe1 O6 2.039438 1_655
Ag0 O12 2.354509 1_554
Ag0 O14 2.354512 1_455
Ag0 O10 2.354572 1_555
Ag0 O1 2.373709 1_545
Ag1 O15 2.354509 1_455
Ag1 O13 2.354557 1_554
Ag1 O11 2.354596 1_555
Ag1 O0 2.373664 1_555
Ag2 O8 2.354486 1_655
Ag2 O6 2.354589 1_556
Ag2 O4 2.354593 1_555
Ag2 O3 2.373876 1_555
Ag3 O9 2.354488 1_655
Ag3 O7 2.354573 1_556
Ag3 O5 2.354601 1_555
Ag3 O2 2.373421 1_565
O0 V2 1.690939 1_555
O0 Rb1 3.219342 1_555
O0 Rb1 3.219537 1_556
O0 Rb1 3.219852 1_655
O1 V3 1.690893 1_555
O1 Rb0 3.219360 1_555
O1 Rb0 3.219545 1_556
O1 Rb0 3.219851 1_655
O2 V0 1.690908 1_555
O2 Rb0 3.219351 1_646
O2 Rb0 3.219536 1_645
O2 Rb0 3.219813 1_546
O3 V1 1.690924 1_555
O3 Rb1 3.219404 1_656
O3 Rb1 3.219569 1_655
O3 Rb1 3.219885 1_556
O4 V2 1.776555 1_555
O4 Rb1 3.084808 1_655
O5 V3 1.776484 1_555
O5 Rb0 3.084678 1_655
O6 V2 1.776015 1_555
O6 Rb1 3.084552 1_555
O7 V3 1.775966 1_555
O7 Rb0 3.084441 1_555
O8 V2 1.776104 1_555
O8 Rb1 3.084765 1_556
O9 V3 1.776057 1_555
O9 Rb0 3.084650 1_556
O10 V0 1.776502 1_555
O10 Rb0 3.084709 1_546
O11 V1 1.776486 1_555
O11 Rb1 3.084911 1_556
O12 V0 1.775948 1_555
O12 Rb0 3.084494 1_646
O13 V1 1.775952 1_555
O13 Rb1 3.084671 1_656
O14 V0 1.776060 1_555
O14 Rb0 3.084686 1_645
O15 V1 1.776038 1_555
O15 Rb1 3.084892 1_655
