# generated using pymatgen
data_SrCa7Ti2Mn6O23
_symmetry_space_group_name_H-M   'P 1'
_cell_length_a   10.93588352
_cell_length_b   15.45903507
_cell_length_c   10.82390686
_cell_angle_alpha   90.12097798
_cell_angle_beta   90.33573000
_cell_angle_gamma   90.02452981
_symmetry_Int_Tables_number   1
_chemical_formula_structural   SrCa7Ti2Mn6O23
_chemical_formula_sum   'Sr4 Ca28 Ti8 Mn24 O92'
_cell_volume   1829.83461512
_cell_formula_units_Z   4
loop_
 _symmetry_equiv_pos_site_id
 _symmetry_equiv_pos_as_xyz
  1  'x, y, z'
loop_
 _atom_site_type_symbol
 _atom_site_label
 _atom_site_symmetry_multiplicity
 _atom_site_fract_x
 _atom_site_fract_y
 _atom_site_fract_z
 _atom_site_occupancy
  Sr  Sr0  1  0.00563890  0.12014866  0.50382892  1
  Sr  Sr1  1  0.49653018  0.38188095  0.99682607  1
  Sr  Sr2  1  0.24059849  0.38657664  0.25154107  1
  Sr  Sr3  1  0.24715757  0.11874221  0.26519449  1
  Ca  Ca0  1  0.01051023  0.11689005  0.99720040  1
  Ca  Ca1  1  0.01970619  0.62560862  0.49585966  1
  Ca  Ca2  1  0.02074331  0.62570621  0.99607910  1
  Ca  Ca3  1  0.52855970  0.13195221  0.50626800  1
  Ca  Ca4  1  0.53772956  0.12186552  0.97230318  1
  Ca  Ca5  1  0.52598536  0.62456284  0.49738775  1
  Ca  Ca6  1  0.52160866  0.62470323  0.99440490  1
  Ca  Ca7  1  0.48301785  0.38569684  0.50865957  1
  Ca  Ca8  1  0.48673088  0.86671507  0.99644602  1
  Ca  Ca9  1  0.48473591  0.86350478  0.51445517  1
  Ca  Ca10  1  0.96762428  0.38883465  0.00099005  1
  Ca  Ca11  1  0.97458335  0.38406030  0.50362901  1
  Ca  Ca12  1  0.97320341  0.86797483  0.00460703  1
  Ca  Ca13  1  0.96944762  0.86722530  0.50378730  1
  Ca  Ca14  1  0.22786463  0.38636816  0.73681566  1
  Ca  Ca15  1  0.22764032  0.86869015  0.24605064  1
  Ca  Ca16  1  0.23115989  0.86360735  0.75007177  1
  Ca  Ca17  1  0.73484448  0.38718190  0.24636726  1
  Ca  Ca18  1  0.72554902  0.38098249  0.74652847  1
  Ca  Ca19  1  0.73286718  0.86470091  0.24783891  1
  Ca  Ca20  1  0.72598921  0.87041059  0.74478164  1
  Ca  Ca21  1  0.27783279  0.11732201  0.73779120  1
  Ca  Ca22  1  0.27430812  0.62635734  0.25431406  1
  Ca  Ca23  1  0.27372287  0.62503111  0.75769692  1
  Ca  Ca24  1  0.77185105  0.11776513  0.25028274  1
  Ca  Ca25  1  0.76638478  0.12522688  0.75316538  1
  Ca  Ca26  1  0.76965211  0.62457950  0.25337451  1
  Ca  Ca27  1  0.76995284  0.62558833  0.75455019  1
  Ti  Ti0  1  0.99428895  0.99140679  0.24837518  1
  Ti  Ti1  1  0.98845159  0.99555344  0.75777799  1
  Ti  Ti2  1  0.25101250  0.99413440  0.99431842  1
  Ti  Ti3  1  0.23288878  0.98905587  0.51453323  1
  Ti  Ti4  1  0.25572190  0.24417863  0.96202509  1
  Ti  Ti5  1  0.24578796  0.25568529  0.50375033  1
  Ti  Ti6  1  0.98553425  0.25269150  0.26620054  1
  Ti  Ti7  1  0.98853513  0.25372508  0.75113624  1
  Mn  Mn0  1  0.00056146  0.50366923  0.24944654  1
  Mn  Mn1  1  0.00025958  0.50276448  0.74999716  1
  Mn  Mn2  1  0.50879074  0.98478797  0.24183734  1
  Mn  Mn3  1  0.50270728  0.99807302  0.74897691  1
  Mn  Mn4  1  0.50150655  0.50635457  0.25076230  1
  Mn  Mn5  1  0.50024140  0.50320332  0.74823629  1
  Mn  Mn6  1  0.24953231  0.50425711  0.00191683  1
  Mn  Mn7  1  0.25091954  0.50613130  0.50161373  1
  Mn  Mn8  1  0.74796234  0.99658693  0.99794006  1
  Mn  Mn9  1  0.74267523  0.99906329  0.49962024  1
  Mn  Mn10  1  0.74985948  0.50424613  0.00027425  1
  Mn  Mn11  1  0.75086606  0.50187088  0.50079186  1
  Mn  Mn12  1  0.24992158  0.74791406  0.00338378  1
  Mn  Mn13  1  0.25176754  0.74770213  0.49958926  1
  Mn  Mn14  1  0.75074059  0.24978984  0.00116416  1
  Mn  Mn15  1  0.74656360  0.25189006  0.50275685  1
  Mn  Mn16  1  0.74965156  0.74909417  0.00029966  1
  Mn  Mn17  1  0.75003266  0.74805265  0.50017634  1
  Mn  Mn18  1  0.00033867  0.74681497  0.25030499  1
  Mn  Mn19  1  0.00061184  0.74829377  0.75099377  1
  Mn  Mn20  1  0.51946392  0.25787604  0.26427832  1
  Mn  Mn21  1  0.50444853  0.25094911  0.74459021  1
  Mn  Mn22  1  0.49970449  0.74812316  0.25162076  1
  Mn  Mn23  1  0.50088377  0.74758748  0.75155853  1
  O  O0  1  0.10347969  0.26524470  0.59633134  1
  O  O1  1  0.10623492  0.77197486  0.10531699  1
  O  O2  1  0.10763346  0.77280002  0.60403935  1
  O  O3  1  0.59470810  0.25219508  0.10590654  1
  O  O4  1  0.59973248  0.26901771  0.59540142  1
  O  O5  1  0.60729997  0.77288863  0.10911164  1
  O  O6  1  0.60889979  0.76614313  0.60806446  1
  O  O7  1  0.39751627  0.22144435  0.37305353  1
  O  O8  1  0.40592872  0.22954818  0.89643176  1
  O  O9  1  0.39600313  0.72537499  0.39723993  1
  O  O10  1  0.39623416  0.73104882  0.89736706  1
  O  O11  1  0.89238674  0.23594335  0.39887924  1
  O  O12  1  0.90060779  0.23433070  0.90039682  1
  O  O13  1  0.89741724  0.73081001  0.39605761  1
  O  O14  1  0.89760247  0.73028535  0.89616730  1
  O  O15  1  0.14479162  0.24425086  0.34480696  1
  O  O16  1  0.15079756  0.23061367  0.83628956  1
  O  O17  1  0.14775111  0.73055175  0.35185782  1
  O  O18  1  0.14804604  0.73123518  0.85247748  1
  O  O19  1  0.65530531  0.22103812  0.35585121  1
  O  O20  1  0.64951145  0.23130969  0.85151889  1
  O  O21  1  0.64638467  0.72840536  0.35434148  1
  O  O22  1  0.64501096  0.72946730  0.85583140  1
  O  O23  1  0.35362189  0.26184557  0.64343342  1
  O  O24  1  0.35749977  0.77341943  0.14547573  1
  O  O25  1  0.35664674  0.76897754  0.64416574  1
  O  O26  1  0.86370679  0.27199032  0.14026327  1
  O  O27  1  0.85280863  0.27110249  0.64800145  1
  O  O28  1  0.85759962  0.76983023  0.14445622  1
  O  O29  1  0.85775715  0.77172553  0.64541738  1
  O  O30  1  0.36197930  0.49107341  0.14087810  1
  O  O31  1  0.35586739  0.48405537  0.64264001  1
  O  O32  1  0.35673918  0.99326377  0.15761535  1
  O  O33  1  0.35712873  0.98133767  0.64210204  1
  O  O34  1  0.85824647  0.48272500  0.14454223  1
  O  O35  1  0.85704469  0.47814787  0.64547339  1
  O  O36  1  0.85319741  0.97923032  0.14261820  1
  O  O37  1  0.85538652  0.97982294  0.64381396  1
  O  O38  1  0.13844422  0.00495697  0.36286625  1
  O  O39  1  0.14614681  0.02285630  0.86078268  1
  O  O40  1  0.14646291  0.52208569  0.35397741  1
  O  O41  1  0.14755811  0.51641654  0.85164995  1
  O  O42  1  0.62352017  0.02986337  0.35660145  1
  O  O43  1  0.64898636  0.01928885  0.84873950  1
  O  O44  1  0.64640962  0.52050965  0.35586350  1
  O  O45  1  0.64376521  0.51947927  0.85564341  1
  O  O46  1  0.39418307  0.02213114  0.89527376  1
  O  O47  1  0.39397696  0.52194512  0.39582056  1
  O  O48  1  0.39280473  0.51695048  0.89212172  1
  O  O49  1  0.88154271  0.01483309  0.38646519  1
  O  O50  1  0.89449796  0.01338528  0.89813103  1
  O  O51  1  0.89804494  0.51857785  0.39626934  1
  O  O52  1  0.89729675  0.51891496  0.89573457  1
  O  O53  1  0.10217481  0.48541002  0.10392824  1
  O  O54  1  0.10559887  0.47998781  0.60569464  1
  O  O55  1  0.10717535  0.98446317  0.10771173  1
  O  O56  1  0.10309722  0.97542012  0.61138051  1
  O  O57  1  0.61436653  0.48652976  0.11232619  1
  O  O58  1  0.60811746  0.48353271  0.60485293  1
  O  O59  1  0.60363068  0.98517334  0.09373567  1
  O  O60  1  0.59893028  0.98011949  0.59928677  1
  O  O61  1  0.00796384  0.37765165  0.27729235  1
  O  O62  1  0.01207903  0.37591138  0.78619973  1
  O  O63  1  0.00527150  0.87153211  0.28362968  1
  O  O64  1  0.01096408  0.87334517  0.78976156  1
  O  O65  1  0.49857428  0.37919062  0.28020079  1
  O  O66  1  0.50601799  0.37595669  0.77133834  1
  O  O67  1  0.50759317  0.87174353  0.30046336  1
  O  O68  1  0.50792827  0.87376004  0.78408799  1
  O  O69  1  0.49552971  0.12452612  0.71662242  1
  O  O70  1  0.49234230  0.62879687  0.20985399  1
  O  O71  1  0.49076649  0.62536776  0.71308856  1
  O  O72  1  0.99773279  0.12918728  0.21860331  1
  O  O73  1  0.98753480  0.12374160  0.72582327  1
  O  O74  1  0.98706134  0.62610760  0.21018467  1
  O  O75  1  0.98776372  0.62527021  0.70975375  1
  O  O76  1  0.22482712  0.14835661  0.05377536  1
  O  O77  1  0.25245001  0.11689659  0.51596250  1
  O  O78  1  0.23842402  0.63050417  0.03817453  1
  O  O79  1  0.23500571  0.62659343  0.54287376  1
  O  O80  1  0.74878162  0.12249351  0.03465128  1
  O  O81  1  0.74625408  0.12608782  0.53995987  1
  O  O82  1  0.74146617  0.62724725  0.03696733  1
  O  O83  1  0.74480375  0.62448636  0.53843299  1
  O  O84  1  0.26395079  0.37533277  0.47575331  1
  O  O85  1  0.24831143  0.35643873  0.01206207  1
  O  O86  1  0.27047089  0.87536222  0.45890180  1
  O  O87  1  0.26244854  0.87843169  0.96716977  1
  O  O88  1  0.75670169  0.37597078  0.46075540  1
  O  O89  1  0.74953733  0.37634353  0.96798042  1
  O  O90  1  0.75327243  0.87338206  0.46262808  1
  O  O91  1  0.75617889  0.87353812  0.96109730  1
loop_
_geom_bond_atom_site_label_1
_geom_bond_atom_site_label_2
_geom_bond_distance
_geom_bond_site_symmetry_2
Ca0 O50 2.301043 1_455
Ca0 O72 2.408450 1_456
Ca0 O12 2.415293 1_455
Ca0 O76 2.466921 1_556
Ca0 O39 2.551876 1_555
Ca0 O55 2.595511 1_546
Ca0 O16 2.918875 1_555
Ca1 O75 2.343414 1_455
Ca1 O13 2.364878 1_455
Ca1 O51 2.375626 1_455
Ca1 O79 2.405973 1_555
Ca1 O40 2.618705 1_555
Ca1 O17 2.656399 1_555
Ca1 O54 2.713557 1_555
Ca1 O2 2.728913 1_555
Ca2 O74 2.348675 1_456
Ca2 O14 2.364076 1_455
Ca2 O52 2.387660 1_455
Ca2 O78 2.422195 1_556
Ca2 O53 2.619119 1_556
Ca2 O18 2.655105 1_555
Ca2 O41 2.690332 1_555
Ca2 O1 2.712740 1_556
Ca3 O69 2.310506 1_555
Ca3 O81 2.408111 1_555
Ca3 O4 2.451018 1_555
Ca3 O7 2.456147 1_555
Ca3 O42 2.490739 1_555
Ca3 O19 2.550062 1_555
Ca3 O60 2.667895 1_545
Ca3 O77 3.030808 1_555
Ca4 O46 2.348138 1_555
Ca4 O8 2.348831 1_555
Ca4 O80 2.400889 1_556
Ca4 O43 2.407367 1_555
Ca4 O20 2.468270 1_555
Ca4 O3 2.552422 1_556
Ca4 O59 2.591180 1_546
Ca4 O69 2.803401 1_555
Ca5 O71 2.368514 1_555
Ca5 O9 2.369679 1_555
Ca5 O47 2.404431 1_555
Ca5 O83 2.431304 1_555
Ca5 O44 2.585231 1_555
Ca5 O21 2.596248 1_555
Ca5 O58 2.629283 1_555
Ca5 O6 2.649936 1_555
Ca6 O70 2.356440 1_556
Ca6 O10 2.382884 1_555
Ca6 O48 2.440584 1_555
Ca6 O82 2.445706 1_556
Ca6 O45 2.588728 1_555
Ca6 O22 2.593446 1_555
Ca6 O57 2.686804 1_556
Ca6 O5 2.764051 1_556
Ca7 O58 2.284313 1_555
Ca7 O4 2.399839 1_555
Ca7 O84 2.425139 1_555
Ca7 O65 2.481486 1_555
Ca7 O31 2.522834 1_555
Ca7 O47 2.622009 1_555
Ca7 O23 2.798191 1_555
Ca7 O66 2.857139 1_555
Ca7 O88 3.044273 1_555
Ca7 O7 3.072832 1_555
Ca8 O5 2.306463 1_556
Ca8 O68 2.314342 1_555
Ca8 O59 2.463897 1_556
Ca8 O87 2.478023 1_555
Ca8 O10 2.550361 1_555
Ca8 O24 2.591186 1_556
Ca8 O46 2.827744 1_565
Ca8 O91 2.975465 1_555
Ca8 O32 2.984680 1_556
Ca9 O6 2.264462 1_555
Ca9 O67 2.334870 1_555
Ca9 O60 2.372805 1_555
Ca9 O86 2.422802 1_555
Ca9 O25 2.469545 1_555
Ca9 O9 2.661462 1_555
Ca9 O33 2.681165 1_555
Ca10 O53 2.367984 1_655
Ca10 O62 2.385927 1_654
Ca10 O89 2.417100 1_554
Ca10 O52 2.435974 1_554
Ca10 O34 2.442438 1_555
Ca10 O26 2.618494 1_555
Ca10 O12 2.721331 1_554
Ca11 O54 2.333483 1_655
Ca11 O88 2.427947 1_555
Ca11 O35 2.477959 1_555
Ca11 O61 2.480788 1_655
Ca11 O0 2.522090 1_655
Ca11 O51 2.524999 1_555
Ca11 O27 2.701594 1_555
Ca11 O11 2.704030 1_555
Ca12 O1 2.344634 1_655
Ca12 O64 2.365852 1_654
Ca12 O91 2.418522 1_554
Ca12 O28 2.494404 1_555
Ca12 O14 2.562906 1_554
Ca12 O55 2.570006 1_655
Ca12 O36 2.631718 1_555
Ca12 O50 2.668914 1_564
Ca13 O2 2.362481 1_655
Ca13 O90 2.405072 1_555
Ca13 O63 2.418269 1_655
Ca13 O29 2.459976 1_555
Ca13 O56 2.501946 1_655
Ca13 O13 2.530782 1_555
Ca13 O37 2.625984 1_555
Ca13 O49 2.782713 1_565
Ca14 O31 2.302291 1_555
Ca14 O54 2.425845 1_555
Ca14 O62 2.428036 1_555
Ca14 O41 2.522254 1_555
Ca14 O23 2.574676 1_555
Ca14 O0 2.762269 1_555
Ca14 O16 2.772543 1_555
Ca15 O24 2.320366 1_555
Ca15 O86 2.350363 1_555
Ca15 O63 2.468326 1_555
Ca15 O1 2.506693 1_555
Ca15 O32 2.576708 1_555
Ca15 O17 2.579851 1_555
Ca15 O38 2.644376 1_565
Ca15 O55 2.677875 1_555
Ca16 O25 2.313090 1_555
Ca16 O87 2.383196 1_555
Ca16 O64 2.453164 1_555
Ca16 O2 2.501579 1_555
Ca16 O18 2.502415 1_555
Ca16 O33 2.569353 1_555
Ca16 O56 2.681613 1_555
Ca16 O39 2.891972 1_565
Ca17 O34 2.289113 1_555
Ca17 O88 2.338206 1_555
Ca17 O57 2.487638 1_555
Ca17 O26 2.547238 1_555
Ca17 O44 2.567681 1_555
Ca17 O65 2.614674 1_555
Ca17 O19 2.963233 1_555
Ca18 O35 2.354592 1_555
Ca18 O89 2.410980 1_555
Ca18 O66 2.418535 1_555
Ca18 O27 2.443618 1_555
Ca18 O58 2.550094 1_555
Ca18 O45 2.604252 1_555
Ca18 O20 2.712391 1_555
Ca18 O4 2.743076 1_555
Ca19 O28 2.297051 1_555
Ca19 O90 2.337808 1_555
Ca19 O5 2.473868 1_555
Ca19 O36 2.487475 1_555
Ca19 O67 2.534145 1_555
Ca19 O21 2.585367 1_555
Ca19 O59 2.869828 1_555
Ca20 O29 2.360868 1_555
Ca20 O91 2.363017 1_555
Ca20 O68 2.425352 1_555
Ca20 O37 2.466076 1_555
Ca20 O6 2.528549 1_555
Ca20 O22 2.645425 1_555
Ca20 O43 2.697047 1_565
Ca20 O60 2.697189 1_555
Ca21 O69 2.395610 1_555
Ca21 O77 2.415424 1_555
Ca21 O39 2.451043 1_555
Ca21 O16 2.479018 1_555
Ca21 O33 2.499361 1_545
Ca21 O46 2.583956 1_555
Ca21 O23 2.596081 1_555
Ca21 O8 2.806757 1_555
Ca22 O78 2.370895 1_555
Ca22 O17 2.374145 1_555
Ca22 O40 2.395791 1_555
Ca22 O70 2.435528 1_555
Ca22 O9 2.543939 1_555
Ca22 O47 2.579289 1_555
Ca22 O30 2.608681 1_555
Ca22 O24 2.721420 1_555
Ca23 O79 2.361195 1_555
Ca23 O18 2.376614 1_555
Ca23 O41 2.403907 1_555
Ca23 O71 2.424952 1_555
Ca23 O48 2.567975 1_555
Ca23 O10 2.594314 1_555
Ca23 O31 2.666609 1_555
Ca23 O25 2.703176 1_555
Ca24 O19 2.343081 1_555
Ca24 O80 2.347395 1_555
Ca24 O42 2.414279 1_555
Ca24 O49 2.476805 1_555
Ca24 O72 2.502106 1_555
Ca24 O36 2.595992 1_545
Ca24 O11 2.760945 1_555
Ca24 O26 2.852263 1_555
Ca25 O81 2.316976 1_555
Ca25 O43 2.328395 1_555
Ca25 O20 2.338086 1_555
Ca25 O73 2.438344 1_555
Ca25 O27 2.701116 1_555
Ca25 O50 2.720667 1_555
Ca25 O37 2.721219 1_545
Ca25 O12 2.738260 1_555
Ca26 O82 2.361223 1_555
Ca26 O21 2.366312 1_555
Ca26 O44 2.378779 1_555
Ca26 O74 2.425886 1_555
Ca26 O13 2.645052 1_555
Ca26 O51 2.652582 1_555
Ca26 O34 2.672001 1_555
Ca26 O28 2.716521 1_555
Ca27 O83 2.353769 1_555
Ca27 O22 2.378972 1_555
Ca27 O45 2.411580 1_555
Ca27 O75 2.433591 1_555
Ca27 O14 2.623060 1_555
Ca27 O52 2.642304 1_555
Ca27 O29 2.728328 1_555
Ca27 O35 2.738584 1_555
Mn0 O74 1.946254 1_455
Mn0 O34 1.947726 1_455
Mn0 O53 1.953018 1_555
Mn0 O51 1.963441 1_455
Mn0 O40 1.970813 1_555
Mn0 O61 1.973539 1_555
Mn1 O75 1.948840 1_455
Mn1 O41 1.956507 1_555
Mn1 O52 1.959062 1_455
Mn1 O35 1.963317 1_455
Mn1 O54 1.977303 1_555
Mn1 O62 2.004682 1_555
Mn2 O67 1.860527 1_555
Mn2 O42 1.892124 1_565
Mn2 O32 1.896337 1_555
Mn2 O59 1.914415 1_555
Mn3 O43 1.952026 1_565
Mn3 O60 1.956480 1_555
Mn3 O68 1.960554 1_555
Mn3 O33 1.979012 1_555
Mn3 O69 1.988194 1_565
Mn3 O46 2.018473 1_565
Mn4 O30 1.943164 1_555
Mn4 O70 1.947339 1_555
Mn4 O44 1.957205 1_555
Mn4 O57 1.970419 1_555
Mn4 O47 1.981512 1_555
Mn4 O65 1.992427 1_555
Mn5 O71 1.929976 1_555
Mn5 O45 1.963523 1_555
Mn5 O31 1.965656 1_555
Mn5 O48 1.967575 1_555
Mn5 O58 1.978026 1_555
Mn5 O66 1.984449 1_555
Mn6 O30 1.948302 1_555
Mn6 O41 1.976004 1_554
Mn6 O53 1.980594 1_555
Mn6 O48 1.981985 1_554
Mn6 O78 1.993808 1_555
Mn6 O85 2.288035 1_555
Mn7 O79 1.922317 1_555
Mn7 O31 1.935393 1_555
Mn7 O47 1.959691 1_555
Mn7 O40 1.974807 1_555
Mn7 O54 1.995100 1_555
Mn7 O84 2.045860 1_555
Mn8 O59 1.901920 1_556
Mn8 O91 1.944965 1_555
Mn8 O50 1.955415 1_565
Mn8 O36 1.956947 1_556
Mn8 O43 1.971034 1_565
Mn8 O80 1.985725 1_566
Mn9 O60 1.934285 1_555
Mn9 O49 1.971933 1_565
Mn9 O90 1.986480 1_555
Mn9 O37 2.005842 1_555
Mn9 O81 2.011049 1_565
Mn9 O42 2.073901 1_565
Mn10 O57 1.940011 1_555
Mn10 O82 1.944009 1_555
Mn10 O45 1.957755 1_554
Mn10 O34 1.983658 1_555
Mn10 O52 1.988372 1_554
Mn10 O89 2.007181 1_554
Mn11 O83 1.939210 1_555
Mn11 O58 1.951302 1_555
Mn11 O44 1.957015 1_555
Mn11 O35 1.979060 1_555
Mn11 O51 1.989836 1_555
Mn11 O88 1.994190 1_555
Mn12 O78 1.858829 1_555
Mn12 O1 1.960575 1_555
Mn12 O24 1.969969 1_555
Mn12 O18 1.988047 1_554
Mn12 O10 1.991372 1_554
Mn12 O87 2.060865 1_554
Mn13 O79 1.939778 1_555
Mn13 O25 1.961883 1_555
Mn13 O9 1.963094 1_555
Mn13 O17 1.974275 1_555
Mn13 O2 1.983120 1_555
Mn13 O86 2.033439 1_555
Mn14 O26 1.971405 1_555
Mn14 O20 1.976733 1_554
Mn14 O12 1.988217 1_554
Mn14 O89 1.989877 1_554
Mn14 O80 2.001862 1_555
Mn14 O3 2.054482 1_555
Mn15 O4 1.916283 1_555
Mn15 O19 1.931229 1_555
Mn15 O27 1.971308 1_555
Mn15 O11 1.971858 1_555
Mn15 O88 1.975457 1_555
Mn15 O81 1.986871 1_555
Mn16 O82 1.927964 1_555
Mn16 O22 1.955374 1_554
Mn16 O91 1.972251 1_554
Mn16 O28 1.976610 1_555
Mn16 O5 1.991491 1_555
Mn16 O14 1.998292 1_554
Mn17 O83 1.956319 1_555
Mn17 O6 1.960646 1_555
Mn17 O21 1.960974 1_555
Mn17 O90 1.980824 1_555
Mn17 O13 1.989809 1_555
Mn17 O29 1.992154 1_555
Mn18 O74 1.920234 1_455
Mn18 O13 1.959370 1_455
Mn18 O63 1.961370 1_555
Mn18 O17 1.962400 1_555
Mn18 O28 1.963950 1_455
Mn18 O1 1.994671 1_555
Mn19 O75 1.957393 1_455
Mn19 O14 1.959068 1_455
Mn19 O18 1.963811 1_555
Mn19 O29 1.964434 1_455
Mn19 O64 1.980376 1_555
Mn19 O2 2.016769 1_555
Mn20 O19 1.870678 1_555
Mn20 O7 1.871486 1_555
Mn20 O65 1.896972 1_555
Mn20 O3 1.907684 1_555
Mn21 O4 1.947508 1_555
Mn21 O66 1.953512 1_555
Mn21 O69 1.979327 1_555
Mn21 O23 1.981831 1_555
Mn21 O20 1.982104 1_555
Mn21 O8 1.998535 1_555
Mn22 O70 1.899891 1_555
Mn22 O24 1.967950 1_555
Mn22 O21 1.970562 1_555
Mn22 O9 1.979148 1_555
Mn22 O5 1.983377 1_555
Mn22 O67 1.983459 1_555
Mn23 O71 1.936857 1_555
Mn23 O22 1.953826 1_555
Mn23 O10 1.971926 1_555
Mn23 O6 1.978144 1_555
Mn23 O25 1.982217 1_555
Mn23 O68 1.982683 1_555
O0 Ti5 1.861675 1_555
O0 Ti7 2.108360 1_455
O0 Sr0 2.674786 1_555
O3 Sr1 2.561841 1_554
O7 Ti5 2.249388 1_555
O7 Sr3 2.560244 1_555
O8 Ti4 1.807431 1_555
O8 Sr1 2.771776 1_555
O11 Ti6 1.784814 1_555
O11 Sr0 2.454118 1_655
O12 Ti7 1.909085 1_555
O15 Ti6 1.938420 1_455
O15 Ti5 2.046252 1_555
O15 Sr3 2.401333 1_555
O15 Sr2 2.641515 1_555
O15 Sr0 3.000199 1_555
O16 Ti4 1.786915 1_555
O16 Ti7 2.026998 1_455
O23 Ti5 1.914162 1_555
O26 Ti6 1.924296 1_555
O27 Ti7 1.871802 1_555
O30 Sr2 2.414807 1_555
O30 Sr1 2.731943 1_554
O32 Ti2 2.106483 1_554
O32 Sr3 2.561936 1_565
O33 Ti3 1.935373 1_555
O36 Ti0 1.924747 1_555
O37 Ti1 1.917212 1_555
O38 Ti3 1.950428 1_545
O38 Ti0 2.010116 1_445
O38 Sr3 2.376128 1_555
O38 Sr0 2.761350 1_555
O39 Ti2 1.893445 1_545
O39 Ti1 2.090470 1_445
O40 Sr2 2.585130 1_555
O46 Ti2 1.951683 1_545
O48 Sr1 2.632106 1_555
O49 Ti0 1.976141 1_545
O49 Sr0 2.464808 1_655
O50 Ti1 1.859117 1_545
O53 Sr2 2.676317 1_555
O55 Ti0 1.968524 1_455
O55 Ti2 2.006551 1_554
O56 Ti3 1.782152 1_555
O56 Ti1 2.049691 1_455
O56 Sr0 2.737774 1_565
O57 Sr1 2.410702 1_554
O61 Ti6 1.950528 1_455
O61 Sr2 2.564599 1_555
O62 Ti7 1.942580 1_455
O63 Ti0 1.896531 1_455
O64 Ti1 1.936951 1_455
O65 Sr2 2.838762 1_555
O65 Sr1 3.067542 1_554
O66 Sr1 2.444994 1_555
O72 Ti6 1.981248 1_555
O72 Ti0 2.155211 1_545
O72 Sr3 2.775830 1_655
O72 Sr0 3.091415 1_655
O73 Ti1 2.012361 1_545
O73 Ti7 2.027455 1_555
O73 Sr0 2.412669 1_655
O76 Ti4 1.817802 1_554
O76 Sr3 2.346036 1_555
O76 Ti2 2.485255 1_544
O77 Ti3 1.987765 1_545
O77 Ti5 2.151125 1_555
O77 Sr0 2.702017 1_555
O77 Sr3 2.714778 1_555
O84 Ti5 1.885521 1_555
O84 Sr2 2.445322 1_555
O85 Ti4 1.818869 1_554
O85 Sr2 2.634511 1_555
O85 Sr1 2.748629 1_554
O86 Ti3 1.902547 1_555
O87 Ti2 1.816500 1_555
O89 Sr1 2.787565 1_555
