# generated using pymatgen
data_LaMg2Mo3S8
_symmetry_space_group_name_H-M   'P 1'
_cell_length_a   7.62176952
_cell_length_b   7.62195956
_cell_length_c   7.62206767
_cell_angle_alpha   59.80919855
_cell_angle_beta   59.80960584
_cell_angle_gamma   59.81090948
_symmetry_Int_Tables_number   1
_chemical_formula_structural   LaMg2Mo3S8
_chemical_formula_sum   'La1 Mg2 Mo3 S8'
_cell_volume   311.74693403
_cell_formula_units_Z   1
loop_
 _symmetry_equiv_pos_site_id
 _symmetry_equiv_pos_as_xyz
  1  'x, y, z'
loop_
 _atom_site_type_symbol
 _atom_site_label
 _atom_site_symmetry_multiplicity
 _atom_site_fract_x
 _atom_site_fract_y
 _atom_site_fract_z
 _atom_site_occupancy
  La  La0  1  0.49999500  0.50001600  0.49996600  1
  Mg  Mg0  1  0.87624000  0.87623000  0.87624500  1
  Mg  Mg1  1  0.12380200  0.12379700  0.12379200  1
  Mo  Mo0  1  0.50000000  0.49999300  0.99999600  1
  Mo  Mo1  1  0.99999400  0.49999600  0.50000800  1
  Mo  Mo2  1  0.50000000  0.99999400  0.50000600  1
  S  S0  1  0.73823900  0.73825000  0.73825400  1
  S  S1  1  0.23922100  0.23923800  0.72837500  1
  S  S2  1  0.23922600  0.72836800  0.23922900  1
  S  S3  1  0.72838000  0.23923000  0.23921700  1
  S  S4  1  0.76074200  0.27164200  0.76074000  1
  S  S5  1  0.27163200  0.76074500  0.76076700  1
  S  S6  1  0.26175300  0.26173400  0.26177100  1
  S  S7  1  0.76078100  0.76076000  0.27163400  1
loop_
_geom_bond_atom_site_label_1
_geom_bond_atom_site_label_2
_geom_bond_distance
_geom_bond_site_symmetry_2
La0 S2 2.818480 1_555
La0 S4 2.818550 1_555
La0 S7 2.818556 1_555
La0 S1 2.818628 1_555
La0 S5 2.818667 1_555
La0 S3 2.818680 1_555
Mg0 S5 2.464732 1_655
Mg0 S7 2.464801 1_556
Mg0 S4 2.464898 1_565
Mg0 S0 2.579959 1_555
Mg1 S3 2.464992 1_455
Mg1 S1 2.465027 1_554
Mg1 S2 2.465095 1_545
Mg1 S6 2.579305 1_555
Mo0 S5 2.524389 1_555
Mo0 S3 2.524415 1_556
Mo0 S4 2.524478 1_555
Mo0 S2 2.524499 1_556
Mo0 S0 2.569854 1_555
Mo0 S6 2.569922 1_556
Mo1 S7 2.524343 1_555
Mo1 S4 2.524357 1_555
Mo1 S2 2.524372 1_655
Mo1 S1 2.524376 1_655
Mo1 S6 2.569990 1_655
Mo1 S0 2.569993 1_555
Mo2 S5 2.524430 1_555
Mo2 S3 2.524440 1_565
Mo2 S7 2.524493 1_555
Mo2 S1 2.524529 1_565
Mo2 S6 2.569850 1_565
Mo2 S0 2.569878 1_555
