# generated using pymatgen
data_CeTi2O6
_symmetry_space_group_name_H-M   'P 1'
_cell_length_a   5.18473002
_cell_length_b   6.88803801
_cell_length_c   6.88803801
_cell_angle_alpha   78.02775093
_cell_angle_beta   70.95137525
_cell_angle_gamma   70.95137525
_symmetry_Int_Tables_number   1
_chemical_formula_structural   CeTi2O6
_chemical_formula_sum   'Ce2 Ti4 O12'
_cell_volume   218.38106500
_cell_formula_units_Z   2
loop_
 _symmetry_equiv_pos_site_id
 _symmetry_equiv_pos_as_xyz
  1  'x, y, z'
loop_
 _atom_site_type_symbol
 _atom_site_label
 _atom_site_symmetry_multiplicity
 _atom_site_fract_x
 _atom_site_fract_y
 _atom_site_fract_z
 _atom_site_occupancy
  Ce  Ce0  1  0.25000000  0.80818000  0.19182000  1
  Ce  Ce1  1  0.75000000  0.19182000  0.80818000  1
  Ti  Ti0  1  0.94570200  0.35158300  0.19016600  1
  Ti  Ti1  1  0.55429800  0.80983400  0.64841700  1
  Ti  Ti2  1  0.05429800  0.64841700  0.80983400  1
  Ti  Ti3  1  0.44570200  0.19016600  0.35158300  1
  O  O0  1  0.45608100  0.88576900  0.39364400  1
  O  O1  1  0.04391900  0.60635600  0.11423100  1
  O  O2  1  0.54391900  0.11423100  0.60635600  1
  O  O3  1  0.95608100  0.39364400  0.88576900  1
  O  O4  1  0.04030700  0.27849600  0.45109300  1
  O  O5  1  0.45969300  0.54890700  0.72150400  1
  O  O6  1  0.95969300  0.72150400  0.54890700  1
  O  O7  1  0.54030700  0.45109300  0.27849600  1
  O  O8  1  0.86637100  0.08792000  0.18795800  1
  O  O9  1  0.63362900  0.81204200  0.91208000  1
  O  O10  1  0.13362900  0.91208000  0.81204200  1
  O  O11  1  0.36637100  0.18795800  0.08792000  1
loop_
_geom_bond_atom_site_label_1
_geom_bond_atom_site_label_2
_geom_bond_distance
_geom_bond_site_symmetry_2
Ce0 O1 2.238384 1_555
Ce0 O0 2.238384 1_555
Ce0 O9 2.276242 1_554
Ce0 O8 2.276242 1_465
Ce0 O6 2.496504 1_455
Ce0 O7 2.496504 1_555
Ce0 O10 2.773258 1_554
Ce0 O11 2.773258 1_565
Ce1 O2 2.238384 1_555
Ce1 O3 2.238384 1_555
Ce1 O10 2.276242 1_645
Ce1 O11 2.276242 1_556
Ce1 O4 2.496504 1_655
Ce1 O5 2.496504 1_555
Ce1 O9 2.773258 1_545
Ce1 O8 2.773258 1_556
O0 Ti1 1.908183 1_555
O0 Ti3 2.041442 1_565
O1 Ti0 1.908183 1_455
O1 Ti2 2.041442 1_554
O2 Ti3 1.908183 1_555
O2 Ti1 2.041442 1_545
O3 Ti2 1.908183 1_655
O3 Ti0 2.041442 1_556
O4 Ti3 1.911991 1_555
O4 Ti0 1.939872 1_455
O5 Ti2 1.911991 1_555
O5 Ti1 1.939872 1_555
O6 Ti1 1.911991 1_555
O6 Ti2 1.939872 1_655
O7 Ti0 1.911991 1_555
O7 Ti3 1.939872 1_555
O8 Ti0 1.992695 1_555
O8 Ti3 2.060430 1_555
O9 Ti1 1.992695 1_555
O9 Ti2 2.060430 1_655
O10 Ti2 1.992695 1_555
O10 Ti1 2.060430 1_555
O11 Ti3 1.992695 1_555
O11 Ti0 2.060430 1_455
