# generated using pymatgen
data_Li7Mn4CoO12
_symmetry_space_group_name_H-M   'P 1'
_cell_length_a   6.46728968
_cell_length_b   10.50101735
_cell_length_c   6.78427652
_cell_angle_alpha   84.35962847
_cell_angle_beta   71.09697775
_cell_angle_gamma   93.27388506
_symmetry_Int_Tables_number   1
_chemical_formula_structural   Li7Mn4CoO12
_chemical_formula_sum   'Li14 Mn8 Co2 O24'
_cell_volume   431.84206414
_cell_formula_units_Z   2
loop_
 _symmetry_equiv_pos_site_id
 _symmetry_equiv_pos_as_xyz
  1  'x, y, z'
loop_
 _atom_site_type_symbol
 _atom_site_label
 _atom_site_symmetry_multiplicity
 _atom_site_fract_x
 _atom_site_fract_y
 _atom_site_fract_z
 _atom_site_occupancy
  Li  Li0  1  0.66668100  0.16659200  0.16673000  1
  Li  Li1  1  0.66657800  0.66669900  0.66674500  1
  Li  Li2  1  0.98909500  0.12238500  0.38639100  1
  Li  Li3  1  0.98916100  0.62254200  0.88642100  1
  Li  Li4  1  0.34424100  0.71094400  0.44689800  1
  Li  Li5  1  0.34417400  0.21078400  0.94687200  1
  Li  Li6  1  0.66463400  0.04310200  0.78130100  1
  Li  Li7  1  0.66463300  0.54309600  0.28148600  1
  Li  Li8  1  0.66868800  0.29031100  0.55181100  1
  Li  Li9  1  0.66869200  0.79030400  0.05198400  1
  Li  Li10  1  0.35243300  0.96281800  0.21566200  1
  Li  Li11  1  0.35238700  0.46291600  0.71558300  1
  Li  Li12  1  0.98090800  0.87051800  0.61767900  1
  Li  Li13  1  0.98095500  0.37042200  0.11776000  1
  Mn  Mn0  1  0.99232700  0.00125400  0.00736500  1
  Mn  Mn1  1  0.99226900  0.50129300  0.50747400  1
  Mn  Mn2  1  0.34104600  0.83209800  0.82595100  1
  Mn  Mn3  1  0.34110200  0.33207100  0.32583400  1
  Mn  Mn4  1  0.33765900  0.08424300  0.57233000  1
  Mn  Mn5  1  0.33799200  0.58438000  0.07237200  1
  Mn  Mn6  1  0.99567200  0.74907000  0.26098300  1
  Mn  Mn7  1  0.99533400  0.24894900  0.76094900  1
  Co  Co0  1  0.66666600  0.41665500  0.91668800  1
  Co  Co1  1  0.66666700  0.91664900  0.41668800  1
  O  O0  1  0.00305000  0.68551700  0.53488600  1
  O  O1  1  0.00302700  0.18556500  0.03472100  1
  O  O2  1  0.33026800  0.14778700  0.29844200  1
  O  O3  1  0.33030000  0.64774900  0.79859800  1
  O  O4  1  0.32135400  0.25875900  0.65035300  1
  O  O5  1  0.32142800  0.75862000  0.15050300  1
  O  O6  1  0.01189500  0.07470600  0.68280900  1
  O  O7  1  0.01197300  0.57456300  0.18295700  1
  O  O8  1  0.64792100  0.09477300  0.48142000  1
  O  O9  1  0.64794000  0.59471900  0.98157200  1
  O  O10  1  0.68540300  0.73856000  0.35188700  1
  O  O11  1  0.68538900  0.23861200  0.85173300  1
  O  O12  1  0.32005300  0.01835400  0.86984300  1
  O  O13  1  0.32012600  0.51827600  0.36996600  1
  O  O14  1  0.01325600  0.31509900  0.46334000  1
  O  O15  1  0.01333200  0.81503200  0.96346700  1
  O  O16  1  0.98780800  0.92414000  0.32205400  1
  O  O17  1  0.98783100  0.42423200  0.82213200  1
  O  O18  1  0.34550700  0.90917400  0.51130300  1
  O  O19  1  0.34548000  0.40908100  0.01121600  1
  O  O20  1  0.65114200  0.85968200  0.70826700  1
  O  O21  1  0.65118000  0.35966300  0.20821500  1
  O  O22  1  0.68219600  0.97361600  0.12515400  1
  O  O23  1  0.68214800  0.47362900  0.62521000  1
loop_
_geom_bond_atom_site_label_1
_geom_bond_atom_site_label_2
_geom_bond_distance
_geom_bond_site_symmetry_2
Li0 O1 2.055879 1_655
Li0 O2 2.056119 1_555
Li0 O22 2.076860 1_545
Li0 O21 2.077710 1_555
Li0 O8 2.155621 1_555
Li0 O11 2.158197 1_554
Li1 O3 2.055392 1_555
Li1 O0 2.056548 1_655
Li1 O20 2.076823 1_555
Li1 O23 2.077800 1_555
Li1 O10 2.156680 1_555
Li1 O9 2.157139 1_555
Li2 O6 2.078248 1_655
Li2 O8 2.082477 1_555
Li2 O2 2.084255 1_655
Li2 O14 2.148646 1_655
Li2 O16 2.168722 1_545
Li2 O1 2.383946 1_655
Li3 O7 2.079527 1_656
Li3 O9 2.082835 1_555
Li3 O3 2.084024 1_655
Li3 O15 2.146627 1_655
Li3 O17 2.169298 1_555
Li3 O0 2.382768 1_655
Li4 O5 2.078126 1_555
Li4 O10 2.082411 1_555
Li4 O0 2.084358 1_555
Li4 O13 2.148111 1_555
Li4 O18 2.168703 1_555
Li4 O3 2.384152 1_555
Li5 O4 2.079430 1_555
Li5 O11 2.082805 1_555
Li5 O1 2.084066 1_556
Li5 O12 2.145949 1_555
Li5 O19 2.169273 1_556
Li5 O2 2.383004 1_556
Li6 O20 2.039455 1_545
Li6 O8 2.092218 1_555
Li6 O12 2.104855 1_555
Li6 O6 2.121170 1_655
Li6 O11 2.159696 1_555
Li6 O22 2.415325 1_546
Li7 O21 2.040132 1_555
Li7 O9 2.092300 1_554
Li7 O13 2.104452 1_555
Li7 O7 2.121550 1_655
Li7 O10 2.159165 1_555
Li7 O23 2.414336 1_555
Li8 O23 2.039274 1_555
Li8 O11 2.092505 1_555
Li8 O14 2.104823 1_655
Li8 O4 2.121567 1_555
Li8 O8 2.159894 1_555
Li8 O21 2.413240 1_555
Li9 O22 2.038688 1_555
Li9 O10 2.092485 1_555
Li9 O15 2.105225 1_654
Li9 O5 2.121235 1_555
Li9 O9 2.160412 1_554
Li9 O20 2.414180 1_554
Li10 O22 2.012061 1_555
Li10 O18 2.014701 1_555
Li10 O2 2.074315 1_565
Li10 O16 2.230895 1_455
Li10 O5 2.242373 1_555
Li10 O12 2.439595 1_564
Li11 O23 2.012120 1_555
Li11 O19 2.015051 1_556
Li11 O3 2.073460 1_555
Li11 O17 2.230441 1_455
Li11 O4 2.242127 1_555
Li11 O13 2.437679 1_555
Li12 O20 2.012042 1_555
Li12 O16 2.014608 1_555
Li12 O0 2.074665 1_655
Li12 O18 2.230719 1_655
Li12 O6 2.242197 1_665
Li12 O15 2.439430 1_655
Li13 O21 2.012165 1_555
Li13 O17 2.015034 1_554
Li13 O1 2.073756 1_655
Li13 O19 2.230230 1_655
Li13 O7 2.241883 1_655
Li13 O14 2.437485 1_655
Mn0 O22 1.896074 1_545
Mn0 O1 1.961847 1_655
Mn0 O12 2.009307 1_654
Mn0 O15 2.012415 1_644
Mn0 O16 2.198087 1_545
Mn0 O6 2.221188 1_654
Mn1 O23 1.896006 1_555
Mn1 O0 1.961021 1_655
Mn1 O13 2.010079 1_655
Mn1 O14 2.012471 1_655
Mn1 O17 2.197908 1_555
Mn1 O7 2.220220 1_655
Mn2 O20 1.895793 1_555
Mn2 O3 1.962242 1_555
Mn2 O15 2.009239 1_555
Mn2 O12 2.012754 1_565
Mn2 O18 2.197840 1_555
Mn2 O5 2.221138 1_556
Mn3 O21 1.895663 1_555
Mn3 O2 1.961623 1_555
Mn3 O14 2.010015 1_555
Mn3 O13 2.012577 1_555
Mn3 O19 2.197635 1_555
Mn3 O4 2.220260 1_555
Mn4 O8 1.891632 1_555
Mn4 O18 1.923636 1_545
Mn4 O2 1.928125 1_555
Mn4 O4 1.956094 1_555
Mn4 O6 1.987072 1_555
Mn4 O12 2.033039 1_555
Mn5 O9 1.889786 1_554
Mn5 O19 1.926237 1_555
Mn5 O3 1.927631 1_554
Mn5 O5 1.953579 1_555
Mn5 O7 1.988498 1_555
Mn5 O13 2.033620 1_555
Mn6 O10 1.891683 1_555
Mn6 O16 1.923737 1_555
Mn6 O0 1.928214 1_655
Mn6 O7 1.956009 1_655
Mn6 O5 1.987017 1_655
Mn6 O15 2.033143 1_654
Mn7 O11 1.889771 1_555
Mn7 O17 1.926129 1_555
Mn7 O1 1.927661 1_656
Mn7 O6 1.953630 1_655
Mn7 O4 1.988509 1_655
Mn7 O14 2.033729 1_655
Co0 O17 1.959546 1_555
Co0 O19 1.959680 1_556
Co0 O11 1.964082 1_555
Co0 O9 1.964155 1_555
Co0 O23 1.977538 1_555
Co0 O21 1.977886 1_556
Co1 O16 1.959435 1_555
Co1 O18 1.959563 1_555
Co1 O10 1.964246 1_555
Co1 O8 1.964469 1_565
Co1 O22 1.977798 1_555
Co1 O20 1.978096 1_555
