# generated using pymatgen
data_Na2Mo2O5
_symmetry_space_group_name_H-M   'P 1'
_cell_length_a   8.44986848
_cell_length_b   8.44986848
_cell_length_c   8.44986848
_cell_angle_alpha   140.80113212
_cell_angle_beta   139.91423856
_cell_angle_gamma   57.31374534
_symmetry_Int_Tables_number   1
_chemical_formula_structural   Na2Mo2O5
_chemical_formula_sum   'Na4 Mo4 O10'
_cell_volume   243.45688317
_cell_formula_units_Z   2
loop_
 _symmetry_equiv_pos_site_id
 _symmetry_equiv_pos_as_xyz
  1  'x, y, z'
loop_
 _atom_site_type_symbol
 _atom_site_label
 _atom_site_symmetry_multiplicity
 _atom_site_fract_x
 _atom_site_fract_y
 _atom_site_fract_z
 _atom_site_occupancy
  Na  Na0  1  0.92638900  0.39442300  0.52828100  1
  Na  Na1  1  0.07361100  0.60189100  0.46803400  1
  Na  Na2  1  0.36614200  0.89442300  0.46803400  1
  Na  Na3  1  0.63385800  0.10189100  0.52828100  1
  Mo  Mo0  1  0.00000000  0.02126900  0.02126900  1
  Mo  Mo1  1  0.50000000  0.52126900  0.02126900  1
  Mo  Mo2  1  0.68897700  0.68443900  0.87341600  1
  Mo  Mo3  1  0.31102300  0.18443900  0.99546200  1
  O  O0  1  0.27265500  0.28958100  0.52161300  1
  O  O1  1  0.72734500  0.24895700  0.01692600  1
  O  O2  1  0.26796800  0.78958100  0.01692600  1
  O  O3  1  0.73203200  0.74895700  0.52161300  1
  O  O4  1  0.94037500  0.90070400  0.12353100  1
  O  O5  1  0.05962500  0.18315600  0.96032900  1
  O  O6  1  0.27717300  0.40070400  0.96032900  1
  O  O7  1  0.72282700  0.68315600  0.12353100  1
  O  O8  1  0.62559300  0.33958000  0.46517300  1
  O  O9  1  0.37440700  0.83958000  0.71398700  1
loop_
_geom_bond_atom_site_label_1
_geom_bond_atom_site_label_2
_geom_bond_distance
_geom_bond_site_symmetry_2
Na0 O6 2.329827 1_655
Na0 O8 2.403023 1_555
Na0 O1 2.427073 1_555
Na0 O3 2.545789 1_555
Na0 O0 2.593100 1_655
Na0 O4 2.662137 1_545
Na0 O2 2.708041 1_656
Na1 O7 2.329832 1_455
Na1 O9 2.403030 1_555
Na1 O0 2.427070 1_555
Na1 O2 2.545792 1_556
Na1 O1 2.593100 1_455
Na1 O5 2.662136 1_554
Na1 O3 2.708041 1_455
Na2 O4 2.329827 1_455
Na2 O9 2.403023 1_555
Na2 O3 2.427077 1_555
Na2 O1 2.545792 1_566
Na2 O2 2.593100 1_555
Na2 O6 2.662137 1_554
Na2 O0 2.708041 1_565
Na3 O5 2.329826 1_655
Na3 O8 2.403032 1_555
Na3 O2 2.427074 1_545
Na3 O0 2.545796 1_555
Na3 O3 2.593100 1_545
Na3 O7 2.662135 1_545
Na3 O1 2.708041 1_556
Mo0 O2 2.046713 1_545
Mo0 O3 2.046714 1_444
Mo0 O1 2.050215 1_455
Mo0 O0 2.050218 1_555
Mo0 O5 2.150190 1_554
Mo0 O4 2.150190 1_445
Mo1 O0 2.046713 1_554
Mo1 O1 2.046718 1_555
Mo1 O2 2.050218 1_555
Mo1 O3 2.050219 1_555
Mo1 O6 2.150190 1_554
Mo1 O7 2.150190 1_555
Mo2 O7 1.911996 1_556
Mo2 O4 1.911996 1_556
Mo2 O8 1.989137 1_555
Mo2 O9 2.023129 1_555
Mo3 O6 1.911996 1_555
Mo3 O5 1.911996 1_555
Mo3 O9 1.989137 1_545
Mo3 O8 2.023129 1_556
