# generated using pymatgen
data_Sc4B12Rh17
_symmetry_space_group_name_H-M   'P 1'
_cell_length_a   10.80314400
_cell_length_b   9.23398600
_cell_length_c   16.19886734
_cell_angle_alpha   79.07205429
_cell_angle_beta   90.00000000
_cell_angle_gamma   90.00000000
_symmetry_Int_Tables_number   1
_chemical_formula_structural   Sc4B12Rh17
_chemical_formula_sum   'Sc16 B48 Rh68'
_cell_volume   1586.63272959
_cell_formula_units_Z   4
loop_
 _symmetry_equiv_pos_site_id
 _symmetry_equiv_pos_as_xyz
  1  'x, y, z'
loop_
 _atom_site_type_symbol
 _atom_site_label
 _atom_site_symmetry_multiplicity
 _atom_site_fract_x
 _atom_site_fract_y
 _atom_site_fract_z
 _atom_site_occupancy
  Sc  Sc0  1  0.62608000  0.99567500  0.75647200  1
  Sc  Sc1  1  0.12608000  0.00432500  0.74352800  1
  Sc  Sc2  1  0.37392000  0.00432500  0.24352800  1
  Sc  Sc3  1  0.87392000  0.99567500  0.25647200  1
  Sc  Sc4  1  0.87618900  0.74734700  0.99917100  1
  Sc  Sc5  1  0.37618900  0.25265300  0.50082900  1
  Sc  Sc6  1  0.12381100  0.25265300  0.00082900  1
  Sc  Sc7  1  0.62381100  0.74734700  0.49917100  1
  Sc  Sc8  1  0.87777100  0.47225400  0.75038800  1
  Sc  Sc9  1  0.37777100  0.52774600  0.74961200  1
  Sc  Sc10  1  0.12222900  0.52774600  0.24961200  1
  Sc  Sc11  1  0.62222900  0.47225400  0.25038800  1
  Sc  Sc12  1  0.86132100  0.22939100  0.51373700  1
  Sc  Sc13  1  0.36132100  0.77060900  0.98626300  1
  Sc  Sc14  1  0.13867900  0.77060900  0.48626300  1
  Sc  Sc15  1  0.63867900  0.22939100  0.01373700  1
  B  B0  1  0.54747200  0.99657300  0.59668400  1
  B  B1  1  0.04747200  0.00342700  0.90331600  1
  B  B2  1  0.45252800  0.00342700  0.40331600  1
  B  B3  1  0.95252800  0.99657300  0.09668400  1
  B  B4  1  0.22571100  0.99459400  0.59088700  1
  B  B5  1  0.72571100  0.00540600  0.90911300  1
  B  B6  1  0.77428900  0.00540600  0.40911300  1
  B  B7  1  0.27428900  0.99459400  0.09088700  1
  B  B8  1  0.87722600  0.95161800  0.70398400  1
  B  B9  1  0.37722600  0.04838200  0.79601600  1
  B  B10  1  0.12277400  0.04838200  0.29601600  1
  B  B11  1  0.62277400  0.95161800  0.20398400  1
  B  B12  1  0.86576500  0.92304700  0.50472700  1
  B  B13  1  0.36576500  0.07695300  0.99527300  1
  B  B14  1  0.13423500  0.07695300  0.49527300  1
  B  B15  1  0.63423500  0.92304700  0.00472700  1
  B  B16  1  0.55218000  0.71158800  0.80010400  1
  B  B17  1  0.05218000  0.28841200  0.69989600  1
  B  B18  1  0.44782000  0.28841200  0.19989600  1
  B  B19  1  0.94782000  0.71158800  0.30010400  1
  B  B20  1  0.88519200  0.69091300  0.85219800  1
  B  B21  1  0.38519200  0.30908700  0.64780200  1
  B  B22  1  0.11480800  0.30908700  0.14780200  1
  B  B23  1  0.61480800  0.69091300  0.35219800  1
  B  B24  1  0.05985200  0.65950800  0.63906900  1
  B  B25  1  0.55985200  0.34049200  0.86093100  1
  B  B26  1  0.94014800  0.34049200  0.36093100  1
  B  B27  1  0.44014800  0.65950800  0.13906900  1
  B  B28  1  0.70267400  0.65795000  0.64900800  1
  B  B29  1  0.20267400  0.34205000  0.85099200  1
  B  B30  1  0.29732600  0.34205000  0.35099200  1
  B  B31  1  0.79732600  0.65795000  0.14900800  1
  B  B32  1  0.87086700  0.57207000  0.50199000  1
  B  B33  1  0.37086700  0.42793000  0.99801000  1
  B  B34  1  0.12913300  0.42793000  0.49801000  1
  B  B35  1  0.62913300  0.57207000  0.00199000  1
  B  B36  1  0.62215900  0.39644500  0.50482200  1
  B  B37  1  0.12215900  0.60355500  0.99517800  1
  B  B38  1  0.37784100  0.60355500  0.49517800  1
  B  B39  1  0.87784100  0.39644500  0.00482200  1
  B  B40  1  0.88131200  0.31387300  0.90656200  1
  B  B41  1  0.38131200  0.68612700  0.59343800  1
  B  B42  1  0.11868800  0.68612700  0.09343800  1
  B  B43  1  0.61868800  0.31387300  0.40656200  1
  B  B44  1  0.70265100  0.28536200  0.70814000  1
  B  B45  1  0.20265100  0.71463800  0.79186000  1
  B  B46  1  0.29734900  0.71463800  0.29186000  1
  B  B47  1  0.79734900  0.28536200  0.20814000  1
  Rh  Rh0  1  0.01285900  0.95759000  0.58895000  1
  Rh  Rh1  1  0.51285900  0.04241000  0.91105000  1
  Rh  Rh2  1  0.98714100  0.04241000  0.41105000  1
  Rh  Rh3  1  0.48714100  0.95759000  0.08895000  1
  Rh  Rh4  1  0.74559600  0.95612400  0.60415400  1
  Rh  Rh5  1  0.24559600  0.04387600  0.89584600  1
  Rh  Rh6  1  0.25440400  0.04387600  0.39584600  1
  Rh  Rh7  1  0.75440400  0.95612400  0.10415400  1
  Rh  Rh8  1  0.87992900  0.93196600  0.83989300  1
  Rh  Rh9  1  0.37992900  0.06803400  0.66010700  1
  Rh  Rh10  1  0.12007100  0.06803400  0.16010700  1
  Rh  Rh11  1  0.62007100  0.93196600  0.33989300  1
  Rh  Rh12  1  0.10906900  0.91337400  0.03474300  1
  Rh  Rh13  1  0.60906900  0.08662600  0.46525700  1
  Rh  Rh14  1  0.89093100  0.08662600  0.96525700  1
  Rh  Rh15  1  0.39093100  0.91337400  0.53474300  1
  Rh  Rh16  1  0.10415500  0.78395900  0.89384900  1
  Rh  Rh17  1  0.60415500  0.21604100  0.60615100  1
  Rh  Rh18  1  0.89584500  0.21604100  0.10615100  1
  Rh  Rh19  1  0.39584500  0.78395900  0.39384900  1
  Rh  Rh20  1  0.64706700  0.78128500  0.91117300  1
  Rh  Rh21  1  0.14706700  0.21871500  0.58882700  1
  Rh  Rh22  1  0.35293300  0.21871500  0.08882700  1
  Rh  Rh23  1  0.85293300  0.78128500  0.41117300  1
  Rh  Rh24  1  0.22766600  0.76809900  0.65599400  1
  Rh  Rh25  1  0.72766600  0.23190100  0.84400600  1
  Rh  Rh26  1  0.77233400  0.23190100  0.34400600  1
  Rh  Rh27  1  0.27233400  0.76809900  0.15599400  1
  Rh  Rh28  1  0.53109800  0.76372200  0.66253300  1
  Rh  Rh29  1  0.03109800  0.23627800  0.83746700  1
  Rh  Rh30  1  0.46890200  0.23627800  0.33746700  1
  Rh  Rh31  1  0.96890200  0.76372200  0.16253300  1
  Rh  Rh32  1  0.00086500  0.75662200  0.74233500  1
  Rh  Rh33  1  0.50086500  0.24337800  0.75766500  1
  Rh  Rh34  1  0.99913500  0.24337800  0.25766500  1
  Rh  Rh35  1  0.49913500  0.75662200  0.24233500  1
  Rh  Rh36  1  0.74988200  0.74710500  0.75671800  1
  Rh  Rh37  1  0.24988200  0.25289500  0.74328200  1
  Rh  Rh38  1  0.25011800  0.25289500  0.24328200  1
  Rh  Rh39  1  0.75011800  0.74710500  0.25671800  1
  Rh  Rh40  1  0.87701200  0.71575700  0.59008400  1
  Rh  Rh41  1  0.37701200  0.28424300  0.90991600  1
  Rh  Rh42  1  0.12298800  0.28424300  0.40991600  1
  Rh  Rh43  1  0.62298800  0.71575700  0.09008400  1
  Rh  Rh44  1  0.50802700  0.53406400  0.90627400  1
  Rh  Rh45  1  0.00802700  0.46593600  0.59372600  1
  Rh  Rh46  1  0.49197300  0.46593600  0.09372600  1
  Rh  Rh47  1  0.99197300  0.53406400  0.40627400  1
  Rh  Rh48  1  0.75433400  0.51054900  0.90944500  1
  Rh  Rh49  1  0.25433400  0.48945100  0.59055500  1
  Rh  Rh50  1  0.24566600  0.48945100  0.09055500  1
  Rh  Rh51  1  0.74566600  0.51054900  0.40944500  1
  Rh  Rh52  1  0.62736500  0.49601100  0.75087800  1
  Rh  Rh53  1  0.12736500  0.50398900  0.74912200  1
  Rh  Rh54  1  0.37263500  0.50398900  0.24912200  1
  Rh  Rh55  1  0.87263500  0.49601100  0.25087800  1
  Rh  Rh56  1  0.50054100  0.49084500  0.59239100  1
  Rh  Rh57  1  0.00054100  0.50915500  0.90760900  1
  Rh  Rh58  1  0.49945900  0.50915500  0.40760900  1
  Rh  Rh59  1  0.99945900  0.49084500  0.09239100  1
  Rh  Rh60  1  0.74470700  0.46330000  0.59650500  1
  Rh  Rh61  1  0.24470700  0.53670000  0.90349500  1
  Rh  Rh62  1  0.25529300  0.53670000  0.40349500  1
  Rh  Rh63  1  0.75529300  0.46330000  0.09650500  1
  Rh  Rh64  1  0.87793500  0.18490300  0.68381600  1
  Rh  Rh65  1  0.37793500  0.81509700  0.81618400  1
  Rh  Rh66  1  0.12206500  0.81509700  0.31618400  1
  Rh  Rh67  1  0.62206500  0.18490300  0.18381600  1
loop_
_geom_bond_atom_site_label_1
_geom_bond_atom_site_label_2
_geom_bond_distance
_geom_bond_site_symmetry_2
B0 Rh17 2.150184 1_565
B0 Rh4 2.172133 1_555
B0 Rh15 2.179262 1_555
B0 Rh28 2.218699 1_555
B0 Rh13 2.235077 1_565
B0 Rh9 2.241439 1_565
B0 Sc0 2.722651 1_555
B1 Rh16 2.150184 1_545
B1 Rh5 2.172133 1_555
B1 Rh14 2.179262 1_455
B1 Rh29 2.218699 1_555
B1 Rh12 2.235077 1_546
B1 Rh8 2.241439 1_445
B1 Sc1 2.722651 1_555
B2 Rh19 2.150184 1_545
B2 Rh6 2.172133 1_555
B2 Rh13 2.179262 1_555
B2 Rh30 2.218699 1_555
B2 Rh15 2.235077 1_545
B2 Rh11 2.241439 1_545
B2 Sc2 2.722651 1_555
B3 Rh18 2.150184 1_565
B3 Rh7 2.172133 1_555
B3 Rh12 2.179262 1_655
B3 Rh31 2.218699 1_555
B3 Rh14 2.235077 1_564
B3 Rh10 2.241439 1_665
B3 Sc3 2.722651 1_555
B4 Rh24 2.156527 1_555
B4 Rh9 2.186584 1_565
B4 Rh15 2.198653 1_555
B4 Rh21 2.231526 1_565
B4 Rh0 2.325805 1_555
B4 Sc1 2.713780 1_565
B5 Rh25 2.156527 1_555
B5 Rh8 2.186584 1_545
B5 Rh14 2.198653 1_555
B5 Rh20 2.231526 1_545
B5 Rh1 2.325805 1_555
B5 Sc0 2.713780 1_545
B6 Rh26 2.156527 1_555
B6 Rh11 2.186584 1_545
B6 Rh13 2.198653 1_555
B6 Rh23 2.231526 1_545
B6 Rh2 2.325805 1_555
B6 Sc3 2.713780 1_545
B7 Rh27 2.156527 1_555
B7 Rh10 2.186584 1_565
B7 Rh12 2.198653 1_555
B7 Rh22 2.231526 1_565
B7 Rh3 2.325805 1_555
B7 Sc2 2.713780 1_565
B8 Rh64 2.116678 1_565
B8 Rh4 2.147900 1_555
B8 Rh8 2.174679 1_555
B8 Rh32 2.233387 1_655
B8 Rh36 2.361564 1_555
B8 Rh0 2.362924 1_655
B8 Sc1 2.827177 1_665
B8 Sc0 2.894968 1_555
B9 Rh65 2.116678 1_545
B9 Rh5 2.147900 1_555
B9 Rh9 2.174679 1_555
B9 Rh33 2.233387 1_555
B9 Rh37 2.361564 1_555
B9 Rh1 2.362924 1_555
B9 Sc0 2.827177 1_545
B9 Sc1 2.894968 1_555
B10 Rh66 2.116678 1_545
B10 Rh6 2.147900 1_555
B10 Rh10 2.174679 1_555
B10 Rh34 2.233387 1_455
B10 Rh38 2.361564 1_555
B10 Rh2 2.362924 1_455
B10 Sc3 2.827177 1_445
B10 Sc2 2.894968 1_555
B11 Rh67 2.116678 1_565
B11 Rh7 2.147900 1_555
B11 Rh11 2.174679 1_555
B11 Rh35 2.233387 1_555
B11 Rh39 2.361564 1_555
B11 Rh3 2.362924 1_555
B11 Sc2 2.827177 1_565
B11 Sc3 2.894968 1_555
B12 B6 1.872769 1_565
B12 Rh4 2.135224 1_555
B12 Rh40 2.141717 1_555
B12 Rh2 2.145400 1_565
B12 Rh0 2.157143 1_655
B12 Rh23 2.186680 1_555
B13 B7 1.872769 1_546
B13 Rh5 2.135224 1_555
B13 Rh41 2.141717 1_555
B13 Rh3 2.145400 1_546
B13 Rh1 2.157143 1_555
B13 Rh22 2.186680 1_556
B14 B4 1.872769 1_545
B14 Rh6 2.135224 1_555
B14 Rh42 2.141717 1_555
B14 Rh0 2.145400 1_545
B14 Rh2 2.157143 1_455
B14 Rh21 2.186680 1_555
B15 B5 1.872769 1_564
B15 Rh7 2.135224 1_555
B15 Rh43 2.141717 1_555
B15 Rh1 2.145400 1_564
B15 Rh3 2.157143 1_555
B15 Rh20 2.186680 1_554
B16 Rh65 2.149234 1_555
B16 Rh44 2.191709 1_555
B16 Rh28 2.200694 1_555
B16 Rh36 2.252944 1_555
B16 Rh20 2.267399 1_555
B16 Rh52 2.420753 1_555
B16 Sc0 2.704702 1_555
B16 Sc9 2.761762 1_555
B17 Rh64 2.149234 1_455
B17 Rh45 2.191709 1_555
B17 Rh29 2.200694 1_555
B17 Rh37 2.252944 1_555
B17 Rh21 2.267399 1_555
B17 Rh53 2.420753 1_555
B17 Sc1 2.704702 1_555
B17 Sc8 2.761762 1_455
B18 Rh67 2.149234 1_555
B18 Rh46 2.191709 1_555
B18 Rh30 2.200694 1_555
B18 Rh38 2.252944 1_555
B18 Rh22 2.267399 1_555
B18 Rh54 2.420753 1_555
B18 Sc2 2.704702 1_555
B18 Sc11 2.761762 1_555
B19 Rh66 2.149234 1_655
B19 Rh47 2.191709 1_555
B19 Rh31 2.200694 1_555
B19 Rh39 2.252944 1_555
B19 Rh23 2.267399 1_555
B19 Rh55 2.420753 1_555
B19 Sc3 2.704702 1_555
B19 Sc10 2.761762 1_655
B20 Rh36 2.119886 1_555
B20 Rh57 2.145741 1_655
B20 Rh32 2.165063 1_655
B20 Rh8 2.197564 1_555
B20 Rh48 2.246481 1_555
B20 Sc4 2.533693 1_555
B20 Sc8 2.839996 1_555
B21 Rh37 2.119886 1_555
B21 Rh56 2.145741 1_555
B21 Rh33 2.165063 1_555
B21 Rh9 2.197564 1_555
B21 Rh49 2.246481 1_555
B21 Sc5 2.533693 1_555
B21 Sc9 2.839996 1_555
B22 Rh38 2.119886 1_555
B22 Rh59 2.145741 1_455
B22 Rh34 2.165063 1_455
B22 Rh10 2.197564 1_555
B22 Rh50 2.246481 1_555
B22 Sc6 2.533693 1_555
B22 Sc10 2.839996 1_555
B23 Rh39 2.119886 1_555
B23 Rh58 2.145741 1_555
B23 Rh35 2.165063 1_555
B23 Rh11 2.197564 1_555
B23 Rh51 2.246481 1_555
B23 Sc7 2.533693 1_555
B23 Sc11 2.839996 1_555
B24 Rh24 2.114601 1_555
B24 Rh45 2.132060 1_555
B24 Rh32 2.139445 1_555
B24 Rh40 2.155170 1_455
B24 Rh53 2.191278 1_555
B24 Sc14 2.634746 1_555
B24 Sc8 2.988070 1_455
B25 Rh25 2.114601 1_555
B25 Rh44 2.132060 1_555
B25 Rh33 2.139445 1_555
B25 Rh41 2.155170 1_555
B25 Rh52 2.191278 1_555
B25 Sc15 2.634746 1_556
B25 Sc9 2.988070 1_555
B26 Rh26 2.114601 1_555
B26 Rh47 2.132060 1_555
B26 Rh34 2.139445 1_555
B26 Rh42 2.155170 1_655
B26 Rh55 2.191278 1_555
B26 Sc12 2.634746 1_555
B26 Sc10 2.988070 1_655
B27 Rh27 2.114601 1_555
B27 Rh46 2.132060 1_555
B27 Rh35 2.139445 1_555
B27 Rh43 2.155170 1_555
B27 Rh54 2.191278 1_555
B27 Sc13 2.634746 1_554
B27 Sc11 2.988070 1_555
B28 Rh28 2.125736 1_555
B28 Rh36 2.127607 1_555
B28 Rh40 2.133077 1_555
B28 Rh52 2.164592 1_555
B28 Rh60 2.177097 1_555
B28 Sc7 2.557120 1_555
B28 Sc8 2.854413 1_555
B29 Rh29 2.125736 1_555
B29 Rh37 2.127607 1_555
B29 Rh41 2.133077 1_555
B29 Rh53 2.164592 1_555
B29 Rh61 2.177097 1_555
B29 Sc6 2.557120 1_556
B29 Sc9 2.854413 1_555
B30 Rh30 2.125736 1_555
B30 Rh38 2.127607 1_555
B30 Rh42 2.133077 1_555
B30 Rh54 2.164592 1_555
B30 Rh62 2.177097 1_555
B30 Sc5 2.557120 1_555
B30 Sc10 2.854413 1_555
B31 Rh31 2.125736 1_555
B31 Rh39 2.127607 1_555
B31 Rh43 2.133077 1_555
B31 Rh55 2.164592 1_555
B31 Rh63 2.177097 1_555
B31 Sc4 2.557120 1_554
B31 Sc11 2.854413 1_555
B32 Rh47 2.108367 1_555
B32 Rh40 2.125813 1_555
B32 Rh60 2.151135 1_555
B32 Rh51 2.173112 1_555
B32 Rh45 2.193665 1_655
B32 Rh23 2.203723 1_555
B33 Rh46 2.108367 1_556
B33 Rh41 2.125813 1_555
B33 Rh61 2.151135 1_555
B33 Rh50 2.173112 1_556
B33 Rh44 2.193665 1_555
B33 Rh22 2.203723 1_556
B34 Rh45 2.108367 1_555
B34 Rh42 2.125813 1_555
B34 Rh62 2.151135 1_555
B34 Rh49 2.173112 1_555
B34 Rh47 2.193665 1_455
B34 Rh21 2.203723 1_555
B35 Rh44 2.108367 1_554
B35 Rh43 2.125813 1_555
B35 Rh63 2.151135 1_555
B35 Rh48 2.173112 1_554
B35 Rh46 2.193665 1_555
B35 Rh20 2.203723 1_554
B36 B43 1.891142 1_555
B36 Rh17 2.114332 1_555
B36 Rh51 2.158756 1_555
B36 Rh60 2.164983 1_555
B36 Rh58 2.167641 1_555
B36 Rh56 2.228694 1_555
B37 B42 1.891142 1_556
B37 Rh16 2.114332 1_555
B37 Rh50 2.158756 1_556
B37 Rh61 2.164983 1_555
B37 Rh59 2.167641 1_456
B37 Rh57 2.228694 1_555
B38 B41 1.891142 1_555
B38 Rh19 2.114332 1_555
B38 Rh49 2.158756 1_555
B38 Rh62 2.164983 1_555
B38 Rh56 2.167641 1_555
B38 Rh58 2.228694 1_555
B39 B40 1.891142 1_554
B39 Rh18 2.114332 1_555
B39 Rh48 2.158756 1_554
B39 Rh63 2.164983 1_555
B39 Rh57 2.167641 1_654
B39 Rh59 2.228694 1_555
B40 Rh14 2.135794 1_555
B40 Rh25 2.155398 1_555
B40 Rh29 2.165326 1_655
B40 Rh57 2.218692 1_655
B40 Rh48 2.283484 1_555
B40 Sc8 2.671635 1_555
B41 Rh15 2.135794 1_555
B41 Rh24 2.155398 1_555
B41 Rh28 2.165326 1_555
B41 Rh56 2.218692 1_555
B41 Rh49 2.283484 1_555
B41 Sc9 2.671635 1_555
B42 Rh12 2.135794 1_555
B42 Rh27 2.155398 1_555
B42 Rh31 2.165326 1_455
B42 Rh59 2.218692 1_455
B42 Rh50 2.283484 1_555
B42 Sc10 2.671635 1_555
B43 Rh13 2.135794 1_555
B43 Rh26 2.155398 1_555
B43 Rh30 2.165326 1_555
B43 Rh58 2.218692 1_555
B43 Rh51 2.283484 1_555
B43 Sc11 2.671635 1_555
B44 Rh17 2.161572 1_555
B44 Rh64 2.177185 1_555
B44 Rh25 2.179138 1_555
B44 Rh60 2.247162 1_555
B44 Rh33 2.329816 1_555
B44 Rh52 2.331285 1_555
B44 Sc8 2.733767 1_555
B44 Sc0 2.767424 1_545
B45 Rh16 2.161572 1_555
B45 Rh65 2.177185 1_555
B45 Rh24 2.179138 1_555
B45 Rh61 2.247162 1_555
B45 Rh32 2.329816 1_555
B45 Rh53 2.331285 1_555
B45 Sc9 2.733767 1_555
B45 Sc1 2.767424 1_565
B46 Rh19 2.161572 1_555
B46 Rh66 2.177185 1_555
B46 Rh27 2.179138 1_555
B46 Rh62 2.247162 1_555
B46 Rh35 2.329816 1_555
B46 Rh54 2.331285 1_555
B46 Sc10 2.733767 1_555
B46 Sc2 2.767424 1_565
B47 Rh18 2.161572 1_555
B47 Rh67 2.177185 1_555
B47 Rh26 2.179138 1_555
B47 Rh63 2.247162 1_555
B47 Rh34 2.329816 1_555
B47 Rh55 2.331285 1_555
B47 Sc11 2.733767 1_555
B47 Sc3 2.767424 1_545
Rh0 Sc1 2.891709 1_565
Rh1 Sc0 2.891709 1_545
Rh2 Sc3 2.891709 1_545
Rh3 Sc2 2.891709 1_565
Rh4 Sc0 2.868809 1_555
Rh5 Sc1 2.868809 1_555
Rh6 Sc2 2.868809 1_555
Rh7 Sc3 2.868809 1_555
Rh8 Sc0 3.064528 1_555
Rh8 Sc1 3.091778 1_665
Rh9 Sc1 3.064528 1_555
Rh9 Sc0 3.091778 1_545
Rh10 Sc2 3.064528 1_555
Rh10 Sc3 3.091778 1_445
Rh11 Sc3 3.064528 1_555
Rh11 Sc2 3.091778 1_565
Rh16 Sc1 2.871838 1_565
Rh17 Sc0 2.871838 1_545
Rh18 Sc3 2.871838 1_545
Rh19 Sc2 2.871838 1_565
Rh20 Sc0 2.893007 1_555
Rh21 Sc1 2.893007 1_555
Rh22 Sc2 2.893007 1_555
Rh23 Sc3 2.893007 1_555
Rh24 Sc9 2.929007 1_555
Rh24 Sc1 3.024200 1_565
Rh25 Sc8 2.929007 1_555
Rh25 Sc0 3.024200 1_545
Rh26 Sc11 2.929007 1_555
Rh26 Sc3 3.024200 1_545
Rh27 Sc10 2.929007 1_555
Rh27 Sc2 3.024200 1_565
Rh28 Sc9 2.883767 1_555
Rh28 Sc0 3.031790 1_555
Rh29 Sc8 2.883767 1_455
Rh29 Sc1 3.031790 1_555
Rh30 Sc11 2.883767 1_555
Rh30 Sc2 3.031790 1_555
Rh31 Sc10 2.883767 1_655
Rh31 Sc3 3.031790 1_555
Rh32 Sc1 2.660573 1_565
Rh32 Sc8 2.924142 1_455
Rh33 Sc0 2.660573 1_545
Rh33 Sc9 2.924142 1_555
Rh34 Sc3 2.660573 1_545
Rh34 Sc10 2.924142 1_655
Rh35 Sc2 2.660573 1_565
Rh35 Sc11 2.924142 1_555
Rh36 Sc0 2.655878 1_555
Rh36 Sc8 2.908488 1_555
Rh37 Sc1 2.655878 1_555
Rh37 Sc9 2.908488 1_555
Rh38 Sc2 2.655878 1_555
Rh38 Sc10 2.908488 1_555
Rh39 Sc3 2.655878 1_555
Rh39 Sc11 2.908488 1_555
Rh40 Sc8 3.095988 1_555
Rh41 Sc9 3.095988 1_555
Rh42 Sc10 3.095988 1_555
Rh43 Sc11 3.095988 1_555
Rh44 Sc9 2.912016 1_555
Rh45 Sc8 2.912016 1_455
Rh46 Sc11 2.912016 1_555
Rh47 Sc10 2.912016 1_655
Rh48 Sc8 2.981159 1_555
Rh49 Sc9 2.981159 1_555
Rh50 Sc10 2.981159 1_555
Rh51 Sc11 2.981159 1_555
Rh52 Sc9 2.711934 1_555
Rh52 Sc8 2.714186 1_555
Rh53 Sc8 2.711934 1_455
Rh53 Sc9 2.714186 1_555
Rh54 Sc11 2.711934 1_555
Rh54 Sc10 2.714186 1_555
Rh55 Sc10 2.711934 1_655
Rh55 Sc11 2.714186 1_555
Rh56 Sc9 2.947950 1_555
Rh57 Sc8 2.947950 1_455
Rh58 Sc11 2.947950 1_555
Rh59 Sc10 2.947950 1_655
Rh60 Sc8 2.892251 1_555
Rh61 Sc9 2.892251 1_555
Rh62 Sc10 2.892251 1_555
Rh63 Sc11 2.892251 1_555
Rh64 Sc12 2.713367 1_555
Rh64 Sc8 3.047676 1_555
Rh64 Sc1 3.207942 1_655
Rh64 Sc0 3.325887 1_545
Rh65 Sc13 2.713367 1_555
Rh65 Sc9 3.047676 1_555
Rh65 Sc0 3.207942 1_555
Rh65 Sc1 3.325887 1_565
Rh66 Sc14 2.713367 1_555
Rh66 Sc10 3.047676 1_555
Rh66 Sc3 3.207942 1_455
Rh66 Sc2 3.325887 1_565
Rh67 Sc15 2.713367 1_555
Rh67 Sc11 3.047676 1_555
Rh67 Sc2 3.207942 1_555
Rh67 Sc3 3.325887 1_545
