# generated using pymatgen
data_NaSr12Ni7O23
_symmetry_space_group_name_H-M   'P 1'
_cell_length_a   8.01728100
_cell_length_b   9.56959113
_cell_length_c   9.68699925
_cell_angle_alpha   119.36799536
_cell_angle_beta   90.32986513
_cell_angle_gamma   90.06993140
_symmetry_Int_Tables_number   1
_chemical_formula_structural   NaSr12Ni7O23
_chemical_formula_sum   'Na1 Sr12 Ni7 O23'
_cell_volume   647.67813520
_cell_formula_units_Z   1
loop_
 _symmetry_equiv_pos_site_id
 _symmetry_equiv_pos_as_xyz
  1  'x, y, z'
loop_
 _atom_site_type_symbol
 _atom_site_label
 _atom_site_symmetry_multiplicity
 _atom_site_fract_x
 _atom_site_fract_y
 _atom_site_fract_z
 _atom_site_occupancy
  Na  Na0  1  0.49893600  0.99983100  0.99786800  1
  Sr  Sr0  1  0.72463900  0.70601400  0.03021100  1
  Sr  Sr1  1  0.72057200  0.32211400  0.29383400  1
  Sr  Sr2  1  0.72947800  0.97466700  0.67507700  1
  Sr  Sr3  1  0.25916100  0.02712800  0.69445300  1
  Sr  Sr4  1  0.25967000  0.66693200  0.97138100  1
  Sr  Sr5  1  0.26699100  0.29568400  0.33240300  1
  Sr  Sr6  1  0.00851800  0.96130300  0.28912900  1
  Sr  Sr7  1  0.00684200  0.32536100  0.01995700  1
  Sr  Sr8  1  0.00146000  0.71396000  0.68825600  1
  Sr  Sr9  1  0.50328100  0.00867100  0.37002300  1
  Sr  Sr10  1  0.49327600  0.35995500  0.99279800  1
  Sr  Sr11  1  0.49434300  0.63317900  0.63910400  1
  Ni  Ni0  1  0.84217500  0.00594000  0.00230900  1
  Ni  Ni1  1  0.15817100  0.00561700  0.00408500  1
  Ni  Ni2  1  0.92732200  0.66380500  0.33164200  1
  Ni  Ni3  1  0.12906200  0.33109600  0.65642000  1
  Ni  Ni4  1  0.61079200  0.66862700  0.33551400  1
  Ni  Ni5  1  0.44776800  0.33356000  0.66947600  1
  Ni  Ni6  1  0.28616500  0.68490100  0.33510600  1
  O  O0  1  0.76974200  0.63635100  0.47252300  1
  O  O1  1  0.76181500  0.83836900  0.36198300  1
  O  O2  1  0.76514400  0.52685100  0.17390900  1
  O  O3  1  0.18752400  0.49692300  0.61897200  1
  O  O4  1  0.19121200  0.13053800  0.49547100  1
  O  O5  1  0.19728200  0.35771200  0.85089100  1
  O  O6  1  0.71532300  0.16821500  0.99482100  1
  O  O7  1  0.71626400  0.83619600  0.83908500  1
  O  O8  1  0.71569300  0.00731000  0.16773400  1
  O  O9  1  0.28487500  0.98396600  0.15658300  1
  O  O10  1  0.28451300  0.17962500  0.02356600  1
  O  O11  1  0.28174600  0.84928500  0.83339900  1
  O  O12  1  0.99827100  0.01982100  0.85568200  1
  O  O13  1  0.99808200  0.84465100  0.99274800  1
  O  O14  1  0.99840000  0.15903500  0.16534100  1
  O  O15  1  0.52677500  0.15865700  0.69461400  1
  O  O16  1  0.52472900  0.53539100  0.84233000  1
  O  O17  1  0.52794300  0.30984700  0.47103700  1
  O  O18  1  0.47178000  0.69708900  0.19257600  1
  O  O19  1  0.45609800  0.50345300  0.30807200  1
  O  O20  1  0.47281900  0.81142600  0.50197700  1
  O  O21  1  0.08553300  0.63676500  0.17970700  1
  O  O22  1  0.09201700  0.77887800  0.48223200  1
loop_
_geom_bond_atom_site_label_1
_geom_bond_atom_site_label_2
_geom_bond_distance
_geom_bond_site_symmetry_2
Na0 O11 2.314413 1_555
Na0 O7 2.351368 1_555
Na0 O10 2.359999 1_566
Na0 O8 2.363044 1_566
Na0 O9 2.364500 1_556
Na0 O6 2.376435 1_565
Ni0 O6 1.888007 1_554
Ni0 O8 1.895918 1_555
Ni0 O7 1.901610 1_544
Ni0 O12 1.951000 1_554
Ni0 O13 1.954247 1_544
Ni0 O14 1.978041 1_555
Ni1 O10 1.876146 1_555
Ni1 O9 1.881628 1_545
Ni1 O11 1.884095 1_544
Ni1 O13 1.964630 1_444
Ni1 O12 1.974691 1_454
Ni1 O14 2.003637 1_455
Ni2 O22 1.866220 1_655
Ni2 O21 1.868364 1_655
Ni2 O2 1.936935 1_555
Ni2 O0 1.974403 1_555
Ni2 O1 2.041081 1_555
Ni3 O5 1.852037 1_555
Ni3 O3 1.853184 1_555
Ni3 O4 1.854441 1_555
Ni4 O20 1.885245 1_555
Ni4 O18 1.893779 1_555
Ni4 O19 1.920041 1_555
Ni4 O1 1.937377 1_555
Ni4 O2 1.940612 1_555
Ni4 O0 1.965807 1_555
Ni5 O15 1.913776 1_555
Ni5 O16 1.930807 1_555
Ni5 O17 1.935602 1_555
Ni5 O5 2.611144 1_555
Ni6 O22 2.008636 1_555
Ni6 O18 2.077405 1_555
Ni6 O21 2.087053 1_555
Ni6 O20 2.089599 1_555
Ni6 O19 2.122173 1_555
O0 Sr8 2.607624 1_655
O0 Sr1 2.660489 1_555
O0 Sr11 2.751146 1_555
O0 Sr2 2.866179 1_555
O1 Sr6 2.572706 1_655
O1 Sr9 2.616088 1_565
O1 Sr2 2.664014 1_555
O1 Sr0 2.831517 1_555
O2 Sr7 2.630363 1_655
O2 Sr0 2.705498 1_555
O2 Sr1 2.747993 1_555
O2 Sr10 2.752960 1_554
O3 Sr8 2.375140 1_555
O3 Sr5 2.569151 1_555
O3 Sr11 2.743418 1_555
O3 Sr4 3.027016 1_555
O4 Sr6 2.355618 1_545
O4 Sr3 2.617558 1_555
O4 Sr9 2.783635 1_555
O4 Sr5 2.796294 1_555
O5 Sr7 2.373634 1_556
O5 Sr4 2.640239 1_555
O5 Sr10 2.730376 1_555
O5 Sr3 2.803738 1_555
O6 Sr1 2.524882 1_556
O6 Sr10 2.564984 1_555
O6 Sr7 2.721938 1_656
O6 Sr2 2.723000 1_545
O7 Sr2 2.521461 1_555
O7 Sr11 2.636893 1_555
O7 Sr8 2.664543 1_655
O7 Sr0 2.691725 1_556
O8 Sr0 2.515417 1_545
O8 Sr9 2.598776 1_555
O8 Sr1 2.637967 1_555
O8 Sr6 2.750774 1_645
O9 Sr5 2.615410 1_565
O9 Sr9 2.621978 1_565
O9 Sr6 2.628565 1_555
O9 Sr4 2.668261 1_554
O10 Sr10 2.524145 1_554
O10 Sr5 2.636237 1_555
O10 Sr7 2.637527 1_555
O10 Sr3 2.786309 1_554
O11 Sr8 2.621853 1_555
O11 Sr11 2.636702 1_555
O11 Sr3 2.643021 1_565
O11 Sr4 2.674478 1_555
O12 Sr7 2.553576 1_656
O12 Sr8 2.557874 1_645
O12 Sr3 2.638839 1_655
O12 Sr2 2.665397 1_545
O13 Sr6 2.519820 1_656
O13 Sr8 2.578342 1_655
O13 Sr4 2.646130 1_655
O13 Sr0 2.678091 1_556
O14 Sr7 2.592467 1_655
O14 Sr5 2.615973 1_655
O14 Sr1 2.661079 1_555
O14 Sr6 2.692539 1_645
O15 Sr2 2.336801 1_545
O15 Sr3 2.485769 1_555
O15 Sr10 2.584373 1_555
O15 Sr9 2.747408 1_555
O16 Sr0 2.364841 1_556
O16 Sr4 2.481298 1_555
O16 Sr11 2.571499 1_555
O16 Sr10 2.722139 1_555
O17 Sr1 2.360753 1_555
O17 Sr5 2.446895 1_555
O17 Sr9 2.556068 1_555
O17 Sr11 2.713504 1_555
O18 Sr0 2.599778 1_555
O18 Sr9 2.622051 1_565
O18 Sr4 2.629962 1_554
O18 Sr10 2.839854 1_554
O19 Sr5 2.600726 1_555
O19 Sr10 2.683248 1_554
O19 Sr1 2.702583 1_555
O19 Sr11 2.828654 1_555
O20 Sr2 2.620950 1_555
O20 Sr11 2.631418 1_555
O20 Sr3 2.634758 1_565
O20 Sr9 2.761407 1_565
O21 Sr4 2.589955 1_554
O21 Sr7 2.670996 1_555
O21 Sr6 2.816646 1_555
O22 Sr8 2.475427 1_555
O22 Sr3 2.614567 1_565
