# generated using pymatgen
data_Zn2SiHO5
_symmetry_space_group_name_H-M   'P 1'
_cell_length_a   5.16575900
_cell_length_b   7.37042620
_cell_length_c   7.37042620
_cell_angle_alpha   70.04176515
_cell_angle_beta   69.48587938
_cell_angle_gamma   69.48587938
_symmetry_Int_Tables_number   1
_chemical_formula_structural   Zn2SiHO5
_chemical_formula_sum   'Zn4 Si2 H2 O10'
_cell_volume   238.39747116
_cell_formula_units_Z   2
loop_
 _symmetry_equiv_pos_site_id
 _symmetry_equiv_pos_as_xyz
  1  'x, y, z'
loop_
 _atom_site_type_symbol
 _atom_site_label
 _atom_site_symmetry_multiplicity
 _atom_site_fract_x
 _atom_site_fract_y
 _atom_site_fract_z
 _atom_site_occupancy
  Zn  Zn0  1  0.66197000  0.54611300  0.13280000  1
  Zn  Zn1  1  0.34088300  0.45388700  0.86720000  1
  Zn  Zn2  1  0.66197000  0.13280000  0.54611300  1
  Zn  Zn3  1  0.34088300  0.86720000  0.45388700  1
  Si  Si0  1  0.15305500  0.35481100  0.35481100  1
  Si  Si1  1  0.86267600  0.64518900  0.64518900  1
  H  H0  1  0.69270300  0.88520600  0.11479400  1
  H  H1  1  0.69270300  0.11479400  0.88520600  1
  O  O0  1  0.34240700  0.45564600  0.13509800  1
  O  O1  1  0.93315100  0.54435400  0.86490200  1
  O  O2  1  0.34240700  0.13509800  0.45564600  1
  O  O3  1  0.93315100  0.86490200  0.54435400  1
  O  O4  1  0.86000300  0.33382300  0.33382300  1
  O  O5  1  0.52764900  0.66617700  0.66617700  1
  O  O6  1  0.55946000  0.80137600  0.19862400  1
  O  O7  1  0.55946000  0.19862400  0.80137600  1
  O  O8  1  0.09209100  0.50000000  0.50000000  1
  O  O9  1  0.98487600  0.00000000  0.00000000  1
loop_
_geom_bond_atom_site_label_1
_geom_bond_atom_site_label_2
_geom_bond_distance
_geom_bond_site_symmetry_2
H0 O6 0.988259 1_555
H1 O7 0.988259 1_555
O0 Si0 1.645971 1_555
O0 Zn0 1.978417 1_555
O0 Zn1 1.981770 1_554
O1 Si1 1.645973 1_555
O1 Zn1 1.978417 1_655
O1 Zn0 1.981770 1_556
O2 Si0 1.645971 1_555
O2 Zn2 1.978417 1_555
O2 Zn3 1.981770 1_545
O3 Si1 1.645973 1_555
O3 Zn3 1.978417 1_655
O3 Zn2 1.981770 1_565
O4 Si0 1.638338 1_655
O4 Zn2 2.011906 1_555
O4 Zn0 2.011906 1_555
O5 Si1 1.638333 1_555
O5 Zn3 2.011906 1_555
O5 Zn1 2.011906 1_555
O6 Zn0 1.949417 1_555
O6 Zn3 1.949417 1_555
O7 Zn2 1.949417 1_555
O7 Zn1 1.949417 1_555
O8 Si0 1.642794 1_555
O8 Si1 1.642796 1_455
