# generated using pymatgen
data_VZn(GeO3)2
_symmetry_space_group_name_H-M   'P 1'
_cell_length_a   5.40030908
_cell_length_b   6.89715204
_cell_length_c   13.75982516
_cell_angle_alpha   90.39595090
_cell_angle_beta   100.92336654
_cell_angle_gamma   78.31809737
_symmetry_Int_Tables_number   1
_chemical_formula_structural   VZn(GeO3)2
_chemical_formula_sum   'V4 Zn4 Ge8 O24'
_cell_volume   492.53576578
_cell_formula_units_Z   4
loop_
 _symmetry_equiv_pos_site_id
 _symmetry_equiv_pos_as_xyz
  1  'x, y, z'
loop_
 _atom_site_type_symbol
 _atom_site_label
 _atom_site_symmetry_multiplicity
 _atom_site_fract_x
 _atom_site_fract_y
 _atom_site_fract_z
 _atom_site_occupancy
  V  V0  1  0.29633100  0.90741000  0.54629300  1
  V  V1  1  0.20365700  0.09260100  0.95372000  1
  V  V2  1  0.79630900  0.90743000  0.04623900  1
  V  V3  1  0.70367800  0.09259800  0.45373300  1
  Zn  Zn0  1  0.12459000  0.25088900  0.37455000  1
  Zn  Zn1  1  0.62453400  0.25088000  0.87455300  1
  Zn  Zn2  1  0.37546900  0.74912300  0.12543900  1
  Zn  Zn3  1  0.87541600  0.74910400  0.62545600  1
  Ge  Ge0  1  0.85922100  0.39102400  0.10586500  1
  Ge  Ge1  1  0.35928500  0.39098400  0.60592100  1
  Ge  Ge2  1  0.05113800  0.78816600  0.30452600  1
  Ge  Ge3  1  0.55112700  0.78818400  0.80449700  1
  Ge  Ge4  1  0.64072800  0.60900100  0.39408900  1
  Ge  Ge5  1  0.14076400  0.60899300  0.89413600  1
  Ge  Ge6  1  0.44883100  0.21181800  0.19548100  1
  Ge  Ge7  1  0.94889000  0.21182800  0.69548600  1
  O  O0  1  0.74505900  0.29910300  0.20769200  1
  O  O1  1  0.24502400  0.29912100  0.70775600  1
  O  O2  1  0.31312400  0.58450900  0.35042500  1
  O  O3  1  0.81316000  0.58448000  0.85048600  1
  O  O4  1  0.75496800  0.70086900  0.29224900  1
  O  O5  1  0.25499000  0.70081500  0.79229800  1
  O  O6  1  0.18681300  0.41554300  0.14951500  1
  O  O7  1  0.68689900  0.41548300  0.64961800  1
  O  O8  1  0.42204000  0.14080100  0.31412500  1
  O  O9  1  0.92205400  0.14079800  0.81420900  1
  O  O10  1  0.82174600  0.37161900  0.42960800  1
  O  O11  1  0.32173300  0.37159500  0.92961500  1
  O  O12  1  0.07798700  0.85920400  0.18581500  1
  O  O13  1  0.57798400  0.85920500  0.68588100  1
  O  O14  1  0.67818800  0.62835900  0.07035500  1
  O  O15  1  0.17831300  0.62836500  0.57041700  1
  O  O16  1  0.86740600  0.20629600  0.01531100  1
  O  O17  1  0.36739800  0.20631400  0.51535300  1
  O  O18  1  0.04472800  0.96931400  0.39683400  1
  O  O19  1  0.54468400  0.96939400  0.89687100  1
  O  O20  1  0.63262600  0.79368900  0.48465500  1
  O  O21  1  0.13259000  0.79373600  0.98466200  1
  O  O22  1  0.45525100  0.03065400  0.10309100  1
  O  O23  1  0.95526400  0.03069600  0.60317800  1
loop_
_geom_bond_atom_site_label_1
_geom_bond_atom_site_label_2
_geom_bond_distance
_geom_bond_site_symmetry_2
Ge0 O14 1.748149 1_555
Ge0 O16 1.775933 1_555
Ge0 O6 1.798916 1_655
Ge0 O0 1.800863 1_555
Ge1 O15 1.748291 1_555
Ge1 O17 1.775780 1_555
Ge1 O7 1.799082 1_555
Ge1 O1 1.801086 1_555
Ge2 O12 1.748945 1_555
Ge2 O18 1.775581 1_555
Ge2 O4 1.798706 1_455
Ge2 O2 1.800678 1_555
Ge3 O13 1.747679 1_555
Ge3 O19 1.776529 1_555
Ge3 O5 1.798877 1_555
Ge3 O3 1.801279 1_555
Ge4 O10 1.748413 1_555
Ge4 O20 1.775848 1_555
Ge4 O2 1.798951 1_555
Ge4 O4 1.801095 1_555
Ge5 O11 1.748321 1_555
Ge5 O21 1.775735 1_555
Ge5 O3 1.798965 1_455
Ge5 O5 1.800894 1_555
Ge6 O8 1.747924 1_555
Ge6 O22 1.776464 1_555
Ge6 O0 1.799028 1_555
Ge6 O6 1.801258 1_555
Ge7 O9 1.749063 1_555
Ge7 O23 1.775502 1_555
Ge7 O1 1.798517 1_655
Ge7 O7 1.800596 1_555
O8 Zn0 1.962552 1_555
O8 V3 2.193331 1_555
O9 Zn1 1.962212 1_555
O9 V1 2.192242 1_655
O10 Zn0 1.962496 1_655
O10 V3 2.192301 1_555
O11 Zn1 1.962309 1_555
O11 V1 2.192089 1_555
O12 Zn2 1.962295 1_555
O12 V2 2.193113 1_455
O13 Zn3 1.962492 1_555
O13 V0 2.193167 1_555
O14 Zn2 1.962195 1_555
O14 V2 2.192740 1_555
O15 Zn3 1.962605 1_455
O15 V0 2.192319 1_555
O16 Zn1 2.109072 1_554
O16 V1 2.151257 1_654
O16 V2 2.229826 1_545
O17 Zn0 2.109422 1_555
O17 V3 2.151637 1_555
O17 V0 2.230051 1_545
O18 Zn0 2.109305 1_565
O18 V3 2.152028 1_465
O18 V0 2.230688 1_555
O19 Zn1 2.108776 1_565
O19 V1 2.151447 1_565
O19 V2 2.229755 1_556
O20 Zn3 2.109362 1_555
O20 V0 2.151849 1_555
O20 V3 2.229996 1_565
O21 Zn2 2.109303 1_556
O21 V2 2.151287 1_456
O21 V1 2.229799 1_565
O22 Zn2 2.109000 1_545
O22 V2 2.151635 1_545
O22 V1 2.229713 1_554
O23 Zn3 2.109371 1_545
O23 V0 2.152008 1_645
O23 V3 2.230495 1_555
