# generated using pymatgen
data_Cu13Si2(SbO14)2
_symmetry_space_group_name_H-M   'P 1'
_cell_length_a   5.41038621
_cell_length_b   8.06235436
_cell_length_c   11.96150959
_cell_angle_alpha   88.15341289
_cell_angle_beta   77.11972279
_cell_angle_gamma   81.97678935
_symmetry_Int_Tables_number   1
_chemical_formula_structural   Cu13Si2(SbO14)2
_chemical_formula_sum   'Cu13 Si2 Sb2 O28'
_cell_volume   503.65866777
_cell_formula_units_Z   1
loop_
 _symmetry_equiv_pos_site_id
 _symmetry_equiv_pos_as_xyz
  1  'x, y, z'
loop_
 _atom_site_type_symbol
 _atom_site_label
 _atom_site_symmetry_multiplicity
 _atom_site_fract_x
 _atom_site_fract_y
 _atom_site_fract_z
 _atom_site_occupancy
  Cu  Cu0  1  0.95264100  0.62115200  0.67887700  1
  Cu  Cu1  1  0.66727700  0.36147300  0.14800600  1
  Cu  Cu2  1  0.37249000  0.37488300  0.67987000  1
  Cu  Cu3  1  0.04723600  0.37706800  0.32151500  1
  Cu  Cu4  1  0.33604200  0.63688000  0.85236100  1
  Cu  Cu5  1  0.28190800  0.99959800  0.43694700  1
  Cu  Cu6  1  0.18698900  0.63790600  0.14854300  1
  Cu  Cu7  1  0.00023100  0.99986700  0.99987000  1
  Cu  Cu8  1  0.42110600  0.99938500  0.15779500  1
  Cu  Cu9  1  0.81508400  0.36021800  0.85160700  1
  Cu  Cu10  1  0.62796700  0.62311300  0.32057700  1
  Cu  Cu11  1  0.57965600  0.00001800  0.84246900  1
  Cu  Cu12  1  0.71986000  0.99855500  0.56353800  1
  Si  Si0  1  0.22088900  0.31997000  0.00109000  1
  Si  Si1  1  0.77947600  0.67955200  0.99933500  1
  Sb  Sb0  1  0.84918300  0.99970300  0.30187400  1
  Sb  Sb1  1  0.15265000  0.99778700  0.69870500  1
  O  O0  1  0.71204100  0.39285400  0.29717800  1
  O  O1  1  0.26845700  0.42243600  0.41699000  1
  O  O2  1  0.91089100  0.34142200  0.00011300  1
  O  O3  1  0.29613900  0.11235800  0.00329000  1
  O  O4  1  0.73244100  0.57578600  0.58293200  1
  O  O5  1  0.28691200  0.60505300  0.70350200  1
  O  O6  1  0.02011400  0.11852600  0.56816700  1
  O  O7  1  0.98110100  0.87906200  0.43248800  1
  O  O8  1  0.70353600  0.88713900  0.99821500  1
  O  O9  1  0.12249700  0.87763200  0.16920300  1
  O  O10  1  0.27321700  0.39364600  0.11993400  1
  O  O11  1  0.98688500  0.60700700  0.29623300  1
  O  O12  1  0.41534200  0.87917400  0.56778300  1
  O  O13  1  0.70953700  0.12080600  0.16854600  1
  O  O14  1  0.60621400  0.60741700  0.11811000  1
  O  O15  1  0.08829800  0.65688800  0.99991100  1
  O  O16  1  0.29361600  0.87847100  0.83169700  1
  O  O17  1  0.87937600  0.11898000  0.83111300  1
  O  O18  1  0.58746200  0.11918400  0.43278000  1
  O  O19  1  0.13532100  0.13964100  0.30725700  1
  O  O20  1  0.86710600  0.85792800  0.69281200  1
  O  O21  1  0.39362300  0.39066200  0.88221500  1
  O  O22  1  0.44565800  0.13708700  0.69485900  1
  O  O23  1  0.68653900  0.42056700  0.58329700  1
  O  O24  1  0.72613100  0.60603200  0.88047700  1
  O  O25  1  0.55566000  0.86120600  0.30575600  1
  O  O26  1  0.01368600  0.39125500  0.70345500  1
  O  O27  1  0.31254100  0.57857400  0.41621400  1
loop_
_geom_bond_atom_site_label_1
_geom_bond_atom_site_label_2
_geom_bond_distance
_geom_bond_site_symmetry_2
Cu0 O26 1.862337 1_655
Cu0 O5 1.882528 1_655
Cu0 O20 1.904108 1_555
Cu0 O4 1.904859 1_555
Cu0 O24 2.457030 1_555
Cu1 O0 1.882906 1_555
Cu1 O13 1.935988 1_555
Cu1 O2 1.952500 1_555
Cu1 O14 1.998243 1_555
Cu1 O10 2.210137 1_555
Cu2 O5 1.863748 1_555
Cu2 O26 1.884739 1_555
Cu2 O23 1.905073 1_555
Cu2 O22 1.913668 1_555
Cu2 O21 2.456551 1_555
Cu3 O11 1.863799 1_455
Cu3 O0 1.886372 1_455
Cu3 O1 1.905015 1_555
Cu3 O19 1.910653 1_555
Cu3 O10 2.457069 1_555
Cu4 O5 1.888506 1_555
Cu4 O16 1.943486 1_555
Cu4 O15 1.959825 1_555
Cu4 O21 1.999116 1_555
Cu4 O24 2.189483 1_555
Cu5 O18 2.017452 1_565
Cu5 O7 2.019774 1_455
Cu5 O6 2.028771 1_565
Cu5 O12 2.030557 1_555
Cu5 O19 2.120369 1_565
Cu5 O25 2.125195 1_555
Cu6 O11 1.883950 1_455
Cu6 O9 1.929365 1_555
Cu6 O15 1.962704 1_554
Cu6 O10 1.982102 1_555
Cu6 O14 2.195348 1_555
Cu7 O3 1.955570 1_566
Cu7 O8 1.955957 1_455
Cu7 O17 2.390129 1_465
Cu7 O13 2.403974 1_466
Cu7 O16 2.407015 1_555
Cu7 O9 2.407923 1_556
Cu8 O9 1.981944 1_555
Cu8 O13 1.983461 1_565
Cu8 O3 2.231358 1_565
Cu8 O25 2.263702 1_555
Cu8 O8 2.285263 1_554
Cu8 O19 2.296836 1_565
Cu9 O26 1.885512 1_655
Cu9 O17 1.941072 1_555
Cu9 O2 1.954054 1_556
Cu9 O24 1.995575 1_555
Cu9 O21 2.207093 1_555
Cu10 O0 1.863486 1_555
Cu10 O11 1.884813 1_555
Cu10 O27 1.903738 1_555
Cu10 O25 1.915374 1_555
Cu10 O14 2.458865 1_555
Cu11 O16 1.972897 1_545
Cu11 O17 1.973702 1_555
Cu11 O8 2.241695 1_545
Cu11 O22 2.255130 1_555
Cu11 O3 2.298411 1_556
Cu11 O20 2.308510 1_545
Cu12 O12 2.011378 1_555
Cu12 O6 2.014889 1_665
Cu12 O18 2.027872 1_565
Cu12 O7 2.027939 1_555
Cu12 O20 2.120211 1_555
Cu12 O22 2.127755 1_565
O1 O27 1.312907 1_555
O2 Si0 1.664546 1_655
O3 Si0 1.667303 1_555
O6 Sb1 2.026379 1_545
O7 Sb0 2.025285 1_555
O8 Si1 1.667068 1_555
O9 Sb0 2.078905 1_455
O10 Si0 1.653663 1_555
O12 Sb1 2.027745 1_555
O13 Sb0 2.073274 1_545
O14 Si1 1.655483 1_554
O15 Si1 1.656801 1_455
O16 Sb1 2.067642 1_555
O17 Sb1 2.074038 1_645
O18 Sb0 2.028003 1_545
O19 Sb0 2.051928 1_445
O20 Sb1 2.050150 1_655
O21 Si0 1.650489 1_556
O22 Sb1 2.058574 1_545
O23 O4 1.309082 1_555
O24 Si1 1.655579 1_555
O25 Sb0 2.056633 1_555
