# generated using pymatgen
data_La4Ge7
_symmetry_space_group_name_H-M   'P 1'
_cell_length_a   7.74899090
_cell_length_b   7.74899090
_cell_length_c   12.36275891
_cell_angle_alpha   90.00000000
_cell_angle_beta   90.00000000
_cell_angle_gamma   133.00169308
_symmetry_Int_Tables_number   1
_chemical_formula_structural   La4Ge7
_chemical_formula_sum   'La8 Ge14'
_cell_volume   542.90169503
_cell_formula_units_Z   2
loop_
 _symmetry_equiv_pos_site_id
 _symmetry_equiv_pos_as_xyz
  1  'x, y, z'
loop_
 _atom_site_type_symbol
 _atom_site_label
 _atom_site_symmetry_multiplicity
 _atom_site_fract_x
 _atom_site_fract_y
 _atom_site_fract_z
 _atom_site_occupancy
  La  La0  1  0.99495777  0.48689786  0.37934941  1
  La  La1  1  0.00504223  0.51310214  0.87934941  1
  La  La2  1  0.51310214  0.00504223  0.12065059  1
  La  La3  1  0.48689786  0.99495777  0.62065059  1
  La  La4  1  0.49635383  0.50364617  0.25000000  1
  La  La5  1  0.50364617  0.49635383  0.75000000  1
  La  La6  1  0.00546829  0.00546829  0.00000000  1
  La  La7  1  0.99453171  0.99453171  0.50000000  1
  Ge  Ge0  1  0.92758533  0.07241467  0.25000000  1
  Ge  Ge1  1  0.07241467  0.92758533  0.75000000  1
  Ge  Ge2  1  0.07294690  0.41359589  0.12693853  1
  Ge  Ge3  1  0.92705310  0.58640411  0.62693853  1
  Ge  Ge4  1  0.58640411  0.92705310  0.37306147  1
  Ge  Ge5  1  0.41359589  0.07294690  0.87306147  1
  Ge  Ge6  1  0.95924005  0.64845684  0.15189520  1
  Ge  Ge7  1  0.04075995  0.35154316  0.65189520  1
  Ge  Ge8  1  0.35154316  0.04075995  0.34810480  1
  Ge  Ge9  1  0.64845684  0.95924005  0.84810480  1
  Ge  Ge10  1  0.59548344  0.42310562  0.01020894  1
  Ge  Ge11  1  0.40451656  0.57689438  0.51020894  1
  Ge  Ge12  1  0.57689438  0.40451656  0.48979106  1
  Ge  Ge13  1  0.42310562  0.59548344  0.98979106  1
loop_
_geom_bond_atom_site_label_1
_geom_bond_atom_site_label_2
_geom_bond_distance
_geom_bond_site_symmetry_2
Ge0 Ge4 2.551667 1_545
Ge0 Ge2 2.551667 1_655
Ge0 La4 3.240699 1_655
Ge0 La4 3.240699 1_545
Ge0 La7 3.257725 1_545
Ge0 La6 3.257725 1_655
Ge0 La2 3.295200 1_555
Ge0 La0 3.295200 1_555
Ge1 Ge3 2.551667 1_455
Ge1 Ge5 2.551667 1_565
Ge1 La5 3.240699 1_565
Ge1 La5 3.240699 1_455
Ge1 La7 3.257725 1_455
Ge1 La6 3.257725 1_566
Ge1 La1 3.295200 1_555
Ge1 La3 3.295200 1_555
Ge2 Ge6 2.524094 1_455
Ge2 La2 3.180398 1_455
Ge2 La4 3.231626 1_555
Ge2 La6 3.237646 1_555
Ge2 La1 3.285405 1_554
Ge2 La0 3.300544 1_455
Ge2 La2 3.364775 1_565
Ge3 Ge7 2.524094 1_655
Ge3 La3 3.180398 1_655
Ge3 La5 3.231626 1_555
Ge3 La7 3.237646 1_555
Ge3 La0 3.285405 1_555
Ge3 La1 3.300544 1_655
Ge3 La3 3.364775 1_545
Ge4 Ge8 2.524094 1_565
Ge4 La0 3.180398 1_565
Ge4 La4 3.231626 1_555
Ge4 La7 3.237646 1_555
Ge4 La3 3.285405 1_555
Ge4 La2 3.300544 1_565
Ge4 La0 3.364775 1_455
Ge5 Ge9 2.524094 1_545
Ge5 La1 3.180398 1_545
Ge5 La5 3.231626 1_555
Ge5 La6 3.237646 1_556
Ge5 La2 3.285405 1_556
Ge5 La3 3.300544 1_545
Ge5 La1 3.364775 1_655
Ge6 La6 3.155351 1_665
Ge6 La0 3.166019 1_555
Ge6 La2 3.166716 1_665
Ge6 La4 3.178961 1_555
Ge6 La1 3.617574 1_654
Ge6 La2 3.667134 1_555
Ge7 La7 3.155351 1_445
Ge7 La1 3.166019 1_555
Ge7 La3 3.166716 1_445
Ge7 La5 3.178961 1_555
Ge7 La0 3.617574 1_455
Ge7 La3 3.667134 1_555
Ge8 La7 3.155351 1_445
Ge8 La2 3.166019 1_555
Ge8 La0 3.166716 1_445
Ge8 La4 3.178961 1_555
Ge8 La3 3.617574 1_545
Ge8 La0 3.667134 1_555
Ge9 La6 3.155351 1_666
Ge9 La3 3.166019 1_555
Ge9 La1 3.166716 1_665
Ge9 La5 3.178961 1_555
Ge9 La2 3.617574 1_566
Ge9 La1 3.667134 1_555
Ge10 Ge13 2.462919 1_554
Ge10 Ge5 2.647105 1_554
Ge10 Ge6 2.710870 1_555
Ge10 La2 3.153671 1_555
Ge10 La1 3.186967 1_654
Ge10 La4 3.228257 1_555
Ge10 La6 3.304208 1_665
Ge10 La6 3.348136 1_555
Ge10 La5 3.424622 1_554
Ge11 Ge12 2.462919 1_555
Ge11 Ge4 2.647105 1_555
Ge11 Ge7 2.710870 1_555
Ge11 La3 3.153671 1_555
Ge11 La0 3.186967 1_455
Ge11 La5 3.228257 1_555
Ge11 La7 3.304208 1_445
Ge11 La7 3.348136 1_555
Ge11 La4 3.424622 1_555
Ge12 Ge3 2.647105 1_555
Ge12 Ge8 2.710870 1_555
Ge12 La0 3.153671 1_555
Ge12 La3 3.186967 1_545
Ge12 La4 3.228257 1_555
Ge12 La7 3.304208 1_445
Ge12 La7 3.348136 1_555
Ge12 La5 3.424622 1_555
Ge13 Ge2 2.647105 1_556
Ge13 Ge9 2.710870 1_555
Ge13 La1 3.153671 1_555
Ge13 La2 3.186967 1_566
Ge13 La5 3.228257 1_555
Ge13 La6 3.304208 1_666
Ge13 La6 3.348136 1_556
Ge13 La4 3.424622 1_556
