# generated using pymatgen
data_Al2Si2H8N2O9
_symmetry_space_group_name_H-M   'P 1'
_cell_length_a   9.68413300
_cell_length_b   9.86071700
_cell_length_c   10.20327400
_cell_angle_alpha   90.00000000
_cell_angle_beta   90.00000000
_cell_angle_gamma   90.00000000
_symmetry_Int_Tables_number   1
_chemical_formula_structural   Al2Si2H8N2O9
_chemical_formula_sum   'Al8 Si8 H32 N8 O36'
_cell_volume   974.33609044
_cell_formula_units_Z   4
loop_
 _symmetry_equiv_pos_site_id
 _symmetry_equiv_pos_as_xyz
  1  'x, y, z'
loop_
 _atom_site_type_symbol
 _atom_site_label
 _atom_site_symmetry_multiplicity
 _atom_site_fract_x
 _atom_site_fract_y
 _atom_site_fract_z
 _atom_site_occupancy
  Al  Al0  1  0.63413000  0.10265600  0.28629000  1
  Al  Al1  1  0.86587000  0.89734400  0.78629000  1
  Al  Al2  1  0.13413000  0.39734400  0.71371000  1
  Al  Al3  1  0.36587000  0.60265600  0.21371000  1
  Al  Al4  1  0.32590700  0.87788400  0.51874000  1
  Al  Al5  1  0.17409300  0.12211600  0.01874000  1
  Al  Al6  1  0.82590700  0.62211600  0.48126000  1
  Al  Al7  1  0.67409300  0.37788400  0.98126000  1
  Si  Si0  1  0.35347000  0.93348400  0.21595000  1
  Si  Si1  1  0.14653000  0.06651600  0.71595000  1
  Si  Si2  1  0.85347000  0.56651600  0.78405000  1
  Si  Si3  1  0.64653000  0.43348400  0.28405000  1
  Si  Si4  1  0.15964200  0.60449100  0.46785400  1
  Si  Si5  1  0.34035800  0.39550900  0.96785400  1
  Si  Si6  1  0.65964200  0.89550900  0.53214600  1
  Si  Si7  1  0.84035800  0.10449100  0.03214600  1
  H  H0  1  0.41768400  0.05621800  0.82836300  1
  H  H1  1  0.08231600  0.94378200  0.32836300  1
  H  H2  1  0.91768400  0.44378200  0.17163700  1
  H  H3  1  0.58231600  0.55621800  0.67163700  1
  H  H4  1  0.56899300  0.11463500  0.89581400  1
  H  H5  1  0.93100700  0.88536500  0.39581400  1
  H  H6  1  0.06899300  0.38536500  0.10418600  1
  H  H7  1  0.43100700  0.61463500  0.60418600  1
  H  H8  1  0.51179500  0.95687500  0.92510800  1
  H  H9  1  0.98820500  0.04312500  0.42510800  1
  H  H10  1  0.01179500  0.54312500  0.07489200  1
  H  H11  1  0.48820500  0.45687500  0.57489200  1
  H  H12  1  0.57901200  0.99394000  0.77776500  1
  H  H13  1  0.92098800  0.00606000  0.27776500  1
  H  H14  1  0.07901200  0.50606000  0.22223500  1
  H  H15  1  0.42098800  0.49394000  0.72223500  1
  H  H16  1  0.19335400  0.76462000  0.76694700  1
  H  H17  1  0.30664600  0.23538000  0.26694700  1
  H  H18  1  0.69335400  0.73538000  0.23305300  1
  H  H19  1  0.80664600  0.26462000  0.73305300  1
  H  H20  1  0.13355500  0.77256300  0.92350900  1
  H  H21  1  0.36644500  0.22743700  0.42350900  1
  H  H22  1  0.63355500  0.72743700  0.07649100  1
  H  H23  1  0.86644500  0.27256300  0.57649100  1
  H  H24  1  0.19459900  0.62611100  0.86042100  1
  H  H25  1  0.30540100  0.37388900  0.36042100  1
  H  H26  1  0.69459900  0.87388900  0.13957900  1
  H  H27  1  0.80540100  0.12611100  0.63957900  1
  H  H28  1  0.30808200  0.74702000  0.89626500  1
  H  H29  1  0.19191800  0.25298000  0.39626500  1
  H  H30  1  0.80808200  0.75298000  0.10373500  1
  H  H31  1  0.69191800  0.24702000  0.60373500  1
  N  N0  1  0.51829100  0.03157100  0.85507900  1
  N  N1  1  0.98170900  0.96842900  0.35507900  1
  N  N2  1  0.01829100  0.46842900  0.14492100  1
  N  N3  1  0.48170900  0.53157100  0.64492100  1
  N  N4  1  0.20761100  0.73016500  0.86099900  1
  N  N5  1  0.29238900  0.26983500  0.36099900  1
  N  N6  1  0.70761100  0.76983500  0.13900100  1
  N  N7  1  0.79238900  0.23016500  0.63900100  1
  O  O0  1  0.75258900  0.78451200  0.45191900  1
  O  O1  1  0.74741100  0.21548800  0.95191900  1
  O  O2  1  0.25258900  0.71548800  0.54808100  1
  O  O3  1  0.24741100  0.28451200  0.04808100  1
  O  O4  1  0.50083200  0.84899700  0.54923300  1
  O  O5  1  0.99916800  0.15100300  0.04923300  1
  O  O6  1  0.00083200  0.65100300  0.45076700  1
  O  O7  1  0.49916800  0.34899700  0.95076700  1
  O  O8  1  0.72300400  0.92917600  0.67983600  1
  O  O9  1  0.77699600  0.07082400  0.17983600  1
  O  O10  1  0.22300400  0.57082400  0.32016400  1
  O  O11  1  0.27699600  0.42917600  0.82016400  1
  O  O12  1  0.73967500  0.50573900  0.88272600  1
  O  O13  1  0.76032500  0.49426100  0.38272600  1
  O  O14  1  0.23967500  0.99426100  0.11727400  1
  O  O15  1  0.26032500  0.00573900  0.61727400  1
  O  O16  1  0.28053100  0.92842700  0.36006000  1
  O  O17  1  0.21946900  0.07157300  0.86006000  1
  O  O18  1  0.78053100  0.57157300  0.63994000  1
  O  O19  1  0.71946900  0.42842700  0.13994000  1
  O  O20  1  0.50615200  0.52373700  0.28800300  1
  O  O21  1  0.99384800  0.47626300  0.78800300  1
  O  O22  1  0.00615200  0.97626300  0.71199700  1
  O  O23  1  0.49384800  0.02373700  0.21199700  1
  O  O24  1  0.39370300  0.77520600  0.18069500  1
  O  O25  1  0.10629700  0.22479400  0.68069500  1
  O  O26  1  0.89370300  0.72479400  0.81930500  1
  O  O27  1  0.60629700  0.27520600  0.31930500  1
  O  O28  1  0.32740500  0.53636700  0.05586400  1
  O  O29  1  0.17259500  0.46363300  0.55586400  1
  O  O30  1  0.82740500  0.96363300  0.94413600  1
  O  O31  1  0.67259500  0.03636700  0.44413600  1
  O  O32  1  0.47168000  0.71788800  0.97908000  1
  O  O33  1  0.02832000  0.28211200  0.47908000  1
  O  O34  1  0.97168000  0.78211200  0.02092000  1
  O  O35  1  0.52832000  0.21788800  0.52092000  1
loop_
_geom_bond_atom_site_label_1
_geom_bond_atom_site_label_2
_geom_bond_distance
_geom_bond_site_symmetry_2
Al0 O23 1.739469 1_555
Al0 O27 1.755311 1_555
Al0 O31 1.777606 1_555
Al0 O9 1.786750 1_555
Al1 O22 1.739469 1_655
Al1 O26 1.755311 1_555
Al1 O30 1.777606 1_555
Al1 O8 1.786750 1_555
Al2 O21 1.739469 1_455
Al2 O25 1.755311 1_555
Al2 O29 1.777606 1_555
Al2 O11 1.786750 1_555
Al3 O20 1.739469 1_555
Al3 O24 1.755311 1_555
Al3 O28 1.777606 1_555
Al3 O10 1.786750 1_555
Al4 O15 1.733089 1_565
Al4 O4 1.745727 1_555
Al4 O16 1.750094 1_555
Al4 O2 1.777090 1_555
Al5 O14 1.733089 1_545
Al5 O5 1.745727 1_455
Al5 O17 1.750094 1_554
Al5 O3 1.777090 1_555
Al6 O13 1.733089 1_555
Al6 O6 1.745727 1_655
Al6 O18 1.750094 1_555
Al6 O0 1.777090 1_555
Al7 O12 1.733089 1_555
Al7 O7 1.745727 1_555
Al7 O19 1.750094 1_556
Al7 O1 1.777090 1_555
H0 N0 1.040489 1_555
H1 N1 1.040489 1_455
H2 N2 1.040489 1_655
H3 N3 1.040489 1_555
H4 N0 1.041495 1_555
H5 N1 1.041495 1_555
H6 N2 1.041495 1_555
H7 N3 1.041495 1_555
H8 N0 1.028114 1_565
H9 N1 1.028114 1_545
H10 N2 1.028114 1_555
H11 N3 1.028114 1_555
H12 N0 1.051554 1_565
H13 N1 1.051554 1_545
H14 N2 1.051554 1_555
H15 N3 1.051554 1_555
H16 N4 1.027326 1_555
H17 N5 1.027326 1_555
H18 N6 1.027326 1_555
H19 N7 1.027326 1_555
H20 N4 1.046859 1_555
H21 N5 1.046859 1_555
H22 N6 1.046859 1_555
H23 N7 1.046859 1_555
H24 N4 1.033773 1_555
H25 N5 1.033773 1_555
H26 N6 1.033773 1_555
H27 N7 1.033773 1_555
H28 N4 1.050609 1_555
H29 N5 1.050609 1_555
H30 N6 1.050609 1_555
H31 N7 1.050609 1_555
O0 Si6 1.636527 1_555
O1 Si7 1.636527 1_556
O2 Si4 1.636527 1_555
O3 Si5 1.636527 1_554
O4 Si6 1.614311 1_555
O5 Si7 1.614311 1_555
O6 Si4 1.614311 1_555
O7 Si5 1.614311 1_555
O8 Si6 1.660583 1_555
O9 Si7 1.660583 1_555
O10 Si4 1.660583 1_555
O11 Si5 1.660583 1_555
O12 Si2 1.608498 1_555
O13 Si3 1.608498 1_555
O14 Si0 1.608498 1_555
O15 Si1 1.608498 1_555
O16 Si0 1.632016 1_555
O17 Si1 1.632016 1_555
O18 Si2 1.632016 1_555
O19 Si3 1.632016 1_555
O20 Si3 1.625340 1_555
O21 Si2 1.625340 1_555
O22 Si1 1.625340 1_565
O23 Si0 1.625340 1_545
O24 Si0 1.648361 1_555
O25 Si1 1.648361 1_555
O26 Si2 1.648361 1_555
O27 Si3 1.648361 1_555
O28 Si5 1.658714 1_554
O29 Si4 1.658714 1_555
O30 Si7 1.658714 1_566
O31 Si6 1.658714 1_545
