# generated using pymatgen
data_YSnF5
_symmetry_space_group_name_H-M   'P 1'
_cell_length_a   6.15336659
_cell_length_b   6.15336659
_cell_length_c   6.15336659
_cell_angle_alpha   138.82143858
_cell_angle_beta   107.71071370
_cell_angle_gamma   86.73968581
_symmetry_Int_Tables_number   1
_chemical_formula_structural   YSnF5
_chemical_formula_sum   'Y1 Sn1 F5'
_cell_volume   140.52364431
_cell_formula_units_Z   1
loop_
 _symmetry_equiv_pos_site_id
 _symmetry_equiv_pos_as_xyz
  1  'x, y, z'
loop_
 _atom_site_type_symbol
 _atom_site_label
 _atom_site_symmetry_multiplicity
 _atom_site_fract_x
 _atom_site_fract_y
 _atom_site_fract_z
 _atom_site_occupancy
  Y  Y0  1  0.50000000  0.50000000  0.00000000  1
  Sn  Sn0  1  0.00000000  0.00000000  0.00000000  1
  F  F0  1  0.80533000  0.50000000  0.30533000  1
  F  F1  1  0.19467000  0.50000000  0.69467000  1
  F  F2  1  0.25658400  0.25658400  0.00000000  1
  F  F3  1  0.74341600  0.74341600  0.00000000  1
  F  F4  1  0.50000000  0.00000000  0.50000000  1
loop_
_geom_bond_atom_site_label_1
_geom_bond_atom_site_label_2
_geom_bond_distance
_geom_bond_site_symmetry_2
F0 Y0 2.216338 1_555
F0 Sn0 2.584452 1_666
F0 Sn0 2.584452 1_655
F1 Y0 2.216338 1_556
F1 Sn0 2.584452 1_566
F1 Sn0 2.584452 1_555
F2 Y0 2.177651 1_555
F2 Sn0 2.295454 1_555
F3 Y0 2.177651 1_555
F3 Sn0 2.295454 1_665
F4 Y0 2.163933 1_556
F4 Y0 2.163933 1_545
