# generated using pymatgen
data_CsCa(SeO4)3
_symmetry_space_group_name_H-M   'P 1'
_cell_length_a   6.06374000
_cell_length_b   8.75557400
_cell_length_c   11.96145969
_cell_angle_alpha   73.35121435
_cell_angle_beta   90.00000000
_cell_angle_gamma   90.00000000
_symmetry_Int_Tables_number   1
_chemical_formula_structural   CsCa(SeO4)3
_chemical_formula_sum   'Cs2 Ca2 Se6 O24'
_cell_volume   608.43008943
_cell_formula_units_Z   2
loop_
 _symmetry_equiv_pos_site_id
 _symmetry_equiv_pos_as_xyz
  1  'x, y, z'
loop_
 _atom_site_type_symbol
 _atom_site_label
 _atom_site_symmetry_multiplicity
 _atom_site_fract_x
 _atom_site_fract_y
 _atom_site_fract_z
 _atom_site_occupancy
  Cs  Cs0  1  0.25000000  0.13412300  0.72680300  1
  Cs  Cs1  1  0.75000000  0.86587700  0.27319700  1
  Ca  Ca0  1  0.25000000  0.61470800  0.85152500  1
  Ca  Ca1  1  0.75000000  0.38529200  0.14847500  1
  Se  Se0  1  0.75000000  0.42534100  0.80114200  1
  Se  Se1  1  0.25000000  0.57465900  0.19885800  1
  Se  Se2  1  0.25000000  0.78002800  0.53128500  1
  Se  Se3  1  0.75000000  0.21997200  0.46871500  1
  Se  Se4  1  0.25000000  0.18993000  0.05820200  1
  Se  Se5  1  0.75000000  0.81007000  0.94179800  1
  O  O0  1  0.75000000  0.23157100  0.80277000  1
  O  O1  1  0.25000000  0.76842900  0.19723000  1
  O  O2  1  0.25000000  0.54744000  0.06597600  1
  O  O3  1  0.75000000  0.45256000  0.93402400  1
  O  O4  1  0.98058600  0.51097900  0.73305700  1
  O  O5  1  0.48058600  0.48902100  0.26694300  1
  O  O6  1  0.01941400  0.48902100  0.26694300  1
  O  O7  1  0.51941400  0.51097900  0.73305700  1
  O  O8  1  0.75000000  0.05237000  0.58100100  1
  O  O9  1  0.25000000  0.94763000  0.41899900  1
  O  O10  1  0.25000000  0.81522000  0.66000800  1
  O  O11  1  0.75000000  0.18478000  0.33999200  1
  O  O12  1  0.97947400  0.31769500  0.48990900  1
  O  O13  1  0.47947400  0.68230500  0.51009100  1
  O  O14  1  0.02052600  0.68230500  0.51009100  1
  O  O15  1  0.52052600  0.31769500  0.48990900  1
  O  O16  1  0.25000000  0.01624500  0.01930400  1
  O  O17  1  0.75000000  0.98375500  0.98069600  1
  O  O18  1  0.25000000  0.32441300  0.92645800  1
  O  O19  1  0.75000000  0.67558700  0.07354200  1
  O  O20  1  0.02308700  0.19890300  0.13336000  1
  O  O21  1  0.52308700  0.80109700  0.86664000  1
  O  O22  1  0.97691300  0.80109700  0.86664000  1
  O  O23  1  0.47691300  0.19890300  0.13336000  1
loop_
_geom_bond_atom_site_label_1
_geom_bond_atom_site_label_2
_geom_bond_distance
_geom_bond_site_symmetry_2
Cs0 O10 3.116554 1_545
Cs0 O12 3.270143 1_455
Cs0 O15 3.270143 1_555
Cs0 O18 3.280117 1_555
Cs0 O0 3.345168 1_555
Cs0 O0 3.345168 1_455
Cs0 O16 3.352200 1_556
Cs0 O22 3.353698 1_445
Cs0 O21 3.353698 1_545
Cs0 O8 3.668987 1_555
Cs0 O8 3.668987 1_455
Cs0 O7 3.701779 1_555
Cs0 O4 3.701779 1_455
Cs1 O11 3.116554 1_565
Cs1 O14 3.270143 1_655
Cs1 O13 3.270143 1_555
Cs1 O19 3.280117 1_555
Cs1 O1 3.345168 1_555
Cs1 O1 3.345168 1_655
Cs1 O17 3.352200 1_554
Cs1 O20 3.353698 1_665
Cs1 O23 3.353698 1_565
Cs1 O9 3.668987 1_555
Cs1 O9 3.668987 1_655
Cs1 O5 3.701779 1_555
Cs1 O6 3.701779 1_655
Ca0 O21 2.367930 1_555
Ca0 O22 2.367930 1_455
Ca0 O18 2.440944 1_555
Ca0 O10 2.454687 1_555
Ca0 O2 2.461944 1_556
Ca0 O4 2.497829 1_455
Ca0 O7 2.497829 1_555
Ca1 O23 2.367930 1_555
Ca1 O20 2.367930 1_655
Ca1 O19 2.440944 1_555
Ca1 O11 2.454687 1_555
Ca1 O3 2.461944 1_554
Ca1 O6 2.497829 1_655
Ca1 O5 2.497829 1_555
O0 Se0 1.691091 1_555
O1 Se1 1.691091 1_555
O2 Se1 1.673392 1_555
O3 Se0 1.673392 1_555
O4 Se0 1.682425 1_555
O5 Se1 1.682425 1_555
O6 Se1 1.682425 1_555
O7 Se0 1.682425 1_555
O8 Se3 1.681659 1_555
O9 Se2 1.681659 1_555
O10 Se2 1.654544 1_555
O11 Se3 1.654544 1_555
O12 Se3 1.690218 1_555
O13 Se2 1.690218 1_555
O14 Se2 1.690218 1_555
O15 Se3 1.690218 1_555
O16 Se4 1.713033 1_555
O17 Se5 1.713033 1_555
O18 Se4 1.675268 1_556
O19 Se5 1.675268 1_554
O20 Se4 1.657727 1_555
O21 Se5 1.657727 1_555
O22 Se5 1.657727 1_555
O23 Se4 1.657727 1_555
