# generated using pymatgen
data_ErPdPb
_symmetry_space_group_name_H-M   'P 1'
_cell_length_a   7.70591557
_cell_length_b   7.70591557
_cell_length_c   3.88644501
_cell_angle_alpha   90.00000000
_cell_angle_beta   90.00000000
_cell_angle_gamma   119.99999239
_symmetry_Int_Tables_number   1
_chemical_formula_structural   ErPdPb
_chemical_formula_sum   'Er3 Pd3 Pb3'
_cell_volume   199.86267015
_cell_formula_units_Z   3
loop_
 _symmetry_equiv_pos_site_id
 _symmetry_equiv_pos_as_xyz
  1  'x, y, z'
loop_
 _atom_site_type_symbol
 _atom_site_label
 _atom_site_symmetry_multiplicity
 _atom_site_fract_x
 _atom_site_fract_y
 _atom_site_fract_z
 _atom_site_occupancy
  Er  Er0  1  0.40006716  0.40006716  0.50000000  1
  Er  Er1  1  0.59993284  0.00000000  0.50000000  1
  Er  Er2  1  0.00000000  0.59993284  0.50000000  1
  Pd  Pd0  1  0.66666700  0.33333300  0.00000000  1
  Pd  Pd1  1  0.33333300  0.66666700  -0.00000000  1
  Pd  Pd2  1  0.00000000  -0.00000000  0.50000000  1
  Pb  Pb0  1  0.73307362  0.73307362  0.00000000  1
  Pb  Pb1  1  0.26692638  -0.00000000  -0.00000000  1
  Pb  Pb2  1  -0.00000000  0.26692638  -0.00000000  1
loop_
_geom_bond_atom_site_label_1
_geom_bond_atom_site_label_2
_geom_bond_distance
_geom_bond_site_symmetry_2
Er0 Pd1 3.052470 1_556
Er0 Pd1 3.052470 1_555
Er0 Pd0 3.052470 1_556
Er0 Pd0 3.052470 1_555
Er0 Pd2 3.082884 1_555
Er0 Pb0 3.218864 1_555
Er0 Pb0 3.218864 1_556
Er0 Pb1 3.342148 1_555
Er0 Pb2 3.342148 1_555
Er0 Pb1 3.342148 1_556
Er0 Pb2 3.342148 1_556
Er1 Pd0 3.052465 1_555
Er1 Pd0 3.052465 1_556
Er1 Pd1 3.052467 1_545
Er1 Pd1 3.052467 1_546
Er1 Pd2 3.082884 1_655
Er1 Pb1 3.218864 1_555
Er1 Pb1 3.218864 1_556
Er1 Pb0 3.342148 1_546
Er1 Pb0 3.342148 1_545
Er1 Pb2 3.342148 1_655
Er1 Pb2 3.342148 1_656
Er2 Pd1 3.052465 1_556
Er2 Pd1 3.052465 1_555
Er2 Pd0 3.052467 1_456
Er2 Pd0 3.052467 1_455
Er2 Pd2 3.082884 1_565
Er2 Pb2 3.218864 1_556
Er2 Pb2 3.218864 1_555
Er2 Pb0 3.342148 1_456
Er2 Pb0 3.342148 1_455
Er2 Pb1 3.342148 1_566
Er2 Pb1 3.342148 1_565
Pb0 Pd2 2.829665 1_664
Pb0 Pd2 2.829665 1_665
Pb0 Pd0 2.859061 1_555
Pb0 Pd1 2.859061 1_555
Pb1 Pd2 2.829665 1_555
Pb1 Pd2 2.829665 1_554
Pb1 Pd1 2.859053 1_545
Pb1 Pd0 2.859058 1_555
Pb2 Pd2 2.829665 1_554
Pb2 Pd2 2.829665 1_555
Pb2 Pd0 2.859053 1_455
Pb2 Pd1 2.859058 1_555
