# generated using pymatgen
data_Gd2MgNi2
_symmetry_space_group_name_H-M   'P 1'
_cell_length_a   7.41305901
_cell_length_b   7.41305901
_cell_length_c   3.71503819
_cell_angle_alpha   90.00000000
_cell_angle_beta   90.00000000
_cell_angle_gamma   89.99872502
_symmetry_Int_Tables_number   1
_chemical_formula_structural   Gd2MgNi2
_chemical_formula_sum   'Gd4 Mg2 Ni4'
_cell_volume   204.15414268
_cell_formula_units_Z   2
loop_
 _symmetry_equiv_pos_site_id
 _symmetry_equiv_pos_as_xyz
  1  'x, y, z'
loop_
 _atom_site_type_symbol
 _atom_site_label
 _atom_site_symmetry_multiplicity
 _atom_site_fract_x
 _atom_site_fract_y
 _atom_site_fract_z
 _atom_site_occupancy
  Gd  Gd0  1  0.67275112  0.17275112  0.50000000  1
  Gd  Gd1  1  0.32724888  0.82724888  0.50000000  1
  Gd  Gd2  1  0.17275147  0.32724853  0.50000000  1
  Gd  Gd3  1  0.82724853  0.67275147  0.50000000  1
  Mg  Mg0  1  0.00000000  0.00000000  -0.00000000  1
  Mg  Mg1  1  0.50000000  0.50000000  -0.00000000  1
  Ni  Ni0  1  0.11831684  0.61831684  0.00000000  1
  Ni  Ni1  1  0.88168316  0.38168316  0.00000000  1
  Ni  Ni2  1  0.61832136  0.88167864  -0.00000000  1
  Ni  Ni3  1  0.38167864  0.11832136  -0.00000000  1
loop_
_geom_bond_atom_site_label_1
_geom_bond_atom_site_label_2
_geom_bond_distance
_geom_bond_site_symmetry_2
Gd0 Ni1 2.871969 1_556
Gd0 Ni1 2.871969 1_555
Gd0 Ni2 2.875596 1_545
Gd0 Ni2 2.875596 1_546
Gd0 Ni3 2.875596 1_555
Gd0 Ni3 2.875596 1_556
Gd0 Mg0 3.312896 1_655
Gd0 Mg0 3.312896 1_656
Gd0 Mg1 3.312896 1_556
Gd0 Mg1 3.312896 1_555
Gd1 Ni0 2.871969 1_556
Gd1 Ni0 2.871969 1_555
Gd1 Ni3 2.875596 1_565
Gd1 Ni3 2.875596 1_566
Gd1 Ni2 2.875596 1_555
Gd1 Ni2 2.875596 1_556
Gd1 Mg1 3.312896 1_556
Gd1 Mg0 3.312896 1_565
Gd1 Mg0 3.312896 1_566
Gd1 Mg1 3.312896 1_555
Gd2 Ni3 2.871893 1_555
Gd2 Ni3 2.871893 1_556
Gd2 Ni0 2.875564 1_556
Gd2 Ni0 2.875564 1_555
Gd2 Ni1 2.875564 1_455
Gd2 Ni1 2.875564 1_456
Gd2 Mg0 3.312936 1_555
Gd2 Mg0 3.312936 1_556
Gd2 Mg1 3.312936 1_556
Gd2 Mg1 3.312936 1_555
Gd3 Ni2 2.871893 1_555
Gd3 Ni2 2.871893 1_556
Gd3 Ni1 2.875564 1_555
Gd3 Ni1 2.875564 1_556
Gd3 Ni0 2.875564 1_656
Gd3 Ni0 2.875564 1_655
Gd3 Mg0 3.312936 1_665
Gd3 Mg0 3.312936 1_666
Gd3 Mg1 3.312936 1_556
Gd3 Mg1 3.312936 1_555
Mg0 Ni0 2.962247 1_545
Mg0 Ni1 2.962247 1_455
Mg0 Ni2 2.962262 1_445
Mg0 Ni3 2.962262 1_555
Mg1 Ni1 2.962247 1_555
Mg1 Ni0 2.962247 1_555
Mg1 Ni3 2.962262 1_555
Mg1 Ni2 2.962262 1_555
Ni0 Ni1 2.480812 1_455
Ni2 Ni3 2.480852 1_565
