# generated using pymatgen
data_Na5Al(HO)8
_symmetry_space_group_name_H-M   'P 1'
_cell_length_a   9.56342200
_cell_length_b   9.56342200
_cell_length_c   9.71887900
_cell_angle_alpha   90.00000000
_cell_angle_beta   90.00000000
_cell_angle_gamma   90.00000000
_symmetry_Int_Tables_number   1
_chemical_formula_structural   Na5Al(HO)8
_chemical_formula_sum   'Na20 Al4 H32 O32'
_cell_volume   888.87934662
_cell_formula_units_Z   4
loop_
 _symmetry_equiv_pos_site_id
 _symmetry_equiv_pos_as_xyz
  1  'x, y, z'
loop_
 _atom_site_type_symbol
 _atom_site_label
 _atom_site_symmetry_multiplicity
 _atom_site_fract_x
 _atom_site_fract_y
 _atom_site_fract_z
 _atom_site_occupancy
  Na  Na0  1  0.62488000  0.62488000  0.00000000  1
  Na  Na1  1  0.37512000  0.37512000  0.50000000  1
  Na  Na2  1  0.87512000  0.12488000  0.25000000  1
  Na  Na3  1  0.12488000  0.87512000  0.75000000  1
  Na  Na4  1  0.11333000  0.37152800  0.27743600  1
  Na  Na5  1  0.88667000  0.62847200  0.77743600  1
  Na  Na6  1  0.12847200  0.61333000  0.52743600  1
  Na  Na7  1  0.38667000  0.87152800  0.97256400  1
  Na  Na8  1  0.87152800  0.38667000  0.02743600  1
  Na  Na9  1  0.61333000  0.12847200  0.47256400  1
  Na  Na10  1  0.37152800  0.11333000  0.72256400  1
  Na  Na11  1  0.62847200  0.88667000  0.22256400  1
  Na  Na12  1  0.37804100  0.13104000  0.23330900  1
  Na  Na13  1  0.62195900  0.86896000  0.73330900  1
  Na  Na14  1  0.36896000  0.87804100  0.48330900  1
  Na  Na15  1  0.12195900  0.63104000  0.01669100  1
  Na  Na16  1  0.63104000  0.12195900  0.98330900  1
  Na  Na17  1  0.87804100  0.36896000  0.51669100  1
  Na  Na18  1  0.13104000  0.37804100  0.76669100  1
  Na  Na19  1  0.86896000  0.62195900  0.26669100  1
  Al  Al0  1  0.12943500  0.12943500  0.00000000  1
  Al  Al1  1  0.87056500  0.87056500  0.50000000  1
  Al  Al2  1  0.37056500  0.62943500  0.25000000  1
  Al  Al3  1  0.62943500  0.37056500  0.75000000  1
  H  H0  1  0.21045400  0.36326800  0.04950200  1
  H  H1  1  0.78954600  0.63673200  0.54950200  1
  H  H2  1  0.13673200  0.71045400  0.29950200  1
  H  H3  1  0.28954600  0.86326800  0.20049800  1
  H  H4  1  0.86326800  0.28954600  0.79950200  1
  H  H5  1  0.71045400  0.13673200  0.70049800  1
  H  H6  1  0.36326800  0.21045400  0.95049800  1
  H  H7  1  0.63673200  0.78954600  0.45049800  1
  H  H8  1  0.44682400  0.38670500  0.20685700  1
  H  H9  1  0.55317600  0.61329500  0.70685700  1
  H  H10  1  0.11329500  0.94682400  0.45685700  1
  H  H11  1  0.05317600  0.88670500  0.04314300  1
  H  H12  1  0.88670500  0.05317600  0.95685700  1
  H  H13  1  0.94682400  0.11329500  0.54314300  1
  H  H14  1  0.38670500  0.44682400  0.79314300  1
  H  H15  1  0.61329500  0.55317600  0.29314300  1
  H  H16  1  0.26701400  0.12783500  0.46189800  1
  H  H17  1  0.73298600  0.87216500  0.96189800  1
  H  H18  1  0.37216500  0.76701400  0.71189800  1
  H  H19  1  0.23298600  0.62783500  0.78810200  1
  H  H20  1  0.62783500  0.23298600  0.21189800  1
  H  H21  1  0.76701400  0.37216500  0.28810200  1
  H  H22  1  0.12783500  0.26701400  0.53810200  1
  H  H23  1  0.87216500  0.73298600  0.03810200  1
  H  H24  1  0.13915800  0.03704400  0.23063400  1
  H  H25  1  0.86084200  0.96295600  0.73063400  1
  H  H26  1  0.46295600  0.63915800  0.48063400  1
  H  H27  1  0.36084200  0.53704400  0.01936600  1
  H  H28  1  0.53704400  0.36084200  0.98063400  1
  H  H29  1  0.63915800  0.46295600  0.51936600  1
  H  H30  1  0.03704400  0.13915800  0.76936600  1
  H  H31  1  0.96295600  0.86084200  0.26936600  1
  O  O0  1  0.12938000  0.13391000  0.20131100  1
  O  O1  1  0.87062000  0.86609000  0.70131100  1
  O  O2  1  0.36609000  0.62938000  0.45131100  1
  O  O3  1  0.37062000  0.63391000  0.04868900  1
  O  O4  1  0.63391000  0.37062000  0.95131100  1
  O  O5  1  0.62938000  0.36609000  0.54868900  1
  O  O6  1  0.13391000  0.12938000  0.79868900  1
  O  O7  1  0.86609000  0.87062000  0.29868900  1
  O  O8  1  0.36689400  0.11976200  0.47639300  1
  O  O9  1  0.63310600  0.88023800  0.97639300  1
  O  O10  1  0.38023800  0.86689400  0.72639300  1
  O  O11  1  0.13310600  0.61976200  0.77360700  1
  O  O12  1  0.61976200  0.13310600  0.22639300  1
  O  O13  1  0.86689400  0.38023800  0.27360700  1
  O  O14  1  0.11976200  0.36689400  0.52360700  1
  O  O15  1  0.88023800  0.63310600  0.02360700  1
  O  O16  1  0.36110800  0.42557200  0.24474300  1
  O  O17  1  0.63889200  0.57442800  0.74474300  1
  O  O18  1  0.07442800  0.86110800  0.49474300  1
  O  O19  1  0.13889200  0.92557200  0.00525700  1
  O  O20  1  0.92557200  0.13889200  0.99474300  1
  O  O21  1  0.86110800  0.07442800  0.50525700  1
  O  O22  1  0.42557200  0.36110800  0.75525700  1
  O  O23  1  0.57442800  0.63889200  0.25525700  1
  O  O24  1  0.12414900  0.33348500  0.00535300  1
  O  O25  1  0.87585100  0.66651500  0.50535300  1
  O  O26  1  0.16651500  0.62414900  0.25535300  1
  O  O27  1  0.37585100  0.83348500  0.24464700  1
  O  O28  1  0.83348500  0.37585100  0.75535300  1
  O  O29  1  0.62414900  0.16651500  0.74464700  1
  O  O30  1  0.33348500  0.12414900  0.99464700  1
  O  O31  1  0.66651500  0.87585100  0.49464700  1
loop_
_geom_bond_atom_site_label_1
_geom_bond_atom_site_label_2
_geom_bond_distance
_geom_bond_site_symmetry_2
Na0 O9 2.454111 1_554
Na0 O15 2.454111 1_555
Na0 O3 2.478717 1_555
Na0 O4 2.478717 1_554
Na0 O23 2.530847 1_555
Na0 O17 2.530847 1_554
Na1 O14 2.454111 1_555
Na1 O8 2.454111 1_555
Na1 O5 2.478717 1_555
Na1 O2 2.478717 1_555
Na1 O22 2.530847 1_555
Na1 O16 2.530847 1_555
Na2 O13 2.454111 1_555
Na2 O12 2.454111 1_555
Na2 O0 2.478717 1_655
Na2 O7 2.478717 1_545
Na2 O21 2.530847 1_555
Na2 O20 2.530847 1_554
Na3 O10 2.454111 1_555
Na3 O11 2.454111 1_555
Na3 O6 2.478717 1_565
Na3 O1 2.478717 1_455
Na3 O19 2.530847 1_556
Na3 O18 2.530847 1_555
Na4 O13 2.358537 1_455
Na4 O14 2.393707 1_555
Na4 O0 2.394771 1_555
Na4 O16 2.446041 1_555
Na4 O26 2.478194 1_555
Na5 O11 2.358537 1_655
Na5 O15 2.393707 1_556
Na5 O1 2.394771 1_555
Na5 O17 2.446041 1_555
Na5 O28 2.478194 1_555
Na6 O14 2.358537 1_555
Na6 O11 2.393707 1_555
Na6 O2 2.394771 1_555
Na6 O18 2.446041 1_555
Na6 O25 2.478194 1_455
Na7 O9 2.358537 1_555
Na7 O10 2.393707 1_555
Na7 O3 2.394771 1_556
Na7 O19 2.446041 1_556
Na7 O30 2.478194 1_565
Na8 O15 2.358537 1_555
Na8 O13 2.393707 1_555
Na8 O4 2.394771 1_554
Na8 O20 2.446041 1_554
Na8 O24 2.478194 1_655
Na9 O8 2.358537 1_555
Na9 O12 2.393707 1_555
Na9 O5 2.394771 1_555
Na9 O21 2.446041 1_555
Na9 O31 2.478194 1_545
Na10 O10 2.358537 1_545
Na10 O8 2.393707 1_555
Na10 O6 2.394771 1_555
Na10 O22 2.446041 1_555
Na10 O29 2.478194 1_555
Na11 O12 2.358537 1_565
Na11 O9 2.393707 1_554
Na11 O7 2.394771 1_555
Na11 O23 2.446041 1_555
Na11 O27 2.478194 1_555
Na12 O12 2.312741 1_555
Na12 O30 2.359262 1_554
Na12 O8 2.367366 1_555
Na12 O0 2.398455 1_555
Na12 O16 2.823573 1_555
Na12 O27 2.847854 1_545
Na13 O10 2.312741 1_555
Na13 O31 2.359262 1_555
Na13 O9 2.367366 1_555
Na13 O1 2.398455 1_555
Na13 O17 2.823573 1_555
Na13 O29 2.847854 1_565
Na14 O8 2.312741 1_565
Na14 O27 2.359262 1_555
Na14 O10 2.367366 1_555
Na14 O2 2.398455 1_555
Na14 O18 2.823573 1_555
Na14 O31 2.847854 1_555
Na15 O15 2.312741 1_455
Na15 O26 2.359262 1_555
Na15 O11 2.367366 1_554
Na15 O3 2.398455 1_555
Na15 O19 2.823573 1_555
Na15 O24 2.847854 1_555
Na16 O9 2.312741 1_545
Na16 O29 2.359262 1_555
Na16 O12 2.367366 1_556
Na16 O4 2.398455 1_555
Na16 O20 2.823573 1_555
Na16 O30 2.847854 1_555
Na17 O14 2.312741 1_655
Na17 O28 2.359262 1_555
Na17 O13 2.367366 1_555
Na17 O5 2.398455 1_555
Na17 O21 2.823573 1_555
Na17 O25 2.847854 1_555
Na18 O11 2.312741 1_555
Na18 O24 2.359262 1_556
Na18 O14 2.367366 1_555
Na18 O6 2.398455 1_555
Na18 O22 2.823573 1_555
Na18 O28 2.847854 1_455
Na19 O13 2.312741 1_555
Na19 O25 2.359262 1_555
Na19 O15 2.367366 1_555
Na19 O7 2.398455 1_555
Na19 O23 2.823573 1_555
Na19 O26 2.847854 1_655
Al0 O19 1.952393 1_545
Al0 O20 1.952393 1_454
Al0 O24 1.952764 1_555
Al0 O30 1.952764 1_554
Al0 O0 1.956985 1_555
Al0 O6 1.956985 1_554
Al1 O21 1.952393 1_565
Al1 O18 1.952393 1_655
Al1 O25 1.952764 1_555
Al1 O31 1.952764 1_555
Al1 O1 1.956985 1_555
Al1 O7 1.956985 1_555
Al2 O23 1.952393 1_555
Al2 O16 1.952393 1_555
Al2 O27 1.952764 1_555
Al2 O26 1.952764 1_555
Al2 O2 1.956985 1_555
Al2 O3 1.956985 1_555
Al3 O17 1.952393 1_555
Al3 O22 1.952393 1_555
Al3 O28 1.952764 1_555
Al3 O29 1.952764 1_555
Al3 O4 1.956985 1_555
Al3 O5 1.956985 1_555
H0 O24 0.972868 1_555
H0 Na4 2.403408 1_555
H0 Na15 2.715828 1_555
H1 O25 0.972868 1_555
H1 Na5 2.403408 1_555
H1 Na17 2.715828 1_555
H2 O26 0.972868 1_555
H2 Na6 2.403408 1_555
H2 Na19 2.715828 1_455
H3 O27 0.972868 1_555
H3 Na7 2.403408 1_554
H3 Na12 2.715828 1_565
H4 O28 0.972868 1_555
H4 Na8 2.403408 1_556
H4 Na18 2.715828 1_655
H5 O29 0.972868 1_555
H5 Na9 2.403408 1_555
H5 Na13 2.715828 1_545
H6 O30 0.972868 1_555
H6 Na10 2.403408 1_555
H6 Na16 2.715828 1_555
H7 O31 0.972868 1_555
H7 Na11 2.403408 1_555
H7 Na14 2.715828 1_555
H8 O16 0.972477 1_555
H8 Na12 2.544991 1_555
H9 O17 0.972477 1_555
H9 Na13 2.544991 1_555
H10 O18 0.972477 1_555
H10 Na14 2.544991 1_555
H11 O19 0.972477 1_555
H11 Na15 2.544991 1_555
H12 O20 0.972477 1_555
H12 Na16 2.544991 1_555
H13 O21 0.972477 1_555
H13 Na17 2.544991 1_555
H14 O22 0.972477 1_555
H14 Na18 2.544991 1_555
H15 O23 0.972477 1_555
H15 Na19 2.544991 1_555
H16 O8 0.968609 1_555
H16 Na12 2.462517 1_555
H16 Na14 2.588553 1_545
H17 O9 0.968609 1_555
H17 Na13 2.462517 1_555
H17 Na16 2.588553 1_565
H18 O10 0.968609 1_555
H18 Na14 2.462517 1_555
H18 Na13 2.588553 1_555
H19 O11 0.968609 1_555
H19 Na15 2.462517 1_556
H19 Na18 2.588553 1_555
H20 O12 0.968609 1_555
H20 Na16 2.462517 1_554
H20 Na12 2.588553 1_555
H21 O13 0.968609 1_555
H21 Na17 2.462517 1_555
H21 Na19 2.588553 1_555
H22 O14 0.968609 1_555
H22 Na18 2.462517 1_555
H22 Na17 2.588553 1_455
H23 O15 0.968609 1_555
H23 Na19 2.462517 1_555
H23 Na15 2.588553 1_655
H24 O0 0.973717 1_555
H24 Na12 2.455170 1_555
H25 O1 0.973717 1_555
H25 Na13 2.455170 1_555
H26 O2 0.973717 1_555
H26 Na14 2.455170 1_555
H27 O3 0.973717 1_555
H27 Na15 2.455170 1_555
H28 O4 0.973717 1_555
H28 Na16 2.455170 1_555
H29 O5 0.973717 1_555
H29 Na17 2.455170 1_555
H30 O6 0.973717 1_555
H30 Na18 2.455170 1_555
H31 O7 0.973717 1_555
H31 Na19 2.455170 1_555
