# generated using pymatgen
data_Ce2Ir7
_symmetry_space_group_name_H-M   'P 1'
_cell_length_a   13.55807844
_cell_length_b   13.55807844
_cell_length_c   13.55807751
_cell_angle_alpha   22.65649873
_cell_angle_beta   22.65649873
_cell_angle_gamma   22.65649856
_symmetry_Int_Tables_number   1
_chemical_formula_structural   Ce2Ir7
_chemical_formula_sum   'Ce4 Ir14'
_cell_volume   324.43665539
_cell_formula_units_Z   2
loop_
 _symmetry_equiv_pos_site_id
 _symmetry_equiv_pos_as_xyz
  1  'x, y, z'
loop_
 _atom_site_type_symbol
 _atom_site_label
 _atom_site_symmetry_multiplicity
 _atom_site_fract_x
 _atom_site_fract_y
 _atom_site_fract_z
 _atom_site_occupancy
  Ce  Ce0  1  0.94970500  0.94970500  0.94970500  1
  Ce  Ce1  1  0.05029500  0.05029500  0.05029500  1
  Ce  Ce2  1  0.85286800  0.85286800  0.85286800  1
  Ce  Ce3  1  0.14713200  0.14713200  0.14713200  1
  Ir  Ir0  1  0.50000000  0.50000000  0.50000000  1
  Ir  Ir1  1  0.72217800  0.72217800  0.72217800  1
  Ir  Ir2  1  0.27782200  0.27782200  0.27782200  1
  Ir  Ir3  1  0.61086100  0.61086100  0.61086100  1
  Ir  Ir4  1  0.38913900  0.38913900  0.38913900  1
  Ir  Ir5  1  0.50000000  0.50000000  0.00000000  1
  Ir  Ir6  1  0.00000000  0.50000000  0.50000000  1
  Ir  Ir7  1  0.50000000  0.00000000  0.50000000  1
  Ir  Ir8  1  0.38843800  0.89171500  0.38843800  1
  Ir  Ir9  1  0.38843800  0.38843800  0.89171500  1
  Ir  Ir10  1  0.89171500  0.38843800  0.38843800  1
  Ir  Ir11  1  0.61156200  0.10828500  0.61156200  1
  Ir  Ir12  1  0.61156200  0.61156200  0.10828500  1
  Ir  Ir13  1  0.10828500  0.61156200  0.61156200  1
loop_
_geom_bond_atom_site_label_1
_geom_bond_atom_site_label_2
_geom_bond_distance
_geom_bond_site_symmetry_2
Ce0 Ir2 3.082142 1_665
Ce0 Ir2 3.082143 1_656
Ce0 Ir2 3.082143 1_566
Ce0 Ir3 3.082946 1_556
Ce0 Ir3 3.082946 1_565
Ce0 Ir3 3.082946 1_655
Ce0 Ce2 3.836116 1_555
Ce1 Ir1 3.082142 1_445
Ce1 Ir1 3.082143 1_454
Ce1 Ir1 3.082143 1_544
Ce1 Ir4 3.082946 1_554
Ce1 Ir4 3.082946 1_455
Ce1 Ir4 3.082946 1_545
Ce1 Ce3 3.836116 1_555
Ce2 Ir8 3.033495 1_556
Ce2 Ir10 3.033495 1_556
Ce2 Ir9 3.033495 1_565
Ce2 Ir9 3.033495 1_655
Ce2 Ir8 3.033495 1_655
Ce2 Ir10 3.033495 1_565
Ce2 Ir0 3.171079 1_565
Ce2 Ir0 3.171079 1_655
Ce2 Ir0 3.171080 1_556
Ce2 Ir13 3.366543 1_655
Ce2 Ir11 3.366543 1_565
Ce2 Ir12 3.366543 1_556
Ce2 Ce3 3.442713 1_665
Ce2 Ce3 3.442713 1_566
Ce2 Ce3 3.442713 1_656
Ce3 Ir13 3.033495 1_554
Ce3 Ir11 3.033495 1_554
Ce3 Ir12 3.033495 1_545
Ce3 Ir12 3.033495 1_455
Ce3 Ir13 3.033495 1_545
Ce3 Ir11 3.033495 1_455
Ce3 Ir0 3.171079 1_545
Ce3 Ir0 3.171079 1_455
Ce3 Ir0 3.171080 1_554
Ce3 Ir10 3.366543 1_455
Ce3 Ir8 3.366543 1_545
Ce3 Ir9 3.366543 1_554
Ir0 Ir9 2.711322 1_555
Ir0 Ir12 2.711322 1_555
Ir0 Ir10 2.711322 1_555
Ir0 Ir8 2.711322 1_555
Ir0 Ir13 2.711322 1_555
Ir0 Ir11 2.711322 1_555
Ir1 Ir12 2.659553 1_556
Ir1 Ir13 2.659553 1_655
Ir1 Ir11 2.659553 1_565
Ir1 Ir6 2.683277 1_655
Ir1 Ir7 2.683277 1_565
Ir1 Ir5 2.683278 1_556
Ir1 Ir4 3.075230 1_556
Ir1 Ir4 3.075230 1_565
Ir1 Ir4 3.075230 1_655
Ir2 Ir9 2.659553 1_554
Ir2 Ir8 2.659553 1_545
Ir2 Ir6 2.683277 1_555
Ir2 Ir7 2.683277 1_555
Ir2 Ir5 2.683278 1_555
Ir2 Ir3 3.075230 1_554
Ir2 Ir3 3.075230 1_545
Ir2 Ir3 3.075230 1_455
Ir3 Ir8 2.661685 1_555
Ir3 Ir9 2.661686 1_555
Ir3 Ir5 2.692841 1_556
Ir3 Ir6 2.692842 1_655
Ir3 Ir7 2.692842 1_565
Ir4 Ir5 2.692841 1_555
Ir4 Ir6 2.692842 1_555
Ir4 Ir7 2.692842 1_555
Ir5 Ir6 2.663208 1_555
Ir5 Ir7 2.663208 1_564
Ir5 Ir6 2.663208 1_654
Ir5 Ir7 2.663208 1_555
Ir6 Ir7 2.663208 1_555
Ir6 Ir7 2.663208 1_465
Ir8 Ir9 2.645753 1_564
Ir8 Ir9 2.680663 1_555
Ir10 Ir9 2.645753 1_654
Ir10 Ir8 2.645753 1_645
Ir10 Ir2 2.659553 1_655
Ir10 Ir3 2.661685 1_555
Ir10 Ir9 2.680663 1_555
Ir10 Ir8 2.680663 1_555
Ir11 Ir12 2.645753 1_546
Ir11 Ir13 2.645753 1_645
Ir11 Ir4 2.661685 1_555
Ir11 Ir12 2.680663 1_555
Ir11 Ir13 2.680663 1_555
Ir12 Ir13 2.645753 1_654
Ir12 Ir4 2.661686 1_555
Ir12 Ir13 2.680663 1_555
Ir13 Ir4 2.661685 1_555
