# generated using pymatgen
data_CaLaPb2
_symmetry_space_group_name_H-M   'P 1'
_cell_length_a   10.31373883
_cell_length_b   10.31373883
_cell_length_c   10.31373883
_cell_angle_alpha   126.17917357
_cell_angle_beta   108.26571843
_cell_angle_gamma   95.52403828
_symmetry_Int_Tables_number   1
_chemical_formula_structural   CaLaPb2
_chemical_formula_sum   'Ca1 La1 Pb2'
_cell_volume   782.26697351
_cell_formula_units_Z   1
loop_
 _symmetry_equiv_pos_site_id
 _symmetry_equiv_pos_as_xyz
  1  'x, y, z'
loop_
 _atom_site_type_symbol
 _atom_site_label
 _atom_site_symmetry_multiplicity
 _atom_site_fract_x
 _atom_site_fract_y
 _atom_site_fract_z
 _atom_site_occupancy
  Ca  Ca0  1  0.00000000  0.00000000  0.00000000  1
  La  La0  1  0.50000000  0.00000000  0.50000000  1
  Pb  Pb0  1  0.25360900  0.00000000  0.25360900  1
  Pb  Pb1  1  0.74639100  0.00000000  0.74639100  1
loop_
_geom_bond_atom_site_label_1
_geom_bond_atom_site_label_2
_geom_bond_distance
_geom_bond_site_symmetry_2
Ca0 Pb0 3.065067 1_555
Ca0 Pb1 3.065067 1_454
La0 Pb1 2.977832 1_555
La0 Pb0 2.977832 1_555
