# generated using pymatgen
data_K2Na2Mo(WO4)3
_symmetry_space_group_name_H-M   'P 1'
_cell_length_a   4.00339400
_cell_length_b   8.01477300
_cell_length_c   8.02473000
_cell_angle_alpha   90.00000000
_cell_angle_beta   90.00000000
_cell_angle_gamma   90.00000000
_symmetry_Int_Tables_number   1
_chemical_formula_structural   K2Na2Mo(WO4)3
_chemical_formula_sum   'K2 Na2 Mo1 W3 O12'
_cell_volume   257.48384717
_cell_formula_units_Z   1
loop_
 _symmetry_equiv_pos_site_id
 _symmetry_equiv_pos_as_xyz
  1  'x, y, z'
loop_
 _atom_site_type_symbol
 _atom_site_label
 _atom_site_symmetry_multiplicity
 _atom_site_fract_x
 _atom_site_fract_y
 _atom_site_fract_z
 _atom_site_occupancy
  K  K0  1  0.50000000  0.25042300  0.25169200  1
  K  K1  1  0.50000000  0.25042300  0.74830800  1
  Na  Na0  1  0.50000000  0.74986800  0.25181900  1
  Na  Na1  1  0.50000000  0.74986800  0.74818100  1
  Mo  Mo0  1  0.00000000  0.50165400  0.50000000  1
  W  W0  1  0.00000000  0.99848000  0.00000000  1
  W  W1  1  0.00000000  0.50167600  0.00000000  1
  W  W2  1  0.00000000  0.99866800  0.50000000  1
  O  O0  1  0.50000000  0.99726400  0.00000000  1
  O  O1  1  0.50000000  0.50285900  0.00000000  1
  O  O2  1  0.50000000  0.99678600  0.50000000  1
  O  O3  1  0.50000000  0.50302700  0.50000000  1
  O  O4  1  0.00000000  0.99712600  0.24074300  1
  O  O5  1  0.00000000  0.50309600  0.23977800  1
  O  O6  1  0.00000000  0.99712600  0.75925700  1
  O  O7  1  0.00000000  0.50309600  0.76022200  1
  O  O8  1  0.00000000  0.24926800  0.00000000  1
  O  O9  1  0.00000000  0.75074900  0.00000000  1
  O  O10  1  0.00000000  0.24013700  0.50000000  1
  O  O11  1  0.00000000  0.75840500  0.50000000  1
loop_
_geom_bond_atom_site_label_1
_geom_bond_atom_site_label_2
_geom_bond_distance
_geom_bond_site_symmetry_2
K0 O10 2.825608 1_655
K0 O10 2.825608 1_555
K0 O3 2.840657 1_555
K0 O8 2.843644 1_555
K0 O8 2.843644 1_655
K0 O2 2.846564 1_545
K0 O5 2.849040 1_555
K0 O5 2.849040 1_655
K0 O4 2.852348 1_645
K0 O4 2.852348 1_545
K0 O1 2.858818 1_555
K0 O0 2.862922 1_545
K1 O10 2.825608 1_555
K1 O10 2.825608 1_655
K1 O3 2.840657 1_555
K1 O8 2.843644 1_556
K1 O8 2.843644 1_656
K1 O2 2.846564 1_545
K1 O7 2.849040 1_555
K1 O7 2.849040 1_655
K1 O6 2.852348 1_545
K1 O6 2.852348 1_645
K1 O1 2.858818 1_556
K1 O0 2.862922 1_546
Na0 O3 2.807201 1_555
Na0 O2 2.807636 1_555
Na0 O5 2.815654 1_655
Na0 O5 2.815654 1_555
Na0 O4 2.818136 1_555
Na0 O4 2.818136 1_655
Na0 O11 2.824515 1_555
Na0 O11 2.824515 1_655
Na0 O1 2.828930 1_555
Na0 O0 2.831102 1_555
Na0 O9 2.844361 1_655
Na0 O9 2.844361 1_555
Na1 O3 2.807201 1_555
Na1 O2 2.807636 1_555
Na1 O7 2.815654 1_555
Na1 O7 2.815654 1_655
Na1 O6 2.818136 1_555
Na1 O6 2.818136 1_655
Na1 O11 2.824515 1_555
Na1 O11 2.824515 1_655
Na1 O1 2.828930 1_556
Na1 O0 2.831102 1_556
Na1 O9 2.844361 1_556
Na1 O9 2.844361 1_656
Mo0 O3 2.001727 1_455
Mo0 O3 2.001727 1_555
Mo0 O11 2.057801 1_555
Mo0 O7 2.088243 1_555
Mo0 O5 2.088243 1_555
Mo0 O10 2.095999 1_555
O0 W0 2.001721 1_555
O0 W0 2.001721 1_655
O1 W1 2.001719 1_555
O1 W1 2.001719 1_655
O2 W2 2.001754 1_655
O2 W2 2.001754 1_555
O4 W0 1.931928 1_555
O4 W2 2.080504 1_555
O5 W1 1.924187 1_555
O6 W0 1.931928 1_556
O6 W2 2.080504 1_555
O7 W1 1.924187 1_556
O8 W0 2.010009 1_545
O8 W1 2.022993 1_555
O9 W0 1.985508 1_555
O9 W1 1.996264 1_555
O10 W2 1.935319 1_545
O11 W2 1.925653 1_555
