# generated using pymatgen
data_CsK2Yb(PO4)2
_symmetry_space_group_name_H-M   'P 1'
_cell_length_a   5.82578765
_cell_length_b   5.82578765
_cell_length_c   7.81361300
_cell_angle_alpha   90.00000000
_cell_angle_beta   90.00000000
_cell_angle_gamma   119.99999602
_symmetry_Int_Tables_number   1
_chemical_formula_structural   CsK2Yb(PO4)2
_chemical_formula_sum   'Cs1 K2 Yb1 P2 O8'
_cell_volume   229.66343037
_cell_formula_units_Z   1
loop_
 _symmetry_equiv_pos_site_id
 _symmetry_equiv_pos_as_xyz
  1  'x, y, z'
loop_
 _atom_site_type_symbol
 _atom_site_label
 _atom_site_symmetry_multiplicity
 _atom_site_fract_x
 _atom_site_fract_y
 _atom_site_fract_z
 _atom_site_occupancy
  Cs  Cs0  1  0.00000000  0.00000000  0.50000000  1
  K  K0  1  0.66666700  0.33333300  0.79048000  1
  K  K1  1  0.33333300  0.66666700  0.20952000  1
  Yb  Yb0  1  0.00000000  0.00000000  0.00000000  1
  P  P0  1  0.33333300  0.66666700  0.76474100  1
  P  P1  1  0.66666700  0.33333300  0.23525900  1
  O  O0  1  0.66666700  0.33333300  0.43344200  1
  O  O1  1  0.33333300  0.66666700  0.56655800  1
  O  O2  1  0.81198100  0.18801900  0.16832400  1
  O  O3  1  0.81198100  0.62396200  0.16832400  1
  O  O4  1  0.37603800  0.18801900  0.16832400  1
  O  O5  1  0.62396200  0.81198100  0.83167600  1
  O  O6  1  0.18801900  0.81198100  0.83167600  1
  O  O7  1  0.18801900  0.37603800  0.83167600  1
loop_
_geom_bond_atom_site_label_1
_geom_bond_atom_site_label_2
_geom_bond_distance
_geom_bond_site_symmetry_2
Cs0 O6 3.211816 1_545
Cs0 O2 3.211816 1_455
Cs0 O3 3.211816 1_445
Cs0 O7 3.211816 1_555
Cs0 O4 3.211816 1_555
Cs0 O5 3.211816 1_445
Cs0 O1 3.403484 1_545
Cs0 O0 3.403484 1_455
Cs0 O1 3.403489 1_445
Cs0 O1 3.403489 1_555
Cs0 O0 3.403489 1_555
Cs0 O0 3.403489 1_445
K0 O0 2.789757 1_555
K0 O7 2.938532 1_655
K0 O5 2.938532 1_545
K0 O6 2.938534 1_655
K0 O6 2.938534 1_545
K0 O5 2.938538 1_555
K0 O7 2.938538 1_555
K1 O1 2.789757 1_555
K1 O4 2.938532 1_565
K1 O3 2.938532 1_455
K1 O2 2.938534 1_565
K1 O2 2.938534 1_455
K1 O3 2.938538 1_555
K1 O4 2.938538 1_555
O0 P1 1.548525 1_555
O1 P0 1.548525 1_555
O2 P1 1.556781 1_555
O2 Yb0 2.308513 1_655
O3 P1 1.556786 1_555
O3 Yb0 2.308513 1_665
O4 P1 1.556786 1_555
O4 Yb0 2.308513 1_555
O5 P0 1.556786 1_555
O5 Yb0 2.308513 1_666
O6 P0 1.556781 1_555
O6 Yb0 2.308513 1_566
O7 P0 1.556786 1_555
O7 Yb0 2.308513 1_556
