# generated using pymatgen
data_Na(CoO2)3
_symmetry_space_group_name_H-M   'P 1'
_cell_length_a   4.83726566
_cell_length_b   5.75037974
_cell_length_c   8.32595909
_cell_angle_alpha   89.99993232
_cell_angle_beta   90.00007778
_cell_angle_gamma   73.75628099
_symmetry_Int_Tables_number   1
_chemical_formula_structural   Na(CoO2)3
_chemical_formula_sum   'Na2 Co6 O12'
_cell_volume   222.35064649
_cell_formula_units_Z   2
loop_
 _symmetry_equiv_pos_site_id
 _symmetry_equiv_pos_as_xyz
  1  'x, y, z'
loop_
 _atom_site_type_symbol
 _atom_site_label
 _atom_site_symmetry_multiplicity
 _atom_site_fract_x
 _atom_site_fract_y
 _atom_site_fract_z
 _atom_site_occupancy
  Na  Na0  1  -0.00000207  0.49999868  0.16742836  1
  Na  Na1  1  0.50000101  0.50000180  0.66667655  1
  Co  Co0  1  -0.00000184  0.00000067  0.66659465  1
  Co  Co1  1  0.50000191  0.00000062  0.83469697  1
  Co  Co2  1  0.50000150  -0.00000037  0.49858328  1
  Co  Co3  1  0.50000160  -0.00000049  0.16655222  1
  Co  Co4  1  -0.00000171  -0.00000000  0.33474624  1
  Co  Co5  1  -0.00000045  0.00000032  0.99855841  1
  O  O0  1  0.77817124  0.17253863  0.16665187  1
  O  O1  1  0.27819097  0.17255961  0.66662138  1
  O  O2  1  0.22182905  0.82746016  0.16665210  1
  O  O3  1  0.72180838  0.82744199  0.66662197  1
  O  O4  1  0.27293012  0.17503619  0.00150459  1
  O  O5  1  0.77288927  0.17510547  0.50145029  1
  O  O6  1  0.27303106  0.17497148  0.33178039  1
  O  O7  1  0.77306391  0.17494920  0.83173758  1
  O  O8  1  0.72696830  0.82502913  0.33178108  1
  O  O9  1  0.22693705  0.82505074  0.83173805  1
  O  O10  1  0.72706926  0.82496475  0.00150493  1
  O  O11  1  0.22711045  0.82489342  0.50145107  1
loop_
_geom_bond_atom_site_label_1
_geom_bond_atom_site_label_2
_geom_bond_distance
_geom_bond_site_symmetry_2
Na0 O6 2.393553 1_555
Na0 O8 2.393567 1_455
Na0 O4 2.400668 1_555
Na0 O10 2.400669 1_455
Na0 O0 2.414042 1_455
Na0 O2 2.414063 1_555
Na1 O11 2.397001 1_555
Na1 O5 2.397022 1_555
Na1 O9 2.397067 1_555
Na1 O7 2.397072 1_555
Na1 O3 2.413868 1_555
Na1 O1 2.413887 1_555
Co0 O7 1.868113 1_455
Co0 O9 1.868125 1_545
Co0 O5 1.868823 1_455
Co0 O11 1.868835 1_545
Co0 O3 1.882150 1_445
Co0 O1 1.882163 1_555
Co1 O3 1.870422 1_545
Co1 O1 1.870432 1_555
Co1 O7 1.871043 1_555
Co1 O9 1.871060 1_545
Co1 O10 1.878803 1_546
Co1 O4 1.878813 1_556
Co2 O3 1.870191 1_545
Co2 O1 1.870204 1_555
Co2 O5 1.870976 1_555
Co2 O11 1.870991 1_545
Co2 O8 1.878420 1_545
Co2 O6 1.878431 1_555
Co3 O10 1.867995 1_545
Co3 O4 1.868005 1_555
Co3 O8 1.868751 1_545
Co3 O6 1.868762 1_555
Co3 O0 1.881984 1_555
Co3 O2 1.881997 1_545
Co4 O0 1.870539 1_455
Co4 O2 1.870551 1_545
Co4 O8 1.871005 1_445
Co4 O6 1.871019 1_555
Co4 O5 1.878404 1_455
Co4 O11 1.878414 1_545
Co5 O0 1.870539 1_456
Co5 O2 1.870543 1_546
Co5 O10 1.870863 1_446
Co5 O4 1.870866 1_556
Co5 O7 1.878419 1_455
Co5 O9 1.878425 1_545
