# generated using pymatgen
data_Ag2BiSb(TeSe)2
_symmetry_space_group_name_H-M   'P 1'
_cell_length_a   7.34308796
_cell_length_b   7.34308796
_cell_length_c   7.34308796
_cell_angle_alpha   131.68826477
_cell_angle_beta   131.33494609
_cell_angle_gamma   71.00187727
_symmetry_Int_Tables_number   1
_chemical_formula_structural   Ag2BiSb(TeSe)2
_chemical_formula_sum   'Ag2 Bi1 Sb1 Te2 Se2'
_cell_volume   217.40272706
_cell_formula_units_Z   1
loop_
 _symmetry_equiv_pos_site_id
 _symmetry_equiv_pos_as_xyz
  1  'x, y, z'
loop_
 _atom_site_type_symbol
 _atom_site_label
 _atom_site_symmetry_multiplicity
 _atom_site_fract_x
 _atom_site_fract_y
 _atom_site_fract_z
 _atom_site_occupancy
  Ag  Ag0  1  0.99665800  0.99665800  0.00000000  1
  Ag  Ag1  1  0.24544100  0.74544100  0.50000000  1
  Bi  Bi0  1  0.76173600  0.26173600  0.50000000  1
  Sb  Sb0  1  0.51224700  0.51224700  0.00000000  1
  Te  Te0  1  0.24661500  0.24661500  0.00000000  1
  Te  Te1  1  0.49280800  0.99280800  0.50000000  1
  Se  Se0  1  0.74353700  0.74353700  0.00000000  1
  Se  Se1  1  0.00095800  0.50095800  0.50000000  1
loop_
_geom_bond_atom_site_label_1
_geom_bond_atom_site_label_2
_geom_bond_distance
_geom_bond_site_symmetry_2
Ag0 Te0 2.988512 1_665
Ag0 Se1 3.005381 1_665
Ag0 Se1 3.005381 1_654
Ag0 Te1 3.025935 1_554
Ag0 Te1 3.025935 1_655
Ag0 Se0 3.026341 1_555
Ag1 Se1 2.923064 1_555
Ag1 Te1 2.957546 1_555
Ag1 Te0 3.004974 1_566
Ag1 Te0 3.004974 1_555
Ag1 Se0 3.025671 1_556
Ag1 Se0 3.025671 1_455
Bi0 Se1 2.860163 1_655
Bi0 Se0 3.012809 1_556
Bi0 Se0 3.012809 1_545
Bi0 Te0 3.030982 1_555
Bi0 Te0 3.030982 1_656
Bi0 Te1 3.215331 1_545
Sb0 Se0 2.765327 1_555
Sb0 Te1 3.013916 1_555
Sb0 Te1 3.013916 1_544
Sb0 Se1 3.028594 1_554
Sb0 Se1 3.028594 1_655
Sb0 Te0 3.175924 1_555
