# generated using pymatgen
data_VW
_symmetry_space_group_name_H-M   'P 1'
_cell_length_a   5.40851104
_cell_length_b   5.40851104
_cell_length_c   8.54280782
_cell_angle_alpha   90.00000000
_cell_angle_beta   90.00000000
_cell_angle_gamma   110.31276551
_symmetry_Int_Tables_number   1
_chemical_formula_structural   VW
_chemical_formula_sum   'V8 W8'
_cell_volume   234.35362967
_cell_formula_units_Z   8
loop_
 _symmetry_equiv_pos_site_id
 _symmetry_equiv_pos_as_xyz
  1  'x, y, z'
loop_
 _atom_site_type_symbol
 _atom_site_label
 _atom_site_symmetry_multiplicity
 _atom_site_fract_x
 _atom_site_fract_y
 _atom_site_fract_z
 _atom_site_occupancy
  V  V0_0  1  0.00000000  0.00000000  0.00000000  1
  V  V0_1  1  1.00000000  0.00000000  0.50000000  1
  V  V0_2  1  0.00000000  0.50000000  0.00000000  1
  V  V0_3  1  1.00000000  0.50000000  0.50000000  1
  V  V0_4  1  0.50000000  0.00000000  0.00000000  1
  V  V0_5  1  0.50000000  0.00000000  0.50000000  1
  V  V0_6  1  0.50000000  0.50000000  0.00000000  1
  V  V0_7  1  0.50000000  0.50000000  0.50000000  1
  W  W0_0  1  0.25000000  0.25000000  0.25000000  1
  W  W0_1  1  0.25000000  0.25000000  0.75000000  1
  W  W0_2  1  0.25000000  0.75000000  0.25000000  1
  W  W0_3  1  0.25000000  0.75000000  0.75000000  1
  W  W0_4  1  0.75000000  0.25000000  0.25000000  1
  W  W0_5  1  0.75000000  0.25000000  0.75000000  1
  W  W0_6  1  0.75000000  0.75000000  0.25000000  1
  W  W0_7  1  0.75000000  0.75000000  0.75000000  1
loop_
_geom_bond_atom_site_label_1
_geom_bond_atom_site_label_2
_geom_bond_distance
_geom_bond_site_symmetry_2
V0_0 W0_1 2.635979 1_554
V0_0 W0_7 2.635979 1_444
V0_0 W0_6 2.635979 1_445
V0_0 W0_0 2.635979 1_555
V0_0 V0_4 2.704256 1_555
V0_0 V0_2 2.704256 1_555
V0_0 V0_2 2.704256 1_545
V0_0 V0_4 2.704256 1_455
V0_1 W0_1 2.635979 1_655
V0_1 W0_7 2.635979 1_545
V0_1 W0_6 2.635979 1_545
V0_1 W0_0 2.635979 1_655
V0_1 V0_5 2.704256 1_655
V0_1 V0_3 2.704256 1_555
V0_1 V0_5 2.704256 1_555
V0_1 V0_3 2.704256 1_545
V0_2 W0_5 2.635979 1_454
V0_2 W0_3 2.635979 1_554
V0_2 W0_4 2.635979 1_455
V0_2 W0_2 2.635979 1_555
V0_2 V0_6 2.704256 1_555
V0_2 V0_6 2.704256 1_455
V0_3 W0_3 2.635979 1_655
V0_3 W0_5 2.635979 1_555
V0_3 W0_2 2.635979 1_655
V0_3 W0_4 2.635979 1_555
V0_3 V0_7 2.704256 1_655
V0_3 V0_7 2.704256 1_555
V0_4 W0_5 2.635979 1_554
V0_4 W0_3 2.635979 1_544
V0_4 W0_4 2.635979 1_555
V0_4 W0_2 2.635979 1_545
V0_4 V0_6 2.704256 1_555
V0_4 V0_6 2.704256 1_545
V0_5 W0_2 2.635979 1_545
V0_5 W0_4 2.635979 1_555
V0_5 W0_3 2.635979 1_545
V0_5 W0_5 2.635979 1_555
V0_5 V0_7 2.704256 1_555
V0_5 V0_7 2.704256 1_545
V0_6 W0_1 2.635979 1_554
V0_6 W0_7 2.635979 1_554
V0_6 W0_0 2.635979 1_555
V0_6 W0_6 2.635979 1_555
V0_7 W0_1 2.635979 1_555
V0_7 W0_7 2.635979 1_555
V0_7 W0_0 2.635979 1_555
V0_7 W0_6 2.635979 1_555
W0_0 W0_4 2.704256 1_555
W0_0 W0_2 2.704256 1_545
W0_0 W0_4 2.704256 1_455
W0_0 W0_2 2.704256 1_555
W0_1 W0_5 2.704256 1_555
W0_1 W0_3 2.704256 1_555
W0_1 W0_3 2.704256 1_545
W0_1 W0_5 2.704256 1_455
W0_2 W0_6 2.704256 1_455
W0_2 W0_6 2.704256 1_555
W0_3 W0_7 2.704256 1_555
W0_3 W0_7 2.704256 1_455
W0_4 W0_6 2.704256 1_555
W0_4 W0_6 2.704256 1_545
W0_5 W0_7 2.704256 1_555
W0_5 W0_7 2.704256 1_545
