# generated using pymatgen
data_ZnPH5O6
_symmetry_space_group_name_H-M   'P 1'
_cell_length_a   8.41883145
_cell_length_b   9.29786657
_cell_length_c   26.01601434
_cell_angle_alpha   90.00000000
_cell_angle_beta   90.00000000
_cell_angle_gamma   90.00000000
_symmetry_Int_Tables_number   1
_chemical_formula_structural   ZnPH5O6
_chemical_formula_sum   'Zn16 P16 H80 O96'
_cell_volume   2036.46001617
_cell_formula_units_Z   16
loop_
 _symmetry_equiv_pos_site_id
 _symmetry_equiv_pos_as_xyz
  1  'x, y, z'
loop_
 _atom_site_type_symbol
 _atom_site_label
 _atom_site_symmetry_multiplicity
 _atom_site_fract_x
 _atom_site_fract_y
 _atom_site_fract_z
 _atom_site_occupancy
  Zn  Zn0  1  0.36112291  0.03355236  0.54350307  1
  Zn  Zn1  1  0.13887709  0.53355236  0.95649693  1
  Zn  Zn2  1  0.63887709  0.96644764  0.04350307  1
  Zn  Zn3  1  0.86112291  0.46644764  0.45649693  1
  Zn  Zn4  1  0.63887709  0.96644764  0.45649693  1
  Zn  Zn5  1  0.86112291  0.46644764  0.04350307  1
  Zn  Zn6  1  0.36112291  0.03355236  0.95649693  1
  Zn  Zn7  1  0.13887709  0.53355236  0.54350307  1
  Zn  Zn8  1  -0.00000000  -0.00000000  0.50000000  1
  Zn  Zn9  1  0.50000000  0.50000000  -0.00000000  1
  Zn  Zn10  1  -0.00000000  -0.00000000  -0.00000000  1
  Zn  Zn11  1  0.50000000  0.50000000  0.50000000  1
  Zn  Zn12  1  0.94922206  0.49569105  0.25000000  1
  Zn  Zn13  1  0.55077794  0.99569105  0.25000000  1
  Zn  Zn14  1  0.05077794  0.50430895  0.75000000  1
  Zn  Zn15  1  0.44922206  0.00430895  0.75000000  1
  P  P0  1  0.19979516  0.27479326  0.46267477  1
  P  P1  1  0.30020484  0.77479326  0.03732523  1
  P  P2  1  0.80020484  0.72520674  0.96267477  1
  P  P3  1  0.69979516  0.22520674  0.53732523  1
  P  P4  1  0.80020484  0.72520674  0.53732523  1
  P  P5  1  0.69979516  0.22520674  0.96267477  1
  P  P6  1  0.19979516  0.27479326  0.03732523  1
  P  P7  1  0.30020484  0.77479326  0.46267477  1
  P  P8  1  0.94368588  0.18364502  0.39389406  1
  P  P9  1  0.55631412  0.68364502  0.10610594  1
  P  P10  1  0.05631412  0.81635498  0.89389406  1
  P  P11  1  0.44368588  0.31635498  0.60610594  1
  P  P12  1  0.05631412  0.81635498  0.60610594  1
  P  P13  1  0.44368588  0.31635498  0.89389406  1
  P  P14  1  0.94368588  0.18364502  0.10610594  1
  P  P15  1  0.55631412  0.68364502  0.39389406  1
  H  H0  1  0.52289476  0.80008135  0.57341613  1
  H  H1  1  0.97710524  0.30008135  0.92658387  1
  H  H2  1  0.47710524  0.19991865  0.07341613  1
  H  H3  1  0.02289476  0.69991865  0.42658387  1
  H  H4  1  0.47710524  0.19991865  0.42658387  1
  H  H5  1  0.02289476  0.69991865  0.07341613  1
  H  H6  1  0.52289476  0.80008135  0.92658387  1
  H  H7  1  0.97710524  0.30008135  0.57341613  1
  H  H8  1  0.35585098  0.80316323  0.59914329  1
  H  H9  1  0.14414902  0.30316323  0.90085671  1
  H  H10  1  0.64414902  0.19683677  0.09914329  1
  H  H11  1  0.85585098  0.69683677  0.40085671  1
  H  H12  1  0.64414902  0.19683677  0.40085671  1
  H  H13  1  0.85585098  0.69683677  0.09914329  1
  H  H14  1  0.35585098  0.80316323  0.90085671  1
  H  H15  1  0.14414902  0.30316323  0.59914329  1
  H  H16  1  0.92040341  0.77953297  0.22058803  1
  H  H17  1  0.57959659  0.27953297  0.27941197  1
  H  H18  1  0.07959659  0.22046703  0.72058803  1
  H  H19  1  0.42040341  0.72046703  0.77941197  1
  H  H20  1  0.07959659  0.22046703  0.77941197  1
  H  H21  1  0.42040341  0.72046703  0.72058803  1
  H  H22  1  0.92040341  0.77953297  0.27941197  1
  H  H23  1  0.57959659  0.27953297  0.22058803  1
  H  H24  1  0.00336179  0.22300931  0.28059955  1
  H  H25  1  0.49663821  0.72300931  0.21940045  1
  H  H26  1  0.99663821  0.77699069  0.78059955  1
  H  H27  1  0.50336179  0.27699069  0.71940045  1
  H  H28  1  0.99663821  0.77699069  0.71940045  1
  H  H29  1  0.50336179  0.27699069  0.78059955  1
  H  H30  1  0.00336179  0.22300931  0.21940045  1
  H  H31  1  0.49663821  0.72300931  0.28059955  1
  H  H32  1  0.69374977  0.52655036  0.31793580  1
  H  H33  1  0.80625023  0.02655036  0.18206420  1
  H  H34  1  0.30625023  0.47344964  0.81793580  1
  H  H35  1  0.19374977  0.97344964  0.68206420  1
  H  H36  1  0.30625023  0.47344964  0.68206420  1
  H  H37  1  0.19374977  0.97344964  0.81793580  1
  H  H38  1  0.69374977  0.52655036  0.18206420  1
  H  H39  1  0.80625023  0.02655036  0.31793580  1
  H  H40  1  0.80767378  0.40557501  0.34027570  1
  H  H41  1  0.69232622  0.90557501  0.15972430  1
  H  H42  1  0.19232622  0.59442499  0.84027570  1
  H  H43  1  0.30767378  0.09442499  0.65972430  1
  H  H44  1  0.19232622  0.59442499  0.65972430  1
  H  H45  1  0.30767378  0.09442499  0.84027570  1
  H  H46  1  0.80767378  0.40557501  0.15972430  1
  H  H47  1  0.69232622  0.90557501  0.34027570  1
  H  H48  1  0.05167833  0.55630912  0.34529834  1
  H  H49  1  0.44832167  0.05630912  0.15470166  1
  H  H50  1  0.94832167  0.44369088  0.84529834  1
  H  H51  1  0.55167833  0.94369088  0.65470166  1
  H  H52  1  0.94832167  0.44369088  0.65470166  1
  H  H53  1  0.55167833  0.94369088  0.84529834  1
  H  H54  1  0.05167833  0.55630912  0.15470166  1
  H  H55  1  0.44832167  0.05630912  0.34529834  1
  H  H56  1  0.20432420  0.48648954  0.31789523  1
  H  H57  1  0.29567580  0.98648954  0.18210477  1
  H  H58  1  0.79567580  0.51351046  0.81789523  1
  H  H59  1  0.70432420  0.01351046  0.68210477  1
  H  H60  1  0.79567580  0.51351046  0.68210477  1
  H  H61  1  0.70432420  0.01351046  0.81789523  1
  H  H62  1  0.20432420  0.48648954  0.18210477  1
  H  H63  1  0.29567580  0.98648954  0.31789523  1
  H  H64  1  0.40808405  0.40859156  0.35641846  1
  H  H65  1  0.09191595  0.90859156  0.14358154  1
  H  H66  1  0.59191595  0.59140844  0.85641846  1
  H  H67  1  0.90808405  0.09140844  0.64358154  1
  H  H68  1  0.59191595  0.59140844  0.64358154  1
  H  H69  1  0.90808405  0.09140844  0.85641846  1
  H  H70  1  0.40808405  0.40859156  0.14358154  1
  H  H71  1  0.09191595  0.90859156  0.35641846  1
  H  H72  1  0.33164082  0.27314484  0.32996666  1
  H  H73  1  0.16835918  0.77314484  0.17003334  1
  H  H74  1  0.66835918  0.72685516  0.82996666  1
  H  H75  1  0.83164082  0.22685516  0.67003334  1
  H  H76  1  0.66835918  0.72685516  0.67003334  1
  H  H77  1  0.83164082  0.22685516  0.82996666  1
  H  H78  1  0.33164082  0.27314484  0.17003334  1
  H  H79  1  0.16835918  0.77314484  0.32996666  1
  O  O0  1  0.94833499  0.13008212  0.33936454  1
  O  O1  1  0.55166501  0.63008212  0.16063546  1
  O  O2  1  0.05166501  0.86991788  0.83936454  1
  O  O3  1  0.44833499  0.36991788  0.66063546  1
  O  O4  1  0.05166501  0.86991788  0.66063546  1
  O  O5  1  0.44833499  0.36991788  0.83936454  1
  O  O6  1  0.94833499  0.13008212  0.16063546  1
  O  O7  1  0.55166501  0.63008212  0.33936454  1
  O  O8  1  0.19275192  0.13906962  0.49687531  1
  O  O9  1  0.30724808  0.63906962  0.00312469  1
  O  O10  1  0.80724808  0.86093038  0.99687531  1
  O  O11  1  0.69275192  0.36093038  0.50312469  1
  O  O12  1  0.80724808  0.86093038  0.50312469  1
  O  O13  1  0.69275192  0.36093038  0.99687531  1
  O  O14  1  0.19275192  0.13906962  0.00312469  1
  O  O15  1  0.30724808  0.63906962  0.49687531  1
  O  O16  1  0.36885676  0.32471310  0.45283625  1
  O  O17  1  0.13114324  0.82471310  0.04716375  1
  O  O18  1  0.63114324  0.67528690  0.95283625  1
  O  O19  1  0.86885676  0.17528690  0.54716375  1
  O  O20  1  0.63114324  0.67528690  0.54716375  1
  O  O21  1  0.86885676  0.17528690  0.95283625  1
  O  O22  1  0.36885676  0.32471310  0.04716375  1
  O  O23  1  0.13114324  0.82471310  0.45283625  1
  O  O24  1  0.08949631  0.39562033  0.48191576  1
  O  O25  1  0.41050369  0.89562033  0.01808424  1
  O  O26  1  0.91050369  0.60437967  0.98191576  1
  O  O27  1  0.58949631  0.10437967  0.51808424  1
  O  O28  1  0.91050369  0.60437967  0.51808424  1
  O  O29  1  0.58949631  0.10437967  0.98191576  1
  O  O30  1  0.08949631  0.39562033  0.01808424  1
  O  O31  1  0.41050369  0.89562033  0.48191576  1
  O  O32  1  0.84169981  0.32212034  0.39876565  1
  O  O33  1  0.65830019  0.82212034  0.10123435  1
  O  O34  1  0.15830019  0.67787966  0.89876565  1
  O  O35  1  0.34169981  0.17787966  0.60123435  1
  O  O36  1  0.15830019  0.67787966  0.60123435  1
  O  O37  1  0.34169981  0.17787966  0.89876565  1
  O  O38  1  0.84169981  0.32212034  0.10123435  1
  O  O39  1  0.65830019  0.82212034  0.39876565  1
  O  O40  1  0.88965490  0.07253219  0.43445662  1
  O  O41  1  0.61034510  0.57253219  0.06554338  1
  O  O42  1  0.11034510  0.92746781  0.93445662  1
  O  O43  1  0.38965490  0.42746781  0.56554338  1
  O  O44  1  0.11034510  0.92746781  0.56554338  1
  O  O45  1  0.38965490  0.42746781  0.93445662  1
  O  O46  1  0.88965490  0.07253219  0.06554338  1
  O  O47  1  0.61034510  0.57253219  0.43445662  1
  O  O48  1  0.12739904  0.22688233  0.40748356  1
  O  O49  1  0.37260096  0.72688233  0.09251644  1
  O  O50  1  0.87260096  0.77311767  0.90748356  1
  O  O51  1  0.62739904  0.27311767  0.59251644  1
  O  O52  1  0.87260096  0.77311767  0.59251644  1
  O  O53  1  0.62739904  0.27311767  0.90748356  1
  O  O54  1  0.12739904  0.22688233  0.09251644  1
  O  O55  1  0.37260096  0.72688233  0.40748356  1
  O  O56  1  0.44814203  0.86620773  0.59293756  1
  O  O57  1  0.05185797  0.36620773  0.90706244  1
  O  O58  1  0.55185797  0.13379227  0.09293756  1
  O  O59  1  0.94814203  0.63379227  0.40706244  1
  O  O60  1  0.55185797  0.13379227  0.40706244  1
  O  O61  1  0.94814203  0.63379227  0.09293756  1
  O  O62  1  0.44814203  0.86620773  0.90706244  1
  O  O63  1  0.05185797  0.36620773  0.59293756  1
  O  O64  1  0.89061487  0.71971849  0.25000000  1
  O  O65  1  0.60938513  0.21971849  0.25000000  1
  O  O66  1  0.10938513  0.28028151  0.75000000  1
  O  O67  1  0.39061487  0.78028151  0.75000000  1
  O  O68  1  0.03439863  0.28031521  0.25000000  1
  O  O69  1  0.46560137  0.78031521  0.25000000  1
  O  O70  1  0.96560137  0.71968479  0.75000000  1
  O  O71  1  0.53439863  0.21968479  0.75000000  1
  O  O72  1  0.77814051  0.45565145  0.30797301  1
  O  O73  1  0.72185949  0.95565145  0.19202699  1
  O  O74  1  0.22185949  0.54434855  0.80797301  1
  O  O75  1  0.27814051  0.04434855  0.69202699  1
  O  O76  1  0.22185949  0.54434855  0.69202699  1
  O  O77  1  0.27814051  0.04434855  0.80797301  1
  O  O78  1  0.77814051  0.45565145  0.19202699  1
  O  O79  1  0.72185949  0.95565145  0.30797301  1
  O  O80  1  0.11278385  0.55456676  0.31301302  1
  O  O81  1  0.38721615  0.05456676  0.18698698  1
  O  O82  1  0.88721615  0.44543324  0.81301302  1
  O  O83  1  0.61278385  0.94543324  0.68698698  1
  O  O84  1  0.88721615  0.44543324  0.68698698  1
  O  O85  1  0.61278385  0.94543324  0.81301302  1
  O  O86  1  0.11278385  0.55456676  0.18698698  1
  O  O87  1  0.38721615  0.05456676  0.31301302  1
  O  O88  1  0.36116226  0.37425197  0.32449955  1
  O  O89  1  0.13883774  0.87425197  0.17550045  1
  O  O90  1  0.63883774  0.62574803  0.82449955  1
  O  O91  1  0.86116226  0.12574803  0.67550045  1
  O  O92  1  0.63883774  0.62574803  0.67550045  1
  O  O93  1  0.86116226  0.12574803  0.82449955  1
  O  O94  1  0.36116226  0.37425197  0.17550045  1
  O  O95  1  0.13883774  0.87425197  0.32449955  1
loop_
_geom_bond_atom_site_label_1
_geom_bond_atom_site_label_2
_geom_bond_distance
_geom_bond_site_symmetry_2
H0 O56 1.015879 1_555
H0 O20 1.625831 1_555
H1 O57 1.015879 1_655
H1 O21 1.625831 1_555
H2 O58 1.015879 1_555
H2 O22 1.625831 1_555
H3 O59 1.015879 1_455
H3 O23 1.625831 1_555
H4 O60 1.015879 1_555
H4 O16 1.625831 1_555
H5 O61 1.015879 1_455
H5 O17 1.625831 1_555
H6 O62 1.015879 1_555
H6 O18 1.625831 1_555
H7 O63 1.015879 1_655
H7 O19 1.625831 1_555
H8 O56 0.986597 1_555
H9 O57 0.986597 1_555
H10 O58 0.986597 1_555
H11 O59 0.986597 1_555
H12 O60 0.986597 1_555
H13 O61 0.986597 1_555
H14 O62 0.986597 1_555
H15 O63 0.986597 1_555
H16 O64 0.978620 1_555
H17 O65 0.978620 1_555
H18 O66 0.978620 1_555
H19 O67 0.978620 1_555
H20 O66 0.978620 1_555
H21 O67 0.978620 1_555
H22 O64 0.978620 1_555
H23 O65 0.978620 1_555
H24 O68 0.992933 1_555
H25 O69 0.992933 1_555
H26 O70 0.992933 1_555
H27 O71 0.992933 1_555
H28 O70 0.992933 1_555
H29 O71 0.992933 1_555
H30 O68 0.992933 1_555
H31 O69 0.992933 1_555
H32 O72 1.003248 1_555
H32 O7 1.633495 1_555
H33 O73 1.003248 1_545
H33 O6 1.633495 1_555
H34 O74 1.003248 1_555
H34 O5 1.633495 1_555
H35 O75 1.003248 1_565
H35 O4 1.633495 1_555
H36 O76 1.003248 1_555
H36 O3 1.633495 1_555
H37 O77 1.003248 1_565
H37 O2 1.633495 1_555
H38 O78 1.003248 1_555
H38 O1 1.633495 1_555
H39 O79 1.003248 1_545
H39 O0 1.633495 1_555
H40 O72 0.992400 1_555
H40 O32 1.731951 1_555
H41 O73 0.992400 1_555
H41 O33 1.731951 1_555
H42 O74 0.992400 1_555
H42 O34 1.731951 1_555
H43 O75 0.992400 1_555
H43 O35 1.731951 1_555
H44 O76 0.992400 1_555
H44 O36 1.731951 1_555
H45 O77 0.992400 1_555
H45 O37 1.731951 1_555
H46 O78 0.992400 1_555
H46 O38 1.731951 1_555
H47 O79 0.992400 1_555
H47 O39 1.731951 1_555
H48 O80 0.985088 1_555
H49 O81 0.985088 1_555
H50 O82 0.985088 1_555
H51 O83 0.985088 1_555
H52 O84 0.985088 1_555
H53 O85 0.985088 1_555
H54 O86 0.985088 1_555
H55 O87 0.985088 1_555
H56 O80 1.005340 1_555
H57 O81 1.005340 1_565
H58 O82 1.005340 1_555
H59 O83 1.005340 1_545
H60 O84 1.005340 1_555
H61 O85 1.005340 1_545
H62 O86 1.005340 1_555
H63 O87 1.005340 1_565
H64 O88 0.973426 1_555
H65 O89 0.973426 1_555
H66 O90 0.973426 1_555
H67 O91 0.973426 1_555
H68 O92 0.973426 1_555
H69 O93 0.973426 1_555
H70 O94 0.973426 1_555
H71 O95 0.973426 1_555
H72 O88 0.982727 1_555
H73 O89 0.982727 1_555
H74 O90 0.982727 1_555
H75 O91 0.982727 1_555
H76 O92 0.982727 1_555
H77 O93 0.982727 1_555
H78 O94 0.982727 1_555
H79 O95 0.982727 1_555
O0 P8 1.504027 1_555
O1 P9 1.504027 1_555
O2 P10 1.504027 1_555
O3 P11 1.504027 1_555
O4 P12 1.504027 1_555
O5 P13 1.504027 1_555
O6 P14 1.504027 1_555
O7 P15 1.504027 1_555
O8 P0 1.545214 1_555
O8 Zn8 2.076510 1_555
O8 Zn0 2.107921 1_555
O9 P1 1.545214 1_555
O9 Zn9 2.076510 1_555
O9 Zn1 2.107921 1_554
O10 P2 1.545214 1_555
O10 Zn10 2.076510 1_666
O10 Zn2 2.107921 1_556
O11 P3 1.545214 1_555
O11 Zn11 2.076510 1_555
O11 Zn3 2.107921 1_555
O12 P4 1.545214 1_555
O12 Zn8 2.076510 1_665
O12 Zn4 2.107921 1_555
O13 P5 1.545214 1_555
O13 Zn9 2.076510 1_556
O13 Zn5 2.107921 1_556
O14 P6 1.545214 1_555
O14 Zn10 2.076510 1_555
O14 Zn6 2.107921 1_554
O15 P7 1.545214 1_555
O15 Zn11 2.076510 1_555
O15 Zn7 2.107921 1_555
O16 P0 1.518794 1_555
O16 Zn11 2.319648 1_555
O17 P1 1.518794 1_555
O17 Zn10 2.319648 1_565
O18 P2 1.518794 1_555
O18 Zn9 2.319648 1_556
O19 P3 1.518794 1_555
O19 Zn8 2.319648 1_655
O20 P4 1.518794 1_555
O20 Zn11 2.319648 1_555
O21 P5 1.518794 1_555
O21 Zn10 2.319648 1_656
O22 P6 1.518794 1_555
O22 Zn9 2.319648 1_555
O23 P7 1.518794 1_555
O23 Zn8 2.319648 1_565
O24 P0 1.541088 1_555
O24 Zn7 2.093990 1_555
O24 Zn3 2.137177 1_455
O25 P1 1.541088 1_555
O25 Zn6 2.093990 1_564
O25 Zn2 2.137177 1_555
O26 P2 1.541088 1_555
O26 Zn5 2.093990 1_556
O26 Zn1 2.137177 1_655
O27 P3 1.541088 1_555
O27 Zn4 2.093990 1_545
O27 Zn0 2.137177 1_555
O28 P4 1.541088 1_555
O28 Zn3 2.093990 1_555
O28 Zn7 2.137177 1_655
O29 P5 1.541088 1_555
O29 Zn2 2.093990 1_546
O29 Zn6 2.137177 1_555
O30 P6 1.541088 1_555
O30 Zn1 2.093990 1_554
O30 Zn5 2.137177 1_455
O31 P7 1.541088 1_555
O31 Zn0 2.093990 1_565
O31 Zn4 2.137177 1_555
O32 P8 1.552734 1_555
O32 Zn3 2.020730 1_555
O33 P9 1.552734 1_555
O33 Zn2 2.020730 1_555
O34 P10 1.552734 1_555
O34 Zn1 2.020730 1_555
O35 P11 1.552734 1_555
O35 Zn0 2.020730 1_555
O36 P12 1.552734 1_555
O36 Zn7 2.020730 1_555
O37 P13 1.552734 1_555
O37 Zn6 2.020730 1_555
O38 P14 1.552734 1_555
O38 Zn5 2.020730 1_555
O39 P15 1.552734 1_555
O39 Zn4 2.020730 1_555
O40 P8 1.545265 1_555
O40 Zn8 2.055587 1_655
O40 Zn4 2.399812 1_545
O41 P9 1.545265 1_555
O41 Zn9 2.055587 1_555
O41 Zn5 2.399812 1_555
O42 P10 1.545265 1_555
O42 Zn10 2.055587 1_566
O42 Zn6 2.399812 1_565
O43 P11 1.545265 1_555
O43 Zn11 2.055587 1_555
O43 Zn7 2.399812 1_555
O44 P12 1.545265 1_555
O44 Zn8 2.055587 1_565
O44 Zn0 2.399812 1_565
O45 P13 1.545265 1_555
O45 Zn9 2.055587 1_556
O45 Zn1 2.399812 1_555
O46 P14 1.545265 1_555
O46 Zn10 2.055587 1_655
O46 Zn2 2.399812 1_545
O47 P15 1.545265 1_555
O47 Zn11 2.055587 1_555
O47 Zn3 2.399812 1_555
O48 P0 1.622221 1_555
O48 P8 1.636685 1_455
O49 P1 1.622221 1_555
O49 P9 1.636685 1_555
O50 P2 1.622221 1_555
O50 P10 1.636685 1_655
O51 P3 1.622221 1_555
O51 P11 1.636685 1_555
O52 P4 1.622221 1_555
O52 P12 1.636685 1_655
O53 P5 1.622221 1_555
O53 P13 1.636685 1_555
O54 P6 1.622221 1_555
O54 P14 1.636685 1_455
O55 P7 1.622221 1_555
O55 P15 1.636685 1_555
O56 Zn0 2.147487 1_565
O57 Zn1 2.147487 1_555
O58 Zn2 2.147487 1_545
O59 Zn3 2.147487 1_555
O60 Zn4 2.147487 1_545
O61 Zn5 2.147487 1_555
O62 Zn6 2.147487 1_565
O63 Zn7 2.147487 1_555
O64 Zn12 2.140617 1_555
O65 Zn13 2.140617 1_545
O66 Zn14 2.140617 1_555
O67 Zn15 2.140617 1_565
O68 Zn12 2.127055 1_455
O69 Zn13 2.127055 1_555
O70 Zn14 2.127055 1_655
O71 Zn15 2.127055 1_555
O72 Zn12 2.118449 1_555
O73 Zn13 2.118449 1_555
O74 Zn14 2.118449 1_555
O75 Zn15 2.118449 1_555
O76 Zn14 2.118449 1_555
O77 Zn15 2.118449 1_555
O78 Zn12 2.118449 1_555
O79 Zn13 2.118449 1_555
O80 Zn12 2.209809 1_455
O81 Zn13 2.209809 1_545
O82 Zn14 2.209809 1_655
O83 Zn15 2.209809 1_565
O84 Zn14 2.209809 1_655
O85 Zn15 2.209809 1_565
O86 Zn12 2.209809 1_455
O87 Zn13 2.209809 1_545
