# generated using pymatgen
data_Li2CoO3
_symmetry_space_group_name_H-M   'P 1'
_cell_length_a   4.87164337
_cell_length_b   8.34274638
_cell_length_c   4.94526626
_cell_angle_alpha   90.00280577
_cell_angle_beta   70.25026370
_cell_angle_gamma   90.00163706
_symmetry_Int_Tables_number   1
_chemical_formula_structural   Li2CoO3
_chemical_formula_sum   'Li8 Co4 O12'
_cell_volume   189.16717459
_cell_formula_units_Z   4
loop_
 _symmetry_equiv_pos_site_id
 _symmetry_equiv_pos_as_xyz
  1  'x, y, z'
loop_
 _atom_site_type_symbol
 _atom_site_label
 _atom_site_symmetry_multiplicity
 _atom_site_fract_x
 _atom_site_fract_y
 _atom_site_fract_z
 _atom_site_occupancy
  Li  Li0  1  0.50001152  0.33334399  0.50001224  1
  Li  Li1  1  0.00002069  0.83332443  0.50001615  1
  Li  Li2  1  0.50018042  0.83463189  1.00006043  1
  Li  Li3  1  0.99985375  0.33200671  -0.00019654  1
  Li  Li4  1  0.50328345  0.67448143  0.49904287  1
  Li  Li5  1  0.99672470  0.17467215  0.50093377  1
  Li  Li6  1  0.49672147  0.99201384  0.50096600  1
  Li  Li7  1  0.00332304  0.49228825  0.49896050  1
  Co  Co0  1  0.99805616  0.00394140  0.00253582  1
  Co  Co1  1  0.00190001  0.66254523  0.99747536  1
  Co  Co2  1  0.50187727  0.50409735  0.99746321  1
  Co  Co3  1  0.49802545  0.16271830  0.00253704  1
  O  O0  1  0.78098030  0.83295067  0.22561218  1
  O  O1  1  0.28096215  0.33370733  0.22554930  1
  O  O2  1  0.21906506  0.83372483  0.77447791  1
  O  O3  1  0.71902192  0.33293060  0.77444301  1
  O  O4  1  0.74755517  0.15282814  0.22598127  1
  O  O5  1  0.24889811  0.65227701  0.22171392  1
  O  O6  1  0.24757038  0.01384822  0.22597549  1
  O  O7  1  0.74887993  0.51435815  0.22170873  1
  O  O8  1  0.25125684  0.15210315  0.77817465  1
  O  O9  1  0.75228777  0.65293212  0.77420824  1
  O  O10  1  0.75128122  0.01458154  0.77815888  1
  O  O11  1  0.25226521  0.51369227  0.77419357  1
loop_
_geom_bond_atom_site_label_1
_geom_bond_atom_site_label_2
_geom_bond_distance
_geom_bond_site_symmetry_2
Li0 O3 1.989665 1_555
Li0 O1 1.989947 1_555
Li0 O11 2.110190 1_555
Li0 O4 2.110503 1_555
Li0 O7 2.125336 1_555
Li0 O8 2.126168 1_555
Li1 O0 1.989662 1_455
Li1 O2 1.989924 1_555
Li1 O9 2.110498 1_455
Li1 O6 2.110627 1_565
Li1 O5 2.125499 1_555
Li1 O10 2.126148 1_465
Li2 O10 2.011784 1_565
Li2 O6 2.017142 1_566
Li2 O5 2.026761 1_556
Li2 O9 2.031413 1_555
Li2 O0 2.036382 1_556
Li2 O2 2.037782 1_555
Li3 O8 2.011635 1_654
Li3 O4 2.016749 1_555
Li3 O7 2.026498 1_555
Li3 O11 2.031561 1_654
Li3 O3 2.035748 1_554
Li3 O1 2.038413 1_655
Li4 O7 1.996991 1_555
Li4 O11 2.005458 1_555
Li4 O0 2.042118 1_555
Li4 O2 2.064651 1_555
Li4 O9 2.114506 1_555
Li4 O5 2.144678 1_555
Li5 O10 1.996318 1_555
Li5 O6 2.004840 1_655
Li5 O3 2.041127 1_555
Li5 O1 2.063502 1_655
Li5 O4 2.114454 1_555
Li5 O8 2.145165 1_655
Li6 O8 1.996265 1_565
Li6 O4 2.004869 1_565
Li6 O2 2.041234 1_555
Li6 O0 2.063598 1_555
Li6 O6 2.114551 1_565
Li6 O10 2.145055 1_565
Li7 O5 1.996037 1_555
Li7 O9 2.004863 1_455
Li7 O1 2.042520 1_555
Li7 O3 2.065582 1_455
Li7 O11 2.114427 1_555
Li7 O7 2.144504 1_455
Co0 O4 1.828049 1_555
Co0 O8 1.831822 1_654
Co0 O0 1.892606 1_545
Co0 O10 1.893654 1_554
Co0 O6 1.900801 1_655
Co0 O2 1.904489 1_644
Co1 O11 1.827244 1_555
Co1 O7 1.831314 1_456
Co1 O2 1.893798 1_555
Co1 O5 1.893869 1_556
Co1 O9 1.900415 1_455
Co1 O0 1.905662 1_456
Co2 O9 1.827219 1_555
Co2 O5 1.831185 1_556
Co2 O3 1.893690 1_555
Co2 O7 1.893904 1_556
Co2 O11 1.900426 1_555
Co2 O1 1.905494 1_556
Co3 O6 1.827864 1_555
Co3 O10 1.831813 1_554
Co3 O1 1.892413 1_555
Co3 O8 1.893553 1_554
Co3 O4 1.900884 1_555
Co3 O3 1.904548 1_554
