# generated using pymatgen
data_Er3CrS6
_symmetry_space_group_name_H-M   'P 1'
_cell_length_a   3.72808102
_cell_length_b   13.18405806
_cell_length_c   15.86117842
_cell_angle_alpha   90.00000000
_cell_angle_beta   90.00000000
_cell_angle_gamma   90.00000000
_symmetry_Int_Tables_number   1
_chemical_formula_structural   Er3CrS6
_chemical_formula_sum   'Er12 Cr4 S24'
_cell_volume   779.59653359
_cell_formula_units_Z   4
loop_
 _symmetry_equiv_pos_site_id
 _symmetry_equiv_pos_as_xyz
  1  'x, y, z'
loop_
 _atom_site_type_symbol
 _atom_site_label
 _atom_site_symmetry_multiplicity
 _atom_site_fract_x
 _atom_site_fract_y
 _atom_site_fract_z
 _atom_site_occupancy
  Er  Er0  1  -0.00000000  0.24424999  0.59944133  1
  Er  Er1  1  0.00000000  0.75575001  0.40055867  1
  Er  Er2  1  0.50000000  0.74424999  0.90055867  1
  Er  Er3  1  0.50000000  0.25575001  0.09944133  1
  Er  Er4  1  0.50000000  0.18240259  0.85272365  1
  Er  Er5  1  0.50000000  0.81759741  0.14727635  1
  Er  Er6  1  -0.00000000  0.68240259  0.64727635  1
  Er  Er7  1  -0.00000000  0.31759741  0.35272365  1
  Er  Er8  1  0.50000000  0.95172905  0.72158699  1
  Er  Er9  1  0.50000000  0.04827095  0.27841301  1
  Er  Er10  1  0.00000000  0.45172905  0.77841301  1
  Er  Er11  1  0.00000000  0.54827095  0.22158699  1
  Cr  Cr0  1  0.00000000  -0.00000000  0.50000000  1
  Cr  Cr1  1  0.50000000  0.50000000  0.00000000  1
  Cr  Cr2  1  -0.00000000  -0.00000000  0.00000000  1
  Cr  Cr3  1  0.50000000  0.50000000  0.50000000  1
  S  S0  1  -0.00000000  0.18159524  0.97992621  1
  S  S1  1  -0.00000000  0.81840476  0.02007379  1
  S  S2  1  0.50000000  0.68159524  0.52007379  1
  S  S3  1  0.50000000  0.31840476  0.47992621  1
  S  S4  1  0.50000000  0.97924032  0.90168153  1
  S  S5  1  0.50000000  0.02075968  0.09831847  1
  S  S6  1  -0.00000000  0.47924032  0.59831847  1
  S  S7  1  0.00000000  0.52075968  0.40168153  1
  S  S8  1  -0.00000000  0.10492738  0.74764346  1
  S  S9  1  0.00000000  0.89507262  0.25235654  1
  S  S10  1  0.50000000  0.60492738  0.75235654  1
  S  S11  1  0.50000000  0.39507262  0.24764346  1
  S  S12  1  0.00000000  0.81204165  0.78977099  1
  S  S13  1  0.00000000  0.18795835  0.21022901  1
  S  S14  1  0.50000000  0.31204165  0.71022901  1
  S  S15  1  0.50000000  0.68795835  0.28977099  1
  S  S16  1  -0.00000000  0.41614188  0.07592934  1
  S  S17  1  -0.00000000  0.58385812  0.92407066  1
  S  S18  1  0.50000000  0.91614188  0.42407066  1
  S  S19  1  0.50000000  0.08385812  0.57592934  1
  S  S20  1  0.50000000  0.61886110  0.11005710  1
  S  S21  1  0.50000000  0.38113890  0.88994290  1
  S  S22  1  -0.00000000  0.11886110  0.38994290  1
  S  S23  1  0.00000000  0.88113890  0.61005710  1
loop_
_geom_bond_atom_site_label_1
_geom_bond_atom_site_label_2
_geom_bond_distance
_geom_bond_site_symmetry_2
Er0 S14 2.713172 1_455
Er0 S14 2.713172 1_555
Er0 S3 2.832659 1_555
Er0 S3 2.832659 1_455
Er0 S19 2.843470 1_555
Er0 S19 2.843470 1_455
Er0 S8 2.983216 1_555
Er0 S6 3.098177 1_555
Er1 S15 2.713172 1_555
Er1 S15 2.713172 1_455
Er1 S2 2.832659 1_555
Er1 S2 2.832659 1_455
Er1 S18 2.843470 1_555
Er1 S18 2.843470 1_455
Er1 S9 2.983216 1_555
Er1 S7 3.098177 1_555
Er2 S12 2.713172 1_555
Er2 S12 2.713172 1_655
Er2 S1 2.832659 1_556
Er2 S1 2.832659 1_656
Er2 S17 2.843470 1_555
Er2 S17 2.843470 1_655
Er2 S10 2.983216 1_555
Er2 S4 3.098177 1_555
Er3 S13 2.713172 1_555
Er3 S13 2.713172 1_655
Er3 S0 2.832659 1_654
Er3 S0 2.832659 1_554
Er3 S16 2.843470 1_555
Er3 S16 2.843470 1_655
Er3 S11 2.983216 1_555
Er3 S5 3.098177 1_555
Er4 S21 2.685832 1_555
Er4 S8 2.701084 1_555
Er4 S8 2.701084 1_655
Er4 S0 2.746889 1_555
Er4 S0 2.746889 1_655
Er4 S4 2.788795 1_545
Er4 S14 2.833630 1_555
Er5 S20 2.685832 1_555
Er5 S9 2.701084 1_555
Er5 S9 2.701084 1_655
Er5 S1 2.746889 1_555
Er5 S1 2.746889 1_655
Er5 S5 2.788795 1_565
Er5 S15 2.833630 1_555
Er6 S23 2.685832 1_555
Er6 S10 2.701084 1_455
Er6 S10 2.701084 1_555
Er6 S2 2.746889 1_455
Er6 S2 2.746889 1_555
Er6 S6 2.788795 1_555
Er6 S12 2.833630 1_555
Er7 S22 2.685832 1_555
Er7 S11 2.701084 1_455
Er7 S11 2.701084 1_555
Er7 S3 2.746889 1_455
Er7 S3 2.746889 1_555
Er7 S7 2.788795 1_555
Er7 S13 2.833630 1_555
Er8 S23 2.733154 1_555
Er8 S23 2.733154 1_655
Er8 S8 2.779379 1_565
Er8 S8 2.779379 1_665
Er8 S12 2.834767 1_555
Er8 S12 2.834767 1_655
Er8 S4 2.879447 1_555
Er8 S19 2.893449 1_565
Er9 S22 2.733154 1_555
Er9 S22 2.733154 1_655
Er9 S9 2.779379 1_545
Er9 S9 2.779379 1_645
Er9 S13 2.834767 1_555
Er9 S13 2.834767 1_655
Er9 S5 2.879447 1_555
Er9 S18 2.893449 1_545
Er10 S21 2.733154 1_455
Er10 S21 2.733154 1_555
Er10 S10 2.779379 1_555
Er10 S10 2.779379 1_455
Er10 S14 2.834767 1_555
Er10 S14 2.834767 1_455
Er10 S6 2.879447 1_555
Er10 S17 2.893449 1_555
Er11 S20 2.733154 1_455
Er11 S20 2.733154 1_555
Er11 S11 2.779379 1_555
Er11 S11 2.779379 1_455
Er11 S15 2.834767 1_455
Er11 S15 2.834767 1_555
Er11 S7 2.879447 1_555
Er11 S16 2.893449 1_555
Cr0 S22 2.345838 1_555
Cr0 S23 2.345838 1_545
Cr0 S18 2.479392 1_445
Cr0 S18 2.479392 1_545
Cr0 S19 2.479392 1_455
Cr0 S19 2.479392 1_555
Cr1 S20 2.345838 1_555
Cr1 S21 2.345838 1_554
Cr1 S17 2.479392 1_654
Cr1 S16 2.479392 1_555
Cr1 S17 2.479392 1_554
Cr1 S16 2.479392 1_655
Cr2 S1 2.415241 1_545
Cr2 S0 2.415241 1_554
Cr2 S4 2.445696 1_444
Cr2 S4 2.445696 1_544
Cr2 S5 2.445696 1_555
Cr2 S5 2.445696 1_455
Cr3 S3 2.415241 1_555
Cr3 S2 2.415241 1_555
Cr3 S7 2.445696 1_555
Cr3 S7 2.445696 1_655
Cr3 S6 2.445696 1_655
Cr3 S6 2.445696 1_555
