# generated using pymatgen
data_CaFeAsF
_symmetry_space_group_name_H-M   'P 1'
_cell_length_a   4.05656000
_cell_length_b   4.05656000
_cell_length_c   8.89893900
_cell_angle_alpha   90.00000000
_cell_angle_beta   90.00000000
_cell_angle_gamma   90.00000000
_symmetry_Int_Tables_number   1
_chemical_formula_structural   CaFeAsF
_chemical_formula_sum   'Ca2 Fe2 As2 F2'
_cell_volume   146.43808392
_cell_formula_units_Z   2
loop_
 _symmetry_equiv_pos_site_id
 _symmetry_equiv_pos_as_xyz
  1  'x, y, z'
loop_
 _atom_site_type_symbol
 _atom_site_label
 _atom_site_symmetry_multiplicity
 _atom_site_fract_x
 _atom_site_fract_y
 _atom_site_fract_z
 _atom_site_occupancy
  Ca  Ca0  1  0.50000000  0.00000000  0.85555300  1
  Ca  Ca1  1  0.00000000  0.50000000  0.14444700  1
  Fe  Fe0  1  0.00000000  0.00000000  0.50000000  1
  Fe  Fe1  1  0.50000000  0.50000000  0.50000000  1
  As  As0  1  0.50000000  0.00000000  0.32254100  1
  As  As1  1  0.00000000  0.50000000  0.67745900  1
  F  F0  1  0.00000000  0.00000000  0.00000000  1
  F  F1  1  0.50000000  0.50000000  0.00000000  1
loop_
_geom_bond_atom_site_label_1
_geom_bond_atom_site_label_2
_geom_bond_distance
_geom_bond_site_symmetry_2
Ca0 F0 2.401299 1_656
Ca0 F1 2.401299 1_556
Ca0 F1 2.401299 1_546
Ca0 F0 2.401299 1_556
Ca1 F1 2.401299 1_455
Ca1 F1 2.401299 1_555
Ca1 F0 2.401299 1_565
Ca1 F0 2.401299 1_555
As0 Fe0 2.570561 1_555
As0 Fe0 2.570561 1_655
As0 Fe1 2.570561 1_555
As0 Fe1 2.570561 1_545
As0 Ca1 3.277130 1_655
As0 Ca1 3.277130 1_545
As0 Ca1 3.277130 1_645
As0 Ca1 3.277130 1_555
As1 Fe1 2.570561 1_455
As1 Fe0 2.570561 1_555
As1 Fe0 2.570561 1_565
As1 Fe1 2.570561 1_555
As1 Ca0 3.277130 1_565
As1 Ca0 3.277130 1_455
As1 Ca0 3.277130 1_555
As1 Ca0 3.277130 1_465
