# generated using pymatgen
data_Te2MoWSeS
_symmetry_space_group_name_H-M   'P 1'
_cell_length_a   3.39553785
_cell_length_b   3.39553785
_cell_length_c   39.86020600
_cell_angle_alpha   90.00000000
_cell_angle_beta   90.00000000
_cell_angle_gamma   119.99999717
_symmetry_Int_Tables_number   1
_chemical_formula_structural   Te2MoWSeS
_chemical_formula_sum   'Te4 Mo2 W2 Se2 S2'
_cell_volume   398.00390757
_cell_formula_units_Z   2
loop_
 _symmetry_equiv_pos_site_id
 _symmetry_equiv_pos_as_xyz
  1  'x, y, z'
loop_
 _atom_site_type_symbol
 _atom_site_label
 _atom_site_symmetry_multiplicity
 _atom_site_fract_x
 _atom_site_fract_y
 _atom_site_fract_z
 _atom_site_occupancy
  Te  Te0  1  0.00000000  0.00000000  0.32801400  1
  Te  Te1  1  0.33333300  0.66666700  0.42322400  1
  Te  Te2  1  0.33333300  0.66666700  0.51729800  1
  Te  Te3  1  0.00000000  0.00000000  0.23392900  1
  Mo  Mo0  1  0.00000000  0.00000000  0.47026500  1
  Mo  Mo1  1  0.33333300  0.66666700  0.28094900  1
  W  W0  1  0.00000000  0.00000000  0.09387900  1
  W  W1  1  0.33333300  0.66666700  0.65781600  1
  Se  Se0  1  0.00000000  0.00000000  0.69937900  1
  Se  Se1  1  0.00000000  0.00000000  0.61623700  1
  S  S0  1  0.33333300  0.66666700  0.05606300  1
  S  S1  1  0.33333300  0.66666700  0.13169500  1
loop_
_geom_bond_atom_site_label_1
_geom_bond_atom_site_label_2
_geom_bond_distance
_geom_bond_site_symmetry_2
Mo0 Te2 2.712543 1_545
Mo0 Te2 2.712545 1_445
Mo0 Te2 2.712545 1_555
Mo0 Te1 2.712763 1_545
Mo0 Te1 2.712765 1_445
Mo0 Te1 2.712765 1_555
Mo1 Te3 2.712184 1_565
Mo1 Te3 2.712187 1_665
Mo1 Te3 2.712187 1_555
Mo1 Te0 2.713424 1_565
Mo1 Te0 2.713426 1_665
Mo1 Te0 2.713426 1_555
Se0 W1 2.566691 1_545
Se0 W1 2.566694 1_445
Se0 W1 2.566694 1_555
Se1 W1 2.567103 1_545
Se1 W1 2.567105 1_555
Se1 W1 2.567105 1_445
S0 W0 2.472920 1_565
S0 W0 2.472922 1_665
S0 W0 2.472922 1_555
S1 W0 2.472920 1_565
S1 W0 2.472922 1_665
S1 W0 2.472922 1_555
