# generated using pymatgen
data_NaFe2(MoO5)2
_symmetry_space_group_name_H-M   'P 1'
_cell_length_a   5.81746447
_cell_length_b   5.81746447
_cell_length_c   8.05395079
_cell_angle_alpha   67.14713317
_cell_angle_beta   67.14713317
_cell_angle_gamma   62.44166981
_symmetry_Int_Tables_number   1
_chemical_formula_structural   NaFe2(MoO5)2
_chemical_formula_sum   'Na1 Fe2 Mo2 O10'
_cell_volume   215.28793776
_cell_formula_units_Z   1
loop_
 _symmetry_equiv_pos_site_id
 _symmetry_equiv_pos_as_xyz
  1  'x, y, z'
loop_
 _atom_site_type_symbol
 _atom_site_label
 _atom_site_symmetry_multiplicity
 _atom_site_fract_x
 _atom_site_fract_y
 _atom_site_fract_z
 _atom_site_occupancy
  Na  Na0  1  0.00000000  0.00000000  0.00000000  1
  Fe  Fe0  1  0.00000000  0.50000000  0.50000000  1
  Fe  Fe1  1  0.50000000  0.00000000  0.50000000  1
  Mo  Mo0  1  0.42379000  0.42379000  0.77402300  1
  Mo  Mo1  1  0.57621000  0.57621000  0.22597700  1
  O  O0  1  0.33579300  0.33579300  0.60820100  1
  O  O1  1  0.66420700  0.66420700  0.39179900  1
  O  O2  1  0.77918700  0.30473300  0.74854500  1
  O  O3  1  0.30473300  0.77918700  0.74854500  1
  O  O4  1  0.22081300  0.69526700  0.25145500  1
  O  O5  1  0.69526700  0.22081300  0.25145500  1
  O  O6  1  0.27621800  0.27621800  0.99830900  1
  O  O7  1  0.72378200  0.72378200  0.00169100  1
  O  O8  1  0.18301500  0.18301500  0.42470900  1
  O  O9  1  0.81698500  0.81698500  0.57529100  1
loop_
_geom_bond_atom_site_label_1
_geom_bond_atom_site_label_2
_geom_bond_distance
_geom_bond_site_symmetry_2
Na0 O4 2.453405 1_545
Na0 O5 2.453405 1_455
Na0 O2 2.453405 1_454
Na0 O3 2.453405 1_544
Na0 O6 2.742186 1_554
Na0 O7 2.742186 1_445
Fe0 O9 1.858006 1_455
Fe0 O8 1.858006 1_555
Fe0 O1 2.106405 1_455
Fe0 O0 2.106405 1_555
Fe0 O4 2.129388 1_555
Fe0 O2 2.129388 1_455
Fe1 O9 1.858006 1_545
Fe1 O8 1.858006 1_555
Fe1 O1 2.106405 1_545
Fe1 O0 2.106405 1_555
Fe1 O5 2.129388 1_555
Fe1 O3 2.129388 1_545
Mo0 O6 1.734922 1_555
Mo0 O3 1.803402 1_555
Mo0 O2 1.803402 1_555
Mo0 O0 1.900605 1_555
Mo1 O7 1.734922 1_555
Mo1 O4 1.803402 1_555
Mo1 O5 1.803402 1_555
Mo1 O1 1.900605 1_555
