# generated using pymatgen
data_La
_symmetry_space_group_name_H-M   'P 1'
_cell_length_a   7.52738575
_cell_length_b   7.52738653
_cell_length_c   7.52738726
_cell_angle_alpha   60.00000645
_cell_angle_beta   60.00000305
_cell_angle_gamma   59.99999429
_symmetry_Int_Tables_number   1
_chemical_formula_structural   La
_chemical_formula_sum   La8
_cell_volume   301.59050480
_cell_formula_units_Z   8
loop_
 _symmetry_equiv_pos_site_id
 _symmetry_equiv_pos_as_xyz
  1  'x, y, z'
loop_
 _atom_site_type_symbol
 _atom_site_label
 _atom_site_symmetry_multiplicity
 _atom_site_fract_x
 _atom_site_fract_y
 _atom_site_fract_z
 _atom_site_occupancy
  La  La0_0  1  0.00000000  0.00000000  0.00000000  1
  La  La0_1  1  0.00000000  0.00000000  0.50000000  1
  La  La0_2  1  0.00000000  0.50000000  0.00000000  1
  La  La0_3  1  0.00000000  0.50000000  0.50000000  1
  La  La0_4  1  0.50000000  0.00000000  0.00000000  1
  La  La0_5  1  0.50000000  0.00000000  0.50000000  1
  La  La0_6  1  0.50000000  0.50000000  0.00000000  1
  La  La0_7  1  0.50000000  0.50000000  0.50000000  1
loop_
_geom_bond_atom_site_label_1
_geom_bond_atom_site_label_2
_geom_bond_distance
_geom_bond_site_symmetry_2
La0_0 La0_6 3.763693 1_455
La0_0 La0_6 3.763693 1_545
La0_0 La0_4 3.763693 1_455
La0_0 La0_4 3.763693 1_555
La0_0 La0_2 3.763693 1_555
La0_0 La0_2 3.763693 1_545
La0_0 La0_5 3.763693 1_455
La0_0 La0_5 3.763693 1_554
La0_0 La0_1 3.763694 1_555
La0_0 La0_1 3.763694 1_554
La0_0 La0_3 3.763694 1_554
La0_0 La0_3 3.763694 1_545
La0_1 La0_7 3.763693 1_455
La0_1 La0_7 3.763693 1_545
La0_1 La0_5 3.763693 1_455
La0_1 La0_5 3.763693 1_555
La0_1 La0_3 3.763693 1_555
La0_1 La0_3 3.763693 1_545
La0_1 La0_4 3.763693 1_456
La0_1 La0_4 3.763693 1_555
La0_1 La0_2 3.763694 1_555
La0_1 La0_2 3.763694 1_546
La0_2 La0_4 3.763693 1_465
La0_2 La0_4 3.763693 1_555
La0_2 La0_6 3.763693 1_455
La0_2 La0_6 3.763693 1_555
La0_2 La0_7 3.763693 1_455
La0_2 La0_7 3.763693 1_554
La0_2 La0_3 3.763694 1_555
La0_2 La0_3 3.763694 1_554
La0_3 La0_5 3.763693 1_465
La0_3 La0_5 3.763693 1_555
La0_3 La0_7 3.763693 1_455
La0_3 La0_7 3.763693 1_555
La0_3 La0_6 3.763693 1_456
La0_3 La0_6 3.763693 1_555
La0_4 La0_6 3.763693 1_545
La0_4 La0_6 3.763693 1_555
La0_4 La0_5 3.763694 1_555
La0_4 La0_5 3.763694 1_554
La0_4 La0_7 3.763694 1_554
La0_4 La0_7 3.763694 1_545
La0_5 La0_7 3.763693 1_555
La0_5 La0_7 3.763693 1_545
La0_5 La0_6 3.763694 1_555
La0_5 La0_6 3.763694 1_546
La0_6 La0_7 3.763694 1_555
La0_6 La0_7 3.763694 1_554
