# generated using pymatgen
data_CaVSi4O15
_symmetry_space_group_name_H-M   'P 1'
_cell_length_a   9.92085400
_cell_length_b   10.10130100
_cell_length_c   13.68400300
_cell_angle_alpha   90.00000000
_cell_angle_beta   90.00000000
_cell_angle_gamma   90.00000000
_symmetry_Int_Tables_number   1
_chemical_formula_structural   CaVSi4O15
_chemical_formula_sum   'Ca4 V4 Si16 O60'
_cell_volume   1371.32227843
_cell_formula_units_Z   4
loop_
 _symmetry_equiv_pos_site_id
 _symmetry_equiv_pos_as_xyz
  1  'x, y, z'
loop_
 _atom_site_type_symbol
 _atom_site_label
 _atom_site_symmetry_multiplicity
 _atom_site_fract_x
 _atom_site_fract_y
 _atom_site_fract_z
 _atom_site_occupancy
  Ca  Ca0  1  0.86295200  0.38067700  0.75000000  1
  Ca  Ca1  1  0.36295200  0.11932300  0.75000000  1
  Ca  Ca2  1  0.13704800  0.61932300  0.25000000  1
  Ca  Ca3  1  0.63704800  0.88067700  0.25000000  1
  V  V0  1  0.02229200  0.09734200  0.75000000  1
  V  V1  1  0.52229200  0.40265800  0.75000000  1
  V  V2  1  0.97770800  0.90265800  0.25000000  1
  V  V3  1  0.47770800  0.59734200  0.25000000  1
  Si  Si0  1  0.67636900  0.39667200  0.96649500  1
  Si  Si1  1  0.17636900  0.10332800  0.53350500  1
  Si  Si2  1  0.32363100  0.60332800  0.46649500  1
  Si  Si3  1  0.82363100  0.89667200  0.03350500  1
  Si  Si4  1  0.32363100  0.60332800  0.03350500  1
  Si  Si5  1  0.82363100  0.89667200  0.46649500  1
  Si  Si6  1  0.67636900  0.39667200  0.53350500  1
  Si  Si7  1  0.17636900  0.10332800  0.96649500  1
  Si  Si8  1  0.88761700  0.17486300  0.96083700  1
  Si  Si9  1  0.38761700  0.32513700  0.53916300  1
  Si  Si10  1  0.11238300  0.82513700  0.46083700  1
  Si  Si11  1  0.61238300  0.67486300  0.03916300  1
  Si  Si12  1  0.11238300  0.82513700  0.03916300  1
  Si  Si13  1  0.61238300  0.67486300  0.46083700  1
  Si  Si14  1  0.88761700  0.17486300  0.53916300  1
  Si  Si15  1  0.38761700  0.32513700  0.96083700  1
  O  O0  1  0.66511500  0.40156100  0.84637600  1
  O  O1  1  0.16511500  0.09843900  0.65362400  1
  O  O2  1  0.33488500  0.59843900  0.34637600  1
  O  O3  1  0.83488500  0.90156100  0.15362400  1
  O  O4  1  0.33488500  0.59843900  0.15362400  1
  O  O5  1  0.83488500  0.90156100  0.34637600  1
  O  O6  1  0.66511500  0.40156100  0.65362400  1
  O  O7  1  0.16511500  0.09843900  0.84637600  1
  O  O8  1  0.91275800  0.18743100  0.84282600  1
  O  O9  1  0.41275800  0.31256900  0.65717400  1
  O  O10  1  0.08724200  0.81256900  0.34282600  1
  O  O11  1  0.58724200  0.68743100  0.15717400  1
  O  O12  1  0.08724200  0.81256900  0.15717400  1
  O  O13  1  0.58724200  0.68743100  0.34282600  1
  O  O14  1  0.91275800  0.18743100  0.65717400  1
  O  O15  1  0.41275800  0.31256900  0.84282600  1
  O  O16  1  0.79915300  0.04442800  0.98915900  1
  O  O17  1  0.29915300  0.45557200  0.51084100  1
  O  O18  1  0.20084700  0.95557200  0.48915900  1
  O  O19  1  0.70084700  0.54442800  0.01084100  1
  O  O20  1  0.20084700  0.95557200  0.01084100  1
  O  O21  1  0.70084700  0.54442800  0.48915900  1
  O  O22  1  0.79915300  0.04442800  0.51084100  1
  O  O23  1  0.29915300  0.45557200  0.98915900  1
  O  O24  1  0.53683400  0.33497100  0.01156100  1
  O  O25  1  0.03683400  0.16502900  0.48843900  1
  O  O26  1  0.46316600  0.66502900  0.51156100  1
  O  O27  1  0.96316600  0.83497100  0.98843900  1
  O  O28  1  0.46316600  0.66502900  0.98843900  1
  O  O29  1  0.96316600  0.83497100  0.51156100  1
  O  O30  1  0.53683400  0.33497100  0.48843900  1
  O  O31  1  0.03683400  0.16502900  0.01156100  1
  O  O32  1  0.80720400  0.30724800  0.99554900  1
  O  O33  1  0.30720400  0.19275200  0.50445100  1
  O  O34  1  0.19279600  0.69275200  0.49554900  1
  O  O35  1  0.69279600  0.80724800  0.00445100  1
  O  O36  1  0.19279600  0.69275200  0.00445100  1
  O  O37  1  0.69279600  0.80724800  0.49554900  1
  O  O38  1  0.80720400  0.30724800  0.50445100  1
  O  O39  1  0.30720400  0.19275200  0.99554900  1
  O  O40  1  0.96926400  0.94805400  0.75000000  1
  O  O41  1  0.46926400  0.55194600  0.75000000  1
  O  O42  1  0.03073600  0.05194600  0.25000000  1
  O  O43  1  0.53073600  0.44805400  0.25000000  1
  O  O44  1  0.93756400  0.58683500  0.83029100  1
  O  O45  1  0.43756400  0.91316500  0.66970900  1
  O  O46  1  0.06243600  0.41316500  0.33029100  1
  O  O47  1  0.56243600  0.08683500  0.16970900  1
  O  O48  1  0.06243600  0.41316500  0.16970900  1
  O  O49  1  0.56243600  0.08683500  0.33029100  1
  O  O50  1  0.93756400  0.58683500  0.66970900  1
  O  O51  1  0.43756400  0.91316500  0.83029100  1
  O  O52  1  0.59369900  0.08943400  0.75000000  1
  O  O53  1  0.09369900  0.41056600  0.75000000  1
  O  O54  1  0.40630100  0.91056600  0.25000000  1
  O  O55  1  0.90630100  0.58943400  0.25000000  1
  O  O56  1  0.95747400  0.65627000  0.75000000  1
  O  O57  1  0.45747400  0.84373000  0.75000000  1
  O  O58  1  0.04252600  0.34373000  0.25000000  1
  O  O59  1  0.54252600  0.15627000  0.25000000  1
loop_
_geom_bond_atom_site_label_1
_geom_bond_atom_site_label_2
_geom_bond_distance
_geom_bond_site_symmetry_2
Ca0 O53 2.309031 1_655
Ca0 O6 2.374026 1_555
Ca0 O0 2.374026 1_555
Ca0 O8 2.380774 1_555
Ca0 O14 2.380774 1_555
Ca0 O50 2.468141 1_555
Ca0 O44 2.468141 1_555
Ca1 O52 2.309031 1_555
Ca1 O7 2.374026 1_555
Ca1 O1 2.374026 1_555
Ca1 O15 2.380774 1_555
Ca1 O9 2.380774 1_555
Ca1 O45 2.468141 1_545
Ca1 O51 2.468141 1_545
Ca2 O55 2.309031 1_455
Ca2 O2 2.374026 1_555
Ca2 O4 2.374026 1_555
Ca2 O10 2.380774 1_555
Ca2 O12 2.380774 1_555
Ca2 O46 2.468141 1_555
Ca2 O48 2.468141 1_555
Ca3 O54 2.309031 1_555
Ca3 O5 2.374026 1_555
Ca3 O3 2.374026 1_555
Ca3 O13 2.380774 1_555
Ca3 O11 2.380774 1_555
Ca3 O47 2.468141 1_565
Ca3 O49 2.468141 1_565
O0 Si0 1.648236 1_555
O0 V1 1.935733 1_555
O1 Si1 1.648236 1_555
O1 V0 1.935733 1_555
O2 Si2 1.648236 1_555
O2 V3 1.935733 1_555
O3 Si3 1.648236 1_555
O3 V2 1.935733 1_555
O4 Si4 1.648236 1_555
O4 V3 1.935733 1_555
O5 Si5 1.648236 1_555
O5 V2 1.935733 1_555
O6 Si6 1.648236 1_555
O6 V1 1.935733 1_555
O7 Si7 1.648236 1_555
O7 V0 1.935733 1_555
O8 Si8 1.638936 1_555
O8 V0 1.903279 1_655
O9 Si9 1.638936 1_555
O9 V1 1.903279 1_555
O10 Si10 1.638936 1_555
O10 V2 1.903279 1_455
O11 Si11 1.638936 1_555
O11 V3 1.903279 1_555
O12 Si12 1.638936 1_555
O12 V2 1.903279 1_455
O13 Si13 1.638936 1_555
O13 V3 1.903279 1_555
O14 Si14 1.638936 1_555
O14 V0 1.903279 1_655
O15 Si15 1.638936 1_555
O15 V1 1.903279 1_555
O16 Si3 1.629373 1_546
O16 Si8 1.629854 1_555
O17 Si2 1.629373 1_555
O17 Si9 1.629854 1_555
O18 Si1 1.629373 1_565
O18 Si10 1.629854 1_555
O19 Si0 1.629373 1_554
O19 Si11 1.629854 1_555
O20 Si7 1.629373 1_564
O20 Si12 1.629854 1_555
O21 Si6 1.629373 1_555
O21 Si13 1.629854 1_555
O22 Si5 1.629373 1_545
O22 Si14 1.629854 1_555
O23 Si4 1.629373 1_556
O23 Si15 1.629854 1_555
O24 Si15 1.638023 1_554
O24 Si0 1.638614 1_554
O25 Si14 1.638023 1_455
O25 Si1 1.638614 1_555
O26 Si13 1.638023 1_555
O26 Si2 1.638614 1_555
O27 Si12 1.638023 1_656
O27 Si3 1.638614 1_556
O28 Si11 1.638023 1_556
O28 Si4 1.638614 1_556
O29 Si10 1.638023 1_655
O29 Si5 1.638614 1_555
O30 Si9 1.638023 1_555
O30 Si6 1.638614 1_555
O31 Si8 1.638023 1_454
O31 Si7 1.638614 1_554
O32 Si8 1.627980 1_555
O32 Si0 1.630584 1_555
O33 Si9 1.627980 1_555
O33 Si1 1.630584 1_555
O34 Si10 1.627980 1_555
O34 Si2 1.630584 1_555
O35 Si11 1.627980 1_555
O35 Si3 1.630584 1_555
O36 Si12 1.627980 1_555
O36 Si4 1.630584 1_555
O37 Si13 1.627980 1_555
O37 Si5 1.630584 1_555
O38 Si14 1.627980 1_555
O38 Si6 1.630584 1_555
O39 Si15 1.627980 1_555
O39 Si7 1.630584 1_555
O40 V0 1.597134 1_665
O41 V1 1.597134 1_555
O42 V2 1.597134 1_445
O43 V3 1.597134 1_555
O44 O56 1.318371 1_555
O45 O57 1.318371 1_555
O46 O58 1.318371 1_555
O47 O59 1.318371 1_555
O48 O58 1.318371 1_555
O49 O59 1.318371 1_555
O50 O56 1.318371 1_555
O51 O57 1.318371 1_555
