# generated using pymatgen
data_Li7Fe6(SiO4)6
_symmetry_space_group_name_H-M   'P 1'
_cell_length_a   8.62546600
_cell_length_b   8.67192291
_cell_length_c   8.77327615
_cell_angle_alpha   107.86241073
_cell_angle_beta   108.14527618
_cell_angle_gamma   106.84280542
_symmetry_Int_Tables_number   1
_chemical_formula_structural   Li7Fe6(SiO4)6
_chemical_formula_sum   'Li7 Fe6 Si6 O24'
_cell_volume   536.99919847
_cell_formula_units_Z   1
loop_
 _symmetry_equiv_pos_site_id
 _symmetry_equiv_pos_as_xyz
  1  'x, y, z'
loop_
 _atom_site_type_symbol
 _atom_site_label
 _atom_site_symmetry_multiplicity
 _atom_site_fract_x
 _atom_site_fract_y
 _atom_site_fract_z
 _atom_site_occupancy
  Li  Li0  1  0.15234600  0.86493200  0.72092800  1
  Li  Li1  1  0.21792600  0.43890200  0.60056600  1
  Li  Li2  1  0.36977300  0.53097700  0.93354800  1
  Li  Li3  1  0.44564100  0.62315400  0.23913900  1
  Li  Li4  1  0.72728000  0.13341500  0.89360000  1
  Li  Li5  1  0.60672300  0.21484500  0.43527400  1
  Li  Li6  1  0.85395600  0.71774000  0.14466900  1
  Fe  Fe0  1  0.54917200  0.81047800  0.93716700  1
  Fe  Fe1  1  0.77214700  0.95006100  0.53612300  1
  Fe  Fe2  1  0.94916500  0.53625300  0.77521400  1
  Fe  Fe3  1  0.05335500  0.45522400  0.23748700  1
  Fe  Fe4  1  0.23404800  0.05489300  0.44898400  1
  Fe  Fe5  1  0.46396400  0.23290700  0.05522500  1
  Si  Si0  1  0.09314100  0.27712600  0.87806600  1
  Si  Si1  1  0.38368400  0.79233300  0.56022000  1
  Si  Si2  1  0.28855100  0.87211900  0.09674000  1
  Si  Si3  1  0.56657400  0.38719000  0.79401300  1
  Si  Si4  1  0.79510000  0.56503100  0.39308900  1
  Si  Si5  1  0.87991400  0.10905500  0.28950000  1
  O  O0  1  0.07203500  0.73420100  0.00181100  1
  O  O1  1  0.10284800  0.41073100  0.77598500  1
  O  O2  1  0.26422600  0.90978800  0.56683900  1
  O  O3  1  0.30696000  0.35189600  0.02048700  1
  O  O4  1  0.97815800  0.31476100  0.99163000  1
  O  O5  1  0.98444100  0.97865500  0.31009100  1
  O  O6  1  0.35168600  0.02049000  0.29989800  1
  O  O7  1  0.36126000  0.69611800  0.69074600  1
  O  O8  1  0.29598500  0.63181100  0.35622600  1
  O  O9  1  0.36127500  0.29722700  0.62949800  1
  O  O10  1  0.59640200  0.92736400  0.62770200  1
  O  O11  1  0.60980400  0.58852800  0.93087900  1
  O  O12  1  0.41158100  0.75928300  0.09081000  1
  O  O13  1  0.57436500  0.26320300  0.90495600  1
  O  O14  1  0.32244000  0.98789500  0.97990200  1
  O  O15  1  0.70804100  0.38183800  0.70476400  1
  O  O16  1  0.70588200  0.70841500  0.38484000  1
  O  O17  1  0.74672700  0.04635400  0.08185400  1
  O  O18  1  0.62924000  0.36371600  0.30227600  1
  O  O19  1  0.93483300  0.62473200  0.59947700  1
  O  O20  1  0.76908700  0.09713500  0.41257300  1
  O  O21  1  0.90412400  0.57151500  0.26921500  1
  O  O22  1  0.00325500  0.06692600  0.73596200  1
  O  O23  1  0.03311300  0.31332900  0.36338000  1
loop_
_geom_bond_atom_site_label_1
_geom_bond_atom_site_label_2
_geom_bond_distance
_geom_bond_site_symmetry_2
Li0 O2 1.956460 1_555
Li0 O14 1.995663 1_555
Li0 O19 2.030461 1_455
Li0 O22 2.451285 1_565
Li1 O23 1.896034 1_555
Li1 O7 1.959569 1_555
Li1 O9 1.994699 1_555
Li1 O1 2.110702 1_555
Li2 O12 1.885222 1_556
Li2 O3 1.945127 1_556
Li2 O11 1.993661 1_555
Li2 O1 2.010272 1_555
Li3 O8 1.887303 1_555
Li3 O16 1.972456 1_555
Li3 O12 2.019560 1_555
Li3 O3 2.194564 1_555
Li4 O13 1.972229 1_555
Li4 O4 1.983553 1_555
Li4 O17 1.997930 1_556
Li4 O10 2.131394 1_545
Li5 O20 1.979993 1_555
Li5 O18 1.996457 1_555
Li5 O6 2.021526 1_555
Li5 O15 2.080882 1_555
Li6 O21 1.965355 1_555
Li6 O5 1.996229 1_555
Li6 O11 2.022744 1_554
Li6 O0 2.559702 1_655
Fe0 O17 1.933662 1_566
Fe0 O7 1.963461 1_555
Fe0 O12 2.116774 1_556
Fe0 O11 2.125393 1_555
Fe1 O16 1.899140 1_555
Fe1 O22 1.907112 1_665
Fe1 O20 1.911043 1_565
Fe1 O10 1.914387 1_555
Fe2 O0 1.887320 1_656
Fe2 O15 1.891675 1_555
Fe2 O19 1.908689 1_555
Fe2 O1 1.943501 1_655
Fe3 O21 1.885346 1_455
Fe3 O23 1.895756 1_555
Fe3 O4 1.901557 1_454
Fe3 O8 1.901665 1_555
Fe4 O2 1.881654 1_545
Fe4 O6 1.895272 1_555
Fe4 O5 1.898454 1_445
Fe4 O9 1.915225 1_555
Fe5 O13 1.887675 1_554
Fe5 O14 1.890627 1_544
Fe5 O18 1.909692 1_555
Fe5 O3 1.933184 1_555
O0 Si2 1.654575 1_555
O1 Si0 1.666885 1_555
O2 Si1 1.646720 1_555
O3 Si0 1.660647 1_554
O4 Si0 1.639018 1_655
O5 Si5 1.654977 1_565
O6 Si2 1.646638 1_545
O7 Si1 1.635699 1_555
O8 Si1 1.652638 1_555
O9 Si3 1.656598 1_555
O10 Si1 1.655668 1_555
O11 Si3 1.639223 1_555
O12 Si2 1.640487 1_555
O13 Si3 1.658645 1_555
O14 Si2 1.670958 1_556
O15 Si3 1.646150 1_555
O16 Si4 1.648798 1_555
O17 Si5 1.631243 1_555
O18 Si4 1.648844 1_555
O19 Si4 1.644184 1_555
O20 Si5 1.656643 1_555
O21 Si4 1.646806 1_555
O22 Si0 1.631866 1_555
O23 Si5 1.646190 1_455
