# generated using pymatgen
data_BaDySnSbO6
_symmetry_space_group_name_H-M   'P 1'
_cell_length_a   8.45649419
_cell_length_b   8.46003611
_cell_length_c   8.40080495
_cell_angle_alpha   90.00000000
_cell_angle_beta   90.00000000
_cell_angle_gamma   90.00000000
_symmetry_Int_Tables_number   1
_chemical_formula_structural   BaDySnSbO6
_chemical_formula_sum   'Ba4 Dy4 Sn4 Sb4 O24'
_cell_volume   601.01245611
_cell_formula_units_Z   4
loop_
 _symmetry_equiv_pos_site_id
 _symmetry_equiv_pos_as_xyz
  1  'x, y, z'
loop_
 _atom_site_type_symbol
 _atom_site_label
 _atom_site_symmetry_multiplicity
 _atom_site_fract_x
 _atom_site_fract_y
 _atom_site_fract_z
 _atom_site_occupancy
  Ba  Ba0  1  0.00000000  -0.00000000  -0.00000000  1
  Ba  Ba1  1  0.50000000  0.50000000  0.50000000  1
  Ba  Ba2  1  0.50000000  -0.00000000  0.50000000  1
  Ba  Ba3  1  0.00000000  0.50000000  -0.00000000  1
  Dy  Dy0  1  0.75000000  0.75000000  0.75000000  1
  Dy  Dy1  1  0.25000000  0.25000000  0.75000000  1
  Dy  Dy2  1  0.25000000  0.75000000  0.25000000  1
  Dy  Dy3  1  0.75000000  0.25000000  0.25000000  1
  Sn  Sn0  1  0.00000000  0.50000000  0.50000000  1
  Sn  Sn1  1  0.50000000  0.50000000  -0.00000000  1
  Sn  Sn2  1  0.50000000  -0.00000000  0.00000000  1
  Sn  Sn3  1  0.00000000  -0.00000000  0.50000000  1
  Sb  Sb0  1  0.25000000  0.25000000  0.25000000  1
  Sb  Sb1  1  0.75000000  0.75000000  0.25000000  1
  Sb  Sb2  1  0.75000000  0.25000000  0.75000000  1
  Sb  Sb3  1  0.25000000  0.75000000  0.75000000  1
  O  O0  1  0.01443785  0.20972183  0.27558850  1
  O  O1  1  0.98556215  0.79027817  0.27558850  1
  O  O2  1  0.98556215  0.20972183  0.72441150  1
  O  O3  1  0.01443785  0.79027817  0.72441150  1
  O  O4  1  0.28846071  0.01435712  0.22331605  1
  O  O5  1  0.28846071  0.98564288  0.77668395  1
  O  O6  1  0.71153929  0.98564288  0.22331605  1
  O  O7  1  0.71153929  0.01435712  0.77668395  1
  O  O8  1  0.22227984  0.26828661  0.01363360  1
  O  O9  1  0.77772016  0.26828661  0.98636640  1
  O  O10  1  0.22227984  0.73171339  0.98636640  1
  O  O11  1  0.77772016  0.73171339  0.01363360  1
  O  O12  1  0.48556215  0.29027817  0.22441150  1
  O  O13  1  0.51443785  0.70972183  0.22441150  1
  O  O14  1  0.51443785  0.29027817  0.77558850  1
  O  O15  1  0.48556215  0.70972183  0.77558850  1
  O  O16  1  0.21153929  0.48564288  0.27668395  1
  O  O17  1  0.21153929  0.51435712  0.72331605  1
  O  O18  1  0.78846071  0.51435712  0.27668395  1
  O  O19  1  0.78846071  0.48564288  0.72331605  1
  O  O20  1  0.27772016  0.23171339  0.48636640  1
  O  O21  1  0.72227984  0.23171339  0.51363360  1
  O  O22  1  0.27772016  0.76828661  0.51363360  1
  O  O23  1  0.72227984  0.76828661  0.48636640  1
loop_
_geom_bond_atom_site_label_1
_geom_bond_atom_site_label_2
_geom_bond_distance
_geom_bond_site_symmetry_2
Ba0 O0 2.919396 1_555
Ba0 O2 2.919396 1_454
Ba0 O3 2.919396 1_544
Ba0 O1 2.919396 1_445
Ba0 O9 2.949241 1_454
Ba0 O8 2.949241 1_555
Ba0 O11 2.949241 1_445
Ba0 O10 2.949241 1_544
Ba0 O7 3.079735 1_454
Ba0 O6 3.079735 1_445
Ba0 O5 3.079735 1_544
Ba0 O4 3.079735 1_555
Ba1 O12 2.919396 1_555
Ba1 O13 2.919396 1_555
Ba1 O14 2.919396 1_555
Ba1 O15 2.919396 1_555
Ba1 O20 2.949241 1_555
Ba1 O21 2.949241 1_555
Ba1 O22 2.949241 1_555
Ba1 O23 2.949241 1_555
Ba1 O18 3.079735 1_555
Ba1 O19 3.079735 1_555
Ba1 O16 3.079735 1_555
Ba1 O17 3.079735 1_555
Ba2 O20 2.718310 1_555
Ba2 O21 2.718310 1_555
Ba2 O22 2.718310 1_545
Ba2 O23 2.718310 1_545
Ba2 O4 2.935564 1_555
Ba2 O6 2.935564 1_545
Ba2 O7 2.935564 1_555
Ba2 O5 2.935564 1_545
Ba3 O11 2.718310 1_455
Ba3 O9 2.718310 1_454
Ba3 O8 2.718310 1_555
Ba3 O10 2.718310 1_554
Ba3 O17 2.935564 1_554
Ba3 O18 2.935564 1_455
Ba3 O19 2.935564 1_454
Ba3 O16 2.935564 1_555
Dy0 O11 2.232472 1_556
Dy0 O23 2.232472 1_555
Dy0 O7 2.271087 1_565
Dy0 O19 2.271087 1_555
Dy0 O3 2.272221 1_655
Dy0 O15 2.272221 1_555
Dy1 O8 2.232472 1_556
Dy1 O20 2.232472 1_555
Dy1 O5 2.271087 1_545
Dy1 O17 2.271087 1_555
Dy1 O2 2.272221 1_455
Dy1 O14 2.272221 1_555
Dy2 O22 2.232472 1_555
Dy2 O10 2.232472 1_554
Dy2 O4 2.271087 1_565
Dy2 O16 2.271087 1_555
Dy2 O13 2.272221 1_555
Dy2 O1 2.272221 1_455
Dy3 O21 2.232472 1_555
Dy3 O9 2.232472 1_554
Dy3 O6 2.271087 1_545
Dy3 O18 2.271087 1_555
Dy3 O0 2.272221 1_655
Dy3 O12 2.272221 1_555
O0 Sb0 2.032365 1_555
O0 Sn3 2.591718 1_555
O1 Sb1 2.032365 1_555
O1 Sn3 2.591718 1_665
O2 Sb2 2.032365 1_555
O2 Sn3 2.591718 1_655
O3 Sb3 2.032365 1_555
O3 Sn3 2.591718 1_565
O4 Sb0 2.032305 1_555
O4 Sn2 2.595063 1_555
O5 Sb3 2.032305 1_555
O5 Sn2 2.595063 1_566
O6 Sb1 2.032305 1_555
O6 Sn2 2.595063 1_565
O7 Sb2 2.032305 1_555
O7 Sn2 2.595063 1_556
O8 Sb0 2.005433 1_555
O9 Sb2 2.005433 1_555
O10 Sb3 2.005433 1_555
O11 Sb1 2.005433 1_555
O12 Sb0 2.032365 1_555
O12 Sn1 2.591718 1_555
O13 Sb1 2.032365 1_555
O13 Sn1 2.591718 1_555
O14 Sb2 2.032365 1_555
O14 Sn1 2.591718 1_556
O15 Sb3 2.032365 1_555
O15 Sn1 2.591718 1_556
O16 Sb0 2.032305 1_555
O16 Sn0 2.595063 1_555
O17 Sb3 2.032305 1_555
O17 Sn0 2.595063 1_555
O18 Sb1 2.032305 1_555
O18 Sn0 2.595063 1_655
O19 Sb2 2.032305 1_555
O19 Sn0 2.595063 1_655
O20 Sb0 2.005433 1_555
O21 Sb2 2.005433 1_555
O22 Sb3 2.005433 1_555
O23 Sb1 2.005433 1_555
