# generated using pymatgen
data_Pb3N2
_symmetry_space_group_name_H-M   'P 1'
_cell_length_a   3.63758400
_cell_length_b   5.62410800
_cell_length_c   11.95039300
_cell_angle_alpha   90.00000000
_cell_angle_beta   90.00000000
_cell_angle_gamma   90.00000000
_symmetry_Int_Tables_number   1
_chemical_formula_structural   Pb3N2
_chemical_formula_sum   'Pb6 N4'
_cell_volume   244.48311510
_cell_formula_units_Z   2
loop_
 _symmetry_equiv_pos_site_id
 _symmetry_equiv_pos_as_xyz
  1  'x, y, z'
loop_
 _atom_site_type_symbol
 _atom_site_label
 _atom_site_symmetry_multiplicity
 _atom_site_fract_x
 _atom_site_fract_y
 _atom_site_fract_z
 _atom_site_occupancy
  Pb  Pb0  1  0.50000000  0.27672500  0.81821000  1
  Pb  Pb1  1  0.50000000  0.27672500  0.18179000  1
  Pb  Pb2  1  0.00000000  0.72327500  0.68179000  1
  Pb  Pb3  1  0.00000000  0.72327500  0.31821000  1
  Pb  Pb4  1  0.50000000  0.22725700  0.50000000  1
  Pb  Pb5  1  0.00000000  0.77274300  0.00000000  1
  N  N0  1  0.50000000  0.47643400  0.35468600  1
  N  N1  1  0.50000000  0.47643400  0.64531400  1
  N  N2  1  0.00000000  0.52356600  0.14531400  1
  N  N3  1  0.00000000  0.52356600  0.85468600  1
loop_
_geom_bond_atom_site_label_1
_geom_bond_atom_site_label_2
_geom_bond_distance
_geom_bond_site_symmetry_2
N0 Pb4 2.231492 1_555
N0 Pb3 2.329224 1_555
N0 Pb3 2.329224 1_655
N0 Pb1 2.351728 1_555
N1 Pb4 2.231492 1_555
N1 Pb2 2.329224 1_555
N1 Pb2 2.329224 1_655
N1 Pb0 2.351728 1_555
N2 Pb5 2.231492 1_555
N2 Pb1 2.329224 1_555
N2 Pb1 2.329224 1_455
N2 Pb3 2.351728 1_555
N3 Pb5 2.231492 1_556
N3 Pb0 2.329224 1_455
N3 Pb0 2.329224 1_555
N3 Pb2 2.351728 1_555
