# generated using pymatgen
data_La2CdNi2
_symmetry_space_group_name_H-M   'P 1'
_cell_length_a   7.73069970
_cell_length_b   7.73069970
_cell_length_c   3.84017625
_cell_angle_alpha   90.00000000
_cell_angle_beta   90.00000000
_cell_angle_gamma   149.97330104
_symmetry_Int_Tables_number   1
_chemical_formula_structural   La2CdNi2
_chemical_formula_sum   'La2 Cd1 Ni2'
_cell_volume   114.84420959
_cell_formula_units_Z   1
loop_
 _symmetry_equiv_pos_site_id
 _symmetry_equiv_pos_as_xyz
  1  'x, y, z'
loop_
 _atom_site_type_symbol
 _atom_site_label
 _atom_site_symmetry_multiplicity
 _atom_site_fract_x
 _atom_site_fract_y
 _atom_site_fract_z
 _atom_site_occupancy
  La  La0  1  0.63734273  0.36265727  0.50000000  1
  La  La1  1  0.36265727  0.63734273  0.50000000  1
  Cd  Cd0  1  0.00000000  -0.00000000  -0.00000000  1
  Ni  Ni0  1  0.79666225  0.20333775  -0.00000000  1
  Ni  Ni1  1  0.20333775  0.79666225  0.00000000  1
loop_
_geom_bond_atom_site_label_1
_geom_bond_atom_site_label_2
_geom_bond_distance
_geom_bond_site_symmetry_2
La0 Ni1 2.944217 1_546
La0 Ni1 2.944217 1_655
La0 Ni1 2.944217 1_656
La0 Ni1 2.944217 1_545
La0 Ni0 3.057355 1_556
La0 Ni0 3.057355 1_555
La1 Ni0 2.944217 1_455
La1 Ni0 2.944217 1_565
La1 Ni0 2.944217 1_456
La1 Ni0 2.944217 1_566
La1 Ni1 3.057355 1_556
La1 Ni1 3.057355 1_555
Cd0 Ni1 3.036571 1_545
Cd0 Ni0 3.036571 1_455
Cd0 La0 3.450191 1_555
Cd0 La0 3.450191 1_444
Cd0 La0 3.450191 1_445
Cd0 La1 3.450191 1_555
Cd0 La1 3.450191 1_444
Cd0 La1 3.450191 1_554
Cd0 La1 3.450191 1_445
Cd0 La0 3.450191 1_554
Ni0 Ni1 2.439816 1_655
Ni0 Ni1 2.439816 1_545
