# generated using pymatgen
data_Tm6(Ga3Co)7
_symmetry_space_group_name_H-M   'P 1'
_cell_length_a   16.58671100
_cell_length_b   16.58671100
_cell_length_c   4.13701800
_cell_angle_alpha   90.00000000
_cell_angle_beta   90.00000000
_cell_angle_gamma   90.00000000
_symmetry_Int_Tables_number   1
_chemical_formula_structural   Tm6(Ga3Co)7
_chemical_formula_sum   'Tm12 Ga42 Co14'
_cell_volume   1138.17217984
_cell_formula_units_Z   2
loop_
 _symmetry_equiv_pos_site_id
 _symmetry_equiv_pos_as_xyz
  1  'x, y, z'
loop_
 _atom_site_type_symbol
 _atom_site_label
 _atom_site_symmetry_multiplicity
 _atom_site_fract_x
 _atom_site_fract_y
 _atom_site_fract_z
 _atom_site_occupancy
  Tm  Tm0  1  0.10765000  0.60765000  0.50000000  1
  Tm  Tm1  1  0.89235000  0.39235000  0.50000000  1
  Tm  Tm2  1  0.39235000  0.10765000  0.50000000  1
  Tm  Tm3  1  0.60765000  0.89235000  0.50000000  1
  Tm  Tm4  1  0.65761000  0.58667500  0.00000000  1
  Tm  Tm5  1  0.34239000  0.41332500  0.00000000  1
  Tm  Tm6  1  0.84239000  0.08667500  0.00000000  1
  Tm  Tm7  1  0.15761000  0.91332500  0.00000000  1
  Tm  Tm8  1  0.58667500  0.34239000  0.00000000  1
  Tm  Tm9  1  0.41332500  0.65761000  0.00000000  1
  Tm  Tm10  1  0.08667500  0.15761000  0.00000000  1
  Tm  Tm11  1  0.91332500  0.84239000  0.00000000  1
  Ga  Ga0  1  0.00000000  0.50000000  0.00000000  1
  Ga  Ga1  1  0.50000000  0.00000000  0.00000000  1
  Ga  Ga2  1  0.32038000  0.82038000  0.00000000  1
  Ga  Ga3  1  0.67962000  0.17962000  0.00000000  1
  Ga  Ga4  1  0.17962000  0.32038000  0.00000000  1
  Ga  Ga5  1  0.82038000  0.67962000  0.00000000  1
  Ga  Ga6  1  0.42611700  0.92611700  0.50000000  1
  Ga  Ga7  1  0.57388300  0.07388300  0.50000000  1
  Ga  Ga8  1  0.07388300  0.42611700  0.50000000  1
  Ga  Ga9  1  0.92611700  0.57388300  0.50000000  1
  Ga  Ga10  1  0.57540500  0.75757500  0.00000000  1
  Ga  Ga11  1  0.42459500  0.24242500  0.00000000  1
  Ga  Ga12  1  0.92459500  0.25757500  0.00000000  1
  Ga  Ga13  1  0.07540500  0.74242500  0.00000000  1
  Ga  Ga14  1  0.75757500  0.42459500  0.00000000  1
  Ga  Ga15  1  0.24242500  0.57540500  0.00000000  1
  Ga  Ga16  1  0.25757500  0.07540500  0.00000000  1
  Ga  Ga17  1  0.74242500  0.92459500  0.00000000  1
  Ga  Ga18  1  0.53182200  0.61013500  0.50000000  1
  Ga  Ga19  1  0.46817800  0.38986500  0.50000000  1
  Ga  Ga20  1  0.96817800  0.11013500  0.50000000  1
  Ga  Ga21  1  0.03182200  0.88986500  0.50000000  1
  Ga  Ga22  1  0.61013500  0.46817800  0.50000000  1
  Ga  Ga23  1  0.38986500  0.53182200  0.50000000  1
  Ga  Ga24  1  0.11013500  0.03182200  0.50000000  1
  Ga  Ga25  1  0.88986500  0.96817800  0.50000000  1
  Ga  Ga26  1  0.67882100  0.70888900  0.50000000  1
  Ga  Ga27  1  0.32117900  0.29111100  0.50000000  1
  Ga  Ga28  1  0.82117900  0.20888900  0.50000000  1
  Ga  Ga29  1  0.17882100  0.79111100  0.50000000  1
  Ga  Ga30  1  0.70888900  0.32117900  0.50000000  1
  Ga  Ga31  1  0.29111100  0.67882100  0.50000000  1
  Ga  Ga32  1  0.20888900  0.17882100  0.50000000  1
  Ga  Ga33  1  0.79111100  0.82117900  0.50000000  1
  Ga  Ga34  1  0.77102700  0.54272600  0.50000000  1
  Ga  Ga35  1  0.22897300  0.45727400  0.50000000  1
  Ga  Ga36  1  0.72897300  0.04272600  0.50000000  1
  Ga  Ga37  1  0.27102700  0.95727400  0.50000000  1
  Ga  Ga38  1  0.54272600  0.22897300  0.50000000  1
  Ga  Ga39  1  0.45727400  0.77102700  0.50000000  1
  Ga  Ga40  1  0.04272600  0.27102700  0.50000000  1
  Ga  Ga41  1  0.95727400  0.72897300  0.50000000  1
  Co  Co0  1  0.21873200  0.71873200  0.00000000  1
  Co  Co1  1  0.78126800  0.28126800  0.00000000  1
  Co  Co2  1  0.28126800  0.21873200  0.00000000  1
  Co  Co3  1  0.71873200  0.78126800  0.00000000  1
  Co  Co4  1  0.96443900  0.64907300  0.00000000  1
  Co  Co5  1  0.03556100  0.35092700  0.00000000  1
  Co  Co6  1  0.53556100  0.14907300  0.00000000  1
  Co  Co7  1  0.46443900  0.85092700  0.00000000  1
  Co  Co8  1  0.64907300  0.03556100  0.00000000  1
  Co  Co9  1  0.35092700  0.96443900  0.00000000  1
  Co  Co10  1  0.14907300  0.46443900  0.00000000  1
  Co  Co11  1  0.85092700  0.53556100  0.00000000  1
  Co  Co12  1  0.50000000  0.50000000  0.00000000  1
  Co  Co13  1  0.00000000  0.00000000  0.00000000  1
loop_
_geom_bond_atom_site_label_1
_geom_bond_atom_site_label_2
_geom_bond_distance
_geom_bond_site_symmetry_2
Ga0 Ga9 2.698576 1_455
Ga0 Ga9 2.698576 1_454
Ga0 Ga8 2.698576 1_554
Ga0 Ga8 2.698576 1_555
Ga0 Tm1 3.264226 1_455
Ga0 Tm1 3.264226 1_454
Ga0 Tm0 3.264226 1_554
Ga0 Tm0 3.264226 1_555
Ga1 Ga7 2.698576 1_554
Ga1 Ga7 2.698576 1_555
Ga1 Ga6 2.698576 1_545
Ga1 Ga6 2.698576 1_544
Ga1 Tm3 3.264226 1_544
Ga1 Tm3 3.264226 1_545
Ga1 Tm2 3.264226 1_555
Ga1 Tm2 3.264226 1_554
Ga2 Tm7 3.108973 1_555
Ga2 Tm9 3.108973 1_555
Ga3 Tm8 3.108973 1_555
Ga3 Tm6 3.108973 1_555
Ga4 Tm5 3.108973 1_555
Ga4 Tm10 3.108973 1_555
Ga5 Tm11 3.108973 1_555
Ga5 Tm4 3.108973 1_555
Ga6 Tm2 3.062683 1_565
Ga6 Tm3 3.062683 1_555
Ga7 Tm3 3.062683 1_545
Ga7 Tm2 3.062683 1_555
Ga8 Tm1 3.062683 1_455
Ga8 Tm0 3.062683 1_555
Ga9 Tm1 3.062683 1_555
Ga9 Tm0 3.062683 1_655
Ga10 Ga26 2.805925 1_554
Ga10 Ga26 2.805925 1_555
Ga10 Ga39 2.857933 1_554
Ga10 Ga39 2.857933 1_555
Ga10 Tm3 3.092269 1_555
Ga10 Tm3 3.092269 1_554
Ga10 Tm4 3.145554 1_555
Ga10 Tm9 3.158579 1_555
Ga11 Ga27 2.805925 1_554
Ga11 Ga27 2.805925 1_555
Ga11 Ga38 2.857933 1_555
Ga11 Ga38 2.857933 1_554
Ga11 Tm2 3.092269 1_555
Ga11 Tm2 3.092269 1_554
Ga11 Tm5 3.145554 1_555
Ga11 Tm8 3.158579 1_555
Ga12 Ga28 2.805925 1_554
Ga12 Ga28 2.805925 1_555
Ga12 Ga40 2.857933 1_655
Ga12 Ga40 2.857933 1_654
Ga12 Tm1 3.092269 1_555
Ga12 Tm1 3.092269 1_554
Ga12 Tm6 3.145554 1_555
Ga12 Tm10 3.158579 1_655
Ga13 Ga29 2.805925 1_554
Ga13 Ga29 2.805925 1_555
Ga13 Ga41 2.857933 1_455
Ga13 Ga41 2.857933 1_454
Ga13 Tm0 3.092269 1_555
Ga13 Tm0 3.092269 1_554
Ga13 Tm7 3.145554 1_555
Ga13 Tm11 3.158579 1_455
Ga14 Ga30 2.805925 1_554
Ga14 Ga30 2.805925 1_555
Ga14 Ga34 2.857933 1_555
Ga14 Ga34 2.857933 1_554
Ga14 Tm1 3.092269 1_555
Ga14 Tm1 3.092269 1_554
Ga14 Tm8 3.145554 1_555
Ga14 Tm4 3.158579 1_555
Ga15 Ga31 2.805925 1_555
Ga15 Ga31 2.805925 1_554
Ga15 Ga35 2.857933 1_554
Ga15 Ga35 2.857933 1_555
Ga15 Tm0 3.092269 1_555
Ga15 Tm0 3.092269 1_554
Ga15 Tm9 3.145554 1_555
Ga15 Tm5 3.158579 1_555
Ga16 Ga32 2.805925 1_554
Ga16 Ga32 2.805925 1_555
Ga16 Ga37 2.857933 1_544
Ga16 Ga37 2.857933 1_545
Ga16 Tm2 3.092269 1_555
Ga16 Tm2 3.092269 1_554
Ga16 Tm10 3.145554 1_555
Ga16 Tm7 3.158579 1_545
Ga17 Ga33 2.805925 1_555
Ga17 Ga33 2.805925 1_554
Ga17 Ga36 2.857933 1_565
Ga17 Ga36 2.857933 1_564
Ga17 Tm3 3.092269 1_554
Ga17 Tm3 3.092269 1_555
Ga17 Tm11 3.145554 1_555
Ga17 Tm6 3.158579 1_565
Ga18 Ga22 2.689131 1_555
Ga18 Ga23 2.689131 1_555
Ga18 Ga26 2.937350 1_555
Ga18 Ga39 2.941214 1_555
Ga18 Tm9 2.960052 1_555
Ga18 Tm9 2.960052 1_556
Ga18 Tm4 2.963655 1_556
Ga18 Tm4 2.963655 1_555
Ga19 Ga22 2.689131 1_555
Ga19 Ga23 2.689131 1_555
Ga19 Ga27 2.937350 1_555
Ga19 Ga38 2.941214 1_555
Ga19 Tm8 2.960052 1_555
Ga19 Tm8 2.960052 1_556
Ga19 Tm5 2.963655 1_556
Ga19 Tm5 2.963655 1_555
Ga20 Ga25 2.689131 1_545
Ga20 Ga24 2.689131 1_655
Ga20 Ga28 2.937350 1_555
Ga20 Ga40 2.941214 1_655
Ga20 Tm10 2.960052 1_656
Ga20 Tm10 2.960052 1_655
Ga20 Tm6 2.963655 1_555
Ga20 Tm6 2.963655 1_556
Ga21 Ga24 2.689131 1_565
Ga21 Ga25 2.689131 1_455
Ga21 Ga29 2.937350 1_555
Ga21 Ga41 2.941214 1_455
Ga21 Tm11 2.960052 1_455
Ga21 Tm11 2.960052 1_456
Ga21 Tm7 2.963655 1_556
Ga21 Tm7 2.963655 1_555
Ga22 Ga30 2.937350 1_555
Ga22 Ga34 2.941214 1_555
Ga22 Tm4 2.960052 1_555
Ga22 Tm4 2.960052 1_556
Ga22 Tm8 2.963655 1_555
Ga22 Tm8 2.963655 1_556
Ga23 Ga31 2.937350 1_555
Ga23 Ga35 2.941214 1_555
Ga23 Tm5 2.960052 1_556
Ga23 Tm5 2.960052 1_555
Ga23 Tm9 2.963655 1_555
Ga23 Tm9 2.963655 1_556
Ga24 Ga32 2.937350 1_555
Ga24 Ga37 2.941214 1_545
Ga24 Tm7 2.960052 1_546
Ga24 Tm7 2.960052 1_545
Ga24 Tm10 2.963655 1_556
Ga24 Tm10 2.963655 1_555
Ga25 Ga33 2.937350 1_555
Ga25 Ga36 2.941214 1_565
Ga25 Tm6 2.960052 1_565
Ga25 Tm6 2.960052 1_566
Ga25 Tm11 2.963655 1_555
Ga25 Tm11 2.963655 1_556
Ga26 Tm4 2.917491 1_555
Ga26 Tm4 2.917491 1_556
Ga26 Tm3 3.263970 1_555
Ga27 Tm5 2.917491 1_555
Ga27 Tm5 2.917491 1_556
Ga27 Tm2 3.263970 1_555
Ga28 Tm6 2.917491 1_556
Ga28 Tm6 2.917491 1_555
Ga28 Tm1 3.263970 1_555
Ga29 Tm7 2.917491 1_556
Ga29 Tm7 2.917491 1_555
Ga29 Tm0 3.263970 1_555
Ga30 Tm8 2.917491 1_556
Ga30 Tm8 2.917491 1_555
Ga30 Tm1 3.263970 1_555
Ga31 Tm9 2.917491 1_555
Ga31 Tm9 2.917491 1_556
Ga31 Tm0 3.263970 1_555
Ga32 Tm10 2.917491 1_556
Ga32 Tm10 2.917491 1_555
Ga32 Tm2 3.263970 1_555
Ga33 Tm11 2.917491 1_556
Ga33 Tm11 2.917491 1_555
Ga33 Tm3 3.263970 1_555
Ga34 Ga9 2.623830 1_555
Ga34 Tm4 2.889480 1_555
Ga34 Tm4 2.889480 1_556
Ga34 Tm1 3.204809 1_555
Ga35 Ga8 2.623830 1_555
Ga35 Tm5 2.889480 1_555
Ga35 Tm5 2.889480 1_556
Ga35 Tm0 3.204809 1_555
Ga36 Ga7 2.623830 1_555
Ga36 Tm6 2.889480 1_556
Ga36 Tm6 2.889480 1_555
Ga36 Tm3 3.204809 1_545
Ga37 Ga6 2.623830 1_555
Ga37 Tm7 2.889480 1_556
Ga37 Tm7 2.889480 1_555
Ga37 Tm2 3.204809 1_565
Ga38 Ga7 2.623830 1_555
Ga38 Tm8 2.889480 1_555
Ga38 Tm8 2.889480 1_556
Ga38 Tm2 3.204809 1_555
Ga39 Ga6 2.623830 1_555
Ga39 Tm9 2.889480 1_555
Ga39 Tm9 2.889480 1_556
Ga39 Tm3 3.204809 1_555
Ga40 Ga8 2.623830 1_555
Ga40 Tm10 2.889480 1_556
Ga40 Tm10 2.889480 1_555
Ga40 Tm1 3.204809 1_455
Ga41 Ga9 2.623830 1_555
Ga41 Tm11 2.889480 1_556
Ga41 Tm11 2.889480 1_555
Ga41 Tm0 3.204809 1_655
Co0 Ga2 2.384373 1_555
Co0 Ga13 2.409587 1_555
Co0 Ga15 2.409587 1_555
Co0 Ga31 2.481579 1_554
Co0 Ga31 2.481579 1_555
Co0 Ga29 2.481579 1_555
Co0 Ga29 2.481579 1_554
Co0 Tm0 3.326895 1_555
Co0 Tm0 3.326895 1_554
Co1 Ga3 2.384373 1_555
Co1 Ga12 2.409587 1_555
Co1 Ga14 2.409587 1_555
Co1 Ga28 2.481579 1_555
Co1 Ga28 2.481579 1_554
Co1 Ga30 2.481579 1_554
Co1 Ga30 2.481579 1_555
Co1 Tm1 3.326895 1_555
Co1 Tm1 3.326895 1_554
Co2 Ga4 2.384373 1_555
Co2 Ga16 2.409587 1_555
Co2 Ga11 2.409587 1_555
Co2 Ga32 2.481579 1_554
Co2 Ga32 2.481579 1_555
Co2 Ga27 2.481579 1_554
Co2 Ga27 2.481579 1_555
Co2 Tm2 3.326895 1_554
Co2 Tm2 3.326895 1_555
Co3 Ga5 2.384373 1_555
Co3 Ga10 2.409587 1_555
Co3 Ga17 2.409587 1_555
Co3 Ga26 2.481579 1_555
Co3 Ga26 2.481579 1_554
Co3 Ga33 2.481579 1_554
Co3 Ga33 2.481579 1_555
Co3 Tm3 3.326895 1_555
Co3 Tm3 3.326895 1_554
Co4 Ga13 2.405247 1_655
Co4 Ga5 2.442593 1_555
Co4 Ga41 2.459515 1_554
Co4 Ga41 2.459515 1_555
Co4 Ga9 2.497630 1_555
Co4 Ga9 2.497630 1_554
Co4 Ga0 2.542010 1_655
Co4 Tm0 3.223867 1_655
Co4 Tm0 3.223867 1_654
Co5 Ga12 2.405247 1_455
Co5 Ga4 2.442593 1_555
Co5 Ga40 2.459515 1_554
Co5 Ga40 2.459515 1_555
Co5 Ga8 2.497630 1_555
Co5 Ga8 2.497630 1_554
Co5 Ga0 2.542010 1_555
Co5 Tm1 3.223867 1_454
Co5 Tm1 3.223867 1_455
Co6 Ga11 2.405247 1_555
Co6 Ga3 2.442593 1_555
Co6 Ga38 2.459515 1_555
Co6 Ga38 2.459515 1_554
Co6 Ga7 2.497630 1_554
Co6 Ga7 2.497630 1_555
Co6 Ga1 2.542010 1_555
Co6 Tm2 3.223867 1_554
Co6 Tm2 3.223867 1_555
Co7 Ga10 2.405247 1_555
Co7 Ga2 2.442593 1_555
Co7 Ga39 2.459515 1_554
Co7 Ga39 2.459515 1_555
Co7 Ga6 2.497630 1_554
Co7 Ga6 2.497630 1_555
Co7 Ga1 2.542010 1_565
Co7 Tm3 3.223867 1_554
Co7 Tm3 3.223867 1_555
Co8 Ga17 2.405247 1_545
Co8 Ga3 2.442593 1_555
Co8 Ga36 2.459515 1_555
Co8 Ga36 2.459515 1_554
Co8 Ga7 2.497630 1_555
Co8 Ga7 2.497630 1_554
Co8 Ga1 2.542010 1_555
Co8 Tm3 3.223867 1_544
Co8 Tm3 3.223867 1_545
Co9 Ga16 2.405247 1_565
Co9 Ga2 2.442593 1_555
Co9 Ga37 2.459515 1_554
Co9 Ga37 2.459515 1_555
Co9 Ga6 2.497630 1_554
Co9 Ga6 2.497630 1_555
Co9 Ga1 2.542010 1_565
Co9 Tm2 3.223867 1_565
Co9 Tm2 3.223867 1_564
Co10 Ga15 2.405247 1_555
Co10 Ga4 2.442593 1_555
Co10 Ga35 2.459515 1_554
Co10 Ga35 2.459515 1_555
Co10 Ga8 2.497630 1_554
Co10 Ga8 2.497630 1_555
Co10 Ga0 2.542010 1_555
Co10 Tm0 3.223867 1_555
Co10 Tm0 3.223867 1_554
Co11 Ga14 2.405247 1_555
Co11 Ga5 2.442593 1_555
Co11 Ga34 2.459515 1_555
Co11 Ga34 2.459515 1_554
Co11 Ga9 2.497630 1_554
Co11 Ga9 2.497630 1_555
Co11 Ga0 2.542010 1_655
Co11 Tm1 3.223867 1_554
Co11 Tm1 3.223867 1_555
Co12 Ga22 2.809705 1_554
Co12 Ga18 2.809705 1_555
Co12 Ga22 2.809705 1_555
Co12 Ga18 2.809705 1_554
Co12 Ga19 2.809705 1_555
Co12 Ga19 2.809705 1_554
Co12 Ga23 2.809705 1_554
Co12 Ga23 2.809705 1_555
Co12 Tm8 2.983463 1_555
Co12 Tm5 2.983463 1_555
Co12 Tm4 2.983463 1_555
Co12 Tm9 2.983463 1_555
Co13 Ga24 2.809705 1_555
Co13 Ga24 2.809705 1_554
Co13 Ga20 2.809705 1_455
Co13 Ga20 2.809705 1_454
Co13 Ga21 2.809705 1_545
Co13 Ga21 2.809705 1_544
Co13 Ga25 2.809705 1_444
Co13 Ga25 2.809705 1_445
Co13 Tm6 2.983463 1_455
Co13 Tm10 2.983463 1_555
Co13 Tm11 2.983463 1_445
Co13 Tm7 2.983463 1_545
