# generated using pymatgen
data_Mg4Co5(TeO6)3
_symmetry_space_group_name_H-M   'P 1'
_cell_length_a   8.74098482
_cell_length_b   8.74098482
_cell_length_c   10.49541644
_cell_angle_alpha   85.89987795
_cell_angle_beta   85.89987795
_cell_angle_gamma   61.39033557
_symmetry_Int_Tables_number   1
_chemical_formula_structural   Mg4Co5(TeO6)3
_chemical_formula_sum   'Mg8 Co10 Te6 O36'
_cell_volume   701.55226609
_cell_formula_units_Z   2
loop_
 _symmetry_equiv_pos_site_id
 _symmetry_equiv_pos_as_xyz
  1  'x, y, z'
loop_
 _atom_site_type_symbol
 _atom_site_label
 _atom_site_symmetry_multiplicity
 _atom_site_fract_x
 _atom_site_fract_y
 _atom_site_fract_z
 _atom_site_occupancy
  Mg  Mg0  1  0.93378300  0.65985700  0.42571700  1
  Mg  Mg1  1  0.32164900  0.63253900  0.54126400  1
  Mg  Mg2  1  0.34014300  0.06621700  0.07428300  1
  Mg  Mg3  1  0.36746100  0.67835100  0.95873600  1
  Mg  Mg4  1  0.63253900  0.32164900  0.04126400  1
  Mg  Mg5  1  0.65985700  0.93378300  0.92571700  1
  Mg  Mg6  1  0.06621700  0.34014300  0.57428300  1
  Mg  Mg7  1  0.67835100  0.36746100  0.45873600  1
  Co  Co0  1  0.01208700  0.70635000  0.76980600  1
  Co  Co1  1  0.70635000  0.01208700  0.26980600  1
  Co  Co2  1  0.46125600  0.87257200  0.44337500  1
  Co  Co3  1  0.87257200  0.46125600  0.94337500  1
  Co  Co4  1  0.12742800  0.53874400  0.05662500  1
  Co  Co5  1  0.81672100  0.18327900  0.75000000  1
  Co  Co6  1  0.18327900  0.81672100  0.25000000  1
  Co  Co7  1  0.53874400  0.12742800  0.55662500  1
  Co  Co8  1  0.98791300  0.29365000  0.23019400  1
  Co  Co9  1  0.29365000  0.98791300  0.73019400  1
  Te  Te0  1  0.34437700  0.33338000  0.80239000  1
  Te  Te1  1  0.00000000  0.00000000  0.50000000  1
  Te  Te2  1  0.00000000  0.00000000  0.00000000  1
  Te  Te3  1  0.33338000  0.34437700  0.30239000  1
  Te  Te4  1  0.65562300  0.66662000  0.19761000  1
  Te  Te5  1  0.66662000  0.65562300  0.69761000  1
  O  O0  1  0.41415100  0.11308200  0.89913600  1
  O  O1  1  0.09156000  0.76176700  0.93734500  1
  O  O2  1  0.24078800  0.56854600  0.20475900  1
  O  O3  1  0.07591800  0.06255500  0.33640700  1
  O  O4  1  0.23823300  0.90844000  0.56265500  1
  O  O5  1  0.93744500  0.92408200  0.16359300  1
  O  O6  1  0.42865200  0.41632200  0.43435900  1
  O  O7  1  0.76478400  0.08995700  0.93774200  1
  O  O8  1  0.23521600  0.91004300  0.06225800  1
  O  O9  1  0.72188600  0.77966100  0.32821200  1
  O  O10  1  0.24411700  0.54647100  0.69675500  1
  O  O11  1  0.27811400  0.22033900  0.67178800  1
  O  O12  1  0.90844000  0.23823300  0.06265500  1
  O  O13  1  0.11278300  0.43804300  0.88976400  1
  O  O14  1  0.45352900  0.75588300  0.80324500  1
  O  O15  1  0.57134800  0.58367800  0.56564100  1
  O  O16  1  0.75588300  0.45352900  0.30324500  1
  O  O17  1  0.56195700  0.88721700  0.61023600  1
  O  O18  1  0.43145400  0.75921200  0.29524100  1
  O  O19  1  0.54647100  0.24411700  0.19675500  1
  O  O20  1  0.11308200  0.41415100  0.39913600  1
  O  O21  1  0.88721700  0.56195700  0.11023600  1
  O  O22  1  0.91004300  0.23521600  0.56225800  1
  O  O23  1  0.41632200  0.42865200  0.93435900  1
  O  O24  1  0.75921200  0.43145400  0.79524100  1
  O  O25  1  0.06255500  0.07591800  0.83640700  1
  O  O26  1  0.77966100  0.72188600  0.82821200  1
  O  O27  1  0.58367800  0.57134800  0.06564100  1
  O  O28  1  0.76176700  0.09156000  0.43734500  1
  O  O29  1  0.43804300  0.11278300  0.38976400  1
  O  O30  1  0.58584900  0.88691800  0.10086400  1
  O  O31  1  0.92408200  0.93744500  0.66359300  1
  O  O32  1  0.08995700  0.76478400  0.43774200  1
  O  O33  1  0.22033900  0.27811400  0.17178800  1
  O  O34  1  0.56854600  0.24078800  0.70475900  1
  O  O35  1  0.88691800  0.58584900  0.60086400  1
loop_
_geom_bond_atom_site_label_1
_geom_bond_atom_site_label_2
_geom_bond_distance
_geom_bond_site_symmetry_2
Mg0 O9 1.958255 1_555
Mg0 O35 1.985315 1_555
Mg0 O20 1.986548 1_655
Mg0 O32 1.990200 1_655
Mg1 O10 1.960373 1_555
Mg1 O6 2.041057 1_555
Mg1 O15 2.045280 1_555
Mg1 O32 2.123982 1_555
Mg1 O4 2.183597 1_555
Mg2 O33 1.958255 1_555
Mg2 O0 1.985315 1_554
Mg2 O30 1.986548 1_545
Mg2 O8 1.990200 1_545
Mg3 O14 1.960373 1_555
Mg3 O27 2.041057 1_556
Mg3 O23 2.045280 1_555
Mg3 O8 2.123982 1_556
Mg3 O1 2.183597 1_555
Mg4 O19 1.960373 1_555
Mg4 O23 2.041057 1_554
Mg4 O27 2.045280 1_555
Mg4 O7 2.123982 1_554
Mg4 O12 2.183597 1_555
Mg5 O26 1.958255 1_555
Mg5 O30 1.985315 1_556
Mg5 O0 1.986548 1_565
Mg5 O7 1.990200 1_565
Mg6 O11 1.958255 1_555
Mg6 O20 1.985315 1_555
Mg6 O35 1.986548 1_455
Mg6 O22 1.990200 1_455
Mg7 O16 1.960373 1_555
Mg7 O15 2.041057 1_555
Mg7 O6 2.045280 1_555
Mg7 O22 2.123982 1_555
Mg7 O28 2.183597 1_555
Co0 O10 1.967422 1_555
Co0 O26 2.022704 1_455
Co0 O31 2.056040 1_455
Co0 O1 2.104254 1_555
Co0 O13 2.370534 1_555
Co0 O35 2.664312 1_455
Co1 O19 1.967422 1_555
Co1 O9 2.022704 1_545
Co1 O5 2.056040 1_545
Co1 O28 2.104254 1_555
Co1 O29 2.370534 1_555
Co1 O30 2.664312 1_545
Co2 O18 1.998071 1_555
Co2 O29 2.050806 1_565
Co2 O17 2.053912 1_555
Co2 O4 2.141883 1_555
Co2 O9 2.298965 1_555
Co2 O15 2.517033 1_555
Co3 O24 1.998071 1_555
Co3 O13 2.050806 1_655
Co3 O21 2.053912 1_556
Co3 O12 2.141883 1_556
Co3 O26 2.298965 1_555
Co3 O27 2.517033 1_556
Co4 O2 1.998071 1_555
Co4 O21 2.050806 1_455
Co4 O13 2.053912 1_554
Co4 O1 2.141883 1_554
Co4 O33 2.298965 1_555
Co4 O23 2.517033 1_554
Co5 O24 2.062238 1_555
Co5 O34 2.062238 1_555
Co5 O25 2.132212 1_655
Co5 O31 2.132212 1_545
Co5 O22 2.179677 1_555
Co5 O7 2.179677 1_555
Co6 O18 2.062238 1_555
Co6 O2 2.062238 1_555
Co6 O3 2.132212 1_565
Co6 O5 2.132212 1_455
Co6 O32 2.179677 1_555
Co6 O8 2.179677 1_555
Co7 O34 1.998071 1_555
Co7 O17 2.050806 1_545
Co7 O29 2.053912 1_555
Co7 O28 2.141883 1_555
Co7 O11 2.298965 1_555
Co7 O6 2.517033 1_555
Co8 O16 1.967422 1_555
Co8 O33 2.022704 1_655
Co8 O3 2.056040 1_655
Co8 O12 2.104254 1_555
Co8 O21 2.370534 1_555
Co8 O20 2.664312 1_655
Co9 O14 1.967422 1_555
Co9 O11 2.022704 1_565
Co9 O25 2.056040 1_565
Co9 O4 2.104254 1_555
Co9 O17 2.370534 1_555
Co9 O0 2.664312 1_565
O0 Te0 1.948137 1_555
O1 Te2 1.983380 1_566
O2 Te3 1.963974 1_555
O3 Te1 1.933304 1_555
O4 Te1 1.983380 1_565
O5 Te2 1.933304 1_665
O6 Te3 1.948959 1_555
O7 Te2 1.960319 1_656
O8 Te2 1.960319 1_565
O9 Te4 2.011460 1_555
O10 Te0 1.935703 1_555
O11 Te0 2.011460 1_555
O12 Te2 1.983380 1_655
O13 Te0 1.963878 1_555
O14 Te5 1.935703 1_555
O15 Te5 1.948959 1_555
O16 Te4 1.935703 1_555
O17 Te5 1.963878 1_555
O18 Te4 1.963974 1_555
O19 Te3 1.935703 1_555
O20 Te3 1.948137 1_555
O21 Te4 1.963878 1_555
O22 Te1 1.960319 1_655
O23 Te0 1.948959 1_555
O24 Te5 1.963974 1_555
O25 Te2 1.933304 1_556
O26 Te5 2.011460 1_555
O27 Te4 1.948959 1_555
O28 Te1 1.983380 1_655
O29 Te3 1.963878 1_555
O30 Te4 1.948137 1_555
O31 Te1 1.933304 1_665
O32 Te1 1.960319 1_565
O33 Te3 2.011460 1_555
O34 Te0 1.963974 1_555
O35 Te5 1.948137 1_555
