# generated using pymatgen
data_EuTmO3
_symmetry_space_group_name_H-M   'P 1'
_cell_length_a   6.01765000
_cell_length_b   8.24291100
_cell_length_c   5.80432200
_cell_angle_alpha   90.00000000
_cell_angle_beta   90.00000000
_cell_angle_gamma   90.00000000
_symmetry_Int_Tables_number   1
_chemical_formula_structural   EuTmO3
_chemical_formula_sum   'Eu4 Tm4 O12'
_cell_volume   287.91151356
_cell_formula_units_Z   4
loop_
 _symmetry_equiv_pos_site_id
 _symmetry_equiv_pos_as_xyz
  1  'x, y, z'
loop_
 _atom_site_type_symbol
 _atom_site_label
 _atom_site_symmetry_multiplicity
 _atom_site_fract_x
 _atom_site_fract_y
 _atom_site_fract_z
 _atom_site_occupancy
  Eu  Eu0  1  0.05271700  0.25000000  0.99031100  1
  Eu  Eu1  1  0.44728300  0.75000000  0.49031100  1
  Eu  Eu2  1  0.55271700  0.25000000  0.50968900  1
  Eu  Eu3  1  0.94728300  0.75000000  0.00968900  1
  Tm  Tm0  1  0.00000000  0.00000000  0.50000000  1
  Tm  Tm1  1  0.00000000  0.50000000  0.50000000  1
  Tm  Tm2  1  0.50000000  0.00000000  0.00000000  1
  Tm  Tm3  1  0.50000000  0.50000000  0.00000000  1
  O  O0  1  0.06493800  0.75000000  0.62801200  1
  O  O1  1  0.18480400  0.56593800  0.18135100  1
  O  O2  1  0.18480400  0.93406200  0.18135100  1
  O  O3  1  0.31519600  0.06593800  0.68135100  1
  O  O4  1  0.31519600  0.43406200  0.68135100  1
  O  O5  1  0.43506200  0.25000000  0.12801200  1
  O  O6  1  0.56493800  0.75000000  0.87198800  1
  O  O7  1  0.68480400  0.93406200  0.31864900  1
  O  O8  1  0.68480400  0.56593800  0.31864900  1
  O  O9  1  0.81519600  0.06593800  0.81864900  1
  O  O10  1  0.81519600  0.43406200  0.81864900  1
  O  O11  1  0.93506200  0.25000000  0.37198800  1
loop_
_geom_bond_atom_site_label_1
_geom_bond_atom_site_label_2
_geom_bond_distance
_geom_bond_site_symmetry_2
Eu0 O9 2.310334 1_455
Eu0 O10 2.310334 1_455
Eu0 O11 2.325761 1_456
Eu0 O5 2.435689 1_556
Eu0 O3 2.830670 1_555
Eu0 O4 2.830670 1_555
Eu0 O1 2.939978 1_556
Eu0 O2 2.939978 1_546
Eu1 O7 2.310334 1_555
Eu1 O8 2.310334 1_555
Eu1 O6 2.325761 1_555
Eu1 O0 2.435689 1_555
Eu1 O2 2.830670 1_555
Eu1 O1 2.830670 1_555
Eu1 O4 2.939978 1_555
Eu1 O3 2.939978 1_565
Eu2 O3 2.310334 1_555
Eu2 O4 2.310334 1_555
Eu2 O5 2.325761 1_555
Eu2 O11 2.435689 1_555
Eu2 O10 2.830670 1_555
Eu2 O9 2.830670 1_555
Eu2 O8 2.939978 1_555
Eu2 O7 2.939978 1_545
Eu3 O2 2.310334 1_655
Eu3 O1 2.310334 1_655
Eu3 O0 2.325761 1_654
Eu3 O6 2.435689 1_554
Eu3 O7 2.830670 1_555
Eu3 O8 2.830670 1_555
Eu3 O10 2.939978 1_554
Eu3 O9 2.939978 1_564
O0 Tm0 2.225171 1_565
O0 Tm1 2.225171 1_555
O1 Tm1 2.225523 1_555
O1 Tm3 2.236301 1_555
O2 Tm0 2.225523 1_565
O2 Tm2 2.236301 1_565
O3 Tm2 2.225523 1_556
O3 Tm0 2.236301 1_555
O4 Tm3 2.225523 1_556
O4 Tm1 2.236301 1_555
O5 Tm2 2.225171 1_555
O5 Tm3 2.225171 1_555
O6 Tm3 2.225171 1_556
O6 Tm2 2.225171 1_566
O7 Tm2 2.225523 1_565
O7 Tm0 2.236301 1_665
O8 Tm3 2.225523 1_555
O8 Tm1 2.236301 1_655
O9 Tm0 2.225523 1_655
O9 Tm2 2.236301 1_556
O10 Tm1 2.225523 1_655
O10 Tm3 2.236301 1_556
O11 Tm0 2.225171 1_655
O11 Tm1 2.225171 1_655
