# generated using pymatgen
data_BaReH7
_symmetry_space_group_name_H-M   'P 1'
_cell_length_a   3.56963339
_cell_length_b   5.13751067
_cell_length_c   9.79473300
_cell_angle_alpha   90.00000000
_cell_angle_beta   90.00000000
_cell_angle_gamma   89.59843578
_symmetry_Int_Tables_number   1
_chemical_formula_structural   BaReH7
_chemical_formula_sum   'Ba2 Re2 H14'
_cell_volume   179.62148672
_cell_formula_units_Z   2
loop_
 _symmetry_equiv_pos_site_id
 _symmetry_equiv_pos_as_xyz
  1  'x, y, z'
loop_
 _atom_site_type_symbol
 _atom_site_label
 _atom_site_symmetry_multiplicity
 _atom_site_fract_x
 _atom_site_fract_y
 _atom_site_fract_z
 _atom_site_occupancy
  Ba  Ba0  1  0.00000000  0.00000000  0.00000000  1
  Ba  Ba1  1  0.00000000  0.00000000  0.50000000  1
  Re  Re0  1  0.44796400  0.51858000  0.25000000  1
  Re  Re1  1  0.55203600  0.48142000  0.75000000  1
  H  H0  1  0.43295600  0.84960500  0.25000000  1
  H  H1  1  0.56704400  0.15039500  0.75000000  1
  H  H2  1  0.50785500  0.63349900  0.41147000  1
  H  H3  1  0.49214500  0.36650100  0.91147000  1
  H  H4  1  0.49214500  0.36650100  0.58853000  1
  H  H5  1  0.50785500  0.63349900  0.08853000  1
  H  H6  1  0.03901400  0.51752500  0.34003200  1
  H  H7  1  0.96098600  0.48247500  0.84003200  1
  H  H8  1  0.96098600  0.48247500  0.65996800  1
  H  H9  1  0.03901400  0.51752500  0.15996800  1
  H  H10  1  0.49414400  0.24988800  0.35465000  1
  H  H11  1  0.50585600  0.75011200  0.85465000  1
  H  H12  1  0.50585600  0.75011200  0.64535000  1
  H  H13  1  0.49414400  0.24988800  0.14535000  1
loop_
_geom_bond_atom_site_label_1
_geom_bond_atom_site_label_2
_geom_bond_distance
_geom_bond_site_symmetry_2
Ba0 H11 2.611149 1_444
Ba0 H13 2.611149 1_555
Ba0 H11 2.627375 1_544
Ba0 H13 2.627375 1_455
Ba0 H5 2.725778 1_445
Ba0 H3 2.725778 1_554
Ba0 H5 2.745147 1_545
Ba0 H3 2.745147 1_454
Ba1 H12 2.611149 1_445
Ba1 H10 2.611149 1_555
Ba1 H12 2.627375 1_545
Ba1 H10 2.627375 1_455
Ba1 H2 2.725778 1_445
Ba1 H4 2.725778 1_555
Ba1 H4 2.745147 1_455
Ba1 H2 2.745147 1_545
H0 Re0 1.701113 1_555
H1 Re1 1.701113 1_555
H2 Re0 1.702164 1_555
H3 Re1 1.702164 1_555
H4 Re1 1.702164 1_555
H5 Re0 1.702164 1_555
H6 Re0 1.705521 1_555
H7 Re1 1.705521 1_555
H8 Re1 1.705521 1_555
H9 Re0 1.705521 1_555
H10 Re0 1.726318 1_555
H11 Re1 1.726318 1_555
H12 Re1 1.726318 1_555
H13 Re0 1.726318 1_555
