# generated using pymatgen
data_Mg14ZnSb
_symmetry_space_group_name_H-M   'P 1'
_cell_length_a   6.31105087
_cell_length_b   6.47228631
_cell_length_c   10.28681543
_cell_angle_alpha   90.00000000
_cell_angle_beta   90.00000000
_cell_angle_gamma   120.84879092
_symmetry_Int_Tables_number   1
_chemical_formula_structural   Mg14ZnSb
_chemical_formula_sum   'Mg14 Zn1 Sb1'
_cell_volume   360.73855492
_cell_formula_units_Z   1
loop_
 _symmetry_equiv_pos_site_id
 _symmetry_equiv_pos_as_xyz
  1  'x, y, z'
loop_
 _atom_site_type_symbol
 _atom_site_label
 _atom_site_symmetry_multiplicity
 _atom_site_fract_x
 _atom_site_fract_y
 _atom_site_fract_z
 _atom_site_occupancy
  Mg  Mg0  1  0.16852073  0.33425987  0.62500000  1
  Mg  Mg1  1  0.16818141  0.83409021  0.62500000  1
  Mg  Mg2  1  0.66888323  0.33391481  0.12500000  1
  Mg  Mg3  1  0.66647054  0.33361008  0.62500000  1
  Mg  Mg4  1  0.66888323  0.83496742  0.12500000  1
  Mg  Mg5  1  0.66647054  0.83285946  0.62500000  1
  Mg  Mg6  1  0.33189277  0.17012927  0.37269680  1
  Mg  Mg7  1  0.33189277  0.17012927  0.87730320  1
  Mg  Mg8  1  0.33189277  0.66176450  0.37269680  1
  Mg  Mg9  1  0.33189277  0.66176450  0.87730320  1
  Mg  Mg10  1  0.83589591  0.16794845  0.37340244  1
  Mg  Mg11  1  0.83589591  0.16794845  0.87659756  1
  Mg  Mg12  1  0.83150884  0.66575492  0.37681856  1
  Mg  Mg13  1  0.83150884  0.66575492  0.87318144  1
  Zn  Zn0  1  0.16352220  0.33176060  0.12500000  1
  Sb  Sb0  1  0.16668755  0.83334328  0.12500000  1
loop_
_geom_bond_atom_site_label_1
_geom_bond_atom_site_label_2
_geom_bond_distance
_geom_bond_site_symmetry_2
Mg0 Mg5 3.144745 1_555
Mg0 Mg3 3.144745 1_555
Mg0 Mg11 3.153802 1_455
Mg0 Mg10 3.153802 1_455
Mg0 Mg5 3.166310 1_445
Mg0 Mg3 3.166310 1_455
Mg0 Mg7 3.170314 1_555
Mg0 Mg6 3.170314 1_555
Mg0 Mg9 3.170321 1_555
Mg0 Mg8 3.170321 1_555
Mg0 Mg1 3.236144 1_545
Mg0 Mg1 3.236144 1_555
Mg1 Mg12 3.137727 1_455
Mg1 Mg13 3.137727 1_455
Mg1 Mg3 3.148820 1_565
Mg1 Mg5 3.148820 1_555
Mg1 Mg3 3.162245 1_455
Mg1 Mg5 3.162246 1_455
Mg1 Mg9 3.198336 1_555
Mg1 Mg8 3.198336 1_555
Mg1 Mg7 3.198343 1_565
Mg1 Mg6 3.198343 1_565
Mg2 Zn0 3.128864 1_655
Mg2 Mg6 3.134823 1_555
Mg2 Mg7 3.134823 1_554
Mg2 Sb0 3.147071 1_655
Mg2 Sb0 3.164005 1_545
Mg2 Zn0 3.182232 1_555
Mg2 Mg4 3.229330 1_545
Mg2 Mg4 3.242956 1_555
Mg3 Mg7 3.165904 1_555
Mg3 Mg6 3.165904 1_555
Mg3 Mg5 3.231285 1_555
Mg3 Mg5 3.241001 1_545
Mg4 Zn0 3.128864 1_665
Mg4 Mg8 3.134823 1_555
Mg4 Mg9 3.134823 1_554
Mg4 Sb0 3.147072 1_655
Mg4 Sb0 3.164005 1_555
Mg4 Zn0 3.182232 1_555
Mg5 Mg9 3.165904 1_555
Mg5 Mg8 3.165904 1_555
Mg6 Zn0 3.139403 1_555
Mg6 Sb0 3.162293 1_545
Mg6 Mg8 3.182004 1_555
Mg6 Mg8 3.290282 1_545
Mg7 Zn0 3.139403 1_556
Mg7 Sb0 3.162293 1_546
Mg7 Mg9 3.182004 1_555
Mg7 Mg9 3.290282 1_545
Mg8 Zn0 3.139410 1_555
Mg8 Sb0 3.162287 1_555
Mg9 Zn0 3.139410 1_556
Mg9 Sb0 3.162287 1_556
Mg10 Zn0 3.111355 1_655
Mg10 Mg8 3.123055 1_655
Mg10 Mg6 3.123056 1_655
Mg10 Mg2 3.155215 1_555
Mg10 Mg4 3.155222 1_545
Mg10 Mg8 3.188058 1_545
Mg10 Mg6 3.188058 1_555
Mg10 Mg3 3.188596 1_555
Mg10 Mg5 3.188602 1_545
Mg10 Mg12 3.236421 1_545
Mg10 Mg12 3.236421 1_555
Mg11 Zn0 3.111355 1_656
Mg11 Mg9 3.123055 1_655
Mg11 Mg7 3.123056 1_655
Mg11 Mg2 3.155215 1_556
Mg11 Mg4 3.155222 1_546
Mg11 Mg9 3.188058 1_545
Mg11 Mg7 3.188058 1_555
Mg11 Mg3 3.188596 1_555
Mg11 Mg5 3.188602 1_545
Mg11 Mg13 3.236421 1_545
Mg11 Mg13 3.236421 1_555
Mg12 Mg6 3.140223 1_555
Mg12 Mg8 3.140223 1_555
Mg12 Mg5 3.150822 1_555
Mg12 Mg3 3.150829 1_555
Mg12 Sb0 3.163591 1_655
Mg12 Mg6 3.171553 1_665
Mg12 Mg8 3.171553 1_655
Mg12 Mg4 3.180535 1_555
Mg12 Mg2 3.180541 1_555
Mg13 Mg7 3.140223 1_555
Mg13 Mg9 3.140223 1_555
Mg13 Mg5 3.150822 1_555
Mg13 Mg3 3.150829 1_555
Mg13 Sb0 3.163591 1_656
Mg13 Mg7 3.171553 1_665
Mg13 Mg9 3.171553 1_655
Mg13 Mg4 3.180535 1_556
Mg13 Mg2 3.180541 1_556
Sb0 Zn0 3.236189 1_565
Sb0 Zn0 3.236189 1_555
