# generated using pymatgen
data_GaO2
_symmetry_space_group_name_H-M   'P 1'
_cell_length_a   6.03201830
_cell_length_b   5.88058186
_cell_length_c   5.15579256
_cell_angle_alpha   65.88157003
_cell_angle_beta   62.84674292
_cell_angle_gamma   51.27168705
_symmetry_Int_Tables_number   1
_chemical_formula_structural   GaO2
_chemical_formula_sum   'Ga4 O8'
_cell_volume   124.93614434
_cell_formula_units_Z   4
loop_
 _symmetry_equiv_pos_site_id
 _symmetry_equiv_pos_as_xyz
  1  'x, y, z'
loop_
 _atom_site_type_symbol
 _atom_site_label
 _atom_site_symmetry_multiplicity
 _atom_site_fract_x
 _atom_site_fract_y
 _atom_site_fract_z
 _atom_site_occupancy
  Ga  Ga0  1  0.04132400  0.45867600  0.04132400  1
  Ga  Ga1  1  0.45867600  0.04132400  0.45867600  1
  Ga  Ga2  1  0.20867600  0.79132400  0.20867600  1
  Ga  Ga3  1  0.79132400  0.20867600  0.79132400  1
  O  O0  1  0.38490500  0.38490500  0.11509500  1
  O  O1  1  0.11509500  0.11509500  0.38490500  1
  O  O2  1  0.86509500  0.86509500  0.13490500  1
  O  O3  1  0.13490500  0.13490500  0.86509500  1
  O  O4  1  0.12500000  0.62500000  0.62500000  1
  O  O5  1  0.62500000  0.12500000  0.62500000  1
  O  O6  1  0.62500000  0.62500000  0.12500000  1
  O  O7  1  0.62500000  0.62500000  0.62500000  1
loop_
_geom_bond_atom_site_label_1
_geom_bond_atom_site_label_2
_geom_bond_distance
_geom_bond_site_symmetry_2
Ga0 O4 1.931802 1_554
Ga0 O6 1.931802 1_455
Ga0 O0 2.021812 1_555
Ga0 O1 2.021812 1_555
Ga0 O2 2.090485 1_455
Ga0 O3 2.090485 1_554
Ga1 O7 1.931802 1_545
Ga1 O5 1.931802 1_555
Ga1 O0 2.021812 1_555
Ga1 O1 2.021812 1_555
Ga1 O3 2.090485 1_555
Ga1 O2 2.090485 1_545
Ga2 O4 1.931802 1_555
Ga2 O6 1.931802 1_555
Ga2 O2 2.021812 1_455
Ga2 O3 2.021812 1_564
Ga2 O1 2.090485 1_565
Ga2 O0 2.090485 1_555
Ga3 O5 1.931802 1_555
Ga3 O7 1.931802 1_555
Ga3 O2 2.021812 1_546
Ga3 O3 2.021812 1_655
Ga3 O0 2.090485 1_556
Ga3 O1 2.090485 1_655
