# generated using pymatgen
data_TaCr3(CuS4)2
_symmetry_space_group_name_H-M   'P 1'
_cell_length_a   5.84587500
_cell_length_b   7.68808700
_cell_length_c   12.07071600
_cell_angle_alpha   90.00000000
_cell_angle_beta   90.00000000
_cell_angle_gamma   90.00000000
_symmetry_Int_Tables_number   1
_chemical_formula_structural   TaCr3(CuS4)2
_chemical_formula_sum   'Ta2 Cr6 Cu4 S16'
_cell_volume   542.50137840
_cell_formula_units_Z   2
loop_
 _symmetry_equiv_pos_site_id
 _symmetry_equiv_pos_as_xyz
  1  'x, y, z'
loop_
 _atom_site_type_symbol
 _atom_site_label
 _atom_site_symmetry_multiplicity
 _atom_site_fract_x
 _atom_site_fract_y
 _atom_site_fract_z
 _atom_site_occupancy
  Ta  Ta0  1  0.77500500  0.00000000  0.27015800  1
  Ta  Ta1  1  0.22499500  0.50000000  0.77015800  1
  Cr  Cr0  1  0.73407800  0.50000000  0.73312400  1
  Cr  Cr1  1  0.26592200  0.00000000  0.23312400  1
  Cr  Cr2  1  0.87312400  0.00000000  0.04142900  1
  Cr  Cr3  1  0.56872000  0.50000000  0.93675000  1
  Cr  Cr4  1  0.12687600  0.50000000  0.54142900  1
  Cr  Cr5  1  0.43128000  0.00000000  0.43675000  1
  Cu  Cu0  1  0.89318800  0.00000000  0.69730100  1
  Cu  Cu1  1  0.59918200  0.50000000  0.39718000  1
  Cu  Cu2  1  0.10681200  0.50000000  0.19730100  1
  Cu  Cu3  1  0.40081800  0.00000000  0.89718000  1
  S  S0  1  0.00876300  0.20720100  0.15563600  1
  S  S1  1  0.49694000  0.27515700  0.82506600  1
  S  S2  1  0.99123700  0.29279900  0.65563600  1
  S  S3  1  0.50306000  0.22484300  0.32506600  1
  S  S4  1  0.50306000  0.77515700  0.32506600  1
  S  S5  1  0.99123700  0.70720100  0.65563600  1
  S  S6  1  0.49694000  0.72484300  0.82506600  1
  S  S7  1  0.00876300  0.79279900  0.15563600  1
  S  S8  1  0.55870800  0.00000000  0.59734200  1
  S  S9  1  0.98179500  0.50000000  0.37683600  1
  S  S10  1  0.44129200  0.50000000  0.09734200  1
  S  S11  1  0.01820500  0.00000000  0.87683600  1
  S  S12  1  0.94492300  0.50000000  0.90818500  1
  S  S13  1  0.50954700  0.00000000  0.08029200  1
  S  S14  1  0.05507700  0.00000000  0.40818500  1
  S  S15  1  0.49045300  0.50000000  0.58029200  1
loop_
_geom_bond_atom_site_label_1
_geom_bond_atom_site_label_2
_geom_bond_distance
_geom_bond_site_symmetry_2
Cr0 S15 2.330581 1_555
Cr0 S5 2.381681 1_555
Cr0 S2 2.381681 1_555
Cr0 S12 2.446319 1_555
Cr0 S6 2.478213 1_555
Cr0 S1 2.478213 1_555
Cr1 S13 2.330581 1_555
Cr1 S0 2.381681 1_555
Cr1 S7 2.381681 1_545
Cr1 S14 2.446319 1_555
Cr1 S3 2.478213 1_555
Cr1 S4 2.478213 1_545
Cr2 S11 2.160211 1_654
Cr2 S13 2.176578 1_555
Cr2 S7 2.250944 1_645
Cr2 S0 2.250944 1_655
Cr3 S10 2.076667 1_556
Cr3 S12 2.226101 1_555
Cr3 S6 2.231943 1_555
Cr3 S1 2.231943 1_555
Cr4 S9 2.160211 1_455
Cr4 S15 2.176578 1_555
Cr4 S5 2.250944 1_455
Cr4 S2 2.250944 1_455
Cr5 S8 2.076667 1_555
Cr5 S14 2.226101 1_555
Cr5 S3 2.231943 1_555
Cr5 S4 2.231943 1_545
Cu0 S11 2.287031 1_655
Cu0 S8 2.297637 1_555
Cu0 S2 2.376713 1_555
Cu0 S5 2.376713 1_545
Cu1 S9 2.250148 1_555
Cu1 S15 2.299870 1_555
Cu1 S3 2.355528 1_555
Cu1 S4 2.355528 1_555
Cu2 S9 2.287031 1_455
Cu2 S10 2.297637 1_555
Cu2 S0 2.376713 1_555
Cu2 S7 2.376713 1_555
Cu3 S11 2.250148 1_555
Cu3 S13 2.299870 1_556
Cu3 S6 2.355528 1_545
Cu3 S1 2.355528 1_555
S0 Ta0 2.513143 1_455
S1 Ta1 2.440226 1_555
S2 Ta1 2.513143 1_655
S3 Ta0 2.440226 1_555
S4 Ta0 2.440226 1_565
S5 Ta1 2.513143 1_655
S6 Ta1 2.440226 1_555
S7 Ta0 2.513143 1_465
S12 Ta1 2.335911 1_655
S13 Ta0 2.767783 1_555
S14 Ta0 2.335911 1_455
S15 Ta1 2.767783 1_555
