# generated using pymatgen
data_Ta2ZnCuO7
_symmetry_space_group_name_H-M   'P 1'
_cell_length_a   8.39357900
_cell_length_b   10.69419500
_cell_length_c   11.19462805
_cell_angle_alpha   85.61934186
_cell_angle_beta   90.00000000
_cell_angle_gamma   90.00000000
_symmetry_Int_Tables_number   1
_chemical_formula_structural   Ta2ZnCuO7
_chemical_formula_sum   'Ta12 Zn6 Cu6 O42'
_cell_volume   1001.92299079
_cell_formula_units_Z   6
loop_
 _symmetry_equiv_pos_site_id
 _symmetry_equiv_pos_as_xyz
  1  'x, y, z'
loop_
 _atom_site_type_symbol
 _atom_site_label
 _atom_site_symmetry_multiplicity
 _atom_site_fract_x
 _atom_site_fract_y
 _atom_site_fract_z
 _atom_site_occupancy
  Ta  Ta0  1  0.21747200  0.28818900  0.83428300  1
  Ta  Ta1  1  0.74667300  0.37859000  0.83455500  1
  Ta  Ta2  1  0.25332700  0.87859000  0.83455500  1
  Ta  Ta3  1  0.78252800  0.78818900  0.83428300  1
  Ta  Ta4  1  0.28895800  0.96640900  0.52067000  1
  Ta  Ta5  1  0.74667300  0.12141000  0.16544500  1
  Ta  Ta6  1  0.71104200  0.46640900  0.52067000  1
  Ta  Ta7  1  0.25332700  0.62141000  0.16544500  1
  Ta  Ta8  1  0.28895800  0.53359100  0.47933000  1
  Ta  Ta9  1  0.71104200  0.03359100  0.47933000  1
  Ta  Ta10  1  0.78252800  0.71181100  0.16571700  1
  Ta  Ta11  1  0.21747200  0.21181100  0.16571700  1
  Zn  Zn0  1  0.43254400  0.57682300  0.87255500  1
  Zn  Zn1  1  0.94391400  0.75000000  0.50000000  1
  Zn  Zn2  1  0.43254400  0.92317700  0.12744500  1
  Zn  Zn3  1  0.05608600  0.25000000  0.50000000  1
  Zn  Zn4  1  0.56745600  0.42317700  0.12744500  1
  Zn  Zn5  1  0.56745600  0.07682300  0.87255500  1
  Cu  Cu0  1  0.91751200  0.41549700  0.20358500  1
  Cu  Cu1  1  0.08248800  0.58450300  0.79641500  1
  Cu  Cu2  1  0.41977800  0.25000000  0.50000000  1
  Cu  Cu3  1  0.91751200  0.08450300  0.79641500  1
  Cu  Cu4  1  0.58022200  0.75000000  0.50000000  1
  Cu  Cu5  1  0.08248800  0.91549700  0.20358500  1
  O  O0  1  0.73413400  0.96307700  0.80183400  1
  O  O1  1  0.75983000  0.29581500  0.16102900  1
  O  O2  1  0.83652500  0.75000000  0.00000000  1
  O  O3  1  0.89567600  0.11599800  0.49684800  1
  O  O4  1  0.39670200  0.57171500  0.05214000  1
  O  O5  1  0.92893700  0.71144000  0.73760300  1
  O  O6  1  0.34294500  0.94064900  0.68748600  1
  O  O7  1  0.10432400  0.61599800  0.49684800  1
  O  O8  1  0.75223700  0.86410900  0.53355000  1
  O  O9  1  0.39670200  0.92828500  0.94786000  1
  O  O10  1  0.75223700  0.63589100  0.46645000  1
  O  O11  1  0.44729800  0.88667800  0.43880000  1
  O  O12  1  0.94651200  0.05335100  0.15235000  1
  O  O13  1  0.07106300  0.21144000  0.73760300  1
  O  O14  1  0.65705500  0.05935100  0.31251400  1
  O  O15  1  0.34294500  0.55935100  0.31251400  1
  O  O16  1  0.92893700  0.78856000  0.26239700  1
  O  O17  1  0.60329800  0.42828500  0.94786000  1
  O  O18  1  0.26586600  0.46307700  0.80183400  1
  O  O19  1  0.55270200  0.11332200  0.56120000  1
  O  O20  1  0.40272000  0.29908600  0.17958400  1
  O  O21  1  0.24776300  0.13589100  0.46645000  1
  O  O22  1  0.05348800  0.55335100  0.15235000  1
  O  O23  1  0.24776300  0.36410900  0.53355000  1
  O  O24  1  0.89567600  0.38400200  0.50315200  1
  O  O25  1  0.55270200  0.38667800  0.43880000  1
  O  O26  1  0.10432400  0.88400200  0.50315200  1
  O  O27  1  0.59728000  0.79908600  0.17958400  1
  O  O28  1  0.59728000  0.70091400  0.82041600  1
  O  O29  1  0.05348800  0.94664900  0.84765000  1
  O  O30  1  0.07106300  0.28856000  0.26239700  1
  O  O31  1  0.73413400  0.53692300  0.19816600  1
  O  O32  1  0.16347500  0.25000000  0.00000000  1
  O  O33  1  0.24017000  0.79581500  0.16102900  1
  O  O34  1  0.60329800  0.07171500  0.05214000  1
  O  O35  1  0.94651200  0.44664900  0.84765000  1
  O  O36  1  0.26586600  0.03692300  0.19816600  1
  O  O37  1  0.75983000  0.20418500  0.83897100  1
  O  O38  1  0.44729800  0.61332200  0.56120000  1
  O  O39  1  0.65705500  0.44064900  0.68748600  1
  O  O40  1  0.24017000  0.70418500  0.83897100  1
  O  O41  1  0.40272000  0.20091400  0.82041600  1
loop_
_geom_bond_atom_site_label_1
_geom_bond_atom_site_label_2
_geom_bond_distance
_geom_bond_site_symmetry_2
Cu0 O22 1.917236 1_655
Cu0 O1 1.926123 1_555
Cu0 O30 1.949569 1_655
Cu0 O31 2.011720 1_555
Cu1 O35 1.917236 1_455
Cu1 O40 1.926123 1_555
Cu1 O5 1.949569 1_455
Cu1 O18 2.011720 1_555
Cu2 O19 1.922929 1_555
Cu2 O25 1.922929 1_555
Cu2 O23 1.945466 1_555
Cu2 O21 1.945466 1_555
Cu3 O29 1.917236 1_645
Cu3 O37 1.926123 1_555
Cu3 O13 1.949569 1_655
Cu3 O0 2.011720 1_545
Cu4 O11 1.922929 1_555
Cu4 O38 1.922929 1_555
Cu4 O10 1.945466 1_555
Cu4 O8 1.945466 1_555
Cu5 O12 1.917236 1_465
Cu5 O33 1.926123 1_555
Cu5 O16 1.949569 1_455
Cu5 O36 2.011720 1_565
O0 Ta3 1.921233 1_555
O0 Zn5 2.052036 1_565
O1 Ta5 1.865270 1_555
O1 Zn4 2.127330 1_555
O2 Ta3 1.923021 1_554
O2 Ta10 1.923021 1_555
O3 Ta9 1.800889 1_555
O3 Zn3 1.968607 1_655
O4 Ta7 1.855401 1_555
O4 Zn0 2.029377 1_554
O4 Zn4 2.254680 1_555
O5 Ta3 1.868399 1_555
O6 Ta2 1.884130 1_555
O6 Ta4 1.920933 1_555
O7 Ta8 1.800889 1_555
O7 Zn1 1.968607 1_455
O8 Ta9 1.898677 1_565
O8 Zn1 2.070902 1_555
O9 Ta2 1.855401 1_555
O9 Zn2 2.029377 1_556
O9 Zn5 2.254680 1_565
O10 Ta6 1.898677 1_555
O10 Zn1 2.070902 1_555
O11 Ta4 1.858153 1_555
O12 Ta5 1.838773 1_555
O13 Ta0 1.868399 1_555
O14 Ta5 1.884130 1_555
O14 Ta9 1.920933 1_555
O15 Ta7 1.884130 1_555
O15 Ta8 1.920933 1_555
O16 Ta10 1.868399 1_555
O17 Ta1 1.855401 1_555
O17 Zn4 2.029377 1_556
O17 Zn0 2.254680 1_555
O18 Ta0 1.921233 1_555
O18 Zn0 2.052036 1_555
O19 Ta9 1.858153 1_555
O20 Ta11 1.826210 1_555
O20 Zn4 1.973664 1_555
O21 Ta4 1.898677 1_545
O21 Zn3 2.070902 1_555
O22 Ta7 1.838773 1_555
O23 Ta8 1.898677 1_555
O23 Zn3 2.070902 1_555
O24 Ta6 1.800889 1_555
O24 Zn3 1.968607 1_655
O25 Ta6 1.858153 1_555
O26 Ta4 1.800889 1_555
O26 Zn1 1.968607 1_455
O27 Ta10 1.826210 1_555
O27 Zn2 1.973664 1_555
O28 Ta3 1.826210 1_555
O28 Zn0 1.973664 1_555
O29 Ta2 1.838773 1_555
O30 Ta11 1.868399 1_555
O31 Ta10 1.921233 1_555
O31 Zn4 2.052036 1_555
O32 Ta0 1.923021 1_554
O32 Ta11 1.923021 1_555
O33 Ta7 1.865270 1_555
O33 Zn2 2.127330 1_555
O34 Ta5 1.855401 1_555
O34 Zn5 2.029377 1_554
O34 Zn2 2.254680 1_545
O35 Ta1 1.838773 1_555
O36 Ta11 1.921233 1_555
O36 Zn2 2.052036 1_545
O37 Ta1 1.865270 1_555
O37 Zn5 2.127330 1_555
O38 Ta8 1.858153 1_555
O39 Ta1 1.884130 1_555
O39 Ta6 1.920933 1_555
O40 Ta2 1.865270 1_555
O40 Zn0 2.127330 1_555
O41 Ta0 1.826210 1_555
O41 Zn5 1.973664 1_555
