# generated using pymatgen
data_Sm(ZnGa)2
_symmetry_space_group_name_H-M   'P 1'
_cell_length_a   6.09591652
_cell_length_b   6.09591652
_cell_length_c   6.09591652
_cell_angle_alpha   140.25188202
_cell_angle_beta   140.25188202
_cell_angle_gamma   57.47105077
_symmetry_Int_Tables_number   1
_chemical_formula_structural   Sm(ZnGa)2
_chemical_formula_sum   'Sm1 Zn2 Ga2'
_cell_volume   91.82083630
_cell_formula_units_Z   1
loop_
 _symmetry_equiv_pos_site_id
 _symmetry_equiv_pos_as_xyz
  1  'x, y, z'
loop_
 _atom_site_type_symbol
 _atom_site_label
 _atom_site_symmetry_multiplicity
 _atom_site_fract_x
 _atom_site_fract_y
 _atom_site_fract_z
 _atom_site_occupancy
  Sm  Sm0  1  0.00000000  0.00000000  -0.00000000  1
  Zn  Zn0  1  0.75000000  0.25000000  0.50000000  1
  Zn  Zn1  1  0.25000000  0.75000000  0.50000000  1
  Ga  Ga0  1  0.61421310  0.61421310  0.00000000  1
  Ga  Ga1  1  0.38578690  0.38578690  -0.00000000  1
loop_
_geom_bond_atom_site_label_1
_geom_bond_atom_site_label_2
_geom_bond_distance
_geom_bond_site_symmetry_2
Sm0 Zn0 3.381911 1_555
Sm0 Zn1 3.381911 1_444
Sm0 Zn1 3.381911 1_544
Sm0 Zn1 3.381911 1_545
Sm0 Zn1 3.381911 1_555
Sm0 Zn0 3.381911 1_455
Sm0 Zn0 3.381911 1_454
Sm0 Zn0 3.381911 1_444
Ga0 Ga1 2.441965 1_555
Ga0 Zn0 2.530165 1_554
Ga0 Zn1 2.530165 1_554
Ga0 Zn1 2.530165 1_655
Ga0 Zn0 2.530165 1_565
Ga0 Sm0 3.174886 1_655
Ga0 Sm0 3.174886 1_666
Ga0 Sm0 3.174886 1_554
Ga0 Sm0 3.174886 1_565
Ga1 Zn0 2.530165 1_555
Ga1 Zn0 2.530165 1_454
Ga1 Zn1 2.530165 1_555
Ga1 Zn1 2.530165 1_544
Ga1 Sm0 3.174886 1_655
Ga1 Sm0 3.174886 1_666
Ga1 Sm0 3.174886 1_554
Ga1 Sm0 3.174886 1_565
