# generated using pymatgen
data_SrYCoO4
_symmetry_space_group_name_H-M   'P 1'
_cell_length_a   5.31436885
_cell_length_b   6.78861041
_cell_length_c   10.90515114
_cell_angle_alpha   89.95244643
_cell_angle_beta   89.91998544
_cell_angle_gamma   66.88946736
_symmetry_Int_Tables_number   1
_chemical_formula_structural   SrYCoO4
_chemical_formula_sum   'Sr4 Y4 Co4 O16'
_cell_volume   361.85395042
_cell_formula_units_Z   4
loop_
 _symmetry_equiv_pos_site_id
 _symmetry_equiv_pos_as_xyz
  1  'x, y, z'
loop_
 _atom_site_type_symbol
 _atom_site_label
 _atom_site_symmetry_multiplicity
 _atom_site_fract_x
 _atom_site_fract_y
 _atom_site_fract_z
 _atom_site_occupancy
  Sr  Sr0  1  0.85601800  0.29179700  0.25489700  1
  Sr  Sr1  1  0.36083900  0.29137200  0.49582500  1
  Sr  Sr2  1  0.85174600  0.29406100  0.75040400  1
  Sr  Sr3  1  0.34609500  0.29408300  0.99921700  1
  Y  Y0  1  0.65767200  0.71861800  0.51272800  1
  Y  Y1  1  0.15411800  0.71771700  0.73715100  1
  Y  Y2  1  0.62025600  0.71613100  0.01188700  1
  Y  Y3  1  0.12497600  0.71659300  0.23864500  1
  Co  Co0  1  0.99396600  0.00098300  0.00091700  1
  Co  Co1  1  0.50262500  0.99683900  0.25158200  1
  Co  Co2  1  0.00677300  0.99552600  0.49843300  1
  Co  Co3  1  0.49609700  0.00402800  0.75049200  1
  O  O0  1  0.71067200  0.66366600  0.21202000  1
  O  O1  1  0.14438100  0.66387500  0.53620000  1
  O  O2  1  0.62824700  0.67290600  0.72000300  1
  O  O3  1  0.19420300  0.67292500  0.03044000  1
  O  O4  1  0.81823600  0.37027500  0.48386700  1
  O  O5  1  0.31906000  0.35858900  0.76544300  1
  O  O6  1  0.81475900  0.36165100  0.98337600  1
  O  O7  1  0.32059400  0.36868300  0.26671500  1
  O  O8  1  0.28981600  0.92517900  0.37626200  1
  O  O9  1  0.75678700  0.00957900  0.62434200  1
  O  O10  1  0.24865400  0.96818900  0.87659000  1
  O  O11  1  0.74275900  0.01552000  0.12194800  1
  O  O12  1  0.77474200  0.95369800  0.37342700  1
  O  O13  1  0.24784900  0.01370400  0.62344200  1
  O  O14  1  0.76473500  0.93558300  0.87309600  1
  O  O15  1  0.25332000  0.00823000  0.13064900  1
loop_
_geom_bond_atom_site_label_1
_geom_bond_atom_site_label_2
_geom_bond_distance
_geom_bond_site_symmetry_2
Co0 O11 1.850915 1_555
Co0 O10 1.865095 1_644
Co0 O15 1.990588 1_655
Co0 O14 2.013578 1_544
Co0 O3 2.082114 1_645
Co0 O6 2.260013 1_554
Co1 O15 1.850631 1_565
Co1 O12 1.901278 1_555
Co1 O11 1.940326 1_565
Co1 O8 1.947011 1_555
Co1 O0 2.135748 1_555
Co1 O7 2.327755 1_565
Co2 O9 1.885464 1_465
Co2 O13 1.909009 1_565
Co2 O8 1.922816 1_555
Co2 O12 1.933832 1_455
Co2 O1 2.116658 1_555
Co2 O4 2.345205 1_465
Co3 O14 1.877559 1_545
Co3 O13 1.897723 1_555
Co3 O9 1.961847 1_555
Co3 O10 1.981142 1_545
Co3 O2 2.101893 1_545
Co3 O5 2.219865 1_555
O0 Y2 2.233439 1_555
O0 Sr0 2.378349 1_555
O0 Y3 2.384144 1_655
O0 Y3 3.003569 1_555
O1 Y1 2.225985 1_555
O1 Sr1 2.372494 1_555
O1 Y0 2.478100 1_455
O1 Y0 2.904876 1_555
O2 Y0 2.294765 1_555
O2 Sr2 2.395139 1_555
O2 Y1 2.423519 1_555
O2 Y1 2.933707 1_655
O2 Y2 3.195471 1_556
O3 Y3 2.300348 1_555
O3 Sr3 2.398487 1_554
O3 Y2 2.402818 1_555
O3 Y2 2.954623 1_455
O4 Y0 2.199031 1_555
O4 Sr0 2.544750 1_555
O4 Sr1 2.689553 1_555
O4 Sr1 2.721663 1_655
O4 Sr2 2.945250 1_555
O5 Y1 2.264774 1_555
O5 Sr3 2.580954 1_555
O5 Sr2 2.691046 1_455
O5 Sr2 2.694080 1_555
O5 Sr1 2.970406 1_555
O6 Y2 2.236894 1_556
O6 Sr2 2.575565 1_555
O6 Sr3 2.682924 1_655
O6 Sr3 2.709076 1_555
O6 Sr0 2.993025 1_556
O7 Y3 2.196564 1_555
O7 Sr1 2.544561 1_555
O7 Sr0 2.686779 1_555
O7 Sr0 2.719790 1_455
O7 Sr3 2.954965 1_554
O8 Y0 2.419803 1_555
O8 Y3 2.450646 1_555
O8 Sr0 2.959653 1_465
O8 Sr1 2.960698 1_565
O9 Y0 2.546166 1_545
O9 Y1 2.572300 1_645
O9 Sr2 2.577912 1_555
O9 Sr1 2.625885 1_555
O10 Y1 2.476466 1_555
O10 Y2 2.521122 1_556
O10 Sr2 2.752578 1_465
O10 Sr3 2.803069 1_565
O11 Y3 2.574999 1_645
O11 Sr3 2.585628 1_554
O11 Sr0 2.622035 1_555
O11 Y2 2.653322 1_545
O12 Y3 2.420744 1_655
O12 Y0 2.452403 1_555
O12 Sr0 2.810187 1_565
O12 Sr1 2.813079 1_565
O13 Y1 2.569642 1_545
O13 Sr1 2.594676 1_555
O13 Y0 2.604956 1_545
O13 Sr2 2.611821 1_455
O14 Y2 2.447596 1_556
O14 Y1 2.501975 1_655
O14 Sr3 2.917345 1_565
O14 Sr2 2.966899 1_565
O15 Y2 2.524629 1_545
O15 Sr0 2.608695 1_455
O15 Sr3 2.609137 1_554
O15 Y3 2.612625 1_545
