# generated using pymatgen
data_Li9Mn2Co5O16
_symmetry_space_group_name_H-M   'P 1'
_cell_length_a   9.81055661
_cell_length_b   9.81055661
_cell_length_c   10.34134944
_cell_angle_alpha   83.14880003
_cell_angle_beta   83.14880003
_cell_angle_gamma   16.91166988
_symmetry_Int_Tables_number   1
_chemical_formula_structural   Li9Mn2Co5O16
_chemical_formula_sum   'Li9 Mn2 Co5 O16'
_cell_volume   287.42350116
_cell_formula_units_Z   1
loop_
 _symmetry_equiv_pos_site_id
 _symmetry_equiv_pos_as_xyz
  1  'x, y, z'
loop_
 _atom_site_type_symbol
 _atom_site_label
 _atom_site_symmetry_multiplicity
 _atom_site_fract_x
 _atom_site_fract_y
 _atom_site_fract_z
 _atom_site_occupancy
  Li  Li0  1  0.37060400  0.37060400  0.93639700  1
  Li  Li1  1  0.12899300  0.12899300  0.80250100  1
  Li  Li2  1  0.86745100  0.86745100  0.66773900  1
  Li  Li3  1  0.63326800  0.63326800  0.56365500  1
  Li  Li4  1  0.37402800  0.37402800  0.44215900  1
  Li  Li5  1  0.13118900  0.13118900  0.32490400  1
  Li  Li6  1  0.87021900  0.87021900  0.19488100  1
  Li  Li7  1  0.62737200  0.62737200  0.06317700  1
  Li  Li8  1  0.24829600  0.24829600  0.62507500  1
  Mn  Mn0  1  0.99768900  0.99768900  0.00000600  1
  Mn  Mn1  1  0.74678300  0.74678300  0.86673200  1
  Co  Co0  1  0.49955900  0.49955900  0.74796800  1
  Co  Co1  1  0.00262300  0.00262300  0.50196100  1
  Co  Co2  1  0.75728300  0.75728300  0.39370500  1
  Co  Co3  1  0.50073900  0.50073900  0.25154400  1
  Co  Co4  1  0.24826600  0.24826600  0.12801300  1
  O  O0  1  0.44074600  0.44074600  0.08074800  1
  O  O1  1  0.19245200  0.19245200  0.95811700  1
  O  O2  1  0.94665200  0.94665200  0.85134000  1
  O  O3  1  0.69254200  0.69254200  0.73244200  1
  O  O4  1  0.44200700  0.44200700  0.58832800  1
  O  O5  1  0.19395300  0.19395300  0.46153900  1
  O  O6  1  0.94633900  0.94633900  0.33529000  1
  O  O7  1  0.69189500  0.69189500  0.20659600  1
  O  O8  1  0.30629500  0.30629500  0.79295800  1
  O  O9  1  0.05738000  0.05738000  0.66062500  1
  O  O10  1  0.81211300  0.81211300  0.52163700  1
  O  O11  1  0.55902200  0.55902200  0.40941500  1
  O  O12  1  0.30716200  0.30716200  0.28174900  1
  O  O13  1  0.05073300  0.05073300  0.15293200  1
  O  O14  1  0.80056800  0.80056800  0.03261500  1
  O  O15  1  0.55577900  0.55577900  0.92325400  1
loop_
_geom_bond_atom_site_label_1
_geom_bond_atom_site_label_2
_geom_bond_distance
_geom_bond_site_symmetry_2
Li0 O8 2.050522 1_555
Li0 O0 2.138156 1_556
Li0 O14 2.143019 1_456
Li0 O14 2.143019 1_546
Li0 O2 2.172569 1_455
Li0 O2 2.172569 1_545
Li1 O3 1.977790 1_545
Li1 O3 1.977790 1_455
Li1 O9 2.139204 1_555
Li1 O1 2.141188 1_555
Li1 O15 2.287257 1_545
Li1 O15 2.287257 1_455
Li2 O10 1.956437 1_555
Li2 O4 2.136032 1_565
Li2 O4 2.136032 1_655
Li2 O8 2.189978 1_655
Li2 O8 2.189978 1_565
Li2 O2 2.582960 1_555
Li3 O5 2.069646 1_655
Li3 O5 2.069646 1_565
Li3 O3 2.203275 1_555
Li3 O9 2.213526 1_655
Li3 O9 2.213526 1_565
Li3 O11 2.274843 1_555
Li4 O10 1.990571 1_545
Li4 O10 1.990571 1_455
Li4 O4 2.122859 1_555
Li4 O6 2.213132 1_455
Li4 O6 2.213132 1_545
Li4 O12 2.226014 1_555
Li5 O5 1.973701 1_555
Li5 O11 2.124000 1_545
Li5 O11 2.124000 1_455
Li5 O7 2.149046 1_545
Li5 O7 2.149046 1_455
Li5 O13 2.504158 1_555
Li6 O12 2.029937 1_655
Li6 O12 2.029937 1_565
Li6 O6 2.192772 1_555
Li6 O0 2.226675 1_655
Li6 O0 2.226675 1_565
Li6 O14 2.278218 1_555
Li7 O7 2.053250 1_555
Li7 O15 2.123523 1_554
Li7 O1 2.127406 1_654
Li7 O1 2.127406 1_564
Li7 O13 2.195907 1_655
Li7 O13 2.195907 1_565
Li8 O3 2.048173 1_545
Li8 O3 2.048173 1_455
Li8 O5 2.098255 1_555
Li8 O10 2.107085 1_545
Li8 O10 2.107085 1_455
Li8 O8 2.180046 1_555
Mn0 O2 1.926670 1_554
Mn0 O15 1.940700 1_654
Mn0 O15 1.940700 1_564
Mn0 O0 1.943472 1_565
Mn0 O0 1.943472 1_655
Mn0 O13 1.988346 1_665
Mn1 O3 1.841032 1_555
Mn1 O8 1.945421 1_655
Mn1 O8 1.945421 1_565
Mn1 O1 1.961055 1_655
Mn1 O1 1.961055 1_565
Mn1 O14 2.112895 1_556
Co0 O9 1.977823 1_655
Co0 O9 1.977823 1_565
Co0 O2 2.003368 1_455
Co0 O2 2.003368 1_545
Co0 O4 2.101861 1_555
Co0 O15 2.225632 1_555
Co1 O11 1.985575 1_455
Co1 O11 1.985575 1_545
Co1 O4 2.002345 1_545
Co1 O4 2.002345 1_455
Co1 O9 2.059654 1_555
Co1 O6 2.148993 1_445
Co2 O10 1.795063 1_555
Co2 O5 1.968741 1_565
Co2 O5 1.968741 1_655
Co2 O12 2.021966 1_565
Co2 O12 2.021966 1_655
Co2 O7 2.438609 1_555
Co3 O6 1.930105 1_545
Co3 O6 1.930105 1_455
Co3 O13 1.955468 1_565
Co3 O13 1.955468 1_655
Co3 O11 2.095306 1_555
Co3 O0 2.229662 1_555
Co4 O7 1.929769 1_545
Co4 O7 1.929769 1_455
Co4 O14 1.960413 1_455
Co4 O14 1.960413 1_545
Co4 O12 2.066993 1_555
Co4 O1 2.172401 1_554
