# generated using pymatgen
data_PdSe2
_symmetry_space_group_name_H-M   'P 1'
_cell_length_a   5.68933454
_cell_length_b   5.86471827
_cell_length_c   20.09514003
_cell_angle_alpha   90.13778031
_cell_angle_beta   90.00000000
_cell_angle_gamma   90.00000000
_symmetry_Int_Tables_number   1
_chemical_formula_structural   PdSe2
_chemical_formula_sum   'Pd2 Se4'
_cell_volume   670.49942106
_cell_formula_units_Z   2
loop_
 _symmetry_equiv_pos_site_id
 _symmetry_equiv_pos_as_xyz
  1  'x, y, z'
loop_
 _atom_site_type_symbol
 _atom_site_label
 _atom_site_symmetry_multiplicity
 _atom_site_fract_x
 _atom_site_fract_y
 _atom_site_fract_z
 _atom_site_occupancy
  Pd  Pd0  1  -0.00000000  0.50000000  -0.00000000  1
  Pd  Pd1  1  0.50000000  0.00000000  -0.00000000  1
  Se  Se0  1  0.60933544  0.61876605  0.96291537  1
  Se  Se1  1  0.89066456  0.11876605  0.96291537  1
  Se  Se2  1  0.39066456  0.38123395  0.03708463  1
  Se  Se3  1  0.10933544  0.88123395  0.03708463  1
loop_
_geom_bond_atom_site_label_1
_geom_bond_atom_site_label_2
_geom_bond_distance
_geom_bond_site_symmetry_2
Pd0 Se1 2.435819 1_454
Pd0 Se3 2.435819 1_555
Pd0 Se0 2.446027 1_454
Pd0 Se2 2.446027 1_555
Pd1 Se2 2.435819 1_555
Pd1 Se0 2.435819 1_544
Pd1 Se3 2.446027 1_545
Pd1 Se1 2.446027 1_554
Se0 Se2 2.391606 1_556
Se1 Se3 2.391606 1_646
