# generated using pymatgen
data_Mg6ZnGa
_symmetry_space_group_name_H-M   'P 1'
_cell_length_a   5.00329800
_cell_length_b   6.18973000
_cell_length_c   10.73203900
_cell_angle_alpha   90.00000000
_cell_angle_beta   90.00000000
_cell_angle_gamma   90.00000000
_symmetry_Int_Tables_number   1
_chemical_formula_structural   Mg6ZnGa
_chemical_formula_sum   'Mg12 Zn2 Ga2'
_cell_volume   332.36119974
_cell_formula_units_Z   2
loop_
 _symmetry_equiv_pos_site_id
 _symmetry_equiv_pos_as_xyz
  1  'x, y, z'
loop_
 _atom_site_type_symbol
 _atom_site_label
 _atom_site_symmetry_multiplicity
 _atom_site_fract_x
 _atom_site_fract_y
 _atom_site_fract_z
 _atom_site_occupancy
  Mg  Mg0  1  0.00000000  0.25517900  0.08784200  1
  Mg  Mg1  1  0.00000000  0.74482100  0.08784200  1
  Mg  Mg2  1  0.00000000  0.00000000  0.33432200  1
  Mg  Mg3  1  0.50000000  0.74377600  0.41080500  1
  Mg  Mg4  1  0.50000000  0.25622400  0.41080500  1
  Mg  Mg5  1  0.50000000  0.00000000  0.16515800  1
  Mg  Mg6  1  0.00000000  0.75517900  0.58784200  1
  Mg  Mg7  1  0.00000000  0.24482100  0.58784200  1
  Mg  Mg8  1  0.00000000  0.50000000  0.83432200  1
  Mg  Mg9  1  0.50000000  0.24377600  0.91080500  1
  Mg  Mg10  1  0.50000000  0.75622400  0.91080500  1
  Mg  Mg11  1  0.50000000  0.50000000  0.66515800  1
  Zn  Zn0  1  0.00000000  0.50000000  0.33988600  1
  Zn  Zn1  1  0.00000000  0.00000000  0.83988600  1
  Ga  Ga0  1  0.50000000  0.50000000  0.16333900  1
  Ga  Ga1  1  0.50000000  0.00000000  0.66333900  1
loop_
_geom_bond_atom_site_label_1
_geom_bond_atom_site_label_2
_geom_bond_distance
_geom_bond_site_symmetry_2
Mg0 Mg1 3.030752 1_555
Mg0 Mg5 3.072708 1_455
Mg0 Mg5 3.072708 1_555
Mg0 Mg2 3.080916 1_555
Mg0 Zn1 3.094527 1_554
Mg0 Zn0 3.100500 1_555
Mg0 Mg8 3.114329 1_554
Mg0 Mg9 3.142150 1_454
Mg0 Mg9 3.142150 1_554
Mg0 Mg1 3.158978 1_545
Mg1 Mg5 3.072708 1_465
Mg1 Mg5 3.072708 1_565
Mg1 Mg2 3.080916 1_565
Mg1 Zn1 3.094527 1_564
Mg1 Zn0 3.100500 1_555
Mg1 Mg8 3.114329 1_554
Mg1 Mg10 3.142150 1_554
Mg1 Mg10 3.142150 1_454
Mg2 Mg3 3.073638 1_545
Mg2 Mg3 3.073638 1_445
Mg2 Mg4 3.073638 1_455
Mg2 Mg4 3.073638 1_555
Mg2 Mg5 3.090986 1_555
Mg2 Mg5 3.090986 1_455
Mg2 Zn0 3.095441 1_555
Mg2 Zn0 3.095441 1_545
Mg2 Mg7 3.114329 1_555
Mg2 Mg6 3.114329 1_545
Mg3 Mg4 3.017815 1_555
Mg3 Zn0 3.018995 1_655
Mg3 Zn0 3.018995 1_555
Mg3 Mg5 3.076573 1_565
Mg3 Mg6 3.142150 1_555
Mg3 Mg6 3.142150 1_655
Mg3 Mg4 3.171915 1_565
Mg4 Zn0 3.018995 1_655
Mg4 Zn0 3.018995 1_555
Mg4 Mg5 3.076573 1_555
Mg4 Mg7 3.142150 1_655
Mg4 Mg7 3.142150 1_555
Mg5 Mg9 3.119008 1_554
Mg6 Mg7 3.030752 1_565
Mg6 Mg8 3.080916 1_555
Mg6 Zn0 3.094527 1_555
Mg6 Zn1 3.100500 1_565
Mg6 Mg7 3.158978 1_555
Mg7 Mg8 3.080916 1_555
Mg7 Zn0 3.094527 1_555
Mg7 Zn1 3.100500 1_555
Mg8 Mg9 3.073638 1_555
Mg8 Mg9 3.073638 1_455
Mg8 Zn1 3.095441 1_555
Mg8 Zn1 3.095441 1_565
Mg9 Zn1 3.018995 1_555
Mg9 Zn1 3.018995 1_655
Mg10 Mg9 3.017815 1_565
Mg10 Zn1 3.018995 1_565
Mg10 Zn1 3.018995 1_665
Mg10 Mg8 3.073638 1_655
Mg10 Mg8 3.073638 1_555
Mg10 Mg11 3.076573 1_555
Mg10 Mg5 3.119008 1_566
Mg10 Mg9 3.171915 1_555
Mg11 Mg7 3.072708 1_655
Mg11 Mg7 3.072708 1_555
Mg11 Mg6 3.072708 1_555
Mg11 Mg6 3.072708 1_655
Mg11 Mg9 3.076573 1_555
Mg11 Mg8 3.090986 1_655
Mg11 Mg8 3.090986 1_555
Mg11 Mg3 3.119008 1_555
Mg11 Mg4 3.119008 1_555
Ga0 Mg1 3.034979 1_655
Ga0 Mg1 3.034979 1_555
Ga0 Mg0 3.034979 1_555
Ga0 Mg0 3.034979 1_655
Ga0 Mg3 3.054530 1_555
Ga0 Mg4 3.054530 1_555
Ga0 Mg5 3.094927 1_555
Ga0 Mg5 3.094927 1_565
Ga0 Zn0 3.138180 1_655
Ga0 Zn0 3.138180 1_555
Ga0 Mg9 3.140139 1_554
Ga0 Mg10 3.140139 1_554
Ga1 Mg6 3.034979 1_545
Ga1 Mg6 3.034979 1_645
Ga1 Mg7 3.034979 1_655
Ga1 Mg7 3.034979 1_555
Ga1 Mg9 3.054530 1_555
Ga1 Mg10 3.054530 1_545
Ga1 Mg11 3.094927 1_545
Ga1 Mg11 3.094927 1_555
Ga1 Zn1 3.138180 1_555
Ga1 Zn1 3.138180 1_655
Ga1 Mg4 3.140139 1_555
Ga1 Mg3 3.140139 1_545
