# generated using pymatgen
data_BaNaPSO12
_symmetry_space_group_name_H-M   'P 1'
_cell_length_a   9.92205693
_cell_length_b   9.92205693
_cell_length_c   9.92205693
_cell_angle_alpha   90.00000000
_cell_angle_beta   90.00000000
_cell_angle_gamma   90.00000000
_symmetry_Int_Tables_number   1
_chemical_formula_structural   BaNaPSO12
_chemical_formula_sum   'Ba4 Na4 P4 S4 O48'
_cell_volume   976.79885915
_cell_formula_units_Z   4
loop_
 _symmetry_equiv_pos_site_id
 _symmetry_equiv_pos_as_xyz
  1  'x, y, z'
loop_
 _atom_site_type_symbol
 _atom_site_label
 _atom_site_symmetry_multiplicity
 _atom_site_fract_x
 _atom_site_fract_y
 _atom_site_fract_z
 _atom_site_occupancy
  Ba  Ba0  1  0.79464271  0.29464271  0.20535729  1
  Ba  Ba1  1  0.29464271  0.20535729  0.79464271  1
  Ba  Ba2  1  0.20535729  0.79464271  0.29464271  1
  Ba  Ba3  1  0.70535729  0.70535729  0.70535729  1
  Na  Na0  1  0.53340208  0.03340208  0.46659792  1
  Na  Na1  1  0.03340208  0.46659792  0.53340208  1
  Na  Na2  1  0.46659792  0.53340208  0.03340208  1
  Na  Na3  1  0.96659792  0.96659792  0.96659792  1
  P  P0  1  0.27002744  0.77002744  0.72997256  1
  P  P1  1  0.77002744  0.72997256  0.27002744  1
  P  P2  1  0.72997256  0.27002744  0.77002744  1
  P  P3  1  0.22997256  0.22997256  0.22997256  1
  S  S0  1  0.08456795  0.58456795  0.91543205  1
  S  S1  1  0.58456795  0.91543205  0.08456795  1
  S  S2  1  0.91543205  0.08456795  0.58456795  1
  S  S3  1  0.41543205  0.41543205  0.41543205  1
  O  O0  1  0.31160184  0.93622118  0.04115701  1
  O  O1  1  0.95884299  0.81160184  0.56377882  1
  O  O2  1  0.43622118  0.45884299  0.68839816  1
  O  O3  1  0.81160184  0.56377882  0.95884299  1
  O  O4  1  0.45884299  0.68839816  0.43622118  1
  O  O5  1  0.93622118  0.04115701  0.31160184  1
  O  O6  1  0.68839816  0.43622118  0.45884299  1
  O  O7  1  0.04115701  0.31160184  0.93622118  1
  O  O8  1  0.56377882  0.95884299  0.81160184  1
  O  O9  1  0.18839816  0.06377882  0.54115701  1
  O  O10  1  0.54115701  0.18839816  0.06377882  1
  O  O11  1  0.06377882  0.54115701  0.18839816  1
  O  O12  1  0.49574779  0.76832038  0.53078670  1
  O  O13  1  0.46921330  0.99574779  0.73167962  1
  O  O14  1  0.26832038  0.96921330  0.50425221  1
  O  O15  1  0.99574779  0.73167962  0.46921330  1
  O  O16  1  0.96921330  0.50425221  0.26832038  1
  O  O17  1  0.76832038  0.53078670  0.49574779  1
  O  O18  1  0.50425221  0.26832038  0.96921330  1
  O  O19  1  0.53078670  0.49574779  0.76832038  1
  O  O20  1  0.73167962  0.46921330  0.99574779  1
  O  O21  1  0.00425221  0.23167962  0.03078670  1
  O  O22  1  0.03078670  0.00425221  0.23167962  1
  O  O23  1  0.23167962  0.03078670  0.00425221  1
  O  O24  1  0.08310625  0.71500826  0.98565511  1
  O  O25  1  0.01434489  0.58310625  0.78499174  1
  O  O26  1  0.21500826  0.51434489  0.91689375  1
  O  O27  1  0.58310625  0.78499174  0.01434489  1
  O  O28  1  0.51434489  0.91689375  0.21500826  1
  O  O29  1  0.71500826  0.98565511  0.08310625  1
  O  O30  1  0.91689375  0.21500826  0.51434489  1
  O  O31  1  0.98565511  0.08310625  0.71500826  1
  O  O32  1  0.78499174  0.01434489  0.58310625  1
  O  O33  1  0.41689375  0.28499174  0.48565511  1
  O  O34  1  0.48565511  0.41689375  0.28499174  1
  O  O35  1  0.28499174  0.48565511  0.41689375  1
  O  O36  1  0.18989339  0.88995983  0.77344509  1
  O  O37  1  0.22655491  0.68989339  0.61004017  1
  O  O38  1  0.38995983  0.72655491  0.81010661  1
  O  O39  1  0.68989339  0.61004017  0.22655491  1
  O  O40  1  0.72655491  0.81010661  0.38995983  1
  O  O41  1  0.88995983  0.77344509  0.18989339  1
  O  O42  1  0.81010661  0.38995983  0.72655491  1
  O  O43  1  0.77344509  0.18989339  0.88995983  1
  O  O44  1  0.61004017  0.22655491  0.68989339  1
  O  O45  1  0.31010661  0.11004017  0.27344509  1
  O  O46  1  0.27344509  0.31010661  0.11004017  1
  O  O47  1  0.11004017  0.27344509  0.31010661  1
loop_
_geom_bond_atom_site_label_1
_geom_bond_atom_site_label_2
_geom_bond_distance
_geom_bond_site_symmetry_2
Ba0 O20 2.777740 1_554
Ba0 O21 2.777740 1_655
Ba0 O16 2.777740 1_555
Ba0 O10 3.067623 1_555
Ba0 O5 3.067623 1_555
Ba0 O6 3.067623 1_555
Ba0 O39 3.304169 1_555
Ba0 O43 3.304169 1_554
Ba0 O47 3.304169 1_655
Ba0 O30 3.390387 1_555
Ba0 O34 3.390387 1_555
Ba0 O29 3.390387 1_545
Ba1 O23 2.777740 1_556
Ba1 O13 2.777740 1_545
Ba1 O18 2.777740 1_555
Ba1 O9 3.067623 1_555
Ba1 O7 3.067623 1_555
Ba1 O2 3.067623 1_555
Ba1 O44 3.304169 1_555
Ba1 O36 3.304169 1_545
Ba1 O46 3.304169 1_556
Ba1 O26 3.390387 1_555
Ba1 O33 3.390387 1_555
Ba1 O31 3.390387 1_455
Ba2 O15 2.777740 1_455
Ba2 O22 2.777740 1_565
Ba2 O14 2.777740 1_555
Ba2 O11 3.067623 1_555
Ba2 O0 3.067623 1_555
Ba2 O4 3.067623 1_555
Ba2 O37 3.304169 1_555
Ba2 O45 3.304169 1_565
Ba2 O41 3.304169 1_455
Ba2 O35 3.390387 1_555
Ba2 O28 3.390387 1_555
Ba2 O24 3.390387 1_554
Ba3 O12 2.777740 1_555
Ba3 O19 2.777740 1_555
Ba3 O17 2.777740 1_555
Ba3 O1 3.067623 1_555
Ba3 O8 3.067623 1_555
Ba3 O3 3.067623 1_555
Ba3 O40 3.304169 1_555
Ba3 O38 3.304169 1_555
Ba3 O42 3.304169 1_555
Ba3 O32 3.390387 1_565
Ba3 O27 3.390387 1_556
Ba3 O25 3.390387 1_655
Na0 O14 2.731835 1_545
Na0 O13 2.731835 1_545
Na0 O12 2.731835 1_545
Na0 O28 2.757452 1_545
Na0 O33 2.757452 1_555
Na0 O32 2.757452 1_555
Na1 O16 2.731835 1_455
Na1 O17 2.731835 1_455
Na1 O15 2.731835 1_455
Na1 O35 2.757452 1_555
Na1 O30 2.757452 1_455
Na1 O25 2.757452 1_555
Na2 O19 2.731835 1_554
Na2 O20 2.731835 1_554
Na2 O18 2.731835 1_554
Na2 O26 2.757452 1_554
Na2 O34 2.757452 1_555
Na2 O27 2.757452 1_555
Na3 O22 2.731835 1_666
Na3 O21 2.731835 1_666
Na3 O23 2.731835 1_666
Na3 O29 2.757452 1_556
Na3 O24 2.757452 1_655
Na3 O31 2.757452 1_565
O0 O23 1.281911 1_565
O1 O15 1.281911 1_555
O10 O18 1.281911 1_554
O11 O16 1.281911 1_455
O12 O4 1.281911 1_555
O13 O8 1.281911 1_555
O14 O9 1.281911 1_565
O17 O6 1.281911 1_555
O19 O2 1.281911 1_555
O20 O3 1.281911 1_555
O21 O7 1.281911 1_554
O22 O5 1.281911 1_455
O24 S0 1.469942 1_555
O25 S0 1.469942 1_555
O26 S0 1.469942 1_555
O27 S1 1.469942 1_555
O28 S1 1.469942 1_555
O29 S1 1.469942 1_555
O30 S2 1.469942 1_555
O31 S2 1.469942 1_555
O32 S2 1.469942 1_555
O33 S3 1.469942 1_555
O34 S3 1.469942 1_555
O35 S3 1.469942 1_555
O36 P0 1.494747 1_555
O37 P0 1.494747 1_555
O38 P0 1.494747 1_555
O39 P1 1.494747 1_555
O40 P1 1.494747 1_555
O41 P1 1.494747 1_555
O42 P2 1.494747 1_555
O43 P2 1.494747 1_555
O44 P2 1.494747 1_555
O45 P3 1.494747 1_555
O46 P3 1.494747 1_555
O47 P3 1.494747 1_555
