# generated using pymatgen
data_Li3MnCoO5
_symmetry_space_group_name_H-M   'P 1'
_cell_length_a   2.97311000
_cell_length_b   5.07517845
_cell_length_c   12.50563575
_cell_angle_alpha   101.07798385
_cell_angle_beta   88.21680669
_cell_angle_gamma   103.67677442
_symmetry_Int_Tables_number   1
_chemical_formula_structural   Li3MnCoO5
_chemical_formula_sum   'Li6 Mn2 Co2 O10'
_cell_volume   179.91113025
_cell_formula_units_Z   2
loop_
 _symmetry_equiv_pos_site_id
 _symmetry_equiv_pos_as_xyz
  1  'x, y, z'
loop_
 _atom_site_type_symbol
 _atom_site_label
 _atom_site_symmetry_multiplicity
 _atom_site_fract_x
 _atom_site_fract_y
 _atom_site_fract_z
 _atom_site_occupancy
  Li  Li0  1  0.31447100  0.60980800  0.10304700  1
  Li  Li1  1  0.89869300  0.80410200  0.29937700  1
  Li  Li2  1  0.50676300  0.99781600  0.50399200  1
  Li  Li3  1  0.09828200  0.19014800  0.70216300  1
  Li  Li4  1  0.67032500  0.38741100  0.88978800  1
  Li  Li5  1  0.41835200  0.81676200  0.79950600  1
  Mn  Mn0  1  0.99427300  0.99841500  0.99425100  1
  Mn  Mn1  1  0.20247900  0.40031600  0.40137200  1
  Co  Co0  1  0.58370000  0.19328200  0.19958700  1
  Co  Co1  1  0.81306100  0.60623900  0.60945300  1
  O  O0  1  0.60389900  0.26202600  0.05131400  1
  O  O1  1  0.26577900  0.47998900  0.25144500  1
  O  O2  1  0.87165200  0.68478700  0.45896800  1
  O  O3  1  0.46720600  0.87213800  0.64556600  1
  O  O4  1  0.05773000  0.10761200  0.86199600  1
  O  O5  1  0.92511300  0.91907700  0.14624600  1
  O  O6  1  0.52722700  0.10864500  0.34402500  1
  O  O7  1  0.13805300  0.31838400  0.54694200  1
  O  O8  1  0.74821700  0.50047600  0.73420700  1
  O  O9  1  0.39472300  0.74256900  0.95675300  1
loop_
_geom_bond_atom_site_label_1
_geom_bond_atom_site_label_2
_geom_bond_distance
_geom_bond_site_symmetry_2
Li0 O9 2.056333 1_554
Li0 O1 2.075363 1_555
Li0 O5 2.106935 1_555
Li0 O0 2.125841 1_555
Li0 O5 2.142423 1_455
Li0 O0 2.424867 1_455
Li1 O6 2.087483 1_565
Li1 O5 2.100542 1_555
Li1 O6 2.135455 1_665
Li1 O1 2.164615 1_655
Li1 O2 2.188089 1_555
Li1 O1 2.198531 1_555
Li2 O3 1.985140 1_555
Li2 O2 2.109760 1_555
Li2 O7 2.146635 1_565
Li2 O2 2.170315 1_455
Li2 O6 2.175016 1_565
Li2 O7 2.177401 1_665
Li3 O8 2.056941 1_455
Li3 O4 2.113795 1_555
Li3 O7 2.154152 1_555
Li3 O3 2.158411 1_545
Li3 O8 2.177496 1_555
Li3 O3 2.199504 1_445
Li4 O4 2.005690 1_655
Li4 O4 2.020186 1_555
Li4 O8 2.122870 1_555
Li4 O9 2.167334 1_555
Li4 O0 2.221262 1_556
Li4 O9 2.507022 1_655
Li5 O3 1.994335 1_555
Li5 O4 2.047472 1_565
Li5 O9 2.068135 1_555
Li5 O8 2.096720 1_555
Li5 O4 2.173805 1_665
Li5 O8 2.301797 1_455
Mn0 O4 1.833466 1_665
Mn0 O9 1.945690 1_655
Mn0 O9 1.951108 1_555
Mn0 O0 1.990489 1_566
Mn0 O5 2.011982 1_556
Mn0 O0 2.037438 1_666
Mn1 O7 1.937821 1_555
Mn1 O2 1.948958 1_455
Mn1 O6 1.965344 1_555
Mn1 O1 1.986880 1_555
Mn1 O2 2.211934 1_555
Mn1 O6 2.238820 1_455
Co0 O1 1.918568 1_555
Co0 O5 1.918618 1_545
Co0 O6 1.928877 1_555
Co0 O0 1.948162 1_555
Co0 O5 2.156750 1_445
Co0 O1 2.230257 1_655
Co1 O8 1.735927 1_555
Co1 O3 1.864265 1_555
Co1 O7 1.964851 1_655
Co1 O2 1.991459 1_555
Co1 O3 2.094476 1_655
Co1 O7 2.246161 1_555
