# generated using pymatgen
data_KBaCeBiO6
_symmetry_space_group_name_H-M   'P 1'
_cell_length_a   8.64750223
_cell_length_b   8.65283087
_cell_length_c   8.64674828
_cell_angle_alpha   90.00000000
_cell_angle_beta   90.00000000
_cell_angle_gamma   90.00000000
_symmetry_Int_Tables_number   1
_chemical_formula_structural   KBaCeBiO6
_chemical_formula_sum   'K4 Ba4 Ce4 Bi4 O24'
_cell_volume   646.99617605
_cell_formula_units_Z   4
loop_
 _symmetry_equiv_pos_site_id
 _symmetry_equiv_pos_as_xyz
  1  'x, y, z'
loop_
 _atom_site_type_symbol
 _atom_site_label
 _atom_site_symmetry_multiplicity
 _atom_site_fract_x
 _atom_site_fract_y
 _atom_site_fract_z
 _atom_site_occupancy
  K  K0  1  0.50000000  0.00000000  0.50000000  1
  K  K1  1  0.50000000  0.50000000  0.00000000  1
  K  K2  1  -0.00000000  0.50000000  0.00000000  1
  K  K3  1  -0.00000000  0.00000000  0.50000000  1
  Ba  Ba0  1  -0.00000000  0.50000000  0.50000000  1
  Ba  Ba1  1  0.50000000  0.00000000  0.00000000  1
  Ba  Ba2  1  -0.00000000  0.00000000  0.00000000  1
  Ba  Ba3  1  0.50000000  0.50000000  0.50000000  1
  Ce  Ce0  1  0.25000000  0.25000000  0.25000000  1
  Ce  Ce1  1  0.75000000  0.75000000  0.25000000  1
  Ce  Ce2  1  0.75000000  0.25000000  0.75000000  1
  Ce  Ce3  1  0.25000000  0.75000000  0.75000000  1
  Bi  Bi0  1  0.75000000  0.75000000  0.75000000  1
  Bi  Bi1  1  0.25000000  0.25000000  0.75000000  1
  Bi  Bi2  1  0.25000000  0.75000000  0.25000000  1
  Bi  Bi3  1  0.75000000  0.25000000  0.25000000  1
  O  O0  1  0.99420131  0.24702384  0.26117114  1
  O  O1  1  0.00579869  0.75297616  0.26117114  1
  O  O2  1  0.00579869  0.24702384  0.73882886  1
  O  O3  1  0.99420131  0.75297616  0.73882886  1
  O  O4  1  0.25277842  0.99415397  0.23554752  1
  O  O5  1  0.25277842  0.00584603  0.76445248  1
  O  O6  1  0.74722158  0.00584603  0.23554752  1
  O  O7  1  0.74722158  0.99415397  0.76445248  1
  O  O8  1  0.23879121  0.24684175  0.99435939  1
  O  O9  1  0.76120879  0.24684175  0.00564061  1
  O  O10  1  0.23879121  0.75315825  0.00564061  1
  O  O11  1  0.76120879  0.75315825  0.99435939  1
  O  O12  1  0.50579869  0.25297616  0.23882886  1
  O  O13  1  0.49420131  0.74702384  0.23882886  1
  O  O14  1  0.49420131  0.25297616  0.76117114  1
  O  O15  1  0.50579869  0.74702384  0.76117114  1
  O  O16  1  0.24722158  0.50584603  0.26445248  1
  O  O17  1  0.24722158  0.49415397  0.73554752  1
  O  O18  1  0.75277842  0.49415397  0.26445248  1
  O  O19  1  0.75277842  0.50584603  0.73554752  1
  O  O20  1  0.26120879  0.25315825  0.50564061  1
  O  O21  1  0.73879121  0.25315825  0.49435939  1
  O  O22  1  0.26120879  0.74684175  0.49435939  1
  O  O23  1  0.73879121  0.74684175  0.50564061  1
loop_
_geom_bond_atom_site_label_1
_geom_bond_atom_site_label_2
_geom_bond_distance
_geom_bond_site_symmetry_2
K0 O22 3.010786 1_545
K0 O21 3.010786 1_555
K0 O20 3.010786 1_555
K0 O23 3.010786 1_545
K0 O4 3.130774 1_545
K0 O5 3.130774 1_555
K0 O6 3.130774 1_555
K0 O7 3.130774 1_545
K0 O15 3.145456 1_545
K0 O12 3.145456 1_555
K0 O14 3.145456 1_555
K0 O13 3.145456 1_545
K1 O12 2.972514 1_555
K1 O13 2.972514 1_555
K1 O14 2.972514 1_554
K1 O15 2.972514 1_554
K1 O9 3.146906 1_555
K1 O10 3.146906 1_555
K1 O11 3.146906 1_554
K1 O8 3.146906 1_554
K1 O18 3.163781 1_555
K1 O19 3.163781 1_554
K1 O16 3.163781 1_555
K1 O17 3.163781 1_554
K2 O9 3.010786 1_455
K2 O10 3.010786 1_555
K2 O8 3.010786 1_554
K2 O11 3.010786 1_454
K2 O16 3.130774 1_555
K2 O17 3.130774 1_554
K2 O18 3.130774 1_455
K2 O19 3.130774 1_454
K2 O3 3.145456 1_454
K2 O2 3.145456 1_554
K2 O0 3.145456 1_455
K2 O1 3.145456 1_555
K3 O1 2.972514 1_545
K3 O0 2.972514 1_455
K3 O2 2.972514 1_555
K3 O3 2.972514 1_445
K3 O21 3.146906 1_455
K3 O22 3.146906 1_545
K3 O20 3.146906 1_555
K3 O23 3.146906 1_445
K3 O7 3.163781 1_445
K3 O6 3.163781 1_455
K3 O5 3.163781 1_555
K3 O4 3.163781 1_545
Ba0 O17 2.953166 1_555
Ba0 O16 2.953166 1_555
Ba0 O19 2.953166 1_455
Ba0 O18 2.953166 1_455
Ba0 O0 3.009762 1_455
Ba0 O1 3.009762 1_555
Ba0 O2 3.009762 1_555
Ba0 O3 3.009762 1_455
Ba0 O23 3.109108 1_455
Ba0 O21 3.109108 1_455
Ba0 O22 3.109108 1_555
Ba0 O20 3.109108 1_555
Ba1 O5 2.953166 1_554
Ba1 O4 2.953166 1_545
Ba1 O7 2.953166 1_544
Ba1 O6 2.953166 1_555
Ba1 O13 3.009762 1_545
Ba1 O12 3.009762 1_555
Ba1 O15 3.009762 1_544
Ba1 O14 3.009762 1_554
Ba1 O10 3.109108 1_545
Ba1 O9 3.109108 1_555
Ba1 O8 3.109108 1_554
Ba1 O11 3.109108 1_544
Ba2 O10 2.971257 1_545
Ba2 O8 2.971257 1_554
Ba2 O9 2.971257 1_455
Ba2 O11 2.971257 1_444
Ba2 O7 2.988136 1_444
Ba2 O6 2.988136 1_455
Ba2 O4 2.988136 1_545
Ba2 O5 2.988136 1_554
Ba2 O2 3.109833 1_554
Ba2 O3 3.109833 1_444
Ba2 O0 3.109833 1_455
Ba2 O1 3.109833 1_545
Ba3 O22 2.971257 1_555
Ba3 O23 2.971257 1_555
Ba3 O21 2.971257 1_555
Ba3 O20 2.971257 1_555
Ba3 O18 2.988136 1_555
Ba3 O19 2.988136 1_555
Ba3 O16 2.988136 1_555
Ba3 O17 2.988136 1_555
Ba3 O14 3.109833 1_555
Ba3 O15 3.109833 1_555
Ba3 O12 3.109833 1_555
Ba3 O13 3.109833 1_555
Ce0 O20 2.212753 1_555
Ce0 O8 2.212753 1_554
Ce0 O0 2.214278 1_455
Ce0 O12 2.214278 1_555
Ce0 O4 2.217447 1_545
Ce0 O16 2.217447 1_555
Ce1 O11 2.212753 1_554
Ce1 O23 2.212753 1_555
Ce1 O13 2.214278 1_555
Ce1 O1 2.214278 1_655
Ce1 O18 2.217447 1_555
Ce1 O6 2.217447 1_565
Ce2 O9 2.212753 1_556
Ce2 O21 2.212753 1_555
Ce2 O2 2.214278 1_655
Ce2 O14 2.214278 1_555
Ce2 O7 2.217447 1_545
Ce2 O19 2.217447 1_555
Ce3 O10 2.212753 1_556
Ce3 O22 2.212753 1_555
Ce3 O3 2.214278 1_455
Ce3 O15 2.214278 1_555
Ce3 O17 2.217447 1_555
Ce3 O5 2.217447 1_565
Bi0 O3 2.114096 1_555
Bi0 O15 2.114096 1_555
Bi0 O23 2.115313 1_555
Bi0 O11 2.115313 1_555
Bi0 O7 2.116452 1_555
Bi0 O19 2.116452 1_555
Bi1 O2 2.114096 1_555
Bi1 O14 2.114096 1_555
Bi1 O20 2.115313 1_555
Bi1 O8 2.115313 1_555
Bi1 O17 2.116452 1_555
Bi1 O5 2.116452 1_555
Bi2 O13 2.114096 1_555
Bi2 O1 2.114096 1_555
Bi2 O22 2.115313 1_555
Bi2 O10 2.115313 1_555
Bi2 O16 2.116452 1_555
Bi2 O4 2.116452 1_555
Bi3 O0 2.114096 1_555
Bi3 O12 2.114096 1_555
Bi3 O21 2.115313 1_555
Bi3 O9 2.115313 1_555
Bi3 O6 2.116452 1_555
Bi3 O18 2.116452 1_555
