# generated using pymatgen
data_Li6Zn3(PS4)4
_symmetry_space_group_name_H-M   'P 1'
_cell_length_a   9.33423933
_cell_length_b   11.59949761
_cell_length_c   23.15109579
_cell_angle_alpha   89.93078327
_cell_angle_beta   89.95455704
_cell_angle_gamma   90.00571902
_symmetry_Int_Tables_number   1
_chemical_formula_structural   Li6Zn3(PS4)4
_chemical_formula_sum   'Li24 Zn12 P16 S64'
_cell_volume   2506.62408189
_cell_formula_units_Z   4
loop_
 _symmetry_equiv_pos_site_id
 _symmetry_equiv_pos_as_xyz
  1  'x, y, z'
loop_
 _atom_site_type_symbol
 _atom_site_label
 _atom_site_symmetry_multiplicity
 _atom_site_fract_x
 _atom_site_fract_y
 _atom_site_fract_z
 _atom_site_occupancy
  Li  Li0  1  0.25279252  0.25218044  0.50307035  1
  Li  Li1  1  0.75357564  0.49085162  0.87427923  1
  Li  Li2  1  0.74561782  0.00889003  0.87764900  1
  Li  Li3  1  0.25215323  0.25657489  0.75046100  1
  Li  Li4  1  0.50210204  0.49981721  0.24913974  1
  Li  Li5  1  0.50557188  0.99854762  0.25017685  1
  Li  Li6  1  0.51058948  0.50260723  0.49901620  1
  Li  Li7  1  0.50790287  0.99686235  0.50037154  1
  Li  Li8  1  0.00103859  0.75125050  0.37498892  1
  Li  Li9  1  0.99855142  0.25248183  0.37153238  1
  Li  Li10  1  0.50064841  0.50300232  0.74873443  1
  Li  Li11  1  0.49800011  0.00163621  0.74926602  1
  Li  Li12  1  0.99450556  0.74794268  0.62493616  1
  Li  Li13  1  0.98878892  0.25030800  0.62511578  1
  Li  Li14  1  0.49113977  0.49749105  0.00157175  1
  Li  Li15  1  0.49204575  0.00043491  0.00195719  1
  Li  Li16  1  0.00855374  0.74827360  0.87453301  1
  Li  Li17  1  0.01052293  0.24673251  0.87853934  1
  Li  Li18  1  0.00123074  0.75325833  0.12481810  1
  Li  Li19  1  0.00581652  0.24923425  0.12483116  1
  Li  Li20  1  0.51582348  0.25215126  0.62516531  1
  Li  Li21  1  0.49230279  0.25110235  0.87675128  1
  Li  Li22  1  0.99790872  0.49854545  0.74853554  1
  Li  Li23  1  0.00712061  0.00177311  0.00187076  1
  Zn  Zn0  1  0.49916355  0.24774716  0.12480465  1
  Zn  Zn1  1  0.49811384  0.75027342  0.12441701  1
  Zn  Zn2  1  0.50640090  0.25103893  0.37337255  1
  Zn  Zn3  1  0.49982864  0.74843540  0.37477496  1
  Zn  Zn4  1  0.99873974  0.49971784  0.24915799  1
  Zn  Zn5  1  0.99932696  0.99841344  0.24909233  1
  Zn  Zn6  1  0.49699093  0.74988482  0.62553539  1
  Zn  Zn7  1  0.99294708  0.50204459  0.50083012  1
  Zn  Zn8  1  0.99334176  0.99890398  0.49899875  1
  Zn  Zn9  1  0.48708508  0.75144545  0.87475071  1
  Zn  Zn10  1  0.99919712  0.00044758  0.74959342  1
  Zn  Zn11  1  0.00558282  0.49845527  0.00056840  1
  P  P0  1  0.75064750  0.25033027  0.24935329  1
  P  P1  1  0.75018331  0.74992380  0.25010520  1
  P  P2  1  0.75106884  0.24597740  0.49792631  1
  P  P3  1  0.74908295  0.75053962  0.49980971  1
  P  P4  1  0.25233556  0.49861561  0.37518240  1
  P  P5  1  0.24797495  0.00067060  0.37603969  1
  P  P6  1  0.75044894  0.24780027  0.75504090  1
  P  P7  1  0.74780014  0.75121486  0.74898115  1
  P  P8  1  0.25052946  0.49475858  0.62083872  1
  P  P9  1  0.24894505  0.00103989  0.62672926  1
  P  P10  1  0.74978655  0.25640501  0.99808810  1
  P  P11  1  0.74820643  0.74828681  0.00085067  1
  P  P12  1  0.24634630  0.50433173  0.87233828  1
  P  P13  1  0.25181695  0.99503786  0.87550246  1
  P  P14  1  0.24994607  0.50017639  0.12574824  1
  P  P15  1  0.25207242  0.00396969  0.12717314  1
  S  S0  1  0.87033076  0.36047856  0.05177170  1
  S  S1  1  0.86372287  0.85579816  0.05055418  1
  S  S2  1  0.86196743  0.36332532  0.30173369  1
  S  S3  1  0.86326900  0.86164109  0.30258067  1
  S  S4  1  0.36514444  0.61124177  0.17764735  1
  S  S5  1  0.37339384  0.10989769  0.17993035  1
  S  S6  1  0.86327838  0.35899310  0.55056553  1
  S  S7  1  0.86231919  0.86209929  0.55193797  1
  S  S8  1  0.36516679  0.60939968  0.42761692  1
  S  S9  1  0.37056985  0.11204736  0.42770241  1
  S  S10  1  0.87900504  0.35123577  0.80580089  1
  S  S11  1  0.86557069  0.86169356  0.80275278  1
  S  S12  1  0.36331244  0.60598463  0.67387831  1
  S  S13  1  0.36700230  0.11142139  0.67614913  1
  S  S14  1  0.36812598  0.60785245  0.92629426  1
  S  S15  1  0.36671799  0.10286052  0.92612652  1
  S  S16  1  0.63538783  0.64531863  0.30593688  1
  S  S17  1  0.63893389  0.14485459  0.30575540  1
  S  S18  1  0.63596369  0.64768938  0.55618180  1
  S  S19  1  0.63737440  0.14373943  0.55186465  1
  S  S20  1  0.13770000  0.89571437  0.43240959  1
  S  S21  1  0.12945433  0.39541855  0.43071228  1
  S  S22  1  0.63014232  0.64800745  0.80624336  1
  S  S23  1  0.62628812  0.14237411  0.80649926  1
  S  S24  1  0.12865641  0.89558816  0.67901861  1
  S  S25  1  0.13188980  0.39259496  0.67539268  1
  S  S26  1  0.62637998  0.64385944  0.05341323  1
  S  S27  1  0.63360708  0.15089394  0.05312349  1
  S  S28  1  0.12407540  0.89670498  0.92602359  1
  S  S29  1  0.13893006  0.39746300  0.93007990  1
  S  S30  1  0.13958135  0.89612087  0.18292900  1
  S  S31  1  0.13573743  0.39611234  0.18183504  1
  S  S32  1  0.86638845  0.13942119  0.19787823  1
  S  S33  1  0.86554606  0.63936835  0.19811552  1
  S  S34  1  0.87412354  0.14138251  0.44504437  1
  S  S35  1  0.86250642  0.63936000  0.44723040  1
  S  S36  1  0.36374579  0.38685761  0.32276014  1
  S  S37  1  0.36649686  0.89161024  0.32471000  1
  S  S38  1  0.86777571  0.14142539  0.70019602  1
  S  S39  1  0.86216665  0.64395958  0.69866839  1
  S  S40  1  0.37642356  0.39143581  0.56941795  1
  S  S41  1  0.36393822  0.89203214  0.57374252  1
  S  S42  1  0.86809137  0.14440087  0.94832569  1
  S  S43  1  0.86770049  0.63761418  0.94748226  1
  S  S44  1  0.36923483  0.39568104  0.82168570  1
  S  S45  1  0.36516689  0.88850200  0.81992260  1
  S  S46  1  0.36137866  0.38692835  0.07413727  1
  S  S47  1  0.36328765  0.88959086  0.07479634  1
  S  S48  1  0.63567142  0.35348442  0.19384716  1
  S  S49  1  0.63596693  0.85276552  0.19418885  1
  S  S50  1  0.63879922  0.35365731  0.44246010  1
  S  S51  1  0.63527647  0.85337881  0.44340448  1
  S  S52  1  0.13370593  0.60122385  0.32081287  1
  S  S53  1  0.13467708  0.10362365  0.32020697  1
  S  S54  1  0.63511455  0.35131104  0.70169008  1
  S  S55  1  0.62640226  0.85534016  0.69608002  1
  S  S56  1  0.13071827  0.60287586  0.56863455  1
  S  S57  1  0.12721363  0.10398721  0.56986716  1
  S  S58  1  0.62758452  0.36040941  0.94591525  1
  S  S59  1  0.62791274  0.85250882  0.94437230  1
  S  S60  1  0.12805042  0.60534163  0.81967406  1
  S  S61  1  0.13466061  0.10326410  0.81852029  1
  S  S62  1  0.13680701  0.60493510  0.06998181  1
  S  S63  1  0.14025337  0.10605952  0.07285742  1
loop_
_geom_bond_atom_site_label_1
_geom_bond_atom_site_label_2
_geom_bond_distance
_geom_bond_site_symmetry_2
Li0 S40 2.511709 1_555
Li0 S57 2.590478 1_555
Li0 S21 2.624666 1_555
Li0 S9 2.626676 1_555
Li1 S58 2.532462 1_555
Li1 S10 2.551550 1_555
Li1 S43 2.629534 1_555
Li1 S22 2.669803 1_555
Li2 S23 2.519601 1_555
Li2 S42 2.542391 1_555
Li2 S59 2.621793 1_545
Li2 S11 2.679526 1_545
Li3 S44 2.554573 1_555
Li3 S25 2.601282 1_555
Li3 S61 2.614952 1_555
Li3 S13 2.635969 1_555
Li4 S4 2.458197 1_555
Li4 S48 2.465220 1_555
Li4 S16 2.476461 1_555
Li4 S36 2.506071 1_555
Li5 S5 2.415302 1_565
Li5 S49 2.454425 1_555
Li5 S17 2.468343 1_565
Li5 S37 2.488423 1_555
Li6 S40 2.424687 1_555
Li6 S18 2.441430 1_555
Li6 S8 2.471497 1_555
Li6 S50 2.476901 1_555
Li7 S19 2.406460 1_565
Li7 S51 2.434371 1_555
Li7 S41 2.482090 1_555
Li7 S9 2.501419 1_565
Li8 S3 2.470221 1_455
Li8 S52 2.477552 1_555
Li8 S35 2.478852 1_455
Li8 S20 2.491998 1_555
Li9 S2 2.426571 1_555
Li9 S34 2.428447 1_555
Li9 S53 2.451701 1_655
Li9 S21 2.475235 1_655
Li10 S54 2.420840 1_555
Li10 S44 2.428598 1_555
Li10 S22 2.463792 1_555
Li10 S12 2.464222 1_555
Li11 S55 2.415660 1_545
Li11 S23 2.421150 1_555
Li11 S45 2.434443 1_545
Li11 S13 2.445522 1_555
Li12 S39 2.426087 1_555
Li12 S24 2.464945 1_655
Li12 S7 2.475903 1_555
Li12 S56 2.479943 1_655
Li13 S25 2.422744 1_655
Li13 S38 2.425623 1_555
Li13 S6 2.436988 1_555
Li13 S57 2.487813 1_655
Li14 S58 2.411106 1_554
Li14 S26 2.433811 1_555
Li14 S46 2.434204 1_555
Li14 S14 2.447955 1_554
Li15 S15 2.420861 1_554
Li15 S47 2.435661 1_545
Li15 S27 2.490401 1_555
Li15 S59 2.516575 1_544
Li16 S28 2.356850 1_555
Li16 S60 2.368359 1_555
Li16 S43 2.493860 1_455
Li16 S11 2.504443 1_455
Li17 S42 2.403832 1_455
Li17 S10 2.410572 1_455
Li17 S29 2.433960 1_555
Li17 S61 2.458910 1_555
Li18 S1 2.452953 1_455
Li18 S62 2.485231 1_555
Li18 S33 2.493920 1_455
Li18 S30 2.496283 1_555
Li19 S63 2.404881 1_555
Li19 S31 2.474365 1_555
Li19 S0 2.474618 1_455
Li19 S32 2.483375 1_455
Li20 S54 2.389416 1_555
Li20 S19 2.398085 1_555
Li20 S40 2.442763 1_555
Li20 S13 2.445379 1_555
Li21 S15 2.372827 1_555
Li21 S44 2.398919 1_555
Li21 S58 2.402880 1_555
Li21 S23 2.408733 1_555
Li22 S60 2.393836 1_655
Li22 S39 2.404441 1_555
Li22 S10 2.429194 1_555
Li22 S25 2.437985 1_655
Li23 S63 2.390848 1_555
Li23 S28 2.400590 1_544
Li23 S1 2.433412 1_445
Li23 S42 2.440468 1_454
P0 S48 2.057550 1_555
P0 S32 2.060174 1_555
P0 S2 2.067298 1_555
P0 S17 2.069536 1_555
P1 S49 2.057709 1_555
P1 S33 2.062695 1_555
P1 S3 2.067596 1_555
P1 S16 2.070003 1_555
P2 S19 2.021394 1_555
P2 S34 2.071663 1_555
P2 S50 2.075025 1_555
P2 S6 2.075159 1_555
P3 S18 2.057957 1_555
P3 S7 2.062444 1_555
P3 S51 2.062852 1_555
P3 S35 2.065864 1_555
P4 S52 2.055712 1_555
P4 S36 2.058377 1_555
P4 S8 2.059044 1_555
P4 S21 2.096398 1_555
P5 S53 2.052805 1_555
P5 S37 2.058699 1_545
P5 S20 2.058775 1_545
P5 S9 2.101113 1_555
P6 S54 2.030991 1_555
P6 S23 2.062005 1_555
P6 S10 2.065378 1_555
P6 S38 2.082282 1_555
P7 S39 2.011456 1_555
P7 S55 2.059530 1_555
P7 S22 2.095317 1_555
P7 S11 2.099082 1_555
P8 S25 2.054197 1_555
P8 S40 2.058149 1_555
P8 S56 2.069521 1_555
P8 S12 2.070315 1_555
P9 S13 2.041561 1_555
P9 S24 2.053366 1_545
P9 S41 2.063408 1_545
P9 S57 2.109237 1_555
P10 S58 2.052894 1_555
P10 S42 2.058266 1_555
P10 S0 2.067267 1_556
P10 S27 2.071492 1_556
P11 S1 2.011740 1_555
P11 S26 2.057949 1_555
P11 S43 2.102517 1_554
P11 S59 2.104927 1_554
P12 S60 2.019290 1_555
P12 S44 2.069052 1_555
P12 S14 2.073640 1_555
P12 S29 2.079081 1_555
P13 S28 2.021149 1_555
P13 S15 2.023207 1_565
P13 S45 2.074651 1_555
P13 S61 2.123838 1_565
P14 S46 2.058458 1_555
P14 S62 2.063325 1_555
P14 S4 2.065221 1_555
P14 S31 2.067201 1_555
P15 S63 2.017838 1_555
P15 S5 2.071108 1_555
P15 S47 2.076155 1_545
P15 S30 2.080239 1_545
S0 Zn11 2.356514 1_655
S2 Zn4 2.367886 1_555
S3 Zn5 2.378155 1_555
S4 Zn1 2.377462 1_555
S5 Zn0 2.357117 1_555
S6 Zn7 2.353060 1_555
S7 Zn8 2.347018 1_555
S8 Zn3 2.381151 1_555
S9 Zn2 2.404376 1_555
S11 Zn10 2.377640 1_565
S12 Zn6 2.364011 1_555
S14 Zn9 2.328923 1_555
S16 Zn3 2.360777 1_555
S17 Zn2 2.345177 1_555
S18 Zn6 2.380660 1_555
S20 Zn8 2.372008 1_455
S21 Zn7 2.406296 1_455
S22 Zn9 2.395770 1_555
S24 Zn10 2.368799 1_465
S26 Zn1 2.379342 1_555
S27 Zn0 2.364825 1_555
S29 Zn11 2.363540 1_556
S30 Zn5 2.338716 1_455
S31 Zn4 2.347426 1_455
S32 Zn5 2.370418 1_545
S33 Zn4 2.358854 1_555
S34 Zn8 2.351072 1_545
S35 Zn7 2.357385 1_555
S36 Zn2 2.372017 1_555
S37 Zn3 2.376654 1_555
S38 Zn10 2.341984 1_555
S41 Zn6 2.386805 1_555
S43 Zn11 2.402201 1_656
S45 Zn9 2.330553 1_555
S46 Zn0 2.373744 1_555
S47 Zn1 2.348023 1_555
S48 Zn0 2.385466 1_555
S49 Zn1 2.384518 1_555
S50 Zn2 2.347307 1_555
S51 Zn3 2.369019 1_555
S52 Zn4 2.394385 1_455
S53 Zn5 2.409132 1_445
S55 Zn6 2.372847 1_555
S56 Zn7 2.343748 1_455
S57 Zn8 2.397258 1_445
S59 Zn9 2.389096 1_555
S61 Zn10 2.361151 1_455
S62 Zn11 2.369785 1_555
