# generated using pymatgen
data_SrU
_symmetry_space_group_name_H-M   'P 1'
_cell_length_a   23.11812037
_cell_length_b   23.11812037
_cell_length_c   23.11812113
_cell_angle_alpha   17.12162715
_cell_angle_beta   17.12162715
_cell_angle_gamma   17.12162809
_symmetry_Int_Tables_number   1
_chemical_formula_structural   SrU
_chemical_formula_sum   'Sr8 U8'
_cell_volume   934.30014438
_cell_formula_units_Z   8
loop_
 _symmetry_equiv_pos_site_id
 _symmetry_equiv_pos_as_xyz
  1  'x, y, z'
loop_
 _atom_site_type_symbol
 _atom_site_label
 _atom_site_symmetry_multiplicity
 _atom_site_fract_x
 _atom_site_fract_y
 _atom_site_fract_z
 _atom_site_occupancy
  Sr  Sr0_0  1  0.44508650  0.44508650  0.44508650  1
  Sr  Sr0_1  1  0.44508650  0.44508650  0.94508650  1
  Sr  Sr0_2  1  0.44508650  0.94508650  0.44508650  1
  Sr  Sr0_3  1  0.44508650  0.94508650  0.94508650  1
  Sr  Sr0_4  1  0.94508650  0.44508650  0.44508650  1
  Sr  Sr0_5  1  0.94508650  0.44508650  0.94508650  1
  Sr  Sr0_6  1  0.94508650  0.94508650  0.44508650  1
  Sr  Sr0_7  1  0.94508650  0.94508650  0.94508650  1
  U  U0_0  1  0.32391350  0.32391350  0.32391350  1
  U  U0_1  1  0.32391350  0.32391350  0.82391350  1
  U  U0_2  1  0.32391350  0.82391350  0.32391350  1
  U  U0_3  1  0.32391350  0.82391350  0.82391350  1
  U  U0_4  1  0.82391350  0.32391350  0.32391350  1
  U  U0_5  1  0.82391350  0.32391350  0.82391350  1
  U  U0_6  1  0.82391350  0.82391350  0.32391350  1
  U  U0_7  1  0.82391350  0.82391350  0.82391350  1
loop_
_geom_bond_atom_site_label_1
_geom_bond_atom_site_label_2
_geom_bond_distance
_geom_bond_site_symmetry_2
Sr0_0 Sr0_5 3.441342 1_554
Sr0_0 Sr0_3 3.441342 1_545
Sr0_0 Sr0_3 3.441342 1_554
Sr0_0 Sr0_5 3.441342 1_455
Sr0_0 Sr0_6 3.441342 1_545
Sr0_0 Sr0_6 3.441342 1_455
Sr0_0 U0_4 3.688993 1_555
Sr0_0 U0_2 3.688993 1_555
Sr0_0 U0_1 3.688993 1_555
Sr0_1 Sr0_2 3.441342 1_546
Sr0_1 Sr0_4 3.441342 1_456
Sr0_1 Sr0_4 3.441342 1_555
Sr0_1 Sr0_2 3.441342 1_555
Sr0_1 Sr0_7 3.441342 1_545
Sr0_1 Sr0_7 3.441342 1_455
Sr0_1 U0_5 3.688993 1_555
Sr0_1 U0_3 3.688993 1_555
Sr0_1 U0_0 3.688993 1_556
Sr0_2 Sr0_7 3.441342 1_554
Sr0_2 Sr0_7 3.441342 1_455
Sr0_2 Sr0_4 3.441342 1_465
Sr0_2 Sr0_4 3.441342 1_555
Sr0_2 U0_6 3.688993 1_555
Sr0_2 U0_0 3.688993 1_565
Sr0_2 U0_3 3.688993 1_555
Sr0_3 Sr0_6 3.441342 1_456
Sr0_3 Sr0_6 3.441342 1_555
Sr0_3 Sr0_5 3.441342 1_465
Sr0_3 Sr0_5 3.441342 1_555
Sr0_3 U0_7 3.688993 1_555
Sr0_3 U0_1 3.688993 1_565
Sr0_3 U0_2 3.688993 1_556
Sr0_4 Sr0_7 3.441342 1_545
Sr0_4 Sr0_7 3.441342 1_554
Sr0_4 U0_6 3.688993 1_555
Sr0_4 U0_0 3.688993 1_655
Sr0_4 U0_5 3.688993 1_555
Sr0_5 Sr0_6 3.441342 1_546
Sr0_5 Sr0_6 3.441342 1_555
Sr0_5 U0_7 3.688993 1_555
Sr0_5 U0_1 3.688993 1_655
Sr0_5 U0_4 3.688993 1_556
Sr0_6 U0_4 3.688993 1_565
Sr0_6 U0_2 3.688993 1_655
Sr0_6 U0_7 3.688993 1_555
Sr0_7 U0_5 3.688993 1_565
Sr0_7 U0_3 3.688993 1_655
Sr0_7 U0_6 3.688993 1_556
U0_0 U0_3 3.441342 1_545
U0_0 U0_5 3.441342 1_554
U0_0 U0_5 3.441342 1_455
U0_0 U0_3 3.441342 1_554
U0_0 U0_6 3.441342 1_545
U0_0 U0_6 3.441342 1_455
U0_1 U0_2 3.441342 1_555
U0_1 U0_4 3.441342 1_555
U0_1 U0_2 3.441342 1_546
U0_1 U0_4 3.441342 1_456
U0_1 U0_7 3.441342 1_545
U0_1 U0_7 3.441342 1_455
U0_2 U0_7 3.441342 1_554
U0_2 U0_7 3.441342 1_455
U0_2 U0_4 3.441342 1_465
U0_2 U0_4 3.441342 1_555
U0_3 U0_6 3.441342 1_555
U0_3 U0_6 3.441342 1_456
U0_3 U0_5 3.441342 1_465
U0_3 U0_5 3.441342 1_555
U0_4 U0_7 3.441342 1_554
U0_4 U0_7 3.441342 1_545
U0_5 U0_6 3.441342 1_555
U0_5 U0_6 3.441342 1_546
