# generated using pymatgen
data_Sr11Sb10
_symmetry_space_group_name_H-M   'P 1'
_cell_length_a   12.82214030
_cell_length_b   12.82214030
_cell_length_c   12.82214030
_cell_angle_alpha   121.31075543
_cell_angle_beta   121.31075543
_cell_angle_gamma   87.74431279
_symmetry_Int_Tables_number   1
_chemical_formula_structural   Sr11Sb10
_chemical_formula_sum   'Sr22 Sb20'
_cell_volume   1459.85756663
_cell_formula_units_Z   2
loop_
 _symmetry_equiv_pos_site_id
 _symmetry_equiv_pos_as_xyz
  1  'x, y, z'
loop_
 _atom_site_type_symbol
 _atom_site_label
 _atom_site_symmetry_multiplicity
 _atom_site_fract_x
 _atom_site_fract_y
 _atom_site_fract_z
 _atom_site_occupancy
  Sr  Sr0  1  0.81027700  0.06062100  0.25034400  1
  Sr  Sr1  1  0.81027700  0.55993300  0.74965600  1
  Sr  Sr2  1  0.06062100  0.81027700  0.25034400  1
  Sr  Sr3  1  0.55993300  0.81027700  0.74965600  1
  Sr  Sr4  1  0.18972300  0.93937900  0.74965600  1
  Sr  Sr5  1  0.18972300  0.44006700  0.25034400  1
  Sr  Sr6  1  0.93937900  0.18972300  0.74965600  1
  Sr  Sr7  1  0.44006700  0.18972300  0.25034400  1
  Sr  Sr8  1  0.16910600  0.16910600  0.33821100  1
  Sr  Sr9  1  0.83089400  0.83089400  0.66178900  1
  Sr  Sr10  1  0.16910600  0.83089400  0.00000000  1
  Sr  Sr11  1  0.83089400  0.16910600  0.00000000  1
  Sr  Sr12  1  0.65527500  0.65527500  0.00000000  1
  Sr  Sr13  1  0.34472500  0.34472500  0.00000000  1
  Sr  Sr14  1  0.60487000  0.93958100  0.33471100  1
  Sr  Sr15  1  0.60487000  0.27015900  0.66528900  1
  Sr  Sr16  1  0.93958100  0.60487000  0.33471100  1
  Sr  Sr17  1  0.27015900  0.60487000  0.66528900  1
  Sr  Sr18  1  0.39513000  0.06041900  0.66528900  1
  Sr  Sr19  1  0.39513000  0.72984100  0.33471100  1
  Sr  Sr20  1  0.06041900  0.39513000  0.66528900  1
  Sr  Sr21  1  0.72984100  0.39513000  0.33471100  1
  Sb  Sb0  1  0.35369000  0.00000000  0.35369000  1
  Sb  Sb1  1  0.64631000  0.00000000  0.64631000  1
  Sb  Sb2  1  0.00000000  0.64631000  0.64631000  1
  Sb  Sb3  1  0.00000000  0.35369000  0.35369000  1
  Sb  Sb4  1  0.87809900  0.87809900  0.00000000  1
  Sb  Sb5  1  0.12190100  0.12190100  0.00000000  1
  Sb  Sb6  1  0.37880400  0.37880400  0.75760800  1
  Sb  Sb7  1  0.62119600  0.62119600  0.24239200  1
  Sb  Sb8  1  0.37880400  0.62119600  0.00000000  1
  Sb  Sb9  1  0.62119600  0.37880400  0.00000000  1
  Sb  Sb10  1  0.75000000  0.25000000  0.50000000  1
  Sb  Sb11  1  0.25000000  0.75000000  0.50000000  1
  Sb  Sb12  1  0.88908900  0.88908900  0.41947200  1
  Sb  Sb13  1  0.46961700  0.46961700  0.58052800  1
  Sb  Sb14  1  0.88908900  0.46961700  0.00000000  1
  Sb  Sb15  1  0.46961700  0.88908900  0.00000000  1
  Sb  Sb16  1  0.11091100  0.11091100  0.58052800  1
  Sb  Sb17  1  0.53038300  0.53038300  0.41947200  1
  Sb  Sb18  1  0.11091100  0.53038300  0.00000000  1
  Sb  Sb19  1  0.53038300  0.11091100  0.00000000  1
loop_
_geom_bond_atom_site_label_1
_geom_bond_atom_site_label_2
_geom_bond_distance
_geom_bond_site_symmetry_2
Sb0 Sr10 3.146041 1_545
Sb0 Sr8 3.146041 1_555
Sb0 Sr18 3.384423 1_555
Sb0 Sr15 3.384423 1_555
Sb0 Sr14 3.384423 1_545
Sb0 Sr19 3.384423 1_545
Sb0 Sr7 3.740091 1_555
Sb0 Sr2 3.740091 1_545
Sb1 Sr11 3.146041 1_556
Sb1 Sr9 3.146041 1_545
Sb1 Sr15 3.384423 1_555
Sb1 Sr19 3.384423 1_545
Sb1 Sr18 3.384423 1_555
Sb1 Sr14 3.384423 1_545
Sb1 Sr6 3.740091 1_555
Sb1 Sr3 3.740091 1_545
Sb2 Sr10 3.146041 1_556
Sb2 Sr9 3.146041 1_455
Sb2 Sr20 3.384423 1_555
Sb2 Sr17 3.384423 1_555
Sb2 Sr21 3.384423 1_455
Sb2 Sr16 3.384423 1_455
Sb2 Sr4 3.740091 1_555
Sb2 Sr1 3.740091 1_455
Sb3 Sr11 3.146041 1_455
Sb3 Sr8 3.146041 1_555
Sb3 Sr20 3.384423 1_555
Sb3 Sr17 3.384423 1_555
Sb3 Sr16 3.384423 1_455
Sb3 Sr21 3.384423 1_455
Sb3 Sr5 3.740091 1_555
Sb3 Sr0 3.740091 1_455
Sb4 Sr3 3.386772 1_554
Sb4 Sr1 3.386772 1_554
Sb4 Sr0 3.386772 1_565
Sb4 Sr2 3.386772 1_655
Sb4 Sr9 3.756503 1_554
Sb4 Sr8 3.756514 1_665
Sb4 Sr11 3.756516 1_565
Sb4 Sr10 3.756516 1_655
Sb5 Sr7 3.386772 1_555
Sb5 Sr4 3.386772 1_544
Sb5 Sr6 3.386772 1_454
Sb5 Sr5 3.386772 1_555
Sb5 Sr8 3.756503 1_555
Sb5 Sr9 3.756514 1_444
Sb5 Sr10 3.756516 1_545
Sb5 Sr11 3.756516 1_455
Sb6 Sb9 3.046207 1_556
Sb6 Sb8 3.046207 1_556
Sb6 Sr12 3.588808 1_556
Sb6 Sr13 3.588808 1_556
Sb6 Sr18 3.643966 1_555
Sb6 Sr15 3.643966 1_555
Sb6 Sr17 3.643966 1_555
Sb6 Sr20 3.643966 1_555
Sb6 Sr8 3.726931 1_555
Sb7 Sb9 3.046207 1_555
Sb7 Sb8 3.046207 1_555
Sb7 Sr12 3.588808 1_555
Sb7 Sr13 3.588808 1_555
Sb7 Sr19 3.643966 1_555
Sb7 Sr21 3.643966 1_555
Sb7 Sr16 3.643966 1_555
Sb7 Sr14 3.643966 1_555
Sb7 Sr9 3.726931 1_555
Sb8 Sr12 3.588808 1_555
Sb8 Sr13 3.588808 1_555
Sb8 Sr19 3.643966 1_555
Sb8 Sr20 3.643966 1_554
Sb8 Sr17 3.643966 1_554
Sb8 Sr14 3.643966 1_555
Sb8 Sr10 3.726923 1_555
Sb9 Sr12 3.588808 1_555
Sb9 Sr13 3.588808 1_555
Sb9 Sr21 3.643966 1_555
Sb9 Sr18 3.643966 1_554
Sb9 Sr15 3.643966 1_554
Sb9 Sr16 3.643966 1_555
Sb9 Sr11 3.726923 1_555
Sb10 Sr0 3.329502 1_555
Sb10 Sr6 3.329502 1_555
Sb10 Sr7 3.329502 1_555
Sb10 Sr1 3.329502 1_555
Sb10 Sr15 3.393112 1_555
Sb10 Sr14 3.393112 1_545
Sb10 Sr20 3.393112 1_655
Sb10 Sr21 3.393112 1_555
Sb11 Sr2 3.329502 1_555
Sb11 Sr4 3.329502 1_555
Sb11 Sr5 3.329502 1_555
Sb11 Sr3 3.329502 1_555
Sb11 Sr16 3.393112 1_455
Sb11 Sr18 3.393112 1_565
Sb11 Sr17 3.393112 1_555
Sb11 Sr19 3.393112 1_555
Sb12 Sb16 2.978453 1_665
Sb12 Sr14 3.363069 1_555
Sb12 Sr16 3.363069 1_555
Sb12 Sr2 3.614694 1_655
Sb12 Sr0 3.614694 1_565
Sb12 Sr4 3.687151 1_655
Sb12 Sr6 3.687151 1_565
Sb12 Sr12 3.754080 1_555
Sb12 Sr9 3.953521 1_555
Sb13 Sb17 2.978453 1_555
Sb13 Sr17 3.363069 1_555
Sb13 Sr15 3.363069 1_555
Sb13 Sr1 3.614694 1_555
Sb13 Sr3 3.614694 1_555
Sb13 Sr7 3.687151 1_555
Sb13 Sr5 3.687151 1_555
Sb13 Sr12 3.754080 1_556
Sb13 Sr8 3.953505 1_555
Sb14 Sb18 2.978453 1_655
Sb14 Sr16 3.363069 1_555
Sb14 Sr15 3.363069 1_554
Sb14 Sr2 3.614694 1_655
Sb14 Sr1 3.614694 1_554
Sb14 Sr6 3.687151 1_554
Sb14 Sr5 3.687151 1_655
Sb14 Sr12 3.754080 1_555
Sb14 Sr11 3.953508 1_555
Sb15 Sb19 2.978453 1_565
Sb15 Sr14 3.363069 1_555
Sb15 Sr17 3.363069 1_554
Sb15 Sr0 3.614694 1_565
Sb15 Sr3 3.614694 1_554
Sb15 Sr4 3.687151 1_554
Sb15 Sr7 3.687151 1_565
Sb15 Sr12 3.754080 1_555
Sb15 Sr10 3.953508 1_555
Sb16 Sr20 3.363069 1_555
Sb16 Sr18 3.363069 1_555
Sb16 Sr6 3.614694 1_455
Sb16 Sr4 3.614694 1_545
Sb16 Sr2 3.687151 1_545
Sb16 Sr0 3.687151 1_455
Sb16 Sr13 3.754080 1_556
Sb16 Sr8 3.953521 1_555
Sb17 Sr19 3.363069 1_555
Sb17 Sr21 3.363069 1_555
Sb17 Sr5 3.614694 1_555
Sb17 Sr7 3.614694 1_555
Sb17 Sr1 3.687151 1_555
Sb17 Sr3 3.687151 1_555
Sb17 Sr13 3.754080 1_555
Sb17 Sr9 3.953505 1_555
Sb18 Sr19 3.363069 1_555
Sb18 Sr20 3.363069 1_554
Sb18 Sr6 3.614694 1_454
Sb18 Sr5 3.614694 1_555
Sb18 Sr2 3.687151 1_555
Sb18 Sr1 3.687151 1_454
Sb18 Sr13 3.754080 1_555
Sb18 Sr10 3.953508 1_555
Sb19 Sr18 3.363069 1_554
Sb19 Sr21 3.363069 1_555
Sb19 Sr4 3.614694 1_544
Sb19 Sr7 3.614694 1_555
Sb19 Sr0 3.687151 1_555
Sb19 Sr3 3.687151 1_544
Sb19 Sr13 3.754080 1_555
Sb19 Sr11 3.953508 1_555
