# generated using pymatgen
data_Tm3AlN
_symmetry_space_group_name_H-M   'P 1'
_cell_length_a   4.65734774
_cell_length_b   4.65734774
_cell_length_c   4.65734774
_cell_angle_alpha   90.00000000
_cell_angle_beta   90.00000000
_cell_angle_gamma   90.00000000
_symmetry_Int_Tables_number   1
_chemical_formula_structural   Tm3AlN
_chemical_formula_sum   'Tm3 Al1 N1'
_cell_volume   101.02200807
_cell_formula_units_Z   1
loop_
 _symmetry_equiv_pos_site_id
 _symmetry_equiv_pos_as_xyz
  1  'x, y, z'
loop_
 _atom_site_type_symbol
 _atom_site_label
 _atom_site_symmetry_multiplicity
 _atom_site_fract_x
 _atom_site_fract_y
 _atom_site_fract_z
 _atom_site_occupancy
  Tm  Tm0  1  0.50000000  0.50000000  0.00000000  1
  Tm  Tm1  1  0.50000000  -0.00000000  0.50000000  1
  Tm  Tm2  1  0.00000000  0.50000000  0.50000000  1
  Al  Al0  1  0.00000000  -0.00000000  0.00000000  1
  N  N0  1  0.50000000  0.50000000  0.50000000  1
loop_
_geom_bond_atom_site_label_1
_geom_bond_atom_site_label_2
_geom_bond_distance
_geom_bond_site_symmetry_2
Al0 Tm0 3.293242 1_445
Al0 Tm1 3.293242 1_555
Al0 Tm1 3.293242 1_454
Al0 Tm2 3.293242 1_554
Al0 Tm0 3.293242 1_455
Al0 Tm0 3.293242 1_555
Al0 Tm2 3.293242 1_544
Al0 Tm2 3.293242 1_545
Al0 Tm2 3.293242 1_555
Al0 Tm1 3.293242 1_554
Al0 Tm1 3.293242 1_455
Al0 Tm0 3.293242 1_545
N0 Tm1 2.328674 1_565
N0 Tm1 2.328674 1_555
N0 Tm0 2.328674 1_555
N0 Tm0 2.328674 1_556
N0 Tm2 2.328674 1_655
N0 Tm2 2.328674 1_555
