# generated using pymatgen
data_CaCo3(P2O7)2
_symmetry_space_group_name_H-M   'P 1'
_cell_length_a   7.72115800
_cell_length_b   7.45391800
_cell_length_c   9.52993175
_cell_angle_alpha   68.16270491
_cell_angle_beta   90.00000000
_cell_angle_gamma   90.00000000
_symmetry_Int_Tables_number   1
_chemical_formula_structural   CaCo3(P2O7)2
_chemical_formula_sum   'Ca2 Co6 P8 O28'
_cell_volume   509.11857691
_cell_formula_units_Z   2
loop_
 _symmetry_equiv_pos_site_id
 _symmetry_equiv_pos_as_xyz
  1  'x, y, z'
loop_
 _atom_site_type_symbol
 _atom_site_label
 _atom_site_symmetry_multiplicity
 _atom_site_fract_x
 _atom_site_fract_y
 _atom_site_fract_z
 _atom_site_occupancy
  Ca  Ca0  1  0.00000000  0.50000000  0.00000000  1
  Ca  Ca1  1  0.50000000  0.50000000  0.50000000  1
  Co  Co0  1  0.12702400  0.81448300  0.52501000  1
  Co  Co1  1  0.62702400  0.18551700  0.97499000  1
  Co  Co2  1  0.87297600  0.18551700  0.47499000  1
  Co  Co3  1  0.37297600  0.81448300  0.02501000  1
  Co  Co4  1  0.00000000  0.00000000  0.00000000  1
  Co  Co5  1  0.50000000  0.00000000  0.50000000  1
  P  P0  1  0.93476800  0.40191700  0.70351300  1
  P  P1  1  0.43476800  0.59808300  0.79648700  1
  P  P2  1  0.06523200  0.59808300  0.29648700  1
  P  P3  1  0.56523200  0.40191700  0.20351300  1
  P  P4  1  0.20361900  0.11958200  0.69103800  1
  P  P5  1  0.70361900  0.88041800  0.80896200  1
  P  P6  1  0.79638100  0.88041800  0.30896200  1
  P  P7  1  0.29638100  0.11958200  0.19103800  1
  O  O0  1  0.37654900  0.16992000  0.60707000  1
  O  O1  1  0.87654900  0.83008000  0.89293000  1
  O  O2  1  0.62345100  0.83008000  0.39293000  1
  O  O3  1  0.12345100  0.16992000  0.10707000  1
  O  O4  1  0.38216700  0.72443000  0.63119600  1
  O  O5  1  0.88216700  0.27557000  0.86880400  1
  O  O6  1  0.61783300  0.27557000  0.36880400  1
  O  O7  1  0.11783300  0.72443000  0.13119600  1
  O  O8  1  0.80810800  0.37951900  0.58814700  1
  O  O9  1  0.30810800  0.62048100  0.91185300  1
  O  O10  1  0.19189200  0.62048100  0.41185300  1
  O  O11  1  0.69189200  0.37951900  0.08814700  1
  O  O12  1  0.12239700  0.32463000  0.67545200  1
  O  O13  1  0.62239700  0.67537000  0.82454800  1
  O  O14  1  0.87760300  0.67537000  0.32454800  1
  O  O15  1  0.37760300  0.32463000  0.17545200  1
  O  O16  1  0.52332600  0.60560600  0.19536100  1
  O  O17  1  0.02332600  0.39439400  0.30463900  1
  O  O18  1  0.47667400  0.39439400  0.80463900  1
  O  O19  1  0.97667400  0.60560600  0.69536100  1
  O  O20  1  0.78786300  0.99175400  0.13712800  1
  O  O21  1  0.28786300  0.00824600  0.36287200  1
  O  O22  1  0.21213700  0.00824600  0.86287200  1
  O  O23  1  0.71213700  0.99175400  0.63712800  1
  O  O24  1  0.42191000  0.02858500  0.11210700  1
  O  O25  1  0.92191000  0.97141500  0.38789300  1
  O  O26  1  0.57809000  0.97141500  0.88789300  1
  O  O27  1  0.07809000  0.02858500  0.61210700  1
loop_
_geom_bond_atom_site_label_1
_geom_bond_atom_site_label_2
_geom_bond_distance
_geom_bond_site_symmetry_2
Ca0 O3 2.477005 1_555
Ca0 O1 2.477005 1_454
Ca0 O11 2.571058 1_455
Ca0 O9 2.571058 1_554
Ca0 O7 2.597216 1_555
Ca0 O5 2.597216 1_454
Ca0 O17 2.716696 1_555
Ca0 O19 2.716696 1_454
Ca1 O2 2.477005 1_555
Ca1 O0 2.477005 1_555
Ca1 O8 2.571058 1_555
Ca1 O10 2.571058 1_555
Ca1 O4 2.597216 1_555
Ca1 O6 2.597216 1_555
Ca1 O18 2.716696 1_555
Ca1 O16 2.716696 1_555
Co0 O21 2.086984 1_565
Co0 O27 2.089032 1_565
Co0 O25 2.108756 1_455
Co0 O19 2.127644 1_455
Co0 O10 2.159863 1_555
Co0 O4 2.202310 1_555
Co1 O20 2.086984 1_546
Co1 O26 2.089032 1_545
Co1 O24 2.108756 1_556
Co1 O18 2.127644 1_555
Co1 O11 2.159863 1_556
Co1 O5 2.202310 1_555
Co2 O23 2.086984 1_545
Co2 O25 2.089032 1_545
Co2 O27 2.108756 1_655
Co2 O17 2.127644 1_655
Co2 O8 2.159863 1_555
Co2 O6 2.202310 1_555
Co3 O22 2.086984 1_564
Co3 O24 2.089032 1_565
Co3 O26 2.108756 1_554
Co3 O16 2.127644 1_555
Co3 O9 2.159863 1_554
Co3 O7 2.202310 1_555
Co4 O20 2.081985 1_445
Co4 O22 2.081985 1_554
Co4 O3 2.124939 1_555
Co4 O1 2.124939 1_444
Co4 O7 2.167859 1_545
Co4 O5 2.167859 1_454
Co5 O23 2.081985 1_545
Co5 O21 2.081985 1_555
Co5 O2 2.124939 1_545
Co5 O0 2.124939 1_555
Co5 O4 2.167859 1_545
Co5 O6 2.167859 1_555
O0 P4 1.529890 1_555
O1 P5 1.529890 1_555
O2 P6 1.529890 1_555
O3 P7 1.529890 1_555
O4 P1 1.558701 1_555
O5 P0 1.558701 1_555
O6 P3 1.558701 1_555
O7 P2 1.558701 1_555
O8 P0 1.526297 1_555
O9 P1 1.526297 1_555
O10 P2 1.526297 1_555
O11 P3 1.526297 1_555
O12 P4 1.607016 1_555
O12 P0 1.617645 1_455
O13 P5 1.607016 1_555
O13 P1 1.617645 1_555
O14 P6 1.607016 1_555
O14 P2 1.617645 1_655
O15 P7 1.607016 1_555
O15 P3 1.617645 1_555
O16 P3 1.525830 1_555
O17 P2 1.525830 1_555
O18 P1 1.525830 1_555
O19 P0 1.525830 1_555
O20 P6 1.537415 1_555
O21 P7 1.537415 1_555
O22 P4 1.537415 1_555
O23 P5 1.537415 1_555
O24 P7 1.531293 1_555
O25 P6 1.531293 1_555
O26 P5 1.531293 1_555
O27 P4 1.531293 1_555
