# generated using pymatgen
data_NiAg2Sn3S8
_symmetry_space_group_name_H-M   'P 1'
_cell_length_a   7.42584321
_cell_length_b   7.42584321
_cell_length_c   7.42584246
_cell_angle_alpha   61.29299358
_cell_angle_beta   61.29299358
_cell_angle_gamma   61.29299375
_symmetry_Int_Tables_number   1
_chemical_formula_structural   NiAg2Sn3S8
_chemical_formula_sum   'Ni1 Ag2 Sn3 S8'
_cell_volume   297.96524410
_cell_formula_units_Z   1
loop_
 _symmetry_equiv_pos_site_id
 _symmetry_equiv_pos_as_xyz
  1  'x, y, z'
loop_
 _atom_site_type_symbol
 _atom_site_label
 _atom_site_symmetry_multiplicity
 _atom_site_fract_x
 _atom_site_fract_y
 _atom_site_fract_z
 _atom_site_occupancy
  Ni  Ni0  1  0.50000000  0.50000000  0.50000000  1
  Ag  Ag0  1  0.89238341  0.89238341  0.89238341  1
  Ag  Ag1  1  0.10761659  0.10761659  0.10761659  1
  Sn  Sn0  1  0.50000000  -0.00000000  0.50000000  1
  Sn  Sn1  1  0.50000000  0.50000000  -0.00000000  1
  Sn  Sn2  1  -0.00000000  0.50000000  0.50000000  1
  S  S0  1  0.26855294  0.71340147  0.26855294  1
  S  S1  1  0.25300739  0.25300739  0.25300739  1
  S  S2  1  0.28659853  0.73144706  0.73144706  1
  S  S3  1  0.73144706  0.73144706  0.28659853  1
  S  S4  1  0.73144706  0.28659853  0.73144706  1
  S  S5  1  0.74699261  0.74699261  0.74699261  1
  S  S6  1  0.71340147  0.26855294  0.26855294  1
  S  S7  1  0.26855294  0.26855294  0.71340147  1
loop_
_geom_bond_atom_site_label_1
_geom_bond_atom_site_label_2
_geom_bond_distance
_geom_bond_site_symmetry_2
Ni0 S0 2.454348 1_555
Ni0 S4 2.454348 1_555
Ni0 S2 2.454348 1_555
Ni0 S6 2.454348 1_555
Ni0 S7 2.454348 1_555
Ni0 S3 2.454348 1_555
Ag0 S3 2.465029 1_556
Ag0 S4 2.465029 1_565
Ag0 S2 2.465029 1_655
Ag0 S5 2.618452 1_555
Ag1 S7 2.465029 1_554
Ag1 S6 2.465029 1_455
Ag1 S0 2.465029 1_545
Ag1 S1 2.618452 1_555
S0 Sn1 2.562991 1_555
S0 Sn2 2.562991 1_555
S1 Sn0 2.620845 1_555
S1 Sn2 2.620845 1_555
S1 Sn1 2.620845 1_555
S2 Sn1 2.562991 1_556
S2 Sn0 2.562991 1_565
S3 Sn2 2.562991 1_655
S3 Sn0 2.562991 1_565
S4 Sn1 2.562991 1_556
S4 Sn2 2.562991 1_655
S5 Sn0 2.620845 1_565
S5 Sn2 2.620845 1_655
S5 Sn1 2.620845 1_556
S6 Sn1 2.562991 1_555
S6 Sn0 2.562991 1_555
S7 Sn0 2.562991 1_555
S7 Sn2 2.562991 1_555
