# generated using pymatgen
data_KDyS2
_symmetry_space_group_name_H-M   'P 1'
_cell_length_a   7.67031840
_cell_length_b   7.67031840
_cell_length_c   7.67031856
_cell_angle_alpha   30.51396822
_cell_angle_beta   30.51396822
_cell_angle_gamma   30.51397203
_symmetry_Int_Tables_number   1
_chemical_formula_structural   KDyS2
_chemical_formula_sum   'K1 Dy1 S2'
_cell_volume   103.13302042
_cell_formula_units_Z   1
loop_
 _symmetry_equiv_pos_site_id
 _symmetry_equiv_pos_as_xyz
  1  'x, y, z'
loop_
 _atom_site_type_symbol
 _atom_site_label
 _atom_site_symmetry_multiplicity
 _atom_site_fract_x
 _atom_site_fract_y
 _atom_site_fract_z
 _atom_site_occupancy
  K  K0  1  0.50000000  0.50000000  0.50000000  1
  Dy  Dy0  1  0.00000000  0.00000000  0.00000000  1
  S  S0  1  0.73416986  0.73416986  0.73416986  1
  S  S1  1  0.26583014  0.26583014  0.26583014  1
loop_
_geom_bond_atom_site_label_1
_geom_bond_atom_site_label_2
_geom_bond_distance
_geom_bond_site_symmetry_2
K0 S0 3.187191 1_554
K0 S1 3.187191 1_556
K0 S0 3.187191 1_545
K0 S0 3.187191 1_455
K0 S1 3.187191 1_655
K0 S1 3.187191 1_565
Dy0 S1 2.760818 1_554
Dy0 S0 2.760818 1_445
Dy0 S1 2.760818 1_545
Dy0 S1 2.760818 1_455
Dy0 S0 2.760818 1_454
Dy0 S0 2.760818 1_544
