# generated using pymatgen
data_CsEr3Se5
_symmetry_space_group_name_H-M   'P 1'
_cell_length_a   4.10020931
_cell_length_b   12.33559180
_cell_length_c   21.99361423
_cell_angle_alpha   90.00000000
_cell_angle_beta   90.00000000
_cell_angle_gamma   90.00000000
_symmetry_Int_Tables_number   1
_chemical_formula_structural   CsEr3Se5
_chemical_formula_sum   'Cs4 Er12 Se20'
_cell_volume   1112.40420082
_cell_formula_units_Z   4
loop_
 _symmetry_equiv_pos_site_id
 _symmetry_equiv_pos_as_xyz
  1  'x, y, z'
loop_
 _atom_site_type_symbol
 _atom_site_label
 _atom_site_symmetry_multiplicity
 _atom_site_fract_x
 _atom_site_fract_y
 _atom_site_fract_z
 _atom_site_occupancy
  Cs  Cs0  1  0.25000000  0.85351572  0.09204470  1
  Cs  Cs1  1  0.75000000  0.14648428  0.90795530  1
  Cs  Cs2  1  0.75000000  0.35351572  0.40795530  1
  Cs  Cs3  1  0.25000000  0.64648428  0.59204470  1
  Er  Er0  1  0.75000000  0.79747764  0.82534534  1
  Er  Er1  1  0.25000000  0.20252236  0.17465466  1
  Er  Er2  1  0.25000000  0.29747764  0.67465466  1
  Er  Er3  1  0.75000000  0.70252236  0.32534534  1
  Er  Er4  1  0.25000000  0.95689866  0.69798202  1
  Er  Er5  1  0.75000000  0.04310134  0.30201798  1
  Er  Er6  1  0.75000000  0.45689866  0.80201798  1
  Er  Er7  1  0.25000000  0.54310134  0.19798202  1
  Er  Er8  1  0.75000000  0.39173101  0.05393120  1
  Er  Er9  1  0.25000000  0.60826899  0.94606880  1
  Er  Er10  1  0.25000000  0.89173101  0.44606880  1
  Er  Er11  1  0.75000000  0.10826899  0.55393120  1
  Se  Se0  1  0.25000000  0.94851819  0.56899163  1
  Se  Se1  1  0.75000000  0.05148181  0.43100837  1
  Se  Se2  1  0.75000000  0.44851819  0.93100837  1
  Se  Se3  1  0.25000000  0.55148181  0.06899163  1
  Se  Se4  1  0.75000000  0.76425096  0.95222970  1
  Se  Se5  1  0.25000000  0.23574904  0.04777030  1
  Se  Se6  1  0.25000000  0.26425096  0.54777030  1
  Se  Se7  1  0.75000000  0.73574904  0.45222970  1
  Se  Se8  1  0.25000000  0.94951550  0.82534622  1
  Se  Se9  1  0.75000000  0.05048450  0.17465378  1
  Se  Se10  1  0.75000000  0.44951550  0.67465378  1
  Se  Se11  1  0.25000000  0.55048450  0.32534622  1
  Se  Se12  1  0.75000000  0.12595386  0.68450047  1
  Se  Se13  1  0.25000000  0.87404614  0.31549953  1
  Se  Se14  1  0.25000000  0.62595386  0.81549953  1
  Se  Se15  1  0.75000000  0.37404614  0.18450047  1
  Se  Se16  1  0.75000000  0.69391401  0.19812829  1
  Se  Se17  1  0.25000000  0.30608599  0.80187171  1
  Se  Se18  1  0.25000000  0.19391401  0.30187171  1
  Se  Se19  1  0.75000000  0.80608599  0.69812829  1
loop_
_geom_bond_atom_site_label_1
_geom_bond_atom_site_label_2
_geom_bond_distance
_geom_bond_site_symmetry_2
Cs0 Se9 3.661629 1_565
Cs0 Se9 3.661629 1_465
Cs0 Se16 3.677319 1_455
Cs0 Se16 3.677319 1_555
Cs0 Se3 3.760108 1_555
Cs0 Se4 3.856330 1_554
Cs0 Se4 3.856330 1_454
Cs1 Se8 3.661629 1_645
Cs1 Se8 3.661629 1_545
Cs1 Se17 3.677319 1_555
Cs1 Se17 3.677319 1_655
Cs1 Se2 3.760108 1_555
Cs1 Se5 3.856330 1_556
Cs1 Se5 3.856330 1_656
Cs2 Se11 3.661629 1_555
Cs2 Se11 3.661629 1_655
Cs2 Se18 3.677319 1_655
Cs2 Se18 3.677319 1_555
Cs2 Se1 3.760108 1_555
Cs2 Se6 3.856330 1_555
Cs2 Se6 3.856330 1_655
Cs3 Se10 3.661629 1_555
Cs3 Se10 3.661629 1_455
Cs3 Se19 3.677319 1_555
Cs3 Se19 3.677319 1_455
Cs3 Se0 3.760108 1_555
Cs3 Se7 3.856330 1_555
Cs3 Se7 3.856330 1_455
Er0 Se8 2.778551 1_555
Er0 Se8 2.778551 1_655
Er0 Se19 2.799977 1_555
Er0 Se4 2.820585 1_555
Er0 Se14 2.954087 1_555
Er0 Se14 2.954087 1_655
Er1 Se9 2.778551 1_555
Er1 Se9 2.778551 1_455
Er1 Se18 2.799977 1_555
Er1 Se5 2.820585 1_555
Er1 Se15 2.954087 1_555
Er1 Se15 2.954087 1_455
Er2 Se10 2.778551 1_455
Er2 Se10 2.778551 1_555
Er2 Se17 2.799977 1_555
Er2 Se6 2.820585 1_555
Er2 Se12 2.954087 1_455
Er2 Se12 2.954087 1_555
Er3 Se11 2.778551 1_555
Er3 Se11 2.778551 1_655
Er3 Se16 2.799977 1_555
Er3 Se7 2.820585 1_555
Er3 Se13 2.954087 1_655
Er3 Se13 2.954087 1_555
Er4 Se19 2.768374 1_555
Er4 Se19 2.768374 1_455
Er4 Se8 2.802679 1_555
Er4 Se0 2.838848 1_555
Er4 Se12 2.939340 1_565
Er4 Se12 2.939340 1_465
Er5 Se18 2.768374 1_655
Er5 Se18 2.768374 1_555
Er5 Se9 2.802679 1_555
Er5 Se1 2.838848 1_555
Er5 Se13 2.939340 1_545
Er5 Se13 2.939340 1_645
Er6 Se17 2.768374 1_655
Er6 Se17 2.768374 1_555
Er6 Se10 2.802679 1_555
Er6 Se2 2.838848 1_555
Er6 Se14 2.939340 1_555
Er6 Se14 2.939340 1_655
Er7 Se16 2.768374 1_455
Er7 Se16 2.768374 1_555
Er7 Se11 2.802679 1_555
Er7 Se3 2.838848 1_555
Er7 Se15 2.939340 1_555
Er7 Se15 2.939340 1_455
Er8 Se2 2.792796 1_554
Er8 Se5 2.814883 1_555
Er8 Se5 2.814883 1_655
Er8 Se3 2.862864 1_555
Er8 Se3 2.862864 1_655
Er8 Se15 2.879964 1_555
Er9 Se3 2.792796 1_556
Er9 Se4 2.814883 1_455
Er9 Se4 2.814883 1_555
Er9 Se2 2.862864 1_555
Er9 Se2 2.862864 1_455
Er9 Se14 2.879964 1_555
Er10 Se0 2.792796 1_555
Er10 Se7 2.814883 1_455
Er10 Se7 2.814883 1_555
Er10 Se1 2.862864 1_465
Er10 Se1 2.862864 1_565
Er10 Se13 2.879964 1_555
Er11 Se1 2.792796 1_555
Er11 Se6 2.814883 1_655
Er11 Se6 2.814883 1_555
Er11 Se0 2.862864 1_645
Er11 Se0 2.862864 1_545
Er11 Se12 2.879964 1_555
