# generated using pymatgen
data_Zr2(CuSb)3
_symmetry_space_group_name_H-M   'P 1'
_cell_length_a   4.26966000
_cell_length_b   4.26966000
_cell_length_c   8.57875100
_cell_angle_alpha   90.00000000
_cell_angle_beta   90.00000000
_cell_angle_gamma   90.00000000
_symmetry_Int_Tables_number   1
_chemical_formula_structural   Zr2(CuSb)3
_chemical_formula_sum   'Zr2 Cu3 Sb3'
_cell_volume   156.39060084
_cell_formula_units_Z   1
loop_
 _symmetry_equiv_pos_site_id
 _symmetry_equiv_pos_as_xyz
  1  'x, y, z'
loop_
 _atom_site_type_symbol
 _atom_site_label
 _atom_site_symmetry_multiplicity
 _atom_site_fract_x
 _atom_site_fract_y
 _atom_site_fract_z
 _atom_site_occupancy
  Zr  Zr0  1  0.50000000  0.50000000  0.74064800  1
  Zr  Zr1  1  0.00000000  0.00000000  0.27039200  1
  Cu  Cu0  1  0.50000000  0.00000000  0.47990400  1
  Cu  Cu1  1  0.00000000  0.50000000  0.47990400  1
  Cu  Cu2  1  0.50000000  0.50000000  0.33170700  1
  Sb  Sb0  1  0.50000000  0.00000000  0.01782700  1
  Sb  Sb1  1  0.00000000  0.50000000  0.01782700  1
  Sb  Sb2  1  0.00000000  0.00000000  0.66179100  1
loop_
_geom_bond_atom_site_label_1
_geom_bond_atom_site_label_2
_geom_bond_distance
_geom_bond_site_symmetry_2
Cu0 Cu2 2.484717 1_555
Cu0 Cu2 2.484717 1_545
Cu0 Sb2 2.644283 1_555
Cu0 Sb2 2.644283 1_655
Cu0 Zr1 2.790694 1_655
Cu0 Zr1 2.790694 1_555
Cu0 Zr0 3.092092 1_545
Cu0 Zr0 3.092092 1_555
Cu1 Cu2 2.484717 1_555
Cu1 Cu2 2.484717 1_455
Cu1 Sb2 2.644283 1_555
Cu1 Sb2 2.644283 1_565
Cu1 Zr1 2.790694 1_555
Cu1 Zr1 2.790694 1_565
Cu1 Zr0 3.092092 1_555
Cu1 Zr0 3.092092 1_455
Cu2 Zr1 3.064585 1_565
Cu2 Zr1 3.064585 1_655
Cu2 Zr1 3.064585 1_665
Cu2 Zr1 3.064585 1_555
Sb0 Zr1 3.041719 1_555
Sb0 Zr1 3.041719 1_655
Sb0 Zr0 3.195570 1_544
Sb0 Zr0 3.195570 1_554
Sb1 Zr1 3.041719 1_565
Sb1 Zr1 3.041719 1_555
Sb1 Zr0 3.195570 1_454
Sb1 Zr0 3.195570 1_554
Sb2 Zr0 3.093969 1_555
Sb2 Zr0 3.093969 1_445
Sb2 Zr0 3.093969 1_545
Sb2 Zr0 3.093969 1_455
