# generated using pymatgen
data_BaEu(SnO3)4
_symmetry_space_group_name_H-M   'P 1'
_cell_length_a   6.02271492
_cell_length_b   6.02271492
_cell_length_c   8.53224882
_cell_angle_alpha   90.00000000
_cell_angle_beta   90.00000000
_cell_angle_gamma   89.83746311
_symmetry_Int_Tables_number   1
_chemical_formula_structural   BaEu(SnO3)4
_chemical_formula_sum   'Ba1 Eu1 Sn4 O12'
_cell_volume   309.48982719
_cell_formula_units_Z   1
loop_
 _symmetry_equiv_pos_site_id
 _symmetry_equiv_pos_as_xyz
  1  'x, y, z'
loop_
 _atom_site_type_symbol
 _atom_site_label
 _atom_site_symmetry_multiplicity
 _atom_site_fract_x
 _atom_site_fract_y
 _atom_site_fract_z
 _atom_site_occupancy
  Ba  Ba0  1  0.50000000  0.50000000  0.00000000  1
  Eu  Eu0  1  0.00000000  -0.00000000  0.50000000  1
  Sn  Sn0  1  0.00000000  0.50000000  0.24965063  1
  Sn  Sn1  1  0.00000000  0.50000000  0.75034937  1
  Sn  Sn2  1  0.50000000  -0.00000000  0.24965063  1
  Sn  Sn3  1  0.50000000  -0.00000000  0.75034937  1
  O  O0  1  0.26108810  0.26108810  0.25183490  1
  O  O1  1  0.26108810  0.26108810  0.74816510  1
  O  O2  1  0.73891190  0.73891190  0.25183490  1
  O  O3  1  0.73891190  0.73891190  0.74816510  1
  O  O4  1  0.76552192  0.23447808  0.25281206  1
  O  O5  1  0.76552192  0.23447808  0.74718794  1
  O  O6  1  0.23447808  0.76552192  0.25281206  1
  O  O7  1  0.23447808  0.76552192  0.74718794  1
  O  O8  1  0.00000000  0.50000000  -0.00000000  1
  O  O9  1  0.00000000  0.50000000  0.50000000  1
  O  O10  1  0.50000000  -0.00000000  0.00000000  1
  O  O11  1  0.50000000  -0.00000000  0.50000000  1
loop_
_geom_bond_atom_site_label_1
_geom_bond_atom_site_label_2
_geom_bond_distance
_geom_bond_site_symmetry_2
Ba0 O1 2.961350 1_554
Ba0 O0 2.961350 1_555
Ba0 O2 2.961350 1_555
Ba0 O3 2.961350 1_554
Ba0 O8 3.011357 1_655
Ba0 O10 3.011357 1_555
Ba0 O10 3.011357 1_565
Ba0 O8 3.011357 1_555
Ba0 O7 3.122983 1_554
Ba0 O4 3.122983 1_555
Ba0 O5 3.122983 1_554
Ba0 O6 3.122983 1_555
Eu0 O6 2.902662 1_545
Eu0 O5 2.902662 1_455
Eu0 O7 2.902662 1_545
Eu0 O4 2.902662 1_455
Eu0 O9 3.011357 1_555
Eu0 O11 3.011357 1_455
Eu0 O9 3.011357 1_545
Eu0 O11 3.011357 1_555
Eu0 O1 3.072897 1_555
Eu0 O0 3.072897 1_555
Eu0 O2 3.072897 1_445
Eu0 O3 3.072897 1_445
O0 Sn2 2.128513 1_555
O0 Sn0 2.128513 1_555
O1 Sn3 2.128513 1_555
O1 Sn1 2.128513 1_555
O2 Sn2 2.128513 1_565
O2 Sn0 2.128513 1_655
O3 Sn1 2.128513 1_655
O3 Sn3 2.128513 1_565
O4 Sn2 2.136623 1_555
O4 Sn0 2.136623 1_655
O5 Sn1 2.136623 1_655
O5 Sn3 2.136623 1_555
O6 Sn2 2.136623 1_565
O6 Sn0 2.136623 1_555
O7 Sn3 2.136623 1_565
O7 Sn1 2.136623 1_555
O8 Sn1 2.130081 1_554
O8 Sn0 2.130081 1_555
O9 Sn1 2.136043 1_555
O9 Sn0 2.136043 1_555
O10 Sn3 2.130081 1_554
O10 Sn2 2.130081 1_555
O11 Sn3 2.136043 1_555
O11 Sn2 2.136043 1_555
