# generated using pymatgen
data_MgO
_symmetry_space_group_name_H-M   'P 1'
_cell_length_a   12.89243070
_cell_length_b   12.89243070
_cell_length_c   7.57707132
_cell_angle_alpha   85.64998805
_cell_angle_beta   85.64998805
_cell_angle_gamma   15.48542107
_symmetry_Int_Tables_number   1
_chemical_formula_structural   MgO
_chemical_formula_sum   'Mg12 O12'
_cell_volume   335.27026394
_cell_formula_units_Z   12
loop_
 _symmetry_equiv_pos_site_id
 _symmetry_equiv_pos_as_xyz
  1  'x, y, z'
loop_
 _atom_site_type_symbol
 _atom_site_label
 _atom_site_symmetry_multiplicity
 _atom_site_fract_x
 _atom_site_fract_y
 _atom_site_fract_z
 _atom_site_occupancy
  Mg  Mg0  1  0.96807400  0.96807400  0.15515200  1
  Mg  Mg1  1  0.68681200  0.68681200  0.07318700  1
  Mg  Mg2  1  0.85154800  0.85154800  0.53691600  1
  Mg  Mg3  1  0.71416400  0.71416400  0.62731400  1
  Mg  Mg4  1  0.55122000  0.55122000  0.44263000  1
  Mg  Mg5  1  0.01176300  0.01176300  0.73969500  1
  Mg  Mg6  1  0.12763100  0.12763100  0.75153700  1
  Mg  Mg7  1  0.42188100  0.42188100  0.82014000  1
  Mg  Mg8  1  0.25654800  0.25654800  0.35836000  1
  Mg  Mg9  1  0.43658000  0.43658000  0.44418400  1
  Mg  Mg10  1  0.14133600  0.14133600  0.34924600  1
  Mg  Mg11  1  0.56746200  0.56746200  0.05548500  1
  O  O0  1  0.50304800  0.50304800  0.23359200  1
  O  O1  1  0.77962100  0.77962100  0.45681800  1
  O  O2  1  0.61863400  0.61863400  0.24380500  1
  O  O3  1  0.91338400  0.91338400  0.35461400  1
  O  O4  1  0.94347900  0.94347900  0.91697600  1
  O  O5  1  0.66165700  0.66165700  0.83509300  1
  O  O6  1  0.21148800  0.21148800  0.16063300  1
  O  O7  1  0.07858800  0.07858800  0.54229300  1
  O  O8  1  0.37102600  0.37102600  0.64045000  1
  O  O9  1  0.06286000  0.06286000  0.92956800  1
  O  O10  1  0.19098500  0.19098500  0.54148700  1
  O  O11  1  0.48840000  0.48840000  0.63336500  1
loop_
_geom_bond_atom_site_label_1
_geom_bond_atom_site_label_2
_geom_bond_distance
_geom_bond_site_symmetry_2
Mg0 O4 1.955852 1_554
Mg0 O3 1.978214 1_555
Mg0 O0 2.061544 1_565
Mg0 O0 2.061544 1_655
Mg1 O5 1.960916 1_554
Mg1 O6 1.979239 1_655
Mg1 O6 1.979239 1_565
Mg1 O2 2.088268 1_555
Mg2 O1 1.978964 1_555
Mg2 O8 1.984887 1_655
Mg2 O8 1.984887 1_565
Mg2 O3 2.017425 1_555
Mg3 O10 1.962021 1_565
Mg3 O10 1.962021 1_655
Mg3 O5 1.988715 1_555
Mg3 O1 2.033495 1_555
Mg4 O7 2.038865 1_565
Mg4 O7 2.038865 1_655
Mg4 O11 2.075973 1_555
Mg4 O0 2.078943 1_555
Mg4 O2 2.199779 1_555
Mg5 O9 2.015372 1_555
Mg5 O11 2.023851 1_545
Mg5 O11 2.023851 1_455
Mg5 O4 2.118813 1_445
Mg5 O7 2.182048 1_555
Mg6 O9 2.053426 1_555
Mg6 O5 2.063444 1_455
Mg6 O5 2.063444 1_545
Mg6 O7 2.094736 1_555
Mg6 O10 2.181467 1_555
Mg7 O8 1.952652 1_555
Mg7 O4 1.980351 1_455
Mg7 O4 1.980351 1_545
Mg7 O11 2.126745 1_555
Mg8 O6 1.958078 1_555
Mg8 O1 1.997081 1_455
Mg8 O1 1.997081 1_545
Mg8 O10 2.091776 1_555
Mg9 O3 1.972397 1_455
Mg9 O3 1.972397 1_545
Mg9 O11 2.024412 1_555
Mg9 O8 2.153013 1_555
Mg9 O0 2.239494 1_555
Mg10 O10 2.003442 1_555
Mg10 O2 2.015591 1_545
Mg10 O2 2.015591 1_455
Mg10 O7 2.085860 1_555
Mg10 O6 2.205188 1_555
Mg11 O9 1.989523 1_564
Mg11 O9 1.989523 1_654
Mg11 O2 2.007754 1_555
Mg11 O0 2.046887 1_555
