# generated using pymatgen
data_Na6Ti6O13
_symmetry_space_group_name_H-M   'P 1'
_cell_length_a   4.03165700
_cell_length_b   8.78658541
_cell_length_c   9.47136384
_cell_angle_alpha   106.19823562
_cell_angle_beta   90.00000000
_cell_angle_gamma   103.26299799
_symmetry_Int_Tables_number   1
_chemical_formula_structural   Na6Ti6O13
_chemical_formula_sum   'Na6 Ti6 O13'
_cell_volume   312.86905180
_cell_formula_units_Z   1
loop_
 _symmetry_equiv_pos_site_id
 _symmetry_equiv_pos_as_xyz
  1  'x, y, z'
loop_
 _atom_site_type_symbol
 _atom_site_label
 _atom_site_symmetry_multiplicity
 _atom_site_fract_x
 _atom_site_fract_y
 _atom_site_fract_z
 _atom_site_occupancy
  Na  Na0  1  0.52092600  0.04185100  0.15712900  1
  Na  Na1  1  0.47907400  0.95814900  0.84287100  1
  Na  Na2  1  0.59649600  0.19299300  0.52911600  1
  Na  Na3  1  0.40350400  0.80700700  0.47088400  1
  Na  Na4  1  0.95106600  0.90213200  0.28963100  1
  Na  Na5  1  0.04893400  0.09786800  0.71036900  1
  Ti  Ti0  1  0.12573500  0.25146900  0.07330800  1
  Ti  Ti1  1  0.87426500  0.74853100  0.92669200  1
  Ti  Ti2  1  0.18466300  0.36932700  0.41495900  1
  Ti  Ti3  1  0.81533700  0.63067300  0.58504100  1
  Ti  Ti4  1  0.23950900  0.47901800  0.78364900  1
  Ti  Ti5  1  0.76049100  0.52098200  0.21635100  1
  O  O0  1  0.23774200  0.47548300  0.23593800  1
  O  O1  1  0.76225800  0.52451700  0.76406200  1
  O  O2  1  0.08533700  0.17067400  0.27923800  1
  O  O3  1  0.91466300  0.82932600  0.72076200  1
  O  O4  1  0.30064200  0.60128400  0.58058700  1
  O  O5  1  0.69935800  0.39871600  0.41941300  1
  O  O6  1  0.15160700  0.30321300  0.59556000  1
  O  O7  1  0.84839300  0.69678700  0.40444000  1
  O  O8  1  0.36182100  0.72364200  0.91171600  1
  O  O9  1  0.63817900  0.27635800  0.08828400  1
  O  O10  1  0.17111000  0.34222000  0.90034000  1
  O  O11  1  0.82889000  0.65778000  0.09966000  1
  O  O12  1  0.00000000  0.00000000  0.00000000  1
loop_
_geom_bond_atom_site_label_1
_geom_bond_atom_site_label_2
_geom_bond_distance
_geom_bond_site_symmetry_2
Na0 O9 2.279702 1_555
Na0 O2 2.425810 1_655
Na0 O2 2.425813 1_555
Na0 O12 2.470050 1_655
Na0 O12 2.470054 1_555
Na1 O8 2.279702 1_555
Na1 O3 2.425810 1_455
Na1 O3 2.425813 1_555
Na1 O12 2.470050 1_566
Na1 O12 2.470054 1_666
Na2 O6 2.237877 1_555
Na2 O6 2.237885 1_655
Na2 O5 2.285371 1_555
Na3 O7 2.237877 1_555
Na3 O7 2.237885 1_455
Na3 O4 2.285371 1_555
Na4 O7 2.315415 1_555
Na4 O2 2.326755 1_665
Na4 O11 2.334348 1_555
Na5 O6 2.315415 1_555
Na5 O3 2.326755 1_445
Na5 O10 2.334348 1_555
O0 Ti5 2.071416 1_555
O0 Ti5 2.071420 1_455
O0 Ti0 2.086007 1_555
O0 Ti2 2.140461 1_555
O1 Ti4 2.071416 1_555
O1 Ti4 2.071420 1_655
O1 Ti1 2.086007 1_555
O1 Ti3 2.140461 1_555
O2 Ti2 1.812986 1_555
O2 Ti0 2.248150 1_555
O3 Ti3 1.812986 1_555
O3 Ti1 2.248150 1_555
O4 Ti3 2.030377 1_455
O4 Ti3 2.030381 1_555
O4 Ti2 2.147636 1_555
O4 Ti4 2.438263 1_555
O5 Ti2 2.030377 1_655
O5 Ti2 2.030381 1_555
O5 Ti3 2.147636 1_555
O5 Ti5 2.438263 1_555
O6 Ti2 1.949369 1_555
O6 Ti4 1.974551 1_555
O7 Ti3 1.949369 1_555
O7 Ti5 1.974551 1_555
O8 Ti1 2.027727 1_555
O8 Ti1 2.027731 1_455
O8 Ti4 2.096065 1_555
O9 Ti0 2.027727 1_555
O9 Ti0 2.027731 1_655
O9 Ti5 2.096065 1_555
O10 Ti4 1.825220 1_555
O10 Ti0 2.003755 1_556
O11 Ti5 1.825220 1_555
O11 Ti1 2.003755 1_554
O12 Ti0 2.061871 1_555
O12 Ti1 2.061871 1_444
