# generated using pymatgen
data_Na3B3(HO2)4
_symmetry_space_group_name_H-M   'P 1'
_cell_length_a   7.53884662
_cell_length_b   7.53884662
_cell_length_c   7.10303079
_cell_angle_alpha   82.82569206
_cell_angle_beta   82.82569206
_cell_angle_gamma   62.08396563
_symmetry_Int_Tables_number   1
_chemical_formula_structural   Na3B3(HO2)4
_chemical_formula_sum   'Na6 B6 H8 O16'
_cell_volume   352.90907322
_cell_formula_units_Z   2
loop_
 _symmetry_equiv_pos_site_id
 _symmetry_equiv_pos_as_xyz
  1  'x, y, z'
loop_
 _atom_site_type_symbol
 _atom_site_label
 _atom_site_symmetry_multiplicity
 _atom_site_fract_x
 _atom_site_fract_y
 _atom_site_fract_z
 _atom_site_occupancy
  Na  Na0  1  0.82816900  0.01528300  0.04537100  1
  Na  Na1  1  0.01528300  0.82816900  0.54537100  1
  Na  Na2  1  0.26394100  0.08001800  0.15142500  1
  Na  Na3  1  0.08001800  0.26394100  0.65142500  1
  Na  Na4  1  0.49919400  0.53223700  0.12210000  1
  Na  Na5  1  0.53223700  0.49919400  0.62210000  1
  B  B0  1  0.09654500  0.53713400  0.25127600  1
  B  B1  1  0.53713400  0.09654500  0.75127600  1
  B  B2  1  0.73885900  0.71340500  0.81073700  1
  B  B3  1  0.71340500  0.73885900  0.31073700  1
  B  B4  1  0.35464300  0.87936300  0.81018300  1
  B  B5  1  0.87936300  0.35464300  0.31018300  1
  H  H0  1  0.37701600  0.87940600  0.51559600  1
  H  H1  1  0.87940600  0.37701600  0.01559600  1
  H  H2  1  0.32563500  0.41193700  0.43103800  1
  H  H3  1  0.41193700  0.32563500  0.93103800  1
  H  H4  1  0.19313200  0.74821800  0.97939100  1
  H  H5  1  0.74821800  0.19313200  0.47939100  1
  H  H6  1  0.08460800  0.53539100  0.95686600  1
  H  H7  1  0.53539100  0.08460800  0.45686600  1
  O  O0  1  0.28854800  0.86243700  0.62601900  1
  O  O1  1  0.86243700  0.28854800  0.12601900  1
  O  O2  1  0.24450600  0.54663000  0.36653500  1
  O  O3  1  0.54663000  0.24450600  0.86653500  1
  O  O4  1  0.20507200  0.87573200  0.96450100  1
  O  O5  1  0.87573200  0.20507200  0.46450100  1
  O  O6  1  0.18453700  0.52652200  0.04626000  1
  O  O7  1  0.52652200  0.18453700  0.54626000  1
  O  O8  1  0.06822700  0.36179500  0.31901700  1
  O  O9  1  0.36179500  0.06822700  0.81901700  1
  O  O10  1  0.90515600  0.73005600  0.26743000  1
  O  O11  1  0.73005600  0.90515600  0.76743000  1
  O  O12  1  0.55679400  0.70128100  0.84035400  1
  O  O13  1  0.70128100  0.55679400  0.34035400  1
  O  O14  1  0.91638400  0.54565000  0.82312000  1
  O  O15  1  0.54565000  0.91638400  0.32312000  1
loop_
_geom_bond_atom_site_label_1
_geom_bond_atom_site_label_2
_geom_bond_distance
_geom_bond_site_symmetry_2
Na0 O1 2.338586 1_555
Na0 O10 2.379360 1_545
Na0 O3 2.407394 1_554
Na0 O4 2.540594 1_644
Na0 O11 2.546188 1_544
Na1 O0 2.338586 1_555
Na1 O11 2.379360 1_455
Na1 O2 2.407394 1_555
Na1 O5 2.540594 1_465
Na1 O10 2.546188 1_455
Na2 O15 2.310298 1_545
Na2 O8 2.316186 1_555
Na2 O4 2.372676 1_544
Na2 O9 2.383880 1_554
Na2 O1 2.697392 1_455
Na3 O14 2.310298 1_455
Na3 O9 2.316186 1_555
Na3 O5 2.372676 1_455
Na3 O8 2.383880 1_555
Na3 O0 2.697392 1_545
Na4 O12 2.341311 1_554
Na4 O13 2.384192 1_555
Na4 O2 2.394197 1_555
Na4 O1 2.484038 1_555
Na4 O6 2.517900 1_555
Na5 O13 2.341311 1_555
Na5 O12 2.384192 1_555
Na5 O3 2.394197 1_555
Na5 O0 2.484038 1_555
Na5 O7 2.517900 1_555
B0 O8 1.450554 1_555
B0 O2 1.495702 1_555
B0 O10 1.498562 1_455
B0 O6 1.518284 1_555
B1 O9 1.450554 1_555
B1 O3 1.495702 1_555
B1 O11 1.498562 1_545
B1 O7 1.518284 1_555
B2 O14 1.347244 1_555
B2 O12 1.406085 1_555
B2 O11 1.411713 1_555
B3 O15 1.347244 1_555
B3 O13 1.406085 1_555
B3 O10 1.411713 1_555
B4 O9 1.459158 1_565
B4 O4 1.478646 1_555
B4 O0 1.496591 1_555
B4 O12 1.504920 1_555
B5 O8 1.459158 1_655
B5 O5 1.478646 1_555
B5 O1 1.496591 1_555
B5 O13 1.504920 1_555
H0 O0 1.000268 1_555
H1 O1 1.000268 1_555
H2 O2 0.993656 1_555
H2 Na5 2.531946 1_555
H3 O3 0.993656 1_555
H3 Na4 2.531946 1_556
H4 O4 0.998325 1_555
H4 Na4 2.378383 1_556
H5 O5 0.998325 1_555
H5 Na5 2.378383 1_555
H6 O6 1.018284 1_556
H6 O14 1.645476 1_455
H7 O7 1.018284 1_555
H7 O15 1.645476 1_545
