# generated using pymatgen
data_Li5Mn2CoO8
_symmetry_space_group_name_H-M   'P 1'
_cell_length_a   3.00557800
_cell_length_b   5.04525609
_cell_length_c   9.81337742
_cell_angle_alpha   77.66329198
_cell_angle_beta   87.65660989
_cell_angle_gamma   87.59903838
_symmetry_Int_Tables_number   1
_chemical_formula_structural   Li5Mn2CoO8
_chemical_formula_sum   'Li5 Mn2 Co1 O8'
_cell_volume   145.16761315
_cell_formula_units_Z   1
loop_
 _symmetry_equiv_pos_site_id
 _symmetry_equiv_pos_as_xyz
  1  'x, y, z'
loop_
 _atom_site_type_symbol
 _atom_site_label
 _atom_site_symmetry_multiplicity
 _atom_site_fract_x
 _atom_site_fract_y
 _atom_site_fract_z
 _atom_site_occupancy
  Li  Li0  1  0.00332100  0.76414200  0.73380800  1
  Li  Li1  1  0.50634300  0.74726400  0.26530600  1
  Li  Li2  1  0.49365700  0.25273600  0.73469400  1
  Li  Li3  1  0.99667900  0.23585800  0.26619200  1
  Li  Li4  1  0.50000000  0.00000000  0.50000000  1
  Mn  Mn0  1  0.00000000  0.00000000  0.00000000  1
  Mn  Mn1  1  0.50000000  0.50000000  0.00000000  1
  Co  Co0  1  0.00000000  0.50000000  0.50000000  1
  O  O0  1  0.46609600  0.86604300  0.88111000  1
  O  O1  1  0.99311900  0.83038900  0.38827500  1
  O  O2  1  0.97290900  0.36774700  0.88633600  1
  O  O3  1  0.51443700  0.38656200  0.39060900  1
  O  O4  1  0.48556300  0.61343800  0.60939100  1
  O  O5  1  0.02709100  0.63225300  0.11366400  1
  O  O6  1  0.00688100  0.16961100  0.61172500  1
  O  O7  1  0.53390400  0.13395700  0.11889000  1
loop_
_geom_bond_atom_site_label_1
_geom_bond_atom_site_label_2
_geom_bond_distance
_geom_bond_site_symmetry_2
Li0 O4 2.080693 1_555
Li0 O6 2.138647 1_565
Li0 O0 2.197816 1_555
Li0 O2 2.230120 1_455
Li0 O0 2.240129 1_455
Li0 O4 2.267527 1_455
Li1 O3 1.966452 1_555
Li1 O1 2.005332 1_455
Li1 O1 2.045642 1_555
Li1 O7 2.164158 1_565
Li1 O5 2.259052 1_655
Li1 O5 2.289180 1_555
Li2 O4 1.966452 1_555
Li2 O6 2.005332 1_655
Li2 O6 2.045642 1_555
Li2 O0 2.164158 1_545
Li2 O2 2.259052 1_455
Li2 O2 2.289180 1_555
Li3 O3 2.080693 1_555
Li3 O1 2.138647 1_545
Li3 O7 2.197816 1_555
Li3 O5 2.230120 1_655
Li3 O7 2.240129 1_655
Li3 O3 2.267527 1_655
Li4 O4 2.016582 1_545
Li4 O3 2.016582 1_555
Li4 O6 2.071902 1_555
Li4 O1 2.071902 1_545
Li4 O6 2.214061 1_655
Li4 O1 2.214061 1_445
Mn0 O2 1.950299 1_454
Mn0 O5 1.950299 1_545
Mn0 O7 1.975964 1_455
Mn0 O0 1.975964 1_544
Mn0 O7 2.230232 1_555
Mn0 O0 2.230232 1_444
Mn1 O2 1.954124 1_554
Mn1 O5 1.954124 1_555
Mn1 O7 1.963528 1_555
Mn1 O0 1.963528 1_554
Mn1 O5 2.179505 1_655
Mn1 O2 2.179505 1_454
Co0 O6 1.788598 1_555
Co0 O1 1.788598 1_455
Co0 O3 1.980727 1_555
Co0 O4 1.980727 1_455
Co0 O3 2.017528 1_455
Co0 O4 2.017528 1_555
