# generated using pymatgen
data_La2ZnCoO6
_symmetry_space_group_name_H-M   'P 1'
_cell_length_a   5.46786477
_cell_length_b   7.82856175
_cell_length_c   5.58973052
_cell_angle_alpha   89.93786310
_cell_angle_beta   90.05019982
_cell_angle_gamma   91.78988851
_symmetry_Int_Tables_number   1
_chemical_formula_structural   La2ZnCoO6
_chemical_formula_sum   'La4 Zn2 Co2 O12'
_cell_volume   239.15433584
_cell_formula_units_Z   2
loop_
 _symmetry_equiv_pos_site_id
 _symmetry_equiv_pos_as_xyz
  1  'x, y, z'
loop_
 _atom_site_type_symbol
 _atom_site_label
 _atom_site_symmetry_multiplicity
 _atom_site_fract_x
 _atom_site_fract_y
 _atom_site_fract_z
 _atom_site_occupancy
  La  La0  1  0.50297700  0.75066000  0.99985400  1
  La  La1  1  0.00292700  0.25201900  0.49969700  1
  La  La2  1  0.49702300  0.24934000  0.00014700  1
  La  La3  1  0.99707300  0.74798100  0.50030200  1
  Zn  Zn0  1  0.00000000  0.50000000  0.00000000  1
  Zn  Zn1  1  0.50000000  0.00000000  0.50000000  1
  Co  Co0  1  0.50000000  0.50000000  0.50000000  1
  Co  Co1  1  0.00000000  0.00000000  0.00000000  1
  O  O0  1  0.77611300  0.46858000  0.70254800  1
  O  O1  1  0.27499600  0.96885400  0.20183900  1
  O  O2  1  0.00549600  0.23958700  0.06859200  1
  O  O3  1  0.50529600  0.73885700  0.56771100  1
  O  O4  1  0.70740500  0.53661100  0.22938600  1
  O  O5  1  0.20799300  0.03673600  0.72966200  1
  O  O6  1  0.22388600  0.53142000  0.29745200  1
  O  O7  1  0.72500400  0.03114600  0.79816100  1
  O  O8  1  0.29259500  0.46338900  0.77061400  1
  O  O9  1  0.79200700  0.96326400  0.27033800  1
  O  O10  1  0.99450400  0.76041300  0.93140800  1
  O  O11  1  0.49470500  0.26114300  0.43228900  1
loop_
_geom_bond_atom_site_label_1
_geom_bond_atom_site_label_2
_geom_bond_distance
_geom_bond_site_symmetry_2
La0 O4 2.411094 1_556
La0 O3 2.417489 1_555
La0 O1 2.426128 1_556
La0 O10 2.713732 1_555
La0 O9 2.718577 1_556
La0 O7 2.719730 1_565
La0 O8 2.804450 1_555
La0 O6 2.806496 1_556
La0 O10 2.809519 1_455
La1 O2 2.411902 1_555
La1 O0 2.415778 1_455
La1 O5 2.420923 1_555
La1 O6 2.711820 1_555
La1 O11 2.714292 1_555
La1 O8 2.716158 1_555
La1 O11 2.807099 1_455
La1 O7 2.813636 1_455
La1 O9 2.815064 1_445
La2 O8 2.411097 1_554
La2 O11 2.417484 1_555
La2 O7 2.426130 1_554
La2 O2 2.713731 1_555
La2 O5 2.718580 1_554
La2 O1 2.719728 1_545
La2 O4 2.804447 1_555
La2 O0 2.806497 1_554
La2 O2 2.809518 1_655
La3 O10 2.411907 1_555
La3 O6 2.415773 1_655
La3 O9 2.420920 1_555
La3 O0 2.711824 1_555
La3 O3 2.714288 1_555
La3 O4 2.716155 1_555
La3 O3 2.807105 1_655
La3 O1 2.813633 1_655
La3 O5 2.815067 1_665
Co0 O4 1.907392 1_555
Co0 O8 1.907392 1_555
Co0 O3 1.907557 1_555
Co0 O11 1.907557 1_555
Co0 O0 1.908217 1_555
Co0 O6 1.908222 1_555
Co1 O7 1.900688 1_454
Co1 O1 1.900688 1_545
Co1 O9 1.908198 1_445
Co1 O5 1.908198 1_554
Co1 O10 1.914127 1_444
Co1 O2 1.914127 1_555
O0 Zn0 2.074158 1_656
O1 Zn1 2.080698 1_565
O2 Zn0 2.075127 1_555
O3 Zn1 2.079797 1_565
O4 Zn0 2.078177 1_655
O5 Zn1 2.076801 1_555
O6 Zn0 2.074155 1_555
O7 Zn1 2.080698 1_555
O8 Zn0 2.078177 1_556
O9 Zn1 2.076801 1_565
O10 Zn0 2.075127 1_656
O11 Zn1 2.079797 1_555
