# generated using pymatgen
data_Sr4Nb3PO14
_symmetry_space_group_name_H-M   'P 1'
_cell_length_a   4.04962423
_cell_length_b   5.73717313
_cell_length_c   13.55484099
_cell_angle_alpha   93.66529397
_cell_angle_beta   98.66173158
_cell_angle_gamma   90.43305659
_symmetry_Int_Tables_number   1
_chemical_formula_structural   Sr4Nb3PO14
_chemical_formula_sum   'Sr4 Nb3 P1 O14'
_cell_volume   310.64919591
_cell_formula_units_Z   1
loop_
 _symmetry_equiv_pos_site_id
 _symmetry_equiv_pos_as_xyz
  1  'x, y, z'
loop_
 _atom_site_type_symbol
 _atom_site_label
 _atom_site_symmetry_multiplicity
 _atom_site_fract_x
 _atom_site_fract_y
 _atom_site_fract_z
 _atom_site_occupancy
  Sr  Sr0  1  0.29721300  0.05106000  0.59665400  1
  Sr  Sr1  1  0.70816100  0.55303300  0.41789800  1
  Sr  Sr2  1  0.42140500  0.47100700  0.90138900  1
  Sr  Sr3  1  0.53637000  0.95509100  0.07930200  1
  Nb  Nb0  1  0.83988500  0.52506100  0.68312300  1
  Nb  Nb1  1  0.16109100  0.00424500  0.32451300  1
  Nb  Nb2  1  0.06142000  0.44225000  0.12773600  1
  P  P0  1  0.85062300  0.01069100  0.86148000  1
  O  O0  1  0.48526200  0.98449400  0.87504400  1
  O  O1  1  0.55200400  0.40462900  0.10228400  1
  O  O2  1  0.93796700  0.75394400  0.82150100  1
  O  O3  1  0.08807500  0.11890600  0.17583200  1
  O  O4  1  0.80089700  0.77879900  0.60655300  1
  O  O5  1  0.19955600  0.28685900  0.39851500  1
  O  O6  1  0.21825400  0.81292700  0.43618000  1
  O  O7  1  0.79067800  0.30137800  0.57507000  1
  O  O8  1  0.02233800  0.12088900  0.96562500  1
  O  O9  1  0.01044200  0.63817900  0.01778000  1
  O  O10  1  0.89058800  0.19794500  0.78352300  1
  O  O11  1  0.11887700  0.64497100  0.23806100  1
  O  O12  1  0.35588500  0.49213000  0.70641500  1
  O  O13  1  0.65298400  0.97175700  0.30557400  1
loop_
_geom_bond_atom_site_label_1
_geom_bond_atom_site_label_2
_geom_bond_distance
_geom_bond_site_symmetry_2
Nb0 O4 1.835381 1_555
Nb0 O7 1.870741 1_555
Nb0 O12 2.040946 1_555
Nb0 O12 2.077669 1_655
Nb0 O2 2.202981 1_555
Nb0 O10 2.380024 1_555
Nb1 O5 1.844065 1_555
Nb1 O6 1.913154 1_545
Nb1 O13 2.040470 1_445
Nb1 O13 2.054788 1_545
Nb1 O3 2.138867 1_555
Nb1 O11 2.297078 1_545
Nb2 O11 1.819857 1_555
Nb2 O9 1.911180 1_555
Nb2 O3 2.003609 1_555
Nb2 O1 2.047126 1_455
Nb2 O1 2.077478 1_555
O0 P0 1.525661 1_565
O0 Sr3 2.761259 1_556
O0 Sr2 2.810076 1_565
O0 Sr2 3.003981 1_555
O1 Sr3 2.577122 1_545
O1 Sr2 2.746244 1_554
O1 Sr3 3.193350 1_555
O2 P0 1.597518 1_565
O2 Sr2 2.697141 1_655
O2 Sr2 3.006534 1_555
O3 Sr3 2.544629 1_545
O3 Sr3 2.552937 1_445
O4 Sr0 2.560882 1_665
O4 Sr0 2.571167 1_565
O4 Sr1 2.763666 1_555
O5 Sr1 2.526140 1_555
O5 Sr1 2.552077 1_455
O6 Sr0 2.470670 1_565
O6 Sr1 2.510723 1_455
O6 Sr1 2.523139 1_555
O7 Sr0 2.504646 1_655
O7 Sr0 2.515524 1_555
O7 Sr1 2.630799 1_555
O8 P0 1.568325 1_455
O8 Sr3 2.619832 1_546
O8 Sr2 2.828961 1_555
O8 Sr3 2.867846 1_446
O8 Sr2 3.220936 1_455
O9 Sr2 2.607700 1_554
O9 Sr2 2.781609 1_454
O9 Sr3 2.783871 1_555
O9 Sr3 2.833373 1_455
O10 P0 1.578278 1_555
O10 Sr2 2.867443 1_655
O10 Sr2 3.042385 1_555
O11 Sr1 3.216597 1_555
O11 Sr1 3.218560 1_455
O12 Sr2 2.626770 1_555
O12 Sr0 2.841912 1_555
O13 Sr1 2.917590 1_555
O13 Sr3 3.027326 1_555
