# generated using pymatgen
data_SmAl2Ni
_symmetry_space_group_name_H-M   'P 1'
_cell_length_a   4.03184660
_cell_length_b   5.71042116
_cell_length_c   6.85969338
_cell_angle_alpha   90.00000000
_cell_angle_beta   90.00000000
_cell_angle_gamma   110.67247532
_symmetry_Int_Tables_number   1
_chemical_formula_structural   SmAl2Ni
_chemical_formula_sum   'Sm2 Al4 Ni2'
_cell_volume   147.76563022
_cell_formula_units_Z   2
loop_
 _symmetry_equiv_pos_site_id
 _symmetry_equiv_pos_as_xyz
  1  'x, y, z'
loop_
 _atom_site_type_symbol
 _atom_site_label
 _atom_site_symmetry_multiplicity
 _atom_site_fract_x
 _atom_site_fract_y
 _atom_site_fract_z
 _atom_site_occupancy
  Sm  Sm0  1  0.44410022  0.88819944  0.25000000  1
  Sm  Sm1  1  0.55589978  0.11180056  0.75000000  1
  Al  Al0  1  0.16792202  0.33584505  0.05668223  1
  Al  Al1  1  0.83207798  0.66415495  0.94331777  1
  Al  Al2  1  0.83207798  0.66415495  0.55668223  1
  Al  Al3  1  0.16792202  0.33584505  0.44331777  1
  Ni  Ni0  1  0.71693491  0.43386882  0.25000000  1
  Ni  Ni1  1  0.28306509  0.56613118  0.75000000  1
loop_
_geom_bond_atom_site_label_1
_geom_bond_atom_site_label_2
_geom_bond_distance
_geom_bond_site_symmetry_2
Al0 Ni1 2.437116 1_554
Al0 Ni0 2.469160 1_455
Al0 Ni0 2.469167 1_555
Al0 Sm1 3.150006 1_454
Al0 Sm1 3.150006 1_554
Al0 Sm0 3.235348 1_555
Al0 Sm0 3.397425 1_445
Al0 Sm0 3.397431 1_545
Al1 Ni0 2.437116 1_556
Al1 Ni1 2.469160 1_655
Al1 Ni1 2.469167 1_555
Al1 Sm0 3.150006 1_656
Al1 Sm0 3.150006 1_556
Al1 Sm1 3.235348 1_555
Al1 Sm1 3.397425 1_665
Al1 Sm1 3.397431 1_565
Al2 Ni0 2.437116 1_555
Al2 Ni1 2.469160 1_655
Al2 Ni1 2.469167 1_555
Al2 Sm0 3.150006 1_655
Al2 Sm0 3.150006 1_555
Al2 Sm1 3.235348 1_555
Al2 Sm1 3.397425 1_665
Al2 Sm1 3.397431 1_565
Al3 Ni1 2.437116 1_555
Al3 Ni0 2.469160 1_455
Al3 Ni0 2.469167 1_555
Al3 Sm1 3.150006 1_455
Al3 Sm1 3.150006 1_555
Al3 Sm0 3.235348 1_555
Al3 Sm0 3.397425 1_445
Al3 Sm0 3.397431 1_545
Ni0 Sm0 2.915374 1_545
Ni0 Sm0 3.155327 1_655
Ni0 Sm0 3.155328 1_555
Ni1 Sm1 2.915374 1_565
Ni1 Sm1 3.155327 1_455
Ni1 Sm1 3.155328 1_555
