# generated using pymatgen
data_Zn3Sn2O7
_symmetry_space_group_name_H-M   'P 1'
_cell_length_a   9.90979865
_cell_length_b   9.90979865
_cell_length_c   5.38853100
_cell_angle_alpha   90.00000000
_cell_angle_beta   90.00000000
_cell_angle_gamma   148.20106644
_symmetry_Int_Tables_number   1
_chemical_formula_structural   Zn3Sn2O7
_chemical_formula_sum   'Zn6 Sn4 O14'
_cell_volume   278.84392976
_cell_formula_units_Z   2
loop_
 _symmetry_equiv_pos_site_id
 _symmetry_equiv_pos_as_xyz
  1  'x, y, z'
loop_
 _atom_site_type_symbol
 _atom_site_label
 _atom_site_symmetry_multiplicity
 _atom_site_fract_x
 _atom_site_fract_y
 _atom_site_fract_z
 _atom_site_occupancy
  Zn  Zn0  1  0.74364900  0.74364900  0.27238100  1
  Zn  Zn1  1  0.25635100  0.25635100  0.77238100  1
  Zn  Zn2  1  0.98480600  0.57724600  0.20841800  1
  Zn  Zn3  1  0.01519400  0.42275400  0.70841800  1
  Zn  Zn4  1  0.57724600  0.98480600  0.20841800  1
  Zn  Zn5  1  0.42275400  0.01519400  0.70841800  1
  Sn  Sn0  1  0.14928500  0.35697000  0.24482600  1
  Sn  Sn1  1  0.85071500  0.64303000  0.74482600  1
  Sn  Sn2  1  0.64303000  0.85071500  0.74482600  1
  Sn  Sn3  1  0.35697000  0.14928500  0.24482600  1
  O  O0  1  0.34004300  0.92821000  0.33467500  1
  O  O1  1  0.65995700  0.07179000  0.83467500  1
  O  O2  1  0.07179000  0.65995700  0.83467500  1
  O  O3  1  0.92821000  0.34004300  0.33467500  1
  O  O4  1  0.55116700  0.28057700  0.91725000  1
  O  O5  1  0.44883300  0.71942300  0.41725000  1
  O  O6  1  0.71942300  0.44883300  0.41725000  1
  O  O7  1  0.28057700  0.55116700  0.91725000  1
  O  O8  1  0.99223000  0.84206700  0.07405300  1
  O  O9  1  0.00777000  0.15793300  0.57405300  1
  O  O10  1  0.37846200  0.37846200  0.14917400  1
  O  O11  1  0.62153800  0.62153800  0.64917400  1
  O  O12  1  0.84206700  0.99223000  0.07405300  1
  O  O13  1  0.15793300  0.00777000  0.57405300  1
loop_
_geom_bond_atom_site_label_1
_geom_bond_atom_site_label_2
_geom_bond_distance
_geom_bond_site_symmetry_2
O0 Zn4 2.015425 1_555
O0 Zn2 2.034732 1_455
O0 Zn5 2.066346 1_565
O0 Sn3 2.106542 1_565
O1 Zn5 2.015425 1_555
O1 Zn3 2.034732 1_655
O1 Zn4 2.066346 1_546
O1 Sn2 2.106542 1_545
O2 Zn3 2.015425 1_555
O2 Zn5 2.034732 1_565
O2 Zn2 2.066346 1_456
O2 Sn1 2.106542 1_455
O3 Zn2 2.015425 1_555
O3 Zn4 2.034732 1_545
O3 Zn3 2.066346 1_655
O3 Sn0 2.106542 1_655
O4 Zn5 2.028135 1_555
O4 Sn3 2.063010 1_556
O4 Sn1 2.110117 1_555
O5 Zn4 2.028135 1_555
O5 Sn2 2.063010 1_555
O5 Sn0 2.110117 1_555
O6 Zn2 2.028135 1_555
O6 Sn1 2.063010 1_555
O6 Sn3 2.110117 1_555
O7 Zn3 2.028135 1_555
O7 Sn0 2.063010 1_556
O7 Sn2 2.110117 1_555
O8 Zn0 2.019342 1_555
O8 Sn1 2.074260 1_554
O8 Sn3 2.115455 1_665
O9 Zn1 2.019342 1_555
O9 Sn0 2.074260 1_555
O9 Sn2 2.115455 1_445
O10 Zn0 2.091009 1_555
O10 Zn1 2.135872 1_554
O10 Sn3 2.155623 1_555
O10 Sn0 2.155623 1_555
O11 Zn1 2.091009 1_555
O11 Zn0 2.135872 1_555
O11 Sn1 2.155623 1_555
O11 Sn2 2.155623 1_555
O12 Zn0 2.019342 1_555
O12 Sn2 2.074260 1_554
O12 Sn0 2.115455 1_665
O13 Zn1 2.019342 1_555
O13 Sn3 2.074260 1_555
O13 Sn1 2.115455 1_445
