# generated using pymatgen
data_NaMg3(SiO3)4
_symmetry_space_group_name_H-M   'P 1'
_cell_length_a   18.43004100
_cell_length_b   5.28634200
_cell_length_c   9.87959524
_cell_angle_alpha   77.09516762
_cell_angle_beta   90.00000000
_cell_angle_gamma   90.00000000
_symmetry_Int_Tables_number   1
_chemical_formula_structural   NaMg3(SiO3)4
_chemical_formula_sum   'Na4 Mg12 Si16 O48'
_cell_volume   938.23266872
_cell_formula_units_Z   4
loop_
 _symmetry_equiv_pos_site_id
 _symmetry_equiv_pos_as_xyz
  1  'x, y, z'
loop_
 _atom_site_type_symbol
 _atom_site_label
 _atom_site_symmetry_multiplicity
 _atom_site_fract_x
 _atom_site_fract_y
 _atom_site_fract_z
 _atom_site_occupancy
  Na  Na0  1  0.24946800  0.94371200  0.27161100  1
  Na  Na1  1  0.74946800  0.05628800  0.72838900  1
  Na  Na2  1  0.97664900  0.52018400  0.74319100  1
  Na  Na3  1  0.47664900  0.47981600  0.25680900  1
  Mg  Mg0  1  0.06718000  0.01314300  0.75049900  1
  Mg  Mg1  1  0.56718000  0.98685700  0.24950100  1
  Mg  Mg2  1  0.92998500  0.98672300  0.24947800  1
  Mg  Mg3  1  0.42998500  0.01327700  0.75052200  1
  Mg  Mg4  1  0.24805600  0.01337500  0.75137200  1
  Mg  Mg5  1  0.74805600  0.98662500  0.24862800  1
  Mg  Mg6  1  0.14802900  0.51328000  0.74945500  1
  Mg  Mg7  1  0.64802900  0.48672000  0.25054500  1
  Mg  Mg8  1  0.84699600  0.48747200  0.24923000  1
  Mg  Mg9  1  0.34699600  0.51252800  0.75077000  1
  Mg  Mg10  1  0.00869600  0.48791900  0.24606300  1
  Mg  Mg11  1  0.50869600  0.51208100  0.75393700  1
  Si  Si0  1  0.58199100  0.20483200  0.54723900  1
  Si  Si1  1  0.08199100  0.79516800  0.45276100  1
  Si  Si2  1  0.42089800  0.79740700  0.45971600  1
  Si  Si3  1  0.92089800  0.20259300  0.54028400  1
  Si  Si4  1  0.07943300  0.23223100  0.04403300  1
  Si  Si5  1  0.57943300  0.76776900  0.95596700  1
  Si  Si6  1  0.92130100  0.77624900  0.95955300  1
  Si  Si7  1  0.42130100  0.22375100  0.04044700  1
  Si  Si8  1  0.16419500  0.74144500  0.03222300  1
  Si  Si9  1  0.66419500  0.25855500  0.96777700  1
  Si  Si10  1  0.83371900  0.26707900  0.97065000  1
  Si  Si11  1  0.33371900  0.73292100  0.02935000  1
  Si  Si12  1  0.66554000  0.71081000  0.53104800  1
  Si  Si13  1  0.16554000  0.28919000  0.46895200  1
  Si  Si14  1  0.33371600  0.29032100  0.47184800  1
  Si  Si15  1  0.83371600  0.70967900  0.52815200  1
  O  O0  1  0.75014800  0.74103500  0.58565700  1
  O  O1  1  0.25014800  0.25896500  0.41434300  1
  O  O2  1  0.74834000  0.37319400  0.31662900  1
  O  O3  1  0.24834000  0.62680600  0.68337100  1
  O  O4  1  0.61699700  0.90528000  0.60535600  1
  O  O5  1  0.11699700  0.09472000  0.39464400  1
  O  O6  1  0.38145200  0.08735800  0.40398900  1
  O  O7  1  0.88145200  0.91264200  0.59601100  1
  O  O8  1  0.13159400  0.97160600  0.10270500  1
  O  O9  1  0.63159400  0.02839400  0.89729500  1
  O  O10  1  0.86808800  0.03484300  0.90478500  1
  O  O11  1  0.36808800  0.96515700  0.09521500  1
  O  O12  1  0.16134600  0.81414700  0.86468200  1
  O  O13  1  0.66134600  0.18585300  0.13531800  1
  O  O14  1  0.83742000  0.18688000  0.13846900  1
  O  O15  1  0.33742000  0.81312000  0.86153100  1
  O  O16  1  0.07824400  0.28975100  0.87610400  1
  O  O17  1  0.57824400  0.71024900  0.12389600  1
  O  O18  1  0.92465400  0.70558700  0.13147600  1
  O  O19  1  0.42465400  0.29441300  0.86852400  1
  O  O20  1  0.11993200  0.47472700  0.10267600  1
  O  O21  1  0.61993200  0.52527300  0.89732400  1
  O  O22  1  0.87545000  0.54039000  0.90736700  1
  O  O23  1  0.37545000  0.45961000  0.09263300  1
  O  O24  1  0.51012700  0.24268700  0.63549500  1
  O  O25  1  0.01012700  0.75731300  0.36450500  1
  O  O26  1  0.49630600  0.78244100  0.38499500  1
  O  O27  1  0.99630600  0.21755900  0.61500500  1
  O  O28  1  0.00410100  0.21685600  0.12928900  1
  O  O29  1  0.50410100  0.78314400  0.87071100  1
  O  O30  1  0.99850200  0.80445000  0.88745300  1
  O  O31  1  0.49850200  0.19555000  0.11254700  1
  O  O32  1  0.57844300  0.26226000  0.37914300  1
  O  O33  1  0.07844300  0.73774000  0.62085700  1
  O  O34  1  0.42502000  0.72934500  0.63143300  1
  O  O35  1  0.92502000  0.27065500  0.36856700  1
  O  O36  1  0.64301800  0.40686400  0.59546500  1
  O  O37  1  0.14301800  0.59313600  0.40453500  1
  O  O38  1  0.36108100  0.59056900  0.41101500  1
  O  O39  1  0.86108100  0.40943100  0.58898500  1
  O  O40  1  0.24823500  0.39483700  0.81668300  1
  O  O41  1  0.74823500  0.60516300  0.18331700  1
  O  O42  1  0.24927400  0.70782000  0.08967300  1
  O  O43  1  0.74927400  0.29218000  0.91032700  1
  O  O44  1  0.66112900  0.79181300  0.36373500  1
  O  O45  1  0.16112900  0.20818700  0.63626500  1
  O  O46  1  0.33834600  0.20995900  0.63941100  1
  O  O47  1  0.83834600  0.79004100  0.36058900  1
loop_
_geom_bond_atom_site_label_1
_geom_bond_atom_site_label_2
_geom_bond_distance
_geom_bond_site_symmetry_2
Na0 O42 2.405645 1_555
Na0 O1 2.411567 1_565
Na0 O8 2.723213 1_555
Na0 O11 2.782270 1_555
Na0 O37 2.814438 1_555
Na0 O38 2.909444 1_555
Na0 O5 2.916984 1_565
Na0 O6 2.940678 1_565
Na1 O43 2.405645 1_555
Na1 O0 2.411567 1_545
Na1 O9 2.723213 1_555
Na1 O10 2.782270 1_555
Na1 O36 2.814438 1_555
Na1 O39 2.909444 1_555
Na1 O4 2.916984 1_545
Na1 O7 2.940678 1_545
Na2 O27 2.280201 1_555
Na2 O30 2.325594 1_555
Na2 O33 2.383733 1_655
Na2 O16 2.449406 1_655
Na2 O22 2.489631 1_555
Na2 O39 2.756592 1_555
Na2 O7 2.854705 1_555
Na3 O26 2.280201 1_555
Na3 O31 2.325594 1_555
Na3 O32 2.383733 1_555
Na3 O17 2.449406 1_555
Na3 O23 2.489631 1_555
Na3 O38 2.756592 1_555
Na3 O6 2.854705 1_555
Mg0 O30 1.995794 1_445
Mg0 O27 2.004922 1_455
Mg0 O16 2.128409 1_555
Mg0 O33 2.153144 1_545
Mg0 O45 2.194330 1_555
Mg0 O12 2.204776 1_545
Mg1 O31 1.995794 1_565
Mg1 O26 2.004922 1_555
Mg1 O17 2.128409 1_555
Mg1 O32 2.153144 1_565
Mg1 O44 2.194330 1_555
Mg1 O13 2.204776 1_565
Mg2 O28 2.027461 1_665
Mg2 O25 2.080431 1_655
Mg2 O18 2.086001 1_555
Mg2 O35 2.105783 1_565
Mg2 O47 2.151435 1_555
Mg2 O14 2.171268 1_565
Mg3 O29 2.027461 1_545
Mg3 O24 2.080431 1_555
Mg3 O19 2.086001 1_555
Mg3 O34 2.105783 1_545
Mg3 O46 2.151435 1_555
Mg3 O15 2.171268 1_545
Mg4 O12 2.095136 1_545
Mg4 O45 2.096983 1_555
Mg4 O15 2.122042 1_545
Mg4 O46 2.135204 1_555
Mg4 O40 2.250326 1_555
Mg4 O3 2.289243 1_545
Mg5 O13 2.095136 1_565
Mg5 O44 2.096983 1_555
Mg5 O14 2.122042 1_565
Mg5 O47 2.135204 1_555
Mg5 O41 2.250326 1_555
Mg5 O2 2.289243 1_565
Mg6 O16 1.988882 1_555
Mg6 O33 1.998371 1_555
Mg6 O3 2.007295 1_555
Mg6 O40 2.014473 1_555
Mg6 O12 2.166693 1_555
Mg6 O45 2.171548 1_555
Mg7 O17 1.988882 1_555
Mg7 O32 1.998371 1_555
Mg7 O2 2.007295 1_555
Mg7 O41 2.014473 1_555
Mg7 O13 2.166693 1_555
Mg7 O44 2.171548 1_555
Mg8 O2 1.983593 1_555
Mg8 O41 1.985745 1_555
Mg8 O18 2.032778 1_555
Mg8 O35 2.041557 1_555
Mg8 O14 2.128446 1_555
Mg8 O47 2.140133 1_555
Mg9 O3 1.983593 1_555
Mg9 O40 1.985745 1_555
Mg9 O19 2.032778 1_555
Mg9 O34 2.041557 1_555
Mg9 O15 2.128446 1_555
Mg9 O46 2.140133 1_555
Mg10 O28 2.032202 1_555
Mg10 O25 2.035286 1_555
Mg10 O18 2.103061 1_455
Mg10 O35 2.131026 1_455
Mg10 O20 2.501720 1_555
Mg11 O29 2.032202 1_555
Mg11 O24 2.035286 1_555
Mg11 O19 2.103061 1_555
Mg11 O34 2.131026 1_555
Mg11 O21 2.501720 1_555
O0 Si15 1.662650 1_555
O0 Si12 1.669316 1_555
O1 Si14 1.662650 1_555
O1 Si13 1.669316 1_555
O2 O41 1.586508 1_555
O3 O40 1.586508 1_555
O4 Si12 1.653272 1_555
O4 Si0 1.687416 1_565
O5 Si13 1.653272 1_555
O5 Si1 1.687416 1_545
O6 Si14 1.641933 1_555
O6 Si2 1.674549 1_545
O7 Si15 1.641933 1_555
O7 Si3 1.674549 1_565
O8 Si8 1.644597 1_555
O8 Si4 1.673810 1_565
O9 Si9 1.644597 1_555
O9 Si5 1.673810 1_545
O10 Si10 1.639721 1_555
O10 Si6 1.671206 1_545
O11 Si11 1.639721 1_555
O11 Si7 1.671206 1_565
O12 Si8 1.614351 1_556
O13 Si9 1.614351 1_554
O14 Si10 1.618436 1_554
O15 Si11 1.618436 1_556
O16 Si4 1.618679 1_556
O17 Si5 1.618679 1_554
O18 Si6 1.656792 1_554
O19 Si7 1.656792 1_556
O20 Si8 1.643045 1_555
O20 Si4 1.693466 1_555
O21 Si9 1.643045 1_555
O21 Si5 1.693466 1_555
O22 Si10 1.632918 1_555
O22 Si6 1.679770 1_555
O23 Si11 1.632918 1_555
O23 Si7 1.679770 1_555
O24 Si0 1.622478 1_555
O25 Si1 1.622478 1_555
O26 Si2 1.583911 1_555
O27 Si3 1.583911 1_555
O28 Si4 1.616498 1_555
O29 Si5 1.616498 1_555
O30 Si6 1.583225 1_555
O31 Si7 1.583225 1_555
O32 Si0 1.621492 1_555
O33 Si1 1.621492 1_555
O34 Si2 1.655499 1_555
O35 Si3 1.655499 1_555
O36 Si12 1.643854 1_555
O36 Si0 1.691142 1_555
O37 Si13 1.643854 1_555
O37 Si1 1.691142 1_555
O38 Si14 1.645821 1_555
O38 Si2 1.696290 1_555
O39 Si15 1.645821 1_555
O39 Si3 1.696290 1_555
O42 Si11 1.661207 1_555
O42 Si8 1.663531 1_555
O43 Si10 1.661207 1_555
O43 Si9 1.663531 1_555
O44 Si12 1.614364 1_555
O45 Si13 1.614364 1_555
O46 Si14 1.616836 1_555
O47 Si15 1.616836 1_555
