# generated using pymatgen
data_Ca3Cu2(SiO4)3
_symmetry_space_group_name_H-M   'P 1'
_cell_length_a   10.52812534
_cell_length_b   10.52812534
_cell_length_c   10.52812534
_cell_angle_alpha   109.47122063
_cell_angle_beta   109.47122063
_cell_angle_gamma   109.47122063
_symmetry_Int_Tables_number   1
_chemical_formula_structural   Ca3Cu2(SiO4)3
_chemical_formula_sum   'Ca12 Cu8 Si12 O48'
_cell_volume   898.32037371
_cell_formula_units_Z   4
loop_
 _symmetry_equiv_pos_site_id
 _symmetry_equiv_pos_as_xyz
  1  'x, y, z'
loop_
 _atom_site_type_symbol
 _atom_site_label
 _atom_site_symmetry_multiplicity
 _atom_site_fract_x
 _atom_site_fract_y
 _atom_site_fract_z
 _atom_site_occupancy
  Ca  Ca0  1  0.75000000  0.12500000  0.37500000  1
  Ca  Ca1  1  0.25000000  0.37500000  0.12500000  1
  Ca  Ca2  1  0.12500000  0.25000000  0.37500000  1
  Ca  Ca3  1  0.37500000  0.75000000  0.12500000  1
  Ca  Ca4  1  0.75000000  0.62500000  0.87500000  1
  Ca  Ca5  1  0.12500000  0.37500000  0.75000000  1
  Ca  Ca6  1  0.62500000  0.87500000  0.75000000  1
  Ca  Ca7  1  0.25000000  0.87500000  0.62500000  1
  Ca  Ca8  1  0.87500000  0.62500000  0.25000000  1
  Ca  Ca9  1  0.62500000  0.25000000  0.87500000  1
  Ca  Ca10  1  0.87500000  0.75000000  0.62500000  1
  Ca  Ca11  1  0.37500000  0.12500000  0.25000000  1
  Cu  Cu0  1  0.00000000  0.00000000  0.00000000  1
  Cu  Cu1  1  0.50000000  0.00000000  0.00000000  1
  Cu  Cu2  1  0.00000000  0.50000000  0.00000000  1
  Cu  Cu3  1  0.50000000  0.50000000  0.00000000  1
  Cu  Cu4  1  0.00000000  0.50000000  0.50000000  1
  Cu  Cu5  1  0.50000000  0.00000000  0.50000000  1
  Cu  Cu6  1  0.50000000  0.50000000  0.50000000  1
  Cu  Cu7  1  0.00000000  0.00000000  0.50000000  1
  Si  Si0  1  0.12500000  0.87500000  0.25000000  1
  Si  Si1  1  0.87500000  0.12500000  0.75000000  1
  Si  Si2  1  0.25000000  0.62500000  0.37500000  1
  Si  Si3  1  0.37500000  0.25000000  0.62500000  1
  Si  Si4  1  0.75000000  0.87500000  0.12500000  1
  Si  Si5  1  0.12500000  0.75000000  0.87500000  1
  Si  Si6  1  0.37500000  0.62500000  0.75000000  1
  Si  Si7  1  0.62500000  0.75000000  0.37500000  1
  Si  Si8  1  0.87500000  0.25000000  0.12500000  1
  Si  Si9  1  0.25000000  0.12500000  0.87500000  1
  Si  Si10  1  0.75000000  0.37500000  0.62500000  1
  Si  Si11  1  0.62500000  0.37500000  0.25000000  1
  O  O0  1  0.49008200  0.38304300  0.29560500  1
  O  O1  1  0.30552300  0.89296100  0.00991800  1
  O  O2  1  0.60703900  0.91256300  0.11695700  1
  O  O3  1  0.58743700  0.19447700  0.20439500  1
  O  O4  1  0.11695700  0.00991800  0.20439500  1
  O  O5  1  0.19447700  0.20439400  0.58743700  1
  O  O6  1  0.19447700  0.49008200  0.60703900  1
  O  O7  1  0.20439400  0.58743700  0.19447700  1
  O  O8  1  0.38304300  0.58743700  0.89296100  1
  O  O9  1  0.91256300  0.29560500  0.30552300  1
  O  O10  1  0.29560500  0.30552300  0.91256300  1
  O  O11  1  0.20439500  0.11695700  0.00991800  1
  O  O12  1  0.49008200  0.60703900  0.19447700  1
  O  O13  1  0.89296100  0.38304300  0.58743700  1
  O  O14  1  0.00991800  0.20439500  0.11695700  1
  O  O15  1  0.60703900  0.19447700  0.49008200  1
  O  O16  1  0.58743700  0.89296100  0.38304300  1
  O  O17  1  0.00991800  0.30552300  0.89296100  1
  O  O18  1  0.91256300  0.11695700  0.60703900  1
  O  O19  1  0.61695700  0.41256300  0.10703900  1
  O  O20  1  0.11695700  0.60703900  0.91256300  1
  O  O21  1  0.29560600  0.49008200  0.38304300  1
  O  O22  1  0.89296100  0.00991800  0.30552300  1
  O  O23  1  0.30552300  0.91256300  0.29560500  1
  O  O24  1  0.50991800  0.61695700  0.70439500  1
  O  O25  1  0.69447700  0.10703900  0.99008200  1
  O  O26  1  0.39296100  0.08743700  0.88304300  1
  O  O27  1  0.41256300  0.80552300  0.79560500  1
  O  O28  1  0.88304300  0.99008200  0.79560500  1
  O  O29  1  0.80552300  0.79560500  0.41256300  1
  O  O30  1  0.80552300  0.50991800  0.39296100  1
  O  O31  1  0.79560500  0.41256300  0.80552300  1
  O  O32  1  0.69447700  0.08743700  0.70439500  1
  O  O33  1  0.10703900  0.99008200  0.69447700  1
  O  O34  1  0.70439500  0.50991800  0.61695700  1
  O  O35  1  0.61695700  0.70439500  0.50991800  1
  O  O36  1  0.88304300  0.39296100  0.08743700  1
  O  O37  1  0.08743700  0.88304300  0.39296100  1
  O  O38  1  0.99008200  0.69447700  0.10703900  1
  O  O39  1  0.41256300  0.10703900  0.61695700  1
  O  O40  1  0.39296100  0.80552300  0.50991800  1
  O  O41  1  0.99008200  0.79560500  0.88304300  1
  O  O42  1  0.10703900  0.61695700  0.41256300  1
  O  O43  1  0.50991800  0.39296100  0.80552300  1
  O  O44  1  0.79560500  0.88304300  0.99008200  1
  O  O45  1  0.70439500  0.69447700  0.08743700  1
  O  O46  1  0.08743700  0.70439400  0.69447700  1
  O  O47  1  0.38304300  0.29560500  0.49008200  1
loop_
_geom_bond_atom_site_label_1
_geom_bond_atom_site_label_2
_geom_bond_distance
_geom_bond_site_symmetry_2
Ca0 O2 2.372173 1_545
Ca0 O13 2.372173 1_555
Ca0 O22 2.372177 1_555
Ca0 O15 2.372177 1_555
Ca0 O18 2.520207 1_555
Ca0 O16 2.520207 1_545
Ca0 O9 2.520209 1_555
Ca0 O3 2.520209 1_555
Ca1 O10 2.372167 1_554
Ca1 O21 2.372173 1_555
Ca1 O7 2.372174 1_555
Ca1 O11 2.372177 1_555
Ca1 O0 2.520203 1_555
Ca1 O12 2.520203 1_555
Ca1 O17 2.520203 1_554
Ca1 O14 2.520203 1_555
Ca2 O9 2.372167 1_455
Ca2 O5 2.372174 1_555
Ca2 O14 2.372177 1_555
Ca2 O47 2.372177 1_555
Ca2 O6 2.520203 1_555
Ca2 O4 2.520203 1_555
Ca2 O22 2.520203 1_455
Ca2 O21 2.520207 1_555
Ca3 O20 2.372173 1_554
Ca3 O16 2.372173 1_555
Ca3 O1 2.372177 1_555
Ca3 O12 2.372177 1_555
Ca3 O8 2.520207 1_554
Ca3 O2 2.520207 1_555
Ca3 O23 2.520209 1_555
Ca3 O7 2.520215 1_555
Ca4 O31 2.372167 1_555
Ca4 O45 2.372167 1_556
Ca4 O34 2.372177 1_555
Ca4 O44 2.372177 1_555
Ca4 O38 2.520203 1_556
Ca4 O24 2.520203 1_555
Ca4 O41 2.520203 1_555
Ca4 O43 2.520203 1_555
Ca5 O18 2.372173 1_455
Ca5 O8 2.372173 1_555
Ca5 O17 2.372177 1_555
Ca5 O6 2.372177 1_555
Ca5 O13 2.520207 1_455
Ca5 O20 2.520207 1_555
Ca5 O10 2.520209 1_555
Ca5 O5 2.520215 1_555
Ca6 O32 2.372167 1_565
Ca6 O27 2.372167 1_555
Ca6 O24 2.372177 1_555
Ca6 O28 2.372177 1_555
Ca6 O25 2.520203 1_565
Ca6 O40 2.520203 1_555
Ca6 O44 2.520203 1_555
Ca6 O35 2.520203 1_555
Ca7 O26 2.372173 1_565
Ca7 O42 2.372173 1_555
Ca7 O33 2.372177 1_555
Ca7 O40 2.372177 1_555
Ca7 O39 2.520207 1_565
Ca7 O37 2.520207 1_555
Ca7 O27 2.520209 1_555
Ca7 O46 2.520215 1_555
Ca8 O37 2.372173 1_655
Ca8 O19 2.372173 1_555
Ca8 O30 2.372177 1_555
Ca8 O38 2.372177 1_555
Ca8 O42 2.520207 1_655
Ca8 O36 2.520207 1_555
Ca8 O29 2.520209 1_555
Ca8 O45 2.520209 1_555
Ca9 O36 2.372173 1_556
Ca9 O39 2.372173 1_555
Ca9 O25 2.372177 1_555
Ca9 O43 2.372177 1_555
Ca9 O19 2.520207 1_556
Ca9 O26 2.520207 1_555
Ca9 O32 2.520209 1_555
Ca9 O31 2.520209 1_555
Ca10 O29 2.372167 1_555
Ca10 O46 2.372174 1_655
Ca10 O41 2.372177 1_555
Ca10 O35 2.372177 1_555
Ca10 O33 2.520203 1_655
Ca10 O28 2.520203 1_555
Ca10 O30 2.520203 1_555
Ca10 O34 2.520203 1_555
Ca11 O3 2.372167 1_555
Ca11 O23 2.372167 1_545
Ca11 O4 2.372177 1_555
Ca11 O0 2.372177 1_555
Ca11 O1 2.520203 1_545
Ca11 O15 2.520203 1_555
Ca11 O11 2.520203 1_555
Ca11 O47 2.520203 1_555
Cu0 O4 2.038569 1_555
Cu0 O41 2.038569 1_444
Cu0 O44 2.038569 1_444
Cu0 O14 2.038569 1_555
Cu0 O11 2.038569 1_555
Cu0 O28 2.038569 1_444
Cu1 O2 2.038561 1_545
Cu1 O26 2.038561 1_554
Cu1 O1 2.038569 1_545
Cu1 O25 2.038569 1_554
Cu1 O27 2.038572 1_544
Cu1 O3 2.038572 1_555
Cu2 O36 2.038561 1_455
Cu2 O20 2.038561 1_554
Cu2 O7 2.038566 1_555
Cu2 O38 2.038569 1_455
Cu2 O17 2.038569 1_554
Cu2 O31 2.038572 1_454
Cu3 O8 2.038561 1_554
Cu3 O19 2.038561 1_555
Cu3 O12 2.038569 1_555
Cu3 O43 2.038569 1_554
Cu3 O10 2.038572 1_554
Cu3 O45 2.038572 1_555
Cu4 O13 2.038561 1_455
Cu4 O42 2.038561 1_555
Cu4 O46 2.038566 1_555
Cu4 O30 2.038569 1_455
Cu4 O6 2.038569 1_555
Cu4 O9 2.038572 1_455
Cu5 O16 2.038561 1_545
Cu5 O39 2.038561 1_555
Cu5 O40 2.038569 1_545
Cu5 O15 2.038569 1_555
Cu5 O23 2.038572 1_545
Cu5 O32 2.038572 1_555
Cu6 O21 2.038561 1_555
Cu6 O35 2.038569 1_555
Cu6 O34 2.038569 1_555
Cu6 O47 2.038569 1_555
Cu6 O24 2.038569 1_555
Cu6 O0 2.038569 1_555
Cu7 O37 2.038561 1_545
Cu7 O18 2.038561 1_455
Cu7 O5 2.038566 1_555
Cu7 O22 2.038569 1_455
Cu7 O33 2.038569 1_545
Cu7 O29 2.038572 1_445
O0 Si11 1.662251 1_555
O1 Si5 1.662251 1_554
O2 Si4 1.662257 1_555
O3 Si11 1.662249 1_555
O4 Si0 1.662251 1_545
O5 Si3 1.662247 1_555
O6 Si6 1.662251 1_555
O7 Si2 1.662247 1_555
O8 Si6 1.662257 1_555
O9 Si8 1.662249 1_555
O10 Si9 1.662249 1_555
O11 Si9 1.662251 1_554
O12 Si7 1.662251 1_555
O13 Si10 1.662257 1_555
O14 Si8 1.662251 1_455
O15 Si10 1.662251 1_555
O16 Si7 1.662257 1_555
O17 Si1 1.662251 1_455
O18 Si1 1.662257 1_555
O19 Si11 1.662257 1_555
O20 Si5 1.662257 1_555
O21 Si2 1.662257 1_555
O22 Si4 1.662251 1_545
O23 Si0 1.662249 1_555
O24 Si6 1.662251 1_555
O25 Si8 1.662251 1_556
O26 Si9 1.662257 1_555
O27 Si6 1.662249 1_555
O28 Si1 1.662251 1_565
O29 Si7 1.662249 1_555
O30 Si11 1.662251 1_555
O31 Si10 1.662249 1_555
O32 Si1 1.662249 1_555
O33 Si9 1.662251 1_565
O34 Si10 1.662251 1_555
O35 Si7 1.662251 1_555
O36 Si8 1.662257 1_555
O37 Si0 1.662257 1_555
O38 Si0 1.662251 1_655
O39 Si3 1.662257 1_555
O40 Si2 1.662251 1_555
O41 Si5 1.662251 1_655
O42 Si2 1.662257 1_555
O43 Si3 1.662251 1_555
O44 Si4 1.662251 1_556
O45 Si4 1.662249 1_555
O46 Si5 1.662247 1_555
O47 Si3 1.662251 1_555
