# generated using pymatgen
data_CaMn9CdO10
_symmetry_space_group_name_H-M   'P 1'
_cell_length_a   5.55229659
_cell_length_b   10.00120726
_cell_length_c   5.54959427
_cell_angle_alpha   84.70428460
_cell_angle_beta   107.21558076
_cell_angle_gamma   82.33555296
_symmetry_Int_Tables_number   1
_chemical_formula_structural   CaMn9CdO10
_chemical_formula_sum   'Ca1 Mn9 Cd1 O10'
_cell_volume   288.89087935
_cell_formula_units_Z   1
loop_
 _symmetry_equiv_pos_site_id
 _symmetry_equiv_pos_as_xyz
  1  'x, y, z'
loop_
 _atom_site_type_symbol
 _atom_site_label
 _atom_site_symmetry_multiplicity
 _atom_site_fract_x
 _atom_site_fract_y
 _atom_site_fract_z
 _atom_site_occupancy
  Ca  Ca0  1  0.12765700  0.89957400  0.44045700  1
  Mn  Mn0  1  0.47947000  0.41233800  0.32537900  1
  Mn  Mn1  1  0.05116800  0.06841900  0.88382300  1
  Mn  Mn2  1  0.58685600  0.07549300  0.42049700  1
  Mn  Mn3  1  0.94184800  0.55209100  0.28986600  1
  Mn  Mn4  1  0.02858100  0.23151300  0.35839500  1
  Mn  Mn5  1  0.51926900  0.22133200  0.86783100  1
  Mn  Mn6  1  0.42426100  0.54678200  0.77576900  1
  Mn  Mn7  1  0.97771500  0.38576900  0.82573600  1
  Mn  Mn8  1  0.89530500  0.70036100  0.73669300  1
  Cd  Cd0  1  0.59164400  0.87030400  0.99190900  1
  O  O0  1  0.82683900  0.07049800  0.15718000  1
  O  O1  1  0.71976100  0.39866100  0.08013200  1
  O  O2  1  0.77484900  0.22936000  0.61476300  1
  O  O3  1  0.69915600  0.54645100  0.55872300  1
  O  O4  1  0.27247800  0.20615600  0.10947800  1
  O  O5  1  0.13254300  0.68348700  0.51285400  1
  O  O6  1  0.86377000  0.91433600  0.69410000  1
  O  O7  1  0.31930600  0.06666300  0.64484800  1
  O  O8  1  0.23673800  0.38083800  0.57101800  1
  O  O9  1  0.16173900  0.53957500  0.02150200  1
loop_
_geom_bond_atom_site_label_1
_geom_bond_atom_site_label_2
_geom_bond_distance
_geom_bond_site_symmetry_2
Ca0 O5 2.156450 1_555
Ca0 O7 2.306773 1_565
Ca0 O6 2.313310 1_455
Ca0 O0 2.317621 1_465
Mn0 O1 2.170629 1_555
Mn0 O3 2.187659 1_555
Mn0 O9 2.195325 1_555
Mn0 O8 2.212553 1_555
Mn0 O2 2.390733 1_555
Mn0 O4 2.698459 1_555
Mn1 O6 2.155143 1_445
Mn1 O2 2.171587 1_455
Mn1 O4 2.198824 1_556
Mn1 O0 2.229471 1_456
Mn1 O7 2.267530 1_555
Mn2 O2 2.165286 1_555
Mn2 O6 2.184618 1_545
Mn2 O7 2.207768 1_555
Mn2 O4 2.219350 1_555
Mn2 O0 2.249807 1_555
Mn3 O5 2.067628 1_655
Mn3 O9 2.189584 1_655
Mn3 O1 2.283584 1_555
Mn3 O3 2.289101 1_555
Mn3 O8 2.301136 1_655
Mn4 O4 2.210598 1_555
Mn4 O8 2.221906 1_555
Mn4 O7 2.266786 1_555
Mn4 O0 2.273219 1_455
Mn4 O2 2.279963 1_455
Mn4 O1 2.304520 1_455
Mn5 O4 2.191955 1_556
Mn5 O0 2.238956 1_556
Mn5 O8 2.244278 1_555
Mn5 O7 2.270464 1_555
Mn5 O2 2.276369 1_555
Mn5 O1 2.430762 1_556
Mn6 O5 2.064891 1_555
Mn6 O3 2.206376 1_555
Mn6 O1 2.233565 1_556
Mn6 O9 2.275088 1_556
Mn6 O8 2.288742 1_555
Mn7 O9 2.158968 1_656
Mn7 O3 2.170530 1_555
Mn7 O2 2.261399 1_555
Mn7 O1 2.289616 1_556
Mn7 O8 2.294847 1_655
Mn7 O4 2.356496 1_656
Mn8 O5 2.062669 1_655
Mn8 O6 2.109110 1_555
Mn8 O3 2.149897 1_555
Mn8 O9 2.187393 1_656
Cd0 O7 2.576526 1_565
Cd0 O6 2.594143 1_555
Cd0 O0 2.623488 1_566
