# generated using pymatgen
data_SrCaPrSbO6
_symmetry_space_group_name_H-M   'P 1'
_cell_length_a   8.45624757
_cell_length_b   8.46955116
_cell_length_c   8.46769437
_cell_angle_alpha   90.00000000
_cell_angle_beta   90.00000000
_cell_angle_gamma   90.00000000
_symmetry_Int_Tables_number   1
_chemical_formula_structural   SrCaPrSbO6
_chemical_formula_sum   'Sr4 Ca4 Pr4 Sb4 O24'
_cell_volume   606.46153274
_cell_formula_units_Z   4
loop_
 _symmetry_equiv_pos_site_id
 _symmetry_equiv_pos_as_xyz
  1  'x, y, z'
loop_
 _atom_site_type_symbol
 _atom_site_label
 _atom_site_symmetry_multiplicity
 _atom_site_fract_x
 _atom_site_fract_y
 _atom_site_fract_z
 _atom_site_occupancy
  Sr  Sr0  1  0.00000000  0.50000000  0.50000000  1
  Sr  Sr1  1  0.50000000  0.00000000  0.50000000  1
  Sr  Sr2  1  0.50000000  0.50000000  -0.00000000  1
  Sr  Sr3  1  0.00000000  -0.00000000  0.50000000  1
  Ca  Ca0  1  0.50000000  -0.00000000  0.00000000  1
  Ca  Ca1  1  0.00000000  0.50000000  -0.00000000  1
  Ca  Ca2  1  0.00000000  -0.00000000  -0.00000000  1
  Ca  Ca3  1  0.50000000  0.50000000  0.50000000  1
  Pr  Pr0  1  0.75031449  0.75026283  0.75218580  1
  Pr  Pr1  1  0.24968551  0.24973717  0.75218580  1
  Pr  Pr2  1  0.24968551  0.75026283  0.24781420  1
  Pr  Pr3  1  0.75031449  0.24973717  0.24781420  1
  Sb  Sb0  1  0.24971054  0.25068651  0.24742449  1
  Sb  Sb1  1  0.75028946  0.74931349  0.24742449  1
  Sb  Sb2  1  0.75028946  0.25068651  0.75257551  1
  Sb  Sb3  1  0.24971054  0.74931349  0.75257551  1
  O  O0  1  0.02062575  0.20042956  0.28438822  1
  O  O1  1  0.97937425  0.79957044  0.28438822  1
  O  O2  1  0.97937425  0.20042956  0.71561178  1
  O  O3  1  0.02062575  0.79957044  0.71561178  1
  O  O4  1  0.29266341  0.02177757  0.19286544  1
  O  O5  1  0.29266341  0.97822243  0.80713456  1
  O  O6  1  0.70733659  0.97822243  0.19286544  1
  O  O7  1  0.70733659  0.02177757  0.80713456  1
  O  O8  1  0.19508764  0.29527551  0.02009482  1
  O  O9  1  0.80491236  0.29527551  0.97990518  1
  O  O10  1  0.19508764  0.70472449  0.97990518  1
  O  O11  1  0.80491236  0.70472449  0.02009482  1
  O  O12  1  0.48014892  0.29626896  0.21338230  1
  O  O13  1  0.51985108  0.70373104  0.21338230  1
  O  O14  1  0.51985108  0.29626896  0.78661770  1
  O  O15  1  0.48014892  0.70373104  0.78661770  1
  O  O16  1  0.21609095  0.48055965  0.29669042  1
  O  O17  1  0.21609095  0.51944035  0.70330958  1
  O  O18  1  0.78390905  0.51944035  0.29669042  1
  O  O19  1  0.78390905  0.48055965  0.70330958  1
  O  O20  1  0.29397608  0.21363414  0.47903246  1
  O  O21  1  0.70602392  0.21363414  0.52096754  1
  O  O22  1  0.29397608  0.78636586  0.52096754  1
  O  O23  1  0.70602392  0.78636586  0.47903246  1
loop_
_geom_bond_atom_site_label_1
_geom_bond_atom_site_label_2
_geom_bond_distance
_geom_bond_site_symmetry_2
Ca0 O5 2.403153 1_544
Ca0 O4 2.403153 1_555
Ca0 O7 2.403153 1_554
Ca0 O6 2.403153 1_545
Ca1 O8 2.399373 1_555
Ca1 O11 2.399373 1_455
Ca1 O10 2.399373 1_554
Ca1 O9 2.399373 1_454
Ca2 O3 2.951457 1_544
Ca2 O1 2.951457 1_445
Ca2 O0 2.951457 1_555
Ca2 O2 2.951457 1_454
Ca2 O7 2.970846 1_454
Ca2 O5 2.970846 1_544
Ca2 O6 2.970846 1_445
Ca2 O4 2.970846 1_555
Ca2 O8 3.000792 1_555
Ca2 O11 3.000792 1_445
Ca2 O10 3.000792 1_544
Ca2 O9 3.000792 1_454
Ca3 O17 2.958844 1_555
Ca3 O18 2.958844 1_555
Ca3 O19 2.958844 1_555
Ca3 O16 2.958844 1_555
Ca3 O14 2.982591 1_555
Ca3 O15 2.982591 1_555
Ca3 O12 2.982591 1_555
Ca3 O13 2.982591 1_555
Ca3 O22 2.991532 1_555
Ca3 O20 2.991532 1_555
Ca3 O23 2.991532 1_555
Ca3 O21 2.991532 1_555
O0 Sb0 2.007955 1_555
O0 Pr3 2.344202 1_455
O0 Sr3 2.499080 1_555
O0 Sr0 3.130695 1_555
O1 Sb1 2.007955 1_555
O1 Pr2 2.344202 1_655
O1 Sr3 2.499080 1_665
O1 Sr0 3.130695 1_655
O2 Sb2 2.007955 1_555
O2 Pr1 2.344202 1_655
O2 Sr3 2.499080 1_655
O2 Sr0 3.130695 1_655
O3 Sb3 2.007955 1_555
O3 Pr0 2.344202 1_455
O3 Sr3 2.499080 1_565
O3 Sr0 3.130695 1_555
O4 Sb0 2.025867 1_555
O4 Pr2 2.374189 1_545
O5 Sb3 2.025867 1_555
O5 Pr1 2.374189 1_565
O6 Sb1 2.025867 1_555
O6 Pr3 2.374189 1_565
O7 Sb2 2.025867 1_555
O7 Pr0 2.374189 1_545
O8 Sb0 2.015301 1_555
O8 Pr1 2.346984 1_554
O9 Sb2 2.015301 1_555
O9 Pr3 2.346984 1_556
O10 Sb3 2.015301 1_555
O10 Pr2 2.346984 1_556
O11 Sb1 2.015301 1_555
O11 Pr0 2.346984 1_554
O12 Sb0 2.007324 1_555
O12 Pr3 2.336592 1_555
O12 Sr2 2.504056 1_555
O13 Sb1 2.007324 1_555
O13 Pr2 2.336592 1_555
O13 Sr2 2.504056 1_555
O14 Sb2 2.007324 1_555
O14 Pr1 2.336592 1_555
O14 Sr2 2.504056 1_556
O15 Sb3 2.007324 1_555
O15 Pr0 2.336592 1_555
O15 Sr2 2.504056 1_556
O16 Sb0 2.011308 1_555
O16 Pr2 2.338773 1_555
O16 Sr0 2.515946 1_555
O17 Sb3 2.011308 1_555
O17 Pr1 2.338773 1_555
O17 Sr0 2.515946 1_555
O18 Sb1 2.011308 1_555
O18 Pr3 2.338773 1_555
O18 Sr0 2.515946 1_655
O19 Sb2 2.011308 1_555
O19 Pr0 2.338773 1_555
O19 Sr0 2.515946 1_655
O20 Sb0 2.021100 1_555
O20 Pr1 2.362974 1_555
O20 Sr1 2.518059 1_555
O20 Sr3 3.079816 1_555
O21 Sb2 2.021100 1_555
O21 Pr3 2.362974 1_555
O21 Sr1 2.518059 1_555
O21 Sr3 3.079816 1_655
O22 Sb3 2.021100 1_555
O22 Pr2 2.362974 1_555
O22 Sr1 2.518059 1_565
O22 Sr3 3.079816 1_565
O23 Sb1 2.021100 1_555
O23 Pr0 2.362974 1_555
O23 Sr1 2.518059 1_565
O23 Sr3 3.079816 1_665
