# generated using pymatgen
data_HfCrGa2
_symmetry_space_group_name_H-M   'P 1'
_cell_length_a   8.54169200
_cell_length_b   9.09125500
_cell_length_c   9.99176800
_cell_angle_alpha   90.00000000
_cell_angle_beta   90.00000000
_cell_angle_gamma   90.00000000
_symmetry_Int_Tables_number   1
_chemical_formula_structural   HfCrGa2
_chemical_formula_sum   'Hf12 Cr12 Ga24'
_cell_volume   775.90774754
_cell_formula_units_Z   12
loop_
 _symmetry_equiv_pos_site_id
 _symmetry_equiv_pos_as_xyz
  1  'x, y, z'
loop_
 _atom_site_type_symbol
 _atom_site_label
 _atom_site_symmetry_multiplicity
 _atom_site_fract_x
 _atom_site_fract_y
 _atom_site_fract_z
 _atom_site_occupancy
  Hf  Hf0  1  0.47417700  0.16580000  0.95231300  1
  Hf  Hf1  1  0.02582300  0.33420000  0.45231300  1
  Hf  Hf2  1  0.97417700  0.83420000  0.04768700  1
  Hf  Hf3  1  0.52582300  0.66580000  0.54768700  1
  Hf  Hf4  1  0.52582300  0.83420000  0.04768700  1
  Hf  Hf5  1  0.97417700  0.66580000  0.54768700  1
  Hf  Hf6  1  0.02582300  0.16580000  0.95231300  1
  Hf  Hf7  1  0.47417700  0.33420000  0.45231300  1
  Hf  Hf8  1  0.25000000  0.16444500  0.67978800  1
  Hf  Hf9  1  0.25000000  0.33555500  0.17978800  1
  Hf  Hf10  1  0.75000000  0.83555500  0.32021200  1
  Hf  Hf11  1  0.75000000  0.66444500  0.82021200  1
  Cr  Cr0  1  0.50004100  0.42495200  0.75650600  1
  Cr  Cr1  1  0.99995900  0.07504800  0.25650600  1
  Cr  Cr2  1  0.00004100  0.57504800  0.24349400  1
  Cr  Cr3  1  0.49995900  0.92495200  0.74349400  1
  Cr  Cr4  1  0.49995900  0.57504800  0.24349400  1
  Cr  Cr5  1  0.00004100  0.92495200  0.74349400  1
  Cr  Cr6  1  0.99995900  0.42495200  0.75650600  1
  Cr  Cr7  1  0.50004100  0.07504800  0.25650600  1
  Cr  Cr8  1  0.00000000  0.00000000  0.50000000  1
  Cr  Cr9  1  0.50000000  0.50000000  0.00000000  1
  Cr  Cr10  1  0.50000000  0.00000000  0.50000000  1
  Cr  Cr11  1  0.00000000  0.50000000  0.00000000  1
  Ga  Ga0  1  0.92452800  0.17807300  0.67998600  1
  Ga  Ga1  1  0.57547200  0.32192700  0.17998600  1
  Ga  Ga2  1  0.42452800  0.82192700  0.32001400  1
  Ga  Ga3  1  0.07547200  0.67807300  0.82001400  1
  Ga  Ga4  1  0.07547200  0.82192700  0.32001400  1
  Ga  Ga5  1  0.42452800  0.67807300  0.82001400  1
  Ga  Ga6  1  0.57547200  0.17807300  0.67998600  1
  Ga  Ga7  1  0.92452800  0.32192700  0.17998600  1
  Ga  Ga8  1  0.25000000  0.56767500  0.38058300  1
  Ga  Ga9  1  0.25000000  0.93232500  0.88058300  1
  Ga  Ga10  1  0.75000000  0.43232500  0.61941700  1
  Ga  Ga11  1  0.75000000  0.06767500  0.11941700  1
  Ga  Ga12  1  0.25000000  0.48774800  0.62874900  1
  Ga  Ga13  1  0.25000000  0.01225200  0.12874900  1
  Ga  Ga14  1  0.75000000  0.51225200  0.37125100  1
  Ga  Ga15  1  0.75000000  0.98774800  0.87125100  1
  Ga  Ga16  1  0.25000000  0.64254500  0.09327200  1
  Ga  Ga17  1  0.25000000  0.85745500  0.59327200  1
  Ga  Ga18  1  0.75000000  0.35745500  0.90672800  1
  Ga  Ga19  1  0.75000000  0.14254500  0.40672800  1
  Ga  Ga20  1  0.25000000  0.38491800  0.89671600  1
  Ga  Ga21  1  0.25000000  0.11508200  0.39671600  1
  Ga  Ga22  1  0.75000000  0.61508200  0.10328400  1
  Ga  Ga23  1  0.75000000  0.88491800  0.60328400  1
loop_
_geom_bond_atom_site_label_1
_geom_bond_atom_site_label_2
_geom_bond_distance
_geom_bond_site_symmetry_2
Hf0 Hf4 3.192320 1_546
Hf0 Hf8 3.328899 1_555
Hf0 Hf9 3.348784 1_556
Hf1 Hf5 3.192320 1_455
Hf1 Hf9 3.328899 1_555
Hf1 Hf8 3.348784 1_555
Hf2 Hf6 3.192320 1_664
Hf3 Hf7 3.192320 1_555
Hf6 Hf8 3.328899 1_555
Hf6 Hf9 3.348784 1_556
Hf7 Hf9 3.328899 1_555
Hf7 Hf8 3.348784 1_555
Hf10 Hf2 3.328899 1_555
Hf10 Hf4 3.328899 1_555
Hf10 Hf5 3.348784 1_555
Hf10 Hf3 3.348784 1_555
Hf11 Hf5 3.328899 1_555
Hf11 Hf3 3.328899 1_555
Hf11 Hf2 3.348784 1_556
Hf11 Hf4 3.348784 1_556
Cr0 Ga6 2.457074 1_555
Cr0 Ga5 2.472683 1_555
Cr0 Cr9 2.526793 1_556
Cr0 Ga10 2.537573 1_555
Cr0 Ga12 2.552831 1_555
Cr0 Ga20 2.580047 1_555
Cr0 Ga18 2.681050 1_555
Cr0 Hf3 3.032533 1_555
Cr0 Hf0 3.070399 1_555
Cr0 Hf11 3.115175 1_555
Cr0 Hf7 3.157154 1_555
Cr0 Hf8 3.279960 1_555
Cr1 Ga7 2.457074 1_555
Cr1 Ga4 2.472683 1_645
Cr1 Cr8 2.526793 1_655
Cr1 Ga11 2.537573 1_555
Cr1 Ga13 2.552831 1_655
Cr1 Ga21 2.580047 1_655
Cr1 Ga19 2.681050 1_555
Cr1 Hf2 3.032533 1_545
Cr1 Hf1 3.070399 1_655
Cr1 Hf10 3.115175 1_545
Cr1 Hf6 3.157154 1_654
Cr1 Hf9 3.279960 1_655
Cr2 Ga4 2.457074 1_555
Cr2 Ga7 2.472683 1_455
Cr2 Ga8 2.537573 1_555
Cr2 Ga14 2.552831 1_455
Cr2 Ga22 2.580047 1_455
Cr2 Ga16 2.681050 1_555
Cr2 Hf1 3.032533 1_555
Cr2 Hf2 3.070399 1_455
Cr2 Hf9 3.115175 1_555
Cr2 Hf5 3.157154 1_455
Cr2 Hf10 3.279960 1_455
Cr3 Ga5 2.457074 1_555
Cr3 Ga6 2.472683 1_565
Cr3 Ga9 2.537573 1_555
Cr3 Ga15 2.552831 1_555
Cr3 Ga23 2.580047 1_555
Cr3 Ga17 2.681050 1_555
Cr3 Hf0 3.032533 1_565
Cr3 Hf3 3.070399 1_555
Cr3 Hf8 3.115175 1_565
Cr3 Hf4 3.157154 1_556
Cr3 Hf11 3.279960 1_555
Cr4 Ga2 2.457074 1_555
Cr4 Ga1 2.472683 1_555
Cr4 Cr9 2.526793 1_555
Cr4 Ga8 2.537573 1_555
Cr4 Ga14 2.552831 1_555
Cr4 Ga22 2.580047 1_555
Cr4 Ga16 2.681050 1_555
Cr4 Hf7 3.032533 1_555
Cr4 Hf4 3.070399 1_555
Cr4 Hf9 3.115175 1_555
Cr4 Hf3 3.157154 1_555
Cr4 Hf10 3.279960 1_555
Cr5 Ga3 2.457074 1_555
Cr5 Ga0 2.472683 1_465
Cr5 Cr8 2.526793 1_565
Cr5 Ga9 2.537573 1_555
Cr5 Ga15 2.552831 1_455
Cr5 Ga23 2.580047 1_455
Cr5 Ga17 2.681050 1_555
Cr5 Hf6 3.032533 1_565
Cr5 Hf5 3.070399 1_455
Cr5 Hf8 3.115175 1_565
Cr5 Hf2 3.157154 1_456
Cr5 Hf11 3.279960 1_455
Cr6 Ga0 2.457074 1_555
Cr6 Ga3 2.472683 1_655
Cr6 Ga10 2.537573 1_555
Cr6 Ga12 2.552831 1_655
Cr6 Ga20 2.580047 1_655
Cr6 Ga18 2.681050 1_555
Cr6 Hf5 3.032533 1_555
Cr6 Hf6 3.070399 1_655
Cr6 Hf11 3.115175 1_555
Cr6 Hf1 3.157154 1_655
Cr6 Hf8 3.279960 1_655
Cr7 Ga1 2.457074 1_555
Cr7 Ga2 2.472683 1_545
Cr7 Ga11 2.537573 1_555
Cr7 Ga13 2.552831 1_555
Cr7 Ga21 2.580047 1_555
Cr7 Ga19 2.681050 1_555
Cr7 Hf4 3.032533 1_545
Cr7 Hf7 3.070399 1_555
Cr7 Hf10 3.115175 1_545
Cr7 Hf0 3.157154 1_554
Cr7 Hf9 3.279960 1_555
Cr8 Ga0 2.504118 1_455
Cr8 Ga4 2.504118 1_545
Cr8 Ga23 2.592229 1_445
Cr8 Ga21 2.592229 1_555
Cr8 Ga19 2.666075 1_455
Cr8 Ga17 2.666075 1_545
Cr8 Hf5 3.083332 1_445
Cr8 Hf1 3.083332 1_555
Cr8 Hf8 3.165777 1_555
Cr8 Hf10 3.165777 1_445
Cr9 Ga1 2.504118 1_555
Cr9 Ga5 2.504118 1_554
Cr9 Ga22 2.592229 1_555
Cr9 Ga20 2.592229 1_554
Cr9 Ga16 2.666075 1_555
Cr9 Ga18 2.666075 1_554
Cr9 Hf4 3.083332 1_555
Cr9 Hf0 3.083332 1_554
Cr9 Hf9 3.165777 1_555
Cr9 Hf11 3.165777 1_554
Cr10 Ga6 2.504118 1_555
Cr10 Ga2 2.504118 1_545
Cr10 Cr7 2.526793 1_555
Cr10 Cr3 2.526793 1_545
Cr10 Ga23 2.592229 1_545
Cr10 Ga21 2.592229 1_555
Cr10 Ga19 2.666075 1_555
Cr10 Ga17 2.666075 1_545
Cr10 Hf3 3.083332 1_545
Cr10 Hf7 3.083332 1_555
Cr10 Hf8 3.165777 1_555
Cr10 Hf10 3.165777 1_545
Cr11 Ga7 2.504118 1_455
Cr11 Ga3 2.504118 1_554
Cr11 Cr2 2.526793 1_555
Cr11 Cr6 2.526793 1_454
Cr11 Ga22 2.592229 1_455
Cr11 Ga20 2.592229 1_554
Cr11 Ga16 2.666075 1_555
Cr11 Ga18 2.666075 1_454
Cr11 Hf6 3.083332 1_554
Cr11 Hf2 3.083332 1_455
Cr11 Hf9 3.165777 1_555
Cr11 Hf11 3.165777 1_454
Ga0 Hf8 2.782842 1_655
Ga0 Ga10 2.816297 1_555
Ga0 Hf1 2.817492 1_655
Ga0 Hf6 2.857458 1_655
Ga0 Ga15 2.978003 1_545
Ga0 Ga6 2.981529 1_555
Ga0 Ga19 3.127524 1_555
Ga0 Ga18 3.164592 1_555
Ga1 Hf9 2.782842 1_555
Ga1 Ga11 2.816297 1_555
Ga1 Hf0 2.817492 1_554
Ga1 Hf7 2.857458 1_555
Ga1 Ga14 2.978003 1_555
Ga1 Ga7 2.981529 1_555
Ga1 Ga18 3.127524 1_554
Ga1 Ga19 3.164592 1_555
Ga2 Hf10 2.782842 1_555
Ga2 Ga8 2.816297 1_555
Ga2 Hf3 2.817492 1_555
Ga2 Hf4 2.857458 1_555
Ga2 Ga4 2.981529 1_555
Ga3 Hf11 2.782842 1_455
Ga3 Ga9 2.816297 1_555
Ga3 Hf2 2.817492 1_456
Ga3 Hf5 2.857458 1_455
Ga3 Ga5 2.981529 1_555
Ga4 Hf10 2.782842 1_455
Ga4 Ga8 2.816297 1_555
Ga4 Hf5 2.817492 1_455
Ga4 Hf2 2.857458 1_455
Ga5 Hf11 2.782842 1_555
Ga5 Ga9 2.816297 1_555
Ga5 Hf4 2.817492 1_556
Ga5 Hf3 2.857458 1_555
Ga6 Hf8 2.782842 1_555
Ga6 Hf7 2.817492 1_555
Ga6 Hf0 2.857458 1_555
Ga7 Hf9 2.782842 1_655
Ga7 Hf6 2.817492 1_654
Ga7 Hf1 2.857458 1_655
Ga8 Hf9 2.911775 1_555
Ga8 Hf7 2.947147 1_555
Ga8 Hf1 2.947147 1_555
Ga8 Hf3 3.022300 1_555
Ga8 Hf5 3.022300 1_455
Ga9 Hf8 2.911775 1_565
Ga9 Hf0 2.947147 1_565
Ga9 Hf6 2.947147 1_565
Ga9 Hf4 3.022300 1_556
Ga9 Hf2 3.022300 1_456
Ga10 Ga14 2.583893 1_555
Ga10 Ga6 2.816297 1_555
Ga10 Hf11 2.911775 1_555
Ga10 Hf5 2.947147 1_555
Ga10 Hf3 2.947147 1_555
Ga10 Ga18 2.950335 1_555
Ga10 Hf1 3.022300 1_655
Ga10 Hf7 3.022300 1_555
Ga11 Ga15 2.583893 1_544
Ga11 Ga7 2.816297 1_555
Ga11 Hf10 2.911775 1_545
Ga11 Hf2 2.947147 1_545
Ga11 Hf4 2.947147 1_545
Ga11 Ga19 2.950335 1_555
Ga11 Hf6 3.022300 1_654
Ga11 Hf0 3.022300 1_554
Ga12 Ga8 2.583893 1_555
Ga12 Ga20 2.835977 1_555
Ga12 Hf7 2.953499 1_555
Ga12 Hf1 2.953499 1_555
Ga12 Hf3 2.971023 1_555
Ga12 Hf5 2.971023 1_455
Ga12 Ga5 2.978003 1_555
Ga12 Ga3 2.978003 1_555
Ga12 Hf8 2.983143 1_555
Ga13 Ga9 2.583893 1_544
Ga13 Ga21 2.835977 1_555
Ga13 Hf0 2.953499 1_554
Ga13 Hf6 2.953499 1_554
Ga13 Hf4 2.971023 1_545
Ga13 Hf2 2.971023 1_445
Ga13 Ga2 2.978003 1_545
Ga13 Ga4 2.978003 1_545
Ga13 Hf9 2.983143 1_555
Ga14 Ga22 2.835977 1_555
Ga14 Hf5 2.953499 1_555
Ga14 Hf3 2.953499 1_555
Ga14 Hf1 2.971023 1_655
Ga14 Hf7 2.971023 1_555
Ga14 Ga7 2.978003 1_555
Ga14 Hf10 2.983143 1_555
Ga15 Ga23 2.835977 1_555
Ga15 Hf2 2.953499 1_556
Ga15 Hf4 2.953499 1_556
Ga15 Hf6 2.971023 1_665
Ga15 Hf0 2.971023 1_565
Ga15 Ga6 2.978003 1_565
Ga15 Hf11 2.983143 1_555
Ga16 Hf9 2.921734 1_555
Ga16 Ga8 2.950335 1_555
Ga16 Hf4 2.965480 1_555
Ga16 Hf2 2.965480 1_455
Ga16 Ga20 3.056591 1_554
Ga16 Ga5 3.127524 1_554
Ga16 Ga3 3.127524 1_554
Ga16 Ga2 3.164592 1_555
Ga16 Ga4 3.164592 1_555
Ga17 Hf8 2.921734 1_565
Ga17 Ga9 2.950335 1_555
Ga17 Hf3 2.965480 1_555
Ga17 Hf5 2.965480 1_455
Ga17 Ga21 3.056591 1_565
Ga17 Ga2 3.127524 1_555
Ga17 Ga4 3.127524 1_555
Ga17 Ga5 3.164592 1_555
Ga17 Ga3 3.164592 1_555
Ga18 Hf11 2.921734 1_555
Ga18 Hf6 2.965480 1_655
Ga18 Hf0 2.965480 1_555
Ga18 Ga22 3.056591 1_556
Ga18 Ga7 3.127524 1_556
Ga18 Ga6 3.164592 1_555
Ga19 Hf10 2.921734 1_545
Ga19 Hf1 2.965480 1_655
Ga19 Hf7 2.965480 1_555
Ga19 Ga23 3.056591 1_545
Ga19 Ga6 3.127524 1_555
Ga19 Ga7 3.164592 1_555
Ga20 Hf0 2.818429 1_555
Ga20 Hf6 2.818429 1_555
Ga20 Hf9 2.863771 1_556
Ga20 Hf8 2.952212 1_555
Ga21 Hf7 2.818429 1_555
Ga21 Hf1 2.818429 1_555
Ga21 Hf8 2.863771 1_555
Ga21 Hf9 2.952212 1_555
Ga22 Hf2 2.818429 1_555
Ga22 Hf4 2.818429 1_555
Ga22 Hf11 2.863771 1_554
Ga22 Hf10 2.952212 1_555
Ga23 Hf5 2.818429 1_555
Ga23 Hf3 2.818429 1_555
Ga23 Hf10 2.863771 1_555
Ga23 Hf11 2.952212 1_555
