# generated using pymatgen
data_TaCrNi
_symmetry_space_group_name_H-M   'P 1'
_cell_length_a   4.91161153
_cell_length_b   4.91161153
_cell_length_c   7.87753600
_cell_angle_alpha   90.00000000
_cell_angle_beta   90.00000000
_cell_angle_gamma   121.55223634
_symmetry_Int_Tables_number   1
_chemical_formula_structural   TaCrNi
_chemical_formula_sum   'Ta4 Cr4 Ni4'
_cell_volume   161.94267914
_cell_formula_units_Z   4
loop_
 _symmetry_equiv_pos_site_id
 _symmetry_equiv_pos_as_xyz
  1  'x, y, z'
loop_
 _atom_site_type_symbol
 _atom_site_label
 _atom_site_symmetry_multiplicity
 _atom_site_fract_x
 _atom_site_fract_y
 _atom_site_fract_z
 _atom_site_occupancy
  Ta  Ta0  1  0.33626200  0.66373800  0.18833400  1
  Ta  Ta1  1  0.66390900  0.33609100  0.31191100  1
  Ta  Ta2  1  0.66390900  0.33609100  0.68808900  1
  Ta  Ta3  1  0.33626200  0.66373800  0.81166600  1
  Cr  Cr0  1  0.00189400  0.99810600  0.24918900  1
  Cr  Cr1  1  0.00189400  0.99810600  0.75081100  1
  Cr  Cr2  1  0.83212900  0.66557200  0.00000000  1
  Cr  Cr3  1  0.33442800  0.16787100  0.00000000  1
  Ni  Ni0  1  0.82713500  0.17286500  0.00000000  1
  Ni  Ni1  1  0.16952900  0.33612200  0.50000000  1
  Ni  Ni2  1  0.66387800  0.83047100  0.50000000  1
  Ni  Ni3  1  0.16880700  0.83119300  0.50000000  1
loop_
_geom_bond_atom_site_label_1
_geom_bond_atom_site_label_2
_geom_bond_distance
_geom_bond_site_symmetry_2
Ta0 Ta3 2.967216 1_554
Ta0 Ta1 2.972797 1_555
Ta0 Ta1 2.980118 1_455
Ta0 Ta1 2.980118 1_565
Ta1 Ta2 2.963356 1_555
Ta2 Ta3 2.972797 1_555
Ta2 Ta3 2.980118 1_655
Ta2 Ta3 2.980118 1_545
Cr0 Cr2 2.406439 1_455
Cr0 Cr3 2.406439 1_565
Cr0 Ni2 2.430493 1_455
Cr0 Ni1 2.430493 1_565
Cr0 Ni3 2.439516 1_555
Cr0 Ni0 2.469399 1_465
Cr0 Ta1 2.814874 1_455
Cr0 Ta1 2.814874 1_565
Cr0 Ta0 2.827772 1_455
Cr0 Ta0 2.827772 1_565
Cr0 Ta0 2.906316 1_555
Cr0 Ta1 2.939341 1_465
Cr1 Cr2 2.406439 1_456
Cr1 Cr3 2.406439 1_566
Cr1 Ni2 2.430493 1_455
Cr1 Ni1 2.430493 1_565
Cr1 Ni3 2.439516 1_555
Cr1 Ni0 2.469399 1_466
Cr1 Ta2 2.814874 1_455
Cr1 Ta2 2.814874 1_565
Cr1 Ta3 2.827772 1_455
Cr1 Ta3 2.827772 1_565
Cr1 Ta3 2.906316 1_555
Cr1 Ta2 2.939341 1_465
Cr2 Cr3 2.386938 1_555
Cr2 Ni0 2.407241 1_555
Cr2 Cr3 2.408990 1_665
Cr2 Ni0 2.504549 1_565
Cr2 Ta1 2.817707 1_555
Cr2 Ta2 2.817707 1_554
Cr2 Ta0 2.847789 1_555
Cr2 Ta3 2.847789 1_554
Cr2 Ta0 2.890608 1_655
Cr2 Ta3 2.890608 1_654
Cr3 Ni0 2.407241 1_555
Cr3 Ni0 2.504549 1_455
Cr3 Ta1 2.817707 1_555
Cr3 Ta2 2.817707 1_554
Cr3 Ta3 2.847789 1_554
Cr3 Ta0 2.847789 1_555
Cr3 Ta0 2.890608 1_545
Cr3 Ta3 2.890608 1_544
Ni0 Ta0 2.820895 1_655
Ni0 Ta3 2.820895 1_654
Ni0 Ta3 2.820895 1_544
Ni0 Ta0 2.820895 1_545
Ni0 Ta1 2.827613 1_555
Ni0 Ta2 2.827613 1_554
Ni1 Ni2 2.370862 1_555
Ni1 Ni2 2.425066 1_445
Ni1 Ni3 2.433454 1_555
Ni1 Ni3 2.478161 1_545
Ni1 Ta0 2.812229 1_555
Ni1 Ta3 2.812229 1_555
Ni1 Ta2 2.844631 1_555
Ni1 Ta1 2.844631 1_555
Ni1 Ta1 2.891763 1_455
Ni1 Ta2 2.891763 1_455
Ni2 Ni3 2.433454 1_555
Ni2 Ni3 2.478161 1_655
Ni2 Ta3 2.812229 1_555
Ni2 Ta0 2.812229 1_555
Ni2 Ta2 2.844631 1_555
Ni2 Ta1 2.844631 1_555
Ni2 Ta2 2.891763 1_565
Ni2 Ta1 2.891763 1_565
Ni3 Ta2 2.819107 1_455
Ni3 Ta1 2.819107 1_455
Ni3 Ta1 2.819107 1_565
Ni3 Ta2 2.819107 1_565
Ni3 Ta3 2.844063 1_555
Ni3 Ta0 2.844063 1_555
