# generated using pymatgen
data_Mg4FeO5
_symmetry_space_group_name_H-M   'P 1'
_cell_length_a   2.97008444
_cell_length_b   2.96986258
_cell_length_c   24.58244220
_cell_angle_alpha   86.47659298
_cell_angle_beta   86.47407520
_cell_angle_gamma   59.91196032
_symmetry_Int_Tables_number   1
_chemical_formula_structural   Mg4FeO5
_chemical_formula_sum   'Mg8 Fe2 O10'
_cell_volume   187.14522568
_cell_formula_units_Z   2
loop_
 _symmetry_equiv_pos_site_id
 _symmetry_equiv_pos_as_xyz
  1  'x, y, z'
loop_
 _atom_site_type_symbol
 _atom_site_label
 _atom_site_symmetry_multiplicity
 _atom_site_fract_x
 _atom_site_fract_y
 _atom_site_fract_z
 _atom_site_occupancy
  Mg  Mg0  1  0.29795564  0.29963867  0.10073541  1
  Mg  Mg1  1  0.80016903  0.79765046  0.60240759  1
  Mg  Mg2  1  0.19982447  0.20235531  0.39759256  1
  Mg  Mg3  1  0.70204710  0.70036063  0.89926504  1
  Mg  Mg4  1  0.59956600  0.59990529  0.19959642  1
  Mg  Mg5  1  0.09921674  0.09889647  0.70153473  1
  Mg  Mg6  1  0.90078181  0.90110498  0.29846575  1
  Mg  Mg7  1  0.40043538  0.40009379  0.80040402  1
  Fe  Fe0  1  0.49999438  0.50000358  0.50000012  1
  Fe  Fe1  1  -0.00000277  0.99999563  0.00000005  1
  O  O0  1  0.25022811  0.25045785  0.24902925  1
  O  O1  1  0.74977173  0.74954246  0.75097112  1
  O  O2  1  0.84842669  0.85295427  0.44615413  1
  O  O3  1  0.35291183  0.34861845  0.94703174  1
  O  O4  1  0.64710010  0.65138023  0.05296796  1
  O  O5  1  0.15156847  0.14705046  0.55384599  1
  O  O6  1  0.55028431  0.55136486  0.34799061  1
  O  O7  1  0.05106217  0.05012579  0.84979131  1
  O  O8  1  0.94894538  0.94986298  0.15020852  1
  O  O9  1  0.44971242  0.44863785  0.65200970  1
loop_
_geom_bond_atom_site_label_1
_geom_bond_atom_site_label_2
_geom_bond_distance
_geom_bond_site_symmetry_2
Mg0 O4 2.070522 1_545
Mg0 O4 2.076208 1_455
Mg0 O4 2.081112 1_555
Mg0 O8 2.098090 1_445
Mg0 O8 2.099806 1_455
Mg0 O8 2.101587 1_545
Mg1 O5 2.083065 1_565
Mg1 O5 2.087106 1_655
Mg1 O5 2.090810 1_665
Mg1 O9 2.100475 1_655
Mg1 O9 2.101171 1_555
Mg1 O9 2.103319 1_565
Mg2 O2 2.083068 1_545
Mg2 O2 2.087103 1_455
Mg2 O2 2.090809 1_445
Mg2 O6 2.100466 1_455
Mg2 O6 2.101169 1_555
Mg2 O6 2.103323 1_545
Mg3 O3 2.070510 1_565
Mg3 O3 2.076217 1_655
Mg3 O3 2.081084 1_555
Mg3 O7 2.098085 1_665
Mg3 O7 2.099837 1_655
Mg3 O7 2.101586 1_565
Mg4 O0 2.097574 1_555
Mg4 O8 2.098153 1_545
Mg4 O8 2.098161 1_555
Mg4 O8 2.099543 1_455
Mg4 O0 2.099894 1_565
Mg4 O0 2.100301 1_655
Mg5 O1 2.097649 1_445
Mg5 O9 2.099240 1_455
Mg5 O1 2.100130 1_545
Mg5 O1 2.100143 1_455
Mg5 O9 2.100642 1_545
Mg5 O9 2.101799 1_555
Mg6 O0 2.097650 1_665
Mg6 O6 2.099233 1_655
Mg6 O0 2.100129 1_565
Mg6 O0 2.100147 1_655
Mg6 O6 2.100642 1_565
Mg6 O6 2.101798 1_555
Mg7 O1 2.097575 1_555
Mg7 O7 2.098122 1_565
Mg7 O7 2.098162 1_555
Mg7 O7 2.099547 1_655
Mg7 O1 2.099893 1_545
Mg7 O1 2.100306 1_455
Fe0 O5 2.160082 1_565
Fe0 O2 2.160089 1_545
Fe0 O5 2.161110 1_555
Fe0 O2 2.161119 1_555
Fe0 O2 2.169449 1_455
Fe0 O5 2.169460 1_655
Fe1 O3 2.146638 1_464
Fe1 O4 2.146668 1_555
Fe1 O4 2.149518 1_455
Fe1 O3 2.149574 1_564
Fe1 O3 2.155237 1_554
Fe1 O4 2.155246 1_465
