# generated using pymatgen
data_CrCoAs
_symmetry_space_group_name_H-M   'P 1'
_cell_length_a   6.07577295
_cell_length_b   6.07577295
_cell_length_c   3.64664400
_cell_angle_alpha   90.00000000
_cell_angle_beta   90.00000000
_cell_angle_gamma   120.00001038
_symmetry_Int_Tables_number   1
_chemical_formula_structural   CrCoAs
_chemical_formula_sum   'Cr3 Co3 As3'
_cell_volume   116.58079876
_cell_formula_units_Z   3
loop_
 _symmetry_equiv_pos_site_id
 _symmetry_equiv_pos_as_xyz
  1  'x, y, z'
loop_
 _atom_site_type_symbol
 _atom_site_label
 _atom_site_symmetry_multiplicity
 _atom_site_fract_x
 _atom_site_fract_y
 _atom_site_fract_z
 _atom_site_occupancy
  Cr  Cr0  1  0.58657700  0.00000000  0.00000000  1
  Cr  Cr1  1  0.00000000  0.58657700  0.00000000  1
  Cr  Cr2  1  0.41342300  0.41342300  0.00000000  1
  Co  Co0  1  0.24749600  0.00000000  0.50000000  1
  Co  Co1  1  0.00000000  0.24749600  0.50000000  1
  Co  Co2  1  0.75250400  0.75250400  0.50000000  1
  As  As0  1  0.33333300  0.66666700  0.50000000  1
  As  As1  1  0.66666700  0.33333300  0.50000000  1
  As  As2  1  0.00000000  0.00000000  0.00000000  1
loop_
_geom_bond_atom_site_label_1
_geom_bond_atom_site_label_2
_geom_bond_distance
_geom_bond_site_symmetry_2
Co0 Cr0 2.751153 1_555
Co0 Cr0 2.751153 1_556
Co0 Cr1 2.849211 1_546
Co0 Cr1 2.849211 1_545
Co0 Cr2 2.849211 1_556
Co0 Cr2 2.849211 1_555
Co1 Cr1 2.751153 1_555
Co1 Cr1 2.751153 1_556
Co1 Cr0 2.849211 1_455
Co1 Cr0 2.849211 1_456
Co1 Cr2 2.849211 1_556
Co1 Cr2 2.849211 1_555
Co2 Cr2 2.751152 1_556
Co2 Cr2 2.751152 1_555
Co2 Cr1 2.849211 1_655
Co2 Cr0 2.849211 1_566
Co2 Cr0 2.849211 1_565
Co2 Cr1 2.849211 1_656
As0 Co0 2.330209 1_565
As0 Co1 2.330213 1_555
As0 Co2 2.330215 1_555
As0 Cr1 2.584075 1_555
As0 Cr1 2.584075 1_556
As0 Cr0 2.584076 1_565
As0 Cr0 2.584076 1_566
As0 Cr2 2.584079 1_555
As0 Cr2 2.584079 1_556
As1 Co1 2.330209 1_655
As1 Co0 2.330213 1_555
As1 Co2 2.330215 1_555
As1 Cr0 2.584075 1_555
As1 Cr0 2.584075 1_556
As1 Cr1 2.584076 1_656
As1 Cr1 2.584076 1_655
As1 Cr2 2.584079 1_555
As1 Cr2 2.584079 1_556
As2 Co2 2.363410 1_444
As2 Co2 2.363410 1_445
As2 Co0 2.363410 1_554
As2 Co1 2.363410 1_555
As2 Co0 2.363410 1_555
As2 Co1 2.363410 1_554
As2 Cr2 2.511864 1_555
As2 Cr1 2.511864 1_545
As2 Cr0 2.511864 1_455
