# generated using pymatgen
data_MgZn2
_symmetry_space_group_name_H-M   'P 1'
_cell_length_a   11.20917810
_cell_length_b   11.20917810
_cell_length_c   13.57014112
_cell_angle_alpha   73.12063249
_cell_angle_beta   73.12063249
_cell_angle_gamma   30.45647622
_symmetry_Int_Tables_number   1
_chemical_formula_structural   MgZn2
_chemical_formula_sum   'Mg16 Zn32'
_cell_volume   824.19200206
_cell_formula_units_Z   16
loop_
 _symmetry_equiv_pos_site_id
 _symmetry_equiv_pos_as_xyz
  1  'x, y, z'
loop_
 _atom_site_type_symbol
 _atom_site_label
 _atom_site_symmetry_multiplicity
 _atom_site_fract_x
 _atom_site_fract_y
 _atom_site_fract_z
 _atom_site_occupancy
  Mg  Mg0_0  1  0.40595550  0.40595550  0.32273250  1
  Mg  Mg0_1  1  0.40595550  0.40595550  0.82273250  1
  Mg  Mg0_2  1  0.40595550  0.90595550  0.32273250  1
  Mg  Mg0_3  1  0.40595550  0.90595550  0.82273250  1
  Mg  Mg0_4  1  0.90595550  0.40595550  0.32273250  1
  Mg  Mg0_5  1  0.90595550  0.40595550  0.82273250  1
  Mg  Mg0_6  1  0.90595550  0.90595550  0.32273250  1
  Mg  Mg0_7  1  0.90595550  0.90595550  0.82273250  1
  Mg  Mg1_0  1  0.09404450  0.09404450  0.17726750  1
  Mg  Mg1_1  1  0.09404450  0.09404450  0.67726750  1
  Mg  Mg1_2  1  0.09404450  0.59404450  0.17726750  1
  Mg  Mg1_3  1  0.09404450  0.59404450  0.67726750  1
  Mg  Mg1_4  1  0.59404450  0.09404450  0.17726750  1
  Mg  Mg1_5  1  0.59404450  0.09404450  0.67726750  1
  Mg  Mg1_6  1  0.59404450  0.59404450  0.17726750  1
  Mg  Mg1_7  1  0.59404450  0.59404450  0.67726750  1
  Zn  Zn0_0  1  0.06648100  0.06648100  0.48910150  1
  Zn  Zn0_1  1  0.06648100  0.06648100  0.98910150  1
  Zn  Zn0_2  1  0.06648100  0.56648100  0.48910150  1
  Zn  Zn0_3  1  0.06648100  0.56648100  0.98910150  1
  Zn  Zn0_4  1  0.56648100  0.06648100  0.48910150  1
  Zn  Zn0_5  1  0.56648100  0.06648100  0.98910150  1
  Zn  Zn0_6  1  0.56648100  0.56648100  0.48910150  1
  Zn  Zn0_7  1  0.56648100  0.56648100  0.98910150  1
  Zn  Zn1_0  1  0.26536450  0.26536450  0.35226800  1
  Zn  Zn1_1  1  0.26536450  0.26536450  0.85226800  1
  Zn  Zn1_2  1  0.26536450  0.76536450  0.35226800  1
  Zn  Zn1_3  1  0.26536450  0.76536450  0.85226800  1
  Zn  Zn1_4  1  0.76536450  0.26536450  0.35226800  1
  Zn  Zn1_5  1  0.76536450  0.26536450  0.85226800  1
  Zn  Zn1_6  1  0.76536450  0.76536450  0.35226800  1
  Zn  Zn1_7  1  0.76536450  0.76536450  0.85226800  1
  Zn  Zn2_0  1  0.23463550  0.23463550  0.14773200  1
  Zn  Zn2_1  1  0.23463550  0.23463550  0.64773200  1
  Zn  Zn2_2  1  0.23463550  0.73463550  0.14773200  1
  Zn  Zn2_3  1  0.23463550  0.73463550  0.64773200  1
  Zn  Zn2_4  1  0.73463550  0.23463550  0.14773200  1
  Zn  Zn2_5  1  0.73463550  0.23463550  0.64773200  1
  Zn  Zn2_6  1  0.73463550  0.73463550  0.14773200  1
  Zn  Zn2_7  1  0.73463550  0.73463550  0.64773200  1
  Zn  Zn3_0  1  0.43351900  0.43351900  0.01089850  1
  Zn  Zn3_1  1  0.43351900  0.43351900  0.51089850  1
  Zn  Zn3_2  1  0.43351900  0.93351900  0.01089850  1
  Zn  Zn3_3  1  0.43351900  0.93351900  0.51089850  1
  Zn  Zn3_4  1  0.93351900  0.43351900  0.01089850  1
  Zn  Zn3_5  1  0.93351900  0.43351900  0.51089850  1
  Zn  Zn3_6  1  0.93351900  0.93351900  0.01089850  1
  Zn  Zn3_7  1  0.93351900  0.93351900  0.51089850  1
loop_
_geom_bond_atom_site_label_1
_geom_bond_atom_site_label_2
_geom_bond_distance
_geom_bond_site_symmetry_2
Mg0_0 Zn3_1 2.791383 1_555
Mg0_0 Zn2_4 2.875907 1_555
Mg0_0 Zn2_2 2.875907 1_555
Mg0_0 Zn0_4 2.894870 1_555
Mg0_0 Zn0_2 2.894870 1_555
Mg0_0 Zn1_2 2.915425 1_555
Mg0_0 Zn1_4 2.915425 1_555
Mg0_0 Mg0_6 2.944256 1_455
Mg0_0 Mg0_6 2.944256 1_545
Mg0_0 Zn1_0 2.945445 1_555
Mg0_0 Mg1_2 3.073803 1_555
Mg0_0 Mg1_4 3.073803 1_555
Mg0_1 Zn3_0 2.791383 1_556
Mg0_1 Zn2_5 2.875907 1_555
Mg0_1 Zn2_3 2.875907 1_555
Mg0_1 Zn0_5 2.894870 1_555
Mg0_1 Zn0_3 2.894870 1_555
Mg0_1 Zn1_5 2.915425 1_555
Mg0_1 Zn1_3 2.915425 1_555
Mg0_1 Mg0_7 2.944256 1_545
Mg0_1 Mg0_7 2.944256 1_455
Mg0_1 Zn1_1 2.945445 1_555
Mg0_1 Mg1_3 3.073803 1_555
Mg0_1 Mg1_5 3.073803 1_555
Mg0_2 Zn3_3 2.791383 1_555
Mg0_2 Zn2_6 2.875907 1_555
Mg0_2 Zn2_0 2.875907 1_565
Mg0_2 Zn0_6 2.894870 1_555
Mg0_2 Zn0_0 2.894870 1_565
Mg0_2 Zn1_0 2.915425 1_565
Mg0_2 Zn1_6 2.915425 1_555
Mg0_2 Mg0_4 2.944256 1_555
Mg0_2 Mg0_4 2.944256 1_465
Mg0_2 Zn1_2 2.945445 1_555
Mg0_2 Mg1_6 3.073803 1_555
Mg0_2 Mg1_0 3.073803 1_565
Mg0_3 Zn3_2 2.791383 1_556
Mg0_3 Zn2_7 2.875907 1_555
Mg0_3 Zn2_1 2.875907 1_565
Mg0_3 Zn0_7 2.894870 1_555
Mg0_3 Zn0_1 2.894870 1_565
Mg0_3 Zn1_1 2.915425 1_565
Mg0_3 Zn1_7 2.915425 1_555
Mg0_3 Mg0_5 2.944256 1_555
Mg0_3 Mg0_5 2.944256 1_465
Mg0_3 Zn1_3 2.945445 1_555
Mg0_3 Mg1_7 3.073803 1_555
Mg0_3 Mg1_1 3.073803 1_565
Mg0_4 Zn3_5 2.791383 1_555
Mg0_4 Zn2_0 2.875907 1_655
Mg0_4 Zn2_6 2.875907 1_555
Mg0_4 Zn0_6 2.894870 1_555
Mg0_4 Zn0_0 2.894870 1_655
Mg0_4 Zn1_6 2.915425 1_555
Mg0_4 Zn1_0 2.915425 1_655
Mg0_4 Zn1_4 2.945445 1_555
Mg0_4 Mg1_6 3.073803 1_555
Mg0_4 Mg1_0 3.073803 1_655
Mg0_5 Zn3_4 2.791383 1_556
Mg0_5 Zn2_7 2.875907 1_555
Mg0_5 Zn2_1 2.875907 1_655
Mg0_5 Zn0_7 2.894870 1_555
Mg0_5 Zn0_1 2.894870 1_655
Mg0_5 Zn1_1 2.915425 1_655
Mg0_5 Zn1_7 2.915425 1_555
Mg0_5 Zn1_5 2.945445 1_555
Mg0_5 Mg1_7 3.073803 1_555
Mg0_5 Mg1_1 3.073803 1_655
Mg0_6 Zn3_7 2.791383 1_555
Mg0_6 Zn2_4 2.875907 1_565
Mg0_6 Zn2_2 2.875907 1_655
Mg0_6 Zn0_4 2.894870 1_565
Mg0_6 Zn0_2 2.894870 1_655
Mg0_6 Zn1_4 2.915425 1_565
Mg0_6 Zn1_2 2.915425 1_655
Mg0_6 Zn1_6 2.945445 1_555
Mg0_6 Mg1_2 3.073803 1_655
Mg0_6 Mg1_4 3.073803 1_565
Mg0_7 Zn3_6 2.791383 1_556
Mg0_7 Zn2_5 2.875907 1_565
Mg0_7 Zn2_3 2.875907 1_655
Mg0_7 Zn0_5 2.894870 1_565
Mg0_7 Zn0_3 2.894870 1_655
Mg0_7 Zn1_5 2.915425 1_565
Mg0_7 Zn1_3 2.915425 1_655
Mg0_7 Zn1_7 2.945445 1_555
Mg0_7 Mg1_5 3.073803 1_565
Mg0_7 Mg1_3 3.073803 1_655
Mg1_0 Zn0_1 2.791383 1_554
Mg1_0 Zn1_4 2.875907 1_455
Mg1_0 Zn1_2 2.875907 1_545
Mg1_0 Zn3_2 2.894870 1_545
Mg1_0 Zn3_4 2.894870 1_455
Mg1_0 Zn2_4 2.915425 1_455
Mg1_0 Zn2_2 2.915425 1_545
Mg1_0 Mg1_6 2.944256 1_455
Mg1_0 Mg1_6 2.944256 1_545
Mg1_0 Zn2_0 2.945445 1_555
Mg1_1 Zn0_0 2.791383 1_555
Mg1_1 Zn1_5 2.875907 1_455
Mg1_1 Zn1_3 2.875907 1_545
Mg1_1 Zn3_5 2.894870 1_455
Mg1_1 Zn3_3 2.894870 1_545
Mg1_1 Zn2_5 2.915425 1_455
Mg1_1 Zn2_3 2.915425 1_545
Mg1_1 Mg1_7 2.944256 1_455
Mg1_1 Mg1_7 2.944256 1_545
Mg1_1 Zn2_1 2.945445 1_555
Mg1_2 Zn0_3 2.791383 1_554
Mg1_2 Zn1_0 2.875907 1_555
Mg1_2 Zn1_6 2.875907 1_455
Mg1_2 Zn3_6 2.894870 1_455
Mg1_2 Zn3_0 2.894870 1_555
Mg1_2 Zn2_6 2.915425 1_455
Mg1_2 Zn2_0 2.915425 1_555
Mg1_2 Mg1_4 2.944256 1_465
Mg1_2 Mg1_4 2.944256 1_555
Mg1_2 Zn2_2 2.945445 1_555
Mg1_3 Zn0_2 2.791383 1_555
Mg1_3 Zn1_7 2.875907 1_455
Mg1_3 Zn1_1 2.875907 1_555
Mg1_3 Zn3_1 2.894870 1_555
Mg1_3 Zn3_7 2.894870 1_455
Mg1_3 Zn2_1 2.915425 1_555
Mg1_3 Zn2_7 2.915425 1_455
Mg1_3 Mg1_5 2.944256 1_555
Mg1_3 Mg1_5 2.944256 1_465
Mg1_3 Zn2_3 2.945445 1_555
Mg1_4 Zn0_5 2.791383 1_554
Mg1_4 Zn1_0 2.875907 1_555
Mg1_4 Zn1_6 2.875907 1_545
Mg1_4 Zn3_6 2.894870 1_545
Mg1_4 Zn3_0 2.894870 1_555
Mg1_4 Zn2_6 2.915425 1_545
Mg1_4 Zn2_0 2.915425 1_555
Mg1_4 Zn2_4 2.945445 1_555
Mg1_5 Zn0_4 2.791383 1_555
Mg1_5 Zn1_7 2.875907 1_545
Mg1_5 Zn1_1 2.875907 1_555
Mg1_5 Zn3_1 2.894870 1_555
Mg1_5 Zn3_7 2.894870 1_545
Mg1_5 Zn2_1 2.915425 1_555
Mg1_5 Zn2_7 2.915425 1_545
Mg1_5 Zn2_5 2.945445 1_555
Mg1_6 Zn0_7 2.791383 1_554
Mg1_6 Zn1_4 2.875907 1_555
Mg1_6 Zn1_2 2.875907 1_555
Mg1_6 Zn3_4 2.894870 1_555
Mg1_6 Zn3_2 2.894870 1_555
Mg1_6 Zn2_2 2.915425 1_555
Mg1_6 Zn2_4 2.915425 1_555
Mg1_6 Zn2_6 2.945445 1_555
Mg1_7 Zn0_6 2.791383 1_555
Mg1_7 Zn1_5 2.875907 1_555
Mg1_7 Zn1_3 2.875907 1_555
Mg1_7 Zn3_3 2.894870 1_555
Mg1_7 Zn3_5 2.894870 1_555
Mg1_7 Zn2_5 2.915425 1_555
Mg1_7 Zn2_3 2.915425 1_555
Mg1_7 Zn2_7 2.945445 1_555
Zn0_0 Zn2_3 2.764363 1_545
Zn0_0 Zn2_5 2.764363 1_455
Zn0_0 Zn3_7 2.801354 1_445
Zn0_0 Zn1_2 2.841360 1_545
Zn0_0 Zn1_4 2.841360 1_455
Zn0_0 Zn0_6 2.944256 1_455
Zn0_0 Zn0_6 2.944256 1_545
Zn0_0 Zn3_3 3.019055 1_545
Zn0_0 Zn3_5 3.019055 1_455
Zn0_1 Zn2_2 2.764363 1_546
Zn0_1 Zn2_4 2.764363 1_456
Zn0_1 Zn3_6 2.801354 1_446
Zn0_1 Zn1_5 2.841360 1_455
Zn0_1 Zn1_3 2.841360 1_545
Zn0_1 Zn0_7 2.944256 1_455
Zn0_1 Zn0_7 2.944256 1_545
Zn0_1 Zn3_2 3.019055 1_546
Zn0_1 Zn3_4 3.019055 1_456
Zn0_2 Zn2_1 2.764363 1_555
Zn0_2 Zn2_7 2.764363 1_455
Zn0_2 Zn3_5 2.801354 1_455
Zn0_2 Zn1_0 2.841360 1_555
Zn0_2 Zn1_6 2.841360 1_455
Zn0_2 Zn0_4 2.944256 1_555
Zn0_2 Zn0_4 2.944256 1_465
Zn0_2 Zn3_7 3.019055 1_455
Zn0_2 Zn3_1 3.019055 1_555
Zn0_3 Zn2_6 2.764363 1_456
Zn0_3 Zn2_0 2.764363 1_556
Zn0_3 Zn3_4 2.801354 1_456
Zn0_3 Zn1_7 2.841360 1_455
Zn0_3 Zn1_1 2.841360 1_555
Zn0_3 Zn0_5 2.944256 1_555
Zn0_3 Zn0_5 2.944256 1_465
Zn0_3 Zn3_6 3.019055 1_456
Zn0_3 Zn3_0 3.019055 1_556
Zn0_4 Zn2_1 2.764363 1_555
Zn0_4 Zn2_7 2.764363 1_545
Zn0_4 Zn3_3 2.801354 1_545
Zn0_4 Zn1_0 2.841360 1_555
Zn0_4 Zn1_6 2.841360 1_545
Zn0_4 Zn3_7 3.019055 1_545
Zn0_4 Zn3_1 3.019055 1_555
Zn0_5 Zn2_0 2.764363 1_556
Zn0_5 Zn2_6 2.764363 1_546
Zn0_5 Zn3_2 2.801354 1_546
Zn0_5 Zn1_7 2.841360 1_545
Zn0_5 Zn1_1 2.841360 1_555
Zn0_5 Zn3_6 3.019055 1_546
Zn0_5 Zn3_0 3.019055 1_556
Zn0_6 Zn2_3 2.764363 1_555
Zn0_6 Zn2_5 2.764363 1_555
Zn0_6 Zn3_1 2.801354 1_555
Zn0_6 Zn1_4 2.841360 1_555
Zn0_6 Zn1_2 2.841360 1_555
Zn0_6 Zn3_5 3.019055 1_555
Zn0_6 Zn3_3 3.019055 1_555
Zn0_7 Zn2_2 2.764363 1_556
Zn0_7 Zn2_4 2.764363 1_556
Zn0_7 Zn3_0 2.801354 1_556
Zn0_7 Zn1_5 2.841360 1_555
Zn0_7 Zn1_3 2.841360 1_555
Zn0_7 Zn3_4 3.019055 1_556
Zn0_7 Zn3_2 3.019055 1_556
Zn1_0 Zn3_3 2.764363 1_545
Zn1_0 Zn3_5 2.764363 1_455
Zn1_0 Zn1_6 2.944256 1_455
Zn1_0 Zn1_6 2.944256 1_545
Zn1_0 Zn2_0 3.042378 1_555
Zn1_1 Zn3_2 2.764363 1_546
Zn1_1 Zn3_4 2.764363 1_456
Zn1_1 Zn1_7 2.944256 1_455
Zn1_1 Zn1_7 2.944256 1_545
Zn1_1 Zn2_1 3.042378 1_555
Zn1_2 Zn3_1 2.764363 1_555
Zn1_2 Zn3_7 2.764363 1_455
Zn1_2 Zn1_4 2.944256 1_465
Zn1_2 Zn1_4 2.944256 1_555
Zn1_2 Zn2_2 3.042378 1_555
Zn1_3 Zn3_0 2.764363 1_556
Zn1_3 Zn3_6 2.764363 1_456
Zn1_3 Zn1_5 2.944256 1_465
Zn1_3 Zn1_5 2.944256 1_555
Zn1_3 Zn2_3 3.042378 1_555
Zn1_4 Zn3_1 2.764363 1_555
Zn1_4 Zn3_7 2.764363 1_545
Zn1_4 Zn2_4 3.042378 1_555
Zn1_5 Zn3_6 2.764363 1_546
Zn1_5 Zn3_0 2.764363 1_556
Zn1_5 Zn2_5 3.042378 1_555
Zn1_6 Zn3_3 2.764363 1_555
Zn1_6 Zn3_5 2.764363 1_555
Zn1_6 Zn2_6 3.042378 1_555
Zn1_7 Zn3_2 2.764363 1_556
Zn1_7 Zn3_4 2.764363 1_556
Zn1_7 Zn2_7 3.042378 1_555
Zn2_0 Zn3_4 2.841360 1_455
Zn2_0 Zn3_2 2.841360 1_545
Zn2_0 Zn2_6 2.944256 1_545
Zn2_0 Zn2_6 2.944256 1_455
Zn2_1 Zn3_3 2.841360 1_545
Zn2_1 Zn3_5 2.841360 1_455
Zn2_1 Zn2_7 2.944256 1_545
Zn2_1 Zn2_7 2.944256 1_455
Zn2_2 Zn3_0 2.841360 1_555
Zn2_2 Zn3_6 2.841360 1_455
Zn2_2 Zn2_4 2.944256 1_465
Zn2_2 Zn2_4 2.944256 1_555
Zn2_3 Zn3_7 2.841360 1_455
Zn2_3 Zn3_1 2.841360 1_555
Zn2_3 Zn2_5 2.944256 1_555
Zn2_3 Zn2_5 2.944256 1_465
Zn2_4 Zn3_0 2.841360 1_555
Zn2_4 Zn3_6 2.841360 1_545
Zn2_5 Zn3_1 2.841360 1_555
Zn2_5 Zn3_7 2.841360 1_545
Zn2_6 Zn3_2 2.841360 1_555
Zn2_6 Zn3_4 2.841360 1_555
Zn2_7 Zn3_5 2.841360 1_555
Zn2_7 Zn3_3 2.841360 1_555
Zn3_0 Zn3_6 2.944256 1_455
Zn3_0 Zn3_6 2.944256 1_545
Zn3_1 Zn3_7 2.944256 1_455
Zn3_1 Zn3_7 2.944256 1_545
Zn3_2 Zn3_4 2.944256 1_555
Zn3_2 Zn3_4 2.944256 1_465
Zn3_3 Zn3_5 2.944256 1_555
Zn3_3 Zn3_5 2.944256 1_465
