# generated using pymatgen
data_Sr2Y2Co2O7
_symmetry_space_group_name_H-M   'P 1'
_cell_length_a   12.68068144
_cell_length_b   12.68068144
_cell_length_c   12.68068144
_cell_angle_alpha   154.78992489
_cell_angle_beta   154.41887578
_cell_angle_gamma   36.22262858
_symmetry_Int_Tables_number   1
_chemical_formula_structural   Sr2Y2Co2O7
_chemical_formula_sum   'Sr4 Y4 Co4 O14'
_cell_volume   374.52895853
_cell_formula_units_Z   2
loop_
 _symmetry_equiv_pos_site_id
 _symmetry_equiv_pos_as_xyz
  1  'x, y, z'
loop_
 _atom_site_type_symbol
 _atom_site_label
 _atom_site_symmetry_multiplicity
 _atom_site_fract_x
 _atom_site_fract_y
 _atom_site_fract_z
 _atom_site_occupancy
  Sr  Sr0  1  0.33850300  0.84014600  0.45919600  1
  Sr  Sr1  1  0.66149700  0.12069300  0.50164300  1
  Sr  Sr2  1  0.11905000  0.62069300  0.45919600  1
  Sr  Sr3  1  0.88095000  0.34014600  0.50164300  1
  Y  Y0  1  0.00000000  0.47046100  0.47046100  1
  Y  Y1  1  0.50000000  0.97046100  0.47046100  1
  Y  Y2  1  0.70351500  0.76818800  0.97170300  1
  Y  Y3  1  0.29648500  0.26818800  0.06467300  1
  Co  Co0  1  0.42807000  0.39580100  0.97459500  1
  Co  Co1  1  0.57193000  0.54652500  0.96773100  1
  Co  Co2  1  0.07879400  0.04652500  0.97459500  1
  Co  Co3  1  0.92120600  0.89580100  0.96773100  1
  O  O0  1  0.32482100  0.66832400  0.49314500  1
  O  O1  1  0.67517900  0.16832400  0.34350400  1
  O  O2  1  0.20129000  0.66800200  0.98789200  1
  O  O3  1  0.79871000  0.78660200  0.46671200  1
  O  O4  1  0.81989000  0.28660200  0.98789200  1
  O  O5  1  0.18011000  0.16800200  0.46671200  1
  O  O6  1  0.67896300  0.14793200  0.95026900  1
  O  O7  1  0.32103700  0.27130500  0.46896900  1
  O  O8  1  0.30233700  0.77130500  0.95026900  1
  O  O9  1  0.69766300  0.64793200  0.46896900  1
  O  O10  1  0.87621100  0.78379900  0.98843700  1
  O  O11  1  0.12378900  0.11222600  0.90758800  1
  O  O12  1  0.70463800  0.61222600  0.98843700  1
  O  O13  1  0.29536200  0.28379900  0.90758800  1
loop_
_geom_bond_atom_site_label_1
_geom_bond_atom_site_label_2
_geom_bond_distance
_geom_bond_site_symmetry_2
Co0 O9 1.978661 1_556
Co0 O6 1.994493 1_555
Co0 O2 2.004657 1_555
Co0 O5 2.041821 1_555
Co0 O13 2.159662 1_555
Co1 O8 1.978659 1_555
Co1 O7 1.994495 1_555
Co1 O3 2.004657 1_556
Co1 O4 2.041821 1_555
Co1 O12 2.159662 1_555
Co2 O7 1.978663 1_556
Co2 O8 1.994499 1_545
Co2 O4 2.004657 1_455
Co2 O3 2.041821 1_445
Co2 O11 2.159662 1_555
Co3 O6 1.978661 1_565
Co3 O9 1.994493 1_555
Co3 O5 2.004657 1_666
Co3 O2 2.041821 1_655
Co3 O10 2.159662 1_555
O0 Y2 2.196914 1_555
O0 Y3 2.220295 1_555
O0 Sr0 2.721141 1_555
O0 Sr2 2.721141 1_555
O1 Y3 2.196917 1_555
O1 Y2 2.220297 1_544
O1 Sr1 2.721128 1_555
O1 Sr3 2.721152 1_555
O2 Y1 2.379344 1_556
O2 Y0 2.490919 1_555
O2 Sr0 2.696850 1_556
O2 Sr3 2.735509 1_455
O3 Y1 2.379344 1_555
O3 Y0 2.490919 1_655
O3 Sr1 2.696850 1_565
O3 Sr2 2.735509 1_655
O4 Y0 2.379344 1_656
O4 Y1 2.490919 1_545
O4 Sr2 2.696850 1_656
O4 Sr1 2.735509 1_555
O5 Y0 2.379344 1_555
O5 Y1 2.490919 1_545
O5 Sr3 2.696850 1_455
O5 Sr0 2.735509 1_545
O6 Y1 2.405979 1_545
O6 Y0 2.532904 1_656
O6 Sr0 2.712836 1_545
O6 Sr3 2.883819 1_556
O7 Y1 2.405969 1_545
O7 Y0 2.532900 1_555
O7 Sr1 2.712841 1_555
O7 Sr2 2.883830 1_555
O8 Y0 2.405972 1_555
O8 Y1 2.532897 1_556
O8 Sr2 2.712844 1_555
O8 Sr1 2.883827 1_566
O9 Y0 2.405979 1_655
O9 Y1 2.532904 1_555
O9 Sr3 2.712836 1_555
O9 Sr0 2.883819 1_555
O10 Y2 2.159871 1_555
O10 Sr0 2.534315 1_656
O10 Sr3 2.653683 1_555
O10 Sr3 3.004562 1_566
O10 Sr0 3.210863 1_555
O11 Y3 2.159871 1_556
O11 Sr1 2.534315 1_455
O11 Sr2 2.653683 1_545
O11 Sr2 3.004562 1_556
O11 Sr1 3.210863 1_556
O12 Y2 2.159871 1_555
O12 Sr2 2.534315 1_656
O12 Sr1 2.653683 1_555
O12 Sr1 3.004562 1_566
O12 Sr2 3.210863 1_555
O13 Y3 2.159871 1_556
O13 Sr3 2.534315 1_455
O13 Sr0 2.653683 1_545
O13 Sr0 3.004562 1_556
O13 Sr3 3.210863 1_556
