# generated using pymatgen
data_Ba(ZnSb)2
_symmetry_space_group_name_H-M   'P 1'
_cell_length_a   4.52253356
_cell_length_b   10.64242455
_cell_length_c   11.65348146
_cell_angle_alpha   90.00000000
_cell_angle_beta   90.00000000
_cell_angle_gamma   90.00000000
_symmetry_Int_Tables_number   1
_chemical_formula_structural   Ba(ZnSb)2
_chemical_formula_sum   'Ba4 Zn8 Sb8'
_cell_volume   560.89047866
_cell_formula_units_Z   4
loop_
 _symmetry_equiv_pos_site_id
 _symmetry_equiv_pos_as_xyz
  1  'x, y, z'
loop_
 _atom_site_type_symbol
 _atom_site_label
 _atom_site_symmetry_multiplicity
 _atom_site_fract_x
 _atom_site_fract_y
 _atom_site_fract_z
 _atom_site_occupancy
  Ba  Ba0  1  0.25000000  0.74594661  0.32262165  1
  Ba  Ba1  1  0.75000000  0.25405339  0.67737835  1
  Ba  Ba2  1  0.25000000  0.24594661  0.17737835  1
  Ba  Ba3  1  0.75000000  0.75405339  0.82262165  1
  Zn  Zn0  1  0.75000000  0.40100201  0.94982472  1
  Zn  Zn1  1  0.25000000  0.59899799  0.05017528  1
  Zn  Zn2  1  0.25000000  0.09899799  0.44982472  1
  Zn  Zn3  1  0.75000000  0.90100201  0.55017528  1
  Zn  Zn4  1  0.75000000  0.94964656  0.11952261  1
  Zn  Zn5  1  0.25000000  0.05035344  0.88047739  1
  Zn  Zn6  1  0.75000000  0.44964656  0.38047739  1
  Zn  Zn7  1  0.25000000  0.55035344  0.61952261  1
  Sb  Sb0  1  0.75000000  0.64945277  0.53800767  1
  Sb  Sb1  1  0.25000000  0.35054723  0.46199233  1
  Sb  Sb2  1  0.25000000  0.85054723  0.03800767  1
  Sb  Sb3  1  0.75000000  0.14945277  0.96199233  1
  Sb  Sb4  1  0.75000000  0.52294380  0.16048454  1
  Sb  Sb5  1  0.25000000  0.47705620  0.83951546  1
  Sb  Sb6  1  0.75000000  0.02294380  0.33951546  1
  Sb  Sb7  1  0.25000000  0.97705620  0.66048454  1
loop_
_geom_bond_atom_site_label_1
_geom_bond_atom_site_label_2
_geom_bond_distance
_geom_bond_site_symmetry_2
Ba0 Sb2 3.498573 1_555
Ba0 Sb0 3.531005 1_555
Ba0 Sb0 3.531005 1_455
Ba0 Zn1 3.539216 1_555
Ba0 Sb6 3.720528 1_465
Ba0 Sb6 3.720528 1_565
Ba0 Sb4 3.783636 1_555
Ba0 Sb4 3.783636 1_455
Ba1 Sb3 3.498573 1_555
Ba1 Sb1 3.531005 1_655
Ba1 Sb1 3.531005 1_555
Ba1 Zn0 3.539216 1_555
Ba1 Sb7 3.720528 1_645
Ba1 Sb7 3.720528 1_545
Ba1 Sb5 3.783636 1_555
Ba1 Sb5 3.783636 1_655
Ba2 Sb1 3.498573 1_555
Ba2 Sb3 3.531005 1_554
Ba2 Sb3 3.531005 1_454
Ba2 Zn2 3.539216 1_555
Ba2 Sb4 3.720528 1_455
Ba2 Sb4 3.720528 1_555
Ba2 Sb6 3.783636 1_455
Ba2 Sb6 3.783636 1_555
Ba3 Sb0 3.498573 1_555
Ba3 Sb2 3.531005 1_556
Ba3 Sb2 3.531005 1_656
Ba3 Zn3 3.539216 1_555
Ba3 Sb5 3.720528 1_555
Ba3 Sb5 3.720528 1_655
Ba3 Sb7 3.783636 1_555
Ba3 Sb7 3.783636 1_655
Sb0 Zn7 2.669832 1_655
Sb0 Zn7 2.669832 1_555
Sb0 Zn3 2.680846 1_555
Sb0 Zn6 2.809225 1_555
Sb1 Zn6 2.669832 1_555
Sb1 Zn6 2.669832 1_455
Sb1 Zn2 2.680846 1_555
Sb1 Zn7 2.809225 1_555
Sb2 Zn4 2.669832 1_555
Sb2 Zn4 2.669832 1_455
Sb2 Zn1 2.680846 1_555
Sb2 Zn5 2.809225 1_564
Sb3 Zn5 2.669832 1_555
Sb3 Zn5 2.669832 1_655
Sb3 Zn0 2.680846 1_555
Sb3 Zn4 2.809225 1_546
Sb4 Zn6 2.679732 1_555
Sb4 Zn1 2.724139 1_655
Sb4 Zn1 2.724139 1_555
Sb4 Zn0 2.776834 1_554
Sb5 Zn7 2.679732 1_555
Sb5 Zn0 2.724139 1_455
Sb5 Zn0 2.724139 1_555
Sb5 Zn1 2.776834 1_556
Sb6 Zn4 2.679732 1_545
Sb6 Zn2 2.724139 1_555
Sb6 Zn2 2.724139 1_655
Sb6 Zn3 2.776834 1_545
Sb7 Zn5 2.679732 1_565
Sb7 Zn3 2.724139 1_555
Sb7 Zn3 2.724139 1_455
Sb7 Zn2 2.776834 1_565
