# generated using pymatgen
data_HoAgSe2
_symmetry_space_group_name_H-M   'P 1'
_cell_length_a   4.21245300
_cell_length_b   6.80566610
_cell_length_c   13.70892111
_cell_angle_alpha   90.00000000
_cell_angle_beta   90.00000000
_cell_angle_gamma   90.00000000
_symmetry_Int_Tables_number   1
_chemical_formula_structural   HoAgSe2
_chemical_formula_sum   'Ho4 Ag4 Se8'
_cell_volume   393.01487082
_cell_formula_units_Z   4
loop_
 _symmetry_equiv_pos_site_id
 _symmetry_equiv_pos_as_xyz
  1  'x, y, z'
loop_
 _atom_site_type_symbol
 _atom_site_label
 _atom_site_symmetry_multiplicity
 _atom_site_fract_x
 _atom_site_fract_y
 _atom_site_fract_z
 _atom_site_occupancy
  Ho  Ho0  1  0.72566774  0.29314016  0.37223202  1
  Ho  Ho1  1  0.22566774  0.20685984  0.62776798  1
  Ho  Ho2  1  0.27433226  0.79314016  0.12776798  1
  Ho  Ho3  1  0.77433226  0.70685984  0.87223202  1
  Ag  Ag0  1  0.00569624  0.70770174  0.62558369  1
  Ag  Ag1  1  0.99430376  0.20770174  0.87441631  1
  Ag  Ag2  1  0.50569624  0.79229826  0.37441631  1
  Ag  Ag3  1  0.49430376  0.29229826  0.12558369  1
  Se  Se0  1  0.23122873  0.48897725  0.47359490  1
  Se  Se1  1  0.73122873  0.01102275  0.52640510  1
  Se  Se2  1  0.76877127  0.98897725  0.02640510  1
  Se  Se3  1  0.26877127  0.51102275  0.97359490  1
  Se  Se4  1  0.22664022  0.08776858  0.27413069  1
  Se  Se5  1  0.27335978  0.91223142  0.77413069  1
  Se  Se6  1  0.77335978  0.58776858  0.22586931  1
  Se  Se7  1  0.72664022  0.41223142  0.72586931  1
loop_
_geom_bond_atom_site_label_1
_geom_bond_atom_site_label_2
_geom_bond_distance
_geom_bond_site_symmetry_2
Ho0 Se0 2.836431 1_555
Ho0 Se6 2.843747 1_555
Ho0 Se1 2.855524 1_555
Ho0 Se4 2.860270 1_555
Ho0 Se4 2.866297 1_655
Ho0 Se0 2.871010 1_655
Ho1 Se1 2.836431 1_455
Ho1 Se5 2.843747 1_545
Ho1 Se0 2.855524 1_555
Ho1 Se7 2.860270 1_455
Ho1 Se7 2.866297 1_555
Ho1 Se1 2.871010 1_555
Ho2 Se2 2.836431 1_555
Ho2 Se4 2.843747 1_565
Ho2 Se3 2.855524 1_554
Ho2 Se6 2.860270 1_555
Ho2 Se6 2.866297 1_455
Ho2 Se2 2.871010 1_455
Ho3 Se3 2.836431 1_655
Ho3 Se7 2.843747 1_555
Ho3 Se2 2.855524 1_556
Ho3 Se5 2.860270 1_655
Ho3 Se5 2.866297 1_555
Ho3 Se3 2.871010 1_555
Ag0 Se7 2.704723 1_455
Ag0 Se5 2.712169 1_555
Ag0 Se1 2.728863 1_465
Ag0 Se0 2.731266 1_555
Ag1 Se5 2.704723 1_645
Ag1 Se7 2.712169 1_555
Ag1 Se3 2.728863 1_655
Ag1 Se2 2.731266 1_546
Ag2 Se4 2.704723 1_565
Ag2 Se6 2.712169 1_555
Ag2 Se0 2.728863 1_555
Ag2 Se1 2.731266 1_565
Ag3 Se6 2.704723 1_555
Ag3 Se4 2.712169 1_555
Ag3 Se2 2.728863 1_545
Ag3 Se3 2.731266 1_554
