# generated using pymatgen
data_YZrCo6
_symmetry_space_group_name_H-M   'P 1'
_cell_length_a   16.40017822
_cell_length_b   16.40017822
_cell_length_c   16.40017830
_cell_angle_alpha   17.01102760
_cell_angle_beta   17.01102760
_cell_angle_gamma   17.01103049
_symmetry_Int_Tables_number   1
_chemical_formula_structural   YZrCo6
_chemical_formula_sum   'Y3 Zr3 Co18'
_cell_volume   329.36069822
_cell_formula_units_Z   3
loop_
 _symmetry_equiv_pos_site_id
 _symmetry_equiv_pos_as_xyz
  1  'x, y, z'
loop_
 _atom_site_type_symbol
 _atom_site_label
 _atom_site_symmetry_multiplicity
 _atom_site_fract_x
 _atom_site_fract_y
 _atom_site_fract_z
 _atom_site_occupancy
  Y  Y0  1  0.43050400  0.43050400  0.43050400  1
  Y  Y1  1  0.92989400  0.92989400  0.92989400  1
  Y  Y2  1  0.06947200  0.06947200  0.06947200  1
  Zr  Zr0  1  0.56822700  0.56822700  0.56822700  1
  Zr  Zr1  1  0.99983900  0.99983900  0.99983900  1
  Zr  Zr2  1  0.50034000  0.50034000  0.50034000  1
  Co  Co0  1  0.95984900  0.95984900  0.46211000  1
  Co  Co1  1  0.45980000  0.45980000  0.95900100  1
  Co  Co2  1  0.46211000  0.95984900  0.95984900  1
  Co  Co3  1  0.95900100  0.45980000  0.45980000  1
  Co  Co4  1  0.95984900  0.46211000  0.95984900  1
  Co  Co5  1  0.45980000  0.95900100  0.45980000  1
  Co  Co6  1  0.54027200  0.54027200  0.03835000  1
  Co  Co7  1  0.04120400  0.04120400  0.53967900  1
  Co  Co8  1  0.03835000  0.54027200  0.54027200  1
  Co  Co9  1  0.53967900  0.04120400  0.04120400  1
  Co  Co10  1  0.54027200  0.03835000  0.54027200  1
  Co  Co11  1  0.04120400  0.53967900  0.04120400  1
  Co  Co12  1  0.33303500  0.33303500  0.33303500  1
  Co  Co13  1  0.83412500  0.83412500  0.83412500  1
  Co  Co14  1  0.16710300  0.16710300  0.16710300  1
  Co  Co15  1  0.66623600  0.66623600  0.66623600  1
  Co  Co16  1  0.75001800  0.75001800  0.75001800  1
  Co  Co17  1  0.24981800  0.24981800  0.24981800  1
loop_
_geom_bond_atom_site_label_1
_geom_bond_atom_site_label_2
_geom_bond_distance
_geom_bond_site_symmetry_2
Y0 Y2 3.106145 1_556
Y0 Y2 3.106145 1_655
Y0 Y2 3.106145 1_565
Y1 Zr0 3.119576 1_556
Y1 Zr0 3.119576 1_565
Y1 Zr0 3.119576 1_655
Y1 Zr1 3.390772 1_555
Y2 Zr1 3.375647 1_444
Co0 Co14 2.389139 1_665
Co0 Co13 2.395691 1_555
Co0 Co2 2.414693 1_555
Co0 Co4 2.414693 1_555
Co0 Co4 2.436630 1_564
Co0 Co2 2.436630 1_654
Co0 Co16 2.544878 1_555
Co0 Y0 2.830705 1_565
Co0 Y0 2.830705 1_655
Co0 Zr2 3.097546 1_655
Co0 Zr2 3.097546 1_565
Co0 Y2 3.135218 1_665
Co1 Co15 2.392041 1_555
Co1 Co12 2.399863 1_556
Co1 Co5 2.421785 1_555
Co1 Co3 2.421785 1_555
Co1 Co3 2.429538 1_456
Co1 Co5 2.429538 1_546
Co1 Co17 2.514512 1_556
Co1 Y1 2.819293 1_455
Co1 Y1 2.819293 1_545
Co1 Zr1 3.114740 1_545
Co1 Zr1 3.114740 1_455
Co1 Zr0 3.139019 1_555
Co2 Co4 2.414693 1_555
Co2 Co4 2.436631 1_465
Co2 Y0 2.830704 1_556
Co2 Y0 2.830704 1_565
Co2 Zr2 3.097546 1_565
Co2 Zr2 3.097546 1_556
Co2 Y2 3.135219 1_566
Co3 Co5 2.421786 1_555
Co3 Co5 2.429538 1_645
Co3 Y1 2.819293 1_545
Co3 Y1 2.819293 1_554
Co3 Zr1 3.114739 1_554
Co3 Zr1 3.114739 1_545
Co3 Zr0 3.139019 1_555
Co4 Y0 2.830704 1_556
Co4 Y0 2.830704 1_655
Co4 Zr2 3.097546 1_655
Co4 Zr2 3.097546 1_556
Co4 Y2 3.135219 1_656
Co5 Y1 2.819293 1_455
Co5 Y1 2.819293 1_554
Co5 Zr1 3.114739 1_554
Co5 Zr1 3.114739 1_455
Co5 Zr0 3.139019 1_555
Co6 Co8 2.416337 1_654
Co6 Co8 2.434986 1_555
Co6 Y2 2.824276 1_655
Co6 Y2 2.824276 1_565
Co6 Zr1 3.099203 1_544
Co6 Zr1 3.099203 1_454
Co6 Y0 3.123619 1_555
Co7 Co9 2.418263 1_555
Co7 Co9 2.433060 1_456
Co7 Zr0 2.768602 1_545
Co7 Zr0 2.768602 1_455
Co7 Y1 3.050843 1_445
Co7 Zr2 3.116273 1_545
Co7 Zr2 3.116273 1_455
Co8 Y2 2.824276 1_565
Co8 Y2 2.824276 1_556
Co8 Zr1 3.099203 1_445
Co8 Zr1 3.099203 1_454
Co8 Y0 3.123619 1_555
Co9 Zr0 2.768602 1_554
Co9 Zr0 2.768602 1_545
Co9 Y1 3.050843 1_544
Co9 Zr2 3.116273 1_545
Co9 Zr2 3.116273 1_554
Co10 Co15 2.391241 1_545
Co10 Co12 2.392345 1_555
Co10 Co6 2.416337 1_546
Co10 Co8 2.416338 1_645
Co10 Co6 2.434986 1_555
Co10 Co8 2.434986 1_555
Co10 Co16 2.537376 1_545
Co10 Y2 2.824276 1_655
Co10 Y2 2.824276 1_556
Co10 Zr1 3.099203 1_445
Co10 Zr1 3.099203 1_544
Co10 Y0 3.123619 1_555
Co11 Co13 2.390684 1_454
Co11 Co14 2.399664 1_555
Co11 Co7 2.418263 1_555
Co11 Co9 2.418264 1_555
Co11 Co7 2.433060 1_564
Co11 Co9 2.433060 1_465
Co11 Co17 2.487032 1_555
Co11 Zr0 2.768602 1_554
Co11 Zr0 2.768602 1_455
Co11 Y1 3.050843 1_454
Co11 Zr2 3.116273 1_455
Co11 Zr2 3.116273 1_554
Co12 Co6 2.392344 1_555
Co12 Co8 2.392345 1_555
Co12 Co5 2.399863 1_545
Co12 Co3 2.399863 1_455
Co12 Zr1 2.800921 1_445
Co12 Zr1 2.800921 1_544
Co12 Zr1 2.800921 1_454
Co13 Co7 2.390684 1_665
Co13 Co9 2.390684 1_566
Co13 Co4 2.395691 1_555
Co13 Co2 2.395691 1_555
Co13 Zr2 2.800998 1_556
Co13 Zr2 2.800999 1_655
Co13 Zr2 2.800999 1_565
Co14 Co2 2.389140 1_544
Co14 Co4 2.389140 1_454
Co14 Co7 2.399664 1_555
Co14 Co9 2.399664 1_555
Co14 Zr2 2.800916 1_554
Co14 Zr2 2.800917 1_545
Co14 Zr2 2.800917 1_455
Co15 Co6 2.391241 1_556
Co15 Co8 2.391241 1_655
Co15 Co3 2.392041 1_555
Co15 Co5 2.392041 1_555
Co15 Zr1 2.800943 1_554
Co15 Zr1 2.800944 1_455
Co15 Zr1 2.800944 1_545
Co16 Co6 2.537375 1_556
Co16 Co8 2.537376 1_655
Co16 Co2 2.544878 1_555
Co16 Co4 2.544878 1_555
Co16 Y0 2.879916 1_556
Co16 Y0 2.879917 1_565
Co16 Y0 2.879917 1_655
Co16 Y2 2.880594 1_665
Co16 Y2 2.880595 1_656
Co16 Y2 2.880595 1_566
Co17 Co7 2.487031 1_555
Co17 Co9 2.487032 1_555
Co17 Co3 2.514512 1_455
Co17 Co5 2.514512 1_545
Co17 Y1 2.875358 1_445
Co17 Y1 2.875358 1_454
Co17 Y1 2.875358 1_544
Co17 Zr0 2.892846 1_554
Co17 Zr0 2.892847 1_455
Co17 Zr0 2.892847 1_545
