# generated using pymatgen
data_TiCrAgS4
_symmetry_space_group_name_H-M   'P 1'
_cell_length_a   3.48426200
_cell_length_b   5.95835900
_cell_length_c   12.81882930
_cell_angle_alpha   89.02886225
_cell_angle_beta   90.00000000
_cell_angle_gamma   90.00000000
_symmetry_Int_Tables_number   1
_chemical_formula_structural   TiCrAgS4
_chemical_formula_sum   'Ti2 Cr2 Ag2 S8'
_cell_volume   266.08687233
_cell_formula_units_Z   2
loop_
 _symmetry_equiv_pos_site_id
 _symmetry_equiv_pos_as_xyz
  1  'x, y, z'
loop_
 _atom_site_type_symbol
 _atom_site_label
 _atom_site_symmetry_multiplicity
 _atom_site_fract_x
 _atom_site_fract_y
 _atom_site_fract_z
 _atom_site_occupancy
  Ti  Ti0  1  0.50000000  0.52946700  0.25074300  1
  Ti  Ti1  1  0.50000000  0.47053300  0.74925700  1
  Cr  Cr0  1  0.00000000  0.01739100  0.75233900  1
  Cr  Cr1  1  0.00000000  0.98260900  0.24766100  1
  Ag  Ag0  1  0.50000000  0.50000000  0.00000000  1
  Ag  Ag1  1  0.00000000  0.00000000  0.50000000  1
  S  S0  1  0.50000000  0.15794700  0.86396600  1
  S  S1  1  0.50000000  0.84205300  0.13603400  1
  S  S2  1  0.00000000  0.65943400  0.36458500  1
  S  S3  1  0.00000000  0.34056600  0.63541500  1
  S  S4  1  0.00000000  0.67047400  0.85175800  1
  S  S5  1  0.00000000  0.32952600  0.14824200  1
  S  S6  1  0.50000000  0.15515200  0.34835500  1
  S  S7  1  0.50000000  0.84484800  0.65164500  1
loop_
_geom_bond_atom_site_label_1
_geom_bond_atom_site_label_2
_geom_bond_distance
_geom_bond_site_symmetry_2
Cr0 S7 2.408952 1_445
Cr0 S7 2.408952 1_545
Cr0 S4 2.409898 1_545
Cr0 S0 2.413415 1_455
Cr0 S0 2.413415 1_555
Cr0 S3 2.420034 1_555
Cr1 S6 2.408952 1_465
Cr1 S6 2.408952 1_565
Cr1 S5 2.409898 1_565
Cr1 S1 2.413415 1_555
Cr1 S1 2.413415 1_455
Cr1 S2 2.420034 1_555
Ag0 S1 2.704634 1_555
Ag0 S0 2.704634 1_554
Ag0 S5 2.759063 1_555
Ag0 S5 2.759063 1_655
Ag0 S4 2.759063 1_654
Ag0 S4 2.759063 1_554
Ag1 S3 2.692644 1_555
Ag1 S2 2.692644 1_545
Ag1 S7 2.758171 1_445
Ag1 S7 2.758171 1_545
Ag1 S6 2.758171 1_455
Ag1 S6 2.758171 1_555
S0 Ti1 2.353349 1_555
S1 Ti0 2.353349 1_555
S2 Ti0 2.408864 1_455
S2 Ti0 2.408864 1_555
S3 Ti1 2.408864 1_455
S3 Ti1 2.408864 1_555
S4 Ti1 2.496752 1_455
S4 Ti1 2.496752 1_555
S5 Ti0 2.496752 1_455
S5 Ti0 2.496752 1_555
S6 Ti0 2.538766 1_555
S7 Ti1 2.538766 1_555
