# generated using pymatgen
data_Zn(MoO2)2
_symmetry_space_group_name_H-M   'P 1'
_cell_length_a   6.40988268
_cell_length_b   6.40988268
_cell_length_c   20.71593224
_cell_angle_alpha   85.76147955
_cell_angle_beta   85.76147955
_cell_angle_gamma   58.04816681
_symmetry_Int_Tables_number   1
_chemical_formula_structural   Zn(MoO2)2
_chemical_formula_sum   'Zn8 Mo16 O32'
_cell_volume   719.60825483
_cell_formula_units_Z   8
loop_
 _symmetry_equiv_pos_site_id
 _symmetry_equiv_pos_as_xyz
  1  'x, y, z'
loop_
 _atom_site_type_symbol
 _atom_site_label
 _atom_site_symmetry_multiplicity
 _atom_site_fract_x
 _atom_site_fract_y
 _atom_site_fract_z
 _atom_site_occupancy
  Zn  Zn0  1  0.85397400  0.85397400  0.96812200  1
  Zn  Zn1  1  0.37905400  0.37905400  0.87575700  1
  Zn  Zn2  1  0.59409300  0.59409300  0.71785900  1
  Zn  Zn3  1  0.11480000  0.11480000  0.62573000  1
  Zn  Zn4  1  0.86747400  0.86747400  0.37732900  1
  Zn  Zn5  1  0.99346100  0.99346100  0.50048900  1
  Zn  Zn6  1  0.64102100  0.64102100  0.12589900  1
  Zn  Zn7  1  0.75457000  0.75457000  0.25128600  1
  Mo  Mo0  1  0.37556800  0.87457900  0.87456600  1
  Mo  Mo1  1  0.24781500  0.24781500  0.74849000  1
  Mo  Mo2  1  0.87457900  0.37556800  0.87456600  1
  Mo  Mo3  1  0.34095400  0.34095400  0.46880800  1
  Mo  Mo4  1  0.11569900  0.61701800  0.62452800  1
  Mo  Mo5  1  0.90006700  0.90006700  0.78129600  1
  Mo  Mo6  1  0.10801000  0.10801000  0.22104600  1
  Mo  Mo7  1  0.61701800  0.11569900  0.62452800  1
  Mo  Mo8  1  0.86972300  0.36857200  0.37567000  1
  Mo  Mo9  1  0.64383400  0.64383400  0.53393800  1
  Mo  Mo10  1  0.36857200  0.86972300  0.37567000  1
  Mo  Mo11  1  0.13329900  0.63874700  0.12582000  1
  Mo  Mo12  1  0.63874700  0.13329900  0.12582000  1
  Mo  Mo13  1  0.40113500  0.40113500  0.28170700  1
  Mo  Mo14  1  0.51006600  0.51006600  0.99925900  1
  Mo  Mo15  1  0.16378900  0.16378900  0.03057900  1
  O  O0  1  0.69603700  0.21208100  0.93354100  1
  O  O1  1  0.55193300  0.55193300  0.81702900  1
  O  O2  1  0.21208100  0.69603700  0.93354100  1
  O  O3  1  0.67996100  0.67996100  0.93846200  1
  O  O4  1  0.07875900  0.07875900  0.80690500  1
  O  O5  1  0.43688500  0.95124000  0.68294200  1
  O  O6  1  0.53907000  0.04775500  0.81766500  1
  O  O7  1  0.28701300  0.28701300  0.56853800  1
  O  O8  1  0.95124000  0.43688500  0.68294200  1
  O  O9  1  0.20682700  0.20682700  0.93057200  1
  O  O10  1  0.41868900  0.41868900  0.68906200  1
  O  O11  1  0.04775500  0.53907000  0.81766500  1
  O  O12  1  0.19663600  0.69988100  0.43084000  1
  O  O13  1  0.82179700  0.82179700  0.55648100  1
  O  O14  1  0.28226300  0.78773900  0.56808500  1
  O  O15  1  0.04077700  0.04077700  0.31893800  1
  O  O16  1  0.69988100  0.19663600  0.43084000  1
  O  O17  1  0.94463300  0.94463300  0.68118900  1
  O  O18  1  0.16200100  0.16200100  0.44361400  1
  O  O19  1  0.78773900  0.28226300  0.56808500  1
  O  O20  1  0.57852600  0.57852600  0.30727600  1
  O  O21  1  0.96371900  0.46627900  0.18083400  1
  O  O22  1  0.04123600  0.53840400  0.31826000  1
  O  O23  1  0.81408900  0.81408900  0.06724900  1
  O  O24  1  0.46627900  0.96371900  0.18083400  1
  O  O25  1  0.69645500  0.69645500  0.43208400  1
  O  O26  1  0.93109200  0.93109200  0.19307400  1
  O  O27  1  0.53840400  0.04123600  0.31826000  1
  O  O28  1  0.34274100  0.34274100  0.05795200  1
  O  O29  1  0.80360500  0.30951600  0.06822900  1
  O  O30  1  0.46497800  0.46497800  0.18202500  1
  O  O31  1  0.30951600  0.80360500  0.06822900  1
loop_
_geom_bond_atom_site_label_1
_geom_bond_atom_site_label_2
_geom_bond_distance
_geom_bond_site_symmetry_2
Mo0 O6 2.138995 1_565
Mo0 O1 2.160205 1_555
Mo0 O3 2.162566 1_555
Mo0 O2 2.184929 1_555
Mo0 O4 2.187396 1_565
Mo0 O9 2.189337 1_565
Mo1 O8 2.150888 1_455
Mo1 O5 2.150888 1_545
Mo1 O4 2.160571 1_555
Mo1 O11 2.184786 1_555
Mo1 O6 2.184786 1_555
Mo1 O10 2.187691 1_555
Mo2 O11 2.138995 1_655
Mo2 O1 2.160205 1_555
Mo2 O3 2.162566 1_555
Mo2 O0 2.184929 1_555
Mo2 O4 2.187396 1_655
Mo2 O9 2.189337 1_655
Mo3 O12 2.086862 1_555
Mo3 O16 2.086862 1_555
Mo3 O7 2.103045 1_555
Mo3 O18 2.115074 1_555
Mo4 O14 2.137168 1_555
Mo4 O10 2.166710 1_555
Mo4 O17 2.174157 1_455
Mo4 O7 2.177507 1_555
Mo4 O13 2.181942 1_455
Mo4 O8 2.191335 1_455
Mo5 O6 2.085045 1_565
Mo5 O11 2.085045 1_655
Mo5 O17 2.091680 1_555
Mo5 O4 2.115067 1_665
Mo6 O24 2.099087 1_545
Mo6 O21 2.099087 1_455
Mo6 O15 2.102885 1_555
Mo6 O26 2.112628 1_445
Mo7 O19 2.137168 1_555
Mo7 O10 2.166710 1_555
Mo7 O17 2.174157 1_545
Mo7 O7 2.177507 1_555
Mo7 O13 2.181942 1_545
Mo7 O5 2.191335 1_545
Mo8 O16 2.146113 1_555
Mo8 O22 2.165681 1_655
Mo8 O25 2.171877 1_555
Mo8 O18 2.175542 1_655
Mo8 O15 2.175857 1_655
Mo8 O20 2.180121 1_555
Mo9 O19 2.077033 1_555
Mo9 O14 2.077033 1_555
Mo9 O13 2.086942 1_555
Mo9 O25 2.142347 1_555
Mo10 O12 2.146113 1_555
Mo10 O27 2.165681 1_565
Mo10 O25 2.171877 1_555
Mo10 O18 2.175542 1_565
Mo10 O15 2.175857 1_565
Mo10 O20 2.180121 1_555
Mo11 O21 2.145930 1_455
Mo11 O23 2.157165 1_455
Mo11 O26 2.163522 1_455
Mo11 O31 2.166479 1_555
Mo11 O30 2.187266 1_555
Mo11 O28 2.190503 1_555
Mo12 O24 2.145930 1_545
Mo12 O23 2.157165 1_545
Mo12 O26 2.163522 1_545
Mo12 O29 2.166479 1_555
Mo12 O30 2.187266 1_555
Mo12 O28 2.190503 1_555
Mo13 O27 2.088378 1_555
Mo13 O22 2.088378 1_555
Mo13 O20 2.100673 1_555
Mo13 O30 2.127581 1_555
Mo14 O28 2.147327 1_556
Mo14 O2 2.158084 1_555
Mo14 O0 2.158084 1_555
Mo14 O31 2.190894 1_556
Mo14 O29 2.190894 1_556
Mo14 O3 2.192682 1_555
Mo15 O9 2.087077 1_554
Mo15 O31 2.090478 1_545
Mo15 O29 2.090478 1_455
Mo15 O28 2.130247 1_555
O0 Zn0 2.052228 1_545
O0 Zn1 2.138979 1_555
O1 Zn2 2.068763 1_555
O1 Zn1 2.199358 1_555
O2 Zn0 2.052228 1_455
O2 Zn1 2.138979 1_555
O3 Zn0 2.094083 1_555
O5 Zn2 2.049577 1_555
O5 Zn3 2.157140 1_565
O6 Zn1 2.213558 1_555
O7 Zn3 2.178028 1_555
O8 Zn2 2.049577 1_555
O8 Zn3 2.157140 1_655
O9 Zn1 2.155503 1_555
O10 Zn2 2.102448 1_555
O11 Zn1 2.213558 1_555
O12 Zn4 2.145983 1_455
O12 Zn5 2.201994 1_455
O13 Zn5 2.161276 1_555
O14 Zn5 2.157125 1_455
O14 Zn3 2.184502 1_565
O15 Zn4 2.200000 1_445
O16 Zn4 2.145983 1_545
O16 Zn5 2.201994 1_545
O17 Zn3 2.142001 1_665
O18 Zn5 2.140410 1_445
O19 Zn5 2.157125 1_545
O19 Zn3 2.184502 1_655
O20 Zn7 2.202902 1_555
O21 Zn6 2.129688 1_555
O21 Zn7 2.197613 1_555
O22 Zn7 2.149223 1_455
O22 Zn4 2.209199 1_455
O23 Zn0 2.064362 1_554
O23 Zn6 2.200354 1_555
O24 Zn6 2.129688 1_555
O24 Zn7 2.197613 1_555
O25 Zn4 2.143425 1_555
O26 Zn7 2.228544 1_555
O27 Zn7 2.149223 1_545
O27 Zn4 2.209199 1_545
O29 Zn6 2.208161 1_555
O30 Zn6 2.204164 1_555
O31 Zn6 2.208161 1_555
