# generated using pymatgen
data_Co5SbO8
_symmetry_space_group_name_H-M   'P 1'
_cell_length_a   6.00181478
_cell_length_b   10.47136229
_cell_length_c   6.16662348
_cell_angle_alpha   73.27932199
_cell_angle_beta   60.89980078
_cell_angle_gamma   89.92950003
_symmetry_Int_Tables_number   1
_chemical_formula_structural   Co5SbO8
_chemical_formula_sum   'Co10 Sb2 O16'
_cell_volume   319.83092071
_cell_formula_units_Z   2
loop_
 _symmetry_equiv_pos_site_id
 _symmetry_equiv_pos_as_xyz
  1  'x, y, z'
loop_
 _atom_site_type_symbol
 _atom_site_label
 _atom_site_symmetry_multiplicity
 _atom_site_fract_x
 _atom_site_fract_y
 _atom_site_fract_z
 _atom_site_occupancy
  Co  Co0  1  0.70620600  0.56808100  0.09689700  1
  Co  Co1  1  0.79449700  0.93173300  0.90399200  1
  Co  Co2  1  0.75109500  0.25002100  0.49901100  1
  Co  Co3  1  0.00201400  0.49914500  0.50270400  1
  Co  Co4  1  0.24944000  0.25033700  0.50152800  1
  Co  Co5  1  0.19885100  0.06829900  0.09419900  1
  Co  Co6  1  0.30004700  0.43178700  0.90529900  1
  Co  Co7  1  0.24862600  0.75060700  0.50153800  1
  Co  Co8  1  0.49638400  0.99886900  0.50027100  1
  Co  Co9  1  0.75043000  0.75047000  0.49893300  1
  Sb  Sb0  1  0.74803100  0.24956800  0.00085600  1
  Sb  Sb1  1  0.25112600  0.74971000  0.00072800  1
  O  O0  1  0.37825700  0.13660300  0.70350300  1
  O  O1  1  0.91782300  0.63696000  0.70580300  1
  O  O2  1  0.12115100  0.36345000  0.29306100  1
  O  O3  1  0.58580600  0.86325400  0.29178400  1
  O  O4  1  0.39331900  0.13561000  0.24067500  1
  O  O5  1  0.90047400  0.63284300  0.24478700  1
  O  O6  1  0.85530400  0.13183400  0.24387100  1
  O  O7  1  0.36477600  0.63521700  0.24233400  1
  O  O8  1  0.62865200  0.36351500  0.24076200  1
  O  O9  1  0.13192000  0.86383900  0.23979700  1
  O  O10  1  0.64283500  0.36786700  0.75616500  1
  O  O11  1  0.13734200  0.86527000  0.75794500  1
  O  O12  1  0.87127900  0.13667400  0.75932500  1
  O  O13  1  0.36884400  0.63671400  0.75945300  1
  O  O14  1  0.10438700  0.36453800  0.75915200  1
  O  O15  1  0.60108600  0.86718400  0.75562500  1
loop_
_geom_bond_atom_site_label_1
_geom_bond_atom_site_label_2
_geom_bond_distance
_geom_bond_site_symmetry_2
Co0 O1 1.992912 1_554
Co0 O5 2.010759 1_555
Co0 O7 2.017279 1_555
Co0 O8 2.024731 1_555
Co1 O3 1.975789 1_556
Co1 O15 2.008048 1_555
Co1 O11 2.020927 1_655
Co1 O12 2.028431 1_565
Co2 O2 2.086010 1_655
Co2 O0 2.099541 1_555
Co2 O12 2.129256 1_555
Co2 O8 2.129723 1_555
Co2 O6 2.135315 1_555
Co2 O10 2.140431 1_555
Co3 O1 2.080657 1_455
Co3 O2 2.087327 1_555
Co3 O10 2.115051 1_455
Co3 O5 2.126136 1_455
Co3 O14 2.127324 1_555
Co3 O7 2.153949 1_555
Co4 O0 1.910031 1_555
Co4 O2 1.932033 1_555
Co4 O14 2.111195 1_555
Co4 O12 2.122148 1_455
Co4 O8 2.126155 1_555
Co4 O4 2.129499 1_555
Co5 O0 1.990627 1_554
Co5 O6 2.011175 1_455
Co5 O4 2.017115 1_555
Co5 O9 2.023975 1_545
Co6 O2 1.975523 1_556
Co6 O10 2.009206 1_555
Co6 O14 2.020829 1_555
Co6 O13 2.028439 1_555
Co7 O1 1.911924 1_455
Co7 O3 1.934336 1_555
Co7 O11 2.109745 1_555
Co7 O13 2.120177 1_555
Co7 O9 2.120872 1_555
Co7 O7 2.127505 1_555
Co8 O0 2.080077 1_565
Co8 O3 2.082089 1_555
Co8 O15 2.118217 1_555
Co8 O6 2.122892 1_565
Co8 O11 2.126815 1_555
Co8 O4 2.153506 1_565
Co9 O3 2.087934 1_555
Co9 O1 2.102545 1_555
Co9 O5 2.125918 1_555
Co9 O15 2.129118 1_555
Co9 O9 2.135777 1_655
Co9 O13 2.138156 1_555
O4 Sb0 2.017854 1_555
O5 Sb1 2.014324 1_655
O6 Sb0 2.013354 1_555
O7 Sb1 2.020167 1_555
O8 Sb0 2.026891 1_555
O9 Sb1 2.024664 1_555
O10 Sb0 2.014731 1_556
O11 Sb1 2.030296 1_556
O12 Sb0 2.025442 1_556
O13 Sb1 2.025178 1_556
O14 Sb0 2.029384 1_456
O15 Sb1 2.014433 1_556
