# generated using pymatgen
data_LiAl4Zn2O8
_symmetry_space_group_name_H-M   'P 1'
_cell_length_a   5.79000074
_cell_length_b   5.77504243
_cell_length_c   6.00561308
_cell_angle_alpha   61.26208948
_cell_angle_beta   62.39505371
_cell_angle_gamma   60.08542236
_symmetry_Int_Tables_number   1
_chemical_formula_structural   LiAl4Zn2O8
_chemical_formula_sum   'Li1 Al4 Zn2 O8'
_cell_volume   145.86513994
_cell_formula_units_Z   1
loop_
 _symmetry_equiv_pos_site_id
 _symmetry_equiv_pos_as_xyz
  1  'x, y, z'
loop_
 _atom_site_type_symbol
 _atom_site_label
 _atom_site_symmetry_multiplicity
 _atom_site_fract_x
 _atom_site_fract_y
 _atom_site_fract_z
 _atom_site_occupancy
  Li  Li0  1  0.00000000  0.00000000  0.50000000  1
  Al  Al0  1  0.14674900  0.14318600  0.06688000  1
  Al  Al1  1  0.50000000  0.50000000  0.50000000  1
  Al  Al2  1  0.50000000  0.00000000  0.50000000  1
  Al  Al3  1  0.85325100  0.85681400  0.93312000  1
  Zn  Zn0  1  0.00000000  0.50000000  0.50000000  1
  Zn  Zn1  1  0.50000000  0.50000000  0.00000000  1
  O  O0  1  0.25929300  0.22844000  0.25636700  1
  O  O1  1  0.29058600  0.25306200  0.70329200  1
  O  O2  1  0.25929300  0.75590100  0.25636700  1
  O  O3  1  0.73882500  0.24016100  0.28085400  1
  O  O4  1  0.26117500  0.75983900  0.71914600  1
  O  O5  1  0.74070700  0.24409900  0.74363300  1
  O  O6  1  0.70941400  0.74693800  0.29670800  1
  O  O7  1  0.74070700  0.77156000  0.74363300  1
loop_
_geom_bond_atom_site_label_1
_geom_bond_atom_site_label_2
_geom_bond_distance
_geom_bond_site_symmetry_2
Li0 O4 1.984874 1_545
Li0 O3 1.984874 1_455
Li0 O2 2.053959 1_545
Li0 O5 2.053959 1_455
Li0 O7 2.053963 1_445
Li0 O0 2.053963 1_555
Al0 O1 1.836743 1_554
Al0 O2 1.872973 1_545
Al0 O0 1.872974 1_555
Al0 O3 2.025684 1_455
Al1 O6 1.916499 1_555
Al1 O1 1.916499 1_555
Al1 O5 2.005848 1_555
Al1 O2 2.005848 1_555
Al1 O3 2.009696 1_555
Al1 O4 2.009696 1_555
Al2 O6 1.916508 1_545
Al2 O1 1.916508 1_555
Al2 O7 2.005848 1_545
Al2 O0 2.005848 1_555
Al2 O4 2.009701 1_545
Al2 O3 2.009701 1_555
Al3 O6 1.836743 1_556
Al3 O5 1.872973 1_565
Al3 O7 1.872974 1_555
Al3 O4 2.025684 1_655
O0 Zn1 2.154512 1_555
O0 Zn0 2.162562 1_555
O1 Zn0 2.047271 1_555
O2 Zn1 2.154516 1_555
O2 Zn0 2.162566 1_555
O3 Zn1 2.160287 1_555
O4 Zn1 2.160287 1_556
O5 Zn1 2.154516 1_556
O5 Zn0 2.162566 1_655
O6 Zn0 2.047271 1_655
O7 Zn1 2.154512 1_556
O7 Zn0 2.162562 1_655
