# generated using pymatgen
data_Ba2La(FeO3)3
_symmetry_space_group_name_H-M   'P 1'
_cell_length_a   5.64249834
_cell_length_b   5.64249834
_cell_length_c   6.87880900
_cell_angle_alpha   90.00000000
_cell_angle_beta   90.00000000
_cell_angle_gamma   120.00000397
_symmetry_Int_Tables_number   1
_chemical_formula_structural   Ba2La(FeO3)3
_chemical_formula_sum   'Ba2 La1 Fe3 O9'
_cell_volume   189.66480327
_cell_formula_units_Z   1
loop_
 _symmetry_equiv_pos_site_id
 _symmetry_equiv_pos_as_xyz
  1  'x, y, z'
loop_
 _atom_site_type_symbol
 _atom_site_label
 _atom_site_symmetry_multiplicity
 _atom_site_fract_x
 _atom_site_fract_y
 _atom_site_fract_z
 _atom_site_occupancy
  Ba  Ba0  1  0.66666700  0.33333300  0.33532800  1
  Ba  Ba1  1  0.33333300  0.66666700  0.66467200  1
  La  La0  1  0.00000000  0.00000000  0.00000000  1
  Fe  Fe0  1  0.00000000  0.00000000  0.50000000  1
  Fe  Fe1  1  0.66666700  0.33333300  0.83360000  1
  Fe  Fe2  1  0.33333300  0.66666700  0.16640000  1
  O  O0  1  0.67710300  0.83855100  0.32090300  1
  O  O1  1  0.32289700  0.16144900  0.67909700  1
  O  O2  1  0.00000000  0.50000000  0.00000000  1
  O  O3  1  0.83855100  0.67710300  0.67909700  1
  O  O4  1  0.50000000  0.00000000  0.00000000  1
  O  O5  1  0.16144900  0.32289700  0.32090300  1
  O  O6  1  0.83855100  0.16144900  0.67909700  1
  O  O7  1  0.50000000  0.50000000  0.00000000  1
  O  O8  1  0.16144900  0.83855100  0.32090300  1
loop_
_geom_bond_atom_site_label_1
_geom_bond_atom_site_label_2
_geom_bond_distance
_geom_bond_site_symmetry_2
Ba0 O8 2.823454 1_545
Ba0 O8 2.823454 1_655
Ba0 O5 2.823454 1_555
Ba0 O0 2.823454 1_555
Ba0 O0 2.823454 1_545
Ba0 O5 2.823454 1_655
Ba0 O4 2.823794 1_555
Ba0 O2 2.823794 1_655
Ba0 O7 2.823797 1_555
Ba0 O6 2.900649 1_555
Ba0 O1 2.900655 1_555
Ba0 O3 2.900655 1_555
Ba1 O6 2.823454 1_455
Ba1 O6 2.823454 1_565
Ba1 O3 2.823454 1_555
Ba1 O1 2.823454 1_555
Ba1 O1 2.823454 1_565
Ba1 O3 2.823454 1_455
Ba1 O4 2.823794 1_566
Ba1 O2 2.823794 1_556
Ba1 O7 2.823797 1_556
Ba1 O8 2.900649 1_555
Ba1 O0 2.900655 1_555
Ba1 O5 2.900655 1_555
La0 O0 2.713368 1_445
La0 O5 2.713368 1_555
La0 O3 2.713368 1_444
La0 O1 2.713368 1_554
La0 O8 2.713371 1_545
La0 O6 2.713371 1_454
La0 O7 2.821249 1_555
La0 O7 2.821249 1_445
La0 O2 2.821249 1_545
La0 O4 2.821249 1_555
La0 O2 2.821249 1_555
La0 O4 2.821249 1_455
Fe0 O0 2.001843 1_445
Fe0 O3 2.001843 1_445
Fe0 O1 2.001843 1_555
Fe0 O5 2.001843 1_555
Fe0 O8 2.001847 1_545
Fe0 O6 2.001847 1_455
Fe1 O6 1.987811 1_555
Fe1 O1 1.987820 1_555
Fe1 O3 1.987820 1_555
Fe1 O4 1.990811 1_556
Fe1 O2 1.990811 1_656
Fe1 O7 1.990815 1_556
Fe2 O8 1.987811 1_555
Fe2 O0 1.987820 1_555
Fe2 O5 1.987820 1_555
Fe2 O2 1.990811 1_555
Fe2 O4 1.990811 1_565
Fe2 O7 1.990815 1_555
