# generated using pymatgen
data_Mg2Cu2O5
_symmetry_space_group_name_H-M   'P 1'
_cell_length_a   3.75074600
_cell_length_b   4.75644300
_cell_length_c   10.30535100
_cell_angle_alpha   90.00000000
_cell_angle_beta   90.00000000
_cell_angle_gamma   90.00000000
_symmetry_Int_Tables_number   1
_chemical_formula_structural   Mg2Cu2O5
_chemical_formula_sum   'Mg4 Cu4 O10'
_cell_volume   183.84962139
_cell_formula_units_Z   2
loop_
 _symmetry_equiv_pos_site_id
 _symmetry_equiv_pos_as_xyz
  1  'x, y, z'
loop_
 _atom_site_type_symbol
 _atom_site_label
 _atom_site_symmetry_multiplicity
 _atom_site_fract_x
 _atom_site_fract_y
 _atom_site_fract_z
 _atom_site_occupancy
  Mg  Mg0  1  0.00000000  0.71123800  0.90066700  1
  Mg  Mg1  1  0.00000000  0.28876200  0.09933300  1
  Mg  Mg2  1  0.00000000  0.21123800  0.59933300  1
  Mg  Mg3  1  0.00000000  0.78876200  0.40066700  1
  Cu  Cu0  1  0.50000000  0.71282000  0.63423100  1
  Cu  Cu1  1  0.50000000  0.28718000  0.36576900  1
  Cu  Cu2  1  0.50000000  0.78718000  0.13423100  1
  Cu  Cu3  1  0.50000000  0.21282000  0.86576900  1
  O  O0  1  0.50000000  0.00000000  0.50000000  1
  O  O1  1  0.50000000  0.67833300  0.32600100  1
  O  O2  1  0.50000000  0.17833300  0.17399900  1
  O  O3  1  0.50000000  0.82166700  0.82600100  1
  O  O4  1  0.00000000  0.77352200  0.10664300  1
  O  O5  1  0.00000000  0.22647800  0.89335700  1
  O  O6  1  0.50000000  0.32166700  0.67399900  1
  O  O7  1  0.00000000  0.72647800  0.60664300  1
  O  O8  1  0.50000000  0.50000000  0.00000000  1
  O  O9  1  0.00000000  0.27352200  0.39335700  1
loop_
_geom_bond_atom_site_label_1
_geom_bond_atom_site_label_2
_geom_bond_distance
_geom_bond_site_symmetry_2
Mg0 O3 2.094034 1_455
Mg0 O3 2.094034 1_555
Mg0 O4 2.143228 1_556
Mg0 O5 2.306964 1_555
Mg0 O8 2.361019 1_456
Mg0 O8 2.361019 1_556
Mg0 O5 2.451867 1_565
Mg1 O2 2.094034 1_455
Mg1 O2 2.094034 1_555
Mg1 O5 2.143228 1_554
Mg1 O4 2.306964 1_555
Mg1 O8 2.361019 1_555
Mg1 O8 2.361019 1_455
Mg1 O4 2.451867 1_545
Mg2 O6 2.094034 1_455
Mg2 O6 2.094034 1_555
Mg2 O9 2.143228 1_555
Mg2 O7 2.306964 1_545
Mg2 O0 2.361019 1_455
Mg2 O0 2.361019 1_555
Mg2 O7 2.451867 1_555
Mg3 O1 2.094034 1_555
Mg3 O1 2.094034 1_455
Mg3 O7 2.143228 1_555
Mg3 O9 2.306964 1_565
Mg3 O0 2.361019 1_565
Mg3 O0 2.361019 1_465
Mg3 O9 2.451867 1_555
Cu0 O7 1.897913 1_555
Cu0 O7 1.897913 1_655
Cu0 O6 1.905099 1_555
Cu0 O0 1.944054 1_565
Cu0 O3 2.042947 1_555
Cu1 O9 1.897913 1_655
Cu1 O9 1.897913 1_555
Cu1 O1 1.905099 1_555
Cu1 O0 1.944054 1_555
Cu1 O2 2.042947 1_555
Cu2 O4 1.897913 1_555
Cu2 O4 1.897913 1_655
Cu2 O2 1.905099 1_565
Cu2 O8 1.944054 1_555
Cu2 O1 2.042947 1_555
Cu3 O5 1.897913 1_555
Cu3 O5 1.897913 1_655
Cu3 O3 1.905099 1_545
Cu3 O8 1.944054 1_556
Cu3 O6 2.042947 1_555
