# generated using pymatgen
data_LaBi2(CO)2
_symmetry_space_group_name_H-M   'P 1'
_cell_length_a   9.45242337
_cell_length_b   9.45242337
_cell_length_c   9.45242337
_cell_angle_alpha   156.27921426
_cell_angle_beta   156.27921426
_cell_angle_gamma   33.79495702
_symmetry_Int_Tables_number   1
_chemical_formula_structural   LaBi2(CO)2
_chemical_formula_sum   'La1 Bi2 C2 O2'
_cell_volume   136.54110846
_cell_formula_units_Z   1
loop_
 _symmetry_equiv_pos_site_id
 _symmetry_equiv_pos_as_xyz
  1  'x, y, z'
loop_
 _atom_site_type_symbol
 _atom_site_label
 _atom_site_symmetry_multiplicity
 _atom_site_fract_x
 _atom_site_fract_y
 _atom_site_fract_z
 _atom_site_occupancy
  La  La0  1  0.00000000  0.00000000  0.00000000  1
  Bi  Bi0  1  0.82171300  0.82171300  0.00000000  1
  Bi  Bi1  1  0.17828700  0.17828700  0.00000000  1
  C  C0  1  0.53638500  0.53638500  0.00000000  1
  C  C1  1  0.46361500  0.46361500  0.00000000  1
  O  O0  1  0.75000000  0.25000000  0.50000000  1
  O  O1  1  0.25000000  0.75000000  0.50000000  1
loop_
_geom_bond_atom_site_label_1
_geom_bond_atom_site_label_2
_geom_bond_distance
_geom_bond_site_symmetry_2
Bi0 O0 2.336006 1_554
Bi0 O1 2.336006 1_655
Bi0 O1 2.336006 1_554
Bi0 O0 2.336006 1_565
Bi0 La0 3.224972 1_665
Bi1 O1 2.336006 1_555
Bi1 O0 2.336006 1_555
Bi1 O0 2.336006 1_454
Bi1 O1 2.336006 1_544
Bi1 La0 3.224972 1_555
C0 C1 1.316311 1_555
C0 La0 2.825174 1_565
C0 La0 2.825174 1_655
C0 La0 2.825174 1_666
C0 La0 2.825174 1_554
C1 La0 2.825174 1_565
C1 La0 2.825174 1_655
C1 La0 2.825174 1_666
C1 La0 2.825174 1_554
