# generated using pymatgen
data_Sr2La2MgMnO8
_symmetry_space_group_name_H-M   'P 1'
_cell_length_a   3.89251301
_cell_length_b   25.47740065
_cell_length_c   7.73257906
_cell_angle_alpha   81.28241223
_cell_angle_beta   90.00953362
_cell_angle_gamma   90.00149903
_symmetry_Int_Tables_number   1
_chemical_formula_structural   Sr2La2MgMnO8
_chemical_formula_sum   'Sr8 La8 Mg4 Mn4 O32'
_cell_volume   757.98937892
_cell_formula_units_Z   4
loop_
 _symmetry_equiv_pos_site_id
 _symmetry_equiv_pos_as_xyz
  1  'x, y, z'
loop_
 _atom_site_type_symbol
 _atom_site_label
 _atom_site_symmetry_multiplicity
 _atom_site_fract_x
 _atom_site_fract_y
 _atom_site_fract_z
 _atom_site_occupancy
  Sr  Sr0  1  0.99999700  0.81998300  0.59001700  1
  Sr  Sr1  1  0.00000000  0.31963300  0.34019200  1
  Sr  Sr2  1  0.00000000  0.81998300  0.09001800  1
  Sr  Sr3  1  0.00000000  0.31963300  0.84018800  1
  Sr  Sr4  1  0.00000000  0.68031900  0.65983200  1
  Sr  Sr5  1  0.00000200  0.18006600  0.40995900  1
  Sr  Sr6  1  0.99999900  0.68031900  0.15983700  1
  Sr  Sr7  1  0.00000100  0.18006600  0.90995600  1
  La  La0  1  0.50000400  0.57003600  0.46493300  1
  La  La1  1  0.50000800  0.06996000  0.21497300  1
  La  La2  1  0.50000800  0.57003500  0.96493500  1
  La  La3  1  0.50000500  0.06996300  0.71497200  1
  La  La4  1  0.49999500  0.93011200  0.28499200  1
  La  La5  1  0.49999700  0.42989600  0.03509700  1
  La  La6  1  0.49999400  0.93011300  0.78499100  1
  La  La7  1  0.49999600  0.42989600  0.53510000  1
  Mg  Mg0  1  0.00000100  0.49999900  0.74998100  1
  Mg  Mg1  1  0.00000100  0.00000300  0.49999900  1
  Mg  Mg2  1  0.00000100  0.49999900  0.25002000  1
  Mg  Mg3  1  0.00000100  0.00000300  0.99999900  1
  Mn  Mn0  1  0.50000000  0.24985800  0.12506300  1
  Mn  Mn1  1  0.50000000  0.75014200  0.87493500  1
  Mn  Mn2  1  0.50000000  0.75014100  0.37493400  1
  Mn  Mn3  1  0.50000000  0.24985900  0.62506300  1
  O  O0  1  0.50000000  0.66940500  0.41526100  1
  O  O1  1  0.50000200  0.16919400  0.16536800  1
  O  O2  1  0.50000000  0.66940800  0.91526000  1
  O  O3  1  0.50000100  0.16919100  0.66536900  1
  O  O4  1  0.50000000  0.83076500  0.33465400  1
  O  O5  1  0.49999900  0.33062900  0.08472200  1
  O  O6  1  0.49999900  0.83076200  0.83465400  1
  O  O7  1  0.50000000  0.33063300  0.58472000  1
  O  O8  1  0.00000000  0.91459000  0.54273000  1
  O  O9  1  0.00000100  0.41438000  0.29285200  1
  O  O10  1  0.99999800  0.91459000  0.04273400  1
  O  O11  1  0.00000100  0.41438000  0.79284400  1
  O  O12  1  0.99999800  0.58563900  0.70713800  1
  O  O13  1  0.99999600  0.08539300  0.45727900  1
  O  O14  1  0.99999700  0.58563900  0.20715000  1
  O  O15  1  0.99999800  0.08539300  0.95727200  1
  O  O16  1  0.00000000  0.50000500  0.49999600  1
  O  O17  1  0.00000000  0.99999500  0.25000500  1
  O  O18  1  0.99999800  0.50000600  0.99999700  1
  O  O19  1  0.00000200  0.99999300  0.75000300  1
  O  O20  1  0.50000000  0.50000700  0.75000100  1
  O  O21  1  0.50000000  0.99999300  0.50000400  1
  O  O22  1  0.49999900  0.50000700  0.24999100  1
  O  O23  1  0.50000000  0.99999300  0.00000400  1
  O  O24  1  0.50000000  0.75009300  0.62497300  1
  O  O25  1  0.50000000  0.24990600  0.37502900  1
  O  O26  1  0.50000100  0.75009300  0.12492900  1
  O  O27  1  0.50000000  0.24990600  0.87507300  1
  O  O28  1  0.00000000  0.75009700  0.37495200  1
  O  O29  1  0.00000100  0.24990200  0.12505000  1
  O  O30  1  0.99999900  0.75009600  0.87495200  1
  O  O31  1  0.00000000  0.24990300  0.62504900  1
loop_
_geom_bond_atom_site_label_1
_geom_bond_atom_site_label_2
_geom_bond_distance
_geom_bond_site_symmetry_2
La0 O0 2.502417 1_555
La0 O22 2.616206 1_555
La0 O20 2.617260 1_555
La0 O16 2.626429 1_655
La0 O16 2.626450 1_555
La0 O12 2.770905 1_555
La0 O14 2.770912 1_455
La0 O14 2.771325 1_555
La0 O12 2.771391 1_455
La1 O1 2.499017 1_555
La1 O23 2.615131 1_545
La1 O21 2.616173 1_545
La1 O17 2.625302 1_645
La1 O17 2.625346 1_545
La1 O15 2.770332 1_454
La1 O13 2.770372 1_555
La1 O15 2.770728 1_554
La1 O13 2.770890 1_455
La2 O2 2.502517 1_555
La2 O20 2.616140 1_555
La2 O22 2.617177 1_556
La2 O18 2.626378 1_555
La2 O18 2.626433 1_455
La2 O14 2.770952 1_556
La2 O12 2.770996 1_455
La2 O12 2.771393 1_555
La2 O14 2.771464 1_456
La3 O3 2.498866 1_555
La3 O21 2.615185 1_545
La3 O23 2.616221 1_546
La3 O19 2.625401 1_645
La3 O19 2.625416 1_545
La3 O13 2.770283 1_455
La3 O15 2.770335 1_555
La3 O13 2.770685 1_555
La3 O15 2.770825 1_455
La4 O4 2.501863 1_555
La4 O21 2.613673 1_555
La4 O23 2.614715 1_555
La4 O17 2.623925 1_555
La4 O17 2.623952 1_655
La4 O8 2.770593 1_655
La4 O10 2.770693 1_455
La4 O8 2.771017 1_555
La4 O10 2.771162 1_555
La5 O5 2.499848 1_555
La5 O22 2.617558 1_555
La5 O20 2.618577 1_554
La5 O18 2.627774 1_454
La5 O18 2.627777 1_554
La5 O11 2.770626 1_554
La5 O9 2.770677 1_655
La5 O11 2.771100 1_654
La5 O9 2.771106 1_555
La6 O6 2.501963 1_555
La6 O23 2.613659 1_556
La6 O21 2.614695 1_555
La6 O19 2.623866 1_555
La6 O19 2.623910 1_655
La6 O10 2.770618 1_556
La6 O8 2.770707 1_555
La6 O10 2.771048 1_456
La6 O8 2.771192 1_655
La7 O7 2.499747 1_555
La7 O20 2.617598 1_555
La7 O22 2.618652 1_555
La7 O16 2.627748 1_555
La7 O16 2.627769 1_655
La7 O9 2.770596 1_555
La7 O11 2.770620 1_655
La7 O11 2.771044 1_555
La7 O9 2.771076 1_655
Mg0 O16 1.933006 1_555
Mg0 O18 1.933296 1_455
Mg0 O20 1.946253 1_555
Mg0 O20 1.946260 1_455
Mg0 O11 2.156149 1_555
Mg0 O12 2.156678 1_455
Mg1 O17 1.933129 1_545
Mg1 O19 1.933137 1_545
Mg1 O21 1.946253 1_545
Mg1 O21 1.946260 1_445
Mg1 O13 2.150382 1_455
Mg1 O8 2.150962 1_545
Mg2 O16 1.932982 1_555
Mg2 O18 1.933296 1_454
Mg2 O22 1.946249 1_555
Mg2 O22 1.946264 1_455
Mg2 O9 2.156149 1_555
Mg2 O14 2.156678 1_455
Mg3 O19 1.933152 1_545
Mg3 O17 1.933160 1_546
Mg3 O23 1.946253 1_546
Mg3 O23 1.946260 1_446
Mg3 O15 2.150383 1_455
Mg3 O10 2.150962 1_446
Mn0 O27 1.932882 1_554
Mn0 O25 1.933068 1_555
Mn0 O29 1.946253 1_555
Mn0 O29 1.946261 1_655
Mn0 O1 2.031367 1_555
Mn0 O5 2.034062 1_555
Mn1 O26 1.932910 1_556
Mn1 O24 1.933041 1_555
Mn1 O30 1.946253 1_555
Mn1 O30 1.946261 1_455
Mn1 O6 2.030259 1_555
Mn1 O2 2.033130 1_555
Mn2 O24 1.933261 1_555
Mn2 O26 1.933369 1_555
Mn2 O28 1.946257 1_555
Mn2 O28 1.946257 1_655
Mn2 O4 2.030360 1_555
Mn2 O0 2.033180 1_555
Mn3 O25 1.933227 1_555
Mn3 O27 1.933404 1_555
Mn3 O31 1.946257 1_655
Mn3 O31 1.946257 1_555
Mn3 O3 2.031468 1_555
Mn3 O7 2.034137 1_555
O0 Sr6 2.756535 1_455
O0 Sr4 2.756789 1_655
O0 Sr6 2.756983 1_555
O0 Sr4 2.757243 1_555
O1 Sr7 2.756479 1_554
O1 Sr5 2.756678 1_655
O1 Sr7 2.756927 1_654
O1 Sr5 2.757133 1_555
O2 Sr4 2.756555 1_555
O2 Sr6 2.756803 1_556
O2 Sr4 2.757008 1_655
O2 Sr6 2.757263 1_456
O3 Sr5 2.756462 1_555
O3 Sr7 2.756672 1_655
O3 Sr5 2.756921 1_655
O3 Sr7 2.757127 1_555
O4 Sr0 2.756221 1_555
O4 Sr2 2.756454 1_555
O4 Sr0 2.756692 1_455
O4 Sr2 2.756909 1_655
O5 Sr1 2.756769 1_655
O5 Sr3 2.757014 1_554
O5 Sr1 2.757217 1_555
O5 Sr3 2.757474 1_654
O6 Sr2 2.756238 1_656
O6 Sr0 2.756450 1_455
O6 Sr2 2.756687 1_556
O6 Sr0 2.756893 1_555
O7 Sr3 2.756755 1_655
O7 Sr1 2.757005 1_555
O7 Sr3 2.757209 1_555
O7 Sr1 2.757460 1_655
O8 Sr0 2.382495 1_455
O9 Sr1 2.386020 1_555
O10 Sr2 2.382495 1_655
O11 Sr3 2.386020 1_555
O12 Sr4 2.384333 1_655
O13 Sr5 2.384157 1_655
O14 Sr6 2.384333 1_555
O15 Sr7 2.384157 1_655
O24 Sr4 2.622097 1_555
O24 Sr4 2.622099 1_655
O24 Sr0 2.624047 1_555
O24 Sr0 2.624066 1_455
O25 Sr1 2.621304 1_655
O25 Sr1 2.621306 1_555
O25 Sr5 2.623205 1_555
O25 Sr5 2.623219 1_655
O26 Sr6 2.622093 1_555
O26 Sr6 2.622103 1_455
O26 Sr2 2.624052 1_655
O26 Sr2 2.624061 1_555
O27 Sr3 2.621304 1_655
O27 Sr3 2.621306 1_555
O27 Sr7 2.623208 1_555
O27 Sr7 2.623216 1_655
O28 Sr6 2.612222 1_455
O28 Sr4 2.612646 1_555
O28 Sr0 2.614075 1_455
O28 Sr2 2.614476 1_555
O29 Sr1 2.611446 1_555
O29 Sr3 2.611881 1_554
O29 Sr7 2.613250 1_554
O29 Sr5 2.613629 1_555
O30 Sr4 2.612231 1_655
O30 Sr6 2.612661 1_556
O30 Sr2 2.614100 1_656
O30 Sr0 2.614496 1_555
O31 Sr3 2.611409 1_555
O31 Sr1 2.611839 1_555
O31 Sr5 2.613247 1_555
O31 Sr7 2.613631 1_555
