# generated using pymatgen
data_Zn(BiO2)2
_symmetry_space_group_name_H-M   'P 1'
_cell_length_a   6.74430028
_cell_length_b   6.74430028
_cell_length_c   6.74430028
_cell_angle_alpha   119.75164250
_cell_angle_beta   117.37873964
_cell_angle_gamma   92.51542178
_symmetry_Int_Tables_number   1
_chemical_formula_structural   Zn(BiO2)2
_chemical_formula_sum   'Zn2 Bi4 O8'
_cell_volume   221.27903758
_cell_formula_units_Z   2
loop_
 _symmetry_equiv_pos_site_id
 _symmetry_equiv_pos_as_xyz
  1  'x, y, z'
loop_
 _atom_site_type_symbol
 _atom_site_label
 _atom_site_symmetry_multiplicity
 _atom_site_fract_x
 _atom_site_fract_y
 _atom_site_fract_z
 _atom_site_occupancy
  Zn  Zn0  1  0.00000000  0.50000000  0.00000000  1
  Zn  Zn1  1  0.00000000  0.00000000  0.50000000  1
  Bi  Bi0  1  0.62435800  0.87435800  0.75000000  1
  Bi  Bi1  1  0.37564200  0.12564200  0.25000000  1
  Bi  Bi2  1  0.00000000  0.50000000  0.50000000  1
  Bi  Bi3  1  0.50000000  0.50000000  0.00000000  1
  O  O0  1  0.78768400  0.24776900  0.53991600  1
  O  O1  1  0.23293100  0.72050200  0.98757100  1
  O  O2  1  0.20785300  0.24776900  0.96008400  1
  O  O3  1  0.23293100  0.24536000  0.51242900  1
  O  O4  1  0.76706900  0.75464000  0.48757100  1
  O  O5  1  0.76706900  0.27949800  0.01242900  1
  O  O6  1  0.79214700  0.75223100  0.03991600  1
  O  O7  1  0.21231600  0.75223100  0.46008400  1
loop_
_geom_bond_atom_site_label_1
_geom_bond_atom_site_label_2
_geom_bond_distance
_geom_bond_site_symmetry_2
Bi0 O4 2.219806 1_555
Bi0 O5 2.219806 1_566
Bi0 O7 2.329640 1_555
Bi0 O6 2.329646 1_556
Bi1 O3 2.219806 1_555
Bi1 O1 2.219806 1_544
Bi1 O0 2.329640 1_555
Bi1 O2 2.329646 1_554
Bi2 O0 2.368951 1_455
Bi2 O7 2.368951 1_555
Bi2 O1 2.383875 1_555
Bi2 O5 2.383875 1_455
Bi2 O3 2.383875 1_555
Bi2 O4 2.383875 1_455
Bi3 O6 2.368947 1_555
Bi3 O2 2.368947 1_554
Bi3 O3 2.383875 1_554
Bi3 O1 2.383875 1_554
Bi3 O4 2.383875 1_555
Bi3 O5 2.383875 1_555
O0 Zn0 2.243500 1_656
O0 Zn1 2.243505 1_655
O1 Zn0 2.173997 1_556
O2 Zn0 2.243500 1_556
O2 Zn1 2.243500 1_555
O3 Zn1 2.173997 1_555
O4 Zn1 2.173997 1_665
O5 Zn0 2.173997 1_655
O6 Zn0 2.243500 1_655
O6 Zn1 2.243500 1_665
O7 Zn0 2.243500 1_555
O7 Zn1 2.243505 1_565
