# generated using pymatgen
data_MgSeO3
_symmetry_space_group_name_H-M   'P 1'
_cell_length_a   5.01646551
_cell_length_b   5.91728012
_cell_length_c   7.64763004
_cell_angle_alpha   90.00000000
_cell_angle_beta   90.00000000
_cell_angle_gamma   90.00000000
_symmetry_Int_Tables_number   1
_chemical_formula_structural   MgSeO3
_chemical_formula_sum   'Mg4 Se4 O12'
_cell_volume   227.01096251
_cell_formula_units_Z   4
loop_
 _symmetry_equiv_pos_site_id
 _symmetry_equiv_pos_as_xyz
  1  'x, y, z'
loop_
 _atom_site_type_symbol
 _atom_site_label
 _atom_site_symmetry_multiplicity
 _atom_site_fract_x
 _atom_site_fract_y
 _atom_site_fract_z
 _atom_site_occupancy
  Mg  Mg0  1  0.50000000  0.00000000  -0.00000000  1
  Mg  Mg1  1  0.00000000  0.50000000  -0.00000000  1
  Mg  Mg2  1  0.00000000  0.50000000  0.50000000  1
  Mg  Mg3  1  0.50000000  0.00000000  0.50000000  1
  Se  Se0  1  0.98199090  0.02028711  0.25000000  1
  Se  Se1  1  0.48199090  0.47971289  0.75000000  1
  Se  Se2  1  0.51800910  0.52028711  0.25000000  1
  Se  Se3  1  0.01800910  0.97971289  0.75000000  1
  O  O0  1  0.86103466  0.18194755  0.42179630  1
  O  O1  1  0.36103466  0.31805245  0.57820370  1
  O  O2  1  0.63896534  0.68194755  0.07820370  1
  O  O3  1  0.13896534  0.81805245  0.92179630  1
  O  O4  1  0.13896534  0.81805245  0.57820370  1
  O  O5  1  0.63896534  0.68194755  0.42179630  1
  O  O6  1  0.36103466  0.31805245  0.92179630  1
  O  O7  1  0.86103466  0.18194755  0.07820370  1
  O  O8  1  0.32086287  0.06847478  0.25000000  1
  O  O9  1  0.82086287  0.43152522  0.75000000  1
  O  O10  1  0.17913713  0.56847478  0.25000000  1
  O  O11  1  0.67913713  0.93152522  0.75000000  1
loop_
_geom_bond_atom_site_label_1
_geom_bond_atom_site_label_2
_geom_bond_distance
_geom_bond_site_symmetry_2
Mg0 O6 2.094184 1_554
Mg0 O2 2.094184 1_545
Mg0 O11 2.151072 1_544
Mg0 O8 2.151072 1_555
Mg0 O7 2.190201 1_555
Mg0 O3 2.190201 1_544
Mg1 O7 2.094184 1_455
Mg1 O3 2.094184 1_554
Mg1 O10 2.151072 1_555
Mg1 O9 2.151072 1_454
Mg1 O2 2.190201 1_455
Mg1 O6 2.190201 1_554
Mg2 O0 2.094184 1_455
Mg2 O4 2.094184 1_555
Mg2 O9 2.151072 1_455
Mg2 O10 2.151072 1_555
Mg2 O5 2.190201 1_455
Mg2 O1 2.190201 1_555
Mg3 O1 2.094184 1_555
Mg3 O5 2.094184 1_545
Mg3 O11 2.151072 1_545
Mg3 O8 2.151072 1_555
Mg3 O4 2.190201 1_545
Mg3 O0 2.190201 1_555
O0 Se0 1.734762 1_555
O1 Se1 1.734762 1_555
O2 Se2 1.734762 1_555
O3 Se3 1.734762 1_555
O4 Se3 1.734762 1_555
O5 Se2 1.734762 1_555
O6 Se1 1.734762 1_555
O7 Se0 1.734762 1_555
O8 Se0 1.723688 1_455
O9 Se1 1.723688 1_555
O10 Se2 1.723688 1_555
O11 Se3 1.723688 1_655
