# generated using pymatgen
data_Mg2Si
_symmetry_space_group_name_H-M   'P 1'
_cell_length_a   5.16067900
_cell_length_b   6.59328537
_cell_length_c   7.72056412
_cell_angle_alpha   108.19486593
_cell_angle_beta   100.86838477
_cell_angle_gamma   97.97448213
_symmetry_Int_Tables_number   1
_chemical_formula_structural   Mg2Si
_chemical_formula_sum   'Mg8 Si4'
_cell_volume   239.52654507
_cell_formula_units_Z   4
loop_
 _symmetry_equiv_pos_site_id
 _symmetry_equiv_pos_as_xyz
  1  'x, y, z'
loop_
 _atom_site_type_symbol
 _atom_site_label
 _atom_site_symmetry_multiplicity
 _atom_site_fract_x
 _atom_site_fract_y
 _atom_site_fract_z
 _atom_site_occupancy
  Mg  Mg0  1  0.11925800  0.60424400  0.24776900  1
  Mg  Mg1  1  0.24059500  0.92101000  0.04829500  1
  Mg  Mg2  1  0.88074200  0.39575600  0.75223100  1
  Mg  Mg3  1  0.61698900  0.39755800  0.33415800  1
  Mg  Mg4  1  0.29081600  0.06514200  0.59685800  1
  Mg  Mg5  1  0.75940500  0.07899000  0.95170500  1
  Mg  Mg6  1  0.70918400  0.93485800  0.40314200  1
  Mg  Mg7  1  0.38301100  0.60244200  0.66584200  1
  Si  Si0  1  0.91825700  0.76824200  0.67080600  1
  Si  Si1  1  0.08174300  0.23175800  0.32919400  1
  Si  Si2  1  0.34810700  0.32519300  0.94841300  1
  Si  Si3  1  0.65189300  0.67480700  0.05158700  1
loop_
_geom_bond_atom_site_label_1
_geom_bond_atom_site_label_2
_geom_bond_distance
_geom_bond_site_symmetry_2
Mg0 Si1 2.709666 1_555
Mg0 Si3 2.775195 1_455
Mg0 Si2 3.016325 1_554
Mg1 Si1 2.816860 1_565
Mg1 Si3 2.846485 1_555
Mg1 Si0 2.854682 1_454
Mg1 Si2 3.006430 1_564
Mg2 Si0 2.709666 1_555
Mg2 Si2 2.775195 1_655
Mg2 Si3 3.016325 1_556
Mg3 Si1 2.772185 1_655
Mg3 Si1 2.814694 1_555
Mg3 Si2 2.897087 1_554
Mg3 Si0 2.932692 1_555
Mg4 Si2 2.654165 1_555
Mg4 Si1 2.747219 1_555
Mg4 Si0 2.814631 1_445
Mg5 Si0 2.816860 1_545
Mg5 Si2 2.846485 1_555
Mg5 Si1 2.854682 1_656
Mg5 Si3 3.006430 1_546
Mg6 Si3 2.654165 1_555
Mg6 Si0 2.747219 1_555
Mg6 Si1 2.814631 1_665
Mg7 Si0 2.772185 1_455
Mg7 Si0 2.814694 1_555
Mg7 Si3 2.897087 1_556
Mg7 Si1 2.932692 1_555
Si2 Si3 2.405311 1_556
