# generated using pymatgen
data_Sc(AsO)2
_symmetry_space_group_name_H-M   'P 1'
_cell_length_a   9.66754584
_cell_length_b   9.66754584
_cell_length_c   9.66754584
_cell_angle_alpha   115.70842691
_cell_angle_beta   115.70842691
_cell_angle_gamma   97.60927144
_symmetry_Int_Tables_number   1
_chemical_formula_structural   Sc(AsO)2
_chemical_formula_sum   'Sc4 As8 O8'
_cell_volume   673.90020851
_cell_formula_units_Z   4
loop_
 _symmetry_equiv_pos_site_id
 _symmetry_equiv_pos_as_xyz
  1  'x, y, z'
loop_
 _atom_site_type_symbol
 _atom_site_label
 _atom_site_symmetry_multiplicity
 _atom_site_fract_x
 _atom_site_fract_y
 _atom_site_fract_z
 _atom_site_occupancy
  Sc  Sc0  1  0.87500000  0.12500000  0.75000000  1
  Sc  Sc1  1  0.37500000  0.12500000  0.25000000  1
  Sc  Sc2  1  0.87500000  0.62500000  0.75000000  1
  Sc  Sc3  1  0.87500000  0.12500000  0.25000000  1
  As  As0  1  0.77173300  0.39750300  0.37423000  1
  As  As1  1  0.02327400  0.39750300  0.62577000  1
  As  As2  1  0.14750300  0.27327400  0.12577000  1
  As  As3  1  0.72672600  0.85249700  0.87423000  1
  As  As4  1  0.97826700  0.85249700  0.12577000  1
  As  As5  1  0.14750300  0.02173300  0.87423000  1
  As  As6  1  0.60249700  0.97672600  0.37423000  1
  As  As7  1  0.60249700  0.22826700  0.62577000  1
  O  O0  1  0.56518500  0.27588900  0.28929600  1
  O  O1  1  0.98659300  0.27588900  0.71070400  1
  O  O2  1  0.02588900  0.23659300  0.21070400  1
  O  O3  1  0.76340700  0.97411100  0.78929600  1
  O  O4  1  0.18481500  0.97411100  0.21070400  1
  O  O5  1  0.02588900  0.81518500  0.78929600  1
  O  O6  1  0.72411100  0.01340700  0.28929600  1
  O  O7  1  0.72411100  0.43481500  0.71070400  1
loop_
_geom_bond_atom_site_label_1
_geom_bond_atom_site_label_2
_geom_bond_distance
_geom_bond_site_symmetry_2
As0 O0 1.778199 1_555
As1 O1 1.778202 1_455
As2 O2 1.778202 1_555
As3 O3 1.778202 1_555
As4 O4 1.778199 1_655
As5 O5 1.778199 1_545
As6 O6 1.778202 1_565
As7 O7 1.778199 1_555
O0 Sc1 1.963584 1_555
O1 Sc0 1.963584 1_555
O2 Sc3 1.963584 1_455
O3 Sc0 1.963584 1_565
O4 Sc1 1.963584 1_565
O5 Sc2 1.963584 1_455
O6 Sc3 1.963584 1_555
O7 Sc2 1.963584 1_555
