# generated using pymatgen
data_GdZnRh
_symmetry_space_group_name_H-M   'P 1'
_cell_length_a   4.05066427
_cell_length_b   6.94600721
_cell_length_c   8.09969471
_cell_angle_alpha   90.00000000
_cell_angle_beta   90.00000000
_cell_angle_gamma   90.00000000
_symmetry_Int_Tables_number   1
_chemical_formula_structural   GdZnRh
_chemical_formula_sum   'Gd4 Zn4 Rh4'
_cell_volume   227.89255050
_cell_formula_units_Z   4
loop_
 _symmetry_equiv_pos_site_id
 _symmetry_equiv_pos_as_xyz
  1  'x, y, z'
loop_
 _atom_site_type_symbol
 _atom_site_label
 _atom_site_symmetry_multiplicity
 _atom_site_fract_x
 _atom_site_fract_y
 _atom_site_fract_z
 _atom_site_occupancy
  Gd  Gd0  1  0.25000000  0.03738153  0.31543882  1
  Gd  Gd1  1  0.25000000  0.53738153  0.18456018  1
  Gd  Gd2  1  0.75000000  0.96261847  0.68456018  1
  Gd  Gd3  1  0.75000000  0.46261747  0.81543882  1
  Zn  Zn0  1  0.25000000  0.63638645  0.56278853  1
  Zn  Zn1  1  0.25000000  0.13638645  0.93721247  1
  Zn  Zn2  1  0.75000000  0.36361255  0.43721247  1
  Zn  Zn3  1  0.75000000  0.86361355  0.06278853  1
  Rh  Rh0  1  0.25000000  0.25750077  0.62230998  1
  Rh  Rh1  1  0.25000000  0.75749877  0.87769002  1
  Rh  Rh2  1  0.75000000  0.74250123  0.37769002  1
  Rh  Rh3  1  0.75000000  0.24249823  0.12231098  1
loop_
_geom_bond_atom_site_label_1
_geom_bond_atom_site_label_2
_geom_bond_distance
_geom_bond_site_symmetry_2
Gd0 Rh0 2.918169 1_555
Gd0 Rh2 2.924294 1_445
Gd0 Rh2 2.924294 1_545
Gd0 Rh3 2.928963 1_455
Gd0 Rh3 2.928963 1_555
Gd0 Zn3 3.121941 1_445
Gd0 Zn3 3.121941 1_545
Gd0 Zn1 3.139755 1_554
Gd0 Zn2 3.195244 1_455
Gd0 Zn2 3.195244 1_555
Gd1 Rh1 2.918155 1_554
Gd1 Rh3 2.924306 1_555
Gd1 Rh3 2.924306 1_455
Gd1 Rh2 2.928981 1_455
Gd1 Rh2 2.928981 1_555
Gd1 Zn2 3.121954 1_455
Gd1 Zn2 3.121954 1_555
Gd1 Zn0 3.139770 1_555
Gd1 Zn3 3.195244 1_455
Gd1 Zn3 3.195244 1_555
Gd2 Rh2 2.918155 1_555
Gd2 Rh0 2.924302 1_565
Gd2 Rh0 2.924302 1_665
Gd2 Rh1 2.928981 1_555
Gd2 Rh1 2.928981 1_655
Gd2 Zn1 3.121952 1_665
Gd2 Zn1 3.121952 1_565
Gd2 Zn3 3.139770 1_556
Gd2 Zn0 3.195244 1_555
Gd2 Zn0 3.195244 1_655
Gd3 Rh3 2.918176 1_556
Gd3 Rh1 2.924299 1_655
Gd3 Rh1 2.924299 1_555
Gd3 Rh0 2.928967 1_655
Gd3 Rh0 2.928967 1_555
Gd3 Zn0 3.121944 1_655
Gd3 Zn0 3.121944 1_555
Gd3 Zn2 3.139755 1_555
Gd3 Zn1 3.195244 1_655
Gd3 Zn1 3.195244 1_555
Rh0 Zn2 2.625437 1_455
Rh0 Zn2 2.625437 1_555
Rh0 Zn0 2.675536 1_555
Rh0 Zn1 2.685768 1_555
Rh1 Zn3 2.625447 1_456
Rh1 Zn3 2.625447 1_556
Rh1 Zn1 2.675552 1_565
Rh1 Zn0 2.685756 1_555
Rh2 Zn0 2.625447 1_555
Rh2 Zn0 2.625447 1_655
Rh2 Zn2 2.675558 1_555
Rh2 Zn3 2.685756 1_555
Rh3 Zn1 2.625441 1_554
Rh3 Zn1 2.625441 1_654
Rh3 Zn3 2.675531 1_545
Rh3 Zn2 2.685761 1_555
