# generated using pymatgen
data_Er4Ni2C5
_symmetry_space_group_name_H-M   'P 1'
_cell_length_a   3.57413439
_cell_length_b   3.65334410
_cell_length_c   11.45838755
_cell_angle_alpha   90.00000000
_cell_angle_beta   90.00000000
_cell_angle_gamma   90.00000000
_symmetry_Int_Tables_number   1
_chemical_formula_structural   Er4Ni2C5
_chemical_formula_sum   'Er4 Ni2 C5'
_cell_volume   149.61838570
_cell_formula_units_Z   1
loop_
 _symmetry_equiv_pos_site_id
 _symmetry_equiv_pos_as_xyz
  1  'x, y, z'
loop_
 _atom_site_type_symbol
 _atom_site_label
 _atom_site_symmetry_multiplicity
 _atom_site_fract_x
 _atom_site_fract_y
 _atom_site_fract_z
 _atom_site_occupancy
  Er  Er0  1  0.50000000  0.50266818  0.20371825  1
  Er  Er1  1  0.50000000  0.50266818  0.79628175  1
  Er  Er2  1  0.50000000  0.21005623  0.50000000  1
  Er  Er3  1  -0.00000000  0.99973563  0.00000000  1
  Ni  Ni0  1  0.00000000  0.69943357  0.38454494  1
  Ni  Ni1  1  -0.00000000  0.69943357  0.61545506  1
  C  C0  1  -0.00000000  0.99922209  0.22948862  1
  C  C1  1  0.00000000  0.99922209  0.77051138  1
  C  C2  1  0.00000000  0.19811684  0.33324588  1
  C  C3  1  0.00000000  0.19811684  0.66675412  1
  C  C4  1  0.50000000  0.49282679  0.00000000  1
loop_
_geom_bond_atom_site_label_1
_geom_bond_atom_site_label_2
_geom_bond_distance
_geom_bond_site_symmetry_2
Er2 Ni1 2.853105 1_555
Er2 Ni0 2.853105 1_655
Er2 Ni1 2.853105 1_655
Er2 Ni0 2.853105 1_555
Er2 Ni1 2.902373 1_545
Er2 Ni0 2.902373 1_645
Er2 Ni1 2.902373 1_645
Er2 Ni0 2.902373 1_545
C0 C2 1.393361 1_565
C0 Ni0 2.087146 1_555
C0 Er0 2.563532 1_455
C0 Er0 2.563532 1_555
C0 Er0 2.581412 1_565
C0 Er0 2.581412 1_465
C0 Er3 2.629570 1_555
C1 C3 1.393361 1_565
C1 Ni1 2.087146 1_555
C1 Er1 2.563532 1_455
C1 Er1 2.563532 1_555
C1 Er1 2.581412 1_565
C1 Er1 2.581412 1_465
C1 Er3 2.629570 1_556
C2 Ni0 1.914339 1_545
C2 Ni0 1.923497 1_555
C2 Er0 2.575721 1_555
C2 Er0 2.575721 1_455
C2 Er2 2.616565 1_555
C2 Er2 2.616565 1_455
C3 Ni1 1.914339 1_545
C3 Ni1 1.923497 1_555
C3 Er1 2.575721 1_555
C3 Er1 2.575721 1_455
C3 Er2 2.616565 1_555
C3 Er2 2.616565 1_455
C4 Er0 2.334560 1_555
C4 Er1 2.334560 1_554
C4 Er3 2.537472 1_545
C4 Er3 2.537472 1_645
C4 Er3 2.573556 1_555
C4 Er3 2.573556 1_655
