# generated using pymatgen
data_Nd2WO6
_symmetry_space_group_name_H-M   'P 1'
_cell_length_a   5.39616360
_cell_length_b   9.31676412
_cell_length_c   10.19965730
_cell_angle_alpha   90.00000000
_cell_angle_beta   90.00000000
_cell_angle_gamma   90.00000000
_symmetry_Int_Tables_number   1
_chemical_formula_structural   Nd2WO6
_chemical_formula_sum   'Nd8 W4 O24'
_cell_volume   512.78556166
_cell_formula_units_Z   4
loop_
 _symmetry_equiv_pos_site_id
 _symmetry_equiv_pos_as_xyz
  1  'x, y, z'
loop_
 _atom_site_type_symbol
 _atom_site_label
 _atom_site_symmetry_multiplicity
 _atom_site_fract_x
 _atom_site_fract_y
 _atom_site_fract_z
 _atom_site_occupancy
  Nd  Nd0  1  0.47513316  0.60406407  0.53728247  1
  Nd  Nd1  1  0.97513316  0.89593593  0.46271753  1
  Nd  Nd2  1  0.52486684  0.10406407  0.96271753  1
  Nd  Nd3  1  0.02486684  0.39593593  0.03728247  1
  Nd  Nd4  1  0.96931569  0.78101495  0.86913174  1
  Nd  Nd5  1  0.46931569  0.71898505  0.13086826  1
  Nd  Nd6  1  0.03068431  0.28101495  0.63086826  1
  Nd  Nd7  1  0.53068431  0.21898505  0.36913174  1
  W  W0  1  0.45788846  0.99586544  0.64868048  1
  W  W1  1  0.95788846  0.50413456  0.35131952  1
  W  W2  1  0.54211154  0.49586544  0.85131952  1
  W  W3  1  0.04211154  0.00413456  0.14868048  1
  O  O0  1  0.24791371  0.08971504  0.50991752  1
  O  O1  1  0.74791371  0.41028496  0.49008248  1
  O  O2  1  0.75208629  0.58971504  0.99008248  1
  O  O3  1  0.25208629  0.91028496  0.00991752  1
  O  O4  1  0.72041498  0.11032675  0.56465632  1
  O  O5  1  0.22041498  0.38967325  0.43534368  1
  O  O6  1  0.27958502  0.61032675  0.93534368  1
  O  O7  1  0.77958502  0.88967325  0.06465632  1
  O  O8  1  0.56735510  0.85022910  0.52459941  1
  O  O9  1  0.06735510  0.64977090  0.47540059  1
  O  O10  1  0.43264490  0.35022910  0.97540059  1
  O  O11  1  0.93264490  0.14977090  0.02459941  1
  O  O12  1  0.18456141  0.86318938  0.25954020  1
  O  O13  1  0.68456141  0.63681062  0.74045980  1
  O  O14  1  0.81543859  0.36318938  0.24045980  1
  O  O15  1  0.31543859  0.13681062  0.75954020  1
  O  O16  1  0.82952188  0.04981812  0.28607901  1
  O  O17  1  0.32952188  0.45018188  0.71392099  1
  O  O18  1  0.17047812  0.54981812  0.21392099  1
  O  O19  1  0.67047812  0.95018188  0.78607901  1
  O  O20  1  0.30756778  0.13571563  0.17826436  1
  O  O21  1  0.80756778  0.36428437  0.82173564  1
  O  O22  1  0.69243222  0.63571563  0.32173564  1
  O  O23  1  0.19243222  0.86428437  0.67826436  1
loop_
_geom_bond_atom_site_label_1
_geom_bond_atom_site_label_2
_geom_bond_distance
_geom_bond_site_symmetry_2
Nd0 O9 2.328442 1_555
Nd0 O8 2.350394 1_555
Nd0 O1 2.378636 1_555
Nd0 O13 2.380088 1_555
Nd0 O17 2.432857 1_555
Nd0 O22 2.509049 1_555
Nd0 O5 2.638188 1_555
Nd1 O8 2.328442 1_555
Nd1 O9 2.350394 1_655
Nd1 O0 2.378636 1_665
Nd1 O12 2.380088 1_655
Nd1 O16 2.432857 1_565
Nd1 O23 2.509049 1_655
Nd1 O4 2.638188 1_565
Nd2 O11 2.328442 1_556
Nd2 O10 2.350394 1_555
Nd2 O3 2.378636 1_546
Nd2 O15 2.380088 1_555
Nd2 O19 2.432857 1_545
Nd2 O20 2.509049 1_556
Nd2 O7 2.638188 1_546
Nd3 O10 2.328442 1_554
Nd3 O11 2.350394 1_455
Nd3 O2 2.378636 1_454
Nd3 O14 2.380088 1_455
Nd3 O18 2.432857 1_555
Nd3 O21 2.509049 1_454
Nd3 O6 2.638188 1_554
Nd4 O6 2.405863 1_655
Nd4 O19 2.408745 1_555
Nd4 O3 2.416780 1_656
Nd4 O23 2.416895 1_655
Nd4 O13 2.426631 1_555
Nd4 O7 2.459717 1_556
Nd4 O2 2.464255 1_555
Nd5 O7 2.405863 1_555
Nd5 O18 2.408745 1_555
Nd5 O2 2.416780 1_554
Nd5 O22 2.416895 1_555
Nd5 O12 2.426631 1_555
Nd5 O6 2.459717 1_554
Nd5 O3 2.464255 1_555
Nd6 O4 2.405863 1_455
Nd6 O17 2.408745 1_555
Nd6 O1 2.416780 1_455
Nd6 O21 2.416895 1_455
Nd6 O15 2.426631 1_555
Nd6 O5 2.459717 1_555
Nd6 O0 2.464255 1_555
Nd7 O5 2.405863 1_555
Nd7 O16 2.408745 1_555
Nd7 O0 2.416780 1_555
Nd7 O20 2.416895 1_555
Nd7 O14 2.426631 1_555
Nd7 O4 2.459717 1_555
Nd7 O1 2.464255 1_555
O0 W0 2.012840 1_545
O1 W1 2.012840 1_555
O2 W2 2.012840 1_555
O3 W3 2.012840 1_565
O4 W0 1.969407 1_545
O5 W1 1.969407 1_455
O6 W2 1.969407 1_555
O7 W3 1.969407 1_665
O8 W0 1.947228 1_555
O9 W1 1.947228 1_455
O10 W2 1.947228 1_555
O11 W3 1.947228 1_655
O12 W3 1.895731 1_565
O13 W2 1.895731 1_555
O14 W1 1.895731 1_555
O15 W0 1.895731 1_545
O16 W3 1.860409 1_655
O17 W2 1.860409 1_555
O18 W1 1.860409 1_455
O19 W0 1.860409 1_555
O20 W3 1.909399 1_555
O21 W2 1.909399 1_555
O22 W1 1.909399 1_555
O23 W0 1.909399 1_555
