# generated using pymatgen
data_Li9Mn2Co5O16
_symmetry_space_group_name_H-M   'P 1'
_cell_length_a   6.66037440
_cell_length_b   6.66037440
_cell_length_c   15.30090578
_cell_angle_alpha   87.66843682
_cell_angle_beta   87.66843682
_cell_angle_gamma   24.97788639
_symmetry_Int_Tables_number   1
_chemical_formula_structural   Li9Mn2Co5O16
_chemical_formula_sum   'Li9 Mn2 Co5 O16'
_cell_volume   286.36879957
_cell_formula_units_Z   1
loop_
 _symmetry_equiv_pos_site_id
 _symmetry_equiv_pos_as_xyz
  1  'x, y, z'
loop_
 _atom_site_type_symbol
 _atom_site_label
 _atom_site_symmetry_multiplicity
 _atom_site_fract_x
 _atom_site_fract_y
 _atom_site_fract_z
 _atom_site_occupancy
  Li  Li0  1  0.93814200  0.93814200  0.68205600  1
  Li  Li1  1  0.31476400  0.31476400  0.55682900  1
  Li  Li2  1  0.68523600  0.68523600  0.44317100  1
  Li  Li3  1  0.56312600  0.56312600  0.81311100  1
  Li  Li4  1  0.18383300  0.18383300  0.93584700  1
  Li  Li5  1  0.81616700  0.81616700  0.06415300  1
  Li  Li6  1  0.06185800  0.06185800  0.31794400  1
  Li  Li7  1  0.43687400  0.43687400  0.18688900  1
  Li  Li8  1  0.00000000  0.00000000  0.50000000  1
  Mn  Mn0  1  0.24746300  0.24746300  0.74909500  1
  Mn  Mn1  1  0.75253700  0.75253700  0.25090500  1
  Co  Co0  1  0.61016600  0.61016600  0.61625700  1
  Co  Co1  1  0.38983400  0.38983400  0.38374300  1
  Co  Co2  1  0.12473600  0.12473600  0.12351700  1
  Co  Co3  1  0.50000000  0.50000000  0.00000000  1
  Co  Co4  1  0.87526400  0.87526400  0.87648300  1
  O  O0  1  0.78043800  0.78043800  0.67001800  1
  O  O1  1  0.15615600  0.15615600  0.53807500  1
  O  O2  1  0.52487900  0.52487900  0.40065700  1
  O  O3  1  0.39314500  0.39314500  0.79084100  1
  O  O4  1  0.02943700  0.02943700  0.90975800  1
  O  O5  1  0.65220900  0.65220900  0.04076700  1
  O  O6  1  0.89207900  0.89207900  0.28496400  1
  O  O7  1  0.27995900  0.27995900  0.16666800  1
  O  O8  1  0.10792100  0.10792100  0.71503600  1
  O  O9  1  0.47512100  0.47512100  0.59934300  1
  O  O10  1  0.84384400  0.84384400  0.46192500  1
  O  O11  1  0.72004100  0.72004100  0.83333200  1
  O  O12  1  0.34779100  0.34779100  0.95923300  1
  O  O13  1  0.97056300  0.97056300  0.09024200  1
  O  O14  1  0.21956200  0.21956200  0.32998200  1
  O  O15  1  0.60685500  0.60685500  0.20915900  1
loop_
_geom_bond_atom_site_label_1
_geom_bond_atom_site_label_2
_geom_bond_distance
_geom_bond_site_symmetry_2
Li0 O9 1.963868 1_565
Li0 O9 1.963868 1_655
Li0 O0 2.066911 1_555
Li0 O3 2.259732 1_565
Li0 O3 2.259732 1_655
Li0 O8 2.285404 1_665
Li1 O10 2.068917 1_455
Li1 O10 2.068917 1_545
Li1 O1 2.094457 1_555
Li1 O9 2.210351 1_555
Li1 O0 2.282286 1_455
Li1 O0 2.282286 1_545
Li2 O1 2.068917 1_655
Li2 O1 2.068917 1_565
Li2 O10 2.094457 1_555
Li2 O2 2.210351 1_555
Li2 O14 2.282286 1_655
Li2 O14 2.282286 1_565
Li3 O11 2.076794 1_555
Li3 O4 2.097448 1_655
Li3 O4 2.097448 1_565
Li3 O8 2.143119 1_565
Li3 O8 2.143119 1_655
Li3 O3 2.250793 1_555
Li4 O4 2.063548 1_555
Li4 O11 2.166822 1_455
Li4 O11 2.166822 1_545
Li4 O12 2.176833 1_555
Li4 O5 2.183083 1_456
Li4 O5 2.183083 1_546
Li5 O13 2.063548 1_555
Li5 O7 2.166822 1_565
Li5 O7 2.166822 1_655
Li5 O5 2.176833 1_555
Li5 O12 2.183083 1_564
Li5 O12 2.183083 1_654
Li6 O2 1.963868 1_545
Li6 O2 1.963868 1_455
Li6 O14 2.066911 1_555
Li6 O15 2.259732 1_455
Li6 O15 2.259732 1_545
Li6 O6 2.285404 1_445
Li7 O7 2.076794 1_555
Li7 O13 2.097448 1_545
Li7 O13 2.097448 1_455
Li7 O6 2.143119 1_545
Li7 O6 2.143119 1_455
Li7 O15 2.250793 1_555
Li8 O9 2.109200 1_545
Li8 O9 2.109200 1_455
Li8 O2 2.109200 1_455
Li8 O2 2.109200 1_545
Li8 O10 2.136009 1_445
Li8 O1 2.136009 1_555
Mn0 O8 1.908919 1_555
Mn0 O0 1.918113 1_545
Mn0 O0 1.918113 1_455
Mn0 O11 1.955673 1_455
Mn0 O11 1.955673 1_545
Mn0 O3 2.024513 1_555
Mn1 O6 1.908919 1_555
Mn1 O14 1.918113 1_565
Mn1 O14 1.918113 1_655
Mn1 O7 1.955673 1_655
Mn1 O7 1.955673 1_565
Mn1 O15 2.024513 1_555
Co0 O9 1.785936 1_555
Co0 O1 1.950297 1_655
Co0 O1 1.950297 1_565
Co0 O8 2.087111 1_655
Co0 O8 2.087111 1_565
Co0 O0 2.394241 1_555
Co1 O2 1.785936 1_555
Co1 O10 1.950297 1_545
Co1 O10 1.950297 1_455
Co1 O6 2.087111 1_545
Co1 O6 2.087111 1_455
Co1 O14 2.394241 1_555
Co2 O5 1.941032 1_455
Co2 O5 1.941032 1_545
Co2 O15 1.954568 1_545
Co2 O15 1.954568 1_455
Co2 O13 2.089196 1_445
Co2 O7 2.149977 1_555
Co3 O13 2.020788 1_455
Co3 O13 2.020788 1_545
Co3 O4 2.020788 1_654
Co3 O4 2.020788 1_564
Co3 O12 2.100157 1_554
Co3 O5 2.100157 1_555
Co4 O12 1.941032 1_565
Co4 O12 1.941032 1_655
Co4 O3 1.954568 1_655
Co4 O3 1.954568 1_565
Co4 O4 2.089196 1_665
Co4 O11 2.149977 1_555
