# generated using pymatgen
data_Mg14CoNi
_symmetry_space_group_name_H-M   'P 1'
_cell_length_a   6.16557958
_cell_length_b   6.16557912
_cell_length_c   9.62494835
_cell_angle_alpha   90.00000000
_cell_angle_beta   90.00000000
_cell_angle_gamma   120.00000249
_symmetry_Int_Tables_number   1
_chemical_formula_structural   Mg14CoNi
_chemical_formula_sum   'Mg14 Co1 Ni1'
_cell_volume   316.86685331
_cell_formula_units_Z   1
loop_
 _symmetry_equiv_pos_site_id
 _symmetry_equiv_pos_as_xyz
  1  'x, y, z'
loop_
 _atom_site_type_symbol
 _atom_site_label
 _atom_site_symmetry_multiplicity
 _atom_site_fract_x
 _atom_site_fract_y
 _atom_site_fract_z
 _atom_site_occupancy
  Mg  Mg0  1  0.16723886  0.83361893  0.12500000  1
  Mg  Mg1  1  0.16693814  0.83346857  0.62500000  1
  Mg  Mg2  1  0.66638107  0.33276114  0.12500000  1
  Mg  Mg3  1  0.66653143  0.33306186  0.62500000  1
  Mg  Mg4  1  0.66638107  0.83361893  0.12500000  1
  Mg  Mg5  1  0.66653143  0.83346857  0.62500000  1
  Mg  Mg6  1  0.32353390  0.17646610  0.37422709  1
  Mg  Mg7  1  0.32353390  0.17646610  0.87577291  1
  Mg  Mg8  1  0.32353390  0.64706880  0.37422709  1
  Mg  Mg9  1  0.32353390  0.64706880  0.87577291  1
  Mg  Mg10  1  0.85293120  0.17646610  0.37422709  1
  Mg  Mg11  1  0.85293120  0.17646610  0.87577291  1
  Mg  Mg12  1  0.83333300  0.66666700  0.37552484  1
  Mg  Mg13  1  0.83333300  0.66666700  0.87447516  1
  Co  Co0  1  0.16666700  0.33333300  0.12500000  1
  Ni  Ni0  1  0.16666700  0.33333300  0.62500000  1
loop_
_geom_bond_atom_site_label_1
_geom_bond_atom_site_label_2
_geom_bond_distance
_geom_bond_site_symmetry_2
Mg0 Mg13 2.998845 1_454
Mg0 Mg12 2.998845 1_455
Mg0 Mg8 3.018968 1_555
Mg0 Mg9 3.018968 1_554
Mg0 Mg6 3.018975 1_565
Mg0 Mg7 3.018975 1_564
Mg0 Mg2 3.077501 1_565
Mg0 Mg4 3.077501 1_555
Mg0 Mg2 3.088078 1_455
Mg0 Mg4 3.088079 1_455
Mg1 Mg12 2.989770 1_455
Mg1 Mg13 2.989770 1_455
Mg1 Mg9 3.031246 1_555
Mg1 Mg8 3.031246 1_555
Mg1 Mg7 3.031253 1_565
Mg1 Mg6 3.031253 1_565
Mg1 Mg3 3.080282 1_565
Mg1 Mg5 3.080282 1_555
Mg1 Ni0 3.082790 1_555
Mg1 Ni0 3.082790 1_565
Mg1 Mg3 3.085297 1_455
Mg1 Mg5 3.085297 1_455
Mg2 Mg7 3.018975 1_554
Mg2 Mg6 3.018975 1_555
Mg2 Mg4 3.077501 1_545
Mg2 Mg4 3.088078 1_555
Mg3 Mg7 3.031253 1_555
Mg3 Mg6 3.031253 1_555
Mg3 Mg5 3.080282 1_545
Mg3 Ni0 3.082790 1_655
Mg3 Ni0 3.082790 1_555
Mg3 Mg5 3.085297 1_555
Mg4 Mg8 3.018974 1_555
Mg4 Mg9 3.018974 1_554
Mg5 Mg9 3.031252 1_555
Mg5 Mg8 3.031252 1_555
Mg5 Ni0 3.082790 1_555
Mg5 Ni0 3.082790 1_665
Mg6 Ni0 2.938047 1_555
Mg7 Ni0 2.938047 1_555
Mg8 Ni0 2.938053 1_555
Mg9 Ni0 2.938053 1_555
Mg10 Ni0 2.938053 1_655
Mg10 Mg2 3.018968 1_555
Mg10 Mg4 3.018974 1_545
Mg10 Mg3 3.031246 1_555
Mg10 Mg5 3.031252 1_545
Mg10 Mg12 3.084590 1_545
Mg10 Mg12 3.084590 1_555
Mg11 Ni0 2.938053 1_655
Mg11 Mg2 3.018968 1_556
Mg11 Mg4 3.018974 1_546
Mg11 Mg3 3.031246 1_555
Mg11 Mg5 3.031252 1_545
Mg11 Mg13 3.084590 1_545
Mg11 Mg13 3.084590 1_555
Mg12 Mg5 2.989764 1_555
Mg12 Mg3 2.989770 1_555
Mg12 Mg4 2.998838 1_555
Mg12 Mg2 2.998844 1_555
Mg12 Mg6 3.084590 1_665
Mg12 Mg6 3.084590 1_555
Mg12 Mg8 3.084591 1_555
Mg12 Mg8 3.084591 1_655
Mg13 Mg5 2.989764 1_555
Mg13 Mg3 2.989770 1_555
Mg13 Mg4 2.998838 1_556
Mg13 Mg2 2.998844 1_556
Mg13 Mg7 3.084590 1_665
Mg13 Mg7 3.084590 1_555
Mg13 Mg9 3.084591 1_555
Mg13 Mg9 3.084591 1_655
Co0 Mg7 2.925836 1_554
Co0 Mg6 2.925836 1_555
Co0 Mg9 2.925842 1_554
Co0 Mg8 2.925842 1_555
Co0 Mg10 2.925842 1_455
Co0 Mg11 2.925842 1_454
Co0 Mg0 3.082791 1_555
Co0 Mg4 3.082791 1_555
Co0 Mg4 3.082791 1_445
Co0 Mg0 3.082791 1_545
Co0 Mg2 3.082791 1_455
Co0 Mg2 3.082791 1_555
