# generated using pymatgen
data_MnHg3F6
_symmetry_space_group_name_H-M   'P 1'
_cell_length_a   5.44311477
_cell_length_b   8.20636796
_cell_length_c   8.28974527
_cell_angle_alpha   73.42289674
_cell_angle_beta   138.51797224
_cell_angle_gamma   110.16541226
_symmetry_Int_Tables_number   1
_chemical_formula_structural   MnHg3F6
_chemical_formula_sum   'Mn1 Hg3 F6'
_cell_volume   230.02043299
_cell_formula_units_Z   1
loop_
 _symmetry_equiv_pos_site_id
 _symmetry_equiv_pos_as_xyz
  1  'x, y, z'
loop_
 _atom_site_type_symbol
 _atom_site_label
 _atom_site_symmetry_multiplicity
 _atom_site_fract_x
 _atom_site_fract_y
 _atom_site_fract_z
 _atom_site_occupancy
  Mn  Mn0  1  0.00000000  0.00000000  0.00000000  1
  Hg  Hg0  1  0.00000000  0.00000000  0.50000000  1
  Hg  Hg1  1  0.50000000  0.50000000  0.00000000  1
  Hg  Hg2  1  0.00000000  0.50000000  0.00000000  1
  F  F0  1  0.72139900  0.17830800  0.81525400  1
  F  F1  1  0.27860100  0.82169200  0.18474600  1
  F  F2  1  0.91412000  0.96367100  0.71351400  1
  F  F3  1  0.08588000  0.03632900  0.28648600  1
  F  F4  1  0.54264100  0.83726800  0.85470500  1
  F  F5  1  0.45735900  0.16273200  0.14529500  1
loop_
_geom_bond_atom_site_label_1
_geom_bond_atom_site_label_2
_geom_bond_distance
_geom_bond_site_symmetry_2
F0 Mn0 1.886171 1_656
F1 Mn0 1.886171 1_565
F2 Hg0 2.069473 1_665
F2 Mn0 2.142912 1_666
F3 Hg0 2.069473 1_555
F3 Mn0 2.142912 1_555
F4 Mn0 1.888000 1_666
F5 Mn0 1.888000 1_555
