# generated using pymatgen
data_La5Si2BO13
_symmetry_space_group_name_H-M   'P 1'
_cell_length_a   7.25409900
_cell_length_b   9.60633000
_cell_length_c   9.61235126
_cell_angle_alpha   60.12191263
_cell_angle_beta   90.00000000
_cell_angle_gamma   90.00000000
_symmetry_Int_Tables_number   1
_chemical_formula_structural   La5Si2BO13
_chemical_formula_sum   'La10 Si4 B2 O26'
_cell_volume   580.80915515
_cell_formula_units_Z   2
loop_
 _symmetry_equiv_pos_site_id
 _symmetry_equiv_pos_as_xyz
  1  'x, y, z'
loop_
 _atom_site_type_symbol
 _atom_site_label
 _atom_site_symmetry_multiplicity
 _atom_site_fract_x
 _atom_site_fract_y
 _atom_site_fract_z
 _atom_site_occupancy
  La  La0  1  0.50000000  0.99375000  0.76773300  1
  La  La1  1  0.50000000  0.24001800  0.01302100  1
  La  La2  1  0.50000000  0.74874400  0.22440900  1
  La  La3  1  0.00000000  0.97182500  0.24926700  1
  La  La4  1  0.00000000  0.76080500  0.00123300  1
  La  La5  1  0.00000000  0.25010700  0.75863900  1
  La  La6  1  0.75162700  0.35006500  0.32738500  1
  La  La7  1  0.25208100  0.66466700  0.67060500  1
  La  La8  1  0.74791900  0.66466700  0.67060500  1
  La  La9  1  0.24837300  0.35006500  0.32738500  1
  Si  Si0  1  0.50000000  0.40174100  0.62940000  1
  Si  Si1  1  0.50000000  0.97096900  0.39917200  1
  Si  Si2  1  0.00000000  0.36634700  0.03241300  1
  Si  Si3  1  0.00000000  0.03270300  0.59613200  1
  B  B0  1  0.50000000  0.63090600  0.96574200  1
  B  B1  1  0.00000000  0.59751700  0.37201200  1
  O  O0  1  0.67029600  0.73679000  0.91488800  1
  O  O1  1  0.68204300  0.34585200  0.74708800  1
  O  O2  1  0.68271400  0.90898000  0.34442500  1
  O  O3  1  0.18332400  0.25235200  0.09097700  1
  O  O4  1  0.16997200  0.65073700  0.26286300  1
  O  O5  1  0.18273700  0.09171200  0.65507600  1
  O  O6  1  0.81667600  0.25235200  0.09097700  1
  O  O7  1  0.83002800  0.65073700  0.26286300  1
  O  O8  1  0.81726300  0.09171200  0.65507600  1
  O  O9  1  0.32970400  0.73679000  0.91488800  1
  O  O10  1  0.31795700  0.34585200  0.74708800  1
  O  O11  1  0.31728600  0.90898000  0.34442500  1
  O  O12  1  0.50000000  0.52053800  0.14647000  1
  O  O13  1  0.50000000  0.32762500  0.51001500  1
  O  O14  1  0.50000000  0.16529200  0.32515300  1
  O  O15  1  0.00000000  0.48713000  0.83759800  1
  O  O16  1  0.00000000  0.66538900  0.48181500  1
  O  O17  1  0.00000000  0.83744700  0.67286200  1
  O  O18  1  0.50000000  0.53786300  0.87671300  1
  O  O19  1  0.50000000  0.59918900  0.52921300  1
  O  O20  1  0.50000000  0.87176400  0.59668300  1
  O  O21  1  0.00000000  0.46924300  0.12668700  1
  O  O22  1  0.00000000  0.41550000  0.46214500  1
  O  O23  1  0.00000000  0.13004900  0.39891500  1
  O  O24  1  0.50000000  0.00126700  0.00360000  1
  O  O25  1  0.00000000  0.00396400  0.99634200  1
loop_
_geom_bond_atom_site_label_1
_geom_bond_atom_site_label_2
_geom_bond_distance
_geom_bond_site_symmetry_2
La0 O24 2.304060 1_566
La0 O20 2.448713 1_555
La0 O0 2.478177 1_555
La0 O9 2.478177 1_555
La0 O8 2.517866 1_565
La0 O5 2.517866 1_565
La0 O13 2.916789 1_565
La1 O24 2.339951 1_555
La1 O6 2.437444 1_555
La1 O3 2.437444 1_555
La1 O18 2.483576 1_554
La1 O10 2.592795 1_554
La1 O1 2.592795 1_554
La1 O14 2.715035 1_555
La2 O24 2.293421 1_565
La2 O4 2.531365 1_555
La2 O7 2.531365 1_555
La2 O19 2.540567 1_555
La2 O12 2.646396 1_555
La2 O11 2.688165 1_555
La2 O2 2.688165 1_555
La3 O25 2.293084 1_564
La3 O11 2.438940 1_555
La3 O2 2.438940 1_455
La3 O23 2.560818 1_565
La3 O16 2.665763 1_555
La3 O3 2.694539 1_565
La3 O6 2.694539 1_465
La4 O25 2.312805 1_564
La4 O21 2.435944 1_555
La4 O4 2.512684 1_555
La4 O7 2.512684 1_455
La4 O0 2.579362 1_454
La4 O9 2.579362 1_554
La4 O17 2.861764 1_554
La5 O25 2.330010 1_555
La5 O10 2.465044 1_555
La5 O1 2.465044 1_455
La5 O22 2.476980 1_555
La5 O8 2.563703 1_455
La5 O5 2.563703 1_555
La5 O15 2.735360 1_555
La6 O21 2.465390 1_655
La6 O13 2.466384 1_555
La6 O22 2.475992 1_655
La6 O12 2.490071 1_555
La6 O14 2.553588 1_555
La6 O23 2.595801 1_655
La6 O7 2.695538 1_555
La6 O6 2.897052 1_555
La6 O8 2.918780 1_555
La7 O15 2.470148 1_555
La7 O17 2.476908 1_555
La7 O18 2.497765 1_555
La7 O20 2.507731 1_555
La7 O19 2.515731 1_555
La7 O16 2.573821 1_555
La7 O10 2.811643 1_555
La7 O9 2.816327 1_555
La7 O11 2.868969 1_555
La8 O15 2.470148 1_655
La8 O17 2.476908 1_655
La8 O18 2.497765 1_555
La8 O20 2.507731 1_555
La8 O19 2.515731 1_555
La8 O16 2.573821 1_655
La8 O1 2.811643 1_555
La8 O0 2.816327 1_555
La8 O2 2.868969 1_555
La9 O21 2.465390 1_555
La9 O13 2.466384 1_555
La9 O22 2.475992 1_555
La9 O12 2.490071 1_555
La9 O14 2.553588 1_555
La9 O23 2.595801 1_555
La9 O4 2.695538 1_555
La9 O3 2.897052 1_555
La9 O5 2.918780 1_555
B0 O18 1.514369 1_555
B0 O9 1.517977 1_555
B0 O0 1.517977 1_555
B0 O12 1.518869 1_556
B1 O16 1.491555 1_555
B1 O22 1.516123 1_555
B1 O4 1.532322 1_555
B1 O7 1.532322 1_455
O1 Si0 1.645220 1_555
O2 Si1 1.643323 1_555
O3 Si2 1.634137 1_555
O5 Si3 1.649104 1_555
O6 Si2 1.634137 1_655
O8 Si3 1.649104 1_655
O10 Si0 1.645220 1_555
O11 Si1 1.643323 1_555
O13 Si0 1.624154 1_555
O14 Si1 1.633290 1_545
O15 Si2 1.639583 1_556
O17 Si3 1.638258 1_565
O19 Si0 1.644749 1_555
O20 Si1 1.646220 1_555
O21 Si2 1.640322 1_555
O23 Si3 1.643780 1_555
