# generated using pymatgen
data_KMnH4Cl3O2
_symmetry_space_group_name_H-M   'P 1'
_cell_length_a   6.52060800
_cell_length_b   6.97380221
_cell_length_c   9.28904744
_cell_angle_alpha   110.54371602
_cell_angle_beta   88.77633469
_cell_angle_gamma   112.58020446
_symmetry_Int_Tables_number   1
_chemical_formula_structural   KMnH4Cl3O2
_chemical_formula_sum   'K2 Mn2 H8 Cl6 O4'
_cell_volume   362.06650639
_cell_formula_units_Z   2
loop_
 _symmetry_equiv_pos_site_id
 _symmetry_equiv_pos_as_xyz
  1  'x, y, z'
loop_
 _atom_site_type_symbol
 _atom_site_label
 _atom_site_symmetry_multiplicity
 _atom_site_fract_x
 _atom_site_fract_y
 _atom_site_fract_z
 _atom_site_occupancy
  K  K0  1  0.94189300  0.84563400  0.80412600  1
  K  K1  1  0.05810700  0.15436600  0.19587400  1
  Mn  Mn0  1  0.62595300  0.29777100  0.67379900  1
  Mn  Mn1  1  0.37404700  0.70222900  0.32620100  1
  H  H0  1  0.10326000  0.72324300  0.50552200  1
  H  H1  1  0.89674000  0.27675700  0.49447800  1
  H  H2  1  0.34749600  0.81985200  0.58321100  1
  H  H3  1  0.65250400  0.18014800  0.41678900  1
  H  H4  1  0.53819300  0.30630400  0.94192500  1
  H  H5  1  0.46180700  0.69369600  0.05807500  1
  H  H6  1  0.38008200  0.42119400  0.80866100  1
  H  H7  1  0.61991800  0.57880600  0.19133900  1
  Cl  Cl0  1  0.75274600  0.71081300  0.50164200  1
  Cl  Cl1  1  0.24725400  0.28918700  0.49835800  1
  Cl  Cl2  1  0.46134000  0.89118900  0.81222300  1
  Cl  Cl3  1  0.53866000  0.10881100  0.18777700  1
  Cl  Cl4  1  0.00338100  0.33515900  0.83136300  1
  Cl  Cl5  1  0.99661900  0.66484100  0.16863700  1
  O  O0  1  0.26203600  0.78455400  0.48894000  1
  O  O1  1  0.73796400  0.21544600  0.51106000  1
  O  O2  1  0.52959900  0.40382500  0.83225800  1
  O  O3  1  0.47040100  0.59617500  0.16774200  1
loop_
_geom_bond_atom_site_label_1
_geom_bond_atom_site_label_2
_geom_bond_distance
_geom_bond_site_symmetry_2
K0 O2 3.311026 1_555
K1 O3 3.311026 1_555
Mn0 O2 1.631452 1_555
Mn0 O1 1.677503 1_555
Mn1 O3 1.631452 1_555
Mn1 O0 1.677503 1_555
H0 O0 0.988880 1_555
H0 K0 2.903924 1_455
H1 O1 0.988880 1_555
H1 K1 2.903924 1_655
H2 O0 0.949822 1_555
H3 O1 0.949822 1_555
H4 O2 1.421749 1_555
H5 O3 1.421749 1_555
H6 O2 1.063805 1_555
H7 O3 1.063805 1_555
Cl0 K0 2.775504 1_555
Cl0 Mn1 2.957534 1_555
Cl1 K1 2.775504 1_555
Cl1 Mn0 2.957534 1_555
Cl2 H2 2.089269 1_555
Cl2 K0 3.265431 1_555
Cl2 K0 3.278239 1_455
Cl3 H3 2.089269 1_555
Cl3 K1 3.265431 1_555
Cl3 K1 3.278239 1_655
Cl4 Mn0 2.767708 1_455
Cl4 K0 3.197834 1_445
Cl5 Mn1 2.767708 1_655
Cl5 K1 3.197834 1_665
