# generated using pymatgen
data_Li4MnCo2O7
_symmetry_space_group_name_H-M   'P 1'
_cell_length_a   3.02064800
_cell_length_b   5.05893492
_cell_length_c   16.73312702
_cell_angle_alpha   90.01175392
_cell_angle_beta   92.29979651
_cell_angle_gamma   91.56078977
_symmetry_Int_Tables_number   1
_chemical_formula_structural   Li4MnCo2O7
_chemical_formula_sum   'Li8 Mn2 Co4 O14'
_cell_volume   255.40232488
_cell_formula_units_Z   2
loop_
 _symmetry_equiv_pos_site_id
 _symmetry_equiv_pos_as_xyz
  1  'x, y, z'
loop_
 _atom_site_type_symbol
 _atom_site_label
 _atom_site_symmetry_multiplicity
 _atom_site_fract_x
 _atom_site_fract_y
 _atom_site_fract_z
 _atom_site_occupancy
  Li  Li0  1  0.71465100  0.92913100  0.42790600  1
  Li  Li1  1  0.13956400  0.78741800  0.28484700  1
  Li  Li2  1  0.56467400  0.64566200  0.14281500  1
  Li  Li3  1  0.00000000  0.50000000  0.00000000  1
  Li  Li4  1  0.43532600  0.35433800  0.85718500  1
  Li  Li5  1  0.86043600  0.21258200  0.71515300  1
  Li  Li6  1  0.28534900  0.07086900  0.57209400  1
  Li  Li7  1  0.50000000  0.00000000  0.00000000  1
  Mn  Mn0  1  0.79376100  0.57238000  0.57304200  1
  Mn  Mn1  1  0.20623900  0.42762000  0.42695800  1
  Co  Co0  1  0.63659200  0.27928500  0.28246800  1
  Co  Co1  1  0.06737700  0.14157900  0.13595800  1
  Co  Co2  1  0.93262300  0.85842100  0.86404200  1
  Co  Co3  1  0.36340800  0.72071500  0.71753200  1
  O  O0  1  0.21989600  0.73243100  0.49946700  1
  O  O1  1  0.64130100  0.58701900  0.35357000  1
  O  O2  1  0.11353700  0.42945700  0.21165400  1
  O  O3  1  0.51401400  0.31066400  0.07673100  1
  O  O4  1  0.95825200  0.14714500  0.92012100  1
  O  O5  1  0.35989700  0.01478500  0.78729900  1
  O  O6  1  0.82953000  0.87527800  0.64453400  1
  O  O7  1  0.17047000  0.12472200  0.35546600  1
  O  O8  1  0.64010300  0.98521500  0.21270100  1
  O  O9  1  0.04174800  0.85285500  0.07987900  1
  O  O10  1  0.48598600  0.68933600  0.92326900  1
  O  O11  1  0.88646300  0.57054300  0.78834600  1
  O  O12  1  0.35869900  0.41298100  0.64643000  1
  O  O13  1  0.78010400  0.26756900  0.50053300  1
loop_
_geom_bond_atom_site_label_1
_geom_bond_atom_site_label_2
_geom_bond_distance
_geom_bond_site_symmetry_2
Li0 O7 2.098658 1_665
Li0 O13 2.099719 1_565
Li0 O1 2.132562 1_555
Li0 O0 2.165596 1_655
Li0 O0 2.172704 1_555
Li0 O7 2.253790 1_565
Li1 O7 2.073286 1_565
Li1 O1 2.142767 1_555
Li1 O8 2.161344 1_455
Li1 O1 2.161413 1_455
Li1 O2 2.183840 1_555
Li1 O8 2.193001 1_555
Li2 O3 2.022334 1_555
Li2 O9 2.079515 1_655
Li2 O8 2.080063 1_555
Li2 O2 2.103688 1_555
Li2 O9 2.158686 1_555
Li2 O2 2.284276 1_655
Li3 O10 2.190014 1_554
Li3 O3 2.190014 1_455
Li3 O10 2.213198 1_454
Li3 O3 2.213198 1_555
Li3 O9 2.227595 1_555
Li3 O4 2.227595 1_454
Li4 O10 2.022334 1_555
Li4 O4 2.079515 1_455
Li4 O5 2.080063 1_555
Li4 O11 2.103688 1_555
Li4 O4 2.158686 1_555
Li4 O11 2.284276 1_455
Li5 O6 2.073286 1_545
Li5 O12 2.142767 1_555
Li5 O5 2.161344 1_655
Li5 O12 2.161413 1_655
Li5 O11 2.183840 1_555
Li5 O5 2.193001 1_555
Li6 O6 2.098658 1_445
Li6 O0 2.099719 1_545
Li6 O12 2.132562 1_555
Li6 O13 2.165596 1_455
Li6 O13 2.172704 1_555
Li6 O6 2.253790 1_545
Li7 O3 2.027689 1_555
Li7 O10 2.027689 1_544
Li7 O9 2.085550 1_545
Li7 O4 2.085550 1_554
Li7 O9 2.215811 1_645
Li7 O4 2.215811 1_454
Mn0 O6 1.941828 1_555
Mn0 O13 1.960453 1_555
Mn0 O0 1.974591 1_655
Mn0 O12 1.989349 1_555
Mn0 O12 2.231038 1_655
Mn0 O0 2.254267 1_555
Mn1 O7 1.941828 1_555
Mn1 O0 1.960453 1_555
Mn1 O13 1.974591 1_455
Mn1 O1 1.989349 1_555
Mn1 O1 2.231038 1_455
Mn1 O13 2.254267 1_555
Co0 O8 1.891380 1_545
Co0 O1 1.958584 1_555
Co0 O2 2.033363 1_655
Co0 O7 2.040665 1_555
Co0 O2 2.095957 1_555
Co0 O7 2.148275 1_655
Co1 O9 1.734200 1_545
Co1 O3 1.891779 1_555
Co1 O2 1.928413 1_555
Co1 O8 2.004584 1_445
Co1 O3 2.110243 1_455
Co1 O8 2.272523 1_545
Co2 O4 1.734200 1_565
Co2 O10 1.891779 1_555
Co2 O11 1.928413 1_555
Co2 O5 2.004584 1_665
Co2 O10 2.110243 1_655
Co2 O5 2.272523 1_565
Co3 O5 1.891380 1_565
Co3 O12 1.958584 1_555
Co3 O11 2.033363 1_455
Co3 O6 2.040665 1_555
Co3 O11 2.095957 1_555
Co3 O6 2.148275 1_455
