# generated using pymatgen
data_LiGe2Ir
_symmetry_space_group_name_H-M   'P 1'
_cell_length_a   4.30638748
_cell_length_b   4.30638748
_cell_length_c   4.30638748
_cell_angle_alpha   60.00000000
_cell_angle_beta   60.00000000
_cell_angle_gamma   60.00000000
_symmetry_Int_Tables_number   1
_chemical_formula_structural   LiGe2Ir
_chemical_formula_sum   'Li1 Ge2 Ir1'
_cell_volume   56.47084872
_cell_formula_units_Z   1
loop_
 _symmetry_equiv_pos_site_id
 _symmetry_equiv_pos_as_xyz
  1  'x, y, z'
loop_
 _atom_site_type_symbol
 _atom_site_label
 _atom_site_symmetry_multiplicity
 _atom_site_fract_x
 _atom_site_fract_y
 _atom_site_fract_z
 _atom_site_occupancy
  Li  Li0  1  0.00000000  -0.00000000  0.00000000  1
  Ge  Ge0  1  0.25000000  0.25000000  0.25000000  1
  Ge  Ge1  1  0.75000000  0.75000000  0.75000000  1
  Ir  Ir0  1  0.50000000  0.50000000  0.50000000  1
loop_
_geom_bond_atom_site_label_1
_geom_bond_atom_site_label_2
_geom_bond_distance
_geom_bond_site_symmetry_2
Ge0 Ir0 2.637113 1_455
Ge0 Li0 2.637113 1_655
Ge0 Li0 2.637113 1_555
Ge0 Ir0 2.637113 1_554
Ge0 Li0 2.637113 1_565
Ge0 Ir0 2.637113 1_545
Ge0 Ir0 2.637113 1_555
Ge0 Li0 2.637113 1_556
Ge1 Ir0 2.637113 1_655
Ge1 Li0 2.637113 1_566
Ge1 Li0 2.637113 1_656
Ge1 Li0 2.637113 1_665
Ge1 Ir0 2.637113 1_565
Ge1 Li0 2.637113 1_666
Ge1 Ir0 2.637113 1_555
Ge1 Ir0 2.637113 1_556
Ir0 Li0 3.045076 1_565
Ir0 Li0 3.045076 1_655
Ir0 Li0 3.045076 1_665
Ir0 Li0 3.045076 1_566
Ir0 Li0 3.045076 1_656
Ir0 Li0 3.045076 1_556
