# generated using pymatgen
data_SrMg
_symmetry_space_group_name_H-M   'P 1'
_cell_length_a   18.87782374
_cell_length_b   18.87782374
_cell_length_c   12.03666600
_cell_angle_alpha   90.00000000
_cell_angle_beta   90.00000000
_cell_angle_gamma   154.44262285
_symmetry_Int_Tables_number   1
_chemical_formula_structural   SrMg
_chemical_formula_sum   'Sr24 Mg24'
_cell_volume   1850.56801063
_cell_formula_units_Z   24
loop_
 _symmetry_equiv_pos_site_id
 _symmetry_equiv_pos_as_xyz
  1  'x, y, z'
loop_
 _atom_site_type_symbol
 _atom_site_label
 _atom_site_symmetry_multiplicity
 _atom_site_fract_x
 _atom_site_fract_y
 _atom_site_fract_z
 _atom_site_occupancy
  Sr  Sr0_0  1  0.49607400  0.00392600  0.00000000  1
  Sr  Sr0_1  1  0.49607400  0.00392600  0.50000000  1
  Sr  Sr0_2  1  0.49607400  0.50392600  0.00000000  1
  Sr  Sr0_3  1  0.49607400  0.50392600  0.50000000  1
  Sr  Sr0_4  1  0.99607400  0.00392600  0.00000000  1
  Sr  Sr0_5  1  0.99607400  0.00392600  0.50000000  1
  Sr  Sr0_6  1  0.99607400  0.50392600  0.00000000  1
  Sr  Sr0_7  1  0.99607400  0.50392600  0.50000000  1
  Sr  Sr1_0  1  0.33791950  0.16208050  0.00000000  1
  Sr  Sr1_1  1  0.33791950  0.16208050  0.50000000  1
  Sr  Sr1_2  1  0.33791950  0.66208050  0.00000000  1
  Sr  Sr1_3  1  0.33791950  0.66208050  0.50000000  1
  Sr  Sr1_4  1  0.83791950  0.16208050  0.00000000  1
  Sr  Sr1_5  1  0.83791950  0.16208050  0.50000000  1
  Sr  Sr1_6  1  0.83791950  0.66208050  0.00000000  1
  Sr  Sr1_7  1  0.83791950  0.66208050  0.50000000  1
  Sr  Sr2_0  1  0.21900550  0.28099450  0.25000000  1
  Sr  Sr2_1  1  0.21900550  0.28099450  0.75000000  1
  Sr  Sr2_2  1  0.21900550  0.78099450  0.25000000  1
  Sr  Sr2_3  1  0.21900550  0.78099450  0.75000000  1
  Sr  Sr2_4  1  0.71900550  0.28099450  0.25000000  1
  Sr  Sr2_5  1  0.71900550  0.28099450  0.75000000  1
  Sr  Sr2_6  1  0.71900550  0.78099450  0.25000000  1
  Sr  Sr2_7  1  0.71900550  0.78099450  0.75000000  1
  Mg  Mg0_0  1  0.16636750  0.33363250  0.00000000  1
  Mg  Mg0_1  1  0.16636750  0.33363250  0.50000000  1
  Mg  Mg0_2  1  0.16636750  0.83363250  0.00000000  1
  Mg  Mg0_3  1  0.16636750  0.83363250  0.50000000  1
  Mg  Mg0_4  1  0.66636750  0.33363250  0.00000000  1
  Mg  Mg0_5  1  0.66636750  0.33363250  0.50000000  1
  Mg  Mg0_6  1  0.66636750  0.83363250  0.00000000  1
  Mg  Mg0_7  1  0.66636750  0.83363250  0.50000000  1
  Mg  Mg1_0  1  0.05847900  0.44152100  0.25000000  1
  Mg  Mg1_1  1  0.05847900  0.44152100  0.75000000  1
  Mg  Mg1_2  1  0.05847900  0.94152100  0.25000000  1
  Mg  Mg1_3  1  0.05847900  0.94152100  0.75000000  1
  Mg  Mg1_4  1  0.55847900  0.44152100  0.25000000  1
  Mg  Mg1_5  1  0.55847900  0.44152100  0.75000000  1
  Mg  Mg1_6  1  0.55847900  0.94152100  0.25000000  1
  Mg  Mg1_7  1  0.55847900  0.94152100  0.75000000  1
  Mg  Mg2_0  1  0.38882150  0.11117850  0.25000000  1
  Mg  Mg2_1  1  0.38882150  0.11117850  0.75000000  1
  Mg  Mg2_2  1  0.38882150  0.61117850  0.25000000  1
  Mg  Mg2_3  1  0.38882150  0.61117850  0.75000000  1
  Mg  Mg2_4  1  0.88882150  0.11117850  0.25000000  1
  Mg  Mg2_5  1  0.88882150  0.11117850  0.75000000  1
  Mg  Mg2_6  1  0.88882150  0.61117850  0.25000000  1
  Mg  Mg2_7  1  0.88882150  0.61117850  0.75000000  1
loop_
_geom_bond_atom_site_label_1
_geom_bond_atom_site_label_2
_geom_bond_distance
_geom_bond_site_symmetry_2
Sr0_0 Sr2_3 3.795676 1_544
Sr0_0 Sr2_2 3.795676 1_545
Sr0_0 Sr2_5 3.795676 1_554
Sr0_0 Sr2_4 3.795676 1_555
Sr0_0 Sr1_2 3.974326 1_545
Sr0_0 Sr1_4 3.974326 1_555
Sr0_0 Sr0_6 4.175506 1_555
Sr0_0 Sr0_6 4.175506 1_445
Sr0_1 Sr2_2 3.795676 1_545
Sr0_1 Sr2_3 3.795676 1_545
Sr0_1 Sr2_4 3.795676 1_555
Sr0_1 Sr2_5 3.795676 1_555
Sr0_1 Sr1_3 3.974326 1_545
Sr0_1 Sr1_5 3.974326 1_555
Sr0_1 Sr0_7 4.175506 1_555
Sr0_1 Sr0_7 4.175506 1_445
Sr0_2 Sr2_1 3.795676 1_554
Sr0_2 Sr2_0 3.795676 1_555
Sr0_2 Sr2_7 3.795676 1_554
Sr0_2 Sr2_6 3.795676 1_555
Sr0_2 Sr1_0 3.974326 1_555
Sr0_2 Sr1_6 3.974326 1_555
Sr0_2 Sr0_4 4.175506 1_565
Sr0_2 Sr0_4 4.175506 1_455
Sr0_3 Sr2_0 3.795676 1_555
Sr0_3 Sr2_1 3.795676 1_555
Sr0_3 Sr2_6 3.795676 1_555
Sr0_3 Sr2_7 3.795676 1_555
Sr0_3 Sr1_1 3.974326 1_555
Sr0_3 Sr1_7 3.974326 1_555
Sr0_3 Sr0_5 4.175506 1_455
Sr0_3 Sr0_5 4.175506 1_565
Sr0_4 Sr2_7 3.795676 1_544
Sr0_4 Sr2_6 3.795676 1_545
Sr0_4 Sr2_1 3.795676 1_654
Sr0_4 Sr2_0 3.795676 1_655
Sr0_4 Sr1_0 3.974326 1_655
Sr0_4 Sr1_6 3.974326 1_545
Sr0_5 Sr2_6 3.795676 1_545
Sr0_5 Sr2_7 3.795676 1_545
Sr0_5 Sr2_0 3.795676 1_655
Sr0_5 Sr2_1 3.795676 1_655
Sr0_5 Sr1_1 3.974326 1_655
Sr0_5 Sr1_7 3.974326 1_545
Sr0_6 Sr2_5 3.795676 1_554
Sr0_6 Sr2_4 3.795676 1_555
Sr0_6 Sr2_3 3.795676 1_654
Sr0_6 Sr2_2 3.795676 1_655
Sr0_6 Sr1_4 3.974326 1_555
Sr0_6 Sr1_2 3.974326 1_655
Sr0_7 Sr2_4 3.795676 1_555
Sr0_7 Sr2_5 3.795676 1_555
Sr0_7 Sr2_2 3.795676 1_655
Sr0_7 Sr2_3 3.795676 1_655
Sr0_7 Sr1_5 3.974326 1_555
Sr0_7 Sr1_3 3.974326 1_655
Sr1_0 Sr1_6 4.175506 1_445
Sr1_0 Sr1_6 4.175506 1_555
Sr1_1 Sr1_7 4.175506 1_445
Sr1_1 Sr1_7 4.175506 1_555
Sr1_2 Sr1_4 4.175506 1_455
Sr1_2 Sr1_4 4.175506 1_565
Sr1_3 Sr1_5 4.175506 1_455
Sr1_3 Sr1_5 4.175506 1_565
Sr2_0 Sr2_6 4.175506 1_445
Sr2_0 Sr2_6 4.175506 1_555
Sr2_1 Sr2_7 4.175506 1_555
Sr2_1 Sr2_7 4.175506 1_445
Sr2_2 Sr2_4 4.175506 1_455
Sr2_2 Sr2_4 4.175506 1_565
Sr2_3 Sr2_5 4.175506 1_455
Sr2_3 Sr2_5 4.175506 1_565
Mg0_0 Sr1_2 3.564003 1_555
Mg0_0 Sr1_4 3.564003 1_455
Mg0_0 Sr2_1 3.579321 1_554
Mg0_0 Sr2_0 3.579321 1_555
Mg0_0 Sr0_2 3.601661 1_555
Mg0_0 Sr0_4 3.601661 1_455
Mg0_1 Sr1_3 3.564003 1_555
Mg0_1 Sr1_5 3.564003 1_455
Mg0_1 Sr2_0 3.579321 1_555
Mg0_1 Sr2_1 3.579321 1_555
Mg0_1 Sr0_3 3.601661 1_555
Mg0_1 Sr0_5 3.601661 1_455
Mg0_2 Sr1_6 3.564003 1_455
Mg0_2 Sr1_0 3.564003 1_565
Mg0_2 Sr2_3 3.579321 1_554
Mg0_2 Sr2_2 3.579321 1_555
Mg0_2 Sr0_0 3.601661 1_565
Mg0_2 Sr0_6 3.601661 1_455
Mg0_3 Sr1_7 3.564003 1_455
Mg0_3 Sr1_1 3.564003 1_565
Mg0_3 Sr2_2 3.579321 1_555
Mg0_3 Sr2_3 3.579321 1_555
Mg0_3 Sr0_1 3.601661 1_565
Mg0_3 Sr0_7 3.601661 1_455
Mg0_4 Sr1_6 3.564003 1_555
Mg0_4 Sr1_0 3.564003 1_555
Mg0_4 Sr2_5 3.579321 1_554
Mg0_4 Sr2_4 3.579321 1_555
Mg0_4 Sr0_6 3.601661 1_555
Mg0_4 Sr0_0 3.601661 1_555
Mg0_5 Sr1_7 3.564003 1_555
Mg0_5 Sr1_1 3.564003 1_555
Mg0_5 Sr2_4 3.579321 1_555
Mg0_5 Sr2_5 3.579321 1_555
Mg0_5 Sr0_7 3.601661 1_555
Mg0_5 Sr0_1 3.601661 1_555
Mg0_6 Sr1_2 3.564003 1_555
Mg0_6 Sr1_4 3.564003 1_565
Mg0_6 Sr2_7 3.579321 1_554
Mg0_6 Sr2_6 3.579321 1_555
Mg0_6 Sr0_4 3.601661 1_565
Mg0_6 Sr0_2 3.601661 1_555
Mg0_7 Sr1_3 3.564003 1_555
Mg0_7 Sr1_5 3.564003 1_565
Mg0_7 Sr2_6 3.579321 1_555
Mg0_7 Sr2_7 3.579321 1_555
Mg0_7 Sr0_5 3.601661 1_565
Mg0_7 Sr0_3 3.601661 1_555
Mg1_0 Sr0_6 3.786145 1_455
Mg1_0 Sr0_7 3.786145 1_455
Mg1_0 Sr1_4 3.819540 1_455
Mg1_0 Sr1_5 3.819540 1_455
Mg1_0 Sr1_3 3.819540 1_555
Mg1_0 Sr1_2 3.819540 1_555
Mg1_0 Sr2_4 3.900279 1_455
Mg1_0 Sr2_2 3.900279 1_555
Mg1_1 Sr0_6 3.786145 1_456
Mg1_1 Sr0_7 3.786145 1_455
Mg1_1 Sr1_4 3.819540 1_456
Mg1_1 Sr1_5 3.819540 1_455
Mg1_1 Sr1_2 3.819540 1_556
Mg1_1 Sr1_3 3.819540 1_555
Mg1_1 Sr2_5 3.900279 1_455
Mg1_1 Sr2_3 3.900279 1_555
Mg1_2 Sr0_5 3.786145 1_465
Mg1_2 Sr0_4 3.786145 1_465
Mg1_2 Sr1_7 3.819540 1_455
Mg1_2 Sr1_6 3.819540 1_455
Mg1_2 Sr1_0 3.819540 1_565
Mg1_2 Sr1_1 3.819540 1_565
Mg1_2 Sr2_6 3.900279 1_455
Mg1_2 Sr2_0 3.900279 1_565
Mg1_3 Sr0_4 3.786145 1_466
Mg1_3 Sr0_5 3.786145 1_465
Mg1_3 Sr1_6 3.819540 1_456
Mg1_3 Sr1_0 3.819540 1_566
Mg1_3 Sr1_7 3.819540 1_455
Mg1_3 Sr1_1 3.819540 1_565
Mg1_3 Sr2_7 3.900279 1_455
Mg1_3 Sr2_1 3.900279 1_565
Mg1_4 Sr0_2 3.786145 1_555
Mg1_4 Sr0_3 3.786145 1_555
Mg1_4 Sr1_0 3.819540 1_555
Mg1_4 Sr1_1 3.819540 1_555
Mg1_4 Sr1_6 3.819540 1_555
Mg1_4 Sr1_7 3.819540 1_555
Mg1_4 Sr2_0 3.900279 1_555
Mg1_4 Sr2_6 3.900279 1_555
Mg1_5 Sr0_2 3.786145 1_556
Mg1_5 Sr0_3 3.786145 1_555
Mg1_5 Sr1_0 3.819540 1_556
Mg1_5 Sr1_1 3.819540 1_555
Mg1_5 Sr1_6 3.819540 1_556
Mg1_5 Sr1_7 3.819540 1_555
Mg1_5 Sr2_1 3.900279 1_555
Mg1_5 Sr2_7 3.900279 1_555
Mg1_6 Sr0_1 3.786145 1_565
Mg1_6 Sr0_0 3.786145 1_565
Mg1_6 Sr1_2 3.819540 1_555
Mg1_6 Sr1_3 3.819540 1_555
Mg1_6 Sr1_4 3.819540 1_565
Mg1_6 Sr1_5 3.819540 1_565
Mg1_6 Sr2_2 3.900279 1_555
Mg1_6 Sr2_4 3.900279 1_565
Mg1_7 Sr0_0 3.786145 1_566
Mg1_7 Sr0_1 3.786145 1_565
Mg1_7 Sr1_2 3.819540 1_556
Mg1_7 Sr1_4 3.819540 1_566
Mg1_7 Sr1_3 3.819540 1_555
Mg1_7 Sr1_5 3.819540 1_565
Mg1_7 Sr2_3 3.900279 1_555
Mg1_7 Sr2_5 3.900279 1_565
Mg2_0 Sr1_1 3.545116 1_555
Mg2_0 Sr1_0 3.545116 1_555
Mg2_0 Sr2_4 3.616002 1_555
Mg2_0 Sr2_2 3.616002 1_545
Mg2_1 Sr1_0 3.545116 1_556
Mg2_1 Sr1_1 3.545116 1_555
Mg2_1 Sr2_3 3.616002 1_545
Mg2_1 Sr2_5 3.616002 1_555
Mg2_2 Sr1_3 3.545116 1_555
Mg2_2 Sr1_2 3.545116 1_555
Mg2_2 Sr2_6 3.616002 1_555
Mg2_2 Sr2_0 3.616002 1_555
Mg2_3 Sr1_2 3.545116 1_556
Mg2_3 Sr1_3 3.545116 1_555
Mg2_3 Sr2_7 3.616002 1_555
Mg2_3 Sr2_1 3.616002 1_555
Mg2_4 Sr1_4 3.545116 1_555
Mg2_4 Sr1_5 3.545116 1_555
Mg2_4 Sr2_6 3.616002 1_545
Mg2_4 Sr2_0 3.616002 1_655
Mg2_5 Sr1_4 3.545116 1_556
Mg2_5 Sr1_5 3.545116 1_555
Mg2_5 Sr2_7 3.616002 1_545
Mg2_5 Sr2_1 3.616002 1_655
Mg2_6 Sr1_6 3.545116 1_555
Mg2_6 Sr1_7 3.545116 1_555
Mg2_6 Sr2_2 3.616002 1_655
Mg2_6 Sr2_4 3.616002 1_555
Mg2_7 Sr1_6 3.545116 1_556
Mg2_7 Sr1_7 3.545116 1_555
Mg2_7 Sr2_5 3.616002 1_555
Mg2_7 Sr2_3 3.616002 1_655
