# generated using pymatgen
data_Gd2Sc3Ge4
_symmetry_space_group_name_H-M   'P 1'
_cell_length_a   7.28272100
_cell_length_b   7.52565700
_cell_length_c   14.17262800
_cell_angle_alpha   90.00000000
_cell_angle_beta   90.00000000
_cell_angle_gamma   90.00000000
_symmetry_Int_Tables_number   1
_chemical_formula_structural   Gd2Sc3Ge4
_chemical_formula_sum   'Gd8 Sc12 Ge16'
_cell_volume   776.76291154
_cell_formula_units_Z   4
loop_
 _symmetry_equiv_pos_site_id
 _symmetry_equiv_pos_as_xyz
  1  'x, y, z'
loop_
 _atom_site_type_symbol
 _atom_site_label
 _atom_site_symmetry_multiplicity
 _atom_site_fract_x
 _atom_site_fract_y
 _atom_site_fract_z
 _atom_site_occupancy
  Gd  Gd0  1  0.99830100  0.17634500  0.09612100  1
  Gd  Gd1  1  0.00169900  0.82365500  0.90387900  1
  Gd  Gd2  1  0.50169900  0.67634500  0.90387900  1
  Gd  Gd3  1  0.00169900  0.82365500  0.59612100  1
  Gd  Gd4  1  0.49830100  0.32365500  0.09612100  1
  Gd  Gd5  1  0.99830100  0.17634500  0.40387900  1
  Gd  Gd6  1  0.49830100  0.32365500  0.40387900  1
  Gd  Gd7  1  0.50169900  0.67634500  0.59612100  1
  Sc  Sc0  1  0.17556000  0.49985900  0.75000000  1
  Sc  Sc1  1  0.82444000  0.50014100  0.25000000  1
  Sc  Sc2  1  0.32444000  0.99985900  0.25000000  1
  Sc  Sc3  1  0.67556000  0.00014100  0.75000000  1
  Sc  Sc4  1  0.34051900  0.16811000  0.62465700  1
  Sc  Sc5  1  0.65948100  0.83189000  0.37534300  1
  Sc  Sc6  1  0.15948100  0.66811000  0.37534300  1
  Sc  Sc7  1  0.65948100  0.83189000  0.12465700  1
  Sc  Sc8  1  0.84051900  0.33189000  0.62465700  1
  Sc  Sc9  1  0.34051900  0.16811000  0.87534300  1
  Sc  Sc10  1  0.84051900  0.33189000  0.87534300  1
  Sc  Sc11  1  0.15948100  0.66811000  0.12465700  1
  Ge  Ge0  1  0.17682200  0.45900400  0.54164600  1
  Ge  Ge1  1  0.82317800  0.54099600  0.45835400  1
  Ge  Ge2  1  0.32317800  0.95900400  0.45835400  1
  Ge  Ge3  1  0.82317800  0.54099600  0.04164600  1
  Ge  Ge4  1  0.67682200  0.04099600  0.54164600  1
  Ge  Ge5  1  0.17682200  0.45900400  0.95835400  1
  Ge  Ge6  1  0.67682200  0.04099600  0.95835400  1
  Ge  Ge7  1  0.32317800  0.95900400  0.04164600  1
  Ge  Ge8  1  0.03933800  0.12715900  0.75000000  1
  Ge  Ge9  1  0.96066200  0.87284100  0.25000000  1
  Ge  Ge10  1  0.46066200  0.62715900  0.25000000  1
  Ge  Ge11  1  0.53933800  0.37284100  0.75000000  1
  Ge  Ge12  1  0.30722400  0.86328400  0.75000000  1
  Ge  Ge13  1  0.69277600  0.13671600  0.25000000  1
  Ge  Ge14  1  0.19277600  0.36328400  0.25000000  1
  Ge  Ge15  1  0.80722400  0.63671600  0.75000000  1
loop_
_geom_bond_atom_site_label_1
_geom_bond_atom_site_label_2
_geom_bond_distance
_geom_bond_site_symmetry_2
Gd0 Ge14 2.956571 1_655
Gd0 Ge7 2.978131 1_645
Gd0 Ge3 3.123057 1_555
Gd0 Ge13 3.129856 1_555
Gd0 Ge5 3.166639 1_654
Gd0 Ge9 3.169904 1_545
Gd0 Ge6 3.214230 1_554
Gd1 Ge15 2.956571 1_455
Gd1 Ge6 2.978131 1_465
Gd1 Ge5 3.123057 1_555
Gd1 Ge12 3.129856 1_555
Gd1 Ge3 3.166639 1_456
Gd1 Ge8 3.169904 1_565
Gd1 Ge7 3.214230 1_556
Gd2 Ge12 2.956571 1_555
Gd2 Ge5 2.978131 1_555
Gd2 Ge6 3.123057 1_565
Gd2 Ge15 3.129856 1_555
Gd2 Ge7 3.166639 1_556
Gd2 Ge11 3.169904 1_555
Gd2 Ge3 3.214230 1_556
Gd3 Ge15 2.956571 1_455
Gd3 Ge4 2.978131 1_465
Gd3 Ge0 3.123057 1_555
Gd3 Ge12 3.129856 1_555
Gd3 Ge1 3.166639 1_455
Gd3 Ge8 3.169904 1_565
Gd3 Ge2 3.214230 1_555
Gd4 Ge13 2.956571 1_555
Gd4 Ge3 2.978131 1_555
Gd4 Ge7 3.123057 1_545
Gd4 Ge14 3.129856 1_555
Gd4 Ge6 3.166639 1_554
Gd4 Ge10 3.169904 1_555
Gd4 Ge5 3.214230 1_554
Gd5 Ge14 2.956571 1_655
Gd5 Ge2 2.978131 1_645
Gd5 Ge1 3.123057 1_555
Gd5 Ge13 3.129856 1_555
Gd5 Ge0 3.166639 1_655
Gd5 Ge9 3.169904 1_545
Gd5 Ge4 3.214230 1_555
Gd6 Ge13 2.956571 1_555
Gd6 Ge1 2.978131 1_555
Gd6 Ge2 3.123057 1_545
Gd6 Ge14 3.129856 1_555
Gd6 Ge4 3.166639 1_555
Gd6 Ge10 3.169904 1_555
Gd6 Ge0 3.214230 1_555
Gd7 Ge12 2.956571 1_555
Gd7 Ge0 2.978131 1_555
Gd7 Ge4 3.123057 1_565
Gd7 Ge15 3.129856 1_555
Gd7 Ge2 3.166639 1_555
Gd7 Ge11 3.169904 1_555
Gd7 Ge1 3.214230 1_555
Ge0 Sc4 2.756414 1_555
Ge0 Sc6 2.836824 1_555
Ge0 Sc8 2.880593 1_455
Ge0 Ge1 2.899551 1_455
Ge0 Sc0 2.968901 1_555
Ge1 Sc5 2.756414 1_555
Ge1 Sc8 2.836824 1_555
Ge1 Sc6 2.880593 1_655
Ge1 Sc1 2.968901 1_555
Ge2 Sc6 2.756414 1_555
Ge2 Sc4 2.836824 1_565
Ge2 Sc5 2.880593 1_555
Ge2 Ge4 2.899551 1_565
Ge2 Sc2 2.968901 1_555
Ge3 Sc7 2.756414 1_555
Ge3 Sc10 2.836824 1_554
Ge3 Sc11 2.880593 1_655
Ge3 Ge5 2.899551 1_654
Ge3 Sc1 2.968901 1_555
Ge4 Sc8 2.756414 1_555
Ge4 Sc5 2.836824 1_545
Ge4 Sc4 2.880593 1_555
Ge4 Sc3 2.968901 1_555
Ge5 Sc9 2.756414 1_555
Ge5 Sc11 2.836824 1_556
Ge5 Sc10 2.880593 1_455
Ge5 Sc0 2.968901 1_555
Ge6 Sc10 2.756414 1_555
Ge6 Sc7 2.836824 1_546
Ge6 Sc9 2.880593 1_555
Ge6 Ge7 2.899551 1_546
Ge6 Sc3 2.968901 1_555
Ge7 Sc11 2.756414 1_555
Ge7 Sc9 2.836824 1_564
Ge7 Sc7 2.880593 1_555
Ge7 Sc2 2.968901 1_555
Ge8 Sc10 2.761547 1_455
Ge8 Sc8 2.761547 1_455
Ge8 Sc3 2.816468 1_455
Ge8 Sc9 2.839330 1_555
Ge8 Sc4 2.839330 1_555
Ge8 Sc0 2.975091 1_555
Ge9 Sc11 2.761547 1_655
Ge9 Sc6 2.761547 1_655
Ge9 Sc2 2.816468 1_655
Ge9 Sc5 2.839330 1_555
Ge9 Sc7 2.839330 1_555
Ge9 Sc1 2.975091 1_555
Ge10 Sc5 2.761547 1_555
Ge10 Sc7 2.761547 1_555
Ge10 Ge14 2.783827 1_555
Ge10 Sc1 2.816468 1_555
Ge10 Sc11 2.839330 1_555
Ge10 Sc6 2.839330 1_555
Ge10 Sc2 2.975091 1_555
Ge11 Sc9 2.761547 1_555
Ge11 Sc4 2.761547 1_555
Ge11 Ge15 2.783827 1_555
Ge11 Sc0 2.816468 1_555
Ge11 Sc10 2.839330 1_555
Ge11 Sc8 2.839330 1_555
Ge11 Sc3 2.975091 1_555
Ge12 Ge8 2.783827 1_565
Ge12 Sc3 2.873416 1_565
Ge12 Sc0 2.898228 1_555
Ge12 Sc4 2.911536 1_565
Ge12 Sc9 2.911536 1_565
Ge13 Ge9 2.783827 1_545
Ge13 Sc2 2.873416 1_545
Ge13 Sc1 2.898228 1_555
Ge13 Sc7 2.911536 1_545
Ge13 Sc5 2.911536 1_545
Ge14 Sc1 2.873416 1_455
Ge14 Sc2 2.898228 1_545
Ge14 Sc11 2.911536 1_555
Ge14 Sc6 2.911536 1_555
Ge15 Sc0 2.873416 1_655
Ge15 Sc3 2.898228 1_565
Ge15 Sc8 2.911536 1_555
Ge15 Sc10 2.911536 1_555
