# generated using pymatgen
data_Mg30FeBO32
_symmetry_space_group_name_H-M   'P 1'
_cell_length_a   8.51320200
_cell_length_b   8.51320200
_cell_length_c   8.49810300
_cell_angle_alpha   90.00000000
_cell_angle_beta   90.00000000
_cell_angle_gamma   90.00000000
_symmetry_Int_Tables_number   1
_chemical_formula_structural   Mg30FeBO32
_chemical_formula_sum   'Mg30 Fe1 B1 O32'
_cell_volume   615.89668616
_cell_formula_units_Z   1
loop_
 _symmetry_equiv_pos_site_id
 _symmetry_equiv_pos_as_xyz
  1  'x, y, z'
loop_
 _atom_site_type_symbol
 _atom_site_label
 _atom_site_symmetry_multiplicity
 _atom_site_fract_x
 _atom_site_fract_y
 _atom_site_fract_z
 _atom_site_occupancy
  Mg  Mg0  1  0.50000000  0.00000000  0.00000000  1
  Mg  Mg1  1  0.00000000  0.50000000  0.00000000  1
  Mg  Mg2  1  0.00000000  0.00000000  0.50000000  1
  Mg  Mg3  1  0.50000000  0.00000000  0.50000000  1
  Mg  Mg4  1  0.00000000  0.50000000  0.50000000  1
  Mg  Mg5  1  0.50000000  0.50000000  0.50000000  1
  Mg  Mg6  1  0.25170700  0.25170700  0.00000000  1
  Mg  Mg7  1  0.74829300  0.25170700  0.00000000  1
  Mg  Mg8  1  0.25170700  0.74829300  0.00000000  1
  Mg  Mg9  1  0.74829300  0.74829300  0.00000000  1
  Mg  Mg10  1  0.25017900  0.25017900  0.50000000  1
  Mg  Mg11  1  0.74982100  0.25017900  0.50000000  1
  Mg  Mg12  1  0.25017900  0.74982100  0.50000000  1
  Mg  Mg13  1  0.74982100  0.74982100  0.50000000  1
  Mg  Mg14  1  0.25113900  0.00000000  0.25005300  1
  Mg  Mg15  1  0.74886100  0.00000000  0.25005300  1
  Mg  Mg16  1  0.25181600  0.50000000  0.24809500  1
  Mg  Mg17  1  0.74818400  0.50000000  0.24809500  1
  Mg  Mg18  1  0.25113900  0.00000000  0.74994700  1
  Mg  Mg19  1  0.74886100  0.00000000  0.74994700  1
  Mg  Mg20  1  0.25181600  0.50000000  0.75190500  1
  Mg  Mg21  1  0.74818400  0.50000000  0.75190500  1
  Mg  Mg22  1  0.00000000  0.25113900  0.25005300  1
  Mg  Mg23  1  0.50000000  0.25181600  0.24809500  1
  Mg  Mg24  1  0.00000000  0.74886100  0.25005300  1
  Mg  Mg25  1  0.50000000  0.74818400  0.24809500  1
  Mg  Mg26  1  0.00000000  0.25113900  0.74994700  1
  Mg  Mg27  1  0.50000000  0.25181600  0.75190500  1
  Mg  Mg28  1  0.00000000  0.74886100  0.74994700  1
  Mg  Mg29  1  0.50000000  0.74818400  0.75190500  1
  Fe  Fe0  1  0.00000000  0.00000000  0.00000000  1
  B  B0  1  0.50000000  0.50000000  0.00000000  1
  O  O0  1  0.00000000  0.00000000  0.25192600  1
  O  O1  1  0.50000000  0.00000000  0.24995700  1
  O  O2  1  0.00000000  0.50000000  0.24995700  1
  O  O3  1  0.50000000  0.50000000  0.24767500  1
  O  O4  1  0.00000000  0.00000000  0.74807400  1
  O  O5  1  0.50000000  0.00000000  0.75004300  1
  O  O6  1  0.00000000  0.50000000  0.75004300  1
  O  O7  1  0.50000000  0.50000000  0.75232500  1
  O  O8  1  0.24987600  0.24987600  0.24974600  1
  O  O9  1  0.75012400  0.24987600  0.24974600  1
  O  O10  1  0.24987600  0.75012400  0.24974600  1
  O  O11  1  0.75012400  0.75012400  0.24974600  1
  O  O12  1  0.24987600  0.24987600  0.75025400  1
  O  O13  1  0.75012400  0.24987600  0.75025400  1
  O  O14  1  0.24987600  0.75012400  0.75025400  1
  O  O15  1  0.75012400  0.75012400  0.75025400  1
  O  O16  1  0.25626500  0.00000000  0.00000000  1
  O  O17  1  0.74373500  0.00000000  0.00000000  1
  O  O18  1  0.25333600  0.50000000  0.00000000  1
  O  O19  1  0.74666400  0.50000000  0.00000000  1
  O  O20  1  0.25007400  0.00000000  0.50000000  1
  O  O21  1  0.74992600  0.00000000  0.50000000  1
  O  O22  1  0.25069900  0.50000000  0.50000000  1
  O  O23  1  0.74930100  0.50000000  0.50000000  1
  O  O24  1  0.00000000  0.25626500  0.00000000  1
  O  O25  1  0.50000000  0.25333600  0.00000000  1
  O  O26  1  0.00000000  0.74373500  0.00000000  1
  O  O27  1  0.50000000  0.74666400  0.00000000  1
  O  O28  1  0.00000000  0.25007400  0.50000000  1
  O  O29  1  0.50000000  0.25069900  0.50000000  1
  O  O30  1  0.00000000  0.74992600  0.50000000  1
  O  O31  1  0.50000000  0.74930100  0.50000000  1
loop_
_geom_bond_atom_site_label_1
_geom_bond_atom_site_label_2
_geom_bond_distance
_geom_bond_site_symmetry_2
Mg0 O16 2.074965 1_555
Mg0 O17 2.074965 1_555
Mg0 O5 2.124160 1_554
Mg0 O1 2.124160 1_555
Mg0 O25 2.156701 1_555
Mg0 O27 2.156701 1_545
Mg1 O24 2.074965 1_555
Mg1 O26 2.074965 1_555
Mg1 O6 2.124160 1_554
Mg1 O2 2.124160 1_555
Mg1 O19 2.156701 1_455
Mg1 O18 2.156701 1_555
Mg2 O0 2.108158 1_555
Mg2 O4 2.108158 1_555
Mg2 O30 2.128930 1_545
Mg2 O21 2.128930 1_455
Mg2 O20 2.128930 1_555
Mg2 O28 2.128930 1_555
Mg3 O1 2.124891 1_555
Mg3 O5 2.124891 1_555
Mg3 O21 2.127671 1_555
Mg3 O20 2.127671 1_555
Mg3 O31 2.134251 1_545
Mg3 O29 2.134251 1_555
Mg4 O6 2.124891 1_555
Mg4 O2 2.124891 1_555
Mg4 O28 2.127671 1_555
Mg4 O30 2.127671 1_555
Mg4 O23 2.134251 1_455
Mg4 O22 2.134251 1_555
Mg5 O31 2.122350 1_555
Mg5 O22 2.122350 1_555
Mg5 O23 2.122350 1_555
Mg5 O29 2.122350 1_555
Mg5 O3 2.144284 1_555
Mg5 O7 2.144284 1_555
Mg6 O25 2.113814 1_555
Mg6 O18 2.113814 1_555
Mg6 O8 2.122482 1_555
Mg6 O12 2.122482 1_554
Mg6 O16 2.143184 1_555
Mg6 O24 2.143184 1_555
Mg7 O25 2.113814 1_555
Mg7 O19 2.113814 1_555
Mg7 O9 2.122482 1_555
Mg7 O13 2.122482 1_554
Mg7 O24 2.143184 1_655
Mg7 O17 2.143184 1_555
Mg8 O18 2.113814 1_555
Mg8 O27 2.113814 1_555
Mg8 O10 2.122482 1_555
Mg8 O14 2.122482 1_554
Mg8 O26 2.143184 1_555
Mg8 O16 2.143184 1_565
Mg9 O19 2.113814 1_555
Mg9 O27 2.113814 1_555
Mg9 O11 2.122482 1_555
Mg9 O15 2.122482 1_554
Mg9 O17 2.143184 1_565
Mg9 O26 2.143184 1_655
Mg10 O8 2.126687 1_555
Mg10 O12 2.126687 1_555
Mg10 O22 2.126781 1_555
Mg10 O29 2.126781 1_555
Mg10 O20 2.129825 1_555
Mg10 O28 2.129825 1_555
Mg11 O9 2.126687 1_555
Mg11 O13 2.126687 1_555
Mg11 O29 2.126781 1_555
Mg11 O23 2.126781 1_555
Mg11 O21 2.129825 1_555
Mg11 O28 2.129825 1_655
Mg12 O14 2.126687 1_555
Mg12 O10 2.126687 1_555
Mg12 O22 2.126781 1_555
Mg12 O31 2.126781 1_555
Mg12 O30 2.129825 1_555
Mg12 O20 2.129825 1_565
Mg13 O11 2.126687 1_555
Mg13 O15 2.126687 1_555
Mg13 O23 2.126781 1_555
Mg13 O31 2.126781 1_555
Mg13 O21 2.129825 1_565
Mg13 O30 2.129825 1_655
Mg14 O1 2.118604 1_555
Mg14 O20 2.124095 1_555
Mg14 O16 2.125424 1_555
Mg14 O8 2.127274 1_555
Mg14 O10 2.127274 1_545
Mg14 O0 2.138056 1_555
Mg15 O1 2.118604 1_555
Mg15 O21 2.124095 1_555
Mg15 O17 2.125424 1_555
Mg15 O9 2.127274 1_555
Mg15 O11 2.127274 1_545
Mg15 O0 2.138056 1_655
Mg16 O18 2.108377 1_555
Mg16 O3 2.112844 1_555
Mg16 O8 2.129466 1_555
Mg16 O10 2.129466 1_555
Mg16 O22 2.140736 1_555
Mg16 O2 2.143819 1_555
Mg17 O19 2.108377 1_555
Mg17 O3 2.112844 1_555
Mg17 O9 2.129466 1_555
Mg17 O11 2.129466 1_555
Mg17 O23 2.140736 1_555
Mg17 O2 2.143819 1_655
Mg18 O5 2.118604 1_555
Mg18 O20 2.124095 1_555
Mg18 O16 2.125424 1_556
Mg18 O14 2.127274 1_545
Mg18 O12 2.127274 1_555
Mg18 O4 2.138056 1_555
Mg19 O5 2.118604 1_555
Mg19 O21 2.124095 1_555
Mg19 O17 2.125424 1_556
Mg19 O15 2.127274 1_545
Mg19 O13 2.127274 1_555
Mg19 O4 2.138056 1_655
Mg20 O18 2.108377 1_556
Mg20 O7 2.112844 1_555
Mg20 O12 2.129466 1_555
Mg20 O14 2.129466 1_555
Mg20 O22 2.140736 1_555
Mg20 O6 2.143819 1_555
Mg21 O19 2.108377 1_556
Mg21 O7 2.112844 1_555
Mg21 O15 2.129466 1_555
Mg21 O13 2.129466 1_555
Mg21 O23 2.140736 1_555
Mg21 O6 2.143819 1_655
Mg22 O2 2.118604 1_555
Mg22 O28 2.124095 1_555
Mg22 O24 2.125424 1_555
Mg22 O8 2.127274 1_555
Mg22 O9 2.127274 1_455
Mg22 O0 2.138056 1_555
Mg23 O25 2.108377 1_555
Mg23 O3 2.112844 1_555
Mg23 O8 2.129466 1_555
Mg23 O9 2.129466 1_555
Mg23 O29 2.140736 1_555
Mg23 O1 2.143819 1_555
Mg24 O2 2.118604 1_555
Mg24 O30 2.124095 1_555
Mg24 O26 2.125424 1_555
Mg24 O11 2.127274 1_455
Mg24 O10 2.127274 1_555
Mg24 O0 2.138056 1_565
Mg25 O27 2.108377 1_555
Mg25 O3 2.112844 1_555
Mg25 O10 2.129466 1_555
Mg25 O11 2.129466 1_555
Mg25 O31 2.140736 1_555
Mg25 O1 2.143819 1_565
Mg26 O6 2.118604 1_555
Mg26 O28 2.124095 1_555
Mg26 O24 2.125424 1_556
Mg26 O13 2.127274 1_455
Mg26 O12 2.127274 1_555
Mg26 O4 2.138056 1_555
Mg27 O25 2.108377 1_556
Mg27 O7 2.112844 1_555
Mg27 O13 2.129466 1_555
Mg27 O12 2.129466 1_555
Mg27 O29 2.140736 1_555
Mg27 O5 2.143819 1_555
Mg28 O6 2.118604 1_555
Mg28 O30 2.124095 1_555
Mg28 O26 2.125424 1_556
Mg28 O14 2.127274 1_555
Mg28 O15 2.127274 1_455
Mg28 O4 2.138056 1_565
Mg29 O27 2.108377 1_556
Mg29 O7 2.112844 1_555
Mg29 O15 2.129466 1_555
Mg29 O14 2.129466 1_555
Mg29 O31 2.140736 1_555
Mg29 O5 2.143819 1_565
Fe0 O4 2.140893 1_554
Fe0 O0 2.140893 1_555
Fe0 O17 2.181636 1_455
Fe0 O26 2.181636 1_545
Fe0 O24 2.181636 1_555
Fe0 O16 2.181636 1_555
B0 O25 2.099900 1_555
B0 O18 2.099900 1_555
B0 O19 2.099900 1_555
B0 O27 2.099900 1_555
B0 O7 2.104768 1_554
B0 O3 2.104768 1_555
