# generated using pymatgen
data_AlSnPH18(C3Cl2)2
_symmetry_space_group_name_H-M   'P 1'
_cell_length_a   9.19312900
_cell_length_b   11.35710100
_cell_length_c   18.88850900
_cell_angle_alpha   90.00000000
_cell_angle_beta   90.00000000
_cell_angle_gamma   90.00000000
_symmetry_Int_Tables_number   1
_chemical_formula_structural   AlSnPH18(C3Cl2)2
_chemical_formula_sum   'Al4 Sn4 P4 H72 C24 Cl16'
_cell_volume   1972.09812294
_cell_formula_units_Z   4
loop_
 _symmetry_equiv_pos_site_id
 _symmetry_equiv_pos_as_xyz
  1  'x, y, z'
loop_
 _atom_site_type_symbol
 _atom_site_label
 _atom_site_symmetry_multiplicity
 _atom_site_fract_x
 _atom_site_fract_y
 _atom_site_fract_z
 _atom_site_occupancy
  Al  Al0  1  0.18937000  0.75000000  0.62462900  1
  Al  Al1  1  0.31063000  0.75000000  0.12462900  1
  Al  Al2  1  0.81063000  0.25000000  0.37537100  1
  Al  Al3  1  0.68937000  0.25000000  0.87537100  1
  Sn  Sn0  1  0.67931600  0.75000000  0.80257500  1
  Sn  Sn1  1  0.82068400  0.75000000  0.30257500  1
  Sn  Sn2  1  0.32068400  0.25000000  0.19742500  1
  Sn  Sn3  1  0.17931600  0.25000000  0.69742500  1
  P  P0  1  0.85916600  0.75000000  0.91243900  1
  P  P1  1  0.64083400  0.75000000  0.41243800  1
  P  P2  1  0.14083400  0.25000000  0.08756100  1
  P  P3  1  0.35916600  0.25000000  0.58756100  1
  H  H0  1  0.04642000  0.62862500  0.96448100  1
  H  H1  1  0.45358000  0.87137500  0.46448100  1
  H  H2  1  0.95358000  0.12862500  0.03551900  1
  H  H3  1  0.54642000  0.37137500  0.53551900  1
  H  H4  1  0.95358000  0.37137500  0.03551900  1
  H  H5  1  0.54642000  0.12862500  0.53551900  1
  H  H6  1  0.04642000  0.87137500  0.96448100  1
  H  H7  1  0.45358000  0.62862500  0.46448100  1
  H  H8  1  0.04966000  0.62255100  0.86980500  1
  H  H9  1  0.45034000  0.87744900  0.36980500  1
  H  H10  1  0.95034000  0.12255100  0.13019500  1
  H  H11  1  0.54966000  0.37744900  0.63019500  1
  H  H12  1  0.95034000  0.37744900  0.13019500  1
  H  H13  1  0.54966000  0.12255100  0.63019500  1
  H  H14  1  0.04966000  0.87744900  0.86980500  1
  H  H15  1  0.45034000  0.62255100  0.36980500  1
  H  H16  1  0.91447300  0.54166000  0.91784400  1
  H  H17  1  0.58552700  0.95834000  0.41784400  1
  H  H18  1  0.08552700  0.04166000  0.08215600  1
  H  H19  1  0.41447300  0.45834000  0.58215600  1
  H  H20  1  0.08552700  0.45834000  0.08215600  1
  H  H21  1  0.41447300  0.04166000  0.58215600  1
  H  H22  1  0.91447300  0.95834000  0.91784400  1
  H  H23  1  0.58552700  0.54166000  0.41784400  1
  H  H24  1  0.83498900  0.75000000  0.03944900  1
  H  H25  1  0.66501100  0.75000000  0.53944900  1
  H  H26  1  0.16501100  0.25000000  0.96055100  1
  H  H27  1  0.33498900  0.25000000  0.46055100  1
  H  H28  1  0.68916900  0.67131500  0.99738500  1
  H  H29  1  0.81083100  0.82868500  0.49738500  1
  H  H30  1  0.31083100  0.17131500  0.00261500  1
  H  H31  1  0.18916900  0.32868500  0.50261500  1
  H  H32  1  0.31083100  0.32868500  0.00261500  1
  H  H33  1  0.18916900  0.17131500  0.50261500  1
  H  H34  1  0.68916900  0.82868500  0.99738500  1
  H  H35  1  0.81083100  0.67131500  0.49738500  1
  H  H36  1  0.62707800  0.53810000  0.74119900  1
  H  H37  1  0.87292200  0.96190000  0.24119900  1
  H  H38  1  0.37292200  0.03810000  0.25880100  1
  H  H39  1  0.12707800  0.46190000  0.75880100  1
  H  H40  1  0.37292200  0.46190000  0.25880100  1
  H  H41  1  0.12707800  0.03810000  0.75880100  1
  H  H42  1  0.62707800  0.96190000  0.74119900  1
  H  H43  1  0.87292200  0.53810000  0.24119900  1
  H  H44  1  0.80838900  0.53812600  0.77495100  1
  H  H45  1  0.69161100  0.96187400  0.27495100  1
  H  H46  1  0.19161100  0.03812600  0.22504900  1
  H  H47  1  0.30838900  0.46187400  0.72504900  1
  H  H48  1  0.19161100  0.46187400  0.22504900  1
  H  H49  1  0.30838900  0.03812600  0.72504900  1
  H  H50  1  0.80838900  0.96187400  0.77495100  1
  H  H51  1  0.69161100  0.53812600  0.27495100  1
  H  H52  1  0.76956000  0.61298700  0.69390600  1
  H  H53  1  0.73044000  0.88701300  0.19390600  1
  H  H54  1  0.23044000  0.11298700  0.30609400  1
  H  H55  1  0.26956000  0.38701300  0.80609400  1
  H  H56  1  0.23044000  0.38701300  0.30609400  1
  H  H57  1  0.26956000  0.11298700  0.80609400  1
  H  H58  1  0.76956000  0.88701300  0.69390600  1
  H  H59  1  0.73044000  0.61298700  0.19390600  1
  H  H60  1  0.38699100  0.75000000  0.81273700  1
  H  H61  1  0.11300900  0.75000000  0.31273700  1
  H  H62  1  0.61300900  0.25000000  0.18726300  1
  H  H63  1  0.88699100  0.25000000  0.68726300  1
  H  H64  1  0.46012500  0.82921500  0.88672500  1
  H  H65  1  0.03987500  0.67078500  0.38672500  1
  H  H66  1  0.53987500  0.32921500  0.11327500  1
  H  H67  1  0.96012500  0.17078500  0.61327500  1
  H  H68  1  0.53987500  0.17078500  0.11327500  1
  H  H69  1  0.96012500  0.32921500  0.61327500  1
  H  H70  1  0.46012500  0.67078500  0.88672500  1
  H  H71  1  0.03987500  0.82921500  0.38672500  1
  C  C0  1  0.97883300  0.62302900  0.91646900  1
  C  C1  1  0.52116700  0.87697100  0.41646900  1
  C  C2  1  0.02116700  0.12302900  0.08353100  1
  C  C3  1  0.47883300  0.37697100  0.58353100  1
  C  C4  1  0.02116700  0.37697100  0.08353100  1
  C  C5  1  0.47883300  0.12302900  0.58353100  1
  C  C6  1  0.97883300  0.87697100  0.91646900  1
  C  C7  1  0.52116700  0.62302900  0.41646900  1
  C  C8  1  0.75804200  0.75000000  0.99466300  1
  C  C9  1  0.74195800  0.75000000  0.49466300  1
  C  C10  1  0.24195800  0.25000000  0.00533700  1
  C  C11  1  0.25804200  0.25000000  0.50533700  1
  C  C12  1  0.72703100  0.58982900  0.74622700  1
  C  C13  1  0.77296900  0.91017100  0.24622700  1
  C  C14  1  0.27296900  0.08982900  0.25377300  1
  C  C15  1  0.22703100  0.41017100  0.75377300  1
  C  C16  1  0.27296900  0.41017100  0.25377300  1
  C  C17  1  0.22703100  0.08982900  0.75377300  1
  C  C18  1  0.72703100  0.91017100  0.74622700  1
  C  C19  1  0.77296900  0.58982900  0.24622700  1
  C  C20  1  0.47084200  0.75000000  0.85400300  1
  C  C21  1  0.02915800  0.75000000  0.35400300  1
  C  C22  1  0.52915800  0.25000000  0.14599700  1
  C  C23  1  0.97084200  0.25000000  0.64599700  1
  Cl  Cl0  1  0.08886100  0.75000000  0.72827200  1
  Cl  Cl1  1  0.41113900  0.75000000  0.22827200  1
  Cl  Cl2  1  0.91113900  0.25000000  0.27172800  1
  Cl  Cl3  1  0.58886100  0.25000000  0.77172800  1
  Cl  Cl4  1  0.42453000  0.75000000  0.63754900  1
  Cl  Cl5  1  0.07547000  0.75000000  0.13754900  1
  Cl  Cl6  1  0.57547000  0.25000000  0.36245100  1
  Cl  Cl7  1  0.92453000  0.25000000  0.86245100  1
  Cl  Cl8  1  0.12646800  0.59359100  0.56710000  1
  Cl  Cl9  1  0.37353200  0.90640900  0.06710000  1
  Cl  Cl10  1  0.87353200  0.09359100  0.43290000  1
  Cl  Cl11  1  0.62646800  0.40640900  0.93290000  1
  Cl  Cl12  1  0.87353200  0.40640900  0.43290000  1
  Cl  Cl13  1  0.62646800  0.09359100  0.93290000  1
  Cl  Cl14  1  0.12646800  0.90640900  0.56710000  1
  Cl  Cl15  1  0.37353200  0.59359100  0.06710000  1
loop_
_geom_bond_atom_site_label_1
_geom_bond_atom_site_label_2
_geom_bond_distance
_geom_bond_site_symmetry_2
Al0 Cl14 2.161157 1_555
Al0 Cl8 2.161157 1_555
Al0 Cl0 2.164764 1_555
Al0 Cl4 2.175587 1_555
Al1 Cl9 2.161157 1_555
Al1 Cl15 2.161157 1_555
Al1 Cl1 2.164764 1_555
Al1 Cl5 2.175587 1_555
Al2 Cl12 2.161157 1_555
Al2 Cl10 2.161157 1_555
Al2 Cl2 2.164764 1_555
Al2 Cl6 2.175587 1_555
Al3 Cl11 2.161157 1_555
Al3 Cl13 2.161157 1_555
Al3 Cl3 2.164764 1_555
Al3 Cl7 2.175587 1_555
P0 Sn0 2.653299 1_555
P1 Sn1 2.653285 1_555
P2 Sn2 2.653299 1_555
P3 Sn3 2.653299 1_555
C0 H8 1.095846 1_655
C0 H16 1.097606 1_555
C0 H0 1.101145 1_655
C0 P0 1.815344 1_555
C1 H9 1.095846 1_555
C1 H17 1.097606 1_555
C1 H1 1.101145 1_555
C1 P1 1.815345 1_555
C2 H10 1.095846 1_455
C2 H18 1.097606 1_555
C2 H2 1.101145 1_455
C2 P2 1.815344 1_555
C3 H11 1.095846 1_555
C3 H19 1.097606 1_555
C3 H3 1.101145 1_555
C3 P3 1.815344 1_555
C4 H12 1.095846 1_455
C4 H20 1.097606 1_555
C4 H4 1.101145 1_455
C4 P2 1.815344 1_555
C5 H13 1.095846 1_555
C5 H21 1.097606 1_555
C5 H5 1.101145 1_555
C5 P3 1.815344 1_555
C6 H14 1.095846 1_655
C6 H22 1.097606 1_555
C6 H6 1.101145 1_655
C6 P0 1.815344 1_555
C7 H15 1.095846 1_555
C7 H23 1.097606 1_555
C7 H7 1.101145 1_555
C7 P1 1.815345 1_555
C8 H34 1.096410 1_555
C8 H28 1.096410 1_555
C8 H24 1.102727 1_556
C8 P0 1.810063 1_555
C9 H29 1.096410 1_555
C9 H35 1.096410 1_555
C9 H25 1.102727 1_555
C9 P1 1.810079 1_555
C10 H30 1.096410 1_555
C10 H32 1.096410 1_555
C10 H26 1.102727 1_554
C10 P2 1.810063 1_555
C11 H31 1.096410 1_555
C11 H33 1.096410 1_555
C11 H27 1.102727 1_555
C11 P3 1.810063 1_555
C12 H36 1.094764 1_555
C12 H44 1.094792 1_555
C12 H52 1.094853 1_555
C12 Sn0 2.152733 1_555
C13 H37 1.094764 1_555
C13 H45 1.094792 1_555
C13 H53 1.094853 1_555
C13 Sn1 2.152733 1_555
C14 H38 1.094764 1_555
C14 H46 1.094792 1_555
C14 H54 1.094853 1_555
C14 Sn2 2.152733 1_555
C15 H39 1.094764 1_555
C15 H47 1.094792 1_555
C15 H55 1.094853 1_555
C15 Sn3 2.152733 1_555
C16 H40 1.094764 1_555
C16 H48 1.094792 1_555
C16 H56 1.094853 1_555
C16 Sn2 2.152733 1_555
C17 H41 1.094764 1_555
C17 H49 1.094792 1_555
C17 H57 1.094853 1_555
C17 Sn3 2.152733 1_555
C18 H42 1.094764 1_555
C18 H50 1.094792 1_555
C18 H58 1.094853 1_555
C18 Sn0 2.152733 1_555
C19 H43 1.094764 1_555
C19 H51 1.094792 1_555
C19 H59 1.094853 1_555
C19 Sn1 2.152733 1_555
C20 H64 1.095943 1_555
C20 H70 1.095943 1_555
C20 H60 1.096249 1_555
C20 Sn0 2.148650 1_555
C21 H71 1.095943 1_555
C21 H65 1.095943 1_555
C21 H61 1.096249 1_555
C21 Sn1 2.148650 1_455
C22 H66 1.095943 1_555
C22 H68 1.095943 1_555
C22 H62 1.096249 1_555
C22 Sn2 2.148650 1_555
C23 H69 1.095943 1_555
C23 H67 1.095943 1_555
C23 H63 1.096249 1_555
C23 Sn3 2.148650 1_655
