# generated using pymatgen
data_Ca(BiAu3)2
_symmetry_space_group_name_H-M   'P 1'
_cell_length_a   5.65651912
_cell_length_b   5.65651912
_cell_length_c   13.92759824
_cell_angle_alpha   90.00000000
_cell_angle_beta   90.00000000
_cell_angle_gamma   119.99999442
_symmetry_Int_Tables_number   1
_chemical_formula_structural   Ca(BiAu3)2
_chemical_formula_sum   'Ca2 Bi4 Au12'
_cell_volume   385.92721549
_cell_formula_units_Z   2
loop_
 _symmetry_equiv_pos_site_id
 _symmetry_equiv_pos_as_xyz
  1  'x, y, z'
loop_
 _atom_site_type_symbol
 _atom_site_label
 _atom_site_symmetry_multiplicity
 _atom_site_fract_x
 _atom_site_fract_y
 _atom_site_fract_z
 _atom_site_occupancy
  Ca  Ca0  1  -0.00000000  -0.00000000  0.58409808  1
  Ca  Ca1  1  0.66666700  0.33333300  0.91328110  1
  Bi  Bi0  1  0.66666700  0.33333300  0.66599993  1
  Bi  Bi1  1  0.33333300  0.66666700  0.01133547  1
  Bi  Bi2  1  -0.00000000  -0.00000000  0.32512694  1
  Bi  Bi3  1  0.33333300  0.66666700  0.25314658  1
  Au  Au0  1  0.83222597  0.16777403  0.12223086  1
  Au  Au1  1  0.49982499  0.50017501  0.45963999  1
  Au  Au2  1  0.16672431  0.83327569  0.79251120  1
  Au  Au3  1  0.83222597  0.66445194  0.12223086  1
  Au  Au4  1  0.49982499  0.99964897  0.45963999  1
  Au  Au5  1  0.16672431  0.33344862  0.79251120  1
  Au  Au6  1  0.66666700  0.33333300  0.29244314  1
  Au  Au7  1  0.33333300  0.66666700  0.62507004  1
  Au  Au8  1  -0.00000000  -0.00000000  0.95635155  1
  Au  Au9  1  0.33554806  0.16777403  0.12223086  1
  Au  Au10  1  0.00035103  0.50017501  0.45963999  1
  Au  Au11  1  0.66655138  0.83327569  0.79251120  1
loop_
_geom_bond_atom_site_label_1
_geom_bond_atom_site_label_2
_geom_bond_distance
_geom_bond_site_symmetry_2
Bi0 Ca1 3.444033 1_555
Bi0 Ca0 3.459273 1_655
Bi0 Ca0 3.459278 1_555
Bi0 Ca0 3.459278 1_665
Bi1 Bi3 3.367848 1_555
Bi1 Ca1 3.539833 1_454
Bi1 Ca1 3.539833 1_564
Bi1 Ca1 3.539841 1_554
Bi2 Bi3 3.416199 1_545
Bi2 Bi3 3.416204 1_445
Bi2 Bi3 3.416204 1_555
Bi2 Ca0 3.606846 1_555
Au0 Au3 2.809468 1_555
Au0 Au9 2.809468 1_555
Au0 Au8 2.835381 1_654
Au0 Au3 2.847051 1_545
Au0 Au9 2.847051 1_655
Au0 Au6 2.872455 1_555
Au0 Bi1 3.222526 1_545
Au0 Bi1 3.222526 1_655
Au0 Bi2 3.269152 1_655
Au0 Ca1 3.331682 1_554
Au0 Bi3 3.365077 1_545
Au0 Bi3 3.365077 1_655
Au1 Au7 2.823009 1_555
Au1 Au4 2.825284 1_555
Au1 Au10 2.825284 1_555
Au1 Au10 2.831235 1_655
Au1 Au4 2.831235 1_545
Au1 Au6 2.845097 1_555
Au1 Bi3 3.306342 1_555
Au1 Bi0 3.306419 1_555
Au1 Ca0 3.317189 1_665
Au1 Ca0 3.317189 1_555
Au1 Bi2 3.392469 1_665
Au1 Bi2 3.392469 1_555
Au2 Au8 2.806292 1_565
Au2 Au5 2.827281 1_555
Au2 Au5 2.829238 1_565
Au2 Au7 2.846571 1_555
Au2 Ca1 3.290637 1_455
Au2 Ca1 3.290637 1_565
Au2 Ca0 3.330740 1_565
Au2 Bi0 3.332220 1_455
Au2 Bi0 3.332220 1_565
Au2 Bi1 3.457304 1_556
Au3 Au9 2.809468 1_555
Au3 Au8 2.835381 1_664
Au3 Au9 2.847051 1_665
Au3 Au6 2.872458 1_555
Au3 Bi1 3.222523 1_655
Au3 Bi1 3.222528 1_555
Au3 Bi2 3.269152 1_665
Au3 Ca1 3.331685 1_554
Au3 Bi3 3.365075 1_655
Au3 Bi3 3.365080 1_555
Au4 Au7 2.823003 1_555
Au4 Au6 2.845097 1_565
Au4 Bi3 3.306337 1_555
Au4 Bi0 3.306419 1_565
Au4 Ca0 3.317186 1_665
Au4 Ca0 3.317191 1_565
Au4 Bi2 3.392467 1_665
Au4 Bi2 3.392471 1_565
Au5 Au8 2.806292 1_555
Au5 Au7 2.846574 1_555
Au5 Ca1 3.290635 1_455
Au5 Ca1 3.290640 1_555
Au5 Ca0 3.330740 1_555
Au5 Bi0 3.332218 1_455
Au5 Bi0 3.332222 1_555
Au5 Bi1 3.457306 1_556
Au6 Au9 2.872458 1_555
Au6 Bi2 3.297362 1_655
Au6 Bi2 3.297367 1_555
Au6 Bi2 3.297367 1_665
Au6 Bi3 3.311333 1_545
Au6 Bi3 3.311333 1_655
Au6 Bi3 3.311343 1_555
Au7 Bi0 3.315169 1_455
Au7 Bi0 3.315169 1_565
Au7 Bi0 3.315178 1_555
Au7 Ca0 3.315270 1_565
Au7 Ca0 3.315275 1_555
Au7 Ca0 3.315275 1_665
Au8 Au9 2.835381 1_556
Au8 Ca1 3.320425 1_455
Au8 Ca1 3.320430 1_555
Au8 Ca1 3.320430 1_445
Au8 Bi1 3.354373 1_546
Au8 Bi1 3.354378 1_446
Au8 Bi1 3.354378 1_556
Au9 Bi1 3.222523 1_545
Au9 Bi1 3.222528 1_555
Au9 Bi2 3.269152 1_555
Au9 Ca1 3.331685 1_554
Au9 Bi3 3.365075 1_545
Au9 Bi3 3.365080 1_555
Au10 Au7 2.823003 1_555
Au10 Au4 2.825284 1_555
Au10 Au4 2.831235 1_445
Au10 Au6 2.845097 1_455
Au10 Bi3 3.306337 1_555
Au10 Bi0 3.306419 1_455
Au10 Ca0 3.317186 1_555
Au10 Ca0 3.317191 1_565
Au10 Bi2 3.392467 1_555
Au10 Bi2 3.392471 1_565
Au11 Au8 2.806292 1_665
Au11 Au2 2.827281 1_555
Au11 Au5 2.827282 1_555
Au11 Au2 2.829238 1_655
Au11 Au5 2.829238 1_665
Au11 Au7 2.846574 1_555
Au11 Ca1 3.290635 1_565
Au11 Ca1 3.290640 1_555
Au11 Ca0 3.330740 1_665
Au11 Bi0 3.332218 1_565
Au11 Bi0 3.332222 1_555
Au11 Bi1 3.457306 1_556
