# generated using pymatgen
data_TbGe3
_symmetry_space_group_name_H-M   'P 1'
_cell_length_a   3.89424577
_cell_length_b   4.02250511
_cell_length_c   10.72740178
_cell_angle_alpha   100.82063964
_cell_angle_beta   89.99988863
_cell_angle_gamma   90.00000739
_symmetry_Int_Tables_number   1
_chemical_formula_structural   TbGe3
_chemical_formula_sum   'Tb2 Ge6'
_cell_volume   165.05289370
_cell_formula_units_Z   2
loop_
 _symmetry_equiv_pos_site_id
 _symmetry_equiv_pos_as_xyz
  1  'x, y, z'
loop_
 _atom_site_type_symbol
 _atom_site_label
 _atom_site_symmetry_multiplicity
 _atom_site_fract_x
 _atom_site_fract_y
 _atom_site_fract_z
 _atom_site_occupancy
  Tb  Tb0  1  0.25000057  0.91616821  0.83233428  1
  Tb  Tb1  1  0.74999943  0.08384160  0.16768475  1
  Ge  Ge0  1  0.25000271  0.19182029  0.38469705  1
  Ge  Ge1  1  0.74999729  0.80818493  0.61531360  1
  Ge  Ge2  1  0.25000236  0.30819435  0.61915146  1
  Ge  Ge3  1  0.74999764  0.69180922  0.38085483  1
  Ge  Ge4  1  0.25000018  0.53809267  0.07550199  1
  Ge  Ge5  1  0.74999981  0.46188872  0.92446203  1
loop_
_geom_bond_atom_site_label_1
_geom_bond_atom_site_label_2
_geom_bond_distance
_geom_bond_site_symmetry_2
Ge0 Ge2 2.470371 1_555
Ge0 Ge3 2.794119 1_545
Ge0 Ge3 2.794146 1_445
Ge0 Ge3 2.805172 1_555
Ge0 Ge3 2.805200 1_455
Ge0 Tb1 3.003282 1_555
Ge0 Tb1 3.003304 1_455
Ge1 Ge3 2.470417 1_555
Ge1 Ge2 2.794120 1_565
Ge1 Ge2 2.794147 1_665
Ge1 Ge2 2.805170 1_555
Ge1 Ge2 2.805198 1_655
Ge1 Tb0 3.003349 1_555
Ge1 Tb0 3.003372 1_655
Ge2 Tb0 3.011752 1_545
Ge2 Tb0 3.018415 1_555
Ge3 Tb1 3.011651 1_565
Ge3 Tb1 3.018315 1_555
Ge4 Ge5 2.514759 1_554
Ge4 Ge5 2.514766 1_454
Ge4 Tb1 2.961979 1_565
Ge4 Tb1 2.961980 1_465
Ge4 Tb1 2.964182 1_555
Ge4 Tb1 2.964183 1_455
Ge4 Tb0 3.256835 1_554
Ge4 Tb0 3.257729 1_544
Ge5 Tb0 2.961786 1_545
Ge5 Tb0 2.961788 1_645
Ge5 Tb0 2.963994 1_555
Ge5 Tb0 2.963995 1_655
Ge5 Tb1 3.257289 1_556
Ge5 Tb1 3.258187 1_566
