# generated using pymatgen
data_CaLaFeMoO6
_symmetry_space_group_name_H-M   'P 1'
_cell_length_a   5.69632800
_cell_length_b   5.60513276
_cell_length_c   7.90975354
_cell_angle_alpha   89.23428897
_cell_angle_beta   90.00000000
_cell_angle_gamma   90.00000000
_symmetry_Int_Tables_number   1
_chemical_formula_structural   CaLaFeMoO6
_chemical_formula_sum   'Ca2 La2 Fe2 Mo2 O12'
_cell_volume   252.52539516
_cell_formula_units_Z   2
loop_
 _symmetry_equiv_pos_site_id
 _symmetry_equiv_pos_as_xyz
  1  'x, y, z'
loop_
 _atom_site_type_symbol
 _atom_site_label
 _atom_site_symmetry_multiplicity
 _atom_site_fract_x
 _atom_site_fract_y
 _atom_site_fract_z
 _atom_site_occupancy
  Ca  Ca0  1  0.54661300  0.51449200  0.25070400  1
  Ca  Ca1  1  0.95338700  0.01449200  0.75070400  1
  La  La0  1  0.03974300  0.98773000  0.24784100  1
  La  La1  1  0.46025700  0.48773000  0.74784100  1
  Fe  Fe0  1  0.50026900  0.99925700  0.00048300  1
  Fe  Fe1  1  0.99973100  0.49925700  0.50048300  1
  Mo  Mo0  1  0.50076100  0.00009500  0.49903300  1
  Mo  Mo1  1  0.99923900  0.50009500  0.99903300  1
  O  O0  1  0.02276000  0.59359800  0.74993600  1
  O  O1  1  0.21309900  0.19834800  0.94774900  1
  O  O2  1  0.20956200  0.20427900  0.54722900  1
  O  O3  1  0.29043800  0.70427900  0.04722900  1
  O  O4  1  0.28690100  0.69834800  0.44774900  1
  O  O5  1  0.47724000  0.09359800  0.24993500  1
  O  O6  1  0.52757300  0.91442000  0.75059100  1
  O  O7  1  0.71729900  0.29682000  0.55096600  1
  O  O8  1  0.71223500  0.29096000  0.95546700  1
  O  O9  1  0.78776500  0.79096000  0.45546700  1
  O  O10  1  0.78270100  0.79682000  0.05096600  1
  O  O11  1  0.97242700  0.41442000  0.25059100  1
loop_
_geom_bond_atom_site_label_1
_geom_bond_atom_site_label_2
_geom_bond_distance
_geom_bond_site_symmetry_2
Ca0 O5 2.392122 1_555
Ca0 O4 2.392224 1_555
Ca0 O3 2.409479 1_555
Ca0 O11 2.489591 1_555
Ca0 O10 2.596543 1_555
Ca0 O9 2.641713 1_555
Ca0 O8 2.826925 1_554
Ca0 O7 2.827915 1_555
Ca1 O0 2.392122 1_645
Ca1 O1 2.392224 1_655
Ca1 O2 2.409479 1_655
Ca1 O6 2.489591 1_545
Ca1 O7 2.596543 1_555
Ca1 O8 2.641713 1_555
Ca1 O9 2.826925 1_545
Ca1 O10 2.827915 1_546
La0 O10 2.399675 1_455
La0 O11 2.422583 1_465
La0 O9 2.434195 1_455
La0 O5 2.561905 1_565
La0 O4 2.654212 1_555
La0 O3 2.673727 1_555
La0 O1 2.815698 1_564
La0 O2 2.844940 1_565
La1 O7 2.399675 1_555
La1 O6 2.422583 1_555
La1 O8 2.434195 1_555
La1 O0 2.561906 1_555
La1 O1 2.654212 1_555
La1 O2 2.673727 1_555
La1 O4 2.815698 1_555
La1 O3 2.844940 1_556
Fe0 O10 2.005784 1_555
Fe0 O1 2.020578 1_564
Fe0 O6 2.045072 1_554
Fe0 O5 2.053742 1_565
Fe0 O8 2.059719 1_564
Fe0 O3 2.069478 1_555
Fe1 O7 2.005784 1_555
Fe1 O4 2.020578 1_655
Fe1 O11 2.045072 1_555
Fe1 O0 2.053750 1_655
Fe1 O9 2.059719 1_555
Fe1 O2 2.069478 1_655
Mo0 O5 2.036449 1_555
Mo0 O9 2.043639 1_545
Mo0 O6 2.046351 1_545
Mo0 O2 2.053855 1_555
Mo0 O7 2.115332 1_555
Mo0 O4 2.127802 1_545
Mo1 O0 2.036442 1_655
Mo1 O8 2.043639 1_555
Mo1 O11 2.046351 1_556
Mo1 O3 2.053855 1_656
Mo1 O10 2.115332 1_556
Mo1 O1 2.127802 1_655
