# generated using pymatgen
data_Tm2MgS4
_symmetry_space_group_name_H-M   'P 1'
_cell_length_a   12.48411000
_cell_length_b   3.80487400
_cell_length_c   13.32874400
_cell_angle_alpha   90.00000000
_cell_angle_beta   90.00000000
_cell_angle_gamma   90.00000000
_symmetry_Int_Tables_number   1
_chemical_formula_structural   Tm2MgS4
_chemical_formula_sum   'Tm8 Mg4 S16'
_cell_volume   633.12154523
_cell_formula_units_Z   4
loop_
 _symmetry_equiv_pos_site_id
 _symmetry_equiv_pos_as_xyz
  1  'x, y, z'
loop_
 _atom_site_type_symbol
 _atom_site_label
 _atom_site_symmetry_multiplicity
 _atom_site_fract_x
 _atom_site_fract_y
 _atom_site_fract_z
 _atom_site_occupancy
  Tm  Tm0  1  0.11725800  0.25000000  0.07350200  1
  Tm  Tm1  1  0.88274200  0.75000000  0.92649800  1
  Tm  Tm2  1  0.38274200  0.75000000  0.57350200  1
  Tm  Tm3  1  0.61725800  0.25000000  0.42649800  1
  Tm  Tm4  1  0.13902900  0.25000000  0.70429300  1
  Tm  Tm5  1  0.86097100  0.75000000  0.29570700  1
  Tm  Tm6  1  0.36097100  0.75000000  0.20429300  1
  Tm  Tm7  1  0.63902900  0.25000000  0.79570700  1
  Mg  Mg0  1  0.11182400  0.75000000  0.45164000  1
  Mg  Mg1  1  0.88817600  0.25000000  0.54836000  1
  Mg  Mg2  1  0.38817600  0.25000000  0.95164000  1
  Mg  Mg3  1  0.61182400  0.75000000  0.04836000  1
  S  S0  1  0.00938300  0.75000000  0.61689300  1
  S  S1  1  0.99061700  0.25000000  0.38310700  1
  S  S2  1  0.49061700  0.25000000  0.11689300  1
  S  S3  1  0.50938300  0.75000000  0.88310700  1
  S  S4  1  0.02665300  0.25000000  0.88266700  1
  S  S5  1  0.97334700  0.75000000  0.11733300  1
  S  S6  1  0.47334700  0.75000000  0.38266700  1
  S  S7  1  0.52665300  0.25000000  0.61733300  1
  S  S8  1  0.22535100  0.25000000  0.24583500  1
  S  S9  1  0.77464900  0.75000000  0.75416500  1
  S  S10  1  0.27464900  0.75000000  0.74583500  1
  S  S11  1  0.72535100  0.25000000  0.25416500  1
  S  S12  1  0.26131300  0.75000000  0.01551100  1
  S  S13  1  0.73868700  0.25000000  0.98448900  1
  S  S14  1  0.23868700  0.25000000  0.51551100  1
  S  S15  1  0.76131300  0.75000000  0.48448900  1
loop_
_geom_bond_atom_site_label_1
_geom_bond_atom_site_label_2
_geom_bond_distance
_geom_bond_site_symmetry_2
Mg0 S0 2.546970 1_555
Mg0 S1 2.596793 1_455
Mg0 S1 2.596793 1_465
Mg0 S14 2.617698 1_565
Mg0 S14 2.617698 1_555
Mg1 S1 2.546970 1_555
Mg1 S0 2.596793 1_645
Mg1 S0 2.596793 1_655
Mg1 S15 2.617698 1_555
Mg1 S15 2.617698 1_545
Mg2 S2 2.546970 1_556
Mg2 S3 2.596793 1_555
Mg2 S3 2.596793 1_545
Mg2 S12 2.617698 1_556
Mg2 S12 2.617698 1_546
Mg3 S3 2.546970 1_554
Mg3 S2 2.596793 1_565
Mg3 S2 2.596793 1_555
Mg3 S13 2.617698 1_554
Mg3 S13 2.617698 1_564
S0 Tm4 2.756070 1_555
S0 Tm4 2.756070 1_565
S1 Tm5 2.756070 1_545
S1 Tm5 2.756070 1_555
S2 Tm6 2.756070 1_555
S2 Tm6 2.756070 1_545
S3 Tm7 2.756070 1_555
S3 Tm7 2.756070 1_565
S4 Tm1 2.681109 1_445
S4 Tm1 2.681109 1_455
S4 Tm4 2.760558 1_555
S4 Tm0 2.783755 1_556
S5 Tm0 2.681109 1_665
S5 Tm0 2.681109 1_655
S5 Tm5 2.760558 1_555
S5 Tm1 2.783755 1_554
S6 Tm3 2.681109 1_565
S6 Tm3 2.681109 1_555
S6 Tm6 2.760558 1_555
S6 Tm2 2.783755 1_555
S7 Tm2 2.681109 1_545
S7 Tm2 2.681109 1_555
S7 Tm7 2.760558 1_555
S7 Tm3 2.783755 1_555
S8 Tm6 2.606228 1_555
S8 Tm6 2.606228 1_545
S8 Tm0 2.664044 1_555
S9 Tm7 2.606228 1_555
S9 Tm7 2.606228 1_565
S9 Tm1 2.664044 1_555
S10 Tm4 2.606228 1_555
S10 Tm4 2.606228 1_565
S10 Tm2 2.664044 1_555
S11 Tm5 2.606228 1_545
S11 Tm5 2.606228 1_555
S11 Tm3 2.664044 1_555
S12 Tm0 2.729643 1_565
S12 Tm0 2.729643 1_555
S12 Tm6 2.807007 1_555
S13 Tm1 2.729643 1_555
S13 Tm1 2.729643 1_545
S13 Tm7 2.807007 1_555
S14 Tm2 2.729643 1_545
S14 Tm2 2.729643 1_555
S14 Tm4 2.807007 1_555
S15 Tm3 2.729643 1_555
S15 Tm3 2.729643 1_565
S15 Tm5 2.807007 1_555
