# generated using pymatgen
data_Pr6Mn(SiS7)2
_symmetry_space_group_name_H-M   'P 1'
_cell_length_a   10.29381227
_cell_length_b   10.29381227
_cell_length_c   5.73609500
_cell_angle_alpha   90.00000000
_cell_angle_beta   90.00000000
_cell_angle_gamma   120.00000170
_symmetry_Int_Tables_number   1
_chemical_formula_structural   Pr6Mn(SiS7)2
_chemical_formula_sum   'Pr6 Mn1 Si2 S14'
_cell_volume   526.38008105
_cell_formula_units_Z   1
loop_
 _symmetry_equiv_pos_site_id
 _symmetry_equiv_pos_as_xyz
  1  'x, y, z'
loop_
 _atom_site_type_symbol
 _atom_site_label
 _atom_site_symmetry_multiplicity
 _atom_site_fract_x
 _atom_site_fract_y
 _atom_site_fract_z
 _atom_site_occupancy
  Pr  Pr0  1  0.64296100  0.87740400  0.24969400  1
  Pr  Pr1  1  0.12259600  0.76555800  0.24969400  1
  Pr  Pr2  1  0.23444200  0.35703900  0.24969400  1
  Pr  Pr3  1  0.35641700  0.12250500  0.75244600  1
  Pr  Pr4  1  0.87749500  0.23391200  0.75244600  1
  Pr  Pr5  1  0.76608800  0.64358300  0.75244600  1
  Mn  Mn0  1  0.00000000  0.00000000  0.48877400  1
  Si  Si0  1  0.33333300  0.66666700  0.83426500  1
  Si  Si1  1  0.66666700  0.33333300  0.33703200  1
  S  S0  1  0.33333300  0.66666700  0.46786000  1
  S  S1  1  0.66666700  0.33333300  0.97010100  1
  S  S2  1  0.75585300  0.91621700  0.72854100  1
  S  S3  1  0.08378300  0.83963600  0.72854100  1
  S  S4  1  0.16036400  0.24414700  0.72854100  1
  S  S5  1  0.24382800  0.08167400  0.25010200  1
  S  S6  1  0.91832600  0.16215500  0.25010200  1
  S  S7  1  0.83784500  0.75617200  0.25010200  1
  S  S8  1  0.47739000  0.59161500  0.97817000  1
  S  S9  1  0.40838500  0.88577500  0.97817000  1
  S  S10  1  0.11422500  0.52261000  0.97817000  1
  S  S11  1  0.52323400  0.40905400  0.48029100  1
  S  S12  1  0.59094600  0.11418000  0.48029100  1
  S  S13  1  0.88582000  0.47676600  0.48029100  1
loop_
_geom_bond_atom_site_label_1
_geom_bond_atom_site_label_2
_geom_bond_distance
_geom_bond_site_symmetry_2
Pr0 S7 2.843463 1_555
Pr0 S6 2.884079 1_565
Pr0 S9 2.910661 1_554
Pr0 S2 2.930906 1_555
Pr0 S8 2.995188 1_554
Pr0 S12 3.046618 1_565
Pr0 S0 3.084862 1_555
Pr0 S2 3.159461 1_554
Pr1 S5 2.843463 1_565
Pr1 S7 2.884079 1_455
Pr1 S10 2.910670 1_554
Pr1 S3 2.930903 1_555
Pr1 S9 2.995189 1_554
Pr1 S13 3.046624 1_455
Pr1 S0 3.084862 1_555
Pr1 S3 3.159458 1_554
Pr2 S6 2.843463 1_455
Pr2 S5 2.884079 1_555
Pr2 S8 2.910666 1_554
Pr2 S4 2.930905 1_555
Pr2 S10 2.995181 1_554
Pr2 S11 3.046628 1_555
Pr2 S0 3.084862 1_555
Pr2 S4 3.159461 1_554
Pr3 S4 2.861222 1_555
Pr3 S3 2.863862 1_545
Pr3 S12 2.911981 1_555
Pr3 S11 3.003540 1_555
Pr3 S5 3.030099 1_556
Pr3 S9 3.033886 1_545
Pr3 S5 3.055446 1_555
Pr3 S1 3.088217 1_555
Pr4 S2 2.861222 1_545
Pr4 S4 2.863862 1_655
Pr4 S13 2.911981 1_555
Pr4 S12 3.003540 1_555
Pr4 S6 3.030096 1_556
Pr4 S10 3.033885 1_655
Pr4 S6 3.055442 1_555
Pr4 S1 3.088210 1_555
Pr5 S3 2.861222 1_655
Pr5 S2 2.863862 1_555
Pr5 S11 2.911981 1_555
Pr5 S13 3.003540 1_555
Pr5 S7 3.030098 1_556
Pr5 S8 3.033886 1_555
Pr5 S7 3.055445 1_555
Pr5 S1 3.088219 1_555
Mn0 S5 2.602045 1_555
Mn0 S7 2.602047 1_445
Mn0 S6 2.602053 1_455
Mn0 S4 2.604616 1_555
Mn0 S2 2.604616 1_445
Mn0 S3 2.604616 1_545
S0 Si0 2.101734 1_555
S1 Si1 2.104751 1_556
S8 Si0 2.150084 1_555
S9 Si0 2.150075 1_555
S10 Si0 2.150077 1_555
S11 Si1 2.147939 1_555
S12 Si1 2.147930 1_555
S13 Si1 2.147932 1_555
