# generated using pymatgen
data_Ba3Ti2(O3F5)2
_symmetry_space_group_name_H-M   'P 1'
_cell_length_a   12.73208700
_cell_length_b   12.73208700
_cell_length_c   8.42726500
_cell_angle_alpha   90.00000000
_cell_angle_beta   90.00000000
_cell_angle_gamma   90.00000000
_symmetry_Int_Tables_number   1
_chemical_formula_structural   Ba3Ti2(O3F5)2
_chemical_formula_sum   'Ba12 Ti8 O24 F40'
_cell_volume   1366.11055192
_cell_formula_units_Z   4
loop_
 _symmetry_equiv_pos_site_id
 _symmetry_equiv_pos_as_xyz
  1  'x, y, z'
loop_
 _atom_site_type_symbol
 _atom_site_label
 _atom_site_symmetry_multiplicity
 _atom_site_fract_x
 _atom_site_fract_y
 _atom_site_fract_z
 _atom_site_occupancy
  Ba  Ba0  1  0.80281700  0.49301700  0.50000000  1
  Ba  Ba1  1  0.50698300  0.80281700  0.00000000  1
  Ba  Ba2  1  0.30281700  0.00698300  0.50000000  1
  Ba  Ba3  1  0.99301700  0.30281700  0.00000000  1
  Ba  Ba4  1  0.19718300  0.50698300  0.50000000  1
  Ba  Ba5  1  0.49301700  0.19718300  0.00000000  1
  Ba  Ba6  1  0.69718300  0.99301700  0.50000000  1
  Ba  Ba7  1  0.00698300  0.69718300  0.00000000  1
  Ba  Ba8  1  0.50000000  0.50000000  0.75000000  1
  Ba  Ba9  1  0.50000000  0.50000000  0.25000000  1
  Ba  Ba10  1  0.00000000  0.00000000  0.75000000  1
  Ba  Ba11  1  0.00000000  0.00000000  0.25000000  1
  Ti  Ti0  1  0.26090900  0.45257900  0.00000000  1
  Ti  Ti1  1  0.54742100  0.26090900  0.50000000  1
  Ti  Ti2  1  0.76090900  0.04742100  0.00000000  1
  Ti  Ti3  1  0.95257900  0.76090900  0.50000000  1
  Ti  Ti4  1  0.73909100  0.54742100  0.00000000  1
  Ti  Ti5  1  0.45257900  0.73909100  0.50000000  1
  Ti  Ti6  1  0.23909100  0.95257900  0.00000000  1
  Ti  Ti7  1  0.04742100  0.23909100  0.50000000  1
  O  O0  1  0.99583200  0.37528000  0.58482400  1
  O  O1  1  0.62472000  0.99583200  0.08482400  1
  O  O2  1  0.49583200  0.12472000  0.58482400  1
  O  O3  1  0.87528000  0.49583200  0.08482400  1
  O  O4  1  0.99583200  0.37528000  0.41517600  1
  O  O5  1  0.62472000  0.99583200  0.91517600  1
  O  O6  1  0.49583200  0.12472000  0.41517600  1
  O  O7  1  0.87528000  0.49583200  0.91517600  1
  O  O8  1  0.00416800  0.62472000  0.41517600  1
  O  O9  1  0.37528000  0.00416800  0.91517600  1
  O  O10  1  0.50416800  0.87528000  0.41517600  1
  O  O11  1  0.12472000  0.50416800  0.91517600  1
  O  O12  1  0.00416800  0.62472000  0.58482400  1
  O  O13  1  0.37528000  0.00416800  0.08482400  1
  O  O14  1  0.50416800  0.87528000  0.58482400  1
  O  O15  1  0.12472000  0.50416800  0.08482400  1
  O  O16  1  0.84928600  0.34928600  0.75000000  1
  O  O17  1  0.65071400  0.84928600  0.25000000  1
  O  O18  1  0.34928600  0.15071400  0.75000000  1
  O  O19  1  0.84928600  0.34928600  0.25000000  1
  O  O20  1  0.65071400  0.84928600  0.75000000  1
  O  O21  1  0.34928600  0.15071400  0.25000000  1
  O  O22  1  0.15071400  0.65071400  0.25000000  1
  O  O23  1  0.15071400  0.65071400  0.75000000  1
  F  F0  1  0.05608600  0.20828600  0.72906100  1
  F  F1  1  0.79171400  0.05608600  0.22906100  1
  F  F2  1  0.55608600  0.29171400  0.72906100  1
  F  F3  1  0.70828600  0.55608600  0.22906100  1
  F  F4  1  0.05608600  0.20828600  0.27093900  1
  F  F5  1  0.79171400  0.05608600  0.77093900  1
  F  F6  1  0.55608600  0.29171400  0.27093900  1
  F  F7  1  0.70828600  0.55608600  0.77093900  1
  F  F8  1  0.94391400  0.79171400  0.27093900  1
  F  F9  1  0.20828600  0.94391400  0.77093900  1
  F  F10  1  0.44391400  0.70828600  0.27093900  1
  F  F11  1  0.29171400  0.44391400  0.77093900  1
  F  F12  1  0.94391400  0.79171400  0.72906100  1
  F  F13  1  0.20828600  0.94391400  0.22906100  1
  F  F14  1  0.44391400  0.70828600  0.72906100  1
  F  F15  1  0.29171400  0.44391400  0.22906100  1
  F  F16  1  0.18520400  0.28975500  0.50000000  1
  F  F17  1  0.71024500  0.18520400  0.00000000  1
  F  F18  1  0.68520400  0.21024500  0.50000000  1
  F  F19  1  0.78975500  0.68520400  0.00000000  1
  F  F20  1  0.81479600  0.71024500  0.50000000  1
  F  F21  1  0.28975500  0.81479600  0.00000000  1
  F  F22  1  0.31479600  0.78975500  0.50000000  1
  F  F23  1  0.21024500  0.31479600  0.00000000  1
  F  F24  1  0.92434200  0.15602700  0.50000000  1
  F  F25  1  0.84397300  0.92434200  0.00000000  1
  F  F26  1  0.42434200  0.34397300  0.50000000  1
  F  F27  1  0.65602700  0.42434200  0.00000000  1
  F  F28  1  0.07565800  0.84397300  0.50000000  1
  F  F29  1  0.15602700  0.07565800  0.00000000  1
  F  F30  1  0.57565800  0.65602700  0.50000000  1
  F  F31  1  0.34397300  0.57565800  0.00000000  1
  F  F32  1  0.11228100  0.08612100  0.50000000  1
  F  F33  1  0.91387900  0.11228100  0.00000000  1
  F  F34  1  0.61228100  0.41387900  0.50000000  1
  F  F35  1  0.58612100  0.61228100  0.00000000  1
  F  F36  1  0.88771900  0.91387900  0.50000000  1
  F  F37  1  0.08612100  0.88771900  0.00000000  1
  F  F38  1  0.38771900  0.58612100  0.50000000  1
  F  F39  1  0.41387900  0.38771900  0.00000000  1
loop_
_geom_bond_atom_site_label_1
_geom_bond_atom_site_label_2
_geom_bond_distance
_geom_bond_site_symmetry_2
Ba0 F34 2.626849 1_555
Ba0 F3 2.703100 1_555
Ba0 F7 2.703100 1_555
Ba0 F20 2.769968 1_555
Ba0 O16 2.852649 1_555
Ba0 O19 2.852649 1_555
Ba0 O0 2.966029 1_555
Ba0 O4 2.966029 1_555
Ba0 O12 3.145627 1_655
Ba0 O8 3.145627 1_655
Ba1 F35 2.626849 1_555
Ba1 F10 2.703100 1_555
Ba1 F14 2.703100 1_554
Ba1 F21 2.769968 1_555
Ba1 O17 2.852649 1_555
Ba1 O20 2.852649 1_554
Ba1 O5 2.966029 1_554
Ba1 O1 2.966029 1_555
Ba1 O13 3.145627 1_565
Ba1 O9 3.145627 1_564
Ba2 F32 2.626849 1_555
Ba2 F9 2.703100 1_545
Ba2 F13 2.703100 1_545
Ba2 F22 2.769968 1_545
Ba2 O21 2.852649 1_555
Ba2 O18 2.852649 1_555
Ba2 O2 2.966029 1_555
Ba2 O6 2.966029 1_555
Ba2 O10 3.145627 1_545
Ba2 O14 3.145627 1_545
Ba3 F33 2.626849 1_555
Ba3 F4 2.703100 1_655
Ba3 F0 2.703100 1_654
Ba3 F23 2.769968 1_655
Ba3 O19 2.852649 1_555
Ba3 O16 2.852649 1_554
Ba3 O7 2.966029 1_554
Ba3 O3 2.966029 1_555
Ba3 O15 3.145627 1_655
Ba3 O11 3.145627 1_654
Ba4 F38 2.626849 1_555
Ba4 F11 2.703100 1_555
Ba4 F15 2.703100 1_555
Ba4 F16 2.769968 1_555
Ba4 O23 2.852649 1_555
Ba4 O22 2.852649 1_555
Ba4 O8 2.966029 1_555
Ba4 O12 2.966029 1_555
Ba4 O0 3.145627 1_455
Ba4 O4 3.145627 1_455
Ba5 F39 2.626849 1_555
Ba5 F6 2.703100 1_555
Ba5 F2 2.703100 1_554
Ba5 F17 2.769968 1_555
Ba5 O21 2.852649 1_555
Ba5 O18 2.852649 1_554
Ba5 O9 2.966029 1_554
Ba5 O13 2.966029 1_555
Ba5 O1 3.145627 1_545
Ba5 O5 3.145627 1_544
Ba6 F36 2.626849 1_555
Ba6 F1 2.703100 1_565
Ba6 F5 2.703100 1_565
Ba6 F18 2.769968 1_565
Ba6 O17 2.852649 1_555
Ba6 O20 2.852649 1_555
Ba6 O14 2.966029 1_555
Ba6 O10 2.966029 1_555
Ba6 O2 3.145627 1_565
Ba6 O6 3.145627 1_565
Ba7 F37 2.626849 1_555
Ba7 F8 2.703100 1_455
Ba7 F12 2.703100 1_454
Ba7 F19 2.769968 1_455
Ba7 O22 2.852649 1_555
Ba7 O23 2.852649 1_554
Ba7 O11 2.966029 1_554
Ba7 O15 2.966029 1_555
Ba7 O3 3.145627 1_455
Ba7 O7 3.145627 1_454
Ba8 F7 2.752039 1_555
Ba8 F14 2.752039 1_555
Ba8 F2 2.752039 1_555
Ba8 F11 2.752039 1_555
Ba8 F34 2.772122 1_555
Ba8 F35 2.772122 1_556
Ba8 F38 2.772122 1_555
Ba8 F39 2.772122 1_556
Ba8 F26 3.051716 1_555
Ba8 F30 3.051716 1_555
Ba8 F31 3.051716 1_556
Ba8 F27 3.051716 1_556
Ba9 F3 2.752039 1_555
Ba9 F10 2.752039 1_555
Ba9 F6 2.752039 1_555
Ba9 F15 2.752039 1_555
Ba9 F34 2.772122 1_555
Ba9 F35 2.772122 1_555
Ba9 F38 2.772122 1_555
Ba9 F39 2.772122 1_555
Ba9 F31 3.051716 1_555
Ba9 F26 3.051716 1_555
Ba9 F30 3.051716 1_555
Ba9 F27 3.051716 1_555
Ba10 F5 2.752039 1_455
Ba10 F12 2.752039 1_445
Ba10 F0 2.752039 1_555
Ba10 F9 2.752039 1_545
Ba10 F36 2.772122 1_445
Ba10 F37 2.772122 1_546
Ba10 F32 2.772122 1_555
Ba10 F33 2.772122 1_456
Ba10 F28 3.051716 1_545
Ba10 F24 3.051716 1_455
Ba10 F29 3.051716 1_556
Ba10 F25 3.051716 1_446
Ba11 F8 2.752039 1_445
Ba11 F1 2.752039 1_455
Ba11 F13 2.752039 1_545
Ba11 F4 2.752039 1_555
Ba11 F36 2.772122 1_445
Ba11 F37 2.772122 1_545
Ba11 F33 2.772122 1_455
Ba11 F32 2.772122 1_555
Ba11 F28 3.051716 1_545
Ba11 F29 3.051716 1_555
Ba11 F24 3.051716 1_455
Ba11 F25 3.051716 1_445
O0 O4 1.429669 1_555
O0 Ti7 1.987228 1_655
O1 O5 1.429669 1_554
O1 Ti2 1.987228 1_565
O2 O6 1.429669 1_555
O2 Ti1 1.987228 1_555
O3 O7 1.429669 1_554
O3 Ti4 1.987228 1_555
O4 Ti7 1.987228 1_655
O5 Ti2 1.987228 1_566
O6 Ti1 1.987228 1_555
O7 Ti4 1.987228 1_556
O8 Ti3 1.987228 1_455
O9 Ti6 1.987228 1_546
O10 O14 1.429669 1_555
O10 Ti5 1.987228 1_555
O11 O15 1.429669 1_556
O11 Ti0 1.987228 1_556
O12 O8 1.429669 1_555
O12 Ti3 1.987228 1_455
O13 O9 1.429669 1_554
O13 Ti6 1.987228 1_545
O14 Ti5 1.987228 1_555
O15 Ti0 1.987228 1_555
F0 Ti7 1.972887 1_555
F1 Ti2 1.972887 1_555
F2 Ti1 1.972887 1_555
F3 Ti4 1.972887 1_555
F4 Ti7 1.972887 1_555
F5 Ti2 1.972887 1_556
F6 Ti1 1.972887 1_555
F7 Ti4 1.972887 1_556
F8 Ti3 1.972887 1_555
F9 Ti6 1.972887 1_556
F10 Ti5 1.972887 1_555
F11 Ti0 1.972887 1_556
F12 Ti3 1.972887 1_555
F13 Ti6 1.972887 1_555
F14 Ti5 1.972887 1_555
F15 Ti0 1.972887 1_555
F16 Ti7 1.869103 1_555
F17 Ti2 1.869103 1_555
F18 Ti1 1.869103 1_555
F19 Ti4 1.869103 1_555
F20 Ti3 1.869103 1_555
F21 Ti6 1.869103 1_555
F22 Ti5 1.869103 1_555
F23 Ti0 1.869103 1_555
F24 Ti7 1.890536 1_655
F25 Ti2 1.890536 1_565
F26 Ti1 1.890536 1_555
F27 Ti4 1.890536 1_555
F28 Ti3 1.890536 1_455
F29 Ti6 1.890536 1_545
F30 Ti5 1.890536 1_555
F31 Ti0 1.890536 1_555
F32 Ti7 2.115468 1_555
F33 Ti2 2.115468 1_555
F34 Ti1 2.115468 1_555
F35 Ti4 2.115468 1_555
F36 Ti3 2.115468 1_555
F37 Ti6 2.115468 1_555
F38 Ti5 2.115468 1_555
F39 Ti0 2.115468 1_555
