# generated using pymatgen
data_PrYSn6
_symmetry_space_group_name_H-M   'P 1'
_cell_length_a   4.78744000
_cell_length_b   4.78744000
_cell_length_c   9.46748900
_cell_angle_alpha   90.00000000
_cell_angle_beta   90.00000000
_cell_angle_gamma   90.00000000
_symmetry_Int_Tables_number   1
_chemical_formula_structural   PrYSn6
_chemical_formula_sum   'Pr1 Y1 Sn6'
_cell_volume   216.99088814
_cell_formula_units_Z   1
loop_
 _symmetry_equiv_pos_site_id
 _symmetry_equiv_pos_as_xyz
  1  'x, y, z'
loop_
 _atom_site_type_symbol
 _atom_site_label
 _atom_site_symmetry_multiplicity
 _atom_site_fract_x
 _atom_site_fract_y
 _atom_site_fract_z
 _atom_site_occupancy
  Pr  Pr0  1  0.00000000  0.00000000  0.00000000  1
  Y  Y0  1  0.00000000  0.00000000  0.50000000  1
  Sn  Sn0  1  0.50000000  0.50000000  0.00000000  1
  Sn  Sn1  1  0.50000000  0.50000000  0.50000000  1
  Sn  Sn2  1  0.50000000  0.00000000  0.25481400  1
  Sn  Sn3  1  0.50000000  0.00000000  0.74518600  1
  Sn  Sn4  1  0.00000000  0.50000000  0.25481400  1
  Sn  Sn5  1  0.00000000  0.50000000  0.74518600  1
loop_
_geom_bond_atom_site_label_1
_geom_bond_atom_site_label_2
_geom_bond_distance
_geom_bond_site_symmetry_2
Pr0 Sn0 3.385231 1_445
Pr0 Sn0 3.385231 1_555
Pr0 Sn0 3.385231 1_545
Pr0 Sn0 3.385231 1_455
Pr0 Sn4 3.398500 1_555
Pr0 Sn3 3.398500 1_554
Pr0 Sn4 3.398500 1_545
Pr0 Sn3 3.398500 1_454
Pr0 Sn2 3.398500 1_455
Pr0 Sn5 3.398500 1_544
Pr0 Sn2 3.398500 1_555
Pr0 Sn5 3.398500 1_554
Sn1 Sn3 3.334413 1_555
Sn1 Sn4 3.334413 1_555
Sn1 Sn3 3.334413 1_565
Sn1 Sn4 3.334413 1_655
Sn1 Sn2 3.334413 1_565
Sn1 Sn5 3.334413 1_555
Sn1 Sn2 3.334413 1_555
Sn1 Sn5 3.334413 1_655
Sn1 Y0 3.385231 1_665
Sn1 Y0 3.385231 1_655
Sn1 Y0 3.385231 1_565
Sn1 Y0 3.385231 1_555
Sn2 Y0 3.334413 1_655
Sn2 Y0 3.334413 1_555
Sn3 Y0 3.334413 1_655
Sn3 Y0 3.334413 1_555
Sn4 Y0 3.334413 1_565
Sn4 Y0 3.334413 1_555
Sn5 Y0 3.334413 1_565
Sn5 Y0 3.334413 1_555
