# generated using pymatgen
data_Lu3Mg
_symmetry_space_group_name_H-M   'P 1'
_cell_length_a   6.82943450
_cell_length_b   6.82943450
_cell_length_c   5.47857900
_cell_angle_alpha   90.00000000
_cell_angle_beta   90.00000000
_cell_angle_gamma   119.99999631
_symmetry_Int_Tables_number   1
_chemical_formula_structural   Lu3Mg
_chemical_formula_sum   'Lu6 Mg2'
_cell_volume   221.29319774
_cell_formula_units_Z   2
loop_
 _symmetry_equiv_pos_site_id
 _symmetry_equiv_pos_as_xyz
  1  'x, y, z'
loop_
 _atom_site_type_symbol
 _atom_site_label
 _atom_site_symmetry_multiplicity
 _atom_site_fract_x
 _atom_site_fract_y
 _atom_site_fract_z
 _atom_site_occupancy
  Lu  Lu0  1  0.16852857  0.33705815  0.25000000  1
  Lu  Lu1  1  0.16852857  0.83147143  0.25000000  1
  Lu  Lu2  1  0.66294185  0.83147143  0.25000000  1
  Lu  Lu3  1  0.33705815  0.16852857  0.75000000  1
  Lu  Lu4  1  0.83147143  0.16852857  0.75000000  1
  Lu  Lu5  1  0.83147143  0.66294185  0.75000000  1
  Mg  Mg0  1  0.66666700  0.33333300  0.25000000  1
  Mg  Mg1  1  0.33333300  0.66666700  0.75000000  1
loop_
_geom_bond_atom_site_label_1
_geom_bond_atom_site_label_2
_geom_bond_distance
_geom_bond_site_symmetry_2
Lu0 Mg1 3.362157 1_554
Lu0 Mg1 3.362157 1_555
Lu0 Lu1 3.376563 1_555
Lu0 Lu2 3.376563 1_555
Lu0 Lu4 3.387890 1_455
Lu0 Lu4 3.387890 1_454
Lu0 Lu3 3.387897 1_555
Lu0 Lu3 3.387897 1_554
Lu0 Mg0 3.414781 1_455
Lu0 Mg0 3.414795 1_555
Lu0 Lu1 3.452871 1_545
Lu0 Lu2 3.452872 1_445
Lu1 Mg1 3.362157 1_555
Lu1 Mg1 3.362157 1_554
Lu1 Lu2 3.376563 1_555
Lu1 Lu3 3.387890 1_565
Lu1 Lu3 3.387890 1_564
Lu1 Lu5 3.387890 1_455
Lu1 Lu5 3.387890 1_454
Lu1 Mg0 3.414788 1_455
Lu1 Mg0 3.414788 1_565
Lu1 Lu2 3.452871 1_455
Lu2 Mg1 3.362157 1_555
Lu2 Mg1 3.362157 1_554
Lu2 Lu4 3.387890 1_565
Lu2 Lu4 3.387890 1_564
Lu2 Lu5 3.387897 1_554
Lu2 Lu5 3.387897 1_555
Lu2 Mg0 3.414781 1_565
Lu2 Mg0 3.414795 1_555
Lu3 Mg0 3.362157 1_555
Lu3 Mg0 3.362157 1_556
Lu3 Lu4 3.376563 1_555
Lu3 Lu5 3.376563 1_555
Lu3 Mg1 3.414781 1_545
Lu3 Mg1 3.414795 1_555
Lu3 Lu4 3.452871 1_455
Lu3 Lu5 3.452872 1_445
Lu4 Mg0 3.362157 1_556
Lu4 Mg0 3.362157 1_555
Lu4 Lu5 3.376563 1_555
Lu4 Mg1 3.414788 1_545
Lu4 Mg1 3.414788 1_655
Lu4 Lu5 3.452871 1_545
Lu5 Mg0 3.362157 1_556
Lu5 Mg0 3.362157 1_555
Lu5 Mg1 3.414781 1_655
Lu5 Mg1 3.414795 1_555
