# generated using pymatgen
data_Y(CO3)2
_symmetry_space_group_name_H-M   'P 1'
_cell_length_a   8.53086748
_cell_length_b   8.53086748
_cell_length_c   9.65583800
_cell_angle_alpha   90.00000000
_cell_angle_beta   90.00000000
_cell_angle_gamma   125.59120767
_symmetry_Int_Tables_number   1
_chemical_formula_structural   Y(CO3)2
_chemical_formula_sum   'Y4 C8 O24'
_cell_volume   571.43710240
_cell_formula_units_Z   4
loop_
 _symmetry_equiv_pos_site_id
 _symmetry_equiv_pos_as_xyz
  1  'x, y, z'
loop_
 _atom_site_type_symbol
 _atom_site_label
 _atom_site_symmetry_multiplicity
 _atom_site_fract_x
 _atom_site_fract_y
 _atom_site_fract_z
 _atom_site_occupancy
  Y  Y0  1  0.69850600  0.30149400  0.25000000  1
  Y  Y1  1  0.30149400  0.69850600  0.75000000  1
  Y  Y2  1  0.28939300  0.71060700  0.25000000  1
  Y  Y3  1  0.71060700  0.28939300  0.75000000  1
  C  C0  1  0.59873000  0.61126400  0.24091200  1
  C  C1  1  0.61126400  0.59873000  0.75908800  1
  C  C2  1  0.40127000  0.38873600  0.74091200  1
  C  C3  1  0.38873600  0.40127000  0.25908800  1
  C  C4  1  0.08045500  0.52677500  0.00091100  1
  C  C5  1  0.52677500  0.08045500  0.99908900  1
  C  C6  1  0.91954500  0.47322500  0.50091100  1
  C  C7  1  0.47322500  0.91954500  0.49908900  1
  O  O0  1  0.74021500  0.60205000  0.24141800  1
  O  O1  1  0.60205000  0.74021500  0.75858200  1
  O  O2  1  0.25978500  0.39795000  0.74141800  1
  O  O3  1  0.39795000  0.25978500  0.25858200  1
  O  O4  1  0.58918800  0.75124100  0.22880600  1
  O  O5  1  0.75124100  0.58918800  0.77119400  1
  O  O6  1  0.41081200  0.24875900  0.72880600  1
  O  O7  1  0.24875900  0.41081200  0.27119400  1
  O  O8  1  0.99215200  0.49349400  0.11766600  1
  O  O9  1  0.49349400  0.99215200  0.88233400  1
  O  O10  1  0.00784800  0.50650600  0.61766600  1
  O  O11  1  0.50650600  0.00784800  0.38233400  1
  O  O12  1  0.26758400  0.62722000  0.00397700  1
  O  O13  1  0.62722000  0.26758400  0.99602300  1
  O  O14  1  0.73241600  0.37278000  0.50397700  1
  O  O15  1  0.37278000  0.73241600  0.49602300  1
  O  O16  1  0.99937400  0.47708000  0.88085600  1
  O  O17  1  0.47708000  0.99937400  0.11914400  1
  O  O18  1  0.00062600  0.52292000  0.38085600  1
  O  O19  1  0.52292000  0.00062600  0.61914400  1
  O  O20  1  0.85512300  0.14487700  0.25000000  1
  O  O21  1  0.14487700  0.85512300  0.75000000  1
  O  O22  1  0.12714700  0.87285300  0.25000000  1
  O  O23  1  0.87285300  0.12714700  0.75000000  1
loop_
_geom_bond_atom_site_label_1
_geom_bond_atom_site_label_2
_geom_bond_distance
_geom_bond_site_symmetry_2
C0 O4 1.248747 1_555
C0 O0 1.254376 1_555
C1 O5 1.248747 1_555
C1 O1 1.254376 1_555
C2 O6 1.248747 1_555
C2 O2 1.254376 1_555
C3 O7 1.248747 1_555
C3 O3 1.254376 1_555
C4 O16 1.288664 1_454
C4 O8 1.292316 1_455
C4 O12 1.300498 1_555
C5 O17 1.288664 1_546
C5 O9 1.292316 1_545
C5 O13 1.300498 1_555
C6 O18 1.288664 1_655
C6 O10 1.292316 1_655
C6 O14 1.300498 1_555
C7 O19 1.288664 1_565
C7 O11 1.292316 1_565
C7 O15 1.300498 1_555
O0 Y0 2.376060 1_555
O1 Y1 2.376060 1_555
O2 Y1 2.376060 1_555
O3 Y0 2.376060 1_555
O4 Y2 2.381380 1_555
O5 Y3 2.381380 1_555
O6 Y3 2.381380 1_555
O7 Y2 2.381380 1_555
O8 Y0 2.411406 1_555
O8 Y2 2.454866 1_655
O9 Y1 2.411406 1_555
O9 Y3 2.454866 1_565
O10 Y1 2.411406 1_555
O10 Y3 2.454866 1_455
O11 Y0 2.411406 1_555
O11 Y2 2.454866 1_545
O12 Y2 2.455581 1_555
O12 Y1 2.502561 1_554
O13 Y3 2.455581 1_555
O13 Y0 2.502561 1_556
O14 Y3 2.455581 1_555
O14 Y0 2.502561 1_555
O15 Y2 2.455581 1_555
O15 Y1 2.502561 1_555
O16 Y3 2.374340 1_555
O16 Y1 2.477993 1_655
O17 Y2 2.374340 1_555
O17 Y0 2.477993 1_565
O18 Y2 2.374340 1_555
O18 Y0 2.477993 1_455
O19 Y3 2.374340 1_555
O19 Y1 2.477993 1_545
O20 Y0 2.376567 1_555
O21 Y1 2.376567 1_555
O22 Y2 2.461984 1_555
O23 Y3 2.461984 1_555
