# generated using pymatgen
data_Na5Pr4Ge4O16F
_symmetry_space_group_name_H-M   'P 1'
_cell_length_a   9.13154263
_cell_length_b   9.13154263
_cell_length_c   9.13154263
_cell_angle_alpha   95.69549007
_cell_angle_beta   95.69549007
_cell_angle_gamma   143.27522461
_symmetry_Int_Tables_number   1
_chemical_formula_structural   Na5Pr4Ge4O16F
_chemical_formula_sum   'Na5 Pr4 Ge4 O16 F1'
_cell_volume   432.13291862
_cell_formula_units_Z   1
loop_
 _symmetry_equiv_pos_site_id
 _symmetry_equiv_pos_as_xyz
  1  'x, y, z'
loop_
 _atom_site_type_symbol
 _atom_site_label
 _atom_site_symmetry_multiplicity
 _atom_site_fract_x
 _atom_site_fract_y
 _atom_site_fract_z
 _atom_site_occupancy
  Na  Na0  1  0.81905500  0.62719100  0.98339800  1
  Na  Na1  1  0.64379200  0.83565700  0.01660200  1
  Na  Na2  1  0.16434300  0.18094500  0.80813500  1
  Na  Na3  1  0.37280900  0.35620800  0.19186500  1
  Na  Na4  1  0.25000000  0.75000000  0.50000000  1
  Pr  Pr0  1  0.95629100  0.38933500  0.79801000  1
  Pr  Pr1  1  0.59132400  0.15828100  0.20199000  1
  Pr  Pr2  1  0.84171900  0.04370900  0.43304400  1
  Pr  Pr3  1  0.61066500  0.40867600  0.56695600  1
  Ge  Ge0  1  0.50759700  0.65767900  0.64497300  1
  Ge  Ge1  1  0.01270600  0.86262300  0.35502700  1
  Ge  Ge2  1  0.13737700  0.49240300  0.15008200  1
  Ge  Ge3  1  0.34232100  0.98729400  0.84991800  1
  O  O0  1  0.61102100  0.61338600  0.78442100  1
  O  O1  1  0.82896500  0.82660000  0.21557900  1
  O  O2  1  0.17340000  0.38897900  0.00236500  1
  O  O3  1  0.38661400  0.17103500  0.99763500  1
  O  O4  1  0.19801600  0.47400800  0.63109800  1
  O  O5  1  0.84291000  0.56691800  0.36890200  1
  O  O6  1  0.43308200  0.80198400  0.27599200  1
  O  O7  1  0.52599200  0.15709000  0.72400800  1
  O  O8  1  0.73303800  0.98687800  0.67704600  1
  O  O9  1  0.30983200  0.05599200  0.32295400  1
  O  O10  1  0.94400800  0.26696200  0.25383900  1
  O  O11  1  0.01312200  0.69016800  0.74616100  1
  O  O12  1  0.52763400  0.58437200  0.46475500  1
  O  O13  1  0.11961700  0.06288000  0.53524500  1
  O  O14  1  0.93712000  0.47236600  0.05673800  1
  O  O15  1  0.41562800  0.88038300  0.94326200  1
  F  F0  1  0.75000000  0.25000000  0.50000000  1
loop_
_geom_bond_atom_site_label_1
_geom_bond_atom_site_label_2
_geom_bond_distance
_geom_bond_site_symmetry_2
Na0 O0 2.410720 1_555
Na0 O14 2.469344 1_556
Na0 O1 2.598178 1_556
Na0 O3 2.608199 1_555
Na0 O11 2.745865 1_655
Na1 O1 2.410726 1_555
Na1 O15 2.469343 1_554
Na1 O0 2.598184 1_554
Na1 O2 2.608195 1_555
Na1 O10 2.745866 1_565
Na2 O2 2.410726 1_556
Na2 O13 2.469341 1_555
Na2 O3 2.598184 1_555
Na2 O0 2.608195 1_555
Na2 O8 2.745871 1_445
Na3 O3 2.410733 1_554
Na3 O12 2.469341 1_555
Na3 O2 2.598177 1_555
Na3 O1 2.608198 1_555
Na3 O9 2.745876 1_555
Na4 O5 2.608423 1_455
Na4 O4 2.608423 1_555
Na4 O6 2.608423 1_555
Na4 O7 2.608423 1_565
Ge0 O4 1.762632 1_555
Ge0 O8 1.773598 1_555
Ge0 O0 1.775632 1_555
Ge0 O12 1.796457 1_555
Ge1 O5 1.762625 1_455
Ge1 O9 1.773596 1_565
Ge1 O1 1.775638 1_455
Ge1 O13 1.796466 1_565
Ge2 O6 1.762631 1_555
Ge2 O10 1.773592 1_455
Ge2 O2 1.775625 1_555
Ge2 O14 1.796473 1_455
Ge3 O7 1.762632 1_565
Ge3 O11 1.773596 1_555
Ge3 O3 1.775632 1_565
Ge3 O15 1.796457 1_555
O0 Pr3 2.586488 1_555
O1 Pr2 2.586494 1_565
O2 Pr0 2.586494 1_454
O3 Pr1 2.586488 1_556
O4 Pr0 2.441098 1_455
O4 Pr2 2.494781 1_455
O5 Pr1 2.441095 1_555
O5 Pr3 2.494781 1_555
O6 Pr2 2.441098 1_565
O6 Pr1 2.494785 1_565
O7 Pr3 2.441105 1_555
O7 Pr0 2.494781 1_555
O8 Pr0 2.370524 1_565
O8 Pr2 2.462014 1_565
O9 Pr1 2.370517 1_555
O9 Pr3 2.462017 1_555
O10 Pr2 2.370532 1_555
O10 Pr1 2.462023 1_555
O11 Pr3 2.370530 1_455
O11 Pr0 2.462011 1_455
O12 Pr3 2.475194 1_555
O12 Pr2 2.650387 1_565
O13 Pr2 2.475195 1_455
O13 Pr3 2.650387 1_555
O14 Pr0 2.475206 1_554
O14 Pr1 2.650387 1_555
O15 Pr1 2.475205 1_566
O15 Pr0 2.650387 1_455
F0 Pr2 2.650658 1_555
F0 Pr0 2.650658 1_555
F0 Pr1 2.650660 1_555
F0 Pr3 2.650666 1_555
F0 Na4 2.876674 1_655
F0 Na4 2.876674 1_545
