# generated using pymatgen
data_YbEu(FeO2)4
_symmetry_space_group_name_H-M   'P 1'
_cell_length_a   3.52450177
_cell_length_b   8.76603321
_cell_length_c   6.08159885
_cell_angle_alpha   76.69519580
_cell_angle_beta   89.99999954
_cell_angle_gamma   89.99999809
_symmetry_Int_Tables_number   1
_chemical_formula_structural   YbEu(FeO2)4
_chemical_formula_sum   'Yb1 Eu1 Fe4 O8'
_cell_volume   182.85324708
_cell_formula_units_Z   1
loop_
 _symmetry_equiv_pos_site_id
 _symmetry_equiv_pos_as_xyz
  1  'x, y, z'
loop_
 _atom_site_type_symbol
 _atom_site_label
 _atom_site_symmetry_multiplicity
 _atom_site_fract_x
 _atom_site_fract_y
 _atom_site_fract_z
 _atom_site_occupancy
  Yb  Yb0  1  0.50000000  0.00000000  0.50000000  1
  Eu  Eu0  1  0.00000000  0.00000000  0.00000000  1
  Fe  Fe0  1  0.50000000  0.35690000  0.71310400  1
  Fe  Fe1  1  0.00000000  0.35397900  0.21674100  1
  Fe  Fe2  1  0.50000000  0.64310000  0.28689600  1
  Fe  Fe3  1  0.00000000  0.64602100  0.78325900  1
  O  O0  1  0.50000000  0.13891900  0.78121600  1
  O  O1  1  0.00000000  0.13741200  0.29406400  1
  O  O2  1  0.50000000  0.86108100  0.21878400  1
  O  O3  1  0.00000000  0.86258800  0.70593600  1
  O  O4  1  0.50000000  0.60626600  0.63261400  1
  O  O5  1  0.00000000  0.60804700  0.13052400  1
  O  O6  1  0.50000000  0.39373400  0.36738600  1
  O  O7  1  0.00000000  0.39195300  0.86947600  1
loop_
_geom_bond_atom_site_label_1
_geom_bond_atom_site_label_2
_geom_bond_distance
_geom_bond_site_symmetry_2
Eu0 O0 2.369198 1_454
Eu0 O2 2.369198 1_545
Eu0 O0 2.369198 1_554
Eu0 O2 2.369198 1_445
Eu0 O3 2.375029 1_544
Eu0 O1 2.375029 1_555
Fe0 O0 1.859716 1_555
Fe0 O6 2.052408 1_555
Fe0 O7 2.058841 1_555
Fe0 O7 2.058842 1_655
Fe0 O4 2.127322 1_555
Fe1 O1 1.847780 1_555
Fe1 O6 2.052628 1_455
Fe1 O6 2.052628 1_555
Fe1 O7 2.060939 1_554
Fe1 O5 2.167422 1_555
Fe2 O2 1.859716 1_555
Fe2 O4 2.052408 1_555
Fe2 O5 2.058841 1_655
Fe2 O5 2.058842 1_555
Fe2 O6 2.127322 1_555
Fe3 O3 1.847780 1_555
Fe3 O4 2.052628 1_555
Fe3 O4 2.052628 1_455
Fe3 O5 2.060939 1_556
Fe3 O7 2.167422 1_555
O0 Yb0 2.316564 1_555
O1 Yb0 2.330383 1_555
O1 Yb0 2.330383 1_455
O2 Yb0 2.316564 1_565
O3 Yb0 2.330383 1_465
O3 Yb0 2.330383 1_565
