# generated using pymatgen
data_Cs2LiV3F12
_symmetry_space_group_name_H-M   'P 1'
_cell_length_a   7.44508713
_cell_length_b   7.44508713
_cell_length_c   7.44508677
_cell_angle_alpha   60.94370060
_cell_angle_beta   60.94370060
_cell_angle_gamma   60.94369693
_symmetry_Int_Tables_number   1
_chemical_formula_structural   Cs2LiV3F12
_chemical_formula_sum   'Cs2 Li1 V3 F12'
_cell_volume   298.01127605
_cell_formula_units_Z   1
loop_
 _symmetry_equiv_pos_site_id
 _symmetry_equiv_pos_as_xyz
  1  'x, y, z'
loop_
 _atom_site_type_symbol
 _atom_site_label
 _atom_site_symmetry_multiplicity
 _atom_site_fract_x
 _atom_site_fract_y
 _atom_site_fract_z
 _atom_site_occupancy
  Cs  Cs0  1  0.36347600  0.36347600  0.36347600  1
  Cs  Cs1  1  0.63652400  0.63652400  0.63652400  1
  Li  Li0  1  0.00000000  0.00000000  0.00000000  1
  V  V0  1  0.50000000  0.00000000  0.00000000  1
  V  V1  1  0.00000000  0.00000000  0.50000000  1
  V  V2  1  0.00000000  0.50000000  0.00000000  1
  F  F0  1  0.93116200  0.31654200  0.31654200  1
  F  F1  1  0.32949100  0.93111000  0.93111000  1
  F  F2  1  0.31654200  0.31654200  0.93116200  1
  F  F3  1  0.93111000  0.93111000  0.32949100  1
  F  F4  1  0.93111000  0.32949100  0.93111000  1
  F  F5  1  0.31654200  0.93116200  0.31654200  1
  F  F6  1  0.06883800  0.68345800  0.68345800  1
  F  F7  1  0.67050900  0.06889000  0.06889000  1
  F  F8  1  0.68345800  0.68345800  0.06883800  1
  F  F9  1  0.06889000  0.06889000  0.67050900  1
  F  F10  1  0.06889000  0.67050900  0.06889000  1
  F  F11  1  0.68345800  0.06883800  0.68345800  1
loop_
_geom_bond_atom_site_label_1
_geom_bond_atom_site_label_2
_geom_bond_distance
_geom_bond_site_symmetry_2
Cs0 F10 3.127063 1_555
Cs0 F7 3.127063 1_555
Cs0 F9 3.127063 1_555
Cs0 F11 3.394577 1_555
Cs0 F6 3.394577 1_555
Cs0 F8 3.394577 1_555
Cs1 F4 3.127063 1_555
Cs1 F1 3.127063 1_555
Cs1 F3 3.127063 1_555
Cs1 F5 3.394577 1_555
Cs1 F0 3.394577 1_555
Cs1 F2 3.394577 1_555
F0 V2 2.015516 1_655
F0 V1 2.015516 1_655
F1 V0 1.912593 1_566
F1 Li0 2.086879 1_566
F2 V2 2.015516 1_556
F2 V0 2.015516 1_556
F3 V1 1.912593 1_665
F3 Li0 2.086879 1_665
F4 V2 1.912593 1_656
F4 Li0 2.086879 1_656
F5 V0 2.015516 1_565
F5 V1 2.015516 1_565
F6 V2 2.015516 1_556
F6 V1 2.015516 1_565
F7 V0 1.912593 1_555
F7 Li0 2.086879 1_655
F8 V2 2.015516 1_655
F8 V0 2.015516 1_565
F9 V1 1.912593 1_555
F9 Li0 2.086879 1_556
F10 V2 1.912593 1_555
F10 Li0 2.086879 1_565
F11 V0 2.015516 1_556
F11 V1 2.015516 1_655
