# generated using pymatgen
data_H16C3S3(N3O)2
_symmetry_space_group_name_H-M   'P 1'
_cell_length_a   6.04229714
_cell_length_b   6.04229714
_cell_length_c   17.46247689
_cell_angle_alpha   88.99072596
_cell_angle_beta   88.99072596
_cell_angle_gamma   93.09557572
_symmetry_Int_Tables_number   1
_chemical_formula_structural   H16C3S3(N3O)2
_chemical_formula_sum   'H32 C6 S6 N12 O4'
_cell_volume   636.40466041
_cell_formula_units_Z   2
loop_
 _symmetry_equiv_pos_site_id
 _symmetry_equiv_pos_as_xyz
  1  'x, y, z'
loop_
 _atom_site_type_symbol
 _atom_site_label
 _atom_site_symmetry_multiplicity
 _atom_site_fract_x
 _atom_site_fract_y
 _atom_site_fract_z
 _atom_site_occupancy
  H  H0  1  0.02797000  0.22674600  0.04779500  1
  H  H1  1  0.77325400  0.97203000  0.45220500  1
  H  H2  1  0.97203000  0.77325400  0.95220500  1
  H  H3  1  0.22674600  0.02797000  0.54779500  1
  H  H4  1  0.74638800  0.23152800  0.02366300  1
  H  H5  1  0.76847200  0.25361200  0.47633700  1
  H  H6  1  0.25361200  0.76847200  0.97633700  1
  H  H7  1  0.23152800  0.74638800  0.52366300  1
  H  H8  1  0.30017700  0.25821500  0.95767400  1
  H  H9  1  0.74178500  0.69982300  0.54232600  1
  H  H10  1  0.69982300  0.74178500  0.04232600  1
  H  H11  1  0.25821500  0.30017700  0.45767400  1
  H  H12  1  0.23816600  0.31584400  0.86143400  1
  H  H13  1  0.68415600  0.76183400  0.63856600  1
  H  H14  1  0.76183400  0.68415600  0.13856600  1
  H  H15  1  0.31584400  0.23816600  0.36143400  1
  H  H16  1  0.88206200  0.86395200  0.27472600  1
  H  H17  1  0.13604800  0.11793800  0.22527400  1
  H  H18  1  0.11793800  0.13604800  0.72527400  1
  H  H19  1  0.86395200  0.88206200  0.77472600  1
  H  H20  1  0.60715000  0.93169400  0.29386200  1
  H  H21  1  0.06830600  0.39285000  0.20613800  1
  H  H22  1  0.39285000  0.06830600  0.70613800  1
  H  H23  1  0.93169400  0.60715000  0.79386200  1
  H  H24  1  0.41234800  0.10146500  0.09448400  1
  H  H25  1  0.89853500  0.58765200  0.40551600  1
  H  H26  1  0.58765200  0.89853500  0.90551600  1
  H  H27  1  0.10146500  0.41234800  0.59448400  1
  H  H28  1  0.42864300  0.36194700  0.09487100  1
  H  H29  1  0.63805300  0.57135700  0.40512900  1
  H  H30  1  0.57135700  0.63805300  0.90512900  1
  H  H31  1  0.36194700  0.42864300  0.59487100  1
  C  C0  1  0.96896000  0.26276700  0.93327500  1
  C  C1  1  0.73723300  0.03104000  0.56672500  1
  C  C2  1  0.03104000  0.73723300  0.06672500  1
  C  C3  1  0.26276700  0.96896000  0.43327500  1
  C  C4  1  0.81275100  0.18724900  0.25000000  1
  C  C5  1  0.18724900  0.81275100  0.75000000  1
  S  S0  1  0.77152400  0.28326100  0.86416000  1
  S  S1  1  0.71673900  0.22847600  0.63584000  1
  S  S2  1  0.22847600  0.71673900  0.13584000  1
  S  S3  1  0.28326100  0.77152400  0.36416000  1
  S  S4  1  0.61816800  0.38183200  0.25000000  1
  S  S5  1  0.38183200  0.61816800  0.75000000  1
  N  N0  1  0.90992900  0.23498400  0.00715100  1
  N  N1  1  0.76501600  0.09007100  0.49284900  1
  N  N2  1  0.09007100  0.76501600  0.99284900  1
  N  N3  1  0.23498400  0.90992900  0.50715100  1
  N  N4  1  0.18576900  0.26804900  0.91525100  1
  N  N5  1  0.73195100  0.81423100  0.58474900  1
  N  N6  1  0.81423100  0.73195100  0.08474900  1
  N  N7  1  0.26804900  0.18576900  0.41525100  1
  N  N8  1  0.76455500  0.97873000  0.27532300  1
  N  N9  1  0.02127000  0.23544500  0.22467700  1
  N  N10  1  0.23544500  0.02127000  0.72467700  1
  N  N11  1  0.97873000  0.76455500  0.77532300  1
  O  O0  1  0.43924800  0.23350000  0.06136200  1
  O  O1  1  0.76650000  0.56075200  0.43863800  1
  O  O2  1  0.56075200  0.76650000  0.93863800  1
  O  O3  1  0.23350000  0.43924800  0.56136200  1
loop_
_geom_bond_atom_site_label_1
_geom_bond_atom_site_label_2
_geom_bond_distance
_geom_bond_site_symmetry_2
H0 N0 1.017521 1_455
H1 N1 1.017521 1_565
H2 N2 1.017521 1_655
H3 N3 1.017521 1_545
H4 N0 1.023506 1_555
H5 N1 1.023506 1_555
H6 N2 1.023506 1_555
H7 N3 1.023506 1_555
H8 N4 1.025249 1_555
H9 N5 1.025249 1_555
H10 N6 1.025249 1_555
H11 N7 1.025249 1_555
H12 N4 1.018283 1_555
H13 N5 1.018283 1_555
H14 N6 1.018283 1_555
H15 N7 1.018283 1_555
H16 N8 1.019007 1_555
H17 N9 1.019007 1_555
H18 N10 1.019007 1_555
H19 N11 1.019007 1_555
H20 N8 1.023164 1_555
H21 N9 1.023164 1_555
H22 N10 1.023164 1_555
H23 N11 1.023164 1_555
H24 O0 0.981764 1_555
H25 O1 0.981764 1_555
H26 O2 0.981764 1_555
H27 O3 0.981764 1_555
H28 O0 0.984332 1_555
H29 O1 0.984332 1_555
H30 O2 0.984332 1_555
H31 O3 0.984332 1_555
C0 N0 1.337665 1_556
C0 N4 1.340467 1_655
C0 S0 1.719468 1_555
C1 N1 1.337665 1_555
C1 N5 1.340467 1_545
C1 S1 1.719468 1_555
C2 N2 1.337665 1_554
C2 N6 1.340467 1_455
C2 S2 1.719468 1_555
C3 N3 1.337665 1_555
C3 N7 1.340467 1_565
C3 S3 1.719468 1_555
C4 N8 1.343127 1_545
C4 N9 1.343127 1_655
C4 S4 1.707036 1_555
C5 N10 1.343127 1_565
C5 N11 1.343127 1_455
C5 S5 1.707036 1_555
