# generated using pymatgen
data_Mg2Ti3MnS8
_symmetry_space_group_name_H-M   'P 1'
_cell_length_a   7.25851457
_cell_length_b   7.40382193
_cell_length_c   7.25837296
_cell_angle_alpha   60.65254756
_cell_angle_beta   59.99823639
_cell_angle_gamma   60.64715993
_symmetry_Int_Tables_number   1
_chemical_formula_structural   Mg2Ti3MnS8
_chemical_formula_sum   'Mg2 Ti3 Mn1 S8'
_cell_volume   278.49593144
_cell_formula_units_Z   1
loop_
 _symmetry_equiv_pos_site_id
 _symmetry_equiv_pos_as_xyz
  1  'x, y, z'
loop_
 _atom_site_type_symbol
 _atom_site_label
 _atom_site_symmetry_multiplicity
 _atom_site_fract_x
 _atom_site_fract_y
 _atom_site_fract_z
 _atom_site_occupancy
  Mg  Mg0  1  0.87525786  0.87421314  0.87527077  1
  Mg  Mg1  1  0.12473505  0.12578636  0.12473798  1
  Ti  Ti0  1  0.50001474  0.50000183  0.49998732  1
  Ti  Ti1  1  0.50001804  0.49999806  0.99998802  1
  Ti  Ti2  1  0.00001050  0.49999978  0.49999482  1
  Mn  Mn0  1  0.49996494  -0.00000032  0.50002478  1
  S  S0  1  0.74409399  0.73174073  0.74413741  1
  S  S1  1  0.25583461  0.26825689  0.72001074  1
  S  S2  1  0.25822247  0.72530913  0.25823439  1
  S  S3  1  0.72001480  0.26820068  0.25583600  1
  S  S4  1  0.74180125  0.27468856  0.74174642  1
  S  S5  1  0.27997392  0.73177170  0.74418295  1
  S  S6  1  0.25590256  0.26827205  0.25585303  1
  S  S7  1  0.74416027  0.73175741  0.27999737  1
loop_
_geom_bond_atom_site_label_1
_geom_bond_atom_site_label_2
_geom_bond_distance
_geom_bond_site_symmetry_2
Mg0 S5 2.407967 1_655
Mg0 S7 2.408125 1_556
Mg0 S0 2.408313 1_555
Mg0 S4 2.444470 1_565
Mg1 S3 2.407984 1_455
Mg1 S1 2.408133 1_554
Mg1 S6 2.408309 1_555
Mg1 S2 2.444481 1_545
Mn0 S1 2.542227 1_555
Mn0 S5 2.542326 1_545
Mn0 S7 2.542344 1_545
Mn0 S3 2.542460 1_555
Mn0 S6 2.542472 1_555
Mn0 S0 2.542499 1_545
S0 Ti1 2.469386 1_555
S0 Ti2 2.469504 1_655
S1 Ti2 2.469517 1_555
S1 Ti0 2.469926 1_555
S2 Ti1 2.506263 1_554
S2 Ti2 2.506298 1_555
S2 Ti0 2.506468 1_555
S3 Ti1 2.469562 1_554
S3 Ti0 2.469866 1_555
S4 Ti1 2.506230 1_555
S4 Ti2 2.506293 1_655
S4 Ti0 2.506469 1_555
S5 Ti1 2.469566 1_555
S5 Ti0 2.469918 1_555
S6 Ti2 2.469425 1_555
S6 Ti1 2.469504 1_554
S7 Ti2 2.469565 1_655
S7 Ti0 2.469812 1_555
