# generated using pymatgen
data_U2Ge3
_symmetry_space_group_name_H-M   'P 1'
_cell_length_a   4.51238565
_cell_length_b   4.51629381
_cell_length_c   6.11247600
_cell_angle_alpha   90.00000000
_cell_angle_beta   90.00000000
_cell_angle_gamma   120.00459349
_symmetry_Int_Tables_number   1
_chemical_formula_structural   U2Ge3
_chemical_formula_sum   'U2 Ge3'
_cell_volume   107.87382836
_cell_formula_units_Z   1
loop_
 _symmetry_equiv_pos_site_id
 _symmetry_equiv_pos_as_xyz
  1  'x, y, z'
loop_
 _atom_site_type_symbol
 _atom_site_label
 _atom_site_symmetry_multiplicity
 _atom_site_fract_x
 _atom_site_fract_y
 _atom_site_fract_z
 _atom_site_occupancy
  U  U0  1  0.99992700  0.99997900  0.03084600  1
  U  U1  1  0.99992700  0.99997900  0.46915400  1
  Ge  Ge0  1  0.33319700  0.66654800  0.75000000  1
  Ge  Ge1  1  0.66696700  0.33365000  0.25000000  1
  Ge  Ge2  1  0.66648200  0.33314500  0.75000000  1
loop_
_geom_bond_atom_site_label_1
_geom_bond_atom_site_label_2
_geom_bond_distance
_geom_bond_site_symmetry_2
U0 U1 2.679147 1_555
Ge0 Ge2 2.605296 1_455
Ge0 Ge2 2.606499 1_555
Ge0 Ge2 2.607091 1_565
Ge0 U0 3.120065 1_556
Ge0 U1 3.120065 1_555
Ge0 U0 3.121064 1_456
Ge0 U1 3.121064 1_455
Ge0 U1 3.121424 1_445
Ge0 U0 3.121424 1_446
Ge1 U1 2.930174 1_555
Ge1 U0 2.930174 1_555
Ge1 U0 2.930383 1_545
Ge1 U1 2.930383 1_545
Ge1 U0 2.930639 1_445
Ge1 U1 2.930639 1_445
Ge1 Ge2 3.056239 1_555
Ge1 Ge2 3.056239 1_554
Ge2 U1 3.119494 1_445
Ge2 U0 3.119494 1_446
Ge2 U0 3.120769 1_546
Ge2 U1 3.120769 1_545
Ge2 U0 3.122290 1_556
Ge2 U1 3.122290 1_555
