# generated using pymatgen
data_YbMgSe3
_symmetry_space_group_name_H-M   'P 1'
_cell_length_a   7.47959700
_cell_length_b   7.47959674
_cell_length_c   15.82883400
_cell_angle_alpha   90.00000000
_cell_angle_beta   90.00000000
_cell_angle_gamma   119.99999673
_symmetry_Int_Tables_number   1
_chemical_formula_structural   YbMgSe3
_chemical_formula_sum   'Yb6 Mg6 Se18'
_cell_volume   766.89508247
_cell_formula_units_Z   6
loop_
 _symmetry_equiv_pos_site_id
 _symmetry_equiv_pos_as_xyz
  1  'x, y, z'
loop_
 _atom_site_type_symbol
 _atom_site_label
 _atom_site_symmetry_multiplicity
 _atom_site_fract_x
 _atom_site_fract_y
 _atom_site_fract_z
 _atom_site_occupancy
  Yb  Yb0  1  0.00000000  0.00000000  0.37041000  1
  Yb  Yb1  1  0.00000000  0.00000000  0.62959000  1
  Yb  Yb2  1  0.66666700  0.33333300  0.70374300  1
  Yb  Yb3  1  0.66666700  0.33333300  0.96292300  1
  Yb  Yb4  1  0.33333300  0.66666700  0.03707700  1
  Yb  Yb5  1  0.33333300  0.66666700  0.29625700  1
  Mg  Mg0  1  0.00000000  0.00000000  0.14966000  1
  Mg  Mg1  1  0.00000000  0.00000000  0.85034000  1
  Mg  Mg2  1  0.66666700  0.33333300  0.48299300  1
  Mg  Mg3  1  0.66666700  0.33333300  0.18367300  1
  Mg  Mg4  1  0.33333300  0.66666700  0.81632700  1
  Mg  Mg5  1  0.33333300  0.66666700  0.51700700  1
  Se  Se0  1  0.99199900  0.38336900  0.58577500  1
  Se  Se1  1  0.00800100  0.61663100  0.41422500  1
  Se  Se2  1  0.61663100  0.60862900  0.58577500  1
  Se  Se3  1  0.38336900  0.39137100  0.41422500  1
  Se  Se4  1  0.39137100  0.00800100  0.58577500  1
  Se  Se5  1  0.60862900  0.99199900  0.41422500  1
  Se  Se6  1  0.65866600  0.71670200  0.91910800  1
  Se  Se7  1  0.67466800  0.94996400  0.74755800  1
  Se  Se8  1  0.28329800  0.94196200  0.91910800  1
  Se  Se9  1  0.05003600  0.72470400  0.74755800  1
  Se  Se10  1  0.05803800  0.34133400  0.91910800  1
  Se  Se11  1  0.27529600  0.32533200  0.74755800  1
  Se  Se12  1  0.32533200  0.05003600  0.25244200  1
  Se  Se13  1  0.34133400  0.28329800  0.08089200  1
  Se  Se14  1  0.94996400  0.27529600  0.25244200  1
  Se  Se15  1  0.71670200  0.05803800  0.08089200  1
  Se  Se16  1  0.72470400  0.67466800  0.25244200  1
  Se  Se17  1  0.94196200  0.65866600  0.08089200  1
loop_
_geom_bond_atom_site_label_1
_geom_bond_atom_site_label_2
_geom_bond_distance
_geom_bond_site_symmetry_2
Mg0 Se17 2.604430 1_445
Mg0 Se13 2.604434 1_555
Mg0 Se15 2.604443 1_455
Mg0 Se14 2.792392 1_455
Mg0 Se12 2.792392 1_555
Mg0 Se16 2.792392 1_445
Mg1 Se10 2.604430 1_555
Mg1 Se6 2.604434 1_445
Mg1 Se8 2.604443 1_545
Mg1 Se9 2.792392 1_545
Mg1 Se7 2.792392 1_445
Mg1 Se11 2.792392 1_555
Mg2 Se5 2.604430 1_545
Mg2 Se1 2.604434 1_655
Mg2 Se3 2.604443 1_555
Mg2 Se2 2.792392 1_555
Mg2 Se0 2.792392 1_555
Mg2 Se4 2.792392 1_555
Mg3 Se14 2.604439 1_555
Mg3 Se12 2.604443 1_555
Mg3 Se16 2.604445 1_555
Mg3 Se15 2.792373 1_555
Mg3 Se17 2.792384 1_555
Mg3 Se13 2.792391 1_555
Mg4 Se9 2.604439 1_555
Mg4 Se7 2.604443 1_555
Mg4 Se11 2.604445 1_555
Mg4 Se8 2.792373 1_555
Mg4 Se10 2.792384 1_555
Mg4 Se6 2.792391 1_555
Mg5 Se4 2.604430 1_565
Mg5 Se0 2.604434 1_455
Mg5 Se2 2.604443 1_555
Mg5 Se3 2.792392 1_555
Mg5 Se1 2.792392 1_555
Mg5 Se5 2.792392 1_555
Se0 Yb2 2.938942 1_555
Se0 Yb1 2.979668 1_655
Se1 Yb5 2.938942 1_555
Se1 Yb0 2.979668 1_565
Se2 Yb2 2.938942 1_555
Se2 Yb1 2.979672 1_665
Se3 Yb5 2.938942 1_555
Se3 Yb0 2.979672 1_555
Se4 Yb2 2.938942 1_555
Se4 Yb1 2.979676 1_555
Se5 Yb5 2.938942 1_555
Se5 Yb0 2.979676 1_665
Se6 Yb4 2.938960 1_556
Se6 Yb3 2.979668 1_555
Se7 Yb1 2.938942 1_665
Se7 Yb2 2.979668 1_565
Se8 Yb4 2.938943 1_556
Se8 Yb3 2.979672 1_565
Se9 Yb1 2.938942 1_565
Se9 Yb2 2.979672 1_455
Se10 Yb4 2.938953 1_556
Se10 Yb3 2.979676 1_455
Se11 Yb1 2.938942 1_555
Se11 Yb2 2.979676 1_555
Se12 Yb0 2.938942 1_555
Se12 Yb5 2.979668 1_545
Se13 Yb3 2.938960 1_554
Se13 Yb4 2.979668 1_555
Se14 Yb0 2.938942 1_655
Se14 Yb5 2.979672 1_655
Se15 Yb3 2.938943 1_554
Se15 Yb4 2.979672 1_545
Se16 Yb0 2.938942 1_665
Se16 Yb5 2.979676 1_555
Se17 Yb3 2.938953 1_554
Se17 Yb4 2.979676 1_655
