# generated using pymatgen
data_Ba2MgFe2B2(P2O9)2
_symmetry_space_group_name_H-M   'P 1'
_cell_length_a   5.37295980
_cell_length_b   8.29188262
_cell_length_c   8.28650371
_cell_angle_alpha   89.56772701
_cell_angle_beta   80.33718293
_cell_angle_gamma   87.75958598
_symmetry_Int_Tables_number   1
_chemical_formula_structural   Ba2MgFe2B2(P2O9)2
_chemical_formula_sum   'Ba2 Mg1 Fe2 B2 P4 O18'
_cell_volume   363.66383228
_cell_formula_units_Z   1
loop_
 _symmetry_equiv_pos_site_id
 _symmetry_equiv_pos_as_xyz
  1  'x, y, z'
loop_
 _atom_site_type_symbol
 _atom_site_label
 _atom_site_symmetry_multiplicity
 _atom_site_fract_x
 _atom_site_fract_y
 _atom_site_fract_z
 _atom_site_occupancy
  Ba  Ba0  1  0.25999498  0.69737608  0.89794730  1
  Ba  Ba1  1  0.70275088  0.32229932  0.13255910  1
  Mg  Mg0  1  0.24294193  0.21651233  0.81739318  1
  Fe  Fe0  1  0.72078745  0.80281185  0.21548611  1
  Fe  Fe1  1  0.50283062  0.02142791  0.51221256  1
  B  B0  1  0.86449502  0.74751142  0.56021138  1
  B  B1  1  0.09690556  0.26580605  0.47309705  1
  P  P0  1  0.77687725  0.43849092  0.71695880  1
  P  P1  1  0.18070551  0.57386178  0.31400136  1
  P  P2  1  0.76402743  0.95170317  0.82869779  1
  P  P3  1  0.20573386  0.07016450  0.20162151  1
  O  O0  1  0.52843316  0.38675216  0.82092106  1
  O  O1  1  0.42809156  0.62457085  0.20861350  1
  O  O2  1  0.96593065  0.57915865  0.21125610  1
  O  O3  1  0.99194407  0.43234246  0.81951576  1
  O  O4  1  0.84573785  0.33315301  0.55855427  1
  O  O5  1  0.11053020  0.67817727  0.47287408  1
  O  O6  1  0.71717437  0.61607509  0.66246976  1
  O  O7  1  0.24014169  0.39692123  0.36918656  1
  O  O8  1  0.90023983  0.09557561  0.87745939  1
  O  O9  1  0.08845030  0.91891811  0.15116101  1
  O  O10  1  0.50713970  0.99857578  0.77343656  1
  O  O11  1  0.46754201  0.03640641  0.25653410  1
  O  O12  1  0.71449455  0.82155146  0.96536663  1
  O  O13  1  0.24140377  0.20191919  0.06666150  1
  O  O14  1  0.94626517  0.86229195  0.68172855  1
  O  O15  1  0.01525268  0.14911512  0.35202622  1
  O  O16  1  0.70804202  0.82311839  0.45963309  1
  O  O17  1  0.25263593  0.19522393  0.57554072  1
loop_
_geom_bond_atom_site_label_1
_geom_bond_atom_site_label_2
_geom_bond_distance
_geom_bond_site_symmetry_2
Ba0 O9 2.811287 1_556
Ba0 O3 2.812377 1_455
Ba0 O12 2.828241 1_555
Ba0 O1 2.919217 1_556
Ba0 O0 2.923521 1_555
Ba0 O6 2.928691 1_555
Ba0 O14 2.952670 1_455
Ba0 O10 2.970840 1_555
Ba0 O2 2.983847 1_456
Ba0 O12 3.030810 1_455
Ba1 O2 2.743548 1_555
Ba1 O11 2.834404 1_555
Ba1 O13 2.845182 1_555
Ba1 O1 2.877402 1_555
Ba1 O8 2.877451 1_554
Ba1 O0 2.929773 1_554
Ba1 O7 2.944097 1_555
Ba1 O3 2.949240 1_554
Ba1 O13 2.987060 1_655
Ba1 O15 2.997652 1_655
Mg0 O17 2.004972 1_555
Mg0 O13 2.066842 1_556
Mg0 O8 2.114942 1_455
Mg0 O0 2.128712 1_555
Mg0 O3 2.196736 1_455
Mg0 O10 2.247030 1_545
Fe0 O16 2.020843 1_555
Fe0 O12 2.083094 1_554
Fe0 O1 2.207682 1_555
Fe0 O9 2.213778 1_655
Fe0 O2 2.229303 1_555
Fe0 O11 2.316761 1_565
Fe1 O17 1.944833 1_555
Fe1 O16 1.953778 1_545
Fe1 O11 2.160839 1_555
Fe1 O10 2.175402 1_545
B0 O16 1.407267 1_555
B0 O5 1.492482 1_655
B0 O14 1.519365 1_555
B0 O6 1.536459 1_555
B1 O17 1.398551 1_555
B1 O4 1.503574 1_455
B1 O15 1.526699 1_555
B1 O7 1.531184 1_555
O0 P0 1.536640 1_555
O1 P1 1.534499 1_555
O2 P1 1.543945 1_655
O3 P0 1.544188 1_555
O4 P0 1.565814 1_555
O5 P1 1.564788 1_555
O6 P0 1.573757 1_555
O7 P1 1.570336 1_555
O8 P2 1.515548 1_545
O9 P3 1.517535 1_565
O10 P2 1.559931 1_555
O11 P3 1.564078 1_555
O12 P2 1.555928 1_555
O13 P3 1.551437 1_555
O14 P2 1.596290 1_555
O15 P3 1.600335 1_555
