# generated using pymatgen
data_HoMnO3
_symmetry_space_group_name_H-M   'P 1'
_cell_length_a   5.97633100
_cell_length_b   13.07490300
_cell_length_c   3.37455600
_cell_angle_alpha   90.00000000
_cell_angle_beta   90.00000000
_cell_angle_gamma   90.00000000
_symmetry_Int_Tables_number   1
_chemical_formula_structural   HoMnO3
_chemical_formula_sum   'Ho4 Mn4 O12'
_cell_volume   263.68763077
_cell_formula_units_Z   4
loop_
 _symmetry_equiv_pos_site_id
 _symmetry_equiv_pos_as_xyz
  1  'x, y, z'
loop_
 _atom_site_type_symbol
 _atom_site_label
 _atom_site_symmetry_multiplicity
 _atom_site_fract_x
 _atom_site_fract_y
 _atom_site_fract_z
 _atom_site_occupancy
  Ho  Ho0  1  0.68919500  0.25000000  0.75868400  1
  Ho  Ho1  1  0.18919500  0.25000000  0.74131600  1
  Ho  Ho2  1  0.31080500  0.75000000  0.24131600  1
  Ho  Ho3  1  0.81080500  0.75000000  0.25868400  1
  Mn  Mn0  1  0.50000000  0.00000000  0.50000000  1
  Mn  Mn1  1  0.00000000  0.50000000  0.00000000  1
  Mn  Mn2  1  0.50000000  0.50000000  0.50000000  1
  Mn  Mn3  1  0.00000000  0.00000000  0.00000000  1
  O  O0  1  0.94921000  0.25000000  0.24501800  1
  O  O1  1  0.44921000  0.25000000  0.25498200  1
  O  O2  1  0.05079000  0.75000000  0.75498200  1
  O  O3  1  0.55079000  0.75000000  0.74501800  1
  O  O4  1  0.73779000  0.07819800  0.77732500  1
  O  O5  1  0.23779000  0.42180200  0.72267500  1
  O  O6  1  0.26221000  0.57819800  0.22267500  1
  O  O7  1  0.76221000  0.92180200  0.27732500  1
  O  O8  1  0.26221000  0.92180200  0.22267500  1
  O  O9  1  0.76221000  0.57819800  0.27732500  1
  O  O10  1  0.73779000  0.42180200  0.77732500  1
  O  O11  1  0.23779000  0.07819800  0.72267500  1
loop_
_geom_bond_atom_site_label_1
_geom_bond_atom_site_label_2
_geom_bond_distance
_geom_bond_site_symmetry_2
Ho0 O1 2.204976 1_556
Ho0 O1 2.224013 1_555
Ho0 O0 2.260117 1_556
Ho0 O10 2.265864 1_555
Ho0 O4 2.265864 1_555
Ho0 O0 2.327955 1_555
Ho1 O0 2.204976 1_455
Ho1 O0 2.224013 1_456
Ho1 O1 2.260117 1_555
Ho1 O5 2.265864 1_555
Ho1 O11 2.265864 1_555
Ho1 O1 2.327955 1_556
Ho2 O3 2.204976 1_554
Ho2 O3 2.224013 1_555
Ho2 O2 2.260117 1_554
Ho2 O8 2.265864 1_555
Ho2 O6 2.265864 1_555
Ho2 O2 2.327955 1_555
Ho3 O2 2.204976 1_655
Ho3 O2 2.224013 1_654
Ho3 O3 2.260117 1_555
Ho3 O7 2.265864 1_555
Ho3 O9 2.265864 1_555
Ho3 O3 2.327955 1_554
Mn0 O4 1.985129 1_555
Mn0 O8 1.985129 1_545
Mn0 O11 2.016350 1_555
Mn0 O7 2.016350 1_545
Mn1 O9 1.985129 1_455
Mn1 O5 1.985129 1_554
Mn1 O6 2.016350 1_555
Mn1 O10 2.016350 1_454
Mn2 O6 1.985129 1_555
Mn2 O10 1.985129 1_555
Mn2 O9 2.016350 1_555
Mn2 O5 2.016350 1_555
Mn3 O11 1.985129 1_554
Mn3 O7 1.985129 1_445
Mn3 O4 2.016350 1_454
Mn3 O8 2.016350 1_545
