# generated using pymatgen
data_Na4AlCr3(P2O7)4
_symmetry_space_group_name_H-M   'P 1'
_cell_length_a   7.32779400
_cell_length_b   7.95256162
_cell_length_c   9.55393266
_cell_angle_alpha   90.08592673
_cell_angle_beta   111.51271744
_cell_angle_gamma   90.10605317
_symmetry_Int_Tables_number   1
_chemical_formula_structural   Na4AlCr3(P2O7)4
_chemical_formula_sum   'Na4 Al1 Cr3 P8 O28'
_cell_volume   517.96504747
_cell_formula_units_Z   1
loop_
 _symmetry_equiv_pos_site_id
 _symmetry_equiv_pos_as_xyz
  1  'x, y, z'
loop_
 _atom_site_type_symbol
 _atom_site_label
 _atom_site_symmetry_multiplicity
 _atom_site_fract_x
 _atom_site_fract_y
 _atom_site_fract_z
 _atom_site_occupancy
  Na  Na0  1  0.70950800  0.52165800  0.70496200  1
  Na  Na1  1  0.29058800  0.02159600  0.79486200  1
  Na  Na2  1  0.29105000  0.47865000  0.29495400  1
  Na  Na3  1  0.70930300  0.97805700  0.20477200  1
  Al  Al0  1  0.26156000  0.00967400  0.24898700  1
  Cr  Cr0  1  0.73898200  0.50643500  0.25234200  1
  Cr  Cr1  1  0.73875700  0.99358200  0.75265400  1
  Cr  Cr2  1  0.26137900  0.49351700  0.74768000  1
  P  P0  1  0.67337500  0.28937600  0.95590900  1
  P  P1  1  0.32682700  0.79181700  0.54183900  1
  P  P2  1  0.32707600  0.71308400  0.04677700  1
  P  P3  1  0.66942800  0.20840200  0.45335800  1
  P  P4  1  0.07805400  0.24143400  0.95674300  1
  P  P5  1  0.92415400  0.74410900  0.54582900  1
  P  P6  1  0.92734200  0.75826600  0.04784700  1
  P  P7  1  0.07626000  0.25274700  0.45172300  1
  O  O0  1  0.88231600  0.34507300  0.94585300  1
  O  O1  1  0.11974000  0.84631300  0.55600600  1
  O  O2  1  0.11945200  0.65235700  0.05574000  1
  O  O3  1  0.87754700  0.15159600  0.44088500  1
  O  O4  1  0.68554100  0.29844000  0.11872300  1
  O  O5  1  0.31177100  0.80952300  0.37882700  1
  O  O6  1  0.31493800  0.70444600  0.88346700  1
  O  O7  1  0.68495900  0.20013900  0.61703500  1
  O  O8  1  0.63613500  0.10538500  0.90230600  1
  O  O9  1  0.36263200  0.60692800  0.59421200  1
  O  O10  1  0.35919100  0.89569800  0.10529900  1
  O  O11  1  0.63537300  0.39286900  0.40075900  1
  O  O12  1  0.01143400  0.08348300  0.85816000  1
  O  O13  1  0.98882500  0.58373100  0.64135100  1
  O  O14  1  0.00080100  0.91674700  0.14463000  1
  O  O15  1  0.01241400  0.41444700  0.35832100  1
  O  O16  1  0.19431200  0.20217500  0.12178300  1
  O  O17  1  0.80546300  0.71171300  0.37974200  1
  O  O18  1  0.80692900  0.79027900  0.88194900  1
  O  O19  1  0.19562600  0.28569800  0.61818900  1
  O  O20  1  0.19048600  0.36254300  0.89621800  1
  O  O21  1  0.81170900  0.86346200  0.60656400  1
  O  O22  1  0.81303900  0.63921600  0.10805800  1
  O  O23  1  0.18452600  0.13331300  0.38634700  1
  O  O24  1  0.53740800  0.41523600  0.84762700  1
  O  O25  1  0.46357400  0.91536900  0.65237600  1
  O  O26  1  0.46394500  0.58615300  0.15261600  1
  O  O27  1  0.52626900  0.08526500  0.34571600  1
loop_
_geom_bond_atom_site_label_1
_geom_bond_atom_site_label_2
_geom_bond_distance
_geom_bond_site_symmetry_2
Na0 O24 2.329091 1_555
Na0 O13 2.389932 1_555
Na0 O9 2.465024 1_555
Na0 O0 2.598297 1_555
Na0 O18 2.651509 1_555
Na0 O7 2.675220 1_555
Na1 O25 2.332318 1_545
Na1 O12 2.387982 1_555
Na1 O8 2.448395 1_555
Na1 O1 2.570351 1_545
Na1 O19 2.626617 1_555
Na1 O6 2.647074 1_545
Na2 O26 2.334181 1_555
Na2 O15 2.387414 1_555
Na2 O11 2.447697 1_555
Na2 O2 2.573108 1_555
Na2 O16 2.682747 1_555
Na2 O5 2.737116 1_555
Na2 O9 2.894752 1_555
Na3 O27 2.380008 1_565
Na3 O14 2.456361 1_655
Na3 O10 2.473440 1_555
Na3 O3 2.541239 1_565
Na3 O17 2.632414 1_555
Na3 O4 2.664720 1_565
Na3 O8 2.921960 1_564
Al0 O23 1.883912 1_555
Al0 O16 1.905915 1_555
Al0 O27 1.912401 1_555
Al0 O14 1.945926 1_545
Al0 O5 1.970043 1_545
Al0 O10 1.984162 1_545
Cr0 O22 1.964845 1_555
Cr0 O17 1.984957 1_555
Cr0 O26 1.992434 1_555
Cr0 O15 2.023539 1_655
Cr0 O4 2.035602 1_555
Cr0 O11 2.047823 1_555
Cr1 O21 1.962032 1_555
Cr1 O18 1.986413 1_555
Cr1 O25 1.986865 1_555
Cr1 O12 2.008748 1_665
Cr1 O7 2.041254 1_565
Cr1 O8 2.046330 1_565
Cr2 O20 1.977822 1_555
Cr2 O24 1.995121 1_555
Cr2 O19 2.011921 1_555
Cr2 O13 2.013711 1_455
Cr2 O6 2.066009 1_555
Cr2 O9 2.076803 1_555
O0 P4 1.625609 1_655
O0 P0 1.629453 1_555
O1 P5 1.617844 1_455
O1 P1 1.631507 1_555
O2 P6 1.619731 1_455
O2 P2 1.627345 1_555
O3 P7 1.631851 1_655
O3 P3 1.636993 1_555
O4 P0 1.526664 1_554
O5 P1 1.527157 1_555
O6 P2 1.531305 1_556
O7 P3 1.527228 1_555
O8 P0 1.539957 1_555
O9 P1 1.545465 1_555
O10 P2 1.541693 1_555
O11 P3 1.542221 1_555
O12 P4 1.536293 1_555
O13 P5 1.540344 1_555
O14 P6 1.536922 1_455
O15 P7 1.538920 1_555
O16 P4 1.525368 1_554
O17 P5 1.525278 1_555
O18 P6 1.527048 1_556
O19 P7 1.529960 1_555
O20 P4 1.512912 1_555
O21 P5 1.506135 1_555
O22 P6 1.510260 1_555
O23 P7 1.511984 1_555
O24 P0 1.521704 1_555
O25 P1 1.517206 1_555
O26 P2 1.519980 1_555
O27 P3 1.522820 1_555
