# generated using pymatgen
data_CrN2
_symmetry_space_group_name_H-M   'P 1'
_cell_length_a   9.14111500
_cell_length_b   13.52187200
_cell_length_c   16.57471677
_cell_angle_alpha   74.23400057
_cell_angle_beta   90.00000000
_cell_angle_gamma   90.00000000
_symmetry_Int_Tables_number   1
_chemical_formula_structural   CrN2
_chemical_formula_sum   'Cr28 N56'
_cell_volume   1971.64366554
_cell_formula_units_Z   28
loop_
 _symmetry_equiv_pos_site_id
 _symmetry_equiv_pos_as_xyz
  1  'x, y, z'
loop_
 _atom_site_type_symbol
 _atom_site_label
 _atom_site_symmetry_multiplicity
 _atom_site_fract_x
 _atom_site_fract_y
 _atom_site_fract_z
 _atom_site_occupancy
  Cr  Cr0  1  0.18460600  0.13882300  0.11009000  1
  Cr  Cr1  1  0.81539400  0.13882300  0.11009000  1
  Cr  Cr2  1  0.81539400  0.86117700  0.88991000  1
  Cr  Cr3  1  0.18460600  0.86117700  0.88991000  1
  Cr  Cr4  1  0.81498000  0.88454900  0.21843800  1
  Cr  Cr5  1  0.18502000  0.88454900  0.21843800  1
  Cr  Cr6  1  0.18502000  0.11545100  0.78156200  1
  Cr  Cr7  1  0.81498000  0.11545100  0.78156200  1
  Cr  Cr8  1  0.31284300  0.90398300  0.40495700  1
  Cr  Cr9  1  0.68715700  0.90398300  0.40495700  1
  Cr  Cr10  1  0.68715700  0.09601700  0.59504300  1
  Cr  Cr11  1  0.31284300  0.09601700  0.59504300  1
  Cr  Cr12  1  0.81415800  0.13903600  0.40191400  1
  Cr  Cr13  1  0.18584200  0.13903600  0.40191400  1
  Cr  Cr14  1  0.18584200  0.86096400  0.59808600  1
  Cr  Cr15  1  0.81415800  0.86096400  0.59808600  1
  Cr  Cr16  1  0.31347500  0.29285600  0.22717500  1
  Cr  Cr17  1  0.68652500  0.29285600  0.22717500  1
  Cr  Cr18  1  0.68652500  0.70714400  0.77282500  1
  Cr  Cr19  1  0.31347500  0.70714400  0.77282500  1
  Cr  Cr20  1  0.81240900  0.51396100  0.09703200  1
  Cr  Cr21  1  0.18759100  0.51396100  0.09703200  1
  Cr  Cr22  1  0.18759100  0.48603900  0.90296800  1
  Cr  Cr23  1  0.81240900  0.48603900  0.90296800  1
  Cr  Cr24  1  0.68648400  0.24629900  0.91427800  1
  Cr  Cr25  1  0.31351600  0.24629900  0.91427800  1
  Cr  Cr26  1  0.31351600  0.75370100  0.08572200  1
  Cr  Cr27  1  0.68648400  0.75370100  0.08572200  1
  N  N0  1  0.00000000  0.16569300  0.10703700  1
  N  N1  1  0.00000000  0.83430700  0.89296300  1
  N  N2  1  0.00000000  0.85947000  0.22132000  1
  N  N3  1  0.00000000  0.14053000  0.77868000  1
  N  N4  1  0.50000000  0.88527900  0.41049300  1
  N  N5  1  0.50000000  0.11472100  0.58950700  1
  N  N6  1  0.00000000  0.11365900  0.40557100  1
  N  N7  1  0.00000000  0.88634100  0.59442900  1
  N  N8  1  0.50000000  0.28884700  0.24367900  1
  N  N9  1  0.50000000  0.71115300  0.75632100  1
  N  N10  1  0.00000000  0.50499000  0.10592100  1
  N  N11  1  0.00000000  0.49501000  0.89407900  1
  N  N12  1  0.50000000  0.25666700  0.92372400  1
  N  N13  1  0.50000000  0.74333300  0.07627600  1
  N  N14  1  0.23773000  0.84382000  0.50241100  1
  N  N15  1  0.76227000  0.84382000  0.50241100  1
  N  N16  1  0.76227000  0.15618000  0.49758900  1
  N  N17  1  0.23773000  0.15618000  0.49758900  1
  N  N18  1  0.24755300  0.16891200  0.00778500  1
  N  N19  1  0.75244700  0.16891200  0.00778500  1
  N  N20  1  0.75244700  0.83108800  0.99221500  1
  N  N21  1  0.24755300  0.83108800  0.99221500  1
  N  N22  1  0.26338600  0.41656900  0.17624600  1
  N  N23  1  0.73661400  0.41656900  0.17624600  1
  N  N24  1  0.73661400  0.58343100  0.82375400  1
  N  N25  1  0.26338600  0.58343100  0.82375400  1
  N  N26  1  0.27210100  0.21471100  0.16360200  1
  N  N27  1  0.72789900  0.21471100  0.16360200  1
  N  N28  1  0.72789900  0.78528900  0.83639800  1
  N  N29  1  0.27210100  0.78528900  0.83639800  1
  N  N30  1  0.21020400  0.01032400  0.16087700  1
  N  N31  1  0.78979600  0.01032400  0.16087700  1
  N  N32  1  0.78979600  0.98967600  0.83912300  1
  N  N33  1  0.21020400  0.98967600  0.83912300  1
  N  N34  1  0.27957700  0.03297100  0.38774600  1
  N  N35  1  0.72042300  0.03297100  0.38774600  1
  N  N36  1  0.72042300  0.96702900  0.61225400  1
  N  N37  1  0.27957700  0.96702900  0.61225400  1
  N  N38  1  0.72559500  0.80782900  0.16594100  1
  N  N39  1  0.27440500  0.80782900  0.16594100  1
  N  N40  1  0.27440500  0.19217100  0.83405900  1
  N  N41  1  0.72559500  0.19217100  0.83405900  1
  N  N42  1  0.76242100  0.50000000  0.00000000  1
  N  N43  1  0.23757900  0.50000000  0.00000000  1
  N  N44  1  0.75410600  0.86479400  0.32025200  1
  N  N45  1  0.24589400  0.86479400  0.32025200  1
  N  N46  1  0.24589400  0.13520600  0.67974800  1
  N  N47  1  0.75410600  0.13520600  0.67974800  1
  N  N48  1  0.75997700  0.63128600  0.10928300  1
  N  N49  1  0.24002300  0.63128600  0.10928300  1
  N  N50  1  0.24002300  0.36871400  0.89071700  1
  N  N51  1  0.75997700  0.36871400  0.89071700  1
  N  N52  1  0.77998300  0.24750000  0.32120500  1
  N  N53  1  0.22001700  0.24750000  0.32120500  1
  N  N54  1  0.22001700  0.75250000  0.67879500  1
  N  N55  1  0.77998300  0.75250000  0.67879500  1
loop_
_geom_bond_atom_site_label_1
_geom_bond_atom_site_label_2
_geom_bond_distance
_geom_bond_site_symmetry_2
Cr0 N0 1.724022 1_555
Cr0 N26 1.724506 1_555
Cr0 N30 1.728466 1_555
Cr0 N18 1.731196 1_555
Cr1 N0 1.724022 1_655
Cr1 N27 1.724506 1_555
Cr1 N31 1.728466 1_555
Cr1 N19 1.731196 1_555
Cr2 N1 1.724022 1_655
Cr2 N28 1.724506 1_555
Cr2 N32 1.728466 1_555
Cr2 N20 1.731196 1_555
Cr3 N1 1.724022 1_555
Cr3 N29 1.724506 1_555
Cr3 N33 1.728466 1_555
Cr3 N21 1.731196 1_555
Cr4 N2 1.723060 1_655
Cr4 N31 1.724503 1_565
Cr4 N44 1.727374 1_555
Cr4 N38 1.729581 1_555
Cr5 N2 1.723060 1_555
Cr5 N30 1.724503 1_565
Cr5 N45 1.727374 1_555
Cr5 N39 1.729581 1_555
Cr6 N3 1.723060 1_555
Cr6 N33 1.724503 1_545
Cr6 N46 1.727374 1_555
Cr6 N40 1.729581 1_555
Cr7 N3 1.723060 1_655
Cr7 N32 1.724503 1_545
Cr7 N47 1.727374 1_555
Cr7 N41 1.729581 1_555
Cr8 N34 1.716263 1_565
Cr8 N4 1.728205 1_555
Cr8 N14 1.740195 1_555
Cr8 N45 1.740899 1_555
Cr9 N35 1.716263 1_565
Cr9 N4 1.728205 1_555
Cr9 N15 1.740195 1_555
Cr9 N44 1.740899 1_555
Cr10 N36 1.716263 1_545
Cr10 N5 1.728205 1_555
Cr10 N16 1.740195 1_555
Cr10 N47 1.740899 1_555
Cr11 N37 1.716263 1_545
Cr11 N5 1.728205 1_555
Cr11 N17 1.740195 1_555
Cr11 N46 1.740899 1_555
Cr12 N52 1.723939 1_555
Cr12 N16 1.730087 1_555
Cr12 N6 1.730911 1_655
Cr12 N35 1.740479 1_555
Cr13 N53 1.723939 1_555
Cr13 N17 1.730087 1_555
Cr13 N6 1.730911 1_555
Cr13 N34 1.740479 1_555
Cr14 N54 1.723939 1_555
Cr14 N14 1.730087 1_555
Cr14 N7 1.730911 1_555
Cr14 N37 1.740479 1_555
Cr15 N55 1.723939 1_555
Cr15 N15 1.730087 1_555
Cr15 N7 1.730911 1_655
Cr15 N36 1.740479 1_555
Cr16 N22 1.718492 1_555
Cr16 N26 1.724797 1_555
Cr16 N8 1.725367 1_555
Cr16 N53 1.736533 1_555
Cr17 N23 1.718492 1_555
Cr17 N27 1.724797 1_555
Cr17 N8 1.725367 1_555
Cr17 N52 1.736533 1_555
Cr18 N24 1.718492 1_555
Cr18 N28 1.724797 1_555
Cr18 N9 1.725367 1_555
Cr18 N55 1.736533 1_555
Cr19 N25 1.718492 1_555
Cr19 N29 1.724797 1_555
Cr19 N9 1.725367 1_555
Cr19 N54 1.736533 1_555
Cr20 N48 1.721290 1_555
Cr20 N10 1.722561 1_655
Cr20 N42 1.730890 1_555
Cr20 N23 1.731636 1_555
Cr21 N49 1.721290 1_555
Cr21 N10 1.722561 1_555
Cr21 N43 1.730890 1_555
Cr21 N22 1.731636 1_555
Cr22 N50 1.721290 1_555
Cr22 N11 1.722561 1_555
Cr22 N43 1.730890 1_556
Cr22 N25 1.731636 1_555
Cr23 N51 1.721290 1_555
Cr23 N11 1.722561 1_655
Cr23 N42 1.730890 1_556
Cr23 N24 1.731636 1_555
Cr24 N41 1.720523 1_555
Cr24 N12 1.721046 1_555
Cr24 N19 1.726064 1_556
Cr24 N51 1.729887 1_555
Cr25 N40 1.720523 1_555
Cr25 N12 1.721046 1_555
Cr25 N18 1.726064 1_556
Cr25 N50 1.729887 1_555
Cr26 N39 1.720523 1_555
Cr26 N13 1.721046 1_555
Cr26 N21 1.726064 1_554
Cr26 N49 1.729887 1_555
Cr27 N38 1.720523 1_555
Cr27 N13 1.721046 1_555
Cr27 N20 1.726064 1_554
Cr27 N48 1.729887 1_555
