# generated using pymatgen
data_Nd2EuBeO5
_symmetry_space_group_name_H-M   'P 1'
_cell_length_a   6.60913400
_cell_length_b   7.28786800
_cell_length_c   9.60813900
_cell_angle_alpha   90.00000000
_cell_angle_beta   90.00000000
_cell_angle_gamma   90.00000000
_symmetry_Int_Tables_number   1
_chemical_formula_structural   Nd2EuBeO5
_chemical_formula_sum   'Nd8 Eu4 Be4 O20'
_cell_volume   462.79039050
_cell_formula_units_Z   4
loop_
 _symmetry_equiv_pos_site_id
 _symmetry_equiv_pos_as_xyz
  1  'x, y, z'
loop_
 _atom_site_type_symbol
 _atom_site_label
 _atom_site_symmetry_multiplicity
 _atom_site_fract_x
 _atom_site_fract_y
 _atom_site_fract_z
 _atom_site_occupancy
  Nd  Nd0  1  0.09613700  0.74559800  0.52357100  1
  Nd  Nd1  1  0.40386300  0.74559800  0.02357100  1
  Nd  Nd2  1  0.90386300  0.24559800  0.47642900  1
  Nd  Nd3  1  0.59613700  0.24559800  0.97642900  1
  Nd  Nd4  1  0.92275600  0.52630600  0.17289100  1
  Nd  Nd5  1  0.07724400  0.02630600  0.82710900  1
  Nd  Nd6  1  0.42275600  0.02630600  0.32710900  1
  Nd  Nd7  1  0.57724400  0.52630600  0.67289100  1
  Eu  Eu0  1  0.58332800  0.98032800  0.67507400  1
  Eu  Eu1  1  0.41667200  0.48032800  0.32492600  1
  Eu  Eu2  1  0.08332800  0.48032800  0.82492600  1
  Eu  Eu3  1  0.91667200  0.98032800  0.17507400  1
  Be  Be0  1  0.69105600  0.74941600  0.40081500  1
  Be  Be1  1  0.80894400  0.74941600  0.90081500  1
  Be  Be2  1  0.30894400  0.24941600  0.59918500  1
  Be  Be3  1  0.19105600  0.24941600  0.09918500  1
  O  O0  1  0.16451300  0.74911400  0.27707100  1
  O  O1  1  0.33548700  0.74911400  0.77707100  1
  O  O2  1  0.83548700  0.24911400  0.72292900  1
  O  O3  1  0.66451300  0.24911400  0.22292900  1
  O  O4  1  0.63474800  0.75042700  0.22839800  1
  O  O5  1  0.86525200  0.75042700  0.72839800  1
  O  O6  1  0.36525200  0.25042700  0.77160200  1
  O  O7  1  0.13474800  0.25042700  0.27160200  1
  O  O8  1  0.02039400  0.75020800  0.99036400  1
  O  O9  1  0.47960600  0.75020800  0.49036400  1
  O  O10  1  0.97960600  0.25020800  0.00963600  1
  O  O11  1  0.52039400  0.25020800  0.50963600  1
  O  O12  1  0.31103100  0.05879800  0.06704100  1
  O  O13  1  0.19466100  0.43980500  0.56650500  1
  O  O14  1  0.68896900  0.55879800  0.93295900  1
  O  O15  1  0.80533900  0.93980500  0.43349500  1
  O  O16  1  0.69466100  0.93980500  0.93349500  1
  O  O17  1  0.81103100  0.55879800  0.43295900  1
  O  O18  1  0.30533900  0.43980500  0.06650500  1
  O  O19  1  0.18896900  0.05879800  0.56704100  1
loop_
_geom_bond_atom_site_label_1
_geom_bond_atom_site_label_2
_geom_bond_distance
_geom_bond_site_symmetry_2
Nd0 O13 2.358122 1_555
Nd0 O19 2.400199 1_565
Nd0 O0 2.411270 1_555
Nd0 O17 2.482319 1_455
Nd0 O5 2.490544 1_455
Nd0 O15 2.538906 1_455
Nd0 O9 2.554623 1_555
Nd0 O1 2.904395 1_555
Nd1 O18 2.358122 1_555
Nd1 O12 2.400199 1_565
Nd1 O1 2.411270 1_554
Nd1 O14 2.482319 1_554
Nd1 O4 2.490544 1_555
Nd1 O16 2.538906 1_554
Nd1 O8 2.554623 1_554
Nd1 O0 2.904395 1_555
Nd2 O15 2.358122 1_545
Nd2 O17 2.400199 1_555
Nd2 O2 2.411270 1_555
Nd2 O19 2.482319 1_655
Nd2 O7 2.490544 1_655
Nd2 O13 2.538906 1_655
Nd2 O11 2.554623 1_555
Nd2 O3 2.904395 1_555
Nd3 O16 2.358122 1_545
Nd3 O14 2.400199 1_555
Nd3 O3 2.411270 1_556
Nd3 O12 2.482319 1_556
Nd3 O6 2.490544 1_555
Nd3 O18 2.538906 1_556
Nd3 O10 2.554623 1_556
Nd3 O2 2.904395 1_555
Nd4 O8 2.480868 1_654
Nd4 O0 2.488301 1_655
Nd4 O4 2.564285 1_555
Nd4 O10 2.578840 1_555
Nd4 O17 2.616327 1_555
Nd4 O7 2.627726 1_655
Nd4 O3 2.687962 1_555
Nd4 O14 2.785302 1_554
Nd4 O18 2.799245 1_655
Nd5 O10 2.480868 1_456
Nd5 O2 2.488301 1_455
Nd5 O6 2.564285 1_555
Nd5 O8 2.578840 1_545
Nd5 O19 2.616327 1_555
Nd5 O5 2.627726 1_445
Nd5 O1 2.687962 1_545
Nd5 O12 2.785302 1_556
Nd5 O16 2.799245 1_445
Nd6 O11 2.480868 1_555
Nd6 O3 2.488301 1_555
Nd6 O7 2.564285 1_555
Nd6 O9 2.578840 1_545
Nd6 O12 2.616327 1_555
Nd6 O4 2.627726 1_545
Nd6 O0 2.687962 1_545
Nd6 O19 2.785302 1_555
Nd6 O15 2.799245 1_545
Nd7 O9 2.480868 1_555
Nd7 O1 2.488301 1_555
Nd7 O5 2.564285 1_555
Nd7 O11 2.578840 1_555
Nd7 O14 2.616327 1_555
Nd7 O6 2.627726 1_555
Nd7 O2 2.687962 1_555
Nd7 O17 2.785302 1_555
Nd7 O13 2.799245 1_555
Eu0 O9 2.536172 1_555
Eu0 O1 2.546156 1_555
Eu0 O5 2.557645 1_555
Eu0 O11 2.562845 1_565
Eu0 O16 2.606464 1_555
Eu0 O6 2.610034 1_565
Eu0 O2 2.612663 1_565
Eu0 O15 2.761849 1_555
Eu0 O19 2.863155 1_565
Eu1 O11 2.536172 1_555
Eu1 O3 2.546156 1_555
Eu1 O7 2.557645 1_555
Eu1 O9 2.562845 1_555
Eu1 O18 2.606464 1_555
Eu1 O4 2.610034 1_555
Eu1 O0 2.612663 1_555
Eu1 O13 2.761849 1_555
Eu1 O17 2.863155 1_555
Eu2 O10 2.536172 1_456
Eu2 O2 2.546156 1_455
Eu2 O6 2.557645 1_555
Eu2 O8 2.562845 1_555
Eu2 O13 2.606464 1_555
Eu2 O5 2.610034 1_455
Eu2 O1 2.612663 1_555
Eu2 O18 2.761849 1_556
Eu2 O14 2.863155 1_455
Eu3 O8 2.536172 1_654
Eu3 O0 2.546156 1_655
Eu3 O4 2.557645 1_555
Eu3 O10 2.562845 1_565
Eu3 O15 2.606464 1_555
Eu3 O7 2.610034 1_665
Eu3 O3 2.612663 1_565
Eu3 O16 2.761849 1_554
Eu3 O12 2.863155 1_665
Be0 O15 1.610692 1_555
Be0 O17 1.629109 1_555
Be0 O9 1.641137 1_555
Be0 O4 1.697908 1_555
Be1 O16 1.610692 1_555
Be1 O14 1.629109 1_555
Be1 O8 1.641137 1_655
Be1 O5 1.697908 1_555
Be2 O13 1.610692 1_555
Be2 O19 1.629109 1_555
Be2 O11 1.641137 1_555
Be2 O6 1.697908 1_555
Be3 O18 1.610692 1_555
Be3 O12 1.629109 1_555
Be3 O10 1.641137 1_455
Be3 O7 1.697908 1_555
