# generated using pymatgen
data_NbBRh3
_symmetry_space_group_name_H-M   'P 1'
_cell_length_a   4.11256900
_cell_length_b   4.11256900
_cell_length_c   4.11256900
_cell_angle_alpha   90.00000000
_cell_angle_beta   90.00000000
_cell_angle_gamma   90.00000000
_symmetry_Int_Tables_number   1
_chemical_formula_structural   NbBRh3
_chemical_formula_sum   'Nb1 B1 Rh3'
_cell_volume   69.55679981
_cell_formula_units_Z   1
loop_
 _symmetry_equiv_pos_site_id
 _symmetry_equiv_pos_as_xyz
  1  'x, y, z'
loop_
 _atom_site_type_symbol
 _atom_site_label
 _atom_site_symmetry_multiplicity
 _atom_site_fract_x
 _atom_site_fract_y
 _atom_site_fract_z
 _atom_site_occupancy
  Nb  Nb0  1  0.50000000  0.50000000  0.50000000  1
  B  B0  1  0.00000000  0.00000000  0.00000000  1
  Rh  Rh0  1  0.50000000  0.00000000  0.00000000  1
  Rh  Rh1  1  0.00000000  0.50000000  0.00000000  1
  Rh  Rh2  1  0.00000000  0.00000000  0.50000000  1
loop_
_geom_bond_atom_site_label_1
_geom_bond_atom_site_label_2
_geom_bond_distance
_geom_bond_site_symmetry_2
Nb0 Rh1 2.908025 1_656
Nb0 Rh1 2.908025 1_655
Nb0 Rh2 2.908025 1_665
Nb0 Rh2 2.908025 1_655
Nb0 Rh0 2.908025 1_566
Nb0 Rh2 2.908025 1_565
Nb0 Rh0 2.908025 1_555
Nb0 Rh0 2.908025 1_556
Nb0 Rh0 2.908025 1_565
Nb0 Rh2 2.908025 1_555
Nb0 Rh1 2.908025 1_555
Nb0 Rh1 2.908025 1_556
B0 Rh2 2.056284 1_554
B0 Rh1 2.056284 1_545
B0 Rh0 2.056284 1_555
B0 Rh0 2.056284 1_455
B0 Rh2 2.056284 1_555
B0 Rh1 2.056284 1_555
