# generated using pymatgen
data_FeNi3
_symmetry_space_group_name_H-M   'P 1'
_cell_length_a   16.59687319
_cell_length_b   16.59687319
_cell_length_c   16.59687267
_cell_angle_alpha   17.31817971
_cell_angle_beta   17.31817971
_cell_angle_gamma   17.31818027
_symmetry_Int_Tables_number   1
_chemical_formula_structural   FeNi3
_chemical_formula_sum   'Fe8 Ni24'
_cell_volume   353.50517308
_cell_formula_units_Z   8
loop_
 _symmetry_equiv_pos_site_id
 _symmetry_equiv_pos_as_xyz
  1  'x, y, z'
loop_
 _atom_site_type_symbol
 _atom_site_label
 _atom_site_symmetry_multiplicity
 _atom_site_fract_x
 _atom_site_fract_y
 _atom_site_fract_z
 _atom_site_occupancy
  Fe  Fe0_0  1  0.00000000  0.00000000  0.00000000  1
  Fe  Fe0_1  1  0.00000000  0.00000000  0.50000000  1
  Fe  Fe0_2  1  0.00000000  0.50000000  0.00000000  1
  Fe  Fe0_3  1  1.00000000  0.50000000  0.50000000  1
  Fe  Fe0_4  1  0.50000000  0.00000000  0.00000000  1
  Fe  Fe0_5  1  0.50000000  0.00000000  0.50000000  1
  Fe  Fe0_6  1  0.50000000  0.50000000  0.00000000  1
  Fe  Fe0_7  1  0.50000000  0.50000000  0.50000000  1
  Ni  Ni0_0  1  0.12515500  0.12515500  0.12515500  1
  Ni  Ni0_1  1  0.12515500  0.12515500  0.62515500  1
  Ni  Ni0_2  1  0.12515500  0.62515500  0.12515500  1
  Ni  Ni0_3  1  0.12515500  0.62515500  0.62515500  1
  Ni  Ni0_4  1  0.62515500  0.12515500  0.12515500  1
  Ni  Ni0_5  1  0.62515500  0.12515500  0.62515500  1
  Ni  Ni0_6  1  0.62515500  0.62515500  0.12515500  1
  Ni  Ni0_7  1  0.62515500  0.62515500  0.62515500  1
  Ni  Ni1_0  1  0.25000000  0.25000000  0.25000000  1
  Ni  Ni1_1  1  0.25000000  0.25000000  0.75000000  1
  Ni  Ni1_2  1  0.25000000  0.75000000  0.25000000  1
  Ni  Ni1_3  1  0.25000000  0.75000000  0.75000000  1
  Ni  Ni1_4  1  0.75000000  0.25000000  0.25000000  1
  Ni  Ni1_5  1  0.75000000  0.25000000  0.75000000  1
  Ni  Ni1_6  1  0.75000000  0.75000000  0.25000000  1
  Ni  Ni1_7  1  0.75000000  0.75000000  0.75000000  1
  Ni  Ni2_0  1  0.37484500  0.37484500  0.37484500  1
  Ni  Ni2_1  1  0.37484500  0.37484500  0.87484500  1
  Ni  Ni2_2  1  0.37484500  0.87484500  0.37484500  1
  Ni  Ni2_3  1  0.37484500  0.87484500  0.87484500  1
  Ni  Ni2_4  1  0.87484500  0.37484500  0.37484500  1
  Ni  Ni2_5  1  0.87484500  0.37484500  0.87484500  1
  Ni  Ni2_6  1  0.87484500  0.87484500  0.37484500  1
  Ni  Ni2_7  1  0.87484500  0.87484500  0.87484500  1
loop_
_geom_bond_atom_site_label_1
_geom_bond_atom_site_label_2
_geom_bond_distance
_geom_bond_site_symmetry_2
Fe0_0 Ni2_6 2.494828 1_445
Fe0_0 Ni0_1 2.494828 1_554
Fe0_0 Ni0_4 2.494828 1_455
Fe0_0 Ni0_2 2.494828 1_545
Fe0_0 Ni2_3 2.494828 1_544
Fe0_0 Ni2_5 2.494828 1_454
Fe0_0 Fe0_3 2.498742 1_454
Fe0_0 Fe0_3 2.498742 1_445
Fe0_0 Fe0_5 2.498742 1_554
Fe0_0 Fe0_5 2.498742 1_455
Fe0_0 Fe0_6 2.498742 1_545
Fe0_0 Fe0_6 2.498742 1_455
Fe0_1 Ni0_0 2.494828 1_555
Fe0_1 Ni2_7 2.494828 1_445
Fe0_1 Ni2_2 2.494828 1_545
Fe0_1 Ni2_4 2.494828 1_455
Fe0_1 Ni0_3 2.494828 1_545
Fe0_1 Ni0_5 2.494828 1_455
Fe0_1 Fe0_4 2.498742 1_555
Fe0_1 Fe0_4 2.498742 1_456
Fe0_1 Fe0_2 2.498742 1_546
Fe0_1 Fe0_2 2.498742 1_555
Fe0_1 Fe0_7 2.498742 1_455
Fe0_1 Fe0_7 2.498742 1_545
Fe0_2 Ni2_4 2.494828 1_455
Fe0_2 Ni0_3 2.494828 1_554
Fe0_2 Ni0_0 2.494828 1_555
Fe0_2 Ni0_6 2.494828 1_455
Fe0_2 Ni2_1 2.494828 1_554
Fe0_2 Ni2_7 2.494828 1_454
Fe0_2 Fe0_7 2.498742 1_554
Fe0_2 Fe0_7 2.498742 1_455
Fe0_2 Fe0_4 2.498742 1_555
Fe0_2 Fe0_4 2.498742 1_465
Fe0_3 Ni0_2 2.494828 1_655
Fe0_3 Ni2_5 2.494828 1_555
Fe0_3 Ni0_1 2.494828 1_655
Fe0_3 Ni2_6 2.494828 1_555
Fe0_3 Ni0_7 2.494828 1_555
Fe0_3 Ni2_0 2.494828 1_655
Fe0_3 Fe0_6 2.498742 1_556
Fe0_3 Fe0_6 2.498742 1_655
Fe0_3 Fe0_5 2.498742 1_565
Fe0_3 Fe0_5 2.498742 1_655
Fe0_4 Ni2_2 2.494828 1_545
Fe0_4 Ni0_5 2.494828 1_554
Fe0_4 Ni0_0 2.494828 1_555
Fe0_4 Ni0_6 2.494828 1_545
Fe0_4 Ni2_1 2.494828 1_554
Fe0_4 Ni2_7 2.494828 1_544
Fe0_4 Fe0_7 2.498742 1_554
Fe0_4 Fe0_7 2.498742 1_545
Fe0_5 Ni0_4 2.494828 1_555
Fe0_5 Ni2_3 2.494828 1_545
Fe0_5 Ni0_1 2.494828 1_555
Fe0_5 Ni2_6 2.494828 1_545
Fe0_5 Ni0_7 2.494828 1_545
Fe0_5 Ni2_0 2.494828 1_555
Fe0_5 Fe0_6 2.498742 1_546
Fe0_5 Fe0_6 2.498742 1_555
Fe0_6 Ni2_0 2.494828 1_555
Fe0_6 Ni0_7 2.494828 1_554
Fe0_6 Ni0_4 2.494828 1_555
Fe0_6 Ni0_2 2.494828 1_555
Fe0_6 Ni2_5 2.494828 1_554
Fe0_6 Ni2_3 2.494828 1_554
Fe0_7 Ni0_6 2.494828 1_555
Fe0_7 Ni2_1 2.494828 1_555
Fe0_7 Ni0_3 2.494828 1_555
Fe0_7 Ni0_5 2.494828 1_555
Fe0_7 Ni2_2 2.494828 1_555
Fe0_7 Ni2_4 2.494828 1_555
Ni0_0 Ni0_5 2.498742 1_554
Ni0_0 Ni0_3 2.498742 1_554
Ni0_0 Ni0_3 2.498742 1_545
Ni0_0 Ni0_5 2.498742 1_455
Ni0_0 Ni0_6 2.498742 1_455
Ni0_0 Ni0_6 2.498742 1_545
Ni0_0 Ni1_1 2.507244 1_554
Ni0_0 Ni1_2 2.507244 1_545
Ni0_0 Ni1_4 2.507244 1_455
Ni0_1 Ni0_4 2.498742 1_456
Ni0_1 Ni0_2 2.498742 1_546
Ni0_1 Ni0_4 2.498742 1_555
Ni0_1 Ni0_2 2.498742 1_555
Ni0_1 Ni0_7 2.498742 1_545
Ni0_1 Ni0_7 2.498742 1_455
Ni0_1 Ni1_0 2.507244 1_555
Ni0_1 Ni1_5 2.507244 1_455
Ni0_1 Ni1_3 2.507244 1_545
Ni0_2 Ni0_7 2.498742 1_554
Ni0_2 Ni0_7 2.498742 1_455
Ni0_2 Ni0_4 2.498742 1_465
Ni0_2 Ni0_4 2.498742 1_555
Ni0_2 Ni1_3 2.507244 1_554
Ni0_2 Ni1_6 2.507244 1_455
Ni0_2 Ni1_0 2.507244 1_555
Ni0_3 Ni0_6 2.498742 1_456
Ni0_3 Ni0_6 2.498742 1_555
Ni0_3 Ni0_5 2.498742 1_555
Ni0_3 Ni0_5 2.498742 1_465
Ni0_3 Ni1_2 2.507244 1_555
Ni0_3 Ni1_1 2.507244 1_555
Ni0_3 Ni1_7 2.507244 1_455
Ni0_4 Ni0_7 2.498742 1_554
Ni0_4 Ni0_7 2.498742 1_545
Ni0_4 Ni1_5 2.507244 1_554
Ni0_4 Ni1_6 2.507244 1_545
Ni0_4 Ni1_0 2.507244 1_555
Ni0_5 Ni0_6 2.498742 1_546
Ni0_5 Ni0_6 2.498742 1_555
Ni0_5 Ni1_4 2.507244 1_555
Ni0_5 Ni1_1 2.507244 1_555
Ni0_5 Ni1_7 2.507244 1_545
Ni0_6 Ni1_7 2.507244 1_554
Ni0_6 Ni1_4 2.507244 1_555
Ni0_6 Ni1_2 2.507244 1_555
Ni0_7 Ni1_6 2.507244 1_555
Ni0_7 Ni1_3 2.507244 1_555
Ni0_7 Ni1_5 2.507244 1_555
Ni1_0 Ni1_5 2.498742 1_455
Ni1_0 Ni1_5 2.498742 1_554
Ni1_0 Ni1_3 2.498742 1_545
Ni1_0 Ni1_3 2.498742 1_554
Ni1_0 Ni1_6 2.498742 1_455
Ni1_0 Ni1_6 2.498742 1_545
Ni1_0 Ni2_1 2.507244 1_554
Ni1_0 Ni2_4 2.507244 1_455
Ni1_0 Ni2_2 2.507244 1_545
Ni1_1 Ni1_4 2.498742 1_456
Ni1_1 Ni1_2 2.498742 1_555
Ni1_1 Ni1_2 2.498742 1_546
Ni1_1 Ni1_4 2.498742 1_555
Ni1_1 Ni1_7 2.498742 1_455
Ni1_1 Ni1_7 2.498742 1_545
Ni1_1 Ni2_0 2.507244 1_555
Ni1_1 Ni2_5 2.507244 1_455
Ni1_1 Ni2_3 2.507244 1_545
Ni1_2 Ni1_7 2.498742 1_554
Ni1_2 Ni1_7 2.498742 1_455
Ni1_2 Ni1_4 2.498742 1_555
Ni1_2 Ni1_4 2.498742 1_465
Ni1_2 Ni2_3 2.507244 1_554
Ni1_2 Ni2_0 2.507244 1_555
Ni1_2 Ni2_6 2.507244 1_455
Ni1_3 Ni1_6 2.498742 1_456
Ni1_3 Ni1_6 2.498742 1_555
Ni1_3 Ni1_5 2.498742 1_465
Ni1_3 Ni1_5 2.498742 1_555
Ni1_3 Ni2_2 2.507244 1_555
Ni1_3 Ni2_7 2.507244 1_455
Ni1_3 Ni2_1 2.507244 1_555
Ni1_4 Ni1_7 2.498742 1_554
Ni1_4 Ni1_7 2.498742 1_545
Ni1_4 Ni2_5 2.507244 1_554
Ni1_4 Ni2_0 2.507244 1_555
Ni1_4 Ni2_6 2.507244 1_545
Ni1_5 Ni1_6 2.498742 1_546
Ni1_5 Ni1_6 2.498742 1_555
Ni1_5 Ni2_4 2.507244 1_555
Ni1_5 Ni2_7 2.507244 1_545
Ni1_5 Ni2_1 2.507244 1_555
Ni1_6 Ni2_7 2.507244 1_554
Ni1_6 Ni2_4 2.507244 1_555
Ni1_6 Ni2_2 2.507244 1_555
Ni1_7 Ni2_6 2.507244 1_555
Ni1_7 Ni2_3 2.507244 1_555
Ni1_7 Ni2_5 2.507244 1_555
Ni2_0 Ni2_5 2.498742 1_554
Ni2_0 Ni2_3 2.498742 1_545
Ni2_0 Ni2_3 2.498742 1_554
Ni2_0 Ni2_5 2.498742 1_455
Ni2_0 Ni2_6 2.498742 1_455
Ni2_0 Ni2_6 2.498742 1_545
Ni2_1 Ni2_2 2.498742 1_546
Ni2_1 Ni2_2 2.498742 1_555
Ni2_1 Ni2_4 2.498742 1_555
Ni2_1 Ni2_4 2.498742 1_456
Ni2_1 Ni2_7 2.498742 1_545
Ni2_1 Ni2_7 2.498742 1_455
Ni2_2 Ni2_7 2.498742 1_455
Ni2_2 Ni2_7 2.498742 1_554
Ni2_2 Ni2_4 2.498742 1_555
Ni2_2 Ni2_4 2.498742 1_465
Ni2_3 Ni2_6 2.498742 1_456
Ni2_3 Ni2_6 2.498742 1_555
Ni2_3 Ni2_5 2.498742 1_555
Ni2_3 Ni2_5 2.498742 1_465
Ni2_4 Ni2_7 2.498742 1_545
Ni2_4 Ni2_7 2.498742 1_554
Ni2_5 Ni2_6 2.498742 1_555
Ni2_5 Ni2_6 2.498742 1_546
