# generated using pymatgen
data_KAs(HO2)2
_symmetry_space_group_name_H-M   'P 1'
_cell_length_a   6.59167054
_cell_length_b   6.65391051
_cell_length_c   6.65391051
_cell_angle_alpha   66.95157068
_cell_angle_beta   72.11435295
_cell_angle_gamma   107.88564705
_symmetry_Int_Tables_number   1
_chemical_formula_structural   KAs(HO2)2
_chemical_formula_sum   'K2 As2 H4 O8'
_cell_volume   223.06854384
_cell_formula_units_Z   2
loop_
 _symmetry_equiv_pos_site_id
 _symmetry_equiv_pos_as_xyz
  1  'x, y, z'
loop_
 _atom_site_type_symbol
 _atom_site_label
 _atom_site_symmetry_multiplicity
 _atom_site_fract_x
 _atom_site_fract_y
 _atom_site_fract_z
 _atom_site_occupancy
  K  K0  1  0.00000000  0.50471400  0.49528600  1
  K  K1  1  0.50000000  0.25471400  0.24528600  1
  As  As0  1  0.50000000  0.73300400  0.76699600  1
  As  As1  1  0.00000000  0.98300400  0.01699600  1
  H  H0  1  0.43831100  0.02659200  0.84449700  1
  H  H1  1  0.56168900  0.71719200  0.41172000  1
  H  H2  1  0.06168900  0.33828000  0.03280800  1
  H  H3  1  0.93831100  0.90550300  0.72340800  1
  O  O0  1  0.57406500  0.03827500  0.70115000  1
  O  O1  1  0.25256900  0.02213100  0.05012300  1
  O  O2  1  0.42593500  0.72478500  0.53579000  1
  O  O3  1  0.74743100  0.69730800  0.23043800  1
  O  O4  1  0.75256900  0.69987700  0.72786900  1
  O  O5  1  0.92593500  0.21421000  0.02521500  1
  O  O6  1  0.24743100  0.51956200  0.05269200  1
  O  O7  1  0.07406500  0.04885000  0.71172500  1
loop_
_geom_bond_atom_site_label_1
_geom_bond_atom_site_label_2
_geom_bond_distance
_geom_bond_site_symmetry_2
K0 O6 2.840012 1_555
K0 O4 2.840012 1_455
K0 O0 2.889316 1_455
K0 O2 2.889316 1_555
K0 O1 2.977224 1_565
K0 O3 2.977224 1_455
K0 O5 3.071504 1_456
K0 O7 3.071504 1_555
K1 O1 2.840012 1_555
K1 O3 2.840012 1_555
K1 O5 2.889316 1_555
K1 O7 2.889316 1_555
K1 O4 2.977224 1_554
K1 O6 2.977224 1_555
K1 O2 3.071504 1_545
K1 O0 3.071504 1_555
As0 O6 1.700649 1_556
As0 O4 1.700649 1_555
As0 O2 1.766043 1_555
As0 O0 1.766043 1_565
As1 O3 1.700649 1_455
As1 O1 1.700649 1_565
As1 O7 1.766043 1_564
As1 O5 1.766043 1_465
H0 O0 1.044754 1_555
H0 O1 1.512896 1_556
H1 O2 1.044750 1_555
H1 O3 1.512900 1_555
H2 O5 1.044750 1_455
H2 O6 1.512900 1_555
H3 O7 1.044754 1_665
H3 O4 1.512896 1_555
