# generated using pymatgen
data_HoZn(SbO3)2
_symmetry_space_group_name_H-M   'P 1'
_cell_length_a   5.55875900
_cell_length_b   6.33557590
_cell_length_c   8.59521714
_cell_angle_alpha   96.50496127
_cell_angle_beta   89.68499624
_cell_angle_gamma   94.18918977
_symmetry_Int_Tables_number   1
_chemical_formula_structural   HoZn(SbO3)2
_chemical_formula_sum   'Ho2 Zn2 Sb4 O12'
_cell_volume   299.95231453
_cell_formula_units_Z   2
loop_
 _symmetry_equiv_pos_site_id
 _symmetry_equiv_pos_as_xyz
  1  'x, y, z'
loop_
 _atom_site_type_symbol
 _atom_site_label
 _atom_site_symmetry_multiplicity
 _atom_site_fract_x
 _atom_site_fract_y
 _atom_site_fract_z
 _atom_site_occupancy
  Ho  Ho0  1  0.96361200  0.92793200  0.25137400  1
  Ho  Ho1  1  0.44630300  0.58827400  0.74213600  1
  Zn  Zn0  1  0.46981900  0.65583400  0.25758900  1
  Zn  Zn1  1  0.97712800  0.82969200  0.78284400  1
  Sb  Sb0  1  0.01990200  0.41827600  0.00812300  1
  Sb  Sb1  1  0.98002000  0.50002200  0.47728000  1
  Sb  Sb2  1  0.48504000  0.09161200  0.51809300  1
  Sb  Sb3  1  0.51639500  0.01380600  0.00457300  1
  O  O0  1  0.81711600  0.49241400  0.68213700  1
  O  O1  1  0.94241500  0.13060100  0.06770400  1
  O  O2  1  0.80773400  0.21035500  0.40211700  1
  O  O3  1  0.66895800  0.76151800  0.09083400  1
  O  O4  1  0.74393600  0.69715600  0.40738200  1
  O  O5  1  0.65700400  0.91591100  0.79272700  1
  O  O6  1  0.35124100  0.97264900  0.31275600  1
  O  O7  1  0.28496000  0.35463300  0.53321200  1
  O  O8  1  0.31994800  0.35097400  0.89937100  1
  O  O9  1  0.23115900  0.79045800  0.92930500  1
  O  O10  1  0.18200000  0.75707800  0.58768500  1
  O  O11  1  0.13531300  0.54080500  0.25275700  1
loop_
_geom_bond_atom_site_label_1
_geom_bond_atom_site_label_2
_geom_bond_distance
_geom_bond_site_symmetry_2
Ho0 O1 2.153668 1_565
Ho0 O6 2.211549 1_655
Ho0 O3 2.267451 1_555
Ho0 O2 2.306530 1_565
Ho0 O4 2.364809 1_555
Ho0 O11 2.697304 1_655
Ho1 O8 2.208114 1_555
Ho1 O0 2.232451 1_555
Ho1 O5 2.305554 1_555
Ho1 O9 2.322701 1_555
Ho1 O7 2.332742 1_555
Ho1 O10 2.374313 1_555
O0 Sb1 1.979403 1_555
O0 Zn1 2.327709 1_555
O1 Sb0 1.965699 1_655
O1 Sb3 2.473302 1_555
O2 Sb1 2.045464 1_555
O2 Sb2 2.174946 1_555
O3 Zn0 1.954416 1_555
O3 Sb3 2.072982 1_565
O4 Zn0 1.983667 1_555
O4 Sb1 2.015245 1_555
O5 Zn1 1.897902 1_555
O5 Sb3 2.027418 1_566
O6 Sb2 1.966545 1_565
O6 Zn0 2.159259 1_555
O7 Sb2 2.061757 1_555
O7 Sb1 2.071310 1_455
O8 Sb0 1.958023 1_556
O8 Sb3 2.713407 1_556
O9 Zn1 1.944806 1_455
O9 Sb3 2.100221 1_566
O10 Zn1 2.050137 1_455
O10 Sb1 2.051300 1_455
O11 Zn0 1.945857 1_555
O11 Sb1 2.144350 1_455
O11 Sb0 2.237791 1_555
