# generated using pymatgen
data_Co(AsO2)2
_symmetry_space_group_name_H-M   'P 1'
_cell_length_a   8.36484865
_cell_length_b   8.36484865
_cell_length_c   5.62326936
_cell_angle_alpha   90.00000000
_cell_angle_beta   90.00000000
_cell_angle_gamma   90.00000000
_symmetry_Int_Tables_number   1
_chemical_formula_structural   Co(AsO2)2
_chemical_formula_sum   'Co4 As8 O16'
_cell_volume   393.46405369
_cell_formula_units_Z   4
loop_
 _symmetry_equiv_pos_site_id
 _symmetry_equiv_pos_as_xyz
  1  'x, y, z'
loop_
 _atom_site_type_symbol
 _atom_site_label
 _atom_site_symmetry_multiplicity
 _atom_site_fract_x
 _atom_site_fract_y
 _atom_site_fract_z
 _atom_site_occupancy
  Co  Co0  1  0.50000000  -0.00000000  0.25000000  1
  Co  Co1  1  0.00000000  0.50000000  0.75000000  1
  Co  Co2  1  0.50000000  -0.00000000  0.75000000  1
  Co  Co3  1  0.00000000  0.50000000  0.25000000  1
  As  As0  1  0.16925856  0.18716865  0.00000000  1
  As  As1  1  0.18716865  0.83074144  0.50000000  1
  As  As2  1  0.83074144  0.81283135  -0.00000000  1
  As  As3  1  0.81283135  0.16925856  0.50000000  1
  As  As4  1  0.33074144  0.68716865  -0.00000000  1
  As  As5  1  0.66925856  0.31283135  0.00000000  1
  As  As6  1  0.68716865  0.66925856  0.50000000  1
  As  As7  1  0.31283135  0.33074144  0.50000000  1
  O  O0  1  0.31371081  0.18628919  0.25000000  1
  O  O1  1  0.18628919  0.68628919  0.75000000  1
  O  O2  1  0.68628919  0.81371081  0.25000000  1
  O  O3  1  0.81371081  0.31371081  0.75000000  1
  O  O4  1  0.68628919  0.81371081  0.75000000  1
  O  O5  1  0.81371081  0.31371081  0.25000000  1
  O  O6  1  0.31371081  0.18628919  0.75000000  1
  O  O7  1  0.18628919  0.68628919  0.25000000  1
  O  O8  1  0.63594298  0.10566533  -0.00000000  1
  O  O9  1  0.10566533  0.36405702  0.50000000  1
  O  O10  1  0.36405702  0.89433467  0.00000000  1
  O  O11  1  0.89433467  0.63594298  0.50000000  1
  O  O12  1  0.86405702  0.60566533  -0.00000000  1
  O  O13  1  0.13594298  0.39433467  0.00000000  1
  O  O14  1  0.60566533  0.13594298  0.50000000  1
  O  O15  1  0.39433467  0.86405702  0.50000000  1
loop_
_geom_bond_atom_site_label_1
_geom_bond_atom_site_label_2
_geom_bond_distance
_geom_bond_site_symmetry_2
Co0 O14 2.012623 1_555
Co0 O10 2.012623 1_545
Co0 O15 2.012623 1_545
Co0 O8 2.012623 1_555
Co0 O0 2.203742 1_555
Co0 O2 2.203742 1_545
Co1 O9 2.012623 1_555
Co1 O13 2.012623 1_556
Co1 O12 2.012623 1_456
Co1 O11 2.012623 1_455
Co1 O1 2.203742 1_555
Co1 O3 2.203742 1_455
Co2 O14 2.012623 1_555
Co2 O10 2.012623 1_546
Co2 O15 2.012623 1_545
Co2 O8 2.012623 1_556
Co2 O6 2.203742 1_555
Co2 O4 2.203742 1_545
Co3 O9 2.012623 1_555
Co3 O13 2.012623 1_555
Co3 O12 2.012623 1_455
Co3 O11 2.012623 1_455
Co3 O7 2.203742 1_555
Co3 O5 2.203742 1_455
As0 O13 1.755177 1_555
As0 O0 1.853757 1_555
As0 O6 1.853757 1_554
As1 O15 1.755177 1_555
As1 O7 1.853757 1_555
As1 O1 1.853757 1_555
As2 O12 1.755177 1_555
As2 O4 1.853757 1_554
As2 O2 1.853757 1_555
As3 O14 1.755177 1_555
As3 O5 1.853757 1_555
As3 O3 1.853757 1_555
As4 O10 1.755177 1_555
As4 O7 1.853757 1_555
As4 O1 1.853757 1_554
As5 O8 1.755177 1_555
As5 O5 1.853757 1_555
As5 O3 1.853757 1_554
As6 O11 1.755177 1_555
As6 O4 1.853757 1_555
As6 O2 1.853757 1_555
As7 O9 1.755177 1_555
As7 O0 1.853757 1_555
As7 O6 1.853757 1_555
