# generated using pymatgen
data_MnAgN
_symmetry_space_group_name_H-M   'P 1'
_cell_length_a   12.50537955
_cell_length_b   6.70093931
_cell_length_c   17.35356839
_cell_angle_alpha   90.00000351
_cell_angle_beta   101.28731832
_cell_angle_gamma   74.45932734
_symmetry_Int_Tables_number   1
_chemical_formula_structural   MnAgN
_chemical_formula_sum   'Mn32 Ag32 N32'
_cell_volume   1371.80962289
_cell_formula_units_Z   32
loop_
 _symmetry_equiv_pos_site_id
 _symmetry_equiv_pos_as_xyz
  1  'x, y, z'
loop_
 _atom_site_type_symbol
 _atom_site_label
 _atom_site_symmetry_multiplicity
 _atom_site_fract_x
 _atom_site_fract_y
 _atom_site_fract_z
 _atom_site_occupancy
  Mn  Mn0_0  1  0.26658250  0.36670900  0.44998550  1
  Mn  Mn0_1  1  0.26658250  0.36670900  0.94998550  1
  Mn  Mn0_2  1  0.26658250  0.86670900  0.44998550  1
  Mn  Mn0_3  1  0.26658250  0.86670900  0.94998550  1
  Mn  Mn0_4  1  0.76658250  0.36670900  0.44998550  1
  Mn  Mn0_5  1  0.76658250  0.36670900  0.94998550  1
  Mn  Mn0_6  1  0.76658250  0.86670900  0.44998550  1
  Mn  Mn0_7  1  0.76658250  0.86670900  0.94998550  1
  Mn  Mn1_0  1  0.23341750  0.13329100  0.05001450  1
  Mn  Mn1_1  1  0.23341750  0.13329100  0.55001450  1
  Mn  Mn1_2  1  0.23341750  0.63329100  0.05001450  1
  Mn  Mn1_3  1  0.23341750  0.63329100  0.55001450  1
  Mn  Mn1_4  1  0.73341750  0.13329100  0.05001450  1
  Mn  Mn1_5  1  0.73341750  0.13329100  0.55001450  1
  Mn  Mn1_6  1  0.73341750  0.63329100  0.05001450  1
  Mn  Mn1_7  1  0.73341750  0.63329100  0.55001450  1
  Mn  Mn2_0  1  0.05849700  0.22075200  0.44882700  1
  Mn  Mn2_1  1  0.05849700  0.22075200  0.94882700  1
  Mn  Mn2_2  1  0.05849700  0.72075200  0.44882700  1
  Mn  Mn2_3  1  0.05849700  0.72075200  0.94882700  1
  Mn  Mn2_4  1  0.55849700  0.22075200  0.44882700  1
  Mn  Mn2_5  1  0.55849700  0.22075200  0.94882700  1
  Mn  Mn2_6  1  0.55849700  0.72075200  0.44882700  1
  Mn  Mn2_7  1  0.55849700  0.72075200  0.94882700  1
  Mn  Mn3_0  1  0.44150350  0.27924800  0.05117300  1
  Mn  Mn3_1  1  0.44150350  0.27924800  0.55117300  1
  Mn  Mn3_2  1  0.44150350  0.77924800  0.05117300  1
  Mn  Mn3_3  1  0.44150350  0.77924800  0.55117300  1
  Mn  Mn3_4  1  0.94150350  0.27924800  0.05117300  1
  Mn  Mn3_5  1  0.94150350  0.27924800  0.55117300  1
  Mn  Mn3_6  1  0.94150350  0.77924800  0.05117300  1
  Mn  Mn3_7  1  0.94150350  0.77924800  0.55117300  1
  Ag  Ag0_0  1  0.34239750  0.32880150  0.29628250  1
  Ag  Ag0_1  1  0.34239750  0.32880150  0.79628250  1
  Ag  Ag0_2  1  0.34239750  0.82880150  0.29628250  1
  Ag  Ag0_3  1  0.34239750  0.82880150  0.79628250  1
  Ag  Ag0_4  1  0.84239750  0.32880150  0.29628250  1
  Ag  Ag0_5  1  0.84239750  0.32880150  0.79628250  1
  Ag  Ag0_6  1  0.84239750  0.82880150  0.29628250  1
  Ag  Ag0_7  1  0.84239750  0.82880150  0.79628250  1
  Ag  Ag1_0  1  0.15760250  0.17119850  0.20371750  1
  Ag  Ag1_1  1  0.15760250  0.17119850  0.70371750  1
  Ag  Ag1_2  1  0.15760250  0.67119850  0.20371750  1
  Ag  Ag1_3  1  0.15760250  0.67119850  0.70371750  1
  Ag  Ag1_4  1  0.65760250  0.17119850  0.20371750  1
  Ag  Ag1_5  1  0.65760250  0.17119850  0.70371750  1
  Ag  Ag1_6  1  0.65760250  0.67119850  0.20371750  1
  Ag  Ag1_7  1  0.65760250  0.67119850  0.70371750  1
  Ag  Ag2_0  1  0.07677700  0.46161150  0.31933900  1
  Ag  Ag2_1  1  0.07677700  0.46161150  0.81933900  1
  Ag  Ag2_2  1  0.07677700  0.96161150  0.31933900  1
  Ag  Ag2_3  1  0.07677700  0.96161150  0.81933900  1
  Ag  Ag2_4  1  0.57677700  0.46161150  0.31933900  1
  Ag  Ag2_5  1  0.57677700  0.46161150  0.81933900  1
  Ag  Ag2_6  1  0.57677700  0.96161150  0.31933900  1
  Ag  Ag2_7  1  0.57677700  0.96161150  0.81933900  1
  Ag  Ag3_0  1  0.42322300  0.03838850  0.18066100  1
  Ag  Ag3_1  1  0.42322300  0.03838850  0.68066100  1
  Ag  Ag3_2  1  0.42322300  0.53838850  0.18066100  1
  Ag  Ag3_3  1  0.42322300  0.53838850  0.68066100  1
  Ag  Ag3_4  1  0.92322300  0.03838850  0.18066100  1
  Ag  Ag3_5  1  0.92322300  0.03838850  0.68066100  1
  Ag  Ag3_6  1  0.92322300  0.53838850  0.18066100  1
  Ag  Ag3_7  1  0.92322300  0.53838850  0.68066100  1
  N  N0_0  1  0.40540200  0.29729900  0.43659800  1
  N  N0_1  1  0.40540200  0.29729900  0.93659800  1
  N  N0_2  1  0.40540200  0.79729900  0.43659800  1
  N  N0_3  1  0.40540200  0.79729900  0.93659800  1
  N  N0_4  1  0.90540200  0.29729900  0.43659800  1
  N  N0_5  1  0.90540200  0.29729900  0.93659800  1
  N  N0_6  1  0.90540200  0.79729900  0.43659800  1
  N  N0_7  1  0.90540200  0.79729900  0.93659800  1
  N  N1_0  1  0.09459800  0.20270100  0.06340200  1
  N  N1_1  1  0.09459800  0.20270100  0.56340200  1
  N  N1_2  1  0.09459800  0.70270100  0.06340200  1
  N  N1_3  1  0.09459800  0.70270100  0.56340200  1
  N  N1_4  1  0.59459800  0.20270100  0.06340200  1
  N  N1_5  1  0.59459800  0.20270100  0.56340200  1
  N  N1_6  1  0.59459800  0.70270100  0.06340200  1
  N  N1_7  1  0.59459800  0.70270100  0.56340200  1
  N  N2_0  1  0.20748100  0.14625950  0.43329250  1
  N  N2_1  1  0.20748100  0.14625950  0.93329250  1
  N  N2_2  1  0.20748100  0.64625950  0.43329250  1
  N  N2_3  1  0.20748100  0.64625950  0.93329250  1
  N  N2_4  1  0.70748100  0.14625950  0.43329250  1
  N  N2_5  1  0.70748100  0.14625950  0.93329250  1
  N  N2_6  1  0.70748100  0.64625950  0.43329250  1
  N  N2_7  1  0.70748100  0.64625950  0.93329250  1
  N  N3_0  1  0.29251900  0.35374050  0.06670750  1
  N  N3_1  1  0.29251900  0.35374050  0.56670750  1
  N  N3_2  1  0.29251900  0.85374050  0.06670750  1
  N  N3_3  1  0.29251900  0.85374050  0.56670750  1
  N  N3_4  1  0.79251900  0.35374050  0.06670750  1
  N  N3_5  1  0.79251900  0.35374050  0.56670750  1
  N  N3_6  1  0.79251900  0.85374050  0.06670750  1
  N  N3_7  1  0.79251900  0.85374050  0.56670750  1
loop_
_geom_bond_atom_site_label_1
_geom_bond_atom_site_label_2
_geom_bond_distance
_geom_bond_site_symmetry_2
Mn0_0 N0_0 1.734701 1_555
Mn0_0 N2_2 1.820316 1_555
Mn0_0 N2_0 1.820319 1_555
Mn0_0 N3_1 1.985773 1_555
Mn0_1 N0_1 1.734701 1_555
Mn0_1 N2_3 1.820316 1_555
Mn0_1 N2_1 1.820319 1_555
Mn0_1 N3_0 1.985773 1_556
Mn0_2 N0_2 1.734701 1_555
Mn0_2 N2_0 1.820316 1_565
Mn0_2 N2_2 1.820319 1_555
Mn0_2 N3_3 1.985773 1_555
Mn0_3 N0_3 1.734701 1_555
Mn0_3 N2_1 1.820316 1_565
Mn0_3 N2_3 1.820319 1_555
Mn0_3 N3_2 1.985773 1_556
Mn0_4 N0_4 1.734701 1_555
Mn0_4 N2_6 1.820316 1_555
Mn0_4 N2_4 1.820319 1_555
Mn0_4 N3_5 1.985773 1_555
Mn0_5 N0_5 1.734701 1_555
Mn0_5 N2_7 1.820316 1_555
Mn0_5 N2_5 1.820319 1_555
Mn0_5 N3_4 1.985773 1_556
Mn0_6 N0_6 1.734701 1_555
Mn0_6 N2_4 1.820316 1_565
Mn0_6 N2_6 1.820319 1_555
Mn0_6 N3_7 1.985773 1_555
Mn0_7 N0_7 1.734701 1_555
Mn0_7 N2_5 1.820316 1_565
Mn0_7 N2_7 1.820319 1_555
Mn0_7 N3_6 1.985773 1_556
Mn1_0 N1_0 1.734701 1_555
Mn1_0 N3_2 1.820316 1_545
Mn1_0 N3_0 1.820319 1_555
Mn1_0 N2_1 1.985773 1_554
Mn1_1 N1_1 1.734701 1_555
Mn1_1 N3_3 1.820316 1_545
Mn1_1 N3_1 1.820319 1_555
Mn1_1 N2_0 1.985773 1_555
Mn1_2 N1_2 1.734701 1_555
Mn1_2 N3_0 1.820316 1_555
Mn1_2 N3_2 1.820319 1_555
Mn1_2 N2_3 1.985773 1_554
Mn1_3 N1_3 1.734701 1_555
Mn1_3 N3_1 1.820316 1_555
Mn1_3 N3_3 1.820319 1_555
Mn1_3 N2_2 1.985773 1_555
Mn1_4 N1_4 1.734701 1_555
Mn1_4 N3_6 1.820316 1_545
Mn1_4 N3_4 1.820319 1_555
Mn1_4 N2_5 1.985773 1_554
Mn1_5 N1_5 1.734701 1_555
Mn1_5 N3_7 1.820316 1_545
Mn1_5 N3_5 1.820319 1_555
Mn1_5 N2_4 1.985773 1_555
Mn1_6 N1_6 1.734701 1_555
Mn1_6 N3_4 1.820316 1_555
Mn1_6 N3_6 1.820319 1_555
Mn1_6 N2_7 1.985773 1_554
Mn1_7 N1_7 1.734701 1_555
Mn1_7 N3_5 1.820316 1_555
Mn1_7 N3_7 1.820319 1_555
Mn1_7 N2_6 1.985773 1_555
Mn2_0 N0_4 1.813349 1_455
Mn2_0 N2_0 1.868492 1_555
Mn2_0 N1_1 1.947069 1_555
Mn2_1 N0_5 1.813349 1_455
Mn2_1 N2_1 1.868492 1_555
Mn2_1 N1_0 1.947069 1_556
Mn2_2 N0_6 1.813349 1_455
Mn2_2 N2_2 1.868492 1_555
Mn2_2 N1_3 1.947069 1_555
Mn2_3 N0_7 1.813349 1_455
Mn2_3 N2_3 1.868492 1_555
Mn2_3 N1_2 1.947069 1_556
Mn2_4 N0_0 1.813349 1_555
Mn2_4 N2_4 1.868492 1_555
Mn2_4 N1_5 1.947069 1_555
Mn2_5 N0_1 1.813349 1_555
Mn2_5 N2_5 1.868492 1_555
Mn2_5 N1_4 1.947069 1_556
Mn2_6 N0_2 1.813349 1_555
Mn2_6 N2_6 1.868492 1_555
Mn2_6 N1_7 1.947069 1_555
Mn2_7 N0_3 1.813349 1_555
Mn2_7 N2_7 1.868492 1_555
Mn2_7 N1_6 1.947069 1_556
Mn3_0 N1_4 1.813343 1_555
Mn3_0 N3_0 1.868498 1_555
Mn3_0 N0_1 1.947069 1_554
Mn3_1 N1_5 1.813343 1_555
Mn3_1 N3_1 1.868498 1_555
Mn3_1 N0_0 1.947069 1_555
Mn3_2 N1_6 1.813343 1_555
Mn3_2 N3_2 1.868498 1_555
Mn3_2 N0_3 1.947069 1_554
Mn3_3 N1_7 1.813343 1_555
Mn3_3 N3_3 1.868498 1_555
Mn3_3 N0_2 1.947069 1_555
Mn3_4 N1_0 1.813343 1_655
Mn3_4 N3_4 1.868498 1_555
Mn3_4 N0_5 1.947069 1_554
Mn3_5 N1_1 1.813343 1_655
Mn3_5 N3_5 1.868498 1_555
Mn3_5 N0_4 1.947069 1_555
Mn3_6 N1_2 1.813343 1_655
Mn3_6 N3_6 1.868498 1_555
Mn3_6 N0_7 1.947069 1_554
Mn3_7 N1_3 1.813343 1_655
Mn3_7 N3_7 1.868498 1_555
Mn3_7 N0_6 1.947069 1_555
Ag0_0 N0_0 2.398813 1_555
Ag0_0 Ag3_2 2.928208 1_555
Ag0_0 Ag3_0 2.928210 1_555
Ag0_0 Ag2_4 3.237521 1_555
Ag0_0 Ag2_6 3.237522 1_545
Ag0_0 Ag2_0 3.304835 1_555
Ag0_1 N0_1 2.398813 1_555
Ag0_1 Ag3_3 2.928208 1_555
Ag0_1 Ag3_1 2.928210 1_555
Ag0_1 Ag2_5 3.237521 1_555
Ag0_1 Ag2_7 3.237522 1_545
Ag0_1 Ag2_1 3.304835 1_555
Ag0_2 N0_2 2.398813 1_555
Ag0_2 Ag3_0 2.928208 1_565
Ag0_2 Ag3_2 2.928210 1_555
Ag0_2 Ag2_6 3.237521 1_555
Ag0_2 Ag2_4 3.237522 1_555
Ag0_2 Ag2_2 3.304835 1_555
Ag0_3 N0_3 2.398813 1_555
Ag0_3 Ag3_1 2.928208 1_565
Ag0_3 Ag3_3 2.928210 1_555
Ag0_3 Ag2_7 3.237521 1_555
Ag0_3 Ag2_5 3.237522 1_555
Ag0_3 Ag2_3 3.304835 1_555
Ag0_4 N0_4 2.398813 1_555
Ag0_4 Ag3_6 2.928208 1_555
Ag0_4 Ag3_4 2.928210 1_555
Ag0_4 Ag2_0 3.237521 1_655
Ag0_4 Ag2_2 3.237522 1_645
Ag0_4 Ag2_4 3.304835 1_555
Ag0_5 N0_5 2.398813 1_555
Ag0_5 Ag3_7 2.928208 1_555
Ag0_5 Ag3_5 2.928210 1_555
Ag0_5 Ag2_1 3.237521 1_655
Ag0_5 Ag2_3 3.237522 1_645
Ag0_5 Ag2_5 3.304835 1_555
Ag0_6 N0_6 2.398813 1_555
Ag0_6 Ag3_4 2.928208 1_565
Ag0_6 Ag3_6 2.928210 1_555
Ag0_6 Ag2_2 3.237521 1_655
Ag0_6 Ag2_0 3.237522 1_655
Ag0_6 Ag2_6 3.304835 1_555
Ag0_7 N0_7 2.398813 1_555
Ag0_7 Ag3_5 2.928208 1_565
Ag0_7 Ag3_7 2.928210 1_555
Ag0_7 Ag2_3 3.237521 1_655
Ag0_7 Ag2_1 3.237522 1_655
Ag0_7 Ag2_7 3.304835 1_555
Ag1_0 N1_0 2.398813 1_555
Ag1_0 Ag2_2 2.928208 1_545
Ag1_0 Ag2_0 2.928210 1_555
Ag1_0 Ag3_4 3.237521 1_455
Ag1_0 Ag3_6 3.237522 1_455
Ag1_0 Ag3_0 3.304835 1_555
Ag1_1 N1_1 2.398813 1_555
Ag1_1 Ag2_3 2.928208 1_545
Ag1_1 Ag2_1 2.928210 1_555
Ag1_1 Ag3_5 3.237521 1_455
Ag1_1 Ag3_7 3.237522 1_455
Ag1_1 Ag3_1 3.304835 1_555
Ag1_2 N1_2 2.398813 1_555
Ag1_2 Ag2_0 2.928208 1_555
Ag1_2 Ag2_2 2.928210 1_555
Ag1_2 Ag3_6 3.237521 1_455
Ag1_2 Ag3_4 3.237522 1_465
Ag1_2 Ag3_2 3.304835 1_555
Ag1_3 N1_3 2.398813 1_555
Ag1_3 Ag2_1 2.928208 1_555
Ag1_3 Ag2_3 2.928210 1_555
Ag1_3 Ag3_7 3.237521 1_455
Ag1_3 Ag3_5 3.237522 1_465
Ag1_3 Ag3_3 3.304835 1_555
Ag1_4 N1_4 2.398813 1_555
Ag1_4 Ag2_6 2.928208 1_545
Ag1_4 Ag2_4 2.928210 1_555
Ag1_4 Ag3_0 3.237521 1_555
Ag1_4 Ag3_2 3.237522 1_555
Ag1_4 Ag3_4 3.304835 1_555
Ag1_5 N1_5 2.398813 1_555
Ag1_5 Ag2_7 2.928208 1_545
Ag1_5 Ag2_5 2.928210 1_555
Ag1_5 Ag3_1 3.237521 1_555
Ag1_5 Ag3_3 3.237522 1_555
Ag1_5 Ag3_5 3.304835 1_555
Ag1_6 N1_6 2.398813 1_555
Ag1_6 Ag2_4 2.928208 1_555
Ag1_6 Ag2_6 2.928210 1_555
Ag1_6 Ag3_2 3.237521 1_555
Ag1_6 Ag3_0 3.237522 1_565
Ag1_6 Ag3_6 3.304835 1_555
Ag1_7 N1_7 2.398813 1_555
Ag1_7 Ag2_5 2.928208 1_555
Ag1_7 Ag2_7 2.928210 1_555
Ag1_7 Ag3_3 3.237521 1_555
Ag1_7 Ag3_1 3.237522 1_565
Ag1_7 Ag3_7 3.304835 1_555
Ag2_0 Ag3_6 2.721249 1_455
Ag2_0 N2_0 2.816285 1_555
Ag2_0 N2_2 2.816285 1_555
Ag2_0 Mn2_0 2.846990 1_555
Ag2_0 Mn2_2 2.846994 1_555
Ag2_0 Mn0_0 2.874553 1_555
Ag2_0 Ag2_2 3.350470 1_555
Ag2_0 Ag2_2 3.350470 1_545
Ag2_1 Ag3_7 2.721249 1_455
Ag2_1 N2_1 2.816285 1_555
Ag2_1 N2_3 2.816285 1_555
Ag2_1 Mn2_1 2.846990 1_555
Ag2_1 Mn2_3 2.846994 1_555
Ag2_1 Mn0_1 2.874553 1_555
Ag2_1 Ag2_3 3.350470 1_545
Ag2_1 Ag2_3 3.350470 1_555
Ag2_2 Ag3_4 2.721249 1_465
Ag2_2 N2_2 2.816285 1_555
Ag2_2 N2_0 2.816285 1_565
Ag2_2 Mn2_2 2.846990 1_555
Ag2_2 Mn2_0 2.846994 1_565
Ag2_2 Mn0_2 2.874553 1_555
Ag2_3 Ag3_5 2.721249 1_465
Ag2_3 N2_3 2.816285 1_555
Ag2_3 N2_1 2.816285 1_565
Ag2_3 Mn2_3 2.846990 1_555
Ag2_3 Mn2_1 2.846994 1_565
Ag2_3 Mn0_3 2.874553 1_555
Ag2_4 Ag3_2 2.721249 1_555
Ag2_4 N2_4 2.816285 1_555
Ag2_4 N2_6 2.816285 1_555
Ag2_4 Mn2_4 2.846990 1_555
Ag2_4 Mn2_6 2.846994 1_555
Ag2_4 Mn0_4 2.874553 1_555
Ag2_4 Ag2_6 3.350470 1_555
Ag2_4 Ag2_6 3.350470 1_545
Ag2_5 Ag3_3 2.721249 1_555
Ag2_5 N2_5 2.816285 1_555
Ag2_5 N2_7 2.816285 1_555
Ag2_5 Mn2_5 2.846990 1_555
Ag2_5 Mn2_7 2.846994 1_555
Ag2_5 Mn0_5 2.874553 1_555
Ag2_5 Ag2_7 3.350470 1_555
Ag2_5 Ag2_7 3.350470 1_545
Ag2_6 Ag3_0 2.721249 1_565
Ag2_6 N2_6 2.816285 1_555
Ag2_6 N2_4 2.816285 1_565
Ag2_6 Mn2_6 2.846990 1_555
Ag2_6 Mn2_4 2.846994 1_565
Ag2_6 Mn0_6 2.874553 1_555
Ag2_7 Ag3_1 2.721249 1_565
Ag2_7 N2_7 2.816285 1_555
Ag2_7 N2_5 2.816285 1_565
Ag2_7 Mn2_7 2.846990 1_555
Ag2_7 Mn2_5 2.846994 1_565
Ag2_7 Mn0_7 2.874553 1_555
Ag3_0 N3_0 2.816285 1_555
Ag3_0 N3_2 2.816285 1_545
Ag3_0 Mn3_0 2.846993 1_555
Ag3_0 Mn3_2 2.846995 1_545
Ag3_0 Mn1_0 2.874553 1_555
Ag3_0 Ag3_2 3.350470 1_555
Ag3_0 Ag3_2 3.350470 1_545
Ag3_1 N3_1 2.816285 1_555
Ag3_1 N3_3 2.816285 1_545
Ag3_1 Mn3_1 2.846993 1_555
Ag3_1 Mn3_3 2.846995 1_545
Ag3_1 Mn1_1 2.874553 1_555
Ag3_1 Ag3_3 3.350470 1_555
Ag3_1 Ag3_3 3.350470 1_545
Ag3_2 N3_2 2.816285 1_555
Ag3_2 N3_0 2.816285 1_555
Ag3_2 Mn3_2 2.846993 1_555
Ag3_2 Mn3_0 2.846995 1_555
Ag3_2 Mn1_2 2.874553 1_555
Ag3_3 N3_3 2.816285 1_555
Ag3_3 N3_1 2.816285 1_555
Ag3_3 Mn3_3 2.846993 1_555
Ag3_3 Mn3_1 2.846995 1_555
Ag3_3 Mn1_3 2.874553 1_555
Ag3_4 N3_4 2.816285 1_555
Ag3_4 N3_6 2.816285 1_545
Ag3_4 Mn3_4 2.846993 1_555
Ag3_4 Mn3_6 2.846995 1_545
Ag3_4 Mn1_4 2.874553 1_555
Ag3_4 Ag3_6 3.350470 1_545
Ag3_4 Ag3_6 3.350470 1_555
Ag3_5 N3_5 2.816285 1_555
Ag3_5 N3_7 2.816285 1_545
Ag3_5 Mn3_5 2.846993 1_555
Ag3_5 Mn3_7 2.846995 1_545
Ag3_5 Mn1_5 2.874553 1_555
Ag3_5 Ag3_7 3.350470 1_555
Ag3_5 Ag3_7 3.350470 1_545
Ag3_6 N3_6 2.816285 1_555
Ag3_6 N3_4 2.816285 1_555
Ag3_6 Mn3_6 2.846993 1_555
Ag3_6 Mn3_4 2.846995 1_555
Ag3_6 Mn1_6 2.874553 1_555
Ag3_7 N3_7 2.816285 1_555
Ag3_7 N3_5 2.816285 1_555
Ag3_7 Mn3_7 2.846993 1_555
Ag3_7 Mn3_5 2.846995 1_555
Ag3_7 Mn1_7 2.874553 1_555
