# generated using pymatgen
data_ZrNb2Pd9
_symmetry_space_group_name_H-M   'P 1'
_cell_length_a   12.51414159
_cell_length_b   12.51414159
_cell_length_c   12.51414159
_cell_angle_alpha   161.74217111
_cell_angle_beta   161.74217111
_cell_angle_gamma   25.93213485
_symmetry_Int_Tables_number   1
_chemical_formula_structural   ZrNb2Pd9
_chemical_formula_sum   'Zr1 Nb2 Pd9'
_cell_volume   192.29204721
_cell_formula_units_Z   1
loop_
 _symmetry_equiv_pos_site_id
 _symmetry_equiv_pos_as_xyz
  1  'x, y, z'
loop_
 _atom_site_type_symbol
 _atom_site_label
 _atom_site_symmetry_multiplicity
 _atom_site_fract_x
 _atom_site_fract_y
 _atom_site_fract_z
 _atom_site_occupancy
  Zr  Zr0  1  0.00000000  0.00000000  0.00000000  1
  Nb  Nb0  1  0.66692200  0.66692200  0.00000000  1
  Nb  Nb1  1  0.33307800  0.33307800  0.00000000  1
  Pd  Pd0  1  0.58614100  0.08614100  0.50000000  1
  Pd  Pd1  1  0.25000000  0.75000000  0.50000000  1
  Pd  Pd2  1  0.91385900  0.41385900  0.50000000  1
  Pd  Pd3  1  0.08614100  0.58614100  0.50000000  1
  Pd  Pd4  1  0.75000000  0.25000000  0.50000000  1
  Pd  Pd5  1  0.41385900  0.91385900  0.50000000  1
  Pd  Pd6  1  0.50000000  0.50000000  0.00000000  1
  Pd  Pd7  1  0.16821500  0.16821500  0.00000000  1
  Pd  Pd8  1  0.83178500  0.83178500  0.00000000  1
loop_
_geom_bond_atom_site_label_1
_geom_bond_atom_site_label_2
_geom_bond_distance
_geom_bond_site_symmetry_2
Nb0 Pd0 2.797128 1_565
Nb0 Pd3 2.797128 1_554
Nb0 Pd0 2.797128 1_554
Nb0 Pd3 2.797128 1_655
Nb0 Pd7 2.808025 1_554
Nb0 Pd7 2.808025 1_565
Nb0 Pd7 2.808025 1_655
Nb0 Pd7 2.808025 1_666
Nb0 Pd4 2.836870 1_554
Nb0 Pd1 2.836870 1_554
Nb0 Pd1 2.836870 1_655
Nb0 Pd4 2.836870 1_565
Nb1 Pd5 2.797128 1_555
Nb1 Pd5 2.797128 1_544
Nb1 Pd2 2.797128 1_555
Nb1 Pd2 2.797128 1_454
Nb1 Pd8 2.808025 1_444
Nb1 Pd8 2.808025 1_455
Nb1 Pd8 2.808025 1_545
Nb1 Pd8 2.808025 1_556
Nb1 Pd4 2.836870 1_555
Nb1 Pd1 2.836870 1_555
Nb1 Pd4 2.836870 1_454
Nb1 Pd1 2.836870 1_544
Pd0 Pd3 2.807847 1_656
Pd0 Pd3 2.807847 1_544
Pd0 Pd3 2.807847 1_645
Pd0 Pd3 2.807847 1_555
Pd0 Pd7 2.819431 1_555
Pd0 Pd7 2.819431 1_656
Pd0 Zr0 2.890704 1_555
Pd0 Pd6 2.890704 1_545
Pd0 Pd6 2.890704 1_556
Pd0 Zr0 2.890704 1_656
Pd1 Pd4 2.807847 1_566
Pd1 Pd4 2.807847 1_555
Pd1 Pd4 2.807847 1_454
Pd1 Pd4 2.807847 1_465
Pd1 Pd7 2.814431 1_555
Pd1 Pd8 2.814431 1_556
Pd1 Pd8 2.814431 1_455
Pd1 Pd7 2.814431 1_566
Pd2 Pd5 2.807847 1_656
Pd2 Pd5 2.807847 1_544
Pd2 Pd5 2.807847 1_645
Pd2 Pd5 2.807847 1_555
Pd2 Pd8 2.819431 1_556
Pd2 Pd8 2.819431 1_545
Pd2 Zr0 2.890704 1_666
Pd2 Pd6 2.890704 1_656
Pd2 Zr0 2.890704 1_655
Pd2 Pd6 2.890704 1_555
Pd3 Pd7 2.819431 1_566
Pd3 Pd7 2.819431 1_555
Pd3 Zr0 2.890704 1_555
Pd3 Pd6 2.890704 1_455
Pd3 Zr0 2.890704 1_566
Pd3 Pd6 2.890704 1_556
Pd4 Pd7 2.814431 1_555
Pd4 Pd8 2.814431 1_556
Pd4 Pd8 2.814431 1_545
Pd4 Pd7 2.814431 1_656
Pd5 Pd8 2.819431 1_556
Pd5 Pd8 2.819431 1_455
Pd5 Zr0 2.890704 1_666
Pd5 Pd6 2.890704 1_566
Pd5 Pd6 2.890704 1_555
Pd5 Zr0 2.890704 1_565
Pd6 Zr0 2.807847 1_565
Pd6 Zr0 2.807847 1_666
Pd6 Zr0 2.807847 1_554
Pd6 Zr0 2.807847 1_655
