# generated using pymatgen
data_KHo2Cu(MoO4)4
_symmetry_space_group_name_H-M   'P 1'
_cell_length_a   6.86912352
_cell_length_b   6.86912352
_cell_length_c   19.74210050
_cell_angle_alpha   88.71616530
_cell_angle_beta   88.71616530
_cell_angle_gamma   134.77569593
_symmetry_Int_Tables_number   1
_chemical_formula_structural   KHo2Cu(MoO4)4
_chemical_formula_sum   'K2 Ho4 Cu2 Mo8 O32'
_cell_volume   660.13985079
_cell_formula_units_Z   2
loop_
 _symmetry_equiv_pos_site_id
 _symmetry_equiv_pos_as_xyz
  1  'x, y, z'
loop_
 _atom_site_type_symbol
 _atom_site_label
 _atom_site_symmetry_multiplicity
 _atom_site_fract_x
 _atom_site_fract_y
 _atom_site_fract_z
 _atom_site_occupancy
  K  K0  1  0.97075700  0.02924300  0.25000000  1
  K  K1  1  0.02924300  0.97075700  0.75000000  1
  Ho  Ho0  1  0.85474300  0.14953800  0.03151500  1
  Ho  Ho1  1  0.85046200  0.14525700  0.46848500  1
  Ho  Ho2  1  0.14525700  0.85046200  0.96848500  1
  Ho  Ho3  1  0.14953800  0.85474300  0.53151500  1
  Cu  Cu0  1  0.69041900  0.30958100  0.25000000  1
  Cu  Cu1  1  0.30958100  0.69041900  0.75000000  1
  Mo  Mo0  1  0.54566900  0.42215100  0.09071700  1
  Mo  Mo1  1  0.57784900  0.45433100  0.40928300  1
  Mo  Mo2  1  0.45433100  0.57784900  0.90928300  1
  Mo  Mo3  1  0.42215100  0.54566900  0.59071700  1
  Mo  Mo4  1  0.24931100  0.73208800  0.14579600  1
  Mo  Mo5  1  0.26791200  0.75068900  0.35420400  1
  Mo  Mo6  1  0.75068900  0.26791200  0.85420400  1
  Mo  Mo7  1  0.73208800  0.24931100  0.64579600  1
  O  O0  1  0.41950800  0.94256900  0.43394300  1
  O  O1  1  0.05743100  0.58049200  0.06605700  1
  O  O2  1  0.58049200  0.05743100  0.56605700  1
  O  O3  1  0.94256900  0.41950800  0.93394300  1
  O  O4  1  0.16595600  0.50398200  0.54150900  1
  O  O5  1  0.49601800  0.83404400  0.95849100  1
  O  O6  1  0.83404400  0.49601800  0.45849100  1
  O  O7  1  0.50398200  0.16595600  0.04150900  1
  O  O8  1  0.74485900  0.78422600  0.53676400  1
  O  O9  1  0.21577400  0.25514100  0.96323600  1
  O  O10  1  0.25514100  0.21577400  0.46323600  1
  O  O11  1  0.78422600  0.74485900  0.03676400  1
  O  O12  1  0.01316000  0.73554900  0.32809400  1
  O  O13  1  0.26445100  0.98684000  0.17190600  1
  O  O14  1  0.98684000  0.26445100  0.67190600  1
  O  O15  1  0.73554900  0.01316000  0.82809400  1
  O  O16  1  0.51305000  0.69564300  0.67108900  1
  O  O17  1  0.30435700  0.48695000  0.82891100  1
  O  O18  1  0.48695000  0.30435700  0.32891100  1
  O  O19  1  0.69564300  0.51305000  0.17108900  1
  O  O20  1  0.52877300  0.93297300  0.28702800  1
  O  O21  1  0.06702700  0.47122700  0.21297200  1
  O  O22  1  0.47122700  0.06702700  0.71297200  1
  O  O23  1  0.93297300  0.52877300  0.78702800  1
  O  O24  1  0.67738200  0.77493700  0.40026900  1
  O  O25  1  0.22506300  0.32261800  0.09973100  1
  O  O26  1  0.32261800  0.22506300  0.59973100  1
  O  O27  1  0.77493700  0.67738200  0.90026900  1
  O  O28  1  0.09393700  0.39668300  0.37064600  1
  O  O29  1  0.60331700  0.90606300  0.12935400  1
  O  O30  1  0.90606300  0.60331700  0.62935400  1
  O  O31  1  0.39668300  0.09393700  0.87064600  1
loop_
_geom_bond_atom_site_label_1
_geom_bond_atom_site_label_2
_geom_bond_distance
_geom_bond_site_symmetry_2
K0 O21 2.690713 1_655
K0 O20 2.690713 1_545
K0 O12 2.690778 1_645
K0 O13 2.690778 1_645
K0 O19 3.084018 1_545
K0 O18 3.084018 1_655
K0 O29 3.179742 1_545
K0 O28 3.179742 1_655
K0 O25 3.233335 1_655
K0 O24 3.233335 1_545
K1 O22 2.690713 1_565
K1 O23 2.690713 1_455
K1 O15 2.690778 1_465
K1 O14 2.690778 1_465
K1 O17 3.084018 1_565
K1 O16 3.084018 1_455
K1 O31 3.179742 1_565
K1 O30 3.179742 1_455
K1 O26 3.233335 1_565
K1 O27 3.233335 1_455
Ho0 O29 2.268846 1_545
Ho0 O1 2.343893 1_655
Ho0 O5 2.371401 1_544
Ho0 O25 2.379700 1_655
Ho0 O3 2.392778 1_554
Ho0 O9 2.401188 1_654
Ho0 O11 2.461844 1_545
Ho0 O7 2.493877 1_555
Ho1 O28 2.268846 1_655
Ho1 O0 2.343893 1_545
Ho1 O4 2.371401 1_655
Ho1 O24 2.379700 1_545
Ho1 O2 2.392778 1_555
Ho1 O8 2.401188 1_545
Ho1 O10 2.461844 1_655
Ho1 O6 2.493877 1_555
Ho2 O31 2.268846 1_565
Ho2 O3 2.343893 1_455
Ho2 O7 2.371401 1_566
Ho2 O27 2.379700 1_455
Ho2 O1 2.392778 1_556
Ho2 O11 2.401188 1_456
Ho2 O9 2.461844 1_565
Ho2 O5 2.493877 1_555
Ho3 O30 2.268846 1_455
Ho3 O2 2.343893 1_565
Ho3 O6 2.371401 1_455
Ho3 O26 2.379700 1_565
Ho3 O0 2.392778 1_555
Ho3 O10 2.401188 1_565
Ho3 O8 2.461844 1_455
Ho3 O4 2.493877 1_555
Cu0 O18 2.052061 1_555
Cu0 O19 2.052061 1_555
Cu0 O21 2.071764 1_655
Cu0 O20 2.071764 1_545
Cu1 O17 2.052061 1_555
Cu1 O16 2.052061 1_555
Cu1 O23 2.071764 1_455
Cu1 O22 2.071764 1_565
Mo0 O19 1.783351 1_555
Mo0 O25 1.790282 1_555
Mo0 O11 1.852746 1_555
Mo0 O7 1.871355 1_555
Mo1 O18 1.783351 1_555
Mo1 O24 1.790282 1_555
Mo1 O10 1.852746 1_555
Mo1 O6 1.871355 1_555
Mo2 O17 1.783351 1_555
Mo2 O27 1.790282 1_555
Mo2 O9 1.852746 1_555
Mo2 O5 1.871355 1_555
Mo3 O16 1.783351 1_555
Mo3 O26 1.790282 1_555
Mo3 O8 1.852746 1_555
Mo3 O4 1.871355 1_555
Mo4 O13 1.767827 1_555
Mo4 O21 1.787734 1_555
Mo4 O29 1.816690 1_555
Mo4 O1 1.879569 1_555
Mo5 O12 1.767827 1_555
Mo5 O20 1.787734 1_555
Mo5 O28 1.816690 1_555
Mo5 O0 1.879569 1_555
Mo6 O15 1.767827 1_555
Mo6 O23 1.787734 1_555
Mo6 O31 1.816690 1_555
Mo6 O3 1.879569 1_555
Mo7 O14 1.767827 1_555
Mo7 O22 1.787734 1_555
Mo7 O30 1.816690 1_555
Mo7 O2 1.879569 1_555
