# generated using pymatgen
data_MgTe(IO)6
_symmetry_space_group_name_H-M   'P 1'
_cell_length_a   11.26303255
_cell_length_b   11.23649888
_cell_length_c   11.25449605
_cell_angle_alpha   90.13275120
_cell_angle_beta   89.96714057
_cell_angle_gamma   90.02497879
_symmetry_Int_Tables_number   1
_chemical_formula_structural   MgTe(IO)6
_chemical_formula_sum   'Mg4 Te4 I24 O24'
_cell_volume   1424.33165715
_cell_formula_units_Z   4
loop_
 _symmetry_equiv_pos_site_id
 _symmetry_equiv_pos_as_xyz
  1  'x, y, z'
loop_
 _atom_site_type_symbol
 _atom_site_label
 _atom_site_symmetry_multiplicity
 _atom_site_fract_x
 _atom_site_fract_y
 _atom_site_fract_z
 _atom_site_occupancy
  Mg  Mg0  1  0.00003294  0.99986554  0.50050864  1
  Mg  Mg1  1  0.00052880  0.49978837  0.00027129  1
  Mg  Mg2  1  0.49960752  0.99975806  0.00028167  1
  Mg  Mg3  1  0.49975564  0.49990054  0.50024257  1
  Te  Te0  1  0.50021126  0.50035000  0.00035381  1
  Te  Te1  1  0.49869470  0.00051157  0.50002166  1
  Te  Te2  1  0.00185303  0.49943940  0.50092086  1
  Te  Te3  1  0.99920569  0.99923060  0.99988844  1
  I  I0  1  0.52038991  0.72991563  0.18512239  1
  I  I1  1  0.47766205  0.22733119  0.31719440  1
  I  I2  1  0.98125608  0.27071638  0.68461271  1
  I  I3  1  0.02016209  0.77030445  0.81873750  1
  I  I4  1  0.18567884  0.52281669  0.72764300  1
  I  I5  1  0.31621565  0.47892850  0.22873443  1
  I  I6  1  0.68544448  0.97956612  0.27079412  1
  I  I7  1  0.81518852  0.02077033  0.76986965  1
  I  I8  1  0.73027702  0.18605935  0.52026831  1
  I  I9  1  0.22878564  0.31600894  0.47692557  1
  I  I10  1  0.27218486  0.68290684  0.97728231  1
  I  I11  1  0.76838156  0.81501424  0.01864854  1
  I  I12  1  0.48005958  0.27087380  0.81863940  1
  I  I13  1  0.51758370  0.77025944  0.68446361  1
  I  I14  1  0.02349703  0.72623285  0.31802449  1
  I  I15  1  0.97964486  0.23038522  0.18385798  1
  I  I16  1  0.81379346  0.48065749  0.27002693  1
  I  I17  1  0.68477549  0.52050962  0.76950529  1
  I  I18  1  0.31523384  0.02469857  0.72664550  1
  I  I19  1  0.18270638  0.97943759  0.22978144  1
  I  I20  1  0.27053401  0.81680595  0.47841786  1
  I  I21  1  0.77002229  0.68652899  0.52056301  1
  I  I22  1  0.73014581  0.31513348  0.01942836  1
  I  I23  1  0.22986392  0.18161286  0.97993597  1
  O  O0  1  0.43700964  0.64103133  0.60914001  1
  O  O1  1  0.56065449  0.14138784  0.89245942  1
  O  O2  1  0.06100895  0.35889179  0.10880219  1
  O  O3  1  0.94221987  0.85552740  0.39182503  1
  O  O4  1  0.60776179  0.43875128  0.64228386  1
  O  O5  1  0.89094677  0.56161432  0.14242705  1
  O  O6  1  0.10671839  0.06061052  0.35798345  1
  O  O7  1  0.39013733  0.94349144  0.85490095  1
  O  O8  1  0.64139285  0.60893558  0.44181649  1
  O  O9  1  0.14243177  0.89177856  0.56014543  1
  O  O10  1  0.35773668  0.10639092  0.06165471  1
  O  O11  1  0.85881499  0.39167539  0.94016130  1
  O  O12  1  0.55882501  0.35612934  0.39193970  1
  O  O13  1  0.43954013  0.85812313  0.10914013  1
  O  O14  1  0.93932393  0.64129229  0.89315984  1
  O  O15  1  0.06229564  0.14179685  0.60922219  1
  O  O16  1  0.39259613  0.55951934  0.35702319  1
  O  O17  1  0.10957791  0.44197527  0.85556412  1
  O  O18  1  0.89262119  0.93906171  0.64280092  1
  O  O19  1  0.60889521  0.06068772  0.14316482  1
  O  O20  1  0.35691944  0.39108570  0.55833096  1
  O  O21  1  0.85826632  0.10785053  0.44086229  1
  O  O22  1  0.64068306  0.89258285  0.93888223  1
  O  O23  1  0.14424480  0.60749232  0.05869898  1
loop_
_geom_bond_atom_site_label_1
_geom_bond_atom_site_label_2
_geom_bond_distance
_geom_bond_site_symmetry_2
Mg0 O21 2.116393 1_465
Mg0 O6 2.117748 1_565
Mg0 O18 2.120628 1_455
Mg0 O9 2.122396 1_555
Mg0 O15 2.126771 1_565
Mg0 O3 2.131051 1_455
Mg1 O14 2.113604 1_454
Mg1 O2 2.115021 1_555
Mg1 O11 2.115843 1_454
Mg1 O23 2.124375 1_555
Mg1 O5 2.135162 1_455
Mg1 O17 2.139250 1_554
Mg2 O22 2.109280 1_554
Mg2 O10 2.112480 1_565
Mg2 O1 2.117774 1_564
Mg2 O13 2.121002 1_555
Mg2 O19 2.136871 1_565
Mg2 O7 2.143334 1_554
Mg3 O8 2.116393 1_555
Mg3 O0 2.123038 1_555
Mg3 O20 2.123983 1_555
Mg3 O16 2.124034 1_555
Mg3 O4 2.124973 1_555
Mg3 O12 2.128145 1_555
I0 O13 1.908814 1_555
I0 Te0 3.317370 1_555
I1 O12 1.905754 1_555
I1 Te1 3.288008 1_555
I2 O15 1.909466 1_655
I2 Te2 3.310057 1_655
I3 O14 1.906725 1_455
I3 Te3 3.287068 1_455
I4 O17 1.906955 1_555
I4 Te2 3.296827 1_555
I5 O16 1.907729 1_555
I5 Te0 3.309891 1_555
I6 O19 1.909359 1_565
I6 Te1 3.335644 1_565
I7 O18 1.908376 1_545
I7 Te3 3.326456 1_545
I8 O21 1.909183 1_555
I8 Te1 3.346017 1_555
I9 O20 1.905431 1_555
I9 Te2 3.294727 1_555
I10 O23 1.906612 1_556
I10 Te0 3.298346 1_556
I11 O22 1.907992 1_554
I11 Te3 3.329387 1_554
I12 O1 1.907561 1_555
I12 Te0 3.295188 1_556
I13 O0 1.909125 1_555
I13 Te1 3.327737 1_565
I14 O3 1.906111 1_455
I14 Te2 3.288437 1_555
I15 O2 1.908399 1_655
I15 Te3 3.325180 1_544
I16 O5 1.910200 1_555
I16 Te2 3.359621 1_655
I17 O4 1.908163 1_555
I17 Te0 3.334470 1_556
I18 O7 1.906850 1_545
I18 Te1 3.292421 1_555
I19 O6 1.907719 1_565
I19 Te3 3.320316 1_454
I20 O9 1.906148 1_555
I20 Te1 3.304181 1_565
I21 O8 1.908220 1_555
I21 Te2 3.359784 1_655
I22 O11 1.907027 1_554
I22 Te0 3.330418 1_555
I23 O10 1.908070 1_556
I23 Te3 3.316048 1_445
