# generated using pymatgen
data_NdMg2Cu9
_symmetry_space_group_name_H-M   'P 1'
_cell_length_a   5.00445949
_cell_length_b   5.00445902
_cell_length_c   16.04596918
_cell_angle_alpha   89.99994535
_cell_angle_beta   90.00007098
_cell_angle_gamma   119.99213028
_symmetry_Int_Tables_number   1
_chemical_formula_structural   NdMg2Cu9
_chemical_formula_sum   'Nd2 Mg4 Cu18'
_cell_volume   348.05296317
_cell_formula_units_Z   2
loop_
 _symmetry_equiv_pos_site_id
 _symmetry_equiv_pos_as_xyz
  1  'x, y, z'
loop_
 _atom_site_type_symbol
 _atom_site_label
 _atom_site_symmetry_multiplicity
 _atom_site_fract_x
 _atom_site_fract_y
 _atom_site_fract_z
 _atom_site_occupancy
  Nd  Nd0  1  0.66666732  0.33333273  0.24999796  1
  Nd  Nd1  1  0.33333306  0.66666701  0.75000333  1
  Mg  Mg0  1  0.66666954  0.33333087  0.46900940  1
  Mg  Mg1  1  0.33333043  0.66666964  0.96904109  1
  Mg  Mg2  1  0.66666915  0.33333048  0.03100448  1
  Mg  Mg3  1  0.33333060  0.66666938  0.53094685  1
  Cu  Cu0  1  0.33332691  0.66667304  0.24996011  1
  Cu  Cu1  1  0.66667290  0.33332732  0.75004372  1
  Cu  Cu2  1  0.16795713  0.83204358  0.37739214  1
  Cu  Cu3  1  0.16794669  0.33590050  0.37738985  1
  Cu  Cu4  1  0.99999210  1.00000775  0.75003807  1
  Cu  Cu5  1  1.00000836  0.99999184  0.24996670  1
  Cu  Cu6  1  0.99999981  0.99999976  1.00003167  1
  Cu  Cu7  1  0.99999990  1.00000005  0.49996221  1
  Cu  Cu8  1  0.16793844  0.33588436  0.12251571  1
  Cu  Cu9  1  0.83205976  0.16794093  0.62256367  1
  Cu  Cu10  1  0.33586655  0.16793008  0.62256586  1
  Cu  Cu11  1  0.66411496  0.83206161  0.12251544  1
  Cu  Cu12  1  0.16794873  0.83205127  0.12251324  1
  Cu  Cu13  1  0.83207613  0.66414296  0.87752700  1
  Cu  Cu14  1  0.83206458  0.16793486  0.87752928  1
  Cu  Cu15  1  0.83206908  0.66413290  0.62256556  1
  Cu  Cu16  1  0.33585740  0.16792465  0.87752716  1
  Cu  Cu17  1  0.66410047  0.83205344  0.37738951  1
loop_
_geom_bond_atom_site_label_1
_geom_bond_atom_site_label_2
_geom_bond_distance
_geom_bond_site_symmetry_2
Mg0 Mg3 3.055413 1_555
Mg0 Mg3 3.055669 1_655
Mg0 Mg3 3.055671 1_545
Mg0 Nd0 3.514251 1_555
Mg1 Mg2 3.055548 1_556
Mg1 Mg2 3.055805 1_566
Mg1 Mg2 3.055807 1_456
Mg1 Nd1 3.514673 1_555
Mg2 Nd0 3.513963 1_555
Mg3 Nd1 3.514974 1_555
Cu0 Cu2 2.497126 1_555
Cu0 Cu17 2.497269 1_555
Cu0 Cu3 2.497272 1_555
Cu0 Cu12 2.497358 1_555
Cu0 Cu8 2.497505 1_555
Cu0 Cu11 2.497508 1_555
Cu0 Cu5 2.889084 1_455
Cu0 Nd0 2.889272 1_555
Cu0 Nd0 2.889525 1_455
Cu0 Nd0 2.889525 1_565
Cu0 Cu5 2.889618 1_445
Cu0 Cu5 2.889619 1_555
Cu1 Cu9 2.497839 1_555
Cu1 Cu14 2.497935 1_555
Cu1 Cu10 2.497988 1_555
Cu1 Cu15 2.497990 1_555
Cu1 Cu13 2.498083 1_555
Cu1 Cu16 2.498086 1_555
Cu1 Cu4 2.889090 1_545
Cu1 Nd1 2.889267 1_555
Cu1 Nd1 2.889527 1_655
Cu1 Nd1 2.889527 1_545
Cu1 Cu4 2.889615 1_555
Cu1 Cu4 2.889616 1_445
Cu2 Cu7 2.446928 1_455
Cu2 Cu3 2.482902 1_555
Cu2 Cu5 2.509931 1_455
Cu2 Cu3 2.521557 1_565
Cu2 Mg3 2.850543 1_555
Cu2 Mg0 2.902399 1_565
Cu2 Mg0 2.902401 1_455
Cu2 Nd0 3.231310 1_565
Cu2 Nd0 3.231312 1_455
Cu3 Cu7 2.447024 1_445
Cu3 Cu5 2.510033 1_445
Cu3 Mg3 2.850709 1_555
Cu3 Mg0 2.902132 1_455
Cu3 Mg0 2.902192 1_555
Cu3 Nd0 3.231039 1_455
Cu3 Nd0 3.231075 1_555
Cu4 Cu9 2.510492 1_565
Cu4 Nd1 2.889277 1_655
Cu4 Nd1 2.889522 1_555
Cu4 Nd1 2.889523 1_665
Cu5 Cu8 2.510356 1_665
Cu5 Nd0 2.889278 1_565
Cu5 Nd0 2.889522 1_665
Cu5 Nd0 2.889522 1_555
Cu6 Cu8 2.445845 1_666
Cu6 Mg2 2.931623 1_566
Cu6 Mg1 2.931668 1_655
Cu6 Mg2 2.931994 1_556
Cu6 Mg2 2.931994 1_666
Cu6 Mg1 2.932043 1_555
Cu6 Mg1 2.932045 1_665
Cu7 Cu9 2.447248 1_565
Cu7 Mg0 2.931566 1_565
Cu7 Mg3 2.931654 1_655
Cu7 Mg0 2.931940 1_555
Cu7 Mg0 2.931942 1_665
Cu7 Mg3 2.932027 1_665
Cu7 Mg3 2.932027 1_555
Cu8 Mg1 2.849602 1_554
Cu8 Mg2 2.901248 1_455
Cu8 Mg2 2.901315 1_555
Cu8 Nd0 3.231959 1_455
Cu8 Nd0 3.231989 1_555
Cu9 Mg0 2.850608 1_555
Cu9 Mg3 2.902395 1_655
Cu9 Mg3 2.902397 1_545
Cu9 Nd1 3.231771 1_655
Cu9 Nd1 3.231774 1_545
Cu10 Cu7 2.447340 1_445
Cu10 Cu9 2.483152 1_555
Cu10 Cu15 2.483521 1_555
Cu10 Cu4 2.510589 1_445
Cu10 Cu9 2.521308 1_455
Cu10 Cu15 2.521533 1_445
Cu10 Mg0 2.850777 1_555
Cu10 Mg3 2.902128 1_545
Cu10 Mg3 2.902186 1_555
Cu10 Nd1 3.231505 1_545
Cu10 Nd1 3.231534 1_555
Cu11 Cu6 2.445843 1_554
Cu11 Cu12 2.483018 1_555
Cu11 Cu8 2.483392 1_555
Cu11 Cu5 2.510361 1_555
Cu11 Cu12 2.521442 1_655
Cu11 Cu8 2.521662 1_665
Cu11 Mg1 2.849596 1_554
Cu11 Mg2 2.901244 1_565
Cu11 Mg2 2.901315 1_555
Cu11 Nd0 3.231960 1_565
Cu11 Nd0 3.231994 1_555
Cu12 Cu6 2.445741 1_454
Cu12 Cu8 2.483021 1_555
Cu12 Cu5 2.510260 1_455
Cu12 Cu8 2.521438 1_565
Cu12 Mg1 2.849436 1_554
Cu12 Mg2 2.901518 1_565
Cu12 Mg2 2.901519 1_455
Cu12 Nd0 3.232230 1_565
Cu12 Nd0 3.232230 1_455
Cu13 Cu6 2.446039 1_555
Cu13 Cu14 2.483224 1_555
Cu13 Cu16 2.483601 1_555
Cu13 Cu4 2.510782 1_555
Cu13 Cu14 2.521235 1_565
Cu13 Cu16 2.521454 1_665
Cu13 Mg2 2.849700 1_556
Cu13 Mg1 2.901265 1_655
Cu13 Mg1 2.901344 1_555
Cu13 Nd1 3.232378 1_655
Cu13 Nd1 3.232411 1_555
Cu14 Cu6 2.445940 1_545
Cu14 Cu16 2.483223 1_555
Cu14 Cu4 2.510688 1_545
Cu14 Cu16 2.521236 1_655
Cu14 Mg2 2.849538 1_556
Cu14 Mg1 2.901541 1_545
Cu14 Mg1 2.901543 1_655
Cu14 Nd1 3.232647 1_545
Cu14 Nd1 3.232650 1_655
Cu15 Cu7 2.447338 1_555
Cu15 Cu9 2.483149 1_555
Cu15 Cu4 2.510593 1_555
Cu15 Cu9 2.521310 1_565
Cu15 Mg0 2.850770 1_555
Cu15 Mg3 2.902128 1_655
Cu15 Mg3 2.902181 1_555
Cu15 Nd1 3.231510 1_655
Cu15 Nd1 3.231535 1_555
Cu16 Cu6 2.446040 1_445
Cu16 Cu4 2.510785 1_445
Cu16 Mg2 2.849696 1_556
Cu16 Mg1 2.901266 1_545
Cu16 Mg1 2.901339 1_555
Cu16 Nd1 3.232381 1_545
Cu16 Nd1 3.232411 1_555
Cu17 Cu7 2.447025 1_555
Cu17 Cu2 2.482905 1_555
Cu17 Cu3 2.483275 1_555
Cu17 Cu5 2.510027 1_555
Cu17 Cu2 2.521555 1_655
Cu17 Cu3 2.521780 1_665
Cu17 Mg3 2.850717 1_555
Cu17 Mg0 2.902136 1_565
Cu17 Mg0 2.902193 1_555
Cu17 Nd0 3.231037 1_565
Cu17 Nd0 3.231070 1_555
