# generated using pymatgen
data_CaAl2(OF)4
_symmetry_space_group_name_H-M   'P 1'
_cell_length_a   6.50339886
_cell_length_b   6.50339886
_cell_length_c   7.82011725
_cell_angle_alpha   86.31357040
_cell_angle_beta   86.31357040
_cell_angle_gamma   115.83416974
_symmetry_Int_Tables_number   1
_chemical_formula_structural   CaAl2(OF)4
_chemical_formula_sum   'Ca2 Al4 O8 F8'
_cell_volume   295.50140647
_cell_formula_units_Z   2
loop_
 _symmetry_equiv_pos_site_id
 _symmetry_equiv_pos_as_xyz
  1  'x, y, z'
loop_
 _atom_site_type_symbol
 _atom_site_label
 _atom_site_symmetry_multiplicity
 _atom_site_fract_x
 _atom_site_fract_y
 _atom_site_fract_z
 _atom_site_occupancy
  Ca  Ca0  1  0.46485300  0.53514700  0.25000000  1
  Ca  Ca1  1  0.53514700  0.46485300  0.75000000  1
  Al  Al0  1  0.00000000  0.50000000  0.00000000  1
  Al  Al1  1  0.50000000  0.00000000  0.50000000  1
  Al  Al2  1  0.11677100  0.88322900  0.25000000  1
  Al  Al3  1  0.88322900  0.11677100  0.75000000  1
  O  O0  1  0.05780400  0.57083800  0.22603900  1
  O  O1  1  0.42916200  0.94219600  0.27396100  1
  O  O2  1  0.94219600  0.42916200  0.77396100  1
  O  O3  1  0.57083800  0.05780400  0.72603900  1
  O  O4  1  0.11215000  0.81532300  0.01741200  1
  O  O5  1  0.18467700  0.88785000  0.48258800  1
  O  O6  1  0.88785000  0.18467700  0.98258800  1
  O  O7  1  0.81532300  0.11215000  0.51741200  1
  F  F0  1  0.30488900  0.54081600  0.96231800  1
  F  F1  1  0.45918400  0.69511100  0.53768200  1
  F  F2  1  0.69511100  0.45918400  0.03768200  1
  F  F3  1  0.54081600  0.30488900  0.46231800  1
  F  F4  1  0.81916600  0.80184600  0.28538400  1
  F  F5  1  0.19815400  0.18083400  0.21461600  1
  F  F6  1  0.18083400  0.19815400  0.71461600  1
  F  F7  1  0.80184600  0.81916600  0.78538400  1
loop_
_geom_bond_atom_site_label_1
_geom_bond_atom_site_label_2
_geom_bond_distance
_geom_bond_site_symmetry_2
Ca0 F4 2.248319 1_555
Ca0 F5 2.248319 1_555
Ca0 F3 2.381953 1_555
Ca0 F2 2.381953 1_555
Ca0 F1 2.543325 1_555
Ca0 F0 2.543325 1_554
Ca0 O0 2.773152 1_555
Ca0 O1 2.773152 1_555
Ca1 F7 2.248319 1_555
Ca1 F6 2.248319 1_555
Ca1 F0 2.381953 1_555
Ca1 F1 2.381953 1_555
Ca1 F2 2.543325 1_556
Ca1 F3 2.543325 1_555
Ca1 O3 2.773152 1_555
Ca1 O2 2.773152 1_555
Al0 O6 1.871069 1_454
Al0 O4 1.871069 1_555
Al0 O0 1.875466 1_555
Al0 O2 1.875466 1_454
Al0 F2 1.882803 1_455
Al0 F0 1.882803 1_554
Al1 O5 1.871069 1_545
Al1 O7 1.871069 1_555
Al1 O1 1.875466 1_545
Al1 O3 1.875466 1_555
Al1 F1 1.882803 1_545
Al1 F3 1.882803 1_555
Al2 F5 1.766964 1_565
Al2 F4 1.766964 1_455
Al2 O4 1.898145 1_555
Al2 O5 1.898145 1_555
Al2 O1 1.920617 1_555
Al2 O0 1.920617 1_555
Al3 F6 1.766964 1_655
Al3 F7 1.766964 1_545
Al3 O7 1.898145 1_555
Al3 O6 1.898145 1_555
Al3 O2 1.920617 1_555
Al3 O3 1.920617 1_555
