# generated using pymatgen
data_Sr2NiClO3
_symmetry_space_group_name_H-M   'P 1'
_cell_length_a   5.51569468
_cell_length_b   5.50288392
_cell_length_c   15.22515979
_cell_angle_alpha   79.58549931
_cell_angle_beta   79.53896198
_cell_angle_gamma   89.98440292
_symmetry_Int_Tables_number   1
_chemical_formula_structural   Sr2NiClO3
_chemical_formula_sum   'Sr8 Ni4 Cl4 O12'
_cell_volume   446.69680175
_cell_formula_units_Z   4
loop_
 _symmetry_equiv_pos_site_id
 _symmetry_equiv_pos_as_xyz
  1  'x, y, z'
loop_
 _atom_site_type_symbol
 _atom_site_label
 _atom_site_symmetry_multiplicity
 _atom_site_fract_x
 _atom_site_fract_y
 _atom_site_fract_z
 _atom_site_occupancy
  Sr  Sr0  1  0.04727500  0.79746700  0.90515000  1
  Sr  Sr1  1  0.54702200  0.29721500  0.90586900  1
  Sr  Sr2  1  0.45296700  0.70283600  0.09411600  1
  Sr  Sr3  1  0.95270100  0.20251200  0.09488500  1
  Sr  Sr4  1  0.17022700  0.92027100  0.65944100  1
  Sr  Sr5  1  0.66994200  0.42003400  0.66013100  1
  Sr  Sr6  1  0.33001500  0.57995600  0.33990400  1
  Sr  Sr7  1  0.82976800  0.07970700  0.34055100  1
  Ni  Ni0  1  0.10126300  0.35151500  0.79727600  1
  Ni  Ni1  1  0.39596900  0.14541900  0.20845900  1
  Ni  Ni2  1  0.60404800  0.85453700  0.79152300  1
  Ni  Ni3  1  0.89882200  0.64838100  0.20277200  1
  Cl  Cl0  1  0.20942700  0.45927900  0.58128300  1
  Cl  Cl1  1  0.71194400  0.96182500  0.57624800  1
  Cl  Cl2  1  0.28805100  0.03815500  0.42369600  1
  Cl  Cl3  1  0.79063700  0.54076500  0.41850800  1
  O  O0  1  0.03549100  0.28552300  0.92910700  1
  O  O1  1  0.53708900  0.78741800  0.92556600  1
  O  O2  1  0.46288700  0.21260000  0.07447200  1
  O  O3  1  0.96445900  0.71440000  0.07094900  1
  O  O4  1  0.37160800  0.62189100  0.77248900  1
  O  O5  1  0.85558800  0.10614800  0.77248700  1
  O  O6  1  0.85579800  0.62169300  0.77249000  1
  O  O7  1  0.37141200  0.10630200  0.77240000  1
  O  O8  1  0.14443800  0.89389700  0.22752000  1
  O  O9  1  0.62841000  0.37815500  0.22755100  1
  O  O10  1  0.62857800  0.89374400  0.22761600  1
  O  O11  1  0.14416300  0.37835800  0.22753800  1
loop_
_geom_bond_atom_site_label_1
_geom_bond_atom_site_label_2
_geom_bond_distance
_geom_bond_site_symmetry_2
Ni0 O0 1.940171 1_555
Ni0 O7 2.040413 1_555
Ni0 O6 2.041452 1_455
Ni0 O5 2.042722 1_455
Ni0 O4 2.042907 1_555
Ni1 O8 1.906398 1_545
Ni1 O10 1.907379 1_545
Ni1 O9 1.907685 1_555
Ni1 O11 1.908829 1_555
Ni1 O2 1.971901 1_555
Ni2 O5 1.906817 1_565
Ni2 O4 1.906986 1_555
Ni2 O7 1.907755 1_565
Ni2 O6 1.908149 1_555
Ni2 O1 1.972725 1_555
Ni3 O3 1.940054 1_555
Ni3 O11 2.040330 1_655
Ni3 O10 2.041267 1_555
Ni3 O9 2.042601 1_555
Ni3 O8 2.042800 1_655
Cl0 Sr4 2.981840 1_545
Cl0 Sr4 2.982565 1_555
Cl0 Sr5 2.991926 1_455
Cl0 Sr5 2.992147 1_555
Cl0 Sr6 3.552400 1_555
Cl1 Sr5 3.014944 1_555
Cl1 Sr5 3.016460 1_565
Cl1 Sr4 3.017245 1_655
Cl1 Sr4 3.017580 1_555
Cl1 Sr7 3.468777 1_565
Cl2 Sr6 3.014675 1_555
Cl2 Sr6 3.015633 1_545
Cl2 Sr7 3.016837 1_455
Cl2 Sr7 3.017415 1_555
Cl2 Sr4 3.469484 1_545
Cl3 Sr7 2.980875 1_565
Cl3 Sr7 2.981250 1_555
Cl3 Sr6 2.990613 1_655
Cl3 Sr6 2.990679 1_555
Cl3 Sr5 3.555991 1_555
O0 Sr3 2.439772 1_456
O0 Sr0 2.773751 1_555
O0 Sr0 2.774130 1_545
O0 Sr1 2.778357 1_555
O0 Sr1 2.779587 1_455
O1 Sr2 2.480569 1_556
O1 Sr1 2.766388 1_565
O1 Sr1 2.766953 1_555
O1 Sr0 2.773928 1_655
O1 Sr0 2.774405 1_555
O2 Sr1 2.481349 1_554
O2 Sr2 2.766271 1_545
O2 Sr2 2.766907 1_555
O2 Sr3 2.773932 1_455
O2 Sr3 2.774392 1_555
O3 Sr0 2.440081 1_654
O3 Sr3 2.773463 1_555
O3 Sr3 2.774339 1_565
O3 Sr2 2.778209 1_555
O3 Sr2 2.779477 1_655
O4 Sr5 2.555736 1_555
O4 Sr4 2.561979 1_555
O4 Sr0 2.757854 1_555
O4 Sr1 2.766393 1_555
O5 Sr5 2.554437 1_555
O5 Sr4 2.563439 1_645
O5 Sr0 2.759886 1_645
O5 Sr1 2.764420 1_555
O6 Sr5 2.555881 1_555
O6 Sr4 2.562228 1_655
O6 Sr0 2.758978 1_655
O6 Sr1 2.765406 1_555
O7 Sr5 2.554643 1_555
O7 Sr4 2.562672 1_545
O7 Sr0 2.759939 1_545
O7 Sr1 2.767386 1_555
O8 Sr6 2.554670 1_555
O8 Sr7 2.563200 1_465
O8 Sr3 2.759559 1_465
O8 Sr2 2.764536 1_555
O9 Sr6 2.555692 1_555
O9 Sr7 2.561639 1_555
O9 Sr3 2.757965 1_555
O9 Sr2 2.767055 1_555
O10 Sr6 2.555033 1_555
O10 Sr7 2.562192 1_565
O10 Sr3 2.759576 1_565
O10 Sr2 2.767783 1_555
O11 Sr6 2.555770 1_555
O11 Sr7 2.562095 1_455
O11 Sr3 2.759035 1_455
O11 Sr2 2.765812 1_555
