# generated using pymatgen
data_Dy(MnAl2)4
_symmetry_space_group_name_H-M   'P 1'
_cell_length_a   5.15200600
_cell_length_b   6.72449973
_cell_length_c   6.72449973
_cell_angle_alpha   81.56147359
_cell_angle_beta   67.47557341
_cell_angle_gamma   67.47557341
_symmetry_Int_Tables_number   1
_chemical_formula_structural   Dy(MnAl2)4
_chemical_formula_sum   'Dy1 Mn4 Al8'
_cell_volume   198.78038955
_cell_formula_units_Z   1
loop_
 _symmetry_equiv_pos_site_id
 _symmetry_equiv_pos_as_xyz
  1  'x, y, z'
loop_
 _atom_site_type_symbol
 _atom_site_label
 _atom_site_symmetry_multiplicity
 _atom_site_fract_x
 _atom_site_fract_y
 _atom_site_fract_z
 _atom_site_occupancy
  Dy  Dy0  1  0.00000000  0.00000000  0.00000000  1
  Mn  Mn0  1  0.50000000  0.50000000  0.00000000  1
  Mn  Mn1  1  0.00000000  0.50000000  0.00000000  1
  Mn  Mn2  1  0.00000000  0.00000000  0.50000000  1
  Mn  Mn3  1  0.50000000  0.00000000  0.50000000  1
  Al  Al0  1  0.00000000  0.66384400  0.33615600  1
  Al  Al1  1  0.00000000  0.33615600  0.66384400  1
  Al  Al2  1  0.66384400  0.33615600  0.33615600  1
  Al  Al3  1  0.33615600  0.66384400  0.66384400  1
  Al  Al4  1  0.50000000  0.22431500  0.77568500  1
  Al  Al5  1  0.50000000  0.77568500  0.22431500  1
  Al  Al6  1  0.72431500  0.77568500  0.77568500  1
  Al  Al7  1  0.27568500  0.22431500  0.22431500  1
loop_
_geom_bond_atom_site_label_1
_geom_bond_atom_site_label_2
_geom_bond_distance
_geom_bond_site_symmetry_2
Dy0 Mn3 3.362250 1_554
Dy0 Mn3 3.362250 1_455
Dy0 Mn0 3.362250 1_545
Dy0 Mn0 3.362250 1_455
Dy0 Mn2 3.362250 1_554
Dy0 Mn1 3.362250 1_555
Dy0 Mn2 3.362250 1_555
Dy0 Mn1 3.362250 1_545
Mn0 Mn1 2.576003 1_655
Mn0 Mn1 2.576003 1_555
Mn2 Mn3 2.576003 1_455
Mn2 Mn3 2.576003 1_555
Al0 Mn0 2.656055 1_555
Al0 Mn3 2.656055 1_465
Al0 Mn2 2.656055 1_565
Al0 Mn1 2.656055 1_555
Al0 Al5 2.756994 1_555
Al0 Al5 2.756994 1_455
Al0 Al6 2.817147 1_455
Al0 Al7 2.817147 1_555
Al0 Al1 2.878552 1_555
Al0 Dy0 2.952939 1_565
Al1 Mn1 2.656055 1_556
Al1 Mn2 2.656055 1_555
Al1 Mn0 2.656055 1_456
Al1 Mn3 2.656055 1_555
Al1 Al4 2.756994 1_555
Al1 Al4 2.756994 1_455
Al1 Al6 2.817147 1_455
Al1 Al7 2.817147 1_555
Al1 Dy0 2.952939 1_556
Al2 Mn2 2.656055 1_655
Al2 Mn3 2.656055 1_555
Al2 Mn0 2.656055 1_555
Al2 Mn1 2.656055 1_655
Al2 Al7 2.756994 1_655
Al2 Al7 2.756994 1_555
Al2 Al4 2.817147 1_555
Al2 Al5 2.817147 1_555
Al2 Al3 2.878552 1_555
Al2 Dy0 2.952939 1_655
Al3 Mn3 2.656055 1_565
Al3 Mn0 2.656055 1_556
Al3 Mn2 2.656055 1_565
Al3 Mn1 2.656055 1_556
Al3 Al6 2.756994 1_455
Al3 Al6 2.756994 1_555
Al3 Al4 2.817147 1_555
Al3 Al5 2.817147 1_555
Al3 Dy0 2.952939 1_566
Al4 Mn3 2.555923 1_555
Al4 Mn2 2.555923 1_655
Al4 Mn1 2.555923 1_556
Al4 Mn0 2.555923 1_556
Al4 Al6 2.786679 1_545
Al4 Al7 2.786679 1_556
Al4 Dy0 3.243236 1_556
Al4 Dy0 3.243236 1_656
Al5 Mn1 2.555923 1_655
Al5 Mn0 2.555923 1_555
Al5 Mn2 2.555923 1_565
Al5 Mn3 2.555923 1_565
Al5 Al6 2.786679 1_554
Al5 Al7 2.786679 1_565
Al5 Dy0 3.243236 1_565
Al5 Dy0 3.243236 1_665
Al6 Mn3 2.555923 1_565
Al6 Mn0 2.555923 1_556
Al6 Mn2 2.555923 1_665
Al6 Mn1 2.555923 1_656
Al6 Dy0 3.243236 1_666
Al6 Dy0 3.243236 1_566
Al7 Mn2 2.555923 1_555
Al7 Mn3 2.555923 1_555
Al7 Mn0 2.555923 1_555
Al7 Mn1 2.555923 1_555
Al7 Dy0 3.243236 1_655
Al7 Dy0 3.243236 1_555
