# generated using pymatgen
data_LaMnO3
_symmetry_space_group_name_H-M   'P 1'
_cell_length_a   3.96667200
_cell_length_b   11.07224004
_cell_length_c   5.69911702
_cell_angle_alpha   89.99010164
_cell_angle_beta   90.00080843
_cell_angle_gamma   89.99998969
_symmetry_Int_Tables_number   1
_chemical_formula_structural   LaMnO3
_chemical_formula_sum   'La4 Mn4 O12'
_cell_volume   250.30489981
_cell_formula_units_Z   4
loop_
 _symmetry_equiv_pos_site_id
 _symmetry_equiv_pos_as_xyz
  1  'x, y, z'
loop_
 _atom_site_type_symbol
 _atom_site_label
 _atom_site_symmetry_multiplicity
 _atom_site_fract_x
 _atom_site_fract_y
 _atom_site_fract_z
 _atom_site_occupancy
  La  La0  1  0.49999500  0.24328300  0.98759000  1
  La  La1  1  0.49999300  0.74318100  0.98756400  1
  La  La2  1  0.49998800  0.00671100  0.48763400  1
  La  La3  1  0.49999000  0.50671800  0.48776500  1
  Mn  Mn0  1  0.00000000  0.75254100  0.49867600  1
  Mn  Mn1  1  0.00000200  0.49747700  0.99879500  1
  Mn  Mn2  1  0.00000200  0.25265200  0.49861900  1
  Mn  Mn3  1  0.00000400  0.99730900  0.99870500  1
  O  O0  1  0.50000100  0.24847600  0.49631800  1
  O  O1  1  0.50000000  0.74841300  0.49631300  1
  O  O2  1  0.50000200  0.00156700  0.99635300  1
  O  O3  1  0.50000100  0.50153500  0.99637000  1
  O  O4  1  0.99999300  0.34723500  0.83150100  1
  O  O5  1  0.99999200  0.84713600  0.83163200  1
  O  O6  1  0.99998900  0.40285500  0.33156800  1
  O  O7  1  0.99998800  0.90286100  0.33167600  1
  O  O8  1  0.00001700  0.14421700  0.18569500  1
  O  O9  1  0.00001800  0.64420900  0.18572000  1
  O  O10  1  0.00001300  0.10582200  0.68576100  1
  O  O11  1  0.00001200  0.60580400  0.68574500  1
loop_
_geom_bond_atom_site_label_1
_geom_bond_atom_site_label_2
_geom_bond_distance
_geom_bond_site_symmetry_2
La0 O4 2.459541 1_455
La0 O4 2.459549 1_555
La0 O8 2.531947 1_556
La0 O8 2.532059 1_656
La0 O2 2.676795 1_555
La0 O0 2.800397 1_555
La0 O3 2.859875 1_555
La0 O0 2.899880 1_556
La0 O10 3.034729 1_555
La0 O10 3.034854 1_655
La0 O6 3.301412 1_556
La0 O6 3.301473 1_456
La1 O5 2.459230 1_455
La1 O5 2.459244 1_555
La1 O9 2.531617 1_556
La1 O9 2.531747 1_656
La1 O3 2.676024 1_555
La1 O1 2.800286 1_555
La1 O2 2.861359 1_565
La1 O1 2.900009 1_556
La1 O11 3.034228 1_555
La1 O11 3.034358 1_655
La1 O7 3.302508 1_556
La1 O7 3.302565 1_456
La2 O7 2.458880 1_445
La2 O7 2.458900 1_545
La2 O10 2.532378 1_555
La2 O10 2.532509 1_655
La2 O0 2.677346 1_555
La2 O2 2.800457 1_554
La2 O1 2.860357 1_545
La2 O2 2.899799 1_555
La2 O8 3.035008 1_555
La2 O8 3.035190 1_655
La2 O5 3.301158 1_545
La2 O5 3.301173 1_445
La3 O6 2.459444 1_455
La3 O6 2.459457 1_555
La3 O11 2.531894 1_555
La3 O11 2.532006 1_655
La3 O1 2.676557 1_555
La3 O3 2.801115 1_554
La3 O0 2.859724 1_555
La3 O3 2.899158 1_555
La3 O9 3.035269 1_555
La3 O9 3.035447 1_655
La3 O4 3.299724 1_555
La3 O4 3.299744 1_455
Mn0 O7 1.917145 1_455
Mn0 O11 1.943117 1_555
Mn0 O1 1.983908 1_455
Mn0 O1 1.983909 1_555
Mn0 O9 2.149562 1_555
Mn0 O5 2.167580 1_455
Mn1 O4 1.917513 1_455
Mn1 O9 1.942929 1_556
Mn1 O3 1.983889 1_555
Mn1 O3 1.983897 1_455
Mn1 O11 2.149632 1_555
Mn1 O6 2.166495 1_456
Mn2 O6 1.916165 1_455
Mn2 O10 1.944206 1_555
Mn2 O0 1.983915 1_555
Mn2 O0 1.983922 1_455
Mn2 O8 2.150048 1_555
Mn2 O4 2.167147 1_455
Mn3 O5 1.916224 1_455
Mn3 O8 1.944762 1_566
Mn3 O2 1.983934 1_565
Mn3 O2 1.983949 1_465
Mn3 O10 2.150281 1_565
Mn3 O7 2.166552 1_456
