# generated using pymatgen
data_Na2SrV4O12
_symmetry_space_group_name_H-M   'P 1'
_cell_length_a   10.76081100
_cell_length_b   10.76081100
_cell_length_c   5.09283900
_cell_angle_alpha   90.00000000
_cell_angle_beta   90.00000000
_cell_angle_gamma   90.00000000
_symmetry_Int_Tables_number   1
_chemical_formula_structural   Na2SrV4O12
_chemical_formula_sum   'Na4 Sr2 V8 O24'
_cell_volume   589.72556385
_cell_formula_units_Z   2
loop_
 _symmetry_equiv_pos_site_id
 _symmetry_equiv_pos_as_xyz
  1  'x, y, z'
loop_
 _atom_site_type_symbol
 _atom_site_label
 _atom_site_symmetry_multiplicity
 _atom_site_fract_x
 _atom_site_fract_y
 _atom_site_fract_z
 _atom_site_occupancy
  Na  Na0  1  0.75000000  0.75000000  0.50000000  1
  Na  Na1  1  0.75000000  0.25000000  0.50000000  1
  Na  Na2  1  0.25000000  0.75000000  0.50000000  1
  Na  Na3  1  0.25000000  0.25000000  0.50000000  1
  Sr  Sr0  1  0.50000000  0.50000000  0.50000000  1
  Sr  Sr1  1  0.00000000  0.00000000  0.50000000  1
  V  V0  1  0.71738900  0.00000000  0.00000000  1
  V  V1  1  0.00000000  0.28261100  0.00000000  1
  V  V2  1  0.28261100  0.00000000  0.00000000  1
  V  V3  1  0.50000000  0.78261100  0.00000000  1
  V  V4  1  0.78261100  0.50000000  0.00000000  1
  V  V5  1  0.21738900  0.50000000  0.00000000  1
  V  V6  1  0.50000000  0.21738900  0.00000000  1
  V  V7  1  0.00000000  0.71738900  0.00000000  1
  O  O0  1  0.43335200  0.30341300  0.23698700  1
  O  O1  1  0.56664800  0.69658700  0.23698700  1
  O  O2  1  0.69658700  0.43335200  0.23698700  1
  O  O3  1  0.30341300  0.56664800  0.23698700  1
  O  O4  1  0.30341300  0.43335200  0.76301300  1
  O  O5  1  0.43335200  0.69658700  0.76301300  1
  O  O6  1  0.56664800  0.30341300  0.76301300  1
  O  O7  1  0.69658700  0.56664800  0.76301300  1
  O  O8  1  0.06664800  0.19658700  0.76301300  1
  O  O9  1  0.93335200  0.80341300  0.76301300  1
  O  O10  1  0.80341300  0.06664800  0.76301300  1
  O  O11  1  0.19658700  0.93335200  0.76301300  1
  O  O12  1  0.19658700  0.06664800  0.23698700  1
  O  O13  1  0.06664800  0.80341300  0.23698700  1
  O  O14  1  0.11838600  0.38161400  0.15046200  1
  O  O15  1  0.38161400  0.88161400  0.15046200  1
  O  O16  1  0.61838600  0.11838600  0.15046200  1
  O  O17  1  0.88161400  0.61838600  0.15046200  1
  O  O18  1  0.88161400  0.38161400  0.84953800  1
  O  O19  1  0.11838600  0.61838600  0.84953800  1
  O  O20  1  0.38161400  0.11838600  0.84953800  1
  O  O21  1  0.61838600  0.88161400  0.84953800  1
  O  O22  1  0.80341300  0.93335200  0.23698700  1
  O  O23  1  0.93335200  0.19658700  0.23698700  1
loop_
_geom_bond_atom_site_label_1
_geom_bond_atom_site_label_2
_geom_bond_distance
_geom_bond_site_symmetry_2
Na0 O9 2.453032 1_555
Na0 O22 2.453032 1_555
Na0 O7 2.453032 1_555
Na0 O1 2.453032 1_555
Na0 O21 2.679657 1_555
Na0 O17 2.679657 1_555
Na1 O2 2.453032 1_555
Na1 O10 2.453032 1_555
Na1 O23 2.453032 1_555
Na1 O6 2.453032 1_555
Na1 O18 2.679657 1_555
Na1 O16 2.679657 1_555
Na2 O5 2.453032 1_555
Na2 O11 2.453032 1_555
Na2 O13 2.453032 1_555
Na2 O3 2.453032 1_555
Na2 O15 2.679657 1_555
Na2 O19 2.679657 1_555
Na3 O4 2.453032 1_555
Na3 O0 2.453032 1_555
Na3 O8 2.453032 1_555
Na3 O12 2.453032 1_555
Na3 O20 2.679657 1_555
Na3 O14 2.679657 1_555
O0 V6 1.681651 1_555
O0 Sr0 2.604542 1_555
O1 V3 1.681651 1_555
O1 Sr0 2.604542 1_555
O2 V4 1.681651 1_555
O2 Sr0 2.604542 1_555
O3 V5 1.681651 1_555
O3 Sr0 2.604542 1_555
O4 V5 1.681651 1_556
O4 Sr0 2.604542 1_555
O5 V3 1.681651 1_556
O5 Sr0 2.604542 1_555
O6 V6 1.681651 1_556
O6 Sr0 2.604542 1_555
O7 V4 1.681651 1_556
O7 Sr0 2.604542 1_555
O8 V1 1.681651 1_556
O8 Sr1 2.604542 1_555
O9 V7 1.681651 1_656
O9 Sr1 2.604542 1_665
O10 V0 1.681651 1_556
O10 Sr1 2.604542 1_655
O11 V2 1.681651 1_566
O11 Sr1 2.604542 1_565
O12 V2 1.681651 1_555
O12 Sr1 2.604542 1_555
O13 V7 1.681651 1_555
O13 Sr1 2.604542 1_565
O14 V1 1.828949 1_555
O14 V5 1.828949 1_555
O15 V2 1.828949 1_565
O15 V3 1.828949 1_555
O16 V0 1.828949 1_555
O16 V6 1.828949 1_555
O17 V7 1.828949 1_655
O17 V4 1.828949 1_555
O18 V1 1.828949 1_656
O18 V4 1.828949 1_556
O19 V7 1.828949 1_556
O19 V5 1.828949 1_556
O20 V2 1.828949 1_556
O20 V6 1.828949 1_556
O21 V0 1.828949 1_566
O21 V3 1.828949 1_556
O22 V0 1.681651 1_565
O22 Sr1 2.604542 1_665
O23 V1 1.681651 1_655
O23 Sr1 2.604542 1_655
