# generated using pymatgen
data_Tm(Fe2Ge)2
_symmetry_space_group_name_H-M   'P 1'
_cell_length_a   7.07119500
_cell_length_b   7.31876000
_cell_length_c   3.89096500
_cell_angle_alpha   90.00000000
_cell_angle_beta   90.00000000
_cell_angle_gamma   90.00000000
_symmetry_Int_Tables_number   1
_chemical_formula_structural   Tm(Fe2Ge)2
_chemical_formula_sum   'Tm2 Fe8 Ge4'
_cell_volume   201.36669582
_cell_formula_units_Z   2
loop_
 _symmetry_equiv_pos_site_id
 _symmetry_equiv_pos_as_xyz
  1  'x, y, z'
loop_
 _atom_site_type_symbol
 _atom_site_label
 _atom_site_symmetry_multiplicity
 _atom_site_fract_x
 _atom_site_fract_y
 _atom_site_fract_z
 _atom_site_occupancy
  Tm  Tm0  1  0.50000000  0.50000000  0.00000000  1
  Tm  Tm1  1  0.00000000  0.00000000  0.50000000  1
  Fe  Fe0  1  0.85604500  0.40211700  0.50000000  1
  Fe  Fe1  1  0.14395500  0.59788300  0.50000000  1
  Fe  Fe2  1  0.64395500  0.90211700  0.00000000  1
  Fe  Fe3  1  0.35604500  0.09788300  0.00000000  1
  Fe  Fe4  1  0.58698900  0.14628000  0.50000000  1
  Fe  Fe5  1  0.41301100  0.85372000  0.50000000  1
  Fe  Fe6  1  0.91301100  0.64628000  0.00000000  1
  Fe  Fe7  1  0.08698900  0.35372000  0.00000000  1
  Ge  Ge0  1  0.27877500  0.29091800  0.50000000  1
  Ge  Ge1  1  0.72122500  0.70908200  0.50000000  1
  Ge  Ge2  1  0.22122500  0.79091800  0.00000000  1
  Ge  Ge3  1  0.77877500  0.20908200  0.00000000  1
loop_
_geom_bond_atom_site_label_1
_geom_bond_atom_site_label_2
_geom_bond_distance
_geom_bond_site_symmetry_2
Fe0 Ge1 2.440508 1_555
Fe0 Ge3 2.465641 1_555
Fe0 Ge3 2.465641 1_556
Fe0 Tm1 3.114069 1_655
Fe0 Tm0 3.261401 1_555
Fe0 Tm0 3.261401 1_556
Fe1 Ge0 2.440508 1_555
Fe1 Ge2 2.465641 1_556
Fe1 Ge2 2.465641 1_555
Fe1 Tm1 3.114069 1_565
Fe1 Tm0 3.261401 1_555
Fe1 Tm0 3.261401 1_556
Fe2 Ge3 2.440508 1_565
Fe2 Ge1 2.465641 1_555
Fe2 Ge1 2.465641 1_554
Fe2 Tm0 3.114069 1_555
Fe2 Tm1 3.261401 1_664
Fe2 Tm1 3.261401 1_665
Fe3 Ge2 2.440508 1_545
Fe3 Ge0 2.465641 1_554
Fe3 Ge0 2.465641 1_555
Fe3 Tm0 3.114069 1_555
Fe3 Tm1 3.261401 1_555
Fe3 Tm1 3.261401 1_554
Fe4 Ge3 2.415642 1_556
Fe4 Ge3 2.415642 1_555
Fe4 Ge0 2.422919 1_555
Fe4 Tm1 3.110526 1_655
Fe4 Tm0 3.296227 1_555
Fe4 Tm0 3.296227 1_556
Fe5 Ge2 2.415642 1_556
Fe5 Ge2 2.415642 1_555
Fe5 Ge1 2.422919 1_555
Fe5 Tm1 3.110526 1_565
Fe5 Tm0 3.296227 1_555
Fe5 Tm0 3.296227 1_556
Fe6 Ge1 2.415642 1_554
Fe6 Ge1 2.415642 1_555
Fe6 Ge2 2.422919 1_655
Fe6 Tm0 3.110526 1_555
Fe6 Tm1 3.296227 1_664
Fe6 Tm1 3.296227 1_665
Fe7 Ge0 2.415642 1_554
Fe7 Ge0 2.415642 1_555
Fe7 Ge3 2.422919 1_455
Fe7 Tm0 3.110526 1_555
Fe7 Tm1 3.296227 1_554
Fe7 Tm1 3.296227 1_555
Ge0 Tm1 2.901591 1_555
Ge0 Tm0 2.928070 1_555
Ge0 Tm0 2.928070 1_556
Ge1 Tm1 2.901591 1_665
Ge1 Tm0 2.928070 1_555
Ge1 Tm0 2.928070 1_556
Ge2 Tm0 2.901591 1_555
Ge2 Tm1 2.928070 1_564
Ge2 Tm1 2.928070 1_565
Ge3 Tm0 2.901591 1_555
Ge3 Tm1 2.928070 1_654
Ge3 Tm1 2.928070 1_655
