# generated using pymatgen
data_Mg2TiMo3S8
_symmetry_space_group_name_H-M   'P 1'
_cell_length_a   7.24484390
_cell_length_b   7.24578987
_cell_length_c   7.24663350
_cell_angle_alpha   62.49060719
_cell_angle_beta   62.49396261
_cell_angle_gamma   62.51521291
_symmetry_Int_Tables_number   1
_chemical_formula_structural   Mg2TiMo3S8
_chemical_formula_sum   'Mg2 Ti1 Mo3 S8'
_cell_volume   283.97578569
_cell_formula_units_Z   1
loop_
 _symmetry_equiv_pos_site_id
 _symmetry_equiv_pos_as_xyz
  1  'x, y, z'
loop_
 _atom_site_type_symbol
 _atom_site_label
 _atom_site_symmetry_multiplicity
 _atom_site_fract_x
 _atom_site_fract_y
 _atom_site_fract_z
 _atom_site_occupancy
  Mg  Mg0  1  0.87751400  0.87752900  0.87753000  1
  Mg  Mg1  1  0.12248200  0.12246900  0.12247800  1
  Ti  Ti0  1  0.50001800  0.50000400  0.49997400  1
  Mo  Mo0  1  0.49999900  0.49999300  0.00000800  1
  Mo  Mo1  1  0.00000300  0.49999500  0.50000300  1
  Mo  Mo2  1  0.49999400  0.00000000  0.50000700  1
  S  S0  1  0.73889500  0.73892600  0.73891900  1
  S  S1  1  0.25986900  0.25987100  0.72114000  1
  S  S2  1  0.25987100  0.72113700  0.25988700  1
  S  S3  1  0.72113900  0.25987900  0.25986200  1
  S  S4  1  0.74010800  0.27887800  0.74011300  1
  S  S5  1  0.27886100  0.74012300  0.74012500  1
  S  S6  1  0.26109500  0.26106400  0.26110100  1
  S  S7  1  0.74015400  0.74012700  0.27885500  1
loop_
_geom_bond_atom_site_label_1
_geom_bond_atom_site_label_2
_geom_bond_distance
_geom_bond_site_symmetry_2
Mg0 S0 2.412615 1_555
Mg0 S7 2.450699 1_556
Mg0 S5 2.450877 1_655
Mg0 S4 2.451112 1_565
Mg1 S6 2.412604 1_555
Mg1 S1 2.450784 1_554
Mg1 S3 2.450848 1_455
Mg1 S2 2.451004 1_545
Mo0 S0 2.507513 1_554
Mo0 S6 2.507536 1_555
Mo0 S3 2.515358 1_555
Mo0 S5 2.515506 1_554
Mo0 S4 2.515707 1_554
Mo0 S2 2.515770 1_555
Mo1 S6 2.508715 1_555
Mo1 S0 2.508796 1_455
Mo1 S2 2.514505 1_555
Mo1 S4 2.514524 1_455
Mo1 S7 2.515377 1_455
Mo1 S1 2.515410 1_555
Mo2 S6 2.508307 1_555
Mo2 S0 2.508354 1_545
Mo2 S5 2.514539 1_545
Mo2 S3 2.514617 1_555
Mo2 S1 2.515703 1_555
Mo2 S7 2.515818 1_545
S1 Ti0 2.503122 1_555
S2 Ti0 2.503783 1_555
S3 Ti0 2.504083 1_555
S4 Ti0 2.503757 1_555
S5 Ti0 2.504255 1_555
S7 Ti0 2.503003 1_555
