# generated using pymatgen
data_Ca(TiS2)2
_symmetry_space_group_name_H-M   'P 1'
_cell_length_a   7.57230625
_cell_length_b   7.57230674
_cell_length_c   7.56058097
_cell_angle_alpha   119.44504818
_cell_angle_beta   121.60871166
_cell_angle_gamma   89.19031635
_symmetry_Int_Tables_number   1
_chemical_formula_structural   Ca(TiS2)2
_chemical_formula_sum   'Ca2 Ti4 S8'
_cell_volume   303.69034029
_cell_formula_units_Z   2
loop_
 _symmetry_equiv_pos_site_id
 _symmetry_equiv_pos_as_xyz
  1  'x, y, z'
loop_
 _atom_site_type_symbol
 _atom_site_label
 _atom_site_symmetry_multiplicity
 _atom_site_fract_x
 _atom_site_fract_y
 _atom_site_fract_z
 _atom_site_occupancy
  Ca  Ca0  1  0.00000000  0.50000100  0.00000100  1
  Ca  Ca1  1  0.00000100  0.00000000  0.50000000  1
  Ti  Ti0  1  0.37533000  0.62533000  0.75000000  1
  Ti  Ti1  1  0.62467000  0.37467100  0.25000000  1
  Ti  Ti2  1  0.50000100  0.00000000  0.50000000  1
  Ti  Ti3  1  0.00000000  0.00000000  0.00000000  1
  S  S0  1  0.74189000  0.76008100  0.51860600  1
  S  S1  1  0.74147600  0.22328600  0.98139600  1
  S  S2  1  0.25094000  0.23274800  0.01780700  1
  S  S3  1  0.25811000  0.23991900  0.48139500  1
  S  S4  1  0.28505900  0.76686700  0.51780600  1
  S  S5  1  0.25852400  0.77671500  0.01860600  1
  S  S6  1  0.71494000  0.23313200  0.48219300  1
  S  S7  1  0.74906000  0.76725300  0.98219300  1
loop_
_geom_bond_atom_site_label_1
_geom_bond_atom_site_label_2
_geom_bond_distance
_geom_bond_site_symmetry_2
Ca0 S4 2.748908 1_555
Ca0 S6 2.748924 1_454
Ca0 S7 2.759585 1_454
Ca0 S2 2.759590 1_555
Ca0 S5 2.789286 1_555
Ca0 S1 2.789292 1_454
Ca1 S7 2.748918 1_444
Ca1 S2 2.748918 1_556
Ca1 S4 2.759580 1_545
Ca1 S6 2.759591 1_455
Ca1 S3 2.789286 1_555
Ca1 S0 2.789303 1_445
S0 Ti1 2.405401 1_555
S0 Ti3 2.551481 1_666
S0 Ti2 2.561724 1_565
S1 Ti1 2.405401 1_556
S1 Ti2 2.551491 1_555
S1 Ti3 2.561734 1_656
S2 Ti1 2.295434 1_555
S2 Ti3 2.515602 1_555
S3 Ti0 2.405407 1_555
S3 Ti3 2.551486 1_555
S3 Ti2 2.561734 1_555
S4 Ti0 2.295440 1_555
S4 Ti2 2.515602 1_565
S5 Ti0 2.405413 1_554
S5 Ti2 2.551480 1_565
S5 Ti3 2.561729 1_565
S6 Ti1 2.295447 1_555
S6 Ti2 2.515586 1_555
S7 Ti0 2.295434 1_555
S7 Ti3 2.515597 1_666
