# generated using pymatgen
data_K2AlFeB2P4(HO9)2
_symmetry_space_group_name_H-M   'P 1'
_cell_length_a   5.16897669
_cell_length_b   8.20631793
_cell_length_c   8.34446289
_cell_angle_alpha   86.30822973
_cell_angle_beta   80.68349699
_cell_angle_gamma   86.51925021
_symmetry_Int_Tables_number   1
_chemical_formula_structural   K2AlFeB2P4(HO9)2
_chemical_formula_sum   'K2 Al1 Fe1 B2 P4 H2 O18'
_cell_volume   348.10901411
_cell_formula_units_Z   1
loop_
 _symmetry_equiv_pos_site_id
 _symmetry_equiv_pos_as_xyz
  1  'x, y, z'
loop_
 _atom_site_type_symbol
 _atom_site_label
 _atom_site_symmetry_multiplicity
 _atom_site_fract_x
 _atom_site_fract_y
 _atom_site_fract_z
 _atom_site_occupancy
  K  K0  1  0.27739200  0.17255400  0.38245300  1
  K  K1  1  0.72453700  0.82648300  0.61683000  1
  Al  Al0  1  0.73278500  0.30348700  0.69194600  1
  Fe  Fe0  1  0.26810900  0.69423600  0.31029000  1
  B  B0  1  0.87823800  0.23332400  0.05283000  1
  B  B1  1  0.12402000  0.76899300  0.94370800  1
  P  P0  1  0.77969000  0.43550200  0.31666400  1
  P  P1  1  0.21519400  0.55473300  0.68965300  1
  P  P2  1  0.20232700  0.08863700  0.80094700  1
  P  P3  1  0.80075900  0.91861900  0.19643200  1
  H  H0  1  0.55130200  0.35806000  0.98466500  1
  H  H1  1  0.45235900  0.63970800  0.00714400  1
  O  O0  1  0.13186900  0.17366300  0.96648800  1
  O  O1  1  0.87260500  0.82834300  0.03427100  1
  O  O2  1  0.75289600  0.30601300  0.46115100  1
  O  O3  1  0.25162900  0.68948000  0.54971800  1
  O  O4  1  0.50479600  0.49112400  0.27665200  1
  O  O5  1  0.48845200  0.48843900  0.72314800  1
  O  O6  1  0.97091500  0.10950600  0.70480500  1
  O  O7  1  0.03101200  0.90596100  0.29306300  1
  O  O8  1  0.45758200  0.15261000  0.70662200  1
  O  O9  1  0.55133900  0.85474800  0.29774800  1
  O  O10  1  0.94027500  0.35191800  0.16371000  1
  O  O11  1  0.06146400  0.64360900  0.84141200  1
  O  O12  1  0.26452500  0.90196800  0.83904400  1
  O  O13  1  0.72800700  0.10204200  0.15136900  1
  O  O14  1  0.71520600  0.30643500  0.93270500  1
  O  O15  1  0.29501300  0.69858600  0.05882800  1
  O  O16  1  0.03925100  0.42261700  0.65854000  1
  O  O17  1  0.93645100  0.57860300  0.34716400  1
loop_
_geom_bond_atom_site_label_1
_geom_bond_atom_site_label_2
_geom_bond_distance
_geom_bond_site_symmetry_2
K0 O7 2.796522 1_545
K0 O13 2.829161 1_555
K0 O2 2.852449 1_455
K0 O6 2.924593 1_455
K0 O2 2.934949 1_555
K0 O4 2.955590 1_555
K0 O9 2.961650 1_545
K0 O10 2.984478 1_455
K0 O8 2.991925 1_555
K0 O16 3.227649 1_555
K1 O12 2.831503 1_555
K1 O3 2.866324 1_655
K1 O3 2.900172 1_555
K1 O6 2.904575 1_565
K1 O9 2.934550 1_555
K1 O7 2.957493 1_655
K1 O8 3.017139 1_565
K1 O11 3.028918 1_655
K1 O5 3.116962 1_555
K1 O17 3.149933 1_555
Al0 O16 1.884899 1_655
Al0 O2 1.910622 1_555
Al0 O5 1.917848 1_555
Al0 O8 1.926004 1_555
Al0 O6 1.960482 1_555
Al0 O14 1.997956 1_555
Fe0 O17 1.980709 1_455
Fe0 O3 1.983843 1_555
Fe0 O4 2.013764 1_555
Fe0 O9 2.013982 1_555
Fe0 O7 2.075523 1_555
Fe0 O15 2.078465 1_555
B0 O0 1.462604 1_654
B0 O10 1.468318 1_555
B0 O14 1.486454 1_554
B0 O13 1.490153 1_555
B1 O11 1.461092 1_555
B1 O1 1.466191 1_456
B1 O15 1.476223 1_556
B1 O12 1.499719 1_555
H0 O14 0.972822 1_555
H1 O15 0.972876 1_555
O0 P2 1.567802 1_555
O1 P3 1.565484 1_555
O2 P0 1.549455 1_555
O3 P1 1.552257 1_555
O4 P0 1.547276 1_555
O5 P1 1.544045 1_555
O6 P2 1.540092 1_655
O7 P3 1.537009 1_455
O8 P2 1.526634 1_555
O9 P3 1.524374 1_555
O10 P0 1.577676 1_555
O11 P1 1.577901 1_555
O12 P2 1.568952 1_565
O13 P3 1.566105 1_545
O16 P1 1.517358 1_555
O17 P0 1.523551 1_555
