# generated using pymatgen
data_LiLa2Co2Sb2(PbO6)2
_symmetry_space_group_name_H-M   'P 1'
_cell_length_a   5.73675852
_cell_length_b   5.88358414
_cell_length_c   8.34867318
_cell_angle_alpha   90.24777716
_cell_angle_beta   86.82161752
_cell_angle_gamma   90.83728168
_symmetry_Int_Tables_number   1
_chemical_formula_structural   LiLa2Co2Sb2(PbO6)2
_chemical_formula_sum   'Li1 La2 Co2 Sb2 Pb2 O12'
_cell_volume   281.32502648
_cell_formula_units_Z   1
loop_
 _symmetry_equiv_pos_site_id
 _symmetry_equiv_pos_as_xyz
  1  'x, y, z'
loop_
 _atom_site_type_symbol
 _atom_site_label
 _atom_site_symmetry_multiplicity
 _atom_site_fract_x
 _atom_site_fract_y
 _atom_site_fract_z
 _atom_site_occupancy
  Li  Li0  1  0.64962700  0.41702500  0.41788600  1
  La  La0  1  0.50393100  0.43008000  0.76694900  1
  La  La1  1  0.02223900  0.06380100  0.26153200  1
  Co  Co0  1  0.04156300  0.50986200  0.51972700  1
  Co  Co1  1  0.49203600  0.00613400  0.99959000  1
  Sb  Sb0  1  0.97884100  0.49962200  0.00423500  1
  Sb  Sb1  1  0.50179300  0.97906700  0.50954300  1
  Pb  Pb0  1  0.44823700  0.59993000  0.19796800  1
  Pb  Pb1  1  0.98342300  0.96514300  0.75967700  1
  O  O0  1  0.60902000  0.98451000  0.27612800  1
  O  O1  1  0.09368700  0.52125500  0.76611600  1
  O  O2  1  0.41352800  0.02095400  0.74287500  1
  O  O3  1  0.91340900  0.46010600  0.24957200  1
  O  O4  1  0.20377600  0.80973000  0.45763200  1
  O  O5  1  0.69419000  0.68415700  0.96101200  1
  O  O6  1  0.78688100  0.19622000  0.54502100  1
  O  O7  1  0.26387400  0.30748900  0.03244100  1
  O  O8  1  0.32065500  0.27743600  0.46754300  1
  O  O9  1  0.78702900  0.22550400  0.95651700  1
  O  O10  1  0.67862800  0.68921000  0.55468300  1
  O  O11  1  0.16125200  0.79026400  0.05335300  1
loop_
_geom_bond_atom_site_label_1
_geom_bond_atom_site_label_2
_geom_bond_distance
_geom_bond_site_symmetry_2
Li0 O6 1.889126 1_555
Li0 O10 1.973330 1_555
Li0 O3 2.021099 1_555
Li0 O8 2.068553 1_555
Li0 Pb0 2.480418 1_555
La0 O1 2.421855 1_555
La0 O2 2.464653 1_555
La0 O5 2.485637 1_555
La0 O10 2.500217 1_555
La0 O9 2.636231 1_555
La0 O7 2.641209 1_556
La0 O6 2.769591 1_555
La0 O8 2.899081 1_555
La1 O0 2.405841 1_445
La1 O3 2.426526 1_455
La1 O11 2.471114 1_545
La1 O4 2.501046 1_545
La1 O7 2.703131 1_555
La1 O6 2.773444 1_455
La1 O8 2.777350 1_555
Co0 O4 2.038113 1_555
Co0 O1 2.095632 1_555
Co0 O8 2.145882 1_555
Co0 O6 2.339849 1_455
Co0 O10 2.351131 1_455
Co0 O3 2.425915 1_455
Co1 O9 2.128793 1_555
Co1 O2 2.216683 1_555
Co1 O7 2.226202 1_556
Co1 O5 2.248297 1_545
Co1 O11 2.292515 1_546
Co1 O0 2.444102 1_546
O0 Sb1 2.010947 1_555
O0 Pb0 2.527726 1_555
O1 Sb0 2.063208 1_456
O1 Pb1 2.697594 1_455
O2 Sb1 2.000500 1_545
O2 Pb1 2.480715 1_445
O3 Sb0 2.075222 1_555
O4 Sb1 2.032735 1_555
O5 Sb0 2.023900 1_556
O5 Pb0 2.414226 1_556
O6 Sb1 2.093863 1_545
O6 Pb1 2.573175 1_545
O7 Sb0 2.026355 1_455
O7 Pb0 2.465186 1_555
O8 Sb1 2.093686 1_545
O9 Sb0 1.990438 1_556
O9 Pb1 2.477886 1_545
O10 Sb1 2.044028 1_555
O11 Sb0 2.043671 1_455
O11 Pb0 2.389193 1_555
