# generated using pymatgen
data_Mg6AlCo
_symmetry_space_group_name_H-M   'P 1'
_cell_length_a   4.73762200
_cell_length_b   6.12243500
_cell_length_c   10.57870000
_cell_angle_alpha   90.00000000
_cell_angle_beta   90.00000000
_cell_angle_gamma   90.00000000
_symmetry_Int_Tables_number   1
_chemical_formula_structural   Mg6AlCo
_chemical_formula_sum   'Mg12 Al2 Co2'
_cell_volume   306.84347397
_cell_formula_units_Z   2
loop_
 _symmetry_equiv_pos_site_id
 _symmetry_equiv_pos_as_xyz
  1  'x, y, z'
loop_
 _atom_site_type_symbol
 _atom_site_label
 _atom_site_symmetry_multiplicity
 _atom_site_fract_x
 _atom_site_fract_y
 _atom_site_fract_z
 _atom_site_occupancy
  Mg  Mg0  1  0.00000000  0.73606300  0.91173900  1
  Mg  Mg1  1  0.00000000  0.26393700  0.91173900  1
  Mg  Mg2  1  0.00000000  0.50000000  0.16714400  1
  Mg  Mg3  1  0.50000000  0.75684300  0.08833200  1
  Mg  Mg4  1  0.50000000  0.24315700  0.08833200  1
  Mg  Mg5  1  0.50000000  0.50000000  0.33380100  1
  Mg  Mg6  1  0.00000000  0.23606300  0.41173900  1
  Mg  Mg7  1  0.00000000  0.76393700  0.41173900  1
  Mg  Mg8  1  0.00000000  0.00000000  0.66714400  1
  Mg  Mg9  1  0.50000000  0.25684300  0.58833200  1
  Mg  Mg10  1  0.50000000  0.74315700  0.58833200  1
  Mg  Mg11  1  0.50000000  0.00000000  0.83380100  1
  Al  Al0  1  0.00000000  0.50000000  0.68200500  1
  Al  Al1  1  0.00000000  0.00000000  0.18200500  1
  Co  Co0  1  0.50000000  0.50000000  0.81690800  1
  Co  Co1  1  0.50000000  0.00000000  0.31690800  1
loop_
_geom_bond_atom_site_label_1
_geom_bond_atom_site_label_2
_geom_bond_distance
_geom_bond_site_symmetry_2
Mg0 Mg1 2.890561 1_555
Mg0 Mg11 2.983671 1_565
Mg0 Mg11 2.983671 1_465
Mg0 Mg3 3.019493 1_556
Mg0 Mg3 3.019493 1_456
Mg0 Mg8 3.050638 1_565
Mg0 Mg2 3.064122 1_556
Mg0 Mg1 3.231874 1_565
Mg1 Mg11 2.983671 1_555
Mg1 Mg11 2.983671 1_455
Mg1 Mg4 3.019493 1_556
Mg1 Mg4 3.019493 1_456
Mg1 Mg8 3.050638 1_555
Mg1 Mg2 3.064122 1_556
Mg2 Mg5 2.952877 1_555
Mg2 Mg5 2.952877 1_455
Mg2 Mg3 2.962961 1_455
Mg2 Mg3 2.962961 1_555
Mg2 Mg4 2.962961 1_455
Mg2 Mg4 2.962961 1_555
Mg2 Mg7 3.050638 1_555
Mg2 Mg6 3.050638 1_555
Mg3 Mg4 2.977426 1_565
Mg3 Mg5 3.035761 1_555
Mg3 Mg4 3.145009 1_555
Mg4 Mg5 3.035761 1_555
Mg5 Mg7 2.983671 1_555
Mg5 Mg6 2.983671 1_655
Mg5 Mg7 2.983671 1_655
Mg5 Mg6 2.983671 1_555
Mg5 Mg9 3.076751 1_555
Mg6 Mg7 2.890561 1_545
Mg6 Mg9 3.019493 1_455
Mg6 Mg9 3.019493 1_555
Mg6 Mg8 3.064122 1_555
Mg6 Mg7 3.231874 1_555
Mg7 Mg8 3.064122 1_565
Mg8 Mg9 2.962961 1_455
Mg8 Mg9 2.962961 1_555
Mg10 Mg8 2.962961 1_565
Mg10 Mg8 2.962961 1_665
Mg10 Mg9 2.977426 1_555
Mg10 Mg7 3.019493 1_555
Mg10 Mg7 3.019493 1_655
Mg10 Mg11 3.035761 1_565
Mg10 Mg5 3.076751 1_555
Mg10 Mg9 3.145009 1_565
Mg11 Mg8 2.952877 1_655
Mg11 Mg8 2.952877 1_555
Mg11 Mg9 3.035761 1_555
Mg11 Mg4 3.076751 1_556
Mg11 Mg3 3.076751 1_546
Al0 Co0 2.765479 1_455
Al0 Co0 2.765479 1_555
Al0 Mg0 2.827566 1_555
Al0 Mg1 2.827566 1_555
Al0 Mg10 2.968079 1_455
Al0 Mg10 2.968079 1_555
Al0 Mg9 2.968079 1_555
Al0 Mg9 2.968079 1_455
Al0 Mg8 3.065252 1_555
Al0 Mg8 3.065252 1_565
Al0 Mg6 3.284128 1_555
Al0 Mg7 3.284128 1_555
Al1 Co1 2.765479 1_455
Al1 Co1 2.765479 1_555
Al1 Mg7 2.827566 1_545
Al1 Mg6 2.827566 1_555
Al1 Mg4 2.968079 1_455
Al1 Mg4 2.968079 1_555
Al1 Mg3 2.968079 1_445
Al1 Mg3 2.968079 1_545
Al1 Mg2 3.065252 1_555
Al1 Mg2 3.065252 1_545
Al1 Mg1 3.284128 1_554
Al1 Mg0 3.284128 1_544
Co0 Mg10 2.839572 1_555
Co0 Mg9 2.839572 1_555
Co0 Mg0 2.950676 1_555
Co0 Mg0 2.950676 1_655
Co0 Mg1 2.950676 1_655
Co0 Mg1 2.950676 1_555
Co0 Mg11 3.066429 1_555
Co0 Mg11 3.066429 1_565
Co0 Mg3 3.273715 1_556
Co0 Mg4 3.273715 1_556
Co1 Mg4 2.839572 1_555
Co1 Mg3 2.839572 1_545
Co1 Mg6 2.950676 1_555
Co1 Mg7 2.950676 1_645
Co1 Mg6 2.950676 1_655
Co1 Mg7 2.950676 1_545
Co1 Mg5 3.066429 1_545
Co1 Mg5 3.066429 1_555
Co1 Mg10 3.273715 1_545
Co1 Mg9 3.273715 1_555
