# generated using pymatgen
data_Li9Mn2Co5O16
_symmetry_space_group_name_H-M   'P 1'
_cell_length_a   6.65725959
_cell_length_b   6.65725959
_cell_length_c   15.31258289
_cell_angle_alpha   87.55643628
_cell_angle_beta   87.55643628
_cell_angle_gamma   25.11513067
_symmetry_Int_Tables_number   1
_chemical_formula_structural   Li9Mn2Co5O16
_chemical_formula_sum   'Li9 Mn2 Co5 O16'
_cell_volume   287.76604929
_cell_formula_units_Z   1
loop_
 _symmetry_equiv_pos_site_id
 _symmetry_equiv_pos_as_xyz
  1  'x, y, z'
loop_
 _atom_site_type_symbol
 _atom_site_label
 _atom_site_symmetry_multiplicity
 _atom_site_fract_x
 _atom_site_fract_y
 _atom_site_fract_z
 _atom_site_occupancy
  Li  Li0  1  0.69255900  0.69255900  0.93272800  1
  Li  Li1  1  0.05955000  0.05955000  0.81256200  1
  Li  Li2  1  0.43492000  0.43492000  0.69487000  1
  Li  Li3  1  0.31387900  0.31387900  0.05946700  1
  Li  Li4  1  0.93446400  0.93446400  0.18465400  1
  Li  Li5  1  0.56405900  0.56405900  0.30927100  1
  Li  Li6  1  0.81286600  0.81286600  0.56832600  1
  Li  Li7  1  0.18895000  0.18895000  0.43504200  1
  Li  Li8  1  0.37387100  0.37387100  0.87630400  1
  Mn  Mn0  1  0.99155200  0.99155200  0.99834600  1
  Mn  Mn1  1  0.50231400  0.50231400  0.49875500  1
  Co  Co0  1  0.76420000  0.76420000  0.75794400  1
  Co  Co1  1  0.12900600  0.12900600  0.63128500  1
  Co  Co2  1  0.87424600  0.87424600  0.37339400  1
  Co  Co3  1  0.25026500  0.25026500  0.24928300  1
  Co  Co4  1  0.62432000  0.62432000  0.12420900  1
  O  O0  1  0.52850200  0.52850200  0.91906900  1
  O  O1  1  0.89884500  0.89884500  0.77731700  1
  O  O2  1  0.27474000  0.27474000  0.65903200  1
  O  O3  1  0.14270500  0.14270500  0.04028200  1
  O  O4  1  0.77743900  0.77743900  0.16408100  1
  O  O5  1  0.40169300  0.40169300  0.28769800  1
  O  O6  1  0.64436200  0.64436200  0.53441300  1
  O  O7  1  0.03120700  0.03120700  0.41667100  1
  O  O8  1  0.85535100  0.85535100  0.97265800  1
  O  O9  1  0.21775600  0.21775600  0.83649400  1
  O  O10  1  0.59612300  0.59612300  0.71009400  1
  O  O11  1  0.47076700  0.47076700  0.08479600  1
  O  O12  1  0.09827800  0.09827800  0.20830900  1
  O  O13  1  0.71954900  0.71954900  0.33824800  1
  O  O14  1  0.97297900  0.97297900  0.58083700  1
  O  O15  1  0.35868500  0.35868500  0.46356300  1
loop_
_geom_bond_atom_site_label_1
_geom_bond_atom_site_label_2
_geom_bond_distance
_geom_bond_site_symmetry_2
Li0 O9 2.081245 1_565
Li0 O9 2.081245 1_655
Li0 O0 2.151394 1_555
Li0 O8 2.227738 1_555
Li0 O3 2.265827 1_566
Li0 O3 2.265827 1_656
Li1 O9 2.104149 1_555
Li1 O10 2.172030 1_545
Li1 O10 2.172030 1_455
Li1 O1 2.179832 1_445
Li1 O0 2.204583 1_545
Li1 O0 2.204583 1_455
Li2 O1 1.963919 1_455
Li2 O1 1.963919 1_545
Li2 O10 2.118022 1_555
Li2 O2 2.175874 1_555
Li2 O14 2.305045 1_455
Li2 O14 2.305045 1_545
Li3 O8 2.022349 1_544
Li3 O8 2.022349 1_454
Li3 O11 2.092057 1_555
Li3 O4 2.195257 1_545
Li3 O4 2.195257 1_455
Li3 O3 2.256578 1_555
Li4 O4 2.078426 1_555
Li4 O11 2.143059 1_655
Li4 O11 2.143059 1_565
Li4 O5 2.169651 1_565
Li4 O5 2.169651 1_655
Li4 O12 2.175065 1_665
Li5 O13 2.087736 1_555
Li5 O5 2.150019 1_555
Li5 O12 2.150075 1_655
Li5 O12 2.150075 1_565
Li5 O7 2.218241 1_655
Li5 O7 2.218241 1_565
Li6 O2 2.051727 1_565
Li6 O2 2.051727 1_655
Li6 O14 2.097947 1_555
Li6 O15 2.222520 1_655
Li6 O15 2.222520 1_565
Li6 O6 2.272573 1_555
Li7 O7 2.081378 1_555
Li7 O13 2.097260 1_455
Li7 O13 2.097260 1_545
Li7 O6 2.160818 1_545
Li7 O6 2.160818 1_455
Li7 O15 2.267331 1_555
Li8 O8 2.073363 1_545
Li8 O8 2.073363 1_455
Li8 O1 2.110660 1_455
Li8 O1 2.110660 1_545
Li8 O0 2.140612 1_555
Li8 O9 2.143822 1_555
Mn0 O8 1.829944 1_555
Mn0 O0 1.936064 1_565
Mn0 O0 1.936064 1_655
Mn0 O11 1.972090 1_566
Mn0 O11 1.972090 1_656
Mn0 O3 2.093171 1_666
Mn1 O7 1.942844 1_655
Mn1 O7 1.942844 1_565
Mn1 O14 1.943781 1_545
Mn1 O14 1.943781 1_455
Mn1 O6 1.947850 1_555
Mn1 O15 1.965318 1_555
Co0 O1 1.787545 1_555
Co0 O9 1.960272 1_565
Co0 O9 1.960272 1_655
Co0 O2 2.095157 1_655
Co0 O2 2.095157 1_565
Co0 O10 2.334090 1_555
Co1 O10 1.920651 1_455
Co1 O10 1.920651 1_545
Co1 O2 1.959058 1_555
Co1 O6 2.075900 1_545
Co1 O6 2.075900 1_455
Co1 O14 2.201196 1_445
Co2 O5 1.975682 1_565
Co2 O5 1.975682 1_655
Co2 O15 2.004477 1_565
Co2 O15 2.004477 1_655
Co2 O13 2.103815 1_555
Co2 O7 2.172164 1_665
Co3 O4 1.970190 1_455
Co3 O4 1.970190 1_545
Co3 O13 2.015613 1_455
Co3 O13 2.015613 1_545
Co3 O5 2.078464 1_555
Co3 O12 2.098435 1_555
Co4 O3 1.943420 1_655
Co4 O3 1.943420 1_565
Co4 O12 1.957014 1_655
Co4 O12 1.957014 1_565
Co4 O4 2.106833 1_555
Co4 O11 2.109921 1_555
