# generated using pymatgen
data_MgZn2
_symmetry_space_group_name_H-M   'P 1'
_cell_length_a   11.03942244
_cell_length_b   11.03942244
_cell_length_c   13.27626904
_cell_angle_alpha   75.77741639
_cell_angle_beta   75.77741639
_cell_angle_gamma   30.94688323
_symmetry_Int_Tables_number   1
_chemical_formula_structural   MgZn2
_chemical_formula_sum   'Mg16 Zn32'
_cell_volume   804.53630962
_cell_formula_units_Z   16
loop_
 _symmetry_equiv_pos_site_id
 _symmetry_equiv_pos_as_xyz
  1  'x, y, z'
loop_
 _atom_site_type_symbol
 _atom_site_label
 _atom_site_symmetry_multiplicity
 _atom_site_fract_x
 _atom_site_fract_y
 _atom_site_fract_z
 _atom_site_occupancy
  Mg  Mg0_0  1  0.26283000  0.26283000  0.10266100  1
  Mg  Mg0_1  1  0.26283000  0.26283000  0.60266100  1
  Mg  Mg0_2  1  0.26283000  0.76283000  0.10266100  1
  Mg  Mg0_3  1  0.26283000  0.76283000  0.60266100  1
  Mg  Mg0_4  1  0.76283000  0.26283000  0.10266100  1
  Mg  Mg0_5  1  0.76283000  0.26283000  0.60266100  1
  Mg  Mg0_6  1  0.76283000  0.76283000  0.10266100  1
  Mg  Mg0_7  1  0.76283000  0.76283000  0.60266100  1
  Mg  Mg1_0  1  0.23717000  0.23717000  0.39733900  1
  Mg  Mg1_1  1  0.23717000  0.23717000  0.89733900  1
  Mg  Mg1_2  1  0.23717000  0.73717000  0.39733900  1
  Mg  Mg1_3  1  0.23717000  0.73717000  0.89733900  1
  Mg  Mg1_4  1  0.73717000  0.23717000  0.39733900  1
  Mg  Mg1_5  1  0.73717000  0.23717000  0.89733900  1
  Mg  Mg1_6  1  0.73717000  0.73717000  0.39733900  1
  Mg  Mg1_7  1  0.73717000  0.73717000  0.89733900  1
  Zn  Zn0_0  1  0.40125450  0.40125450  0.07117700  1
  Zn  Zn0_1  1  0.40125450  0.40125450  0.57117700  1
  Zn  Zn0_2  1  0.40125450  0.90125450  0.07117700  1
  Zn  Zn0_3  1  0.40125450  0.90125450  0.57117700  1
  Zn  Zn0_4  1  0.90125450  0.40125450  0.07117700  1
  Zn  Zn0_5  1  0.90125450  0.40125450  0.57117700  1
  Zn  Zn0_6  1  0.90125450  0.90125450  0.07117700  1
  Zn  Zn0_7  1  0.90125450  0.90125450  0.57117700  1
  Zn  Zn1_0  1  0.07384100  0.07384100  0.23434600  1
  Zn  Zn1_1  1  0.07384100  0.07384100  0.73434600  1
  Zn  Zn1_2  1  0.07384100  0.57384100  0.23434600  1
  Zn  Zn1_3  1  0.07384100  0.57384100  0.73434600  1
  Zn  Zn1_4  1  0.57384100  0.07384100  0.23434600  1
  Zn  Zn1_5  1  0.57384100  0.07384100  0.73434600  1
  Zn  Zn1_6  1  0.57384100  0.57384100  0.23434600  1
  Zn  Zn1_7  1  0.57384100  0.57384100  0.73434600  1
  Zn  Zn2_0  1  0.42615900  0.42615900  0.26565400  1
  Zn  Zn2_1  1  0.42615900  0.42615900  0.76565400  1
  Zn  Zn2_2  1  0.42615900  0.92615900  0.26565400  1
  Zn  Zn2_3  1  0.42615900  0.92615900  0.76565400  1
  Zn  Zn2_4  1  0.92615900  0.42615900  0.26565400  1
  Zn  Zn2_5  1  0.92615900  0.42615900  0.76565400  1
  Zn  Zn2_6  1  0.92615900  0.92615900  0.26565400  1
  Zn  Zn2_7  1  0.92615900  0.92615900  0.76565400  1
  Zn  Zn3_0  1  0.09874550  0.09874550  0.42882300  1
  Zn  Zn3_1  1  0.09874550  0.09874550  0.92882300  1
  Zn  Zn3_2  1  0.09874550  0.59874550  0.42882300  1
  Zn  Zn3_3  1  0.09874550  0.59874550  0.92882300  1
  Zn  Zn3_4  1  0.59874550  0.09874550  0.42882300  1
  Zn  Zn3_5  1  0.59874550  0.09874550  0.92882300  1
  Zn  Zn3_6  1  0.59874550  0.59874550  0.42882300  1
  Zn  Zn3_7  1  0.59874550  0.59874550  0.92882300  1
loop_
_geom_bond_atom_site_label_1
_geom_bond_atom_site_label_2
_geom_bond_distance
_geom_bond_site_symmetry_2
Mg0_0 Zn1_4 2.840370 1_555
Mg0_0 Zn1_2 2.840370 1_555
Mg0_0 Zn2_2 2.866648 1_545
Mg0_0 Zn2_4 2.866648 1_455
Mg0_0 Zn0_0 2.867546 1_555
Mg0_0 Zn0_2 2.913066 1_545
Mg0_0 Zn0_4 2.913066 1_455
Mg0_0 Mg1_1 2.913343 1_554
Mg0_0 Mg0_6 2.945226 1_545
Mg0_0 Mg0_6 2.945226 1_455
Mg0_0 Zn3_5 2.947207 1_554
Mg0_0 Zn3_3 2.947207 1_554
Mg0_1 Zn1_5 2.840370 1_555
Mg0_1 Zn1_3 2.840370 1_555
Mg0_1 Zn2_3 2.866648 1_545
Mg0_1 Zn2_5 2.866648 1_455
Mg0_1 Zn0_1 2.867546 1_555
Mg0_1 Zn0_3 2.913066 1_545
Mg0_1 Zn0_5 2.913066 1_455
Mg0_1 Mg1_0 2.913343 1_555
Mg0_1 Mg0_7 2.945226 1_545
Mg0_1 Mg0_7 2.945226 1_455
Mg0_1 Zn3_4 2.947207 1_555
Mg0_1 Zn3_2 2.947207 1_555
Mg0_2 Zn1_6 2.840370 1_555
Mg0_2 Zn1_0 2.840370 1_565
Mg0_2 Zn2_6 2.866648 1_455
Mg0_2 Zn2_0 2.866648 1_555
Mg0_2 Zn0_2 2.867546 1_555
Mg0_2 Zn0_6 2.913066 1_455
Mg0_2 Zn0_0 2.913066 1_555
Mg0_2 Mg1_3 2.913343 1_554
Mg0_2 Mg0_4 2.945226 1_555
Mg0_2 Mg0_4 2.945226 1_465
Mg0_2 Zn3_1 2.947207 1_564
Mg0_2 Zn3_7 2.947207 1_554
Mg0_3 Zn1_1 2.840370 1_565
Mg0_3 Zn1_7 2.840370 1_555
Mg0_3 Zn2_1 2.866648 1_555
Mg0_3 Zn2_7 2.866648 1_455
Mg0_3 Zn0_3 2.867546 1_555
Mg0_3 Zn0_7 2.913066 1_455
Mg0_3 Zn0_1 2.913066 1_555
Mg0_3 Mg1_2 2.913343 1_555
Mg0_3 Mg0_5 2.945226 1_555
Mg0_3 Mg0_5 2.945226 1_465
Mg0_3 Zn3_6 2.947207 1_555
Mg0_3 Zn3_0 2.947207 1_565
Mg0_4 Zn1_0 2.840370 1_655
Mg0_4 Zn1_6 2.840370 1_555
Mg0_4 Zn2_6 2.866648 1_545
Mg0_4 Zn2_0 2.866648 1_555
Mg0_4 Zn0_4 2.867546 1_555
Mg0_4 Zn0_6 2.913066 1_545
Mg0_4 Zn0_0 2.913066 1_555
Mg0_4 Mg1_5 2.913343 1_554
Mg0_4 Zn3_1 2.947207 1_654
Mg0_4 Zn3_7 2.947207 1_554
Mg0_5 Zn1_1 2.840370 1_655
Mg0_5 Zn1_7 2.840370 1_555
Mg0_5 Zn2_1 2.866648 1_555
Mg0_5 Zn2_7 2.866648 1_545
Mg0_5 Zn0_5 2.867546 1_555
Mg0_5 Zn0_7 2.913066 1_545
Mg0_5 Zn0_1 2.913066 1_555
Mg0_5 Mg1_4 2.913343 1_555
Mg0_5 Zn3_6 2.947207 1_555
Mg0_5 Zn3_0 2.947207 1_655
Mg0_6 Zn1_4 2.840370 1_565
Mg0_6 Zn1_2 2.840370 1_655
Mg0_6 Zn2_2 2.866648 1_555
Mg0_6 Zn2_4 2.866648 1_555
Mg0_6 Zn0_6 2.867546 1_555
Mg0_6 Zn0_4 2.913066 1_555
Mg0_6 Zn0_2 2.913066 1_555
Mg0_6 Mg1_7 2.913343 1_554
Mg0_6 Zn3_5 2.947207 1_564
Mg0_6 Zn3_3 2.947207 1_654
Mg0_7 Zn1_3 2.840370 1_655
Mg0_7 Zn1_5 2.840370 1_565
Mg0_7 Zn2_5 2.866648 1_555
Mg0_7 Zn2_3 2.866648 1_555
Mg0_7 Zn0_7 2.867546 1_555
Mg0_7 Zn0_3 2.913066 1_555
Mg0_7 Zn0_5 2.913066 1_555
Mg0_7 Mg1_6 2.913343 1_555
Mg0_7 Zn3_4 2.947207 1_565
Mg0_7 Zn3_2 2.947207 1_655
Mg1_0 Zn2_2 2.840370 1_545
Mg1_0 Zn2_4 2.840370 1_455
Mg1_0 Zn1_4 2.866648 1_555
Mg1_0 Zn1_2 2.866648 1_555
Mg1_0 Zn3_0 2.867546 1_555
Mg1_0 Zn3_4 2.913066 1_555
Mg1_0 Zn3_2 2.913066 1_555
Mg1_0 Mg1_6 2.945226 1_455
Mg1_0 Mg1_6 2.945226 1_545
Mg1_0 Zn0_3 2.947207 1_545
Mg1_0 Zn0_5 2.947207 1_455
Mg1_1 Zn2_3 2.840370 1_545
Mg1_1 Zn2_5 2.840370 1_455
Mg1_1 Zn1_5 2.866648 1_555
Mg1_1 Zn1_3 2.866648 1_555
Mg1_1 Zn3_1 2.867546 1_555
Mg1_1 Zn3_5 2.913066 1_555
Mg1_1 Zn3_3 2.913066 1_555
Mg1_1 Mg1_7 2.945226 1_455
Mg1_1 Mg1_7 2.945226 1_545
Mg1_1 Zn0_4 2.947207 1_456
Mg1_1 Zn0_2 2.947207 1_546
Mg1_2 Zn2_6 2.840370 1_455
Mg1_2 Zn2_0 2.840370 1_555
Mg1_2 Zn1_0 2.866648 1_565
Mg1_2 Zn1_6 2.866648 1_555
Mg1_2 Zn3_2 2.867546 1_555
Mg1_2 Zn3_6 2.913066 1_555
Mg1_2 Zn3_0 2.913066 1_565
Mg1_2 Mg1_4 2.945226 1_465
Mg1_2 Mg1_4 2.945226 1_555
Mg1_2 Zn0_7 2.947207 1_455
Mg1_2 Zn0_1 2.947207 1_555
Mg1_3 Zn2_1 2.840370 1_555
Mg1_3 Zn2_7 2.840370 1_455
Mg1_3 Zn1_1 2.866648 1_565
Mg1_3 Zn1_7 2.866648 1_555
Mg1_3 Zn3_3 2.867546 1_555
Mg1_3 Zn3_1 2.913066 1_565
Mg1_3 Zn3_7 2.913066 1_555
Mg1_3 Mg1_5 2.945226 1_465
Mg1_3 Mg1_5 2.945226 1_555
Mg1_3 Zn0_6 2.947207 1_456
Mg1_3 Zn0_0 2.947207 1_556
Mg1_4 Zn2_6 2.840370 1_545
Mg1_4 Zn2_0 2.840370 1_555
Mg1_4 Zn1_6 2.866648 1_555
Mg1_4 Zn1_0 2.866648 1_655
Mg1_4 Zn3_4 2.867546 1_555
Mg1_4 Zn3_6 2.913066 1_555
Mg1_4 Zn3_0 2.913066 1_655
Mg1_4 Zn0_7 2.947207 1_545
Mg1_4 Zn0_1 2.947207 1_555
Mg1_5 Zn2_1 2.840370 1_555
Mg1_5 Zn2_7 2.840370 1_545
Mg1_5 Zn1_1 2.866648 1_655
Mg1_5 Zn1_7 2.866648 1_555
Mg1_5 Zn3_5 2.867546 1_555
Mg1_5 Zn3_1 2.913066 1_655
Mg1_5 Zn3_7 2.913066 1_555
Mg1_5 Zn0_6 2.947207 1_546
Mg1_5 Zn0_0 2.947207 1_556
Mg1_6 Zn2_2 2.840370 1_555
Mg1_6 Zn2_4 2.840370 1_555
Mg1_6 Zn1_4 2.866648 1_565
Mg1_6 Zn1_2 2.866648 1_655
Mg1_6 Zn3_6 2.867546 1_555
Mg1_6 Zn3_4 2.913066 1_565
Mg1_6 Zn3_2 2.913066 1_655
Mg1_6 Zn0_3 2.947207 1_555
Mg1_6 Zn0_5 2.947207 1_555
Mg1_7 Zn2_5 2.840370 1_555
Mg1_7 Zn2_3 2.840370 1_555
Mg1_7 Zn1_3 2.866648 1_655
Mg1_7 Zn1_5 2.866648 1_565
Mg1_7 Zn3_7 2.867546 1_555
Mg1_7 Zn3_5 2.913066 1_565
Mg1_7 Zn3_3 2.913066 1_655
Mg1_7 Zn0_2 2.947207 1_556
Mg1_7 Zn0_4 2.947207 1_556
Zn0_0 Zn2_0 2.764923 1_555
Zn0_0 Zn1_2 2.784850 1_555
Zn0_0 Zn1_4 2.784850 1_555
Zn0_0 Zn3_3 2.839976 1_554
Zn0_0 Zn3_5 2.839976 1_554
Zn0_0 Zn0_6 2.945226 1_455
Zn0_0 Zn0_6 2.945226 1_545
Zn0_1 Zn2_1 2.764923 1_555
Zn0_1 Zn1_3 2.784850 1_555
Zn0_1 Zn1_5 2.784850 1_555
Zn0_1 Zn3_2 2.839976 1_555
Zn0_1 Zn3_4 2.839976 1_555
Zn0_1 Zn0_7 2.945226 1_545
Zn0_1 Zn0_7 2.945226 1_455
Zn0_2 Zn2_2 2.764923 1_555
Zn0_2 Zn1_6 2.784850 1_555
Zn0_2 Zn1_0 2.784850 1_565
Zn0_2 Zn3_7 2.839976 1_554
Zn0_2 Zn3_1 2.839976 1_564
Zn0_2 Zn0_4 2.945226 1_465
Zn0_2 Zn0_4 2.945226 1_555
Zn0_3 Zn2_3 2.764923 1_555
Zn0_3 Zn1_7 2.784850 1_555
Zn0_3 Zn1_1 2.784850 1_565
Zn0_3 Zn3_0 2.839976 1_565
Zn0_3 Zn3_6 2.839976 1_555
Zn0_3 Zn0_5 2.945226 1_555
Zn0_3 Zn0_5 2.945226 1_465
Zn0_4 Zn2_4 2.764923 1_555
Zn0_4 Zn1_6 2.784850 1_555
Zn0_4 Zn1_0 2.784850 1_655
Zn0_4 Zn3_7 2.839976 1_554
Zn0_4 Zn3_1 2.839976 1_654
Zn0_5 Zn2_5 2.764923 1_555
Zn0_5 Zn1_7 2.784850 1_555
Zn0_5 Zn1_1 2.784850 1_655
Zn0_5 Zn3_0 2.839976 1_655
Zn0_5 Zn3_6 2.839976 1_555
Zn0_6 Zn2_6 2.764923 1_555
Zn0_6 Zn1_4 2.784850 1_565
Zn0_6 Zn1_2 2.784850 1_655
Zn0_6 Zn3_3 2.839976 1_654
Zn0_6 Zn3_5 2.839976 1_564
Zn0_7 Zn2_7 2.764923 1_555
Zn0_7 Zn1_3 2.784850 1_655
Zn0_7 Zn1_5 2.784850 1_565
Zn0_7 Zn3_2 2.839976 1_655
Zn0_7 Zn3_4 2.839976 1_565
Zn1_0 Zn2_4 2.746430 1_455
Zn1_0 Zn2_2 2.746430 1_545
Zn1_0 Zn3_0 2.764923 1_555
Zn1_0 Zn1_6 2.945226 1_545
Zn1_0 Zn1_6 2.945226 1_455
Zn1_0 Zn2_6 3.062985 1_445
Zn1_1 Zn2_5 2.746430 1_455
Zn1_1 Zn2_3 2.746430 1_545
Zn1_1 Zn3_1 2.764923 1_555
Zn1_1 Zn1_7 2.945226 1_545
Zn1_1 Zn1_7 2.945226 1_455
Zn1_1 Zn2_7 3.062985 1_445
Zn1_2 Zn2_0 2.746430 1_555
Zn1_2 Zn2_6 2.746430 1_455
Zn1_2 Zn3_2 2.764923 1_555
Zn1_2 Zn1_4 2.945226 1_555
Zn1_2 Zn1_4 2.945226 1_465
Zn1_2 Zn2_4 3.062985 1_455
Zn1_3 Zn2_7 2.746430 1_455
Zn1_3 Zn2_1 2.746430 1_555
Zn1_3 Zn3_3 2.764923 1_555
Zn1_3 Zn1_5 2.945226 1_555
Zn1_3 Zn1_5 2.945226 1_465
Zn1_3 Zn2_5 3.062985 1_455
Zn1_4 Zn2_0 2.746430 1_555
Zn1_4 Zn2_6 2.746430 1_545
Zn1_4 Zn3_4 2.764923 1_555
Zn1_4 Zn2_2 3.062985 1_545
Zn1_5 Zn2_7 2.746430 1_545
Zn1_5 Zn2_1 2.746430 1_555
Zn1_5 Zn3_5 2.764923 1_555
Zn1_5 Zn2_3 3.062985 1_545
Zn1_6 Zn2_4 2.746430 1_555
Zn1_6 Zn2_2 2.746430 1_555
Zn1_6 Zn3_6 2.764923 1_555
Zn1_6 Zn2_0 3.062985 1_555
Zn1_7 Zn2_3 2.746430 1_555
Zn1_7 Zn2_5 2.746430 1_555
Zn1_7 Zn3_7 2.764923 1_555
Zn1_7 Zn2_1 3.062985 1_555
Zn2_0 Zn3_2 2.784850 1_555
Zn2_0 Zn3_4 2.784850 1_555
Zn2_0 Zn2_6 2.945226 1_455
Zn2_0 Zn2_6 2.945226 1_545
Zn2_1 Zn3_3 2.784850 1_555
Zn2_1 Zn3_5 2.784850 1_555
Zn2_1 Zn2_7 2.945226 1_455
Zn2_1 Zn2_7 2.945226 1_545
Zn2_2 Zn3_0 2.784850 1_565
Zn2_2 Zn3_6 2.784850 1_555
Zn2_2 Zn2_4 2.945226 1_465
Zn2_2 Zn2_4 2.945226 1_555
Zn2_3 Zn3_7 2.784850 1_555
Zn2_3 Zn3_1 2.784850 1_565
Zn2_3 Zn2_5 2.945226 1_555
Zn2_3 Zn2_5 2.945226 1_465
Zn2_4 Zn3_0 2.784850 1_655
Zn2_4 Zn3_6 2.784850 1_555
Zn2_5 Zn3_7 2.784850 1_555
Zn2_5 Zn3_1 2.784850 1_655
Zn2_6 Zn3_2 2.784850 1_655
Zn2_6 Zn3_4 2.784850 1_565
Zn2_7 Zn3_3 2.784850 1_655
Zn2_7 Zn3_5 2.784850 1_565
Zn3_0 Zn3_6 2.945226 1_455
Zn3_0 Zn3_6 2.945226 1_545
Zn3_1 Zn3_7 2.945226 1_545
Zn3_1 Zn3_7 2.945226 1_455
Zn3_2 Zn3_4 2.945226 1_555
Zn3_2 Zn3_4 2.945226 1_465
Zn3_3 Zn3_5 2.945226 1_555
Zn3_3 Zn3_5 2.945226 1_465
