# generated using pymatgen
data_Zn2Si5N8
_symmetry_space_group_name_H-M   'P 1'
_cell_length_a   10.71704922
_cell_length_b   9.83299968
_cell_length_c   13.48796478
_cell_angle_alpha   90.00000000
_cell_angle_beta   90.00000000
_cell_angle_gamma   90.00000000
_symmetry_Int_Tables_number   1
_chemical_formula_structural   Zn2Si5N8
_chemical_formula_sum   'Zn16 Si40 N64'
_cell_volume   1421.37173053
_cell_formula_units_Z   8
loop_
 _symmetry_equiv_pos_site_id
 _symmetry_equiv_pos_as_xyz
  1  'x, y, z'
loop_
 _atom_site_type_symbol
 _atom_site_label
 _atom_site_symmetry_multiplicity
 _atom_site_fract_x
 _atom_site_fract_y
 _atom_site_fract_z
 _atom_site_occupancy
  Zn  Zn0  1  0.07921277  0.13365218  0.01888658  1
  Zn  Zn1  1  0.57921277  0.36634782  0.98111342  1
  Zn  Zn2  1  0.92078723  0.63365218  0.48111342  1
  Zn  Zn3  1  0.42078723  0.86634782  0.51888658  1
  Zn  Zn4  1  0.92078723  0.86634782  0.98111342  1
  Zn  Zn5  1  0.42078723  0.63365218  0.01888658  1
  Zn  Zn6  1  0.07921277  0.36634782  0.51888658  1
  Zn  Zn7  1  0.57921277  0.13365218  0.48111342  1
  Zn  Zn8  1  0.34861974  0.09317265  0.04325839  1
  Zn  Zn9  1  0.84861974  0.40682735  0.95674161  1
  Zn  Zn10  1  0.65138026  0.59317265  0.45674161  1
  Zn  Zn11  1  0.15138026  0.90682735  0.54325839  1
  Zn  Zn12  1  0.65138026  0.90682735  0.95674161  1
  Zn  Zn13  1  0.15138026  0.59317265  0.04325839  1
  Zn  Zn14  1  0.34861974  0.40682735  0.54325839  1
  Zn  Zn15  1  0.84861974  0.09317265  0.45674161  1
  Si  Si0  1  0.39791543  0.23615902  0.83862437  1
  Si  Si1  1  0.89791543  0.26384098  0.16137563  1
  Si  Si2  1  0.60208457  0.73615902  0.66137563  1
  Si  Si3  1  0.10208457  0.76384098  0.33862437  1
  Si  Si4  1  0.60208457  0.76384098  0.16137563  1
  Si  Si5  1  0.10208457  0.73615902  0.83862437  1
  Si  Si6  1  0.39791543  0.26384098  0.33862437  1
  Si  Si7  1  0.89791543  0.23615902  0.66137563  1
  Si  Si8  1  0.16314143  0.23920269  0.72091882  1
  Si  Si9  1  0.66314143  0.26079731  0.27908118  1
  Si  Si10  1  0.83685857  0.73920269  0.77908118  1
  Si  Si11  1  0.33685857  0.76079731  0.22091882  1
  Si  Si12  1  0.83685857  0.76079731  0.27908118  1
  Si  Si13  1  0.33685857  0.73920269  0.72091882  1
  Si  Si14  1  0.16314143  0.26079731  0.22091882  1
  Si  Si15  1  0.66314143  0.23920269  0.77908118  1
  Si  Si16  1  0.25385672  0.97975140  0.83688448  1
  Si  Si17  1  0.75385672  0.52024860  0.16311552  1
  Si  Si18  1  0.74614328  0.47975140  0.66311552  1
  Si  Si19  1  0.24614328  0.02024860  0.33688448  1
  Si  Si20  1  0.74614328  0.02024860  0.16311552  1
  Si  Si21  1  0.24614328  0.47975140  0.83688448  1
  Si  Si22  1  0.25385672  0.52024860  0.33688448  1
  Si  Si23  1  0.75385672  0.97975140  0.66311552  1
  Si  Si24  1  0.98371855  0.00515520  0.78551938  1
  Si  Si25  1  0.48371855  0.49484480  0.21448062  1
  Si  Si26  1  0.01628145  0.50515520  0.71448062  1
  Si  Si27  1  0.51628145  0.99484480  0.28551938  1
  Si  Si28  1  0.01628145  0.99484480  0.21448062  1
  Si  Si29  1  0.51628145  0.50515520  0.78551938  1
  Si  Si30  1  0.98371855  0.49484480  0.28551938  1
  Si  Si31  1  0.48371855  0.00515520  0.71448062  1
  Si  Si32  1  0.82547533  0.14456545  0.96239640  1
  Si  Si33  1  0.32547533  0.35543455  0.03760360  1
  Si  Si34  1  0.17452467  0.64456545  0.53760360  1
  Si  Si35  1  0.67452467  0.85543455  0.46239640  1
  Si  Si36  1  0.17452467  0.85543455  0.03760360  1
  Si  Si37  1  0.67452467  0.64456545  0.96239640  1
  Si  Si38  1  0.82547533  0.35543455  0.46239640  1
  Si  Si39  1  0.32547533  0.14456545  0.53760360  1
  N  N0  1  0.92076936  0.25369949  0.03467042  1
  N  N1  1  0.42076936  0.24630051  0.96532958  1
  N  N2  1  0.07923064  0.75369949  0.46532958  1
  N  N3  1  0.57923064  0.74630051  0.53467042  1
  N  N4  1  0.07923064  0.74630051  0.96532958  1
  N  N5  1  0.57923064  0.75369949  0.03467042  1
  N  N6  1  0.92076936  0.24630051  0.53467042  1
  N  N7  1  0.42076936  0.25369949  0.46532958  1
  N  N8  1  0.93858161  0.04889763  0.90295098  1
  N  N9  1  0.43858161  0.45110237  0.09704902  1
  N  N10  1  0.06141839  0.54889763  0.59704902  1
  N  N11  1  0.56141839  0.95110237  0.40295098  1
  N  N12  1  0.06141839  0.95110237  0.09704902  1
  N  N13  1  0.56141839  0.54889763  0.90295098  1
  N  N14  1  0.93858161  0.45110237  0.40295098  1
  N  N15  1  0.43858161  0.04889763  0.59704902  1
  N  N16  1  0.72981924  0.26014174  0.89699192  1
  N  N17  1  0.22981924  0.23985826  0.10300808  1
  N  N18  1  0.27018076  0.76014174  0.60300808  1
  N  N19  1  0.77018076  0.73985826  0.39699192  1
  N  N20  1  0.27018076  0.73985826  0.10300808  1
  N  N21  1  0.77018076  0.76014174  0.89699192  1
  N  N22  1  0.72981924  0.23985826  0.39699192  1
  N  N23  1  0.22981924  0.26014174  0.60300808  1
  N  N24  1  0.26121999  0.96301225  0.96381890  1
  N  N25  1  0.76121999  0.53698775  0.03618110  1
  N  N26  1  0.73878001  0.46301225  0.53618110  1
  N  N27  1  0.23878001  0.03698775  0.46381890  1
  N  N28  1  0.73878001  0.03698775  0.03618110  1
  N  N29  1  0.23878001  0.46301225  0.96381890  1
  N  N30  1  0.26121999  0.53698775  0.46381890  1
  N  N31  1  0.76121999  0.96301225  0.53618110  1
  N  N32  1  0.02269886  0.14681091  0.71218192  1
  N  N33  1  0.52269886  0.35318909  0.28781808  1
  N  N34  1  0.97730114  0.64681091  0.78781808  1
  N  N35  1  0.47730114  0.85318909  0.21218192  1
  N  N36  1  0.97730114  0.85318909  0.28781808  1
  N  N37  1  0.47730114  0.64681091  0.71218192  1
  N  N38  1  0.02269886  0.35318909  0.21218192  1
  N  N39  1  0.52269886  0.14681091  0.78781808  1
  N  N40  1  0.37307901  0.89979763  0.77141217  1
  N  N41  1  0.87307901  0.60020237  0.22858783  1
  N  N42  1  0.62692099  0.39979763  0.72858783  1
  N  N43  1  0.12692099  0.10020237  0.27141217  1
  N  N44  1  0.62692099  0.10020237  0.22858783  1
  N  N45  1  0.12692099  0.39979763  0.77141217  1
  N  N46  1  0.37307901  0.60020237  0.27141217  1
  N  N47  1  0.87307901  0.89979763  0.72858783  1
  N  N48  1  0.26015376  0.15283694  0.80442136  1
  N  N49  1  0.76015376  0.34716306  0.19557864  1
  N  N50  1  0.73984624  0.65283694  0.69557864  1
  N  N51  1  0.23984624  0.84716306  0.30442136  1
  N  N52  1  0.73984624  0.84716306  0.19557864  1
  N  N53  1  0.23984624  0.65283694  0.80442136  1
  N  N54  1  0.26015376  0.34716306  0.30442136  1
  N  N55  1  0.76015376  0.15283694  0.69557864  1
  N  N56  1  0.11666261  0.90338235  0.79504796  1
  N  N57  1  0.61666261  0.59661765  0.20495204  1
  N  N58  1  0.88333739  0.40338235  0.70495204  1
  N  N59  1  0.38333739  0.09661765  0.29504796  1
  N  N60  1  0.88333739  0.09661765  0.20495204  1
  N  N61  1  0.38333739  0.40338235  0.79504796  1
  N  N62  1  0.11666261  0.59661765  0.29504796  1
  N  N63  1  0.61666261  0.90338235  0.70495204  1
loop_
_geom_bond_atom_site_label_1
_geom_bond_atom_site_label_2
_geom_bond_distance
_geom_bond_site_symmetry_2
N0 Si1 1.729335 1_555
N0 Si32 1.773376 1_554
N0 Zn9 1.992448 1_554
N0 Zn0 2.078963 1_655
N1 Si0 1.729335 1_555
N1 Si33 1.773376 1_556
N1 Zn8 1.992448 1_556
N1 Zn1 2.078963 1_555
N2 Si3 1.729335 1_555
N2 Si34 1.773376 1_555
N2 Zn11 1.992448 1_555
N2 Zn2 2.078963 1_455
N3 Si2 1.729335 1_555
N3 Si35 1.773376 1_555
N3 Zn10 1.992448 1_555
N3 Zn3 2.078963 1_555
N4 Si5 1.729335 1_555
N4 Si36 1.773376 1_556
N4 Zn13 1.992448 1_556
N4 Zn4 2.078963 1_455
N5 Si4 1.729335 1_555
N5 Si37 1.773376 1_554
N5 Zn12 1.992448 1_554
N5 Zn5 2.078963 1_555
N6 Si7 1.729335 1_555
N6 Si38 1.773376 1_555
N6 Zn15 1.992448 1_555
N6 Zn6 2.078963 1_655
N7 Si6 1.729335 1_555
N7 Si39 1.773376 1_555
N7 Zn14 1.992448 1_555
N7 Zn7 2.078963 1_555
N8 Si24 1.711077 1_555
N8 Si32 1.731226 1_555
N8 Zn4 2.090427 1_545
N8 Zn0 2.326223 1_656
N9 Si25 1.711077 1_555
N9 Si33 1.731226 1_555
N9 Zn5 2.090427 1_555
N9 Zn1 2.326223 1_554
N10 Si26 1.711077 1_555
N10 Si34 1.731226 1_555
N10 Zn6 2.090427 1_555
N10 Zn2 2.326223 1_455
N11 Si27 1.711077 1_555
N11 Si35 1.731226 1_555
N11 Zn7 2.090427 1_565
N11 Zn3 2.326223 1_555
N12 Si28 1.711077 1_555
N12 Si36 1.731226 1_555
N12 Zn0 2.090427 1_565
N12 Zn4 2.326223 1_454
N13 Si29 1.711077 1_555
N13 Si37 1.731226 1_555
N13 Zn1 2.090427 1_555
N13 Zn5 2.326223 1_556
N14 Si30 1.711077 1_555
N14 Si38 1.731226 1_555
N14 Zn2 2.090427 1_555
N14 Zn6 2.326223 1_655
N15 Si31 1.711077 1_555
N15 Si39 1.731226 1_555
N15 Zn3 2.090427 1_545
N15 Zn7 2.326223 1_555
N16 Si15 1.755655 1_555
N16 Si32 1.766553 1_555
N16 Zn9 2.085880 1_555
N16 Zn1 2.232302 1_555
N17 Si14 1.755655 1_555
N17 Si33 1.766553 1_555
N17 Zn8 2.085880 1_555
N17 Zn0 2.232302 1_555
N18 Si13 1.755655 1_555
N18 Si34 1.766553 1_555
N18 Zn11 2.085880 1_555
N18 Zn3 2.232302 1_555
N19 Si12 1.755655 1_555
N19 Si35 1.766553 1_555
N19 Zn10 2.085880 1_555
N19 Zn2 2.232302 1_555
N20 Si11 1.755655 1_555
N20 Si36 1.766553 1_555
N20 Zn13 2.085880 1_555
N20 Zn5 2.232302 1_555
N21 Si10 1.755655 1_555
N21 Si37 1.766553 1_555
N21 Zn12 2.085880 1_555
N21 Zn4 2.232302 1_555
N22 Si9 1.755655 1_555
N22 Si38 1.766553 1_555
N22 Zn15 2.085880 1_555
N22 Zn7 2.232302 1_555
N23 Si8 1.755655 1_555
N23 Si39 1.766553 1_555
N23 Zn14 2.085880 1_555
N23 Zn6 2.232302 1_555
N24 Si16 1.721790 1_555
N24 Si36 1.724140 1_556
N24 Zn8 1.914019 1_566
N25 Si17 1.721790 1_555
N25 Si37 1.724140 1_554
N25 Zn9 1.914019 1_554
N26 Si18 1.721790 1_555
N26 Si38 1.724140 1_555
N26 Zn10 1.914019 1_555
N27 Si19 1.721790 1_555
N27 Si39 1.724140 1_555
N27 Zn11 1.914019 1_545
N28 Si20 1.721790 1_555
N28 Si32 1.724140 1_554
N28 Zn12 1.914019 1_544
N29 Si21 1.721790 1_555
N29 Si33 1.724140 1_556
N29 Zn13 1.914019 1_556
N30 Si22 1.721790 1_555
N30 Si34 1.724140 1_555
N30 Zn14 1.914019 1_555
N31 Si23 1.721790 1_555
N31 Si35 1.724140 1_555
N31 Zn15 1.914019 1_565
N32 Si7 1.740651 1_455
N32 Si24 1.758736 1_455
N32 Si8 1.762003 1_555
N33 Si6 1.740651 1_555
N33 Si25 1.758736 1_555
N33 Si9 1.762003 1_555
N34 Si5 1.740651 1_655
N34 Si26 1.758736 1_655
N34 Si10 1.762003 1_555
N35 Si4 1.740651 1_555
N35 Si27 1.758736 1_555
N35 Si11 1.762003 1_555
N36 Si3 1.740651 1_655
N36 Si28 1.758736 1_655
N36 Si12 1.762003 1_555
N37 Si2 1.740651 1_555
N37 Si29 1.758736 1_555
N37 Si13 1.762003 1_555
N38 Si1 1.740651 1_455
N38 Si30 1.758736 1_455
N38 Si14 1.762003 1_555
N39 Si0 1.740651 1_555
N39 Si31 1.758736 1_555
N39 Si15 1.762003 1_555
N40 Si16 1.740827 1_555
N40 Si31 1.751818 1_565
N40 Si13 1.762999 1_555
N41 Si17 1.740827 1_555
N41 Si30 1.751818 1_555
N41 Si12 1.762999 1_555
N42 Si18 1.740827 1_555
N42 Si29 1.751818 1_555
N42 Si15 1.762999 1_555
N43 Si19 1.740827 1_555
N43 Si28 1.751818 1_545
N43 Si14 1.762999 1_555
N44 Si20 1.740827 1_555
N44 Si27 1.751818 1_545
N44 Si9 1.762999 1_555
N45 Si21 1.740827 1_555
N45 Si26 1.751818 1_555
N45 Si8 1.762999 1_555
N46 Si22 1.740827 1_555
N46 Si25 1.751818 1_555
N46 Si11 1.762999 1_555
N47 Si23 1.740827 1_555
N47 Si24 1.751818 1_565
N47 Si10 1.762999 1_555
N48 Si0 1.750383 1_555
N48 Si8 1.752327 1_555
N48 Si16 1.758667 1_545
N49 Si1 1.750383 1_555
N49 Si9 1.752327 1_555
N49 Si17 1.758667 1_555
N50 Si2 1.750383 1_555
N50 Si10 1.752327 1_555
N50 Si18 1.758667 1_555
N51 Si3 1.750383 1_555
N51 Si11 1.752327 1_555
N51 Si19 1.758667 1_565
N52 Si4 1.750383 1_555
N52 Si12 1.752327 1_555
N52 Si20 1.758667 1_565
N53 Si5 1.750383 1_555
N53 Si13 1.752327 1_555
N53 Si21 1.758667 1_555
N54 Si6 1.750383 1_555
N54 Si14 1.752327 1_555
N54 Si22 1.758667 1_555
N55 Si7 1.750383 1_555
N55 Si15 1.752327 1_555
N55 Si23 1.758667 1_545
N56 Si16 1.744752 1_555
N56 Si24 1.745837 1_465
N56 Si5 1.753172 1_555
N57 Si17 1.744752 1_555
N57 Si25 1.745837 1_555
N57 Si4 1.753172 1_555
N58 Si18 1.744752 1_555
N58 Si26 1.745837 1_655
N58 Si7 1.753172 1_555
N59 Si19 1.744752 1_555
N59 Si27 1.745837 1_545
N59 Si6 1.753172 1_555
N60 Si20 1.744752 1_555
N60 Si28 1.745837 1_645
N60 Si1 1.753172 1_555
N61 Si21 1.744752 1_555
N61 Si29 1.745837 1_555
N61 Si0 1.753172 1_555
N62 Si22 1.744752 1_555
N62 Si30 1.745837 1_455
N62 Si3 1.753172 1_555
N63 Si23 1.744752 1_555
N63 Si31 1.745837 1_565
N63 Si2 1.753172 1_555
