# generated using pymatgen
data_Sn2Au
_symmetry_space_group_name_H-M   'P 1'
_cell_length_a   6.95608227
_cell_length_b   7.06648085
_cell_length_c   12.03625791
_cell_angle_alpha   90.00000000
_cell_angle_beta   90.00000000
_cell_angle_gamma   90.00000000
_symmetry_Int_Tables_number   1
_chemical_formula_structural   Sn2Au
_chemical_formula_sum   'Sn16 Au8'
_cell_volume   591.64252419
_cell_formula_units_Z   8
loop_
 _symmetry_equiv_pos_site_id
 _symmetry_equiv_pos_as_xyz
  1  'x, y, z'
loop_
 _atom_site_type_symbol
 _atom_site_label
 _atom_site_symmetry_multiplicity
 _atom_site_fract_x
 _atom_site_fract_y
 _atom_site_fract_z
 _atom_site_occupancy
  Sn  Sn0  1  0.62887777  0.51899849  0.32617936  1
  Sn  Sn1  1  0.12887777  0.98100151  0.67382064  1
  Sn  Sn2  1  0.37112223  0.01899849  0.17382064  1
  Sn  Sn3  1  0.87112223  0.48100151  0.82617936  1
  Sn  Sn4  1  0.37112223  0.48100151  0.67382064  1
  Sn  Sn5  1  0.87112223  0.01899849  0.32617936  1
  Sn  Sn6  1  0.62887777  0.98100151  0.82617936  1
  Sn  Sn7  1  0.12887777  0.51899849  0.17382064  1
  Sn  Sn8  1  0.85570931  0.24298098  0.08765998  1
  Sn  Sn9  1  0.35570931  0.25701902  0.91234002  1
  Sn  Sn10  1  0.14429069  0.74298098  0.41234002  1
  Sn  Sn11  1  0.64429069  0.75701902  0.58765998  1
  Sn  Sn12  1  0.14429069  0.75701902  0.91234002  1
  Sn  Sn13  1  0.64429069  0.74298098  0.08765998  1
  Sn  Sn14  1  0.85570931  0.25701902  0.58765998  1
  Sn  Sn15  1  0.35570931  0.24298098  0.41234002  1
  Au  Au0  1  0.51023315  0.88297424  0.38122503  1
  Au  Au1  1  0.01023315  0.61702576  0.61877497  1
  Au  Au2  1  0.48976685  0.38297424  0.11877497  1
  Au  Au3  1  0.98976685  0.11702576  0.88122503  1
  Au  Au4  1  0.48976685  0.11702576  0.61877497  1
  Au  Au5  1  0.98976685  0.38297424  0.38122503  1
  Au  Au6  1  0.51023315  0.61702576  0.88122503  1
  Au  Au7  1  0.01023315  0.88297424  0.11877497  1
loop_
_geom_bond_atom_site_label_1
_geom_bond_atom_site_label_2
_geom_bond_distance
_geom_bond_site_symmetry_2
Sn0 Sn15 2.913848 1_555
Sn0 Sn13 3.280031 1_555
Sn1 Sn14 2.913848 1_465
Sn1 Sn12 3.280031 1_555
Sn4 Sn9 3.280031 1_555
Sn5 Sn8 3.280031 1_555
Sn6 Sn9 2.913848 1_565
Sn7 Sn8 2.913848 1_455
Sn10 Sn5 2.913848 1_465
Sn10 Sn7 3.280031 1_555
Sn11 Sn4 2.913848 1_555
Sn11 Sn6 3.280031 1_555
Sn12 Sn3 2.913848 1_455
Sn13 Sn2 2.913848 1_565
Sn14 Sn3 3.280031 1_555
Sn15 Sn2 3.280031 1_555
Au0 Sn10 2.756555 1_555
Au0 Sn5 2.768551 1_565
Au0 Sn0 2.781261 1_555
Au0 Sn15 2.787017 1_565
Au0 Sn11 2.799205 1_555
Au0 Sn2 2.844677 1_565
Au1 Sn11 2.756555 1_455
Au1 Sn4 2.768551 1_555
Au1 Sn1 2.781261 1_555
Au1 Sn14 2.787017 1_455
Au1 Sn10 2.799205 1_555
Au1 Sn3 2.844677 1_455
Au2 Sn8 2.756555 1_555
Au2 Sn7 2.768551 1_555
Au2 Sn2 2.781261 1_555
Au2 Sn13 2.787017 1_555
Au2 Sn9 2.799205 1_554
Au2 Sn0 2.844677 1_555
Au3 Sn9 2.756555 1_655
Au3 Sn6 2.768551 1_545
Au3 Sn3 2.781261 1_555
Au3 Sn12 2.787017 1_645
Au3 Sn8 2.799205 1_556
Au3 Sn1 2.844677 1_645
Au4 Sn14 2.756555 1_555
Au4 Sn1 2.768551 1_545
Au4 Sn4 2.781261 1_555
Au4 Sn11 2.787017 1_545
Au4 Sn15 2.799205 1_555
Au4 Sn6 2.844677 1_545
Au5 Sn15 2.756555 1_655
Au5 Sn0 2.768551 1_555
Au5 Sn5 2.781261 1_555
Au5 Sn10 2.787017 1_655
Au5 Sn14 2.799205 1_555
Au5 Sn7 2.844677 1_655
Au6 Sn12 2.756555 1_555
Au6 Sn3 2.768551 1_555
Au6 Sn6 2.781261 1_555
Au6 Sn9 2.787017 1_555
Au6 Sn13 2.799205 1_556
Au6 Sn4 2.844677 1_555
Au7 Sn13 2.756555 1_455
Au7 Sn2 2.768551 1_565
Au7 Sn7 2.781261 1_555
Au7 Sn8 2.787017 1_465
Au7 Sn12 2.799205 1_554
Au7 Sn5 2.844677 1_465
