# generated using pymatgen
data_LiZn(ClO)3
_symmetry_space_group_name_H-M   'P 1'
_cell_length_a   6.64706100
_cell_length_b   10.11919074
_cell_length_c   11.27881901
_cell_angle_alpha   95.58897180
_cell_angle_beta   92.69076393
_cell_angle_gamma   92.31920293
_symmetry_Int_Tables_number   1
_chemical_formula_structural   LiZn(ClO)3
_chemical_formula_sum   'Li4 Zn4 Cl12 O12'
_cell_volume   753.43250810
_cell_formula_units_Z   4
loop_
 _symmetry_equiv_pos_site_id
 _symmetry_equiv_pos_as_xyz
  1  'x, y, z'
loop_
 _atom_site_type_symbol
 _atom_site_label
 _atom_site_symmetry_multiplicity
 _atom_site_fract_x
 _atom_site_fract_y
 _atom_site_fract_z
 _atom_site_occupancy
  Li  Li0  1  0.09880700  0.28226200  0.39650400  1
  Li  Li1  1  0.57328800  0.39132400  0.39533400  1
  Li  Li2  1  0.85124100  0.71154100  0.64600500  1
  Li  Li3  1  0.37818900  0.72175900  0.56961300  1
  Zn  Zn0  1  0.35013500  0.26419700  0.65237600  1
  Zn  Zn1  1  0.87576000  0.21517000  0.84282500  1
  Zn  Zn2  1  0.69555200  0.74582100  0.34700700  1
  Zn  Zn3  1  0.18711400  0.75953600  0.15726200  1
  Cl  Cl0  1  0.21473200  0.27880700  0.83438500  1
  Cl  Cl1  1  0.70294700  0.26941600  0.66906700  1
  Cl  Cl2  1  0.84347700  0.80183900  0.18406300  1
  Cl  Cl3  1  0.34894300  0.71740900  0.35187500  1
  Cl  Cl4  1  0.20290900  0.11081800  0.51461700  1
  Cl  Cl5  1  0.74571500  0.33876300  0.99897700  1
  Cl  Cl6  1  0.82225300  0.57766100  0.44519900  1
  Cl  Cl7  1  0.35632300  0.94898600  0.12703000  1
  Cl  Cl8  1  0.72675000  0.91337000  0.51485600  1
  Cl  Cl9  1  0.23299900  0.57744100  0.04424900  1
  Cl  Cl10  1  0.31553100  0.45434400  0.54751000  1
  Cl  Cl11  1  0.82467600  0.99666200  0.86052300  1
  O  O0  1  0.34577700  0.26350800  0.17700700  1
  O  O1  1  0.81036800  0.28923000  0.32851100  1
  O  O2  1  0.62169800  0.67032200  0.87910000  1
  O  O3  1  0.14758300  0.75455100  0.67318300  1
  O  O4  1  0.22277500  0.16874700  0.13638400  1
  O  O5  1  0.84274000  0.19647700  0.14051100  1
  O  O6  1  0.67938500  0.61928100  0.78375200  1
  O  O7  1  0.20707000  0.81734400  0.78366900  1
  O  O8  1  0.62906600  0.81640100  0.61049500  1
  O  O9  1  0.07158600  0.82154300  0.85926100  1
  O  O10  1  0.33436500  0.30614500  0.29563600  1
  O  O11  1  0.74024700  0.19932600  0.23321800  1
loop_
_geom_bond_atom_site_label_1
_geom_bond_atom_site_label_2
_geom_bond_distance
_geom_bond_site_symmetry_2
Li0 O10 1.998628 1_555
Li0 O1 2.037752 1_455
Li1 O10 2.015519 1_555
Li1 O1 2.051922 1_555
Li2 O8 1.902992 1_555
Li2 O3 2.002860 1_655
Li2 O6 2.225562 1_555
Li3 O8 1.903473 1_555
Li3 O3 1.989497 1_555
Cl0 Zn0 2.274032 1_555
Cl0 Zn1 2.327048 1_455
Cl1 Zn0 2.341924 1_555
Cl1 Zn1 2.347508 1_555
Cl2 Zn2 2.234543 1_555
Cl2 Zn3 2.368722 1_655
Cl3 Zn2 2.314112 1_555
Cl3 Li3 2.450356 1_555
Cl3 Zn3 2.480838 1_555
Cl4 Zn0 2.246190 1_555
Cl4 Li0 2.392506 1_555
Cl5 Zn1 2.283556 1_555
Cl5 O5 2.337411 1_556
Cl6 Zn2 2.286241 1_555
Cl6 Li1 2.462493 1_555
Cl6 Li2 2.518393 1_555
Cl7 Zn3 2.246183 1_555
Cl7 O4 2.422253 1_565
Cl8 O8 1.663852 1_555
Cl8 Zn2 2.410611 1_555
Cl9 Zn3 2.176610 1_555
Cl10 Zn0 2.368057 1_555
Cl10 Li1 2.537599 1_555
Cl10 Li0 2.645224 1_555
Cl10 Li3 2.706624 1_555
Cl11 Zn1 2.252950 1_565
O0 O4 1.270314 1_555
O0 O10 1.371813 1_555
O1 O11 1.388622 1_555
O2 O6 1.231611 1_555
O3 O7 1.375560 1_555
O7 O9 1.268019 1_555
O11 O5 1.273147 1_555
