# generated using pymatgen
data_MgCrBiO5
_symmetry_space_group_name_H-M   'P 1'
_cell_length_a   5.27636100
_cell_length_b   10.68100000
_cell_length_c   15.34938800
_cell_angle_alpha   90.00000000
_cell_angle_beta   90.00000000
_cell_angle_gamma   90.00000000
_symmetry_Int_Tables_number   1
_chemical_formula_structural   MgCrBiO5
_chemical_formula_sum   'Mg8 Cr8 Bi8 O40'
_cell_volume   865.04257139
_cell_formula_units_Z   8
loop_
 _symmetry_equiv_pos_site_id
 _symmetry_equiv_pos_as_xyz
  1  'x, y, z'
loop_
 _atom_site_type_symbol
 _atom_site_label
 _atom_site_symmetry_multiplicity
 _atom_site_fract_x
 _atom_site_fract_y
 _atom_site_fract_z
 _atom_site_occupancy
  Mg  Mg0  1  0.50301300  0.35957800  0.45057100  1
  Mg  Mg1  1  0.00301300  0.14042200  0.45057100  1
  Mg  Mg2  1  0.00301300  0.64042200  0.04943000  1
  Mg  Mg3  1  0.99698700  0.35957800  0.95057000  1
  Mg  Mg4  1  0.49698700  0.14042200  0.95057000  1
  Mg  Mg5  1  0.99698700  0.85957800  0.54943000  1
  Mg  Mg6  1  0.49698700  0.64042200  0.54943000  1
  Mg  Mg7  1  0.50301300  0.85957800  0.04943000  1
  Cr  Cr0  1  0.97943700  0.39948700  0.59034700  1
  Cr  Cr1  1  0.52056300  0.89948700  0.40965300  1
  Cr  Cr2  1  0.02056300  0.60051300  0.40965300  1
  Cr  Cr3  1  0.47943700  0.10051300  0.59034700  1
  Cr  Cr4  1  0.02056300  0.10051300  0.09034700  1
  Cr  Cr5  1  0.97943700  0.89948700  0.90965300  1
  Cr  Cr6  1  0.52056300  0.39948700  0.09034700  1
  Cr  Cr7  1  0.47943700  0.60051300  0.90965300  1
  Bi  Bi0  1  0.97118700  0.85376700  0.22810100  1
  Bi  Bi1  1  0.02881300  0.14623300  0.77189900  1
  Bi  Bi2  1  0.52881300  0.35376700  0.77189900  1
  Bi  Bi3  1  0.02881300  0.64623300  0.72810100  1
  Bi  Bi4  1  0.47118700  0.14623300  0.27189900  1
  Bi  Bi5  1  0.47118700  0.64623300  0.22810100  1
  Bi  Bi6  1  0.52881300  0.85376700  0.72810100  1
  Bi  Bi7  1  0.97118700  0.35376700  0.27189900  1
  O  O0  1  0.93440500  0.33268400  0.69495300  1
  O  O1  1  0.30762600  0.03996100  0.05798300  1
  O  O2  1  0.19237400  0.53996100  0.94201700  1
  O  O3  1  0.27516300  0.77735300  0.14544300  1
  O  O4  1  0.22483700  0.27735300  0.85455700  1
  O  O5  1  0.93440500  0.83268400  0.80504700  1
  O  O6  1  0.22483700  0.77735300  0.64544300  1
  O  O7  1  0.56559500  0.83268400  0.30504700  1
  O  O8  1  0.30762600  0.53996100  0.44201700  1
  O  O9  1  0.06559500  0.66731600  0.30504700  1
  O  O10  1  0.56559500  0.33268400  0.19495300  1
  O  O11  1  0.64311100  0.19856400  0.52430600  1
  O  O12  1  0.80762600  0.96003900  0.44201700  1
  O  O13  1  0.72483700  0.72264700  0.64544300  1
  O  O14  1  0.18087400  0.02596300  0.88356800  1
  O  O15  1  0.80762600  0.46003900  0.05798300  1
  O  O16  1  0.06559500  0.16731600  0.19495300  1
  O  O17  1  0.77516300  0.22264700  0.35455700  1
  O  O18  1  0.14311100  0.80143600  0.97569400  1
  O  O19  1  0.19237400  0.03996100  0.55798300  1
  O  O20  1  0.35688900  0.80143600  0.47569400  1
  O  O21  1  0.81912600  0.97403700  0.11643200  1
  O  O22  1  0.72483700  0.22264700  0.85455700  1
  O  O23  1  0.68087400  0.97403700  0.61643200  1
  O  O24  1  0.35688900  0.30143600  0.02430600  1
  O  O25  1  0.14311100  0.30143600  0.52430600  1
  O  O26  1  0.69237400  0.46003900  0.55798300  1
  O  O27  1  0.69237400  0.96003900  0.94201700  1
  O  O28  1  0.68087400  0.47403700  0.88356800  1
  O  O29  1  0.85688900  0.69856400  0.47569400  1
  O  O30  1  0.85688900  0.19856400  0.02430600  1
  O  O31  1  0.64311100  0.69856400  0.97569400  1
  O  O32  1  0.81912600  0.47403700  0.38356800  1
  O  O33  1  0.77516300  0.72264700  0.14544300  1
  O  O34  1  0.27516300  0.27735300  0.35455700  1
  O  O35  1  0.18087400  0.52596300  0.61643200  1
  O  O36  1  0.31912600  0.52596300  0.11643200  1
  O  O37  1  0.43440500  0.16731600  0.69495300  1
  O  O38  1  0.31912600  0.02596300  0.38356800  1
  O  O39  1  0.43440500  0.66731600  0.80504700  1
loop_
_geom_bond_atom_site_label_1
_geom_bond_atom_site_label_2
_geom_bond_distance
_geom_bond_site_symmetry_2
Mg0 O34 2.094899 1_555
Mg0 O11 2.187476 1_555
Mg0 O8 2.189091 1_555
Mg0 O26 2.206331 1_555
Mg0 O25 2.296236 1_555
Mg0 O32 2.309609 1_555
Mg0 O17 2.524485 1_555
Mg1 O17 2.094899 1_455
Mg1 O25 2.187476 1_555
Mg1 O12 2.189091 1_445
Mg1 O19 2.206331 1_555
Mg1 O11 2.296236 1_455
Mg1 O38 2.309609 1_555
Mg1 O34 2.524485 1_555
Mg2 O33 2.094888 1_455
Mg2 O18 2.187484 1_554
Mg2 O15 2.189091 1_455
Mg2 O2 2.206342 1_554
Mg2 O31 2.296243 1_454
Mg2 O36 2.309602 1_555
Mg2 O3 2.524476 1_555
Mg3 O4 2.094888 1_655
Mg3 O30 2.187484 1_556
Mg3 O2 2.189091 1_655
Mg3 O15 2.206342 1_556
Mg3 O24 2.296243 1_656
Mg3 O28 2.309602 1_555
Mg3 O22 2.524476 1_555
Mg4 O22 2.094888 1_555
Mg4 O24 2.187484 1_556
Mg4 O27 2.189091 1_545
Mg4 O1 2.206342 1_556
Mg4 O30 2.296243 1_556
Mg4 O14 2.309602 1_555
Mg4 O4 2.524476 1_555
Mg5 O6 2.094888 1_655
Mg5 O29 2.187484 1_555
Mg5 O19 2.189091 1_665
Mg5 O12 2.206342 1_555
Mg5 O20 2.296243 1_655
Mg5 O23 2.309602 1_555
Mg5 O13 2.524476 1_555
Mg6 O13 2.094888 1_555
Mg6 O20 2.187484 1_555
Mg6 O26 2.189091 1_555
Mg6 O8 2.206342 1_555
Mg6 O29 2.296243 1_555
Mg6 O35 2.309602 1_555
Mg6 O6 2.524476 1_555
Mg7 O3 2.094888 1_555
Mg7 O31 2.187484 1_554
Mg7 O1 2.189091 1_565
Mg7 O27 2.206342 1_554
Mg7 O18 2.296243 1_554
Mg7 O21 2.309602 1_555
Mg7 O33 2.524476 1_555
Cr0 O25 1.694160 1_655
Cr0 O26 1.720241 1_555
Cr0 O35 1.764901 1_655
Cr0 O0 1.773033 1_555
Cr1 O20 1.694160 1_555
Cr1 O12 1.720241 1_555
Cr1 O38 1.764901 1_565
Cr1 O7 1.773033 1_555
Cr2 O29 1.694160 1_455
Cr2 O8 1.720241 1_555
Cr2 O32 1.764901 1_455
Cr2 O9 1.773033 1_555
Cr3 O11 1.694160 1_555
Cr3 O19 1.720241 1_555
Cr3 O23 1.764901 1_545
Cr3 O37 1.773033 1_555
Cr4 O30 1.694160 1_455
Cr4 O1 1.720241 1_555
Cr4 O21 1.764901 1_445
Cr4 O16 1.773033 1_555
Cr5 O18 1.694160 1_655
Cr5 O27 1.720241 1_555
Cr5 O14 1.764901 1_665
Cr5 O5 1.773033 1_555
Cr6 O24 1.694160 1_555
Cr6 O15 1.720241 1_555
Cr6 O36 1.764901 1_555
Cr6 O10 1.773033 1_555
Cr7 O31 1.694160 1_555
Cr7 O2 1.720241 1_555
Cr7 O28 1.764901 1_555
Cr7 O39 1.773033 1_555
Bi0 O33 2.154268 1_555
Bi0 O3 2.201891 1_655
Bi0 O21 2.287337 1_555
Bi0 O9 2.368349 1_655
Bi0 O7 2.454681 1_555
Bi1 O4 2.154268 1_555
Bi1 O22 2.201891 1_455
Bi1 O14 2.287337 1_555
Bi1 O0 2.368349 1_455
Bi1 O37 2.454681 1_555
Bi2 O22 2.154268 1_555
Bi2 O4 2.201891 1_555
Bi2 O28 2.287337 1_555
Bi2 O37 2.368349 1_555
Bi2 O0 2.454681 1_555
Bi3 O6 2.154268 1_555
Bi3 O13 2.201891 1_455
Bi3 O35 2.287337 1_555
Bi3 O5 2.368349 1_455
Bi3 O39 2.454681 1_555
Bi4 O34 2.154268 1_555
Bi4 O17 2.201891 1_555
Bi4 O38 2.287337 1_555
Bi4 O10 2.368349 1_555
Bi4 O16 2.454681 1_555
Bi5 O3 2.154268 1_555
Bi5 O33 2.201891 1_555
Bi5 O36 2.287337 1_555
Bi5 O7 2.368349 1_555
Bi5 O9 2.454681 1_555
Bi6 O13 2.154268 1_555
Bi6 O6 2.201891 1_555
Bi6 O23 2.287337 1_555
Bi6 O39 2.368349 1_555
Bi6 O5 2.454681 1_555
Bi7 O17 2.154268 1_555
Bi7 O34 2.201891 1_655
Bi7 O32 2.287337 1_555
Bi7 O16 2.368349 1_655
Bi7 O10 2.454681 1_555
