# generated using pymatgen
data_Si6C8N2O19
_symmetry_space_group_name_H-M   'P 1'
_cell_length_a   14.90497001
_cell_length_b   14.90497001
_cell_length_c   14.90497001
_cell_angle_alpha   145.68742081
_cell_angle_beta   144.24728593
_cell_angle_gamma   50.39279639
_symmetry_Int_Tables_number   1
_chemical_formula_structural   Si6C8N2O19
_chemical_formula_sum   'Si12 C16 N4 O38'
_cell_volume   1085.20164733
_cell_formula_units_Z   2
loop_
 _symmetry_equiv_pos_site_id
 _symmetry_equiv_pos_as_xyz
  1  'x, y, z'
loop_
 _atom_site_type_symbol
 _atom_site_label
 _atom_site_symmetry_multiplicity
 _atom_site_fract_x
 _atom_site_fract_y
 _atom_site_fract_z
 _atom_site_occupancy
  Si  Si0  1  0.71752100  0.71752100  0.00000000  1
  Si  Si1  1  0.71752100  0.21752100  0.50000000  1
  Si  Si2  1  0.02084700  0.89678600  0.31290300  1
  Si  Si3  1  0.58388300  0.70794400  0.68709700  1
  Si  Si4  1  0.02084700  0.20794400  0.62406000  1
  Si  Si5  1  0.58388300  0.39678600  0.37594000  1
  Si  Si6  1  0.38236400  0.74720900  0.79727500  1
  Si  Si7  1  0.94993400  0.58508900  0.20272500  1
  Si  Si8  1  0.38236400  0.08508900  0.13515500  1
  Si  Si9  1  0.94993400  0.24720900  0.86484500  1
  Si  Si10  1  0.24953700  0.74953700  0.50000000  1
  Si  Si11  1  0.24953700  0.24953700  0.00000000  1
  C  C0  1  0.38050100  0.38385600  0.66682700  1
  C  C1  1  0.71702800  0.71367300  0.33317300  1
  C  C2  1  0.38050100  0.21367300  0.49664500  1
  C  C3  1  0.71702800  0.88385600  0.50335500  1
  C  C4  1  0.44749800  0.26841700  0.67908200  1
  C  C5  1  0.58933500  0.76841700  0.32091800  1
  C  C6  1  0.35928000  0.38066400  0.47861600  1
  C  C7  1  0.90204800  0.88066400  0.52138400  1
  C  C8  1  0.96504900  0.57768300  0.88736600  1
  C  C9  1  0.69031700  0.07768300  0.11263400  1
  C  C10  1  0.12516000  0.76861600  0.13176900  1
  C  C11  1  0.63684700  0.99339100  0.86823100  1
  C  C12  1  0.12516000  0.49339100  0.85654300  1
  C  C13  1  0.63684700  0.26861600  0.14345700  1
  C  C14  1  0.03627600  0.63349700  0.90277900  1
  C  C15  1  0.73071900  0.13349700  0.09722100  1
  N  N0  1  0.30644800  0.32759800  0.47885000  1
  N  N1  1  0.84874800  0.82759800  0.52115000  1
  N  N2  1  0.14327800  0.59818100  0.04509700  1
  N  N3  1  0.55308300  0.09818100  0.95490300  1
  O  O0  1  0.56933500  0.76820800  0.97898900  1
  O  O1  1  0.78922000  0.59034600  0.02101100  1
  O  O2  1  0.56933500  0.09034600  0.30112700  1
  O  O3  1  0.78922000  0.26820800  0.69887300  1
  O  O4  1  0.86635600  0.84379500  0.20293100  1
  O  O5  1  0.64086500  0.66342500  0.79706900  1
  O  O6  1  0.86635600  0.16342500  0.52256100  1
  O  O7  1  0.64086500  0.34379500  0.47743900  1
  O  O8  1  0.02431500  0.08199100  0.44232500  1
  O  O9  1  0.63966600  0.58199100  0.55767500  1
  O  O10  1  0.17543900  0.87609900  0.47947900  1
  O  O11  1  0.39662000  0.69596000  0.52052100  1
  O  O12  1  0.17543900  0.19596000  0.79934100  1
  O  O13  1  0.39662000  0.37609900  0.20065900  1
  O  O14  1  0.00852900  0.81297100  0.13530200  1
  O  O15  1  0.67766900  0.87322700  0.86469800  1
  O  O16  1  0.00852900  0.37322700  0.69555800  1
  O  O17  1  0.67766900  0.31297100  0.30444200  1
  O  O18  1  0.32635700  0.88678400  0.93957300  1
  O  O19  1  0.94721200  0.38678400  0.06042700  1
  O  O20  1  0.32836400  0.53803800  0.56749400  1
  O  O21  1  0.97054400  0.76087000  0.43250600  1
  O  O22  1  0.32836400  0.26087000  0.29032600  1
  O  O23  1  0.97054400  0.03803800  0.70967400  1
  O  O24  1  0.32089900  0.81057800  0.70476700  1
  O  O25  1  0.10581000  0.61613100  0.29523300  1
  O  O26  1  0.32089900  0.11613100  0.01032100  1
  O  O27  1  0.10581000  0.31057800  0.98967900  1
  O  O28  1  0.86123500  0.53658100  0.49247600  1
  O  O29  1  0.04410500  0.36876000  0.50752400  1
  O  O30  1  0.86123500  0.86876000  0.82465500  1
  O  O31  1  0.04410500  0.03658100  0.17534500  1
  O  O32  1  0.97776300  0.47776300  0.50000000  1
  O  O33  1  0.97776300  0.97776300  0.00000000  1
  O  O34  1  0.24470800  0.70470700  0.89990400  1
  O  O35  1  0.80480300  0.34480400  0.10009600  1
  O  O36  1  0.24470800  0.84480400  0.04000100  1
  O  O37  1  0.80480300  0.20470700  0.95999900  1
loop_
_geom_bond_atom_site_label_1
_geom_bond_atom_site_label_2
_geom_bond_distance
_geom_bond_site_symmetry_2
C0 C4 1.422474 1_555
C0 N0 1.432157 1_555
C1 C5 1.422456 1_555
C1 N1 1.432172 1_555
C2 C4 1.422470 1_555
C2 N0 1.432170 1_555
C3 C5 1.422463 1_555
C3 N1 1.432170 1_555
C6 O20 1.395986 1_555
C6 O22 1.395986 1_555
C6 N0 1.431385 1_555
C7 O21 1.395986 1_555
C7 O23 1.395986 1_565
C7 N1 1.431385 1_555
C8 N2 1.545608 1_656
C8 O16 1.994218 1_655
C8 O14 1.994218 1_656
C9 N3 1.545608 1_554
C9 O17 1.994218 1_555
C9 O15 1.994218 1_544
C10 O14 1.444827 1_555
C10 C14 1.472396 1_554
C10 N2 1.570153 1_555
C11 O15 1.444827 1_555
C11 C15 1.472396 1_566
C11 N3 1.570166 1_565
C12 O16 1.444832 1_555
C12 C14 1.472397 1_555
C12 N2 1.570166 1_556
C13 O17 1.444813 1_555
C13 C15 1.472405 1_555
C13 N3 1.570156 1_554
C14 C8 1.512099 1_455
C14 N2 1.613509 1_556
C15 C9 1.512112 1_555
C15 N3 1.613533 1_554
O0 Si6 1.631169 1_555
O0 Si0 1.639445 1_556
O1 Si7 1.631168 1_555
O1 Si0 1.639441 1_555
O2 Si8 1.631169 1_555
O2 Si1 1.639445 1_555
O3 Si9 1.631167 1_555
O3 Si1 1.639437 1_555
O4 Si0 1.625079 1_555
O4 Si2 1.633101 1_655
O5 Si0 1.625087 1_556
O5 Si3 1.633093 1_555
O6 Si1 1.625079 1_555
O6 Si4 1.633109 1_655
O7 Si1 1.625082 1_555
O7 Si5 1.633079 1_555
O8 Si4 1.602308 1_555
O8 Si2 1.602326 1_545
O9 Si3 1.602329 1_555
O9 Si5 1.602331 1_555
O10 Si10 1.618725 1_555
O10 Si2 1.625417 1_555
O11 Si10 1.618725 1_555
O11 Si3 1.625417 1_555
O12 Si11 1.618712 1_556
O12 Si4 1.625433 1_555
O13 Si11 1.618729 1_555
O13 Si5 1.625418 1_555
O14 Si2 1.625536 1_555
O15 Si3 1.625536 1_555
O16 Si4 1.625528 1_555
O17 Si5 1.625546 1_555
O18 Si8 1.701076 1_566
O18 Si6 1.701076 1_555
O19 Si9 1.701067 1_554
O19 Si7 1.701075 1_555
O20 Si6 1.784344 1_555
O21 Si7 1.784344 1_555
O22 Si8 1.784344 1_555
O23 Si9 1.784344 1_555
O24 Si6 1.621843 1_555
O24 Si10 1.628436 1_555
O25 Si7 1.621821 1_455
O25 Si10 1.628453 1_555
O26 Si8 1.621830 1_555
O26 Si11 1.628450 1_555
O27 Si9 1.621830 1_455
O27 Si11 1.628450 1_556
O28 O32 1.304835 1_555
O29 O32 1.304823 1_455
O30 O33 1.304830 1_556
O31 O33 1.304823 1_445
O34 O36 1.231917 1_556
O35 O37 1.231917 1_554
