# generated using pymatgen
data_SrLaFeO4
_symmetry_space_group_name_H-M   'P 1'
_cell_length_a   6.91573637
_cell_length_b   6.91573637
_cell_length_c   5.57126000
_cell_angle_alpha   90.00000000
_cell_angle_beta   90.00000000
_cell_angle_gamma   132.56595692
_symmetry_Int_Tables_number   1
_chemical_formula_structural   SrLaFeO4
_chemical_formula_sum   'Sr2 La2 Fe2 O8'
_cell_volume   196.24677334
_cell_formula_units_Z   2
loop_
 _symmetry_equiv_pos_site_id
 _symmetry_equiv_pos_as_xyz
  1  'x, y, z'
loop_
 _atom_site_type_symbol
 _atom_site_label
 _atom_site_symmetry_multiplicity
 _atom_site_fract_x
 _atom_site_fract_y
 _atom_site_fract_z
 _atom_site_occupancy
  Sr  Sr0  1  0.60589000  0.39411000  0.25000000  1
  Sr  Sr1  1  0.39411000  0.60589000  0.75000000  1
  La  La0  1  0.11036700  0.88963300  0.75000000  1
  La  La1  1  0.88963300  0.11036700  0.25000000  1
  Fe  Fe0  1  0.25512900  0.74487100  0.25000000  1
  Fe  Fe1  1  0.74487100  0.25512900  0.75000000  1
  O  O0  1  0.92790000  0.07210000  0.75000000  1
  O  O1  1  0.41457400  0.58542600  0.25000000  1
  O  O2  1  0.07210000  0.92790000  0.25000000  1
  O  O3  1  0.58542600  0.41457400  0.75000000  1
  O  O4  1  0.00000000  0.50000000  0.50000000  1
  O  O5  1  0.50000000  0.00000000  0.00000000  1
  O  O6  1  0.00000000  0.50000000  0.00000000  1
  O  O7  1  0.50000000  0.00000000  0.50000000  1
loop_
_geom_bond_atom_site_label_1
_geom_bond_atom_site_label_2
_geom_bond_distance
_geom_bond_site_symmetry_2
La0 O0 2.310636 1_465
La0 O5 2.645923 1_566
La0 O6 2.645923 1_556
La0 O4 2.645923 1_555
La0 O7 2.645923 1_565
La0 O3 2.799519 1_455
La0 O3 2.799519 1_565
La0 O2 2.827465 1_555
La0 O2 2.827465 1_556
La1 O2 2.310636 1_645
La1 O4 2.645923 1_655
La1 O6 2.645923 1_655
La1 O7 2.645923 1_555
La1 O5 2.645923 1_555
La1 O1 2.799519 1_655
La1 O1 2.799519 1_545
La1 O0 2.827465 1_555
La1 O0 2.827465 1_554
Fe0 O4 1.969401 1_555
Fe0 O6 1.969401 1_555
Fe0 O7 1.969401 1_565
Fe0 O5 1.969401 1_565
Fe0 O1 2.019101 1_555
Fe0 O2 2.317753 1_555
Fe1 O7 1.969401 1_555
Fe1 O5 1.969401 1_556
Fe1 O4 1.969401 1_655
Fe1 O6 1.969401 1_656
Fe1 O3 2.019101 1_555
Fe1 O0 2.317753 1_555
O0 Sr1 2.814364 1_655
O0 Sr1 2.814364 1_545
O1 Sr0 2.422694 1_555
O1 Sr1 2.797658 1_554
O1 Sr1 2.797658 1_555
O2 Sr0 2.814364 1_455
O2 Sr0 2.814364 1_565
O3 Sr1 2.422694 1_555
O3 Sr0 2.797658 1_555
O3 Sr0 2.797658 1_556
O4 Sr0 2.684142 1_455
O4 Sr1 2.684142 1_555
O5 Sr1 2.684142 1_544
O5 Sr0 2.684142 1_555
O6 Sr0 2.684142 1_455
O6 Sr1 2.684142 1_554
O7 Sr1 2.684142 1_545
O7 Sr0 2.684142 1_555
