# generated using pymatgen
data_Rb2LiNb2(TeO6)2
_symmetry_space_group_name_H-M   'P 1'
_cell_length_a   7.53281384
_cell_length_b   7.55231549
_cell_length_c   7.41890354
_cell_angle_alpha   90.00000000
_cell_angle_beta   60.49897962
_cell_angle_gamma   121.20264268
_symmetry_Int_Tables_number   1
_chemical_formula_structural   Rb2LiNb2(TeO6)2
_chemical_formula_sum   'Rb2 Li1 Nb2 Te2 O12'
_cell_volume   295.17580730
_cell_formula_units_Z   1
loop_
 _symmetry_equiv_pos_site_id
 _symmetry_equiv_pos_as_xyz
  1  'x, y, z'
loop_
 _atom_site_type_symbol
 _atom_site_label
 _atom_site_symmetry_multiplicity
 _atom_site_fract_x
 _atom_site_fract_y
 _atom_site_fract_z
 _atom_site_occupancy
  Rb  Rb0  1  0.83583200  0.33369500  0.33208400  1
  Rb  Rb1  1  0.16416800  0.66630500  0.66791600  1
  Li  Li0  1  0.50000000  0.50000000  0.50000000  1
  Nb  Nb0  1  0.50000000  0.50000000  0.00000000  1
  Nb  Nb1  1  0.50000000  0.00000000  0.00000000  1
  Te  Te0  1  0.00000000  0.00000000  0.50000000  1
  Te  Te1  1  0.00000000  0.00000000  0.00000000  1
  O  O0  1  0.85104900  0.92608400  0.32447600  1
  O  O1  1  0.62230900  0.31414500  0.93884600  1
  O  O2  1  0.24780500  0.93737200  0.93220900  1
  O  O3  1  0.25310700  0.31993700  0.32627600  1
  O  O4  1  0.25310700  0.31993700  0.92061800  1
  O  O5  1  0.24780500  0.93737200  0.31998600  1
  O  O6  1  0.14895100  0.07391600  0.67552400  1
  O  O7  1  0.37769100  0.68585500  0.06115400  1
  O  O8  1  0.75219500  0.06262800  0.06779100  1
  O  O9  1  0.74689300  0.68006300  0.67372400  1
  O  O10  1  0.74689300  0.68006300  0.07938200  1
  O  O11  1  0.75219500  0.06262800  0.68001400  1
loop_
_geom_bond_atom_site_label_1
_geom_bond_atom_site_label_2
_geom_bond_distance
_geom_bond_site_symmetry_2
Li0 O9 2.590270 1_555
Li0 O3 2.590270 1_555
Li0 O10 2.590277 1_555
Li0 O4 2.590277 1_555
Li0 O6 2.614417 1_555
Li0 O0 2.614417 1_555
Li0 Rb0 3.117282 1_555
Li0 Rb1 3.117282 1_555
Nb0 O7 1.988251 1_555
Nb0 O1 1.988251 1_554
Nb0 O4 2.028104 1_554
Nb0 O10 2.028104 1_555
Nb0 O3 2.028110 1_555
Nb0 O9 2.028110 1_554
Nb1 O1 2.001751 1_554
Nb1 O7 2.001751 1_545
Nb1 O8 2.023769 1_555
Nb1 O11 2.023769 1_554
Nb1 O5 2.023769 1_545
Nb1 O2 2.023769 1_544
O0 Te0 2.014021 1_665
O0 Te1 2.014028 1_665
O0 Rb0 3.138815 1_565
O1 Rb1 2.906176 1_655
O2 Te1 1.987790 1_566
O2 Rb1 2.883185 1_555
O3 Te0 1.985225 1_555
O3 Rb0 3.177690 1_455
O4 Te1 1.985226 1_556
O4 Rb0 3.177686 1_456
O5 Te0 1.987790 1_565
O5 Rb1 2.883185 1_555
O6 Te0 2.014021 1_555
O6 Te1 2.014028 1_556
O6 Rb1 3.138815 1_545
O7 Rb0 2.906176 1_455
O8 Te1 1.987790 1_655
O8 Rb0 2.883185 1_555
O9 Te0 1.985225 1_665
O9 Rb1 3.177690 1_655
O10 Te1 1.985226 1_665
O10 Rb1 3.177686 1_654
O11 Te0 1.987790 1_655
O11 Rb0 2.883185 1_555
