# generated using pymatgen
data_Dy3(Co2Sn)4
_symmetry_space_group_name_H-M   'P 1'
_cell_length_a   7.36465654
_cell_length_b   8.94430406
_cell_length_c   8.94464683
_cell_angle_alpha   119.98679995
_cell_angle_beta   90.26235589
_cell_angle_gamma   89.72902472
_symmetry_Int_Tables_number   1
_chemical_formula_structural   Dy3(Co2Sn)4
_chemical_formula_sum   'Dy6 Co16 Sn8'
_cell_volume   510.32207514
_cell_formula_units_Z   2
loop_
 _symmetry_equiv_pos_site_id
 _symmetry_equiv_pos_as_xyz
  1  'x, y, z'
loop_
 _atom_site_type_symbol
 _atom_site_label
 _atom_site_symmetry_multiplicity
 _atom_site_fract_x
 _atom_site_fract_y
 _atom_site_fract_z
 _atom_site_occupancy
  Dy  Dy0  1  0.78622078  0.47151807  0.94198839  1
  Dy  Dy1  1  0.78518585  0.47191600  0.52811390  1
  Dy  Dy2  1  0.28524669  0.52911369  0.05702527  1
  Dy  Dy3  1  0.78629172  0.05806543  0.52852431  1
  Dy  Dy4  1  0.28698601  0.52931427  0.47072445  1
  Dy  Dy5  1  0.28521901  0.94303996  0.47093881  1
  Co  Co0  1  0.56423866  0.66596579  0.33400526  1
  Co  Co1  1  0.06389183  0.33282748  0.66707092  1
  Co  Co2  1  0.75462003  0.09850023  0.19685664  1
  Co  Co3  1  0.75608493  0.09721877  0.90285819  1
  Co  Co4  1  0.25530385  0.90308830  0.80468358  1
  Co  Co5  1  0.75462627  0.80307287  0.90151612  1
  Co  Co6  1  0.25481031  0.90130866  0.09866526  1
  Co  Co7  1  0.25538250  0.19521035  0.09685635  1
  Co  Co8  1  0.96079281  0.84140817  0.68119578  1
  Co  Co9  1  0.95887616  0.84188299  0.15811588  1
  Co  Co10  1  0.46063889  0.15909595  0.31729141  1
  Co  Co11  1  0.96072721  0.31881750  0.15861674  1
  Co  Co12  1  0.45994583  0.15937989  0.84067987  1
  Co  Co13  1  0.46052303  0.68283461  0.84101300  1
  Co  Co14  1  0.00243910  0.99688342  0.00294539  1
  Co  Co15  1  0.50231510  0.99738833  0.00226179  1
  Sn  Sn0  1  0.95048064  0.66722416  0.33281179  1
  Sn  Sn1  1  0.45020406  0.33384057  0.66623286  1
  Sn  Sn2  1  0.58174243  0.82919194  0.65524677  1
  Sn  Sn3  1  0.58092743  0.82647150  0.17367280  1
  Sn  Sn4  1  0.08185791  0.17488734  0.34612912  1
  Sn  Sn5  1  0.58168614  0.34467813  0.17084342  1
  Sn  Sn6  1  0.08113596  0.17207970  0.82800743  1
  Sn  Sn7  1  0.08179286  0.65377591  0.82510848  1
loop_
_geom_bond_atom_site_label_1
_geom_bond_atom_site_label_2
_geom_bond_distance
_geom_bond_site_symmetry_2
Dy0 Sn3 3.172780 1_556
Dy0 Sn5 3.179975 1_556
Dy0 Sn6 3.188370 1_655
Dy0 Sn7 3.201063 1_655
Dy0 Sn0 3.257685 1_556
Dy0 Sn1 3.265099 1_555
Dy1 Sn2 3.176105 1_555
Dy1 Sn5 3.176540 1_555
Dy1 Sn7 3.183652 1_655
Dy1 Sn4 3.183769 1_655
Dy1 Sn0 3.267306 1_555
Dy1 Sn1 3.274072 1_555
Dy2 Sn7 3.171652 1_554
Dy2 Sn6 3.183079 1_554
Dy2 Sn5 3.185655 1_555
Dy2 Sn3 3.188160 1_555
Dy2 Sn1 3.265122 1_554
Dy2 Sn0 3.266552 1_455
Dy3 Sn3 3.172735 1_545
Dy3 Sn2 3.179477 1_545
Dy3 Sn6 3.188709 1_655
Dy3 Sn4 3.201519 1_655
Dy3 Sn0 3.257220 1_545
Dy3 Sn1 3.265119 1_555
Dy4 Sn7 3.173552 1_555
Dy4 Sn4 3.173660 1_555
Dy4 Sn5 3.197516 1_555
Dy4 Sn2 3.198073 1_555
Dy4 Sn1 3.252230 1_555
Dy4 Sn0 3.263293 1_455
Dy5 Sn4 3.171606 1_565
Dy5 Sn6 3.182922 1_565
Dy5 Sn2 3.185546 1_555
Dy5 Sn3 3.187504 1_555
Dy5 Sn1 3.265442 1_565
Dy5 Sn0 3.266913 1_455
Co0 Sn3 2.488790 1_555
Co0 Sn2 2.491888 1_555
Co0 Sn5 2.492089 1_555
Co0 Sn0 2.844705 1_555
Co0 Dy4 2.949442 1_555
Co0 Dy2 2.967114 1_555
Co0 Dy5 2.967336 1_555
Co0 Dy1 3.410927 1_555
Co0 Dy0 3.452866 1_554
Co0 Dy3 3.453948 1_565
Co1 Sn7 2.490354 1_555
Co1 Sn4 2.490399 1_555
Co1 Sn6 2.494200 1_555
Co1 Sn1 2.845170 1_555
Co1 Dy3 2.955507 1_455
Co1 Dy0 2.956413 1_455
Co1 Dy1 2.967102 1_455
Co1 Dy5 3.427538 1_545
Co1 Dy2 3.429252 1_556
Co1 Dy4 3.465760 1_555
Co2 Co9 2.613088 1_545
Co2 Co3 2.624074 1_554
Co2 Co5 2.642582 1_544
Co2 Sn5 2.647150 1_555
Co2 Sn3 2.668705 1_545
Co2 Sn4 2.670550 1_655
Co2 Dy3 3.170422 1_555
Co2 Dy1 3.177092 1_555
Co3 Co5 2.625024 1_545
Co3 Co8 2.626625 1_545
Co3 Sn5 2.644294 1_556
Co3 Sn2 2.645118 1_545
Co3 Sn6 2.665566 1_655
Co3 Dy0 3.196069 1_555
Co3 Dy3 3.196423 1_555
Co4 Co8 2.368353 1_455
Co4 Co7 2.613627 1_566
Co4 Sn6 2.636074 1_565
Co4 Co6 2.637573 1_556
Co4 Sn7 2.659918 1_555
Co4 Sn2 2.671055 1_555
Co4 Dy5 3.187618 1_555
Co4 Dy4 3.189145 1_555
Co5 Co9 2.613051 1_556
Co5 Sn2 2.648375 1_555
Co5 Co8 2.648457 1_555
Co5 Sn3 2.668893 1_556
Co5 Sn7 2.669867 1_655
Co5 Dy0 3.169443 1_555
Co5 Dy1 3.176614 1_555
Co6 Co9 2.370529 1_455
Co6 Co7 2.636893 1_565
Co6 Sn3 2.661857 1_555
Co6 Sn4 2.663031 1_565
Co6 Sn7 2.663743 1_554
Co6 Dy2 3.166333 1_555
Co6 Dy5 3.166856 1_555
Co7 Sn6 2.636166 1_554
Co7 Sn4 2.659134 1_555
Co7 Sn5 2.670510 1_555
Co7 Dy2 3.188294 1_555
Co7 Dy4 3.190222 1_555
Co8 Sn0 2.699917 1_555
Co8 Sn6 2.718325 1_665
Co8 Sn7 2.720735 1_655
Co8 Sn2 2.798269 1_555
Co8 Dy3 3.142819 1_565
Co8 Dy1 3.157580 1_555
Co8 Dy4 3.439820 1_655
Co8 Dy5 3.441301 1_655
Co9 Sn0 2.707010 1_555
Co9 Sn7 2.742855 1_654
Co9 Sn4 2.743082 1_665
Co9 Sn3 2.795063 1_555
Co9 Dy3 3.153245 1_565
Co9 Dy0 3.153354 1_554
Co9 Dy2 3.442197 1_655
Co9 Dy5 3.442764 1_655
Co10 Co2 2.359741 1_555
Co10 Co15 2.460910 1_545
Co10 Co7 2.623317 1_555
Co10 Co6 2.633837 1_545
Co10 Sn1 2.704651 1_555
Co10 Sn3 2.729721 1_545
Co10 Sn5 2.732047 1_555
Co10 Sn4 2.799063 1_555
Co10 Dy4 3.149190 1_555
Co10 Dy5 3.160202 1_545
Co10 Dy3 3.432644 1_555
Co10 Dy1 3.441713 1_555
Co11 Co7 2.369454 1_655
Co11 Co14 2.512428 1_645
Co11 Co3 2.626323 1_554
Co11 Co2 2.647838 1_555
Co11 Sn0 2.699957 1_555
Co11 Sn6 2.717943 1_654
Co11 Sn4 2.720289 1_655
Co11 Sn5 2.798103 1_555
Co11 Dy0 3.142871 1_554
Co11 Dy1 3.157226 1_555
Co11 Dy4 3.440794 1_655
Co11 Dy2 3.441896 1_655
Co12 Co3 2.379403 1_555
Co12 Co15 2.523965 1_546
Co12 Co7 2.629812 1_556
Co12 Co4 2.630664 1_545
Co12 Sn1 2.703076 1_555
Co12 Sn5 2.714647 1_556
Co12 Sn2 2.714723 1_545
Co12 Sn6 2.795664 1_555
Co12 Dy2 3.149921 1_556
Co12 Dy5 3.150457 1_545
Co12 Dy0 3.450245 1_555
Co12 Dy3 3.450398 1_555
Co13 Co5 2.360171 1_555
Co13 Co15 2.457321 1_556
Co13 Co4 2.622602 1_555
Co13 Co6 2.631975 1_556
Co13 Sn1 2.704949 1_555
Co13 Sn3 2.730562 1_556
Co13 Sn2 2.733226 1_555
Co13 Sn7 2.798891 1_555
Co13 Dy4 3.149696 1_555
Co13 Dy2 3.159916 1_556
Co13 Dy0 3.432984 1_555
Co13 Dy1 3.442367 1_555
Co14 Co5 2.366776 1_454
Co14 Co2 2.367054 1_465
Co14 Co6 2.370721 1_555
Co14 Co3 2.381470 1_464
Co14 Co4 2.417648 1_554
Co14 Co7 2.418664 1_565
Co14 Co9 2.425504 1_455
Co14 Co8 2.511144 1_454
Co14 Sn7 2.720591 1_554
Co14 Sn4 2.721543 1_565
Co14 Sn6 2.776292 1_564
Co15 Co6 2.361050 1_555
Co15 Co4 2.374663 1_554
Co15 Co7 2.375075 1_565
Co15 Co5 2.388477 1_554
Co15 Co2 2.390181 1_565
Co15 Co3 2.430091 1_564
Co15 Sn3 2.710973 1_555
Co15 Sn2 2.753248 1_554
Co15 Sn5 2.755244 1_565
