# generated using pymatgen
data_Re2S2O13
_symmetry_space_group_name_H-M   'P 1'
_cell_length_a   7.38108600
_cell_length_b   7.44147900
_cell_length_c   17.19680800
_cell_angle_alpha   90.00000000
_cell_angle_beta   90.00000000
_cell_angle_gamma   90.00000000
_symmetry_Int_Tables_number   1
_chemical_formula_structural   Re2S2O13
_chemical_formula_sum   'Re8 S8 O52'
_cell_volume   944.55525480
_cell_formula_units_Z   4
loop_
 _symmetry_equiv_pos_site_id
 _symmetry_equiv_pos_as_xyz
  1  'x, y, z'
loop_
 _atom_site_type_symbol
 _atom_site_label
 _atom_site_symmetry_multiplicity
 _atom_site_fract_x
 _atom_site_fract_y
 _atom_site_fract_z
 _atom_site_occupancy
  Re  Re0  1  0.34670400  0.26159400  0.10073500  1
  Re  Re1  1  0.65329600  0.73840600  0.60073500  1
  Re  Re2  1  0.15329600  0.26159400  0.89926500  1
  Re  Re3  1  0.84670400  0.73840600  0.39926500  1
  Re  Re4  1  0.65329600  0.73840600  0.89926500  1
  Re  Re5  1  0.34670400  0.26159400  0.39926500  1
  Re  Re6  1  0.84670400  0.73840600  0.10073500  1
  Re  Re7  1  0.15329600  0.26159400  0.60073500  1
  S  S0  1  0.25000000  0.86497400  0.00000000  1
  S  S1  1  0.75000000  0.13502600  0.50000000  1
  S  S2  1  0.75000000  0.13502600  0.00000000  1
  S  S3  1  0.25000000  0.86497400  0.50000000  1
  S  S4  1  0.62305600  0.23512200  0.25000000  1
  S  S5  1  0.37694400  0.76487800  0.75000000  1
  S  S6  1  0.87694400  0.23512200  0.75000000  1
  S  S7  1  0.12305600  0.76487800  0.25000000  1
  O  O0  1  0.25000000  0.30220400  0.00000000  1
  O  O1  1  0.75000000  0.69779600  0.50000000  1
  O  O2  1  0.75000000  0.69779600  0.00000000  1
  O  O3  1  0.25000000  0.30220400  0.50000000  1
  O  O4  1  0.14868300  0.22715500  0.14943100  1
  O  O5  1  0.85131700  0.77284500  0.64943100  1
  O  O6  1  0.35131700  0.22715500  0.85056900  1
  O  O7  1  0.64868300  0.77284500  0.35056900  1
  O  O8  1  0.85131700  0.77284500  0.85056900  1
  O  O9  1  0.14868300  0.22715500  0.35056900  1
  O  O10  1  0.64868300  0.77284500  0.14943100  1
  O  O11  1  0.35131700  0.22715500  0.64943100  1
  O  O12  1  0.39162500  0.48188500  0.12160200  1
  O  O13  1  0.60837500  0.51811500  0.62160200  1
  O  O14  1  0.10837500  0.48188500  0.87839800  1
  O  O15  1  0.89162500  0.51811500  0.37839800  1
  O  O16  1  0.60837500  0.51811500  0.87839800  1
  O  O17  1  0.39162500  0.48188500  0.37839800  1
  O  O18  1  0.89162500  0.51811500  0.12160200  1
  O  O19  1  0.10837500  0.48188500  0.62160200  1
  O  O20  1  0.33945300  0.97978900  0.06007100  1
  O  O21  1  0.66054700  0.02021100  0.56007100  1
  O  O22  1  0.16054700  0.97978900  0.93992900  1
  O  O23  1  0.83945300  0.02021100  0.43992900  1
  O  O24  1  0.66054700  0.02021100  0.93992900  1
  O  O25  1  0.33945300  0.97978900  0.43992900  1
  O  O26  1  0.83945300  0.02021100  0.06007100  1
  O  O27  1  0.16054700  0.97978900  0.56007100  1
  O  O28  1  0.78797900  0.13586600  0.25000000  1
  O  O29  1  0.21202100  0.86413400  0.75000000  1
  O  O30  1  0.71202100  0.13586600  0.75000000  1
  O  O31  1  0.28797900  0.86413400  0.25000000  1
  O  O32  1  0.61909000  0.42765700  0.25000000  1
  O  O33  1  0.38091000  0.57234300  0.75000000  1
  O  O34  1  0.88091000  0.42765700  0.75000000  1
  O  O35  1  0.11909000  0.57234300  0.25000000  1
  O  O36  1  0.50466600  0.16109100  0.17970300  1
  O  O37  1  0.49533400  0.83890900  0.67970300  1
  O  O38  1  0.99533400  0.16109100  0.82029700  1
  O  O39  1  0.00466600  0.83890900  0.32029700  1
  O  O40  1  0.49533400  0.83890900  0.82029700  1
  O  O41  1  0.50466600  0.16109100  0.32029700  1
  O  O42  1  0.00466600  0.83890900  0.17970300  1
  O  O43  1  0.99533400  0.16109100  0.67970300  1
  O  O44  1  0.38778900  0.74520000  0.96470600  1
  O  O45  1  0.61221100  0.25480000  0.46470600  1
  O  O46  1  0.11221100  0.74520000  0.03529400  1
  O  O47  1  0.88778900  0.25480000  0.53529400  1
  O  O48  1  0.61221100  0.25480000  0.03529400  1
  O  O49  1  0.38778900  0.74520000  0.53529400  1
  O  O50  1  0.88778900  0.25480000  0.96470600  1
  O  O51  1  0.11221100  0.74520000  0.46470600  1
loop_
_geom_bond_atom_site_label_1
_geom_bond_atom_site_label_2
_geom_bond_distance
_geom_bond_site_symmetry_2
O0 Re0 1.897825 1_555
O0 Re2 1.897825 1_554
O1 Re1 1.897825 1_555
O1 Re3 1.897825 1_555
O2 Re6 1.897825 1_555
O2 Re4 1.897825 1_554
O3 Re5 1.897825 1_555
O3 Re7 1.897825 1_555
O4 Re0 1.703892 1_555
O5 Re1 1.703892 1_555
O6 Re2 1.703892 1_555
O7 Re3 1.703892 1_555
O8 Re4 1.703892 1_555
O9 Re5 1.703892 1_555
O10 Re6 1.703892 1_555
O11 Re7 1.703892 1_555
O12 Re0 1.710550 1_555
O13 Re1 1.710550 1_555
O14 Re2 1.710550 1_555
O15 Re3 1.710550 1_555
O16 Re4 1.710550 1_555
O17 Re5 1.710550 1_555
O18 Re6 1.710550 1_555
O19 Re7 1.710550 1_555
O20 S0 1.494350 1_555
O20 Re0 2.211216 1_565
O21 S1 1.494350 1_555
O21 Re1 2.211216 1_545
O22 S0 1.494350 1_556
O22 Re2 2.211216 1_565
O23 S1 1.494350 1_555
O23 Re3 2.211216 1_545
O24 S2 1.494350 1_556
O24 Re4 2.211216 1_545
O25 S3 1.494350 1_555
O25 Re5 2.211216 1_565
O26 S2 1.494350 1_555
O26 Re6 2.211216 1_545
O27 S3 1.494350 1_555
O27 Re7 2.211216 1_565
O28 S4 1.423865 1_555
O29 S5 1.423865 1_555
O30 S6 1.423865 1_555
O31 S7 1.423865 1_555
O32 S4 1.433044 1_555
O33 S5 1.433044 1_555
O34 S6 1.433044 1_555
O35 S7 1.433044 1_555
O36 S4 1.590126 1_555
O36 Re0 1.939818 1_555
O37 S5 1.590126 1_555
O37 Re1 1.939818 1_555
O38 S6 1.590126 1_555
O38 Re2 1.939818 1_655
O39 S7 1.590126 1_555
O39 Re3 1.939818 1_455
O40 S5 1.590126 1_555
O40 Re4 1.939818 1_555
O41 S4 1.590126 1_555
O41 Re5 1.939818 1_555
O42 S7 1.590126 1_555
O42 Re6 1.939818 1_455
O43 S6 1.590126 1_555
O43 Re7 1.939818 1_655
O44 S0 1.482277 1_556
O44 Re4 2.260436 1_555
O45 S1 1.482277 1_555
O45 Re5 2.260436 1_555
O46 S0 1.482277 1_555
O46 Re6 2.260436 1_455
O47 S1 1.482277 1_555
O47 Re7 2.260436 1_655
O48 S2 1.482277 1_555
O48 Re0 2.260436 1_555
O49 S3 1.482277 1_555
O49 Re1 2.260436 1_555
O50 S2 1.482277 1_556
O50 Re2 2.260436 1_655
O51 S3 1.482277 1_555
O51 Re3 2.260436 1_455
