# generated using pymatgen
data_Mg4FeO5
_symmetry_space_group_name_H-M   'P 1'
_cell_length_a   5.95687073
_cell_length_b   8.97845452
_cell_length_c   7.33272876
_cell_angle_alpha   105.83195832
_cell_angle_beta   89.33212131
_cell_angle_gamma   89.74811859
_symmetry_Int_Tables_number   1
_chemical_formula_structural   Mg4FeO5
_chemical_formula_sum   'Mg16 Fe4 O20'
_cell_volume   377.26564823
_cell_formula_units_Z   4
loop_
 _symmetry_equiv_pos_site_id
 _symmetry_equiv_pos_as_xyz
  1  'x, y, z'
loop_
 _atom_site_type_symbol
 _atom_site_label
 _atom_site_symmetry_multiplicity
 _atom_site_fract_x
 _atom_site_fract_y
 _atom_site_fract_z
 _atom_site_occupancy
  Mg  Mg0  1  0.25357107  0.70064746  0.90228932  1
  Mg  Mg1  1  0.99957141  0.20282268  0.40580124  1
  Mg  Mg2  1  0.75557255  0.70219239  0.90158670  1
  Mg  Mg3  1  0.49976951  0.20072127  0.40331814  1
  Mg  Mg4  1  0.74641375  0.29938106  0.09771451  1
  Mg  Mg5  1  0.50025869  0.79928098  0.59669323  1
  Mg  Mg6  1  0.24441909  0.29778700  0.09841470  1
  Mg  Mg7  1  0.00054800  0.79716575  0.59418449  1
  Mg  Mg8  1  0.49680709  0.39990464  0.80001861  1
  Mg  Mg9  1  0.24889870  0.90390438  0.29943830  1
  Mg  Mg10  1  0.99660705  0.39999976  0.80017115  1
  Mg  Mg11  1  0.75252813  0.90189632  0.30099220  1
  Mg  Mg12  1  0.50318959  0.60010056  0.19998635  1
  Mg  Mg13  1  0.24748309  0.09808498  0.69902948  1
  Mg  Mg14  1  0.00341134  0.59999959  0.19982798  1
  Mg  Mg15  1  0.75111925  0.09609676  0.70053244  1
  Fe  Fe0  1  0.49988770  0.99999869  0.99998305  1
  Fe  Fe1  1  0.25107529  0.49984121  0.49986087  1
  Fe  Fe2  1  0.74906918  0.50015086  0.50015929  1
  Fe  Fe3  1  0.99968508  0.00002273  0.00000185  1
  O  O0  1  0.74858803  0.50002868  0.99955372  1
  O  O1  1  0.50001103  0.00000673  0.50000198  1
  O  O2  1  0.25141739  0.49996111  0.00045362  1
  O  O3  1  0.00002915  0.00000398  0.49999994  1
  O  O4  1  0.49819224  0.19717339  0.90146384  1
  O  O5  1  0.25243980  0.70436219  0.39533439  1
  O  O6  1  0.99809704  0.20413185  0.89834145  1
  O  O7  1  0.75067718  0.70355552  0.39436200  1
  O  O8  1  0.50184378  0.80282410  0.09853431  1
  O  O9  1  0.24931293  0.29644594  0.60562542  1
  O  O10  1  0.00190403  0.79585866  0.10165419  1
  O  O11  1  0.74756240  0.29564540  0.60466243  1
  O  O12  1  0.51011060  0.60248016  0.70586584  1
  O  O13  1  0.24917706  0.10695065  0.21218997  1
  O  O14  1  0.01112930  0.60138962  0.70497770  1
  O  O15  1  0.75611318  0.10397452  0.20717127  1
  O  O16  1  0.48989493  0.39751738  0.29415903  1
  O  O17  1  0.24390352  0.89605347  0.79286700  1
  O  O18  1  0.98885369  0.39860664  0.29502898  1
  O  O19  1  0.75085417  0.89303195  0.78775202  1
loop_
_geom_bond_atom_site_label_1
_geom_bond_atom_site_label_2
_geom_bond_distance
_geom_bond_site_symmetry_2
Mg0 O14 2.080798 1_555
Mg0 O10 2.090716 1_556
Mg0 O12 2.104959 1_555
Mg0 O8 2.107325 1_556
Mg0 O2 2.114862 1_556
Mg0 O17 2.119778 1_555
Mg1 O13 2.059129 1_655
Mg1 O11 2.085505 1_555
Mg1 O15 2.089862 1_555
Mg1 O9 2.111048 1_655
Mg1 O3 2.116475 1_655
Mg1 O18 2.129115 1_555
Mg2 O12 2.087716 1_555
Mg2 O10 2.097730 1_656
Mg2 O8 2.100362 1_556
Mg2 O19 2.100940 1_555
Mg2 O14 2.107083 1_655
Mg2 O0 2.126937 1_555
Mg3 O13 2.077811 1_555
Mg3 O9 2.099208 1_555
Mg3 O15 2.100097 1_555
Mg3 O1 2.108867 1_555
Mg3 O11 2.111922 1_555
Mg3 O16 2.130271 1_555
Mg4 O18 2.080733 1_555
Mg4 O6 2.090893 1_554
Mg4 O16 2.104894 1_555
Mg4 O4 2.107202 1_554
Mg4 O0 2.114520 1_554
Mg4 O15 2.119940 1_555
Mg5 O19 2.077494 1_555
Mg5 O7 2.099153 1_555
Mg5 O17 2.100309 1_555
Mg5 O1 2.108993 1_565
Mg5 O5 2.112085 1_555
Mg5 O12 2.130367 1_555
Mg6 O16 2.087914 1_555
Mg6 O6 2.097694 1_454
Mg6 O4 2.100524 1_554
Mg6 O13 2.100647 1_555
Mg6 O18 2.107177 1_455
Mg6 O2 2.127002 1_555
Mg7 O19 2.059310 1_455
Mg7 O5 2.084926 1_555
Mg7 O17 2.089743 1_555
Mg7 O7 2.111566 1_455
Mg7 O3 2.116584 1_565
Mg7 O14 2.129118 1_555
Mg8 O2 2.078902 1_556
Mg8 O11 2.089414 1_555
Mg8 O9 2.099241 1_555
Mg8 O12 2.115694 1_555
Mg8 O0 2.131600 1_555
Mg8 O4 2.146017 1_555
Mg9 O3 2.085818 1_565
Mg9 O13 2.090257 1_565
Mg9 O5 2.095727 1_555
Mg9 O8 2.114460 1_555
Mg9 O10 2.122223 1_555
Mg9 O1 2.124899 1_565
Mg10 O6 2.074045 1_555
Mg10 O0 2.085279 1_555
Mg10 O9 2.092716 1_655
Mg10 O14 2.110176 1_655
Mg10 O11 2.112547 1_555
Mg10 O2 2.147331 1_656
Mg11 O7 2.074934 1_555
Mg11 O1 2.098548 1_565
Mg11 O10 2.104114 1_655
Mg11 O3 2.106951 1_665
Mg11 O15 2.108715 1_565
Mg11 O8 2.137273 1_555
Mg12 O0 2.078961 1_554
Mg12 O5 2.089363 1_555
Mg12 O7 2.099132 1_555
Mg12 O16 2.115839 1_555
Mg12 O2 2.131585 1_555
Mg12 O8 2.145980 1_555
Mg13 O9 2.075247 1_555
Mg13 O1 2.098602 1_555
Mg13 O6 2.104070 1_455
Mg13 O3 2.106790 1_555
Mg13 O17 2.108384 1_545
Mg13 O4 2.137309 1_555
Mg14 O10 2.073985 1_555
Mg14 O2 2.085210 1_555
Mg14 O7 2.092793 1_455
Mg14 O18 2.110243 1_455
Mg14 O5 2.112488 1_555
Mg14 O0 2.147372 1_454
Mg15 O3 2.085848 1_655
Mg15 O19 2.090302 1_545
Mg15 O11 2.095674 1_555
Mg15 O4 2.114492 1_555
Mg15 O6 2.122230 1_555
Mg15 O1 2.124713 1_555
Fe0 O4 2.086591 1_565
Fe0 O8 2.086734 1_556
Fe0 O13 2.166039 1_566
Fe0 O19 2.167211 1_555
Fe0 O17 2.189945 1_555
Fe0 O15 2.191336 1_566
Fe1 O16 2.079755 1_555
Fe1 O14 2.080061 1_555
Fe1 O9 2.170078 1_555
Fe1 O5 2.174259 1_555
Fe1 O12 2.195300 1_555
Fe1 O18 2.200972 1_455
Fe2 O18 2.079460 1_555
Fe2 O12 2.080345 1_555
Fe2 O7 2.170295 1_555
Fe2 O11 2.174031 1_555
Fe2 O16 2.195858 1_555
Fe2 O14 2.200232 1_655
Fe3 O15 2.108813 1_555
Fe3 O17 2.111314 1_644
Fe3 O6 2.158599 1_554
Fe3 O10 2.159051 1_645
Fe3 O19 2.189219 1_544
Fe3 O13 2.191517 1_655
