# generated using pymatgen
data_Tb2Fe17C3
_symmetry_space_group_name_H-M   'P 1'
_cell_length_a   6.50242158
_cell_length_b   6.50242158
_cell_length_c   6.50242074
_cell_angle_alpha   83.35568241
_cell_angle_beta   83.35568241
_cell_angle_gamma   83.35567620
_symmetry_Int_Tables_number   1
_chemical_formula_structural   Tb2Fe17C3
_chemical_formula_sum   'Tb2 Fe17 C3'
_cell_volume   269.78869639
_cell_formula_units_Z   1
loop_
 _symmetry_equiv_pos_site_id
 _symmetry_equiv_pos_as_xyz
  1  'x, y, z'
loop_
 _atom_site_type_symbol
 _atom_site_label
 _atom_site_symmetry_multiplicity
 _atom_site_fract_x
 _atom_site_fract_y
 _atom_site_fract_z
 _atom_site_occupancy
  Tb  Tb0  1  0.65717100  0.65717100  0.65717100  1
  Tb  Tb1  1  0.34282900  0.34282900  0.34282900  1
  Fe  Fe0  1  0.00000000  0.00000000  0.50000000  1
  Fe  Fe1  1  0.50000000  0.00000000  0.00000000  1
  Fe  Fe2  1  0.00000000  0.50000000  0.00000000  1
  Fe  Fe3  1  0.71666700  0.28333300  0.00000000  1
  Fe  Fe4  1  0.00000000  0.71666700  0.28333300  1
  Fe  Fe5  1  0.28333300  0.00000000  0.71666700  1
  Fe  Fe6  1  0.00000000  0.28333300  0.71666700  1
  Fe  Fe7  1  0.71666700  0.00000000  0.28333300  1
  Fe  Fe8  1  0.28333300  0.71666700  0.00000000  1
  Fe  Fe9  1  0.34338700  0.34338700  0.85591600  1
  Fe  Fe10  1  0.85591600  0.34338700  0.34338700  1
  Fe  Fe11  1  0.34338700  0.85591600  0.34338700  1
  Fe  Fe12  1  0.65661300  0.65661300  0.14408400  1
  Fe  Fe13  1  0.14408400  0.65661300  0.65661300  1
  Fe  Fe14  1  0.65661300  0.14408400  0.65661300  1
  Fe  Fe15  1  0.90472900  0.90472900  0.90472900  1
  Fe  Fe16  1  0.09527100  0.09527100  0.09527100  1
  C  C0  1  0.50000000  0.50000000  0.00000000  1
  C  C1  1  0.00000000  0.50000000  0.50000000  1
  C  C2  1  0.50000000  0.00000000  0.50000000  1
loop_
_geom_bond_atom_site_label_1
_geom_bond_atom_site_label_2
_geom_bond_distance
_geom_bond_site_symmetry_2
Fe0 Fe6 2.445362 1_555
Fe0 Fe5 2.445362 1_555
Fe0 Fe4 2.445362 1_545
Fe0 Fe7 2.445362 1_455
Fe0 Fe13 2.472031 1_545
Fe0 Fe10 2.472031 1_455
Fe0 Fe14 2.472031 1_455
Fe0 Fe11 2.472031 1_545
Fe0 Fe16 2.650988 1_555
Fe0 Fe15 2.650988 1_445
Fe0 Tb1 3.328492 1_555
Fe0 Tb0 3.328492 1_445
Fe1 Fe7 2.445362 1_555
Fe1 Fe5 2.445362 1_554
Fe1 Fe3 2.445362 1_555
Fe1 Fe8 2.445362 1_545
Fe1 Fe14 2.472031 1_554
Fe1 Fe11 2.472031 1_545
Fe1 Fe9 2.472031 1_554
Fe1 Fe12 2.472031 1_545
Fe1 Fe15 2.650989 1_544
Fe1 Fe16 2.650989 1_555
Fe1 Tb1 3.328491 1_555
Fe1 Tb0 3.328491 1_544
Fe2 Fe4 2.445362 1_555
Fe2 Fe6 2.445362 1_554
Fe2 Fe8 2.445362 1_555
Fe2 Fe3 2.445362 1_455
Fe2 Fe9 2.472031 1_554
Fe2 Tb1 3.328491 1_555
Fe2 Tb0 3.328491 1_454
Fe10 Fe2 2.472031 1_655
Fe10 Fe16 2.658639 1_655
Fe11 Fe16 2.658639 1_565
Fe12 Fe2 2.472031 1_655
Fe12 Fe15 2.658639 1_554
Fe13 Fe2 2.472031 1_556
Fe13 Fe15 2.658639 1_455
Fe14 Fe15 2.658639 1_545
Fe15 Fe16 2.381376 1_666
Fe15 Fe2 2.650989 1_656
Fe15 Fe4 2.724111 1_656
Fe15 Fe7 2.724111 1_566
Fe15 Fe3 2.724111 1_566
Fe15 Fe8 2.724111 1_656
Fe15 Fe5 2.724111 1_665
Fe15 Fe6 2.724111 1_665
Fe15 Tb0 3.093957 1_555
Fe16 Fe2 2.650989 1_555
Fe16 Fe9 2.658639 1_554
Fe16 Fe5 2.724111 1_554
Fe16 Fe6 2.724111 1_554
Fe16 Fe8 2.724111 1_545
Fe16 Fe3 2.724111 1_455
Fe16 Fe4 2.724111 1_545
Fe16 Fe7 2.724111 1_455
Fe16 Tb1 3.093957 1_555
C0 Fe3 1.873619 1_555
C0 Fe8 1.873619 1_555
C0 Fe9 1.906166 1_554
C0 Fe12 1.906166 1_555
C0 Tb1 2.499126 1_555
C0 Tb0 2.499126 1_554
C1 Fe4 1.873619 1_555
C1 Fe6 1.873619 1_555
C1 Fe10 1.906166 1_455
C1 Fe13 1.906166 1_555
C1 Tb0 2.499126 1_455
C1 Tb1 2.499126 1_555
C2 Fe5 1.873619 1_555
C2 Fe7 1.873619 1_555
C2 Fe11 1.906166 1_545
C2 Fe14 1.906166 1_555
C2 Tb0 2.499126 1_545
C2 Tb1 2.499126 1_555
