# generated using pymatgen
data_KBa2Bi2O9
_symmetry_space_group_name_H-M   'P 1'
_cell_length_a   5.99087617
_cell_length_b   5.99087617
_cell_length_c   7.93585600
_cell_angle_alpha   90.00000000
_cell_angle_beta   90.00000000
_cell_angle_gamma   120.00000185
_symmetry_Int_Tables_number   1
_chemical_formula_structural   KBa2Bi2O9
_chemical_formula_sum   'K1 Ba2 Bi2 O9'
_cell_volume   246.66361257
_cell_formula_units_Z   1
loop_
 _symmetry_equiv_pos_site_id
 _symmetry_equiv_pos_as_xyz
  1  'x, y, z'
loop_
 _atom_site_type_symbol
 _atom_site_label
 _atom_site_symmetry_multiplicity
 _atom_site_fract_x
 _atom_site_fract_y
 _atom_site_fract_z
 _atom_site_occupancy
  K  K0  1  0.00000000  0.00000000  0.00000000  1
  Ba  Ba0  1  0.66666700  0.33333300  0.35707100  1
  Ba  Ba1  1  0.33333300  0.66666700  0.64292900  1
  Bi  Bi0  1  0.33333300  0.66666700  0.15504500  1
  Bi  Bi1  1  0.66666700  0.33333300  0.84495500  1
  O  O0  1  0.50000000  0.00000000  0.00000000  1
  O  O1  1  0.82067400  0.64134800  0.66952700  1
  O  O2  1  0.17932600  0.35865200  0.33047300  1
  O  O3  1  0.82067400  0.17932600  0.66952700  1
  O  O4  1  0.17932600  0.82067400  0.33047300  1
  O  O5  1  0.50000000  0.50000000  0.00000000  1
  O  O6  1  0.64134800  0.82067400  0.33047300  1
  O  O7  1  0.00000000  0.50000000  0.00000000  1
  O  O8  1  0.35865200  0.17932600  0.66952700  1
loop_
_geom_bond_atom_site_label_1
_geom_bond_atom_site_label_2
_geom_bond_distance
_geom_bond_site_symmetry_2
K0 O5 2.995438 1_555
K0 O5 2.995438 1_445
K0 O7 2.995438 1_545
K0 O0 2.995438 1_455
K0 O0 2.995438 1_555
K0 O7 2.995438 1_555
K0 O2 3.215657 1_555
K0 O6 3.215657 1_445
K0 O8 3.215657 1_554
K0 O1 3.215657 1_444
K0 O4 3.215657 1_545
K0 O3 3.215657 1_454
Ba0 O3 2.949953 1_555
Ba0 O1 2.949956 1_555
Ba0 O8 2.949956 1_555
Ba0 O2 3.005735 1_655
Ba0 O6 3.005735 1_545
Ba0 O4 3.005737 1_655
Ba0 O4 3.005737 1_545
Ba0 O2 3.005741 1_555
Ba0 O6 3.005741 1_555
Ba0 O0 3.319718 1_555
Ba0 O7 3.319718 1_655
Ba0 O5 3.319721 1_555
Ba1 O4 2.949953 1_555
Ba1 O6 2.949956 1_555
Ba1 O2 2.949956 1_555
Ba1 O8 3.005735 1_565
Ba1 O1 3.005735 1_455
Ba1 O3 3.005737 1_565
Ba1 O3 3.005737 1_455
Ba1 O8 3.005741 1_555
Ba1 O1 3.005741 1_555
Ba1 O7 3.319718 1_556
Ba1 O0 3.319718 1_566
Ba1 O5 3.319721 1_556
Bi0 O4 2.119414 1_555
Bi0 O6 2.119418 1_555
Bi0 O2 2.119418 1_555
Bi0 O7 2.122451 1_555
Bi0 O0 2.122451 1_565
Bi0 O5 2.122455 1_555
Bi1 O3 2.119414 1_555
Bi1 O1 2.119418 1_555
Bi1 O8 2.119418 1_555
Bi1 O7 2.122451 1_656
Bi1 O0 2.122451 1_556
Bi1 O5 2.122455 1_556
