# generated using pymatgen
data_Sn(TePd3)2
_symmetry_space_group_name_H-M   'P 1'
_cell_length_a   10.88405370
_cell_length_b   10.88405370
_cell_length_c   10.88405370
_cell_angle_alpha   158.36533932
_cell_angle_beta   158.36533932
_cell_angle_gamma   30.78350854
_symmetry_Int_Tables_number   1
_chemical_formula_structural   Sn(TePd3)2
_chemical_formula_sum   'Sn1 Te2 Pd6'
_cell_volume   175.14507061
_cell_formula_units_Z   1
loop_
 _symmetry_equiv_pos_site_id
 _symmetry_equiv_pos_as_xyz
  1  'x, y, z'
loop_
 _atom_site_type_symbol
 _atom_site_label
 _atom_site_symmetry_multiplicity
 _atom_site_fract_x
 _atom_site_fract_y
 _atom_site_fract_z
 _atom_site_occupancy
  Sn  Sn0  1  0.99980100  0.99980100  0.00000000  1
  Te  Te0  1  0.67686500  0.67686500  0.00000000  1
  Te  Te1  1  0.31825300  0.31825300  0.00000000  1
  Pd  Pd0  1  0.90641100  0.40641100  0.50000000  1
  Pd  Pd1  1  0.40641100  0.90641100  0.50000000  1
  Pd  Pd2  1  0.09584400  0.59584400  0.50000000  1
  Pd  Pd3  1  0.59584400  0.09584400  0.50000000  1
  Pd  Pd4  1  0.50124100  0.50124100  0.00000000  1
  Pd  Pd5  1  0.80195100  0.80195100  0.00000000  1
loop_
_geom_bond_atom_site_label_1
_geom_bond_atom_site_label_2
_geom_bond_distance
_geom_bond_site_symmetry_2
Pd0 Te1 2.756064 1_555
Pd0 Te1 2.756064 1_656
Pd0 Sn0 2.830949 1_556
Pd0 Sn0 2.830949 1_545
Pd0 Pd4 2.851956 1_555
Pd0 Pd4 2.851956 1_656
Pd0 Pd1 2.888817 1_555
Pd0 Pd1 2.888817 1_656
Pd0 Pd1 2.888817 1_544
Pd0 Pd1 2.888817 1_645
Pd0 Pd5 2.996496 1_556
Pd0 Pd5 2.996496 1_545
Pd1 Te1 2.756064 1_555
Pd1 Te1 2.756064 1_566
Pd1 Sn0 2.830949 1_455
Pd1 Sn0 2.830949 1_556
Pd1 Pd4 2.851956 1_566
Pd1 Pd4 2.851956 1_555
Pd1 Pd5 2.996496 1_455
Pd1 Pd5 2.996496 1_556
Pd2 Te0 2.657828 1_455
Pd2 Te0 2.657828 1_556
Pd2 Pd4 2.848634 1_556
Pd2 Pd4 2.848634 1_455
Pd2 Sn0 2.869780 1_456
Pd2 Sn0 2.869780 1_445
Pd2 Pd3 2.888817 1_465
Pd2 Pd3 2.888817 1_454
Pd2 Pd3 2.888817 1_555
Pd2 Pd3 2.888817 1_566
Pd3 Te0 2.657828 1_545
Pd3 Te0 2.657828 1_556
Pd3 Pd4 2.848634 1_545
Pd3 Pd4 2.848634 1_556
Pd3 Sn0 2.869780 1_445
Pd3 Sn0 2.869780 1_546
Pd4 Sn0 2.888975 1_556
Pd4 Sn0 2.888975 1_545
Pd4 Sn0 2.888975 1_444
Pd4 Sn0 2.888975 1_455
Pd5 Te0 2.625225 1_555
Pd5 Te1 2.909007 1_655
Pd5 Te1 2.909007 1_666
Pd5 Te1 2.909007 1_565
Pd5 Te1 2.909007 1_554
