# generated using pymatgen
data_MgVCuO4
_symmetry_space_group_name_H-M   'P 1'
_cell_length_a   5.26130597
_cell_length_b   5.26130597
_cell_length_c   6.33993100
_cell_angle_alpha   90.00000000
_cell_angle_beta   90.00000000
_cell_angle_gamma   113.15320647
_symmetry_Int_Tables_number   1
_chemical_formula_structural   MgVCuO4
_chemical_formula_sum   'Mg2 V2 Cu2 O8'
_cell_volume   161.36262952
_cell_formula_units_Z   2
loop_
 _symmetry_equiv_pos_site_id
 _symmetry_equiv_pos_as_xyz
  1  'x, y, z'
loop_
 _atom_site_type_symbol
 _atom_site_label
 _atom_site_symmetry_multiplicity
 _atom_site_fract_x
 _atom_site_fract_y
 _atom_site_fract_z
 _atom_site_occupancy
  Mg  Mg0  1  0.00000000  0.00000000  0.00000000  1
  Mg  Mg1  1  0.00000000  0.00000000  0.50000000  1
  V  V0  1  0.35655100  0.64344900  0.25000000  1
  V  V1  1  0.64344900  0.35655100  0.75000000  1
  Cu  Cu0  1  0.66645300  0.33354700  0.25000000  1
  Cu  Cu1  1  0.33354700  0.66645300  0.75000000  1
  O  O0  1  0.22341900  0.27035800  0.25000000  1
  O  O1  1  0.27035800  0.22341900  0.75000000  1
  O  O2  1  0.77658100  0.72964200  0.75000000  1
  O  O3  1  0.72964200  0.77658100  0.25000000  1
  O  O4  1  0.24011700  0.75988300  0.02889700  1
  O  O5  1  0.75988300  0.24011700  0.97110300  1
  O  O6  1  0.24011700  0.75988300  0.47110300  1
  O  O7  1  0.75988300  0.24011700  0.52889700  1
loop_
_geom_bond_atom_site_label_1
_geom_bond_atom_site_label_2
_geom_bond_distance
_geom_bond_site_symmetry_2
Mg0 O4 2.116750 1_545
Mg0 O5 2.116750 1_454
Mg0 O0 2.145315 1_555
Mg0 O1 2.145315 1_554
Mg0 O2 2.145315 1_444
Mg0 O3 2.145315 1_445
Mg1 O7 2.116750 1_455
Mg1 O6 2.116750 1_545
Mg1 O1 2.145315 1_555
Mg1 O0 2.145315 1_555
Mg1 O2 2.145315 1_445
Mg1 O3 2.145315 1_445
Cu0 O7 1.949301 1_555
Cu0 O5 1.949301 1_554
Cu0 O0 2.221351 1_555
Cu0 O3 2.221351 1_555
Cu1 O4 1.949301 1_556
Cu1 O6 1.949301 1_555
Cu1 O1 2.221351 1_555
Cu1 O2 2.221351 1_555
O0 V0 1.806254 1_555
O1 V1 1.806254 1_555
O2 V1 1.806254 1_555
O3 V0 1.806254 1_555
O4 V0 1.735118 1_555
O5 V1 1.735118 1_555
O6 V0 1.735118 1_555
O7 V1 1.735118 1_555
