# generated using pymatgen
data_BaCaNdNbO6
_symmetry_space_group_name_H-M   'P 1'
_cell_length_a   5.95669775
_cell_length_b   6.04041350
_cell_length_c   8.50856867
_cell_angle_alpha   90.60805341
_cell_angle_beta   89.33251661
_cell_angle_gamma   90.05501231
_symmetry_Int_Tables_number   1
_chemical_formula_structural   BaCaNdNbO6
_chemical_formula_sum   'Ba2 Ca2 Nd2 Nb2 O12'
_cell_volume   306.10798692
_cell_formula_units_Z   2
loop_
 _symmetry_equiv_pos_site_id
 _symmetry_equiv_pos_as_xyz
  1  'x, y, z'
loop_
 _atom_site_type_symbol
 _atom_site_label
 _atom_site_symmetry_multiplicity
 _atom_site_fract_x
 _atom_site_fract_y
 _atom_site_fract_z
 _atom_site_occupancy
  Ba  Ba0  1  0.99497664  0.03480632  0.25086548  1
  Ba  Ba1  1  0.00502336  0.96519368  0.74913452  1
  Ca  Ca0  1  0.51053397  0.54162763  0.25475032  1
  Ca  Ca1  1  0.48946603  0.45837237  0.74524968  1
  Nd  Nd0  1  0.50000000  -0.00000000  -0.00000000  1
  Nd  Nd1  1  0.00000000  0.50000000  0.50000000  1
  Nb  Nb0  1  0.00000000  0.50000000  -0.00000000  1
  Nb  Nb1  1  0.50000000  -0.00000000  0.50000000  1
  O  O0  1  0.18847552  0.22884651  0.95798489  1
  O  O1  1  0.32337480  0.71862513  0.55920405  1
  O  O2  1  0.81152448  0.77115349  0.04201511  1
  O  O3  1  0.67662520  0.28137487  0.44079595  1
  O  O4  1  0.27273688  0.68489939  0.93516893  1
  O  O5  1  0.22533015  0.18873980  0.52999838  1
  O  O6  1  0.72726312  0.31510061  0.06483107  1
  O  O7  1  0.77466985  0.81126020  0.47000162  1
  O  O8  1  0.43093282  0.93648902  0.27037952  1
  O  O9  1  0.11344057  0.49717666  0.22842394  1
  O  O10  1  0.56906718  0.06351098  0.72962048  1
  O  O11  1  0.88655943  0.50282334  0.77157606  1
loop_
_geom_bond_atom_site_label_1
_geom_bond_atom_site_label_2
_geom_bond_distance
_geom_bond_site_symmetry_2
Ba0 O2 2.621079 1_545
Ba0 O7 2.648583 1_545
Ba0 O8 2.671897 1_645
Ba0 O6 2.834785 1_555
Ba0 O3 2.882498 1_555
Ba0 O9 2.887757 1_655
Ba0 O5 2.900808 1_655
Ba0 O0 2.984093 1_654
Ba1 O0 2.621079 1_565
Ba1 O5 2.648583 1_565
Ba1 O10 2.671897 1_465
Ba1 O4 2.834785 1_555
Ba1 O1 2.882498 1_555
Ba1 O11 2.887757 1_455
Ba1 O7 2.900808 1_455
Ba1 O2 2.984093 1_456
Ca0 O9 2.393130 1_555
Ca0 O8 2.434196 1_555
Ca0 O3 2.459317 1_555
Ca0 O6 2.461314 1_555
Ca0 O2 2.895851 1_555
Ca0 O7 2.912281 1_555
Ca0 O1 2.995443 1_555
Ca1 O11 2.393130 1_555
Ca1 O10 2.434196 1_555
Ca1 O1 2.459317 1_555
Ca1 O4 2.461314 1_555
Ca1 O0 2.895851 1_555
Ca1 O5 2.912281 1_555
Ca1 O3 2.995443 1_555
Nd0 O0 2.347970 1_554
Nd0 O2 2.347970 1_545
Nd0 O10 2.367553 1_554
Nd0 O8 2.367553 1_545
Nd0 O4 2.397864 1_544
Nd0 O6 2.397864 1_555
Nd1 O7 2.329089 1_455
Nd1 O5 2.329089 1_555
Nd1 O1 2.389923 1_555
Nd1 O3 2.389923 1_455
Nd1 O9 2.399823 1_555
Nd1 O11 2.399823 1_455
Nb0 O0 2.013116 1_554
Nb0 O2 2.013116 1_455
Nb0 O4 2.044445 1_554
Nb0 O6 2.044445 1_455
Nb0 O9 2.065347 1_555
Nb0 O11 2.065347 1_454
Nb1 O5 2.007357 1_555
Nb1 O7 2.007357 1_545
Nb1 O8 2.033730 1_545
Nb1 O10 2.033730 1_555
Nb1 O3 2.061984 1_555
Nb1 O1 2.061984 1_545
