# generated using pymatgen
data_Li2Fe3CuO8
_symmetry_space_group_name_H-M   'P 1'
_cell_length_a   5.95504920
_cell_length_b   5.92369551
_cell_length_c   5.92518823
_cell_angle_alpha   60.13934281
_cell_angle_beta   60.81738814
_cell_angle_gamma   90.65101224
_symmetry_Int_Tables_number   1
_chemical_formula_structural   Li2Fe3CuO8
_chemical_formula_sum   'Li2 Fe3 Cu1 O8'
_cell_volume   149.07844049
_cell_formula_units_Z   1
loop_
 _symmetry_equiv_pos_site_id
 _symmetry_equiv_pos_as_xyz
  1  'x, y, z'
loop_
 _atom_site_type_symbol
 _atom_site_label
 _atom_site_symmetry_multiplicity
 _atom_site_fract_x
 _atom_site_fract_y
 _atom_site_fract_z
 _atom_site_occupancy
  Li  Li0  1  0.50000300  0.00001900  0.00002400  1
  Li  Li1  1  0.49999800  0.49999600  0.49999100  1
  Fe  Fe0  1  0.99998500  0.99998100  0.50001000  1
  Fe  Fe1  1  0.99999300  0.50000200  0.99999300  1
  Fe  Fe2  1  0.00001100  0.49998400  0.49998100  1
  Cu  Cu0  1  0.00000300  0.99999900  0.99999900  1
  O  O0  1  0.21177500  0.22847000  0.01685800  1
  O  O1  1  0.20951000  0.73759900  0.04216300  1
  O  O2  1  0.20953200  0.25203100  0.52773300  1
  O  O3  1  0.22146900  0.73794700  0.51666600  1
  O  O4  1  0.77851900  0.26205500  0.48333800  1
  O  O5  1  0.79047700  0.74796200  0.47226500  1
  O  O6  1  0.79049600  0.26241300  0.95782900  1
  O  O7  1  0.78822700  0.77154400  0.98314800  1
loop_
_geom_bond_atom_site_label_1
_geom_bond_atom_site_label_2
_geom_bond_distance
_geom_bond_site_symmetry_2
Li0 O6 2.145041 1_554
Li0 O1 2.145354 1_545
Li0 O3 2.188573 1_545
Li0 O4 2.188741 1_554
Li0 O0 2.192626 1_555
Li0 O7 2.192693 1_544
Li1 O2 2.145030 1_555
Li1 O5 2.145155 1_555
Li1 O4 2.186182 1_555
Li1 O3 2.186257 1_555
Li1 O7 2.194961 1_554
Li1 O0 2.195046 1_556
Fe0 O3 2.044416 1_655
Fe0 O4 2.044518 1_565
Fe0 O7 2.049319 1_555
Fe0 O0 2.049356 1_665
Fe0 O5 2.052897 1_555
Fe0 O2 2.053089 1_665
Fe1 O3 2.045101 1_655
Fe1 O4 2.045181 1_556
Fe1 O7 2.048566 1_555
Fe1 O0 2.048577 1_656
Fe1 O6 2.052754 1_555
Fe1 O1 2.052894 1_656
Fe2 O2 1.934528 1_555
Fe2 O5 1.934685 1_455
Fe2 O1 1.937489 1_555
Fe2 O6 1.937607 1_455
Fe2 O4 1.989707 1_455
Fe2 O3 1.989897 1_555
Cu0 O7 1.910605 1_455
Cu0 O0 1.910692 1_566
Cu0 O1 1.999102 1_556
Cu0 O6 1.999163 1_465
Cu0 O2 2.002191 1_565
Cu0 O5 2.002193 1_456
