# generated using pymatgen
data_LaMgCrFeO6
_symmetry_space_group_name_H-M   'P 1'
_cell_length_a   5.49842700
_cell_length_b   5.34908700
_cell_length_c   9.29924019
_cell_angle_alpha   55.12496682
_cell_angle_beta   90.00000000
_cell_angle_gamma   90.00000000
_symmetry_Int_Tables_number   1
_chemical_formula_structural   LaMgCrFeO6
_chemical_formula_sum   'La2 Mg2 Cr2 Fe2 O12'
_cell_volume   224.38397174
_cell_formula_units_Z   2
loop_
 _symmetry_equiv_pos_site_id
 _symmetry_equiv_pos_as_xyz
  1  'x, y, z'
loop_
 _atom_site_type_symbol
 _atom_site_label
 _atom_site_symmetry_multiplicity
 _atom_site_fract_x
 _atom_site_fract_y
 _atom_site_fract_z
 _atom_site_occupancy
  La  La0  1  0.28407700  0.23868100  0.75133700  1
  La  La1  1  0.71592300  0.23868100  0.25133700  1
  Mg  Mg0  1  0.80542100  0.78114600  0.74904900  1
  Mg  Mg1  1  0.19457900  0.78114600  0.24904900  1
  Cr  Cr0  1  0.75454600  0.49660800  0.50326600  1
  Cr  Cr1  1  0.24545400  0.49660800  0.00326600  1
  Fe  Fe0  1  0.74694300  0.99927200  0.99936900  1
  Fe  Fe1  1  0.25305700  0.99927200  0.49936900  1
  O  O0  1  0.26870100  0.38729400  0.24214800  1
  O  O1  1  0.44811900  0.13507200  0.05948100  1
  O  O2  1  0.45790900  0.74576600  0.44167400  1
  O  O3  1  0.54209100  0.74576600  0.94167400  1
  O  O4  1  0.55188100  0.13507200  0.55948100  1
  O  O5  1  0.73129900  0.38729400  0.74214800  1
  O  O6  1  0.79179300  0.66646000  0.25633200  1
  O  O7  1  0.98335500  0.82639600  0.44405600  1
  O  O8  1  0.98660700  0.22330400  0.05328800  1
  O  O9  1  0.01339300  0.22330400  0.55328800  1
  O  O10  1  0.01664500  0.82639600  0.94405600  1
  O  O11  1  0.20820700  0.66646000  0.75633200  1
loop_
_geom_bond_atom_site_label_1
_geom_bond_atom_site_label_2
_geom_bond_distance
_geom_bond_site_symmetry_2
La0 O11 2.352385 1_555
La0 O10 2.391195 1_545
La0 O9 2.405623 1_555
La0 O5 2.570666 1_555
La0 O3 2.600097 1_545
La0 O4 2.605614 1_555
La0 O1 2.741480 1_556
La0 O2 2.762406 1_555
La1 O6 2.352385 1_555
La1 O7 2.391195 1_545
La1 O8 2.405623 1_555
La1 O0 2.570666 1_555
La1 O2 2.600097 1_545
La1 O1 2.605614 1_555
La1 O4 2.741480 1_555
La1 O3 2.762406 1_554
Mg0 O5 2.182480 1_555
Mg0 O4 2.195137 1_565
Mg0 O3 2.225578 1_555
Mg0 O10 2.279883 1_655
Mg0 O11 2.288725 1_655
Mg0 O9 2.300378 1_665
Mg1 O0 2.182480 1_555
Mg1 O1 2.195137 1_565
Mg1 O2 2.225578 1_555
Mg1 O7 2.279883 1_455
Mg1 O6 2.288725 1_455
Mg1 O8 2.300378 1_465
Cr0 O9 1.897782 1_655
Cr0 O6 1.937665 1_555
Cr0 O5 1.951290 1_555
Cr0 O7 1.971577 1_555
Cr0 O2 1.972726 1_555
Cr0 O4 2.024560 1_555
Cr1 O8 1.897782 1_455
Cr1 O11 1.937665 1_554
Cr1 O0 1.951290 1_555
Cr1 O10 1.971577 1_554
Cr1 O3 1.972726 1_554
Cr1 O1 2.024560 1_555
Fe0 O10 1.965387 1_655
Fe0 O1 2.001038 1_566
Fe0 O6 2.018738 1_556
Fe0 O8 2.027600 1_566
Fe0 O3 2.056051 1_555
Fe0 O5 2.087908 1_565
Fe1 O7 1.965387 1_455
Fe1 O4 2.001038 1_565
Fe1 O11 2.018738 1_555
Fe1 O9 2.027600 1_565
Fe1 O2 2.056051 1_555
Fe1 O0 2.087908 1_565
