# generated using pymatgen
data_Hf2SN2
_symmetry_space_group_name_H-M   'P 1'
_cell_length_a   3.48300627
_cell_length_b   4.09921530
_cell_length_c   6.29977424
_cell_angle_alpha   108.98655581
_cell_angle_beta   106.04778136
_cell_angle_gamma   90.00000000
_symmetry_Int_Tables_number   1
_chemical_formula_structural   Hf2SN2
_chemical_formula_sum   'Hf2 S1 N2'
_cell_volume   81.33646455
_cell_formula_units_Z   1
loop_
 _symmetry_equiv_pos_site_id
 _symmetry_equiv_pos_as_xyz
  1  'x, y, z'
loop_
 _atom_site_type_symbol
 _atom_site_label
 _atom_site_symmetry_multiplicity
 _atom_site_fract_x
 _atom_site_fract_y
 _atom_site_fract_z
 _atom_site_occupancy
  Hf  Hf0  1  0.67423471  0.17423471  0.34846941  1
  Hf  Hf1  1  0.32576529  0.82576529  0.65153059  1
  S  S0  1  -0.00000000  -0.00000000  -0.00000000  1
  N  N0  1  0.27812316  0.27812316  0.55624532  1
  N  N1  1  0.72187684  0.72187684  0.44375468  1
loop_
_geom_bond_atom_site_label_1
_geom_bond_atom_site_label_2
_geom_bond_distance
_geom_bond_site_symmetry_2
Hf0 N0 2.105675 1_555
Hf0 N0 2.105678 1_655
Hf0 N1 2.120268 1_555
Hf0 N1 2.120272 1_545
Hf0 S0 2.640773 1_655
Hf0 S0 2.640773 1_555
Hf1 N1 2.105675 1_555
Hf1 N1 2.105678 1_455
Hf1 N0 2.120268 1_555
Hf1 N0 2.120272 1_565
Hf1 S0 2.640773 1_566
Hf1 S0 2.640773 1_666
