# generated using pymatgen
data_Li12V3NiP4(CO7)4
_symmetry_space_group_name_H-M   'P 1'
_cell_length_a   6.59350800
_cell_length_b   8.45175800
_cell_length_c   9.97812751
_cell_angle_alpha   84.70989285
_cell_angle_beta   90.00000000
_cell_angle_gamma   90.00000000
_symmetry_Int_Tables_number   1
_chemical_formula_structural   Li12V3NiP4(CO7)4
_chemical_formula_sum   'Li12 V3 Ni1 P4 C4 O28'
_cell_volume   553.68004282
_cell_formula_units_Z   1
loop_
 _symmetry_equiv_pos_site_id
 _symmetry_equiv_pos_as_xyz
  1  'x, y, z'
loop_
 _atom_site_type_symbol
 _atom_site_label
 _atom_site_symmetry_multiplicity
 _atom_site_fract_x
 _atom_site_fract_y
 _atom_site_fract_z
 _atom_site_occupancy
  Li  Li0  1  0.00000000  0.90309500  0.61704700  1
  Li  Li1  1  0.00000000  0.90174000  0.11671800  1
  Li  Li2  1  0.22320900  0.72065600  0.87544400  1
  Li  Li3  1  0.77679100  0.72065600  0.87544400  1
  Li  Li4  1  0.22300100  0.72170300  0.37529500  1
  Li  Li5  1  0.77699900  0.72170300  0.37529500  1
  Li  Li6  1  0.72519100  0.27809000  0.62214500  1
  Li  Li7  1  0.27480900  0.27809000  0.62214500  1
  Li  Li8  1  0.72357600  0.27885600  0.12549900  1
  Li  Li9  1  0.27642400  0.27885600  0.12549900  1
  Li  Li10  1  0.50000000  0.09633700  0.88346300  1
  Li  Li11  1  0.50000000  0.09539500  0.38300000  1
  V  V0  1  0.50000000  0.67131100  0.60337600  1
  V  V1  1  0.50000000  0.67132100  0.10404800  1
  V  V2  1  0.00000000  0.32728600  0.89594900  1
  Ni  Ni0  1  0.00000000  0.33134600  0.39710200  1
  P  P0  1  0.00000000  0.58806000  0.63666400  1
  P  P1  1  0.00000000  0.58732700  0.14124700  1
  P  P2  1  0.50000000  0.40975900  0.86008900  1
  P  P3  1  0.50000000  0.41049600  0.35991000  1
  C  C0  1  0.50000000  0.96618200  0.65185000  1
  C  C1  1  0.50000000  0.96593600  0.15214300  1
  C  C2  1  0.00000000  0.03277600  0.84866800  1
  C  C3  1  0.00000000  0.04021400  0.35057700  1
  O  O0  1  0.50000000  0.92681300  0.52908300  1
  O  O1  1  0.00000000  0.88620900  0.82155600  1
  O  O2  1  0.50000000  0.92667800  0.02914000  1
  O  O3  1  0.50000000  0.85216500  0.74894600  1
  O  O4  1  0.00000000  0.89446500  0.32006300  1
  O  O5  1  0.50000000  0.85209400  0.24917400  1
  O  O6  1  0.18265400  0.69242600  0.58424600  1
  O  O7  1  0.81734600  0.69242600  0.58424600  1
  O  O8  1  0.18238100  0.69239700  0.08910600  1
  O  O9  1  0.81761900  0.69239700  0.08910600  1
  O  O10  1  0.50000000  0.57755600  0.90982900  1
  O  O11  1  0.00000000  0.56737000  0.79391000  1
  O  O12  1  0.50000000  0.57807300  0.40944900  1
  O  O13  1  0.00000000  0.56354400  0.29897900  1
  O  O14  1  0.50000000  0.42941900  0.70287200  1
  O  O15  1  0.00000000  0.42033500  0.58537800  1
  O  O16  1  0.50000000  0.42943600  0.20271400  1
  O  O17  1  0.00000000  0.42166300  0.08831600  1
  O  O18  1  0.31723700  0.30610900  0.91397000  1
  O  O19  1  0.68276300  0.30610900  0.91397000  1
  O  O20  1  0.68571600  0.30793300  0.41297800  1
  O  O21  1  0.31428400  0.30793300  0.41297800  1
  O  O22  1  0.00000000  0.14713300  0.75180000  1
  O  O23  1  0.50000000  0.11318300  0.67863400  1
  O  O24  1  0.00000000  0.15788400  0.25599600  1
  O  O25  1  0.00000000  0.07201100  0.97175500  1
  O  O26  1  0.50000000  0.11286700  0.17894100  1
  O  O27  1  0.00000000  0.07618000  0.47424800  1
loop_
_geom_bond_atom_site_label_1
_geom_bond_atom_site_label_2
_geom_bond_distance
_geom_bond_site_symmetry_2
Li0 O27 1.945735 1_565
Li0 O1 2.032433 1_555
Li0 O6 2.198921 1_555
Li0 O7 2.198921 1_455
Li1 O25 1.944064 1_564
Li1 O4 2.024259 1_555
Li1 O9 2.177696 1_455
Li1 O8 2.177696 1_555
Li2 O1 2.067409 1_555
Li2 O8 2.140284 1_556
Li2 O11 2.168094 1_555
Li2 O10 2.198789 1_555
Li2 O3 2.429113 1_555
Li3 O1 2.067409 1_655
Li3 O9 2.140284 1_556
Li3 O11 2.168094 1_655
Li3 O10 2.198789 1_555
Li3 O3 2.429113 1_555
Li4 O6 2.093762 1_555
Li4 O4 2.109339 1_555
Li4 O13 2.171715 1_555
Li4 O12 2.202088 1_555
Li4 O5 2.424492 1_555
Li5 O7 2.093762 1_555
Li5 O4 2.109339 1_655
Li5 O13 2.171715 1_655
Li5 O12 2.202088 1_555
Li5 O5 2.424492 1_555
Li6 O23 2.078466 1_555
Li6 O20 2.095294 1_555
Li6 O14 2.163162 1_555
Li6 O15 2.186728 1_655
Li6 O22 2.432670 1_655
Li7 O23 2.078466 1_555
Li7 O21 2.095294 1_555
Li7 O14 2.163162 1_555
Li7 O15 2.186728 1_555
Li7 O22 2.432670 1_555
Li8 O26 2.070665 1_555
Li8 O19 2.119133 1_554
Li8 O16 2.137105 1_555
Li8 O17 2.198577 1_655
Li8 O24 2.411898 1_655
Li9 O26 2.070665 1_555
Li9 O18 2.119133 1_554
Li9 O16 2.137105 1_555
Li9 O17 2.198577 1_555
Li9 O24 2.411898 1_555
Li10 O2 1.945425 1_546
Li10 O23 2.035626 1_555
Li10 O18 2.188069 1_555
Li10 O19 2.188069 1_555
Li11 O0 1.942119 1_545
Li11 O26 2.027850 1_555
Li11 O21 2.216928 1_555
Li11 O20 2.216928 1_555
Ni0 O21 2.086295 1_555
Ni0 O20 2.086295 1_455
Ni0 O15 2.086987 1_555
Ni0 O13 2.110837 1_555
Ni0 O24 2.124228 1_555
Ni0 O27 2.222018 1_555
C0 O23 1.294702 1_565
C0 O0 1.298638 1_555
C0 O3 1.301959 1_555
C1 O26 1.294164 1_565
C1 O5 1.300528 1_555
C1 O2 1.300594 1_555
C2 O1 1.292083 1_545
C2 O25 1.301338 1_555
C2 O22 1.302357 1_555
C3 O4 1.295871 1_545
C3 O27 1.297821 1_555
C3 O24 1.306386 1_555
O0 V0 2.217552 1_555
O2 V1 2.217905 1_555
O3 V0 2.203548 1_555
O5 V1 2.199829 1_555
O6 P0 1.554658 1_555
O6 V0 2.107187 1_555
O7 P0 1.554658 1_655
O7 V0 2.107187 1_555
O8 P1 1.555685 1_555
O8 V1 2.105904 1_555
O9 P1 1.555685 1_655
O9 V1 2.105904 1_555
O10 P2 1.545105 1_555
O10 V1 2.160286 1_556
O11 P0 1.562630 1_555
O11 V2 2.184734 1_555
O12 P3 1.542530 1_555
O12 V0 2.155573 1_555
O13 P1 1.568163 1_555
O14 P2 1.562198 1_555
O14 V0 2.188830 1_555
O15 P0 1.550855 1_555
O16 P3 1.561917 1_555
O16 V1 2.185748 1_555
O17 P1 1.541341 1_555
O17 V2 2.145439 1_554
O18 P2 1.556202 1_555
O18 V2 2.105626 1_555
O19 P2 1.556202 1_555
O19 V2 2.105626 1_655
O20 P3 1.564164 1_555
O21 P3 1.564164 1_555
O22 V2 2.188833 1_555
O25 V2 2.219486 1_555
