# generated using pymatgen
data_RbUCuS3
_symmetry_space_group_name_H-M   'P 1'
_cell_length_a   7.64617154
_cell_length_b   7.64617154
_cell_length_c   10.30767700
_cell_angle_alpha   90.00000000
_cell_angle_beta   90.00000000
_cell_angle_gamma   149.82490024
_symmetry_Int_Tables_number   1
_chemical_formula_structural   RbUCuS3
_chemical_formula_sum   'Rb2 U2 Cu2 S6'
_cell_volume   302.90722410
_cell_formula_units_Z   2
loop_
 _symmetry_equiv_pos_site_id
 _symmetry_equiv_pos_as_xyz
  1  'x, y, z'
loop_
 _atom_site_type_symbol
 _atom_site_label
 _atom_site_symmetry_multiplicity
 _atom_site_fract_x
 _atom_site_fract_y
 _atom_site_fract_z
 _atom_site_occupancy
  Rb  Rb0  1  0.74181700  0.25818300  0.25000000  1
  Rb  Rb1  1  0.25818300  0.74181700  0.75000000  1
  U  U0  1  0.00000000  0.00000000  0.50000000  1
  U  U1  1  0.00000000  0.00000000  0.00000000  1
  Cu  Cu0  1  0.53331900  0.46668100  0.75000000  1
  Cu  Cu1  1  0.46668100  0.53331900  0.25000000  1
  S  S0  1  0.61737300  0.38262700  0.56094700  1
  S  S1  1  0.38262700  0.61737300  0.43905300  1
  S  S2  1  0.38262700  0.61737300  0.06094700  1
  S  S3  1  0.94336400  0.05663600  0.75000000  1
  S  S4  1  0.05663600  0.94336400  0.25000000  1
  S  S5  1  0.61737300  0.38262700  0.93905300  1
loop_
_geom_bond_atom_site_label_1
_geom_bond_atom_site_label_2
_geom_bond_distance
_geom_bond_site_symmetry_2
Rb0 S4 3.381888 1_545
Rb0 S4 3.381888 1_655
Rb0 S1 3.475796 1_545
Rb0 S1 3.475796 1_655
Rb0 S2 3.475796 1_545
Rb0 S2 3.475796 1_655
Rb0 S0 3.694472 1_555
Rb0 S5 3.694472 1_554
Rb1 S3 3.381888 1_455
Rb1 S3 3.381888 1_565
Rb1 S5 3.475796 1_565
Rb1 S5 3.475796 1_455
Rb1 S0 3.475796 1_565
Rb1 S0 3.475796 1_455
Rb1 S2 3.694472 1_556
Rb1 S1 3.694472 1_555
Cu0 S5 2.310343 1_555
Cu0 S0 2.310343 1_555
Cu0 S3 2.392750 1_455
Cu0 S3 2.392750 1_565
Cu1 S1 2.310343 1_555
Cu1 S2 2.310343 1_555
Cu1 S4 2.392750 1_545
Cu1 S4 2.392750 1_655
S0 U0 2.712785 1_555
S0 U0 2.712785 1_665
S1 U0 2.712785 1_665
S1 U0 2.712785 1_555
S2 U1 2.712785 1_665
S2 U1 2.712785 1_555
S3 U0 2.709209 1_655
S3 U1 2.709209 1_656
S4 U0 2.709209 1_565
S4 U1 2.709209 1_565
S5 U1 2.712785 1_556
S5 U1 2.712785 1_666
