# generated using pymatgen
data_Zr6BH42C12I13O12
_symmetry_space_group_name_H-M   'P 1'
_cell_length_a   11.69019128
_cell_length_b   11.69019128
_cell_length_c   11.69019168
_cell_angle_alpha   103.39318978
_cell_angle_beta   103.39318978
_cell_angle_gamma   103.39318539
_symmetry_Int_Tables_number   1
_chemical_formula_structural   Zr6BH42C12I13O12
_chemical_formula_sum   'Zr6 B1 H42 C12 I13 O12'
_cell_volume   1441.53794632
_cell_formula_units_Z   1
loop_
 _symmetry_equiv_pos_site_id
 _symmetry_equiv_pos_as_xyz
  1  'x, y, z'
loop_
 _atom_site_type_symbol
 _atom_site_label
 _atom_site_symmetry_multiplicity
 _atom_site_fract_x
 _atom_site_fract_y
 _atom_site_fract_z
 _atom_site_occupancy
  Zr  Zr0  1  0.01808200  0.78186200  0.88180100  1
  Zr  Zr1  1  0.78186200  0.88180100  0.01808200  1
  Zr  Zr2  1  0.88180100  0.01808200  0.78186200  1
  Zr  Zr3  1  0.98191800  0.21813800  0.11819900  1
  Zr  Zr4  1  0.21813800  0.11819900  0.98191800  1
  Zr  Zr5  1  0.11819900  0.98191800  0.21813800  1
  B  B0  1  0.00000000  0.00000000  0.00000000  1
  H  H0  1  0.73296600  0.45939200  0.59461500  1
  H  H1  1  0.45939200  0.59461500  0.73296600  1
  H  H2  1  0.59461500  0.73296600  0.45939200  1
  H  H3  1  0.26703400  0.54060800  0.40538500  1
  H  H4  1  0.54060800  0.40538500  0.26703400  1
  H  H5  1  0.40538500  0.26703400  0.54060800  1
  H  H6  1  0.20593300  0.57795700  0.82499300  1
  H  H7  1  0.57795700  0.82499300  0.20593300  1
  H  H8  1  0.82499300  0.20593300  0.57795700  1
  H  H9  1  0.79406700  0.42204300  0.17500700  1
  H  H10  1  0.42204300  0.17500700  0.79406700  1
  H  H11  1  0.17500700  0.79406700  0.42204300  1
  H  H12  1  0.06630200  0.46567400  0.71830500  1
  H  H13  1  0.46567400  0.71830500  0.06630200  1
  H  H14  1  0.71830500  0.06630200  0.46567400  1
  H  H15  1  0.93369800  0.53432600  0.28169500  1
  H  H16  1  0.53432600  0.28169500  0.93369800  1
  H  H17  1  0.28169500  0.93369800  0.53432600  1
  H  H18  1  0.09429100  0.49162500  0.88089300  1
  H  H19  1  0.49162500  0.88089300  0.09429100  1
  H  H20  1  0.88089300  0.09429100  0.49162500  1
  H  H21  1  0.90570900  0.50837500  0.11910700  1
  H  H22  1  0.50837500  0.11910700  0.90570900  1
  H  H23  1  0.11910700  0.90570900  0.50837500  1
  H  H24  1  0.82599400  0.48691000  0.44019500  1
  H  H25  1  0.48691000  0.44019500  0.82599400  1
  H  H26  1  0.44019500  0.82599400  0.48691000  1
  H  H27  1  0.17400600  0.51309000  0.55980500  1
  H  H28  1  0.51309000  0.55980500  0.17400600  1
  H  H29  1  0.55980500  0.17400600  0.51309000  1
  H  H30  1  0.72271900  0.33505100  0.40236700  1
  H  H31  1  0.33505100  0.40236700  0.72271900  1
  H  H32  1  0.40236700  0.72271900  0.33505100  1
  H  H33  1  0.27728100  0.66494900  0.59763300  1
  H  H34  1  0.66494900  0.59763300  0.27728100  1
  H  H35  1  0.59763300  0.27728100  0.66494900  1
  H  H36  1  0.88534900  0.36404900  0.46500800  1
  H  H37  1  0.36404900  0.46500800  0.88534900  1
  H  H38  1  0.46500800  0.88534900  0.36404900  1
  H  H39  1  0.11465100  0.63595100  0.53499200  1
  H  H40  1  0.63595100  0.53499200  0.11465100  1
  H  H41  1  0.53499200  0.11465100  0.63595100  1
  C  C0  1  0.10654200  0.53620900  0.80918100  1
  C  C1  1  0.53620900  0.80918100  0.10654200  1
  C  C2  1  0.80918100  0.10654200  0.53620900  1
  C  C3  1  0.89345800  0.46379100  0.19081900  1
  C  C4  1  0.46379100  0.19081900  0.89345800  1
  C  C5  1  0.19081900  0.89345800  0.46379100  1
  C  C6  1  0.80866000  0.40252400  0.46892600  1
  C  C7  1  0.40252400  0.46892600  0.80866000  1
  C  C8  1  0.46892600  0.80866000  0.40252400  1
  C  C9  1  0.19134000  0.59747600  0.53107400  1
  C  C10  1  0.59747600  0.53107400  0.19134000  1
  C  C11  1  0.53107400  0.19134000  0.59747600  1
  I  I0  1  0.14392100  0.74210800  0.11184900  1
  I  I1  1  0.74210800  0.11184900  0.14392100  1
  I  I2  1  0.11184900  0.14392100  0.74210800  1
  I  I3  1  0.85607900  0.25789200  0.88815100  1
  I  I4  1  0.25789200  0.88815100  0.85607900  1
  I  I5  1  0.88815100  0.85607900  0.25789200  1
  I  I6  1  0.78126100  0.63504800  0.89316500  1
  I  I7  1  0.63504800  0.89316500  0.78126100  1
  I  I8  1  0.89316500  0.78126100  0.63504800  1
  I  I9  1  0.21873900  0.36495200  0.10683500  1
  I  I10  1  0.36495200  0.10683500  0.21873900  1
  I  I11  1  0.10683500  0.21873900  0.36495200  1
  I  I12  1  0.50000000  0.50000000  0.50000000  1
  O  O0  1  0.04712700  0.62823700  0.81446600  1
  O  O1  1  0.62823700  0.81446600  0.04712700  1
  O  O2  1  0.81446600  0.04712700  0.62823700  1
  O  O3  1  0.95287300  0.37176300  0.18553400  1
  O  O4  1  0.37176300  0.18553400  0.95287300  1
  O  O5  1  0.18553400  0.95287300  0.37176300  1
  O  O6  1  0.80306200  0.42763800  0.59276500  1
  O  O7  1  0.42763800  0.59276500  0.80306200  1
  O  O8  1  0.59276500  0.80306200  0.42763800  1
  O  O9  1  0.19693800  0.57236200  0.40723600  1
  O  O10  1  0.57236200  0.40723500  0.19693800  1
  O  O11  1  0.40723500  0.19693800  0.57236200  1
loop_
_geom_bond_atom_site_label_1
_geom_bond_atom_site_label_2
_geom_bond_distance
_geom_bond_site_symmetry_2
B0 Zr3 2.685054 1_455
B0 Zr0 2.685054 1_544
B0 Zr5 2.685054 1_545
B0 Zr2 2.685054 1_454
B0 Zr4 2.685054 1_554
B0 Zr1 2.685054 1_445
H0 O6 0.977316 1_555
H1 O7 0.977317 1_555
H2 O8 0.977317 1_555
H3 O9 0.977318 1_555
H4 O10 0.977317 1_555
H5 O11 0.977317 1_555
C0 H12 1.101264 1_555
C0 H6 1.103802 1_555
C0 H18 1.103813 1_555
C0 O0 1.406735 1_555
C1 H13 1.101264 1_555
C1 H7 1.103802 1_555
C1 H19 1.103813 1_555
C1 O1 1.406735 1_555
C2 H14 1.101264 1_555
C2 H8 1.103802 1_555
C2 H20 1.103813 1_555
C2 O2 1.406736 1_555
C3 H15 1.101264 1_555
C3 H9 1.103802 1_555
C3 H21 1.103813 1_555
C3 O3 1.406735 1_555
C4 H16 1.101264 1_555
C4 H10 1.103802 1_555
C4 H22 1.103813 1_555
C4 O4 1.406735 1_555
C5 H17 1.101264 1_555
C5 H11 1.103802 1_555
C5 H23 1.103813 1_555
C5 O5 1.406736 1_555
C6 H36 1.097456 1_555
C6 H24 1.104287 1_555
C6 H30 1.106055 1_555
C6 O6 1.429058 1_555
C7 H37 1.097456 1_555
C7 H25 1.104287 1_555
C7 H31 1.106055 1_555
C7 O7 1.429058 1_555
C8 H38 1.097456 1_555
C8 H26 1.104287 1_555
C8 H32 1.106055 1_555
C8 O8 1.429058 1_555
C9 H39 1.097456 1_555
C9 H27 1.104287 1_555
C9 H33 1.106055 1_555
C9 O9 1.429047 1_555
C10 H40 1.097456 1_555
C10 H28 1.104287 1_555
C10 H34 1.106055 1_555
C10 O10 1.429058 1_555
C11 H41 1.097456 1_555
C11 H29 1.104287 1_555
C11 H35 1.106055 1_555
C11 O11 1.429058 1_555
I0 Zr5 2.905753 1_555
I0 Zr0 2.945397 1_554
I1 Zr3 2.905753 1_555
I1 Zr1 2.945397 1_545
I2 Zr4 2.905753 1_555
I2 Zr2 2.945397 1_455
I3 Zr2 2.905753 1_555
I3 Zr3 2.945397 1_556
I4 Zr0 2.905753 1_555
I4 Zr4 2.945397 1_565
I5 Zr1 2.905753 1_555
I5 Zr5 2.945397 1_655
I6 Zr1 2.913384 1_556
I6 Zr0 2.950014 1_655
I7 Zr2 2.913384 1_565
I7 Zr1 2.950014 1_556
I8 Zr0 2.913384 1_655
I8 Zr2 2.950014 1_565
I9 Zr4 2.913384 1_554
I9 Zr3 2.950014 1_455
I10 Zr5 2.913384 1_545
I10 Zr4 2.950014 1_554
I11 Zr3 2.913384 1_455
I11 Zr5 2.950014 1_545
O0 Zr0 1.926550 1_555
O1 Zr1 1.926550 1_555
O2 Zr2 1.926550 1_555
O3 Zr3 1.926550 1_555
O4 Zr4 1.926550 1_555
O5 Zr5 1.926550 1_555
