# generated using pymatgen
data_CeGe3Rh
_symmetry_space_group_name_H-M   'P 1'
_cell_length_a   5.91268708
_cell_length_b   5.91268708
_cell_length_c   5.91268708
_cell_angle_alpha   136.27461284
_cell_angle_beta   136.27461284
_cell_angle_gamma   63.55606405
_symmetry_Int_Tables_number   1
_chemical_formula_structural   CeGe3Rh
_chemical_formula_sum   'Ce1 Ge3 Rh1'
_cell_volume   97.46821145
_cell_formula_units_Z   1
loop_
 _symmetry_equiv_pos_site_id
 _symmetry_equiv_pos_as_xyz
  1  'x, y, z'
loop_
 _atom_site_type_symbol
 _atom_site_label
 _atom_site_symmetry_multiplicity
 _atom_site_fract_x
 _atom_site_fract_y
 _atom_site_fract_z
 _atom_site_occupancy
  Ce  Ce0  1  0.42219411  0.42219411  0.00000000  1
  Ge  Ge0  1  0.15799130  0.65799130  0.50000000  1
  Ge  Ge1  1  0.65799130  0.15799130  0.50000000  1
  Ge  Ge2  1  0.99933577  0.99933577  -0.00000000  1
  Rh  Rh0  1  0.76128751  0.76128751  -0.00000000  1
loop_
_geom_bond_atom_site_label_1
_geom_bond_atom_site_label_2
_geom_bond_distance
_geom_bond_site_symmetry_2
Ce0 Ge2 3.208911 1_455
Ce0 Ge2 3.208911 1_444
Ce0 Ge2 3.208911 1_545
Ce0 Ge2 3.208911 1_556
Ce0 Ge0 3.235219 1_554
Ce0 Ge0 3.235219 1_655
Ce0 Ge1 3.235219 1_554
Ce0 Ge1 3.235219 1_565
Ce0 Rh0 3.408800 1_555
Ce0 Ge0 3.449917 1_544
Ce0 Ge0 3.449917 1_555
Ce0 Ge1 3.449917 1_555
Ce0 Ge1 3.449917 1_454
Ce0 Rh0 3.508872 1_545
Ce0 Rh0 3.508872 1_455
Ce0 Rh0 3.508872 1_556
Ce0 Rh0 3.508872 1_444
Ge0 Rh0 2.434369 1_556
Ge0 Rh0 2.434369 1_455
Ge0 Ge2 2.718753 1_445
Ge0 Ge2 2.718753 1_456
Ge1 Rh0 2.434369 1_556
Ge1 Rh0 2.434369 1_545
Ge1 Ge2 2.718753 1_546
Ge1 Ge2 2.718753 1_445
Ge2 Rh0 2.393025 1_555
