# generated using pymatgen
data_SiO2
_symmetry_space_group_name_H-M   'P 1'
_cell_length_a   13.13454147
_cell_length_b   13.13454279
_cell_length_c   15.33321655
_cell_angle_alpha   90.00023311
_cell_angle_beta   89.99979009
_cell_angle_gamma   120.00065725
_symmetry_Int_Tables_number   1
_chemical_formula_structural   SiO2
_chemical_formula_sum   'Si36 O72'
_cell_volume   2290.81965277
_cell_formula_units_Z   36
loop_
 _symmetry_equiv_pos_site_id
 _symmetry_equiv_pos_as_xyz
  1  'x, y, z'
loop_
 _atom_site_type_symbol
 _atom_site_label
 _atom_site_symmetry_multiplicity
 _atom_site_fract_x
 _atom_site_fract_y
 _atom_site_fract_z
 _atom_site_occupancy
  Si  Si0  1  0.99730865  0.24100778  0.10087216  1
  Si  Si1  1  0.75899615  0.76461550  0.10087033  1
  Si  Si2  1  0.23539035  0.00269006  0.10087041  1
  Si  Si3  1  0.99715025  0.76451932  0.60087111  1
  Si  Si4  1  0.23547054  0.24092135  0.60086689  1
  Si  Si5  1  0.75907272  0.00284563  0.60087163  1
  Si  Si6  1  0.75899218  0.00269136  0.10087219  1
  Si  Si7  1  0.23538443  0.24100381  0.10087035  1
  Si  Si8  1  0.99730993  0.76460965  0.10087042  1
  Si  Si9  1  0.23548070  0.00284984  0.60087106  1
  Si  Si10  1  0.75907854  0.76452941  0.60086689  1
  Si  Si11  1  0.99715433  0.24092725  0.60087165  1
  Si  Si12  1  0.99715028  0.76452079  0.89899434  1
  Si  Si13  1  0.23547253  0.24092285  0.89899443  1
  Si  Si14  1  0.75907449  0.00284674  0.89899455  1
  Si  Si15  1  0.99730825  0.24100626  0.39899463  1
  Si  Si16  1  0.75899407  0.76461474  0.39899166  1
  Si  Si17  1  0.23539106  0.00269127  0.39899363  1
  Si  Si18  1  0.23547922  0.00284978  0.89899435  1
  Si  Si19  1  0.75907709  0.76452742  0.89899441  1
  Si  Si20  1  0.99715328  0.24092555  0.89899455  1
  Si  Si21  1  0.75899372  0.00269184  0.39899466  1
  Si  Si22  1  0.23538564  0.24100621  0.39899144  1
  Si  Si23  1  0.99730893  0.76460898  0.39899365  1
  Si  Si24  1  0.08886466  0.42649869  0.24993454  1
  Si  Si25  1  0.57349543  0.67066255  0.24993018  1
  Si  Si26  1  0.32933812  0.91113843  0.24993249  1
  Si  Si27  1  0.90560388  0.57903706  0.74993369  1
  Si  Si28  1  0.42095944  0.33486856  0.74993012  1
  Si  Si29  1  0.66512727  0.09439291  0.74993312  1
  Si  Si30  1  0.57350129  0.91113539  0.24993443  1
  Si  Si31  1  0.32933753  0.42650473  0.24993013  1
  Si  Si32  1  0.08886160  0.67066185  0.24993250  1
  Si  Si33  1  0.42096297  0.09439621  0.74993375  1
  Si  Si34  1  0.66513146  0.57904060  0.74993011  1
  Si  Si35  1  0.90560687  0.33487260  0.74993300  1
  O  O0  1  0.87048990  0.12951010  0.12689263  1
  O  O1  1  0.87049720  0.74930205  0.12689408  1
  O  O2  1  0.25069780  0.12950273  0.12689409  1
  O  O3  1  0.12397964  0.87602044  0.62689369  1
  O  O4  1  0.12397793  0.25625090  0.62689457  1
  O  O5  1  0.74374903  0.87602205  0.62689456  1
  O  O6  1  0.12397991  0.87602011  0.87296987  1
  O  O7  1  0.12397720  0.25625051  0.87297080  1
  O  O8  1  0.74374969  0.87602290  0.87297094  1
  O  O9  1  0.87048863  0.12951129  0.37297317  1
  O  O10  1  0.87049612  0.74930109  0.37296943  1
  O  O11  1  0.25069926  0.12950416  0.37296916  1
  O  O12  1  0.02347434  0.35146364  0.16273909  1
  O  O13  1  0.64854179  0.68031905  0.16273811  1
  O  O14  1  0.31967463  0.97652667  0.16274277  1
  O  O15  1  0.97100277  0.65407739  0.66274227  1
  O  O16  1  0.34591182  0.32521811  0.66274180  1
  O  O17  1  0.67477933  0.02899708  0.66274383  1
  O  O18  1  0.64853621  0.97652570  0.16273899  1
  O  O19  1  0.31968090  0.35145813  0.16273821  1
  O  O20  1  0.02347330  0.68032534  0.16274278  1
  O  O21  1  0.34592256  0.02899732  0.66274229  1
  O  O22  1  0.67478170  0.65408809  0.66274174  1
  O  O23  1  0.97100304  0.32522111  0.66274365  1
  O  O24  1  0.97100410  0.65407905  0.83712448  1
  O  O25  1  0.34591435  0.32521755  0.83711983  1
  O  O26  1  0.67478170  0.02899736  0.83712040  1
  O  O27  1  0.02347178  0.35146194  0.33712861  1
  O  O28  1  0.64854010  0.68031827  0.33712368  1
  O  O29  1  0.31967480  0.97652706  0.33712229  1
  O  O30  1  0.34592108  0.02899590  0.83712459  1
  O  O31  1  0.67478202  0.65408540  0.83711997  1
  O  O32  1  0.97100234  0.32521798  0.83712032  1
  O  O33  1  0.64853812  0.97652802  0.33712853  1
  O  O34  1  0.31968198  0.35146019  0.33712343  1
  O  O35  1  0.02347283  0.68032495  0.33712237  1
  O  O36  1  0.09774212  0.20379618  0.11455527  1
  O  O37  1  0.79620366  0.90225781  0.11455519  1
  O  O38  1  0.09775081  0.90224919  0.11454935  1
  O  O39  1  0.89671287  0.80171599  0.61455491  1
  O  O40  1  0.19828385  0.10328705  0.61455491  1
  O  O41  1  0.89670868  0.10329131  0.61454689  1
  O  O42  1  0.89671153  0.80171462  0.88531028  1
  O  O43  1  0.19828495  0.10328825  0.88531022  1
  O  O44  1  0.89670927  0.10329075  0.88531826  1
  O  O45  1  0.09774240  0.20379670  0.38530694  1
  O  O46  1  0.79620340  0.90225793  0.38530702  1
  O  O47  1  0.09775239  0.90224769  0.38531134  1
  O  O48  1  0.99721862  0.27957102  0.99993287  1
  O  O49  1  0.72041887  0.72595482  0.99993291  1
  O  O50  1  0.27405324  0.00278965  0.99993361  1
  O  O51  1  0.99721014  0.72594658  0.49993119  1
  O  O52  1  0.27404512  0.27958156  0.49992967  1
  O  O53  1  0.72042933  0.00278120  0.49993283  1
  O  O54  1  0.72042926  0.00278151  0.99993285  1
  O  O55  1  0.27404539  0.27958136  0.99993294  1
  O  O56  1  0.99721013  0.72594662  0.99993360  1
  O  O57  1  0.27405338  0.00278984  0.49993116  1
  O  O58  1  0.72041827  0.72595448  0.49992975  1
  O  O59  1  0.99721873  0.27957051  0.49993284  1
  O  O60  1  0.22647516  0.46124773  0.24993127  1
  O  O61  1  0.53875276  0.77352517  0.24993128  1
  O  O62  1  0.22646975  0.77353026  0.24993267  1
  O  O63  1  0.76800929  0.54432385  0.74993059  1
  O  O64  1  0.45567625  0.23199077  0.74993056  1
  O  O65  1  0.76801653  0.23198327  0.74993078  1
  O  O66  1  0.07979649  0.54404704  0.24993212  1
  O  O67  1  0.45593909  0.54406099  0.24993259  1
  O  O68  1  0.45595305  0.92020358  0.24993218  1
  O  O69  1  0.91465180  0.46147735  0.74993256  1
  O  O70  1  0.53851313  0.46148688  0.74993172  1
  O  O71  1  0.53852251  0.08534788  0.74993240  1
loop_
_geom_bond_atom_site_label_1
_geom_bond_atom_site_label_2
_geom_bond_distance
_geom_bond_site_symmetry_2
O0 Si6 1.624502 1_555
O0 Si0 1.624503 1_555
O1 Si1 1.624518 1_555
O1 Si8 1.624519 1_555
O2 Si7 1.624518 1_555
O2 Si2 1.624519 1_555
O3 Si3 1.624608 1_455
O3 Si9 1.624609 1_565
O4 Si4 1.624545 1_555
O4 Si11 1.624574 1_455
O5 Si10 1.624545 1_555
O5 Si5 1.624574 1_565
O6 Si12 1.624608 1_455
O6 Si18 1.624608 1_565
O7 Si13 1.624553 1_555
O7 Si20 1.624572 1_455
O8 Si19 1.624552 1_555
O8 Si14 1.624571 1_565
O9 Si21 1.624498 1_555
O9 Si15 1.624499 1_555
O10 Si23 1.624523 1_555
O10 Si16 1.624524 1_555
O11 Si22 1.624524 1_555
O11 Si17 1.624524 1_555
O12 Si0 1.619925 1_455
O12 Si24 1.627889 1_555
O13 Si1 1.619936 1_555
O13 Si25 1.627899 1_555
O14 Si2 1.619907 1_565
O14 Si26 1.627896 1_555
O15 Si3 1.619880 1_555
O15 Si27 1.627889 1_555
O16 Si4 1.619907 1_555
O16 Si28 1.627884 1_555
O17 Si5 1.619907 1_555
O17 Si29 1.627889 1_555
O18 Si6 1.619925 1_565
O18 Si30 1.627889 1_555
O19 Si7 1.619936 1_555
O19 Si31 1.627898 1_555
O20 Si8 1.619907 1_455
O20 Si32 1.627896 1_555
O21 Si9 1.619880 1_555
O21 Si33 1.627889 1_555
O22 Si10 1.619908 1_555
O22 Si34 1.627885 1_555
O23 Si11 1.619909 1_555
O23 Si35 1.627890 1_555
O24 Si12 1.619865 1_555
O24 Si27 1.627891 1_555
O25 Si13 1.619901 1_555
O25 Si28 1.627876 1_555
O26 Si14 1.619918 1_555
O26 Si29 1.627879 1_555
O27 Si15 1.619927 1_455
O27 Si24 1.627889 1_555
O28 Si16 1.619936 1_555
O28 Si25 1.627912 1_555
O29 Si17 1.619892 1_565
O29 Si26 1.627892 1_555
O30 Si18 1.619866 1_555
O30 Si33 1.627892 1_555
O31 Si19 1.619902 1_555
O31 Si34 1.627877 1_555
O32 Si20 1.619918 1_555
O32 Si35 1.627879 1_555
O33 Si21 1.619926 1_565
O33 Si30 1.627888 1_555
O34 Si22 1.619937 1_555
O34 Si31 1.627909 1_555
O35 Si23 1.619892 1_455
O35 Si32 1.627894 1_555
O36 Si7 1.633315 1_555
O36 Si0 1.633344 1_455
O37 Si1 1.633315 1_555
O37 Si6 1.633343 1_565
O38 Si8 1.633290 1_455
O38 Si2 1.633290 1_565
O39 Si3 1.633255 1_555
O39 Si10 1.633292 1_555
O40 Si9 1.633254 1_555
O40 Si4 1.633292 1_555
O41 Si11 1.633266 1_555
O41 Si5 1.633266 1_555
O42 Si12 1.633248 1_555
O42 Si19 1.633283 1_555
O43 Si18 1.633249 1_555
O43 Si13 1.633284 1_555
O44 Si14 1.633251 1_555
O44 Si20 1.633251 1_555
O45 Si22 1.633321 1_555
O45 Si15 1.633341 1_455
O46 Si16 1.633321 1_555
O46 Si21 1.633339 1_565
O47 Si17 1.633298 1_565
O47 Si23 1.633298 1_455
O48 Si0 1.628683 1_556
O48 Si20 1.628684 1_555
O49 Si1 1.628696 1_556
O49 Si19 1.628698 1_555
O50 Si2 1.628663 1_556
O50 Si18 1.628665 1_555
O51 Si3 1.628666 1_555
O51 Si23 1.628677 1_555
O52 Si4 1.628687 1_555
O52 Si22 1.628702 1_555
O53 Si21 1.628667 1_555
O53 Si5 1.628688 1_555
O54 Si6 1.628683 1_556
O54 Si14 1.628683 1_555
O55 Si7 1.628697 1_556
O55 Si13 1.628699 1_555
O56 Si8 1.628663 1_556
O56 Si12 1.628666 1_555
O57 Si9 1.628665 1_555
O57 Si17 1.628677 1_555
O58 Si10 1.628686 1_555
O58 Si16 1.628702 1_555
O59 Si15 1.628667 1_555
O59 Si11 1.628688 1_555
O60 Si31 1.627918 1_555
O60 Si24 1.627953 1_555
O61 Si25 1.627919 1_555
O61 Si30 1.627951 1_555
O62 Si32 1.627947 1_555
O62 Si26 1.627947 1_555
O63 Si34 1.627876 1_555
O63 Si27 1.627880 1_555
O64 Si28 1.627876 1_555
O64 Si33 1.627879 1_555
O65 Si35 1.627860 1_555
O65 Si29 1.627860 1_555
O66 Si32 1.606805 1_555
O66 Si24 1.606812 1_555
O67 Si31 1.606732 1_555
O67 Si25 1.606733 1_555
O68 Si26 1.606807 1_555
O68 Si30 1.606811 1_555
O69 Si35 1.606791 1_555
O69 Si27 1.606814 1_555
O70 Si28 1.606839 1_555
O70 Si34 1.606840 1_555
O71 Si29 1.606790 1_555
O71 Si33 1.606814 1_555
