# generated using pymatgen
data_YB3(H9N)2
_symmetry_space_group_name_H-M   'P 1'
_cell_length_a   7.73517804
_cell_length_b   12.26365740
_cell_length_c   19.78612654
_cell_angle_alpha   90.00000000
_cell_angle_beta   90.00000000
_cell_angle_gamma   90.00000000
_symmetry_Int_Tables_number   1
_chemical_formula_structural   YB3(H9N)2
_chemical_formula_sum   'Y8 B24 H144 N16'
_cell_volume   1876.94309528
_cell_formula_units_Z   8
loop_
 _symmetry_equiv_pos_site_id
 _symmetry_equiv_pos_as_xyz
  1  'x, y, z'
loop_
 _atom_site_type_symbol
 _atom_site_label
 _atom_site_symmetry_multiplicity
 _atom_site_fract_x
 _atom_site_fract_y
 _atom_site_fract_z
 _atom_site_occupancy
  Y  Y0  1  0.53270840  0.40750821  0.35436644  1
  Y  Y1  1  0.03270840  0.09249179  0.64563356  1
  Y  Y2  1  0.46729160  0.90750821  0.14563356  1
  Y  Y3  1  0.96729160  0.59249179  0.85436644  1
  Y  Y4  1  0.46729160  0.59249179  0.64563356  1
  Y  Y5  1  0.96729160  0.90750821  0.35436644  1
  Y  Y6  1  0.53270840  0.09249179  0.85436644  1
  Y  Y7  1  0.03270840  0.40750821  0.14563356  1
  B  B0  1  0.20612513  0.60088781  0.74670582  1
  B  B1  1  0.70612513  0.89911219  0.25329418  1
  B  B2  1  0.79387487  0.10088781  0.75329418  1
  B  B3  1  0.29387487  0.39911219  0.24670582  1
  B  B4  1  0.79387487  0.39911219  0.25329418  1
  B  B5  1  0.29387487  0.10088781  0.74670582  1
  B  B6  1  0.20612513  0.89911219  0.24670582  1
  B  B7  1  0.70612513  0.60088781  0.75329418  1
  B  B8  1  0.23907982  0.61735318  0.55385189  1
  B  B9  1  0.73907982  0.88264682  0.44614811  1
  B  B10  1  0.76092018  0.11735318  0.94614811  1
  B  B11  1  0.26092018  0.38264682  0.05385189  1
  B  B12  1  0.76092018  0.38264682  0.44614811  1
  B  B13  1  0.26092018  0.11735318  0.55385189  1
  B  B14  1  0.23907982  0.88264682  0.05385189  1
  B  B15  1  0.73907982  0.61735318  0.94614811  1
  B  B16  1  0.47179771  0.61215526  0.35704100  1
  B  B17  1  0.97179771  0.88784474  0.64295900  1
  B  B18  1  0.52820229  0.11215526  0.14295900  1
  B  B19  1  0.02820229  0.38784474  0.85704100  1
  B  B20  1  0.52820229  0.38784474  0.64295900  1
  B  B21  1  0.02820229  0.11215526  0.35704100  1
  B  B22  1  0.47179771  0.88784474  0.85704100  1
  B  B23  1  0.97179771  0.61215526  0.14295900  1
  H  H0  1  0.84812532  0.31620486  0.65535943  1
  H  H1  1  0.34812532  0.18379514  0.34464057  1
  H  H2  1  0.15187468  0.81620486  0.84464057  1
  H  H3  1  0.65187468  0.68379514  0.15535943  1
  H  H4  1  0.15187468  0.68379514  0.34464057  1
  H  H5  1  0.65187468  0.81620486  0.65535943  1
  H  H6  1  0.84812532  0.18379514  0.15535943  1
  H  H7  1  0.34812532  0.31620486  0.84464057  1
  H  H8  1  0.05300202  0.34491772  0.64333592  1
  H  H9  1  0.55300202  0.15508228  0.35666408  1
  H  H10  1  0.94699798  0.84491772  0.85666408  1
  H  H11  1  0.44699798  0.65508228  0.14333592  1
  H  H12  1  0.94699798  0.65508228  0.35666408  1
  H  H13  1  0.44699798  0.84491772  0.64333592  1
  H  H14  1  0.05300202  0.15508228  0.14333592  1
  H  H15  1  0.55300202  0.34491772  0.85666408  1
  H  H16  1  0.98419860  0.31087413  0.71833418  1
  H  H17  1  0.48419860  0.18912587  0.28166582  1
  H  H18  1  0.01580140  0.81087413  0.78166582  1
  H  H19  1  0.51580140  0.68912587  0.21833418  1
  H  H20  1  0.01580140  0.68912587  0.28166582  1
  H  H21  1  0.51580140  0.81087413  0.71833418  1
  H  H22  1  0.98419860  0.18912587  0.21833418  1
  H  H23  1  0.48419860  0.31087413  0.78166582  1
  H  H24  1  0.16399392  0.79466326  0.47254725  1
  H  H25  1  0.66399392  0.70533674  0.52745275  1
  H  H26  1  0.83600608  0.29466326  0.02745275  1
  H  H27  1  0.33600608  0.20533674  0.97254725  1
  H  H28  1  0.83600608  0.20533674  0.52745275  1
  H  H29  1  0.33600608  0.29466326  0.47254725  1
  H  H30  1  0.16399392  0.70533674  0.97254725  1
  H  H31  1  0.66399392  0.79466326  0.02745275  1
  H  H32  1  0.20799265  0.92484359  0.47554919  1
  H  H33  1  0.70799265  0.57515641  0.52445081  1
  H  H34  1  0.79200735  0.42484359  0.02445081  1
  H  H35  1  0.29200735  0.07515641  0.97554919  1
  H  H36  1  0.79200735  0.07515641  0.52445081  1
  H  H37  1  0.29200735  0.42484359  0.47554919  1
  H  H38  1  0.20799265  0.57515641  0.97554919  1
  H  H39  1  0.70799265  0.92484359  0.02445081  1
  H  H40  1  0.31351791  0.84520212  0.42361503  1
  H  H41  1  0.81351791  0.65479788  0.57638497  1
  H  H42  1  0.68648209  0.34520212  0.07638497  1
  H  H43  1  0.18648209  0.15479788  0.92361503  1
  H  H44  1  0.68648209  0.15479788  0.57638497  1
  H  H45  1  0.18648209  0.34520212  0.42361503  1
  H  H46  1  0.31351791  0.65479788  0.92361503  1
  H  H47  1  0.81351791  0.84520212  0.07638497  1
  H  H48  1  0.04877930  0.60223027  0.73886213  1
  H  H49  1  0.54877930  0.89776973  0.26113787  1
  H  H50  1  0.95122070  0.10223027  0.76113787  1
  H  H51  1  0.45122070  0.39776973  0.23886213  1
  H  H52  1  0.95122070  0.39776973  0.26113787  1
  H  H53  1  0.45122070  0.10223027  0.73886213  1
  H  H54  1  0.04877930  0.89776973  0.23886213  1
  H  H55  1  0.54877930  0.60223027  0.76113787  1
  H  H56  1  0.26145028  0.51621161  0.72186884  1
  H  H57  1  0.76145028  0.98378839  0.27813116  1
  H  H58  1  0.73854972  0.01621161  0.77813116  1
  H  H59  1  0.23854972  0.48378839  0.22186884  1
  H  H60  1  0.73854972  0.48378839  0.27813116  1
  H  H61  1  0.23854972  0.01621161  0.72186884  1
  H  H62  1  0.26145028  0.98378839  0.22186884  1
  H  H63  1  0.76145028  0.51621161  0.77813116  1
  H  H64  1  0.24801976  0.60258223  0.80660760  1
  H  H65  1  0.74801976  0.89741777  0.19339240  1
  H  H66  1  0.75198024  0.10258223  0.69339240  1
  H  H67  1  0.25198024  0.39741777  0.30660760  1
  H  H68  1  0.75198024  0.39741777  0.19339240  1
  H  H69  1  0.25198024  0.10258223  0.80660760  1
  H  H70  1  0.24801976  0.89741777  0.30660760  1
  H  H71  1  0.74801976  0.60258223  0.69339240  1
  H  H72  1  0.26422339  0.68281188  0.71910811  1
  H  H73  1  0.76422339  0.81718812  0.28089189  1
  H  H74  1  0.73577661  0.18281188  0.78089189  1
  H  H75  1  0.23577661  0.31718812  0.21910811  1
  H  H76  1  0.73577661  0.31718812  0.28089189  1
  H  H77  1  0.23577661  0.18281188  0.71910811  1
  H  H78  1  0.26422339  0.81718812  0.21910811  1
  H  H79  1  0.76422339  0.68281188  0.78089189  1
  H  H80  1  0.36089801  0.56130906  0.53322762  1
  H  H81  1  0.86089801  0.93869094  0.46677238  1
  H  H82  1  0.63910199  0.06130906  0.96677238  1
  H  H83  1  0.13910199  0.43869094  0.03322762  1
  H  H84  1  0.63910199  0.43869094  0.46677238  1
  H  H85  1  0.13910199  0.06130906  0.53322762  1
  H  H86  1  0.36089801  0.93869094  0.03322762  1
  H  H87  1  0.86089801  0.56130906  0.96677238  1
  H  H88  1  0.18011095  0.57202056  0.60458803  1
  H  H89  1  0.68011095  0.92797944  0.39541197  1
  H  H90  1  0.81988905  0.07202056  0.89541197  1
  H  H91  1  0.31988905  0.42797944  0.10458803  1
  H  H92  1  0.81988905  0.42797944  0.39541197  1
  H  H93  1  0.31988905  0.07202056  0.60458803  1
  H  H94  1  0.18011095  0.92797944  0.10458803  1
  H  H95  1  0.68011095  0.57202056  0.89541197  1
  H  H96  1  0.12901544  0.62838802  0.51093443  1
  H  H97  1  0.62901544  0.87161198  0.48906557  1
  H  H98  1  0.87098456  0.12838802  0.98906557  1
  H  H99  1  0.37098456  0.37161198  0.01093443  1
  H  H100  1  0.87098456  0.37161198  0.48906557  1
  H  H101  1  0.37098456  0.12838802  0.51093443  1
  H  H102  1  0.12901544  0.87161198  0.01093443  1
  H  H103  1  0.62901544  0.62838802  0.98906557  1
  H  H104  1  0.29997224  0.70584029  0.57179106  1
  H  H105  1  0.79997224  0.79415971  0.42820894  1
  H  H106  1  0.70002776  0.20584029  0.92820894  1
  H  H107  1  0.20002776  0.29415971  0.07179106  1
  H  H108  1  0.70002776  0.29415971  0.42820894  1
  H  H109  1  0.20002776  0.20584029  0.57179106  1
  H  H110  1  0.29997224  0.79415971  0.07179106  1
  H  H111  1  0.79997224  0.70584029  0.92820894  1
  H  H112  1  0.61469222  0.59481464  0.38228917  1
  H  H113  1  0.11469222  0.90518536  0.61771083  1
  H  H114  1  0.38530778  0.09481464  0.11771083  1
  H  H115  1  0.88530778  0.40518536  0.88228917  1
  H  H116  1  0.38530778  0.40518536  0.61771083  1
  H  H117  1  0.88530778  0.09481464  0.38228917  1
  H  H118  1  0.61469222  0.90518536  0.88228917  1
  H  H119  1  0.11469222  0.59481464  0.11771083  1
  H  H120  1  0.43751629  0.70823106  0.35693362  1
  H  H121  1  0.93751629  0.79176894  0.64306638  1
  H  H122  1  0.56248371  0.20823106  0.14306638  1
  H  H123  1  0.06248371  0.29176894  0.85693362  1
  H  H124  1  0.56248371  0.29176894  0.64306638  1
  H  H125  1  0.06248371  0.20823106  0.35693362  1
  H  H126  1  0.43751629  0.79176894  0.85693362  1
  H  H127  1  0.93751629  0.70823106  0.14306638  1
  H  H128  1  0.36374632  0.55893900  0.38920972  1
  H  H129  1  0.86374632  0.94106100  0.61079028  1
  H  H130  1  0.63625368  0.05893900  0.11079028  1
  H  H131  1  0.13625368  0.44106100  0.88920972  1
  H  H132  1  0.63625368  0.44106100  0.61079028  1
  H  H133  1  0.13625368  0.05893900  0.38920972  1
  H  H134  1  0.36374632  0.94106100  0.88920972  1
  H  H135  1  0.86374632  0.55893900  0.11079028  1
  H  H136  1  0.47297555  0.57518473  0.29904653  1
  H  H137  1  0.97297555  0.92481527  0.70095347  1
  H  H138  1  0.52702445  0.07518473  0.20095347  1
  H  H139  1  0.02702445  0.42481527  0.79904653  1
  H  H140  1  0.52702445  0.42481527  0.70095347  1
  H  H141  1  0.02702445  0.07518473  0.29904653  1
  H  H142  1  0.47297555  0.92481527  0.79904653  1
  H  H143  1  0.97297555  0.57518473  0.20095347  1
  N  N0  1  0.97109220  0.29258105  0.66804658  1
  N  N1  1  0.47109220  0.20741895  0.33195342  1
  N  N2  1  0.02890780  0.79258105  0.83195342  1
  N  N3  1  0.52890780  0.70741895  0.16804658  1
  N  N4  1  0.02890780  0.70741895  0.33195342  1
  N  N5  1  0.52890780  0.79258105  0.66804658  1
  N  N6  1  0.97109220  0.20741895  0.16804658  1
  N  N7  1  0.47109220  0.29258105  0.83195342  1
  N  N8  1  0.19266907  0.86070366  0.44282697  1
  N  N9  1  0.69266907  0.63929634  0.55717303  1
  N  N10  1  0.80733093  0.36070366  0.05717303  1
  N  N11  1  0.30733093  0.13929634  0.94282697  1
  N  N12  1  0.80733093  0.13929634  0.55717303  1
  N  N13  1  0.30733093  0.36070366  0.44282697  1
  N  N14  1  0.19266907  0.63929634  0.94282697  1
  N  N15  1  0.69266907  0.86070366  0.05717303  1
loop_
_geom_bond_atom_site_label_1
_geom_bond_atom_site_label_2
_geom_bond_distance
_geom_bond_site_symmetry_2
B0 H56 1.225969 1_555
B0 H48 1.227063 1_555
B0 H72 1.228630 1_555
B0 H64 1.228904 1_555
B1 H57 1.225969 1_555
B1 H49 1.227063 1_555
B1 H73 1.228630 1_555
B1 H65 1.228904 1_555
B2 H58 1.225969 1_555
B2 H50 1.227063 1_555
B2 H74 1.228630 1_555
B2 H66 1.228904 1_555
B3 H59 1.225969 1_555
B3 H51 1.227063 1_555
B3 H75 1.228630 1_555
B3 H67 1.228904 1_555
B4 H60 1.225969 1_555
B4 H52 1.227063 1_555
B4 H76 1.228630 1_555
B4 H68 1.228904 1_555
B5 H61 1.225969 1_555
B5 H53 1.227063 1_555
B5 H77 1.228630 1_555
B5 H69 1.228904 1_555
B6 H62 1.225969 1_555
B6 H54 1.227063 1_555
B6 H78 1.228630 1_555
B6 H70 1.228904 1_555
B7 H63 1.225969 1_555
B7 H55 1.227063 1_555
B7 H79 1.228630 1_555
B7 H71 1.228904 1_555
B8 H96 1.210054 1_555
B8 H88 1.234865 1_555
B8 H104 1.235090 1_555
B8 H80 1.235644 1_555
B9 H97 1.210054 1_555
B9 H89 1.234865 1_555
B9 H105 1.235090 1_555
B9 H81 1.235644 1_555
B10 H98 1.210054 1_555
B10 H90 1.234865 1_555
B10 H106 1.235090 1_555
B10 H82 1.235644 1_555
B11 H99 1.210054 1_555
B11 H91 1.234865 1_555
B11 H107 1.235090 1_555
B11 H83 1.235644 1_555
B12 H100 1.210054 1_555
B12 H92 1.234865 1_555
B12 H108 1.235090 1_555
B12 H84 1.235644 1_555
B13 H101 1.210054 1_555
B13 H93 1.234865 1_555
B13 H109 1.235090 1_555
B13 H85 1.235644 1_555
B14 H102 1.210054 1_555
B14 H94 1.234865 1_555
B14 H110 1.235090 1_555
B14 H86 1.235644 1_555
B15 H103 1.210054 1_555
B15 H95 1.234865 1_555
B15 H111 1.235090 1_555
B15 H87 1.235644 1_555
B16 H120 1.207714 1_555
B16 H112 1.231466 1_555
B16 H136 1.233845 1_555
B16 H128 1.236771 1_555
B17 H121 1.207714 1_555
B17 H113 1.231466 1_655
B17 H137 1.233845 1_555
B17 H129 1.236771 1_555
B18 H122 1.207714 1_555
B18 H114 1.231466 1_555
B18 H138 1.233845 1_555
B18 H130 1.236771 1_555
B19 H123 1.207714 1_555
B19 H115 1.231466 1_455
B19 H139 1.233845 1_555
B19 H131 1.236771 1_555
B20 H124 1.207714 1_555
B20 H116 1.231466 1_555
B20 H140 1.233845 1_555
B20 H132 1.236771 1_555
B21 H125 1.207714 1_555
B21 H117 1.231466 1_455
B21 H141 1.233845 1_555
B21 H133 1.236771 1_555
B22 H126 1.207714 1_555
B22 H118 1.231466 1_555
B22 H142 1.233845 1_555
B22 H134 1.236771 1_555
B23 H127 1.207714 1_555
B23 H119 1.231466 1_655
B23 H143 1.233845 1_555
B23 H135 1.236771 1_555
H0 N0 1.025513 1_555
H1 N1 1.025513 1_555
H2 N2 1.025513 1_555
H3 N3 1.025513 1_555
H4 N4 1.025513 1_555
H5 N5 1.025513 1_555
H6 N6 1.025513 1_555
H7 N7 1.025513 1_555
H8 N0 1.025885 1_455
H9 N1 1.025885 1_555
H10 N2 1.025885 1_655
H11 N3 1.025885 1_555
H12 N4 1.025885 1_655
H13 N5 1.025885 1_555
H14 N6 1.025885 1_455
H15 N7 1.025885 1_555
H16 N0 1.025000 1_555
H17 N1 1.025000 1_555
H18 N2 1.025000 1_555
H19 N3 1.025000 1_555
H20 N4 1.025000 1_555
H21 N5 1.025000 1_555
H22 N6 1.025000 1_555
H23 N7 1.025000 1_555
H24 N8 1.025150 1_555
H25 N9 1.025150 1_555
H26 N10 1.025150 1_555
H27 N11 1.025150 1_555
H28 N12 1.025150 1_555
H29 N13 1.025150 1_555
H30 N14 1.025150 1_555
H31 N15 1.025150 1_555
H32 N8 1.025651 1_555
H33 N9 1.025651 1_555
H34 N10 1.025651 1_555
H35 N11 1.025651 1_555
H36 N12 1.025651 1_555
H37 N13 1.025651 1_555
H38 N14 1.025651 1_555
H39 N15 1.025651 1_555
H40 N8 1.026872 1_555
H41 N9 1.026872 1_555
H42 N10 1.026872 1_555
H43 N11 1.026872 1_555
H44 N12 1.026872 1_555
H45 N13 1.026872 1_555
H46 N14 1.026872 1_555
H47 N15 1.026872 1_555
H48 Y3 2.373719 1_455
H49 Y2 2.373719 1_555
H50 Y1 2.373719 1_655
H51 Y0 2.373719 1_555
H52 Y7 2.373719 1_655
H53 Y6 2.373719 1_555
H54 Y5 2.373719 1_455
H55 Y4 2.373719 1_555
H56 Y4 2.384439 1_555
H57 Y5 2.384439 1_555
H58 Y6 2.384439 1_555
H59 Y7 2.384439 1_555
H60 Y0 2.384439 1_555
H61 Y1 2.384439 1_555
H62 Y2 2.384439 1_555
H63 Y3 2.384439 1_555
H64 Y3 2.371414 1_455
H65 Y2 2.371414 1_555
H66 Y1 2.371414 1_655
H67 Y0 2.371414 1_555
H68 Y7 2.371414 1_655
H69 Y6 2.371414 1_555
H70 Y5 2.371414 1_455
H71 Y4 2.371414 1_555
H72 Y4 2.409913 1_555
H73 Y5 2.409913 1_555
H74 Y6 2.409913 1_555
H75 Y7 2.409913 1_555
H76 Y0 2.409913 1_555
H77 Y1 2.409913 1_555
H78 Y2 2.409913 1_555
H79 Y3 2.409913 1_555
H80 Y4 2.402093 1_555
H81 Y5 2.402093 1_555
H82 Y6 2.402093 1_555
H83 Y7 2.402093 1_555
H84 Y0 2.402093 1_555
H85 Y1 2.402093 1_555
H86 Y2 2.402093 1_555
H87 Y3 2.402093 1_555
H88 Y4 2.378482 1_555
H89 Y5 2.378482 1_555
H90 Y6 2.378482 1_555
H91 Y7 2.378482 1_555
H92 Y0 2.378482 1_555
H93 Y1 2.378482 1_555
H94 Y2 2.378482 1_555
H95 Y3 2.378482 1_555
H104 Y4 2.396256 1_555
H105 Y5 2.396256 1_555
H106 Y6 2.396256 1_555
H107 Y7 2.396256 1_555
H108 Y0 2.396256 1_555
H109 Y1 2.396256 1_555
H110 Y2 2.396256 1_555
H111 Y3 2.396256 1_555
H112 Y0 2.446199 1_555
H113 Y1 2.446199 1_565
H114 Y2 2.446199 1_545
H115 Y3 2.446199 1_555
H116 Y4 2.446199 1_555
H117 Y5 2.446199 1_545
H118 Y6 2.446199 1_565
H119 Y7 2.446199 1_555
H128 Y0 2.373229 1_555
H129 Y1 2.373229 1_665
H130 Y2 2.373229 1_545
H131 Y3 2.373229 1_455
H132 Y4 2.373229 1_555
H133 Y5 2.373229 1_445
H134 Y6 2.373229 1_565
H135 Y7 2.373229 1_655
H136 Y0 2.374878 1_555
H137 Y1 2.374878 1_665
H138 Y2 2.374878 1_545
H139 Y3 2.374878 1_455
H140 Y4 2.374878 1_555
H141 Y5 2.374878 1_445
H142 Y6 2.374878 1_565
H143 Y7 2.374878 1_655
N0 Y1 2.538717 1_655
N1 Y0 2.538717 1_555
N2 Y3 2.538717 1_455
N3 Y2 2.538717 1_555
N4 Y5 2.538717 1_455
N5 Y4 2.538717 1_555
N6 Y7 2.538717 1_655
N7 Y6 2.538717 1_555
N8 Y5 2.536179 1_455
N9 Y4 2.536179 1_555
N10 Y7 2.536179 1_655
N11 Y6 2.536179 1_555
N12 Y1 2.536179 1_655
N13 Y0 2.536179 1_555
N14 Y3 2.536179 1_455
N15 Y2 2.536179 1_555
