# generated using pymatgen
data_Lu3Ga8Cu3
_symmetry_space_group_name_H-M   'P 1'
_cell_length_a   4.22415000
_cell_length_b   8.00583369
_cell_length_c   8.00583369
_cell_angle_alpha   72.71553691
_cell_angle_beta   74.70332961
_cell_angle_gamma   74.70332961
_symmetry_Int_Tables_number   1
_chemical_formula_structural   Lu3Ga8Cu3
_chemical_formula_sum   'Lu3 Ga8 Cu3'
_cell_volume   244.24913998
_cell_formula_units_Z   1
loop_
 _symmetry_equiv_pos_site_id
 _symmetry_equiv_pos_as_xyz
  1  'x, y, z'
loop_
 _atom_site_type_symbol
 _atom_site_label
 _atom_site_symmetry_multiplicity
 _atom_site_fract_x
 _atom_site_fract_y
 _atom_site_fract_z
 _atom_site_occupancy
  Lu  Lu0  1  0.00000000  0.00000000  0.00000000  1
  Lu  Lu1  1  0.30944900  0.69055100  0.69055100  1
  Lu  Lu2  1  0.69055100  0.30944900  0.30944900  1
  Ga  Ga0  1  0.13142600  0.58013500  0.15701300  1
  Ga  Ga1  1  0.86857400  0.41986500  0.84298700  1
  Ga  Ga2  1  0.13142600  0.15701300  0.58013500  1
  Ga  Ga3  1  0.86857400  0.84298700  0.41986500  1
  Ga  Ga4  1  0.34306300  0.28886300  0.02501000  1
  Ga  Ga5  1  0.65693700  0.71113700  0.97499000  1
  Ga  Ga6  1  0.34306300  0.02501000  0.28886300  1
  Ga  Ga7  1  0.65693700  0.97499000  0.71113700  1
  Cu  Cu0  1  0.00000000  0.50000000  0.50000000  1
  Cu  Cu1  1  0.50000000  0.30317300  0.69682700  1
  Cu  Cu2  1  0.50000000  0.69682700  0.30317300  1
loop_
_geom_bond_atom_site_label_1
_geom_bond_atom_site_label_2
_geom_bond_distance
_geom_bond_site_symmetry_2
Ga0 Ga5 2.600877 1_454
Ga0 Ga5 2.600881 1_554
Ga0 Ga4 2.686934 1_555
Ga0 Lu2 3.002075 1_555
Ga0 Lu2 3.002075 1_455
Ga0 Lu0 3.171732 1_565
Ga1 Ga4 2.600877 1_656
Ga1 Ga4 2.600881 1_556
Ga1 Ga5 2.686934 1_555
Ga1 Lu1 3.002075 1_655
Ga1 Lu1 3.002075 1_555
Ga1 Lu0 3.171732 1_656
Ga2 Ga7 2.600877 1_445
Ga2 Ga7 2.600881 1_545
Ga2 Ga6 2.686934 1_555
Ga2 Lu2 3.002075 1_555
Ga2 Lu2 3.002075 1_455
Ga2 Lu0 3.171732 1_556
Ga3 Ga6 2.600877 1_665
Ga3 Ga6 2.600881 1_565
Ga3 Ga7 2.686934 1_555
Ga3 Lu1 3.002075 1_655
Ga3 Lu1 3.002075 1_555
Ga3 Lu0 3.171732 1_665
Ga4 Ga6 2.504525 1_555
Ga4 Lu2 3.079204 1_455
Ga4 Lu2 3.079207 1_555
Ga4 Lu0 3.112025 1_555
Ga4 Lu0 3.112027 1_655
Ga5 Ga7 2.504525 1_555
Ga5 Lu1 3.079204 1_655
Ga5 Lu1 3.079207 1_555
Ga5 Lu0 3.112025 1_666
Ga5 Lu0 3.112027 1_566
Ga6 Lu2 3.079204 1_455
Ga6 Lu2 3.079207 1_555
Ga6 Lu0 3.112025 1_555
Ga6 Lu0 3.112027 1_655
Ga7 Lu1 3.079204 1_655
Ga7 Lu1 3.079207 1_555
Ga7 Lu0 3.112025 1_666
Ga7 Lu0 3.112027 1_566
Cu0 Ga3 2.568368 1_455
Cu0 Ga1 2.568368 1_455
Cu0 Ga0 2.568368 1_555
Cu0 Ga2 2.568368 1_555
Cu0 Cu1 2.819828 1_555
Cu0 Cu2 2.819828 1_555
Cu0 Cu1 2.819828 1_455
Cu0 Cu2 2.819828 1_455
Cu0 Lu1 3.138518 1_555
Cu0 Lu1 3.138518 1_455
Cu0 Lu2 3.138518 1_555
Cu0 Lu2 3.138518 1_455
Cu1 Ga7 2.509564 1_545
Cu1 Ga4 2.509564 1_556
Cu1 Ga1 2.654094 1_555
Cu1 Ga2 2.654094 1_555
Cu1 Ga2 2.654094 1_655
Cu1 Ga1 2.654094 1_455
Cu1 Lu1 2.979933 1_555
Cu1 Lu2 2.979933 1_555
Cu2 Ga5 2.509564 1_554
Cu2 Ga6 2.509564 1_565
Cu2 Ga3 2.654094 1_555
Cu2 Ga0 2.654094 1_555
Cu2 Ga0 2.654094 1_655
Cu2 Ga3 2.654094 1_455
Cu2 Lu1 2.979933 1_555
Cu2 Lu2 2.979933 1_555
