# generated using pymatgen
data_SmAs2Au
_symmetry_space_group_name_H-M   'P 1'
_cell_length_a   5.77854600
_cell_length_b   5.76690600
_cell_length_c   20.68530300
_cell_angle_alpha   90.00000000
_cell_angle_beta   90.00000000
_cell_angle_gamma   90.00000000
_symmetry_Int_Tables_number   1
_chemical_formula_structural   SmAs2Au
_chemical_formula_sum   'Sm8 As16 Au8'
_cell_volume   689.32389639
_cell_formula_units_Z   8
loop_
 _symmetry_equiv_pos_site_id
 _symmetry_equiv_pos_as_xyz
  1  'x, y, z'
loop_
 _atom_site_type_symbol
 _atom_site_label
 _atom_site_symmetry_multiplicity
 _atom_site_fract_x
 _atom_site_fract_y
 _atom_site_fract_z
 _atom_site_occupancy
  Sm  Sm0  1  0.01489100  0.75000000  0.38248000  1
  Sm  Sm1  1  0.98510900  0.25000000  0.61752000  1
  Sm  Sm2  1  0.01489100  0.25000000  0.11752000  1
  Sm  Sm3  1  0.98510900  0.75000000  0.88248000  1
  Sm  Sm4  1  0.51563500  0.25000000  0.38296800  1
  Sm  Sm5  1  0.48436500  0.75000000  0.61703200  1
  Sm  Sm6  1  0.51563500  0.75000000  0.11703200  1
  Sm  Sm7  1  0.48436500  0.25000000  0.88296800  1
  As  As0  1  0.01633600  0.25000000  0.34250100  1
  As  As1  1  0.98366400  0.75000000  0.65749900  1
  As  As2  1  0.01633600  0.75000000  0.15749900  1
  As  As3  1  0.98366400  0.25000000  0.84250100  1
  As  As4  1  0.51479500  0.75000000  0.34369100  1
  As  As5  1  0.48520500  0.25000000  0.65630900  1
  As  As6  1  0.51479500  0.25000000  0.15630900  1
  As  As7  1  0.48520500  0.75000000  0.84369100  1
  As  As8  1  0.75688000  0.97418300  0.49952500  1
  As  As9  1  0.24312000  0.47418300  0.50047500  1
  As  As10  1  0.75688000  0.02581700  0.00047500  1
  As  As11  1  0.24312000  0.52581700  0.99952500  1
  As  As12  1  0.24312000  0.02581700  0.50047500  1
  As  As13  1  0.75688000  0.52581700  0.49952500  1
  As  As14  1  0.24312000  0.97418300  0.99952500  1
  As  As15  1  0.75688000  0.47418300  0.00047500  1
  Au  Au0  1  0.26932000  0.50000000  0.25000000  1
  Au  Au1  1  0.73068000  0.00000000  0.75000000  1
  Au  Au2  1  0.73068000  0.50000000  0.75000000  1
  Au  Au3  1  0.26932000  0.00000000  0.25000000  1
  Au  Au4  1  0.76792700  0.50000000  0.25000000  1
  Au  Au5  1  0.23207300  0.00000000  0.75000000  1
  Au  Au6  1  0.23207300  0.50000000  0.75000000  1
  Au  Au7  1  0.76792700  0.00000000  0.25000000  1
loop_
_geom_bond_atom_site_label_1
_geom_bond_atom_site_label_2
_geom_bond_distance
_geom_bond_site_symmetry_2
As0 Au4 2.792886 1_455
As0 Au7 2.792886 1_455
As0 Au0 2.806566 1_555
As0 Au3 2.806566 1_555
As0 Sm0 2.999711 1_555
As0 Sm0 2.999711 1_545
As0 Sm4 3.004197 1_555
As0 Sm4 3.011978 1_455
As1 Au5 2.792886 1_665
As1 Au6 2.792886 1_655
As1 Au2 2.806566 1_555
As1 Au1 2.806566 1_565
As1 Sm1 2.999711 1_565
As1 Sm1 2.999711 1_555
As1 Sm5 3.004197 1_555
As1 Sm5 3.011978 1_655
As2 Au4 2.792886 1_455
As2 Au7 2.792886 1_465
As2 Au0 2.806566 1_555
As2 Au3 2.806566 1_565
As2 Sm2 2.999711 1_555
As2 Sm2 2.999711 1_565
As2 Sm6 3.004197 1_555
As2 Sm6 3.011978 1_455
As3 Au5 2.792886 1_655
As3 Au6 2.792886 1_655
As3 Au1 2.806566 1_555
As3 Au2 2.806566 1_555
As3 Sm3 2.999711 1_555
As3 Sm3 2.999711 1_545
As3 Sm7 3.004197 1_555
As3 Sm7 3.011978 1_655
As4 Au0 2.801184 1_555
As4 Au3 2.801184 1_565
As4 Au4 2.823848 1_555
As4 Au7 2.823848 1_565
As4 Sm4 2.995732 1_565
As4 Sm4 2.995732 1_555
As4 Sm0 2.998079 1_555
As4 Sm0 2.999148 1_655
As5 Au1 2.801184 1_555
As5 Au2 2.801184 1_555
As5 Au5 2.823848 1_555
As5 Au6 2.823848 1_555
As5 Sm5 2.995732 1_545
As5 Sm5 2.995732 1_555
As5 Sm1 2.998079 1_555
As5 Sm1 2.999148 1_455
As6 Au3 2.801184 1_555
As6 Au0 2.801184 1_555
As6 Au7 2.823848 1_555
As6 Au4 2.823848 1_555
As6 Sm6 2.995732 1_545
As6 Sm6 2.995732 1_555
As6 Sm2 2.998079 1_555
As6 Sm2 2.999148 1_655
As7 Au2 2.801184 1_555
As7 Au1 2.801184 1_565
As7 Au6 2.823848 1_555
As7 Au5 2.823848 1_565
As7 Sm7 2.995732 1_555
As7 Sm7 2.995732 1_565
As7 Sm3 2.998079 1_555
As7 Sm3 2.999148 1_455
As8 Sm0 3.123474 1_655
As8 Sm5 3.171655 1_555
As8 Sm1 3.197918 1_565
As8 Sm4 3.207243 1_565
As9 Sm1 3.123474 1_455
As9 Sm4 3.171655 1_555
As9 Sm0 3.197918 1_555
As9 Sm5 3.207243 1_555
As10 As15 2.585685 1_555
As10 As14 2.825563 1_644
As10 As14 2.983746 1_544
As10 Sm2 3.123474 1_655
As10 Sm7 3.171655 1_554
As10 Sm3 3.197918 1_544
As10 Sm6 3.207243 1_545
As11 As14 2.585685 1_555
As11 As15 2.825563 1_456
As11 As15 2.983746 1_556
As11 Sm3 3.123474 1_455
As11 Sm6 3.171655 1_556
As11 Sm2 3.197918 1_556
As11 Sm7 3.207243 1_555
As12 As9 2.585685 1_555
As12 As8 2.825563 1_445
As12 As8 2.983746 1_545
As12 Sm1 3.123474 1_455
As12 Sm4 3.171655 1_555
As12 Sm0 3.197918 1_545
As12 Sm5 3.207243 1_545
As13 As8 2.585685 1_555
As13 As9 2.825563 1_655
As13 As9 2.983746 1_555
As13 Sm0 3.123474 1_655
As13 Sm5 3.171655 1_555
As13 Sm1 3.197918 1_555
As13 Sm4 3.207243 1_555
As14 Sm3 3.123474 1_455
As14 Sm6 3.171655 1_556
As14 Sm2 3.197918 1_566
As14 Sm7 3.207243 1_565
As15 Sm2 3.123474 1_655
As15 Sm7 3.171655 1_554
As15 Sm3 3.197918 1_554
As15 Sm6 3.207243 1_555
Au0 Au4 2.881223 1_555
Au0 Au3 2.883453 1_555
Au0 Au3 2.883453 1_565
Au0 Au4 2.897323 1_455
Au0 Sm4 3.416085 1_555
Au0 Sm6 3.416085 1_555
Au0 Sm2 3.427810 1_555
Au0 Sm0 3.427810 1_555
Au1 Au5 2.881223 1_555
Au1 Au2 2.883453 1_555
Au1 Au2 2.883453 1_545
Au1 Au5 2.897323 1_655
Au1 Sm5 3.416085 1_545
Au1 Sm7 3.416085 1_555
Au1 Sm1 3.427810 1_555
Au1 Sm3 3.427810 1_545
Au2 Au6 2.881223 1_555
Au2 Au6 2.897323 1_655
Au2 Sm7 3.416085 1_555
Au2 Sm5 3.416085 1_555
Au2 Sm1 3.427810 1_555
Au2 Sm3 3.427810 1_555
Au3 Au7 2.881223 1_555
Au3 Au7 2.897323 1_455
Au3 Sm4 3.416085 1_555
Au3 Sm6 3.416085 1_545
Au3 Sm2 3.427810 1_555
Au3 Sm0 3.427810 1_545
Au4 Au7 2.883453 1_565
Au4 Au7 2.883453 1_555
Au4 Sm2 3.409531 1_655
Au4 Sm0 3.409531 1_655
Au4 Sm4 3.430620 1_555
Au4 Sm6 3.430620 1_555
Au5 Au6 2.883453 1_555
Au5 Au6 2.883453 1_545
Au5 Sm1 3.409531 1_455
Au5 Sm3 3.409531 1_445
Au5 Sm7 3.430620 1_555
Au5 Sm5 3.430620 1_545
Au6 Sm1 3.409531 1_455
Au6 Sm3 3.409531 1_455
Au6 Sm7 3.430620 1_555
Au6 Sm5 3.430620 1_555
Au7 Sm2 3.409531 1_655
Au7 Sm0 3.409531 1_645
Au7 Sm4 3.430620 1_555
Au7 Sm6 3.430620 1_545
