# generated using pymatgen
data_CsNa3Li12(GeO4)4
_symmetry_space_group_name_H-M   'P 1'
_cell_length_a   8.65819094
_cell_length_b   8.65819094
_cell_length_c   8.65819094
_cell_angle_alpha   98.25477739
_cell_angle_beta   98.25477739
_cell_angle_gamma   135.46725197
_symmetry_Int_Tables_number   1
_chemical_formula_structural   CsNa3Li12(GeO4)4
_chemical_formula_sum   'Cs1 Na3 Li12 Ge4 O16'
_cell_volume   421.25043580
_cell_formula_units_Z   1
loop_
 _symmetry_equiv_pos_site_id
 _symmetry_equiv_pos_as_xyz
  1  'x, y, z'
loop_
 _atom_site_type_symbol
 _atom_site_label
 _atom_site_symmetry_multiplicity
 _atom_site_fract_x
 _atom_site_fract_y
 _atom_site_fract_z
 _atom_site_occupancy
  Cs  Cs0  1  0.00000000  0.00000000  0.00000000  1
  Na  Na0  1  0.25000000  0.75000000  0.50000000  1
  Na  Na1  1  0.75000000  0.25000000  0.50000000  1
  Na  Na2  1  0.50000000  0.50000000  0.00000000  1
  Li  Li0  1  0.28446600  0.07748800  0.36195400  1
  Li  Li1  1  0.92251200  0.28446600  0.20697800  1
  Li  Li2  1  0.07748800  0.71553400  0.79302200  1
  Li  Li3  1  0.71553400  0.92251200  0.63804600  1
  Li  Li4  1  0.97783900  0.64248600  0.13138600  1
  Li  Li5  1  0.84645400  0.97783900  0.33535300  1
  Li  Li6  1  0.64248600  0.51110100  0.66464700  1
  Li  Li7  1  0.51110100  0.84645400  0.86861400  1
  Li  Li8  1  0.35751400  0.48889900  0.33535300  1
  Li  Li9  1  0.48889900  0.15354600  0.13138600  1
  Li  Li10  1  0.02216100  0.35751400  0.86861400  1
  Li  Li11  1  0.15354600  0.02216100  0.66464700  1
  Ge  Ge0  1  0.78113200  0.58044000  0.36157200  1
  Ge  Ge1  1  0.41956000  0.78113200  0.20069300  1
  Ge  Ge2  1  0.58044000  0.21886800  0.79930700  1
  Ge  Ge3  1  0.21886800  0.41956000  0.63842800  1
  O  O0  1  0.56766100  0.83852600  0.40618700  1
  O  O1  1  0.90183800  0.67991500  0.58175300  1
  O  O2  1  0.67991500  0.09816200  0.77807700  1
  O  O3  1  0.09816200  0.32008500  0.41824700  1
  O  O4  1  0.18700500  0.46850700  0.10583600  1
  O  O5  1  0.08116900  0.18700500  0.71849800  1
  O  O6  1  0.46850700  0.36267100  0.28150200  1
  O  O7  1  0.36267100  0.08116900  0.89416400  1
  O  O8  1  0.81299500  0.53149300  0.89416400  1
  O  O9  1  0.91883100  0.81299500  0.28150200  1
  O  O10  1  0.53149300  0.63732900  0.71849800  1
  O  O11  1  0.63732900  0.91883100  0.10583600  1
  O  O12  1  0.83852600  0.43233900  0.27086500  1
  O  O13  1  0.43233900  0.16147400  0.59381300  1
  O  O14  1  0.32008500  0.90183800  0.22192300  1
  O  O15  1  0.16147400  0.56766100  0.72913500  1
loop_
_geom_bond_atom_site_label_1
_geom_bond_atom_site_label_2
_geom_bond_distance
_geom_bond_site_symmetry_2
Cs0 O4 3.009757 1_555
Cs0 O8 3.009757 1_444
Cs0 O6 3.009757 1_555
Cs0 O7 3.009757 1_554
Cs0 O10 3.009757 1_444
Cs0 O5 3.009757 1_554
Cs0 O9 3.009757 1_445
Cs0 O11 3.009757 1_445
Na0 O15 2.574204 1_555
Na0 O13 2.574204 1_565
Na0 O12 2.574204 1_455
Na0 O0 2.574204 1_555
Na0 O2 2.843294 1_565
Na0 O3 2.843294 1_555
Na0 O1 2.843294 1_455
Na0 O14 2.843294 1_555
Na1 O13 2.574204 1_555
Na1 O0 2.574204 1_545
Na1 O15 2.574204 1_655
Na1 O12 2.574204 1_555
Na1 O1 2.843294 1_555
Na1 O2 2.843294 1_555
Na1 O3 2.843294 1_655
Na1 O14 2.843294 1_545
Na2 O8 2.826536 1_554
Na2 O4 2.826536 1_555
Na2 O10 2.826536 1_554
Na2 O9 2.826536 1_555
Na2 O6 2.826536 1_555
Na2 O7 2.826536 1_554
Na2 O11 2.826536 1_555
Na2 O5 2.826536 1_554
Li0 O13 1.927021 1_555
Li0 O14 2.030886 1_545
Li0 O6 2.079490 1_555
Li0 O9 2.079490 1_445
Li1 O12 1.927021 1_555
Li1 O3 2.030886 1_655
Li1 O11 2.079490 1_545
Li1 O4 2.079490 1_655
Li2 O15 1.927021 1_555
Li2 O1 2.030886 1_455
Li2 O7 2.079490 1_565
Li2 O8 2.079490 1_455
Li3 O0 1.927021 1_555
Li3 O2 2.030886 1_565
Li3 O5 2.079490 1_665
Li3 O10 2.079490 1_555
Li4 O14 1.943843 1_655
Li4 O8 1.953230 1_554
Li4 O12 2.035717 1_555
Li4 O9 2.201093 1_555
Li5 O3 1.943843 1_665
Li5 O9 1.953223 1_555
Li5 O0 2.035724 1_555
Li5 O11 2.201097 1_555
Li6 O1 1.943843 1_555
Li6 O10 1.953223 1_555
Li6 O13 2.035724 1_555
Li6 O8 2.201097 1_555
Li7 O2 1.943837 1_565
Li7 O11 1.953231 1_556
Li7 O15 2.035722 1_555
Li7 O10 2.201093 1_555
Li8 O3 1.943843 1_555
Li8 O6 1.953223 1_555
Li8 O0 2.035724 1_555
Li8 O4 2.201097 1_555
Li9 O14 1.943837 1_545
Li9 O7 1.953231 1_554
Li9 O12 2.035722 1_555
Li9 O6 2.201093 1_555
Li10 O2 1.943843 1_455
Li10 O4 1.953230 1_556
Li10 O15 2.035717 1_555
Li10 O5 2.201093 1_555
Li11 O1 1.943843 1_445
Li11 O5 1.953223 1_555
Li11 O13 2.035724 1_555
Li11 O7 2.201097 1_555
Ge0 O1 1.772398 1_555
Ge0 O9 1.780988 1_555
Ge0 O6 1.780988 1_555
Ge0 O12 1.799816 1_555
Ge1 O14 1.772397 1_555
Ge1 O4 1.780988 1_555
Ge1 O11 1.780994 1_555
Ge1 O0 1.799808 1_555
Ge2 O2 1.772397 1_555
Ge2 O8 1.780988 1_555
Ge2 O7 1.780994 1_555
Ge2 O13 1.799808 1_555
Ge3 O3 1.772398 1_555
Ge3 O5 1.780988 1_555
Ge3 O10 1.780988 1_555
Ge3 O15 1.799816 1_555
