# generated using pymatgen
data_ScSb3Pb4O13
_symmetry_space_group_name_H-M   'P 1'
_cell_length_a   7.57812321
_cell_length_b   7.57812321
_cell_length_c   7.57812256
_cell_angle_alpha   60.01037911
_cell_angle_beta   60.01037911
_cell_angle_gamma   60.01037881
_symmetry_Int_Tables_number   1
_chemical_formula_structural   ScSb3Pb4O13
_chemical_formula_sum   'Sc1 Sb3 Pb4 O13'
_cell_volume   307.80249035
_cell_formula_units_Z   1
loop_
 _symmetry_equiv_pos_site_id
 _symmetry_equiv_pos_as_xyz
  1  'x, y, z'
loop_
 _atom_site_type_symbol
 _atom_site_label
 _atom_site_symmetry_multiplicity
 _atom_site_fract_x
 _atom_site_fract_y
 _atom_site_fract_z
 _atom_site_occupancy
  Sc  Sc0  1  0.49951300  0.49951300  0.49951300  1
  Sb  Sb0  1  0.00074000  0.49950400  0.49950400  1
  Sb  Sb1  1  0.49950400  0.49950400  0.00074000  1
  Sb  Sb2  1  0.49950400  0.00074000  0.49950400  1
  Pb  Pb0  1  0.99932800  0.99932800  0.99932800  1
  Pb  Pb1  1  0.50235900  0.99949400  0.99949400  1
  Pb  Pb2  1  0.99949400  0.99949400  0.50235900  1
  Pb  Pb3  1  0.99949400  0.50235900  0.99949400  1
  O  O0  1  0.83583900  0.42558500  0.42558500  1
  O  O1  1  0.42443200  0.82181100  0.82181100  1
  O  O2  1  0.42558500  0.42558500  0.83583900  1
  O  O3  1  0.82181100  0.82181100  0.42443200  1
  O  O4  1  0.82181100  0.42443200  0.82181100  1
  O  O5  1  0.42558500  0.83583900  0.42558500  1
  O  O6  1  0.16760100  0.57198900  0.57198900  1
  O  O7  1  0.57394500  0.18022300  0.18022300  1
  O  O8  1  0.57198900  0.57198900  0.16760100  1
  O  O9  1  0.18022300  0.18022300  0.57394500  1
  O  O10  1  0.18022300  0.57394500  0.18022300  1
  O  O11  1  0.57198900  0.16760100  0.57198900  1
  O  O12  1  0.12403300  0.12403300  0.12403300  1
loop_
_geom_bond_atom_site_label_1
_geom_bond_atom_site_label_2
_geom_bond_distance
_geom_bond_site_symmetry_2
O0 Sb0 1.975459 1_655
O0 Sc0 2.140700 1_555
O0 Pb3 2.672605 1_554
O0 Pb2 2.672605 1_545
O1 Sb2 2.049191 1_565
O1 Sb1 2.049191 1_556
O1 Pb0 2.672418 1_455
O1 Pb1 2.716103 1_555
O2 Sb1 1.975459 1_556
O2 Sc0 2.140700 1_555
O2 Pb3 2.672605 1_455
O2 Pb1 2.672605 1_545
O3 Sb2 2.049191 1_565
O3 Sb0 2.049191 1_655
O3 Pb0 2.672418 1_554
O3 Pb2 2.716103 1_555
O4 Sb0 2.049191 1_655
O4 Sb1 2.049191 1_556
O4 Pb0 2.672418 1_545
O4 Pb3 2.716103 1_555
O5 Sb2 1.975459 1_565
O5 Sc0 2.140700 1_555
O5 Pb1 2.672605 1_554
O5 Pb2 2.672605 1_455
O6 Sb0 1.973012 1_555
O6 Sc0 2.114093 1_555
O6 Pb3 2.689631 1_455
O6 Pb2 2.689631 1_455
O7 Sb2 2.033494 1_555
O7 Sb1 2.033494 1_555
O7 Pb0 2.682039 1_544
O7 Pb1 2.721490 1_544
O8 Sb1 1.973012 1_555
O8 Sc0 2.114093 1_555
O8 Pb1 2.689631 1_554
O8 Pb3 2.689631 1_554
O9 Sb0 2.033494 1_555
O9 Sb2 2.033494 1_555
O9 Pb0 2.682039 1_445
O9 Pb2 2.721490 1_445
O10 Sb0 2.033494 1_555
O10 Sb1 2.033494 1_555
O10 Pb0 2.682039 1_454
O10 Pb3 2.721490 1_454
O11 Sb2 1.973012 1_555
O11 Sc0 2.114093 1_555
O11 Pb1 2.689631 1_545
O11 Pb2 2.689631 1_545
O12 Pb0 2.314659 1_444
O12 Pb2 2.341290 1_445
O12 Pb1 2.341290 1_544
O12 Pb3 2.341290 1_454
