# generated using pymatgen
data_CaAl6H12(SO7)4
_symmetry_space_group_name_H-M   'P 1'
_cell_length_a   12.02255415
_cell_length_b   12.02255415
_cell_length_c   12.02255428
_cell_angle_alpha   34.13638659
_cell_angle_beta   34.13638659
_cell_angle_gamma   34.13638531
_symmetry_Int_Tables_number   1
_chemical_formula_structural   CaAl6H12(SO7)4
_chemical_formula_sum   'Ca1 Al6 H12 S4 O28'
_cell_volume   487.89992382
_cell_formula_units_Z   1
loop_
 _symmetry_equiv_pos_site_id
 _symmetry_equiv_pos_as_xyz
  1  'x, y, z'
loop_
 _atom_site_type_symbol
 _atom_site_label
 _atom_site_symmetry_multiplicity
 _atom_site_fract_x
 _atom_site_fract_y
 _atom_site_fract_z
 _atom_site_occupancy
  Ca  Ca0  1  0.50000000  0.50000000  0.50000000  1
  Al  Al0  1  0.24925700  0.75363400  0.24925700  1
  Al  Al1  1  0.24925700  0.24925700  0.75363400  1
  Al  Al2  1  0.75363400  0.24925700  0.24925700  1
  Al  Al3  1  0.75074300  0.24636600  0.75074300  1
  Al  Al4  1  0.75074300  0.75074300  0.24636600  1
  Al  Al5  1  0.24636600  0.75074300  0.75074300  1
  H  H0  1  0.86596700  0.42427000  0.86596700  1
  H  H1  1  0.86596700  0.86596700  0.42427000  1
  H  H2  1  0.42427000  0.86596700  0.86596700  1
  H  H3  1  0.13403300  0.57573000  0.13403300  1
  H  H4  1  0.13403300  0.13403300  0.57573000  1
  H  H5  1  0.57573000  0.13403300  0.13403300  1
  H  H6  1  0.35803700  0.95275400  0.35803700  1
  H  H7  1  0.35803700  0.35803700  0.95275400  1
  H  H8  1  0.95275400  0.35803700  0.35803700  1
  H  H9  1  0.64196300  0.04724600  0.64196300  1
  H  H10  1  0.64196300  0.64196300  0.04724600  1
  H  H11  1  0.04724600  0.64196300  0.64196300  1
  S  S0  1  0.15514500  0.15514500  0.15514500  1
  S  S1  1  0.84485500  0.84485500  0.84485500  1
  S  S2  1  0.65032000  0.65032000  0.65032000  1
  S  S3  1  0.34968000  0.34968000  0.34968000  1
  O  O0  1  0.19835600  0.19835600  0.19835600  1
  O  O1  1  0.80164400  0.80164400  0.80164400  1
  O  O2  1  0.69342100  0.69342100  0.69342100  1
  O  O3  1  0.30657900  0.30657900  0.30657900  1
  O  O4  1  0.75064500  0.40507200  0.75064500  1
  O  O5  1  0.75064500  0.75064500  0.40507200  1
  O  O6  1  0.40507200  0.75064500  0.75064500  1
  O  O7  1  0.24935500  0.59492800  0.24935500  1
  O  O8  1  0.24935500  0.24935500  0.59492800  1
  O  O9  1  0.59492800  0.24935500  0.24935500  1
  O  O10  1  0.25532300  0.90998500  0.25532300  1
  O  O11  1  0.25532300  0.25532300  0.90998500  1
  O  O12  1  0.90998500  0.25532300  0.25532300  1
  O  O13  1  0.74467700  0.09001500  0.74467700  1
  O  O14  1  0.74467700  0.74467700  0.09001500  1
  O  O15  1  0.09001500  0.74467700  0.74467700  1
  O  O16  1  0.94314400  0.33197100  0.94314400  1
  O  O17  1  0.94314400  0.94314400  0.33197100  1
  O  O18  1  0.33197100  0.94314400  0.94314400  1
  O  O19  1  0.05685600  0.66802900  0.05685600  1
  O  O20  1  0.05685600  0.05685600  0.66802900  1
  O  O21  1  0.66802900  0.05685600  0.05685600  1
  O  O22  1  0.44343400  0.80700100  0.44343400  1
  O  O23  1  0.44343400  0.44343400  0.80700100  1
  O  O24  1  0.80700100  0.44343400  0.44343400  1
  O  O25  1  0.55656600  0.19299900  0.55656600  1
  O  O26  1  0.55656600  0.55656600  0.19299900  1
  O  O27  1  0.19299900  0.55656600  0.55656600  1
loop_
_geom_bond_atom_site_label_1
_geom_bond_atom_site_label_2
_geom_bond_distance
_geom_bond_site_symmetry_2
Ca0 O22 2.646350 1_555
Ca0 O27 2.646350 1_555
Ca0 O24 2.646350 1_555
Ca0 O25 2.646350 1_555
Ca0 O26 2.646350 1_555
Ca0 O23 2.646350 1_555
Ca0 O15 2.814523 1_555
Ca0 O13 2.814523 1_555
Ca0 O12 2.814523 1_555
Ca0 O10 2.814523 1_555
Ca0 O14 2.814524 1_555
Ca0 O11 2.814524 1_555
Al0 O17 1.880376 1_455
Al0 O18 1.880376 1_554
Al0 O7 1.906101 1_555
Al0 O26 1.935595 1_555
Al0 O27 1.935596 1_555
Al0 O10 2.001681 1_555
Al1 O18 1.880376 1_545
Al1 O16 1.880376 1_455
Al1 O8 1.906101 1_555
Al1 O25 1.935595 1_555
Al1 O27 1.935595 1_555
Al1 O11 2.001681 1_555
Al2 O17 1.880376 1_545
Al2 O16 1.880376 1_554
Al2 O9 1.906101 1_555
Al2 O26 1.935595 1_555
Al2 O25 1.935596 1_555
Al2 O12 2.001681 1_555
Al3 O20 1.880376 1_655
Al3 O21 1.880376 1_556
Al3 O4 1.906101 1_555
Al3 O23 1.935595 1_555
Al3 O24 1.935596 1_555
Al3 O13 2.001681 1_555
Al4 O21 1.880376 1_565
Al4 O19 1.880376 1_655
Al4 O5 1.906101 1_555
Al4 O22 1.935595 1_555
Al4 O24 1.935595 1_555
Al4 O14 2.001681 1_555
Al5 O20 1.880376 1_565
Al5 O19 1.880376 1_556
Al5 O6 1.906101 1_555
Al5 O23 1.935595 1_555
Al5 O22 1.935596 1_555
Al5 O15 2.001681 1_555
H0 O16 0.984649 1_555
H1 O17 0.984649 1_555
H2 O18 0.984649 1_555
H3 O19 0.984649 1_555
H4 O20 0.984649 1_555
H5 O21 0.984649 1_555
H6 O22 0.983519 1_555
H7 O23 0.983519 1_555
H8 O24 0.983519 1_555
H9 O25 0.983519 1_555
H10 O26 0.983519 1_555
H11 O27 0.983519 1_555
O0 S0 1.466281 1_555
O1 S1 1.466281 1_555
O2 S2 1.462549 1_555
O3 S3 1.462549 1_555
O4 S2 1.495716 1_555
O5 S2 1.495716 1_555
O6 S2 1.495716 1_555
O7 S3 1.495716 1_555
O8 S3 1.495716 1_555
O9 S3 1.495716 1_555
O10 S0 1.495603 1_565
O11 S0 1.495603 1_556
O12 S0 1.495603 1_655
O13 S1 1.495603 1_545
O14 S1 1.495603 1_554
O15 S1 1.495603 1_455
