# generated using pymatgen
data_Na3WN3
_symmetry_space_group_name_H-M   'P 1'
_cell_length_a   8.76942691
_cell_length_b   8.76942691
_cell_length_c   6.36489057
_cell_angle_alpha   69.16148602
_cell_angle_beta   69.16148602
_cell_angle_gamma   77.45242311
_symmetry_Int_Tables_number   1
_chemical_formula_structural   Na3WN3
_chemical_formula_sum   'Na12 W4 N12'
_cell_volume   425.22450666
_cell_formula_units_Z   4
loop_
 _symmetry_equiv_pos_site_id
 _symmetry_equiv_pos_as_xyz
  1  'x, y, z'
loop_
 _atom_site_type_symbol
 _atom_site_label
 _atom_site_symmetry_multiplicity
 _atom_site_fract_x
 _atom_site_fract_y
 _atom_site_fract_z
 _atom_site_occupancy
  Na  Na0  1  0.08001446  0.14966635  0.39398388  1
  Na  Na1  1  0.14966635  0.08001446  0.89398388  1
  Na  Na2  1  0.88417399  0.84201310  0.86687361  1
  Na  Na3  1  0.84201310  0.88417399  0.36687361  1
  Na  Na4  1  0.64146618  0.60620688  0.68959119  1
  Na  Na5  1  0.60620688  0.64146618  0.18959119  1
  Na  Na6  1  0.39581396  0.36727726  0.92490754  1
  Na  Na7  1  0.36727726  0.39581396  0.42490754  1
  Na  Na8  1  0.70449326  0.28125494  0.46784738  1
  Na  Na9  1  0.28125494  0.70449326  0.96784738  1
  Na  Na10  1  0.46861741  0.99545277  0.47035579  1
  Na  Na11  1  0.99545277  0.46861741  0.97035579  1
  W  W0  1  0.50979134  0.99197644  0.92438459  1
  W  W1  1  0.99197644  0.50979134  0.42438459  1
  W  W2  1  0.23642882  0.76092156  0.49278825  1
  W  W3  1  0.76092156  0.23642882  0.99278825  1
  N  N0  1  0.64951486  0.04834734  0.05575919  1
  N  N1  1  0.04834734  0.64951486  0.55575919  1
  N  N2  1  0.88210774  0.32443488  0.66515113  1
  N  N3  1  0.32443488  0.88210774  0.16515113  1
  N  N4  1  0.63371076  0.85394948  0.75642036  1
  N  N5  1  0.85394948  0.63371076  0.25642036  1
  N  N6  1  0.16971953  0.90335483  0.66706307  1
  N  N7  1  0.90335483  0.16971953  0.16706307  1
  N  N8  1  0.39853813  0.61238560  0.58795387  1
  N  N9  1  0.61238560  0.39853813  0.08795387  1
  N  N10  1  0.42826103  0.17016611  0.72512115  1
  N  N11  1  0.17016611  0.42826103  0.22512115  1
loop_
_geom_bond_atom_site_label_1
_geom_bond_atom_site_label_2
_geom_bond_distance
_geom_bond_site_symmetry_2
N0 W0 1.931620 1_544
N0 W3 1.945958 1_554
N0 Na10 2.483104 1_545
N0 Na2 2.669034 1_544
N0 Na3 2.852651 1_545
N1 W1 1.931620 1_455
N1 W2 1.945958 1_555
N1 Na11 2.483104 1_455
N1 Na3 2.669034 1_455
N1 Na2 2.852651 1_455
N2 W3 1.925711 1_555
N2 W1 1.943353 1_555
N2 Na8 2.476441 1_555
N2 Na0 2.633437 1_655
N2 Na4 2.890931 1_555
N3 W2 1.925711 1_555
N3 W0 1.943353 1_554
N3 Na9 2.476441 1_554
N3 Na1 2.633437 1_564
N3 Na5 2.890931 1_555
N4 W0 1.819759 1_555
N4 Na4 2.340572 1_555
N4 Na3 2.464762 1_555
N4 Na2 2.505156 1_555
N4 Na10 2.537415 1_555
N4 Na5 2.683061 1_556
N5 W1 1.819759 1_555
N5 Na5 2.340572 1_555
N5 Na2 2.464762 1_554
N5 Na3 2.505156 1_555
N5 Na11 2.537415 1_554
N5 Na4 2.683061 1_555
N6 W2 1.827393 1_555
N6 Na1 2.410375 1_565
N6 Na0 2.422587 1_565
N6 Na9 2.424627 1_555
N6 Na2 2.451517 1_455
N6 Na10 2.637398 1_555
N7 W3 1.827393 1_554
N7 Na0 2.410375 1_655
N7 Na1 2.422587 1_654
N7 Na8 2.424627 1_555
N7 Na3 2.451517 1_545
N7 Na11 2.637398 1_554
N8 W2 1.825177 1_555
N8 Na4 2.421815 1_555
N8 Na6 2.434426 1_555
N8 Na5 2.503398 1_555
N8 Na7 2.567104 1_555
N8 Na9 2.610769 1_555
N9 W3 1.825177 1_554
N9 Na5 2.421815 1_555
N9 Na7 2.434426 1_555
N9 Na4 2.503398 1_554
N9 Na6 2.567104 1_554
N9 Na8 2.610769 1_555
N10 W0 1.819675 1_545
N10 Na7 2.330233 1_555
N10 Na6 2.403869 1_555
N10 Na1 2.472950 1_555
N10 Na10 2.495163 1_545
N10 Na8 2.562558 1_555
N11 W1 1.819675 1_455
N11 Na6 2.330233 1_554
N11 Na7 2.403869 1_555
N11 Na0 2.472950 1_555
N11 Na11 2.495163 1_454
N11 Na9 2.562558 1_554
