# generated using pymatgen
data_RuN5O6
_symmetry_space_group_name_H-M   'P 1'
_cell_length_a   14.18652800
_cell_length_b   11.45201700
_cell_length_c   11.55165945
_cell_angle_alpha   78.37937948
_cell_angle_beta   90.00000000
_cell_angle_gamma   90.00000000
_symmetry_Int_Tables_number   1
_chemical_formula_structural   RuN5O6
_chemical_formula_sum   'Ru8 N40 O48'
_cell_volume   1838.26522311
_cell_formula_units_Z   8
loop_
 _symmetry_equiv_pos_site_id
 _symmetry_equiv_pos_as_xyz
  1  'x, y, z'
loop_
 _atom_site_type_symbol
 _atom_site_label
 _atom_site_symmetry_multiplicity
 _atom_site_fract_x
 _atom_site_fract_y
 _atom_site_fract_z
 _atom_site_occupancy
  Ru  Ru0  1  0.31946300  0.80824100  0.56591400  1
  Ru  Ru1  1  0.81946300  0.19175900  0.93408600  1
  Ru  Ru2  1  0.68053700  0.19175900  0.43408600  1
  Ru  Ru3  1  0.18053700  0.80824100  0.06591400  1
  Ru  Ru4  1  0.42688800  0.18342700  0.99636800  1
  Ru  Ru5  1  0.92688800  0.81657300  0.50363200  1
  Ru  Ru6  1  0.57311200  0.81657300  0.00363200  1
  Ru  Ru7  1  0.07311200  0.18342700  0.49636800  1
  N  N0  1  0.39997300  0.92557900  0.43659000  1
  N  N1  1  0.89997300  0.07442100  0.06341000  1
  N  N2  1  0.60002700  0.07442100  0.56341000  1
  N  N3  1  0.10002700  0.92557900  0.93659000  1
  N  N4  1  0.39702200  0.63197500  0.35084300  1
  N  N5  1  0.89702200  0.36802500  0.14915700  1
  N  N6  1  0.60297800  0.36802500  0.64915700  1
  N  N7  1  0.10297800  0.63197500  0.85084300  1
  N  N8  1  0.46752000  0.37914800  0.09167700  1
  N  N9  1  0.96752000  0.62085200  0.40832300  1
  N  N10  1  0.53248000  0.62085200  0.90832300  1
  N  N11  1  0.03248000  0.37914800  0.59167700  1
  N  N12  1  0.27250100  0.19890200  0.12791100  1
  N  N13  1  0.77250100  0.80109800  0.37208900  1
  N  N14  1  0.72749900  0.80109800  0.87208900  1
  N  N15  1  0.22749900  0.19890200  0.62791100  1
  N  N16  1  0.50815800  0.67942600  0.58263500  1
  N  N17  1  0.00815800  0.32057400  0.91736500  1
  N  N18  1  0.49184200  0.32057400  0.41736500  1
  N  N19  1  0.99184200  0.67942600  0.08263500  1
  N  N20  1  0.33104300  0.33238900  0.93001500  1
  N  N21  1  0.83104300  0.66761100  0.56998500  1
  N  N22  1  0.66895700  0.66761100  0.06998500  1
  N  N23  1  0.16895700  0.33238900  0.43001500  1
  N  N24  1  0.34131800  0.87541700  0.67725000  1
  N  N25  1  0.84131800  0.12458300  0.82275000  1
  N  N26  1  0.65868200  0.12458300  0.32275000  1
  N  N27  1  0.15868200  0.87541700  0.17725000  1
  N  N28  1  0.42779100  0.68465400  0.57244300  1
  N  N29  1  0.92779100  0.31534600  0.92755700  1
  N  N30  1  0.57220900  0.31534600  0.42755700  1
  N  N31  1  0.07220900  0.68465400  0.07244300  1
  N  N32  1  0.36654300  0.08344000  0.92958600  1
  N  N33  1  0.86654300  0.91656000  0.57041400  1
  N  N34  1  0.63345700  0.91656000  0.07041400  1
  N  N35  1  0.13345700  0.08344000  0.42958600  1
  N  N36  1  0.51362800  0.23347600  0.89371100  1
  N  N37  1  0.01362800  0.76652400  0.60628900  1
  N  N38  1  0.48637200  0.76652400  0.10628900  1
  N  N39  1  0.98637200  0.23347600  0.39371100  1
  O  O0  1  0.20587300  0.78713500  0.51507300  1
  O  O1  1  0.70587300  0.21286500  0.98492700  1
  O  O2  1  0.79412700  0.21286500  0.48492700  1
  O  O3  1  0.29412700  0.78713500  0.01507300  1
  O  O4  1  0.47816500  0.10960800  0.12740500  1
  O  O5  1  0.97816500  0.89039200  0.37259500  1
  O  O6  1  0.52183500  0.89039200  0.87259500  1
  O  O7  1  0.02183500  0.10960800  0.62740500  1
  O  O8  1  0.45385900  0.87886300  0.37497300  1
  O  O9  1  0.95385900  0.12113700  0.12502700  1
  O  O10  1  0.54614100  0.12113700  0.62502700  1
  O  O11  1  0.04614100  0.87886300  0.87497300  1
  O  O12  1  0.38842300  0.03315600  0.42868400  1
  O  O13  1  0.88842300  0.96684400  0.07131600  1
  O  O14  1  0.61157700  0.96684400  0.57131600  1
  O  O15  1  0.11157700  0.03315600  0.92868400  1
  O  O16  1  0.32431200  0.65310700  0.29645900  1
  O  O17  1  0.82431200  0.34689300  0.20354100  1
  O  O18  1  0.67568800  0.34689300  0.70354100  1
  O  O19  1  0.17568800  0.65310700  0.79645900  1
  O  O20  1  0.47038700  0.58321600  0.33370800  1
  O  O21  1  0.97038700  0.41678400  0.16629200  1
  O  O22  1  0.52961300  0.41678400  0.66629200  1
  O  O23  1  0.02961300  0.58321600  0.83370800  1
  O  O24  1  0.41045800  0.45563300  0.10562300  1
  O  O25  1  0.91045800  0.54436700  0.39437700  1
  O  O26  1  0.58954200  0.54436700  0.89437700  1
  O  O27  1  0.08954200  0.45563300  0.60562300  1
  O  O28  1  0.54726600  0.36324800  0.13232600  1
  O  O29  1  0.04726600  0.63675200  0.36767400  1
  O  O30  1  0.45273400  0.63675200  0.86767400  1
  O  O31  1  0.95273400  0.36324800  0.63232600  1
  O  O32  1  0.26695000  0.09640800  0.18284900  1
  O  O33  1  0.76695000  0.90359200  0.31715100  1
  O  O34  1  0.73305000  0.90359200  0.81715100  1
  O  O35  1  0.23305000  0.09640800  0.68284900  1
  O  O36  1  0.23129500  0.28778900  0.14542400  1
  O  O37  1  0.73129500  0.71221100  0.35457600  1
  O  O38  1  0.76870500  0.71221100  0.85457600  1
  O  O39  1  0.26870500  0.28778900  0.64542400  1
  O  O40  1  0.59078500  0.66984200  0.59465300  1
  O  O41  1  0.09078500  0.33015800  0.90534700  1
  O  O42  1  0.40921500  0.33015800  0.40534700  1
  O  O43  1  0.90921500  0.66984200  0.09465300  1
  O  O44  1  0.29140200  0.40955100  0.95969800  1
  O  O45  1  0.79140200  0.59044900  0.54030200  1
  O  O46  1  0.70859800  0.59044900  0.04030200  1
  O  O47  1  0.20859800  0.40955100  0.45969800  1
loop_
_geom_bond_atom_site_label_1
_geom_bond_atom_site_label_2
_geom_bond_distance
_geom_bond_site_symmetry_2
N0 O12 1.227852 1_565
N0 O8 1.237193 1_555
N0 Ru0 2.129141 1_555
N1 O13 1.227852 1_545
N1 O9 1.237193 1_555
N1 Ru1 2.129141 1_554
N2 O14 1.227852 1_545
N2 O10 1.237193 1_555
N2 Ru2 2.129141 1_555
N3 O15 1.227852 1_565
N3 O11 1.237193 1_555
N3 Ru3 2.129141 1_556
N4 O16 1.206641 1_555
N4 O20 1.216042 1_555
N5 O17 1.206641 1_555
N5 O21 1.216042 1_555
N6 O18 1.206641 1_555
N6 O22 1.216042 1_555
N7 O19 1.206641 1_555
N7 O23 1.216042 1_555
N8 O28 1.224370 1_555
N8 O24 1.226916 1_555
N9 O29 1.224370 1_655
N9 O25 1.226916 1_555
N10 O30 1.224370 1_555
N10 O26 1.226916 1_555
N11 O31 1.224370 1_455
N11 O27 1.226916 1_555
N12 O32 1.219254 1_555
N12 O36 1.225481 1_555
N13 O33 1.219254 1_555
N13 O37 1.225481 1_555
N14 O34 1.219254 1_555
N14 O38 1.225481 1_555
N15 O35 1.219254 1_555
N15 O39 1.225481 1_555
N16 N28 1.146516 1_555
N16 O40 1.182883 1_555
N17 N29 1.146516 1_455
N17 O41 1.182883 1_555
N18 N30 1.146516 1_555
N18 O42 1.182883 1_555
N19 N31 1.146516 1_655
N19 O43 1.182883 1_555
N20 O44 1.156180 1_555
N20 Ru4 2.195379 1_555
N21 O45 1.156180 1_555
N21 Ru5 2.195379 1_555
N22 O46 1.156180 1_555
N22 Ru6 2.195379 1_555
N23 O47 1.156180 1_555
N23 Ru7 2.195379 1_555
N24 Ru0 1.655488 1_555
N25 Ru1 1.655488 1_555
N26 Ru2 1.655488 1_555
N27 Ru3 1.655488 1_555
N28 Ru0 2.080280 1_555
N29 Ru1 2.080280 1_555
N30 Ru2 2.080280 1_555
N31 Ru3 2.080280 1_555
N32 Ru4 1.730612 1_555
N33 Ru5 1.730612 1_555
N34 Ru6 1.730612 1_555
N35 Ru7 1.730612 1_555
N36 Ru4 1.724872 1_555
N37 Ru5 1.724872 1_455
N38 Ru6 1.724872 1_555
N39 Ru7 1.724872 1_655
O0 Ru0 1.748511 1_555
O1 Ru1 1.748511 1_555
O2 Ru2 1.748511 1_555
O3 Ru3 1.748511 1_555
O4 Ru4 1.737696 1_554
O5 Ru5 1.737696 1_555
O6 Ru6 1.737696 1_556
O7 Ru7 1.737696 1_555
