# generated using pymatgen
data_TiMnV
_symmetry_space_group_name_H-M   'P 1'
_cell_length_a   5.35987937
_cell_length_b   5.35987937
_cell_length_c   12.61489751
_cell_angle_alpha   97.49282944
_cell_angle_beta   97.49282944
_cell_angle_gamma   112.71681403
_symmetry_Int_Tables_number   1
_chemical_formula_structural   TiMnV
_chemical_formula_sum   'Ti8 Mn8 V8'
_cell_volume   324.89823117
_cell_formula_units_Z   8
loop_
 _symmetry_equiv_pos_site_id
 _symmetry_equiv_pos_as_xyz
  1  'x, y, z'
loop_
 _atom_site_type_symbol
 _atom_site_label
 _atom_site_symmetry_multiplicity
 _atom_site_fract_x
 _atom_site_fract_y
 _atom_site_fract_z
 _atom_site_occupancy
  Ti  Ti0_0  1  0.49571950  0.49571950  0.49143900  1
  Ti  Ti0_1  1  0.49571950  0.49571950  0.99143900  1
  Ti  Ti0_2  1  0.49571950  0.99571950  0.49143900  1
  Ti  Ti0_3  1  0.49571950  0.99571950  0.99143900  1
  Ti  Ti0_4  1  0.99571950  0.49571950  0.49143900  1
  Ti  Ti0_5  1  0.99571950  0.49571950  0.99143900  1
  Ti  Ti0_6  1  0.99571950  0.99571950  0.49143900  1
  Ti  Ti0_7  1  0.99571950  0.99571950  0.99143900  1
  Mn  Mn0_0  1  0.16377800  0.16377800  0.32755700  1
  Mn  Mn0_1  1  0.16377800  0.16377800  0.82755700  1
  Mn  Mn0_2  1  0.16377800  0.66377800  0.32755700  1
  Mn  Mn0_3  1  0.16377800  0.66377800  0.82755700  1
  Mn  Mn0_4  1  0.66377800  0.16377800  0.32755700  1
  Mn  Mn0_5  1  0.66377800  0.16377800  0.82755700  1
  Mn  Mn0_6  1  0.66377800  0.66377800  0.32755700  1
  Mn  Mn0_7  1  0.66377800  0.66377800  0.82755700  1
  V  V0_0  1  0.34050250  0.34050250  0.18100400  1
  V  V0_1  1  0.34050250  0.34050250  0.68100400  1
  V  V0_2  1  0.34050250  0.84050250  0.18100400  1
  V  V0_3  1  0.34050250  0.84050250  0.68100400  1
  V  V0_4  1  0.84050250  0.34050250  0.18100400  1
  V  V0_5  1  0.84050250  0.34050250  0.68100400  1
  V  V0_6  1  0.84050250  0.84050250  0.18100400  1
  V  V0_7  1  0.84050250  0.84050250  0.68100400  1
loop_
_geom_bond_atom_site_label_1
_geom_bond_atom_site_label_2
_geom_bond_distance
_geom_bond_site_symmetry_2
Ti0_0 Ti0_2 2.679940 1_555
Ti0_0 Ti0_4 2.679940 1_555
Ti0_0 Ti0_4 2.679940 1_455
Ti0_0 Ti0_2 2.679940 1_545
Ti0_0 V0_1 2.757886 1_555
Ti0_0 V0_7 2.757889 1_555
Ti0_1 Ti0_3 2.679940 1_555
Ti0_1 Ti0_5 2.679940 1_455
Ti0_1 Ti0_5 2.679940 1_555
Ti0_1 Ti0_3 2.679940 1_545
Ti0_1 V0_0 2.757886 1_556
Ti0_1 V0_6 2.757889 1_556
Ti0_2 Ti0_6 2.679940 1_455
Ti0_2 Ti0_6 2.679940 1_555
Ti0_2 V0_3 2.757886 1_555
Ti0_2 V0_5 2.757889 1_565
Ti0_3 Ti0_7 2.679940 1_455
Ti0_3 Ti0_7 2.679940 1_555
Ti0_3 V0_2 2.757886 1_556
Ti0_3 V0_4 2.757889 1_566
Ti0_4 Ti0_6 2.679940 1_555
Ti0_4 Ti0_6 2.679940 1_545
Ti0_4 V0_5 2.757886 1_555
Ti0_4 V0_3 2.757889 1_655
Ti0_5 Ti0_7 2.679940 1_555
Ti0_5 Ti0_7 2.679940 1_545
Ti0_5 V0_4 2.757886 1_556
Ti0_5 V0_2 2.757889 1_656
Ti0_6 V0_7 2.757886 1_555
Ti0_6 V0_1 2.757889 1_665
Ti0_7 V0_6 2.757886 1_556
Ti0_7 V0_0 2.757889 1_666
Mn0_0 V0_6 2.330827 1_445
Mn0_0 V0_0 2.330835 1_555
Mn0_0 Ti0_6 2.498281 1_445
Mn0_0 Ti0_0 2.498284 1_555
Mn0_1 V0_7 2.330827 1_445
Mn0_1 V0_1 2.330835 1_555
Mn0_1 Ti0_7 2.498281 1_445
Mn0_1 Ti0_1 2.498284 1_555
Mn0_2 V0_4 2.330827 1_455
Mn0_2 V0_2 2.330835 1_555
Mn0_2 Ti0_4 2.498281 1_455
Mn0_2 Ti0_2 2.498284 1_555
Mn0_3 V0_5 2.330827 1_455
Mn0_3 V0_3 2.330835 1_555
Mn0_3 Ti0_5 2.498281 1_455
Mn0_3 Ti0_3 2.498284 1_555
Mn0_4 V0_2 2.330827 1_545
Mn0_4 V0_4 2.330835 1_555
Mn0_4 Ti0_2 2.498281 1_545
Mn0_4 Ti0_4 2.498284 1_555
Mn0_5 V0_3 2.330827 1_545
Mn0_5 V0_5 2.330835 1_555
Mn0_5 Ti0_3 2.498281 1_545
Mn0_5 Ti0_5 2.498284 1_555
Mn0_6 V0_0 2.330827 1_555
Mn0_6 V0_6 2.330835 1_555
Mn0_6 Ti0_0 2.498281 1_555
Mn0_6 Ti0_6 2.498284 1_555
Mn0_7 V0_1 2.330827 1_555
Mn0_7 V0_7 2.330835 1_555
Mn0_7 Ti0_1 2.498281 1_555
Mn0_7 Ti0_7 2.498284 1_555
