# generated using pymatgen
data_Nd3Bi(Ru2O7)2
_symmetry_space_group_name_H-M   'P 1'
_cell_length_a   7.41307556
_cell_length_b   7.41307556
_cell_length_c   7.36950319
_cell_angle_alpha   90.00000000
_cell_angle_beta   59.80422173
_cell_angle_gamma   120.00000000
_symmetry_Int_Tables_number   1
_chemical_formula_structural   Nd3Bi(Ru2O7)2
_chemical_formula_sum   'Nd3 Bi1 Ru4 O14'
_cell_volume   285.51475036
_cell_formula_units_Z   1
loop_
 _symmetry_equiv_pos_site_id
 _symmetry_equiv_pos_as_xyz
  1  'x, y, z'
loop_
 _atom_site_type_symbol
 _atom_site_label
 _atom_site_symmetry_multiplicity
 _atom_site_fract_x
 _atom_site_fract_y
 _atom_site_fract_z
 _atom_site_occupancy
  Nd  Nd0  1  0.25000000  0.37500000  0.37500000  1
  Nd  Nd1  1  0.25000000  0.87500000  0.37500000  1
  Nd  Nd2  1  0.75000000  0.37500000  0.37500000  1
  Bi  Bi0  1  0.75000000  0.37500000  0.87500000  1
  Ru  Ru0  1  0.75000000  0.87500000  0.37500000  1
  Ru  Ru1  1  0.25000000  0.87500000  0.87500000  1
  Ru  Ru2  1  0.25000000  0.37500000  0.87500000  1
  Ru  Ru3  1  0.75000000  0.87500000  0.87500000  1
  O  O0  1  0.91095300  0.95547600  0.54477800  1
  O  O1  1  0.49974500  0.54426900  0.54477800  1
  O  O2  1  0.49974500  0.95547600  0.54477800  1
  O  O3  1  0.09464800  0.54732400  0.94972000  1
  O  O4  1  0.50295600  0.95563200  0.94972000  1
  O  O5  1  0.50295600  0.54732400  0.94972000  1
  O  O6  1  0.58904700  0.79452400  0.20522200  1
  O  O7  1  0.00025500  0.20573100  0.20522200  1
  O  O8  1  0.00025500  0.79452400  0.20522200  1
  O  O9  1  0.40535200  0.20267600  0.80028000  1
  O  O10  1  0.99704400  0.79436800  0.80028000  1
  O  O11  1  0.99704400  0.20267600  0.80028000  1
  O  O12  1  0.49886300  0.24943100  0.25170600  1
  O  O13  1  0.00113700  0.50056900  0.49829400  1
loop_
_geom_bond_atom_site_label_1
_geom_bond_atom_site_label_2
_geom_bond_distance
_geom_bond_site_symmetry_2
Nd0 O12 2.264203 1_555
Nd0 O13 2.264203 1_555
Nd0 O1 2.564093 1_555
Nd0 O7 2.564093 1_555
Nd0 O0 2.564098 1_445
Nd0 O6 2.564098 1_555
Nd0 O11 2.581390 1_455
Nd0 O5 2.581390 1_554
Nd1 O13 2.264197 1_555
Nd1 O12 2.264197 1_565
Nd1 O2 2.564093 1_555
Nd1 O0 2.564093 1_455
Nd1 O6 2.564093 1_555
Nd1 O8 2.564093 1_555
Nd1 O4 2.581390 1_554
Nd1 O10 2.581390 1_455
Nd2 O13 2.264197 1_655
Nd2 O12 2.264197 1_555
Nd2 O7 2.564098 1_655
Nd2 O2 2.564098 1_545
Nd2 O1 2.564098 1_555
Nd2 O8 2.564098 1_655
Nd2 O3 2.581390 1_654
Nd2 O9 2.581390 1_555
Bi0 O13 2.259975 1_655
Bi0 O12 2.259975 1_556
Bi0 O10 2.571776 1_555
Bi0 O4 2.571776 1_545
Bi0 O11 2.571776 1_555
Bi0 O9 2.571776 1_555
Bi0 O5 2.571776 1_555
Bi0 O3 2.571776 1_655
O0 Ru3 2.017223 1_555
O0 Ru0 2.033432 1_555
O1 Ru2 2.017223 1_555
O1 Ru0 2.033432 1_555
O2 Ru1 2.017223 1_555
O2 Ru0 2.033432 1_555
O3 Ru1 2.023517 1_555
O3 Ru2 2.023517 1_555
O4 Ru1 2.023517 1_555
O4 Ru3 2.023517 1_555
O5 Ru2 2.023517 1_555
O5 Ru3 2.023517 1_555
O6 Ru3 2.017223 1_554
O6 Ru0 2.033432 1_555
O7 Ru2 2.017223 1_554
O7 Ru0 2.033432 1_445
O8 Ru1 2.017223 1_554
O8 Ru0 2.033432 1_455
O9 Ru2 2.023517 1_555
O9 Ru1 2.023517 1_545
O10 Ru1 2.023517 1_655
O10 Ru3 2.023517 1_555
O11 Ru2 2.023517 1_655
O11 Ru3 2.023517 1_545
