# generated using pymatgen
data_Rb2LiPu(Cl2O)2
_symmetry_space_group_name_H-M   'P 1'
_cell_length_a   6.12407657
_cell_length_b   7.15092719
_cell_length_c   6.98062966
_cell_angle_alpha   63.94737376
_cell_angle_beta   80.11052270
_cell_angle_gamma   81.44396706
_symmetry_Int_Tables_number   1
_chemical_formula_structural   Rb2LiPu(Cl2O)2
_chemical_formula_sum   'Rb2 Li1 Pu1 Cl4 O2'
_cell_volume   269.62790953
_cell_formula_units_Z   1
loop_
 _symmetry_equiv_pos_site_id
 _symmetry_equiv_pos_as_xyz
  1  'x, y, z'
loop_
 _atom_site_type_symbol
 _atom_site_label
 _atom_site_symmetry_multiplicity
 _atom_site_fract_x
 _atom_site_fract_y
 _atom_site_fract_z
 _atom_site_occupancy
  Rb  Rb0  1  0.82773900  0.87444900  0.88694600  1
  Rb  Rb1  1  0.16541200  0.18298000  0.15967500  1
  Li  Li0  1  0.41047800  0.76037000  0.72704600  1
  Pu  Pu0  1  0.50816800  0.48545500  0.49005200  1
  Cl  Cl0  1  0.69572600  0.85061000  0.39271100  1
  Cl  Cl1  1  0.69485400  0.35655800  0.86266500  1
  Cl  Cl2  1  0.28914300  0.11822700  0.64798700  1
  Cl  Cl3  1  0.30518600  0.66118500  0.10773000  1
  O  O0  1  0.74540900  0.37904300  0.36401700  1
  O  O1  1  0.27455200  0.59964200  0.62043000  1
loop_
_geom_bond_atom_site_label_1
_geom_bond_atom_site_label_2
_geom_bond_distance
_geom_bond_site_symmetry_2
Li0 O1 1.953641 1_555
Cl0 Li0 2.554807 1_555
Cl0 Pu0 2.768610 1_555
Cl0 Rb0 3.417514 1_554
Cl0 Rb1 3.687769 1_665
Cl0 Rb0 3.755180 1_555
Cl0 Rb1 3.868390 1_565
Cl1 Pu0 2.743033 1_555
Cl1 Li0 2.989362 1_555
Cl1 Rb0 3.357934 1_545
Cl1 Rb1 3.587639 1_656
Cl1 Rb1 3.602773 1_556
Cl2 Li0 2.395784 1_545
Cl2 Rb0 3.331396 1_445
Cl2 Rb1 3.435747 1_555
Cl2 Rb1 3.737084 1_556
Cl3 Li0 2.423340 1_554
Cl3 Rb0 3.377413 1_454
Cl3 Rb1 3.497584 1_555
Cl3 Rb1 3.862437 1_565
O0 Pu0 1.812177 1_555
O0 Rb1 3.168541 1_655
O1 Pu0 1.843861 1_555
O1 Rb1 3.656573 1_556
