# generated using pymatgen
data_Li9Mn2Co5O16
_symmetry_space_group_name_H-M   'P 1'
_cell_length_a   2.89030200
_cell_length_b   5.88782000
_cell_length_c   16.77937718
_cell_angle_alpha   89.60379446
_cell_angle_beta   90.00000000
_cell_angle_gamma   90.00000000
_symmetry_Int_Tables_number   1
_chemical_formula_structural   Li9Mn2Co5O16
_chemical_formula_sum   'Li9 Mn2 Co5 O16'
_cell_volume   285.53753153
_cell_formula_units_Z   1
loop_
 _symmetry_equiv_pos_site_id
 _symmetry_equiv_pos_as_xyz
  1  'x, y, z'
loop_
 _atom_site_type_symbol
 _atom_site_label
 _atom_site_symmetry_multiplicity
 _atom_site_fract_x
 _atom_site_fract_y
 _atom_site_fract_z
 _atom_site_occupancy
  Li  Li0  1  0.50000000  0.75618300  0.87578000  1
  Li  Li1  1  0.50000000  0.25296900  0.62888400  1
  Li  Li2  1  0.50000000  0.74970300  0.37409000  1
  Li  Li3  1  0.00000000  0.00711900  0.75886400  1
  Li  Li4  1  0.00000000  0.49522100  0.50029500  1
  Li  Li5  1  0.00000000  0.00246200  0.24964600  1
  Li  Li6  1  0.50000000  0.24987800  0.12352200  1
  Li  Li7  1  0.00000000  0.49456300  0.99016500  1
  Li  Li8  1  0.50000000  0.24397700  0.87472800  1
  Mn  Mn0  1  0.00000000  0.00397000  0.99405200  1
  Mn  Mn1  1  0.50000000  0.74569000  0.62629300  1
  Co  Co0  1  0.00000000  0.48766200  0.76426300  1
  Co  Co1  1  0.00000000  0.00687800  0.50045400  1
  Co  Co2  1  0.00000000  0.49700100  0.24762400  1
  Co  Co3  1  0.50000000  0.24993300  0.37535100  1
  Co  Co4  1  0.50000000  0.75079300  0.12417600  1
  O  O0  1  0.50000000  0.77438800  0.00120400  1
  O  O1  1  0.50000000  0.26747400  0.74802500  1
  O  O2  1  0.50000000  0.76133200  0.50717000  1
  O  O3  1  0.00000000  0.00053200  0.88572800  1
  O  O4  1  0.00000000  0.52819800  0.62424500  1
  O  O5  1  0.00000000  0.02663700  0.37748100  1
  O  O6  1  0.50000000  0.26747900  0.24811700  1
  O  O7  1  0.00000000  0.51809400  0.12607100  1
  O  O8  1  0.50000000  0.73300400  0.73983300  1
  O  O9  1  0.50000000  0.24168400  0.50102700  1
  O  O10  1  0.50000000  0.73642100  0.24867600  1
  O  O11  1  0.00000000  0.96945700  0.62445500  1
  O  O12  1  0.00000000  0.47216000  0.37152500  1
  O  O13  1  0.00000000  0.98238500  0.11719100  1
  O  O14  1  0.50000000  0.22113400  0.00111100  1
  O  O15  1  0.00000000  0.50561900  0.86995600  1
loop_
_geom_bond_atom_site_label_1
_geom_bond_atom_site_label_2
_geom_bond_distance
_geom_bond_site_symmetry_2
Li0 O3 2.046816 1_565
Li0 O3 2.046816 1_665
Li0 O15 2.067956 1_655
Li0 O15 2.067956 1_555
Li0 O0 2.108005 1_556
Li0 O8 2.286127 1_555
Li1 O1 2.001525 1_555
Li1 O9 2.146849 1_555
Li1 O4 2.172278 1_555
Li1 O4 2.172278 1_655
Li1 O11 2.209560 1_545
Li1 O11 2.209560 1_645
Li2 O10 2.106362 1_555
Li2 O5 2.179824 1_565
Li2 O5 2.179824 1_665
Li2 O12 2.182119 1_655
Li2 O12 2.182119 1_555
Li2 O2 2.234522 1_555
Li3 O1 2.113655 1_555
Li3 O1 2.113655 1_455
Li3 O3 2.128784 1_555
Li3 O8 2.191429 1_445
Li3 O8 2.191429 1_545
Li3 O11 2.267700 1_545
Li4 O9 2.077679 1_455
Li4 O9 2.077679 1_555
Li4 O4 2.090184 1_555
Li4 O2 2.135222 1_555
Li4 O2 2.135222 1_455
Li4 O12 2.165879 1_555
Li5 O6 2.126812 1_555
Li5 O6 2.126812 1_455
Li5 O10 2.131359 1_545
Li5 O10 2.131359 1_445
Li5 O5 2.150691 1_555
Li5 O13 2.226470 1_545
Li6 O14 2.062107 1_555
Li6 O6 2.093909 1_555
Li6 O13 2.140684 1_645
Li6 O13 2.140684 1_545
Li6 O7 2.141290 1_655
Li6 O7 2.141290 1_555
Li7 O15 2.017632 1_555
Li7 O14 2.170227 1_456
Li7 O14 2.170227 1_556
Li7 O0 2.200328 1_456
Li7 O0 2.200328 1_556
Li7 O7 2.285579 1_556
Li8 O3 2.042888 1_655
Li8 O3 2.042888 1_555
Li8 O15 2.113365 1_555
Li8 O15 2.113365 1_655
Li8 O14 2.123960 1_556
Li8 O1 2.129539 1_555
Mn0 O3 1.817862 1_555
Mn0 O14 1.933769 1_556
Mn0 O14 1.933769 1_456
Mn0 O0 1.981871 1_546
Mn0 O0 1.981871 1_446
Mn0 O13 2.069223 1_546
Mn1 O8 1.906078 1_555
Mn1 O4 1.931339 1_555
Mn1 O4 1.931339 1_655
Mn1 O11 1.955673 1_555
Mn1 O11 1.955673 1_655
Mn1 O2 2.000294 1_555
Co0 O15 1.777341 1_555
Co0 O1 1.961710 1_455
Co0 O1 1.961710 1_555
Co0 O8 2.082060 1_455
Co0 O8 2.082060 1_555
Co0 O4 2.359864 1_555
Co1 O9 2.000008 1_455
Co1 O9 2.000008 1_555
Co1 O2 2.046716 1_545
Co1 O2 2.046716 1_445
Co1 O5 2.065884 1_555
Co1 O11 2.090777 1_545
Co2 O6 1.978538 1_555
Co2 O6 1.978538 1_455
Co2 O10 2.018976 1_455
Co2 O10 2.018976 1_555
Co2 O7 2.042504 1_555
Co2 O12 2.083111 1_555
Co3 O12 1.950235 1_655
Co3 O12 1.950235 1_555
Co3 O5 1.953867 1_555
Co3 O5 1.953867 1_655
Co3 O9 2.108988 1_555
Co3 O6 2.136692 1_555
Co4 O13 1.989803 1_655
Co4 O13 1.989803 1_555
Co4 O7 1.991486 1_655
Co4 O7 1.991486 1_555
Co4 O0 2.067106 1_555
Co4 O10 2.090161 1_555
