# generated using pymatgen
data_LaZn2Co
_symmetry_space_group_name_H-M   'P 1'
_cell_length_a   6.83986490
_cell_length_b   6.83986490
_cell_length_c   4.43417700
_cell_angle_alpha   90.00000000
_cell_angle_beta   90.00000000
_cell_angle_gamma   134.45106745
_symmetry_Int_Tables_number   1
_chemical_formula_structural   LaZn2Co
_chemical_formula_sum   'La2 Zn4 Co2'
_cell_volume   148.08610135
_cell_formula_units_Z   2
loop_
 _symmetry_equiv_pos_site_id
 _symmetry_equiv_pos_as_xyz
  1  'x, y, z'
loop_
 _atom_site_type_symbol
 _atom_site_label
 _atom_site_symmetry_multiplicity
 _atom_site_fract_x
 _atom_site_fract_y
 _atom_site_fract_z
 _atom_site_occupancy
  La  La0  1  0.79672200  0.20327800  0.25000000  1
  La  La1  1  0.20327800  0.79672200  0.75000000  1
  Zn  Zn0  1  0.79925200  0.68511100  0.25000000  1
  Zn  Zn1  1  0.20074800  0.31488900  0.75000000  1
  Zn  Zn2  1  0.31488900  0.20074800  0.25000000  1
  Zn  Zn3  1  0.68511100  0.79925200  0.75000000  1
  Co  Co0  1  0.38243000  0.61757000  0.25000000  1
  Co  Co1  1  0.61757000  0.38243000  0.75000000  1
loop_
_geom_bond_atom_site_label_1
_geom_bond_atom_site_label_2
_geom_bond_distance
_geom_bond_site_symmetry_2
La0 Zn1 3.190662 1_654
La0 Zn3 3.190662 1_544
La0 Zn1 3.190662 1_655
La0 Zn3 3.190662 1_545
La0 Zn2 3.283577 1_555
La0 Zn0 3.283577 1_555
La1 Zn2 3.190662 1_566
La1 Zn2 3.190662 1_565
La1 Zn0 3.190662 1_455
La1 Zn0 3.190662 1_456
La1 Zn3 3.283577 1_555
La1 Zn1 3.283577 1_555
Zn0 Zn2 2.564938 1_555
Zn0 Zn3 2.643515 1_554
Zn0 Zn3 2.643515 1_555
Zn0 Zn2 2.730550 1_665
Zn1 Zn3 2.564938 1_555
Zn1 Zn2 2.643515 1_556
Zn1 Zn2 2.643515 1_555
Zn1 Zn3 2.730550 1_445
Co0 Zn0 2.548911 1_555
Co0 Zn2 2.548911 1_555
Co0 Zn3 2.672549 1_554
Co0 Zn3 2.672549 1_555
Co0 Zn1 2.672549 1_555
Co0 Zn1 2.672549 1_554
Co0 La0 2.859934 1_565
Co0 La0 2.859934 1_455
Co0 La1 3.165697 1_555
Co0 La1 3.165697 1_554
Co1 Zn3 2.548911 1_555
Co1 Zn1 2.548911 1_555
Co1 Zn0 2.672549 1_555
Co1 Zn0 2.672549 1_556
Co1 Zn2 2.672549 1_555
Co1 Zn2 2.672549 1_556
Co1 La1 2.859934 1_655
Co1 La1 2.859934 1_545
Co1 La0 3.165697 1_556
Co1 La0 3.165697 1_555
