# generated using pymatgen
data_KMg3AlGe3(O5F)2
_symmetry_space_group_name_H-M   'P 1'
_cell_length_a   5.46565400
_cell_length_b   5.46676512
_cell_length_c   10.67469757
_cell_angle_alpha   99.72235827
_cell_angle_beta   85.27563966
_cell_angle_gamma   119.98294280
_symmetry_Int_Tables_number   1
_chemical_formula_structural   KMg3AlGe3(O5F)2
_chemical_formula_sum   'K1 Mg3 Al1 Ge3 O10 F2'
_cell_volume   272.30112506
_cell_formula_units_Z   1
loop_
 _symmetry_equiv_pos_site_id
 _symmetry_equiv_pos_as_xyz
  1  'x, y, z'
loop_
 _atom_site_type_symbol
 _atom_site_label
 _atom_site_symmetry_multiplicity
 _atom_site_fract_x
 _atom_site_fract_y
 _atom_site_fract_z
 _atom_site_occupancy
  K  K0  1  0.99985100  0.50793400  0.02335200  1
  Mg  Mg0  1  0.33969400  0.66611100  0.49079600  1
  Mg  Mg1  1  0.66451500  0.32312400  0.49103100  1
  Mg  Mg2  1  0.99664300  0.00288900  0.49107000  1
  Al  Al0  1  0.66621800  0.90858300  0.22808900  1
  Ge  Ge0  1  0.33379100  0.24090600  0.22347800  1
  Ge  Ge1  1  0.33228400  0.08949100  0.76894900  1
  Ge  Ge2  1  0.66587200  0.75505000  0.76912600  1
  O  O0  1  0.58966100  0.14486600  0.16786300  1
  O  O1  1  0.41036600  0.55587100  0.16782100  1
  O  O2  1  0.42227500  0.86754400  0.83600200  1
  O  O3  1  0.57723400  0.44468200  0.83698400  1
  O  O4  1  0.66475800  0.96403900  0.39706400  1
  O  O5  1  0.33540800  0.29849800  0.39535100  1
  O  O6  1  0.33185400  0.03636600  0.60314200  1
  O  O7  1  0.66532400  0.69801400  0.60329400  1
  O  O8  1  0.99931000  0.96610600  0.16861300  1
  O  O9  1  0.99934000  0.02250900  0.83659000  1
  F  F0  1  0.99960400  0.63986000  0.41071300  1
  F  F1  1  0.00599700  0.36755800  0.59067300  1
loop_
_geom_bond_atom_site_label_1
_geom_bond_atom_site_label_2
_geom_bond_distance
_geom_bond_site_symmetry_2
K0 O1 2.706856 1_655
K0 O0 2.713363 1_555
K0 O8 2.715312 1_555
K0 O3 3.023114 1_554
K0 O9 3.036999 1_554
K0 O2 3.037395 1_654
Mg0 O4 2.043473 1_555
Mg0 O5 2.083899 1_555
Mg0 O7 2.147380 1_555
Mg0 O6 2.189840 1_565
Mg1 O4 2.048656 1_545
Mg1 O5 2.076312 1_555
Mg1 O6 2.149878 1_555
Mg1 O7 2.190574 1_555
Mg2 O4 2.045820 1_545
Mg2 O5 2.083094 1_655
Mg2 O6 2.184823 1_655
Mg2 O7 2.189202 1_545
Al0 O8 1.766708 1_555
Al0 O1 1.766796 1_555
Al0 O0 1.766890 1_565
Al0 O4 1.777883 1_555
Ge0 O0 1.753776 1_555
Ge0 O8 1.753915 1_445
Ge0 O1 1.754183 1_555
Ge0 O5 1.808340 1_555
Ge1 O6 1.744542 1_555
Ge1 O9 1.781517 1_455
Ge1 O2 1.781636 1_545
Ge1 O3 1.782083 1_555
Ge2 O7 1.744815 1_555
Ge2 O3 1.781560 1_555
Ge2 O2 1.781578 1_555
Ge2 O9 1.781978 1_565
F0 Mg2 2.032122 1_565
F0 Mg0 2.039675 1_655
F0 Mg1 2.039780 1_555
F1 Mg2 2.073293 1_455
F1 Mg0 2.102183 1_555
F1 Mg1 2.111989 1_455
