# generated using pymatgen
data_Ca8TiMn7O24
_symmetry_space_group_name_H-M   'P 1'
_cell_length_a   7.62485400
_cell_length_b   7.62485400
_cell_length_c   7.62485400
_cell_angle_alpha   90.00000000
_cell_angle_beta   90.00000000
_cell_angle_gamma   90.00000000
_symmetry_Int_Tables_number   1
_chemical_formula_structural   Ca8TiMn7O24
_chemical_formula_sum   'Ca8 Ti1 Mn7 O24'
_cell_volume   443.29680052
_cell_formula_units_Z   1
loop_
 _symmetry_equiv_pos_site_id
 _symmetry_equiv_pos_as_xyz
  1  'x, y, z'
loop_
 _atom_site_type_symbol
 _atom_site_label
 _atom_site_symmetry_multiplicity
 _atom_site_fract_x
 _atom_site_fract_y
 _atom_site_fract_z
 _atom_site_occupancy
  Ca  Ca0  1  0.25099000  0.25099000  0.25099000  1
  Ca  Ca1  1  0.25099000  0.25099000  0.74901000  1
  Ca  Ca2  1  0.25099000  0.74901000  0.25099000  1
  Ca  Ca3  1  0.25099000  0.74901000  0.74901000  1
  Ca  Ca4  1  0.74901000  0.25099000  0.25099000  1
  Ca  Ca5  1  0.74901000  0.25099000  0.74901000  1
  Ca  Ca6  1  0.74901000  0.74901000  0.25099000  1
  Ca  Ca7  1  0.74901000  0.74901000  0.74901000  1
  Ti  Ti0  1  0.00000000  0.00000000  0.00000000  1
  Mn  Mn0  1  0.00000000  0.00000000  0.50000000  1
  Mn  Mn1  1  0.00000000  0.50000000  0.00000000  1
  Mn  Mn2  1  0.00000000  0.50000000  0.50000000  1
  Mn  Mn3  1  0.50000000  0.00000000  0.00000000  1
  Mn  Mn4  1  0.50000000  0.00000000  0.50000000  1
  Mn  Mn5  1  0.50000000  0.50000000  0.00000000  1
  Mn  Mn6  1  0.50000000  0.50000000  0.50000000  1
  O  O0  1  0.00000000  0.00000000  0.25328400  1
  O  O1  1  0.00000000  0.00000000  0.74671600  1
  O  O2  1  0.00000000  0.50000000  0.24995000  1
  O  O3  1  0.00000000  0.50000000  0.75005000  1
  O  O4  1  0.50000000  0.00000000  0.24995000  1
  O  O5  1  0.50000000  0.00000000  0.75005000  1
  O  O6  1  0.50000000  0.50000000  0.25004400  1
  O  O7  1  0.50000000  0.50000000  0.74995600  1
  O  O8  1  0.25328400  0.00000000  0.00000000  1
  O  O9  1  0.24995000  0.00000000  0.50000000  1
  O  O10  1  0.24995000  0.50000000  0.00000000  1
  O  O11  1  0.25004400  0.50000000  0.50000000  1
  O  O12  1  0.74671600  0.00000000  0.00000000  1
  O  O13  1  0.75005000  0.00000000  0.50000000  1
  O  O14  1  0.75005000  0.50000000  0.00000000  1
  O  O15  1  0.74995600  0.50000000  0.50000000  1
  O  O16  1  0.00000000  0.25328400  0.00000000  1
  O  O17  1  0.00000000  0.24995000  0.50000000  1
  O  O18  1  0.00000000  0.74671600  0.00000000  1
  O  O19  1  0.00000000  0.75005000  0.50000000  1
  O  O20  1  0.50000000  0.24995000  0.00000000  1
  O  O21  1  0.50000000  0.25004400  0.50000000  1
  O  O22  1  0.50000000  0.75005000  0.00000000  1
  O  O23  1  0.50000000  0.74995600  0.50000000  1
loop_
_geom_bond_atom_site_label_1
_geom_bond_atom_site_label_2
_geom_bond_distance
_geom_bond_site_symmetry_2
Ca0 O21 2.685127 1_555
Ca0 O11 2.685127 1_555
Ca0 O6 2.685127 1_555
Ca0 O9 2.695826 1_555
Ca0 O10 2.695826 1_555
Ca0 O2 2.695826 1_555
Ca0 O17 2.695826 1_555
Ca0 O20 2.695826 1_555
Ca0 O4 2.695826 1_555
Ca0 O0 2.706525 1_555
Ca0 O8 2.706525 1_555
Ca0 O16 2.706525 1_555
Ca1 O7 2.685127 1_555
Ca1 O11 2.685127 1_555
Ca1 O21 2.685127 1_555
Ca1 O10 2.695826 1_556
Ca1 O20 2.695826 1_556
Ca1 O5 2.695826 1_555
Ca1 O3 2.695826 1_555
Ca1 O17 2.695826 1_555
Ca1 O9 2.695826 1_555
Ca1 O8 2.706525 1_556
Ca1 O16 2.706525 1_556
Ca1 O1 2.706525 1_555
Ca2 O23 2.685127 1_555
Ca2 O11 2.685127 1_555
Ca2 O6 2.685127 1_555
Ca2 O9 2.695826 1_565
Ca2 O4 2.695826 1_565
Ca2 O19 2.695826 1_555
Ca2 O22 2.695826 1_555
Ca2 O10 2.695826 1_555
Ca2 O2 2.695826 1_555
Ca2 O8 2.706525 1_565
Ca2 O0 2.706525 1_565
Ca2 O18 2.706525 1_555
Ca3 O23 2.685127 1_555
Ca3 O7 2.685127 1_555
Ca3 O11 2.685127 1_555
Ca3 O22 2.695826 1_556
Ca3 O5 2.695826 1_565
Ca3 O9 2.695826 1_565
Ca3 O10 2.695826 1_556
Ca3 O3 2.695826 1_555
Ca3 O19 2.695826 1_555
Ca3 O8 2.706525 1_566
Ca3 O18 2.706525 1_556
Ca3 O1 2.706525 1_565
Ca4 O15 2.685127 1_555
Ca4 O21 2.685127 1_555
Ca4 O6 2.685127 1_555
Ca4 O17 2.695826 1_655
Ca4 O2 2.695826 1_655
Ca4 O14 2.695826 1_555
Ca4 O13 2.695826 1_555
Ca4 O20 2.695826 1_555
Ca4 O4 2.695826 1_555
Ca4 O0 2.706525 1_655
Ca4 O16 2.706525 1_655
Ca4 O12 2.706525 1_555
Ca5 O15 2.685127 1_555
Ca5 O7 2.685127 1_555
Ca5 O21 2.685127 1_555
Ca5 O3 2.695826 1_655
Ca5 O14 2.695826 1_556
Ca5 O17 2.695826 1_655
Ca5 O20 2.695826 1_556
Ca5 O5 2.695826 1_555
Ca5 O13 2.695826 1_555
Ca5 O16 2.706525 1_656
Ca5 O1 2.706525 1_655
Ca5 O12 2.706525 1_556
Ca6 O23 2.685127 1_555
Ca6 O15 2.685127 1_555
Ca6 O6 2.685127 1_555
Ca6 O19 2.695826 1_655
Ca6 O13 2.695826 1_565
Ca6 O2 2.695826 1_655
Ca6 O4 2.695826 1_565
Ca6 O14 2.695826 1_555
Ca6 O22 2.695826 1_555
Ca6 O0 2.706525 1_665
Ca6 O18 2.706525 1_655
Ca6 O12 2.706525 1_565
Ca7 O15 2.685127 1_555
Ca7 O7 2.685127 1_555
Ca7 O23 2.685127 1_555
Ca7 O13 2.695826 1_565
Ca7 O5 2.695826 1_565
Ca7 O3 2.695826 1_655
Ca7 O22 2.695826 1_556
Ca7 O19 2.695826 1_655
Ca7 O14 2.695826 1_556
Ca7 O12 2.706525 1_566
Ca7 O1 2.706525 1_665
Ca7 O18 2.706525 1_656
Mn0 O1 1.881173 1_555
Mn0 O0 1.881173 1_555
Mn0 O13 1.905832 1_455
Mn0 O19 1.905832 1_545
Mn0 O9 1.905832 1_555
Mn0 O17 1.905832 1_555
Mn1 O18 1.881173 1_555
Mn1 O16 1.881173 1_555
Mn1 O3 1.905832 1_554
Mn1 O14 1.905832 1_455
Mn1 O10 1.905832 1_555
Mn1 O2 1.905832 1_555
Mn2 O11 1.906549 1_555
Mn2 O15 1.906549 1_455
Mn2 O2 1.906595 1_555
Mn2 O17 1.906595 1_555
Mn2 O3 1.906595 1_555
Mn2 O19 1.906595 1_555
Mn3 O12 1.881173 1_555
Mn3 O8 1.881173 1_555
Mn3 O5 1.905832 1_554
Mn3 O22 1.905832 1_545
Mn3 O20 1.905832 1_555
Mn3 O4 1.905832 1_555
Mn4 O21 1.906549 1_555
Mn4 O23 1.906549 1_545
Mn4 O4 1.906595 1_555
Mn4 O9 1.906595 1_555
Mn4 O5 1.906595 1_555
Mn4 O13 1.906595 1_555
Mn5 O6 1.906549 1_555
Mn5 O7 1.906549 1_554
Mn5 O20 1.906595 1_555
Mn5 O10 1.906595 1_555
Mn5 O14 1.906595 1_555
Mn5 O22 1.906595 1_555
Mn6 O7 1.905878 1_555
Mn6 O23 1.905878 1_555
Mn6 O15 1.905878 1_555
Mn6 O11 1.905878 1_555
Mn6 O21 1.905878 1_555
Mn6 O6 1.905878 1_555
O0 Ti0 1.931254 1_555
O1 Ti0 1.931254 1_556
O8 Ti0 1.931254 1_555
O12 Ti0 1.931254 1_655
O16 Ti0 1.931254 1_555
O18 Ti0 1.931254 1_565
