# generated using pymatgen
data_Cs5As(PSe3)4
_symmetry_space_group_name_H-M   'P 1'
_cell_length_a   14.24338700
_cell_length_b   14.24338700
_cell_length_c   7.76650400
_cell_angle_alpha   90.00000000
_cell_angle_beta   90.00000000
_cell_angle_gamma   90.00000000
_symmetry_Int_Tables_number   1
_chemical_formula_structural   Cs5As(PSe3)4
_chemical_formula_sum   'Cs10 As2 P8 Se24'
_cell_volume   1575.62230125
_cell_formula_units_Z   2
loop_
 _symmetry_equiv_pos_site_id
 _symmetry_equiv_pos_as_xyz
  1  'x, y, z'
loop_
 _atom_site_type_symbol
 _atom_site_label
 _atom_site_symmetry_multiplicity
 _atom_site_fract_x
 _atom_site_fract_y
 _atom_site_fract_z
 _atom_site_occupancy
  Cs  Cs0  1  0.00000000  0.00000000  0.50000000  1
  Cs  Cs1  1  0.00000000  0.00000000  0.00000000  1
  Cs  Cs2  1  0.31766200  0.34292700  0.50000000  1
  Cs  Cs3  1  0.68233800  0.65707300  0.50000000  1
  Cs  Cs4  1  0.65707300  0.31766200  0.00000000  1
  Cs  Cs5  1  0.34292700  0.68233800  0.00000000  1
  Cs  Cs6  1  0.32230800  0.96770300  0.50000000  1
  Cs  Cs7  1  0.67769200  0.03229700  0.50000000  1
  Cs  Cs8  1  0.03229700  0.32230800  0.00000000  1
  Cs  Cs9  1  0.96770300  0.67769200  0.00000000  1
  As  As0  1  0.00000000  0.50000000  0.50000000  1
  As  As1  1  0.50000000  0.00000000  0.00000000  1
  P  P0  1  0.20112400  0.60842900  0.50000000  1
  P  P1  1  0.79887600  0.39157100  0.50000000  1
  P  P2  1  0.39157100  0.20112400  0.00000000  1
  P  P3  1  0.60842900  0.79887600  0.00000000  1
  P  P4  1  0.11478800  0.74471400  0.50000000  1
  P  P5  1  0.88521200  0.25528600  0.50000000  1
  P  P6  1  0.25528600  0.11478800  0.00000000  1
  P  P7  1  0.74471400  0.88521200  0.00000000  1
  Se  Se0  1  0.15024400  0.81930100  0.26252700  1
  Se  Se1  1  0.84975600  0.18069900  0.26252700  1
  Se  Se2  1  0.18069900  0.15024400  0.76252700  1
  Se  Se3  1  0.81930100  0.84975600  0.76252700  1
  Se  Se4  1  0.84975600  0.18069900  0.73747300  1
  Se  Se5  1  0.15024400  0.81930100  0.73747300  1
  Se  Se6  1  0.81930100  0.84975600  0.23747300  1
  Se  Se7  1  0.18069900  0.15024400  0.23747300  1
  Se  Se8  1  0.03277100  0.31063000  0.50000000  1
  Se  Se9  1  0.96722900  0.68937000  0.50000000  1
  Se  Se10  1  0.68937000  0.03277100  0.00000000  1
  Se  Se11  1  0.31063000  0.96722900  0.00000000  1
  Se  Se12  1  0.34989800  0.63386800  0.50000000  1
  Se  Se13  1  0.65010200  0.36613200  0.50000000  1
  Se  Se14  1  0.36613200  0.34989800  0.00000000  1
  Se  Se15  1  0.63386800  0.65010200  0.00000000  1
  Se  Se16  1  0.14733900  0.52874800  0.27191900  1
  Se  Se17  1  0.85266100  0.47125200  0.27191900  1
  Se  Se18  1  0.47125200  0.14733900  0.77191900  1
  Se  Se19  1  0.52874800  0.85266100  0.77191900  1
  Se  Se20  1  0.85266100  0.47125200  0.72808100  1
  Se  Se21  1  0.14733900  0.52874800  0.72808100  1
  Se  Se22  1  0.52874800  0.85266100  0.22808100  1
  Se  Se23  1  0.47125200  0.14733900  0.22808100  1
loop_
_geom_bond_atom_site_label_1
_geom_bond_atom_site_label_2
_geom_bond_distance
_geom_bond_site_symmetry_2
Cs0 Se4 3.821697 1_455
Cs0 Se5 3.821697 1_545
Cs0 Se1 3.821697 1_455
Cs0 Se0 3.821697 1_545
Cs0 Se7 3.919309 1_555
Cs0 Se2 3.919309 1_555
Cs0 Se3 3.919309 1_445
Cs0 Se6 3.919309 1_445
Cs1 Se7 3.821697 1_555
Cs1 Se2 3.821697 1_554
Cs1 Se6 3.821697 1_445
Cs1 Se3 3.821697 1_444
Cs1 Se1 3.919309 1_455
Cs1 Se0 3.919309 1_545
Cs1 Se4 3.919309 1_454
Cs1 Se5 3.919309 1_544
Cs2 Se2 3.936359 1_555
Cs2 Se7 3.936359 1_555
Cs2 Se14 3.945393 1_555
Cs2 Se14 3.945393 1_556
Cs2 Se21 4.003538 1_555
Cs2 Se16 4.003538 1_555
Cs2 Se8 4.083805 1_555
Cs2 Se18 4.123907 1_555
Cs2 Se23 4.123907 1_555
Cs2 Se12 4.169344 1_555
Cs3 Se3 3.936359 1_555
Cs3 Se6 3.936359 1_555
Cs3 Se15 3.945393 1_555
Cs3 Se15 3.945393 1_556
Cs3 Se20 4.003538 1_555
Cs3 Se17 4.003538 1_555
Cs3 Se9 4.083805 1_555
Cs3 Se19 4.123907 1_555
Cs3 Se22 4.123907 1_555
Cs3 Se13 4.169344 1_555
Cs4 Se1 3.936359 1_555
Cs4 Se4 3.936359 1_554
Cs4 Se13 3.945393 1_555
Cs4 Se13 3.945393 1_554
Cs4 Se23 4.003538 1_555
Cs4 Se18 4.003538 1_554
Cs4 Se10 4.083805 1_555
Cs4 Se17 4.123907 1_555
Cs4 Se20 4.123907 1_554
Cs4 Se14 4.169344 1_555
Cs5 Se0 3.936359 1_555
Cs5 Se5 3.936359 1_554
Cs5 Se12 3.945393 1_555
Cs5 Se12 3.945393 1_554
Cs5 Se22 4.003538 1_555
Cs5 Se19 4.003538 1_554
Cs5 Se11 4.083805 1_555
Cs5 Se16 4.123907 1_555
Cs5 Se21 4.123907 1_554
Cs5 Se15 4.169344 1_555
Cs6 Se5 3.725022 1_555
Cs6 Se0 3.725022 1_555
Cs6 Se2 3.871104 1_565
Cs6 Se7 3.871104 1_565
Cs6 Se11 3.886819 1_556
Cs6 Se11 3.886819 1_555
Cs6 Se18 3.937910 1_565
Cs6 Se23 3.937910 1_565
Cs6 Se19 3.973777 1_555
Cs6 Se22 3.973777 1_555
Cs7 Se4 3.725022 1_555
Cs7 Se1 3.725022 1_555
Cs7 Se3 3.871104 1_545
Cs7 Se6 3.871104 1_545
Cs7 Se10 3.886819 1_555
Cs7 Se10 3.886819 1_556
Cs7 Se19 3.937910 1_545
Cs7 Se22 3.937910 1_545
Cs7 Se18 3.973777 1_555
Cs7 Se23 3.973777 1_555
Cs8 Se7 3.725022 1_555
Cs8 Se2 3.725022 1_554
Cs8 Se1 3.871104 1_455
Cs8 Se4 3.871104 1_454
Cs8 Se8 3.886819 1_554
Cs8 Se8 3.886819 1_555
Cs8 Se17 3.937910 1_455
Cs8 Se20 3.937910 1_454
Cs8 Se16 3.973777 1_555
Cs8 Se21 3.973777 1_554
Cs9 Se6 3.725022 1_555
Cs9 Se3 3.725022 1_554
Cs9 Se0 3.871104 1_655
Cs9 Se5 3.871104 1_654
Cs9 Se9 3.886819 1_555
Cs9 Se9 3.886819 1_554
Cs9 Se16 3.937910 1_655
Cs9 Se21 3.937910 1_654
Cs9 Se17 3.973777 1_555
Cs9 Se20 3.973777 1_554
As0 Se8 2.737360 1_555
As0 Se9 2.737360 1_455
As0 Se21 2.776624 1_555
As0 Se20 2.776624 1_455
As0 Se17 2.776624 1_455
As0 Se16 2.776624 1_555
As1 Se11 2.737360 1_545
As1 Se10 2.737360 1_555
As1 Se22 2.776624 1_545
As1 Se23 2.776624 1_555
As1 Se18 2.776624 1_554
As1 Se19 2.776624 1_544
P0 Se12 2.149801 1_555
P0 Se21 2.238921 1_555
P0 Se16 2.238921 1_555
P0 P4 2.297892 1_555
P1 Se13 2.149801 1_555
P1 Se20 2.238921 1_555
P1 Se17 2.238921 1_555
P1 P5 2.297892 1_555
P2 Se14 2.149801 1_555
P2 Se23 2.238921 1_555
P2 Se18 2.238921 1_554
P2 P6 2.297892 1_555
P3 Se15 2.149801 1_555
P3 Se22 2.238921 1_555
P3 Se19 2.238921 1_554
P3 P7 2.297892 1_555
P4 Se5 2.187520 1_555
P4 Se0 2.187520 1_555
P4 Se9 2.244706 1_455
P5 Se4 2.187520 1_555
P5 Se1 2.187520 1_555
P5 Se8 2.244706 1_655
P6 Se7 2.187520 1_555
P6 Se2 2.187520 1_554
P6 Se11 2.244706 1_545
P7 Se6 2.187520 1_555
P7 Se3 2.187520 1_554
P7 Se10 2.244706 1_565
