# generated using pymatgen
data_YMg2Mn3S8
_symmetry_space_group_name_H-M   'P 1'
_cell_length_a   7.49228983
_cell_length_b   7.49326802
_cell_length_c   7.49408799
_cell_angle_alpha   59.24789382
_cell_angle_beta   59.24695545
_cell_angle_gamma   59.23732041
_symmetry_Int_Tables_number   1
_chemical_formula_structural   YMg2Mn3S8
_chemical_formula_sum   'Y1 Mg2 Mn3 S8'
_cell_volume   292.37923660
_cell_formula_units_Z   1
loop_
 _symmetry_equiv_pos_site_id
 _symmetry_equiv_pos_as_xyz
  1  'x, y, z'
loop_
 _atom_site_type_symbol
 _atom_site_label
 _atom_site_symmetry_multiplicity
 _atom_site_fract_x
 _atom_site_fract_y
 _atom_site_fract_z
 _atom_site_occupancy
  Y  Y0  1  0.50001000  0.50000200  0.49998300  1
  Mg  Mg0  1  0.87413800  0.87406400  0.87393500  1
  Mg  Mg1  1  0.12587000  0.12592600  0.12607800  1
  Mn  Mn0  1  0.50000000  0.50000200  0.00000200  1
  Mn  Mn1  1  0.99999600  0.50006800  0.49996700  1
  Mn  Mn2  1  0.49996100  0.99997700  0.49999400  1
  S  S0  1  0.73960000  0.73952200  0.73960800  1
  S  S1  1  0.24484100  0.24490300  0.72060700  1
  S  S2  1  0.24476100  0.72072400  0.24485700  1
  S  S3  1  0.72067000  0.24479500  0.24480200  1
  S  S4  1  0.75523500  0.27927600  0.75513600  1
  S  S5  1  0.27934000  0.75517900  0.75520900  1
  S  S6  1  0.26040600  0.26046400  0.26041700  1
  S  S7  1  0.75517600  0.75509500  0.27940700  1
loop_
_geom_bond_atom_site_label_1
_geom_bond_atom_site_label_2
_geom_bond_distance
_geom_bond_site_symmetry_2
Mg0 S5 2.466459 1_655
Mg0 S4 2.466838 1_565
Mg0 S7 2.468872 1_556
Mg0 S0 2.482125 1_555
Mg1 S3 2.466457 1_455
Mg1 S2 2.466793 1_545
Mg1 S1 2.468855 1_554
Mg1 S6 2.482162 1_555
Mn0 S5 2.456713 1_554
Mn0 S3 2.456811 1_555
Mn0 S2 2.457456 1_555
Mn0 S4 2.457531 1_554
Mn0 S0 2.526567 1_554
Mn0 S6 2.526635 1_555
Mn1 S7 2.456236 1_555
Mn1 S2 2.456732 1_655
Mn1 S1 2.456813 1_655
Mn1 S4 2.457404 1_555
Mn1 S0 2.526289 1_555
Mn1 S6 2.526594 1_655
Mn2 S5 2.456799 1_555
Mn2 S7 2.456882 1_555
Mn2 S1 2.457201 1_565
Mn2 S3 2.457326 1_565
Mn2 S6 2.526399 1_565
Mn2 S0 2.527003 1_555
S1 Y0 2.704863 1_555
S2 Y0 2.705201 1_555
S3 Y0 2.705504 1_555
S4 Y0 2.705215 1_555
S5 Y0 2.705581 1_555
S7 Y0 2.704853 1_555
