# generated using pymatgen
data_Te2Mo2WS4
_symmetry_space_group_name_H-M   'P 1'
_cell_length_a   3.29870670
_cell_length_b   3.29870670
_cell_length_c   30.52455500
_cell_angle_alpha   90.00000000
_cell_angle_beta   90.00000000
_cell_angle_gamma   120.00001397
_symmetry_Int_Tables_number   1
_chemical_formula_structural   Te2Mo2WS4
_chemical_formula_sum   'Te2 Mo2 W1 S4'
_cell_volume   287.65194580
_cell_formula_units_Z   1
loop_
 _symmetry_equiv_pos_site_id
 _symmetry_equiv_pos_as_xyz
  1  'x, y, z'
loop_
 _atom_site_type_symbol
 _atom_site_label
 _atom_site_symmetry_multiplicity
 _atom_site_fract_x
 _atom_site_fract_y
 _atom_site_fract_z
 _atom_site_occupancy
  Te  Te0  1  0.00000000  0.00000000  0.40980100  1
  Te  Te1  1  0.00000000  0.00000000  0.28413200  1
  Mo  Mo0  1  0.00000000  0.00000000  0.11560200  1
  Mo  Mo1  1  0.33333300  0.66666700  0.34697500  1
  W  W0  1  0.00000000  0.00000000  0.57836900  1
  S  S0  1  0.33333300  0.66666700  0.06549700  1
  S  S1  1  0.33333300  0.66666700  0.52797100  1
  S  S2  1  0.33333300  0.66666700  0.16574900  1
  S  S3  1  0.33333300  0.66666700  0.62874400  1
loop_
_geom_bond_atom_site_label_1
_geom_bond_atom_site_label_2
_geom_bond_distance
_geom_bond_site_symmetry_2
Mo0 S0 2.442604 1_545
Mo0 S0 2.442606 1_445
Mo0 S0 2.442606 1_555
Mo0 S2 2.443407 1_545
Mo0 S2 2.443409 1_555
Mo0 S2 2.443409 1_445
Mo1 Te0 2.702750 1_565
Mo1 Te0 2.702752 1_555
Mo1 Te0 2.702752 1_665
Mo1 Te1 2.703118 1_565
Mo1 Te1 2.703120 1_665
Mo1 Te1 2.703120 1_555
S1 W0 2.448214 1_565
S1 W0 2.448216 1_665
S1 W0 2.448216 1_555
S3 W0 2.447773 1_565
S3 W0 2.447775 1_665
S3 W0 2.447775 1_555
