# generated using pymatgen
data_CaGeN2
_symmetry_space_group_name_H-M   'P 1'
_cell_length_a   3.67057545
_cell_length_b   3.67057545
_cell_length_c   7.68751091
_cell_angle_alpha   90.00000000
_cell_angle_beta   90.00000000
_cell_angle_gamma   90.00000000
_symmetry_Int_Tables_number   1
_chemical_formula_structural   CaGeN2
_chemical_formula_sum   'Ca2 Ge2 N4'
_cell_volume   103.57478877
_cell_formula_units_Z   2
loop_
 _symmetry_equiv_pos_site_id
 _symmetry_equiv_pos_as_xyz
  1  'x, y, z'
loop_
 _atom_site_type_symbol
 _atom_site_label
 _atom_site_symmetry_multiplicity
 _atom_site_fract_x
 _atom_site_fract_y
 _atom_site_fract_z
 _atom_site_occupancy
  Ca  Ca0  1  0.00000000  0.50000000  0.14327995  1
  Ca  Ca1  1  0.50000000  -0.00000000  0.85672005  1
  Ge  Ge0  1  0.00000000  0.50000000  0.60387711  1
  Ge  Ge1  1  0.50000000  -0.00000000  0.39612289  1
  N  N0  1  -0.00000000  0.00000000  0.50000000  1
  N  N1  1  0.50000000  0.50000000  0.50000000  1
  N  N2  1  -0.00000000  0.50000000  0.83953623  1
  N  N3  1  0.50000000  -0.00000000  0.16046377  1
loop_
_geom_bond_atom_site_label_1
_geom_bond_atom_site_label_2
_geom_bond_distance
_geom_bond_site_symmetry_2
Ca0 N2 2.335033 1_554
Ca0 N3 2.598848 1_565
Ca0 N3 2.598848 1_555
Ca0 N3 2.598848 1_455
Ca0 N3 2.598848 1_465
Ca1 N3 2.335033 1_556
Ca1 N2 2.598848 1_655
Ca1 N2 2.598848 1_545
Ca1 N2 2.598848 1_555
Ca1 N2 2.598848 1_645
Ge0 N2 1.811632 1_555
Ge0 N0 2.001493 1_565
Ge0 N0 2.001493 1_555
Ge0 N1 2.001493 1_555
Ge0 N1 2.001493 1_455
Ge1 N3 1.811632 1_555
Ge1 N0 2.001493 1_555
Ge1 N1 2.001493 1_545
Ge1 N0 2.001493 1_655
Ge1 N1 2.001493 1_555
