# generated using pymatgen
data_Li5FeO3F
_symmetry_space_group_name_H-M   'P 1'
_cell_length_a   6.64050000
_cell_length_b   5.47177100
_cell_length_c   5.48276338
_cell_angle_alpha   86.11742659
_cell_angle_beta   90.00000000
_cell_angle_gamma   90.00000000
_symmetry_Int_Tables_number   1
_chemical_formula_structural   Li5FeO3F
_chemical_formula_sum   'Li10 Fe2 O6 F2'
_cell_volume   198.76060578
_cell_formula_units_Z   2
loop_
 _symmetry_equiv_pos_site_id
 _symmetry_equiv_pos_as_xyz
  1  'x, y, z'
loop_
 _atom_site_type_symbol
 _atom_site_label
 _atom_site_symmetry_multiplicity
 _atom_site_fract_x
 _atom_site_fract_y
 _atom_site_fract_z
 _atom_site_occupancy
  Li  Li0  1  0.00000000  0.99647000  0.91347700  1
  Li  Li1  1  0.25132400  0.82814300  0.19578200  1
  Li  Li2  1  0.74867600  0.82814300  0.19578200  1
  Li  Li3  1  0.00000000  0.66237300  0.66050300  1
  Li  Li4  1  0.22683100  0.41216300  0.91887100  1
  Li  Li5  1  0.77316900  0.41216300  0.91887100  1
  Li  Li6  1  0.50000000  0.35478900  0.36447500  1
  Li  Li7  1  0.26967800  0.11285200  0.62582400  1
  Li  Li8  1  0.73032200  0.11285200  0.62582400  1
  Li  Li9  1  0.50000000  0.11481700  0.02532100  1
  Fe  Fe0  1  0.50000000  0.69160800  0.72491300  1
  Fe  Fe1  1  0.00000000  0.28937300  0.33580700  1
  O  O0  1  0.76332600  0.79513300  0.83271600  1
  O  O1  1  0.23667400  0.79513300  0.83271600  1
  O  O2  1  0.50000000  0.31081600  0.72586200  1
  O  O3  1  0.00000000  0.29953200  0.71570100  1
  O  O4  1  0.26328400  0.18915800  0.22893200  1
  O  O5  1  0.73671600  0.18915800  0.22893200  1
  F  F0  1  0.50000000  0.69967000  0.31307700  1
  F  F1  1  0.00000000  0.70767700  0.31603200  1
loop_
_geom_bond_atom_site_label_1
_geom_bond_atom_site_label_2
_geom_bond_distance
_geom_bond_site_symmetry_2
Li0 O3 1.918914 1_565
Li0 O1 1.986413 1_555
Li0 O0 1.986413 1_455
Li1 O4 1.997532 1_565
Li1 O1 2.013278 1_554
Li2 O5 1.997532 1_565
Li2 O0 2.013278 1_554
Li3 O3 1.987955 1_555
Li3 O1 1.995531 1_555
Li3 O0 1.995531 1_455
Li4 O3 1.995616 1_555
Li4 O4 2.038777 1_556
Li4 O1 2.117681 1_555
Li4 O2 2.190285 1_555
Li5 O3 1.995616 1_655
Li5 O5 2.038777 1_556
Li5 O0 2.117681 1_555
Li5 O2 2.190285 1_555
Li6 O2 1.979716 1_555
Li6 O5 1.983875 1_555
Li6 O4 1.983875 1_555
Li7 O2 1.973290 1_555
Li7 O1 2.022383 1_545
Li7 O3 2.135731 1_555
Li7 O4 2.188230 1_555
Li8 O2 1.973290 1_555
Li8 O0 2.022383 1_545
Li8 O3 2.135731 1_655
Li8 O5 2.188230 1_555
Li9 O2 1.899323 1_554
Li9 O5 1.985979 1_555
Li9 O4 1.985979 1_555
Fe0 O0 1.942481 1_555
Fe0 O1 1.942481 1_555
Fe0 O2 2.083261 1_555
Fe1 O4 1.935007 1_555
Fe1 O5 1.935007 1_455
Fe1 O3 2.087370 1_555
F0 Li6 1.889068 1_555
F0 Li1 1.890352 1_555
F0 Li2 1.890352 1_555
F0 Fe0 2.255442 1_555
F1 Li3 1.888136 1_555
F1 Li1 1.896208 1_555
F1 Li2 1.896208 1_455
F1 Fe1 2.284085 1_555
