# generated using pymatgen
data_Ba2Fe5BiPb2O13
_symmetry_space_group_name_H-M   'P 1'
_cell_length_a   13.83551267
_cell_length_b   13.83551267
_cell_length_c   5.80977383
_cell_angle_alpha   89.06148073
_cell_angle_beta   89.06148073
_cell_angle_gamma   16.52147531
_symmetry_Int_Tables_number   1
_chemical_formula_structural   Ba2Fe5BiPb2O13
_chemical_formula_sum   'Ba2 Fe5 Bi1 Pb2 O13'
_cell_volume   316.21408263
_cell_formula_units_Z   1
loop_
 _symmetry_equiv_pos_site_id
 _symmetry_equiv_pos_as_xyz
  1  'x, y, z'
loop_
 _atom_site_type_symbol
 _atom_site_label
 _atom_site_symmetry_multiplicity
 _atom_site_fract_x
 _atom_site_fract_y
 _atom_site_fract_z
 _atom_site_occupancy
  Ba  Ba0  1  0.10152600  0.10152600  0.99533600  1
  Ba  Ba1  1  0.89847400  0.89847400  0.00466400  1
  Fe  Fe0  1  0.39799500  0.39799500  0.50675900  1
  Fe  Fe1  1  0.60200500  0.60200500  0.49324100  1
  Fe  Fe2  1  0.50000000  0.50000000  0.00000000  1
  Fe  Fe3  1  0.29268500  0.29268500  0.01304500  1
  Fe  Fe4  1  0.70731500  0.70731500  0.98695500  1
  Bi  Bi0  1  0.00000000  0.00000000  0.50000000  1
  Pb  Pb0  1  0.80642800  0.80642800  0.50202300  1
  Pb  Pb1  1  0.19357200  0.19357200  0.49797700  1
  O  O0  1  0.44975100  0.44975100  0.73891200  1
  O  O1  1  0.55024900  0.55024900  0.26108800  1
  O  O2  1  0.55066600  0.55066600  0.73450600  1
  O  O3  1  0.44933400  0.44933400  0.26549400  1
  O  O4  1  0.89066400  0.89066400  0.50485000  1
  O  O5  1  0.10933600  0.10933600  0.49515000  1
  O  O6  1  0.66371500  0.66371500  0.72240700  1
  O  O7  1  0.33628500  0.33628500  0.27759300  1
  O  O8  1  0.22037600  0.22037600  0.94604700  1
  O  O9  1  0.77962400  0.77962400  0.05395300  1
  O  O10  1  0.33788100  0.33788100  0.76107900  1
  O  O11  1  0.66211900  0.66211900  0.23892100  1
  O  O12  1  0.00000000  0.00000000  0.00000000  1
loop_
_geom_bond_atom_site_label_1
_geom_bond_atom_site_label_2
_geom_bond_distance
_geom_bond_site_symmetry_2
Ba0 O12 2.779864 1_556
Ba0 O1 2.869723 1_546
Ba0 O1 2.869723 1_456
Ba0 O2 2.873590 1_545
Ba0 O2 2.873590 1_455
Ba0 O5 2.910294 1_555
Ba0 O5 2.915200 1_556
Ba0 O11 2.963988 1_456
Ba0 O11 2.963988 1_546
Ba0 O6 3.045758 1_545
Ba0 O6 3.045758 1_455
Ba0 O8 3.262428 1_555
Ba1 O12 2.779864 1_665
Ba1 O0 2.869723 1_564
Ba1 O0 2.869723 1_654
Ba1 O3 2.873590 1_655
Ba1 O3 2.873590 1_565
Ba1 O4 2.910294 1_555
Ba1 O4 2.915200 1_554
Ba1 O10 2.963988 1_654
Ba1 O10 2.963988 1_564
Ba1 O7 3.045758 1_655
Ba1 O7 3.045758 1_565
Ba1 O9 3.262428 1_555
Fe0 O3 1.968748 1_555
Fe0 O0 1.972590 1_555
Fe0 O4 1.998020 1_545
Fe0 O4 1.998020 1_455
Fe0 O7 2.168581 1_555
Fe0 O10 2.193729 1_555
Fe1 O2 1.968748 1_555
Fe1 O1 1.972590 1_555
Fe1 O5 1.998020 1_565
Fe1 O5 1.998020 1_655
Fe1 O6 2.168581 1_555
Fe1 O11 2.193729 1_555
Fe2 O12 1.987860 1_655
Fe2 O12 1.987860 1_565
Fe2 O2 2.057502 1_554
Fe2 O3 2.057502 1_555
Fe2 O1 2.064795 1_555
Fe2 O0 2.064795 1_554
Fe3 O10 1.901234 1_554
Fe3 O7 1.961758 1_555
Fe3 O8 2.024311 1_554
Fe3 O9 2.033022 1_455
Fe3 O9 2.033022 1_545
Fe4 O11 1.901234 1_556
Fe4 O6 1.961758 1_555
Fe4 O9 2.024311 1_556
Fe4 O8 2.033022 1_655
Fe4 O8 2.033022 1_565
Bi0 O1 2.776399 1_545
Bi0 O1 2.776399 1_455
Bi0 O0 2.776399 1_545
Bi0 O0 2.776399 1_455
Bi0 O2 2.792014 1_455
Bi0 O2 2.792014 1_545
Bi0 O3 2.792014 1_455
Bi0 O3 2.792014 1_545
O4 Pb0 2.307043 1_555
O5 Pb1 2.307043 1_555
O6 Pb1 2.506969 1_655
O6 Pb1 2.506969 1_565
O7 Pb0 2.506969 1_545
O7 Pb0 2.506969 1_455
O8 Pb1 2.716354 1_555
O9 Pb0 2.716354 1_555
O10 Pb0 2.646043 1_455
O10 Pb0 2.646043 1_545
O11 Pb1 2.646043 1_565
O11 Pb1 2.646043 1_655
