# generated using pymatgen
data_Al2GaN3
_symmetry_space_group_name_H-M   'P 1'
_cell_length_a   5.94925049
_cell_length_b   5.94925049
_cell_length_c   7.41438521
_cell_angle_alpha   75.71690406
_cell_angle_beta   75.71690406
_cell_angle_gamma   30.52477267
_symmetry_Int_Tables_number   1
_chemical_formula_structural   Al2GaN3
_chemical_formula_sum   'Al4 Ga2 N6'
_cell_volume   128.85468721
_cell_formula_units_Z   2
loop_
 _symmetry_equiv_pos_site_id
 _symmetry_equiv_pos_as_xyz
  1  'x, y, z'
loop_
 _atom_site_type_symbol
 _atom_site_label
 _atom_site_symmetry_multiplicity
 _atom_site_fract_x
 _atom_site_fract_y
 _atom_site_fract_z
 _atom_site_occupancy
  Al  Al0  1  0.05590277  0.05590277  0.38928931  1
  Al  Al1  1  0.11107136  0.11107136  0.77663881  1
  Al  Al2  1  0.77706652  0.77706652  0.44440250  1
  Al  Al3  1  0.44593661  0.44593661  0.11331442  1
  Ga  Ga0  1  0.72264731  0.72264731  0.05782160  1
  Ga  Ga1  1  0.39042860  0.39042860  0.72164919  1
  N  N0  1  0.85257350  0.85257350  0.18519421  1
  N  N1  1  0.51865507  0.51865507  0.85286684  1
  N  N2  1  0.18175624  0.18175624  0.51489646  1
  N  N3  1  0.23520772  0.23520772  0.90124682  1
  N  N4  1  0.90495916  0.90495916  0.56368919  1
  N  N5  1  0.56843014  0.56843014  0.24379164  1
loop_
_geom_bond_atom_site_label_1
_geom_bond_atom_site_label_2
_geom_bond_distance
_geom_bond_site_symmetry_2
Al0 N4 1.878356 1_445
Al0 N5 1.886186 1_545
Al0 N5 1.886186 1_455
Al0 N2 1.908525 1_555
Al1 N3 1.886101 1_555
Al1 N1 1.894926 1_455
Al1 N1 1.894926 1_545
Al1 N2 1.902402 1_555
Al2 N0 1.895478 1_555
Al2 N4 1.897767 1_555
Al2 N2 1.905326 1_655
Al2 N2 1.905326 1_565
Al3 N0 1.895534 1_455
Al3 N0 1.895534 1_545
Al3 N1 1.897714 1_554
Al3 N5 1.899652 1_555
Ga0 N3 1.932741 1_564
Ga0 N3 1.932741 1_654
Ga0 N5 1.945902 1_555
Ga0 N0 1.958707 1_555
Ga1 N3 1.932441 1_555
Ga1 N4 1.937051 1_545
Ga1 N4 1.937051 1_455
Ga1 N1 1.960973 1_555
