# generated using pymatgen
data_Na2MgSi5O12
_symmetry_space_group_name_H-M   'P 1'
_cell_length_a   9.98520773
_cell_length_b   9.98520773
_cell_length_c   9.98520773
_cell_angle_alpha   109.37968569
_cell_angle_beta   109.37968569
_cell_angle_gamma   109.65444604
_symmetry_Int_Tables_number   1
_chemical_formula_structural   Na2MgSi5O12
_chemical_formula_sum   'Na8 Mg4 Si20 O48'
_cell_volume   766.38340036
_cell_formula_units_Z   4
loop_
 _symmetry_equiv_pos_site_id
 _symmetry_equiv_pos_as_xyz
  1  'x, y, z'
loop_
 _atom_site_type_symbol
 _atom_site_label
 _atom_site_symmetry_multiplicity
 _atom_site_fract_x
 _atom_site_fract_y
 _atom_site_fract_z
 _atom_site_occupancy
  Na  Na0  1  0.00064200  0.62500000  0.87564200  1
  Na  Na1  1  0.50064200  0.62500000  0.37564200  1
  Na  Na2  1  0.24935800  0.12500000  0.62435800  1
  Na  Na3  1  0.74935800  0.12500000  0.12435800  1
  Na  Na4  1  0.37500000  0.25064200  0.37564200  1
  Na  Na5  1  0.87500000  0.49935800  0.12435800  1
  Na  Na6  1  0.37500000  0.75064200  0.87564200  1
  Na  Na7  1  0.87500000  0.99935800  0.62435800  1
  Mg  Mg0  1  0.75000000  0.75000000  0.00000000  1
  Mg  Mg1  1  0.25000000  0.25000000  0.00000000  1
  Mg  Mg2  1  0.50000000  0.00000000  0.50000000  1
  Mg  Mg3  1  0.00000000  0.50000000  0.50000000  1
  Si  Si0  1  0.50000000  0.50000000  0.00000000  1
  Si  Si1  1  0.00000000  0.00000000  0.00000000  1
  Si  Si2  1  0.37500000  0.99945600  0.12445600  1
  Si  Si3  1  0.87500000  0.75054400  0.37554400  1
  Si  Si4  1  0.75000000  0.25000000  0.50000000  1
  Si  Si5  1  0.25000000  0.75000000  0.50000000  1
  Si  Si6  1  0.37500000  0.49945600  0.62445600  1
  Si  Si7  1  0.87500000  0.25054400  0.87554400  1
  Si  Si8  1  0.74945600  0.62500000  0.62445600  1
  Si  Si9  1  0.24945600  0.62500000  0.12445600  1
  Si  Si10  1  0.00054400  0.12500000  0.37554400  1
  Si  Si11  1  0.50054400  0.12500000  0.87554400  1
  Si  Si12  1  0.12500000  0.87500000  0.25000000  1
  Si  Si13  1  0.62500000  0.37500000  0.25000000  1
  Si  Si14  1  0.62500000  0.37500000  0.75000000  1
  Si  Si15  1  0.12500000  0.37500000  0.25000000  1
  Si  Si16  1  0.62500000  0.87500000  0.75000000  1
  Si  Si17  1  0.12500000  0.37500000  0.75000000  1
  Si  Si18  1  0.62500000  0.87500000  0.25000000  1
  Si  Si19  1  0.12500000  0.87500000  0.75000000  1
  O  O0  1  0.00445500  0.86453100  0.05898500  1
  O  O1  1  0.50445500  0.44547000  0.13992400  1
  O  O2  1  0.43678300  0.37000200  0.64218900  1
  O  O3  1  0.93678300  0.29459500  0.06678100  1
  O  O4  1  0.24554500  0.88546900  0.44101500  1
  O  O5  1  0.74554500  0.30453000  0.36007600  1
  O  O6  1  0.81321700  0.37999800  0.85781100  1
  O  O7  1  0.31321700  0.45540500  0.43321900  1
  O  O8  1  0.44445400  0.80453000  0.55898500  1
  O  O9  1  0.94445400  0.38546900  0.63992400  1
  O  O10  1  0.52218600  0.95540500  0.14218900  1
  O  O11  1  0.02218600  0.87999800  0.56678100  1
  O  O12  1  0.80554600  0.94547000  0.94101500  1
  O  O13  1  0.30554600  0.36453100  0.86007600  1
  O  O14  1  0.72781400  0.79459500  0.35781100  1
  O  O15  1  0.22781400  0.87000200  0.93321900  1
  O  O16  1  0.12000200  0.68678300  0.14218900  1
  O  O17  1  0.62000200  0.47781400  0.43321900  1
  O  O18  1  0.51468400  0.18498200  0.74165900  1
  O  O19  1  0.01468400  0.27302600  0.32970300  1
  O  O20  1  0.12999800  0.06321700  0.35781100  1
  O  O21  1  0.62999800  0.27218600  0.06678100  1
  O  O22  1  0.73531600  0.56501800  0.75834100  1
  O  O23  1  0.23531600  0.47697400  0.17029700  1
  O  O24  1  0.70540500  0.77218600  0.64218900  1
  O  O25  1  0.20540500  0.56321700  0.93321900  1
  O  O26  1  0.80667700  0.97697400  0.24165900  1
  O  O27  1  0.30667700  0.06501800  0.82970300  1
  O  O28  1  0.54459500  0.97781400  0.85781100  1
  O  O29  1  0.04459500  0.18678300  0.56678100  1
  O  O30  1  0.44332300  0.77302600  0.25834100  1
  O  O31  1  0.94332300  0.68498200  0.67029700  1
  O  O32  1  0.93498200  0.76468400  0.24165900  1
  O  O33  1  0.43498200  0.19332300  0.17029700  1
  O  O34  1  0.61453100  0.25445500  0.55898500  1
  O  O35  1  0.11453100  0.55554600  0.36007600  1
  O  O36  1  0.31501800  0.98531600  0.25834100  1
  O  O37  1  0.81501800  0.55667700  0.32970300  1
  O  O38  1  0.63546900  0.49554500  0.94101500  1
  O  O39  1  0.13546900  0.19445400  0.13992400  1
  O  O40  1  0.72697400  0.05667700  0.74165900  1
  O  O41  1  0.22697400  0.48531600  0.67029700  1
  O  O42  1  0.55453000  0.69445400  0.05898500  1
  O  O43  1  0.05453000  0.99554500  0.86007600  1
  O  O44  1  0.52302600  0.69332300  0.75834100  1
  O  O45  1  0.02302600  0.26468400  0.82970300  1
  O  O46  1  0.69547000  0.05554600  0.44101500  1
  O  O47  1  0.19547000  0.75445500  0.63992400  1
loop_
_geom_bond_atom_site_label_1
_geom_bond_atom_site_label_2
_geom_bond_distance
_geom_bond_site_symmetry_2
Na0 O22 2.270952 1_455
Na0 O31 2.270962 1_455
Na0 O25 2.279316 1_555
Na0 O16 2.279325 1_556
Na0 O6 2.434941 1_455
Na0 O15 2.434946 1_555
Na0 O0 2.461728 1_556
Na0 O9 2.461728 1_455
Na1 O23 2.270955 1_555
Na1 O30 2.270962 1_555
Na1 O17 2.279316 1_555
Na1 O24 2.279323 1_555
Na1 O7 2.434946 1_555
Na1 O14 2.434952 1_555
Na1 O1 2.461728 1_555
Na1 O8 2.461728 1_555
Na2 O18 2.270952 1_555
Na2 O27 2.270962 1_555
Na2 O29 2.279316 1_555
Na2 O20 2.279325 1_555
Na2 O2 2.434941 1_555
Na2 O11 2.434946 1_545
Na2 O4 2.461728 1_545
Na2 O13 2.461728 1_555
Na3 O19 2.270955 1_655
Na3 O26 2.270962 1_545
Na3 O21 2.279316 1_555
Na3 O28 2.279323 1_544
Na3 O3 2.434946 1_555
Na3 O10 2.434952 1_545
Na3 O5 2.461728 1_555
Na3 O12 2.461728 1_544
Na4 O36 2.270952 1_545
Na4 O33 2.270962 1_555
Na4 O7 2.279316 1_555
Na4 O2 2.279325 1_555
Na4 O20 2.434941 1_555
Na4 O17 2.434946 1_555
Na4 O34 2.461728 1_555
Na4 O39 2.461728 1_555
Na5 O32 2.270952 1_555
Na5 O37 2.270962 1_555
Na5 O3 2.279316 1_555
Na5 O6 2.279325 1_554
Na5 O16 2.434941 1_655
Na5 O21 2.434946 1_555
Na5 O35 2.461728 1_655
Na5 O38 2.461728 1_554
Na6 O41 2.270955 1_555
Na6 O44 2.270962 1_555
Na6 O15 2.279316 1_555
Na6 O10 2.279323 1_556
Na6 O25 2.434946 1_555
Na6 O28 2.434952 1_555
Na6 O42 2.461728 1_556
Na6 O47 2.461728 1_555
Na7 O45 2.270955 1_665
Na7 O40 2.270962 1_565
Na7 O11 2.279316 1_655
Na7 O14 2.279323 1_555
Na7 O29 2.434946 1_665
Na7 O24 2.434952 1_555
Na7 O46 2.461728 1_565
Na7 O43 2.461728 1_655
Mg0 O42 2.171535 1_555
Mg0 O0 2.171535 1_655
Mg0 O38 2.171535 1_554
Mg0 O12 2.171535 1_554
Mg0 O26 2.425061 1_555
Mg0 O44 2.425061 1_554
Mg0 O32 2.425066 1_555
Mg0 O22 2.425066 1_554
Mg1 O1 2.171535 1_555
Mg1 O39 2.171535 1_555
Mg1 O13 2.171535 1_554
Mg1 O43 2.171535 1_544
Mg1 O23 2.425055 1_555
Mg1 O45 2.425055 1_554
Mg1 O33 2.425061 1_555
Mg1 O27 2.425061 1_554
Mg2 O8 2.171535 1_545
Mg2 O34 2.171535 1_555
Mg2 O46 2.171535 1_555
Mg2 O4 2.171535 1_545
Mg2 O30 2.425061 1_545
Mg2 O40 2.425061 1_555
Mg2 O18 2.425066 1_555
Mg2 O36 2.425066 1_545
Mg3 O9 2.171535 1_455
Mg3 O35 2.171535 1_555
Mg3 O5 2.171535 1_455
Mg3 O47 2.171535 1_555
Mg3 O41 2.425055 1_555
Mg3 O19 2.425055 1_555
Mg3 O31 2.425061 1_455
Mg3 O37 2.425061 1_455
O0 Si1 1.652409 1_565
O0 Si12 1.832228 1_555
O1 Si0 1.652409 1_555
O1 Si13 1.832228 1_555
O2 Si6 1.642758 1_555
O2 Si14 1.803337 1_555
O3 Si7 1.642756 1_554
O3 Si15 1.803339 1_655
O4 Si5 1.652409 1_555
O4 Si12 1.832228 1_555
O5 Si4 1.652409 1_555
O5 Si13 1.832228 1_555
O6 Si7 1.642758 1_555
O6 Si14 1.803337 1_555
O7 Si6 1.642756 1_555
O7 Si15 1.803339 1_555
O8 Si5 1.652409 1_555
O8 Si16 1.832228 1_555
O9 Si4 1.652409 1_555
O9 Si17 1.832228 1_655
O10 Si2 1.642755 1_555
O10 Si18 1.803334 1_555
O11 Si3 1.642756 1_455
O11 Si19 1.803339 1_555
O12 Si1 1.652409 1_666
O12 Si16 1.832228 1_555
O13 Si0 1.652409 1_556
O13 Si17 1.832228 1_555
O14 Si3 1.642755 1_555
O14 Si18 1.803334 1_555
O15 Si2 1.642756 1_556
O15 Si19 1.803339 1_555
O16 Si9 1.642758 1_555
O16 Si12 1.803337 1_555
O17 Si8 1.642756 1_555
O17 Si13 1.803339 1_555
O18 Si11 1.663022 1_555
O18 Si14 1.802393 1_555
O19 Si10 1.663025 1_555
O19 Si15 1.802396 1_555
O20 Si10 1.642758 1_555
O20 Si12 1.803337 1_545
O21 Si11 1.642756 1_554
O21 Si13 1.803339 1_555
O22 Si8 1.663022 1_555
O22 Si14 1.802393 1_555
O23 Si9 1.663025 1_555
O23 Si15 1.802396 1_555
O24 Si8 1.642755 1_555
O24 Si16 1.803334 1_555
O25 Si9 1.642756 1_556
O25 Si17 1.803339 1_555
O26 Si10 1.663024 1_665
O26 Si18 1.802390 1_555
O27 Si11 1.663024 1_555
O27 Si19 1.802390 1_545
O28 Si11 1.642755 1_565
O28 Si16 1.803334 1_555
O29 Si10 1.642756 1_555
O29 Si17 1.803339 1_555
O30 Si9 1.663024 1_555
O30 Si18 1.802390 1_555
O31 Si8 1.663024 1_555
O31 Si19 1.802390 1_655
O32 Si3 1.663022 1_555
O32 Si12 1.802393 1_655
O33 Si2 1.663024 1_545
O33 Si13 1.802390 1_555
O34 Si4 1.652409 1_555
O34 Si14 1.832228 1_555
O35 Si5 1.652409 1_555
O35 Si15 1.832228 1_555
O36 Si2 1.663022 1_555
O36 Si12 1.802393 1_555
O37 Si3 1.663024 1_555
O37 Si13 1.802390 1_555
O38 Si0 1.652409 1_556
O38 Si14 1.832228 1_555
O39 Si1 1.652409 1_555
O39 Si15 1.832228 1_555
O40 Si7 1.663024 1_555
O40 Si16 1.802390 1_545
O41 Si6 1.663025 1_555
O41 Si17 1.802396 1_555
O42 Si0 1.652409 1_555
O42 Si18 1.832228 1_555
O43 Si1 1.652409 1_566
O43 Si19 1.832228 1_555
O44 Si6 1.663024 1_555
O44 Si16 1.802390 1_555
O45 Si7 1.663025 1_455
O45 Si17 1.802396 1_555
O46 Si4 1.652409 1_555
O46 Si18 1.832228 1_545
O47 Si5 1.652409 1_555
O47 Si19 1.832228 1_555
