# generated using pymatgen
data_LaZnFeNiO6
_symmetry_space_group_name_H-M   'P 1'
_cell_length_a   5.46406100
_cell_length_b   5.30349517
_cell_length_c   7.65781985
_cell_angle_alpha   90.19700856
_cell_angle_beta   90.00000000
_cell_angle_gamma   90.00000000
_symmetry_Int_Tables_number   1
_chemical_formula_structural   LaZnFeNiO6
_chemical_formula_sum   'La2 Zn2 Fe2 Ni2 O12'
_cell_volume   221.91174815
_cell_formula_units_Z   2
loop_
 _symmetry_equiv_pos_site_id
 _symmetry_equiv_pos_as_xyz
  1  'x, y, z'
loop_
 _atom_site_type_symbol
 _atom_site_label
 _atom_site_symmetry_multiplicity
 _atom_site_fract_x
 _atom_site_fract_y
 _atom_site_fract_z
 _atom_site_occupancy
  La  La0  1  0.03174700  0.99158300  0.24978600  1
  La  La1  1  0.46825300  0.49158300  0.74978600  1
  Zn  Zn0  1  0.53905300  0.52402500  0.24830800  1
  Zn  Zn1  1  0.96094700  0.02402500  0.74830800  1
  Fe  Fe0  1  0.50438800  0.00197000  0.00149700  1
  Fe  Fe1  1  0.99561200  0.50197000  0.50149700  1
  Ni  Ni0  1  0.50025000  0.00041200  0.49929700  1
  Ni  Ni1  1  0.99975000  0.50041200  0.99929700  1
  O  O0  1  0.01827500  0.63409500  0.74582600  1
  O  O1  1  0.20469200  0.19329200  0.94190300  1
  O  O2  1  0.19985400  0.19782200  0.55644400  1
  O  O3  1  0.30014600  0.69782200  0.05644400  1
  O  O4  1  0.29530800  0.69329200  0.44190300  1
  O  O5  1  0.48172500  0.13409500  0.24582500  1
  O  O6  1  0.54159800  0.92795300  0.75361700  1
  O  O7  1  0.74007600  0.26423100  0.55654300  1
  O  O8  1  0.73839800  0.26461600  0.94677800  1
  O  O9  1  0.76160200  0.76461600  0.44677800  1
  O  O10  1  0.75992400  0.76423100  0.05654300  1
  O  O11  1  0.95840200  0.42795300  0.25361700  1
loop_
_geom_bond_atom_site_label_1
_geom_bond_atom_site_label_2
_geom_bond_distance
_geom_bond_site_symmetry_2
La0 O11 2.348813 1_465
La0 O10 2.416080 1_455
La0 O9 2.432267 1_455
La0 O5 2.572464 1_565
La0 O3 2.598895 1_555
La0 O4 2.599429 1_555
La0 O2 2.745378 1_565
La0 O1 2.759264 1_564
La1 O6 2.348813 1_555
La1 O7 2.416080 1_555
La1 O8 2.432267 1_555
La1 O0 2.572464 1_555
La1 O2 2.598895 1_555
La1 O1 2.599429 1_555
La1 O3 2.745378 1_556
La1 O4 2.759264 1_555
Fe0 O10 1.928895 1_545
Fe0 O8 1.937735 1_554
Fe0 O6 1.947704 1_544
Fe0 O1 1.980558 1_554
Fe0 O5 1.999512 1_555
Fe0 O3 2.007256 1_545
Fe1 O7 1.928895 1_555
Fe1 O9 1.937735 1_555
Fe1 O11 1.947704 1_555
Fe1 O4 1.980558 1_655
Fe1 O0 1.999519 1_655
Fe1 O2 2.007256 1_655
Ni0 O9 1.939447 1_545
Ni0 O7 1.965407 1_555
Ni0 O2 1.994650 1_555
Ni0 O6 1.999191 1_545
Ni0 O4 2.023674 1_545
Ni0 O5 2.071236 1_555
Ni1 O8 1.939447 1_555
Ni1 O10 1.965407 1_556
Ni1 O3 1.994650 1_656
Ni1 O11 1.999191 1_556
Ni1 O1 2.023674 1_655
Ni1 O0 2.071229 1_655
O0 Zn1 2.091603 1_465
O1 Zn1 2.183660 1_455
O2 Zn1 2.172948 1_455
O3 Zn0 2.172948 1_555
O4 Zn0 2.183660 1_555
O5 Zn0 2.091603 1_555
O6 Zn1 2.347697 1_565
O7 Zn1 2.291017 1_555
O8 Zn1 2.324525 1_555
O9 Zn0 2.324525 1_555
O10 Zn0 2.291017 1_555
O11 Zn0 2.347697 1_555
