# generated using pymatgen
data_Rb2Cd2(SO4)3
_symmetry_space_group_name_H-M   'P 1'
_cell_length_a   10.64679322
_cell_length_b   10.61717200
_cell_length_c   10.72617656
_cell_angle_alpha   90.00000000
_cell_angle_beta   89.49039969
_cell_angle_gamma   90.00000000
_symmetry_Int_Tables_number   1
_chemical_formula_structural   Rb2Cd2(SO4)3
_chemical_formula_sum   'Rb8 Cd8 S12 O48'
_cell_volume   1212.42654371
_cell_formula_units_Z   4
loop_
 _symmetry_equiv_pos_site_id
 _symmetry_equiv_pos_as_xyz
  1  'x, y, z'
loop_
 _atom_site_type_symbol
 _atom_site_label
 _atom_site_symmetry_multiplicity
 _atom_site_fract_x
 _atom_site_fract_y
 _atom_site_fract_z
 _atom_site_occupancy
  Rb  Rb0  1  0.93374200  0.04581000  0.20894600  1
  Rb  Rb1  1  0.06625800  0.54581000  0.79105400  1
  Rb  Rb2  1  0.56425600  0.16617900  0.69447700  1
  Rb  Rb3  1  0.43574400  0.66617900  0.30552200  1
  Rb  Rb4  1  0.80573300  0.80466200  0.57468200  1
  Rb  Rb5  1  0.19426700  0.30466200  0.42531800  1
  Rb  Rb6  1  0.67683800  0.39922400  0.05455400  1
  Rb  Rb7  1  0.32316200  0.89922400  0.94544600  1
  Cd  Cd0  1  0.90091900  0.19543500  0.85071700  1
  Cd  Cd1  1  0.09908100  0.69543500  0.14928300  1
  Cd  Cd2  1  0.57311200  0.03537500  0.33996800  1
  Cd  Cd3  1  0.42688800  0.53537500  0.66003200  1
  Cd  Cd4  1  0.84506500  0.43396600  0.41765100  1
  Cd  Cd5  1  0.15493500  0.93396600  0.58234900  1
  Cd  Cd6  1  0.66585600  0.75609100  0.90769800  1
  Cd  Cd7  1  0.33414400  0.25609100  0.09230200  1
  S  S0  1  0.52655200  0.34210500  0.36882200  1
  S  S1  1  0.47344800  0.84210500  0.63117800  1
  S  S2  1  0.89210200  0.14044300  0.53299600  1
  S  S3  1  0.10789800  0.64044300  0.46700400  1
  S  S4  1  0.61697200  0.08209500  0.02053700  1
  S  S5  1  0.38302800  0.58209500  0.97946300  1
  S  S6  1  0.78522700  0.70326600  0.21749400  1
  S  S7  1  0.21477300  0.20326600  0.78250600  1
  S  S8  1  0.02058200  0.37872700  0.12712400  1
  S  S9  1  0.97941800  0.87872700  0.87287600  1
  S  S10  1  0.26400500  0.97684700  0.28066800  1
  S  S11  1  0.73599500  0.47684700  0.71933200  1
  O  O0  1  0.66154000  0.10992600  0.14911600  1
  O  O1  1  0.33846000  0.60992600  0.85088400  1
  O  O2  1  0.40206800  0.93867900  0.25731400  1
  O  O3  1  0.59793200  0.43867900  0.74268600  1
  O  O4  1  0.49973900  0.21449400  0.42504200  1
  O  O5  1  0.50026100  0.71449400  0.57495800  1
  O  O6  1  0.75165900  0.65531600  0.09438200  1
  O  O7  1  0.24834100  0.15531600  0.90561800  1
  O  O8  1  0.00070800  0.50951800  0.08027200  1
  O  O9  1  0.99929200  0.00951800  0.91972800  1
  O  O10  1  0.90836500  0.76344300  0.22539700  1
  O  O11  1  0.09163500  0.26344300  0.77460300  1
  O  O12  1  0.15649900  0.35837600  0.15063100  1
  O  O13  1  0.84350100  0.85837600  0.84936900  1
  O  O14  1  0.85199000  0.10670400  0.66296100  1
  O  O15  1  0.14801000  0.60670400  0.33703900  1
  O  O16  1  0.78786400  0.11622300  0.44734000  1
  O  O17  1  0.21213600  0.61622300  0.55266000  1
  O  O18  1  0.72002400  0.89311900  0.34067900  1
  O  O19  1  0.27997600  0.39311900  0.65932100  1
  O  O20  1  0.18791800  0.89133100  0.19395500  1
  O  O21  1  0.81208200  0.39133100  0.80604500  1
  O  O22  1  0.66334600  0.35407100  0.34013600  1
  O  O23  1  0.33665400  0.85407100  0.65986400  1
  O  O24  1  0.71075000  0.13218700  0.92887000  1
  O  O25  1  0.28925000  0.63218700  0.07113000  1
  O  O26  1  0.93118700  0.27632200  0.52823300  1
  O  O27  1  0.06881300  0.77632200  0.47176700  1
  O  O28  1  0.59561200  0.94570400  0.00208000  1
  O  O29  1  0.40438800  0.44570400  0.99792000  1
  O  O30  1  0.49657000  0.15124600  0.99639400  1
  O  O31  1  0.50343000  0.65124600  0.00360600  1
  O  O32  1  0.45559100  0.35591900  0.25012900  1
  O  O33  1  0.54440900  0.85591900  0.74987100  1
  O  O34  1  0.76241500  0.61173500  0.31861700  1
  O  O35  1  0.23758500  0.11173500  0.68138400  1
  O  O36  1  0.48453700  0.44059100  0.45703500  1
  O  O37  1  0.51546300  0.94059100  0.54296500  1
  O  O38  1  0.97134600  0.28638500  0.03570200  1
  O  O39  1  0.02865400  0.78638500  0.96429800  1
  O  O40  1  0.68260700  0.81198200  0.23432700  1
  O  O41  1  0.31739300  0.31198200  0.76567300  1
  O  O42  1  0.00423000  0.06225100  0.49488700  1
  O  O43  1  0.99577000  0.56225100  0.50511300  1
  O  O44  1  0.24865800  0.11073100  0.22778900  1
  O  O45  1  0.75134200  0.61073100  0.77221100  1
  O  O46  1  0.95039200  0.35731900  0.24699300  1
  O  O47  1  0.04960800  0.85731900  0.75300700  1
loop_
_geom_bond_atom_site_label_1
_geom_bond_atom_site_label_2
_geom_bond_distance
_geom_bond_site_symmetry_2
Cd0 O24 2.285351 1_555
Cd0 O14 2.287651 1_555
Cd0 O11 2.298127 1_655
Cd0 O21 2.336252 1_555
Cd0 O38 2.336262 1_556
Cd0 O9 2.356907 1_555
Cd1 O25 2.285351 1_555
Cd1 O15 2.287651 1_555
Cd1 O10 2.298127 1_455
Cd1 O20 2.336252 1_555
Cd1 O39 2.336262 1_554
Cd1 O8 2.356907 1_555
Cd2 O18 2.174393 1_545
Cd2 O4 2.246524 1_555
Cd2 O2 2.277058 1_545
Cd2 O0 2.381022 1_555
Cd2 O37 2.471165 1_545
Cd2 O16 2.708830 1_555
Cd3 O19 2.174393 1_555
Cd3 O5 2.246524 1_555
Cd3 O3 2.277058 1_555
Cd3 O1 2.381022 1_555
Cd3 O36 2.471165 1_555
Cd3 O17 2.708830 1_555
Cd4 O26 2.251303 1_555
Cd4 O22 2.276534 1_555
Cd4 O46 2.287794 1_555
Cd4 O43 2.310082 1_555
Cd4 O34 2.341289 1_555
Cd5 O27 2.251303 1_555
Cd5 O23 2.276534 1_555
Cd5 O47 2.287794 1_555
Cd5 O42 2.310082 1_565
Cd5 O35 2.341294 1_565
Cd6 O13 2.264274 1_555
Cd6 O31 2.292659 1_556
Cd6 O45 2.301873 1_555
Cd6 O28 2.371393 1_556
Cd6 O33 2.387478 1_555
Cd6 O6 2.453871 1_556
Cd7 O12 2.264274 1_555
Cd7 O30 2.292659 1_554
Cd7 O44 2.301873 1_555
Cd7 O29 2.371393 1_554
Cd7 O32 2.387478 1_555
Cd7 O7 2.453871 1_554
O0 S4 1.492044 1_555
O0 Rb0 3.050766 1_555
O0 Rb6 3.238309 1_555
O1 S5 1.492044 1_555
O1 Rb1 3.050766 1_555
O1 Rb7 3.238309 1_555
O2 S10 1.543083 1_555
O2 Rb3 2.961371 1_555
O2 Rb7 3.481561 1_554
O3 S11 1.543083 1_555
O3 Rb2 2.961373 1_555
O3 Rb6 3.481561 1_556
O4 S0 1.509218 1_555
O4 Rb2 3.020335 1_555
O5 S1 1.509218 1_555
O5 Rb3 3.020345 1_555
O6 S6 1.462558 1_555
O6 Rb6 2.866347 1_555
O7 S7 1.462558 1_555
O7 Rb7 2.866347 1_545
O8 S8 1.492484 1_555
O8 Rb1 3.196981 1_554
O9 S9 1.492484 1_545
O9 Rb0 3.196981 1_556
O10 S6 1.461559 1_555
O10 Rb0 3.015116 1_565
O11 S7 1.461559 1_555
O11 Rb1 3.015116 1_555
O12 S8 1.486873 1_555
O12 Rb5 3.031324 1_555
O13 S9 1.486873 1_555
O13 Rb4 3.031324 1_555
O14 S2 1.497806 1_555
O14 Rb2 3.143133 1_555
O15 S3 1.497806 1_555
O15 Rb3 3.143134 1_555
O16 S2 1.469708 1_555
O16 Rb0 3.072295 1_555
O17 S3 1.469708 1_555
O17 Rb1 3.072295 1_555
O18 O40 1.486668 1_555
O18 Rb4 2.838197 1_555
O18 Rb0 3.121693 1_565
O19 O41 1.486668 1_555
O19 Rb5 2.838197 1_555
O19 Rb1 3.121693 1_555
O20 S10 1.535927 1_555
O20 Rb7 3.019481 1_554
O20 Rb0 3.167245 1_465
O21 S11 1.535927 1_555
O21 Rb6 3.019481 1_556
O21 Rb1 3.167245 1_655
O22 S0 1.491306 1_555
O22 Rb6 3.102554 1_555
O23 S1 1.491306 1_555
O23 Rb7 3.102554 1_555
O24 S4 1.492988 1_556
O24 Rb2 2.992247 1_555
O24 Rb6 3.158692 1_556
O25 S5 1.492988 1_554
O25 Rb3 2.992238 1_555
O25 Rb7 3.158692 1_554
O26 S2 1.502211 1_555
O26 Rb5 3.016532 1_655
O27 S3 1.502211 1_555
O27 Rb4 3.016532 1_455
O28 S4 1.479414 1_565
O28 Rb7 3.009661 1_554
O29 S5 1.479414 1_555
O29 Rb6 3.009661 1_556
O30 S4 1.501750 1_556
O30 Rb7 3.299224 1_545
O30 Rb2 3.315159 1_555
O30 Rb6 3.320520 1_556
O31 S5 1.501750 1_554
O31 Rb6 3.299224 1_555
O31 Rb3 3.315148 1_555
O31 Rb7 3.320520 1_554
O32 S0 1.493403 1_555
O32 Rb6 3.173777 1_555
O32 Rb3 3.353569 1_555
O33 S1 1.493403 1_555
O33 Rb7 3.173777 1_555
O33 Rb2 3.353571 1_565
O34 S6 1.474853 1_555
O35 S7 1.474845 1_555
O36 S0 1.476893 1_555
O36 Rb3 2.943221 1_555
O37 S1 1.476893 1_555
O37 Rb2 2.943215 1_565
O38 S8 1.485508 1_655
O38 Rb0 3.181855 1_555
O38 Rb6 3.361051 1_555
O39 S9 1.485508 1_455
O39 Rb1 3.181855 1_555
O39 Rb7 3.361051 1_555
O40 S6 1.598473 1_555
O40 Rb3 3.138753 1_555
O41 S7 1.598473 1_555
O41 Rb2 3.138755 1_555
O42 S2 1.507571 1_455
O42 Rb0 3.168823 1_455
O43 S3 1.507571 1_655
O43 Rb1 3.168823 1_655
O44 S10 1.539684 1_545
O44 Rb5 3.006995 1_555
O44 Rb0 3.430682 1_455
O45 S11 1.539684 1_555
O45 Rb4 3.006995 1_555
O45 Rb1 3.430682 1_655
O46 S8 1.498714 1_655
O46 Rb0 3.337332 1_555
O47 S9 1.498714 1_455
O47 Rb1 3.337332 1_555
