# generated using pymatgen
data_Mg(ScS2)2
_symmetry_space_group_name_H-M   'P 1'
_cell_length_a   12.11212400
_cell_length_b   7.20410600
_cell_length_c   12.40202500
_cell_angle_alpha   90.00000000
_cell_angle_beta   90.00000000
_cell_angle_gamma   90.00000000
_symmetry_Int_Tables_number   1
_chemical_formula_structural   Mg(ScS2)2
_chemical_formula_sum   'Mg8 Sc16 S32'
_cell_volume   1082.16380772
_cell_formula_units_Z   8
loop_
 _symmetry_equiv_pos_site_id
 _symmetry_equiv_pos_as_xyz
  1  'x, y, z'
loop_
 _atom_site_type_symbol
 _atom_site_label
 _atom_site_symmetry_multiplicity
 _atom_site_fract_x
 _atom_site_fract_y
 _atom_site_fract_z
 _atom_site_occupancy
  Mg  Mg0  1  0.10879500  0.37916800  0.68714800  1
  Mg  Mg1  1  0.89120500  0.62083200  0.18714800  1
  Mg  Mg2  1  0.39120500  0.37916800  0.18714800  1
  Mg  Mg3  1  0.60879500  0.62083200  0.68714800  1
  Mg  Mg4  1  0.12551800  0.87784100  0.32327000  1
  Mg  Mg5  1  0.87448200  0.12215900  0.82327000  1
  Mg  Mg6  1  0.37448200  0.87784100  0.82327000  1
  Mg  Mg7  1  0.62551800  0.12215900  0.32327000  1
  Sc  Sc0  1  0.10807000  0.88079400  0.68713700  1
  Sc  Sc1  1  0.89193000  0.11920600  0.18713700  1
  Sc  Sc2  1  0.39192900  0.88079400  0.18713700  1
  Sc  Sc3  1  0.60807000  0.11920600  0.68713700  1
  Sc  Sc4  1  0.12842500  0.37998000  0.32661500  1
  Sc  Sc5  1  0.87157500  0.62002000  0.82661500  1
  Sc  Sc6  1  0.37157500  0.37998000  0.82661500  1
  Sc  Sc7  1  0.62842500  0.62002000  0.32661500  1
  Sc  Sc8  1  0.13288700  0.62848400  0.98866900  1
  Sc  Sc9  1  0.86711300  0.37151600  0.48866900  1
  Sc  Sc10  1  0.36711300  0.62848400  0.48866900  1
  Sc  Sc11  1  0.63288700  0.37151600  0.98866900  1
  Sc  Sc12  1  0.13201900  0.12906200  0.99009200  1
  Sc  Sc13  1  0.86798100  0.87093800  0.49009200  1
  Sc  Sc14  1  0.36798100  0.12906200  0.49009200  1
  Sc  Sc15  1  0.63201900  0.87093800  0.99009200  1
  S  S0  1  0.01644600  0.87178300  0.87534100  1
  S  S1  1  0.98355400  0.12821700  0.37534100  1
  S  S2  1  0.48355400  0.87178300  0.37534100  1
  S  S3  1  0.51644600  0.12821700  0.87534100  1
  S  S4  1  0.03799300  0.36991700  0.13248200  1
  S  S5  1  0.96200700  0.63008300  0.63248200  1
  S  S6  1  0.46200700  0.36991700  0.63248200  1
  S  S7  1  0.53799300  0.63008300  0.13248200  1
  S  S8  1  0.01800700  0.37882000  0.87381100  1
  S  S9  1  0.98199300  0.62118000  0.37381100  1
  S  S10  1  0.48199300  0.37882000  0.37381100  1
  S  S11  1  0.51800700  0.62118000  0.87381100  1
  S  S12  1  0.03710300  0.87687900  0.13238500  1
  S  S13  1  0.96289700  0.12312100  0.63238500  1
  S  S14  1  0.46289700  0.87687900  0.63238500  1
  S  S15  1  0.53710300  0.12312100  0.13238500  1
  S  S16  1  0.21640300  0.87970600  0.51039700  1
  S  S17  1  0.78359700  0.12029400  0.01039700  1
  S  S18  1  0.28359600  0.87970600  0.01039700  1
  S  S19  1  0.71640300  0.12029400  0.51039700  1
  S  S20  1  0.21688300  0.37881500  0.51252300  1
  S  S21  1  0.78311700  0.62118500  0.01252300  1
  S  S22  1  0.28311700  0.37881500  0.01252300  1
  S  S23  1  0.71688300  0.62118500  0.51252300  1
  S  S24  1  0.23016400  0.12842400  0.77933700  1
  S  S25  1  0.76983600  0.87157600  0.27933700  1
  S  S26  1  0.26983600  0.12842400  0.27933700  1
  S  S27  1  0.73016400  0.87157600  0.77933700  1
  S  S28  1  0.23178400  0.63013700  0.77779600  1
  S  S29  1  0.76821600  0.36986300  0.27779600  1
  S  S30  1  0.26821600  0.63013700  0.27779600  1
  S  S31  1  0.73178400  0.36986300  0.77779600  1
loop_
_geom_bond_atom_site_label_1
_geom_bond_atom_site_label_2
_geom_bond_distance
_geom_bond_site_symmetry_2
Mg0 S20 2.530656 1_555
Mg0 S8 2.562894 1_555
Mg0 S24 2.594464 1_555
Mg0 S28 2.598430 1_555
Mg0 S5 2.624520 1_455
Mg0 S13 2.643208 1_455
Mg1 S21 2.530656 1_555
Mg1 S9 2.562894 1_555
Mg1 S25 2.594464 1_555
Mg1 S29 2.598430 1_555
Mg1 S4 2.624520 1_655
Mg1 S12 2.643208 1_655
Mg2 S22 2.530656 1_555
Mg2 S10 2.562894 1_555
Mg2 S26 2.594464 1_555
Mg2 S30 2.598430 1_555
Mg2 S7 2.624520 1_555
Mg2 S15 2.643208 1_555
Mg3 S23 2.530656 1_555
Mg3 S11 2.562894 1_555
Mg3 S27 2.594464 1_555
Mg3 S31 2.598430 1_555
Mg3 S6 2.624520 1_555
Mg3 S14 2.643208 1_555
Mg4 S30 2.547496 1_555
Mg4 S16 2.568630 1_555
Mg4 S26 2.571227 1_565
Mg4 S1 2.574321 1_465
Mg4 S12 2.598318 1_555
Mg4 S9 2.614144 1_455
Mg5 S31 2.547496 1_555
Mg5 S17 2.568630 1_556
Mg5 S27 2.571227 1_545
Mg5 S0 2.574321 1_645
Mg5 S13 2.598318 1_555
Mg5 S8 2.614144 1_655
Mg6 S28 2.547496 1_555
Mg6 S18 2.568636 1_556
Mg6 S24 2.571227 1_565
Mg6 S3 2.574321 1_565
Mg6 S14 2.598318 1_555
Mg6 S11 2.614144 1_555
Mg7 S29 2.547496 1_555
Mg7 S19 2.568630 1_555
Mg7 S25 2.571227 1_545
Mg7 S2 2.574321 1_545
Mg7 S15 2.598318 1_555
Mg7 S10 2.614144 1_555
S0 Sc0 2.585316 1_555
S0 Sc5 2.594946 1_455
S0 Sc8 2.652667 1_555
S0 Sc12 2.724006 1_565
S1 Sc1 2.585316 1_555
S1 Sc4 2.594946 1_655
S1 Sc9 2.652667 1_555
S1 Sc13 2.724006 1_545
S2 Sc2 2.585321 1_555
S2 Sc7 2.594946 1_555
S2 Sc10 2.652667 1_555
S2 Sc14 2.724006 1_565
S3 Sc3 2.585316 1_555
S3 Sc6 2.594946 1_555
S3 Sc11 2.652667 1_555
S3 Sc15 2.724006 1_545
S4 Sc1 2.617530 1_455
S4 Sc4 2.646078 1_555
S4 Sc12 2.725107 1_554
S4 Sc8 2.823472 1_554
S5 Sc0 2.617530 1_655
S5 Sc5 2.646078 1_555
S5 Sc13 2.725107 1_555
S5 Sc9 2.823472 1_555
S6 Sc3 2.617530 1_555
S6 Sc6 2.646078 1_555
S6 Sc14 2.725107 1_555
S6 Sc10 2.823472 1_555
S7 Sc2 2.617538 1_555
S7 Sc7 2.646078 1_555
S7 Sc15 2.725107 1_554
S7 Sc11 2.823472 1_554
S8 Sc5 2.551006 1_455
S8 Sc8 2.683321 1_555
S8 Sc12 2.687767 1_555
S9 Sc4 2.551006 1_655
S9 Sc9 2.683321 1_555
S9 Sc13 2.687767 1_555
S10 Sc7 2.551006 1_555
S10 Sc10 2.683321 1_555
S10 Sc14 2.687767 1_555
S11 Sc6 2.551006 1_555
S11 Sc11 2.683321 1_555
S11 Sc15 2.687767 1_555
S12 Sc1 2.569151 1_465
S12 Sc8 2.779382 1_554
S12 Sc12 2.781455 1_564
S13 Sc0 2.569151 1_645
S13 Sc9 2.779382 1_555
S13 Sc13 2.781455 1_545
S14 Sc3 2.569151 1_565
S14 Sc10 2.779382 1_555
S14 Sc14 2.781455 1_565
S15 Sc2 2.569159 1_545
S15 Sc11 2.779382 1_554
S15 Sc15 2.781455 1_544
S16 Sc0 2.554673 1_555
S16 Sc14 2.580904 1_565
S16 Sc10 2.584618 1_555
S17 Sc1 2.554673 1_555
S17 Sc15 2.580904 1_544
S17 Sc11 2.584618 1_554
S18 Sc2 2.554673 1_555
S18 Sc12 2.580895 1_564
S18 Sc8 2.584610 1_554
S19 Sc3 2.554673 1_555
S19 Sc13 2.580904 1_545
S19 Sc9 2.584618 1_555
S20 Sc4 2.542431 1_555
S20 Sc10 2.575576 1_555
S20 Sc14 2.581474 1_555
S21 Sc5 2.542431 1_554
S21 Sc11 2.575576 1_554
S21 Sc15 2.581474 1_554
S22 Sc6 2.542431 1_554
S22 Sc8 2.575576 1_554
S22 Sc12 2.581474 1_554
S23 Sc7 2.542431 1_555
S23 Sc9 2.575576 1_555
S23 Sc13 2.581474 1_555
S24 Sc6 2.561570 1_555
S24 Sc0 2.583971 1_545
S24 Sc12 2.871415 1_555
S25 Sc7 2.561570 1_555
S25 Sc1 2.583971 1_565
S25 Sc13 2.871415 1_555
S26 Sc4 2.561570 1_555
S26 Sc2 2.583964 1_545
S26 Sc14 2.871415 1_555
S27 Sc5 2.561570 1_555
S27 Sc3 2.583971 1_565
S27 Sc15 2.871415 1_555
S28 Sc6 2.545812 1_555
S28 Sc0 2.601973 1_555
S28 Sc8 2.876550 1_555
S29 Sc7 2.545812 1_555
S29 Sc1 2.601973 1_555
S29 Sc9 2.876550 1_555
S30 Sc4 2.545812 1_555
S30 Sc2 2.601966 1_555
S30 Sc10 2.876550 1_555
S31 Sc5 2.545812 1_555
S31 Sc3 2.601973 1_555
S31 Sc11 2.876550 1_555
