# generated using pymatgen
data_LiEu3O4
_symmetry_space_group_name_H-M   'P 1'
_cell_length_a   3.44945242
_cell_length_b   11.37995933
_cell_length_c   11.63734454
_cell_angle_alpha   90.00000000
_cell_angle_beta   90.00000000
_cell_angle_gamma   90.00000000
_symmetry_Int_Tables_number   1
_chemical_formula_structural   LiEu3O4
_chemical_formula_sum   'Li4 Eu12 O16'
_cell_volume   456.81963374
_cell_formula_units_Z   4
loop_
 _symmetry_equiv_pos_site_id
 _symmetry_equiv_pos_as_xyz
  1  'x, y, z'
loop_
 _atom_site_type_symbol
 _atom_site_label
 _atom_site_symmetry_multiplicity
 _atom_site_fract_x
 _atom_site_fract_y
 _atom_site_fract_z
 _atom_site_occupancy
  Li  Li0  1  0.75000000  0.34776235  0.59611218  1
  Li  Li1  1  0.75000000  0.84776235  0.90388782  1
  Li  Li2  1  0.25000000  0.65223765  0.40388782  1
  Li  Li3  1  0.25000000  0.15223765  0.09611218  1
  Eu  Eu0  1  0.75000000  0.14068911  0.29667908  1
  Eu  Eu1  1  0.75000000  0.64068911  0.20332092  1
  Eu  Eu2  1  0.25000000  0.85931089  0.70332092  1
  Eu  Eu3  1  0.25000000  0.35931089  0.79667908  1
  Eu  Eu4  1  0.75000000  0.10114720  0.88980851  1
  Eu  Eu5  1  0.75000000  0.60114720  0.61019149  1
  Eu  Eu6  1  0.25000000  0.89885280  0.11019149  1
  Eu  Eu7  1  0.25000000  0.39885280  0.38980851  1
  Eu  Eu8  1  0.75000000  0.36832515  0.07369710  1
  Eu  Eu9  1  0.75000000  0.86832515  0.42630290  1
  Eu  Eu10  1  0.25000000  0.63167485  0.92630290  1
  Eu  Eu11  1  0.25000000  0.13167485  0.57369710  1
  O  O0  1  0.75000000  0.26096210  0.46131394  1
  O  O1  1  0.75000000  0.76096210  0.03868606  1
  O  O2  1  0.25000000  0.73903790  0.53868606  1
  O  O3  1  0.25000000  0.23903790  0.96131394  1
  O  O4  1  0.75000000  0.05480652  0.10586001  1
  O  O5  1  0.75000000  0.55480652  0.39413999  1
  O  O6  1  0.25000000  0.94519348  0.89413999  1
  O  O7  1  0.25000000  0.44519348  0.60586001  1
  O  O8  1  0.75000000  0.47836230  0.88425623  1
  O  O9  1  0.75000000  0.97836230  0.61574377  1
  O  O10  1  0.25000000  0.52163770  0.11574377  1
  O  O11  1  0.25000000  0.02163770  0.38425623  1
  O  O12  1  0.75000000  0.23084725  0.71781619  1
  O  O13  1  0.75000000  0.73084725  0.78218381  1
  O  O14  1  0.25000000  0.76915275  0.28218381  1
  O  O15  1  0.25000000  0.26915275  0.21781619  1
loop_
_geom_bond_atom_site_label_1
_geom_bond_atom_site_label_2
_geom_bond_distance
_geom_bond_site_symmetry_2
Li0 O0 1.853784 1_555
Li0 O12 1.943229 1_555
Li0 O7 2.053510 1_555
Li0 O7 2.053510 1_655
Li1 O1 1.853784 1_556
Li1 O13 1.943229 1_555
Li1 O6 2.053510 1_555
Li1 O6 2.053510 1_655
Li2 O2 1.853784 1_555
Li2 O14 1.943229 1_555
Li2 O5 2.053510 1_455
Li2 O5 2.053510 1_555
Li3 O3 1.853784 1_554
Li3 O15 1.943229 1_555
Li3 O4 2.053510 1_455
Li3 O4 2.053510 1_555
Eu0 O0 2.354584 1_555
Eu0 O11 2.418442 1_655
Eu0 O11 2.418442 1_555
Eu0 O4 2.426186 1_555
Eu0 O15 2.440110 1_655
Eu0 O15 2.440110 1_555
Eu1 O1 2.354584 1_555
Eu1 O10 2.418442 1_555
Eu1 O10 2.418442 1_655
Eu1 O5 2.426186 1_555
Eu1 O14 2.440110 1_555
Eu1 O14 2.440110 1_655
Eu2 O2 2.354584 1_555
Eu2 O9 2.418442 1_555
Eu2 O9 2.418442 1_455
Eu2 O6 2.426186 1_555
Eu2 O13 2.440110 1_455
Eu2 O13 2.440110 1_555
Eu3 O3 2.354584 1_555
Eu3 O8 2.418442 1_555
Eu3 O8 2.418442 1_455
Eu3 O7 2.426186 1_555
Eu3 O12 2.440110 1_555
Eu3 O12 2.440110 1_455
Eu4 O6 2.475267 1_545
Eu4 O6 2.475267 1_645
Eu4 O3 2.475780 1_655
Eu4 O3 2.475780 1_555
Eu4 O12 2.486897 1_555
Eu4 O4 2.568976 1_556
Eu5 O7 2.475267 1_655
Eu5 O7 2.475267 1_555
Eu5 O2 2.475780 1_555
Eu5 O2 2.475780 1_655
Eu5 O13 2.486897 1_555
Eu5 O5 2.568976 1_555
Eu6 O4 2.475267 1_465
Eu6 O4 2.475267 1_565
Eu6 O1 2.475780 1_555
Eu6 O1 2.475780 1_455
Eu6 O14 2.486897 1_555
Eu6 O6 2.568976 1_554
Eu7 O5 2.475267 1_555
Eu7 O5 2.475267 1_455
Eu7 O0 2.475780 1_455
Eu7 O0 2.475780 1_555
Eu7 O15 2.486897 1_555
Eu7 O7 2.568976 1_555
Eu8 O10 2.501610 1_555
Eu8 O10 2.501610 1_655
Eu8 O8 2.535402 1_554
Eu8 O3 2.617213 1_554
Eu8 O3 2.617213 1_654
Eu8 O15 2.657301 1_655
Eu8 O15 2.657301 1_555
Eu9 O11 2.501610 1_565
Eu9 O11 2.501610 1_665
Eu9 O9 2.535402 1_555
Eu9 O2 2.617213 1_655
Eu9 O2 2.617213 1_555
Eu9 O14 2.657301 1_555
Eu9 O14 2.657301 1_655
Eu10 O8 2.501610 1_455
Eu10 O8 2.501610 1_555
Eu10 O10 2.535402 1_556
Eu10 O1 2.617213 1_456
Eu10 O1 2.617213 1_556
Eu10 O13 2.657301 1_455
Eu10 O13 2.657301 1_555
Eu11 O9 2.501610 1_545
Eu11 O9 2.501610 1_445
Eu11 O11 2.535402 1_555
Eu11 O0 2.617213 1_455
Eu11 O0 2.617213 1_555
Eu11 O12 2.657301 1_555
Eu11 O12 2.657301 1_455
