# generated using pymatgen
data_SbTe
_symmetry_space_group_name_H-M   'P 1'
_cell_length_a   4.83987566
_cell_length_b   4.83987566
_cell_length_c   4.83987575
_cell_angle_alpha   50.36877434
_cell_angle_beta   50.36877434
_cell_angle_gamma   50.36876316
_symmetry_Int_Tables_number   1
_chemical_formula_structural   SbTe
_chemical_formula_sum   'Sb1 Te1'
_cell_volume   61.93766079
_cell_formula_units_Z   1
loop_
 _symmetry_equiv_pos_site_id
 _symmetry_equiv_pos_as_xyz
  1  'x, y, z'
loop_
 _atom_site_type_symbol
 _atom_site_label
 _atom_site_symmetry_multiplicity
 _atom_site_fract_x
 _atom_site_fract_y
 _atom_site_fract_z
 _atom_site_occupancy
  Sb  Sb0  1  0.50000000  0.50000000  0.50000000  1
  Te  Te0  1  0.00000000  0.00000000  0.00000000  1
loop_
_geom_bond_atom_site_label_1
_geom_bond_atom_site_label_2
_geom_bond_distance
_geom_bond_site_symmetry_2
Sb0 Te0 3.177695 1_565
Sb0 Te0 3.177695 1_566
Sb0 Te0 3.177695 1_655
Sb0 Te0 3.177695 1_656
Sb0 Te0 3.177695 1_556
Sb0 Te0 3.177695 1_665
