# generated using pymatgen
data_BaZr(SiO3)3
_symmetry_space_group_name_H-M   'P 1'
_cell_length_a   6.87007347
_cell_length_b   6.87007347
_cell_length_c   10.20547500
_cell_angle_alpha   90.00000000
_cell_angle_beta   90.00000000
_cell_angle_gamma   119.99999491
_symmetry_Int_Tables_number   1
_chemical_formula_structural   BaZr(SiO3)3
_chemical_formula_sum   'Ba2 Zr2 Si6 O18'
_cell_volume   417.14461388
_cell_formula_units_Z   2
loop_
 _symmetry_equiv_pos_site_id
 _symmetry_equiv_pos_as_xyz
  1  'x, y, z'
loop_
 _atom_site_type_symbol
 _atom_site_label
 _atom_site_symmetry_multiplicity
 _atom_site_fract_x
 _atom_site_fract_y
 _atom_site_fract_z
 _atom_site_occupancy
  Ba  Ba0  1  0.00000000  0.00000000  0.00000000  1
  Ba  Ba1  1  0.00000000  0.00000000  0.50000000  1
  Zr  Zr0  1  0.66666700  0.33333300  0.00000000  1
  Zr  Zr1  1  0.66666700  0.33333300  0.50000000  1
  Si  Si0  1  0.39142300  0.44638600  0.25000000  1
  Si  Si1  1  0.55361400  0.94503700  0.25000000  1
  Si  Si2  1  0.39142300  0.94503700  0.75000000  1
  Si  Si3  1  0.05496300  0.60857700  0.25000000  1
  Si  Si4  1  0.55361400  0.60857700  0.75000000  1
  Si  Si5  1  0.05496300  0.44638600  0.75000000  1
  O  O0  1  0.91567800  0.59100200  0.11716000  1
  O  O1  1  0.40899800  0.32467600  0.11716000  1
  O  O2  1  0.91567800  0.59100200  0.38284000  1
  O  O3  1  0.91567800  0.32467600  0.61716000  1
  O  O4  1  0.67532400  0.08432200  0.11716000  1
  O  O5  1  0.40899800  0.32467600  0.38284000  1
  O  O6  1  0.40899800  0.08432200  0.61716000  1
  O  O7  1  0.91567800  0.32467600  0.88284000  1
  O  O8  1  0.67532400  0.08432200  0.38284000  1
  O  O9  1  0.40899800  0.08432200  0.88284000  1
  O  O10  1  0.67532400  0.59100200  0.61716000  1
  O  O11  1  0.67532400  0.59100200  0.88284000  1
  O  O12  1  0.13887700  0.42144700  0.25000000  1
  O  O13  1  0.57855300  0.71743000  0.25000000  1
  O  O14  1  0.13887700  0.71743000  0.75000000  1
  O  O15  1  0.28257000  0.86112300  0.25000000  1
  O  O16  1  0.57855300  0.86112300  0.75000000  1
  O  O17  1  0.28257000  0.42144700  0.75000000  1
loop_
_geom_bond_atom_site_label_1
_geom_bond_atom_site_label_2
_geom_bond_distance
_geom_bond_site_symmetry_2
Ba0 O7 2.834205 1_454
Ba0 O4 2.834205 1_455
Ba0 O9 2.834205 1_554
Ba0 O0 2.834205 1_445
Ba0 O1 2.834205 1_555
Ba0 O11 2.834205 1_444
Ba1 O3 2.834205 1_455
Ba1 O8 2.834205 1_455
Ba1 O2 2.834205 1_445
Ba1 O6 2.834205 1_555
Ba1 O5 2.834205 1_555
Ba1 O10 2.834205 1_445
O0 Si3 1.628682 1_655
O0 Zr0 2.112228 1_555
O1 Si0 1.628682 1_555
O1 Zr0 2.112230 1_555
O2 Si3 1.628682 1_655
O2 Zr1 2.112228 1_555
O3 Si5 1.628682 1_655
O3 Zr1 2.112224 1_555
O4 Si1 1.628682 1_545
O4 Zr0 2.112224 1_555
O5 Si0 1.628682 1_555
O5 Zr1 2.112230 1_555
O6 Si2 1.628682 1_545
O6 Zr1 2.112228 1_555
O7 Si5 1.628682 1_655
O7 Zr0 2.112224 1_556
O8 Si1 1.628682 1_545
O8 Zr1 2.112224 1_555
O9 Si2 1.628682 1_545
O9 Zr0 2.112228 1_556
O10 Si4 1.628682 1_555
O10 Zr1 2.112230 1_555
O11 Si4 1.628682 1_555
O11 Zr0 2.112230 1_556
O12 Si3 1.651135 1_555
O12 Si0 1.656004 1_555
O13 Si0 1.651135 1_555
O13 Si1 1.656004 1_555
O14 Si5 1.651135 1_555
O14 Si2 1.656004 1_555
O15 Si1 1.651135 1_555
O15 Si3 1.656004 1_555
O16 Si2 1.651135 1_555
O16 Si4 1.656004 1_555
O17 Si4 1.651135 1_555
O17 Si5 1.656004 1_555
