# generated using pymatgen
data_Y2GaN3
_symmetry_space_group_name_H-M   'P 1'
_cell_length_a   5.93702475
_cell_length_b   10.47472498
_cell_length_c   11.42801106
_cell_angle_alpha   89.99999785
_cell_angle_beta   91.84042093
_cell_angle_gamma   151.90314755
_symmetry_Int_Tables_number   1
_chemical_formula_structural   Y2GaN3
_chemical_formula_sum   'Y8 Ga4 N12'
_cell_volume   333.93135633
_cell_formula_units_Z   4
loop_
 _symmetry_equiv_pos_site_id
 _symmetry_equiv_pos_as_xyz
  1  'x, y, z'
loop_
 _atom_site_type_symbol
 _atom_site_label
 _atom_site_symmetry_multiplicity
 _atom_site_fract_x
 _atom_site_fract_y
 _atom_site_fract_z
 _atom_site_occupancy
  Y  Y0  1  0.47618900  0.02831300  0.85161200  1
  Y  Y1  1  0.52381100  0.55212300  0.64838800  1
  Y  Y2  1  0.52381100  0.97168700  0.14838800  1
  Y  Y3  1  0.47618900  0.44787700  0.35161200  1
  Y  Y4  1  0.55855000  0.88730600  0.57269500  1
  Y  Y5  1  0.44145000  0.32875600  0.92730500  1
  Y  Y6  1  0.44145000  0.11269400  0.42730500  1
  Y  Y7  1  0.55855000  0.67124400  0.07269500  1
  Ga  Ga0  1  0.55170300  0.27294800  0.66192500  1
  Ga  Ga1  1  0.44829700  0.72124500  0.83807500  1
  Ga  Ga2  1  0.44829700  0.72705200  0.33807500  1
  Ga  Ga3  1  0.55170300  0.27875500  0.16192500  1
  N  N0  1  0.00000000  0.61186400  0.75000000  1
  N  N1  1  0.00000000  0.38813600  0.25000000  1
  N  N2  1  0.68658500  0.16104500  0.62490200  1
  N  N3  1  0.31341500  0.47446000  0.87509800  1
  N  N4  1  0.31341500  0.83895500  0.37509800  1
  N  N5  1  0.68658500  0.52554000  0.12490200  1
  N  N6  1  0.40128400  0.09804100  0.02396300  1
  N  N7  1  0.59871600  0.69675700  0.47603700  1
  N  N8  1  0.59871600  0.90195900  0.97603700  1
  N  N9  1  0.40128400  0.30324300  0.52396300  1
  N  N10  1  0.00000000  0.97374000  0.75000000  1
  N  N11  1  0.00000000  0.02626000  0.25000000  1
loop_
_geom_bond_atom_site_label_1
_geom_bond_atom_site_label_2
_geom_bond_distance
_geom_bond_site_symmetry_2
Ga0 N10 1.914264 1_545
Ga0 N9 1.947701 1_555
Ga0 N0 1.964038 1_655
Ga0 N2 1.967759 1_555
Ga1 N10 1.914264 1_655
Ga1 N8 1.947701 1_555
Ga1 N0 1.964038 1_555
Ga1 N3 1.967759 1_555
Ga2 N11 1.914264 1_665
Ga2 N7 1.947701 1_555
Ga2 N1 1.964038 1_555
Ga2 N4 1.967759 1_555
Ga3 N11 1.914264 1_555
Ga3 N6 1.947701 1_555
Ga3 N1 1.964038 1_655
Ga3 N5 1.967759 1_555
N0 Y1 2.529941 1_455
N0 Y0 2.529949 1_565
N0 Y5 2.641591 1_455
N0 Y4 2.641591 1_555
N1 Y3 2.529941 1_555
N1 Y2 2.529949 1_445
N1 Y7 2.641591 1_555
N1 Y6 2.641591 1_455
N2 Y4 2.298002 1_545
N2 Y1 2.355790 1_655
N2 Y6 2.441775 1_555
N2 Y0 2.711018 1_555
N3 Y5 2.298002 1_555
N3 Y0 2.355789 1_455
N3 Y7 2.441775 1_556
N3 Y1 2.711019 1_555
N4 Y6 2.298002 1_565
N4 Y3 2.355790 1_455
N4 Y4 2.441775 1_555
N4 Y2 2.711018 1_555
N5 Y7 2.298002 1_555
N5 Y2 2.355789 1_655
N5 Y5 2.441775 1_554
N5 Y3 2.711019 1_555
N6 Y0 2.289103 1_554
N6 Y2 2.436185 1_545
N6 Y7 2.458641 1_445
N6 Y5 2.473359 1_554
N7 Y1 2.289108 1_555
N7 Y3 2.436176 1_555
N7 Y6 2.458641 1_665
N7 Y4 2.473359 1_555
N8 Y2 2.289103 1_556
N8 Y0 2.436185 1_565
N8 Y5 2.458641 1_665
N8 Y7 2.473359 1_556
N9 Y3 2.289108 1_555
N9 Y1 2.436176 1_555
N9 Y4 2.458641 1_445
N9 Y6 2.473359 1_555
N10 Y0 2.570174 1_565
N10 Y1 2.570182 1_455
N10 Y4 2.695712 1_455
N10 Y5 2.695712 1_565
N11 Y2 2.570174 1_445
N11 Y3 2.570182 1_555
N11 Y6 2.695712 1_555
N11 Y7 2.695712 1_445
