# generated using pymatgen
data_YAg(WO4)2
_symmetry_space_group_name_H-M   'P 1'
_cell_length_a   7.40704042
_cell_length_b   7.40704042
_cell_length_c   7.32978113
_cell_angle_alpha   65.73447350
_cell_angle_beta   65.73447350
_cell_angle_gamma   94.08186645
_symmetry_Int_Tables_number   1
_chemical_formula_structural   YAg(WO4)2
_chemical_formula_sum   'Y2 Ag2 W4 O16'
_cell_volume   319.97615702
_cell_formula_units_Z   2
loop_
 _symmetry_equiv_pos_site_id
 _symmetry_equiv_pos_as_xyz
  1  'x, y, z'
loop_
 _atom_site_type_symbol
 _atom_site_label
 _atom_site_symmetry_multiplicity
 _atom_site_fract_x
 _atom_site_fract_y
 _atom_site_fract_z
 _atom_site_occupancy
  Y  Y0  1  0.69874200  0.30125800  0.00000000  1
  Y  Y1  1  0.30125800  0.69874200  0.00000000  1
  Ag  Ag0  1  0.68310500  0.68310500  0.48258500  1
  Ag  Ag1  1  0.31689500  0.31689500  0.51741500  1
  W  W0  1  0.21148800  0.21148800  0.03122300  1
  W  W1  1  0.78851200  0.78851200  0.96877700  1
  W  W2  1  0.83550700  0.16449300  0.50000000  1
  W  W3  1  0.16449300  0.83550700  0.50000000  1
  O  O0  1  0.35286000  0.10199700  0.24330200  1
  O  O1  1  0.64714000  0.89800300  0.75669800  1
  O  O2  1  0.89800300  0.64714000  0.75669800  1
  O  O3  1  0.10199700  0.35286000  0.24330200  1
  O  O4  1  0.68525500  0.21876900  0.35188100  1
  O  O5  1  0.31474500  0.78123100  0.64811900  1
  O  O6  1  0.78123100  0.31474500  0.64811900  1
  O  O7  1  0.21876900  0.68525500  0.35188100  1
  O  O8  1  0.69855900  0.95878800  0.08672500  1
  O  O9  1  0.30144100  0.04121200  0.91327500  1
  O  O10  1  0.04121200  0.30144100  0.91327500  1
  O  O11  1  0.95878800  0.69855900  0.08672500  1
  O  O12  1  0.97824700  0.97824700  0.34171200  1
  O  O13  1  0.02175300  0.02175300  0.65828800  1
  O  O14  1  0.55598300  0.55598300  0.13588600  1
  O  O15  1  0.44401700  0.44401700  0.86411400  1
loop_
_geom_bond_atom_site_label_1
_geom_bond_atom_site_label_2
_geom_bond_distance
_geom_bond_site_symmetry_2
Ag0 O15 2.346340 1_555
Ag0 O12 2.496678 1_555
Ag0 O8 2.725020 1_555
Ag0 O11 2.725020 1_555
Ag0 O5 2.780479 1_555
Ag0 O6 2.780479 1_555
Ag1 O14 2.346340 1_555
Ag1 O13 2.496678 1_555
Ag1 O9 2.725020 1_555
Ag1 O10 2.725020 1_555
Ag1 O7 2.780479 1_555
Ag1 O4 2.780479 1_555
O0 W3 1.944410 1_545
O0 W0 2.143202 1_555
O0 Y0 2.337805 1_555
O1 W2 1.944410 1_565
O1 W1 2.143202 1_555
O1 Y1 2.337805 1_556
O2 W3 1.944410 1_655
O2 W1 2.143202 1_555
O2 Y0 2.337805 1_556
O3 W2 1.944410 1_455
O3 W0 2.143202 1_555
O3 Y1 2.337805 1_555
O4 W2 1.810246 1_555
O4 Y0 2.349443 1_555
O5 W3 1.810246 1_555
O5 Y1 2.349443 1_556
O6 W2 1.810246 1_555
O6 Y0 2.349443 1_556
O7 W3 1.810246 1_555
O7 Y1 2.349443 1_555
O8 W1 1.823317 1_554
O8 Y0 2.347830 1_565
O9 W0 1.823317 1_556
O9 Y1 2.347830 1_546
O10 W0 1.823317 1_556
O10 Y0 2.347830 1_456
O11 W1 1.823317 1_554
O11 Y1 2.347830 1_655
O12 W0 2.064106 1_665
O12 W3 2.209525 1_655
O12 W2 2.209525 1_565
O13 W1 2.064106 1_445
O13 W2 2.209525 1_455
O13 W3 2.209525 1_545
O14 W1 1.882282 1_554
O14 Y1 2.575464 1_555
O14 Y0 2.575464 1_555
O15 W0 1.882282 1_556
O15 Y0 2.575464 1_556
O15 Y1 2.575464 1_556
