# generated using pymatgen
data_LaSI
_symmetry_space_group_name_H-M   'P 1'
_cell_length_a   7.13220785
_cell_length_b   7.40577527
_cell_length_c   14.69874863
_cell_angle_alpha   90.00000000
_cell_angle_beta   90.00000000
_cell_angle_gamma   90.00000000
_symmetry_Int_Tables_number   1
_chemical_formula_structural   LaSI
_chemical_formula_sum   'La8 S8 I8'
_cell_volume   776.38097241
_cell_formula_units_Z   8
loop_
 _symmetry_equiv_pos_site_id
 _symmetry_equiv_pos_as_xyz
  1  'x, y, z'
loop_
 _atom_site_type_symbol
 _atom_site_label
 _atom_site_symmetry_multiplicity
 _atom_site_fract_x
 _atom_site_fract_y
 _atom_site_fract_z
 _atom_site_occupancy
  La  La0  1  0.25671461  0.97131035  0.91582335  1
  La  La1  1  0.74328539  0.02868965  0.08417665  1
  La  La2  1  0.24328539  0.47131035  0.08417665  1
  La  La3  1  0.74328539  0.52868965  0.41582335  1
  La  La4  1  0.75671461  0.52868965  0.91582335  1
  La  La5  1  0.25671461  0.47131035  0.58417665  1
  La  La6  1  0.75671461  0.02868965  0.58417665  1
  La  La7  1  0.24328539  0.97131035  0.41582335  1
  S  S0  1  0.99907411  0.74291343  0.52242895  1
  S  S1  1  0.00092589  0.25708657  0.47757105  1
  S  S2  1  0.50092589  0.24291343  0.47757105  1
  S  S3  1  0.00092589  0.75708657  0.02242895  1
  S  S4  1  0.49907411  0.75708657  0.52242895  1
  S  S5  1  0.99907411  0.24291343  0.97757105  1
  S  S6  1  0.49907411  0.25708657  0.97757105  1
  S  S7  1  0.50092589  0.74291343  0.02242895  1
  I  I0  1  0.18218378  0.59385343  0.80098392  1
  I  I1  1  0.81781622  0.40614657  0.19901608  1
  I  I2  1  0.31781622  0.09385343  0.19901608  1
  I  I3  1  0.81781622  0.90614657  0.30098392  1
  I  I4  1  0.68218378  0.90614657  0.80098392  1
  I  I5  1  0.18218378  0.09385343  0.69901608  1
  I  I6  1  0.68218378  0.40614657  0.69901608  1
  I  I7  1  0.31781622  0.59385343  0.30098392  1
loop_
_geom_bond_atom_site_label_1
_geom_bond_atom_site_label_2
_geom_bond_distance
_geom_bond_site_symmetry_2
La0 S5 2.871619 1_465
La0 S6 2.879375 1_565
La0 S3 2.881070 1_556
La0 S7 2.889665 1_556
La1 S3 2.871619 1_645
La1 S7 2.879375 1_545
La1 S5 2.881070 1_554
La1 S6 2.889665 1_554
La2 S7 2.871619 1_555
La2 S3 2.879375 1_555
La2 S6 2.881070 1_554
La2 S5 2.889665 1_454
La3 S1 2.871619 1_655
La3 S2 2.879375 1_555
La3 S0 2.881070 1_555
La3 S4 2.889665 1_555
La4 S6 2.871619 1_555
La4 S5 2.879375 1_555
La4 S7 2.881070 1_556
La4 S3 2.889665 1_656
La5 S0 2.871619 1_455
La5 S4 2.879375 1_555
La5 S1 2.881070 1_555
La5 S2 2.889665 1_555
La6 S4 2.871619 1_545
La6 S0 2.879375 1_545
La6 S2 2.881070 1_555
La6 S1 2.889665 1_655
La7 S2 2.871619 1_565
La7 S1 2.879375 1_565
La7 S4 2.881070 1_555
La7 S0 2.889665 1_455
I0 La0 3.308465 1_555
I0 La5 3.355866 1_555
I0 La4 3.505798 1_455
I1 La1 3.308465 1_555
I1 La3 3.355866 1_555
I1 La2 3.505798 1_655
I2 La2 3.308465 1_555
I2 La7 3.355866 1_545
I2 La1 3.505798 1_555
I3 La3 3.308465 1_555
I3 La1 3.355866 1_565
I3 La7 3.505798 1_655
I4 La4 3.308465 1_555
I4 La6 3.355866 1_565
I4 La0 3.505798 1_555
I5 La5 3.308465 1_555
I5 La0 3.355866 1_545
I5 La6 3.505798 1_455
I6 La6 3.308465 1_555
I6 La4 3.355866 1_555
I6 La5 3.505798 1_555
I7 La7 3.308465 1_555
I7 La2 3.355866 1_555
I7 La3 3.505798 1_555
