# generated using pymatgen
data_Gd2AlNi2
_symmetry_space_group_name_H-M   'P 1'
_cell_length_a   5.46228350
_cell_length_b   5.46228350
_cell_length_c   5.46228350
_cell_angle_alpha   135.12359929
_cell_angle_beta   119.90477033
_cell_angle_gamma   78.04224513
_symmetry_Int_Tables_number   1
_chemical_formula_structural   Gd2AlNi2
_chemical_formula_sum   'Gd2 Al1 Ni2'
_cell_volume   96.79594346
_cell_formula_units_Z   1
loop_
 _symmetry_equiv_pos_site_id
 _symmetry_equiv_pos_as_xyz
  1  'x, y, z'
loop_
 _atom_site_type_symbol
 _atom_site_label
 _atom_site_symmetry_multiplicity
 _atom_site_fract_x
 _atom_site_fract_y
 _atom_site_fract_z
 _atom_site_occupancy
  Gd  Gd0  1  0.29441300  0.79441300  0.50000000  1
  Gd  Gd1  1  0.70558700  0.20558700  0.50000000  1
  Al  Al0  1  0.00000000  0.00000000  0.00000000  1
  Ni  Ni0  1  0.73009500  0.50000000  0.23009500  1
  Ni  Ni1  1  0.26990500  0.50000000  0.76990500  1
loop_
_geom_bond_atom_site_label_1
_geom_bond_atom_site_label_2
_geom_bond_distance
_geom_bond_site_symmetry_2
Gd0 Ni0 2.902394 1_455
Gd0 Ni1 2.902394 1_555
Gd0 Ni1 2.995938 1_565
Gd0 Ni0 2.995938 1_566
Gd0 Ni0 2.995938 1_555
Gd0 Ni1 2.995938 1_554
Gd1 Ni1 2.902394 1_655
Gd1 Ni0 2.902394 1_555
Gd1 Ni0 2.995938 1_556
Gd1 Ni0 2.995938 1_545
Gd1 Ni1 2.995938 1_544
Gd1 Ni1 2.995938 1_555
Al0 Ni1 2.554710 1_555
Al0 Ni0 2.554710 1_455
Al0 Ni1 2.554710 1_544
Al0 Ni0 2.554710 1_444
Ni0 Ni1 2.517306 1_554
