# generated using pymatgen
data_CeAl2Ni
_symmetry_space_group_name_H-M   'P 1'
_cell_length_a   5.51597038
_cell_length_b   5.51597038
_cell_length_c   6.86975600
_cell_angle_alpha   90.00000000
_cell_angle_beta   90.00000000
_cell_angle_gamma   135.82096121
_symmetry_Int_Tables_number   1
_chemical_formula_structural   CeAl2Ni
_chemical_formula_sum   'Ce2 Al4 Ni2'
_cell_volume   145.66571980
_cell_formula_units_Z   2
loop_
 _symmetry_equiv_pos_site_id
 _symmetry_equiv_pos_as_xyz
  1  'x, y, z'
loop_
 _atom_site_type_symbol
 _atom_site_label
 _atom_site_symmetry_multiplicity
 _atom_site_fract_x
 _atom_site_fract_y
 _atom_site_fract_z
 _atom_site_occupancy
  Ce  Ce0  1  0.56207100  0.43792900  0.25000000  1
  Ce  Ce1  1  0.43792900  0.56207100  0.75000000  1
  Al  Al0  1  0.84435500  0.15564500  0.05415400  1
  Al  Al1  1  0.15564500  0.84435500  0.94584600  1
  Al  Al2  1  0.15564500  0.84435500  0.55415400  1
  Al  Al3  1  0.84435500  0.15564500  0.44584600  1
  Ni  Ni0  1  0.28555000  0.71445000  0.25000000  1
  Ni  Ni1  1  0.71445000  0.28555000  0.75000000  1
loop_
_geom_bond_atom_site_label_1
_geom_bond_atom_site_label_2
_geom_bond_distance
_geom_bond_site_symmetry_2
Ce0 Ni0 2.826644 1_555
Ce0 Ni0 3.085679 1_545
Ce0 Ni0 3.085679 1_655
Ce0 Ce1 3.661796 1_554
Ce0 Ce1 3.661796 1_555
Ce1 Ni1 2.826644 1_555
Ce1 Ni1 3.085679 1_455
Ce1 Ni1 3.085679 1_565
Al0 Ni1 2.475723 1_554
Al0 Ni0 2.544450 1_655
Al0 Ni0 2.544450 1_545
Al0 Al3 2.690828 1_555
Al0 Al1 2.928737 1_544
Al0 Al1 2.928737 1_654
Al0 Ce1 3.095732 1_654
Al0 Ce1 3.095732 1_544
Al0 Ce0 3.183797 1_555
Al0 Ce0 3.326540 1_655
Al0 Ce0 3.326540 1_545
Al1 Ni0 2.475723 1_556
Al1 Ni1 2.544450 1_455
Al1 Ni1 2.544450 1_565
Al1 Al2 2.690828 1_555
Al1 Ce0 3.095732 1_566
Al1 Ce0 3.095732 1_456
Al1 Ce1 3.183797 1_555
Al1 Ce1 3.326540 1_565
Al1 Ce1 3.326540 1_455
Al2 Ni0 2.475723 1_555
Al2 Ni1 2.544450 1_565
Al2 Ni1 2.544450 1_455
Al2 Al3 2.928737 1_565
Al2 Al3 2.928737 1_455
Al2 Ce0 3.095732 1_565
Al2 Ce0 3.095732 1_455
Al2 Ce1 3.183797 1_555
Al2 Ce1 3.326540 1_565
Al2 Ce1 3.326540 1_455
Al3 Ni1 2.475723 1_555
Al3 Ni0 2.544450 1_545
Al3 Ni0 2.544450 1_655
Al3 Ce1 3.095732 1_655
Al3 Ce1 3.095732 1_545
Al3 Ce0 3.183797 1_555
Al3 Ce0 3.326540 1_655
Al3 Ce0 3.326540 1_545
