# generated using pymatgen
data_CaCr6(OF)4
_symmetry_space_group_name_H-M   'P 1'
_cell_length_a   5.77034713
_cell_length_b   6.63767800
_cell_length_c   5.63582194
_cell_angle_alpha   90.43719197
_cell_angle_beta   104.98105732
_cell_angle_gamma   88.81448267
_symmetry_Int_Tables_number   1
_chemical_formula_structural   CaCr6(OF)4
_chemical_formula_sum   'Ca1 Cr6 O4 F4'
_cell_volume   208.47953230
_cell_formula_units_Z   1
loop_
 _symmetry_equiv_pos_site_id
 _symmetry_equiv_pos_as_xyz
  1  'x, y, z'
loop_
 _atom_site_type_symbol
 _atom_site_label
 _atom_site_symmetry_multiplicity
 _atom_site_fract_x
 _atom_site_fract_y
 _atom_site_fract_z
 _atom_site_occupancy
  Ca  Ca0  1  0.00266900  0.37255800  0.77577600  1
  Cr  Cr0  1  0.00285200  0.62244000  0.34853200  1
  Cr  Cr1  1  0.99680500  0.97213600  0.02901000  1
  Cr  Cr2  1  0.47796200  0.11670900  0.78259400  1
  Cr  Cr3  1  0.50171400  0.62078700  0.75741900  1
  Cr  Cr4  1  0.48778700  0.36777900  0.29333700  1
  Cr  Cr5  1  0.51893000  0.87222300  0.26213300  1
  O  O0  1  0.31188300  0.37404400  0.58069200  1
  O  O1  1  0.66068800  0.86272100  0.96720500  1
  O  O2  1  0.30910300  0.13369200  0.06346500  1
  O  O3  1  0.68267600  0.60564300  0.48050700  1
  F  F0  1  0.25817900  0.61020900  0.98809400  1
  F  F1  1  0.28107300  0.87961400  0.47760900  1
  F  F2  1  0.73663200  0.13150500  0.57594900  1
  F  F3  1  0.75021600  0.37794100  0.05815400  1
loop_
_geom_bond_atom_site_label_1
_geom_bond_atom_site_label_2
_geom_bond_distance
_geom_bond_site_symmetry_2
Ca0 F0 2.291135 1_555
Ca0 F2 2.316322 1_455
Ca0 O0 2.325434 1_555
Ca0 F3 2.419002 1_456
Ca0 O2 2.590431 1_556
Ca0 O3 2.627696 1_455
Cr0 O3 2.167773 1_455
Cr0 F1 2.347603 1_555
Cr0 F3 2.502228 1_455
Cr0 O0 2.513018 1_555
Cr1 O1 2.028705 1_554
Cr1 O2 2.081100 1_665
Cr2 O2 2.063480 1_556
Cr2 O1 2.102980 1_545
Cr2 F2 2.121414 1_555
Cr2 O0 2.128136 1_555
Cr2 F1 2.396874 1_545
Cr2 F3 2.587818 1_556
Cr3 O1 2.071106 1_555
Cr3 O0 2.087961 1_555
Cr3 O3 2.090890 1_555
Cr3 F0 2.149385 1_555
Cr3 F1 2.443802 1_555
Cr3 F3 2.493334 1_556
Cr4 O3 2.074841 1_555
Cr4 O2 2.121492 1_555
Cr4 O0 2.121747 1_555
Cr4 F3 2.257824 1_555
Cr4 F2 2.412644 1_555
Cr4 F0 2.465748 1_554
Cr5 O1 2.033487 1_554
Cr5 F1 2.054011 1_555
Cr5 O3 2.213894 1_555
Cr5 O2 2.230148 1_565
Cr5 F0 2.557295 1_554
Cr5 F2 2.561713 1_565
