# generated using pymatgen
data_Ba3Fe2TeO5
_symmetry_space_group_name_H-M   'P 1'
_cell_length_a   4.11292600
_cell_length_b   4.11292600
_cell_length_c   12.11967200
_cell_angle_alpha   90.00000000
_cell_angle_beta   90.00000000
_cell_angle_gamma   90.00000000
_symmetry_Int_Tables_number   1
_chemical_formula_structural   Ba3Fe2TeO5
_chemical_formula_sum   'Ba3 Fe2 Te1 O5'
_cell_volume   205.01831411
_cell_formula_units_Z   1
loop_
 _symmetry_equiv_pos_site_id
 _symmetry_equiv_pos_as_xyz
  1  'x, y, z'
loop_
 _atom_site_type_symbol
 _atom_site_label
 _atom_site_symmetry_multiplicity
 _atom_site_fract_x
 _atom_site_fract_y
 _atom_site_fract_z
 _atom_site_occupancy
  Ba  Ba0  1  0.00000000  0.00000000  0.00000000  1
  Ba  Ba1  1  0.00000000  0.00000000  0.67006100  1
  Ba  Ba2  1  0.00000000  0.00000000  0.32993900  1
  Fe  Fe0  1  0.50000000  0.50000000  0.84131300  1
  Fe  Fe1  1  0.50000000  0.50000000  0.15868700  1
  Te  Te0  1  0.50000000  0.50000000  0.50000000  1
  O  O0  1  0.50000000  0.00000000  0.81860800  1
  O  O1  1  0.00000000  0.50000000  0.81860800  1
  O  O2  1  0.50000000  0.00000000  0.18139200  1
  O  O3  1  0.00000000  0.50000000  0.18139200  1
  O  O4  1  0.50000000  0.50000000  0.00000000  1
loop_
_geom_bond_atom_site_label_1
_geom_bond_atom_site_label_2
_geom_bond_distance
_geom_bond_site_symmetry_2
Ba0 O4 2.908278 1_545
Ba0 O4 2.908278 1_445
Ba0 O4 2.908278 1_455
Ba0 O4 2.908278 1_555
Ba0 O3 3.010324 1_555
Ba0 O0 3.010324 1_554
Ba0 O1 3.010324 1_554
Ba0 O3 3.010324 1_545
Ba0 O2 3.010324 1_455
Ba0 O1 3.010324 1_544
Ba0 O2 3.010324 1_555
Ba0 O0 3.010324 1_454
Ba1 O0 2.733179 1_555
Ba1 O1 2.733179 1_545
Ba1 O0 2.733179 1_455
Ba1 O1 2.733179 1_555
Ba1 Te0 3.564568 1_545
Ba1 Te0 3.564568 1_555
Ba1 Te0 3.564568 1_445
Ba1 Te0 3.564568 1_455
Ba2 O3 2.733179 1_545
Ba2 O2 2.733179 1_455
Ba2 O2 2.733179 1_555
Ba2 O3 2.733179 1_555
Ba2 Te0 3.564568 1_545
Ba2 Te0 3.564568 1_555
Ba2 Te0 3.564568 1_445
Ba2 Te0 3.564568 1_455
Fe0 O4 1.923234 1_556
Fe0 O0 2.074792 1_555
Fe0 O0 2.074792 1_565
Fe0 O1 2.074792 1_655
Fe0 O1 2.074792 1_555
Fe1 O4 1.923234 1_555
Fe1 O2 2.074792 1_555
Fe1 O3 2.074792 1_555
Fe1 O3 2.074792 1_655
Fe1 O2 2.074792 1_565
