# generated using pymatgen
data_ScZnCu
_symmetry_space_group_name_H-M   'P 1'
_cell_length_a   5.11057117
_cell_length_b   5.14818676
_cell_length_c   8.31361600
_cell_angle_alpha   90.00000000
_cell_angle_beta   90.00000000
_cell_angle_gamma   120.24120087
_symmetry_Int_Tables_number   1
_chemical_formula_structural   ScZnCu
_chemical_formula_sum   'Sc4 Zn4 Cu4'
_cell_volume   188.96598446
_cell_formula_units_Z   4
loop_
 _symmetry_equiv_pos_site_id
 _symmetry_equiv_pos_as_xyz
  1  'x, y, z'
loop_
 _atom_site_type_symbol
 _atom_site_label
 _atom_site_symmetry_multiplicity
 _atom_site_fract_x
 _atom_site_fract_y
 _atom_site_fract_z
 _atom_site_occupancy
  Sc  Sc0  1  0.66505000  0.33249700  0.56381900  1
  Sc  Sc1  1  0.32973700  0.66488500  0.45001000  1
  Sc  Sc2  1  0.32973700  0.66488500  0.04999000  1
  Sc  Sc3  1  0.66505000  0.33249700  0.93618100  1
  Zn  Zn0  1  0.66953700  0.83478400  0.75000000  1
  Zn  Zn1  1  0.83103000  0.66212600  0.25000000  1
  Zn  Zn2  1  0.83102700  0.16891900  0.25000000  1
  Zn  Zn3  1  0.33746200  0.16872300  0.25000000  1
  Cu  Cu0  1  0.00015400  0.00006700  0.50038300  1
  Cu  Cu1  1  0.00015400  0.00006700  0.99961700  1
  Cu  Cu2  1  0.17057400  0.33703800  0.75000000  1
  Cu  Cu3  1  0.17049000  0.83351100  0.75000000  1
loop_
_geom_bond_atom_site_label_1
_geom_bond_atom_site_label_2
_geom_bond_distance
_geom_bond_site_symmetry_2
Sc0 Zn3 2.983052 1_555
Sc0 Zn2 2.992482 1_555
Sc0 Zn1 2.992671 1_555
Sc0 Zn0 3.003497 1_545
Sc0 Zn0 3.003882 1_555
Sc0 Sc1 3.083408 1_655
Sc0 Sc3 3.095675 1_555
Sc0 Sc1 3.116414 1_545
Sc0 Sc1 3.116683 1_555
Sc1 Zn0 2.910461 1_555
Sc1 Zn1 3.037173 1_455
Sc1 Zn2 3.037301 1_455
Sc1 Zn1 3.060242 1_555
Sc1 Zn2 3.060281 1_565
Sc1 Zn3 3.064540 1_565
Sc1 Zn3 3.064749 1_555
Sc2 Zn0 2.910461 1_554
Sc2 Zn1 3.037173 1_455
Sc2 Zn2 3.037301 1_455
Sc2 Zn1 3.060242 1_555
Sc2 Zn2 3.060281 1_565
Sc2 Zn3 3.064540 1_565
Sc2 Zn3 3.064749 1_555
Sc2 Sc3 3.083408 1_454
Sc2 Sc3 3.116414 1_564
Sc2 Sc3 3.116683 1_554
Sc3 Zn3 2.983052 1_556
Sc3 Zn2 2.992482 1_556
Sc3 Zn1 2.992671 1_556
Sc3 Zn0 3.003497 1_545
Sc3 Zn0 3.003882 1_555
Zn1 Zn3 2.522085 1_555
Zn1 Zn2 2.539114 1_555
Zn1 Zn3 2.588686 1_665
Zn1 Zn2 2.609073 1_565
Zn2 Zn3 2.521891 1_555
Zn2 Zn3 2.588680 1_655
Cu0 Zn0 2.537178 1_445
Cu0 Zn3 2.559464 1_555
Cu0 Cu3 2.559578 1_545
Cu0 Cu2 2.559818 1_555
Cu0 Zn1 2.567533 1_445
Cu0 Zn2 2.567598 1_455
Cu0 Sc0 2.982571 1_555
Cu0 Sc1 2.986256 1_545
Cu0 Sc1 2.986604 1_555
Cu0 Sc1 2.989429 1_445
Cu0 Sc0 3.015333 1_455
Cu0 Sc0 3.015604 1_445
Cu1 Zn0 2.537178 1_445
Cu1 Zn3 2.559464 1_556
Cu1 Cu3 2.559578 1_545
Cu1 Cu2 2.559818 1_555
Cu1 Zn1 2.567533 1_446
Cu1 Zn2 2.567598 1_456
Cu1 Sc3 2.982571 1_555
Cu1 Sc2 2.986256 1_546
Cu1 Sc2 2.986604 1_556
Cu1 Sc2 2.989429 1_446
Cu1 Sc3 3.015333 1_455
Cu1 Sc3 3.015604 1_445
Cu2 Zn0 2.546936 1_555
Cu2 Cu3 2.556152 1_555
Cu2 Zn0 2.563847 1_445
Cu2 Cu3 2.592035 1_545
Cu2 Sc1 2.889208 1_555
Cu2 Sc2 2.889208 1_556
Cu2 Sc3 2.973527 1_555
Cu2 Sc0 2.973527 1_555
Cu2 Sc3 3.001677 1_455
Cu2 Sc0 3.001677 1_455
Cu3 Zn0 2.547121 1_555
Cu3 Zn0 2.563463 1_455
Cu3 Sc1 2.889234 1_555
Cu3 Sc2 2.889234 1_556
Cu3 Sc3 2.973721 1_565
Cu3 Sc0 2.973721 1_565
Cu3 Sc3 3.001647 1_455
Cu3 Sc0 3.001647 1_455
