# generated using pymatgen
data_Hf3Ge
_symmetry_space_group_name_H-M   'P 1'
_cell_length_a   10.91734577
_cell_length_b   10.91734577
_cell_length_c   5.40624908
_cell_angle_alpha   90.00000000
_cell_angle_beta   90.00000000
_cell_angle_gamma   90.00000000
_symmetry_Int_Tables_number   1
_chemical_formula_structural   Hf3Ge
_chemical_formula_sum   'Hf24 Ge8'
_cell_volume   644.36238686
_cell_formula_units_Z   8
loop_
 _symmetry_equiv_pos_site_id
 _symmetry_equiv_pos_as_xyz
  1  'x, y, z'
loop_
 _atom_site_type_symbol
 _atom_site_label
 _atom_site_symmetry_multiplicity
 _atom_site_fract_x
 _atom_site_fract_y
 _atom_site_fract_z
 _atom_site_occupancy
  Hf  Hf0  1  0.71628912  0.81802594  0.50496754  1
  Hf  Hf1  1  0.28371088  0.18197406  0.50496754  1
  Hf  Hf2  1  0.21628912  0.31802594  0.99503246  1
  Hf  Hf3  1  0.78371088  0.68197406  0.99503246  1
  Hf  Hf4  1  0.18197406  0.71628912  0.49503246  1
  Hf  Hf5  1  0.81802594  0.28371088  0.49503246  1
  Hf  Hf6  1  0.68197406  0.21628912  0.00496754  1
  Hf  Hf7  1  0.31802594  0.78371088  0.00496754  1
  Hf  Hf8  1  0.64053603  0.47291380  0.72168635  1
  Hf  Hf9  1  0.35946397  0.52708620  0.72168635  1
  Hf  Hf10  1  0.14053603  0.97291380  0.77831365  1
  Hf  Hf11  1  0.85946397  0.02708620  0.77831365  1
  Hf  Hf12  1  0.52708620  0.64053603  0.27831365  1
  Hf  Hf13  1  0.47291380  0.35946397  0.27831365  1
  Hf  Hf14  1  0.02708620  0.14053603  0.22168635  1
  Hf  Hf15  1  0.97291380  0.85946397  0.22168635  1
  Hf  Hf16  1  0.60680652  0.91749392  0.02603882  1
  Hf  Hf17  1  0.39319348  0.08250608  0.02603882  1
  Hf  Hf18  1  0.10680652  0.41749392  0.47396118  1
  Hf  Hf19  1  0.89319348  0.58250608  0.47396118  1
  Hf  Hf20  1  0.08250608  0.60680652  0.97396118  1
  Hf  Hf21  1  0.91749392  0.39319348  0.97396118  1
  Hf  Hf22  1  0.58250608  0.10680652  0.52603882  1
  Hf  Hf23  1  0.41749392  0.89319348  0.52603882  1
  Ge  Ge0  1  0.70395989  0.45906766  0.21437971  1
  Ge  Ge1  1  0.29604011  0.54093234  0.21437971  1
  Ge  Ge2  1  0.20395989  0.95906766  0.28562029  1
  Ge  Ge3  1  0.79604011  0.04093234  0.28562029  1
  Ge  Ge4  1  0.54093234  0.70395989  0.78562029  1
  Ge  Ge5  1  0.45906766  0.29604011  0.78562029  1
  Ge  Ge6  1  0.04093234  0.20395989  0.71437971  1
  Ge  Ge7  1  0.95906766  0.79604011  0.71437971  1
loop_
_geom_bond_atom_site_label_1
_geom_bond_atom_site_label_2
_geom_bond_distance
_geom_bond_site_symmetry_2
Ge0 Hf5 2.741888 1_555
Ge0 Hf8 2.756299 1_554
Ge0 Hf21 2.764272 1_554
Ge0 Hf13 2.768479 1_555
Ge0 Hf12 2.788039 1_555
Ge0 Hf8 2.832718 1_555
Ge0 Hf19 2.837880 1_555
Ge0 Hf3 2.843667 1_554
Ge0 Hf6 2.892141 1_555
Ge1 Hf4 2.741888 1_555
Ge1 Hf9 2.756299 1_554
Ge1 Hf20 2.764272 1_554
Ge1 Hf12 2.768479 1_555
Ge1 Hf13 2.788039 1_555
Ge1 Hf9 2.832718 1_555
Ge1 Hf18 2.837880 1_555
Ge1 Hf2 2.843667 1_554
Ge1 Hf7 2.892141 1_555
Ge2 Hf7 2.741888 1_555
Ge2 Hf10 2.756299 1_555
Ge2 Hf23 2.764272 1_555
Ge2 Hf15 2.768479 1_455
Ge2 Hf14 2.788039 1_565
Ge2 Hf10 2.832718 1_554
Ge2 Hf17 2.837880 1_565
Ge2 Hf1 2.843667 1_565
Ge2 Hf4 2.892141 1_555
Ge3 Hf6 2.741888 1_555
Ge3 Hf11 2.756299 1_555
Ge3 Hf22 2.764272 1_555
Ge3 Hf14 2.768479 1_655
Ge3 Hf15 2.788039 1_545
Ge3 Hf11 2.832718 1_554
Ge3 Hf16 2.837880 1_545
Ge3 Hf0 2.843667 1_545
Ge3 Hf5 2.892141 1_555
Ge4 Hf0 2.741888 1_555
Ge4 Hf12 2.756299 1_556
Ge4 Hf16 2.764272 1_556
Ge4 Hf8 2.768479 1_555
Ge4 Hf9 2.788039 1_555
Ge4 Hf12 2.832718 1_555
Ge4 Hf23 2.837880 1_555
Ge4 Hf7 2.843667 1_556
Ge4 Hf3 2.892141 1_555
Ge5 Hf1 2.741888 1_555
Ge5 Hf13 2.756299 1_556
Ge5 Hf17 2.764272 1_556
Ge5 Hf9 2.768479 1_555
Ge5 Hf8 2.788039 1_555
Ge5 Hf13 2.832718 1_555
Ge5 Hf22 2.837880 1_555
Ge5 Hf6 2.843667 1_556
Ge5 Hf2 2.892141 1_555
Ge6 Hf2 2.741888 1_555
Ge6 Hf14 2.756299 1_555
Ge6 Hf18 2.764272 1_555
Ge6 Hf10 2.768479 1_545
Ge6 Hf11 2.788039 1_455
Ge6 Hf14 2.832718 1_556
Ge6 Hf21 2.837880 1_455
Ge6 Hf5 2.843667 1_455
Ge6 Hf1 2.892141 1_555
Ge7 Hf3 2.741888 1_555
Ge7 Hf15 2.756299 1_555
Ge7 Hf19 2.764272 1_555
Ge7 Hf11 2.768479 1_565
Ge7 Hf10 2.788039 1_655
Ge7 Hf15 2.832718 1_556
Ge7 Hf20 2.837880 1_655
Ge7 Hf4 2.843667 1_655
Ge7 Hf0 2.892141 1_555
