# generated using pymatgen
data_Ti6Ge2B
_symmetry_space_group_name_H-M   'P 1'
_cell_length_a   6.81480343
_cell_length_b   6.81480343
_cell_length_c   3.35399073
_cell_angle_alpha   90.00000000
_cell_angle_beta   90.00000000
_cell_angle_gamma   120.00000804
_symmetry_Int_Tables_number   1
_chemical_formula_structural   Ti6Ge2B
_chemical_formula_sum   'Ti6 Ge2 B1'
_cell_volume   134.89601519
_cell_formula_units_Z   1
loop_
 _symmetry_equiv_pos_site_id
 _symmetry_equiv_pos_as_xyz
  1  'x, y, z'
loop_
 _atom_site_type_symbol
 _atom_site_label
 _atom_site_symmetry_multiplicity
 _atom_site_fract_x
 _atom_site_fract_y
 _atom_site_fract_z
 _atom_site_occupancy
  Ti  Ti0  1  0.00000000  0.76479110  0.00000000  1
  Ti  Ti1  1  0.23520890  0.23520890  -0.00000000  1
  Ti  Ti2  1  0.76479110  0.00000000  -0.00000000  1
  Ti  Ti3  1  -0.00000000  0.39463513  0.50000000  1
  Ti  Ti4  1  0.60536487  0.60536487  0.50000000  1
  Ti  Ti5  1  0.39463513  -0.00000000  0.50000000  1
  Ge  Ge0  1  0.33333300  0.66666700  0.00000000  1
  Ge  Ge1  1  0.66666700  0.33333300  -0.00000000  1
  B  B0  1  0.00000000  -0.00000000  0.50000000  1
loop_
_geom_bond_atom_site_label_1
_geom_bond_atom_site_label_2
_geom_bond_distance
_geom_bond_site_symmetry_2
Ge0 Ti0 2.669518 1_555
Ge0 Ti2 2.669522 1_565
Ge0 Ti1 2.669525 1_555
Ge0 Ti5 2.682911 1_565
Ge0 Ti5 2.682911 1_564
Ge0 Ti3 2.682913 1_555
Ge0 Ti3 2.682913 1_554
Ge0 Ti4 2.682916 1_555
Ge0 Ti4 2.682916 1_554
Ge1 Ti2 2.669518 1_555
Ge1 Ti0 2.669522 1_655
Ge1 Ti1 2.669525 1_555
Ge1 Ti3 2.682911 1_655
Ge1 Ti3 2.682911 1_654
Ge1 Ti5 2.682913 1_555
Ge1 Ti5 2.682913 1_554
Ge1 Ti4 2.682916 1_555
Ge1 Ti4 2.682916 1_554
B0 Ti1 2.319830 1_555
B0 Ti1 2.319830 1_556
B0 Ti0 2.319830 1_545
B0 Ti2 2.319830 1_455
B0 Ti2 2.319830 1_456
B0 Ti0 2.319830 1_546
B0 Ti4 2.689361 1_445
B0 Ti3 2.689361 1_555
B0 Ti5 2.689361 1_555
