# generated using pymatgen
data_ScFeSi2
_symmetry_space_group_name_H-M   'P 1'
_cell_length_a   7.76931900
_cell_length_b   8.94566600
_cell_length_c   9.74775200
_cell_angle_alpha   90.00000000
_cell_angle_beta   90.00000000
_cell_angle_gamma   90.00000000
_symmetry_Int_Tables_number   1
_chemical_formula_structural   ScFeSi2
_chemical_formula_sum   'Sc12 Fe12 Si24'
_cell_volume   677.48565511
_cell_formula_units_Z   12
loop_
 _symmetry_equiv_pos_site_id
 _symmetry_equiv_pos_as_xyz
  1  'x, y, z'
loop_
 _atom_site_type_symbol
 _atom_site_label
 _atom_site_symmetry_multiplicity
 _atom_site_fract_x
 _atom_site_fract_y
 _atom_site_fract_z
 _atom_site_occupancy
  Sc  Sc0  1  0.74708400  0.82485400  0.04886700  1
  Sc  Sc1  1  0.74708400  0.17514600  0.95113300  1
  Sc  Sc2  1  0.25291600  0.67514600  0.54886700  1
  Sc  Sc3  1  0.25291600  0.32485400  0.45113300  1
  Sc  Sc4  1  0.25291600  0.17514600  0.95113300  1
  Sc  Sc5  1  0.25291600  0.82485400  0.04886700  1
  Sc  Sc6  1  0.74708400  0.32485400  0.45113300  1
  Sc  Sc7  1  0.74708400  0.67514600  0.54886700  1
  Sc  Sc8  1  0.50000000  0.83019700  0.32210200  1
  Sc  Sc9  1  0.50000000  0.16980300  0.67789800  1
  Sc  Sc10  1  0.50000000  0.66980300  0.82210200  1
  Sc  Sc11  1  0.50000000  0.33019700  0.17789800  1
  Fe  Fe0  1  0.74847000  0.58527300  0.25900300  1
  Fe  Fe1  1  0.74847000  0.41472700  0.74099700  1
  Fe  Fe2  1  0.25153000  0.91472700  0.75900300  1
  Fe  Fe3  1  0.25153000  0.08527300  0.24099700  1
  Fe  Fe4  1  0.25153000  0.41472700  0.74099700  1
  Fe  Fe5  1  0.25153000  0.58527300  0.25900300  1
  Fe  Fe6  1  0.74847000  0.08527300  0.24099700  1
  Fe  Fe7  1  0.74847000  0.91472700  0.75900300  1
  Fe  Fe8  1  0.74707800  0.00000000  0.50000000  1
  Fe  Fe9  1  0.25292200  0.50000000  0.00000000  1
  Fe  Fe10  1  0.25292200  0.00000000  0.50000000  1
  Fe  Fe11  1  0.74707800  0.50000000  0.00000000  1
  Si  Si0  1  0.84657500  0.83943400  0.32154900  1
  Si  Si1  1  0.84657500  0.16056600  0.67845100  1
  Si  Si2  1  0.15342500  0.66056600  0.82154900  1
  Si  Si3  1  0.15342500  0.33943400  0.17845100  1
  Si  Si4  1  0.15342500  0.16056600  0.67845100  1
  Si  Si5  1  0.15342500  0.83943400  0.32154900  1
  Si  Si6  1  0.84657500  0.33943400  0.17845100  1
  Si  Si7  1  0.84657500  0.66056600  0.82154900  1
  Si  Si8  1  0.50000000  0.53626400  0.37908600  1
  Si  Si9  1  0.50000000  0.46373600  0.62091400  1
  Si  Si10  1  0.50000000  0.96373600  0.87908600  1
  Si  Si11  1  0.50000000  0.03626400  0.12091400  1
  Si  Si12  1  0.00000000  0.54008100  0.37283200  1
  Si  Si13  1  0.00000000  0.45991900  0.62716800  1
  Si  Si14  1  0.00000000  0.95991900  0.87283200  1
  Si  Si15  1  0.00000000  0.04008100  0.12716800  1
  Si  Si16  1  0.50000000  0.62085000  0.10581000  1
  Si  Si17  1  0.50000000  0.37915000  0.89419000  1
  Si  Si18  1  0.50000000  0.87915000  0.60581000  1
  Si  Si19  1  0.50000000  0.12085000  0.39419000  1
  Si  Si20  1  0.00000000  0.60619200  0.10216500  1
  Si  Si21  1  0.00000000  0.39380800  0.89783500  1
  Si  Si22  1  0.00000000  0.89380800  0.60216500  1
  Si  Si23  1  0.00000000  0.10619200  0.39783500  1
loop_
_geom_bond_atom_site_label_1
_geom_bond_atom_site_label_2
_geom_bond_distance
_geom_bond_site_symmetry_2
Sc0 Si16 2.706233 1_555
Sc0 Si7 2.768999 1_554
Sc0 Si0 2.771221 1_555
Sc0 Si11 2.784784 1_565
Sc0 Si20 2.820873 1_655
Sc0 Si10 2.822704 1_554
Sc0 Si15 2.854943 1_665
Sc0 Si14 2.874977 1_654
Sc1 Si17 2.706233 1_555
Sc1 Si6 2.768999 1_556
Sc1 Si1 2.771221 1_555
Sc1 Si10 2.784784 1_545
Sc1 Si21 2.820873 1_655
Sc1 Si11 2.822704 1_556
Sc1 Si14 2.854943 1_645
Sc1 Si15 2.874977 1_656
Sc2 Si18 2.706233 1_555
Sc2 Si5 2.768999 1_555
Sc2 Si2 2.771221 1_555
Sc2 Si9 2.784784 1_555
Sc2 Si22 2.820873 1_555
Sc2 Si8 2.822704 1_555
Sc2 Si13 2.854943 1_555
Sc2 Si12 2.874977 1_555
Sc3 Si19 2.706233 1_555
Sc3 Si4 2.768999 1_555
Sc3 Si3 2.771221 1_555
Sc3 Si8 2.784784 1_555
Sc3 Si23 2.820873 1_555
Sc3 Si9 2.822704 1_555
Sc3 Si12 2.854943 1_555
Sc3 Si13 2.874977 1_555
Sc4 Si17 2.706233 1_555
Sc4 Si3 2.768999 1_556
Sc4 Si4 2.771221 1_555
Sc4 Si10 2.784784 1_545
Sc4 Si21 2.820873 1_555
Sc4 Si11 2.822704 1_556
Sc4 Si14 2.854943 1_545
Sc4 Si15 2.874977 1_556
Sc5 Si16 2.706233 1_555
Sc5 Si2 2.768999 1_554
Sc5 Si5 2.771221 1_555
Sc5 Si11 2.784784 1_565
Sc5 Si20 2.820873 1_555
Sc5 Si10 2.822704 1_554
Sc5 Si15 2.854943 1_565
Sc5 Si14 2.874977 1_554
Sc6 Si19 2.706233 1_555
Sc6 Si1 2.768999 1_555
Sc6 Si6 2.771221 1_555
Sc6 Si8 2.784784 1_555
Sc6 Si23 2.820873 1_655
Sc6 Si9 2.822704 1_555
Sc6 Si12 2.854943 1_655
Sc6 Si13 2.874977 1_655
Sc7 Si18 2.706233 1_555
Sc7 Si0 2.768999 1_555
Sc7 Si7 2.771221 1_555
Sc7 Si9 2.784784 1_555
Sc7 Si22 2.820873 1_655
Sc7 Si8 2.822704 1_555
Sc7 Si13 2.854943 1_655
Sc7 Si12 2.874977 1_655
Sc8 Si8 2.687457 1_555
Sc8 Si11 2.691502 1_565
Sc8 Si19 2.693366 1_565
Sc8 Si5 2.693925 1_555
Sc8 Si0 2.693925 1_555
Sc8 Si18 2.799972 1_555
Sc8 Si16 2.819995 1_555
Sc9 Si9 2.687457 1_555
Sc9 Si10 2.691502 1_545
Sc9 Si18 2.693366 1_545
Sc9 Si1 2.693925 1_555
Sc9 Si4 2.693925 1_555
Sc9 Si19 2.799972 1_555
Sc9 Si17 2.819995 1_555
Sc10 Si10 2.687457 1_555
Sc10 Si9 2.691502 1_555
Sc10 Si17 2.693366 1_555
Sc10 Si2 2.693925 1_555
Sc10 Si7 2.693925 1_555
Sc10 Si16 2.799972 1_556
Sc10 Si18 2.819995 1_555
Sc11 Si11 2.687457 1_555
Sc11 Si8 2.691502 1_555
Sc11 Si16 2.693366 1_555
Sc11 Si3 2.693925 1_555
Sc11 Si6 2.693925 1_555
Sc11 Si17 2.799972 1_554
Sc11 Si19 2.819995 1_555
Fe0 Si12 2.283322 1_655
Fe0 Si8 2.299779 1_555
Fe0 Si6 2.456411 1_555
Fe0 Si16 2.461261 1_555
Fe0 Si0 2.474290 1_555
Fe0 Si20 2.488226 1_655
Fe0 Fe11 2.637444 1_555
Fe0 Sc7 2.937698 1_555
Fe0 Sc0 2.964663 1_555
Fe0 Sc8 2.984199 1_555
Fe0 Sc6 2.989108 1_555
Fe0 Sc11 3.091661 1_555
Fe1 Si13 2.283322 1_655
Fe1 Si9 2.299779 1_555
Fe1 Si7 2.456411 1_555
Fe1 Si17 2.461261 1_555
Fe1 Si1 2.474290 1_555
Fe1 Si21 2.488226 1_655
Fe1 Fe11 2.637444 1_556
Fe1 Sc6 2.937698 1_555
Fe1 Sc1 2.964663 1_555
Fe1 Sc9 2.984199 1_555
Fe1 Sc7 2.989108 1_555
Fe1 Sc10 3.091661 1_555
Fe2 Si14 2.283322 1_555
Fe2 Si10 2.299779 1_555
Fe2 Si4 2.456411 1_565
Fe2 Si18 2.461261 1_555
Fe2 Si2 2.474290 1_555
Fe2 Si22 2.488226 1_555
Fe2 Sc5 2.937698 1_556
Fe2 Sc2 2.964663 1_555
Fe2 Sc10 2.984199 1_555
Fe2 Sc4 2.989108 1_565
Fe2 Sc9 3.091661 1_565
Fe3 Si15 2.283322 1_555
Fe3 Si11 2.299779 1_555
Fe3 Si5 2.456411 1_545
Fe3 Si19 2.461261 1_555
Fe3 Si3 2.474290 1_555
Fe3 Si23 2.488226 1_555
Fe3 Sc4 2.937698 1_554
Fe3 Sc3 2.964663 1_555
Fe3 Sc11 2.984199 1_555
Fe3 Sc5 2.989108 1_545
Fe3 Sc8 3.091661 1_545
Fe4 Si13 2.283322 1_555
Fe4 Si9 2.299779 1_555
Fe4 Si2 2.456411 1_555
Fe4 Si17 2.461261 1_555
Fe4 Si4 2.474290 1_555
Fe4 Si21 2.488226 1_555
Fe4 Fe9 2.637444 1_556
Fe4 Sc3 2.937698 1_555
Fe4 Sc4 2.964663 1_555
Fe4 Sc9 2.984199 1_555
Fe4 Sc2 2.989108 1_555
Fe4 Sc10 3.091661 1_555
Fe5 Si12 2.283322 1_555
Fe5 Si8 2.299779 1_555
Fe5 Si3 2.456411 1_555
Fe5 Si16 2.461261 1_555
Fe5 Si5 2.474290 1_555
Fe5 Si20 2.488226 1_555
Fe5 Fe9 2.637444 1_555
Fe5 Sc2 2.937698 1_555
Fe5 Sc5 2.964663 1_555
Fe5 Sc8 2.984199 1_555
Fe5 Sc3 2.989108 1_555
Fe5 Sc11 3.091661 1_555
Fe6 Si15 2.283322 1_655
Fe6 Si11 2.299779 1_555
Fe6 Si0 2.456411 1_545
Fe6 Si19 2.461261 1_555
Fe6 Si6 2.474290 1_555
Fe6 Si23 2.488226 1_655
Fe6 Fe8 2.637444 1_555
Fe6 Sc1 2.937698 1_554
Fe6 Sc6 2.964663 1_555
Fe6 Sc11 2.984199 1_555
Fe6 Sc0 2.989108 1_545
Fe6 Sc8 3.091661 1_545
Fe7 Si14 2.283322 1_655
Fe7 Si10 2.299779 1_555
Fe7 Si1 2.456411 1_565
Fe7 Si18 2.461261 1_555
Fe7 Si7 2.474290 1_555
Fe7 Si22 2.488226 1_655
Fe7 Fe8 2.637444 1_565
Fe7 Sc0 2.937698 1_556
Fe7 Sc7 2.964663 1_555
Fe7 Sc10 2.984199 1_555
Fe7 Sc1 2.989108 1_565
Fe7 Sc9 3.091661 1_565
Fe8 Si1 2.384653 1_555
Fe8 Si0 2.384653 1_545
Fe8 Si22 2.399072 1_645
Fe8 Si23 2.399072 1_655
Fe8 Si19 2.432595 1_555
Fe8 Si18 2.432595 1_545
Fe8 Sc6 2.944817 1_555
Fe8 Sc7 2.944817 1_545
Fe8 Sc8 2.999909 1_545
Fe8 Sc9 2.999909 1_555
Fe9 Si2 2.384653 1_554
Fe9 Si3 2.384653 1_555
Fe9 Si21 2.399072 1_554
Fe9 Si20 2.399072 1_555
Fe9 Si17 2.432595 1_554
Fe9 Si16 2.432595 1_555
Fe9 Sc4 2.944817 1_554
Fe9 Sc5 2.944817 1_555
Fe9 Sc11 2.999909 1_555
Fe9 Sc10 2.999909 1_554
Fe10 Si4 2.384653 1_555
Fe10 Si5 2.384653 1_545
Fe10 Si22 2.399072 1_545
Fe10 Si23 2.399072 1_555
Fe10 Si19 2.432595 1_555
Fe10 Si18 2.432595 1_545
Fe10 Fe2 2.637444 1_545
Fe10 Fe3 2.637444 1_555
Fe10 Sc2 2.944817 1_545
Fe10 Sc3 2.944817 1_555
Fe10 Sc9 2.999909 1_555
Fe10 Sc8 2.999909 1_545
Fe11 Si7 2.384653 1_554
Fe11 Si6 2.384653 1_555
Fe11 Si20 2.399072 1_655
Fe11 Si21 2.399072 1_654
Fe11 Si17 2.432595 1_554
Fe11 Si16 2.432595 1_555
Fe11 Sc0 2.944817 1_555
Fe11 Sc1 2.944817 1_554
Fe11 Sc11 2.999909 1_555
Fe11 Sc10 2.999909 1_554
Si0 Si5 2.384016 1_655
Si1 Si4 2.384016 1_655
Si2 Si7 2.384016 1_455
Si3 Si6 2.384016 1_455
Si8 Si9 2.444938 1_555
Si10 Si11 2.444938 1_566
Si12 Si13 2.580831 1_555
Si14 Si15 2.580831 1_566
