# generated using pymatgen
data_Cs2U2O7
_symmetry_space_group_name_H-M   'P 1'
_cell_length_a   4.33216900
_cell_length_b   7.60385031
_cell_length_c   7.75272220
_cell_angle_alpha   111.48475024
_cell_angle_beta   90.00000000
_cell_angle_gamma   73.44910936
_symmetry_Int_Tables_number   1
_chemical_formula_structural   Cs2U2O7
_chemical_formula_sum   'Cs2 U2 O7'
_cell_volume   226.22861689
_cell_formula_units_Z   1
loop_
 _symmetry_equiv_pos_site_id
 _symmetry_equiv_pos_as_xyz
  1  'x, y, z'
loop_
 _atom_site_type_symbol
 _atom_site_label
 _atom_site_symmetry_multiplicity
 _atom_site_fract_x
 _atom_site_fract_y
 _atom_site_fract_z
 _atom_site_occupancy
  Cs  Cs0  1  0.61278400  0.78372000  0.57037400  1
  Cs  Cs1  1  0.39650400  0.21628000  0.42962600  1
  U  U0  1  0.82931200  0.29144000  0.99276400  1
  U  U1  1  0.12075200  0.70856000  0.00723600  1
  O  O0  1  0.79698000  0.38687500  0.25493000  1
  O  O1  1  0.18385500  0.61312500  0.74507000  1
  O  O2  1  0.67149700  0.61632300  0.00406900  1
  O  O3  1  0.28782100  0.38367700  0.99593100  1
  O  O4  1  0.07453500  0.82368800  0.26980100  1
  O  O5  1  0.89822300  0.17631200  0.73019900  1
  O  O6  1  0.88673800  0.00000000  0.00000000  1
loop_
_geom_bond_atom_site_label_1
_geom_bond_atom_site_label_2
_geom_bond_distance
_geom_bond_site_symmetry_2
Cs0 O0 2.990923 1_555
Cs0 O1 3.015970 1_655
Cs0 O1 3.103236 1_555
Cs0 O4 3.223216 1_655
Cs0 O4 3.327868 1_555
Cs0 O5 3.371877 1_565
Cs0 O5 3.472051 1_465
Cs0 O6 3.508094 1_566
Cs1 O1 2.990923 1_555
Cs1 O0 3.015970 1_555
Cs1 O0 3.103236 1_455
Cs1 O5 3.223216 1_555
Cs1 O5 3.327868 1_455
Cs1 O4 3.371877 1_645
Cs1 O4 3.472051 1_545
Cs1 O6 3.508094 1_555
O0 U0 1.881215 1_554
O1 U1 1.881215 1_556
O2 U1 2.246212 1_655
O2 U1 2.284540 1_555
O2 U0 2.336010 1_554
O3 U0 2.246208 1_555
O3 U0 2.284545 1_455
O3 U1 2.336010 1_556
O4 U1 1.882791 1_555
O5 U0 1.882791 1_555
O6 U1 2.180126 1_645
O6 U0 2.180126 1_554
