# generated using pymatgen
data_V8GaGeS16
_symmetry_space_group_name_H-M   'P 1'
_cell_length_a   6.87661800
_cell_length_b   6.87661800
_cell_length_c   9.72173700
_cell_angle_alpha   90.00000000
_cell_angle_beta   90.00000000
_cell_angle_gamma   90.00000000
_symmetry_Int_Tables_number   1
_chemical_formula_structural   V8GaGeS16
_chemical_formula_sum   'V8 Ga1 Ge1 S16'
_cell_volume   459.72028519
_cell_formula_units_Z   1
loop_
 _symmetry_equiv_pos_site_id
 _symmetry_equiv_pos_as_xyz
  1  'x, y, z'
loop_
 _atom_site_type_symbol
 _atom_site_label
 _atom_site_symmetry_multiplicity
 _atom_site_fract_x
 _atom_site_fract_y
 _atom_site_fract_z
 _atom_site_occupancy
  V  V0  1  0.00000000  0.79232700  0.60503900  1
  V  V1  1  0.50000000  0.29001100  0.10482500  1
  V  V2  1  0.79232700  0.00000000  0.39496100  1
  V  V3  1  0.29001100  0.50000000  0.89517500  1
  V  V4  1  0.20767300  0.00000000  0.39496100  1
  V  V5  1  0.70998900  0.50000000  0.89517500  1
  V  V6  1  0.00000000  0.20767300  0.60503900  1
  V  V7  1  0.50000000  0.70998900  0.10482500  1
  Ga  Ga0  1  0.00000000  0.00000000  0.00000000  1
  Ge  Ge0  1  0.50000000  0.50000000  0.50000000  1
  S  S0  1  0.00000000  0.25952200  0.37178800  1
  S  S1  1  0.50000000  0.75870000  0.87085200  1
  S  S2  1  0.25952200  0.00000000  0.62821200  1
  S  S3  1  0.75870000  0.50000000  0.12914800  1
  S  S4  1  0.74047800  0.00000000  0.62821200  1
  S  S5  1  0.24130000  0.50000000  0.12914800  1
  S  S6  1  0.00000000  0.74047800  0.37178800  1
  S  S7  1  0.50000000  0.24130000  0.87085200  1
  S  S8  1  0.00000000  0.27424400  0.86223500  1
  S  S9  1  0.50000000  0.77201800  0.36422400  1
  S  S10  1  0.77201800  0.50000000  0.63577600  1
  S  S11  1  0.27424400  0.00000000  0.13776500  1
  S  S12  1  0.22798200  0.50000000  0.63577600  1
  S  S13  1  0.72575600  0.00000000  0.13776500  1
  S  S14  1  0.00000000  0.72575600  0.86223500  1
  S  S15  1  0.50000000  0.22798200  0.36422400  1
loop_
_geom_bond_atom_site_label_1
_geom_bond_atom_site_label_2
_geom_bond_distance
_geom_bond_site_symmetry_2
Ga0 S11 2.313066 1_555
Ga0 S13 2.313066 1_455
Ga0 S14 2.313066 1_544
Ga0 S8 2.313066 1_554
Ge0 S9 2.289400 1_555
Ge0 S10 2.289400 1_555
Ge0 S15 2.289400 1_555
Ge0 S12 2.289400 1_555
S0 V6 2.295464 1_555
S0 V4 2.296760 1_555
S0 V2 2.296760 1_455
S1 V7 2.299156 1_556
S1 V5 2.303446 1_555
S1 V3 2.303446 1_555
S2 V4 2.295464 1_555
S2 V6 2.296760 1_555
S2 V0 2.296760 1_545
S3 V5 2.299156 1_554
S3 V7 2.303446 1_555
S3 V1 2.303446 1_555
S4 V2 2.295464 1_555
S4 V6 2.296760 1_655
S4 V0 2.296760 1_645
S5 V3 2.299156 1_554
S5 V7 2.303446 1_555
S5 V1 2.303446 1_555
S6 V0 2.295464 1_555
S6 V4 2.296760 1_565
S6 V2 2.296760 1_465
S7 V1 2.299156 1_556
S7 V5 2.303446 1_555
S7 V3 2.303446 1_555
S8 V6 2.541953 1_555
S8 V3 2.547513 1_555
S8 V5 2.547513 1_455
S9 V7 2.557629 1_555
S9 V4 2.566730 1_565
S9 V2 2.566730 1_565
S10 V5 2.557629 1_555
S10 V6 2.566730 1_655
S10 V0 2.566730 1_655
S11 V4 2.541953 1_555
S11 V1 2.547513 1_555
S11 V7 2.547513 1_545
S12 V3 2.557629 1_555
S12 V0 2.566730 1_555
S12 V6 2.566730 1_555
S13 V2 2.541953 1_555
S13 V1 2.547513 1_555
S13 V7 2.547513 1_545
S14 V0 2.541953 1_555
S14 V3 2.547513 1_555
S14 V5 2.547513 1_455
S15 V1 2.557629 1_555
S15 V2 2.566730 1_555
S15 V4 2.566730 1_555
