# generated using pymatgen
data_SrDy2Fe2O7
_symmetry_space_group_name_H-M   'P 1'
_cell_length_a   10.43824883
_cell_length_b   10.43824883
_cell_length_c   10.43824883
_cell_angle_alpha   159.03139251
_cell_angle_beta   159.03139251
_cell_angle_gamma   29.82445287
_symmetry_Int_Tables_number   1
_chemical_formula_structural   SrDy2Fe2O7
_chemical_formula_sum   'Sr1 Dy2 Fe2 O7'
_cell_volume   145.56121241
_cell_formula_units_Z   1
loop_
 _symmetry_equiv_pos_site_id
 _symmetry_equiv_pos_as_xyz
  1  'x, y, z'
loop_
 _atom_site_type_symbol
 _atom_site_label
 _atom_site_symmetry_multiplicity
 _atom_site_fract_x
 _atom_site_fract_y
 _atom_site_fract_z
 _atom_site_occupancy
  Sr  Sr0  1  0.68820500  0.68820500  0.00000000  1
  Dy  Dy0  1  0.32167800  0.32167800  0.00000000  1
  Dy  Dy1  1  0.50936400  0.50936400  0.00000000  1
  Fe  Fe0  1  0.90127700  0.90127700  0.00000000  1
  Fe  Fe1  1  0.10072300  0.10072300  0.00000000  1
  O  O0  1  0.80344300  0.80344300  0.00000000  1
  O  O1  1  0.20698700  0.20698700  0.00000000  1
  O  O2  1  0.89699200  0.39699200  0.50000000  1
  O  O3  1  0.39699200  0.89699200  0.50000000  1
  O  O4  1  0.08867700  0.58867700  0.50000000  1
  O  O5  1  0.58867700  0.08867700  0.50000000  1
  O  O6  1  0.99698500  0.99698500  0.00000000  1
loop_
_geom_bond_atom_site_label_1
_geom_bond_atom_site_label_2
_geom_bond_distance
_geom_bond_site_symmetry_2
Dy0 O1 2.313708 1_555
Dy0 O2 2.432312 1_555
Dy0 O2 2.432312 1_454
Dy0 O3 2.432312 1_555
Dy0 O3 2.432312 1_544
Dy0 O0 2.711240 1_556
Dy0 O0 2.711240 1_444
Dy0 O0 2.711240 1_545
Dy0 O0 2.711240 1_455
Dy1 O5 2.483504 1_554
Dy1 O4 2.483504 1_554
Dy1 O5 2.483504 1_565
Dy1 O4 2.483504 1_655
Dy1 O6 2.697752 1_545
Dy1 O6 2.697752 1_455
Dy1 O6 2.697752 1_556
Dy1 O6 2.697752 1_444
Dy1 O3 2.957482 1_544
Dy1 O2 2.957482 1_555
Dy1 O2 2.957482 1_454
Dy1 O3 2.957482 1_555
Fe0 O3 1.901374 1_655
Fe0 O2 1.901374 1_554
Fe0 O2 1.901374 1_565
Fe0 O3 1.901374 1_554
Fe0 O6 1.930756 1_555
Fe0 O0 1.973645 1_555
Fe1 O4 1.914890 1_555
Fe1 O5 1.914890 1_454
Fe1 O4 1.914890 1_544
Fe1 O5 1.914890 1_555
Fe1 O6 2.092748 1_445
Fe1 O1 2.143706 1_555
O0 Sr0 2.324742 1_555
O1 Sr0 2.712760 1_455
O1 Sr0 2.712760 1_556
O1 Sr0 2.712760 1_444
O1 Sr0 2.712760 1_545
O4 Sr0 2.763890 1_556
O4 Sr0 2.763890 1_455
O5 Sr0 2.763890 1_556
O5 Sr0 2.763890 1_545
