# generated using pymatgen
data_TlSbAs2PbS6
_symmetry_space_group_name_H-M   'P 1'
_cell_length_a   24.68092500
_cell_length_b   6.07682000
_cell_length_c   8.53919451
_cell_angle_alpha   66.30804744
_cell_angle_beta   90.00000000
_cell_angle_gamma   90.00000000
_symmetry_Int_Tables_number   1
_chemical_formula_structural   TlSbAs2PbS6
_chemical_formula_sum   'Tl4 Sb4 As8 Pb4 S24'
_cell_volume   1172.78109148
_cell_formula_units_Z   4
loop_
 _symmetry_equiv_pos_site_id
 _symmetry_equiv_pos_as_xyz
  1  'x, y, z'
loop_
 _atom_site_type_symbol
 _atom_site_label
 _atom_site_symmetry_multiplicity
 _atom_site_fract_x
 _atom_site_fract_y
 _atom_site_fract_z
 _atom_site_occupancy
  Tl  Tl0  1  0.93795600  0.76508400  0.09825000  1
  Tl  Tl1  1  0.06204400  0.23491600  0.90175000  1
  Tl  Tl2  1  0.43795600  0.23491600  0.40175000  1
  Tl  Tl3  1  0.56204400  0.76508400  0.59825000  1
  Sb  Sb0  1  0.57082100  0.95270600  0.03748000  1
  Sb  Sb1  1  0.42917900  0.04729400  0.96252000  1
  Sb  Sb2  1  0.07082100  0.04729400  0.46252000  1
  Sb  Sb3  1  0.92917900  0.95270600  0.53748000  1
  As  As0  1  0.65355100  0.34164200  0.18886500  1
  As  As1  1  0.34644900  0.65835800  0.81113500  1
  As  As2  1  0.15355100  0.65835800  0.31113500  1
  As  As3  1  0.84644900  0.34164200  0.68886500  1
  As  As4  1  0.83473000  0.34514500  0.09550400  1
  As  As5  1  0.16527000  0.65485500  0.90449600  1
  As  As6  1  0.33473000  0.65485500  0.40449600  1
  As  As7  1  0.66527000  0.34514500  0.59550400  1
  Pb  Pb0  1  0.74569500  0.86402200  0.05658100  1
  Pb  Pb1  1  0.25430500  0.13597800  0.94341900  1
  Pb  Pb2  1  0.24569500  0.13597800  0.44341900  1
  Pb  Pb3  1  0.75430500  0.86402200  0.55658100  1
  S  S0  1  0.48774800  0.88400300  0.22750000  1
  S  S1  1  0.51225200  0.11599700  0.77250000  1
  S  S2  1  0.98774800  0.11599700  0.27250000  1
  S  S3  1  0.01225200  0.88400300  0.72750000  1
  S  S4  1  0.66423900  0.93920300  0.28857400  1
  S  S5  1  0.33576100  0.06079700  0.71142600  1
  S  S6  1  0.16423900  0.06079700  0.21142600  1
  S  S7  1  0.83576100  0.93920300  0.78857400  1
  S  S8  1  0.83540200  0.95065900  0.27224700  1
  S  S9  1  0.16459800  0.04934100  0.72775300  1
  S  S10  1  0.33540200  0.04934100  0.22775300  1
  S  S11  1  0.66459800  0.95065900  0.77224700  1
  S  S12  1  0.74121200  0.36724200  0.43965000  1
  S  S13  1  0.25878800  0.63275800  0.56035000  1
  S  S14  1  0.24121200  0.63275800  0.06035000  1
  S  S15  1  0.75878800  0.36724200  0.93965000  1
  S  S16  1  0.41471900  0.62135800  0.00729700  1
  S  S17  1  0.58528100  0.37864200  0.99270300  1
  S  S18  1  0.91471900  0.37864200  0.49270300  1
  S  S19  1  0.08528100  0.62135800  0.50729700  1
  S  S20  1  0.59647400  0.35020700  0.40284700  1
  S  S21  1  0.40352600  0.64979300  0.59715300  1
  S  S22  1  0.09647400  0.64979300  0.09715300  1
  S  S23  1  0.90352600  0.35020700  0.90284700  1
loop_
_geom_bond_atom_site_label_1
_geom_bond_atom_site_label_2
_geom_bond_distance
_geom_bond_site_symmetry_2
As0 S4 2.258734 1_545
As0 S17 2.322249 1_554
As0 S20 2.324305 1_555
As1 S5 2.258734 1_565
As1 S16 2.322249 1_556
As1 S21 2.324305 1_555
As2 S6 2.258734 1_565
As2 S19 2.322249 1_555
As2 S22 2.324305 1_555
As3 S7 2.258734 1_545
As3 S18 2.322249 1_555
As3 S23 2.324305 1_555
As4 S8 2.262123 1_545
As4 S15 2.271276 1_554
As4 S23 2.355797 1_554
As5 S9 2.262123 1_565
As5 S14 2.271276 1_556
As5 S22 2.355797 1_556
As6 S10 2.262123 1_565
As6 S13 2.271276 1_555
As6 S21 2.355797 1_555
As7 S11 2.262123 1_545
As7 S12 2.271276 1_555
As7 S20 2.355797 1_555
Pb0 S15 2.828221 1_564
Pb0 S4 2.983672 1_555
Pb0 S11 3.025096 1_554
Pb0 S8 3.057765 1_555
Pb0 S7 3.089876 1_554
Pb1 S14 2.828221 1_546
Pb1 S5 2.983672 1_555
Pb1 S10 3.025096 1_556
Pb1 S9 3.057765 1_555
Pb1 S6 3.089876 1_556
Pb2 S13 2.828221 1_545
Pb2 S6 2.983672 1_555
Pb2 S9 3.025096 1_555
Pb2 S10 3.057765 1_555
Pb2 S5 3.089876 1_555
Pb3 S12 2.828221 1_565
Pb3 S7 2.983672 1_555
Pb3 S8 3.025096 1_555
Pb3 S11 3.057765 1_555
Pb3 S4 3.089876 1_555
S0 Sb1 2.527788 1_564
S0 Sb0 2.542948 1_555
S1 Sb0 2.527788 1_546
S1 Sb1 2.542948 1_555
S2 Sb3 2.527788 1_545
S2 Sb2 2.542948 1_655
S3 Sb2 2.527788 1_565
S3 Sb3 2.542948 1_455
S4 Sb0 3.127086 1_555
S5 Sb1 3.127086 1_555
S6 Sb2 3.127086 1_555
S7 Sb3 3.127086 1_555
S16 Sb1 2.485500 1_564
S17 Sb0 2.485500 1_546
S18 Sb3 2.485500 1_545
S19 Sb2 2.485500 1_565
