# generated using pymatgen
data_SrGd3
_symmetry_space_group_name_H-M   'P 1'
_cell_length_a   6.46403205
_cell_length_b   6.46403205
_cell_length_c   6.46403205
_cell_angle_alpha   132.18059361
_cell_angle_beta   132.18059361
_cell_angle_gamma   69.94394805
_symmetry_Int_Tables_number   1
_chemical_formula_structural   SrGd3
_chemical_formula_sum   'Sr1 Gd3'
_cell_volume   145.42169527
_cell_formula_units_Z   1
loop_
 _symmetry_equiv_pos_site_id
 _symmetry_equiv_pos_as_xyz
  1  'x, y, z'
loop_
 _atom_site_type_symbol
 _atom_site_label
 _atom_site_symmetry_multiplicity
 _atom_site_fract_x
 _atom_site_fract_y
 _atom_site_fract_z
 _atom_site_occupancy
  Sr  Sr0  1  0.00000000  0.00000000  0.00000000  1
  Gd  Gd0  1  0.75000000  0.25000000  0.50000000  1
  Gd  Gd1  1  0.25000000  0.75000000  0.50000000  1
  Gd  Gd2  1  0.50000000  0.50000000  0.00000000  1
loop_
_geom_bond_atom_site_label_1
_geom_bond_atom_site_label_2
_geom_bond_distance
_geom_bond_site_symmetry_2
Gd0 Gd1 3.705026 1_656
Gd0 Gd1 3.705026 1_645
Gd0 Gd1 3.705026 1_555
Gd0 Gd1 3.705026 1_544
Gd0 Gd2 3.725283 1_656
Gd0 Sr0 3.725283 1_555
Gd0 Sr0 3.725283 1_656
Gd0 Gd2 3.725283 1_545
Gd0 Sr0 3.725283 1_666
Gd0 Sr0 3.725283 1_655
Gd0 Gd2 3.725283 1_556
Gd0 Gd2 3.725283 1_555
Gd1 Gd2 3.725283 1_455
Gd1 Sr0 3.725283 1_666
Gd1 Gd2 3.725283 1_566
Gd1 Sr0 3.725283 1_566
Gd1 Sr0 3.725283 1_565
Gd1 Gd2 3.725283 1_556
Gd1 Gd2 3.725283 1_555
Gd1 Sr0 3.725283 1_555
Gd2 Sr0 3.705026 1_565
Gd2 Sr0 3.705026 1_666
Gd2 Sr0 3.705026 1_655
Gd2 Sr0 3.705026 1_554
