# generated using pymatgen
data_MgH20Br4(NO)4
_symmetry_space_group_name_H-M   'P 1'
_cell_length_a   7.12466648
_cell_length_b   7.57468202
_cell_length_c   8.57176225
_cell_angle_alpha   85.52201156
_cell_angle_beta   115.92176755
_cell_angle_gamma   97.77234133
_symmetry_Int_Tables_number   1
_chemical_formula_structural   MgH20Br4(NO)4
_chemical_formula_sum   'Mg1 H20 Br4 N4 O4'
_cell_volume   412.13687170
_cell_formula_units_Z   1
loop_
 _symmetry_equiv_pos_site_id
 _symmetry_equiv_pos_as_xyz
  1  'x, y, z'
loop_
 _atom_site_type_symbol
 _atom_site_label
 _atom_site_symmetry_multiplicity
 _atom_site_fract_x
 _atom_site_fract_y
 _atom_site_fract_z
 _atom_site_occupancy
  Mg  Mg0  1  0.55959821  0.05996413  0.53210086  1
  H  H0  1  0.21775784  0.12928219  0.55108057  1
  H  H1  1  0.67838949  0.39941237  0.06004414  1
  H  H2  1  0.72458381  0.84703683  0.40222860  1
  H  H3  1  0.31640351  0.60780325  0.94892083  1
  H  H4  1  0.17618320  0.92557228  0.46578722  1
  H  H5  1  0.66832135  0.62159583  0.99010314  1
  H  H6  1  0.90837896  0.00057863  0.52282438  1
  H  H7  1  0.32874116  0.38370660  0.01739704  1
  H  H8  1  0.29169005  0.95057450  0.67923623  1
  H  H9  1  0.63700735  0.55659759  0.17943077  1
  H  H10  1  0.74722149  0.05230429  0.32226336  1
  H  H11  1  0.34806789  0.45198536  0.82095996  1
  H  H12  1  0.27699623  0.89094361  0.01268112  1
  H  H13  1  0.67687252  0.52721431  0.44615486  1
  H  H14  1  0.74434432  0.11157752  0.00738913  1
  H  H15  1  0.26069688  0.48021953  0.54136693  1
  H  H16  1  0.07002266  0.79769734  0.87930120  1
  H  H17  1  0.46204818  0.60676438  0.33031816  1
  H  H18  1  0.93968993  0.22412945  0.13681665  1
  H  H19  1  0.47613852  0.40147714  0.65515667  1
  Br  Br0  1  0.13518760  0.63298565  0.30068693  1
  Br  Br1  1  0.72861606  0.85103231  0.82321601  1
  Br  Br2  1  0.79362863  0.34640058  0.68061003  1
  Br  Br3  1  0.30152061  0.15521011  0.19434747  1
  N  N0  1  0.38288070  0.48798345  0.95296377  1
  N  N1  1  0.75613397  0.98073354  0.43181391  1
  N  N2  1  0.60933184  0.51841967  0.05172980  1
  N  N3  1  0.27701685  0.01016007  0.56335407  1
  O  O0  1  0.22350567  0.80893512  0.91478991  1
  O  O1  1  0.60965929  0.60820079  0.34513727  1
  O  O2  1  0.78653297  0.20029529  0.09844048  1
  O  O3  1  0.33183228  0.40098430  0.64525452  1
loop_
_geom_bond_atom_site_label_1
_geom_bond_atom_site_label_2
_geom_bond_distance
_geom_bond_site_symmetry_2
Mg0 N1 2.102402 1_545
Mg0 N3 2.125510 1_555
H0 N3 1.026095 1_555
H1 N2 1.067252 1_555
H2 N1 1.033980 1_555
H3 N0 1.070636 1_555
H4 N3 1.029541 1_565
H5 N2 1.052266 1_556
H6 N1 1.020853 1_545
H7 N0 1.055198 1_554
H8 N3 1.026294 1_565
H9 N2 1.079819 1_555
H9 O1 1.599231 1_555
H10 N1 1.028307 1_545
H11 N0 1.095762 1_555
H11 O3 1.535392 1_555
H12 O0 0.986399 1_554
H13 O1 0.994685 1_555
H14 O2 0.986530 1_555
H15 O3 1.007126 1_555
H16 O0 0.991764 1_555
H17 O1 1.001304 1_555
H18 O2 0.986746 1_555
H19 O3 0.993475 1_555
Br0 H15 2.165412 1_555
Br0 H17 2.264341 1_555
Br1 Mg0 2.730053 1_565
Br2 H13 2.241297 1_555
Br2 H19 2.268896 1_555
Br2 Mg0 2.589438 1_555
Br3 H7 2.256171 1_555
Br3 Mg0 2.767984 1_555
