# generated using pymatgen
data_CaMg(B3O11)2
_symmetry_space_group_name_H-M   'P 1'
_cell_length_a   6.83937796
_cell_length_b   6.83937796
_cell_length_c   18.17513311
_cell_angle_alpha   87.19257782
_cell_angle_beta   87.19257782
_cell_angle_gamma   69.41056032
_symmetry_Int_Tables_number   1
_chemical_formula_structural   CaMg(B3O11)2
_chemical_formula_sum   'Ca2 Mg2 B12 O44'
_cell_volume   794.46029660
_cell_formula_units_Z   2
loop_
 _symmetry_equiv_pos_site_id
 _symmetry_equiv_pos_as_xyz
  1  'x, y, z'
loop_
 _atom_site_type_symbol
 _atom_site_label
 _atom_site_symmetry_multiplicity
 _atom_site_fract_x
 _atom_site_fract_y
 _atom_site_fract_z
 _atom_site_occupancy
  Ca  Ca0  1  0.76280000  0.23720000  0.75000000  1
  Ca  Ca1  1  0.23720000  0.76280000  0.25000000  1
  Mg  Mg0  1  0.00000000  0.00000000  0.00000000  1
  Mg  Mg1  1  0.00000000  0.00000000  0.50000000  1
  B  B0  1  0.95514300  0.81655900  0.84637100  1
  B  B1  1  0.04485700  0.18344100  0.15362900  1
  B  B2  1  0.18344100  0.04485700  0.65362900  1
  B  B3  1  0.81655900  0.95514300  0.34637100  1
  B  B4  1  0.32156800  0.57820500  0.84107000  1
  B  B5  1  0.67843200  0.42179500  0.15893000  1
  B  B6  1  0.42179500  0.67843200  0.65893000  1
  B  B7  1  0.57820500  0.32156800  0.34107000  1
  B  B8  1  0.03839600  0.74160300  0.64395300  1
  B  B9  1  0.96160400  0.25839700  0.35604700  1
  B  B10  1  0.25839700  0.96160400  0.85604700  1
  B  B11  1  0.74160300  0.03839600  0.14395300  1
  O  O0  1  0.30413300  0.42617300  0.00265000  1
  O  O1  1  0.69586700  0.57382700  0.99735000  1
  O  O2  1  0.57382700  0.69586700  0.49735000  1
  O  O3  1  0.42617300  0.30413300  0.50265000  1
  O  O4  1  0.95699100  0.79117600  0.57333300  1
  O  O5  1  0.04300900  0.20882400  0.42666700  1
  O  O6  1  0.20882400  0.04300900  0.92666700  1
  O  O7  1  0.79117600  0.95699100  0.07333300  1
  O  O8  1  0.11198400  0.61038700  0.84103400  1
  O  O9  1  0.88801600  0.38961300  0.15896600  1
  O  O10  1  0.38961300  0.88801600  0.65896600  1
  O  O11  1  0.61038700  0.11198400  0.34103400  1
  O  O12  1  0.00169100  0.96160600  0.67118400  1
  O  O13  1  0.99830900  0.03839400  0.32881600  1
  O  O14  1  0.03839400  0.99830900  0.82881600  1
  O  O15  1  0.96160600  0.00169100  0.17118400  1
  O  O16  1  0.12761900  0.20358300  0.70846100  1
  O  O17  1  0.87238100  0.79641700  0.29153900  1
  O  O18  1  0.79641700  0.87238100  0.79153900  1
  O  O19  1  0.20358300  0.12761900  0.20846100  1
  O  O20  1  0.75708100  0.42552800  0.95157100  1
  O  O21  1  0.24291900  0.57447200  0.04842900  1
  O  O22  1  0.57447200  0.24291900  0.54842900  1
  O  O23  1  0.42552800  0.75708100  0.45157100  1
  O  O24  1  0.92432000  0.64722100  0.69585800  1
  O  O25  1  0.07568000  0.35277900  0.30414200  1
  O  O26  1  0.35277900  0.07568000  0.80414200  1
  O  O27  1  0.64722100  0.92432000  0.19585800  1
  O  O28  1  0.87655100  0.88695300  0.42026000  1
  O  O29  1  0.12344900  0.11304700  0.57974000  1
  O  O30  1  0.11304700  0.12344900  0.07974000  1
  O  O31  1  0.88695300  0.87655100  0.92026000  1
  O  O32  1  0.60750300  0.52834500  0.67481800  1
  O  O33  1  0.39249700  0.47165500  0.32518200  1
  O  O34  1  0.47165500  0.39249700  0.82518200  1
  O  O35  1  0.52834500  0.60750300  0.17481800  1
  O  O36  1  0.25922200  0.61054100  0.64284400  1
  O  O37  1  0.74077800  0.38945900  0.35715600  1
  O  O38  1  0.38945900  0.74077800  0.85715600  1
  O  O39  1  0.61054100  0.25922200  0.14284400  1
  O  O40  1  0.79200400  0.47209300  0.88373000  1
  O  O41  1  0.20799600  0.52790700  0.11627000  1
  O  O42  1  0.52790700  0.20799600  0.61627000  1
  O  O43  1  0.47209300  0.79200400  0.38373000  1
loop_
_geom_bond_atom_site_label_1
_geom_bond_atom_site_label_2
_geom_bond_distance
_geom_bond_site_symmetry_2
Ca0 O34 2.312675 1_555
Ca0 O32 2.312675 1_555
Ca0 O12 2.478618 1_645
Ca0 O14 2.478618 1_645
Ca0 O16 2.505501 1_655
Ca0 O18 2.505501 1_545
Ca0 O40 3.030541 1_555
Ca0 O42 3.030541 1_555
Ca1 O33 2.312675 1_555
Ca1 O35 2.312675 1_555
Ca1 O13 2.478618 1_465
Ca1 O15 2.478618 1_465
Ca1 O19 2.505501 1_565
Ca1 O17 2.505501 1_455
Ca1 O43 3.030541 1_555
Ca1 O41 3.030541 1_555
Mg0 O7 1.993344 1_445
Mg0 O6 1.993344 1_554
Mg0 O30 2.024811 1_555
Mg0 O31 2.024811 1_444
Mg1 O4 1.993344 1_445
Mg1 O5 1.993344 1_555
Mg1 O29 2.024811 1_555
Mg1 O28 2.024811 1_445
B0 O31 1.430870 1_555
B0 O8 1.444913 1_655
B0 O18 1.447284 1_555
B0 O14 1.553175 1_655
B1 O30 1.430870 1_555
B1 O9 1.444913 1_455
B1 O19 1.447284 1_555
B1 O15 1.553175 1_455
B2 O29 1.430870 1_555
B2 O10 1.444913 1_545
B2 O16 1.447284 1_555
B2 O12 1.553175 1_545
B3 O28 1.430870 1_555
B3 O11 1.444913 1_565
B3 O17 1.447284 1_555
B3 O13 1.553175 1_565
B4 O34 1.356541 1_555
B4 O8 1.371613 1_555
B4 O38 1.394872 1_555
B5 O35 1.356541 1_555
B5 O9 1.371613 1_555
B5 O39 1.394872 1_555
B6 O32 1.356541 1_555
B6 O10 1.371613 1_555
B6 O36 1.394872 1_555
B7 O33 1.356541 1_555
B7 O11 1.371613 1_555
B7 O37 1.394872 1_555
B8 O4 1.402492 1_455
B8 O36 1.459982 1_555
B8 O24 1.462140 1_455
B8 O12 1.538555 1_555
B9 O5 1.402492 1_655
B9 O37 1.459982 1_555
B9 O25 1.462140 1_655
B9 O13 1.538555 1_555
B10 O6 1.402492 1_565
B10 O38 1.459982 1_555
B10 O26 1.462140 1_565
B10 O14 1.538555 1_555
B11 O7 1.402492 1_545
B11 O39 1.459982 1_555
B11 O27 1.462140 1_545
B11 O15 1.538555 1_555
O0 O21 1.283043 1_555
O1 O20 1.283043 1_555
O2 O23 1.283043 1_555
O20 O40 1.290348 1_555
O21 O41 1.290348 1_555
O22 O3 1.283043 1_555
O22 O42 1.290348 1_555
O23 O43 1.290348 1_555
