# generated using pymatgen
data_Li3Al(CoO3)2
_symmetry_space_group_name_H-M   'P 1'
_cell_length_a   2.90605076
_cell_length_b   2.90605076
_cell_length_c   14.46545300
_cell_angle_alpha   90.00000000
_cell_angle_beta   90.00000000
_cell_angle_gamma   120.00001726
_symmetry_Int_Tables_number   1
_chemical_formula_structural   Li3Al(CoO3)2
_chemical_formula_sum   'Li3 Al1 Co2 O6'
_cell_volume   105.79593616
_cell_formula_units_Z   1
loop_
 _symmetry_equiv_pos_site_id
 _symmetry_equiv_pos_as_xyz
  1  'x, y, z'
loop_
 _atom_site_type_symbol
 _atom_site_label
 _atom_site_symmetry_multiplicity
 _atom_site_fract_x
 _atom_site_fract_y
 _atom_site_fract_z
 _atom_site_occupancy
  Li  Li0  1  0.00000000  0.00000000  0.50000000  1
  Li  Li1  1  0.66666700  0.33333300  0.83315200  1
  Li  Li2  1  0.33333300  0.66666700  0.16684800  1
  Al  Al0  1  0.00000000  0.00000000  0.00000000  1
  Co  Co0  1  0.66666700  0.33333300  0.33346400  1
  Co  Co1  1  0.33333300  0.66666700  0.66653600  1
  O  O0  1  0.66666700  0.33333300  0.58935400  1
  O  O1  1  0.33333300  0.66666700  0.93010500  1
  O  O2  1  0.00000000  0.00000000  0.25616600  1
  O  O3  1  0.00000000  0.00000000  0.74383400  1
  O  O4  1  0.66666700  0.33333300  0.06989500  1
  O  O5  1  0.33333300  0.66666700  0.41064600  1
loop_
_geom_bond_atom_site_label_1
_geom_bond_atom_site_label_2
_geom_bond_distance
_geom_bond_site_symmetry_2
Li0 O0 2.117950 1_455
Li0 O5 2.117950 1_545
Li0 O0 2.117952 1_555
Li0 O0 2.117952 1_445
Li0 O5 2.117952 1_445
Li0 O5 2.117952 1_555
Li1 O3 2.117633 1_655
Li1 O3 2.117634 1_665
Li1 O3 2.117634 1_555
Li1 O1 2.186769 1_545
Li1 O1 2.186769 1_655
Li1 O1 2.186773 1_555
Li2 O2 2.117633 1_565
Li2 O2 2.117634 1_665
Li2 O2 2.117634 1_555
Li2 O4 2.186769 1_565
Li2 O4 2.186769 1_455
Li2 O4 2.186773 1_555
Al0 O4 1.958899 1_455
Al0 O1 1.958899 1_544
Al0 O4 1.958901 1_555
Al0 O4 1.958901 1_445
Al0 O1 1.958901 1_444
Al0 O1 1.958901 1_554
Co0 O5 2.015328 1_545
Co0 O5 2.015328 1_655
Co0 O5 2.015333 1_555
Co0 O2 2.016259 1_655
Co0 O2 2.016260 1_555
Co0 O2 2.016260 1_665
Co1 O0 2.015328 1_565
Co1 O0 2.015328 1_455
Co1 O0 2.015333 1_555
Co1 O3 2.016259 1_565
Co1 O3 2.016260 1_555
Co1 O3 2.016260 1_665
