# generated using pymatgen
data_MgAl2SiHO7
_symmetry_space_group_name_H-M   'P 1'
_cell_length_a   5.53196208
_cell_length_b   5.53196208
_cell_length_c   17.99236543
_cell_angle_alpha   80.15271934
_cell_angle_beta   80.15271934
_cell_angle_gamma   60.10897995
_symmetry_Int_Tables_number   1
_chemical_formula_structural   MgAl2SiHO7
_chemical_formula_sum   'Mg4 Al8 Si4 H4 O28'
_cell_volume   467.95656342
_cell_formula_units_Z   4
loop_
 _symmetry_equiv_pos_site_id
 _symmetry_equiv_pos_as_xyz
  1  'x, y, z'
loop_
 _atom_site_type_symbol
 _atom_site_label
 _atom_site_symmetry_multiplicity
 _atom_site_fract_x
 _atom_site_fract_y
 _atom_site_fract_z
 _atom_site_occupancy
  Mg  Mg0  1  0.67238700  0.16712200  0.00046900  1
  Mg  Mg1  1  0.32761300  0.83287800  0.99953100  1
  Mg  Mg2  1  0.83287800  0.32761300  0.49953100  1
  Mg  Mg3  1  0.16712200  0.67238700  0.50046900  1
  Al  Al0  1  0.90234100  0.09765900  0.75000000  1
  Al  Al1  1  0.09765900  0.90234100  0.25000000  1
  Al  Al2  1  0.40325000  0.09701600  0.75046000  1
  Al  Al3  1  0.59675000  0.90298400  0.24954000  1
  Al  Al4  1  0.90298400  0.59675000  0.74954000  1
  Al  Al5  1  0.09701600  0.40325000  0.25046000  1
  Al  Al6  1  0.50000000  0.00000000  0.50000000  1
  Al  Al7  1  0.00000000  0.50000000  0.00000000  1
  Si  Si0  1  0.43841000  0.63300000  0.65628900  1
  Si  Si1  1  0.56159000  0.36700000  0.34371100  1
  Si  Si2  1  0.36700000  0.56159000  0.84371100  1
  Si  Si3  1  0.63300000  0.43841000  0.15628900  1
  H  H0  1  0.76538600  0.96479900  0.61069000  1
  H  H1  1  0.23461400  0.03520100  0.38931000  1
  H  H2  1  0.03520100  0.23461400  0.88931000  1
  H  H3  1  0.96479900  0.76538600  0.11069000  1
  O  O0  1  0.54156300  0.73626900  0.81311600  1
  O  O1  1  0.45843700  0.26373100  0.18688400  1
  O  O2  1  0.26373100  0.45843700  0.68688400  1
  O  O3  1  0.73626900  0.54156300  0.31311600  1
  O  O4  1  0.70574000  0.82460400  0.95427100  1
  O  O5  1  0.29426000  0.17539600  0.04572900  1
  O  O6  1  0.17539600  0.29426000  0.54572900  1
  O  O7  1  0.82460400  0.70574000  0.45427100  1
  O  O8  1  0.47084100  0.67180300  0.56229700  1
  O  O9  1  0.52915900  0.32819700  0.43770300  1
  O  O10  1  0.32819700  0.52915900  0.93770300  1
  O  O11  1  0.67180300  0.47084100  0.06229700  1
  O  O12  1  0.54235800  0.24763100  0.81258800  1
  O  O13  1  0.45764200  0.75236900  0.18741200  1
  O  O14  1  0.75236900  0.45764200  0.68741200  1
  O  O15  1  0.24763100  0.54235800  0.31258800  1
  O  O16  1  0.26406600  0.94658400  0.68792000  1
  O  O17  1  0.73593400  0.05341600  0.31208000  1
  O  O18  1  0.05341600  0.73593400  0.81208000  1
  O  O19  1  0.94658400  0.26406600  0.18792000  1
  O  O20  1  0.75389900  0.94857100  0.70063000  1
  O  O21  1  0.24610100  0.05142900  0.29937000  1
  O  O22  1  0.05142900  0.24610100  0.79937000  1
  O  O23  1  0.94857100  0.75389900  0.20063000  1
  O  O24  1  0.78069700  0.98652100  0.55332100  1
  O  O25  1  0.21930300  0.01347900  0.44667900  1
  O  O26  1  0.01347900  0.21930300  0.94667900  1
  O  O27  1  0.98652100  0.78069700  0.05332100  1
loop_
_geom_bond_atom_site_label_1
_geom_bond_atom_site_label_2
_geom_bond_distance
_geom_bond_site_symmetry_2
Mg0 O5 2.091763 1_555
Mg0 O26 2.098356 1_654
Mg0 O4 2.110216 1_544
Mg0 O27 2.158981 1_545
Mg0 O11 2.166362 1_555
Mg0 O10 2.252309 1_554
Mg1 O4 2.091763 1_555
Mg1 O27 2.098356 1_456
Mg1 O5 2.110216 1_566
Mg1 O26 2.158981 1_565
Mg1 O10 2.166362 1_555
Mg1 O11 2.252309 1_556
Mg2 O7 2.091763 1_555
Mg2 O24 2.098356 1_545
Mg2 O6 2.110216 1_655
Mg2 O25 2.158981 1_655
Mg2 O9 2.166362 1_555
Mg2 O8 2.252309 1_555
Mg3 O6 2.091763 1_555
Mg3 O25 2.098356 1_565
Mg3 O7 2.110216 1_455
Mg3 O24 2.158981 1_455
Mg3 O8 2.166362 1_555
Mg3 O9 2.252309 1_555
Al0 O22 1.821731 1_655
Al0 O20 1.821731 1_545
Al0 O12 1.956512 1_555
Al0 O14 1.956512 1_555
Al0 O16 1.959137 1_645
Al0 O18 1.959137 1_645
Al1 O21 1.821731 1_565
Al1 O23 1.821731 1_455
Al1 O15 1.956512 1_555
Al1 O13 1.956512 1_555
Al1 O19 1.959137 1_465
Al1 O17 1.959137 1_465
Al2 O22 1.817991 1_555
Al2 O20 1.819396 1_545
Al2 O12 1.946232 1_555
Al2 O16 1.951107 1_545
Al2 O0 1.960229 1_545
Al2 O2 1.970606 1_555
Al3 O23 1.817991 1_555
Al3 O21 1.819396 1_565
Al3 O13 1.946232 1_555
Al3 O17 1.951107 1_565
Al3 O1 1.960229 1_565
Al3 O3 1.970606 1_555
Al4 O20 1.817991 1_555
Al4 O22 1.819396 1_655
Al4 O14 1.946232 1_555
Al4 O18 1.951107 1_655
Al4 O2 1.960229 1_655
Al4 O0 1.970606 1_555
Al5 O21 1.817991 1_555
Al5 O23 1.819396 1_455
Al5 O15 1.946232 1_555
Al5 O19 1.951107 1_455
Al5 O3 1.960229 1_455
Al5 O1 1.970606 1_555
Al6 O6 1.894895 1_555
Al6 O7 1.894895 1_545
Al6 O24 1.925314 1_545
Al6 O25 1.925314 1_555
Al6 O9 2.027970 1_555
Al6 O8 2.027970 1_545
Al7 O5 1.894895 1_555
Al7 O4 1.894895 1_454
Al7 O27 1.925314 1_455
Al7 O26 1.925314 1_554
Al7 O10 2.027970 1_554
Al7 O11 2.027970 1_455
H0 O24 1.012360 1_555
H0 O20 1.597373 1_555
H1 O25 1.012360 1_555
H1 O21 1.597373 1_555
H2 O26 1.012360 1_555
H2 O22 1.597373 1_555
H3 O27 1.012360 1_555
H3 O23 1.597373 1_555
O0 Si2 1.653973 1_555
O1 Si3 1.653973 1_555
O2 Si0 1.653973 1_555
O3 Si1 1.653973 1_555
O8 Si0 1.657906 1_555
O9 Si1 1.657906 1_555
O10 Si2 1.657906 1_555
O11 Si3 1.657906 1_555
O12 Si2 1.654902 1_555
O13 Si3 1.654902 1_555
O14 Si0 1.654902 1_555
O15 Si1 1.654902 1_555
O16 Si0 1.657033 1_555
O17 Si1 1.657033 1_555
O18 Si2 1.657033 1_555
O19 Si3 1.657033 1_555
