# generated using pymatgen
data_BaAl9Ni2
_symmetry_space_group_name_H-M   'P 1'
_cell_length_a   7.90680378
_cell_length_b   7.90679977
_cell_length_c   3.95992366
_cell_angle_alpha   90.00000000
_cell_angle_beta   90.00000000
_cell_angle_gamma   119.99998555
_symmetry_Int_Tables_number   1
_chemical_formula_structural   BaAl9Ni2
_chemical_formula_sum   'Ba1 Al9 Ni2'
_cell_volume   214.39725009
_cell_formula_units_Z   1
loop_
 _symmetry_equiv_pos_site_id
 _symmetry_equiv_pos_as_xyz
  1  'x, y, z'
loop_
 _atom_site_type_symbol
 _atom_site_label
 _atom_site_symmetry_multiplicity
 _atom_site_fract_x
 _atom_site_fract_y
 _atom_site_fract_z
 _atom_site_occupancy
  Ba  Ba0  1  0.00000000  -0.00000000  0.00000000  1
  Al  Al0  1  0.50000000  -0.00000000  0.00000000  1
  Al  Al1  1  0.50000000  0.50000000  0.00000000  1
  Al  Al2  1  0.00000000  0.50000000  0.00000000  1
  Al  Al3  1  0.21484415  0.42968829  0.50000000  1
  Al  Al4  1  0.78515585  0.21484515  0.50000000  1
  Al  Al5  1  0.42968829  0.21484415  0.50000000  1
  Al  Al6  1  0.57031171  0.78515585  0.50000000  1
  Al  Al7  1  0.21484415  0.78515485  0.50000000  1
  Al  Al8  1  0.78515585  0.57031171  0.50000000  1
  Ni  Ni0  1  0.66666700  0.33333300  0.00000000  1
  Ni  Ni1  1  0.33333300  0.66666700  0.00000000  1
loop_
_geom_bond_atom_site_label_1
_geom_bond_atom_site_label_2
_geom_bond_distance
_geom_bond_site_symmetry_2
Al0 Ni0 2.282495 1_555
Al0 Ni1 2.282495 1_545
Al0 Al6 2.838907 1_544
Al0 Al6 2.838907 1_545
Al0 Al5 2.838907 1_554
Al0 Al5 2.838907 1_555
Al0 Al4 2.838910 1_555
Al0 Al4 2.838910 1_554
Al0 Al7 2.838910 1_544
Al0 Al7 2.838910 1_545
Al1 Ni0 2.282501 1_555
Al1 Ni1 2.282501 1_555
Al1 Al5 2.838907 1_555
Al1 Al6 2.838907 1_554
Al1 Al6 2.838907 1_555
Al1 Al5 2.838907 1_554
Al1 Al8 2.838908 1_554
Al1 Al3 2.838908 1_554
Al1 Al8 2.838908 1_555
Al1 Al3 2.838908 1_555
Al2 Ni1 2.282496 1_555
Al2 Ni0 2.282496 1_455
Al2 Al4 2.838904 1_454
Al2 Al7 2.838904 1_555
Al2 Al7 2.838904 1_554
Al2 Al4 2.838904 1_455
Al2 Al3 2.838908 1_555
Al2 Al8 2.838908 1_455
Al2 Al3 2.838908 1_554
Al2 Al8 2.838908 1_454
Al3 Ni1 2.559968 1_556
Al3 Ni1 2.559968 1_555
Al3 Al7 2.810603 1_555
Al3 Al6 2.810612 1_555
Al3 Al5 2.942287 1_555
Al3 Al4 2.942288 1_455
Al3 Ba0 3.546449 1_556
Al3 Ba0 3.546449 1_555
Al4 Ni0 2.559959 1_555
Al4 Ni0 2.559959 1_556
Al4 Al8 2.810603 1_555
Al4 Al5 2.810608 1_555
Al4 Al6 2.942293 1_545
Al4 Ba0 3.546455 1_656
Al4 Ba0 3.546455 1_655
Al5 Ni0 2.559968 1_555
Al5 Ni0 2.559968 1_556
Al5 Al8 2.810612 1_555
Al5 Al7 2.942293 1_545
Al5 Ba0 3.546450 1_556
Al5 Ba0 3.546450 1_555
Al6 Ni1 2.559968 1_555
Al6 Ni1 2.559968 1_556
Al6 Al7 2.810608 1_555
Al6 Al8 2.942287 1_555
Al6 Ba0 3.546450 1_665
Al6 Ba0 3.546450 1_666
Al7 Ni1 2.559959 1_555
Al7 Ni1 2.559959 1_556
Al7 Al8 2.942288 1_455
Al7 Ba0 3.546455 1_566
Al7 Ba0 3.546455 1_565
Al8 Ni0 2.559968 1_556
Al8 Ni0 2.559968 1_555
Al8 Ba0 3.546449 1_665
Al8 Ba0 3.546449 1_666
