# generated using pymatgen
data_Li4VFe3O8
_symmetry_space_group_name_H-M   'P 1'
_cell_length_a   5.97765200
_cell_length_b   5.99162700
_cell_length_c   8.48257059
_cell_angle_alpha   89.97868946
_cell_angle_beta   90.00000000
_cell_angle_gamma   90.00000000
_symmetry_Int_Tables_number   1
_chemical_formula_structural   Li4VFe3O8
_chemical_formula_sum   'Li8 V2 Fe6 O16'
_cell_volume   303.81054906
_cell_formula_units_Z   2
loop_
 _symmetry_equiv_pos_site_id
 _symmetry_equiv_pos_as_xyz
  1  'x, y, z'
loop_
 _atom_site_type_symbol
 _atom_site_label
 _atom_site_symmetry_multiplicity
 _atom_site_fract_x
 _atom_site_fract_y
 _atom_site_fract_z
 _atom_site_occupancy
  Li  Li0  1  0.75323600  0.74843600  0.75044200  1
  Li  Li1  1  0.00000000  0.00000000  0.50000000  1
  Li  Li2  1  0.50000000  0.50000000  0.00000000  1
  Li  Li3  1  0.24676400  0.74843600  0.75044200  1
  Li  Li4  1  0.50000000  0.00000000  0.50000000  1
  Li  Li5  1  0.00000000  0.50000000  0.00000000  1
  Li  Li6  1  0.75323600  0.25156400  0.24955800  1
  Li  Li7  1  0.24676400  0.25156400  0.24955800  1
  V  V0  1  0.00000000  0.00000000  0.00000000  1
  V  V1  1  0.50000000  0.50000000  0.50000000  1
  Fe  Fe0  1  0.50000000  0.00000000  0.00000000  1
  Fe  Fe1  1  0.00000000  0.50000000  0.50000000  1
  Fe  Fe2  1  0.74859200  0.74959500  0.25019600  1
  Fe  Fe3  1  0.25140800  0.25040500  0.74980400  1
  Fe  Fe4  1  0.74859200  0.25040500  0.74980400  1
  Fe  Fe5  1  0.25140800  0.74959500  0.25019600  1
  O  O0  1  0.76711700  0.23939300  0.99051800  1
  O  O1  1  0.00000000  0.48457400  0.73946900  1
  O  O2  1  0.00000000  0.98886700  0.23881400  1
  O  O3  1  0.74943100  0.73405500  0.49273500  1
  O  O4  1  0.50000000  0.48451600  0.75013900  1
  O  O5  1  0.23288300  0.23939300  0.99051800  1
  O  O6  1  0.50000000  0.01896100  0.75275500  1
  O  O7  1  0.74943100  0.26594500  0.50726500  1
  O  O8  1  0.25056900  0.73405500  0.49273500  1
  O  O9  1  0.50000000  0.98103900  0.24724500  1
  O  O10  1  0.76711700  0.76060700  0.00948200  1
  O  O11  1  0.50000000  0.51548400  0.24986100  1
  O  O12  1  0.25056900  0.26594500  0.50726500  1
  O  O13  1  0.00000000  0.01113300  0.76118600  1
  O  O14  1  0.00000000  0.51542600  0.26053100  1
  O  O15  1  0.23288300  0.76060700  0.00948200  1
loop_
_geom_bond_atom_site_label_1
_geom_bond_atom_site_label_2
_geom_bond_distance
_geom_bond_site_symmetry_2
Li0 O13 2.159088 1_665
Li0 O1 2.164266 1_655
Li0 O3 2.187866 1_555
Li0 O4 2.189066 1_555
Li0 O10 2.200127 1_556
Li0 O6 2.217912 1_565
Li1 O12 2.187780 1_555
Li1 O8 2.187780 1_545
Li1 O7 2.187780 1_455
Li1 O3 2.187780 1_445
Li1 O13 2.216557 1_555
Li1 O2 2.216557 1_545
Li2 O4 2.121528 1_554
Li2 O11 2.121528 1_555
Li2 O15 2.234787 1_555
Li2 O10 2.234787 1_555
Li2 O0 2.234787 1_554
Li2 O5 2.234787 1_554
Li3 O13 2.159088 1_565
Li3 O1 2.164266 1_555
Li3 O8 2.187866 1_555
Li3 O4 2.189066 1_555
Li3 O15 2.200127 1_556
Li3 O6 2.217912 1_565
Li4 O6 2.147062 1_555
Li4 O9 2.147062 1_545
Li4 O3 2.183128 1_545
Li4 O7 2.183128 1_555
Li4 O12 2.183128 1_555
Li4 O8 2.183128 1_545
Li5 O15 2.093477 1_555
Li5 O0 2.093477 1_454
Li5 O10 2.093477 1_455
Li5 O5 2.093477 1_554
Li5 O1 2.211939 1_554
Li5 O14 2.211939 1_555
Li6 O2 2.159088 1_645
Li6 O14 2.164266 1_655
Li6 O7 2.187866 1_555
Li6 O11 2.189066 1_555
Li6 O0 2.200127 1_554
Li6 O9 2.217912 1_545
Li7 O2 2.159088 1_545
Li7 O14 2.164266 1_555
Li7 O12 2.187866 1_555
Li7 O11 2.189066 1_555
Li7 O5 2.200127 1_554
Li7 O9 2.217912 1_545
Fe0 O9 2.100306 1_545
Fe0 O6 2.100306 1_554
Fe0 O5 2.147861 1_554
Fe0 O15 2.147861 1_545
Fe0 O10 2.147861 1_545
Fe0 O0 2.147861 1_554
Fe1 O14 2.033380 1_555
Fe1 O1 2.033380 1_555
Fe1 O8 2.052760 1_555
Fe1 O7 2.052760 1_455
Fe1 O3 2.052760 1_455
Fe1 O12 2.052760 1_555
Fe2 O9 2.032682 1_555
Fe2 O11 2.043473 1_555
Fe2 O10 2.045914 1_555
Fe2 O14 2.057826 1_655
Fe2 O3 2.059432 1_555
Fe2 O2 2.079184 1_655
Fe3 O6 2.032682 1_555
Fe3 O4 2.043473 1_555
Fe3 O5 2.045914 1_555
Fe3 O1 2.057826 1_555
Fe3 O12 2.059432 1_555
Fe3 O13 2.079184 1_555
Fe4 O6 2.032682 1_555
Fe4 O4 2.043473 1_555
Fe4 O0 2.045914 1_555
Fe4 O1 2.057826 1_655
Fe4 O7 2.059432 1_555
Fe4 O13 2.079184 1_655
Fe5 O9 2.032682 1_555
Fe5 O11 2.043473 1_555
Fe5 O15 2.045914 1_555
Fe5 O14 2.057826 1_555
Fe5 O8 2.059432 1_555
Fe5 O2 2.079184 1_555
O0 V0 2.000419 1_656
O2 V0 2.026830 1_565
O3 V1 2.047802 1_555
O4 V1 2.123815 1_555
O5 V0 2.000419 1_556
O7 V1 2.047802 1_555
O8 V1 2.047802 1_555
O10 V0 2.000419 1_665
O11 V1 2.123815 1_555
O12 V1 2.047802 1_555
O13 V0 2.026830 1_556
O15 V0 2.000419 1_565
