# generated using pymatgen
data_CeZn2Fe
_symmetry_space_group_name_H-M   'P 1'
_cell_length_a   3.68278800
_cell_length_b   3.68278800
_cell_length_c   5.03555300
_cell_angle_alpha   90.00000000
_cell_angle_beta   90.00000000
_cell_angle_gamma   90.00000000
_symmetry_Int_Tables_number   1
_chemical_formula_structural   CeZn2Fe
_chemical_formula_sum   'Ce1 Zn2 Fe1'
_cell_volume   68.29684002
_cell_formula_units_Z   1
loop_
 _symmetry_equiv_pos_site_id
 _symmetry_equiv_pos_as_xyz
  1  'x, y, z'
loop_
 _atom_site_type_symbol
 _atom_site_label
 _atom_site_symmetry_multiplicity
 _atom_site_fract_x
 _atom_site_fract_y
 _atom_site_fract_z
 _atom_site_occupancy
  Ce  Ce0  1  0.00000000  0.00000000  0.00000000  1
  Zn  Zn0  1  0.50000000  0.00000000  0.50000000  1
  Zn  Zn1  1  0.00000000  0.50000000  0.50000000  1
  Fe  Fe0  1  0.50000000  0.50000000  0.00000000  1
loop_
_geom_bond_atom_site_label_1
_geom_bond_atom_site_label_2
_geom_bond_distance
_geom_bond_site_symmetry_2
Ce0 Fe0 2.604124 1_555
Ce0 Fe0 2.604124 1_455
Ce0 Fe0 2.604124 1_445
Ce0 Fe0 2.604124 1_545
Zn0 Zn1 2.604124 1_655
Zn0 Zn1 2.604124 1_645
Zn0 Zn1 2.604124 1_545
Zn0 Zn1 2.604124 1_555
