# generated using pymatgen
data_Na2RuO7
_symmetry_space_group_name_H-M   'P 1'
_cell_length_a   6.04069490
_cell_length_b   7.08897241
_cell_length_c   8.95012480
_cell_angle_alpha   82.05666034
_cell_angle_beta   99.32924324
_cell_angle_gamma   98.68469602
_symmetry_Int_Tables_number   1
_chemical_formula_structural   Na2RuO7
_chemical_formula_sum   'Na4 Ru2 O14'
_cell_volume   371.31030193
_cell_formula_units_Z   2
loop_
 _symmetry_equiv_pos_site_id
 _symmetry_equiv_pos_as_xyz
  1  'x, y, z'
loop_
 _atom_site_type_symbol
 _atom_site_label
 _atom_site_symmetry_multiplicity
 _atom_site_fract_x
 _atom_site_fract_y
 _atom_site_fract_z
 _atom_site_occupancy
  Na  Na0  1  0.24629200  0.00391200  0.72897900  1
  Na  Na1  1  0.17979600  0.53508800  0.72951000  1
  Na  Na2  1  0.82234900  0.46444900  0.27032000  1
  Na  Na3  1  0.75365100  0.99613500  0.27015300  1
  Ru  Ru0  1  0.74752300  0.75333200  0.92462800  1
  Ru  Ru1  1  0.25179400  0.24513900  0.07530700  1
  O  O0  1  0.21381200  0.24100500  0.87449400  1
  O  O1  1  0.97207700  0.73322400  0.83130400  1
  O  O2  1  0.46601400  0.75987700  0.83698900  1
  O  O3  1  0.83593100  0.06253900  0.60475100  1
  O  O4  1  0.64799300  0.42484600  0.66765800  1
  O  O5  1  0.12725000  0.80900600  0.50760900  1
  O  O6  1  0.46842500  0.32237400  0.61859100  1
  O  O7  1  0.53420400  0.67321200  0.38123900  1
  O  O8  1  0.87715800  0.18997600  0.49216100  1
  O  O9  1  0.34689800  0.57921400  0.33494400  1
  O  O10  1  0.16058800  0.94084700  0.39667000  1
  O  O11  1  0.53382400  0.24095200  0.16262800  1
  O  O12  1  0.02629900  0.26494800  0.16682400  1
  O  O13  1  0.78812300  0.75991500  0.12528400  1
loop_
_geom_bond_atom_site_label_1
_geom_bond_atom_site_label_2
_geom_bond_distance
_geom_bond_site_symmetry_2
Na0 O0 2.312363 1_555
Na0 O2 2.346087 1_545
Na0 O1 2.512160 1_445
Na0 O5 2.519186 1_545
Na0 O6 2.602265 1_555
Na0 O3 2.616018 1_455
Na1 O0 2.316776 1_555
Na1 O2 2.346565 1_555
Na1 O1 2.373583 1_455
Na1 O5 2.594524 1_555
Na1 O6 2.840442 1_555
Na2 O13 2.325342 1_555
Na2 O11 2.349554 1_555
Na2 O12 2.373655 1_655
Na2 O8 2.598341 1_555
Na2 O7 2.819496 1_555
Na3 O13 2.306860 1_555
Na3 O11 2.349782 1_565
Na3 O12 2.501619 1_665
Na3 O8 2.521397 1_565
Na3 O10 2.596981 1_655
Na3 O7 2.620682 1_555
O0 Ru1 1.778377 1_556
O1 Ru0 1.736838 1_555
O2 Ru0 1.757969 1_555
O3 O8 1.286626 1_555
O4 O6 1.262110 1_555
O7 O9 1.261954 1_555
O10 O5 1.285089 1_555
O11 Ru1 1.758210 1_555
O12 Ru1 1.731288 1_555
O13 Ru0 1.778898 1_554
