# generated using pymatgen
data_La6Mg23P
_symmetry_space_group_name_H-M   'P 1'
_cell_length_a   10.33184831
_cell_length_b   10.33184831
_cell_length_c   10.33184831
_cell_angle_alpha   60.00000000
_cell_angle_beta   60.00000000
_cell_angle_gamma   60.00000000
_symmetry_Int_Tables_number   1
_chemical_formula_structural   La6Mg23P
_chemical_formula_sum   'La6 Mg23 P1'
_cell_volume   779.86434624
_cell_formula_units_Z   1
loop_
 _symmetry_equiv_pos_site_id
 _symmetry_equiv_pos_as_xyz
  1  'x, y, z'
loop_
 _atom_site_type_symbol
 _atom_site_label
 _atom_site_symmetry_multiplicity
 _atom_site_fract_x
 _atom_site_fract_y
 _atom_site_fract_z
 _atom_site_occupancy
  La  La0  1  0.79731200  0.79731200  0.20268800  1
  La  La1  1  0.20268800  0.79731200  0.20268800  1
  La  La2  1  0.79731200  0.20268800  0.20268800  1
  La  La3  1  0.20268800  0.20268800  0.79731200  1
  La  La4  1  0.79731200  0.20268800  0.79731200  1
  La  La5  1  0.20268800  0.79731200  0.79731200  1
  Mg  Mg0  1  0.82704400  0.82704400  0.51886900  1
  Mg  Mg1  1  0.82704400  0.51886900  0.82704400  1
  Mg  Mg2  1  0.51886900  0.82704400  0.82704400  1
  Mg  Mg3  1  0.82704400  0.82704400  0.82704400  1
  Mg  Mg4  1  0.17295600  0.17295600  0.48113100  1
  Mg  Mg5  1  0.17295600  0.48113100  0.17295600  1
  Mg  Mg6  1  0.48113100  0.17295600  0.17295600  1
  Mg  Mg7  1  0.17295600  0.17295600  0.17295600  1
  Mg  Mg8  1  0.62076900  0.62076900  0.13769300  1
  Mg  Mg9  1  0.62076900  0.13769300  0.62076900  1
  Mg  Mg10  1  0.13769300  0.62076900  0.62076900  1
  Mg  Mg11  1  0.62076900  0.62076900  0.62076900  1
  Mg  Mg12  1  0.37923100  0.37923100  0.86230700  1
  Mg  Mg13  1  0.37923100  0.86230700  0.37923100  1
  Mg  Mg14  1  0.86230700  0.37923100  0.37923100  1
  Mg  Mg15  1  0.37923100  0.37923100  0.37923100  1
  Mg  Mg16  1  0.00000000  0.00000000  0.50000000  1
  Mg  Mg17  1  0.50000000  0.00000000  0.50000000  1
  Mg  Mg18  1  0.00000000  0.50000000  0.50000000  1
  Mg  Mg19  1  0.50000000  0.50000000  0.00000000  1
  Mg  Mg20  1  0.00000000  0.50000000  0.00000000  1
  Mg  Mg21  1  0.50000000  0.00000000  0.00000000  1
  Mg  Mg22  1  0.50000000  0.50000000  0.50000000  1
  P  P0  1  0.00000000  0.00000000  0.00000000  1
loop_
_geom_bond_atom_site_label_1
_geom_bond_atom_site_label_2
_geom_bond_distance
_geom_bond_site_symmetry_2
La0 P0 2.961564 1_665
La0 Mg8 3.589116 1_555
La0 Mg14 3.589116 1_555
La0 Mg11 3.589116 1_555
La0 Mg13 3.589116 1_555
La0 Mg3 3.600217 1_554
La0 Mg5 3.600221 1_655
La0 Mg6 3.600221 1_565
La0 Mg0 3.600227 1_555
La0 Mg18 3.717698 1_655
La0 Mg17 3.717698 1_565
La0 Mg21 3.717698 1_565
La0 Mg20 3.717698 1_655
La1 P0 2.961564 1_565
La1 Mg13 3.589116 1_555
La1 Mg8 3.589116 1_555
La1 Mg15 3.589116 1_555
La1 Mg10 3.589116 1_555
La1 Mg7 3.600217 1_565
La1 Mg2 3.600221 1_554
La1 Mg0 3.600221 1_455
La1 Mg5 3.600227 1_555
La1 Mg16 3.717698 1_565
La1 Mg21 3.717698 1_565
La1 Mg18 3.717698 1_555
La1 Mg19 3.717698 1_555
La2 P0 2.961564 1_655
La2 Mg14 3.589116 1_555
La2 Mg8 3.589116 1_555
La2 Mg9 3.589116 1_555
La2 Mg15 3.589116 1_555
La2 Mg7 3.600217 1_655
La2 Mg0 3.600221 1_545
La2 Mg1 3.600221 1_554
La2 Mg6 3.600227 1_555
La2 Mg20 3.717698 1_655
La2 Mg16 3.717698 1_655
La2 Mg17 3.717698 1_555
La2 Mg19 3.717698 1_555
La3 P0 2.961564 1_556
La3 Mg12 3.589116 1_555
La3 Mg9 3.589116 1_555
La3 Mg15 3.589116 1_555
La3 Mg10 3.589116 1_555
La3 Mg7 3.600217 1_556
La3 Mg1 3.600221 1_455
La3 Mg2 3.600221 1_545
La3 Mg4 3.600227 1_555
La3 Mg20 3.717698 1_556
La3 Mg21 3.717698 1_556
La3 Mg18 3.717698 1_555
La3 Mg17 3.717698 1_555
La4 P0 2.961564 1_656
La4 Mg9 3.589116 1_555
La4 Mg14 3.589116 1_555
La4 Mg11 3.589116 1_555
La4 Mg12 3.589116 1_555
La4 Mg3 3.600217 1_545
La4 Mg4 3.600221 1_655
La4 Mg6 3.600221 1_556
La4 Mg1 3.600227 1_555
La4 Mg18 3.717698 1_655
La4 Mg19 3.717698 1_556
La4 Mg16 3.717698 1_655
La4 Mg21 3.717698 1_556
La5 P0 2.961564 1_566
La5 Mg10 3.589116 1_555
La5 Mg11 3.589116 1_555
La5 Mg13 3.589116 1_555
La5 Mg12 3.589116 1_555
La5 Mg3 3.600217 1_455
La5 Mg4 3.600221 1_565
La5 Mg5 3.600221 1_556
La5 Mg2 3.600227 1_555
La5 Mg17 3.717698 1_565
La5 Mg19 3.717698 1_556
La5 Mg20 3.717698 1_556
La5 Mg16 3.717698 1_565
Mg0 Mg16 2.986786 1_665
Mg0 Mg18 2.986795 1_655
Mg0 Mg17 2.986795 1_565
Mg0 Mg1 3.184017 1_555
Mg0 Mg2 3.184017 1_555
Mg0 Mg3 3.184017 1_555
Mg0 Mg10 3.201079 1_655
Mg0 Mg9 3.201079 1_565
Mg0 Mg11 3.201088 1_555
Mg1 Mg20 2.986786 1_656
Mg1 Mg18 2.986795 1_655
Mg1 Mg19 2.986795 1_556
Mg1 Mg2 3.184017 1_555
Mg1 Mg3 3.184017 1_555
Mg1 Mg8 3.201079 1_556
Mg1 Mg10 3.201079 1_655
Mg1 Mg11 3.201088 1_555
Mg2 Mg21 2.986786 1_566
Mg2 Mg3 3.184017 1_555
Mg2 Mg8 3.201079 1_556
Mg2 Mg9 3.201079 1_565
Mg3 Mg8 3.201084 1_556
Mg3 Mg9 3.201084 1_565
Mg4 Mg7 3.184017 1_555
Mg4 Mg5 3.184017 1_555
Mg4 Mg6 3.184017 1_555
Mg5 Mg7 3.184017 1_555
Mg5 Mg6 3.184017 1_555
Mg6 Mg7 3.184017 1_555
Mg10 Mg22 3.056392 1_555
Mg10 Mg20 3.200754 1_556
Mg10 Mg16 3.200754 1_565
Mg10 Mg18 3.200754 1_555
Mg10 Mg3 3.201084 1_455
Mg11 Mg22 3.056392 1_555
Mg11 Mg19 3.200754 1_556
Mg11 Mg17 3.200754 1_565
Mg11 Mg18 3.200754 1_655
Mg11 Mg2 3.201088 1_555
Mg12 Mg22 3.056392 1_555
Mg12 Mg19 3.200754 1_556
Mg12 Mg20 3.200754 1_556
Mg12 Mg21 3.200754 1_556
Mg12 Mg5 3.201079 1_556
Mg12 Mg6 3.201079 1_556
Mg12 Mg7 3.201084 1_556
Mg13 Mg22 3.056392 1_555
Mg13 Mg21 3.200754 1_565
Mg13 Mg16 3.200754 1_565
Mg13 Mg17 3.200754 1_565
Mg13 Mg6 3.201079 1_565
Mg13 Mg4 3.201079 1_565
Mg13 Mg7 3.201084 1_565
Mg14 Mg22 3.056392 1_555
Mg14 Mg16 3.200754 1_655
Mg14 Mg20 3.200754 1_655
Mg14 Mg18 3.200754 1_655
Mg14 Mg4 3.201079 1_655
Mg14 Mg5 3.201079 1_655
Mg14 Mg7 3.201084 1_655
Mg15 Mg22 3.056392 1_555
Mg15 Mg17 3.200754 1_555
Mg15 Mg19 3.200754 1_555
Mg15 Mg18 3.200754 1_555
Mg15 Mg5 3.201088 1_555
Mg15 Mg4 3.201088 1_555
Mg15 Mg6 3.201088 1_555
Mg16 Mg4 2.986786 1_555
Mg16 Mg3 2.986792 1_445
Mg16 Mg7 2.986792 1_555
Mg16 Mg9 3.200754 1_455
Mg17 Mg2 2.986795 1_545
Mg17 Mg6 2.986795 1_555
Mg17 Mg4 2.986795 1_555
Mg17 Mg9 3.200754 1_555
Mg18 Mg5 2.986795 1_555
Mg18 Mg4 2.986795 1_555
Mg19 Mg2 2.986795 1_554
Mg19 Mg5 2.986795 1_555
Mg19 Mg6 2.986795 1_555
Mg19 Mg8 3.200754 1_555
Mg20 Mg5 2.986786 1_555
Mg20 Mg3 2.986792 1_454
Mg20 Mg7 2.986792 1_555
Mg20 Mg8 3.200754 1_455
Mg21 Mg6 2.986786 1_555
Mg21 Mg7 2.986792 1_555
Mg21 Mg3 2.986792 1_544
Mg21 Mg9 3.200754 1_554
Mg21 Mg8 3.200754 1_545
Mg22 Mg8 3.056392 1_555
Mg22 Mg9 3.056392 1_555
