# generated using pymatgen
data_MgMn2Fe2(PO4)4
_symmetry_space_group_name_H-M   'P 1'
_cell_length_a   10.04382547
_cell_length_b   6.00082002
_cell_length_c   5.04992855
_cell_angle_alpha   89.99630509
_cell_angle_beta   88.37008308
_cell_angle_gamma   89.99101066
_symmetry_Int_Tables_number   1
_chemical_formula_structural   MgMn2Fe2(PO4)4
_chemical_formula_sum   'Mg1 Mn2 Fe2 P4 O16'
_cell_volume   304.24204764
_cell_formula_units_Z   1
loop_
 _symmetry_equiv_pos_site_id
 _symmetry_equiv_pos_as_xyz
  1  'x, y, z'
loop_
 _atom_site_type_symbol
 _atom_site_label
 _atom_site_symmetry_multiplicity
 _atom_site_fract_x
 _atom_site_fract_y
 _atom_site_fract_z
 _atom_site_occupancy
  Mg  Mg0  1  0.93040900  0.24999100  0.92906300  1
  Mn  Mn0  1  0.22538100  0.75008000  0.43267200  1
  Mn  Mn1  1  0.28711700  0.25017100  0.93779100  1
  Fe  Fe0  1  0.71686500  0.74999300  0.06495000  1
  Fe  Fe1  1  0.75470000  0.24996700  0.51352500  1
  P  P0  1  0.09483400  0.24991300  0.40345200  1
  P  P1  1  0.40192300  0.75011000  0.88621200  1
  P  P2  1  0.59315200  0.25002300  0.08581500  1
  P  P3  1  0.91010100  0.74999600  0.62185400  1
  O  O0  1  0.06115300  0.74998100  0.65400900  1
  O  O1  1  0.09595500  0.24995500  0.70841500  1
  O  O2  1  0.16512900  0.04689600  0.27092800  1
  O  O3  1  0.16508500  0.45277900  0.27080800  1
  O  O4  1  0.33712700  0.54963600  0.74309200  1
  O  O5  1  0.33723800  0.95071600  0.74336700  1
  O  O6  1  0.37461700  0.74988400  0.19184900  1
  O  O7  1  0.44974300  0.25007100  0.17585400  1
  O  O8  1  0.55663400  0.74995200  0.85708100  1
  O  O9  1  0.61723900  0.25002600  0.78739000  1
  O  O10  1  0.67294100  0.04857500  0.21522400  1
  O  O11  1  0.67296500  0.45139900  0.21521600  1
  O  O12  1  0.84744000  0.54486000  0.78335400  1
  O  O13  1  0.84742600  0.95515900  0.78331800  1
  O  O14  1  0.86502500  0.74998000  0.33650500  1
  O  O15  1  0.94480000  0.24989100  0.31806700  1
loop_
_geom_bond_atom_site_label_1
_geom_bond_atom_site_label_2
_geom_bond_distance
_geom_bond_site_symmetry_2
Mg0 O15 1.973849 1_556
Mg0 O1 1.975043 1_655
Mg0 O12 2.097877 1_555
Mg0 O13 2.098114 1_545
Mn0 O6 1.903155 1_555
Mn0 O0 1.966018 1_555
Mn0 O2 2.057529 1_565
Mn0 O3 2.060685 1_555
Mn0 O4 2.294182 1_555
Mn0 O5 2.296612 1_555
Mn1 O7 2.055468 1_556
Mn1 O5 2.101987 1_545
Mn1 O4 2.102453 1_555
Mn1 O1 2.270384 1_555
Mn1 O3 2.385615 1_556
Mn1 O2 2.387943 1_556
Fe0 O8 1.946271 1_554
Fe0 O10 1.990406 1_565
Fe0 O11 1.990442 1_555
Fe0 O14 2.052088 1_555
Fe0 O12 2.269595 1_554
Fe0 O13 2.269858 1_554
Fe1 O9 1.926192 1_555
Fe1 O11 2.115228 1_555
Fe1 O10 2.115418 1_555
Fe1 O15 2.124288 1_555
Fe1 O13 2.434056 1_545
Fe1 O12 2.434926 1_555
O0 P3 1.530391 1_455
O1 P0 1.540403 1_555
O2 P0 1.550320 1_555
O3 P0 1.549772 1_555
O4 P1 1.555714 1_555
O5 P1 1.554955 1_555
O6 P1 1.559923 1_554
O7 P2 1.498054 1_555
O8 P1 1.556667 1_555
O9 P2 1.519510 1_556
O10 P2 1.600001 1_555
O11 P2 1.600035 1_555
O12 P3 1.596079 1_555
O13 P3 1.596096 1_555
O14 P3 1.522675 1_555
O15 P0 1.579139 1_655
