# generated using pymatgen
data_Li4V3P8O29
_symmetry_space_group_name_H-M   'P 1'
_cell_length_a   9.79725800
_cell_length_b   9.80247840
_cell_length_c   14.03729192
_cell_angle_alpha   90.06224199
_cell_angle_beta   89.99938367
_cell_angle_gamma   119.93111259
_symmetry_Int_Tables_number   1
_chemical_formula_structural   Li4V3P8O29
_chemical_formula_sum   'Li8 V6 P16 O58'
_cell_volume   1168.30198328
_cell_formula_units_Z   2
loop_
 _symmetry_equiv_pos_site_id
 _symmetry_equiv_pos_as_xyz
  1  'x, y, z'
loop_
 _atom_site_type_symbol
 _atom_site_label
 _atom_site_symmetry_multiplicity
 _atom_site_fract_x
 _atom_site_fract_y
 _atom_site_fract_z
 _atom_site_occupancy
  Li  Li0  1  0.22809400  0.32513500  0.94080600  1
  Li  Li1  1  0.68496400  0.90760600  0.94133800  1
  Li  Li2  1  0.08833800  0.77163800  0.94020300  1
  Li  Li3  1  0.77367400  0.09186200  0.55889300  1
  Li  Li4  1  0.22621700  0.90676200  0.44165800  1
  Li  Li5  1  0.31959200  0.09301400  0.05823100  1
  Li  Li6  1  0.31749800  0.22873200  0.56073600  1
  Li  Li7  1  0.90304800  0.67802500  0.55756100  1
  V  V0  1  0.56924400  0.99840800  0.75084200  1
  V  V1  1  0.43779000  0.00000300  0.24997400  1
  V  V2  1  0.00149200  0.43219800  0.24918100  1
  V  V3  1  0.99815000  0.56348300  0.75112700  1
  V  V4  1  0.43468600  0.43516500  0.74807400  1
  V  V5  1  0.56914700  0.56765000  0.25087800  1
  P  P0  1  0.23095300  0.31838200  0.16013700  1
  P  P1  1  0.08430200  0.31507400  0.65714600  1
  P  P2  1  0.68444000  0.76849400  0.65727600  1
  P  P3  1  0.33197900  0.66603000  0.87278500  1
  P  P4  1  0.33263500  0.66601100  0.37022900  1
  P  P5  1  0.68415400  0.91048600  0.15894100  1
  P  P6  1  0.77366600  0.08958100  0.34117800  1
  P  P7  1  0.08875300  0.77010000  0.15723100  1
  P  P8  1  0.91585800  0.22975500  0.84327700  1
  P  P9  1  0.23121700  0.90977500  0.65885000  1
  P  P10  1  0.32058900  0.08872900  0.84034000  1
  P  P11  1  0.66799600  0.33226700  0.62741400  1
  P  P12  1  0.66667000  0.33373700  0.12976800  1
  P  P13  1  0.31855200  0.22993700  0.34285700  1
  P  P14  1  0.91249500  0.68154900  0.33967200  1
  P  P15  1  0.76804700  0.68252400  0.84284100  1
  O  O0  1  0.24495400  0.23489400  0.43390300  1
  O  O1  1  0.25166500  0.33688800  0.65880100  1
  O  O2  1  0.00838700  0.24385700  0.92999000  1
  O  O3  1  0.08695500  0.34218600  0.16468300  1
  O  O4  1  0.38325000  0.47729600  0.17710300  1
  O  O5  1  0.32462800  0.51312000  0.83362800  1
  O  O6  1  0.52194500  0.61802300  0.67522500  1
  O  O7  1  0.76784800  0.76934500  0.92943300  1
  O  O8  1  0.65693000  0.74169300  0.16786900  1
  O  O9  1  0.18347500  0.52076900  0.32452700  1
  O  O10  1  0.09395100  0.47696700  0.67863400  1
  O  O11  1  0.47843900  0.66339200  0.32616400  1
  O  O12  1  0.32376100  0.66948100  0.97899600  1
  O  O13  1  0.32818800  0.67056700  0.47564700  1
  O  O14  1  0.48561700  0.81305300  0.83345100  1
  O  O15  1  0.09547600  0.61807500  0.17704100  1
  O  O16  1  0.18187800  0.67063400  0.82902500  1
  O  O17  1  0.66185400  0.91502900  0.66090400  1
  O  O18  1  0.79270400  0.99986200  0.25007100  1
  O  O19  1  0.76095300  0.00915900  0.43229600  1
  O  O20  1  0.75179800  0.99093900  0.06787200  1
  O  O21  1  0.52270000  0.90331200  0.17962700  1
  O  O22  1  0.33227300  0.81884800  0.32904400  1
  O  O23  1  0.74841500  0.08475000  0.84198300  1
  O  O24  1  0.37873300  0.89819500  0.67583600  1
  O  O25  1  0.08084700  0.74396500  0.66098800  1
  O  O26  1  0.99981800  0.20884900  0.75005300  1
  O  O27  1  0.99235300  0.23690100  0.57028100  1
  O  O28  1  0.99975600  0.75863500  0.42956900  1
  O  O29  1  0.91537500  0.25808200  0.33207600  1
  O  O30  1  0.61941200  0.09678800  0.32040700  1
  O  O31  1  0.25779500  0.91751400  0.16296200  1
  O  O32  1  0.67616800  0.18748500  0.66692100  1
  O  O33  1  0.48041200  0.09810500  0.82244000  1
  O  O34  1  0.24342400  0.00078300  0.93046000  1
  O  O35  1  0.23714700  0.99685700  0.56916800  1
  O  O36  1  0.20954200  0.99939800  0.74990300  1
  O  O37  1  0.34057600  0.08261900  0.33725800  1
  O  O38  1  0.81494800  0.33635700  0.17398100  1
  O  O39  1  0.90522300  0.38210700  0.82303500  1
  O  O40  1  0.51333600  0.18109200  0.17086000  1
  O  O41  1  0.65805900  0.32918200  0.02434400  1
  O  O42  1  0.67554300  0.34227600  0.52116800  1
  O  O43  1  0.51444800  0.32672700  0.66663200  1
  O  O44  1  0.90600400  0.52262500  0.32274500  1
  O  O45  1  0.81743600  0.48684100  0.67140900  1
  O  O46  1  0.33771800  0.25422700  0.83909100  1
  O  O47  1  0.20977300  0.20788400  0.25072500  1
  O  O48  1  0.24104800  0.24139900  0.07011200  1
  O  O49  1  0.47726100  0.38185800  0.32308200  1
  O  O50  1  0.66236700  0.47895000  0.17544500  1
  O  O51  1  0.62098200  0.52188700  0.82489700  1
  O  O52  1  0.91746600  0.66209100  0.83764400  1
  O  O53  1  0.00990400  0.76519500  0.06633900  1
  O  O54  1  0.00177400  0.79217400  0.24924900  1
  O  O55  1  0.74472700  0.65777000  0.33519300  1
  O  O56  1  0.76672400  0.76120000  0.57035900  1
  O  O57  1  0.79009100  0.78994300  0.75000600  1
loop_
_geom_bond_atom_site_label_1
_geom_bond_atom_site_label_2
_geom_bond_distance
_geom_bond_site_symmetry_2
Li0 O2 1.891966 1_555
Li0 O48 2.022786 1_556
Li0 O46 2.101912 1_555
Li0 O5 2.195544 1_555
Li1 O7 1.903138 1_555
Li1 O20 1.927175 1_556
Li1 O23 2.067573 1_565
Li1 O14 2.271035 1_555
Li2 O53 1.918677 1_556
Li2 O34 1.991877 1_565
Li2 O52 2.056940 1_455
Li2 O16 2.271078 1_555
Li3 O27 1.896538 1_555
Li3 O19 1.930496 1_555
Li3 O17 2.089424 1_545
Li3 O32 2.231854 1_555
Li4 O28 1.960704 1_455
Li4 O35 1.974170 1_555
Li4 O37 2.110134 1_565
Li4 O22 2.282934 1_555
Li5 O48 1.962674 1_555
Li5 O34 1.978472 1_554
Li5 O31 2.110333 1_545
Li5 O40 2.282476 1_555
Li6 O0 1.929167 1_555
Li6 O35 2.003753 1_545
Li6 O1 2.028337 1_555
Li6 O43 2.236723 1_555
Li7 O56 1.888705 1_555
Li7 O28 2.001503 1_555
Li7 O25 2.105802 1_655
Li7 O45 2.281998 1_555
O0 P13 1.480027 1_555
O1 P1 1.544337 1_555
O1 V4 1.996820 1_555
O2 P8 1.482270 1_455
O3 P0 1.541851 1_555
O3 V2 1.903009 1_555
O4 P0 1.545763 1_555
O4 V5 1.887405 1_555
O5 P3 1.563486 1_555
O5 V4 2.002269 1_555
O6 P2 1.559184 1_555
O6 V4 1.861255 1_555
O7 P15 1.483644 1_555
O8 P5 1.544205 1_555
O8 V5 1.883642 1_555
O9 P4 1.579852 1_555
O9 V2 1.872053 1_555
O10 P1 1.570857 1_555
O10 V3 1.851520 1_455
O11 P4 1.568555 1_555
O11 V5 1.901986 1_555
O12 P3 1.494343 1_555
O13 P4 1.481704 1_555
O14 P3 1.576235 1_555
O14 V0 1.958633 1_555
O15 P7 1.549606 1_555
O15 V2 1.876953 1_555
O16 P3 1.615016 1_555
O16 V3 1.910460 1_455
O17 P2 1.559439 1_555
O17 V0 1.955220 1_555
O18 P5 1.613314 1_555
O18 P6 1.614025 1_565
O19 P6 1.475519 1_555
O20 P5 1.475119 1_555
O21 P5 1.574930 1_555
O21 V1 1.830376 1_565
O22 P4 1.608096 1_555
O22 V1 1.904290 1_565
O23 P8 1.544319 1_555
O23 V0 1.987360 1_545
O24 P9 1.523900 1_555
O24 V0 1.930132 1_555
O25 P9 1.556800 1_555
O25 V3 1.990436 1_455
O26 P8 1.612052 1_555
O26 P1 1.616490 1_655
O27 P1 1.481439 1_655
O28 P14 1.499192 1_555
O29 P6 1.544057 1_555
O29 V2 1.883134 1_655
O30 P6 1.574969 1_555
O30 V1 1.832266 1_555
O31 P7 1.564913 1_555
O31 V1 1.957142 1_565
O32 P11 1.563091 1_555
O32 V0 1.996870 1_545
O33 P10 1.542669 1_555
O33 V0 1.889241 1_545
O34 P10 1.505667 1_555
O35 P9 1.506551 1_555
O36 P10 1.615227 1_565
O36 P9 1.623043 1_555
O37 P13 1.564867 1_555
O37 V1 1.957470 1_555
O38 P12 1.568115 1_555
O38 V2 1.903042 1_655
O39 P8 1.574205 1_555
O39 V3 1.843197 1_555
O40 P12 1.608451 1_555
O40 V1 1.904032 1_555
O41 P12 1.481627 1_555
O42 P11 1.494142 1_555
O43 P11 1.577214 1_555
O43 V4 1.968190 1_555
O44 P14 1.545228 1_555
O44 V2 1.884882 1_655
O45 P11 1.614011 1_555
O45 V3 1.903197 1_555
O46 P10 1.545535 1_555
O46 V4 2.001024 1_555
O47 P0 1.616159 1_555
O47 P13 1.620069 1_555
O48 P0 1.499533 1_555
O49 P13 1.550053 1_555
O49 V5 1.876814 1_555
O50 P12 1.580188 1_555
O50 V5 1.871296 1_555
O51 P15 1.534281 1_555
O51 V4 1.914836 1_555
O52 P15 1.575118 1_555
O52 V3 1.947826 1_555
O53 P7 1.479784 1_555
O54 P14 1.615098 1_455
O54 P7 1.620127 1_555
O55 P14 1.541936 1_555
O55 V5 1.903051 1_555
O56 P2 1.483545 1_555
O57 P2 1.610044 1_555
O57 P15 1.621616 1_555
