# generated using pymatgen
data_Eu3Ni7B2
_symmetry_space_group_name_H-M   'P 1'
_cell_length_a   5.22539394
_cell_length_b   5.23270611
_cell_length_c   7.24930800
_cell_angle_alpha   90.00000000
_cell_angle_beta   90.00000000
_cell_angle_gamma   120.01601917
_symmetry_Int_Tables_number   1
_chemical_formula_structural   Eu3Ni7B2
_chemical_formula_sum   'Eu3 Ni7 B2'
_cell_volume   171.63364998
_cell_formula_units_Z   1
loop_
 _symmetry_equiv_pos_site_id
 _symmetry_equiv_pos_as_xyz
  1  'x, y, z'
loop_
 _atom_site_type_symbol
 _atom_site_label
 _atom_site_symmetry_multiplicity
 _atom_site_fract_x
 _atom_site_fract_y
 _atom_site_fract_z
 _atom_site_occupancy
  Eu  Eu0  1  0.00032000  0.99996900  0.00000000  1
  Eu  Eu1  1  0.00010800  0.99993900  0.50000000  1
  Eu  Eu2  1  0.33291100  0.66659700  0.00000000  1
  Ni  Ni0  1  0.50507700  0.01015800  0.31465800  1
  Ni  Ni1  1  0.50501300  0.49499800  0.31461000  1
  Ni  Ni2  1  0.98983400  0.49492000  0.31452800  1
  Ni  Ni3  1  0.50507700  0.01015800  0.68534200  1
  Ni  Ni4  1  0.50501300  0.49499800  0.68539000  1
  Ni  Ni5  1  0.98983400  0.49492000  0.68547200  1
  Ni  Ni6  1  0.66654600  0.33337400  0.00000000  1
  B  B0  1  0.33344400  0.66668300  0.50000000  1
  B  B1  1  0.66662200  0.33328600  0.50000000  1
loop_
_geom_bond_atom_site_label_1
_geom_bond_atom_site_label_2
_geom_bond_distance
_geom_bond_site_symmetry_2
Eu0 Ni6 3.014403 1_565
Eu0 Eu2 3.016055 1_555
Eu0 Eu2 3.019754 1_455
Eu0 Ni6 3.020292 1_455
Eu0 Eu2 3.020450 1_565
Eu0 Ni6 3.021556 1_465
Eu1 Ni3 2.937600 1_565
Eu1 Ni0 2.937600 1_565
Eu1 Ni3 2.938995 1_465
Eu1 Ni0 2.938995 1_465
Eu1 Ni1 2.939347 1_565
Eu1 Ni4 2.939347 1_565
Eu1 Ni1 2.939642 1_455
Eu1 Ni4 2.939642 1_455
Eu1 Ni5 2.941455 1_455
Eu1 Ni2 2.941455 1_455
Eu1 Ni5 2.942510 1_465
Eu1 Ni2 2.942510 1_465
Eu2 Ni2 2.758349 1_455
Eu2 Ni5 2.758349 1_454
Eu2 Ni4 2.761255 1_554
Eu2 Ni1 2.761255 1_555
Eu2 Ni0 2.761586 1_565
Eu2 Ni3 2.761586 1_564
Eu2 Ni6 3.015031 1_455
Eu2 Ni6 3.020102 1_555
Eu2 Ni6 3.021117 1_565
Ni0 Ni6 2.710696 1_555
Ni1 Ni6 2.709897 1_555
Ni2 Ni6 2.708972 1_555
Ni3 Ni6 2.710696 1_556
Ni4 Ni6 2.709897 1_556
Ni5 Ni6 2.708972 1_556
B0 Ni1 2.054950 1_555
B0 Ni4 2.054950 1_555
B0 Ni5 2.055450 1_455
B0 Ni2 2.055450 1_455
B0 Ni3 2.056019 1_565
B0 Ni0 2.056019 1_565
B0 Eu1 3.016384 1_655
B0 Eu1 3.018899 1_555
B0 Eu1 3.020969 1_545
B1 Ni5 1.986560 1_555
B1 Ni2 1.986560 1_555
B1 Ni3 1.987150 1_555
B1 Ni0 1.987150 1_555
B1 Ni1 1.987536 1_555
B1 Ni4 1.987536 1_555
B1 Eu1 3.015705 1_545
B1 Eu1 3.019990 1_645
B1 Eu1 3.020556 1_655
